# Generated by pormake.
# Topology ung, (4)-cn, num edge types: 1
# Building blocks:
#     Node 0, Type 0, BuildingBlock: NAWXER_clean_sbu_0, # of connection points: 4
#     Node 1, Type 0, BuildingBlock: NAWXER_clean_sbu_0, # of connection points: 4
#     Node 2, Type 0, BuildingBlock: NAWXER_clean_sbu_0, # of connection points: 4
#     Node 3, Type 0, BuildingBlock: NAWXER_clean_sbu_0, # of connection points: 4
#     Node 4, Type 0, BuildingBlock: NAWXER_clean_sbu_0, # of connection points: 4
#     Node 5, Type 0, BuildingBlock: NAWXER_clean_sbu_0, # of connection points: 4
#     Node 6, Type 0, BuildingBlock: NAWXER_clean_sbu_0, # of connection points: 4
#     Node 7, Type 0, BuildingBlock: NAWXER_clean_sbu_0, # of connection points: 4
#     Node 8, Type 0, BuildingBlock: NAWXER_clean_sbu_0, # of connection points: 4
#     Node 9, Type 0, BuildingBlock: NAWXER_clean_sbu_0, # of connection points: 4
#     Node 10, Type 0, BuildingBlock: NAWXER_clean_sbu_0, # of connection points: 4
#     Node 11, Type 0, BuildingBlock: NAWXER_clean_sbu_0, # of connection points: 4
#     Node 12, Type 0, BuildingBlock: NAWXER_clean_sbu_0, # of connection points: 4
#     Node 13, Type 0, BuildingBlock: NAWXER_clean_sbu_0, # of connection points: 4
#     Node 14, Type 0, BuildingBlock: NAWXER_clean_sbu_0, # of connection points: 4
#     Node 15, Type 0, BuildingBlock: NAWXER_clean_sbu_0, # of connection points: 4
#     Node 16, Type 0, BuildingBlock: NAWXER_clean_sbu_0, # of connection points: 4
#     Node 17, Type 0, BuildingBlock: NAWXER_clean_sbu_0, # of connection points: 4
#     Edge 18, Type (0, 0), BuildingBlock: EZIPEK_clean_linker_0, # of connection points: 2
#     Edge 19, Type (0, 0), BuildingBlock: EZIPEK_clean_linker_0, # of connection points: 2
#     Edge 20, Type (0, 0), BuildingBlock: EZIPEK_clean_linker_0, # of connection points: 2
#     Edge 21, Type (0, 0), BuildingBlock: EZIPEK_clean_linker_0, # of connection points: 2
#     Edge 22, Type (0, 0), BuildingBlock: EZIPEK_clean_linker_0, # of connection points: 2
#     Edge 23, Type (0, 0), BuildingBlock: EZIPEK_clean_linker_0, # of connection points: 2
#     Edge 24, Type (0, 0), BuildingBlock: EZIPEK_clean_linker_0, # of connection points: 2
#     Edge 25, Type (0, 0), BuildingBlock: EZIPEK_clean_linker_0, # of connection points: 2
#     Edge 26, Type (0, 0), BuildingBlock: EZIPEK_clean_linker_0, # of connection points: 2
#     Edge 27, Type (0, 0), BuildingBlock: EZIPEK_clean_linker_0, # of connection points: 2
#     Edge 28, Type (0, 0), BuildingBlock: EZIPEK_clean_linker_0, # of connection points: 2
#     Edge 29, Type (0, 0), BuildingBlock: EZIPEK_clean_linker_0, # of connection points: 2
#     Edge 30, Type (0, 0), BuildingBlock: EZIPEK_clean_linker_0, # of connection points: 2
#     Edge 31, Type (0, 0), BuildingBlock: EZIPEK_clean_linker_0, # of connection points: 2
#     Edge 32, Type (0, 0), BuildingBlock: EZIPEK_clean_linker_0, # of connection points: 2
#     Edge 33, Type (0, 0), BuildingBlock: EZIPEK_clean_linker_0, # of connection points: 2
#     Edge 34, Type (0, 0), BuildingBlock: EZIPEK_clean_linker_0, # of connection points: 2
#     Edge 35, Type (0, 0), BuildingBlock: EZIPEK_clean_linker_0, # of connection points: 2
#     Edge 36, Type (0, 0), BuildingBlock: EZIPEK_clean_linker_0, # of connection points: 2
#     Edge 37, Type (0, 0), BuildingBlock: EZIPEK_clean_linker_0, # of connection points: 2
#     Edge 38, Type (0, 0), BuildingBlock: EZIPEK_clean_linker_0, # of connection points: 2
#     Edge 39, Type (0, 0), BuildingBlock: EZIPEK_clean_linker_0, # of connection points: 2
#     Edge 40, Type (0, 0), BuildingBlock: EZIPEK_clean_linker_0, # of connection points: 2
#     Edge 41, Type (0, 0), BuildingBlock: EZIPEK_clean_linker_0, # of connection points: 2
#     Edge 42, Type (0, 0), BuildingBlock: EZIPEK_clean_linker_0, # of connection points: 2
#     Edge 43, Type (0, 0), BuildingBlock: EZIPEK_clean_linker_0, # of connection points: 2
#     Edge 44, Type (0, 0), BuildingBlock: EZIPEK_clean_linker_0, # of connection points: 2
#     Edge 45, Type (0, 0), BuildingBlock: EZIPEK_clean_linker_0, # of connection points: 2
#     Edge 46, Type (0, 0), BuildingBlock: EZIPEK_clean_linker_0, # of connection points: 2
#     Edge 47, Type (0, 0), BuildingBlock: EZIPEK_clean_linker_0, # of connection points: 2
#     Edge 48, Type (0, 0), BuildingBlock: EZIPEK_clean_linker_0, # of connection points: 2
#     Edge 49, Type (0, 0), BuildingBlock: EZIPEK_clean_linker_0, # of connection points: 2
#     Edge 50, Type (0, 0), BuildingBlock: EZIPEK_clean_linker_0, # of connection points: 2
#     Edge 51, Type (0, 0), BuildingBlock: EZIPEK_clean_linker_0, # of connection points: 2
#     Edge 52, Type (0, 0), BuildingBlock: EZIPEK_clean_linker_0, # of connection points: 2
#     Edge 53, Type (0, 0), BuildingBlock: EZIPEK_clean_linker_0, # of connection points: 2
# Relax obj value: 0.020
# Max RMSD: 0.247
# Mean RMSD: 0.247
data_MOF--net-ung--node1-NAWXER_clean_sbu_0--edge1-EZIPEK_clean_linker_0
_symmetry_space_group_name_H-M    P1
_symmetry_Int_Tables_number       1
_symmetry_cell_setting            triclinic
loop_
_symmetry_equiv_pos_as_xyz
'x, y, z'
_cell_length_a     56.560026
_cell_length_b     56.704129
_cell_length_c     15.698578
_cell_angle_alpha  90.060601
_cell_angle_beta   90.045237
_cell_angle_gamma 119.82539
loop_
_atom_site_label
_atom_site_type_symbol
_atom_site_fract_x
_atom_site_fract_y
_atom_site_fract_z
_atom_type_partial_charge
C0 C 0.08396 0.6188 0.37641 0.0
C1 C 0.05336 0.66376 0.17839 0.0
O2 O 0.06135 0.61838 0.37302 0.0
Zn3 Zn 0.06941 0.64202 0.27723 0.0
O4 O 0.10287 0.63343 0.32335 0.0
Zn5 Zn 0.10806 0.66135 0.22157 0.0
O6 O 0.13619 0.69617 0.26417 0.0
O7 O 0.09698 0.68156 0.32996 0.0
O8 O 0.07837 0.6705 0.16483 0.0
O9 O 0.04029 0.64722 0.23781 0.0
O10 O 0.07534 0.61973 0.17334 0.0
O11 O 0.11754 0.64591 0.12773 0.0
C12 C 0.12194 0.6999 0.3192 0.0
C13 C 0.09494 0.62388 0.12285 0.0
C14 C 0.46942 0.49796 0.32603 0.0
C15 C 0.54337 0.54762 0.12383 0.0
O16 O 0.47209 0.51549 0.27094 0.0
Zn17 Zn 0.50687 0.5231 0.22586 0.0
O18 O 0.48837 0.49197 0.33498 0.0
Zn19 Zn 0.52791 0.50495 0.27892 0.0
O20 O 0.5526 0.52158 0.37287 0.0
O21 O 0.5352 0.54638 0.32612 0.0
O22 O 0.54842 0.53272 0.17376 0.0
O23 O 0.52115 0.54788 0.13124 0.0
O24 O 0.49786 0.48441 0.16989 0.0
O25 O 0.52366 0.47127 0.23744 0.0
C26 C 0.55108 0.54312 0.37709 0.0
C27 C 0.50581 0.46699 0.18124 0.0
C28 C 0.66939 0.04765 0.32691 0.0
C29 C 0.62188 0.0763 0.12917 0.0
O30 O 0.654 0.03465 0.26474 0.0
Zn31 Zn 0.64605 0.06226 0.22674 0.0
O32 O 0.6744 0.07194 0.3422 0.0
Zn33 Zn 0.6653 0.10085 0.28277 0.0
O34 O 0.64836 0.11014 0.37217 0.0
O35 O 0.62421 0.06724 0.33213 0.0
O36 O 0.63872 0.096 0.17654 0.0
O37 O 0.61994 0.05309 0.13663 0.0
O38 O 0.68413 0.09116 0.16819 0.0
O39 O 0.70084 0.12839 0.24596 0.0
C40 C 0.62708 0.08699 0.37929 0.0
C41 C 0.70335 0.11542 0.18395 0.0
C42 C 0.05568 0.46679 0.67755 0.0
C43 C 0.08262 0.54229 0.87579 0.0
O44 O 0.08069 0.48511 0.66714 0.0
Zn45 Zn 0.10831 0.52461 0.7211 0.0
O46 O 0.04137 0.47044 0.73257 0.0
Zn47 Zn 0.06951 0.50501 0.77585 0.0
O48 O 0.07484 0.5331 0.6745 0.0
O49 O 0.11653 0.54847 0.62588 0.0
O50 O 0.06009 0.52021 0.87063 0.0
O51 O 0.10223 0.54661 0.82518 0.0
O52 O 0.13741 0.51938 0.7609 0.0
O53 O 0.0988 0.495 0.83061 0.0
C54 C 0.09387 0.54792 0.62201 0.0
C55 C 0.12391 0.50202 0.81797 0.0
C56 C 0.66773 0.69726 0.82547 0.0
C57 C 0.62066 0.62427 0.62305 0.0
O58 O 0.67397 0.67864 0.8384 0.0
Zn59 Zn 0.66324 0.63972 0.77945 0.0
O60 O 0.65127 0.69444 0.76637 0.0
Zn61 Zn 0.64493 0.66005 0.72542 0.0
O62 O 0.62176 0.63174 0.82752 0.0
O63 O 0.64692 0.61426 0.87104 0.0
O64 O 0.62025 0.64627 0.63176 0.0
O65 O 0.63575 0.61908 0.67202 0.0
O66 O 0.69793 0.64516 0.74228 0.0
O67 O 0.68416 0.66955 0.67008 0.0
C68 C 0.62534 0.61571 0.87693 0.0
C69 C 0.70203 0.66232 0.68437 0.0
C70 C 0.54713 0.07797 0.62768 0.0
C71 C 0.47073 0.04911 0.82157 0.0
O72 O 0.55044 0.09752 0.6765 0.0
Zn73 Zn 0.52889 0.10246 0.78205 0.0
O74 O 0.52547 0.05512 0.63351 0.0
Zn75 Zn 0.5089 0.06403 0.72521 0.0
O76 O 0.49926 0.09358 0.67198 0.0
O77 O 0.52335 0.13161 0.74461 0.0
O78 O 0.47373 0.03604 0.76084 0.0
O79 O 0.48961 0.07361 0.83739 0.0
O80 O 0.55443 0.11045 0.87305 0.0
O81 O 0.53509 0.06774 0.83114 0.0
C82 C 0.50617 0.1185 0.68639 0.0
C83 C 0.55204 0.08705 0.87944 0.0
C84 C 0.74634 0.94907 0.72379 0.0
C85 C 0.71833 0.9969 0.52806 0.0
O86 O 0.72362 0.94833 0.71763 0.0
Zn87 Zn 0.73294 0.97364 0.62554 0.0
O88 O 0.76606 0.96497 0.67514 0.0
Zn89 Zn 0.77141 0.99137 0.56935 0.0
O90 O 0.80095 0.0256 0.60647 0.0
O91 O 0.76296 0.0128 0.67853 0.0
O92 O 0.74292 1.0024 0.5133 0.0
O93 O 0.70497 0.98086 0.58826 0.0
O94 O 0.7364 0.95078 0.52027 0.0
O95 O 0.77923 0.9736 0.4788 0.0
C96 C 0.78808 0.03027 0.66406 0.0
C97 C 0.75569 0.95283 0.47231 0.0
C98 C 0.13913 0.83501 0.66122 0.0
C99 C 0.21624 0.8822 0.46661 0.0
O100 O 0.14367 0.8537 0.60817 0.0
Zn101 Zn 0.17781 0.85874 0.56398 0.0
O102 O 0.15663 0.82704 0.66987 0.0
Zn103 Zn 0.19585 0.83742 0.61617 0.0
O104 O 0.21994 0.85166 0.71364 0.0
O105 O 0.20628 0.87957 0.66692 0.0
O106 O 0.21934 0.86602 0.51651 0.0
O107 O 0.19471 0.8839 0.47118 0.0
O108 O 0.16523 0.81961 0.50526 0.0
O109 O 0.18865 0.80306 0.56874 0.0
C110 C 0.22061 0.87434 0.71885 0.0
C111 C 0.17128 0.8007 0.51304 0.0
C112 C 0.36836 0.44859 0.51739 0.0
C113 C 0.29474 0.42285 0.72329 0.0
O114 O 0.36553 0.46338 0.57265 0.0
Zn115 Zn 0.3315 0.43571 0.62013 0.0
O116 O 0.34981 0.4236 0.50918 0.0
Zn117 Zn 0.31091 0.3965 0.56756 0.0
O118 O 0.28593 0.38788 0.47399 0.0
O119 O 0.30202 0.42971 0.52195 0.0
O120 O 0.28972 0.40345 0.67115 0.0
O121 O 0.31722 0.44501 0.71821 0.0
O122 O 0.34321 0.40771 0.67195 0.0
O123 O 0.31682 0.36801 0.61093 0.0
C124 C 0.28643 0.4105 0.47089 0.0
C125 C 0.3358 0.38248 0.66294 0.0
C126 C 0.78379 0.82972 0.16174 0.0
C127 C 0.75434 0.87744 0.97112 0.0
O128 O 0.75914 0.8238 0.17786 0.0
Zn129 Zn 0.73 0.83435 0.12381 0.0
O130 O 0.79689 0.8464 0.10264 0.0
Zn131 Zn 0.7686 0.8533 0.06812 0.0
O132 O 0.76442 0.87508 0.17496 0.0
O133 O 0.72158 0.85127 0.2157 0.0
O134 O 0.77736 0.87885 0.97729 0.0
O135 O 0.73473 0.86101 0.01921 0.0
O136 O 0.7011 0.79981 0.08476 0.0
O137 O 0.73956 0.81423 0.01388 0.0
C138 C 0.74488 0.87234 0.223 0.0
C139 C 0.71465 0.79602 0.02731 0.0
C140 C 0.33514 0.03379 0.15381 0.0
C141 C 0.28993 0.95491 0.96884 0.0
O142 O 0.34292 0.01652 0.17053 0.0
Zn143 Zn 0.33404 0.97697 0.12182 0.0
O144 O 0.31709 0.0283 0.09738 0.0
Zn145 Zn 0.31257 0.99361 0.06413 0.0
O146 O 0.29213 0.96702 0.17229 0.0
O147 O 0.3203 0.95344 0.21856 0.0
O148 O 0.28739 0.97586 0.97325 0.0
O149 O 0.30643 0.95243 0.01952 0.0
O150 O 0.36904 0.9842 0.08307 0.0
O151 O 0.35171 1.0045 0.00618 0.0
C152 C 0.29783 0.95313 0.22461 0.0
C153 C 0.37112 0.99949 0.02127 0.0
C154 C 0.17062 0.44913 0.01838 0.0
C155 C 0.21587 0.42135 0.2253 0.0
O156 O 0.16612 0.425 0.00341 0.0
Zn157 Zn 0.17499 0.3962 0.06581 0.0
O158 O 0.18482 0.46189 0.08279 0.0
Zn159 Zn 0.19225 0.43434 0.12341 0.0
O160 O 0.21632 0.43011 0.02146 0.0
O161 O 0.19238 0.38754 0.97682 0.0
O162 O 0.21619 0.44381 0.21922 0.0
O163 O 0.20141 0.40188 0.1735 0.0
O164 O 0.1396 0.36768 0.09996 0.0
O165 O 0.15306 0.40506 0.1749 0.0
C166 C 0.21356 0.41082 0.97187 0.0
C167 C 0.13494 0.38048 0.15771 0.0
C168 C 0.41882 0.28623 0.03991 0.0
C169 C 0.38898 0.3329 0.84577 0.0
O170 O 0.39556 0.28429 0.03293 0.0
Zn171 Zn 0.40412 0.30981 0.94184 0.0
O172 O 0.4384 0.30292 0.99222 0.0
Zn173 Zn 0.44298 0.32931 0.8871 0.0
O174 O 0.47133 0.36401 0.926 0.0
O175 O 0.43275 0.34897 0.99708 0.0
O176 O 0.41392 0.33955 0.83202 0.0
O177 O 0.37552 0.31594 0.90385 0.0
O178 O 0.40902 0.28827 0.83643 0.0
O179 O 0.45182 0.31253 0.79577 0.0
C180 C 0.4576 0.36738 0.98381 0.0
C181 C 0.42868 0.29124 0.7887 0.0
C182 C 0.80282 0.16577 0.98359 0.0
C183 C 0.87614 0.21218 0.78129 0.0
O184 O 0.80492 0.18112 0.92197 0.0
Zn185 Zn 0.83991 0.18831 0.88354 0.0
O186 O 0.82221 0.16075 0.99895 0.0
Zn187 Zn 0.86164 0.17207 0.94247 0.0
O188 O 0.88668 0.19033 0.03391 0.0
O189 O 0.86718 0.21311 0.98564 0.0
O190 O 0.88197 0.19855 0.83421 0.0
O191 O 0.85354 0.21165 0.78661 0.0
O192 O 0.83147 0.14881 0.83558 0.0
O193 O 0.85749 0.13747 0.90966 0.0
C194 C 0.88371 0.21104 0.03716 0.0
C195 C 0.83951 0.13177 0.85278 0.0
C196 C 1.00285 0.71367 0.98137 0.0
C197 C 0.95612 0.74377 0.78864 0.0
O198 O 0.98711 0.70106 0.91956 0.0
Zn199 Zn 0.9802 0.72943 0.88543 0.0
O200 O 1.00845 0.73812 0.9985 0.0
Zn201 Zn 0.99818 0.76741 0.94461 0.0
O202 O 0.98027 0.77486 0.03572 0.0
O203 O 0.95715 0.73242 0.99132 0.0
O204 O 0.97205 0.76306 0.83866 0.0
O205 O 0.95515 0.72097 0.79298 0.0
O206 O 0.01964 0.75942 0.8344 0.0
O207 O 0.03289 0.7969 0.90947 0.0
C208 C 0.95928 0.75145 0.04067 0.0
C209 C 0.03741 0.78427 0.85073 0.0
C210 C 0.3874 0.13461 0.34517 0.0
C211 C 0.41836 0.2111 0.53943 0.0
O212 O 0.4125 0.15231 0.33162 0.0
Zn213 Zn 0.44203 0.19132 0.38657 0.0
O214 O 0.37424 0.13872 0.40315 0.0
Zn215 Zn 0.4033 0.17288 0.44158 0.0
O216 O 0.40856 0.19943 0.33636 0.0
O217 O 0.45125 0.21694 0.29527 0.0
O218 O 0.39496 0.19016 0.53241 0.0
O219 O 0.43784 0.21355 0.49175 0.0
O220 O 0.47017 0.18453 0.42547 0.0
O221 O 0.43173 0.16191 0.49766 0.0
C222 C 0.4283 0.21572 0.28847 0.0
C223 C 0.45654 0.16796 0.48423 0.0
C224 C 1.00403 0.3652 0.48905 0.0
C225 C 0.95046 0.29231 0.28699 0.0
O226 O 1.00945 0.34583 0.49532 0.0
Zn227 Zn 0.99466 0.30629 0.43733 0.0
O228 O 0.98597 0.36302 0.4366 0.0
Zn229 Zn 0.9764 0.32794 0.38991 0.0
O230 O 0.95372 0.29963 0.4902 0.0
O231 O 0.97811 0.28093 0.52979 0.0
O232 O 0.95034 0.31445 0.29792 0.0
O233 O 0.96573 0.28677 0.33364 0.0
O234 O 0.02755 0.30995 0.38881 0.0
O235 O 0.01346 0.33517 0.32587 0.0
C236 C 0.95694 0.28308 0.53779 0.0
C237 C 0.03049 0.32647 0.32968 0.0
C238 C 0.83521 0.77854 0.34713 0.0
C239 C 0.8841 0.75155 0.54156 0.0
O240 O 0.82955 0.75393 0.33275 0.0
Zn241 Zn 0.84058 0.72557 0.39018 0.0
O242 O 0.85182 0.79211 0.40613 0.0
Zn243 Zn 0.85912 0.76448 0.44318 0.0
O244 O 0.88094 0.75987 0.33691 0.0
O245 O 0.85765 0.71677 0.29924 0.0
O246 O 0.8851 0.77428 0.5339 0.0
O247 O 0.86771 0.73155 0.49456 0.0
O248 O 0.80636 0.69679 0.43197 0.0
O249 O 0.82004 0.73574 0.49835 0.0
C250 C 0.87845 0.74016 0.29031 0.0
C251 C 0.80216 0.7106 0.48744 0.0
C252 C 0.08794 0.55871 0.02706 0.0
C253 C 0.08595 0.56326 0.93904 0.0
C254 C 0.08945 0.60737 0.9717 0.0
C255 C 0.09147 0.60284 0.0597 0.0
N256 N 0.09058 0.57392 0.17354 0.0
N257 N 0.08679 0.59217 0.82522 0.0
C258 C 0.09008 0.57837 0.08805 0.0
C259 C 0.08731 0.58772 0.91071 0.0
N260 N 0.08923 0.53622 0.05158 0.0
N261 N 0.08812 0.62985 0.94719 0.0
H262 H 0.08339 0.57756 0.77914 0.0
H263 H 0.09086 0.61061 0.79878 0.0
H264 H 0.08943 0.64451 0.99012 0.0
H265 H 0.08404 0.63344 0.88547 0.0
H266 H 0.09327 0.53261 0.11333 0.0
H267 H 0.08791 0.52155 0.00866 0.0
H268 H 0.08652 0.55548 0.20001 0.0
H269 H 0.09396 0.58852 0.21961 0.0
C270 C 0.57939 0.57599 0.91166 0.0
C271 C 0.6042 0.59854 0.94006 0.0
C272 C 0.58944 0.58726 0.08898 0.0
C273 C 0.56406 0.56545 0.06034 0.0
N274 N 0.5334 0.54045 0.94533 0.0
N275 N 0.63264 0.62724 0.05364 0.0
C276 C 0.55856 0.56034 0.97184 0.0
C277 C 0.60923 0.60451 0.02827 0.0
N278 N 0.57641 0.56867 0.82756 0.0
N279 N 0.59455 0.59147 0.17449 0.0
H280 H 0.64804 0.63969 0.01142 0.0
H281 H 0.63644 0.6348 0.11554 0.0
H282 H 0.57976 0.58109 0.22076 0.0
H283 H 0.61361 0.60452 0.20047 0.0
H284 H 0.56016 0.55088 0.80345 0.0
H285 H 0.59139 0.57937 0.78205 0.0
H286 H 0.52688 0.5378 0.88226 0.0
H287 H 0.5182 0.52737 0.98709 0.0
C288 C 0.58732 0.09049 0.08929 0.0
C289 C 0.60487 0.08037 0.06478 0.0
C290 C 0.58609 0.07218 0.91939 0.0
C291 C 0.5686 0.08236 0.94392 0.0
N292 N 0.54745 0.09428 0.05615 0.0
N293 N 0.62583 0.06817 0.95262 0.0
C294 C 0.56798 0.08983 0.02985 0.0
C295 C 0.60538 0.07275 0.9789 0.0
N296 N 0.58949 0.10149 0.16845 0.0
N297 N 0.58393 0.06129 0.84006 0.0
H298 H 0.64116 0.06971 0.99314 0.0
H299 H 0.62953 0.06575 0.88918 0.0
H300 H 0.57086 0.06096 0.79297 0.0
H301 H 0.59349 0.05039 0.8225 0.0
H302 H 0.57991 0.1124 0.18574 0.0
H303 H 0.60256 0.10191 0.21565 0.0
H304 H 0.54369 0.09657 0.11964 0.0
H305 H 0.53212 0.09271 0.01555 0.0
C306 C 0.5786 0.07356 0.41848 0.0
C307 C 0.60607 0.08301 0.44346 0.0
C308 C 0.59559 0.09099 0.58907 0.0
C309 C 0.56815 0.08177 0.56379 0.0
N310 N 0.53551 0.07106 0.45072 0.0
N311 N 0.63893 0.09407 0.5559 0.0
C312 C 0.56014 0.07469 0.47759 0.0
C313 C 0.61414 0.09016 0.52957 0.0
N314 N 0.56973 0.06271 0.33918 0.0
N315 N 0.60426 0.10118 0.66916 0.0
H316 H 0.65258 0.09238 0.51518 0.0
H317 H 0.64498 0.09612 0.61936 0.0
H318 H 0.59158 0.10137 0.71662 0.0
H319 H 0.62466 0.11153 0.68741 0.0
H320 H 0.54928 0.05233 0.32145 0.0
H321 H 0.58224 0.06179 0.29248 0.0
H322 H 0.52972 0.06922 0.38702 0.0
H323 H 0.52184 0.07283 0.49108 0.0
C324 C 0.06861 0.57229 0.43445 0.0
C325 C 0.0874 0.60067 0.43722 0.0
C326 C 0.10919 0.5944 0.56386 0.0
C327 C 0.09044 0.56602 0.56103 0.0
N328 N 0.04911 0.52848 0.50399 0.0
N329 N 0.12897 0.63808 0.49355 0.0
C330 C 0.06919 0.5551 0.4994 0.0
C331 C 0.1087 0.61154 0.49864 0.0
N332 N 0.05151 0.56148 0.36591 0.0
N333 N 0.12617 0.60526 0.63262 0.0
H334 H 0.12936 0.65158 0.44814 0.0
H335 H 0.14677 0.64629 0.52957 0.0
H336 H 0.1265 0.59361 0.68347 0.0
H337 H 0.13796 0.62602 0.64422 0.0
H338 H 0.03964 0.54073 0.35423 0.0
H339 H 0.05111 0.57317 0.31528 0.0
H340 H 0.03129 0.52018 0.46803 0.0
H341 H 0.04893 0.5149 0.54873 0.0
C342 C 0.61428 0.60024 0.48363 0.0
C343 C 0.6028 0.60427 0.55848 0.0
C344 C 0.55704 0.57237 0.5053 0.0
C345 C 0.56877 0.56507 0.43743 0.0
N346 N 0.609 0.57105 0.36411 0.0
N347 N 0.56338 0.59261 0.64551 0.0
C348 C 0.59756 0.57857 0.42758 0.0
C349 C 0.57419 0.58994 0.57066 0.0
N350 N 0.64071 0.61828 0.46325 0.0
N351 N 0.52966 0.56311 0.50661 0.0
H352 H 0.57518 0.60581 0.69407 0.0
H353 H 0.54303 0.5802 0.66232 0.0
H354 H 0.51645 0.55075 0.4592 0.0
H355 H 0.52041 0.56991 0.5499 0.0
H356 H 0.64965 0.61799 0.40557 0.0
H357 H 0.65271 0.6355 0.50007 0.0
H358 H 0.62983 0.57797 0.36051 0.0
H359 H 0.59763 0.55675 0.31746 0.0
C360 C 0.75914 0.92097 0.2627 0.0
C361 C 0.74909 0.89343 0.28735 0.0
C362 C 0.74055 0.90402 0.43226 0.0
C363 C 0.75084 0.93159 0.40781 0.0
N364 N 0.76295 0.96454 0.29569 0.0
N365 N 0.73679 0.86046 0.39963 0.0
C366 C 0.75844 0.93962 0.32201 0.0
C367 C 0.74134 0.88538 0.37311 0.0
N368 N 0.77004 0.92967 0.18348 0.0
N369 N 0.72927 0.89528 0.51104 0.0
H370 H 0.73848 0.84673 0.35937 0.0
H371 H 0.73427 0.85442 0.46311 0.0
H372 H 0.72853 0.90792 0.5576 0.0
H373 H 0.71836 0.87489 0.52838 0.0
H374 H 0.78094 0.95006 0.16605 0.0
H375 H 0.77035 0.917 0.13622 0.0
H376 H 0.76536 0.97061 0.23226 0.0
H377 H 0.76131 0.97826 0.33619 0.0
C378 C 0.25464 0.92832 0.42568 0.0
C379 C 0.23845 0.90014 0.40751 0.0
C380 C 0.26023 0.90722 0.26781 0.0
C381 C 0.27746 0.93505 0.28783 0.0
N382 N 0.29633 0.97025 0.39437 0.0
N383 N 0.23219 0.86185 0.32344 0.0
C384 C 0.27618 0.94515 0.36928 0.0
C385 C 0.24311 0.88926 0.33213 0.0
N386 N 0.2497 0.93896 0.49715 0.0
N387 N 0.26 0.89795 0.18723 0.0
H388 H 0.22153 0.84841 0.37245 0.0
H389 H 0.23664 0.85285 0.27271 0.0
H390 H 0.27262 0.9104 0.13873 0.0
H391 H 0.24574 0.87848 0.1668 0.0
H392 H 0.2588 0.95977 0.50862 0.0
H393 H 0.23529 0.92704 0.54279 0.0
H394 H 0.29787 0.97788 0.45573 0.0
H395 H 0.31322 0.98219 0.3563 0.0
C396 C 0.23942 0.39664 0.41592 0.0
C397 C 0.26815 0.41422 0.41089 0.0
C398 C 0.26228 0.4347 0.28073 0.0
C399 C 0.23362 0.41836 0.28857 0.0
N400 N 0.19435 0.38646 0.36858 0.0
N401 N 0.30634 0.45401 0.3489 0.0
C402 C 0.222 0.39991 0.35731 0.0
C403 C 0.2794 0.43454 0.34669 0.0
N404 N 0.22876 0.37705 0.47758 0.0
N405 N 0.27326 0.44945 0.20805 0.0
H406 H 0.31985 0.45476 0.39512 0.0
H407 H 0.31482 0.471 0.30944 0.0
H408 H 0.26147 0.44983 0.15753 0.0
H409 H 0.294 0.45919 0.19407 0.0
H410 H 0.20861 0.36132 0.47797 0.0
H411 H 0.2403 0.37586 0.52745 0.0
H412 H 0.18459 0.37494 0.42218 0.0
H413 H 0.18103 0.38835 0.32683 0.0
C414 C 0.2418 0.43371 0.84194 0.0
C415 C 0.23532 0.41522 0.91053 0.0
C416 C 0.26545 0.39976 0.85155 0.0
C417 C 0.27384 0.41984 0.78676 0.0
N418 N 0.27134 0.45724 0.72239 0.0
N419 N 0.24517 0.38498 0.99113 0.0
C420 C 0.26257 0.43737 0.7831 0.0
C421 C 0.24831 0.39944 0.9182 0.0
N422 N 0.22709 0.44666 0.8304 0.0
N423 N 0.27339 0.3806 0.84901 0.0
H424 H 0.23324 0.3847 0.04222 0.0
H425 H 0.25649 0.37553 0.00471 0.0
H426 H 0.28605 0.38003 0.80212 0.0
H427 H 0.26541 0.36374 0.88899 0.0
H428 H 0.22855 0.45797 0.7765 0.0
H429 H 0.21176 0.4445 0.87193 0.0
H430 H 0.26675 0.47289 0.72322 0.0
H431 H 0.28429 0.45892 0.67267 0.0
C432 C 0.74144 0.91292 0.93263 0.0
C433 C 0.75042 0.89455 0.90723 0.0
C434 C 0.75849 0.91301 0.76183 0.0
C435 C 0.74975 0.93156 0.78745 0.0
N436 N 0.7396 0.9538 0.9008 0.0
N437 N 0.76086 0.87242 0.79431 0.0
C438 C 0.74281 0.93261 0.8737 0.0
C439 C 0.75736 0.89349 0.82102 0.0
N440 N 0.7309 0.91124 0.01221 0.0
N441 N 0.7686 0.91437 0.68174 0.0
H442 H 0.75924 0.85715 0.8349 0.0
H443 H 0.76254 0.86829 0.73071 0.0
H444 H 0.76902 0.92735 0.63443 0.0
H445 H 0.77868 0.90405 0.66335 0.0
H446 H 0.72082 0.92159 0.03033 0.0
H447 H 0.72995 0.89782 0.05887 0.0
H448 H 0.73787 0.95779 0.96453 0.0
H449 H 0.74161 0.96932 0.8606 0.0
C450 C 0.24394 0.92066 0.91433 0.0
C451 C 0.27264 0.93292 0.90797 0.0
C452 C 0.26734 0.90542 0.78059 0.0
C453 C 0.23866 0.89512 0.78255 0.0
N454 N 0.2006 0.89792 0.84175 0.0
N455 N 0.31223 0.93983 0.82982 0.0
C456 C 0.22724 0.90425 0.84644 0.0
C457 C 0.28455 0.9259 0.84011 0.0
N458 N 0.23252 0.92386 0.98708 0.0
N459 N 0.27826 0.8961 0.72068 0.0
H460 H 0.32544 0.95487 0.87195 0.0
H461 H 0.3221 0.93799 0.77645 0.0
H462 H 0.26703 0.88347 0.67034 0.0
H463 H 0.29828 0.89997 0.72271 0.0
H464 H 0.21167 0.913 0.99938 0.0
H465 H 0.24407 0.93516 0.03923 0.0
H466 H 0.19215 0.90648 0.88159 0.0
H467 H 0.18752 0.88637 0.79297 0.0
C468 C 0.43194 0.27823 0.6386 0.0
C469 C 0.42464 0.27022 0.72456 0.0
C470 C 0.41554 0.22414 0.68982 0.0
C471 C 0.42287 0.23218 0.60389 0.0
N472 N 0.44382 0.26848 0.50027 0.0
N473 N 0.40434 0.23409 0.82896 0.0
C474 C 0.43281 0.25969 0.57932 0.0
C475 C 0.41492 0.24276 0.74938 0.0
N476 N 0.43598 0.30296 0.61207 0.0
N477 N 0.41118 0.19925 0.71593 0.0
H478 H 0.40405 0.24675 0.87628 0.0
H479 H 0.39368 0.21372 0.84673 0.0
H480 H 0.41253 0.18545 0.6751 0.0
H481 H 0.40908 0.19324 0.77937 0.0
H482 H 0.43806 0.30885 0.54849 0.0
H483 H 0.43425 0.31663 0.65252 0.0
H484 H 0.45451 0.28888 0.4829 0.0
H485 H 0.44457 0.25592 0.45346 0.0
C486 C 0.91434 0.25783 0.73931 0.0
C487 C 0.89646 0.23023 0.71808 0.0
C488 C 0.91824 0.23718 0.57831 0.0
C489 C 0.93516 0.26517 0.59796 0.0
N490 N 0.94374 0.30336 0.68659 0.0
N491 N 0.87659 0.19531 0.61079 0.0
C492 C 0.93158 0.2759 0.67541 0.0
C493 C 0.89703 0.22032 0.63562 0.0
N494 N 0.91501 0.26679 0.82066 0.0
N495 N 0.92226 0.22677 0.50469 0.0
H496 H 0.86017 0.18308 0.65017 0.0
H497 H 0.87442 0.18787 0.54892 0.0
H498 H 0.93639 0.23878 0.4585 0.0
H499 H 0.91269 0.20603 0.4916 0.0
H500 H 0.92979 0.2859 0.84216 0.0
H501 H 0.90209 0.25436 0.86866 0.0
H502 H 0.94006 0.31243 0.73878 0.0
H503 H 0.95496 0.31702 0.63871 0.0
C504 C 0.94009 0.74108 0.63874 0.0
C505 C 0.93892 0.74774 0.72513 0.0
C506 C 0.90091 0.75562 0.69155 0.0
C507 C 0.90176 0.74839 0.6054 0.0
N508 N 0.91844 0.72874 0.50064 0.0
N509 N 0.92165 0.76627 0.83154 0.0
C510 C 0.92022 0.73949 0.58 0.0
C511 C 0.92037 0.75649 0.75096 0.0
N512 N 0.96154 0.73825 0.61143 0.0
N513 N 0.88007 0.75956 0.71803 0.0
H514 H 0.93447 0.76632 0.87898 0.0
H515 H 0.91139 0.77636 0.85052 0.0
H516 H 0.8649 0.75826 0.67733 0.0
H517 H 0.87602 0.76148 0.7815 0.0
H518 H 0.96556 0.73671 0.54759 0.0
H519 H 0.97723 0.74051 0.65161 0.0
H520 H 0.92887 0.7187 0.48289 0.0
H521 H 0.9049 0.72758 0.45389 0.0
C522 C 0.92723 0.75485 0.24987 0.0
C523 C 0.8995 0.74434 0.22562 0.0
C524 C 0.91018 0.73604 0.08031 0.0
C525 C 0.93788 0.74646 0.10494 0.0
N526 N 0.9708 0.75844 0.21769 0.0
N527 N 0.86601 0.73101 0.11398 0.0
C528 C 0.94588 0.75402 0.19086 0.0
C529 C 0.8913 0.7363 0.13994 0.0
N530 N 0.93616 0.76641 0.32832 0.0
N531 N 0.90161 0.72527 1.00076 0.0
H532 H 0.85209 0.73227 0.15459 0.0
H533 H 0.85964 0.72816 0.05075 0.0
H534 H 0.91449 0.72532 0.95355 0.0
H535 H 0.88122 0.7142 0.98283 0.0
H536 H 0.95667 0.77753 0.34506 0.0
H537 H 0.92359 0.76718 0.37509 0.0
H538 H 0.97675 0.76078 0.28133 0.0
H539 H 0.98453 0.75667 0.17754 0.0
C540 C 0.43182 0.23214 0.13849 0.0
C541 C 0.42457 0.23296 0.22453 0.0
C542 C 0.41584 0.27028 0.19017 0.0
C543 C 0.42306 0.26941 0.10415 0.0
N544 N 0.44364 0.25357 1.0001 0.0
N545 N 0.40456 0.24926 0.32923 0.0
C546 C 0.43277 0.25158 0.07932 0.0
C547 C 0.41507 0.25096 0.24956 0.0
N548 N 0.43573 0.21134 0.11173 0.0
N549 N 0.41174 0.291 0.21654 0.0
H550 H 0.40426 0.23634 0.37659 0.0
H551 H 0.39401 0.25916 0.34707 0.0
H552 H 0.41323 0.30621 0.17586 0.0
H553 H 0.40975 0.29499 0.28005 0.0
H554 H 0.43769 0.20744 0.04809 0.0
H555 H 0.43405 0.19598 0.15206 0.0
H556 H 0.45424 0.24368 0.98255 0.0
H557 H 0.44435 0.26681 0.95322 0.0
C558 C 0.94526 0.26957 0.1456 0.0
C559 C 0.93301 0.27277 0.22041 0.0
C560 C 0.88791 0.23703 0.1715 0.0
C561 C 0.90031 0.23323 0.09816 0.0
N562 N 0.93934 0.24827 0.00665 0.0
N563 N 0.89371 0.25833 0.3104 0.0
C564 C 0.92865 0.25012 0.08294 0.0
C565 C 0.90452 0.25639 0.23448 0.0
N566 N 0.97293 0.28475 0.13575 0.0
N567 N 0.86018 0.22228 0.18022 0.0
H568 H 0.90521 0.27231 0.35771 0.0
H569 H 0.8738 0.24515 0.32951 0.0
H570 H 0.84755 0.20717 0.13729 0.0
H571 H 0.84931 0.22587 0.22689 0.0
H572 H 0.98382 0.28151 0.0883 0.0
H573 H 0.98552 0.30017 0.17787 0.0
H574 H 0.95915 0.26159 0.98692 0.0
H575 H 0.92776 0.23434 0.95935 0.0
C576 C 0.13285 0.72526 0.45898 0.0
C577 C 0.13367 0.72581 0.36841 0.0
C578 C 0.15752 0.77584 0.37154 0.0
C579 C 0.15658 0.77518 0.46207 0.0
N580 N 0.13669 0.74953 0.59012 0.0
N581 N 0.14202 0.7513 0.23796 0.0
C582 C 0.14237 0.74994 0.50525 0.0
C583 C 0.14479 0.75103 0.32451 0.0
N584 N 0.12389 0.70125 0.50128 0.0
N585 N 0.17107 0.80018 0.33018 0.0
H586 H 0.13316 0.7338 0.20056 0.0
H587 H 0.14645 0.76864 0.20325 0.0
H588 H 0.17779 0.81871 0.36063 0.0
H589 H 0.17646 0.80215 0.26613 0.0
H590 H 0.12621 0.69999 0.56664 0.0
H591 H 0.11591 0.68258 0.47053 0.0
H592 H 0.14243 0.76714 0.6256 0.0
H593 H 0.12384 0.73184 0.62343 0.0
C594 C 0.44415 0.48341 0.46624 0.0
C595 C 0.44369 0.48323 0.37568 0.0
C596 C 0.39362 0.45937 0.37742 0.0
C597 C 0.39409 0.45944 0.4679 0.0
N598 N 0.41923 0.46456 0.59734 0.0
N599 N 0.41821 0.46438 0.2461 0.0
C600 C 0.41922 0.46952 0.51206 0.0
C601 C 0.41846 0.46933 0.33151 0.0
N602 N 0.46832 0.49745 0.50888 0.0
N603 N 0.36954 0.45048 0.33506 0.0
H604 H 0.43592 0.47041 0.21081 0.0
H605 H 0.40053 0.45189 0.21188 0.0
H606 H 0.35077 0.44164 0.36566 0.0
H607 H 0.36828 0.45334 0.27006 0.0
H608 H 0.46969 0.50161 0.5739 0.0
H609 H 0.48716 0.50634 0.47873 0.0
H610 H 0.4367 0.4687 0.63133 0.0
H611 H 0.40143 0.45374 0.63281 0.0
C612 C 0.72005 0.0385 0.46497 0.0
C613 C 0.70581 0.00993 0.47701 0.0
C614 C 0.6661 0.00721 0.40488 0.0
C615 C 0.68183 0.03498 0.38073 0.0
N616 N 0.72654 0.07547 0.37417 0.0
N617 N 0.667 0.96629 0.44171 0.0
C618 C 0.7096 0.05025 0.40692 0.0
C619 C 0.6793 0.99401 0.44217 0.0
N620 N 0.74288 0.05469 0.51174 0.0
N621 N 0.63838 0.99369 0.39643 0.0
H622 H 0.67639 0.95577 0.46506 0.0
H623 H 0.64875 0.95396 0.40973 0.0
H624 H 0.62757 1.00305 0.37542 0.0
H625 H 0.62594 0.97417 0.42022 0.0
H626 H 0.75247 0.07585 0.51094 0.0
H627 H 0.75035 0.04712 0.5587 0.0
H628 H 0.7475 0.0859 0.38508 0.0
H629 H 0.72051 0.08486 0.32915 0.0
C630 C 0.74077 0.15591 0.10742 0.0
C631 C 0.72855 0.12807 0.13096 0.0
C632 C 0.76313 0.12433 0.04706 0.0
C633 C 0.77754 0.15289 0.03532 0.0
N634 N 0.7827 0.19666 0.07089 0.0
N635 N 0.73258 0.08739 0.1375 0.0
C636 C 0.76715 0.16896 0.07038 0.0
C637 C 0.74095 0.11267 0.10488 0.0
N638 N 0.72674 0.16964 0.11594 0.0
N639 N 0.76966 0.10808 1.0001 0.0
H640 H 0.7172 0.07807 0.18256 0.0
H641 H 0.74301 0.07684 0.1265 0.0
H642 H 0.7847 0.11566 0.95328 0.0
H643 H 0.75803 0.08693 1.00064 0.0
H644 H 0.73398 0.18925 0.09261 0.0
H645 H 0.70657 0.16041 0.1365 0.0
H646 H 0.77695 0.2091 0.10308 0.0
H647 H 0.80254 0.20702 0.04719 0.0
C648 C 0.9998 0.67318 0.05904 0.0
C649 C 0.01555 0.70058 0.03145 0.0
C650 C 0.05455 0.70459 0.11097 0.0
C651 C 0.04021 0.67625 0.12757 0.0
N652 N 1.0007 0.63241 0.09823 0.0
N653 N 0.06056 0.73926 0.01069 0.0
C654 C 0.01322 0.66013 0.09612 0.0
C655 C 0.04373 0.71545 0.05143 0.0
N656 N 0.97202 0.65988 0.05343 0.0
N657 N 0.07775 0.7215 0.15495 0.0
H658 H 0.0539 0.74657 0.96068 0.0
H659 H 0.08165 0.74965 0.01903 0.0
H660 H 0.08493 0.71476 0.20509 0.0
H661 H 0.08763 0.7426 0.14899 0.0
H662 H 0.95968 0.64072 0.07986 0.0
H663 H 0.96121 0.6691 0.03126 0.0
H664 H 0.98197 0.61993 0.069 0.0
H665 H 0.0103 0.62196 0.12036 0.0
C666 C 0.47102 0.39175 0.12451 0.0
C667 C 0.47 0.39287 0.03439 0.0
C668 C 0.49493 0.44271 0.04037 0.0
C669 C 0.49352 0.44152 0.13061 0.0
N670 N 0.47505 0.41478 0.2582 0.0
N671 N 0.47578 0.41923 0.90741 0.0
C672 C 0.48014 0.41599 0.17271 0.0
C673 C 0.48053 0.41831 0.99242 0.0
N674 N 0.46427 0.36774 0.16405 0.0
N675 N 0.51084 0.46699 1.00042 0.0
H676 H 0.46467 0.40185 0.8703 0.0
H677 H 0.48049 0.43715 0.87559 0.0
H678 H 0.52221 0.48524 0.03334 0.0
H679 H 0.51484 0.46865 0.93527 0.0
H680 H 0.46731 0.36631 0.22886 0.0
H681 H 0.4581 0.34965 0.13092 0.0
H682 H 0.46285 0.39664 0.29036 0.0
H683 H 0.48071 0.432 0.29559 0.0
C684 C 0.03409 0.41583 0.49364 0.0
C685 C 0.01991 0.39088 0.53836 0.0
C686 C 0.03322 0.41576 0.67445 0.0
C687 C 0.04407 0.44074 0.62931 0.0
N688 N 0.05345 0.46469 0.49542 0.0
N689 N 1.00616 0.36664 0.67166 0.0
C690 C 0.04434 0.44082 0.53873 0.0
C691 C 0.01975 0.39071 0.6289 0.0
N692 N 0.03889 0.41562 0.4083 0.0
N693 N 0.03692 0.41596 0.76068 0.0
H694 H 0.99865 0.34789 0.64185 0.0
H695 H 1.00145 0.36513 0.73623 0.0
H696 H 0.04668 0.43373 0.79678 0.0
H697 H 0.03253 0.39873 0.79597 0.0
H698 H 0.05159 0.43302 0.37353 0.0
H699 H 0.03248 0.39773 0.37368 0.0
H700 H 0.0508 0.4657 0.43015 0.0
H701 H 0.06205 0.48354 0.52532 0.0
C702 C 0.72742 0.66624 0.54939 0.0
C703 C 0.72772 0.67433 0.63479 0.0
C704 C 0.77741 0.70275 0.62776 0.0
C705 C 0.77653 0.69792 0.53849 0.0
N706 N 0.74881 0.67967 0.41155 0.0
N707 N 0.7526 0.70357 0.75253 0.0
C708 C 0.751 0.68092 0.49833 0.0
C709 C 0.75261 0.69364 0.6732 0.0
N710 N 0.70505 0.64378 0.51798 0.0
N711 N 0.80173 0.71456 0.67029 0.0
H712 H 0.73484 0.69718 0.788 0.0
H713 H 0.76985 0.71979 0.77974 0.0
H714 H 0.82014 0.7196 0.64079 0.0
H715 H 0.80322 0.71637 0.73639 0.0
H716 H 0.70465 0.63562 0.45811 0.0
H717 H 0.68819 0.63157 0.55592 0.0
H718 H 0.7301 0.66937 0.38017 0.0
H719 H 0.76508 0.69137 0.37106 0.0
C720 C 0.47098 0.15879 0.62614 0.0
C721 C 0.46919 0.15536 0.53639 0.0
C722 C 0.49494 0.13114 0.5448 0.0
C723 C 0.49399 0.13181 0.6351 0.0
N724 N 0.47667 0.14216 0.76211 0.0
N725 N 0.47461 0.13353 0.41172 0.0
C726 C 0.48082 0.14454 0.67603 0.0
C727 C 0.47983 0.14021 0.49602 0.0
N728 N 0.46433 0.17649 0.66362 0.0
N729 N 0.51122 0.12298 0.5054 0.0
H730 H 0.46304 0.13917 0.37408 0.0
H731 H 0.47943 0.12011 0.38135 0.0
H732 H 0.52351 0.11725 0.53875 0.0
H733 H 0.51476 0.12464 0.43998 0.0
H734 H 0.46798 0.18197 0.72766 0.0
H735 H 0.45761 0.18776 0.6292 0.0
H736 H 0.46444 0.14833 0.79358 0.0
H737 H 0.48328 0.13179 0.8014 0.0
C738 C 0.40971 0.04027 0.94985 0.0
C739 C 0.39628 0.01205 0.96851 0.0
C740 C 0.43385 0.00913 0.90154 0.0
C741 C 0.44515 0.03633 0.8724 0.0
N742 N 0.43866 0.07496 0.8499 0.0
N743 N 0.39262 0.96832 0.94242 0.0
C744 C 0.43161 0.05115 0.89102 0.0
C745 C 0.40747 0.99604 0.93861 0.0
N746 N 0.40263 0.05704 0.99116 0.0
N747 N 0.44864 0.99607 0.89764 0.0
H748 H 0.37264 0.95783 0.96486 0.0
H749 H 0.39905 0.95581 0.91429 0.0
H750 H 0.46868 0.00538 0.87583 0.0
H751 H 0.44208 0.9771 0.92524 0.0
H752 H 0.41349 0.07813 0.98451 0.0
H753 H 0.38817 0.0503 0.03966 0.0
H754 H 0.42776 0.08522 0.85669 0.0
H755 H 0.45311 0.0826 0.80135 0.0
C756 C 0.16216 0.50401 0.90632 0.0
C757 C 0.13651 0.48849 0.86589 0.0
C758 C 0.13232 0.44697 0.9277 0.0
C759 C 0.15921 0.46214 0.96156 0.0
N760 N 0.20251 0.50405 0.95685 0.0
N761 N 0.10196 0.44443 0.81541 0.0
C762 C 0.175 0.49039 0.94322 0.0
C763 C 0.12297 0.45973 0.86981 0.0
N764 N 0.17395 0.53162 0.91231 0.0
N765 N 0.11503 0.42085 0.95286 0.0
H766 H 0.09571 0.453 0.768 0.0
H767 H 0.09311 0.42338 0.81056 0.0
H768 H 0.12007 0.41042 0.997 0.0
H769 H 0.09446 0.4104 0.93615 0.0
H770 H 0.19142 0.54345 0.94842 0.0
H771 H 0.16481 0.54235 0.88876 0.0
H772 H 0.21511 0.52411 0.93773 0.0
H773 H 0.21318 0.49444 0.97697 0.0
C774 C 0.69558 0.74799 0.83794 0.0
C775 C 0.68 0.72235 0.8779 0.0
C776 C 0.68891 0.7448 0.01712 0.0
C777 C 0.70198 0.77057 0.97616 0.0
N778 N 0.71199 0.7963 0.84563 0.0
N779 N 0.65682 0.69665 0.00305 0.0
C780 C 0.70375 0.77208 0.88592 0.0
C781 C 0.67527 0.7208 0.9669 0.0
N782 N 0.70335 0.7494 0.7548 0.0
N783 N 0.69037 0.74303 0.10361 0.0
H784 H 0.64571 0.67889 0.96766 0.0
H785 H 0.65051 0.69489 0.06621 0.0
H786 H 0.70048 0.75993 0.1432 0.0
H787 H 0.68379 0.72467 0.1353 0.0
H788 H 0.71707 0.76756 0.72519 0.0
H789 H 0.69827 0.73221 0.71788 0.0
H790 H 0.71116 0.79804 0.77977 0.0
H791 H 0.7168 0.81418 0.87822 0.0
C792 C 0.81517 0.08138 0.66939 0.0
C793 C 0.80193 0.05613 0.71316 0.0
C794 C 0.81291 0.08046 0.84992 0.0
C795 C 0.8278 0.10554 0.80596 0.0
N796 N 0.84943 0.12901 0.67649 0.0
N797 N 0.79349 0.03152 0.8454 0.0
C798 C 0.83074 0.10575 0.71637 0.0
C799 C 0.80224 0.05561 0.80364 0.0
N800 N 0.81203 0.08235 0.58333 0.0
N801 N 0.80826 0.08031 0.93539 0.0
H802 H 0.78637 0.01301 0.81385 0.0
H803 H 0.7958 0.0302 0.91075 0.0
H804 H 0.81618 0.09795 0.97212 0.0
H805 H 0.7948 0.06285 0.96867 0.0
H806 H 0.81883 0.1005 0.55012 0.0
H807 H 0.80035 0.06515 0.54617 0.0
H808 H 0.85431 0.12979 0.61219 0.0
H809 H 0.86232 0.14672 0.71003 0.0
C810 C 0.11363 0.82115 0.80095 0.0
C811 C 0.11316 0.82159 0.71038 0.0
C812 C 0.06319 0.79994 0.71285 0.0
C813 C 0.06354 0.79785 0.80286 0.0
N814 N 0.08875 0.80313 0.93252 0.0
N815 N 0.08726 0.80585 0.57997 0.0
C816 C 0.08868 0.80767 0.84696 0.0
C817 C 0.08786 0.8095 0.66624 0.0
N818 N 0.13793 0.83428 0.84347 0.0
N819 N 0.03943 0.79377 0.672 0.0
H820 H 0.10475 0.8117 0.5437 0.0
H821 H 0.06932 0.79456 0.5455 0.0
H822 H 0.02103 0.78717 0.70397 0.0
H823 H 0.03842 0.79764 0.60766 0.0
H824 H 0.13958 0.83822 0.90864 0.0
H825 H 0.1567 0.84273 0.81311 0.0
H826 H 0.106 0.80639 0.96611 0.0
H827 H 0.07119 0.79412 0.96963 0.0
C828 C 0.35377 0.37369 0.7996 0.0
C829 C 0.35042 0.3707 0.70968 0.0
C830 C 0.37184 0.34214 0.70928 0.0
C831 C 0.37643 0.34639 0.79812 0.0
N832 N 0.3777 0.37125 0.92438 0.0
N833 N 0.36295 0.35823 0.57694 0.0
C834 C 0.36909 0.36361 0.84233 0.0
C835 C 0.3613 0.3566 0.66383 0.0
N836 N 0.34155 0.38526 0.84501 0.0
N837 N 0.3768 0.32371 0.66861 0.0
H838 H 0.35674 0.36969 0.54127 0.0
H839 H 0.37318 0.35068 0.54086 0.0
H840 H 0.3847 0.31286 0.69964 0.0
H841 H 0.37099 0.31752 0.60588 0.0
H842 H 0.34036 0.38476 0.91125 0.0
H843 H 0.33075 0.39361 0.8169 0.0
H844 H 0.37569 0.3862 0.9567 0.0
H845 H 0.38926 0.36459 0.95767 0.0
C846 C 0.06259 0.36119 0.22154 0.0
C847 C 0.05485 0.33749 0.27119 0.0
C848 C 0.09953 0.34158 0.24318 0.0
C849 C 0.10827 0.36695 0.20271 0.0
N850 N 0.09921 0.40318 0.16573 0.0
N851 N 0.06134 0.29886 0.28902 0.0
C852 C 0.0902 0.3775 0.1959 0.0
C853 C 0.07205 0.32585 0.27105 0.0
N854 N 0.0432 0.3665 0.18985 0.0
N855 N 0.11792 0.33312 0.25908 0.0
H856 H 0.04048 0.28582 0.29693 0.0
H857 H 0.07221 0.28857 0.28314 0.0
H858 H 0.13842 0.34447 0.24198 0.0
H859 H 0.11359 0.31637 0.29687 0.0
H860 H 0.04754 0.38241 0.1481 0.0
H861 H 0.02246 0.35241 0.19193 0.0
H862 H 0.08773 0.4129 0.16959 0.0
H863 H 0.11895 0.41589 0.1442 0.0
C864 C 0.83769 0.81848 0.26934 0.0
C865 C 0.82202 0.79109 0.29691 0.0
C866 C 0.78218 0.78799 0.22465 0.0
C867 C 0.79673 0.81646 0.20961 0.0
N868 N 0.83704 0.8598 0.23773 0.0
N869 N 0.77709 0.75207 0.31838 0.0
C870 C 0.82415 0.83205 0.2377 0.0
C871 C 0.79358 0.77641 0.27961 0.0
N872 N 0.86551 0.83131 0.26988 0.0
N873 N 0.75816 0.77168 0.18354 0.0
H874 H 0.78407 0.7436 0.36385 0.0
H875 H 0.75592 0.74196 0.31279 0.0
H876 H 0.75011 0.77895 0.13754 0.0
H877 H 0.74809 0.75053 0.18744 0.0
H878 H 0.87765 0.8505 0.24339 0.0
H879 H 0.87633 0.82158 0.28712 0.0
H880 H 0.85624 0.87186 0.26473 0.0
H881 H 0.82739 0.87066 0.22017 0.0
C882 C 0.34492 0.05953 0.29094 0.0
C883 C 0.34712 0.05995 0.20109 0.0
C884 C 0.37287 0.10987 0.20468 0.0
C885 C 0.37387 0.10903 0.29499 0.0
N886 N 0.36525 0.08245 0.42329 0.0
N887 N 0.36561 0.08554 0.07148 0.0
C888 C 0.3611 0.08368 0.33801 0.0
C889 C 0.36172 0.08515 0.15749 0.0
N890 N 0.32628 0.03632 0.33106 0.0
N891 N 0.38144 0.13411 0.16411 0.0
H892 H 0.35721 0.06803 0.03408 0.0
H893 H 0.37885 0.10308 0.03812 0.0
H894 H 0.38906 0.15255 0.19646 0.0
H895 H 0.37861 0.13567 0.09924 0.0
H896 H 0.32206 0.03544 0.39595 0.0
H897 H 0.31271 0.01891 0.29736 0.0
H898 H 0.35853 0.06417 0.45569 0.0
H899 H 0.37781 0.09955 0.45989 0.0
loop_
_geom_bond_atom_site_label_1
_geom_bond_atom_site_label_2
_geom_bond_distance
_geom_bond_site_symmetry_2
_ccdc_geom_bond_type
C0 O2 1.247 . S
C0 O4 1.258 . S
C1 O8 1.247 . S
C1 O9 1.258 . S
O2 C0 1.247 . S
O2 Zn3 2.028 . S
Zn3 O2 2.028 . S
Zn3 O7 2.035 . S
Zn3 O9 2.035 . S
Zn3 O10 2.028 . S
O4 C0 1.258 . S
O4 Zn5 2.035 . S
Zn5 O4 2.035 . S
Zn5 O6 2.028 . S
Zn5 O8 2.028 . S
Zn5 O11 2.035 . S
O6 Zn5 2.028 . S
O6 C12 1.247 . S
O7 Zn3 2.035 . S
O7 C12 1.258 . S
O8 C1 1.247 . S
O8 Zn5 2.028 . S
O9 C1 1.258 . S
O9 Zn3 2.035 . S
O10 Zn3 2.028 . S
O10 C13 1.247 . S
O11 Zn5 2.035 . S
O11 C13 1.258 . S
C12 O6 1.247 . S
C12 O7 1.258 . S
C13 O10 1.247 . S
C13 O11 1.258 . S
C14 O16 1.247 . S
C14 O18 1.258 . S
C15 O22 1.247 . S
C15 O23 1.258 . S
O16 C14 1.247 . S
O16 Zn17 2.028 . S
Zn17 O16 2.028 . S
Zn17 O21 2.035 . S
Zn17 O23 2.035 . S
Zn17 O24 2.028 . S
O18 C14 1.258 . S
O18 Zn19 2.035 . S
Zn19 O18 2.035 . S
Zn19 O20 2.028 . S
Zn19 O22 2.028 . S
Zn19 O25 2.035 . S
O20 Zn19 2.028 . S
O20 C26 1.247 . S
O21 Zn17 2.035 . S
O21 C26 1.258 . S
O22 C15 1.247 . S
O22 Zn19 2.028 . S
O23 C15 1.258 . S
O23 Zn17 2.035 . S
O24 Zn17 2.028 . S
O24 C27 1.247 . S
O25 Zn19 2.035 . S
O25 C27 1.258 . S
C26 O20 1.247 . S
C26 O21 1.258 . S
C27 O24 1.247 . S
C27 O25 1.258 . S
C28 O30 1.247 . S
C28 O32 1.258 . S
C29 O36 1.247 . S
C29 O37 1.258 . S
O30 C28 1.247 . S
O30 Zn31 2.028 . S
Zn31 O30 2.028 . S
Zn31 O35 2.035 . S
Zn31 O37 2.035 . S
Zn31 O38 2.028 . S
O32 C28 1.258 . S
O32 Zn33 2.035 . S
Zn33 O32 2.035 . S
Zn33 O34 2.028 . S
Zn33 O36 2.028 . S
Zn33 O39 2.035 . S
O34 Zn33 2.028 . S
O34 C40 1.247 . S
O35 Zn31 2.035 . S
O35 C40 1.258 . S
O36 C29 1.247 . S
O36 Zn33 2.028 . S
O37 C29 1.258 . S
O37 Zn31 2.035 . S
O38 Zn31 2.028 . S
O38 C41 1.247 . S
O39 Zn33 2.035 . S
O39 C41 1.258 . S
C40 O34 1.247 . S
C40 O35 1.258 . S
C41 O38 1.247 . S
C41 O39 1.258 . S
C42 O44 1.247 . S
C42 O46 1.258 . S
C43 O50 1.247 . S
C43 O51 1.258 . S
O44 C42 1.247 . S
O44 Zn45 2.028 . S
Zn45 O44 2.028 . S
Zn45 O49 2.035 . S
Zn45 O51 2.035 . S
Zn45 O52 2.028 . S
O46 C42 1.258 . S
O46 Zn47 2.035 . S
Zn47 O46 2.035 . S
Zn47 O48 2.028 . S
Zn47 O50 2.028 . S
Zn47 O53 2.035 . S
O48 Zn47 2.028 . S
O48 C54 1.247 . S
O49 Zn45 2.035 . S
O49 C54 1.258 . S
O50 C43 1.247 . S
O50 Zn47 2.028 . S
O51 C43 1.258 . S
O51 Zn45 2.035 . S
O52 Zn45 2.028 . S
O52 C55 1.247 . S
O53 Zn47 2.035 . S
O53 C55 1.258 . S
C54 O48 1.247 . S
C54 O49 1.258 . S
C55 O52 1.247 . S
C55 O53 1.258 . S
C56 O58 1.247 . S
C56 O60 1.258 . S
C57 O64 1.247 . S
C57 O65 1.258 . S
O58 C56 1.247 . S
O58 Zn59 2.028 . S
Zn59 O58 2.028 . S
Zn59 O63 2.035 . S
Zn59 O65 2.035 . S
Zn59 O66 2.028 . S
O60 C56 1.258 . S
O60 Zn61 2.035 . S
Zn61 O60 2.035 . S
Zn61 O62 2.028 . S
Zn61 O64 2.028 . S
Zn61 O67 2.035 . S
O62 Zn61 2.028 . S
O62 C68 1.247 . S
O63 Zn59 2.035 . S
O63 C68 1.258 . S
O64 C57 1.247 . S
O64 Zn61 2.028 . S
O65 C57 1.258 . S
O65 Zn59 2.035 . S
O66 Zn59 2.028 . S
O66 C69 1.247 . S
O67 Zn61 2.035 . S
O67 C69 1.258 . S
C68 O62 1.247 . S
C68 O63 1.258 . S
C69 O66 1.247 . S
C69 O67 1.258 . S
C70 O72 1.247 . S
C70 O74 1.258 . S
C71 O78 1.247 . S
C71 O79 1.258 . S
O72 C70 1.247 . S
O72 Zn73 2.028 . S
Zn73 O72 2.028 . S
Zn73 O77 2.035 . S
Zn73 O79 2.035 . S
Zn73 O80 2.028 . S
O74 C70 1.258 . S
O74 Zn75 2.035 . S
Zn75 O74 2.035 . S
Zn75 O76 2.028 . S
Zn75 O78 2.028 . S
Zn75 O81 2.035 . S
O76 Zn75 2.028 . S
O76 C82 1.247 . S
O77 Zn73 2.035 . S
O77 C82 1.258 . S
O78 C71 1.247 . S
O78 Zn75 2.028 . S
O79 C71 1.258 . S
O79 Zn73 2.035 . S
O80 Zn73 2.028 . S
O80 C83 1.247 . S
O81 Zn75 2.035 . S
O81 C83 1.258 . S
C82 O76 1.247 . S
C82 O77 1.258 . S
C83 O80 1.247 . S
C83 O81 1.258 . S
C84 O86 1.247 . S
C84 O88 1.258 . S
C85 O92 1.247 . S
C85 O93 1.258 1_545 S
O86 C84 1.247 . S
O86 Zn87 2.028 . S
Zn87 O86 2.028 . S
Zn87 O91 2.038 . S
Zn87 O93 2.035 . S
Zn87 O94 2.028 . S
O88 C84 1.258 . S
O88 Zn89 2.035 . S
Zn89 O88 2.035 . S
Zn89 O90 2.028 1_565 S
Zn89 O92 2.028 1_565 S
Zn89 O95 2.035 . S
O90 Zn89 2.028 1_545 S
O90 C96 1.247 . S
O91 Zn87 2.038 . S
O91 C96 1.257 1_565 S
O92 C85 1.247 . S
O92 Zn89 2.028 1_545 S
O93 C85 1.258 1_565 S
O93 Zn87 2.035 . S
O94 Zn87 2.028 . S
O94 C97 1.247 . S
O95 Zn89 2.035 . S
O95 C97 1.258 . S
C96 O90 1.247 . S
C96 O91 1.257 1_545 S
C97 O94 1.247 . S
C97 O95 1.258 . S
C98 O100 1.247 . S
C98 O102 1.258 . S
C99 O106 1.247 . S
C99 O107 1.258 . S
O100 C98 1.247 . S
O100 Zn101 2.028 . S
Zn101 O100 2.028 . S
Zn101 O105 2.035 . S
Zn101 O107 2.035 . S
Zn101 O108 2.028 . S
O102 C98 1.258 . S
O102 Zn103 2.035 . S
Zn103 O102 2.035 . S
Zn103 O104 2.028 . S
Zn103 O106 2.028 . S
Zn103 O109 2.035 . S
O104 Zn103 2.028 . S
O104 C110 1.247 . S
O105 Zn101 2.035 . S
O105 C110 1.258 . S
O106 C99 1.247 . S
O106 Zn103 2.028 . S
O107 C99 1.258 . S
O107 Zn101 2.035 . S
O108 Zn101 2.028 . S
O108 C111 1.247 . S
O109 Zn103 2.035 . S
O109 C111 1.258 . S
C110 O104 1.247 . S
C110 O105 1.258 . S
C111 O108 1.247 . S
C111 O109 1.258 . S
C112 O114 1.247 . S
C112 O116 1.258 . S
C113 O120 1.247 . S
C113 O121 1.258 . S
O114 C112 1.247 . S
O114 Zn115 2.028 . S
Zn115 O114 2.028 . S
Zn115 O119 2.035 . S
Zn115 O121 2.035 . S
Zn115 O122 2.028 . S
O116 C112 1.258 . S
O116 Zn117 2.035 . S
Zn117 O116 2.035 . S
Zn117 O118 2.028 . S
Zn117 O120 2.028 . S
Zn117 O123 2.035 . S
O118 Zn117 2.028 . S
O118 C124 1.247 . S
O119 Zn115 2.035 . S
O119 C124 1.258 . S
O120 C113 1.247 . S
O120 Zn117 2.028 . S
O121 C113 1.258 . S
O121 Zn115 2.035 . S
O122 Zn115 2.028 . S
O122 C125 1.247 . S
O123 Zn117 2.035 . S
O123 C125 1.258 . S
C124 O118 1.247 . S
C124 O119 1.258 . S
C125 O122 1.247 . S
C125 O123 1.258 . S
C126 O128 1.247 . S
C126 O130 1.258 . S
C127 O134 1.247 . S
C127 O135 1.258 1_556 S
O128 C126 1.247 . S
O128 Zn129 2.028 . S
Zn129 O128 2.028 . S
Zn129 O133 2.035 . S
Zn129 O135 2.035 . S
Zn129 O136 2.028 . S
O130 C126 1.258 . S
O130 Zn131 2.035 . S
Zn131 O130 2.035 . S
Zn131 O132 2.028 . S
Zn131 O134 2.028 1_554 S
Zn131 O137 2.035 1_554 S
O132 Zn131 2.028 . S
O132 C138 1.247 . S
O133 Zn129 2.035 . S
O133 C138 1.258 . S
O134 C127 1.247 . S
O134 Zn131 2.028 1_556 S
O135 C127 1.258 1_554 S
O135 Zn129 2.035 . S
O136 Zn129 2.028 . S
O136 C139 1.247 1_554 S
O137 Zn131 2.035 1_556 S
O137 C139 1.258 . S
C138 O132 1.247 . S
C138 O133 1.258 . S
C139 O136 1.247 1_556 S
C139 O137 1.258 . S
C140 O142 1.240 1_545 S
C140 O144 1.258 . S
C141 O148 1.247 . S
C141 O149 1.258 1_556 S
O142 C140 1.240 1_565 S
O142 Zn143 2.033 . S
Zn143 O142 2.033 . S
Zn143 O147 2.035 . S
Zn143 O149 2.035 . S
Zn143 O150 2.028 . S
O144 C140 1.258 . S
O144 Zn145 2.035 1_545 S
Zn145 O144 2.035 1_565 S
Zn145 O146 2.028 . S
Zn145 O148 2.028 1_554 S
Zn145 O151 2.035 1_564 S
O146 Zn145 2.028 . S
O146 C152 1.247 . S
O147 Zn143 2.035 . S
O147 C152 1.258 . S
O148 C141 1.247 . S
O148 Zn145 2.028 1_556 S
O149 C141 1.258 1_554 S
O149 Zn143 2.035 . S
O150 Zn143 2.028 . S
O150 C153 1.247 1_564 S
O151 Zn145 2.035 1_546 S
O151 C153 1.258 . S
C152 O146 1.247 . S
C152 O147 1.258 . S
C153 O150 1.247 1_546 S
C153 O151 1.258 . S
C154 O156 1.247 . S
C154 O158 1.258 1_556 S
C155 O162 1.247 . S
C155 O163 1.258 . S
O156 C154 1.247 . S
O156 Zn157 2.028 1_556 S
Zn157 O156 2.028 1_554 S
Zn157 O161 2.035 1_554 S
Zn157 O163 2.035 . S
Zn157 O164 2.028 . S
O158 C154 1.258 1_554 S
O158 Zn159 2.035 . S
Zn159 O158 2.035 . S
Zn159 O160 2.028 . S
Zn159 O162 2.028 . S
Zn159 O165 2.035 . S
O160 Zn159 2.028 . S
O160 C166 1.247 1_554 S
O161 Zn157 2.035 1_556 S
O161 C166 1.258 . S
O162 C155 1.247 . S
O162 Zn159 2.028 . S
O163 C155 1.258 . S
O163 Zn157 2.035 . S
O164 Zn157 2.028 . S
O164 C167 1.247 . S
O165 Zn159 2.035 . S
O165 C167 1.258 . S
C166 O160 1.247 1_556 S
C166 O161 1.258 . S
C167 O164 1.247 . S
C167 O165 1.258 . S
C168 O170 1.247 . S
C168 O172 1.258 1_554 S
C169 O176 1.247 . S
C169 O177 1.258 . S
O170 C168 1.247 . S
O170 Zn171 2.028 1_554 S
Zn171 O170 2.028 1_556 S
Zn171 O175 2.035 1_556 S
Zn171 O177 2.035 . S
Zn171 O178 2.028 . S
O172 C168 1.258 1_556 S
O172 Zn173 2.035 . S
Zn173 O172 2.035 . S
Zn173 O174 2.028 . S
Zn173 O176 2.028 . S
Zn173 O179 2.035 . S
O174 Zn173 2.028 . S
O174 C180 1.247 1_556 S
O175 Zn171 2.035 1_554 S
O175 C180 1.258 . S
O176 C169 1.247 . S
O176 Zn173 2.028 . S
O177 C169 1.258 . S
O177 Zn171 2.035 . S
O178 Zn171 2.028 . S
O178 C181 1.247 . S
O179 Zn173 2.035 . S
O179 C181 1.258 . S
C180 O174 1.247 1_554 S
C180 O175 1.258 . S
C181 O178 1.247 . S
C181 O179 1.258 . S
C182 O184 1.247 1_554 S
C182 O186 1.258 . S
C183 O190 1.247 . S
C183 O191 1.258 . S
O184 C182 1.247 1_556 S
O184 Zn185 2.028 . S
Zn185 O184 2.028 . S
Zn185 O189 2.035 . S
Zn185 O191 2.035 . S
Zn185 O192 2.028 . S
O186 C182 1.258 . S
O186 Zn187 2.035 1_554 S
Zn187 O186 2.035 1_556 S
Zn187 O188 2.028 1_556 S
Zn187 O190 2.028 . S
Zn187 O193 2.035 . S
O188 Zn187 2.028 1_554 S
O188 C194 1.247 . S
O189 Zn185 2.035 . S
O189 C194 1.258 1_556 S
O190 C183 1.247 . S
O190 Zn187 2.028 . S
O191 C183 1.258 . S
O191 Zn185 2.035 . S
O192 Zn185 2.028 . S
O192 C195 1.247 . S
O193 Zn187 2.035 . S
O193 C195 1.258 . S
C194 O188 1.247 . S
C194 O189 1.258 1_554 S
C195 O192 1.247 . S
C195 O193 1.258 . S
C196 O198 1.247 1_454 S
C196 O200 1.258 . S
C197 O204 1.247 . S
C197 O205 1.258 . S
O198 C196 1.247 1_656 S
O198 Zn199 2.028 . S
Zn199 O198 2.028 . S
Zn199 O203 2.035 . S
Zn199 O205 2.035 . S
Zn199 O206 2.031 . S
O200 C196 1.258 . S
O200 Zn201 2.035 1_454 S
Zn201 O200 2.035 1_656 S
Zn201 O202 2.028 1_556 S
Zn201 O204 2.028 . S
Zn201 O207 2.035 1_655 S
O202 Zn201 2.028 1_554 S
O202 C208 1.247 . S
O203 Zn199 2.035 . S
O203 C208 1.258 1_556 S
O204 C197 1.247 . S
O204 Zn201 2.028 . S
O205 C197 1.258 . S
O205 Zn199 2.035 . S
O206 Zn199 2.031 . S
O206 C209 1.245 1_655 S
O207 Zn201 2.035 1_455 S
O207 C209 1.258 . S
C208 O202 1.247 . S
C208 O203 1.258 1_554 S
C209 O206 1.245 1_455 S
C209 O207 1.258 . S
C210 O212 1.247 . S
C210 O214 1.258 . S
C211 O218 1.247 . S
C211 O219 1.258 . S
O212 C210 1.247 . S
O212 Zn213 2.028 . S
Zn213 O212 2.028 . S
Zn213 O217 2.035 . S
Zn213 O219 2.035 . S
Zn213 O220 2.028 . S
O214 C210 1.258 . S
O214 Zn215 2.035 . S
Zn215 O214 2.035 . S
Zn215 O216 2.028 . S
Zn215 O218 2.028 . S
Zn215 O221 2.035 . S
O216 Zn215 2.028 . S
O216 C222 1.247 . S
O217 Zn213 2.035 . S
O217 C222 1.258 . S
O218 C211 1.247 . S
O218 Zn215 2.028 . S
O219 C211 1.258 . S
O219 Zn213 2.035 . S
O220 Zn213 2.028 . S
O220 C223 1.247 . S
O221 Zn215 2.035 . S
O221 C223 1.258 . S
C222 O216 1.247 . S
C222 O217 1.258 . S
C223 O220 1.247 . S
C223 O221 1.258 . S
C224 O226 1.247 . S
C224 O228 1.258 1_455 S
C225 O232 1.247 . S
C225 O233 1.258 . S
O226 C224 1.247 . S
O226 Zn227 2.028 1_455 S
Zn227 O226 2.028 1_655 S
Zn227 O231 2.035 . S
Zn227 O233 2.035 . S
Zn227 O234 2.028 1_655 S
O228 C224 1.258 1_655 S
O228 Zn229 2.035 . S
Zn229 O228 2.035 . S
Zn229 O230 2.028 . S
Zn229 O232 2.028 . S
Zn229 O235 2.040 . S
O230 Zn229 2.028 . S
O230 C236 1.247 . S
O231 Zn227 2.035 . S
O231 C236 1.258 . S
O232 C225 1.247 . S
O232 Zn229 2.028 . S
O233 C225 1.258 . S
O233 Zn227 2.035 . S
O234 Zn227 2.028 1_455 S
O234 C237 1.247 . S
O235 Zn229 2.040 . S
O235 C237 1.251 1_655 S
C236 O230 1.247 . S
C236 O231 1.258 . S
C237 O234 1.247 . S
C237 O235 1.251 1_455 S
C238 O240 1.247 . S
C238 O242 1.258 . S
C239 O246 1.247 . S
C239 O247 1.258 . S
O240 C238 1.247 . S
O240 Zn241 2.028 . S
Zn241 O240 2.028 . S
Zn241 O245 2.035 . S
Zn241 O247 2.035 . S
Zn241 O248 2.028 . S
O242 C238 1.258 . S
O242 Zn243 2.035 . S
Zn243 O242 2.035 . S
Zn243 O244 2.028 . S
Zn243 O246 2.028 . S
Zn243 O249 2.035 . S
O244 Zn243 2.028 . S
O244 C250 1.247 . S
O245 Zn241 2.035 . S
O245 C250 1.258 . S
O246 C239 1.247 . S
O246 Zn243 2.028 . S
O247 C239 1.258 . S
O247 Zn241 2.035 . S
O248 Zn241 2.028 . S
O248 C251 1.247 . S
O249 Zn243 2.035 . S
O249 C251 1.258 . S
C250 O244 1.247 . S
C250 O245 1.258 . S
C251 O248 1.247 . S
C251 O249 1.258 . S
C252 C253 1.363 . S
C252 C258 1.379 1_556 S
C252 N260 1.356 . S
C253 C252 1.363 . S
C253 C259 1.363 . S
C254 C255 1.363 . S
C254 C259 1.379 1_554 S
C254 N261 1.356 . S
C255 C254 1.363 . S
C255 C258 1.363 . S
N256 C258 1.356 . S
N256 H268 0.984 . S
N256 H269 0.985 . S
N257 C259 1.356 . S
N257 H262 0.984 . S
N257 H263 0.985 . S
C258 C252 1.379 1_554 S
C258 C255 1.363 . S
C258 N256 1.356 . S
C259 C253 1.363 . S
C259 C254 1.379 1_556 S
C259 N257 1.356 . S
N260 C252 1.356 . S
N260 H266 0.984 . S
N260 H267 0.984 . S
N261 C254 1.356 . S
N261 H264 0.984 . S
N261 H265 0.985 . S
H262 N257 0.984 . S
H263 N257 0.985 . S
H264 N261 0.984 . S
H265 N261 0.985 . S
H266 N260 0.984 . S
H267 N260 0.984 . S
H268 N256 0.984 . S
H269 N256 0.985 . S
C270 C271 1.363 . S
C270 C276 1.379 . S
C270 N278 1.356 . S
C271 C270 1.363 . S
C271 C277 1.363 1_556 S
C272 C273 1.363 . S
C272 C277 1.379 . S
C272 N279 1.356 . S
C273 C272 1.363 . S
C273 C276 1.363 1_554 S
N274 C276 1.356 . S
N274 H286 0.984 . S
N274 H287 0.985 1_556 S
N275 C277 1.356 . S
N275 H280 0.984 1_554 S
N275 H281 0.985 . S
C276 C270 1.379 . S
C276 C273 1.363 1_556 S
C276 N274 1.356 . S
C277 C271 1.363 1_554 S
C277 C272 1.379 . S
C277 N275 1.356 . S
N278 C270 1.356 . S
N278 H284 0.984 . S
N278 H285 0.984 . S
N279 C272 1.356 . S
N279 H282 0.984 . S
N279 H283 0.985 . S
H280 N275 0.984 1_556 S
H281 N275 0.985 . S
H282 N279 0.984 . S
H283 N279 0.985 . S
H284 N278 0.984 . S
H285 N278 0.984 . S
H286 N274 0.984 . S
H287 N274 0.985 1_554 S
C288 C289 1.363 . S
C288 C294 1.379 1_554 S
C288 N296 1.356 . S
C289 C288 1.363 . S
C289 C295 1.363 . S
C290 C291 1.363 . S
C290 C295 1.379 1_556 S
C290 N297 1.356 . S
C291 C290 1.363 . S
C291 C294 1.363 . S
N292 C294 1.356 . S
N292 H304 0.984 . S
N292 H305 0.985 . S
N293 C295 1.356 . S
N293 H298 0.984 . S
N293 H299 0.985 . S
C294 C288 1.379 1_556 S
C294 C291 1.363 . S
C294 N292 1.356 . S
C295 C289 1.363 . S
C295 C290 1.379 1_554 S
C295 N293 1.356 . S
N296 C288 1.356 . S
N296 H302 0.984 . S
N296 H303 0.984 . S
N297 C290 1.356 . S
N297 H300 0.984 . S
N297 H301 0.985 . S
H298 N293 0.984 . S
H299 N293 0.985 . S
H300 N297 0.984 . S
H301 N297 0.985 . S
H302 N296 0.984 . S
H303 N296 0.984 . S
H304 N292 0.984 . S
H305 N292 0.985 . S
C306 C307 1.363 . S
C306 C312 1.379 . S
C306 N314 1.356 . S
C307 C306 1.363 . S
C307 C313 1.363 . S
C308 C309 1.363 . S
C308 C313 1.379 . S
C308 N315 1.356 . S
C309 C308 1.363 . S
C309 C312 1.363 . S
N310 C312 1.356 . S
N310 H322 0.984 . S
N310 H323 0.985 . S
N311 C313 1.356 . S
N311 H316 0.984 . S
N311 H317 0.985 . S
C312 C306 1.379 . S
C312 C309 1.363 . S
C312 N310 1.356 . S
C313 C307 1.363 . S
C313 C308 1.379 . S
C313 N311 1.356 . S
N314 C306 1.356 . S
N314 H320 0.984 . S
N314 H321 0.984 . S
N315 C308 1.356 . S
N315 H318 0.984 . S
N315 H319 0.985 . S
H316 N311 0.984 . S
H317 N311 0.985 . S
H318 N315 0.984 . S
H319 N315 0.985 . S
H320 N314 0.984 . S
H321 N314 0.984 . S
H322 N310 0.984 . S
H323 N310 0.985 . S
C324 C325 1.363 . S
C324 C330 1.379 . S
C324 N332 1.356 . S
C325 C324 1.363 . S
C325 C331 1.363 . S
C326 C327 1.363 . S
C326 C331 1.379 . S
C326 N333 1.356 . S
C327 C326 1.363 . S
C327 C330 1.363 . S
N328 C330 1.356 . S
N328 H340 0.984 . S
N328 H341 0.985 . S
N329 C331 1.356 . S
N329 H334 0.984 . S
N329 H335 0.985 . S
C330 C324 1.379 . S
C330 C327 1.363 . S
C330 N328 1.356 . S
C331 C325 1.363 . S
C331 C326 1.379 . S
C331 N329 1.356 . S
N332 C324 1.356 . S
N332 H338 0.984 . S
N332 H339 0.984 . S
N333 C326 1.356 . S
N333 H336 0.984 . S
N333 H337 0.985 . S
H334 N329 0.984 . S
H335 N329 0.985 . S
H336 N333 0.984 . S
H337 N333 0.985 . S
H338 N332 0.984 . S
H339 N332 0.984 . S
H340 N328 0.984 . S
H341 N328 0.985 . S
C342 C343 1.363 . S
C342 C348 1.379 . S
C342 N350 1.356 . S
C343 C342 1.363 . S
C343 C349 1.363 . S
C344 C345 1.363 . S
C344 C349 1.379 . S
C344 N351 1.356 . S
C345 C344 1.363 . S
C345 C348 1.363 . S
N346 C348 1.356 . S
N346 H358 0.984 . S
N346 H359 0.985 . S
N347 C349 1.356 . S
N347 H352 0.984 . S
N347 H353 0.985 . S
C348 C342 1.379 . S
C348 C345 1.363 . S
C348 N346 1.356 . S
C349 C343 1.363 . S
C349 C344 1.379 . S
C349 N347 1.356 . S
N350 C342 1.356 . S
N350 H356 0.984 . S
N350 H357 0.984 . S
N351 C344 1.356 . S
N351 H354 0.984 . S
N351 H355 0.985 . S
H352 N347 0.984 . S
H353 N347 0.985 . S
H354 N351 0.984 . S
H355 N351 0.985 . S
H356 N350 0.984 . S
H357 N350 0.984 . S
H358 N346 0.984 . S
H359 N346 0.985 . S
C360 C361 1.363 . S
C360 C366 1.379 . S
C360 N368 1.356 . S
C361 C360 1.363 . S
C361 C367 1.363 . S
C362 C363 1.363 . S
C362 C367 1.379 . S
C362 N369 1.356 . S
C363 C362 1.363 . S
C363 C366 1.363 . S
N364 C366 1.356 . S
N364 H376 0.984 . S
N364 H377 0.985 . S
N365 C367 1.356 . S
N365 H370 0.984 . S
N365 H371 0.985 . S
C366 C360 1.379 . S
C366 C363 1.363 . S
C366 N364 1.356 . S
C367 C361 1.363 . S
C367 C362 1.379 . S
C367 N365 1.356 . S
N368 C360 1.356 . S
N368 H374 0.984 . S
N368 H375 0.984 . S
N369 C362 1.356 . S
N369 H372 0.984 . S
N369 H373 0.985 . S
H370 N365 0.984 . S
H371 N365 0.985 . S
H372 N369 0.984 . S
H373 N369 0.985 . S
H374 N368 0.984 . S
H375 N368 0.984 . S
H376 N364 0.984 . S
H377 N364 0.985 . S
C378 C379 1.363 . S
C378 C384 1.379 . S
C378 N386 1.356 . S
C379 C378 1.363 . S
C379 C385 1.363 . S
C380 C381 1.363 . S
C380 C385 1.379 . S
C380 N387 1.356 . S
C381 C380 1.363 . S
C381 C384 1.363 . S
N382 C384 1.356 . S
N382 H394 0.984 . S
N382 H395 0.985 . S
N383 C385 1.356 . S
N383 H388 0.984 . S
N383 H389 0.985 . S
C384 C378 1.379 . S
C384 C381 1.363 . S
C384 N382 1.356 . S
C385 C379 1.363 . S
C385 C380 1.379 . S
C385 N383 1.356 . S
N386 C378 1.356 . S
N386 H392 0.984 . S
N386 H393 0.984 . S
N387 C380 1.356 . S
N387 H390 0.984 . S
N387 H391 0.985 . S
H388 N383 0.984 . S
H389 N383 0.985 . S
H390 N387 0.984 . S
H391 N387 0.985 . S
H392 N386 0.984 . S
H393 N386 0.984 . S
H394 N382 0.984 . S
H395 N382 0.985 . S
C396 C397 1.363 . S
C396 C402 1.379 . S
C396 N404 1.356 . S
C397 C396 1.363 . S
C397 C403 1.363 . S
C398 C399 1.363 . S
C398 C403 1.379 . S
C398 N405 1.356 . S
C399 C398 1.363 . S
C399 C402 1.363 . S
N400 C402 1.356 . S
N400 H412 0.984 . S
N400 H413 0.985 . S
N401 C403 1.356 . S
N401 H406 0.984 . S
N401 H407 0.985 . S
C402 C396 1.379 . S
C402 C399 1.363 . S
C402 N400 1.356 . S
C403 C397 1.363 . S
C403 C398 1.379 . S
C403 N401 1.356 . S
N404 C396 1.356 . S
N404 H410 0.984 . S
N404 H411 0.984 . S
N405 C398 1.356 . S
N405 H408 0.984 . S
N405 H409 0.985 . S
H406 N401 0.984 . S
H407 N401 0.985 . S
H408 N405 0.984 . S
H409 N405 0.985 . S
H410 N404 0.984 . S
H411 N404 0.984 . S
H412 N400 0.984 . S
H413 N400 0.985 . S
C414 C415 1.363 . S
C414 C420 1.379 . S
C414 N422 1.356 . S
C415 C414 1.363 . S
C415 C421 1.363 . S
C416 C417 1.363 . S
C416 C421 1.379 . S
C416 N423 1.356 . S
C417 C416 1.363 . S
C417 C420 1.363 . S
N418 C420 1.356 . S
N418 H430 0.984 . S
N418 H431 0.985 . S
N419 C421 1.356 . S
N419 H424 0.984 . S
N419 H425 0.985 . S
C420 C414 1.379 . S
C420 C417 1.363 . S
C420 N418 1.356 . S
C421 C415 1.363 . S
C421 C416 1.379 . S
C421 N419 1.356 . S
N422 C414 1.356 . S
N422 H428 0.984 . S
N422 H429 0.984 . S
N423 C416 1.356 . S
N423 H426 0.984 . S
N423 H427 0.985 . S
H424 N419 0.984 . S
H425 N419 0.985 . S
H426 N423 0.984 . S
H427 N423 0.985 . S
H428 N422 0.984 . S
H429 N422 0.984 . S
H430 N418 0.984 . S
H431 N418 0.985 . S
C432 C433 1.363 . S
C432 C438 1.379 . S
C432 N440 1.356 . S
C433 C432 1.363 . S
C433 C439 1.363 . S
C434 C435 1.363 . S
C434 C439 1.379 . S
C434 N441 1.356 . S
C435 C434 1.363 . S
C435 C438 1.363 . S
N436 C438 1.356 . S
N436 H448 0.984 . S
N436 H449 0.985 . S
N437 C439 1.356 . S
N437 H442 0.984 . S
N437 H443 0.985 . S
C438 C432 1.379 . S
C438 C435 1.363 . S
C438 N436 1.356 . S
C439 C433 1.363 . S
C439 C434 1.379 . S
C439 N437 1.356 . S
N440 C432 1.356 . S
N440 H446 0.984 . S
N440 H447 0.984 . S
N441 C434 1.356 . S
N441 H444 0.984 . S
N441 H445 0.985 . S
H442 N437 0.984 . S
H443 N437 0.985 . S
H444 N441 0.984 . S
H445 N441 0.985 . S
H446 N440 0.984 . S
H447 N440 0.984 . S
H448 N436 0.984 . S
H449 N436 0.985 . S
C450 C451 1.363 . S
C450 C456 1.379 . S
C450 N458 1.356 . S
C451 C450 1.363 . S
C451 C457 1.363 . S
C452 C453 1.363 . S
C452 C457 1.379 . S
C452 N459 1.356 . S
C453 C452 1.363 . S
C453 C456 1.363 . S
N454 C456 1.356 . S
N454 H466 0.984 . S
N454 H467 0.985 . S
N455 C457 1.356 . S
N455 H460 0.984 . S
N455 H461 0.985 . S
C456 C450 1.379 . S
C456 C453 1.363 . S
C456 N454 1.356 . S
C457 C451 1.363 . S
C457 C452 1.379 . S
C457 N455 1.356 . S
N458 C450 1.356 . S
N458 H464 0.984 . S
N458 H465 0.984 . S
N459 C452 1.356 . S
N459 H462 0.984 . S
N459 H463 0.985 . S
H460 N455 0.984 . S
H461 N455 0.985 . S
H462 N459 0.984 . S
H463 N459 0.985 . S
H464 N458 0.984 . S
H465 N458 0.984 . S
H466 N454 0.984 . S
H467 N454 0.985 . S
C468 C469 1.363 . S
C468 C474 1.379 . S
C468 N476 1.356 . S
C469 C468 1.363 . S
C469 C475 1.363 . S
C470 C471 1.363 . S
C470 C475 1.379 . S
C470 N477 1.356 . S
C471 C470 1.363 . S
C471 C474 1.363 . S
N472 C474 1.356 . S
N472 H484 0.984 . S
N472 H485 0.985 . S
N473 C475 1.356 . S
N473 H478 0.984 . S
N473 H479 0.985 . S
C474 C468 1.379 . S
C474 C471 1.363 . S
C474 N472 1.356 . S
C475 C469 1.363 . S
C475 C470 1.379 . S
C475 N473 1.356 . S
N476 C468 1.356 . S
N476 H482 0.984 . S
N476 H483 0.984 . S
N477 C470 1.356 . S
N477 H480 0.984 . S
N477 H481 0.985 . S
H478 N473 0.984 . S
H479 N473 0.985 . S
H480 N477 0.984 . S
H481 N477 0.985 . S
H482 N476 0.984 . S
H483 N476 0.984 . S
H484 N472 0.984 . S
H485 N472 0.985 . S
C486 C487 1.363 . S
C486 C492 1.379 . S
C486 N494 1.356 . S
C487 C486 1.363 . S
C487 C493 1.363 . S
C488 C489 1.363 . S
C488 C493 1.379 . S
C488 N495 1.356 . S
C489 C488 1.363 . S
C489 C492 1.363 . S
N490 C492 1.356 . S
N490 H502 0.984 . S
N490 H503 0.985 . S
N491 C493 1.356 . S
N491 H496 0.984 . S
N491 H497 0.985 . S
C492 C486 1.379 . S
C492 C489 1.363 . S
C492 N490 1.356 . S
C493 C487 1.363 . S
C493 C488 1.379 . S
C493 N491 1.356 . S
N494 C486 1.356 . S
N494 H500 0.984 . S
N494 H501 0.984 . S
N495 C488 1.356 . S
N495 H498 0.984 . S
N495 H499 0.985 . S
H496 N491 0.984 . S
H497 N491 0.985 . S
H498 N495 0.984 . S
H499 N495 0.985 . S
H500 N494 0.984 . S
H501 N494 0.984 . S
H502 N490 0.984 . S
H503 N490 0.985 . S
C504 C505 1.363 . S
C504 C510 1.379 . S
C504 N512 1.356 . S
C505 C504 1.363 . S
C505 C511 1.363 . S
C506 C507 1.363 . S
C506 C511 1.379 . S
C506 N513 1.356 . S
C507 C506 1.363 . S
C507 C510 1.363 . S
N508 C510 1.356 . S
N508 H520 0.984 . S
N508 H521 0.985 . S
N509 C511 1.356 . S
N509 H514 0.984 . S
N509 H515 0.985 . S
C510 C504 1.379 . S
C510 C507 1.363 . S
C510 N508 1.356 . S
C511 C505 1.363 . S
C511 C506 1.379 . S
C511 N509 1.356 . S
N512 C504 1.356 . S
N512 H518 0.984 . S
N512 H519 0.984 . S
N513 C506 1.356 . S
N513 H516 0.984 . S
N513 H517 0.985 . S
H514 N509 0.984 . S
H515 N509 0.985 . S
H516 N513 0.984 . S
H517 N513 0.985 . S
H518 N512 0.984 . S
H519 N512 0.984 . S
H520 N508 0.984 . S
H521 N508 0.985 . S
C522 C523 1.363 . S
C522 C528 1.379 . S
C522 N530 1.356 . S
C523 C522 1.363 . S
C523 C529 1.363 . S
C524 C525 1.363 . S
C524 C529 1.379 . S
C524 N531 1.346 1_554 S
C525 C524 1.363 . S
C525 C528 1.363 . S
N526 C528 1.356 . S
N526 H538 0.984 . S
N526 H539 0.985 . S
N527 C529 1.356 . S
N527 H532 0.984 . S
N527 H533 0.985 . S
C528 C522 1.379 . S
C528 C525 1.363 . S
C528 N526 1.356 . S
C529 C523 1.363 . S
C529 C524 1.379 . S
C529 N527 1.356 . S
N530 C522 1.356 . S
N530 H536 0.984 . S
N530 H537 0.984 . S
N531 C524 1.346 1_556 S
N531 H534 0.990 . S
N531 H535 0.989 . S
H532 N527 0.984 . S
H533 N527 0.985 . S
H534 N531 0.990 . S
H535 N531 0.989 . S
H536 N530 0.984 . S
H537 N530 0.984 . S
H538 N526 0.984 . S
H539 N526 0.985 . S
C540 C541 1.363 . S
C540 C546 1.379 . S
C540 N548 1.356 . S
C541 C540 1.363 . S
C541 C547 1.363 . S
C542 C543 1.363 . S
C542 C547 1.379 . S
C542 N549 1.356 . S
C543 C542 1.363 . S
C543 C546 1.363 . S
N544 C546 1.356 . S
N544 H556 0.984 . S
N544 H557 0.985 1_554 S
N545 C547 1.356 . S
N545 H550 0.984 . S
N545 H551 0.985 . S
C546 C540 1.379 . S
C546 C543 1.363 . S
C546 N544 1.356 . S
C547 C541 1.363 . S
C547 C542 1.379 . S
C547 N545 1.356 . S
N548 C540 1.356 . S
N548 H554 0.984 . S
N548 H555 0.984 . S
N549 C542 1.356 . S
N549 H552 0.984 . S
N549 H553 0.985 . S
H550 N545 0.984 . S
H551 N545 0.985 . S
H552 N549 0.984 . S
H553 N549 0.985 . S
H554 N548 0.984 . S
H555 N548 0.984 . S
H556 N544 0.984 . S
H557 N544 0.985 1_556 S
C558 C559 1.363 . S
C558 C564 1.379 . S
C558 N566 1.356 . S
C559 C558 1.363 . S
C559 C565 1.363 . S
C560 C561 1.363 . S
C560 C565 1.379 . S
C560 N567 1.356 . S
C561 C560 1.363 . S
C561 C564 1.363 . S
N562 C564 1.356 . S
N562 H574 0.984 . S
N562 H575 0.985 . S
N563 C565 1.356 . S
N563 H568 0.984 . S
N563 H569 0.985 . S
C564 C558 1.379 . S
C564 C561 1.363 . S
C564 N562 1.356 . S
C565 C559 1.363 . S
C565 C560 1.379 . S
C565 N563 1.356 . S
N566 C558 1.356 . S
N566 H572 0.984 . S
N566 H573 0.984 . S
N567 C560 1.356 . S
N567 H570 0.984 . S
N567 H571 0.985 . S
H568 N563 0.984 . S
H569 N563 0.985 . S
H570 N567 0.984 . S
H571 N567 0.985 . S
H572 N566 0.984 . S
H573 N566 0.984 . S
H574 N562 0.984 . S
H575 N562 0.985 . S
C576 C577 1.363 . S
C576 C582 1.379 . S
C576 N584 1.356 . S
C577 C576 1.363 . S
C577 C583 1.363 . S
C578 C579 1.363 . S
C578 C583 1.379 . S
C578 N585 1.356 . S
C579 C578 1.363 . S
C579 C582 1.363 . S
N580 C582 1.356 . S
N580 H592 0.984 . S
N580 H593 0.985 . S
N581 C583 1.356 . S
N581 H586 0.984 . S
N581 H587 0.985 . S
C582 C576 1.379 . S
C582 C579 1.363 . S
C582 N580 1.356 . S
C583 C577 1.363 . S
C583 C578 1.379 . S
C583 N581 1.356 . S
N584 C576 1.356 . S
N584 H590 0.984 . S
N584 H591 0.984 . S
N585 C578 1.356 . S
N585 H588 0.984 . S
N585 H589 0.985 . S
H586 N581 0.984 . S
H587 N581 0.985 . S
H588 N585 0.984 . S
H589 N585 0.985 . S
H590 N584 0.984 . S
H591 N584 0.984 . S
H592 N580 0.984 . S
H593 N580 0.985 . S
C594 C595 1.363 . S
C594 C600 1.379 . S
C594 N602 1.356 . S
C595 C594 1.363 . S
C595 C601 1.363 . S
C596 C597 1.363 . S
C596 C601 1.379 . S
C596 N603 1.356 . S
C597 C596 1.363 . S
C597 C600 1.363 . S
N598 C600 1.356 . S
N598 H610 0.984 . S
N598 H611 0.985 . S
N599 C601 1.356 . S
N599 H604 0.984 . S
N599 H605 0.985 . S
C600 C594 1.379 . S
C600 C597 1.363 . S
C600 N598 1.356 . S
C601 C595 1.363 . S
C601 C596 1.379 . S
C601 N599 1.356 . S
N602 C594 1.356 . S
N602 H608 0.984 . S
N602 H609 0.984 . S
N603 C596 1.356 . S
N603 H606 0.984 . S
N603 H607 0.985 . S
H604 N599 0.984 . S
H605 N599 0.985 . S
H606 N603 0.984 . S
H607 N603 0.985 . S
H608 N602 0.984 . S
H609 N602 0.984 . S
H610 N598 0.984 . S
H611 N598 0.985 . S
C612 C613 1.363 . S
C612 C618 1.379 . S
C612 N620 1.356 . S
C613 C612 1.363 . S
C613 C619 1.363 . S
C614 C615 1.363 . S
C614 C619 1.379 . S
C614 N621 1.356 . S
C615 C614 1.363 . S
C615 C618 1.363 . S
N616 C618 1.356 . S
N616 H628 0.984 . S
N616 H629 0.985 . S
N617 C619 1.356 1_565 S
N617 H622 0.984 . S
N617 H623 0.985 . S
C618 C612 1.379 . S
C618 C615 1.363 . S
C618 N616 1.356 . S
C619 C613 1.363 . S
C619 C614 1.379 . S
C619 N617 1.356 1_545 S
N620 C612 1.356 . S
N620 H626 0.984 . S
N620 H627 0.984 . S
N621 C614 1.356 . S
N621 H624 0.984 . S
N621 H625 0.985 . S
H622 N617 0.984 . S
H623 N617 0.985 . S
H624 N621 0.984 . S
H625 N621 0.985 . S
H626 N620 0.984 . S
H627 N620 0.984 . S
H628 N616 0.984 . S
H629 N616 0.985 . S
C630 C631 1.363 . S
C630 C636 1.379 . S
C630 N638 1.356 . S
C631 C630 1.363 . S
C631 C637 1.363 . S
C632 C633 1.363 . S
C632 C637 1.379 . S
C632 N639 1.356 . S
C633 C632 1.363 . S
C633 C636 1.363 . S
N634 C636 1.356 . S
N634 H646 0.984 . S
N634 H647 0.985 . S
N635 C637 1.356 . S
N635 H640 0.984 . S
N635 H641 0.985 . S
C636 C630 1.379 . S
C636 C633 1.363 . S
C636 N634 1.356 . S
C637 C631 1.363 . S
C637 C632 1.379 . S
C637 N635 1.356 . S
N638 C630 1.356 . S
N638 H644 0.984 . S
N638 H645 0.984 . S
N639 C632 1.356 . S
N639 H642 0.984 . S
N639 H643 0.985 1_554 S
H640 N635 0.984 . S
H641 N635 0.985 . S
H642 N639 0.984 . S
H643 N639 0.985 1_556 S
H644 N638 0.984 . S
H645 N638 0.984 . S
H646 N634 0.984 . S
H647 N634 0.985 . S
C648 C649 1.363 . S
C648 C654 1.379 . S
C648 N656 1.356 1_454 S
C649 C648 1.363 . S
C649 C655 1.363 . S
C650 C651 1.363 . S
C650 C655 1.379 . S
C650 N657 1.356 . S
C651 C650 1.363 . S
C651 C654 1.363 . S
N652 C654 1.356 . S
N652 H664 0.984 . S
N652 H665 0.985 . S
N653 C655 1.356 . S
N653 H658 0.984 . S
N653 H659 0.985 . S
C654 C648 1.379 . S
C654 C651 1.363 . S
C654 N652 1.356 . S
C655 C649 1.363 . S
C655 C650 1.379 . S
C655 N653 1.356 . S
N656 C648 1.356 1_656 S
N656 H662 0.984 . S
N656 H663 0.984 . S
N657 C650 1.356 . S
N657 H660 0.984 . S
N657 H661 0.985 . S
H658 N653 0.984 . S
H659 N653 0.985 . S
H660 N657 0.984 . S
H661 N657 0.985 . S
H662 N656 0.984 . S
H663 N656 0.984 . S
H664 N652 0.984 . S
H665 N652 0.985 . S
C666 C667 1.363 . S
C666 C672 1.379 . S
C666 N674 1.356 . S
C667 C666 1.363 . S
C667 C673 1.363 . S
C668 C669 1.363 . S
C668 C673 1.379 . S
C668 N675 1.356 1_554 S
C669 C668 1.363 . S
C669 C672 1.363 . S
N670 C672 1.356 . S
N670 H682 0.984 . S
N670 H683 0.985 . S
N671 C673 1.356 1_556 S
N671 H676 0.984 . S
N671 H677 0.985 . S
C672 C666 1.379 . S
C672 C669 1.363 . S
C672 N670 1.356 . S
C673 C667 1.363 . S
C673 C668 1.379 . S
C673 N671 1.356 1_554 S
N674 C666 1.356 . S
N674 H680 0.984 . S
N674 H681 0.984 . S
N675 C668 1.356 1_556 S
N675 H678 0.984 1_556 S
N675 H679 0.985 . S
H676 N671 0.984 . S
H677 N671 0.985 . S
H678 N675 0.984 1_554 S
H679 N675 0.985 . S
H680 N674 0.984 . S
H681 N674 0.984 . S
H682 N670 0.984 . S
H683 N670 0.985 . S
C684 C685 1.363 . S
C684 C690 1.379 . S
C684 N692 1.356 . S
C685 C684 1.363 . S
C685 C691 1.363 . S
C686 C687 1.363 . S
C686 C691 1.379 . S
C686 N693 1.356 . S
C687 C686 1.363 . S
C687 C690 1.363 . S
N688 C690 1.356 . S
N688 H700 0.984 . S
N688 H701 0.985 . S
N689 C691 1.356 . S
N689 H694 0.984 1_455 S
N689 H695 0.985 1_455 S
C690 C684 1.379 . S
C690 C687 1.363 . S
C690 N688 1.356 . S
C691 C685 1.363 . S
C691 C686 1.379 . S
C691 N689 1.356 . S
N692 C684 1.356 . S
N692 H698 0.984 . S
N692 H699 0.984 . S
N693 C686 1.356 . S
N693 H696 0.984 . S
N693 H697 0.985 . S
H694 N689 0.984 1_655 S
H695 N689 0.985 1_655 S
H696 N693 0.984 . S
H697 N693 0.985 . S
H698 N692 0.984 . S
H699 N692 0.984 . S
H700 N688 0.984 . S
H701 N688 0.985 . S
C702 C703 1.363 . S
C702 C708 1.379 . S
C702 N710 1.356 . S
C703 C702 1.363 . S
C703 C709 1.363 . S
C704 C705 1.363 . S
C704 C709 1.379 . S
C704 N711 1.356 . S
C705 C704 1.363 . S
C705 C708 1.363 . S
N706 C708 1.356 . S
N706 H718 0.984 . S
N706 H719 0.985 . S
N707 C709 1.356 . S
N707 H712 0.984 . S
N707 H713 0.985 . S
C708 C702 1.379 . S
C708 C705 1.363 . S
C708 N706 1.356 . S
C709 C703 1.363 . S
C709 C704 1.379 . S
C709 N707 1.356 . S
N710 C702 1.356 . S
N710 H716 0.984 . S
N710 H717 0.984 . S
N711 C704 1.356 . S
N711 H714 0.984 . S
N711 H715 0.985 . S
H712 N707 0.984 . S
H713 N707 0.985 . S
H714 N711 0.984 . S
H715 N711 0.985 . S
H716 N710 0.984 . S
H717 N710 0.984 . S
H718 N706 0.984 . S
H719 N706 0.985 . S
C720 C721 1.363 . S
C720 C726 1.379 . S
C720 N728 1.356 . S
C721 C720 1.363 . S
C721 C727 1.363 . S
C722 C723 1.363 . S
C722 C727 1.379 . S
C722 N729 1.356 . S
C723 C722 1.363 . S
C723 C726 1.363 . S
N724 C726 1.356 . S
N724 H736 0.984 . S
N724 H737 0.985 . S
N725 C727 1.356 . S
N725 H730 0.984 . S
N725 H731 0.985 . S
C726 C720 1.379 . S
C726 C723 1.363 . S
C726 N724 1.356 . S
C727 C721 1.363 . S
C727 C722 1.379 . S
C727 N725 1.356 . S
N728 C720 1.356 . S
N728 H734 0.984 . S
N728 H735 0.984 . S
N729 C722 1.356 . S
N729 H732 0.984 . S
N729 H733 0.985 . S
H730 N725 0.984 . S
H731 N725 0.985 . S
H732 N729 0.984 . S
H733 N729 0.985 . S
H734 N728 0.984 . S
H735 N728 0.984 . S
H736 N724 0.984 . S
H737 N724 0.985 . S
C738 C739 1.363 . S
C738 C744 1.379 . S
C738 N746 1.356 . S
C739 C738 1.363 . S
C739 C745 1.363 . S
C740 C741 1.363 . S
C740 C745 1.379 . S
C740 N747 1.356 . S
C741 C740 1.363 . S
C741 C744 1.363 . S
N742 C744 1.356 . S
N742 H754 0.984 . S
N742 H755 0.985 . S
N743 C745 1.356 1_565 S
N743 H748 0.984 . S
N743 H749 0.985 . S
C744 C738 1.379 . S
C744 C741 1.363 . S
C744 N742 1.356 . S
C745 C739 1.363 . S
C745 C740 1.379 . S
C745 N743 1.356 1_545 S
N746 C738 1.356 . S
N746 H752 0.984 1_556 S
N746 H753 0.984 . S
N747 C740 1.356 . S
N747 H750 0.984 . S
N747 H751 1.026 . S
H748 N743 0.984 . S
H749 N743 0.985 . S
H750 N747 0.984 . S
H751 N747 1.026 . S
H752 N746 0.984 1_554 S
H753 N746 0.984 . S
H754 N742 0.984 . S
H755 N742 0.985 . S
C756 C757 1.363 . S
C756 C762 1.379 . S
C756 N764 1.356 . S
C757 C756 1.363 . S
C757 C763 1.363 . S
C758 C759 1.363 . S
C758 C763 1.379 . S
C758 N765 1.356 . S
C759 C758 1.363 . S
C759 C762 1.363 . S
N760 C762 1.356 . S
N760 H772 0.984 1_556 S
N760 H773 0.985 . S
N761 C763 1.356 . S
N761 H766 0.984 . S
N761 H767 0.985 . S
C762 C756 1.379 . S
C762 C759 1.363 . S
C762 N760 1.356 . S
C763 C757 1.363 . S
C763 C758 1.379 . S
C763 N761 1.356 . S
N764 C756 1.356 . S
N764 H770 0.984 . S
N764 H771 0.984 . S
N765 C758 1.356 . S
N765 H768 0.984 . S
N765 H769 0.985 . S
H766 N761 0.984 . S
H767 N761 0.985 . S
H768 N765 0.984 . S
H769 N765 0.985 . S
H770 N764 0.984 . S
H771 N764 0.984 . S
H772 N760 0.984 1_554 S
H773 N760 0.985 . S
C774 C775 1.363 . S
C774 C780 1.379 . S
C774 N782 1.356 . S
C775 C774 1.363 . S
C775 C781 1.363 . S
C776 C777 1.363 . S
C776 C781 1.379 . S
C776 N783 1.356 1_556 S
C777 C776 1.363 . S
C777 C780 1.363 . S
N778 C780 1.356 . S
N778 H790 0.984 . S
N778 H791 0.985 . S
N779 C781 1.356 . S
N779 H784 0.984 . S
N779 H785 0.985 1_556 S
C780 C774 1.379 . S
C780 C777 1.363 . S
C780 N778 1.356 . S
C781 C775 1.363 . S
C781 C776 1.379 . S
C781 N779 1.356 . S
N782 C774 1.356 . S
N782 H788 0.984 . S
N782 H789 0.984 . S
N783 C776 1.356 1_554 S
N783 H786 0.984 . S
N783 H787 0.985 . S
H784 N779 0.984 . S
H785 N779 0.985 1_554 S
H786 N783 0.984 . S
H787 N783 0.985 . S
H788 N782 0.984 . S
H789 N782 0.984 . S
H790 N778 0.984 . S
H791 N778 0.985 . S
C792 C793 1.363 . S
C792 C798 1.379 . S
C792 N800 1.356 . S
C793 C792 1.363 . S
C793 C799 1.363 . S
C794 C795 1.363 . S
C794 C799 1.379 . S
C794 N801 1.356 . S
C795 C794 1.363 . S
C795 C798 1.363 . S
N796 C798 1.356 . S
N796 H808 0.984 . S
N796 H809 0.985 . S
N797 C799 1.356 . S
N797 H802 0.984 . S
N797 H803 0.985 . S
C798 C792 1.379 . S
C798 C795 1.363 . S
C798 N796 1.356 . S
C799 C793 1.363 . S
C799 C794 1.379 . S
C799 N797 1.356 . S
N800 C792 1.356 . S
N800 H806 0.984 . S
N800 H807 0.984 . S
N801 C794 1.356 . S
N801 H804 0.984 . S
N801 H805 0.985 . S
H802 N797 0.984 . S
H803 N797 0.985 . S
H804 N801 0.984 . S
H805 N801 0.985 . S
H806 N800 0.984 . S
H807 N800 0.984 . S
H808 N796 0.984 . S
H809 N796 0.985 . S
C810 C811 1.363 . S
C810 C816 1.379 . S
C810 N818 1.356 . S
C811 C810 1.363 . S
C811 C817 1.363 . S
C812 C813 1.363 . S
C812 C817 1.379 . S
C812 N819 1.356 . S
C813 C812 1.363 . S
C813 C816 1.363 . S
N814 C816 1.356 . S
N814 H826 0.984 . S
N814 H827 0.985 . S
N815 C817 1.356 . S
N815 H820 0.984 . S
N815 H821 0.985 . S
C816 C810 1.379 . S
C816 C813 1.363 . S
C816 N814 1.356 . S
C817 C811 1.363 . S
C817 C812 1.379 . S
C817 N815 1.356 . S
N818 C810 1.356 . S
N818 H824 0.984 . S
N818 H825 0.984 . S
N819 C812 1.356 . S
N819 H822 0.984 . S
N819 H823 0.985 . S
H820 N815 0.984 . S
H821 N815 0.985 . S
H822 N819 0.984 . S
H823 N819 0.985 . S
H824 N818 0.984 . S
H825 N818 0.984 . S
H826 N814 0.984 . S
H827 N814 0.985 . S
C828 C829 1.363 . S
C828 C834 1.379 . S
C828 N836 1.356 . S
C829 C828 1.363 . S
C829 C835 1.363 . S
C830 C831 1.363 . S
C830 C835 1.379 . S
C830 N837 1.356 . S
C831 C830 1.363 . S
C831 C834 1.363 . S
N832 C834 1.356 . S
N832 H844 0.984 . S
N832 H845 0.985 . S
N833 C835 1.356 . S
N833 H838 0.984 . S
N833 H839 0.985 . S
C834 C828 1.379 . S
C834 C831 1.363 . S
C834 N832 1.356 . S
C835 C829 1.363 . S
C835 C830 1.379 . S
C835 N833 1.356 . S
N836 C828 1.356 . S
N836 H842 0.984 . S
N836 H843 0.984 . S
N837 C830 1.356 . S
N837 H840 0.984 . S
N837 H841 0.985 . S
H838 N833 0.984 . S
H839 N833 0.985 . S
H840 N837 0.984 . S
H841 N837 0.985 . S
H842 N836 0.984 . S
H843 N836 0.984 . S
H844 N832 0.984 . S
H845 N832 0.985 . S
C846 C847 1.363 . S
C846 C852 1.379 . S
C846 N854 1.356 . S
C847 C846 1.363 . S
C847 C853 1.363 . S
C848 C849 1.363 . S
C848 C853 1.379 . S
C848 N855 1.356 . S
C849 C848 1.363 . S
C849 C852 1.363 . S
N850 C852 1.356 . S
N850 H862 0.984 . S
N850 H863 0.985 . S
N851 C853 1.356 . S
N851 H856 0.984 . S
N851 H857 0.985 . S
C852 C846 1.379 . S
C852 C849 1.363 . S
C852 N850 1.356 . S
C853 C847 1.363 . S
C853 C848 1.379 . S
C853 N851 1.356 . S
N854 C846 1.356 . S
N854 H860 0.984 . S
N854 H861 0.984 . S
N855 C848 1.356 . S
N855 H858 0.984 . S
N855 H859 0.985 . S
H856 N851 0.984 . S
H857 N851 0.985 . S
H858 N855 0.984 . S
H859 N855 0.985 . S
H860 N854 0.984 . S
H861 N854 0.984 . S
H862 N850 0.984 . S
H863 N850 0.985 . S
C864 C865 1.363 . S
C864 C870 1.379 . S
C864 N872 1.356 . S
C865 C864 1.363 . S
C865 C871 1.363 . S
C866 C867 1.363 . S
C866 C871 1.379 . S
C866 N873 1.356 . S
C867 C866 1.363 . S
C867 C870 1.363 . S
N868 C870 1.356 . S
N868 H880 0.984 . S
N868 H881 0.985 . S
N869 C871 1.356 . S
N869 H874 0.984 . S
N869 H875 0.985 . S
C870 C864 1.379 . S
C870 C867 1.363 . S
C870 N868 1.356 . S
C871 C865 1.363 . S
C871 C866 1.379 . S
C871 N869 1.356 . S
N872 C864 1.356 . S
N872 H878 0.984 . S
N872 H879 0.984 . S
N873 C866 1.356 . S
N873 H876 0.984 . S
N873 H877 0.985 . S
H874 N869 0.984 . S
H875 N869 0.985 . S
H876 N873 0.984 . S
H877 N873 0.985 . S
H878 N872 0.984 . S
H879 N872 0.984 . S
H880 N868 0.984 . S
H881 N868 0.985 . S
C882 C883 1.363 . S
C882 C888 1.379 . S
C882 N890 1.356 . S
C883 C882 1.363 . S
C883 C889 1.363 . S
C884 C885 1.363 . S
C884 C889 1.379 . S
C884 N891 1.356 . S
C885 C884 1.363 . S
C885 C888 1.363 . S
N886 C888 1.356 . S
N886 H898 0.984 . S
N886 H899 0.985 . S
N887 C889 1.356 . S
N887 H892 0.984 . S
N887 H893 0.985 . S
C888 C882 1.379 . S
C888 C885 1.363 . S
C888 N886 1.356 . S
C889 C883 1.363 . S
C889 C884 1.379 . S
C889 N887 1.356 . S
N890 C882 1.356 . S
N890 H896 0.984 . S
N890 H897 0.984 . S
N891 C884 1.356 . S
N891 H894 0.984 . S
N891 H895 0.985 . S
H892 N887 0.984 . S
H893 N887 0.985 . S
H894 N891 0.984 . S
H895 N891 0.985 . S
H896 N890 0.984 . S
H897 N890 0.984 . S
H898 N886 0.984 . S
H899 N886 0.985 . S
C253 C43 1.826 . S
C255 C13 1.830 . S
C271 C68 1.830 . S
C273 C15 1.830 . S
C289 C29 1.831 . S
C291 C83 1.827 . S
C307 C40 1.826 . S
C309 C70 1.830 . S
C325 C0 1.827 . S
C327 C54 1.831 . S
C343 C57 1.827 . S
C345 C26 1.827 . S
C361 C138 1.830 . S
C363 C97 1.830 . S
C379 C99 1.830 . S
C381 C152 1.830 . S
C397 C124 1.827 . S
C399 C155 1.827 . S
C415 C166 1.830 . S
C417 C113 1.830 . S
C433 C127 1.827 . S
C435 C84 1.827 . S
C451 C141 1.827 . S
C453 C110 1.827 . S
C469 C181 1.830 . S
C471 C211 1.826 . S
C487 C183 1.830 . S
C489 C236 1.830 . S
C505 C197 1.831 . S
C507 C239 1.827 . S
C523 C250 1.830 . S
C525 C208 1.826 . S
C541 C222 1.831 . S
C543 C168 1.827 . S
C559 C225 1.827 . S
C561 C194 1.827 . S
C577 C12 1.637 . S
C579 C111 1.639 . S
C595 C14 1.637 . S
C597 C112 1.637 . S
C613 C85 1.639 . S
C615 C28 1.637 . S
C631 C41 1.639 . S
C633 C182 1.637 . S
C649 C196 1.637 . S
C651 C1 1.639 . S
C667 C180 1.637 . S
C669 C27 1.639 . S
C685 C224 1.639 . S
C687 C42 1.639 . S
C703 C69 1.637 . S
C705 C251 1.637 . S
C721 C223 1.637 . S
C723 C82 1.639 . S
C739 C153 1.637 . S
C741 C71 1.637 . S
C757 C55 1.637 . S
C759 C154 1.639 . S
C775 C56 1.639 . S
C777 C139 1.637 . S
C793 C96 1.637 . S
C795 C195 1.639 . S
C811 C98 1.637 . S
C813 C209 1.639 . S
C829 C125 1.639 . S
C831 C169 1.639 . S
C847 C237 1.637 . S
C849 C167 1.637 . S
C865 C238 1.639 . S
C867 C126 1.639 . S
C883 C140 1.639 . S
C885 C210 1.639 . S
