# Generated by pormake.
# Topology snz, (6)-cn, num edge types: 1
# Building blocks:
#     Node 0, Type 0, BuildingBlock: CUWYAW_clean_sbu_0, # of connection points: 6
#     Node 1, Type 0, BuildingBlock: CUWYAW_clean_sbu_0, # of connection points: 6
#     Node 2, Type 0, BuildingBlock: CUWYAW_clean_sbu_0, # of connection points: 6
#     Node 3, Type 0, BuildingBlock: CUWYAW_clean_sbu_0, # of connection points: 6
#     Node 4, Type 0, BuildingBlock: CUWYAW_clean_sbu_0, # of connection points: 6
#     Node 5, Type 0, BuildingBlock: CUWYAW_clean_sbu_0, # of connection points: 6
#     Node 6, Type 0, BuildingBlock: CUWYAW_clean_sbu_0, # of connection points: 6
#     Node 7, Type 0, BuildingBlock: CUWYAW_clean_sbu_0, # of connection points: 6
#     Node 8, Type 0, BuildingBlock: CUWYAW_clean_sbu_0, # of connection points: 6
#     Edge 9, Type (0, 0), BuildingBlock: UVAHIK_clean_linker_0, # of connection points: 2
#     Edge 10, Type (0, 0), BuildingBlock: UVAHIK_clean_linker_0, # of connection points: 2
#     Edge 11, Type (0, 0), BuildingBlock: UVAHIK_clean_linker_0, # of connection points: 2
#     Edge 12, Type (0, 0), BuildingBlock: UVAHIK_clean_linker_0, # of connection points: 2
#     Edge 13, Type (0, 0), BuildingBlock: UVAHIK_clean_linker_0, # of connection points: 2
#     Edge 14, Type (0, 0), BuildingBlock: UVAHIK_clean_linker_0, # of connection points: 2
#     Edge 15, Type (0, 0), BuildingBlock: UVAHIK_clean_linker_0, # of connection points: 2
#     Edge 16, Type (0, 0), BuildingBlock: UVAHIK_clean_linker_0, # of connection points: 2
#     Edge 17, Type (0, 0), BuildingBlock: UVAHIK_clean_linker_0, # of connection points: 2
#     Edge 18, Type (0, 0), BuildingBlock: UVAHIK_clean_linker_0, # of connection points: 2
#     Edge 19, Type (0, 0), BuildingBlock: UVAHIK_clean_linker_0, # of connection points: 2
#     Edge 20, Type (0, 0), BuildingBlock: UVAHIK_clean_linker_0, # of connection points: 2
#     Edge 21, Type (0, 0), BuildingBlock: UVAHIK_clean_linker_0, # of connection points: 2
#     Edge 22, Type (0, 0), BuildingBlock: UVAHIK_clean_linker_0, # of connection points: 2
#     Edge 23, Type (0, 0), BuildingBlock: UVAHIK_clean_linker_0, # of connection points: 2
#     Edge 24, Type (0, 0), BuildingBlock: UVAHIK_clean_linker_0, # of connection points: 2
#     Edge 25, Type (0, 0), BuildingBlock: UVAHIK_clean_linker_0, # of connection points: 2
#     Edge 26, Type (0, 0), BuildingBlock: UVAHIK_clean_linker_0, # of connection points: 2
#     Edge 27, Type (0, 0), BuildingBlock: UVAHIK_clean_linker_0, # of connection points: 2
#     Edge 28, Type (0, 0), BuildingBlock: UVAHIK_clean_linker_0, # of connection points: 2
#     Edge 29, Type (0, 0), BuildingBlock: UVAHIK_clean_linker_0, # of connection points: 2
#     Edge 30, Type (0, 0), BuildingBlock: UVAHIK_clean_linker_0, # of connection points: 2
#     Edge 31, Type (0, 0), BuildingBlock: UVAHIK_clean_linker_0, # of connection points: 2
#     Edge 32, Type (0, 0), BuildingBlock: UVAHIK_clean_linker_0, # of connection points: 2
#     Edge 33, Type (0, 0), BuildingBlock: UVAHIK_clean_linker_0, # of connection points: 2
#     Edge 34, Type (0, 0), BuildingBlock: UVAHIK_clean_linker_0, # of connection points: 2
#     Edge 35, Type (0, 0), BuildingBlock: UVAHIK_clean_linker_0, # of connection points: 2
# Relax obj value: 0.128
# Max RMSD: 0.204
# Mean RMSD: 0.180
data_MOF--net-snz--node1-CUWYAW_clean_sbu_0--edge1-UVAHIK_clean_linker_0
_symmetry_space_group_name_H-M    P1
_symmetry_Int_Tables_number       1
_symmetry_cell_setting            triclinic
loop_
_symmetry_equiv_pos_as_xyz
'x, y, z'
_cell_length_a     81.533435
_cell_length_b     81.539318
_cell_length_c     19.032651
_cell_angle_alpha  90.074789
_cell_angle_beta   90.190455
_cell_angle_gamma 119.83858
loop_
_atom_site_label
_atom_site_type_symbol
_atom_site_fract_x
_atom_site_fract_y
_atom_site_fract_z
_atom_type_partial_charge
C0 C 0.1191 0.43376 0.98231 0.0
Eu1 Eu 0.1478 0.43149 0.03155 0.0
C2 C 0.11216 0.44725 0.97922 0.0
C3 C 0.1208 0.46411 0.01824 0.0
C4 C 0.11392 0.47676 0.01407 0.0
C5 C 0.09824 0.47267 0.97104 0.0
C6 C 0.08971 0.45572 0.93212 0.0
C7 C 0.09662 0.44315 0.93621 0.0
C8 C 0.15434 0.42686 0.16839 0.0
C9 C 0.18303 0.47304 0.06766 0.0
C10 C 0.21537 0.43443 0.1114 0.0
Eu11 Eu 0.18604 0.4352 0.05967 0.0
C12 C 0.22846 0.42673 0.10993 0.0
C13 C 0.2477 0.43916 0.0968 0.0
C14 C 0.26102 0.43324 0.10457 0.0
C15 C 0.25547 0.41468 0.1259 0.0
C16 C 0.23607 0.40204 0.13695 0.0
C17 C 0.22271 0.408 0.12924 0.0
C18 C 0.17952 0.43947 0.92242 0.0
C19 C 0.14936 0.39326 0.02362 0.0
O20 O 0.13427 0.43806 0.94571 0.0
O21 O 0.1193 0.42694 0.04423 0.0
O22 O 0.13797 0.41742 0.13782 0.0
O23 O 0.16613 0.43893 0.12677 0.0
O24 O 0.16677 0.46334 0.03409 0.0
O25 O 0.19201 0.4645 0.09261 0.0
O26 O 0.19813 0.42389 0.13502 0.0
O27 O 0.2164 0.44561 0.06028 0.0
O28 O 0.19598 0.44866 0.9524 0.0
O29 O 0.16777 0.42764 0.96469 0.0
O30 O 0.16692 0.40284 0.04874 0.0
O31 O 0.13983 0.40176 0.00559 0.0
H32 H 0.1328 0.46744 0.05193 0.0
H33 H 0.12072 0.48962 0.04509 0.0
H34 H 0.07784 0.45229 0.89755 0.0
H35 H 0.08985 0.43022 0.90552 0.0
H36 H 0.25259 0.45376 0.083 0.0
H37 H 0.27579 0.4435 0.09669 0.0
H38 H 0.23122 0.38757 0.15251 0.0
H39 H 0.20799 0.3981 0.14016 0.0
C40 C 0.75608 0.54163 0.9733 0.0
Eu41 Eu 0.75966 0.5731 0.02249 0.0
C42 C 0.74165 0.52154 0.97131 0.0
C43 C 0.72538 0.51443 0.01302 0.0
C44 C 0.71176 0.49523 0.01008 0.0
C45 C 0.71422 0.48284 0.96539 0.0
C46 C 0.73056 0.49015 0.9236 0.0
C47 C 0.74414 0.50932 0.92662 0.0
C48 C 0.76394 0.58368 0.15996 0.0
C49 C 0.7184 0.56812 0.05428 0.0
C50 C 0.759 0.63847 0.10642 0.0
Eu51 Eu 0.757 0.60815 0.05157 0.0
C52 C 0.76848 0.65936 0.11097 0.0
C53 C 0.76873 0.67045 0.054 0.0
C54 C 0.77509 0.68978 0.06319 0.0
C55 C 0.78129 0.69842 0.12953 0.0
C56 C 0.7816 0.68736 0.18571 0.0
C57 C 0.77525 0.6681 0.1765 0.0
C58 C 0.75269 0.59779 0.91393 0.0
C59 C 0.79849 0.61203 0.01667 0.0
O60 O 0.75242 0.55297 0.93642 0.0
O61 O 0.76333 0.5486 0.03497 0.0
O62 O 0.77323 0.57654 0.12987 0.0
O63 O 0.75223 0.58397 0.11743 0.0
O64 O 0.72799 0.56133 0.02156 0.0
O65 O 0.72711 0.5855 0.08034 0.0
O66 O 0.76749 0.62989 0.13368 0.0
O67 O 0.74916 0.63006 0.04994 0.0
O68 O 0.74371 0.60531 0.94394 0.0
O69 O 0.76431 0.59735 0.95651 0.0
O70 O 0.7893 0.62045 0.04161 0.0
O71 O 0.78956 0.59409 -0.00209 0.0
H72 H 0.72326 0.52372 0.04789 0.0
H73 H 0.69942 0.49005 0.04333 0.0
H74 H 0.73274 0.48111 0.88764 0.0
H75 H 0.75657 0.51463 0.89377 0.0
H76 H 0.7635 0.66412 0.00285 0.0
H77 H 0.7749 0.69789 0.01851 0.0
H78 H 0.78598 0.69339 0.23777 0.0
H79 H 0.77493 0.65984 0.22158 0.0
C80 C 0.65208 0.07407 -0.00879 0.0
Eu81 Eu 0.62052 0.04624 0.03857 0.0
C82 C 0.67233 0.08007 0.98619 0.0
C83 C 0.68571 0.09859 0.00554 0.0
C84 C 0.705 0.10512 -0.00232 0.0
C85 C 0.71134 0.09328 0.96979 0.0
C86 C 0.6979 0.07451 0.95215 0.0
C87 C 0.67856 0.06796 0.96031 0.0
C88 C 0.61016 0.04003 0.17598 0.0
C89 C 0.62494 1.00959 0.06808 0.0
C90 C 0.55494 0.98076 0.12153 0.0
Eu91 Eu 0.58524 1.00898 0.06742 0.0
C92 C 0.53407 0.96895 0.12682 0.0
C93 C 0.52317 0.95633 0.07296 0.0
C94 C 0.50413 0.94283 0.08428 0.0
C95 C 0.49564 0.94154 0.14987 0.0
C96 C 0.50637 0.95476 0.20243 0.0
C97 C 0.52533 0.96824 0.19108 0.0
C98 C 0.59521 1.01496 0.92965 0.0
C99 C 0.58203 0.04711 0.03497 0.0
O100 O 0.64026 0.05967 0.95259 0.0
O101 O 0.64558 0.07393 0.05402 0.0
O102 O 0.61723 0.0564 0.14589 0.0
O103 O 0.60969 0.02796 0.13342 0.0
O104 O 0.63174 0.02588 0.03506 0.0
O105 O 0.60778 1.00135 0.09553 0.0
O106 O 0.5634 0.99782 0.14867 0.0
O107 O 0.56334 0.97933 0.06527 0.0
O108 O 0.58758 0.99849 0.95941 0.0
O109 O 0.59597 0.0271 0.9725 0.0
O110 O 0.5735 0.02957 0.06013 0.0
O111 O 0.5998 0.05568 0.01473 0.0
H112 H 0.68121 0.10813 0.02594 0.0
H113 H 0.71496 0.11953 0.01307 0.0
H114 H 0.70227 0.06506 0.93001 0.0
H115 H 0.66851 0.05356 0.94516 0.0
H116 H 0.5295 0.95635 0.02302 0.0
H117 H 0.49635 0.93283 0.04274 0.0
H118 H 0.50021 0.95441 0.25314 0.0
H119 H 0.5334 0.97763 0.23381 0.0
C120 C 0.80272 0.93231 0.2413 0.0
Eu121 Eu 0.83077 0.92976 0.29593 0.0
C122 C 0.79134 0.94188 0.23656 0.0
C123 C 0.77954 0.94116 0.29166 0.0
C124 C 0.76648 0.94739 0.28124 0.0
C125 C 0.76483 0.95429 0.21537 0.0
C126 C 0.77725 0.95575 0.16147 0.0
C127 C 0.7903 0.94959 0.17192 0.0
C128 C 0.83693 0.9249 0.43259 0.0
C129 C 0.86847 0.9712 0.33256 0.0
C130 C 0.89617 0.92752 0.36686 0.0
Eu131 Eu 0.86854 0.9323 0.32284 0.0
C132 C 0.89923 0.91136 0.3779 0.0
C133 C 0.91654 0.91296 0.35874 0.0
C134 C 0.91962 0.89768 0.36709 0.0
C135 C 0.9054 0.88045 0.39478 0.0
C136 C 0.88803 0.87889 0.41399 0.0
C137 C 0.88497 0.89421 0.40561 0.0
C138 C 0.86182 0.9373 0.18676 0.0
C139 C 0.83194 0.89122 0.29263 0.0
O140 O 0.81979 0.94071 0.21466 0.0
O141 O 0.80115 0.92229 0.29722 0.0
O142 O 0.82042 0.91614 0.40246 0.0
O143 O 0.84902 0.93661 0.39072 0.0
O144 O 0.85055 0.96184 0.31094 0.0
O145 O 0.87819 0.9626 0.34584 0.0
O146 O 0.88424 0.92891 0.40895 0.0
O147 O 0.89428 0.93125 0.30155 0.0
O148 O 0.87821 0.94682 0.21717 0.0
O149 O 0.85009 0.92523 0.22854 0.0
O150 O 0.84809 0.90075 0.32699 0.0
O151 O 0.82354 0.90002 0.26513 0.0
H152 H 0.77987 0.93514 0.34197 0.0
H153 H 0.75708 0.94597 0.32379 0.0
H154 H 0.7766 0.96129 0.11048 0.0
H155 H 0.79908 0.95017 0.12833 0.0
H156 H 0.92771 0.92607 0.33724 0.0
H157 H 0.93325 0.89944 0.35273 0.0
H158 H 0.87672 0.86577 0.43476 0.0
H159 H 0.87145 0.89261 0.42056 0.0
C160 C 0.26264 0.7276 0.2602 0.0
Eu161 Eu 0.26504 0.758 0.31612 0.0
C162 C 0.25294 0.70674 0.25285 0.0
C163 C 0.25052 0.69482 0.30997 0.0
C164 C 0.2439 0.67548 0.29902 0.0
C165 C 0.23975 0.66773 0.23073 0.0
C166 C 0.24154 0.67961 0.17423 0.0
C167 C 0.24806 0.69885 0.1852 0.0
C168 C 0.27076 0.76936 0.45285 0.0
C169 C 0.22417 0.75365 0.36417 0.0
C170 C 0.26575 0.82487 0.38898 0.0
Eu171 Eu 0.2621 0.79303 0.34383 0.0
C172 C 0.27917 0.84513 0.38115 0.0
C173 C 0.29373 0.85169 0.3314 0.0
C174 C 0.30668 0.87104 0.32606 0.0
C175 C 0.30531 0.88412 0.37059 0.0
C176 C 0.29063 0.87735 0.42027 0.0
C177 C 0.27769 0.85805 0.42537 0.0
C178 C 0.25704 0.78146 0.20704 0.0
C179 C 0.30343 0.79828 0.30999 0.0
O180 O 0.25473 0.73668 0.23249 0.0
O181 O 0.27201 0.73543 0.31817 0.0
O182 O 0.27929 0.76144 0.42232 0.0
O183 O 0.25879 0.76958 0.41147 0.0
O184 O 0.23278 0.7455 0.33193 0.0
O185 O 0.23349 0.77169 0.38167 0.0
O186 O 0.27203 0.81521 0.4233 0.0
O187 O 0.25592 0.81601 0.33312 0.0
O188 O 0.24765 0.78847 0.23725 0.0
O189 O 0.26909 0.78176 0.24924 0.0
O190 O 0.29376 0.80519 0.34136 0.0
O191 O 0.2949 0.78064 0.28641 0.0
H192 H 0.2543 0.70052 0.36272 0.0
H193 H 0.24276 0.66677 0.34368 0.0
H194 H 0.23818 0.67408 0.12114 0.0
H195 H 0.24991 0.70773 0.14019 0.0
H196 H 0.2951 0.84185 0.29699 0.0
H197 H 0.3177 0.87576 0.28686 0.0
H198 H 0.28935 0.88693 0.45636 0.0
H199 H 0.26661 0.85317 0.46445 0.0
C200 C 0.46654 0.38941 0.24983 0.0
Eu201 Eu 0.4356 0.36229 0.3048 0.0
C202 C 0.48746 0.40056 0.24581 0.0
C203 C 0.49851 0.41242 0.30113 0.0
C204 C 0.5178 0.42525 0.29142 0.0
C205 C 0.52648 0.42658 0.22615 0.0
C206 C 0.5155 0.41417 0.17188 0.0
C207 C 0.49626 0.40137 0.18161 0.0
C208 C 0.4254 0.35714 0.44244 0.0
C209 C 0.43707 0.32357 0.34472 0.0
C210 C 0.367 0.29917 0.37961 0.0
Eu211 Eu 0.39942 0.32596 0.33362 0.0
C212 C 0.34714 0.29441 0.377 0.0
C213 C 0.3417 0.30616 0.34253 0.0
C214 C 0.32272 0.30154 0.34172 0.0
C215 C 0.3089 0.28503 0.37507 0.0
C216 C 0.31451 0.2733 0.40918 0.0
C217 C 0.33347 0.27797 0.41013 0.0
C218 C 0.41017 0.3317 0.19622 0.0
C219 C 0.39677 0.36342 0.30162 0.0
O220 O 0.45773 0.37212 0.22478 0.0
O221 O 0.45813 0.39167 0.30443 0.0
O222 O 0.43383 0.37355 0.41212 0.0
O223 O 0.42401 0.34459 0.40033 0.0
O224 O 0.44612 0.3407 0.31588 0.0
O225 O 0.41932 0.31602 0.36452 0.0
O226 O 0.37835 0.31416 0.41649 0.0
O227 O 0.37442 0.29821 0.32005 0.0
O228 O 0.40244 0.31532 0.22652 0.0
O229 O 0.41097 0.34393 0.23857 0.0
O230 O 0.38949 0.34735 0.33623 0.0
O231 O 0.41386 0.37085 0.27384 0.0
H232 H 0.49215 0.41224 0.35119 0.0
H233 H 0.52585 0.43437 0.33476 0.0
H234 H 0.52154 0.4149 0.12061 0.0
H235 H 0.48804 0.39264 0.13768 0.0
H236 H 0.35212 0.31889 0.31638 0.0
H237 H 0.31883 0.31078 0.31454 0.0
H238 H 0.30428 0.26066 0.43631 0.0
H239 H 0.33748 0.2688 0.43719 0.0
C240 C 0.46938 0.12624 0.64615 0.0
Eu241 Eu 0.49262 0.16248 0.65502 0.0
C242 C 0.4588 0.11029 0.5973 0.0
C243 C 0.44477 0.1094 0.5518 0.0
C244 C 0.43379 0.09312 0.51142 0.0
C245 C 0.43668 0.07751 0.51581 0.0
C246 C 0.4511 0.07874 0.56002 0.0
C247 C 0.46199 0.09492 0.60031 0.0
C248 C 0.48885 0.19228 0.61361 0.0
C249 C 0.52301 0.17839 0.52553 0.0
C250 C 0.55034 0.24049 0.65818 0.0
Eu251 Eu 0.52979 0.20397 0.66524 0.0
C252 C 0.56165 0.25755 0.7009 0.0
C253 C 0.57378 0.25819 0.75472 0.0
C254 C 0.58471 0.27497 0.79259 0.0
C255 C 0.58354 0.29125 0.77749 0.0
C256 C 0.57114 0.29036 0.72415 0.0
C257 C 0.56034 0.27369 0.6863 0.0
C258 C 0.5348 0.17733 0.73453 0.0
C259 C 0.50205 0.18629 0.79826 0.0
O260 O 0.4878 0.13381 0.64691 0.0
O261 O 0.46379 0.13869 0.65415 0.0
O262 O 0.4752 0.17709 0.64174 0.0
O263 O 0.50305 0.1903 0.60437 0.0
O264 O 0.5074 0.16428 0.55275 0.0
O265 O 0.53337 0.19485 0.55767 0.0
O266 O 0.53202 0.23164 0.66865 0.0
O267 O 0.55712 0.22906 0.6475 0.0
O268 O 0.54789 0.19506 0.73102 0.0
O269 O 0.52073 0.17549 0.70091 0.0
O270 O 0.51311 0.2019 0.76268 0.0
O271 O 0.49443 0.16921 0.76986 0.0
H272 H 0.442 0.12106 0.54843 0.0
H273 H 0.42289 0.09267 0.47741 0.0
H274 H 0.45351 0.06689 0.56573 0.0
H275 H 0.4726 0.0952 0.63555 0.0
H276 H 0.5749 0.24582 0.76718 0.0
H277 H 0.59402 0.27518 0.83375 0.0
H278 H 0.57012 0.30271 0.71038 0.0
H279 H 0.55107 0.27346 0.64488 0.0
C280 C 0.06234 0.18659 0.64633 0.0
Eu281 Eu 1.02866 0.18209 0.66196 0.0
C282 C 0.08007 0.19813 0.60689 0.0
C283 C 0.08263 0.19219 0.54045 0.0
C284 C 0.10007 0.20183 0.50661 0.0
C285 C 0.1154 0.21758 0.53852 0.0
C286 C 0.11266 0.22391 0.60387 0.0
C287 C 0.09521 0.21424 0.63782 0.0
C288 C 0.99569 0.15004 0.63179 0.0
C289 C 1.01766 0.20101 0.5334 0.0
C290 C 0.95479 0.17319 0.65839 0.0
Eu291 Eu 0.99057 0.18425 0.6675 0.0
C292 C 0.93852 0.17083 0.69965 0.0
C293 C 0.92548 0.17495 0.6679 0.0
C294 C 0.90881 0.17093 0.70244 0.0
C295 C 0.90483 0.16263 0.7695 0.0
C296 C 0.91823 0.15905 0.80223 0.0
C297 C 0.93498 0.16316 0.76768 0.0
C298 C 1.02006 0.21599 0.72576 0.0
C299 C 1.0059 0.17282 0.80637 0.0
O300 O 0.05806 0.19494 0.69616 0.0
O301 O 0.04754 0.17433 0.61034 0.0
O302 O 1.00945 0.15019 0.66693 0.0
O303 O 1.00021 0.16656 0.61321 0.0
O304 O 1.03127 0.20012 0.56821 0.0
O305 O 1.00031 0.19401 0.55796 0.0
O306 O 0.96139 0.16181 0.67314 0.0
O307 O 0.96805 0.19052 0.64382 0.0
O308 O 1.00284 0.21303 0.72276 0.0
O309 O 1.02013 0.20204 0.69801 0.0
O310 O 0.991 0.1712 0.77185 0.0
O311 O 1.02247 0.17845 0.77657 0.0
H312 H 0.07132 0.17977 0.51524 0.0
H313 H 0.10166 0.19674 0.45592 0.0
H314 H 0.12425 0.23585 0.63026 0.0
H315 H 0.09376 0.21906 0.68928 0.0
H316 H 0.9279 0.18075 0.6153 0.0
H317 H 0.8987 0.17365 0.67535 0.0
H318 H 0.91566 0.15286 0.85417 0.0
H319 H 0.9449 0.15993 0.7934 0.0
C320 C 1.00415 0.73023 0.65561 0.0
Eu321 Eu 1.00993 0.70167 0.66413 0.0
C322 C 0.99086 0.73603 0.62871 0.0
C323 C 0.98685 0.7477 0.67078 0.0
C324 C 0.97568 0.75491 0.64496 0.0
C325 C 0.96828 0.75061 0.57629 0.0
C326 C 0.97186 0.73843 0.53481 0.0
C327 C 0.98304 0.73117 0.56085 0.0
C328 C 0.04267 0.70213 0.63293 0.0
C329 C 0.99142 0.67193 0.53492 0.0
C330 C 1.02274 0.63907 0.6553 0.0
Eu331 Eu 1.00959 0.66212 0.66712 0.0
C332 C 1.0269 0.62619 0.69558 0.0
C333 C 1.01548 0.61526 0.75135 0.0
C334 C 1.02007 0.6032 0.78824 0.0
C335 C 0.03622 0.60206 0.77023 0.0
C336 C 0.04758 0.61315 0.7145 0.0
C337 C 0.04296 0.62507 0.67765 0.0
C338 C 0.97712 0.65839 0.72357 0.0
C339 C 1.0197 0.68784 0.80817 0.0
O340 O 0.99852 0.71854 0.70888 0.0
O341 O 1.01399 0.7268 0.60951 0.0
O342 O 0.04206 0.71554 0.66754 0.0
O343 O 1.02627 0.68976 0.61482 0.0
O344 O 0.99147 0.68584 0.57119 0.0
O345 O 0.99937 0.66222 0.55802 0.0
O346 O 0.03338 0.65713 0.66952 0.0
O347 O 1.00492 0.63396 0.64371 0.0
O348 O 0.98068 0.6445 0.71935 0.0
O349 O 0.9909 0.67285 0.69794 0.0
O350 O 1.02181 0.67493 0.7733 0.0
O351 O 1.01373 0.69859 0.77853 0.0
H352 H 0.99282 0.75168 0.72316 0.0
H353 H 0.97346 0.76445 0.67798 0.0
H354 H 0.9662 0.73469 0.48199 0.0
H355 H 0.98588 0.72211 0.5275 0.0
H356 H 1.00309 0.61605 0.76636 0.0
H357 H 1.01112 0.59492 0.83123 0.0
H358 H 0.05992 0.61239 0.69849 0.0
H359 H 0.05193 0.63342 0.63475 0.0
C360 C 0.19139 0.45081 0.80088 0.0
C361 C 0.17649 0.43892 0.84547 0.0
C362 C 0.18892 0.44954 0.72784 0.0
C363 C 0.15219 0.43159 0.58765 0.0
H364 H 0.19271 0.43474 0.47192 0.0
C365 C 0.14229 0.41522 0.28958 0.0
C366 C 0.15725 0.42718 0.24536 0.0
C367 C 0.14468 0.41633 0.36267 0.0
C368 C 0.18132 0.43403 0.50332 0.0
H369 H 0.1472 0.41662 0.84867 0.0
H370 H 0.14287 0.4143 0.72122 0.0
H371 H 0.19662 0.43772 0.59916 0.0
H372 H 0.18658 0.44941 0.24284 0.0
H373 H 0.19076 0.45147 0.3703 0.0
H374 H 0.13689 0.42791 0.49179 0.0
C375 C 0.15645 0.42474 0.74253 0.0
C376 C 0.18357 0.43576 0.57641 0.0
C377 C 0.15894 0.426 0.81561 0.0
C378 C 0.17479 0.44 0.27561 0.0
C379 C 0.1772 0.4411 0.34871 0.0
C380 C 0.14993 0.42986 0.51454 0.0
C381 C 0.17146 0.43637 0.6976 0.0
C382 C 0.16905 0.43458 0.61961 0.0
C383 C 0.16212 0.42941 0.3933 0.0
C384 C 0.16447 0.43106 0.47133 0.0
H385 H 0.20506 0.46097 0.82239 0.0
H386 H 0.2007 0.45895 0.69505 0.0
H387 H 0.1408 0.43088 0.61906 0.0
H388 H 0.12863 0.40514 0.26776 0.0
H389 H 0.13286 0.40688 0.3952 0.0
C390 C 0.76567 0.59014 0.80731 0.0
C391 C 0.75311 0.59529 0.83692 0.0
C392 C 0.76678 0.58878 0.73426 0.0
C393 C 0.7407 0.58414 0.56789 0.0
H394 H 0.79007 0.60349 0.48303 0.0
C395 C 0.7511 0.59159 0.26634 0.0
C396 C 0.76361 0.58635 0.23689 0.0
C397 C 0.75004 0.59307 0.33935 0.0
C398 C 0.77614 0.59784 0.50582 0.0
H399 H 0.73165 0.60277 0.81333 0.0
H400 H 0.73364 0.60055 0.68602 0.0
H401 H 0.78746 0.60468 0.61027 0.0
H402 H 0.78508 0.5789 0.2607 0.0
H403 H 0.78318 0.58133 0.38796 0.0
H404 H 0.72938 0.57729 0.46344 0.0
C405 C 0.74254 0.59737 0.71903 0.0
C406 C 0.77464 0.5985 0.57895 0.0
C407 C 0.74145 0.59873 0.79206 0.0
C408 C 0.77531 0.58299 0.28186 0.0
C409 C 0.77427 0.58447 0.35485 0.0
C410 C 0.7422 0.58348 0.49476 0.0
C411 C 0.75533 0.59252 0.68905 0.0
C412 C 0.7569 0.59165 0.61105 0.0
C413 C 0.7615 0.58937 0.38469 0.0
C414 C 0.75994 0.59031 0.46267 0.0
H415 H 0.7748 0.58734 0.84058 0.0
H416 H 0.77658 0.58473 0.71323 0.0
H417 H 0.72677 0.57848 0.59068 0.0
H418 H 0.74196 0.59435 0.23299 0.0
H419 H 0.74027 0.59717 0.36027 0.0
C420 C 0.6031 0.03562 0.82314 0.0
C421 C 0.59777 1.01789 0.85275 0.0
C422 C 0.60457 0.03808 0.75012 0.0
C423 C 0.60928 1.01651 0.58453 0.0
H424 H 0.59025 0.04676 0.49767 0.0
C425 C 0.60216 1.01936 0.28246 0.0
C426 C 0.60748 0.03708 0.25284 0.0
C427 C 0.60062 1.01687 0.35546 0.0
C428 C 0.59582 0.03843 0.52103 0.0
H429 H 0.5901 0.98894 0.82922 0.0
H430 H 0.59252 0.99315 0.70201 0.0
H431 H 0.58891 0.04305 0.62495 0.0
H432 H 0.61505 0.06601 0.27632 0.0
H433 H 0.61253 0.06177 0.40352 0.0
H434 H 0.6162 1.01189 0.48063 0.0
C435 C 0.59575 1.00523 0.73498 0.0
C436 C 0.59508 0.03631 0.59419 0.0
C437 C 0.59426 1.00278 0.80795 0.0
C438 C 0.61089 0.05217 0.2976 0.0
C439 C 0.60935 0.0497 0.37057 0.0
C440 C 0.61003 1.01862 0.51139 0.0
C441 C 0.60078 0.02288 0.70497 0.0
C442 C 0.6018 0.02532 0.62699 0.0
C443 C 0.60434 0.03206 0.40059 0.0
C444 C 0.60331 0.02961 0.47858 0.0
H445 H 0.60595 0.04755 0.85637 0.0
H446 H 0.60876 0.05194 0.72905 0.0
H447 H 0.61485 1.00817 0.6079 0.0
H448 H 0.59935 1.00743 0.24924 0.0
H449 H 0.59644 1.00302 0.37652 0.0
C450 C 0.82479 0.91364 0.55403 0.0
C451 C 0.83985 0.92528 0.50958 0.0
C452 C 0.82722 0.91483 0.62711 0.0
C453 C 0.85782 0.94731 0.76762 0.0
H454 H 0.83419 0.90231 0.88318 0.0
C455 C 0.87378 0.94877 0.06534 0.0
C456 C 0.85881 0.937 0.10985 0.0
C457 C 0.87131 0.94761 -0.00771 0.0
C458 C 0.84069 0.91506 0.85184 0.0
H459 H 0.86938 0.94702 0.50672 0.0
H460 H 0.87371 0.94895 0.63414 0.0
H461 H 0.83052 0.89938 0.75586 0.0
H462 H 0.82934 0.91512 0.11293 0.0
H463 H 0.82491 0.91325 0.98554 0.0
H464 H 0.86798 0.96299 0.86358 0.0
C465 C 0.85992 0.9391 0.61273 0.0
C466 C 0.8386 0.91337 0.77868 0.0
C467 C 0.85749 0.93789 0.53964 0.0
C468 C 0.84118 0.92432 0.07991 0.0
C469 C 0.83869 0.92316 0.00685 0.0
C470 C 0.85989 0.949 0.84078 0.0
C471 C 0.84476 0.92771 0.65752 0.0
C472 C 0.84714 0.92947 0.73553 0.0
C473 C 0.85378 0.93465 0.96197 0.0
C474 C 0.85136 0.9329 0.88395 0.0
H475 H 0.81102 0.90381 0.53238 0.0
H476 H 0.81518 0.90598 0.65982 0.0
H477 H 0.86433 0.96005 0.73625 0.0
H478 H 0.88755 0.95866 0.08689 0.0
H479 H 0.88331 0.95655 0.95953 0.0
C480 C 0.25813 0.77728 0.55969 0.0
C481 C 0.27051 0.7719 0.52997 0.0
C482 C 0.25691 0.77848 0.63273 0.0
C483 C 0.26692 0.76138 0.79946 0.0
H484 H 0.25989 0.80078 0.88337 0.0
C485 C 0.27018 0.77381 0.10089 0.0
C486 C 0.25752 0.77891 0.13002 0.0
C487 C 0.27153 0.77259 0.02789 0.0
C488 C 0.26161 0.78953 0.86083 0.0
H489 H 0.29166 0.76401 0.5535 0.0
H490 H 0.28977 0.76636 0.68098 0.0
H491 H 0.2633 0.80002 0.75644 0.0
H492 H 0.23603 0.78628 0.10554 0.0
H493 H 0.23823 0.78398 0.97822 0.0
H494 H 0.26526 0.75092 0.90396 0.0
C495 C 0.28073 0.76933 0.64797 0.0
C496 C 0.26359 0.7891 0.78786 0.0
C497 C 0.28194 0.76813 0.57485 0.0
C498 C 0.24597 0.78239 0.08466 0.0
C499 C 0.24735 0.7812 0.01163 0.0
C500 C 0.26496 0.76182 0.87247 0.0
C501 C 0.26807 0.77436 0.67801 0.0
C502 C 0.26626 0.77501 0.75606 0.0
C503 C 0.26028 0.77646 0.98217 0.0
C504 C 0.26224 0.77588 0.90421 0.0
H505 H 0.24909 0.78024 0.52652 0.0
H506 H 0.24684 0.78219 0.65369 0.0
H507 H 0.26862 0.75011 0.77694 0.0
H508 H 0.27929 0.77108 0.1345 0.0
H509 H 0.28177 0.76907 0.00729 0.0
C510 C 0.42737 0.36978 0.56432 0.0
C511 C 0.42283 0.35439 0.51945 0.0
C512 C 0.4259 0.36735 0.63736 0.0
C513 C 0.42464 0.33513 0.77749 0.0
H514 H 0.40603 0.36158 0.89262 0.0
C515 C 0.40865 0.31936 0.0742 0.0
C516 C 0.4129 0.33462 0.11933 0.0
C517 C 0.41023 0.3219 0.00123 0.0
C518 C 0.4115 0.35427 0.86143 0.0
H519 H 0.41281 0.32431 0.51583 0.0
H520 H 0.41006 0.32 0.64307 0.0
H521 H 0.40752 0.36558 0.76545 0.0
H522 H 0.42257 0.36462 0.12358 0.0
H523 H 0.42558 0.36916 -0.00356 0.0
H524 H 0.42863 0.32383 0.87343 0.0
C525 C 0.41505 0.33403 0.62208 0.0
C526 C 0.41233 0.35654 0.78834 0.0
C527 C 0.41648 0.33646 0.54907 0.0
C528 C 0.4191 0.35256 0.09009 0.0
C529 C 0.42069 0.35513 0.01714 0.0
C530 C 0.42382 0.33286 0.85059 0.0
C531 C 0.41988 0.34947 0.66732 0.0
C532 C 0.41889 0.34699 0.7453 0.0
C533 C 0.41612 0.3398 0.9716 0.0
C534 C 0.41722 0.34238 0.89363 0.0
H535 H 0.43232 0.38378 0.54305 0.0
H536 H 0.42992 0.37961 0.67042 0.0
H537 H 0.43008 0.32779 0.74628 0.0
H538 H 0.40379 0.30535 0.09519 0.0
H539 H 0.40639 0.30972 0.96799 0.0
C540 C 0.51447 0.16108 0.41118 0.0
C541 C 0.52695 0.17705 0.45088 0.0
C542 C 0.51472 0.16191 0.33806 0.0
C543 C 0.52406 0.1977 0.20868 0.0
H544 H 0.51129 0.15724 0.07464 0.0
C545 C 0.51527 0.20386 0.91029 0.0
C546 C 0.50163 0.18752 0.87527 0.0
C547 C 0.51858 0.20328 0.98189 0.0
C548 C 0.51462 0.16856 0.1118 0.0
H549 H 0.55126 0.20539 0.44521 0.0
H550 H 0.55168 0.20671 0.31752 0.0
H551 H 0.52008 0.15413 0.19454 0.0
H552 H 0.47925 0.15847 0.88905 0.0
H553 H 0.48475 0.15764 0.01438 0.0
H554 H 0.5182 0.21196 0.1266 0.0
C555 C 0.54141 0.19379 0.34308 0.0
C556 C 0.51983 0.16684 0.18002 0.0
C557 C 0.54118 0.19297 0.41618 0.0
C558 C 0.49006 0.17121 0.91441 0.0
C559 C 0.49332 0.17066 0.98597 0.0
C560 C 0.5188 0.19939 0.14056 0.0
C561 C 0.5275 0.17867 0.30371 0.0
C562 C 0.52441 0.18132 0.22922 0.0
C563 C 0.50819 0.1864 0.01953 0.0
C564 C 0.5138 0.18473 0.09179 0.0
H565 H 0.5035 0.14848 0.43628 0.0
H566 H 0.50387 0.15001 0.3089 0.0
H567 H 0.52713 0.20891 0.24605 0.0
H568 H 0.52442 0.21667 0.88164 0.0
H569 H 0.53009 0.21565 0.00655 0.0
C570 C 1.00643 0.20702 0.41975 0.0
C571 C 1.02099 0.20702 0.45948 0.0
C572 C 1.00705 0.20694 0.34667 0.0
C573 C 1.02418 0.18687 0.2181 0.0
H574 H 1.00314 0.20695 0.08288 0.0
C575 C 1.0206 0.17286 0.92095 0.0
C576 C 1.00511 0.17151 0.88345 0.0
C577 C 1.02246 0.17676 -0.00738 0.0
C578 C 1.0088 0.20106 0.12042 0.0
H579 H 0.0489 0.20983 0.45431 0.0
H580 H 0.04996 0.20981 0.32653 0.0
H581 H 1.0096 0.21936 0.20282 0.0
H582 H 0.97841 0.17121 0.89277 0.0
H583 H 0.98152 0.17763 0.01863 0.0
H584 H 1.02303 0.1683 0.13653 0.0
C585 C 0.03788 0.20936 0.35202 0.0
C586 C 1.01268 0.20831 0.1886 0.0
C587 C 0.03728 0.20945 0.42515 0.0
C588 C 0.99059 0.17231 0.92012 0.0
C589 C 0.99247 0.17622 -0.00804 0.0
C590 C 1.02024 0.17959 0.15012 0.0
C591 C 1.02226 0.20694 0.31246 0.0
C592 C 1.02032 0.2012 0.23808 0.0
C593 C 1.00881 0.17927 0.02807 0.0
C594 C 1.01239 0.18651 0.10082 0.0
H595 H 0.99383 0.2055 0.44474 0.0
H596 H 0.99485 0.20516 0.31738 0.0
H597 H 1.02962 0.18079 0.25575 0.0
H598 H 1.03194 0.17213 0.89427 0.0
H599 H 0.0352 0.17901 0.01916 0.0
C600 C 0.98501 0.65461 0.42137 0.0
C601 C 0.98529 0.6693 0.46094 0.0
C602 C 0.98511 0.65529 0.34827 0.0
C603 C 1.00576 0.69227 0.2197 0.0
H604 H 0.98483 0.65121 0.08434 0.0
C605 C 1.01986 0.7025 0.92288 0.0
C606 C 1.02084 0.68817 0.88534 0.0
C607 C 1.0159 0.70048 -0.00559 0.0
C608 C 0.99097 0.66274 0.1219 0.0
H609 H 0.98307 0.69473 0.45534 0.0
H610 H 0.98316 0.69583 0.32751 0.0
H611 H 0.97254 0.64559 0.20408 0.0
H612 H 1.02028 0.66135 0.89445 0.0
H613 H 1.01375 0.65806 0.02012 0.0
H614 H 1.02446 0.70933 0.13841 0.0
C615 C 0.98334 0.68406 0.35317 0.0
C616 C 0.98378 0.65957 0.18999 0.0
C617 C 0.98318 0.68335 0.42633 0.0
C618 C 1.01952 0.6726 0.92188 0.0
C619 C 1.01554 0.67059 -0.00642 0.0
C620 C 1.01298 0.69542 0.15184 0.0
C621 C 0.98546 0.67066 0.31383 0.0
C622 C 0.99118 0.67429 0.23953 0.0
C623 C 1.01293 0.68414 0.02974 0.0
C624 C 1.00574 0.68066 0.10243 0.0
H625 H 0.98628 0.64338 0.44661 0.0
H626 H 0.98666 0.64471 0.31918 0.0
H627 H 1.01207 0.70377 0.2574 0.0
H628 H 1.02098 0.71475 0.89627 0.0
H629 H 1.01399 0.71118 0.02091 0.0
C630 C 0.36734 0.3649 0.32463 0.0
C631 C 0.38436 0.37158 0.28739 0.0
C632 C 0.35448 0.37088 0.30737 0.0
C633 C 0.33943 0.38978 0.16064 0.0
H634 H 0.31206 0.39941 0.30599 0.0
C635 C 0.28633 0.41585 0.09832 0.0
C636 C 0.27003 0.40903 0.14019 0.0
C637 C 0.30066 0.41175 0.11501 0.0
C638 C 0.31937 0.39653 0.26462 0.0
H639 H 0.40133 0.39015 0.20342 0.0
H640 H 0.3788 0.40071 0.17329 0.0
H641 H 0.33687 0.39246 0.33859 0.0
H642 H 0.25606 0.39223 0.23219 0.0
H643 H 0.28065 0.38459 0.25985 0.0
H644 H 0.32173 0.39355 0.08665 0.0
C645 C 0.37541 0.39071 0.21572 0.0
C646 C 0.33368 0.39263 0.28338 0.0
C647 C 0.38841 0.3848 0.2334 0.0
C648 C 0.26827 0.39759 0.1982 0.0
C649 C 0.28256 0.39345 0.21477 0.0
C650 C 0.32504 0.39361 0.14182 0.0
C651 C 0.3582 0.38367 0.25213 0.0
C652 C 0.34381 0.38904 0.23171 0.0
C653 C 0.29908 0.40067 0.17396 0.0
C654 C 0.31469 0.39689 0.1936 0.0
H655 H 0.36371 0.35469 0.36651 0.0
H656 H 0.3413 0.36498 0.33602 0.0
H657 H 0.34676 0.38684 0.11949 0.0
H658 H 0.28812 0.4245 0.05272 0.0
H659 H 0.31318 0.41767 0.08252 0.0
C660 C 0.77603 0.72608 0.11004 0.0
C661 C 0.78651 0.71857 0.14146 0.0
C662 C 0.78007 0.74455 0.12531 0.0
C663 C 0.8026 0.78171 0.26158 0.0
H664 H 0.80245 0.81517 0.11733 0.0
C665 C 0.83323 0.86144 0.31061 0.0
C666 C 0.82441 0.87071 0.27948 0.0
C667 C 0.82733 0.84257 0.29462 0.0
C668 C 0.80227 0.80592 0.15848 0.0
H669 H 0.81004 0.72504 0.21145 0.0
H670 H 0.81701 0.75711 0.23815 0.0
H671 H 0.79516 0.78317 0.08597 0.0
H672 H 0.80212 0.86714 0.20785 0.0
H673 H 0.79162 0.83402 0.18051 0.0
H674 H 0.80971 0.80437 0.33411 0.0
C675 C 0.80542 0.7486 0.20266 0.0
C676 C 0.79813 0.78757 0.14043 0.0
C677 C 0.80142 0.73018 0.18726 0.0
C678 C 0.80922 0.86045 0.23291 0.0
C679 C 0.80331 0.8415 0.21676 0.0
C680 C 0.80667 0.8 0.27963 0.0
C681 C 0.79465 0.75595 0.17258 0.0
C682 C 0.79847 0.77531 0.19165 0.0
C683 C 0.8124 0.83236 0.24705 0.0
C684 C 0.80679 0.81245 0.22824 0.0
H685 H 0.76427 0.7175 0.07532 0.0
H686 H 0.77138 0.74968 0.10167 0.0
H687 H 0.80257 0.77253 0.30268 0.0
H688 H 0.84497 0.86883 0.34663 0.0
H689 H 0.83487 0.83616 0.31827 0.0
C690 C 0.47199 0.9165 0.23008 0.0
C691 C 0.47609 0.92589 0.16506 0.0
C692 C 0.45378 0.90179 0.24501 0.0
C693 C 0.40785 0.86732 0.16227 0.0
H694 H 0.38876 0.86503 0.35038 0.0
C695 C 0.33467 0.80609 0.25474 0.0
C696 C 0.32382 0.81146 0.29594 0.0
C697 C 0.35359 0.8192 0.2388 0.0
C698 C 0.39379 0.86547 0.29744 0.0
H699 H 0.46409 0.92696 0.06454 0.0
H700 H 0.43219 0.90139 0.09087 0.0
H701 H 0.42056 0.8897 0.32107 0.0
H702 H 0.32455 0.83494 0.35289 0.0
H703 H 0.35706 0.85752 0.32485 0.0
H704 H 0.38075 0.84334 0.13835 0.0
C705 C 0.44319 0.90526 0.13003 0.0
C706 C 0.41218 0.87953 0.2808 0.0
C707 C 0.46148 0.91998 0.11497 0.0
C708 C 0.33241 0.83016 0.32135 0.0
C709 C 0.35119 0.84318 0.30554 0.0
C710 C 0.3894 0.85321 0.17898 0.0
C711 C 0.43906 0.89603 0.19548 0.0
C712 C 0.41947 0.88074 0.21292 0.0
C713 C 0.36207 0.83795 0.26394 0.0
C714 C 0.38207 0.8522 0.24668 0.0
H715 H 0.48296 0.92034 0.26933 0.0
H716 H 0.4513 0.89479 0.29535 0.0
H717 H 0.41304 0.86764 0.10969 0.0
H718 H 0.32852 0.79185 0.23409 0.0
H719 H 0.36159 0.81463 0.2071 0.0
C720 C 0.55303 0.04925 0.00228 0.0
C721 C 0.57191 0.05784 0.02529 0.0
C722 C 0.54517 0.06046 0.98139 0.0
C723 C 0.554 0.11023 0.9872 0.0
H724 H 0.52798 0.09787 0.80752 0.0
C725 C 0.5532 0.16658 0.80753 0.0
C726 C 0.53616 0.16242 0.77422 0.0
C727 C 0.55469 0.15263 0.84513 0.0
C728 C 0.535 0.1014 0.85823 0.0
H729 H 0.59694 0.08469 0.04852 0.0
H730 H 0.58348 0.10394 0.01279 0.0
H731 H 0.53488 0.07508 0.86439 0.0
H732 H 0.50715 0.14061 0.75672 0.0
H733 H 0.5099 0.11599 0.82032 0.0
H734 H 0.55489 0.13687 0.97945 0.0
C735 C 0.57454 0.08872 0.01072 0.0
C736 C 0.53888 0.08829 0.89106 0.0
C737 C 0.58235 0.07763 0.03082 0.0
C738 C 0.52058 0.14408 0.78005 0.0
C739 C 0.52214 0.13002 0.81687 0.0
C740 C 0.5503 0.12336 0.95412 0.0
C741 C 0.556 0.08038 0.98418 0.0
C742 C 0.54892 0.09276 0.95507 0.0
C743 C 0.53922 0.13415 0.84992 0.0
C744 C 0.54119 0.11931 0.88841 0.0
H745 H 0.54471 0.03403 -0.00299 0.0
H746 H 0.53078 0.05355 0.96172 0.0
H747 H 0.56135 0.11401 0.03723 0.0
H748 H 0.56543 0.18061 0.80432 0.0
H749 H 0.56811 0.15625 0.86943 0.0
C750 C 0.05477 0.23623 0.75518 0.0
C751 C 0.03596 0.23215 0.7625 0.0
C752 C 0.06953 0.25185 0.7901 0.0
C753 C 0.07846 0.28418 0.94079 0.0
H754 H 0.12255 0.32075 0.83808 0.0
C755 C 0.1201 0.36196 0.02047 0.0
C756 C 0.13976 0.37257 0.01121 0.0
C757 C 0.10987 0.34314 -0.00133 0.0
C758 C 0.11055 0.31051 0.86807 0.0
H759 H 1.01784 0.24112 0.81217 0.0
H760 H 0.04331 0.26803 0.87312 0.0
H761 H 0.09993 0.29081 0.78186 0.0
H762 H 0.16428 0.37161 0.97348 0.0
H763 H 0.14624 0.33838 0.93441 0.0
H764 H 0.08866 0.30393 0.02619 0.0
C765 C 0.04679 0.25923 0.84096 0.0
C766 C 0.09755 0.29336 0.83575 0.0
C767 C 1.03218 0.24386 0.80557 0.0
C768 C 0.14915 0.36369 0.98192 0.0
C769 C 0.1388 0.34476 0.95895 0.0
C770 C 0.09142 0.30121 0.97305 0.0
C771 C 0.06566 0.26347 0.8338 0.0
C772 C 0.08102 0.28028 0.87098 0.0
C773 C 0.11896 0.33435 0.9662 0.0
C774 C 0.1073 0.3149 0.93636 0.0
H775 H 0.05809 0.22752 0.72187 0.0
H776 H 0.08391 0.25474 0.78346 0.0
H777 H 0.06609 0.27424 0.97 0.0
H778 H 0.11245 0.36843 0.04274 0.0
H779 H 0.09464 0.33576 0.00435 0.0
C780 C 0.95623 0.67208 0.7542 0.0
C781 C 0.96003 0.65705 0.75626 0.0
C782 C 0.93956 0.67008 0.78401 0.0
C783 C 0.89157 0.63248 0.83581 0.0
H784 H 0.88955 0.6711 0.94853 0.0
C785 C 0.82915 0.61274 0.01327 0.0
C786 C 0.81913 0.62247 0.00401 0.0
C787 C 0.8473 0.6199 0.9864 0.0
C788 C 0.88991 0.66029 0.91654 0.0
H789 H 0.94973 0.62844 0.7928 0.0
H790 H 0.9211 0.62503 0.84517 0.0
H791 H 0.91944 0.67781 0.89265 0.0
H792 H 0.82082 0.64807 0.96355 0.0
H793 H 0.85306 0.66084 0.91626 0.0
H794 H 0.86236 0.61482 0.8606 0.0
C795 C 0.93061 0.63823 0.81942 0.0
C796 C 0.90699 0.66412 0.88446 0.0
C797 C 0.94712 0.64021 0.78969 0.0
C798 C 0.82829 0.64035 0.97191 0.0
C799 C 0.84666 0.64759 0.94461 0.0
C800 C 0.8747 0.62866 0.86797 0.0
C801 C 0.92641 0.65299 0.81617 0.0
C802 C 0.90811 0.65004 0.8451 0.0
C803 C 0.85598 0.63698 0.94915 0.0
C804 C 0.87374 0.64232 0.91008 0.0
H805 H 0.96594 0.68521 0.72862 0.0
H806 H 0.93676 0.68172 0.78034 0.0
H807 H 0.8917 0.62148 0.8042 0.0
H808 H 0.82252 0.599 0.03832 0.0
H809 H 0.85426 0.61159 -0.00795 0.0
C810 C 0.06009 0.595 0.82457 0.0
C811 C 0.04115 0.58912 0.8078 0.0
C812 C 0.06507 0.58236 0.85368 0.0
C813 C 0.04842 0.53145 0.86163 0.0
H814 H 0.08886 0.54671 -0.00167 0.0
C815 C 0.07132 0.47929 0.96269 0.0
C816 C 0.0909 0.48607 0.96547 0.0
C817 C 0.06438 0.4917 0.95261 0.0
C818 C 0.07761 0.54227 0.95985 0.0
H819 H 1.01248 0.56549 0.81087 0.0
H820 H 1.02114 0.54344 0.86281 0.0
H821 H 0.07797 0.56868 0.96581 0.0
H822 H 0.11852 0.5113 0.96126 0.0
H823 H 0.1064 0.53298 0.94358 0.0
H824 H 0.04826 0.5052 0.85461 0.0
C825 C 1.03218 0.5578 0.85249 0.0
C826 C 0.07136 0.55485 0.94126 0.0
C827 C 1.02719 0.57048 0.82344 0.0
C828 C 0.10336 0.50563 0.96009 0.0
C829 C 0.09641 0.51806 0.94999 0.0
C830 C 0.05465 0.51888 0.88025 0.0
C831 C 0.05123 0.56351 0.8668 0.0
C832 C 0.05684 0.54967 0.89125 0.0
C833 C 0.07683 0.5112 0.94511 0.0
C834 C 0.06947 0.52421 0.92895 0.0
H835 H 0.07116 0.60934 0.81406 0.0
H836 H 0.07989 0.58721 0.86349 0.0
H837 H 0.03744 0.5271 0.82208 0.0
H838 H 0.06133 0.46433 0.96805 0.0
H839 H 0.04922 0.48599 0.9504 0.0
C840 C 0.68035 0.45661 0.96079 0.0
C841 C 0.69974 0.46244 0.96121 0.0
C842 C 0.66682 0.43752 0.95248 0.0
C843 C 0.65999 0.3889 0.95929 0.0
H844 H 0.61906 0.3775 0.82873 0.0
C845 C 0.61491 0.3158 0.82677 0.0
C846 C 0.59563 0.30941 0.81482 0.0
C847 C 0.62671 0.3338 0.85488 0.0
C848 C 0.63021 0.3804 0.86623 0.0
H849 H 0.72004 0.45262 0.95635 0.0
H850 H 0.69651 0.41946 0.93999 0.0
H851 H 0.64123 0.41022 0.85908 0.0
H852 H 0.57339 0.31641 0.82722 0.0
H853 H 0.59397 0.3478 0.87628 0.0
H854 H 0.64915 0.359 0.96489 0.0
C855 C 0.69172 0.42959 0.94673 0.0
C856 C 0.64293 0.39919 0.88371 0.0
C857 C 0.70523 0.44866 0.95515 0.0
C858 C 0.58826 0.32108 0.83451 0.0
C859 C 0.60004 0.33905 0.86258 0.0
C860 C 0.64727 0.37008 0.94163 0.0
C861 C 0.67235 0.4238 0.94435 0.0
C862 C 0.6581 0.4037 0.92988 0.0
C863 C 0.61948 0.34579 0.87168 0.0
C864 C 0.63234 0.36563 0.89438 0.0
H865 H 0.67563 0.46686 0.96491 0.0
H866 H 0.65201 0.43352 0.95178 0.0
H867 H 0.67136 0.39187 -0.00416 0.0
H868 H 0.62106 0.30722 0.81155 0.0
H869 H 0.64166 0.33863 0.86061 0.0
C870 C 0.87598 0.13898 0.83489 0.0
C871 C 0.88627 0.15679 0.80279 0.0
C872 C 0.85765 0.13265 0.85949 0.0
C873 C 0.81712 0.13984 0.8287 0.0
H874 H 0.79748 0.11116 0.00038 0.0
C875 C 0.743 0.11912 0.92952 0.0
C876 C 0.73183 0.10078 0.9564 0.0
C877 C 0.7621 0.12613 0.91497 0.0
C878 C 0.80272 0.11899 0.95193 0.0
H879 H 0.88579 0.18233 0.77513 0.0
H880 H 0.85386 0.17132 0.81825 0.0
H881 H 0.83065 0.12347 0.96941 0.0
H882 H 0.73216 0.07555 -0.00984 0.0
H883 H 0.76551 0.08768 0.96319 0.0
H884 H 0.78927 0.13525 0.81055 0.0
C885 C 0.85981 0.16209 0.82304 0.0
C886 C 0.82172 0.12607 0.93427 0.0
C887 C 0.8781 0.16841 0.79844 0.0
C888 C 0.74031 0.08967 0.96887 0.0
C889 C 0.75948 0.0967 0.95418 0.0
C890 C 0.79818 0.13276 0.84623 0.0
C891 C 0.84921 0.14398 0.85253 0.0
C892 C 0.82914 0.13663 0.87252 0.0
C893 C 0.77056 0.11497 0.92653 0.0
C894 C 0.79074 0.12231 0.90815 0.0
H895 H 0.88178 0.1296 0.83833 0.0
H896 H 0.84982 0.11857 0.88138 0.0
H897 H 0.82227 0.14755 0.77997 0.0
H898 H 0.7369 0.12799 0.91838 0.0
H899 H 0.77027 0.14035 0.8946 0.0
C900 C 0.63249 0.98595 0.12334 0.0
C901 C 0.63773 1.00174 0.07999 0.0
C902 C 0.6453 0.97959 0.1377 0.0
C903 C 0.68992 0.98293 0.0728 0.0
H904 H 0.69393 0.96763 0.26191 0.0
C905 C 0.73936 0.95333 0.13779 0.0
C906 C 0.74959 0.95894 0.20133 0.0
C907 C 0.72502 0.95755 0.12389 0.0
C908 C 0.69309 0.97199 0.20892 0.0
H909 H 0.66057 0.02303 0.01707 0.0
H910 H 0.68271 1.01215 0.04246 0.0
H911 H 0.67017 0.97665 0.23508 0.0
H912 H 0.75259 0.97336 0.3003 0.0
H913 H 0.72768 0.98098 0.27573 0.0
H914 H 0.71316 0.97888 0.04691 0.0
C915 C 0.66868 1.00446 0.06479 0.0
C916 C 0.67928 0.97692 0.19329 0.0
C917 C 0.65594 1.01078 0.05052 0.0
C918 C 0.74492 0.96873 0.25103 0.0
C919 C 0.73058 0.97304 0.23698 0.0
C920 C 0.70371 0.97804 0.08839 0.0
C921 C 0.66361 0.98884 0.10885 0.0
C922 C 0.6776 0.98259 0.12509 0.0
C923 C 0.7205 0.96758 0.173 0.0
C924 C 0.70556 0.97257 0.15671 0.0
H925 H 0.6186 0.97866 0.14702 0.0
H926 H 0.64084 0.96739 0.17125 0.0
H927 H 0.68894 0.987 0.01948 0.0
H928 H 0.74226 0.94539 0.09896 0.0
H929 H 0.71733 0.95275 0.07474 0.0
C930 C 0.22161 0.63301 0.26168 0.0
C931 C 0.23438 0.6476 0.21761 0.0
C932 C 0.21654 0.61414 0.24828 0.0
C933 C 0.23223 0.58443 0.15417 0.0
H934 H 0.17955 0.54549 0.16708 0.0
C935 C 0.20672 0.50415 0.12294 0.0
C936 C 0.19008 0.49337 0.08358 0.0
C937 C 0.21262 0.52299 0.14091 0.0
C938 C 0.19432 0.55619 0.16295 0.0
H939 H 0.25223 0.65372 0.12596 0.0
H940 H 0.2433 0.62093 0.10239 0.0
H941 H 0.18886 0.57815 0.19597 0.0
H942 H 0.16683 0.49424 0.03114 0.0
H943 H 0.17708 0.52687 0.06237 0.0
H944 H 0.23763 0.56249 0.1201 0.0
C945 C 0.2372 0.62404 0.1474 0.0
C946 C 0.19969 0.57491 0.18028 0.0
C947 C 0.24215 0.64284 0.16047 0.0
C948 C 0.17966 0.502 0.06185 0.0
C949 C 0.18547 0.52074 0.08016 0.0
C950 C 0.22688 0.56568 0.13731 0.0
C951 C 0.22427 0.60941 0.19091 0.0
C952 C 0.21869 0.58931 0.17552 0.0
C953 C 0.20194 0.53146 0.12037 0.0
C954 C 0.20782 0.55134 0.14081 0.0
H955 H 0.2153 0.63614 0.30596 0.0
H956 H 0.20666 0.60325 0.28323 0.0
H957 H 0.24701 0.59512 0.15061 0.0
H958 H 0.21509 0.49798 0.14072 0.0
H959 H 0.22532 0.53079 0.17227 0.0
C960 C 0.68904 0.53658 0.04044 0.0
C961 C 0.69797 0.55506 0.06808 0.0
C962 C 0.6703 0.52359 0.05718 0.0
C963 C 0.63339 0.51337 0.19038 0.0
H964 H 0.60054 0.47711 0.0507 0.0
C965 C 0.55381 0.45987 0.24017 0.0
C966 C 0.54655 0.44144 0.21311 0.0
C967 C 0.57219 0.47415 0.22389 0.0
C968 C 0.60958 0.48699 0.09061 0.0
H969 H 0.6939 0.5744 0.13419 0.0
H970 H 0.66096 0.55174 0.1626 0.0
H971 H 0.63218 0.50162 0.01774 0.0
H972 H 0.55341 0.42356 0.14976 0.0
H973 H 0.58533 0.4484 0.12127 0.0
H974 H 0.61067 0.49866 0.2632 0.0
C975 C 0.66863 0.54726 0.12866 0.0
C976 C 0.62776 0.50109 0.07167 0.0
C977 C 0.68748 0.56031 0.11187 0.0
C978 C 0.55834 0.43762 0.17056 0.0
C979 C 0.57668 0.4519 0.15413 0.0
C980 C 0.61515 0.49927 0.20929 0.0
C981 C 0.65984 0.52866 0.10191 0.0
C982 C 0.64002 0.51437 0.12142 0.0
C983 C 0.58379 0.47041 0.17991 0.0
C984 C 0.60307 0.48577 0.1598 0.0
H985 H 0.69662 0.53194 0.00665 0.0
H986 H 0.66418 0.50936 0.03637 0.0
H987 H 0.64248 0.52316 0.23038 0.0
H988 H 0.54509 0.46346 0.2722 0.0
H989 H 0.57711 0.48826 0.24413 0.0
C990 C 0.9617 0.76733 0.47887 0.0
C991 C 0.95793 0.75982 0.54719 0.0
C992 C 0.95367 0.77793 0.45438 0.0
C993 C 0.91639 0.7904 0.4906 0.0
H994 H 0.95129 0.83739 0.39877 0.0
C995 C 0.90296 0.85341 0.46612 0.0
C996 C 0.90886 0.86433 0.40457 0.0
C997 C 0.90714 0.83892 0.47701 0.0
C998 C 0.94124 0.8242 0.42326 0.0
H999 H 0.94187 0.75666 0.64178 0.0
H1000 H 0.92816 0.77544 0.59964 0.0
H1001 H 0.96147 0.81483 0.4283 0.0
H1002 H 0.92303 0.868 0.30479 0.0
H1003 H 0.93032 0.84274 0.32377 0.0
H1004 H 0.89628 0.80003 0.48674 0.0
C1005 C 0.93724 0.77306 0.56476 0.0
C1006 C 0.94708 0.81122 0.44016 0.0
C1007 C 0.94527 0.76246 0.58924 0.0
C1008 C 0.9186 0.86009 0.35336 0.0
C1009 C 0.92276 0.8456 0.36422 0.0
C1010 C 0.91054 0.8034 0.47367 0.0
C1011 C 0.94167 0.78127 0.4976 0.0
C1012 C 0.93482 0.79426 0.47477 0.0
C1013 C 0.91731 0.835 0.42658 0.0
C1014 C 0.92298 0.82056 0.44052 0.0
H1015 H 0.97148 0.76568 0.44525 0.0
H1016 H 0.95717 0.78382 0.402 0.0
H1017 H 0.90651 0.77735 0.51638 0.0
H1018 H 0.89562 0.85644 0.50695 0.0
H1019 H 0.90295 0.83122 0.52606 0.0
C1020 C 0.43131 0.0486 0.44924 0.0
C1021 C 0.42401 0.05947 0.47863 0.0
C1022 C 0.41919 0.03048 0.42296 0.0
C1023 C 0.36987 0.9974 0.36744 0.0
H1024 H 0.38064 0.95908 0.43746 0.0
C1025 C 0.31365 0.91822 0.37653 0.0
C1026 C 0.31935 0.90468 0.36696 0.0
C1027 C 0.32698 0.93749 0.37864 0.0
C1028 C 0.37756 0.96958 0.41615 0.0
H1029 H 0.39822 0.06008 0.50052 0.0
H1030 H 0.37709 0.02852 0.45413 0.0
H1031 H 0.40296 0.99227 0.45969 0.0
H1032 H 0.34359 0.90093 0.34987 0.0
H1033 H 0.36675 0.93455 0.35136 0.0
H1034 H 0.34433 0.97464 0.32461 0.0
C1035 C 0.39221 0.03407 0.45109 0.0
C1036 C 0.39038 0.98864 0.42903 0.0
C1037 C 0.40434 0.05219 0.4776 0.0
C1038 C 0.33866 0.91094 0.35692 0.0
C1039 C 0.35198 0.93024 0.35865 0.0
C1040 C 0.35708 0.9783 0.35416 0.0
C1041 C 0.39949 0.02284 0.42517 0.0
C1042 C 0.38657 1.00276 0.4057 0.0
C1043 C 0.34635 0.94374 0.37078 0.0
C1044 C 0.36063 0.96413 0.3793 0.0
H1045 H 0.44641 0.05394 0.44799 0.0
H1046 H 0.42523 0.02229 0.40214 0.0
H1047 H 0.36665 1.00797 0.34811 0.0
H1048 H 0.29887 0.91392 0.38326 0.0
H1049 H 0.3221 0.94743 0.38873 0.0
C1050 C 0.1413 0.21518 0.47737 0.0
C1051 C 0.13448 0.22651 0.50628 0.0
C1052 C 0.15972 0.22332 0.45178 0.0
C1053 C 0.20639 0.26574 0.4732 0.0
H1054 H 0.21915 0.24494 0.3128 0.0
C1055 C 0.2838 0.2941 0.3889 0.0
C1056 C 0.28876 0.28015 0.37582 0.0
C1057 C 0.26481 0.2892 0.39488 0.0
C1058 C 0.21581 0.25087 0.35781 0.0
H1059 H 0.14146 0.25536 0.52844 0.0
H1060 H 0.17371 0.26964 0.48339 0.0
H1061 H 0.18601 0.23349 0.34081 0.0
H1062 H 0.27765 0.25028 0.35538 0.0
H1063 H 0.2446 0.2417 0.36695 0.0
H1064 H 0.23615 0.28281 0.49114 0.0
C1065 C 0.16484 0.2544 0.48155 0.0
C1066 C 0.19683 0.24431 0.37389 0.0
C1067 C 0.14639 0.24624 0.50732 0.0
C1068 C 0.2743 0.26132 0.36644 0.0
C1069 C 0.25534 0.25644 0.37222 0.0
C1070 C 0.22536 0.27232 0.45704 0.0
C1071 C 0.17181 0.24301 0.45436 0.0
C1072 C 0.19189 0.2514 0.43261 0.0
C1073 C 0.25037 0.27027 0.38758 0.0
C1074 C 0.23028 0.2647 0.39999 0.0
H1075 H 0.13262 0.19992 0.47687 0.0
H1076 H 0.16471 0.21409 0.4324 0.0
H1077 H 0.20311 0.27133 0.51933 0.0
H1078 H 0.2946 0.30872 0.39675 0.0
H1079 H 0.26142 0.30021 0.40604 0.0
C1080 C 0.50163 0.22298 0.54821 0.0
C1081 C 0.48712 0.20849 0.5877 0.0
C1082 C 0.49969 0.23805 0.52246 0.0
C1083 C 0.47098 0.26175 0.54654 0.0
H1084 H 0.48642 0.27972 0.35623 0.0
C1085 C 0.43566 0.29392 0.38564 0.0
C1086 C 0.44677 0.31271 0.36251 0.0
C1087 C 0.44397 0.28381 0.41153 0.0
C1088 C 0.48239 0.27509 0.40989 0.0
H1089 H 0.45916 0.19832 0.6306 0.0
H1090 H 0.45554 0.22422 0.58487 0.0
H1091 H 0.49415 0.25669 0.40673 0.0
H1092 H 0.47554 0.33516 0.34489 0.0
H1093 H 0.49024 0.31698 0.38938 0.0
H1094 H 0.45831 0.2793 0.54815 0.0
C1095 C 0.46866 0.22432 0.57495 0.0
C1096 C 0.48677 0.26189 0.43893 0.0
C1097 C 0.47064 0.20934 0.6008 0.0
C1098 C 0.46658 0.32076 0.36239 0.0
C1099 C 0.47497 0.31041 0.3879 0.0
C1100 C 0.46648 0.27474 0.51737 0.0
C1101 C 0.48315 0.23892 0.53546 0.0
C1102 C 0.48063 0.25463 0.50702 0.0
C1103 C 0.46365 0.29201 0.41439 0.0
C1104 C 0.47172 0.28118 0.44825 0.0
H1105 H 0.51446 0.22262 0.53676 0.0
H1106 H 0.5112 0.24905 0.49275 0.0
H1107 H 0.46645 0.25693 0.59968 0.0
H1108 H 0.42037 0.28701 0.38566 0.0
H1109 H 0.43492 0.26956 0.43056 0.0
C1110 C 0.89719 1.00309 0.33514 0.0
C1111 C 0.87783 0.99162 0.34923 0.0
C1112 C 0.90724 0.02156 0.36113 0.0
C1113 C 0.92278 0.06334 0.39929 0.0
H1114 H 0.92099 0.06715 0.60201 0.0
C1115 C 0.96808 0.13386 0.54937 0.0
C1116 C 0.97906 0.13273 0.60424 0.0
C1117 C 0.95349 0.1174 0.51861 0.0
C1118 C 0.92154 0.06633 0.54533 0.0
H1119 H 0.85366 0.99056 0.40048 0.0
H1120 H 0.87144 0.02294 0.44788 0.0
H1121 H 0.89917 0.03741 0.54259 0.0
H1122 H 0.98287 0.11354 0.67189 0.0
H1123 H 0.95713 0.08477 0.61913 0.0
H1124 H 0.94535 0.09212 0.40198 0.0
C1125 C 0.87871 1.01762 0.41563 0.0
C1126 C 0.90896 0.04937 0.51129 0.0
C1127 C 0.86852 0.99921 0.38804 0.0
C1128 C 0.97466 0.11484 0.62963 0.0
C1129 C 0.95988 0.09838 0.59962 0.0
C1130 C 0.93512 0.08038 0.43315 0.0
C1131 C 0.89825 0.02887 0.40328 0.0
C1132 C 0.90972 0.04758 0.43806 0.0
C1133 C 0.94936 0.09947 0.54289 0.0
C1134 C 0.93492 0.08195 0.5067 0.0
H1135 H 0.90473 0.99753 0.30574 0.0
H1136 H 0.92228 0.0298 0.3512 0.0
H1137 H 0.92368 0.06236 0.34281 0.0
H1138 H 0.97112 0.14746 0.52876 0.0
H1139 H 0.94555 0.11869 0.47534 0.0
C1140 C 0.05951 0.69031 0.55571 0.0
C1141 C 0.0602 0.70279 0.60827 0.0
C1142 C 0.0762 0.69169 0.52947 0.0
C1143 C 0.12668 0.71046 0.5722 0.0
H1144 H 0.13447 0.71335 0.37059 0.0
C1145 C 0.20027 0.74893 0.45394 0.0
C1146 C 0.20469 0.74249 0.39214 0.0
C1147 C 0.18195 0.74005 0.48009 0.0
C1148 C 0.1324 0.71214 0.42693 0.0
H1149 H 0.07883 0.72621 0.67549 0.0
H1150 H 0.10793 0.72849 0.63052 0.0
H1151 H 0.1035 0.70559 0.41756 0.0
H1152 H 0.19326 0.72119 0.31028 0.0
H1153 H 0.16065 0.70549 0.35621 0.0
H1154 H 0.15555 0.71733 0.58203 0.0
C1155 C 0.09451 0.71762 0.60953 0.0
C1156 C 0.11467 0.70777 0.45388 0.0
C1157 C 0.07786 0.71639 0.63509 0.0
C1158 C 0.19028 0.72645 0.35801 0.0
C1159 C 0.17164 0.71758 0.38408 0.0
C1160 C 0.14428 0.71467 0.54539 0.0
C1161 C 0.09391 0.7054 0.55596 0.0
C1162 C 0.11181 0.70749 0.5269 0.0
C1163 C 0.16729 0.72439 0.4454 0.0
C1164 C 0.1476 0.71624 0.47249 0.0
H1165 H 0.04608 0.67969 0.53394 0.0
H1166 H 0.07525 0.682 0.48856 0.0
H1167 H 0.12483 0.70993 0.62865 0.0
H1168 H 0.21103 0.76113 0.48218 0.0
H1169 H 0.17918 0.74594 0.52661 0.0
loop_
_geom_bond_atom_site_label_1
_geom_bond_atom_site_label_2
_geom_bond_distance
_geom_bond_site_symmetry_2
_ccdc_geom_bond_type
C0 Eu1 2.835 . S
C0 C2 1.500 . S
C0 O20 1.257 . S
C0 O21 1.260 . S
Eu1 C0 2.835 . S
Eu1 O20 2.473 . S
Eu1 O21 2.480 . S
Eu1 O22 2.430 . S
Eu1 O23 2.670 . S
Eu1 O24 2.394 . S
Eu1 O29 2.355 . S
Eu1 O31 2.374 . S
C2 C0 1.500 . S
C2 C3 1.377 . S
C2 C7 1.377 . S
C3 C2 1.377 . S
C3 C4 1.395 . S
C3 H32 0.931 . S
C4 C3 1.395 . S
C4 C5 1.383 . S
C4 H33 0.931 . S
C5 C4 1.383 . S
C5 C6 1.394 . S
C6 C5 1.394 . S
C6 C7 1.378 . S
C6 H34 0.931 1_554 S
C7 C2 1.377 . S
C7 C6 1.378 . S
C7 H35 0.931 1_554 S
C8 O22 1.259 . S
C8 O23 1.270 . S
C9 O24 1.251 . S
C9 O25 1.251 . S
C10 Eu11 2.835 . S
C10 C12 1.500 . S
C10 O26 1.257 . S
C10 O27 1.260 . S
Eu11 C10 2.835 . S
Eu11 O23 2.355 . S
Eu11 O25 2.374 . S
Eu11 O26 2.473 . S
Eu11 O27 2.480 . S
Eu11 O28 2.430 1_554 S
Eu11 O29 2.670 . S
Eu11 O30 2.394 . S
C12 C10 1.500 . S
C12 C13 1.377 . S
C12 C17 1.377 . S
C13 C12 1.377 . S
C13 C14 1.395 . S
C13 H36 0.931 . S
C14 C13 1.395 . S
C14 C15 1.383 . S
C14 H37 0.931 . S
C15 C14 1.383 . S
C15 C16 1.394 . S
C16 C15 1.394 . S
C16 C17 1.378 . S
C16 H38 0.931 . S
C17 C12 1.377 . S
C17 C16 1.378 . S
C17 H39 0.931 . S
C18 O28 1.259 . S
C18 O29 1.270 1_556 S
C19 O30 1.251 . S
C19 O31 1.251 . S
O20 C0 1.257 . S
O20 Eu1 2.473 . S
O21 C0 1.260 . S
O21 Eu1 2.480 . S
O22 Eu1 2.430 . S
O22 C8 1.259 . S
O23 Eu1 2.670 . S
O23 C8 1.270 . S
O23 Eu11 2.355 . S
O24 Eu1 2.394 . S
O24 C9 1.251 . S
O25 C9 1.251 . S
O25 Eu11 2.374 . S
O26 C10 1.257 . S
O26 Eu11 2.473 . S
O27 C10 1.260 . S
O27 Eu11 2.480 . S
O28 Eu11 2.430 1_556 S
O28 C18 1.259 . S
O29 Eu1 2.355 . S
O29 Eu11 2.670 . S
O29 C18 1.270 1_554 S
O30 Eu11 2.394 . S
O30 C19 1.251 . S
O31 Eu1 2.374 . S
O31 C19 1.251 . S
H32 C3 0.931 . S
H33 C4 0.931 . S
H34 C6 0.931 1_556 S
H35 C7 0.931 1_556 S
H36 C13 0.931 . S
H37 C14 0.931 . S
H38 C16 0.931 . S
H39 C17 0.931 . S
C40 Eu41 2.835 . S
C40 C42 1.500 . S
C40 O60 1.257 . S
C40 O61 1.260 . S
Eu41 C40 2.835 . S
Eu41 O60 2.473 . S
Eu41 O61 2.480 . S
Eu41 O62 2.430 . S
Eu41 O63 2.670 . S
Eu41 O64 2.394 . S
Eu41 O69 2.355 . S
Eu41 O71 2.374 . S
C42 C40 1.500 . S
C42 C43 1.377 . S
C42 C47 1.377 . S
C43 C42 1.377 . S
C43 C44 1.395 . S
C43 H72 0.931 . S
C44 C43 1.395 . S
C44 C45 1.383 . S
C44 H73 0.931 . S
C45 C44 1.383 . S
C45 C46 1.394 . S
C46 C45 1.394 . S
C46 C47 1.378 . S
C46 H74 0.931 1_554 S
C47 C42 1.377 . S
C47 C46 1.378 . S
C47 H75 0.931 1_554 S
C48 O62 1.259 . S
C48 O63 1.270 . S
C49 O64 1.251 . S
C49 O65 1.251 . S
C50 Eu51 2.835 . S
C50 C52 1.500 . S
C50 O66 1.257 . S
C50 O67 1.260 . S
Eu51 C50 2.835 . S
Eu51 O63 2.355 . S
Eu51 O65 2.374 . S
Eu51 O66 2.473 . S
Eu51 O67 2.480 . S
Eu51 O68 2.430 1_554 S
Eu51 O69 2.670 . S
Eu51 O70 2.394 . S
C52 C50 1.500 . S
C52 C53 1.377 . S
C52 C57 1.377 . S
C53 C52 1.377 . S
C53 C54 1.395 . S
C53 H76 0.931 . S
C54 C53 1.395 . S
C54 C55 1.383 . S
C54 H77 0.931 . S
C55 C54 1.383 . S
C55 C56 1.394 . S
C56 C55 1.394 . S
C56 C57 1.378 . S
C56 H78 0.931 . S
C57 C52 1.377 . S
C57 C56 1.378 . S
C57 H79 0.931 . S
C58 O68 1.259 . S
C58 O69 1.270 1_556 S
C59 O70 1.251 . S
C59 O71 1.251 . S
O60 C40 1.257 . S
O60 Eu41 2.473 . S
O61 C40 1.260 . S
O61 Eu41 2.480 . S
O62 Eu41 2.430 . S
O62 C48 1.259 . S
O63 Eu41 2.670 . S
O63 C48 1.270 . S
O63 Eu51 2.355 . S
O64 Eu41 2.394 . S
O64 C49 1.251 . S
O65 C49 1.251 . S
O65 Eu51 2.374 . S
O66 C50 1.257 . S
O66 Eu51 2.473 . S
O67 C50 1.260 . S
O67 Eu51 2.480 . S
O68 Eu51 2.430 1_556 S
O68 C58 1.259 . S
O69 Eu41 2.355 . S
O69 Eu51 2.670 . S
O69 C58 1.270 1_554 S
O70 Eu51 2.394 . S
O70 C59 1.251 . S
O71 Eu41 2.374 . S
O71 C59 1.251 . S
H72 C43 0.931 . S
H73 C44 0.931 . S
H74 C46 0.931 1_556 S
H75 C47 0.931 1_556 S
H76 C53 0.931 . S
H77 C54 0.931 . S
H78 C56 0.931 . S
H79 C57 0.931 . S
C80 Eu81 2.835 . S
C80 C82 1.500 . S
C80 O100 1.257 . S
C80 O101 1.260 . S
Eu81 C80 2.835 . S
Eu81 O100 2.473 . S
Eu81 O101 2.480 . S
Eu81 O102 2.430 . S
Eu81 O103 2.670 . S
Eu81 O104 2.394 . S
Eu81 O109 2.355 . S
Eu81 O111 2.374 . S
C82 C80 1.500 . S
C82 C83 1.377 . S
C82 C87 1.377 . S
C83 C82 1.377 . S
C83 C84 1.395 . S
C83 H112 0.931 . S
C84 C83 1.395 . S
C84 C85 1.383 . S
C84 H113 0.931 . S
C85 C84 1.383 . S
C85 C86 1.394 . S
C86 C85 1.394 . S
C86 C87 1.378 . S
C86 H114 0.931 1_554 S
C87 C82 1.377 . S
C87 C86 1.378 . S
C87 H115 0.931 1_554 S
C88 O102 1.259 . S
C88 O103 1.270 . S
C89 O104 1.251 . S
C89 O105 1.251 1_545 S
C90 Eu91 2.835 . S
C90 C92 1.500 . S
C90 O106 1.257 . S
C90 O107 1.260 . S
Eu91 C90 2.835 . S
Eu91 O103 2.355 1_565 S
Eu91 O105 2.374 . S
Eu91 O106 2.473 . S
Eu91 O107 2.480 . S
Eu91 O108 2.430 1_554 S
Eu91 O109 2.670 1_565 S
Eu91 O110 2.394 1_565 S
C92 C90 1.500 . S
C92 C93 1.377 . S
C92 C97 1.377 . S
C93 C92 1.377 . S
C93 C94 1.395 . S
C93 H116 0.931 . S
C94 C93 1.395 . S
C94 C95 1.383 . S
C94 H117 0.931 . S
C95 C94 1.383 . S
C95 C96 1.394 . S
C96 C95 1.394 . S
C96 C97 1.378 . S
C96 H118 0.931 . S
C97 C92 1.377 . S
C97 C96 1.378 . S
C97 H119 0.931 . S
C98 O108 1.259 1_545 S
C98 O109 1.270 1_556 S
C99 O110 1.251 . S
C99 O111 1.251 . S
O100 C80 1.257 . S
O100 Eu81 2.473 . S
O101 C80 1.260 . S
O101 Eu81 2.480 . S
O102 Eu81 2.430 . S
O102 C88 1.259 . S
O103 Eu81 2.670 . S
O103 C88 1.270 . S
O103 Eu91 2.355 1_545 S
O104 Eu81 2.394 . S
O104 C89 1.251 . S
O105 C89 1.251 1_565 S
O105 Eu91 2.374 . S
O106 C90 1.257 . S
O106 Eu91 2.473 . S
O107 C90 1.260 . S
O107 Eu91 2.480 . S
O108 Eu91 2.430 1_556 S
O108 C98 1.259 1_565 S
O109 Eu81 2.355 . S
O109 Eu91 2.670 1_545 S
O109 C98 1.270 1_554 S
O110 Eu91 2.394 1_545 S
O110 C99 1.251 . S
O111 Eu81 2.374 . S
O111 C99 1.251 . S
H112 C83 0.931 . S
H113 C84 0.931 . S
H114 C86 0.931 1_556 S
H115 C87 0.931 1_556 S
H116 C93 0.931 . S
H117 C94 0.931 . S
H118 C96 0.931 . S
H119 C97 0.931 . S
C120 Eu121 2.835 . S
C120 C122 1.500 . S
C120 O140 1.257 . S
C120 O141 1.260 . S
Eu121 C120 2.835 . S
Eu121 O140 2.473 . S
Eu121 O141 2.480 . S
Eu121 O142 2.430 . S
Eu121 O143 2.670 . S
Eu121 O144 2.394 . S
Eu121 O149 2.355 . S
Eu121 O151 2.374 . S
C122 C120 1.500 . S
C122 C123 1.377 . S
C122 C127 1.377 . S
C123 C122 1.377 . S
C123 C124 1.395 . S
C123 H152 0.931 . S
C124 C123 1.395 . S
C124 C125 1.383 . S
C124 H153 0.931 . S
C125 C124 1.383 . S
C125 C126 1.394 . S
C126 C125 1.394 . S
C126 C127 1.378 . S
C126 H154 0.931 . S
C127 C122 1.377 . S
C127 C126 1.378 . S
C127 H155 0.931 . S
C128 O142 1.259 . S
C128 O143 1.270 . S
C129 O144 1.251 . S
C129 O145 1.251 . S
C130 Eu131 2.835 . S
C130 C132 1.500 . S
C130 O146 1.257 . S
C130 O147 1.260 . S
Eu131 C130 2.835 . S
Eu131 O143 2.355 . S
Eu131 O145 2.374 . S
Eu131 O146 2.473 . S
Eu131 O147 2.480 . S
Eu131 O148 2.430 . S
Eu131 O149 2.670 . S
Eu131 O150 2.394 . S
C132 C130 1.500 . S
C132 C133 1.377 . S
C132 C137 1.377 . S
C133 C132 1.377 . S
C133 C134 1.395 . S
C133 H156 0.931 . S
C134 C133 1.395 . S
C134 C135 1.383 . S
C134 H157 0.931 . S
C135 C134 1.383 . S
C135 C136 1.394 . S
C136 C135 1.394 . S
C136 C137 1.378 . S
C136 H158 0.931 . S
C137 C132 1.377 . S
C137 C136 1.378 . S
C137 H159 0.931 . S
C138 O148 1.259 . S
C138 O149 1.270 . S
C139 O150 1.251 . S
C139 O151 1.251 . S
O140 C120 1.257 . S
O140 Eu121 2.473 . S
O141 C120 1.260 . S
O141 Eu121 2.480 . S
O142 Eu121 2.430 . S
O142 C128 1.259 . S
O143 Eu121 2.670 . S
O143 C128 1.270 . S
O143 Eu131 2.355 . S
O144 Eu121 2.394 . S
O144 C129 1.251 . S
O145 C129 1.251 . S
O145 Eu131 2.374 . S
O146 C130 1.257 . S
O146 Eu131 2.473 . S
O147 C130 1.260 . S
O147 Eu131 2.480 . S
O148 Eu131 2.430 . S
O148 C138 1.259 . S
O149 Eu121 2.355 . S
O149 Eu131 2.670 . S
O149 C138 1.270 . S
O150 Eu131 2.394 . S
O150 C139 1.251 . S
O151 Eu121 2.374 . S
O151 C139 1.251 . S
H152 C123 0.931 . S
H153 C124 0.931 . S
H154 C126 0.931 . S
H155 C127 0.931 . S
H156 C133 0.931 . S
H157 C134 0.931 . S
H158 C136 0.931 . S
H159 C137 0.931 . S
C160 Eu161 2.835 . S
C160 C162 1.500 . S
C160 O180 1.257 . S
C160 O181 1.260 . S
Eu161 C160 2.835 . S
Eu161 O180 2.473 . S
Eu161 O181 2.480 . S
Eu161 O182 2.430 . S
Eu161 O183 2.670 . S
Eu161 O184 2.394 . S
Eu161 O189 2.355 . S
Eu161 O191 2.374 . S
C162 C160 1.500 . S
C162 C163 1.377 . S
C162 C167 1.377 . S
C163 C162 1.377 . S
C163 C164 1.395 . S
C163 H192 0.931 . S
C164 C163 1.395 . S
C164 C165 1.383 . S
C164 H193 0.931 . S
C165 C164 1.383 . S
C165 C166 1.394 . S
C166 C165 1.394 . S
C166 C167 1.378 . S
C166 H194 0.931 . S
C167 C162 1.377 . S
C167 C166 1.378 . S
C167 H195 0.931 . S
C168 O182 1.259 . S
C168 O183 1.270 . S
C169 O184 1.251 . S
C169 O185 1.251 . S
C170 Eu171 2.835 . S
C170 C172 1.500 . S
C170 O186 1.257 . S
C170 O187 1.260 . S
Eu171 C170 2.835 . S
Eu171 O183 2.355 . S
Eu171 O185 2.374 . S
Eu171 O186 2.473 . S
Eu171 O187 2.480 . S
Eu171 O188 2.430 . S
Eu171 O189 2.670 . S
Eu171 O190 2.394 . S
C172 C170 1.500 . S
C172 C173 1.377 . S
C172 C177 1.377 . S
C173 C172 1.377 . S
C173 C174 1.395 . S
C173 H196 0.931 . S
C174 C173 1.395 . S
C174 C175 1.383 . S
C174 H197 0.931 . S
C175 C174 1.383 . S
C175 C176 1.394 . S
C176 C175 1.394 . S
C176 C177 1.378 . S
C176 H198 0.931 . S
C177 C172 1.377 . S
C177 C176 1.378 . S
C177 H199 0.931 . S
C178 O188 1.259 . S
C178 O189 1.270 . S
C179 O190 1.251 . S
C179 O191 1.251 . S
O180 C160 1.257 . S
O180 Eu161 2.473 . S
O181 C160 1.260 . S
O181 Eu161 2.480 . S
O182 Eu161 2.430 . S
O182 C168 1.259 . S
O183 Eu161 2.670 . S
O183 C168 1.270 . S
O183 Eu171 2.355 . S
O184 Eu161 2.394 . S
O184 C169 1.251 . S
O185 C169 1.251 . S
O185 Eu171 2.374 . S
O186 C170 1.257 . S
O186 Eu171 2.473 . S
O187 C170 1.260 . S
O187 Eu171 2.480 . S
O188 Eu171 2.430 . S
O188 C178 1.259 . S
O189 Eu161 2.355 . S
O189 Eu171 2.670 . S
O189 C178 1.270 . S
O190 Eu171 2.394 . S
O190 C179 1.251 . S
O191 Eu161 2.374 . S
O191 C179 1.251 . S
H192 C163 0.931 . S
H193 C164 0.931 . S
H194 C166 0.931 . S
H195 C167 0.931 . S
H196 C173 0.931 . S
H197 C174 0.931 . S
H198 C176 0.931 . S
H199 C177 0.931 . S
C200 Eu201 2.835 . S
C200 C202 1.500 . S
C200 O220 1.257 . S
C200 O221 1.260 . S
Eu201 C200 2.835 . S
Eu201 O220 2.473 . S
Eu201 O221 2.480 . S
Eu201 O222 2.430 . S
Eu201 O223 2.670 . S
Eu201 O224 2.394 . S
Eu201 O229 2.355 . S
Eu201 O231 2.374 . S
C202 C200 1.500 . S
C202 C203 1.377 . S
C202 C207 1.377 . S
C203 C202 1.377 . S
C203 C204 1.395 . S
C203 H232 0.931 . S
C204 C203 1.395 . S
C204 C205 1.383 . S
C204 H233 0.931 . S
C205 C204 1.383 . S
C205 C206 1.394 . S
C206 C205 1.394 . S
C206 C207 1.378 . S
C206 H234 0.931 . S
C207 C202 1.377 . S
C207 C206 1.378 . S
C207 H235 0.931 . S
C208 O222 1.259 . S
C208 O223 1.270 . S
C209 O224 1.251 . S
C209 O225 1.251 . S
C210 Eu211 2.835 . S
C210 C212 1.500 . S
C210 O226 1.257 . S
C210 O227 1.260 . S
Eu211 C210 2.835 . S
Eu211 O223 2.355 . S
Eu211 O225 2.374 . S
Eu211 O226 2.473 . S
Eu211 O227 2.480 . S
Eu211 O228 2.430 . S
Eu211 O229 2.670 . S
Eu211 O230 2.394 . S
C212 C210 1.500 . S
C212 C213 1.377 . S
C212 C217 1.377 . S
C213 C212 1.377 . S
C213 C214 1.395 . S
C213 H236 0.931 . S
C214 C213 1.395 . S
C214 C215 1.383 . S
C214 H237 0.931 . S
C215 C214 1.383 . S
C215 C216 1.394 . S
C216 C215 1.394 . S
C216 C217 1.378 . S
C216 H238 0.931 . S
C217 C212 1.377 . S
C217 C216 1.378 . S
C217 H239 0.931 . S
C218 O228 1.259 . S
C218 O229 1.270 . S
C219 O230 1.251 . S
C219 O231 1.251 . S
O220 C200 1.257 . S
O220 Eu201 2.473 . S
O221 C200 1.260 . S
O221 Eu201 2.480 . S
O222 Eu201 2.430 . S
O222 C208 1.259 . S
O223 Eu201 2.670 . S
O223 C208 1.270 . S
O223 Eu211 2.355 . S
O224 Eu201 2.394 . S
O224 C209 1.251 . S
O225 C209 1.251 . S
O225 Eu211 2.374 . S
O226 C210 1.257 . S
O226 Eu211 2.473 . S
O227 C210 1.260 . S
O227 Eu211 2.480 . S
O228 Eu211 2.430 . S
O228 C218 1.259 . S
O229 Eu201 2.355 . S
O229 Eu211 2.670 . S
O229 C218 1.270 . S
O230 Eu211 2.394 . S
O230 C219 1.251 . S
O231 Eu201 2.374 . S
O231 C219 1.251 . S
H232 C203 0.931 . S
H233 C204 0.931 . S
H234 C206 0.931 . S
H235 C207 0.931 . S
H236 C213 0.931 . S
H237 C214 0.931 . S
H238 C216 0.931 . S
H239 C217 0.931 . S
C240 Eu241 2.835 . S
C240 C242 1.500 . S
C240 O260 1.257 . S
C240 O261 1.260 . S
Eu241 C240 2.835 . S
Eu241 O260 2.473 . S
Eu241 O261 2.480 . S
Eu241 O262 2.430 . S
Eu241 O263 2.670 . S
Eu241 O264 2.394 . S
Eu241 O269 2.355 . S
Eu241 O271 2.374 . S
C242 C240 1.500 . S
C242 C243 1.377 . S
C242 C247 1.377 . S
C243 C242 1.377 . S
C243 C244 1.395 . S
C243 H272 0.931 . S
C244 C243 1.395 . S
C244 C245 1.383 . S
C244 H273 0.931 . S
C245 C244 1.383 . S
C245 C246 1.394 . S
C246 C245 1.394 . S
C246 C247 1.378 . S
C246 H274 0.931 . S
C247 C242 1.377 . S
C247 C246 1.378 . S
C247 H275 0.931 . S
C248 O262 1.259 . S
C248 O263 1.270 . S
C249 O264 1.251 . S
C249 O265 1.251 . S
C250 Eu251 2.835 . S
C250 C252 1.500 . S
C250 O266 1.257 . S
C250 O267 1.260 . S
Eu251 C250 2.835 . S
Eu251 O263 2.355 . S
Eu251 O265 2.374 . S
Eu251 O266 2.473 . S
Eu251 O267 2.480 . S
Eu251 O268 2.430 . S
Eu251 O269 2.670 . S
Eu251 O270 2.394 . S
C252 C250 1.500 . S
C252 C253 1.377 . S
C252 C257 1.377 . S
C253 C252 1.377 . S
C253 C254 1.395 . S
C253 H276 0.931 . S
C254 C253 1.395 . S
C254 C255 1.383 . S
C254 H277 0.931 . S
C255 C254 1.383 . S
C255 C256 1.394 . S
C256 C255 1.394 . S
C256 C257 1.378 . S
C256 H278 0.931 . S
C257 C252 1.377 . S
C257 C256 1.378 . S
C257 H279 0.931 . S
C258 O268 1.259 . S
C258 O269 1.270 . S
C259 O270 1.251 . S
C259 O271 1.251 . S
O260 C240 1.257 . S
O260 Eu241 2.473 . S
O261 C240 1.260 . S
O261 Eu241 2.480 . S
O262 Eu241 2.430 . S
O262 C248 1.259 . S
O263 Eu241 2.670 . S
O263 C248 1.270 . S
O263 Eu251 2.355 . S
O264 Eu241 2.394 . S
O264 C249 1.251 . S
O265 C249 1.251 . S
O265 Eu251 2.374 . S
O266 C250 1.257 . S
O266 Eu251 2.473 . S
O267 C250 1.260 . S
O267 Eu251 2.480 . S
O268 Eu251 2.430 . S
O268 C258 1.259 . S
O269 Eu241 2.355 . S
O269 Eu251 2.670 . S
O269 C258 1.270 . S
O270 Eu251 2.394 . S
O270 C259 1.251 . S
O271 Eu241 2.374 . S
O271 C259 1.251 . S
H272 C243 0.931 . S
H273 C244 0.931 . S
H274 C246 0.931 . S
H275 C247 0.931 . S
H276 C253 0.931 . S
H277 C254 0.931 . S
H278 C256 0.931 . S
H279 C257 0.931 . S
C280 Eu281 2.835 1_455 S
C280 C282 1.500 . S
C280 O300 1.257 . S
C280 O301 1.260 . S
Eu281 C280 2.835 1_655 S
Eu281 O300 2.473 1_655 S
Eu281 O301 2.480 1_655 S
Eu281 O302 2.430 . S
Eu281 O303 2.670 . S
Eu281 O304 2.394 . S
Eu281 O309 2.355 . S
Eu281 O311 2.374 . S
C282 C280 1.500 . S
C282 C283 1.377 . S
C282 C287 1.377 . S
C283 C282 1.377 . S
C283 C284 1.395 . S
C283 H312 0.931 . S
C284 C283 1.395 . S
C284 C285 1.383 . S
C284 H313 0.931 . S
C285 C284 1.383 . S
C285 C286 1.394 . S
C286 C285 1.394 . S
C286 C287 1.378 . S
C286 H314 0.931 . S
C287 C282 1.377 . S
C287 C286 1.378 . S
C287 H315 0.931 . S
C288 O302 1.259 . S
C288 O303 1.270 . S
C289 O304 1.251 . S
C289 O305 1.251 . S
C290 Eu291 2.835 . S
C290 C292 1.500 . S
C290 O306 1.257 . S
C290 O307 1.260 . S
Eu291 C290 2.835 . S
Eu291 O303 2.355 . S
Eu291 O305 2.374 . S
Eu291 O306 2.473 . S
Eu291 O307 2.480 . S
Eu291 O308 2.430 . S
Eu291 O309 2.670 . S
Eu291 O310 2.394 . S
C292 C290 1.500 . S
C292 C293 1.377 . S
C292 C297 1.377 . S
C293 C292 1.377 . S
C293 C294 1.395 . S
C293 H316 0.931 . S
C294 C293 1.395 . S
C294 C295 1.383 . S
C294 H317 0.931 . S
C295 C294 1.383 . S
C295 C296 1.394 . S
C296 C295 1.394 . S
C296 C297 1.378 . S
C296 H318 0.931 . S
C297 C292 1.377 . S
C297 C296 1.378 . S
C297 H319 0.931 . S
C298 O308 1.259 . S
C298 O309 1.270 . S
C299 O310 1.251 . S
C299 O311 1.251 . S
O300 C280 1.257 . S
O300 Eu281 2.473 1_455 S
O301 C280 1.260 . S
O301 Eu281 2.480 1_455 S
O302 Eu281 2.430 . S
O302 C288 1.259 . S
O303 Eu281 2.670 . S
O303 C288 1.270 . S
O303 Eu291 2.355 . S
O304 Eu281 2.394 . S
O304 C289 1.251 . S
O305 C289 1.251 . S
O305 Eu291 2.374 . S
O306 C290 1.257 . S
O306 Eu291 2.473 . S
O307 C290 1.260 . S
O307 Eu291 2.480 . S
O308 Eu291 2.430 . S
O308 C298 1.259 . S
O309 Eu281 2.355 . S
O309 Eu291 2.670 . S
O309 C298 1.270 . S
O310 Eu291 2.394 . S
O310 C299 1.251 . S
O311 Eu281 2.374 . S
O311 C299 1.251 . S
H312 C283 0.931 . S
H313 C284 0.931 . S
H314 C286 0.931 . S
H315 C287 0.931 . S
H316 C293 0.931 . S
H317 C294 0.931 . S
H318 C296 0.931 . S
H319 C297 0.931 . S
C320 Eu321 2.835 . S
C320 C322 1.500 . S
C320 O340 1.257 . S
C320 O341 1.260 . S
Eu321 C320 2.835 . S
Eu321 O340 2.473 . S
Eu321 O341 2.480 . S
Eu321 O342 2.430 1_655 S
Eu321 O343 2.670 . S
Eu321 O344 2.394 . S
Eu321 O349 2.355 . S
Eu321 O351 2.374 . S
C322 C320 1.500 . S
C322 C323 1.377 . S
C322 C327 1.377 . S
C323 C322 1.377 . S
C323 C324 1.395 . S
C323 H352 0.931 . S
C324 C323 1.395 . S
C324 C325 1.383 . S
C324 H353 0.931 . S
C325 C324 1.383 . S
C325 C326 1.394 . S
C326 C325 1.394 . S
C326 C327 1.378 . S
C326 H354 0.931 . S
C327 C322 1.377 . S
C327 C326 1.378 . S
C327 H355 0.931 . S
C328 O342 1.259 . S
C328 O343 1.270 1_455 S
C329 O344 1.251 . S
C329 O345 1.251 . S
C330 Eu331 2.835 . S
C330 C332 1.500 . S
C330 O346 1.257 . S
C330 O347 1.260 . S
Eu331 C330 2.835 . S
Eu331 O343 2.355 . S
Eu331 O345 2.374 . S
Eu331 O346 2.473 . S
Eu331 O347 2.480 . S
Eu331 O348 2.430 . S
Eu331 O349 2.670 . S
Eu331 O350 2.394 . S
C332 C330 1.500 . S
C332 C333 1.377 . S
C332 C337 1.377 1_655 S
C333 C332 1.377 . S
C333 C334 1.395 . S
C333 H356 0.931 . S
C334 C333 1.395 . S
C334 C335 1.383 1_655 S
C334 H357 0.931 . S
C335 C334 1.383 1_455 S
C335 C336 1.394 . S
C336 C335 1.394 . S
C336 C337 1.378 . S
C336 H358 0.931 . S
C337 C332 1.377 1_455 S
C337 C336 1.378 . S
C337 H359 0.931 . S
C338 O348 1.259 . S
C338 O349 1.270 . S
C339 O350 1.251 . S
C339 O351 1.251 . S
O340 C320 1.257 . S
O340 Eu321 2.473 . S
O341 C320 1.260 . S
O341 Eu321 2.480 . S
O342 Eu321 2.430 1_455 S
O342 C328 1.259 . S
O343 Eu321 2.670 . S
O343 C328 1.270 1_655 S
O343 Eu331 2.355 . S
O344 Eu321 2.394 . S
O344 C329 1.251 . S
O345 C329 1.251 . S
O345 Eu331 2.374 . S
O346 C330 1.257 . S
O346 Eu331 2.473 . S
O347 C330 1.260 . S
O347 Eu331 2.480 . S
O348 Eu331 2.430 . S
O348 C338 1.259 . S
O349 Eu321 2.355 . S
O349 Eu331 2.670 . S
O349 C338 1.270 . S
O350 Eu331 2.394 . S
O350 C339 1.251 . S
O351 Eu321 2.374 . S
O351 C339 1.251 . S
H352 C323 0.931 . S
H353 C324 0.931 . S
H354 C326 0.931 . S
H355 C327 0.931 . S
H356 C333 0.931 . S
H357 C334 0.931 . S
H358 C336 0.931 . S
H359 C337 0.931 . S
C360 C361 1.349 . S
C360 C362 1.327 . S
C360 H385 0.950 . S
C361 C360 1.349 . S
C361 C377 1.349 . S
C362 C360 1.327 . S
C362 C381 1.429 . S
C362 H386 0.950 . S
C363 C380 1.574 . S
C363 C382 1.368 . S
C363 H387 0.949 . S
H364 C368 0.949 . S
C365 C366 1.349 . S
C365 C367 1.327 . S
C365 H388 0.950 . S
C366 C365 1.349 . S
C366 C378 1.349 . S
C367 C365 1.327 . S
C367 C383 1.429 . S
C367 H389 0.950 . S
C368 H364 0.949 . S
C368 C376 1.574 . S
C368 C384 1.368 . S
H369 C377 0.950 . S
H370 C375 0.950 . S
H371 C376 0.949 . S
H372 C378 0.950 . S
H373 C379 0.950 . S
H374 C380 0.949 . S
C375 H370 0.950 . S
C375 C377 1.327 . S
C375 C381 1.429 . S
C376 C368 1.574 . S
C376 H371 0.949 . S
C376 C382 1.368 . S
C377 C361 1.349 . S
C377 H369 0.950 . S
C377 C375 1.327 . S
C378 C366 1.349 . S
C378 H372 0.950 . S
C378 C379 1.327 . S
C379 H373 0.950 . S
C379 C378 1.327 . S
C379 C383 1.429 . S
C380 C363 1.574 . S
C380 H374 0.949 . S
C380 C384 1.368 . S
C381 C362 1.429 . S
C381 C375 1.429 . S
C381 C382 1.523 . S
C382 C363 1.368 . S
C382 C376 1.368 . S
C382 C381 1.523 . S
C383 C367 1.429 . S
C383 C379 1.429 . S
C383 C384 1.523 . S
C384 C368 1.368 . S
C384 C380 1.368 . S
C384 C383 1.523 . S
H385 C360 0.950 . S
H386 C362 0.950 . S
H387 C363 0.949 . S
H388 C365 0.950 . S
H389 C367 0.950 . S
C390 C391 1.349 . S
C390 C392 1.327 . S
C390 H415 0.950 . S
C391 C390 1.349 . S
C391 C407 1.349 . S
C392 C390 1.327 . S
C392 C411 1.429 . S
C392 H416 0.950 . S
C393 C410 1.574 . S
C393 C412 1.368 . S
C393 H417 0.949 . S
H394 C398 0.949 . S
C395 C396 1.349 . S
C395 C397 1.327 . S
C395 H418 0.950 . S
C396 C395 1.349 . S
C396 C408 1.349 . S
C397 C395 1.327 . S
C397 C413 1.429 . S
C397 H419 0.950 . S
C398 H394 0.949 . S
C398 C406 1.574 . S
C398 C414 1.368 . S
H399 C407 0.950 . S
H400 C405 0.950 . S
H401 C406 0.949 . S
H402 C408 0.950 . S
H403 C409 0.950 . S
H404 C410 0.949 . S
C405 H400 0.950 . S
C405 C407 1.327 . S
C405 C411 1.429 . S
C406 C398 1.574 . S
C406 H401 0.949 . S
C406 C412 1.368 . S
C407 C391 1.349 . S
C407 H399 0.950 . S
C407 C405 1.327 . S
C408 C396 1.349 . S
C408 H402 0.950 . S
C408 C409 1.327 . S
C409 H403 0.950 . S
C409 C408 1.327 . S
C409 C413 1.429 . S
C410 C393 1.574 . S
C410 H404 0.949 . S
C410 C414 1.368 . S
C411 C392 1.429 . S
C411 C405 1.429 . S
C411 C412 1.523 . S
C412 C393 1.368 . S
C412 C406 1.368 . S
C412 C411 1.523 . S
C413 C397 1.429 . S
C413 C409 1.429 . S
C413 C414 1.523 . S
C414 C398 1.368 . S
C414 C410 1.368 . S
C414 C413 1.523 . S
H415 C390 0.950 . S
H416 C392 0.950 . S
H417 C393 0.949 . S
H418 C395 0.950 . S
H419 C397 0.950 . S
C420 C421 1.349 . S
C420 C422 1.327 . S
C420 H445 0.950 . S
C421 C420 1.349 . S
C421 C437 1.349 . S
C422 C420 1.327 . S
C422 C441 1.429 . S
C422 H446 0.950 . S
C423 C440 1.574 . S
C423 C442 1.368 . S
C423 H447 0.949 1_545 S
H424 C428 0.949 . S
C425 C426 1.349 . S
C425 C427 1.327 . S
C425 H448 0.950 . S
C426 C425 1.349 . S
C426 C438 1.349 . S
C427 C425 1.327 . S
C427 C443 1.429 . S
C427 H449 0.949 . S
C428 H424 0.949 . S
C428 C436 1.574 . S
C428 C444 1.368 . S
H429 C437 0.950 1_565 S
H430 C435 0.950 1_565 S
H431 C436 0.949 . S
H432 C438 0.950 . S
H433 C439 0.950 . S
H434 C440 0.949 1_565 S
C435 H430 0.950 1_545 S
C435 C437 1.327 . S
C435 C441 1.429 . S
C436 C428 1.574 . S
C436 H431 0.949 . S
C436 C442 1.368 . S
C437 C421 1.349 . S
C437 H429 0.950 1_545 S
C437 C435 1.327 . S
C438 C426 1.349 . S
C438 H432 0.950 . S
C438 C439 1.327 . S
C439 H433 0.950 . S
C439 C438 1.327 . S
C439 C443 1.429 . S
C440 C423 1.574 . S
C440 H434 0.949 1_545 S
C440 C444 1.368 . S
C441 C422 1.429 . S
C441 C435 1.429 . S
C441 C442 1.523 . S
C442 C423 1.368 . S
C442 C436 1.368 . S
C442 C441 1.523 . S
C443 C427 1.429 . S
C443 C439 1.429 . S
C443 C444 1.523 . S
C444 C428 1.368 . S
C444 C440 1.368 . S
C444 C443 1.523 . S
H445 C420 0.950 . S
H446 C422 0.950 . S
H447 C423 0.949 1_565 S
H448 C425 0.950 . S
H449 C427 0.949 . S
C450 C451 1.349 . S
C450 C452 1.327 . S
C450 H475 0.950 . S
C451 C450 1.349 . S
C451 C467 1.349 . S
C452 C450 1.327 . S
C452 C471 1.429 . S
C452 H476 0.950 . S
C453 C470 1.574 . S
C453 C472 1.368 . S
C453 H477 0.949 . S
H454 C458 0.949 . S
C455 C456 1.349 . S
C455 C457 1.327 1_554 S
C455 H478 0.950 . S
C456 C455 1.349 . S
C456 C468 1.349 . S
C457 C455 1.327 1_556 S
C457 C473 1.429 . S
C457 H479 0.950 . S
C458 H454 0.949 . S
C458 C466 1.574 . S
C458 C474 1.368 . S
H459 C467 0.950 . S
H460 C465 0.950 . S
H461 C466 0.949 . S
H462 C468 0.950 . S
H463 C469 0.950 . S
H464 C470 0.949 . S
C465 H460 0.950 . S
C465 C467 1.327 . S
C465 C471 1.429 . S
C466 C458 1.574 . S
C466 H461 0.949 . S
C466 C472 1.368 . S
C467 C451 1.349 . S
C467 H459 0.950 . S
C467 C465 1.327 . S
C468 C456 1.349 . S
C468 H462 0.950 . S
C468 C469 1.327 1_554 S
C469 H463 0.950 . S
C469 C468 1.327 1_556 S
C469 C473 1.429 . S
C470 C453 1.574 . S
C470 H464 0.949 . S
C470 C474 1.368 . S
C471 C452 1.429 . S
C471 C465 1.429 . S
C471 C472 1.523 . S
C472 C453 1.368 . S
C472 C466 1.368 . S
C472 C471 1.523 . S
C473 C457 1.429 . S
C473 C469 1.429 . S
C473 C474 1.523 . S
C474 C458 1.368 . S
C474 C470 1.368 . S
C474 C473 1.523 . S
H475 C450 0.950 . S
H476 C452 0.950 . S
H477 C453 0.949 . S
H478 C455 0.950 . S
H479 C457 0.950 . S
C480 C481 1.349 . S
C480 C482 1.327 . S
C480 H505 0.950 . S
C481 C480 1.349 . S
C481 C497 1.349 . S
C482 C480 1.327 . S
C482 C501 1.429 . S
C482 H506 0.950 . S
C483 C500 1.574 . S
C483 C502 1.368 . S
C483 H507 0.949 . S
H484 C488 0.949 . S
C485 C486 1.349 . S
C485 C487 1.327 1_554 S
C485 H508 0.950 . S
C486 C485 1.349 . S
C486 C498 1.349 . S
C487 C485 1.327 1_556 S
C487 C503 1.429 . S
C487 H509 0.950 . S
C488 H484 0.949 . S
C488 C496 1.574 . S
C488 C504 1.368 . S
H489 C497 0.950 . S
H490 C495 0.950 . S
H491 C496 0.949 . S
H492 C498 0.950 . S
H493 C499 0.950 . S
H494 C500 0.949 . S
C495 H490 0.950 . S
C495 C497 1.327 . S
C495 C501 1.429 . S
C496 C488 1.574 . S
C496 H491 0.949 . S
C496 C502 1.368 . S
C497 C481 1.349 . S
C497 H489 0.950 . S
C497 C495 1.327 . S
C498 C486 1.349 . S
C498 H492 0.950 . S
C498 C499 1.327 1_554 S
C499 H493 0.950 . S
C499 C498 1.327 1_556 S
C499 C503 1.429 . S
C500 C483 1.574 . S
C500 H494 0.949 . S
C500 C504 1.368 . S
C501 C482 1.429 . S
C501 C495 1.429 . S
C501 C502 1.523 . S
C502 C483 1.368 . S
C502 C496 1.368 . S
C502 C501 1.523 . S
C503 C487 1.429 . S
C503 C499 1.429 . S
C503 C504 1.523 . S
C504 C488 1.368 . S
C504 C500 1.368 . S
C504 C503 1.523 . S
H505 C480 0.950 . S
H506 C482 0.950 . S
H507 C483 0.949 . S
H508 C485 0.950 . S
H509 C487 0.950 . S
C510 C511 1.349 . S
C510 C512 1.327 . S
C510 H535 0.950 . S
C511 C510 1.349 . S
C511 C527 1.349 . S
C512 C510 1.327 . S
C512 C531 1.429 . S
C512 H536 0.950 . S
C513 C530 1.574 . S
C513 C532 1.368 . S
C513 H537 0.949 . S
H514 C518 0.949 . S
C515 C516 1.349 . S
C515 C517 1.327 1_554 S
C515 H538 0.950 . S
C516 C515 1.349 . S
C516 C528 1.349 . S
C517 C515 1.327 1_556 S
C517 C533 1.429 . S
C517 H539 0.950 . S
C518 H514 0.949 . S
C518 C526 1.574 . S
C518 C534 1.368 . S
H519 C527 0.950 . S
H520 C525 0.950 . S
H521 C526 0.949 . S
H522 C528 0.950 . S
H523 C529 0.950 . S
H524 C530 0.949 . S
C525 H520 0.950 . S
C525 C527 1.327 . S
C525 C531 1.429 . S
C526 C518 1.574 . S
C526 H521 0.949 . S
C526 C532 1.368 . S
C527 C511 1.349 . S
C527 H519 0.950 . S
C527 C525 1.327 . S
C528 C516 1.349 . S
C528 H522 0.950 . S
C528 C529 1.327 1_554 S
C529 H523 0.950 . S
C529 C528 1.327 1_556 S
C529 C533 1.429 . S
C530 C513 1.574 . S
C530 H524 0.949 . S
C530 C534 1.368 . S
C531 C512 1.429 . S
C531 C525 1.429 . S
C531 C532 1.523 . S
C532 C513 1.368 . S
C532 C526 1.368 . S
C532 C531 1.523 . S
C533 C517 1.429 . S
C533 C529 1.429 . S
C533 C534 1.523 . S
C534 C518 1.368 . S
C534 C530 1.368 . S
C534 C533 1.523 . S
H535 C510 0.950 . S
H536 C512 0.950 . S
H537 C513 0.949 . S
H538 C515 0.950 . S
H539 C517 0.950 . S
C540 C541 1.349 . S
C540 C542 1.327 . S
C540 H565 0.950 . S
C541 C540 1.349 . S
C541 C557 1.349 . S
C542 C540 1.327 . S
C542 C561 1.429 . S
C542 H566 0.950 . S
C543 C560 1.574 . S
C543 C562 1.368 . S
C543 H567 0.949 . S
H544 C548 0.949 . S
C545 C546 1.349 . S
C545 C547 1.327 . S
C545 H568 0.950 . S
C546 C545 1.349 . S
C546 C558 1.349 . S
C547 C545 1.327 . S
C547 C563 1.429 1_556 S
C547 H569 0.950 1_556 S
C548 H544 0.949 . S
C548 C556 1.574 . S
C548 C564 1.368 . S
H549 C557 0.950 . S
H550 C555 0.950 . S
H551 C556 0.949 . S
H552 C558 0.950 . S
H553 C559 0.950 1_554 S
H554 C560 0.949 . S
C555 H550 0.950 . S
C555 C557 1.327 . S
C555 C561 1.429 . S
C556 C548 1.574 . S
C556 H551 0.949 . S
C556 C562 1.368 . S
C557 C541 1.349 . S
C557 H549 0.950 . S
C557 C555 1.327 . S
C558 C546 1.349 . S
C558 H552 0.950 . S
C558 C559 1.327 . S
C559 H553 0.950 1_556 S
C559 C558 1.327 . S
C559 C563 1.429 1_556 S
C560 C543 1.574 . S
C560 H554 0.949 . S
C560 C564 1.368 . S
C561 C542 1.429 . S
C561 C555 1.429 . S
C561 C562 1.523 . S
C562 C543 1.368 . S
C562 C556 1.368 . S
C562 C561 1.523 . S
C563 C547 1.429 1_554 S
C563 C559 1.429 1_554 S
C563 C564 1.523 . S
C564 C548 1.368 . S
C564 C560 1.368 . S
C564 C563 1.523 . S
H565 C540 0.950 . S
H566 C542 0.950 . S
H567 C543 0.949 . S
H568 C545 0.950 . S
H569 C547 0.950 1_554 S
C570 C571 1.349 . S
C570 C572 1.327 . S
C570 H595 0.950 . S
C571 C570 1.349 . S
C571 C587 1.349 . S
C572 C570 1.327 . S
C572 C591 1.429 . S
C572 H596 0.950 . S
C573 C590 1.574 . S
C573 C592 1.368 . S
C573 H597 0.949 1_655 S
H574 C578 0.949 . S
C575 C576 1.349 . S
C575 C577 1.327 . S
C575 H598 0.950 . S
C576 C575 1.349 . S
C576 C588 1.349 . S
C577 C575 1.327 . S
C577 C593 1.429 1_556 S
C577 H599 0.950 1_556 S
C578 H574 0.949 . S
C578 C586 1.574 . S
C578 C594 1.368 . S
H579 C587 0.950 1_455 S
H580 C585 0.950 1_455 S
H581 C586 0.949 . S
H582 C588 0.950 . S
H583 C589 0.950 . S
H584 C590 0.949 . S
C585 H580 0.950 1_655 S
C585 C587 1.327 . S
C585 C591 1.429 . S
C586 C578 1.574 . S
C586 H581 0.949 . S
C586 C592 1.368 . S
C587 C571 1.349 . S
C587 H579 0.950 1_655 S
C587 C585 1.327 . S
C588 C576 1.349 . S
C588 H582 0.950 . S
C588 C589 1.327 1_556 S
C589 H583 0.950 . S
C589 C588 1.327 1_554 S
C589 C593 1.429 . S
C590 C573 1.574 . S
C590 H584 0.949 . S
C590 C594 1.368 . S
C591 C572 1.429 . S
C591 C585 1.429 . S
C591 C592 1.523 . S
C592 C573 1.368 . S
C592 C586 1.368 . S
C592 C591 1.523 . S
C593 C577 1.429 1_554 S
C593 C589 1.429 . S
C593 C594 1.523 . S
C594 C578 1.368 . S
C594 C590 1.368 . S
C594 C593 1.523 . S
H595 C570 0.950 . S
H596 C572 0.950 . S
H597 C573 0.949 1_455 S
H598 C575 0.950 . S
H599 C577 0.950 1_554 S
C600 C601 1.349 . S
C600 C602 1.327 . S
C600 H625 0.950 . S
C601 C600 1.349 . S
C601 C617 1.349 . S
C602 C600 1.327 . S
C602 C621 1.429 . S
C602 H626 0.950 . S
C603 C620 1.574 . S
C603 C622 1.368 . S
C603 H627 0.970 . S
H604 C608 0.949 . S
C605 C606 1.360 . S
C605 C607 1.331 1_556 S
C605 H628 0.935 1_655 S
C606 C605 1.360 . S
C606 C618 1.349 . S
C607 C605 1.331 1_554 S
C607 C623 1.429 . S
C607 H629 0.950 1_655 S
C608 H604 0.949 . S
C608 C616 1.574 . S
C608 C624 1.368 . S
H609 C617 0.950 . S
H610 C615 0.950 . S
H611 C616 0.949 . S
H612 C618 0.950 . S
H613 C619 0.950 1_554 S
H614 C620 0.949 1_455 S
C615 H610 0.950 . S
C615 C617 1.327 . S
C615 C621 1.429 . S
C616 C608 1.574 . S
C616 H611 0.949 . S
C616 C622 1.368 . S
C617 C601 1.349 . S
C617 H609 0.950 . S
C617 C615 1.327 . S
C618 C606 1.349 . S
C618 H612 0.950 . S
C618 C619 1.327 . S
C619 H613 0.950 1_556 S
C619 C618 1.327 . S
C619 C623 1.429 1_556 S
C620 C603 1.574 . S
C620 H614 0.949 1_655 S
C620 C624 1.368 . S
C621 C602 1.429 . S
C621 C615 1.429 . S
C621 C622 1.523 . S
C622 C603 1.368 . S
C622 C616 1.368 . S
C622 C621 1.523 . S
C623 C607 1.429 . S
C623 C619 1.429 1_554 S
C623 C624 1.523 . S
C624 C608 1.368 . S
C624 C620 1.368 . S
C624 C623 1.523 . S
H625 C600 0.950 . S
H626 C602 0.950 . S
H627 C603 0.970 . S
H628 C605 0.935 1_455 S
H629 C607 0.950 1_455 S
C630 C631 1.349 . S
C630 C632 1.327 . S
C630 H655 0.950 . S
C631 C630 1.349 . S
C631 C647 1.349 . S
C632 C630 1.327 . S
C632 C651 1.429 . S
C632 H656 0.950 . S
C633 C650 1.574 . S
C633 C652 1.368 . S
C633 H657 0.949 . S
H634 C638 0.949 . S
C635 C636 1.349 . S
C635 C637 1.327 . S
C635 H658 0.950 . S
C636 C635 1.349 . S
C636 C648 1.349 . S
C637 C635 1.327 . S
C637 C653 1.429 . S
C637 H659 0.950 . S
C638 H634 0.949 . S
C638 C646 1.574 . S
C638 C654 1.368 . S
H639 C647 0.950 . S
H640 C645 0.950 . S
H641 C646 0.949 . S
H642 C648 0.950 . S
H643 C649 0.950 . S
H644 C650 0.949 . S
C645 H640 0.950 . S
C645 C647 1.327 . S
C645 C651 1.429 . S
C646 C638 1.574 . S
C646 H641 0.949 . S
C646 C652 1.368 . S
C647 C631 1.349 . S
C647 H639 0.950 . S
C647 C645 1.327 . S
C648 C636 1.349 . S
C648 H642 0.950 . S
C648 C649 1.327 . S
C649 H643 0.950 . S
C649 C648 1.327 . S
C649 C653 1.429 . S
C650 C633 1.574 . S
C650 H644 0.949 . S
C650 C654 1.368 . S
C651 C632 1.429 . S
C651 C645 1.429 . S
C651 C652 1.523 . S
C652 C633 1.368 . S
C652 C646 1.368 . S
C652 C651 1.523 . S
C653 C637 1.429 . S
C653 C649 1.429 . S
C653 C654 1.523 . S
C654 C638 1.368 . S
C654 C650 1.368 . S
C654 C653 1.523 . S
H655 C630 0.950 . S
H656 C632 0.950 . S
H657 C633 0.949 . S
H658 C635 0.950 . S
H659 C637 0.950 . S
C660 C661 1.349 . S
C660 C662 1.327 . S
C660 H685 0.950 . S
C661 C660 1.349 . S
C661 C677 1.349 . S
C662 C660 1.327 . S
C662 C681 1.429 . S
C662 H686 0.950 . S
C663 C680 1.574 . S
C663 C682 1.368 . S
C663 H687 0.949 . S
H664 C668 0.949 . S
C665 C666 1.349 . S
C665 C667 1.327 . S
C665 H688 0.950 . S
C666 C665 1.349 . S
C666 C678 1.349 . S
C667 C665 1.327 . S
C667 C683 1.429 . S
C667 H689 0.950 . S
C668 H664 0.949 . S
C668 C676 1.574 . S
C668 C684 1.368 . S
H669 C677 0.950 . S
H670 C675 0.950 . S
H671 C676 0.949 . S
H672 C678 0.950 . S
H673 C679 0.950 . S
H674 C680 0.949 . S
C675 H670 0.950 . S
C675 C677 1.327 . S
C675 C681 1.429 . S
C676 C668 1.574 . S
C676 H671 0.949 . S
C676 C682 1.368 . S
C677 C661 1.349 . S
C677 H669 0.950 . S
C677 C675 1.327 . S
C678 C666 1.349 . S
C678 H672 0.950 . S
C678 C679 1.327 . S
C679 H673 0.950 . S
C679 C678 1.327 . S
C679 C683 1.429 . S
C680 C663 1.574 . S
C680 H674 0.949 . S
C680 C684 1.368 . S
C681 C662 1.429 . S
C681 C675 1.429 . S
C681 C682 1.523 . S
C682 C663 1.368 . S
C682 C676 1.368 . S
C682 C681 1.523 . S
C683 C667 1.429 . S
C683 C679 1.429 . S
C683 C684 1.523 . S
C684 C668 1.368 . S
C684 C680 1.368 . S
C684 C683 1.523 . S
H685 C660 0.950 . S
H686 C662 0.950 . S
H687 C663 0.949 . S
H688 C665 0.950 . S
H689 C667 0.950 . S
C690 C691 1.349 . S
C690 C692 1.327 . S
C690 H715 0.950 . S
C691 C690 1.349 . S
C691 C707 1.349 . S
C692 C690 1.327 . S
C692 C711 1.429 . S
C692 H716 0.950 . S
C693 C710 1.574 . S
C693 C712 1.368 . S
C693 H717 0.949 . S
H694 C698 0.949 . S
C695 C696 1.349 . S
C695 C697 1.327 . S
C695 H718 0.950 . S
C696 C695 1.349 . S
C696 C708 1.349 . S
C697 C695 1.327 . S
C697 C713 1.429 . S
C697 H719 0.950 . S
C698 H694 0.949 . S
C698 C706 1.574 . S
C698 C714 1.368 . S
H699 C707 0.950 . S
H700 C705 0.950 . S
H701 C706 0.949 . S
H702 C708 0.950 . S
H703 C709 0.950 . S
H704 C710 0.949 . S
C705 H700 0.950 . S
C705 C707 1.327 . S
C705 C711 1.429 . S
C706 C698 1.574 . S
C706 H701 0.949 . S
C706 C712 1.368 . S
C707 C691 1.349 . S
C707 H699 0.950 . S
C707 C705 1.327 . S
C708 C696 1.349 . S
C708 H702 0.950 . S
C708 C709 1.327 . S
C709 H703 0.950 . S
C709 C708 1.327 . S
C709 C713 1.429 . S
C710 C693 1.574 . S
C710 H704 0.949 . S
C710 C714 1.368 . S
C711 C692 1.429 . S
C711 C705 1.429 . S
C711 C712 1.523 . S
C712 C693 1.368 . S
C712 C706 1.368 . S
C712 C711 1.523 . S
C713 C697 1.429 . S
C713 C709 1.429 . S
C713 C714 1.523 . S
C714 C698 1.368 . S
C714 C710 1.368 . S
C714 C713 1.523 . S
H715 C690 0.950 . S
H716 C692 0.950 . S
H717 C693 0.949 . S
H718 C695 0.950 . S
H719 C697 0.950 . S
C720 C721 1.349 1_556 S
C720 C722 1.327 . S
C720 H745 0.950 . S
C721 C720 1.349 1_554 S
C721 C737 1.349 . S
C722 C720 1.327 . S
C722 C741 1.429 . S
C722 H746 0.950 . S
C723 C740 1.574 . S
C723 C742 1.368 . S
C723 H747 0.949 1_556 S
H724 C728 0.949 . S
C725 C726 1.349 . S
C725 C727 1.327 . S
C725 H748 0.950 . S
C726 C725 1.349 . S
C726 C738 1.349 . S
C727 C725 1.327 . S
C727 C743 1.429 . S
C727 H749 0.950 . S
C728 H724 0.949 . S
C728 C736 1.574 . S
C728 C744 1.368 . S
H729 C737 0.950 . S
H730 C735 0.950 . S
H731 C736 0.949 . S
H732 C738 0.950 . S
H733 C739 0.950 . S
H734 C740 0.949 . S
C735 H730 0.950 . S
C735 C737 1.327 . S
C735 C741 1.429 1_554 S
C736 C728 1.574 . S
C736 H731 0.949 . S
C736 C742 1.368 . S
C737 C721 1.349 . S
C737 H729 0.950 . S
C737 C735 1.327 . S
C738 C726 1.349 . S
C738 H732 0.950 . S
C738 C739 1.327 . S
C739 H733 0.950 . S
C739 C738 1.327 . S
C739 C743 1.429 . S
C740 C723 1.574 . S
C740 H734 0.949 . S
C740 C744 1.368 . S
C741 C722 1.429 . S
C741 C735 1.429 1_556 S
C741 C742 1.523 . S
C742 C723 1.368 . S
C742 C736 1.368 . S
C742 C741 1.523 . S
C743 C727 1.429 . S
C743 C739 1.429 . S
C743 C744 1.523 . S
C744 C728 1.368 . S
C744 C740 1.368 . S
C744 C743 1.523 . S
H745 C720 0.950 . S
H746 C722 0.950 . S
H747 C723 0.949 1_554 S
H748 C725 0.950 . S
H749 C727 0.950 . S
C750 C751 1.349 . S
C750 C752 1.327 . S
C750 H775 0.950 . S
C751 C750 1.349 . S
C751 C767 1.323 1_455 S
C752 C750 1.327 . S
C752 C771 1.429 . S
C752 H776 0.950 . S
C753 C770 1.574 . S
C753 C772 1.368 . S
C753 H777 0.949 . S
H754 C758 0.949 . S
C755 C756 1.349 . S
C755 C757 1.327 . S
C755 H778 0.950 . S
C756 C755 1.349 . S
C756 C768 1.349 . S
C757 C755 1.327 . S
C757 C773 1.429 1_554 S
C757 H779 0.950 . S
C758 H754 0.949 . S
C758 C766 1.574 . S
C758 C774 1.368 . S
H759 C767 0.981 . S
H760 C765 0.950 . S
H761 C766 0.949 . S
H762 C768 0.950 . S
H763 C769 0.950 . S
H764 C770 0.949 1_554 S
C765 H760 0.950 . S
C765 C767 1.324 1_455 S
C765 C771 1.429 . S
C766 C758 1.574 . S
C766 H761 0.949 . S
C766 C772 1.368 . S
C767 C751 1.323 1_655 S
C767 H759 0.981 . S
C767 C765 1.324 1_655 S
C768 C756 1.349 . S
C768 H762 0.950 . S
C768 C769 1.327 1_554 S
C769 H763 0.950 . S
C769 C768 1.327 1_556 S
C769 C773 1.429 . S
C770 C753 1.574 . S
C770 H764 0.949 1_556 S
C770 C774 1.368 . S
C771 C752 1.429 . S
C771 C765 1.429 . S
C771 C772 1.523 . S
C772 C753 1.368 . S
C772 C766 1.368 . S
C772 C771 1.523 . S
C773 C757 1.429 1_556 S
C773 C769 1.429 . S
C773 C774 1.523 . S
C774 C758 1.368 . S
C774 C770 1.368 . S
C774 C773 1.523 . S
H775 C750 0.950 . S
H776 C752 0.950 . S
H777 C753 0.949 . S
H778 C755 0.950 . S
H779 C757 0.950 . S
C780 C781 1.349 . S
C780 C782 1.327 . S
C780 H805 0.950 . S
C781 C780 1.349 . S
C781 C797 1.349 . S
C782 C780 1.327 . S
C782 C801 1.429 . S
C782 H806 0.950 . S
C783 C800 1.574 . S
C783 C802 1.368 . S
C783 H807 0.949 . S
H784 C788 0.949 . S
C785 C786 1.349 . S
C785 C787 1.327 1_554 S
C785 H808 0.950 . S
C786 C785 1.349 . S
C786 C798 1.349 . S
C787 C785 1.327 1_556 S
C787 C803 1.429 . S
C787 H809 0.950 . S
C788 H784 0.949 . S
C788 C796 1.574 . S
C788 C804 1.368 . S
H789 C797 0.950 . S
H790 C795 0.950 . S
H791 C796 0.949 . S
H792 C798 0.950 . S
H793 C799 0.950 . S
H794 C800 0.949 . S
C795 H790 0.950 . S
C795 C797 1.327 . S
C795 C801 1.429 . S
C796 C788 1.574 . S
C796 H791 0.949 . S
C796 C802 1.368 . S
C797 C781 1.349 . S
C797 H789 0.950 . S
C797 C795 1.327 . S
C798 C786 1.349 . S
C798 H792 0.950 . S
C798 C799 1.327 . S
C799 H793 0.950 . S
C799 C798 1.327 . S
C799 C803 1.429 1_554 S
C800 C783 1.574 . S
C800 H794 0.949 . S
C800 C804 1.368 . S
C801 C782 1.429 . S
C801 C795 1.429 . S
C801 C802 1.523 . S
C802 C783 1.368 . S
C802 C796 1.368 . S
C802 C801 1.523 . S
C803 C787 1.429 . S
C803 C799 1.429 1_556 S
C803 C804 1.523 . S
C804 C788 1.368 . S
C804 C800 1.368 . S
C804 C803 1.523 . S
H805 C780 0.950 . S
H806 C782 0.950 . S
H807 C783 0.949 . S
H808 C785 0.950 . S
H809 C787 0.950 . S
C810 C811 1.349 . S
C810 C812 1.327 . S
C810 H835 0.954 . S
C811 C810 1.349 . S
C811 C827 1.349 . S
C812 C810 1.327 . S
C812 C831 1.429 . S
C812 H836 0.950 1_556 S
C813 C830 1.574 . S
C813 C832 1.368 . S
C813 H837 0.949 . S
H814 C818 0.949 . S
C815 C816 1.349 1_556 S
C815 C817 1.327 . S
C815 H838 0.950 . S
C816 C815 1.349 1_554 S
C816 C828 1.349 . S
C817 C815 1.327 . S
C817 C833 1.429 1_556 S
C817 H839 0.950 . S
C818 H814 0.949 . S
C818 C826 1.574 . S
C818 C834 1.368 1_554 S
H819 C827 0.950 . S
H820 C825 0.950 . S
H821 C826 0.949 . S
H822 C828 0.950 . S
H823 C829 0.950 . S
H824 C830 0.949 . S
C825 H820 0.950 . S
C825 C827 1.327 . S
C825 C831 1.429 . S
C826 C818 1.574 . S
C826 H821 0.949 . S
C826 C832 1.368 1_554 S
C827 C811 1.349 . S
C827 H819 0.950 . S
C827 C825 1.327 . S
C828 C816 1.349 . S
C828 H822 0.950 . S
C828 C829 1.327 . S
C829 H823 0.950 . S
C829 C828 1.327 . S
C829 C833 1.429 . S
C830 C813 1.574 . S
C830 H824 0.949 . S
C830 C834 1.368 . S
C831 C812 1.429 . S
C831 C825 1.429 . S
C831 C832 1.523 . S
C832 C813 1.368 . S
C832 C826 1.368 1_556 S
C832 C831 1.523 . S
C833 C817 1.429 1_554 S
C833 C829 1.429 . S
C833 C834 1.523 1_554 S
C834 C818 1.368 1_556 S
C834 C830 1.368 . S
C834 C833 1.523 1_556 S
H835 C810 0.954 . S
H836 C812 0.950 1_554 S
H837 C813 0.949 . S
H838 C815 0.950 . S
H839 C817 0.950 . S
C840 C841 1.349 . S
C840 C842 1.327 . S
C840 H865 0.950 . S
C841 C840 1.349 . S
C841 C857 1.349 1_554 S
C842 C840 1.327 . S
C842 C861 1.429 . S
C842 H866 0.950 . S
C843 C860 1.574 . S
C843 C862 1.368 . S
C843 H867 0.949 . S
H844 C848 0.949 . S
C845 C846 1.349 . S
C845 C847 1.327 . S
C845 H868 0.950 . S
C846 C845 1.349 . S
C846 C858 1.349 . S
C847 C845 1.327 . S
C847 C863 1.429 . S
C847 H869 0.950 . S
C848 H844 0.949 . S
C848 C856 1.574 . S
C848 C864 1.368 1_554 S
H849 C857 0.950 . S
H850 C855 0.950 . S
H851 C856 0.949 . S
H852 C858 0.950 . S
H853 C859 0.950 1_554 S
H854 C860 0.949 . S
C855 H850 0.950 . S
C855 C857 1.327 . S
C855 C861 1.429 1_556 S
C856 C848 1.574 . S
C856 H851 0.949 . S
C856 C862 1.368 1_554 S
C857 C841 1.349 1_556 S
C857 H849 0.950 . S
C857 C855 1.327 . S
C858 C846 1.349 . S
C858 H852 0.950 . S
C858 C859 1.327 . S
C859 H853 0.950 1_556 S
C859 C858 1.327 . S
C859 C863 1.429 . S
C860 C843 1.574 . S
C860 H854 0.949 . S
C860 C864 1.368 . S
C861 C842 1.429 . S
C861 C855 1.429 1_554 S
C861 C862 1.523 1_554 S
C862 C843 1.368 . S
C862 C856 1.368 1_556 S
C862 C861 1.523 1_556 S
C863 C847 1.429 . S
C863 C859 1.429 . S
C863 C864 1.523 . S
C864 C848 1.368 1_556 S
C864 C860 1.368 . S
C864 C863 1.523 . S
H865 C840 0.950 . S
H866 C842 0.950 . S
H867 C843 0.949 . S
H868 C845 0.950 . S
H869 C847 0.950 . S
C870 C871 1.349 . S
C870 C872 1.327 . S
C870 H895 0.950 . S
C871 C870 1.349 . S
C871 C887 1.349 . S
C872 C870 1.327 . S
C872 C891 1.429 . S
C872 H896 0.950 . S
C873 C890 1.574 1_556 S
C873 C892 1.368 . S
C873 H897 0.949 . S
H874 C878 0.949 . S
C875 C876 1.349 . S
C875 C877 1.327 . S
C875 H898 0.950 . S
C876 C875 1.349 . S
C876 C888 1.349 . S
C877 C875 1.327 . S
C877 C893 1.429 . S
C877 H899 0.950 . S
C878 H874 0.949 . S
C878 C886 1.574 . S
C878 C894 1.368 . S
H879 C887 0.950 . S
H880 C885 0.950 . S
H881 C886 0.949 . S
H882 C888 0.950 . S
H883 C889 0.950 1_556 S
H884 C890 0.949 . S
C885 H880 0.950 . S
C885 C887 1.327 . S
C885 C891 1.429 . S
C886 C878 1.574 . S
C886 H881 0.949 . S
C886 C892 1.368 . S
C887 C871 1.349 . S
C887 H879 0.950 . S
C887 C885 1.327 . S
C888 C876 1.349 . S
C888 H882 0.950 . S
C888 C889 1.327 . S
C889 H883 0.950 1_554 S
C889 C888 1.327 . S
C889 C893 1.429 . S
C890 C873 1.574 1_554 S
C890 H884 0.949 . S
C890 C894 1.368 1_554 S
C891 C872 1.429 . S
C891 C885 1.429 . S
C891 C892 1.523 . S
C892 C873 1.368 . S
C892 C886 1.368 . S
C892 C891 1.523 . S
C893 C877 1.429 . S
C893 C889 1.429 . S
C893 C894 1.523 1_554 S
C894 C878 1.368 . S
C894 C890 1.368 1_556 S
C894 C893 1.523 1_556 S
H895 C870 0.950 . S
H896 C872 0.950 . S
H897 C873 0.949 . S
H898 C875 0.950 . S
H899 C877 0.950 . S
C900 C901 1.349 . S
C900 C902 1.327 . S
C900 H925 0.950 . S
C901 C900 1.349 . S
C901 C917 1.349 . S
C902 C900 1.327 . S
C902 C921 1.429 . S
C902 H926 0.950 . S
C903 C920 1.574 . S
C903 C922 1.368 . S
C903 H927 0.949 . S
H904 C908 0.949 . S
C905 C906 1.349 . S
C905 C907 1.327 . S
C905 H928 0.950 . S
C906 C905 1.349 . S
C906 C918 1.349 . S
C907 C905 1.327 . S
C907 C923 1.429 . S
C907 H929 0.950 . S
C908 H904 0.949 . S
C908 C916 1.574 . S
C908 C924 1.368 . S
H909 C917 0.950 . S
H910 C915 0.950 . S
H911 C916 0.949 . S
H912 C918 0.950 . S
H913 C919 0.950 . S
H914 C920 0.949 . S
C915 H910 0.950 . S
C915 C917 1.327 . S
C915 C921 1.429 . S
C916 C908 1.574 . S
C916 H911 0.949 . S
C916 C922 1.368 . S
C917 C901 1.349 . S
C917 H909 0.950 . S
C917 C915 1.327 . S
C918 C906 1.349 . S
C918 H912 0.950 . S
C918 C919 1.327 . S
C919 H913 0.950 . S
C919 C918 1.327 . S
C919 C923 1.429 . S
C920 C903 1.574 . S
C920 H914 0.949 . S
C920 C924 1.368 . S
C921 C902 1.429 . S
C921 C915 1.429 . S
C921 C922 1.523 . S
C922 C903 1.368 . S
C922 C916 1.368 . S
C922 C921 1.523 . S
C923 C907 1.429 . S
C923 C919 1.429 . S
C923 C924 1.523 . S
C924 C908 1.368 . S
C924 C920 1.368 . S
C924 C923 1.523 . S
H925 C900 0.950 . S
H926 C902 0.950 . S
H927 C903 0.949 . S
H928 C905 0.950 . S
H929 C907 0.950 . S
C930 C931 1.349 . S
C930 C932 1.327 . S
C930 H955 0.950 . S
C931 C930 1.349 . S
C931 C947 1.349 . S
C932 C930 1.327 . S
C932 C951 1.429 . S
C932 H956 0.950 . S
C933 C950 1.574 . S
C933 C952 1.368 . S
C933 H957 0.949 . S
H934 C938 0.949 . S
C935 C936 1.349 . S
C935 C937 1.327 . S
C935 H958 0.950 . S
C936 C935 1.349 . S
C936 C948 1.349 . S
C937 C935 1.327 . S
C937 C953 1.429 . S
C937 H959 0.950 . S
C938 H934 0.949 . S
C938 C946 1.574 . S
C938 C954 1.368 . S
H939 C947 0.950 . S
H940 C945 0.950 . S
H941 C946 0.949 . S
H942 C948 0.950 . S
H943 C949 0.950 . S
H944 C950 0.949 . S
C945 H940 0.950 . S
C945 C947 1.327 . S
C945 C951 1.429 . S
C946 C938 1.574 . S
C946 H941 0.949 . S
C946 C952 1.368 . S
C947 C931 1.349 . S
C947 H939 0.950 . S
C947 C945 1.327 . S
C948 C936 1.349 . S
C948 H942 0.950 . S
C948 C949 1.327 . S
C949 H943 0.950 . S
C949 C948 1.327 . S
C949 C953 1.429 . S
C950 C933 1.574 . S
C950 H944 0.949 . S
C950 C954 1.368 . S
C951 C932 1.429 . S
C951 C945 1.429 . S
C951 C952 1.523 . S
C952 C933 1.368 . S
C952 C946 1.368 . S
C952 C951 1.523 . S
C953 C937 1.429 . S
C953 C949 1.429 . S
C953 C954 1.523 . S
C954 C938 1.368 . S
C954 C950 1.368 . S
C954 C953 1.523 . S
H955 C930 0.950 . S
H956 C932 0.950 . S
H957 C933 0.949 . S
H958 C935 0.950 . S
H959 C937 0.950 . S
C960 C961 1.349 . S
C960 C962 1.327 . S
C960 H985 0.950 . S
C961 C960 1.349 . S
C961 C977 1.349 . S
C962 C960 1.327 . S
C962 C981 1.429 . S
C962 H986 0.950 . S
C963 C980 1.574 . S
C963 C982 1.368 . S
C963 H987 0.949 . S
H964 C968 0.949 . S
C965 C966 1.349 . S
C965 C967 1.327 . S
C965 H988 0.950 . S
C966 C965 1.349 . S
C966 C978 1.349 . S
C967 C965 1.327 . S
C967 C983 1.429 . S
C967 H989 0.950 . S
C968 H964 0.949 . S
C968 C976 1.574 . S
C968 C984 1.368 . S
H969 C977 0.950 . S
H970 C975 0.950 . S
H971 C976 0.949 . S
H972 C978 0.950 . S
H973 C979 0.950 . S
H974 C980 0.949 . S
C975 H970 0.950 . S
C975 C977 1.327 . S
C975 C981 1.429 . S
C976 C968 1.574 . S
C976 H971 0.949 . S
C976 C982 1.368 . S
C977 C961 1.349 . S
C977 H969 0.950 . S
C977 C975 1.327 . S
C978 C966 1.349 . S
C978 H972 0.950 . S
C978 C979 1.327 . S
C979 H973 0.950 . S
C979 C978 1.327 . S
C979 C983 1.429 . S
C980 C963 1.574 . S
C980 H974 0.949 . S
C980 C984 1.368 . S
C981 C962 1.429 . S
C981 C975 1.429 . S
C981 C982 1.523 . S
C982 C963 1.368 . S
C982 C976 1.368 . S
C982 C981 1.523 . S
C983 C967 1.429 . S
C983 C979 1.429 . S
C983 C984 1.523 . S
C984 C968 1.368 . S
C984 C980 1.368 . S
C984 C983 1.523 . S
H985 C960 0.950 . S
H986 C962 0.950 . S
H987 C963 0.949 . S
H988 C965 0.950 . S
H989 C967 0.950 . S
C990 C991 1.349 . S
C990 C992 1.327 . S
C990 H1015 0.950 . S
C991 C990 1.349 . S
C991 C1007 1.349 . S
C992 C990 1.327 . S
C992 C1011 1.429 . S
C992 H1016 0.950 . S
C993 C1010 1.574 . S
C993 C1012 1.368 . S
C993 H1017 0.949 . S
H994 C998 0.949 . S
C995 C996 1.349 . S
C995 C997 1.327 . S
C995 H1018 0.950 . S
C996 C995 1.349 . S
C996 C1008 1.349 . S
C997 C995 1.327 . S
C997 C1013 1.429 . S
C997 H1019 0.950 . S
C998 H994 0.949 . S
C998 C1006 1.574 . S
C998 C1014 1.368 . S
H999 C1007 0.950 . S
H1000 C1005 0.950 . S
H1001 C1006 0.949 . S
H1002 C1008 0.950 . S
H1003 C1009 0.950 . S
H1004 C1010 0.949 . S
C1005 H1000 0.950 . S
C1005 C1007 1.327 . S
C1005 C1011 1.429 . S
C1006 C998 1.574 . S
C1006 H1001 0.949 . S
C1006 C1012 1.368 . S
C1007 C991 1.349 . S
C1007 H999 0.950 . S
C1007 C1005 1.327 . S
C1008 C996 1.349 . S
C1008 H1002 0.950 . S
C1008 C1009 1.327 . S
C1009 H1003 0.950 . S
C1009 C1008 1.327 . S
C1009 C1013 1.429 . S
C1010 C993 1.574 . S
C1010 H1004 0.949 . S
C1010 C1014 1.368 . S
C1011 C992 1.429 . S
C1011 C1005 1.429 . S
C1011 C1012 1.523 . S
C1012 C993 1.368 . S
C1012 C1006 1.368 . S
C1012 C1011 1.523 . S
C1013 C997 1.429 . S
C1013 C1009 1.429 . S
C1013 C1014 1.523 . S
C1014 C998 1.368 . S
C1014 C1010 1.368 . S
C1014 C1013 1.523 . S
H1015 C990 0.950 . S
H1016 C992 0.950 . S
H1017 C993 0.949 . S
H1018 C995 0.950 . S
H1019 C997 0.950 . S
C1020 C1021 1.349 . S
C1020 C1022 1.327 . S
C1020 H1045 0.950 . S
C1021 C1020 1.349 . S
C1021 C1037 1.349 . S
C1022 C1020 1.327 . S
C1022 C1041 1.429 . S
C1022 H1046 0.950 . S
C1023 C1040 1.574 . S
C1023 C1042 1.368 . S
C1023 H1047 0.949 . S
H1024 C1028 0.949 . S
C1025 C1026 1.349 . S
C1025 C1027 1.327 . S
C1025 H1048 0.950 . S
C1026 C1025 1.349 . S
C1026 C1038 1.349 . S
C1027 C1025 1.327 . S
C1027 C1043 1.429 . S
C1027 H1049 0.950 . S
C1028 H1024 0.949 . S
C1028 C1036 1.574 . S
C1028 C1044 1.368 . S
H1029 C1037 0.950 . S
H1030 C1035 0.950 . S
H1031 C1036 0.949 . S
H1032 C1038 0.950 . S
H1033 C1039 0.950 . S
H1034 C1040 0.949 . S
C1035 H1030 0.950 . S
C1035 C1037 1.327 . S
C1035 C1041 1.429 . S
C1036 C1028 1.574 . S
C1036 H1031 0.949 . S
C1036 C1042 1.368 . S
C1037 C1021 1.349 . S
C1037 H1029 0.950 . S
C1037 C1035 1.327 . S
C1038 C1026 1.349 . S
C1038 H1032 0.950 . S
C1038 C1039 1.327 . S
C1039 H1033 0.950 . S
C1039 C1038 1.327 . S
C1039 C1043 1.429 . S
C1040 C1023 1.574 . S
C1040 H1034 0.949 . S
C1040 C1044 1.368 . S
C1041 C1022 1.429 . S
C1041 C1035 1.429 . S
C1041 C1042 1.523 1_545 S
C1042 C1023 1.368 . S
C1042 C1036 1.368 . S
C1042 C1041 1.523 1_565 S
C1043 C1027 1.429 . S
C1043 C1039 1.429 . S
C1043 C1044 1.523 . S
C1044 C1028 1.368 . S
C1044 C1040 1.368 . S
C1044 C1043 1.523 . S
H1045 C1020 0.950 . S
H1046 C1022 0.950 . S
H1047 C1023 0.949 . S
H1048 C1025 0.950 . S
H1049 C1027 0.950 . S
C1050 C1051 1.349 . S
C1050 C1052 1.327 . S
C1050 H1075 0.950 . S
C1051 C1050 1.349 . S
C1051 C1067 1.349 . S
C1052 C1050 1.327 . S
C1052 C1071 1.429 . S
C1052 H1076 0.950 . S
C1053 C1070 1.574 . S
C1053 C1072 1.368 . S
C1053 H1077 0.949 . S
H1054 C1058 0.949 . S
C1055 C1056 1.349 . S
C1055 C1057 1.327 . S
C1055 H1078 0.950 . S
C1056 C1055 1.349 . S
C1056 C1068 1.349 . S
C1057 C1055 1.327 . S
C1057 C1073 1.429 . S
C1057 H1079 0.950 . S
C1058 H1054 0.949 . S
C1058 C1066 1.574 . S
C1058 C1074 1.368 . S
H1059 C1067 0.950 . S
H1060 C1065 0.950 . S
H1061 C1066 0.949 . S
H1062 C1068 0.950 . S
H1063 C1069 0.950 . S
H1064 C1070 0.949 . S
C1065 H1060 0.950 . S
C1065 C1067 1.327 . S
C1065 C1071 1.429 . S
C1066 C1058 1.574 . S
C1066 H1061 0.949 . S
C1066 C1072 1.368 . S
C1067 C1051 1.349 . S
C1067 H1059 0.950 . S
C1067 C1065 1.327 . S
C1068 C1056 1.349 . S
C1068 H1062 0.950 . S
C1068 C1069 1.327 . S
C1069 H1063 0.950 . S
C1069 C1068 1.327 . S
C1069 C1073 1.429 . S
C1070 C1053 1.574 . S
C1070 H1064 0.949 . S
C1070 C1074 1.368 . S
C1071 C1052 1.429 . S
C1071 C1065 1.429 . S
C1071 C1072 1.523 . S
C1072 C1053 1.368 . S
C1072 C1066 1.368 . S
C1072 C1071 1.523 . S
C1073 C1057 1.429 . S
C1073 C1069 1.429 . S
C1073 C1074 1.523 . S
C1074 C1058 1.368 . S
C1074 C1070 1.368 . S
C1074 C1073 1.523 . S
H1075 C1050 0.950 . S
H1076 C1052 0.950 . S
H1077 C1053 0.949 . S
H1078 C1055 0.950 . S
H1079 C1057 0.950 . S
C1080 C1081 1.349 . S
C1080 C1082 1.327 . S
C1080 H1105 0.950 . S
C1081 C1080 1.349 . S
C1081 C1097 1.349 . S
C1082 C1080 1.327 . S
C1082 C1101 1.429 . S
C1082 H1106 0.950 . S
C1083 C1100 1.574 . S
C1083 C1102 1.368 . S
C1083 H1107 0.949 . S
H1084 C1088 0.949 . S
C1085 C1086 1.349 . S
C1085 C1087 1.327 . S
C1085 H1108 0.950 . S
C1086 C1085 1.349 . S
C1086 C1098 1.349 . S
C1087 C1085 1.327 . S
C1087 C1103 1.429 . S
C1087 H1109 0.950 . S
C1088 H1084 0.949 . S
C1088 C1096 1.574 . S
C1088 C1104 1.368 . S
H1089 C1097 0.950 . S
H1090 C1095 0.950 . S
H1091 C1096 0.949 . S
H1092 C1098 0.950 . S
H1093 C1099 0.950 . S
H1094 C1100 0.949 . S
C1095 H1090 0.950 . S
C1095 C1097 1.327 . S
C1095 C1101 1.429 . S
C1096 C1088 1.574 . S
C1096 H1091 0.949 . S
C1096 C1102 1.368 . S
C1097 C1081 1.349 . S
C1097 H1089 0.950 . S
C1097 C1095 1.327 . S
C1098 C1086 1.349 . S
C1098 H1092 0.950 . S
C1098 C1099 1.327 . S
C1099 H1093 0.950 . S
C1099 C1098 1.327 . S
C1099 C1103 1.429 . S
C1100 C1083 1.574 . S
C1100 H1094 0.949 . S
C1100 C1104 1.368 . S
C1101 C1082 1.429 . S
C1101 C1095 1.429 . S
C1101 C1102 1.523 . S
C1102 C1083 1.368 . S
C1102 C1096 1.368 . S
C1102 C1101 1.523 . S
C1103 C1087 1.429 . S
C1103 C1099 1.429 . S
C1103 C1104 1.523 . S
C1104 C1088 1.368 . S
C1104 C1100 1.368 . S
C1104 C1103 1.523 . S
H1105 C1080 0.950 . S
H1106 C1082 0.950 . S
H1107 C1083 0.949 . S
H1108 C1085 0.950 . S
H1109 C1087 0.950 . S
C1110 C1111 1.349 . S
C1110 C1112 1.327 . S
C1110 H1135 0.950 . S
C1111 C1110 1.349 . S
C1111 C1127 1.349 . S
C1112 C1110 1.327 . S
C1112 C1131 1.429 1_565 S
C1112 H1136 0.950 . S
C1113 C1130 1.574 . S
C1113 C1132 1.368 . S
C1113 H1137 0.949 . S
H1114 C1118 0.949 . S
C1115 C1116 1.349 . S
C1115 C1117 1.327 . S
C1115 H1138 0.950 . S
C1116 C1115 1.349 . S
C1116 C1128 1.349 . S
C1117 C1115 1.327 . S
C1117 C1133 1.429 . S
C1117 H1139 0.950 . S
C1118 H1114 0.949 . S
C1118 C1126 1.574 . S
C1118 C1134 1.368 . S
H1119 C1127 0.950 . S
H1120 C1125 0.950 . S
H1121 C1126 0.949 . S
H1122 C1128 0.950 . S
H1123 C1129 0.950 . S
H1124 C1130 0.949 . S
C1125 H1120 0.950 . S
C1125 C1127 1.327 1_545 S
C1125 C1131 1.429 . S
C1126 C1118 1.574 . S
C1126 H1121 0.949 . S
C1126 C1132 1.368 . S
C1127 C1111 1.349 . S
C1127 H1119 0.950 . S
C1127 C1125 1.327 1_565 S
C1128 C1116 1.349 . S
C1128 H1122 0.950 . S
C1128 C1129 1.327 . S
C1129 H1123 0.950 . S
C1129 C1128 1.327 . S
C1129 C1133 1.429 . S
C1130 C1113 1.574 . S
C1130 H1124 0.949 . S
C1130 C1134 1.368 . S
C1131 C1112 1.429 1_545 S
C1131 C1125 1.429 . S
C1131 C1132 1.523 . S
C1132 C1113 1.368 . S
C1132 C1126 1.368 . S
C1132 C1131 1.523 . S
C1133 C1117 1.429 . S
C1133 C1129 1.429 . S
C1133 C1134 1.523 . S
C1134 C1118 1.368 . S
C1134 C1130 1.368 . S
C1134 C1133 1.523 . S
H1135 C1110 0.950 . S
H1136 C1112 0.950 . S
H1137 C1113 0.949 . S
H1138 C1115 0.950 . S
H1139 C1117 0.950 . S
C1140 C1141 1.349 . S
C1140 C1142 1.327 . S
C1140 H1165 0.950 . S
C1141 C1140 1.349 . S
C1141 C1157 1.349 . S
C1142 C1140 1.327 . S
C1142 C1161 1.429 . S
C1142 H1166 0.950 . S
C1143 C1160 1.574 . S
C1143 C1162 1.368 . S
C1143 H1167 0.949 . S
H1144 C1148 0.949 . S
C1145 C1146 1.349 . S
C1145 C1147 1.327 . S
C1145 H1168 0.950 . S
C1146 C1145 1.349 . S
C1146 C1158 1.349 . S
C1147 C1145 1.327 . S
C1147 C1163 1.429 . S
C1147 H1169 0.950 . S
C1148 H1144 0.949 . S
C1148 C1156 1.574 . S
C1148 C1164 1.368 . S
H1149 C1157 0.950 . S
H1150 C1155 0.950 . S
H1151 C1156 0.949 . S
H1152 C1158 0.950 . S
H1153 C1159 0.950 . S
H1154 C1160 0.949 . S
C1155 H1150 0.950 . S
C1155 C1157 1.327 . S
C1155 C1161 1.429 . S
C1156 C1148 1.574 . S
C1156 H1151 0.949 . S
C1156 C1162 1.368 . S
C1157 C1141 1.349 . S
C1157 H1149 0.950 . S
C1157 C1155 1.327 . S
C1158 C1146 1.349 . S
C1158 H1152 0.950 . S
C1158 C1159 1.327 . S
C1159 H1153 0.950 . S
C1159 C1158 1.327 . S
C1159 C1163 1.429 . S
C1160 C1143 1.574 . S
C1160 H1154 0.949 . S
C1160 C1164 1.368 . S
C1161 C1142 1.429 . S
C1161 C1155 1.429 . S
C1161 C1162 1.523 . S
C1162 C1143 1.368 . S
C1162 C1156 1.368 . S
C1162 C1161 1.523 . S
C1163 C1147 1.429 . S
C1163 C1159 1.429 . S
C1163 C1164 1.523 . S
C1164 C1148 1.368 . S
C1164 C1160 1.368 . S
C1164 C1163 1.523 . S
H1165 C1140 0.950 . S
H1166 C1142 0.950 . S
H1167 C1143 0.949 . S
H1168 C1145 0.950 . S
H1169 C1147 0.950 . S
C361 C18 1.261 . S
C366 C8 1.261 . S
C391 C58 1.261 . S
C396 C48 1.261 . S
C421 C98 1.261 . S
C426 C88 1.261 . S
C451 C128 1.261 . S
C456 C138 1.261 . S
C481 C168 1.261 . S
C486 C178 1.261 . S
C511 C208 1.261 . S
C516 C218 1.261 . S
C541 C249 1.125 . S
C546 C259 1.125 . S
C571 C289 1.125 . S
C576 C299 1.125 . S
C601 C329 1.125 . S
C606 C339 1.125 . S
C631 C219 2.450 . S
C636 C15 2.432 . S
C661 C55 2.432 . S
C666 C139 2.450 . S
C691 C95 2.432 . S
C696 C179 2.450 . S
C721 C99 2.086 . S
C726 C258 2.177 . S
C751 C298 2.177 1_455 S
C756 C19 2.086 . S
C781 C338 2.177 . S
C786 C59 2.086 . S
C811 C335 0.943 . S
C816 C5 0.941 . S
C841 C45 0.941 . S
C846 C255 0.943 . S
C871 C295 0.943 . S
C876 C85 0.941 . S
C901 C89 2.451 1_565 S
C906 C125 2.432 . S
C931 C165 2.432 . S
C936 C9 2.450 . S
C961 C49 2.450 . S
C966 C205 2.432 . S
C991 C325 0.943 . S
C996 C135 0.941 . S
C1021 C245 0.943 . S
C1026 C175 0.941 . S
C1051 C285 0.943 . S
C1056 C215 0.941 . S
C1081 C248 2.178 . S
C1086 C209 2.086 . S
C1111 C129 2.086 . S
C1116 C288 2.177 . S
C1141 C328 2.177 . S
C1146 C169 2.086 . S
