# Generated by pormake.
# Topology wiu, (6)-cn, num edge types: 1
# Building blocks:
#     Node 0, Type 0, BuildingBlock: IZENUY_clean_sbu_0, # of connection points: 6
#     Node 1, Type 0, BuildingBlock: IZENUY_clean_sbu_0, # of connection points: 6
#     Node 2, Type 0, BuildingBlock: IZENUY_clean_sbu_0, # of connection points: 6
#     Node 3, Type 0, BuildingBlock: IZENUY_clean_sbu_0, # of connection points: 6
#     Node 4, Type 0, BuildingBlock: IZENUY_clean_sbu_0, # of connection points: 6
#     Node 5, Type 0, BuildingBlock: IZENUY_clean_sbu_0, # of connection points: 6
#     Node 6, Type 0, BuildingBlock: IZENUY_clean_sbu_0, # of connection points: 6
#     Node 7, Type 0, BuildingBlock: IZENUY_clean_sbu_0, # of connection points: 6
#     Node 8, Type 0, BuildingBlock: IZENUY_clean_sbu_0, # of connection points: 6
#     Node 9, Type 0, BuildingBlock: IZENUY_clean_sbu_0, # of connection points: 6
#     Node 10, Type 0, BuildingBlock: IZENUY_clean_sbu_0, # of connection points: 6
#     Node 11, Type 0, BuildingBlock: IZENUY_clean_sbu_0, # of connection points: 6
#     Node 12, Type 0, BuildingBlock: IZENUY_clean_sbu_0, # of connection points: 6
#     Node 13, Type 0, BuildingBlock: IZENUY_clean_sbu_0, # of connection points: 6
#     Node 14, Type 0, BuildingBlock: IZENUY_clean_sbu_0, # of connection points: 6
#     Node 15, Type 0, BuildingBlock: IZENUY_clean_sbu_0, # of connection points: 6
#     Edge 16, Type (0, 0), BuildingBlock: XIVTED_clean_linker_0, # of connection points: 2
#     Edge 17, Type (0, 0), BuildingBlock: XIVTED_clean_linker_0, # of connection points: 2
#     Edge 18, Type (0, 0), BuildingBlock: XIVTED_clean_linker_0, # of connection points: 2
#     Edge 19, Type (0, 0), BuildingBlock: XIVTED_clean_linker_0, # of connection points: 2
#     Edge 20, Type (0, 0), BuildingBlock: XIVTED_clean_linker_0, # of connection points: 2
#     Edge 21, Type (0, 0), BuildingBlock: XIVTED_clean_linker_0, # of connection points: 2
#     Edge 22, Type (0, 0), BuildingBlock: XIVTED_clean_linker_0, # of connection points: 2
#     Edge 23, Type (0, 0), BuildingBlock: XIVTED_clean_linker_0, # of connection points: 2
#     Edge 24, Type (0, 0), BuildingBlock: XIVTED_clean_linker_0, # of connection points: 2
#     Edge 25, Type (0, 0), BuildingBlock: XIVTED_clean_linker_0, # of connection points: 2
#     Edge 26, Type (0, 0), BuildingBlock: XIVTED_clean_linker_0, # of connection points: 2
#     Edge 27, Type (0, 0), BuildingBlock: XIVTED_clean_linker_0, # of connection points: 2
#     Edge 28, Type (0, 0), BuildingBlock: XIVTED_clean_linker_0, # of connection points: 2
#     Edge 29, Type (0, 0), BuildingBlock: XIVTED_clean_linker_0, # of connection points: 2
#     Edge 30, Type (0, 0), BuildingBlock: XIVTED_clean_linker_0, # of connection points: 2
#     Edge 31, Type (0, 0), BuildingBlock: XIVTED_clean_linker_0, # of connection points: 2
#     Edge 32, Type (0, 0), BuildingBlock: XIVTED_clean_linker_0, # of connection points: 2
#     Edge 33, Type (0, 0), BuildingBlock: XIVTED_clean_linker_0, # of connection points: 2
#     Edge 34, Type (0, 0), BuildingBlock: XIVTED_clean_linker_0, # of connection points: 2
#     Edge 35, Type (0, 0), BuildingBlock: XIVTED_clean_linker_0, # of connection points: 2
#     Edge 36, Type (0, 0), BuildingBlock: XIVTED_clean_linker_0, # of connection points: 2
#     Edge 37, Type (0, 0), BuildingBlock: XIVTED_clean_linker_0, # of connection points: 2
#     Edge 38, Type (0, 0), BuildingBlock: XIVTED_clean_linker_0, # of connection points: 2
#     Edge 39, Type (0, 0), BuildingBlock: XIVTED_clean_linker_0, # of connection points: 2
#     Edge 40, Type (0, 0), BuildingBlock: XIVTED_clean_linker_0, # of connection points: 2
#     Edge 41, Type (0, 0), BuildingBlock: XIVTED_clean_linker_0, # of connection points: 2
#     Edge 42, Type (0, 0), BuildingBlock: XIVTED_clean_linker_0, # of connection points: 2
#     Edge 43, Type (0, 0), BuildingBlock: XIVTED_clean_linker_0, # of connection points: 2
#     Edge 44, Type (0, 0), BuildingBlock: XIVTED_clean_linker_0, # of connection points: 2
#     Edge 45, Type (0, 0), BuildingBlock: XIVTED_clean_linker_0, # of connection points: 2
#     Edge 46, Type (0, 0), BuildingBlock: XIVTED_clean_linker_0, # of connection points: 2
#     Edge 47, Type (0, 0), BuildingBlock: XIVTED_clean_linker_0, # of connection points: 2
#     Edge 48, Type (0, 0), BuildingBlock: XIVTED_clean_linker_0, # of connection points: 2
#     Edge 49, Type (0, 0), BuildingBlock: XIVTED_clean_linker_0, # of connection points: 2
#     Edge 50, Type (0, 0), BuildingBlock: XIVTED_clean_linker_0, # of connection points: 2
#     Edge 51, Type (0, 0), BuildingBlock: XIVTED_clean_linker_0, # of connection points: 2
#     Edge 52, Type (0, 0), BuildingBlock: XIVTED_clean_linker_0, # of connection points: 2
#     Edge 53, Type (0, 0), BuildingBlock: XIVTED_clean_linker_0, # of connection points: 2
#     Edge 54, Type (0, 0), BuildingBlock: XIVTED_clean_linker_0, # of connection points: 2
#     Edge 55, Type (0, 0), BuildingBlock: XIVTED_clean_linker_0, # of connection points: 2
#     Edge 56, Type (0, 0), BuildingBlock: XIVTED_clean_linker_0, # of connection points: 2
#     Edge 57, Type (0, 0), BuildingBlock: XIVTED_clean_linker_0, # of connection points: 2
#     Edge 58, Type (0, 0), BuildingBlock: XIVTED_clean_linker_0, # of connection points: 2
#     Edge 59, Type (0, 0), BuildingBlock: XIVTED_clean_linker_0, # of connection points: 2
#     Edge 60, Type (0, 0), BuildingBlock: XIVTED_clean_linker_0, # of connection points: 2
#     Edge 61, Type (0, 0), BuildingBlock: XIVTED_clean_linker_0, # of connection points: 2
#     Edge 62, Type (0, 0), BuildingBlock: XIVTED_clean_linker_0, # of connection points: 2
#     Edge 63, Type (0, 0), BuildingBlock: XIVTED_clean_linker_0, # of connection points: 2
# Relax obj value: 0.193
# Max RMSD: 0.208
# Mean RMSD: 0.207
data_MOF--net-wiu--node1-IZENUY_clean_sbu_0--edge1-XIVTED_clean_linker_0
_symmetry_space_group_name_H-M    P1
_symmetry_Int_Tables_number       1
_symmetry_cell_setting            triclinic
loop_
_symmetry_equiv_pos_as_xyz
'x, y, z'
_cell_length_a     31.163003
_cell_length_b     31.178056
_cell_length_c     55.221561
_cell_angle_alpha  90.201308
_cell_angle_beta   89.999327
_cell_angle_gamma 89.833561
loop_
_atom_site_label
_atom_site_type_symbol
_atom_site_fract_x
_atom_site_fract_y
_atom_site_fract_z
_atom_type_partial_charge
Fe0 Fe 0.34539 0.09111 0.04769 0.0
Fe1 Fe 0.38145 0.18235 0.04171 0.0
O2 O 0.355 0.1433 0.05934 0.0
Fe3 Fe 0.33915 0.15669 0.08914 0.0
O4 O 0.37434 0.11632 0.10107 0.0
O5 O 0.35378 0.06401 0.07688 0.0
O6 O 0.40215 0.08181 0.04147 0.0
C7 C 0.42495 0.10489 0.02785 0.0
C8 C 0.27074 0.10414 0.07303 0.0
O9 O 0.41486 0.14384 0.0243 0.0
C10 C 0.31784 0.23094 0.06754 0.0
O11 O 0.33644 0.11016 0.01671 0.0
O12 O 0.33974 0.18073 0.01907 0.0
O13 O 0.29261 0.12094 0.08981 0.0
O14 O 0.28766 0.09547 0.05281 0.0
C15 C 0.41949 0.19656 0.08514 0.0
O16 O 0.35293 0.22861 0.0558 0.0
O17 O 0.30359 0.19844 0.07837 0.0
C18 C 0.33054 0.14701 0.00752 0.0
O19 O 0.42501 0.18554 0.06338 0.0
O20 O 0.38268 0.19497 0.09462 0.0
C21 C 0.3746 0.07735 0.09511 0.0
Fe22 Fe 0.72052 0.59541 0.29143 0.0
Fe23 Fe 0.67195 0.59306 0.33968 0.0
O24 O 0.67611 0.61154 0.30941 0.0
Fe25 Fe 0.63622 0.64565 0.29719 0.0
O26 O 0.64023 0.62383 0.26679 0.0
O27 O 0.68538 0.56947 0.26947 0.0
O28 O 0.72759 0.54299 0.30636 0.0
C29 C 0.70249 0.52021 0.31899 0.0
C30 C 0.70828 0.68195 0.277 0.0
O31 O 0.67122 0.53737 0.32983 0.0
C32 C 0.64672 0.67619 0.34521 0.0
O33 O 0.75771 0.62147 0.31222 0.0
O34 O 0.72973 0.59162 0.3446 0.0
O35 O 0.67529 0.68777 0.29004 0.0
O36 O 0.72252 0.64446 0.27329 0.0
C37 C 0.58583 0.5905 0.32362 0.0
O38 O 0.67226 0.6472 0.35192 0.0
O39 O 0.62575 0.6732 0.32569 0.0
C40 C 0.75904 0.61292 0.33449 0.0
O41 O 0.61348 0.59158 0.3403 0.0
O42 O 0.59382 0.60631 0.30304 0.0
C43 C 0.65564 0.58928 0.25852 0.0
Fe44 Fe 0.22668 0.92123 0.59027 0.0
Fe45 Fe 0.23022 0.98335 0.54759 0.0
O46 O 0.21498 0.93325 0.55982 0.0
Fe47 Fe 0.18718 0.89525 0.54218 0.0
O48 O 0.14174 0.8968 0.56255 0.0
O49 O 0.18038 0.88609 0.59498 0.0
O50 O 0.19312 0.96497 0.59993 0.0
C51 C 0.19864 1.00346 0.59389 0.0
C52 C 0.24545 0.84439 0.57017 0.0
O53 O 0.22256 1.01305 0.57617 0.0
C54 C 0.24322 0.92395 0.50892 0.0
O55 O 0.27529 0.95419 0.59183 0.0
O56 O 0.28687 0.97334 0.55426 0.0
O57 O 0.21135 0.84812 0.55762 0.0
O58 O 0.26034 0.87625 0.58154 0.0
C59 C 0.15099 0.97503 0.52635 0.0
O60 O 0.23932 0.96178 0.51714 0.0
O61 O 0.2307 0.89202 0.52082 0.0
C62 C 0.3006 0.96693 0.57549 0.0
O63 O 0.17499 0.99728 0.53989 0.0
O64 O 0.15822 0.93521 0.52349 0.0
C65 C 0.14449 0.88603 0.58442 0.0
Fe66 Fe 0.8368 0.47253 0.79979 0.0
Fe67 Fe 0.92877 0.43965 0.79085 0.0
O68 O 0.88977 0.46281 0.81009 0.0
Fe69 Fe 0.90353 0.47564 0.84025 0.0
O70 O 0.86512 0.43737 0.85108 0.0
O71 O 0.81159 0.46216 0.8294 0.0
O72 O 0.82837 0.41608 0.79234 0.0
C73 C 0.85174 0.39443 0.77803 0.0
C74 C 0.84905 0.54455 0.82724 0.0
O75 O 0.89025 0.4057 0.77391 0.0
C76 C 0.97568 0.50279 0.81827 0.0
O77 O 0.85295 0.48365 0.76864 0.0
O78 O 0.92352 0.48269 0.7692 0.0
O79 O 0.86547 0.52048 0.84316 0.0
O80 O 0.84146 0.53001 0.80627 0.0
C81 C 0.94846 0.39853 0.83276 0.0
O82 O 0.97422 0.46981 0.80455 0.0
O83 O 0.94329 0.51383 0.83053 0.0
C84 C 0.88867 0.49138 0.75868 0.0
O85 O 0.93636 0.39448 0.81112 0.0
O86 O 0.94429 0.43383 0.84367 0.0
C87 C 0.82557 0.43966 0.84678 0.0
Fe88 Fe 0.72933 0.98102 0.89852 0.0
Fe89 Fe 0.69389 0.89012 0.90573 0.0
O90 O 0.71842 0.92895 0.88722 0.0
Fe91 Fe 0.73092 0.91596 0.85683 0.0
O92 O 0.6942 0.95643 0.84647 0.0
O93 O 0.71904 1.00816 0.86957 0.0
O94 O 0.67321 0.99089 0.90611 0.0
C95 C 0.65114 0.9678 0.92014 0.0
C96 C 0.80106 0.96796 0.87096 0.0
O97 O 0.66152 0.92887 0.92367 0.0
C98 C 0.75507 0.84145 0.87769 0.0
O99 O 0.74032 0.9626 0.92932 0.0
O100 O 0.73738 0.89221 0.92723 0.0
O101 O 0.77712 0.9522 0.85473 0.0
O102 O 0.78641 0.9752 0.89193 0.0
C103 C 0.65176 0.87577 0.86348 0.0
O104 O 0.72193 0.84398 0.89119 0.0
O105 O 0.76751 0.87375 0.86588 0.0
C106 C 0.74685 0.92601 0.93856 0.0
O107 O 0.64852 0.88634 0.88541 0.0
O108 O 0.68738 0.87751 0.85277 0.0
C109 C 0.69558 0.99545 0.85226 0.0
Fe110 Fe 0.42001 0.44456 0.65888 0.0
Fe111 Fe 0.39315 0.48355 0.61069 0.0
O112 O 0.38084 0.47048 0.64101 0.0
Fe113 Fe 0.32917 0.48226 0.65295 0.0
O114 O 0.31869 0.42624 0.6601 0.0
O115 O 0.3813 0.41258 0.67676 0.0
O116 O 0.42257 0.39959 0.63809 0.0
C117 C 0.43283 0.40324 0.61617 0.0
C118 C 0.38609 0.4976 0.69252 0.0
O119 O 0.4305 0.43904 0.60574 0.0
C120 C 0.34328 0.55456 0.62621 0.0
O121 O 0.46627 0.47186 0.64424 0.0
O122 O 0.43634 0.51868 0.61975 0.0
O123 O 0.34898 0.49204 0.68365 0.0
O124 O 0.4193 0.48754 0.68078 0.0
C125 C 0.31266 0.45052 0.60641 0.0
O126 O 0.35826 0.53093 0.60957 0.0
O127 O 0.33518 0.53935 0.64688 0.0
C128 C 0.4689 0.50516 0.631 0.0
O129 O 0.35146 0.4484 0.60024 0.0
O130 O 0.30086 0.47349 0.62415 0.0
C131 C 0.34202 0.40327 0.67358 0.0
Fe132 Fe 0.84495 0.16751 0.35662 0.0
Fe133 Fe 0.85081 0.10238 0.39776 0.0
O134 O 0.86019 0.15461 0.38654 0.0
Fe135 Fe 0.88547 0.19401 0.40452 0.0
O136 O 0.92899 0.19912 0.38286 0.0
O137 O 0.88641 0.20788 0.35181 0.0
O138 O 0.88241 0.12856 0.34509 0.0
C139 C 0.88278 0.08948 0.35081 0.0
C140 C 0.81969 0.24025 0.37909 0.0
O141 O 0.86057 0.07588 0.36843 0.0
C142 C 0.83507 0.15701 0.43837 0.0
O143 O 0.80046 0.12945 0.35498 0.0
O144 O 0.79306 0.10687 0.3922 0.0
O145 O 0.85483 0.23916 0.39093 0.0
O146 O 0.80733 0.20776 0.36729 0.0
C147 C 0.9301 0.11693 0.41794 0.0
O148 O 0.84106 0.12049 0.4288 0.0
O149 O 0.84409 0.19103 0.42726 0.0
C150 C 0.7775 0.11334 0.37141 0.0
O151 O 0.90736 0.09352 0.40437 0.0
O152 O 0.92007 0.156 0.42144 0.0
C153 C 0.92306 0.21053 0.36126 0.0
Fe154 Fe 0.23055 0.58641 0.15918 0.0
Fe155 Fe 0.14047 0.62554 0.16611 0.0
O156 O 0.17817 0.59743 0.14816 0.0
Fe157 Fe 0.16323 0.58152 0.11862 0.0
O158 O 0.20406 0.61526 0.10607 0.0
O159 O 0.2568 0.5937 0.12965 0.0
O160 O 0.24158 0.64291 0.16515 0.0
C161 C 0.21935 0.66682 0.17876 0.0
C162 C 0.21491 0.5121 0.13405 0.0
O163 O 0.1803 0.65802 0.1828 0.0
C164 C 0.08923 0.56288 0.14148 0.0
O165 O 0.21229 0.57849 0.19043 0.0
O166 O 0.14176 0.58432 0.18889 0.0
O167 O 0.19781 0.53424 0.11757 0.0
O168 O 0.2247 0.52878 0.15418 0.0
C169 C 0.12625 0.66297 0.12261 0.0
O170 O 0.09307 0.59816 0.15293 0.0
O171 O 0.12078 0.54747 0.13002 0.0
C172 C 0.17554 0.57424 0.20009 0.0
O173 O 0.13771 0.66871 0.14425 0.0
O174 O 0.12599 0.62585 0.11352 0.0
C175 C 0.24322 0.61473 0.1116 0.0
Fe176 Fe 0.83136 0.6496 0.58398 0.0
Fe177 Fe 0.83061 0.58209 0.54362 0.0
O178 O 0.8428 0.63471 0.55375 0.0
Fe179 Fe 0.86717 0.67228 0.5343 0.0
O180 O 0.91303 0.67783 0.55429 0.0
O181 O 0.87477 0.68843 0.58692 0.0
O182 O 0.86842 0.60975 0.59471 0.0
C183 C 0.86569 0.57031 0.59012 0.0
C184 C 0.80655 0.72267 0.56187 0.0
O185 O 0.84172 0.55679 0.57317 0.0
C186 C 0.81345 0.63449 0.50226 0.0
O187 O 0.78536 0.61352 0.58745 0.0
O188 O 0.77364 0.58923 0.55077 0.0
O189 O 0.83914 0.7193 0.54799 0.0
O190 O 0.79446 0.69109 0.5744 0.0
C191 C 0.90883 0.5931 0.52134 0.0
O192 O 0.81895 0.59852 0.51246 0.0
O193 O 0.82352 0.66887 0.51287 0.0
C194 C 0.7603 0.59738 0.57192 0.0
O195 O 0.88624 0.57075 0.5355 0.0
O196 O 0.89931 0.63213 0.51734 0.0
C197 C 0.91004 0.69035 0.5759 0.0
Fe198 Fe 0.17783 0.089 0.84453 0.0
Fe199 Fe 0.14395 0.12823 0.79726 0.0
O200 O 0.18532 0.10207 0.81359 0.0
Fe201 Fe 0.23464 0.08871 0.79917 0.0
O202 O 0.2446 0.03999 0.81744 0.0
O203 O 0.18527 1.0322 0.83836 0.0
O204 O 0.12016 0.08005 0.84231 0.0
C205 C 0.09539 0.07305 0.82466 0.0
C206 C 0.26232 0.119 0.8425 0.0
O207 O 0.10534 0.08545 0.8036 0.0
C208 C 0.21464 0.17003 0.77866 0.0
O209 O 0.16949 0.14474 0.85302 0.0
O210 O 0.12509 0.15943 0.82309 0.0
O211 O 0.26457 0.12244 0.81989 0.0
O212 O 0.23413 0.09606 0.85247 0.0
C213 C 0.17819 0.0686 0.76345 0.0
O214 O 0.17881 0.17348 0.78936 0.0
O215 O 0.23437 0.13449 0.77834 0.0
C216 C 0.14166 0.16852 0.84334 0.0
O217 O 0.15614 0.10133 0.76886 0.0
O218 O 0.20766 0.05508 0.77718 0.0
C219 C 0.21926 1.01657 0.82958 0.0
Fe220 Fe 0.72721 0.42514 0.09755 0.0
Fe221 Fe 0.72648 0.48373 0.05315 0.0
O222 O 0.71455 0.43342 0.06662 0.0
Fe223 Fe 0.69008 0.39213 0.04947 0.0
O224 O 0.65862 0.37165 0.07475 0.0
O225 O 0.67173 0.41512 0.10544 0.0
O226 O 0.71834 0.48095 0.10612 0.0
C227 C 0.69308 0.5076 0.09652 0.0
C228 C 0.74633 0.3442 0.07678 0.0
O229 O 0.69042 0.51108 0.07392 0.0
C230 C 0.75033 0.42888 0.01716 0.0
O231 O 0.78372 0.43402 0.09181 0.0
O232 O 0.77421 0.4944 0.07224 0.0
O233 O 0.7338 0.35433 0.05577 0.0
O234 O 0.7379 0.36797 0.09469 0.0
C235 C 0.64669 0.46247 0.03138 0.0
O236 O 0.7619 0.45885 0.03118 0.0
O237 O 0.71782 0.40603 0.02164 0.0
C238 C 0.79843 0.46876 0.08377 0.0
O239 O 0.6817 0.48288 0.03165 0.0
O240 O 0.64399 0.42618 0.0415 0.0
C241 C 0.64884 0.38723 0.0952 0.0
Fe242 Fe 0.41436 0.97873 0.34262 0.0
Fe243 Fe 0.34908 0.97397 0.30135 0.0
O244 O 0.40169 0.96477 0.31238 0.0
Fe245 Fe 0.44132 0.94064 0.2939 0.0
O246 O 0.44814 0.89645 0.31496 0.0
O247 O 0.45521 0.93733 0.34695 0.0
O248 O 0.37576 0.94056 0.35342 0.0
C249 C 0.33674 0.94007 0.34752 0.0
C250 C 0.48705 1.00535 0.32081 0.0
O251 O 0.32295 0.9634 0.33048 0.0
C252 C 0.40246 0.99125 0.26064 0.0
O253 O 0.37589 1.02337 0.3447 0.0
O254 O 0.35281 1.03151 0.30755 0.0
O255 O 0.48606 0.97165 0.30763 0.0
O256 O 0.45449 1.0167 0.33291 0.0
C257 C 0.36477 0.89518 0.28055 0.0
O258 O 0.36637 0.9846 0.27041 0.0
O259 O 0.43696 0.98253 0.27149 0.0
C260 C 0.35934 0.0467 0.32848 0.0
O261 O 0.34107 0.91756 0.29422 0.0
O262 O 0.40359 0.90581 0.27689 0.0
C263 C 0.45951 0.90149 0.33666 0.0
Fe264 Fe 0.23309 0.42573 0.35786 0.0
Fe265 Fe 0.23025 0.47529 0.40593 0.0
O266 O 0.21752 0.42884 0.38874 0.0
Fe267 Fe 0.1892 0.38599 0.40236 0.0
O268 O 0.16045 0.37127 0.37483 0.0
O269 O 0.17817 0.41975 0.34774 0.0
O270 O 0.22689 0.48316 0.35258 0.0
C271 C 0.20428 0.51063 0.36364 0.0
C272 C 0.24646 0.34022 0.37438 0.0
O273 O 0.19871 0.5091 0.38613 0.0
C274 C 0.24592 0.41398 0.43936 0.0
O275 O 0.28938 0.43171 0.36534 0.0
O276 O 0.28041 0.48705 0.3895 0.0
O277 O 0.23218 0.34764 0.39547 0.0
O278 O 0.24165 0.36751 0.35767 0.0
C279 C 0.14666 0.45503 0.42277 0.0
O280 O 0.26168 0.44403 0.42698 0.0
O281 O 0.21324 0.39365 0.43216 0.0
C282 C 0.30428 0.46425 0.37597 0.0
O283 O 0.18273 0.47293 0.4255 0.0
O284 O 0.1436 0.42084 0.4104 0.0
C285 C 0.15337 0.39105 0.35529 0.0
Fe286 Fe 0.84283 0.98159 0.14967 0.0
Fe287 Fe 0.93149 0.93867 0.15405 0.0
O288 O 0.89291 0.96679 0.13693 0.0
Fe289 Fe 0.90438 0.97916 0.10641 0.0
O290 O 0.86089 0.94555 0.09675 0.0
O291 O 0.81261 0.9732 0.1214 0.0
O292 O 0.82949 0.9266 0.15754 0.0
C293 C 0.85221 0.90247 0.17067 0.0
C294 C 0.85782 0.05223 0.1219 0.0
O295 O 0.89223 0.90914 0.17282 0.0
C296 C 0.98153 0.99764 0.12604 0.0
O297 O 0.86501 0.99108 0.17987 0.0
O298 O 0.93483 0.98151 0.17598 0.0
O299 O 0.87083 1.02745 0.10531 0.0
O300 O 0.85188 0.03809 0.14303 0.0
C301 C 0.93946 0.89705 0.11116 0.0
O302 O 0.97816 0.96338 0.13843 0.0
O303 O 0.94929 1.01281 0.1151 0.0
C304 C 0.90292 0.99449 0.18798 0.0
O305 O 0.92977 0.89381 0.13319 0.0
O306 O 0.9398 0.93324 0.10109 0.0
C307 C 0.82255 0.94915 0.1037 0.0
Fe308 Fe 0.335 0.58452 0.90541 0.0
Fe309 Fe 0.37515 0.67382 0.91275 0.0
O310 O 0.34871 0.63594 0.89428 0.0
Fe311 Fe 0.33689 0.64948 0.86397 0.0
O312 O 0.37226 0.60771 0.85356 0.0
O313 O 0.34507 0.55693 0.87642 0.0
O314 O 0.39031 0.57188 0.91354 0.0
C315 C 0.41379 0.59432 0.92725 0.0
C316 C 0.26484 0.59996 0.87713 0.0
O317 O 0.40572 0.63387 0.93051 0.0
C318 C 0.31526 0.7245 0.88542 0.0
O319 O 0.32416 0.60378 0.9361 0.0
O320 O 0.3318 0.67395 0.9344 0.0
O321 O 0.28995 0.61479 0.86134 0.0
O322 O 0.27818 0.59275 0.89834 0.0
C323 C 0.41753 0.6863 0.87048 0.0
O324 O 0.34905 0.72092 0.89829 0.0
O325 O 0.30151 0.69277 0.87342 0.0
C326 C 0.31992 0.64073 0.94545 0.0
O327 O 0.42065 0.67543 0.89233 0.0
O328 O 0.38157 0.68642 0.86012 0.0
C329 C 0.36926 0.56874 0.85924 0.0
Fe330 Fe 0.734 0.08826 0.64702 0.0
Fe331 Fe 0.64303 0.12457 0.65406 0.0
O332 O 0.68257 0.10104 0.6354 0.0
Fe333 Fe 0.671 0.09114 0.60456 0.0
O334 O 0.71205 0.12838 0.59584 0.0
O335 O 0.76243 0.10021 0.61864 0.0
O336 O 0.74417 0.14362 0.65611 0.0
C337 C 0.72047 0.16549 0.6701 0.0
C338 C 0.72111 1.01901 0.61744 0.0
O339 O 0.68127 0.15549 0.673 0.0
C340 C 0.59588 0.06538 0.62419 0.0
O341 O 0.71435 0.07555 0.67734 0.0
O342 O 0.64414 0.07968 0.67452 0.0
O343 O 0.70734 0.04492 0.60164 0.0
O344 O 0.72751 1.03169 0.63891 0.0
C345 C 0.62963 0.16975 0.61283 0.0
O346 O 0.59761 0.09761 0.63845 0.0
O347 O 0.62846 0.05414 0.61208 0.0
C348 C 0.67734 0.06901 0.68601 0.0
O349 O 0.6398 0.17141 0.63485 0.0
O350 O 0.63253 0.13507 0.60118 0.0
C351 C 0.75083 0.12563 0.60201 0.0
H352 H 0.50501 0.18014 0.08383 0.0
H353 H 0.56633 0.41131 0.10423 0.0
H354 H 0.41102 0.26677 0.11418 0.0
H355 H 0.65829 0.30995 0.11554 0.0
H356 H 0.50824 0.36077 0.11316 0.0
H357 H 0.562 0.22641 0.09926 0.0
C358 C 0.49656 0.2086 0.09412 0.0
C359 C 0.45363 0.22015 0.09754 0.0
C360 C 0.54121 0.35003 0.1147 0.0
C361 C 0.51811 0.27349 0.11477 0.0
C362 C 0.5742 0.37889 0.10973 0.0
C363 C 0.61661 0.36428 0.1091 0.0
C364 C 0.55124 0.30649 0.11827 0.0
C365 C 0.62564 0.322 0.11584 0.0
C366 C 0.52894 0.23481 0.10309 0.0
C367 C 0.44398 0.25705 0.11113 0.0
N368 N 0.59307 0.29413 0.11955 0.0
N369 N 0.47608 0.2832 0.11873 0.0
H370 H 0.6756 0.7576 0.35019 0.0
H371 H 0.44887 0.8149 0.33477 0.0
H372 H 0.58059 0.66882 0.37596 0.0
H373 H 0.52942 0.9136 0.36524 0.0
H374 H 0.49752 0.76053 0.35136 0.0
H375 H 0.62689 0.81707 0.35969 0.0
C376 C 0.64552 0.75092 0.35926 0.0
C377 C 0.63174 0.70863 0.36228 0.0
C378 C 0.50392 0.7941 0.35492 0.0
C379 C 0.57539 0.7755 0.3717 0.0
C380 C 0.47653 0.82495 0.34522 0.0
C381 C 0.48559 0.86845 0.34851 0.0
C382 C 0.54124 0.80707 0.36718 0.0
C383 C 0.52157 0.88016 0.36232 0.0
C384 C 0.61753 0.78473 0.36443 0.0
C385 C 0.59212 0.70126 0.37347 0.0
N386 N 0.5489 0.84957 0.37063 0.0
N387 N 0.56443 0.73435 0.3769 0.0
H388 H 0.15078 0.81092 0.60873 0.0
H389 H 0.90146 0.76214 0.60333 0.0
H390 H 0.05907 0.90327 0.58203 0.0
H391 H 0.99627 0.67775 0.57168 0.0
H392 H 0.95893 0.81142 0.61535 0.0
H393 H 0.09204 0.76011 0.61547 0.0
C394 C 0.11809 0.82102 0.60518 0.0
C395 C 0.10939 0.86089 0.59456 0.0
C396 C 0.96698 0.7815 0.60638 0.0
C397 C 0.04299 0.80385 0.60261 0.0
C398 C 0.93449 0.75349 0.59952 0.0
C399 C 0.94449 0.7163 0.58627 0.0
C400 C 1.00948 0.77143 0.60048 0.0
C401 C 0.98753 0.70649 0.58161 0.0
C402 C 0.08487 0.79207 0.60894 0.0
C403 C 0.06677 0.87255 0.59005 0.0
N404 N 1.01868 0.73415 0.58864 0.0
N405 N 1.03492 0.84386 0.59393 0.0
H406 H 0.06599 0.15937 0.86557 0.0
H407 H 1.0189 0.40961 0.8611 0.0
H408 H 0.16523 0.25152 0.85081 0.0
H409 H 0.93873 0.31196 0.82923 0.0
H410 H 0.06797 0.35346 0.87557 0.0
H411 H 1.01531 0.21821 0.87263 0.0
C412 C 0.07755 0.19213 0.86513 0.0
C413 C 0.11951 0.20106 0.85765 0.0
C414 C 0.03908 0.34451 0.86591 0.0
C415 C 0.06202 0.26778 0.86507 0.0
C416 C 1.0112 0.37628 0.85764 0.0
C417 C 0.97516 0.36508 0.84375 0.0
C418 C 1.03001 0.3015 0.86077 0.0
C419 C 0.96654 0.32169 0.83962 0.0
C420 C 0.04862 0.22551 0.86888 0.0
C421 C 0.13306 0.24373 0.85673 0.0
N422 N 0.99393 0.29134 0.84807 0.0
N423 N 0.104 0.27585 0.85994 0.0
H424 H 0.56681 0.89447 0.86392 0.0
H425 H 0.50276 0.66975 0.87578 0.0
H426 H 0.65892 0.80028 0.83949 0.0
H427 H 0.41303 0.75324 0.83935 0.0
H428 H 0.56165 0.71542 0.86188 0.0
H429 H 0.50882 0.84462 0.85383 0.0
C430 C 0.57455 0.86368 0.85583 0.0
C431 C 0.61719 0.85091 0.8527 0.0
C432 C 0.52913 0.72287 0.85635 0.0
C433 C 0.55204 0.79401 0.84189 0.0
C434 C 0.4957 0.69721 0.86446 0.0
C435 C 0.45333 0.70842 0.85899 0.0
C436 C 0.51961 0.76047 0.84351 0.0
C437 C 0.44547 0.74391 0.84407 0.0
C438 C 0.54168 0.8355 0.84993 0.0
C439 C 0.62613 0.81092 0.84216 0.0
N440 N 0.47834 0.76963 0.83743 0.0
N441 N 0.5937 0.78306 0.83783 0.0
H442 H 0.55667 0.16283 0.58646 0.0
H443 H 0.50579 0.4121 0.59003 0.0
H444 H 0.64398 0.25536 0.61718 0.0
H445 H 0.41813 0.31739 0.61784 0.0
H446 H 0.55615 0.35448 0.57923 0.0
H447 H 0.50623 0.22117 0.57728 0.0
C448 C 0.56575 0.19561 0.5905 0.0
C449 C 0.60402 0.2047 0.60281 0.0
C450 C 0.52524 0.34648 0.58695 0.0
C451 C 0.54757 0.27062 0.59193 0.0
C452 C 0.49659 0.37906 0.59307 0.0
C453 C 0.45825 0.36907 0.60504 0.0
C454 C 0.51467 0.30399 0.59235 0.0
C455 C 0.44774 0.32605 0.60885 0.0
C456 C 0.53708 0.22859 0.58529 0.0
C457 C 0.61442 0.24738 0.60791 0.0
N458 N 0.4761 0.29484 0.60265 0.0
N459 N 0.58606 0.279 0.60256 0.0
H460 H 0.16279 0.3189 0.32939 0.0
H461 H 0.91181 0.28178 0.33379 0.0
H462 H 0.07215 0.41901 0.34659 0.0
H463 H 1.00893 0.19531 0.36066 0.0
H464 H 0.96846 0.32861 0.31801 0.0
H465 H 0.10331 0.27184 0.31812 0.0
C466 C 0.13035 0.33159 0.32951 0.0
C467 C 0.12179 0.37238 0.33904 0.0
C468 C 0.97711 0.29873 0.32672 0.0
C469 C 0.05439 0.31899 0.3269 0.0
C470 C 0.94507 0.27218 0.33578 0.0
C471 C 0.95616 0.23526 0.34885 0.0
C472 C 1.02016 0.28749 0.33035 0.0
C473 C 0.9994 0.22401 0.35104 0.0
C474 C 0.09658 0.30474 0.32328 0.0
C475 C 0.07958 0.38755 0.3393 0.0
N476 N 1.02999 0.25028 0.34199 0.0
N477 N 0.04702 0.36033 0.33386 0.0
H478 H 0.14328 0.74843 0.12433 0.0
H479 H 0.91874 0.81267 0.11247 0.0
H480 H 0.0581 0.65515 0.09236 0.0
H481 H 1.01298 0.90126 0.08514 0.0
H482 H 0.96735 0.75318 0.10287 0.0
H483 H 0.0975 0.80581 0.10844 0.0
C484 C 0.11539 0.74021 0.11357 0.0
C485 C 0.10378 0.6974 0.10994 0.0
C486 C 0.97669 0.78555 0.09817 0.0
C487 C 0.05157 0.76203 0.09218 0.0
C488 C 0.94917 0.8193 0.10377 0.0
C489 C 0.96244 0.86148 0.09985 0.0
C490 C 1.01807 0.79459 0.08961 0.0
C491 C 1.00195 0.86891 0.08851 0.0
C492 C 0.08966 0.77275 0.1043 0.0
C493 C 0.06775 0.688 0.09567 0.0
N494 N 1.02925 0.83571 0.08453 0.0
N495 N 0.04198 0.72019 0.08789 0.0
H496 H 0.45414 1.02125 0.02879 0.0
H497 H 0.62175 0.05133 0.9193 0.0
H498 H 0.47563 0.14188 -0.00723 0.0
H499 H 0.60137 0.93085 0.9557 0.0
H500 H 0.56807 0.0847 0.94574 0.0
H501 H 0.50807 0.9878 0.0025 0.0
C502 C 0.47033 0.04087 0.01549 0.0
C503 C 0.46009 0.08466 0.01315 0.0
C504 C 0.57522 0.05093 0.94793 0.0
C505 C 0.52208 0.04613 -0.01737 0.0
C506 C 0.60589 1.03172 0.93273 0.0
C507 C 0.61635 0.988 0.93512 0.0
C508 C 0.55458 1.02646 0.96581 0.0
C509 C 0.5945 0.96455 0.95303 0.0
C510 C 0.50113 1.02163 0.00038 0.0
C511 C 0.48232 0.10814 -0.00459 0.0
N512 N 0.56488 0.98401 0.96763 0.0
N513 N 0.51201 0.08864 -0.01912 0.0
H514 H 0.6737 0.7601 0.26274 0.0
H515 H 0.8898 0.83711 0.19642 0.0
H516 H 0.79017 0.68519 0.26001 0.0
H517 H 0.76611 0.89319 0.18099 0.0
H518 H 0.85493 0.78585 0.22345 0.0
H519 H 0.70822 0.81444 0.23694 0.0
C520 C 0.7066 0.7553 0.257 0.0
C521 C 0.72895 0.71787 0.26354 0.0
C522 C 0.83534 0.80929 0.21411 0.0
C523 C 0.76864 0.77983 0.23402 0.0
C524 C 0.85529 0.83861 0.19861 0.0
C525 C 0.83098 0.86952 0.18619 0.0
C526 C 0.79065 0.81099 0.21762 0.0
C527 C 0.78624 0.86979 0.18996 0.0
C528 C 0.72619 0.78614 0.24212 0.0
C529 C 0.77149 0.71331 0.25535 0.0
N530 N 0.76761 0.8412 0.20538 0.0
N531 N 0.78982 0.74375 0.24114 0.0
H532 H 0.12666 0.06029 0.52625 0.0
H533 H 0.95868 1.03332 0.41668 0.0
H534 H 0.0993 0.93951 0.49121 0.0
H535 H 0.98111 0.15376 0.45321 0.0
H536 H 1.01167 0.99926 0.44303 0.0
H537 H 0.07463 0.09538 0.49951 0.0
C538 C 0.10963 0.04102 0.51305 0.0
C539 C 0.11757 0.99668 0.51115 0.0
C540 C 1.00518 1.03318 0.44526 0.0
C541 C 0.05784 0.03702 0.48014 0.0
C542 C 0.97492 0.0528 0.4301 0.0
C543 C 0.96516 0.09669 0.43258 0.0
C544 C 1.02616 0.0574 0.46321 0.0
C545 C 0.98747 0.11994 0.45048 0.0
C546 C 0.07992 0.06118 0.4977 0.0
C547 C 0.09437 0.97366 0.49353 0.0
N548 N 1.01671 0.10006 0.46508 0.0
N549 N 0.06581 0.99403 0.47877 0.0
H550 H 0.76867 0.36372 0.77905 0.0
H551 H 0.8038 0.19509 0.67005 0.0
H552 H 0.89 0.34413 0.74296 0.0
H553 H 0.68202 0.2149 0.70561 0.0
H554 H 0.83572 0.24932 0.69661 0.0
H555 H 0.73669 0.3088 0.7529 0.0
C556 C 0.78875 0.34776 0.76577 0.0
C557 C 0.83229 0.35885 0.76337 0.0
C558 C 0.80199 0.2419 0.6986 0.0
C559 C 0.79547 0.29569 0.73301 0.0
C560 C 0.78362 0.21089 0.68335 0.0
C561 C 0.73995 0.20015 0.68543 0.0
C562 C 0.77672 0.26262 0.71625 0.0
C563 C 0.71572 0.22197 0.70317 0.0
C564 C 0.77035 0.3164 0.75074 0.0
C565 C 0.85639 0.33686 0.74564 0.0
N566 N 0.73437 0.25195 0.71783 0.0
N567 N 0.83772 0.30659 0.73121 0.0
H568 H 0.25605 0.3864 0.68095 0.0
H569 H 0.29741 0.17953 0.76353 0.0
H570 H 0.38218 0.34081 0.70047 0.0
H571 H 0.17437 0.24304 0.76074 0.0
H572 H 0.32759 0.23566 0.73811 0.0
H573 H 0.22442 0.33149 0.70717 0.0
C574 C 0.27717 0.36471 0.69057 0.0
C575 C 0.32204 0.36839 0.68834 0.0
C576 C 0.29403 0.23756 0.74309 0.0
C577 C 0.28573 0.30522 0.71855 0.0
C578 C 0.27663 0.20538 0.75764 0.0
C579 C 0.2331 0.20631 0.76439 0.0
C580 C 0.26782 0.27111 0.73474 0.0
C581 C 0.20808 0.24096 0.75615 0.0
C582 C 0.259 0.3335 0.70569 0.0
C583 C 0.34753 0.33939 0.70151 0.0
N584 N 0.22568 0.27174 0.74163 0.0
N585 N 0.32909 0.30912 0.71589 0.0
H586 H 0.40222 0.84373 0.24555 0.0
H587 H 0.18329 0.72046 0.21278 0.0
H588 H 0.28179 0.86544 0.28224 0.0
H589 H 0.3039 0.6934 0.17742 0.0
H590 H 0.21896 0.77458 0.23765 0.0
H591 H 0.36741 0.78902 0.22036 0.0
C592 C 0.36858 0.83687 0.24849 0.0
C593 C 0.34508 0.85947 0.26619 0.0
C594 C 0.2377 0.75695 0.22442 0.0
C595 C 0.30474 0.79681 0.23707 0.0
C596 C 0.21725 0.72601 0.21007 0.0
C597 C 0.24045 0.70208 0.19283 0.0
C598 C 0.28191 0.76439 0.22165 0.0
C599 C 0.28453 0.71093 0.19039 0.0
C600 C 0.34865 0.80565 0.23399 0.0
C601 C 0.30142 0.84906 0.26892 0.0
N602 N 0.30375 0.74121 0.20461 0.0
N603 N 0.28279 0.81875 0.25455 0.0
H604 H 0.07024 0.41635 0.43681 0.0
H605 H 0.9733 0.63199 0.49567 0.0
H606 H 0.13749 0.53701 0.43922 0.0
H607 H 0.92484 0.50676 0.51397 0.0
H608 H 1.02916 0.59794 0.47107 0.0
H609 H 1.01192 0.44902 0.46093 0.0
C610 C 0.07265 0.44969 0.4422 0.0
C611 C 0.10906 0.47381 0.43599 0.0
C612 C 1.0064 0.57783 0.4805 0.0
C613 C 0.04236 0.51146 0.46349 0.0
C614 C 0.97439 0.59731 0.4946 0.0
C615 C 0.94423 0.57236 0.50712 0.0
C616 C 1.00825 0.53286 0.47846 0.0
C617 C 0.9475 0.52741 0.50485 0.0
C618 C 0.03948 0.46825 0.4561 0.0
C619 C 0.11034 0.51691 0.44365 0.0
N620 N 0.97868 0.50917 0.49074 0.0
N621 N 0.07766 0.53422 0.45683 0.0
H622 H 0.63593 0.5457 0.01782 0.0
H623 H 0.42955 0.50783 0.9339 0.0
H624 H 0.5745 0.42225 0.01224 0.0
H625 H 0.47659 0.63269 0.9546 0.0
H626 H 0.48429 0.47473 0.9599 0.0
H627 H 0.57979 0.57663 -0.00734 0.0
C628 C 0.61052 0.52497 0.01136 0.0
C629 C 0.61022 0.48111 0.01724 0.0
C630 C 0.4826 0.50935 0.95872 0.0
C631 C 0.54528 0.51676 -0.01212 0.0
C632 C 0.45149 0.52835 0.94374 0.0
C633 C 0.4483 0.5733 0.94191 0.0
C634 C 0.51119 0.53536 0.97185 0.0
C635 C 0.47759 0.59801 0.95534 0.0
C636 C 0.57831 0.5428 -0.00306 0.0
C637 C 0.57608 0.45619 0.00831 0.0
N638 N 0.50768 0.57879 0.96958 0.0
N639 N 0.54518 0.47427 -0.00606 0.0
H640 H 0.23455 0.25238 0.07752 0.0
H641 H 0.29178 0.47226 0.14352 0.0
H642 H 0.36239 0.3049 0.07591 0.0
H643 H 0.16935 0.45289 0.1089 0.0
H644 H 0.3168 0.40354 0.12633 0.0
H645 H 0.20838 0.31985 0.0954 0.0
C646 C 0.25694 0.27835 0.08061 0.0
C647 C 0.30054 0.27332 0.07488 0.0
C648 C 0.28433 0.41426 0.12275 0.0
C649 C 0.27124 0.34962 0.09623 0.0
C650 C 0.26992 0.45305 0.13279 0.0
C651 C 0.22842 0.46799 0.12769 0.0
C652 C 0.25668 0.38999 0.108 0.0
C653 C 0.20157 0.44235 0.11328 0.0
C654 C 0.24208 0.31664 0.09091 0.0
C655 C 0.32838 0.30774 0.07962 0.0
N656 N 0.21606 0.40453 0.10402 0.0
N657 N 0.31336 0.34424 0.09029 0.0
H658 H 0.52531 0.55296 0.29364 0.0
H659 H 0.35403 0.5224 0.40016 0.0
H660 H 0.54848 0.58927 0.36796 0.0
H661 H 0.35149 0.44487 0.33529 0.0
H662 H 0.42142 0.55424 0.38655 0.0
H663 H 0.4566 0.52076 0.30623 0.0
C664 C 0.51579 0.55452 0.31248 0.0
C665 C 0.54273 0.57365 0.32977 0.0
C666 C 0.40625 0.53008 0.37534 0.0
C667 C 0.46462 0.53724 0.34423 0.0
C668 C 0.36781 0.51184 0.38314 0.0
C669 C 0.34716 0.48071 0.36896 0.0
C670 C 0.42399 0.51775 0.35296 0.0
C671 C 0.36649 0.46844 0.34695 0.0
C672 C 0.47686 0.5359 0.31969 0.0
C673 C 0.52896 0.57457 0.35401 0.0
N674 N 0.40364 0.48722 0.33953 0.0
N675 N 0.49097 0.5568 0.36046 0.0
H676 H 0.32832 0.82027 0.57945 0.0
H677 H 0.27053 0.59812 0.63987 0.0
H678 H 0.1993 0.77089 0.57646 0.0
H679 H 0.38618 0.611 0.5977 0.0
H680 H 0.24679 0.66892 0.62529 0.0
H681 H 0.35339 0.74992 0.59388 0.0
C682 C 0.30539 0.79453 0.58165 0.0
C683 C 0.26178 0.80121 0.57652 0.0
C684 C 0.27748 0.65623 0.61942 0.0
C685 C 0.28988 0.72164 0.59387 0.0
C686 C 0.29118 0.61617 0.62788 0.0
C687 C 0.33036 0.59886 0.61997 0.0
C688 C 0.30372 0.6795 0.60352 0.0
C689 C 0.35571 0.62328 0.60417 0.0
C690 C 0.31966 0.75458 0.58992 0.0
C691 C 0.23328 0.76691 0.5799 0.0
N692 N 0.34215 0.66253 0.5966 0.0
N693 N 0.24772 0.72875 0.58868 0.0
H694 H 0.05323 0.49376 0.79493 0.0
H695 H 0.19148 0.58837 0.90442 0.0
H696 H 0.99476 0.55311 0.85757 0.0
H697 H 0.23999 0.57926 0.83137 0.0
H698 H 0.12023 0.56699 0.88938 0.0
H699 H 0.12361 0.51769 0.80947 0.0
C700 C 0.05507 0.5122 0.81155 0.0
C701 C 1.01789 0.52153 0.82493 0.0
C702 C 0.14659 0.56979 0.87671 0.0
C703 C 0.09841 0.548 0.84201 0.0
C704 C 0.18721 0.58172 0.88531 0.0
C705 C 0.22165 0.58584 0.86914 0.0
C706 C 0.14074 0.56112 0.85189 0.0
C707 C 0.21429 0.57691 0.8445 0.0
C708 C 0.09525 0.52572 0.81989 0.0
C709 C 1.0224 0.54534 0.84651 0.0
N710 N 0.17483 0.56478 0.83668 0.0
N711 N 0.06188 0.55733 0.85448 0.0
H712 H 0.82875 0.57236 0.8727 0.0
H713 H 0.80406 0.8193 0.83822 0.0
H714 H 0.83668 0.61636 0.79886 0.0
H715 H 0.74576 0.76512 0.90202 0.0
H716 H 0.82638 0.74729 0.82558 0.0
H717 H 0.80756 0.6445 0.88546 0.0
C718 C 0.82607 0.59723 0.85913 0.0
C719 C 0.83455 0.5882 0.83462 0.0
C720 C 0.80886 0.75122 0.84239 0.0
C721 C 0.81074 0.67132 0.8493 0.0
C722 C 0.79642 0.7924 0.84978 0.0
C723 C 0.77298 0.79848 0.87132 0.0
C724 C 0.79853 0.71571 0.85677 0.0
C725 C 0.76374 0.76211 0.88532 0.0
C726 C 0.81383 0.6384 0.86646 0.0
C727 C 0.83025 0.62178 0.8179 0.0
N728 N 0.77665 0.72239 0.87787 0.0
N729 N 0.81902 0.66195 0.82557 0.0
H730 H 0.54656 0.49379 0.65396 0.0
H731 H 0.6872 0.58441 0.54463 0.0
H732 H 0.48944 0.55366 0.59136 0.0
H733 H 0.73485 0.57845 0.6179 0.0
H734 H 0.61579 0.56361 0.55956 0.0
H735 H 0.61755 0.51611 0.63946 0.0
C736 C 0.54884 0.51191 0.63732 0.0
C737 C 0.51181 0.52203 0.62399 0.0
C738 C 0.64198 0.56691 0.57231 0.0
C739 C 0.59307 0.54667 0.60696 0.0
C740 C 0.68273 0.57853 0.56378 0.0
C741 C 0.71703 0.5834 0.58002 0.0
C742 C 0.63575 0.55923 0.59717 0.0
C743 C 0.70931 0.57546 0.60471 0.0
C744 C 0.58937 0.52456 0.62902 0.0
C745 C 0.51692 0.54539 0.6024 0.0
N746 N 0.6697 0.56355 0.61249 0.0
N747 N 0.55671 0.5565 0.59446 0.0
H748 H 0.85681 0.31952 0.38031 0.0
H749 H 0.65372 0.45456 0.33768 0.0
H750 H 0.73701 0.25638 0.36431 0.0
H751 H 0.78363 0.48717 0.31806 0.0
H752 H 0.68015 0.38591 0.35393 0.0
H753 H 0.82647 0.38682 0.36533 0.0
C754 C 0.82383 0.31995 0.37411 0.0
C755 C 0.7994 0.28221 0.37358 0.0
C756 C 0.70264 0.40809 0.34588 0.0
C757 C 0.76461 0.35923 0.35629 0.0
C758 C 0.68764 0.44713 0.33656 0.0
C759 C 0.71644 0.47656 0.32632 0.0
C760 C 0.74683 0.39907 0.34555 0.0
C761 C 0.76013 0.46538 0.32552 0.0
C762 C 0.80673 0.35829 0.36531 0.0
C763 C 0.75697 0.28472 0.36499 0.0
N764 N 0.77401 0.42785 0.33525 0.0
N765 N 0.74083 0.32262 0.35672 0.0
H766 H 0.83058 0.55046 0.08676 0.0
H767 H 0.06698 0.48218 0.12599 0.0
H768 H 0.86521 0.41815 0.09888 0.0
H769 H 1.01266 0.60601 0.14331 0.0
H770 H 0.99614 0.45844 0.11197 0.0
H771 H 0.90079 0.57227 0.10248 0.0
C772 C 0.85308 0.52597 0.0925 0.0
C773 C 0.84195 0.48239 0.0915 0.0
C774 C 0.99973 0.49065 0.11907 0.0
C775 C 0.92237 0.50718 0.1095 0.0
C776 C 0.04008 0.50419 0.12713 0.0
C777 C 0.04577 0.54608 0.13598 0.0
C778 C 0.96501 0.5195 0.11934 0.0
C779 C 1.00977 0.57331 0.13688 0.0
C780 C 0.89299 0.53847 0.10166 0.0
C781 C 0.87237 0.4521 0.09939 0.0
N782 N 0.97111 0.55973 0.1284 0.0
N783 N 0.91123 0.46503 0.10793 0.0
H784 H 0.8167 0.79845 0.53708 0.0
H785 H 0.73127 0.94644 0.64531 0.0
H786 H 0.75897 0.74622 0.60158 0.0
H787 H 0.73919 0.99114 0.57159 0.0
H788 H 0.74957 0.8738 0.63108 0.0
H789 H 0.79549 0.87055 0.55056 0.0
C790 C 0.79919 0.80202 0.55391 0.0
C791 C 0.78949 0.76603 0.5681 0.0
C792 C 0.74723 0.89959 0.61807 0.0
C793 C 0.76609 0.84864 0.58395 0.0
C794 C 0.73706 0.94106 0.6262 0.0
C795 C 0.73357 0.97497 0.60965 0.0
C796 C 0.75476 0.89212 0.59327 0.0
C797 C 0.74124 0.96601 0.58502 0.0
C798 C 0.78719 0.8432 0.56163 0.0
C799 C 0.76692 0.77283 0.58989 0.0
N800 N 0.7517 0.92565 0.57763 0.0
N801 N 0.75644 0.81324 0.59724 0.0
H802 H 0.86543 0.99717 0.90081 0.0
H803 H 1.02892 0.05308 0.79312 0.0
H804 H 0.83693 0.97151 0.82564 0.0
H805 H 0.06317 0.05187 0.8689 0.0
H806 H 0.95723 1.02644 0.80406 0.0
H807 H 0.93702 1.02127 0.88894 0.0
C808 C 0.87417 0.99657 0.88183 0.0
C809 C 0.84499 0.98221 0.86425 0.0
C810 C 0.98065 1.03191 0.81822 0.0
C811 C 0.92707 1.01001 0.85045 0.0
C812 C 1.02156 0.04708 0.81197 0.0
C813 C 0.05231 0.05484 0.83005 0.0
C814 C 0.97036 1.02483 0.84272 0.0
C815 C 0.04078 0.04648 0.85423 0.0
C816 C 0.91513 1.01026 0.87503 0.0
C817 C 0.85831 0.98216 0.83988 0.0
N818 N 1.00089 1.03222 0.8598 0.0
N819 N 0.89823 0.99597 0.8337 0.0
H820 H 0.83293 0.11798 0.15218 0.0
H821 H 0.76511 0.27747 0.04507 0.0
H822 H 0.85137 0.08713 0.0766 0.0
H823 H 0.77386 0.31438 0.12038 0.0
H824 H 0.79454 0.20668 0.05573 0.0
H825 H 0.80834 0.18955 0.14049 0.0
C826 C 0.83193 0.12625 0.13315 0.0
C827 C 0.84425 0.0964 0.1154 0.0
C828 C 0.79014 0.23051 0.06983 0.0
C829 C 0.81584 0.1783 0.1018 0.0
C830 C 0.7734 0.27089 0.06374 0.0
C831 C 0.76672 0.302 0.08181 0.0
C832 C 0.79994 0.22118 0.09416 0.0
C833 C 0.77811 0.29156 0.10575 0.0
C834 C 0.81794 0.16716 0.12646 0.0
C835 C 0.84229 0.10906 0.09096 0.0
N836 N 0.79381 0.25215 0.11119 0.0
N837 N 0.82815 0.1489 0.08489 0.0
H838 H 0.70788 0.09744 0.40101 0.0
H839 H 0.56252 1.00016 0.29527 0.0
H840 H 0.74849 0.09305 0.32633 0.0
H841 H 0.50785 0.05446 0.36037 0.0
H842 H 0.63311 1.02664 0.30786 0.0
H843 H 0.63614 0.07326 0.38824 0.0
C844 C 0.7018 0.09122 0.38201 0.0
C845 C 0.7342 0.09744 0.36473 0.0
C846 C 0.60555 1.033 0.31928 0.0
C847 C 0.65266 0.06956 0.35006 0.0
C848 C 0.56524 1.01799 0.31207 0.0
C849 C 0.52907 1.02526 0.32667 0.0
C850 C 0.60996 0.05471 0.3415 0.0
C851 C 0.53469 0.04839 0.34838 0.0
C852 C 0.66088 0.0777 0.37472 0.0
C853 C 0.72448 0.08903 0.3403 0.0
N854 N 0.57438 0.06188 0.35525 0.0
N855 N 0.6848 0.07533 0.33374 0.0
H856 H 0.26593 0.30968 0.32917 0.0
H857 H 0.35503 0.08241 0.37382 0.0
H858 H 0.26812 0.27245 0.40439 0.0
H859 H 0.32709 0.11065 0.29899 0.0
H860 H 0.32834 0.1533 0.38526 0.0
H861 H 0.2933 0.23909 0.31799 0.0
C862 C 0.27235 0.28678 0.34344 0.0
C863 C 0.26465 0.29736 0.36787 0.0
C864 C 0.32799 0.14404 0.36634 0.0
C865 C 0.29626 0.21574 0.35495 0.0
C866 C 0.34337 0.1035 0.35972 0.0
C867 C 0.34338 0.09026 0.33531 0.0
C868 C 0.31272 0.17211 0.34848 0.0
C869 C 0.32769 0.11925 0.31799 0.0
C870 C 0.28787 0.24627 0.33695 0.0
C871 C 0.2735 0.26592 0.38536 0.0
N872 N 0.31315 0.15876 0.3249 0.0
N873 N 0.28891 0.22664 0.37857 0.0
H874 H 0.05587 0.95181 0.1204 0.0
H875 H 0.21069 0.14824 0.09883 0.0
H876 H 1.00508 0.08034 0.11587 0.0
H877 H 0.23041 1.02873 0.06093 0.0
H878 H 0.13963 0.12315 0.1117 0.0
H879 H 0.12534 0.97824 0.10573 0.0
C880 C 0.05953 0.9857 0.11669 0.0
C881 C 1.02471 1.01401 0.11952 0.0
C882 C 0.1594 0.10259 0.10041 0.0
C883 C 0.10407 0.04432 0.10283 0.0
C884 C 0.19985 0.11683 0.09307 0.0
C885 C 0.22627 0.09062 0.07864 0.0
C886 C 0.14577 0.06125 0.09397 0.0
C887 C 0.2108 0.0501 0.07179 0.0
C888 C 0.09899 1.00061 0.10807 0.0
C889 C 1.03111 0.05748 0.11401 0.0
N890 N 0.1718 0.03636 0.07982 0.0
N891 N 0.07011 0.07141 0.10616 0.0
H892 H 0.30082 0.98355 0.83152 0.0
H893 H 0.23496 0.74632 0.86887 0.0
H894 H 0.1688 0.94991 0.84504 0.0
H895 H 0.35736 0.80137 0.88777 0.0
H896 H 0.21052 0.81732 0.85531 0.0
H897 H 0.32299 0.91298 0.84648 0.0
C898 C 0.27643 0.96119 0.83739 0.0
C899 C 0.23284 0.97274 0.837 0.0
C900 C 0.24257 0.81383 0.86263 0.0
C901 C 0.2581 0.89175 0.8541 0.0
C902 C 0.25652 0.77339 0.8704 0.0
C903 C 0.29818 0.76788 0.87964 0.0
C904 C 0.27083 0.84884 0.86352 0.0
C905 C 0.32484 0.80411 0.88105 0.0
C906 C 0.28917 0.92105 0.84612 0.0
C907 C 0.20275 0.94244 0.84508 0.0
N908 N 0.31091 0.84284 0.87281 0.0
N909 N 0.2159 0.90327 0.85315 0.0
H910 H 0.5749 1.01702 0.58428 0.0
H911 H 0.32939 0.98601 0.62087 0.0
H912 H 0.51977 0.0718 0.64912 0.0
H913 H 0.37231 0.97796 0.54668 0.0
H914 H 0.40133 1.00772 0.63309 0.0
H915 H 0.50356 0.99236 0.5721 0.0
C916 C 0.54794 1.02345 0.59614 0.0
C917 C 0.55349 0.04657 0.61784 0.0
C918 C 0.39508 1.00121 0.61414 0.0
C919 C 0.47161 1.0183 0.60386 0.0
C920 C 0.354 0.98859 0.6071 0.0
C921 C 0.34468 0.98005 0.58264 0.0
C922 C 0.4276 1.00476 0.59672 0.0
C923 C 0.37798 0.98435 0.56569 0.0
C924 C 0.50716 1.00962 0.58902 0.0
C925 C 0.51713 0.05417 0.63227 0.0
N926 N 0.41806 0.99615 0.57307 0.0
N927 N 0.47784 0.03998 0.62507 0.0
H928 H 0.30665 0.21697 -0.01948 0.0
H929 H 0.33596 0.08385 0.85871 0.0
H930 H 0.34661 0.08456 0.97438 0.0
H931 H 0.25625 0.19655 0.86365 0.0
H932 H 0.36498 0.09984 0.89883 0.0
H933 H 0.30725 0.22212 0.93613 0.0
C934 C 0.3152 0.189 0.96986 0.0
C935 C 0.32566 0.15003 -0.0189 0.0
C936 C 0.3423 0.122 0.89079 0.0
C937 C 0.32828 0.15629 0.9308 0.0
C938 C 0.32643 0.11327 0.86777 0.0
C939 C 0.29382 0.13895 0.85823 0.0
C940 C 0.32447 0.15597 0.90426 0.0
C941 C 0.28158 0.17621 0.87066 0.0
C942 C 0.31611 0.19214 0.94465 0.0
C943 C 0.3373 0.11496 0.96652 0.0
N944 N 0.29608 0.18311 0.89349 0.0
N945 N 0.33829 0.11897 0.94216 0.0
H946 H 0.70451 0.58896 0.11294 0.0
H947 H 0.65863 0.51068 0.23599 0.0
H948 H 0.62184 0.47888 0.11819 0.0
H949 H 0.62991 0.6445 0.22366 0.0
H950 H 0.64838 0.49717 0.19247 0.0
H951 H 0.67831 0.61354 0.15256 0.0
C952 C 0.67927 0.57123 0.12191 0.0
C953 C 0.66533 0.53192 0.11267 0.0
C954 C 0.64338 0.52923 0.19958 0.0
C955 C 0.63755 0.55801 0.1579 0.0
C956 C 0.64963 0.53693 0.22421 0.0
C957 C 0.64539 0.57865 0.23328 0.0
C958 C 0.63426 0.56376 0.1841 0.0
C959 C 0.6335 0.61176 0.21735 0.0
C960 C 0.66468 0.5849 0.14452 0.0
C961 C 0.63349 0.50922 0.12508 0.0
N962 N 0.6294 0.60381 0.19336 0.0
N963 N 0.6217 0.52175 0.14761 0.0
H964 H 0.22099 0.98003 0.4739 0.0
H965 H 0.3502 0.86893 0.37447 0.0
H966 H 0.27493 0.85388 0.48488 0.0
H967 H 0.256 0.96686 0.3593 0.0
H968 H 0.31294 0.85243 0.41205 0.0
H969 H 0.22567 0.9694 0.43048 0.0
C970 C 0.23443 0.95024 0.4671 0.0
C971 C 0.24912 0.91833 0.48286 0.0
C972 C 0.29952 0.87657 0.40017 0.0
C973 C 0.25372 0.90554 0.43316 0.0
C974 C 0.32081 0.88601 0.37877 0.0
C975 C 0.30693 0.92045 0.36453 0.0
C976 C 0.26508 0.90266 0.4074 0.0
C977 C 0.26824 0.94085 0.37028 0.0
C978 C 0.23617 0.94377 0.44229 0.0
C979 C 0.2644 0.87963 0.47317 0.0
N980 N 0.24926 0.93257 0.39182 0.0
N981 N 0.26714 0.87458 0.44881 0.0
H982 H 0.94039 0.57542 0.61485 0.0
H983 H 0.8221 0.48243 0.72728 0.0
H984 H 0.82357 0.50226 0.60951 0.0
H985 H 0.95665 0.51525 0.73007 0.0
H986 H 0.82436 0.48686 0.68349 0.0
H987 H 0.95196 0.54704 0.65548 0.0
C988 C 0.91807 0.55202 0.62197 0.0
C989 C 0.88067 0.54153 0.60918 0.0
C990 C 0.85351 0.49288 0.69362 0.0
C991 C 0.89272 0.51042 0.65566 0.0
C992 C 0.8521 0.49112 0.7187 0.0
C993 C 0.88916 0.49912 0.73241 0.0
C994 C 0.89204 0.50346 0.68204 0.0
C995 C 0.92724 0.50932 0.72019 0.0
C996 C 0.9245 0.5361 0.64518 0.0
C997 C 0.85269 0.51119 0.61894 0.0
N998 N 0.92762 0.51163 0.69563 0.0
N999 N 0.85867 0.49751 0.64199 0.0
H1000 H 0.75269 0.99251 0.08714 0.0
H1001 H 0.76551 0.85519 0.96601 0.0
H1002 H 0.82057 0.87225 0.08121 0.0
H1003 H 0.73686 0.99066 0.97123 0.0
H1004 H 0.76486 0.85117 0.01034 0.0
H1005 H 0.72029 0.97917 0.04749 0.0
C1006 C 0.75913 0.96239 0.07797 0.0
C1007 C 0.79001 0.9339 0.08683 0.0
C1008 C 0.75845 0.8816 0.00163 0.0
C1009 C 0.7547 0.91922 0.04168 0.0
C1010 C 0.75947 0.88407 -0.02356 0.0
C1011 C 0.75217 0.92347 0.96494 0.0
C1012 C 0.74962 0.91869 0.01525 0.0
C1013 C 0.74364 0.95976 -0.02072 0.0
C1014 C 0.74118 0.95503 0.05525 0.0
C1015 C 0.79747 0.89531 0.07445 0.0
N1016 N 0.74268 0.95646 0.00368 0.0
N1017 N 0.78079 0.8895 0.05206 0.0
H1018 H 0.3282 0.49788 0.84225 0.0
H1019 H 0.45784 0.51761 0.71894 0.0
H1020 H 0.4444 0.57148 0.8349 0.0
H1021 H 0.32352 0.48588 0.72606 0.0
H1022 H 0.46426 0.51684 0.76321 0.0
H1023 H 0.3405 0.4674 0.80198 0.0
C1024 C 0.35729 0.50608 0.83258 0.0
C1025 C 0.38476 0.53795 0.84132 0.0
C1026 C 0.43355 0.5098 0.75493 0.0
C1027 C 0.39823 0.50466 0.79549 0.0
C1028 C 0.42972 0.51086 0.72979 0.0
C1029 C 0.3899 0.50274 0.71886 0.0
C1030 C 0.39746 0.50002 0.76905 0.0
C1031 C 0.35463 0.49334 0.73369 0.0
C1032 C 0.36403 0.48919 0.80953 0.0
C1033 C 0.42205 0.54761 0.82828 0.0
N1034 N 0.35927 0.49228 0.75802 0.0
N1035 N 0.42723 0.53183 0.8056 0.0
H1036 H 0.82549 0.0892 0.58643 0.0
H1037 H 0.81016 0.22625 0.46577 0.0
H1038 H 0.74588 0.20176 0.57891 0.0
H1039 H 0.8499 0.09369 0.47093 0.0
H1040 H 0.80721 0.22985 0.51014 0.0
H1041 H 0.85976 0.10613 0.54779 0.0
C1042 C 0.81655 0.11843 0.57712 0.0
C1043 C 0.7821 0.1435 0.5852 0.0
C1044 C 0.81689 0.20019 0.50142 0.0
C1045 C 0.81991 0.16226 0.54122 0.0
C1046 C 0.81799 0.19793 0.47621 0.0
C1047 C 0.82915 0.15931 0.4647 0.0
C1048 C 0.82758 0.16375 0.51503 0.0
C1049 C 0.83994 0.1238 0.47901 0.0
C1050 C 0.83571 0.12784 0.555 0.0
C1051 C 0.7717 0.18114 0.5727 0.0
N1052 N 0.83875 0.12686 0.50343 0.0
N1053 N 0.78982 0.18892 0.55089 0.0
H1054 H 0.24312 0.58211 0.34753 0.0
H1055 H 0.10517 0.55565 0.22798 0.0
H1056 H 0.1245 0.51182 0.34513 0.0
H1057 H 0.2396 0.58835 0.23244 0.0
H1058 H 0.10072 0.55993 0.27231 0.0
H1059 H 0.22721 0.6117 0.30766 0.0
C1060 C 0.21253 0.57494 0.33912 0.0
C1061 C 0.18518 0.54441 0.34918 0.0
C1062 C 0.131 0.5664 0.26344 0.0
C1063 C 0.16817 0.57543 0.30338 0.0
C1064 C 0.13375 0.56333 0.23827 0.0
C1065 C 0.17302 0.57074 0.22658 0.0
C1066 C 0.16763 0.57755 0.2768 0.0
C1067 C 0.20889 0.58137 0.24068 0.0
C1068 C 0.2038 0.59108 0.31621 0.0
C1069 C 0.14626 0.53536 0.33765 0.0
N1070 N 0.20528 0.58444 0.26502 0.0
N1071 N 0.13941 0.54973 0.31482 0.0
H1072 H 0.76687 0.69253 0.35299 0.0
H1073 H 0.81628 0.56632 0.47133 0.0
H1074 H 0.82329 0.56642 0.35396 0.0
H1075 H 0.8022 0.70425 0.47245 0.0
H1076 H 0.82137 0.56832 0.42758 0.0
H1077 H 0.78842 0.70279 0.39518 0.0
C1078 C 0.78635 0.66812 0.36164 0.0
C1079 C 0.79308 0.62843 0.35026 0.0
C1080 C 0.81732 0.59825 0.43734 0.0
C1081 C 0.81563 0.63883 0.39852 0.0
C1082 C 0.81357 0.59707 0.46238 0.0
C1083 C 0.80849 0.63518 0.47567 0.0
C1084 C 0.81527 0.63772 0.42527 0.0
C1085 C 0.80581 0.67405 0.46293 0.0
C1086 C 0.79779 0.67358 0.38589 0.0
C1087 C 0.81752 0.59743 0.36227 0.0
N1088 N 0.80896 0.67432 0.43836 0.0
N1089 N 0.82678 0.6027 0.38607 0.0
H1090 H 0.12178 1.01996 0.61436 0.0
H1091 H 0.24627 0.04286 0.73621 0.0
H1092 H 0.25583 0.05299 0.61744 0.0
H1093 H 0.11038 0.06945 0.73267 0.0
H1094 H 0.24884 0.04164 0.69203 0.0
H1095 H 0.11416 0.04083 0.65684 0.0
C1096 C 0.14902 1.03381 0.62373 0.0
C1097 C 0.18946 1.03473 0.61273 0.0
C1098 C 0.21845 0.04762 0.70096 0.0
C1099 C 0.18177 0.05594 0.66115 0.0
C1100 C 0.21678 0.04721 0.72611 0.0
C1101 C 0.17798 0.05594 0.73795 0.0
C1102 C 0.18097 0.0562 0.68771 0.0
C1103 C 0.14084 0.06238 0.72407 0.0
C1104 C 0.14489 0.04499 0.648 0.0
C1105 C 0.22412 0.05209 0.62546 0.0
N1106 N 0.14321 0.06237 0.69957 0.0
N1107 N 0.21984 0.06081 0.64939 0.0
H1108 H 0.82231 0.36496 0.87134 0.0
H1109 H 0.7741 0.49635 -0.01077 0.0
H1110 H 0.77065 0.49331 0.86954 0.0
H1111 H 0.75908 0.35879 -0.01156 0.0
H1112 H 0.78184 0.49512 0.94515 0.0
H1113 H 0.80169 0.35956 0.91399 0.0
C1114 C 0.80482 0.39119 0.87972 0.0
C1115 C 0.79791 0.42953 0.86718 0.0
C1116 C 0.77709 0.46522 0.9547 0.0
C1117 C 0.7768 0.42464 0.91575 0.0
C1118 C 0.7737 0.46581 -0.02019 0.0
C1119 C 0.76628 0.42756 -0.0077 0.0
C1120 C 0.77365 0.42607 0.94223 0.0
C1121 C 0.76498 0.38888 -0.0207 0.0
C1122 C 0.79367 0.38838 0.90404 0.0
C1123 C 0.77602 0.46309 0.8787 0.0
N1124 N 0.76865 0.38905 0.95485 0.0
N1125 N 0.76722 0.46034 0.90268 0.0
H1126 H 0.33819 0.97595 0.22868 0.0
H1127 H 0.44922 0.0846 0.11948 0.0
H1128 H 0.46986 1.01846 0.2326 0.0
H1129 H 0.33755 1.00438 0.11201 0.0
H1130 H 0.46408 0.05207 0.15871 0.0
H1131 H 0.34114 0.9807 0.18495 0.0
C1132 C 0.36767 0.98684 0.22034 0.0
C1133 C 0.40359 0.99785 0.23433 0.0
C1134 C 0.43711 0.0405 0.14821 0.0
C1135 C 0.40735 1.00256 0.18405 0.0
C1136 C 0.42877 0.05889 0.12581 0.0
C1137 C 0.3917 0.04754 0.11299 0.0
C1138 C 0.40743 1.01155 0.15789 0.0
C1139 C 0.36624 1.0141 0.12161 0.0
C1140 C 0.36956 0.98873 0.19529 0.0
C1141 C 0.44125 1.01042 0.22246 0.0
N1142 N 0.3739 0.99801 0.14399 0.0
N1143 N 0.44198 1.01304 0.19791 0.0
H1144 H 0.25062 0.4975 0.58477 0.0
H1145 H 0.24188 0.34494 0.46947 0.0
H1146 H 0.30819 0.37165 0.5863 0.0
H1147 H 0.26626 0.48117 0.46821 0.0
H1148 H 0.24196 0.34758 0.51406 0.0
H1149 H 0.22488 0.48297 0.54365 0.0
C1150 C 0.25578 0.466 0.5769 0.0
C1151 C 0.28186 0.43583 0.58846 0.0
C1152 C 0.24727 0.37668 0.50384 0.0
C1153 C 0.25382 0.4196 0.54191 0.0
C1154 C 0.24796 0.37513 0.47861 0.0
C1155 C 0.25494 0.41274 0.46532 0.0
C1156 C 0.25217 0.41631 0.51552 0.0
C1157 C 0.26176 0.45129 0.47781 0.0
C1158 C 0.24174 0.45799 0.55342 0.0
C1159 C 0.28837 0.39567 0.57759 0.0
N1160 N 0.25981 0.45215 0.50227 0.0
N1161 N 0.27517 0.38888 0.55452 0.0
H1162 H 0.85318 1.01026 0.33817 0.0
H1163 H 0.97405 1.02459 0.2117 0.0
H1164 H 0.95334 0.10165 0.32316 0.0
H1165 H 0.84542 0.97773 0.22331 0.0
H1166 H 0.98255 1.03224 0.2558 0.0
H1167 H 0.86954 0.97396 0.29991 0.0
C1168 C 0.87963 1.02167 0.32724 0.0
C1169 C 0.90106 0.05963 0.33316 0.0
C1170 C 0.95273 1.01989 0.24854 0.0
C1171 C 0.91928 1.01917 0.28971 0.0
C1172 C 0.9477 1.01609 0.22353 0.0
C1173 C 0.90855 1.0019 0.21397 0.0
C1174 C 0.91866 1.00854 0.26384 0.0
C1175 C 0.87564 0.99021 0.22993 0.0
C1176 C 0.88875 1.00122 0.30539 0.0
C1177 C 0.93533 0.07306 0.31863 0.0
N1178 N 0.88141 0.99394 0.25409 0.0
N1179 N 0.94283 0.05337 0.29716 0.0
H1180 H 0.31646 0.57747 0.09458 0.0
H1181 H 0.29668 0.71103 0.97252 0.0
H1182 H 0.23542 0.68898 0.08709 0.0
H1183 H 0.3326 0.57747 -0.02177 0.0
H1184 H 0.29455 0.71543 0.01694 0.0
H1185 H 0.34763 0.59259 0.05481 0.0
C1186 C 0.30661 0.6061 0.08498 0.0
C1187 C 0.27277 0.63148 0.09352 0.0
C1188 C 0.30315 0.68536 0.0083 0.0
C1189 C 0.30701 0.64822 0.04835 0.0
C1190 C 0.30377 0.68268 -0.01691 0.0
C1191 C 0.31372 0.64359 0.97174 0.0
C1192 C 0.3133 0.64891 0.02204 0.0
C1193 C 0.32359 0.60798 -0.01381 0.0
C1194 C 0.32395 0.61447 0.06225 0.0
C1195 C 0.26094 0.66825 0.08059 0.0
N1196 N 0.32309 0.61152 0.01059 0.0
N1197 N 0.27738 0.67509 0.05827 0.0
H1198 H 0.73344 0.06839 0.83594 0.0
H1199 H 0.60601 0.04582 0.71189 0.0
H1200 H 0.62109 0.9893 0.82748 0.0
H1201 H 0.73933 0.08102 0.71986 0.0
H1202 H 0.59919 0.04517 0.75617 0.0
H1203 H 0.72023 0.09869 0.79583 0.0
C1204 C 0.70495 0.05886 0.82607 0.0
C1205 C 0.67895 1.02559 0.83442 0.0
C1206 C 0.62975 0.05325 0.74807 0.0
C1207 C 0.66448 0.05876 0.7888 0.0
C1208 C 0.63384 0.05299 0.72293 0.0
C1209 C 0.6735 0.06255 0.71223 0.0
C1210 C 0.66539 0.06378 0.76241 0.0
C1211 C 0.70838 0.07246 0.72729 0.0
C1212 C 0.69771 0.07568 0.80311 0.0
C1213 C 0.64236 1.01429 0.82113 0.0
N1214 N 0.70347 0.07281 0.75161 0.0
N1215 N 0.63671 1.03008 0.79856 0.0
loop_
_geom_bond_atom_site_label_1
_geom_bond_atom_site_label_2
_geom_bond_distance
_geom_bond_site_symmetry_2
_ccdc_geom_bond_type
Fe0 O2 1.918 . S
Fe0 O5 1.997 . S
Fe0 O6 2.002 . S
Fe0 O11 1.976 . S
Fe0 O14 1.996 . S
Fe1 O2 1.918 . S
Fe1 O9 1.997 . S
Fe1 O12 1.996 . S
Fe1 O16 1.976 . S
Fe1 O19 2.002 . S
O2 Fe0 1.918 . S
O2 Fe1 1.918 . S
O2 Fe3 1.918 . S
Fe3 O2 1.918 . S
Fe3 O4 2.002 . S
Fe3 O13 1.976 . S
Fe3 O17 1.996 . S
Fe3 O20 1.997 . S
O4 Fe3 2.002 . S
O4 C21 1.295 . S
O5 Fe0 1.997 . S
O5 C21 1.235 . S
O6 Fe0 2.002 . S
O6 C7 1.295 . S
C7 O6 1.295 . S
C7 O9 1.235 . S
C8 O13 1.287 . S
C8 O14 1.255 . S
O9 Fe1 1.997 . S
O9 C7 1.235 . S
C10 O16 1.287 . S
C10 O17 1.255 . S
O11 Fe0 1.976 . S
O11 C18 1.287 . S
O12 Fe1 1.996 . S
O12 C18 1.255 . S
O13 Fe3 1.976 . S
O13 C8 1.287 . S
O14 Fe0 1.996 . S
O14 C8 1.255 . S
C15 O19 1.295 . S
C15 O20 1.235 . S
O16 Fe1 1.976 . S
O16 C10 1.287 . S
O17 Fe3 1.996 . S
O17 C10 1.255 . S
C18 O11 1.287 . S
C18 O12 1.255 . S
O19 Fe1 2.002 . S
O19 C15 1.295 . S
O20 Fe3 1.997 . S
O20 C15 1.235 . S
C21 O4 1.295 . S
C21 O5 1.235 . S
Fe22 O24 1.918 . S
Fe22 O27 1.997 . S
Fe22 O28 2.002 . S
Fe22 O33 1.976 . S
Fe22 O36 1.996 . S
Fe23 O24 1.918 . S
Fe23 O31 1.997 . S
Fe23 O34 1.996 . S
Fe23 O38 1.976 . S
Fe23 O41 2.002 . S
O24 Fe22 1.918 . S
O24 Fe23 1.918 . S
O24 Fe25 1.918 . S
Fe25 O24 1.918 . S
Fe25 O26 2.002 . S
Fe25 O35 1.976 . S
Fe25 O39 1.996 . S
Fe25 O42 1.997 . S
O26 Fe25 2.002 . S
O26 C43 1.295 . S
O27 Fe22 1.997 . S
O27 C43 1.235 . S
O28 Fe22 2.002 . S
O28 C29 1.295 . S
C29 O28 1.295 . S
C29 O31 1.235 . S
C30 O35 1.287 . S
C30 O36 1.255 . S
O31 Fe23 1.997 . S
O31 C29 1.235 . S
C32 O38 1.287 . S
C32 O39 1.255 . S
O33 Fe22 1.976 . S
O33 C40 1.287 . S
O34 Fe23 1.996 . S
O34 C40 1.255 . S
O35 Fe25 1.976 . S
O35 C30 1.287 . S
O36 Fe22 1.996 . S
O36 C30 1.255 . S
C37 O41 1.295 . S
C37 O42 1.235 . S
O38 Fe23 1.976 . S
O38 C32 1.287 . S
O39 Fe25 1.996 . S
O39 C32 1.255 . S
C40 O33 1.287 . S
C40 O34 1.255 . S
O41 Fe23 2.002 . S
O41 C37 1.295 . S
O42 Fe25 1.997 . S
O42 C37 1.235 . S
C43 O26 1.295 . S
C43 O27 1.235 . S
Fe44 O46 1.918 . S
Fe44 O49 1.997 . S
Fe44 O50 2.002 . S
Fe44 O55 1.976 . S
Fe44 O58 1.996 . S
Fe45 O46 1.918 . S
Fe45 O53 1.997 . S
Fe45 O56 1.996 . S
Fe45 O60 1.976 . S
Fe45 O63 2.002 . S
O46 Fe44 1.918 . S
O46 Fe45 1.918 . S
O46 Fe47 1.918 . S
Fe47 O46 1.918 . S
Fe47 O48 2.002 . S
Fe47 O57 1.976 . S
Fe47 O61 1.996 . S
Fe47 O64 1.997 . S
O48 Fe47 2.002 . S
O48 C65 1.295 . S
O49 Fe44 1.997 . S
O49 C65 1.235 . S
O50 Fe44 2.002 . S
O50 C51 1.295 . S
C51 O50 1.295 . S
C51 O53 1.235 . S
C52 O57 1.287 . S
C52 O58 1.255 . S
O53 Fe45 1.997 . S
O53 C51 1.235 . S
C54 O60 1.287 . S
C54 O61 1.255 . S
O55 Fe44 1.976 . S
O55 C62 1.287 . S
O56 Fe45 1.996 . S
O56 C62 1.255 . S
O57 Fe47 1.976 . S
O57 C52 1.287 . S
O58 Fe44 1.996 . S
O58 C52 1.255 . S
C59 O63 1.295 . S
C59 O64 1.235 . S
O60 Fe45 1.976 . S
O60 C54 1.287 . S
O61 Fe47 1.996 . S
O61 C54 1.255 . S
C62 O55 1.287 . S
C62 O56 1.255 . S
O63 Fe45 2.002 . S
O63 C59 1.295 . S
O64 Fe47 1.997 . S
O64 C59 1.235 . S
C65 O48 1.295 . S
C65 O49 1.235 . S
Fe66 O68 1.918 . S
Fe66 O71 1.997 . S
Fe66 O72 2.002 . S
Fe66 O77 1.976 . S
Fe66 O80 1.996 . S
Fe67 O68 1.918 . S
Fe67 O75 1.997 . S
Fe67 O78 1.996 . S
Fe67 O82 1.976 . S
Fe67 O85 2.002 . S
O68 Fe66 1.918 . S
O68 Fe67 1.918 . S
O68 Fe69 1.918 . S
Fe69 O68 1.918 . S
Fe69 O70 2.002 . S
Fe69 O79 1.976 . S
Fe69 O83 1.996 . S
Fe69 O86 1.997 . S
O70 Fe69 2.002 . S
O70 C87 1.295 . S
O71 Fe66 1.997 . S
O71 C87 1.235 . S
O72 Fe66 2.002 . S
O72 C73 1.295 . S
C73 O72 1.295 . S
C73 O75 1.235 . S
C74 O79 1.287 . S
C74 O80 1.255 . S
O75 Fe67 1.997 . S
O75 C73 1.235 . S
C76 O82 1.287 . S
C76 O83 1.255 . S
O77 Fe66 1.976 . S
O77 C84 1.287 . S
O78 Fe67 1.996 . S
O78 C84 1.255 . S
O79 Fe69 1.976 . S
O79 C74 1.287 . S
O80 Fe66 1.996 . S
O80 C74 1.255 . S
C81 O85 1.295 . S
C81 O86 1.235 . S
O82 Fe67 1.976 . S
O82 C76 1.287 . S
O83 Fe69 1.996 . S
O83 C76 1.255 . S
C84 O77 1.287 . S
C84 O78 1.255 . S
O85 Fe67 2.002 . S
O85 C81 1.295 . S
O86 Fe69 1.997 . S
O86 C81 1.235 . S
C87 O70 1.295 . S
C87 O71 1.235 . S
Fe88 O90 1.918 . S
Fe88 O93 1.997 . S
Fe88 O94 2.002 . S
Fe88 O99 1.976 . S
Fe88 O102 1.996 . S
Fe89 O90 1.918 . S
Fe89 O97 1.997 . S
Fe89 O100 1.996 . S
Fe89 O104 1.976 . S
Fe89 O107 2.002 . S
O90 Fe88 1.918 . S
O90 Fe89 1.918 . S
O90 Fe91 1.918 . S
Fe91 O90 1.918 . S
Fe91 O92 2.002 . S
Fe91 O101 1.976 . S
Fe91 O105 1.996 . S
Fe91 O108 1.997 . S
O92 Fe91 2.002 . S
O92 C109 1.295 . S
O93 Fe88 1.997 . S
O93 C109 1.235 . S
O94 Fe88 2.002 . S
O94 C95 1.295 . S
C95 O94 1.295 . S
C95 O97 1.235 . S
C96 O101 1.287 . S
C96 O102 1.255 . S
O97 Fe89 1.997 . S
O97 C95 1.235 . S
C98 O104 1.287 . S
C98 O105 1.255 . S
O99 Fe88 1.976 . S
O99 C106 1.287 . S
O100 Fe89 1.996 . S
O100 C106 1.255 . S
O101 Fe91 1.976 . S
O101 C96 1.287 . S
O102 Fe88 1.996 . S
O102 C96 1.255 . S
C103 O107 1.295 . S
C103 O108 1.235 . S
O104 Fe89 1.976 . S
O104 C98 1.287 . S
O105 Fe91 1.996 . S
O105 C98 1.255 . S
C106 O99 1.287 . S
C106 O100 1.255 . S
O107 Fe89 2.002 . S
O107 C103 1.295 . S
O108 Fe91 1.997 . S
O108 C103 1.235 . S
C109 O92 1.295 . S
C109 O93 1.235 . S
Fe110 O112 1.918 . S
Fe110 O115 1.997 . S
Fe110 O116 2.002 . S
Fe110 O121 1.976 . S
Fe110 O124 1.996 . S
Fe111 O112 1.918 . S
Fe111 O119 1.997 . S
Fe111 O122 1.996 . S
Fe111 O126 1.976 . S
Fe111 O129 2.002 . S
O112 Fe110 1.918 . S
O112 Fe111 1.918 . S
O112 Fe113 1.918 . S
Fe113 O112 1.918 . S
Fe113 O114 2.002 . S
Fe113 O123 1.976 . S
Fe113 O127 1.996 . S
Fe113 O130 1.997 . S
O114 Fe113 2.002 . S
O114 C131 1.295 . S
O115 Fe110 1.997 . S
O115 C131 1.235 . S
O116 Fe110 2.002 . S
O116 C117 1.295 . S
C117 O116 1.295 . S
C117 O119 1.235 . S
C118 O123 1.287 . S
C118 O124 1.255 . S
O119 Fe111 1.997 . S
O119 C117 1.235 . S
C120 O126 1.287 . S
C120 O127 1.255 . S
O121 Fe110 1.976 . S
O121 C128 1.287 . S
O122 Fe111 1.996 . S
O122 C128 1.255 . S
O123 Fe113 1.976 . S
O123 C118 1.287 . S
O124 Fe110 1.996 . S
O124 C118 1.255 . S
C125 O129 1.295 . S
C125 O130 1.235 . S
O126 Fe111 1.976 . S
O126 C120 1.287 . S
O127 Fe113 1.996 . S
O127 C120 1.255 . S
C128 O121 1.287 . S
C128 O122 1.255 . S
O129 Fe111 2.002 . S
O129 C125 1.295 . S
O130 Fe113 1.997 . S
O130 C125 1.235 . S
C131 O114 1.295 . S
C131 O115 1.235 . S
Fe132 O134 1.918 . S
Fe132 O137 1.997 . S
Fe132 O138 2.002 . S
Fe132 O143 1.976 . S
Fe132 O146 1.996 . S
Fe133 O134 1.918 . S
Fe133 O141 1.997 . S
Fe133 O144 1.996 . S
Fe133 O148 1.976 . S
Fe133 O151 2.002 . S
O134 Fe132 1.918 . S
O134 Fe133 1.918 . S
O134 Fe135 1.918 . S
Fe135 O134 1.918 . S
Fe135 O136 2.002 . S
Fe135 O145 1.976 . S
Fe135 O149 1.996 . S
Fe135 O152 1.997 . S
O136 Fe135 2.002 . S
O136 C153 1.295 . S
O137 Fe132 1.997 . S
O137 C153 1.235 . S
O138 Fe132 2.002 . S
O138 C139 1.295 . S
C139 O138 1.295 . S
C139 O141 1.235 . S
C140 O145 1.287 . S
C140 O146 1.255 . S
O141 Fe133 1.997 . S
O141 C139 1.235 . S
C142 O148 1.287 . S
C142 O149 1.255 . S
O143 Fe132 1.976 . S
O143 C150 1.287 . S
O144 Fe133 1.996 . S
O144 C150 1.255 . S
O145 Fe135 1.976 . S
O145 C140 1.287 . S
O146 Fe132 1.996 . S
O146 C140 1.255 . S
C147 O151 1.295 . S
C147 O152 1.235 . S
O148 Fe133 1.976 . S
O148 C142 1.287 . S
O149 Fe135 1.996 . S
O149 C142 1.255 . S
C150 O143 1.287 . S
C150 O144 1.255 . S
O151 Fe133 2.002 . S
O151 C147 1.295 . S
O152 Fe135 1.997 . S
O152 C147 1.235 . S
C153 O136 1.295 . S
C153 O137 1.235 . S
Fe154 O156 1.918 . S
Fe154 O159 1.997 . S
Fe154 O160 2.002 . S
Fe154 O165 1.976 . S
Fe154 O168 1.996 . S
Fe155 O156 1.918 . S
Fe155 O163 1.997 . S
Fe155 O166 1.996 . S
Fe155 O170 1.976 . S
Fe155 O173 2.002 . S
O156 Fe154 1.918 . S
O156 Fe155 1.918 . S
O156 Fe157 1.918 . S
Fe157 O156 1.918 . S
Fe157 O158 2.002 . S
Fe157 O167 1.976 . S
Fe157 O171 1.996 . S
Fe157 O174 1.997 . S
O158 Fe157 2.002 . S
O158 C175 1.295 . S
O159 Fe154 1.997 . S
O159 C175 1.235 . S
O160 Fe154 2.002 . S
O160 C161 1.295 . S
C161 O160 1.295 . S
C161 O163 1.235 . S
C162 O167 1.287 . S
C162 O168 1.255 . S
O163 Fe155 1.997 . S
O163 C161 1.235 . S
C164 O170 1.287 . S
C164 O171 1.255 . S
O165 Fe154 1.976 . S
O165 C172 1.287 . S
O166 Fe155 1.996 . S
O166 C172 1.255 . S
O167 Fe157 1.976 . S
O167 C162 1.287 . S
O168 Fe154 1.996 . S
O168 C162 1.255 . S
C169 O173 1.295 . S
C169 O174 1.235 . S
O170 Fe155 1.976 . S
O170 C164 1.287 . S
O171 Fe157 1.996 . S
O171 C164 1.255 . S
C172 O165 1.287 . S
C172 O166 1.255 . S
O173 Fe155 2.002 . S
O173 C169 1.295 . S
O174 Fe157 1.997 . S
O174 C169 1.235 . S
C175 O158 1.295 . S
C175 O159 1.235 . S
Fe176 O178 1.918 . S
Fe176 O181 1.997 . S
Fe176 O182 2.002 . S
Fe176 O187 1.976 . S
Fe176 O190 1.996 . S
Fe177 O178 1.918 . S
Fe177 O185 1.997 . S
Fe177 O188 1.996 . S
Fe177 O192 1.976 . S
Fe177 O195 2.002 . S
O178 Fe176 1.918 . S
O178 Fe177 1.918 . S
O178 Fe179 1.918 . S
Fe179 O178 1.918 . S
Fe179 O180 2.002 . S
Fe179 O189 1.976 . S
Fe179 O193 1.996 . S
Fe179 O196 1.997 . S
O180 Fe179 2.002 . S
O180 C197 1.295 . S
O181 Fe176 1.997 . S
O181 C197 1.235 . S
O182 Fe176 2.002 . S
O182 C183 1.295 . S
C183 O182 1.295 . S
C183 O185 1.235 . S
C184 O189 1.287 . S
C184 O190 1.255 . S
O185 Fe177 1.997 . S
O185 C183 1.235 . S
C186 O192 1.287 . S
C186 O193 1.255 . S
O187 Fe176 1.976 . S
O187 C194 1.287 . S
O188 Fe177 1.996 . S
O188 C194 1.255 . S
O189 Fe179 1.976 . S
O189 C184 1.287 . S
O190 Fe176 1.996 . S
O190 C184 1.255 . S
C191 O195 1.295 . S
C191 O196 1.235 . S
O192 Fe177 1.976 . S
O192 C186 1.287 . S
O193 Fe179 1.996 . S
O193 C186 1.255 . S
C194 O187 1.287 . S
C194 O188 1.255 . S
O195 Fe177 2.002 . S
O195 C191 1.295 . S
O196 Fe179 1.997 . S
O196 C191 1.235 . S
C197 O180 1.295 . S
C197 O181 1.235 . S
Fe198 O200 1.918 . S
Fe198 O203 1.997 . S
Fe198 O204 2.002 . S
Fe198 O209 1.976 . S
Fe198 O212 1.996 . S
Fe199 O200 1.918 . S
Fe199 O207 1.997 . S
Fe199 O210 1.996 . S
Fe199 O214 1.976 . S
Fe199 O217 2.002 . S
O200 Fe198 1.918 . S
O200 Fe199 1.918 . S
O200 Fe201 1.918 . S
Fe201 O200 1.918 . S
Fe201 O202 2.002 . S
Fe201 O211 1.976 . S
Fe201 O215 1.996 . S
Fe201 O218 1.997 . S
O202 Fe201 2.002 . S
O202 C219 1.295 1_545 S
O203 Fe198 1.997 . S
O203 C219 1.235 1_545 S
O204 Fe198 2.002 . S
O204 C205 1.295 . S
C205 O204 1.295 . S
C205 O207 1.235 . S
C206 O211 1.287 . S
C206 O212 1.255 . S
O207 Fe199 1.997 . S
O207 C205 1.235 . S
C208 O214 1.287 . S
C208 O215 1.255 . S
O209 Fe198 1.976 . S
O209 C216 1.287 . S
O210 Fe199 1.996 . S
O210 C216 1.255 . S
O211 Fe201 1.976 . S
O211 C206 1.287 . S
O212 Fe198 1.996 . S
O212 C206 1.255 . S
C213 O217 1.295 . S
C213 O218 1.235 . S
O214 Fe199 1.976 . S
O214 C208 1.287 . S
O215 Fe201 1.996 . S
O215 C208 1.255 . S
C216 O209 1.287 . S
C216 O210 1.255 . S
O217 Fe199 2.002 . S
O217 C213 1.295 . S
O218 Fe201 1.997 . S
O218 C213 1.235 . S
C219 O202 1.295 1_565 S
C219 O203 1.235 1_565 S
Fe220 O222 1.918 . S
Fe220 O225 1.997 . S
Fe220 O226 2.002 . S
Fe220 O231 1.976 . S
Fe220 O234 1.996 . S
Fe221 O222 1.918 . S
Fe221 O229 1.997 . S
Fe221 O232 1.996 . S
Fe221 O236 1.976 . S
Fe221 O239 2.002 . S
O222 Fe220 1.918 . S
O222 Fe221 1.918 . S
O222 Fe223 1.918 . S
Fe223 O222 1.918 . S
Fe223 O224 2.002 . S
Fe223 O233 1.976 . S
Fe223 O237 1.996 . S
Fe223 O240 1.997 . S
O224 Fe223 2.002 . S
O224 C241 1.295 . S
O225 Fe220 1.997 . S
O225 C241 1.235 . S
O226 Fe220 2.002 . S
O226 C227 1.295 . S
C227 O226 1.295 . S
C227 O229 1.235 . S
C228 O233 1.287 . S
C228 O234 1.255 . S
O229 Fe221 1.997 . S
O229 C227 1.235 . S
C230 O236 1.287 . S
C230 O237 1.255 . S
O231 Fe220 1.976 . S
O231 C238 1.287 . S
O232 Fe221 1.996 . S
O232 C238 1.255 . S
O233 Fe223 1.976 . S
O233 C228 1.287 . S
O234 Fe220 1.996 . S
O234 C228 1.255 . S
C235 O239 1.295 . S
C235 O240 1.235 . S
O236 Fe221 1.976 . S
O236 C230 1.287 . S
O237 Fe223 1.996 . S
O237 C230 1.255 . S
C238 O231 1.287 . S
C238 O232 1.255 . S
O239 Fe221 2.002 . S
O239 C235 1.295 . S
O240 Fe223 1.997 . S
O240 C235 1.235 . S
C241 O224 1.295 . S
C241 O225 1.235 . S
Fe242 O244 1.918 . S
Fe242 O247 1.997 . S
Fe242 O248 2.002 . S
Fe242 O253 1.976 . S
Fe242 O256 1.996 . S
Fe243 O244 1.918 . S
Fe243 O251 1.997 . S
Fe243 O254 1.996 . S
Fe243 O258 1.976 . S
Fe243 O261 2.002 . S
O244 Fe242 1.918 . S
O244 Fe243 1.918 . S
O244 Fe245 1.918 . S
Fe245 O244 1.918 . S
Fe245 O246 2.002 . S
Fe245 O255 1.976 . S
Fe245 O259 1.996 . S
Fe245 O262 1.997 . S
O246 Fe245 2.002 . S
O246 C263 1.295 . S
O247 Fe242 1.997 . S
O247 C263 1.235 . S
O248 Fe242 2.002 . S
O248 C249 1.295 . S
C249 O248 1.295 . S
C249 O251 1.235 . S
C250 O255 1.287 . S
C250 O256 1.255 . S
O251 Fe243 1.997 . S
O251 C249 1.235 . S
C252 O258 1.287 . S
C252 O259 1.255 . S
O253 Fe242 1.976 . S
O253 C260 1.287 1_565 S
O254 Fe243 1.996 . S
O254 C260 1.255 1_565 S
O255 Fe245 1.976 . S
O255 C250 1.287 . S
O256 Fe242 1.996 . S
O256 C250 1.255 . S
C257 O261 1.295 . S
C257 O262 1.235 . S
O258 Fe243 1.976 . S
O258 C252 1.287 . S
O259 Fe245 1.996 . S
O259 C252 1.255 . S
C260 O253 1.287 1_545 S
C260 O254 1.255 1_545 S
O261 Fe243 2.002 . S
O261 C257 1.295 . S
O262 Fe245 1.997 . S
O262 C257 1.235 . S
C263 O246 1.295 . S
C263 O247 1.235 . S
Fe264 O266 1.918 . S
Fe264 O269 1.997 . S
Fe264 O270 2.002 . S
Fe264 O275 1.976 . S
Fe264 O278 1.996 . S
Fe265 O266 1.918 . S
Fe265 O273 1.997 . S
Fe265 O276 1.996 . S
Fe265 O280 1.976 . S
Fe265 O283 2.002 . S
O266 Fe264 1.918 . S
O266 Fe265 1.918 . S
O266 Fe267 1.918 . S
Fe267 O266 1.918 . S
Fe267 O268 2.002 . S
Fe267 O277 1.976 . S
Fe267 O281 1.996 . S
Fe267 O284 1.997 . S
O268 Fe267 2.002 . S
O268 C285 1.295 . S
O269 Fe264 1.997 . S
O269 C285 1.235 . S
O270 Fe264 2.002 . S
O270 C271 1.295 . S
C271 O270 1.295 . S
C271 O273 1.235 . S
C272 O277 1.287 . S
C272 O278 1.255 . S
O273 Fe265 1.997 . S
O273 C271 1.235 . S
C274 O280 1.287 . S
C274 O281 1.255 . S
O275 Fe264 1.976 . S
O275 C282 1.287 . S
O276 Fe265 1.996 . S
O276 C282 1.255 . S
O277 Fe267 1.976 . S
O277 C272 1.287 . S
O278 Fe264 1.996 . S
O278 C272 1.255 . S
C279 O283 1.295 . S
C279 O284 1.235 . S
O280 Fe265 1.976 . S
O280 C274 1.287 . S
O281 Fe267 1.996 . S
O281 C274 1.255 . S
C282 O275 1.287 . S
C282 O276 1.255 . S
O283 Fe265 2.002 . S
O283 C279 1.295 . S
O284 Fe267 1.997 . S
O284 C279 1.235 . S
C285 O268 1.295 . S
C285 O269 1.235 . S
Fe286 O288 1.918 . S
Fe286 O291 1.997 . S
Fe286 O292 2.002 . S
Fe286 O297 1.976 . S
Fe286 O300 1.996 . S
Fe287 O288 1.918 . S
Fe287 O295 1.997 . S
Fe287 O298 1.996 . S
Fe287 O302 1.976 . S
Fe287 O305 2.002 . S
O288 Fe286 1.918 . S
O288 Fe287 1.918 . S
O288 Fe289 1.918 . S
Fe289 O288 1.918 . S
Fe289 O290 2.002 . S
Fe289 O299 1.976 . S
Fe289 O303 1.996 . S
Fe289 O306 1.997 . S
O290 Fe289 2.002 . S
O290 C307 1.295 . S
O291 Fe286 1.997 . S
O291 C307 1.235 . S
O292 Fe286 2.002 . S
O292 C293 1.295 . S
C293 O292 1.295 . S
C293 O295 1.235 . S
C294 O299 1.287 1_545 S
C294 O300 1.255 1_545 S
O295 Fe287 1.997 . S
O295 C293 1.235 . S
C296 O302 1.287 . S
C296 O303 1.255 . S
O297 Fe286 1.976 . S
O297 C304 1.287 . S
O298 Fe287 1.996 . S
O298 C304 1.255 . S
O299 Fe289 1.976 . S
O299 C294 1.287 1_565 S
O300 Fe286 1.996 . S
O300 C294 1.255 1_565 S
C301 O305 1.295 . S
C301 O306 1.235 . S
O302 Fe287 1.976 . S
O302 C296 1.287 . S
O303 Fe289 1.996 . S
O303 C296 1.255 . S
C304 O297 1.287 . S
C304 O298 1.255 . S
O305 Fe287 2.002 . S
O305 C301 1.295 . S
O306 Fe289 1.997 . S
O306 C301 1.235 . S
C307 O290 1.295 . S
C307 O291 1.235 . S
Fe308 O310 1.918 . S
Fe308 O313 1.997 . S
Fe308 O314 2.002 . S
Fe308 O319 1.976 . S
Fe308 O322 1.996 . S
Fe309 O310 1.918 . S
Fe309 O317 1.997 . S
Fe309 O320 1.996 . S
Fe309 O324 1.976 . S
Fe309 O327 2.002 . S
O310 Fe308 1.918 . S
O310 Fe309 1.918 . S
O310 Fe311 1.918 . S
Fe311 O310 1.918 . S
Fe311 O312 2.002 . S
Fe311 O321 1.976 . S
Fe311 O325 1.996 . S
Fe311 O328 1.997 . S
O312 Fe311 2.002 . S
O312 C329 1.295 . S
O313 Fe308 1.997 . S
O313 C329 1.235 . S
O314 Fe308 2.002 . S
O314 C315 1.295 . S
C315 O314 1.295 . S
C315 O317 1.235 . S
C316 O321 1.287 . S
C316 O322 1.255 . S
O317 Fe309 1.997 . S
O317 C315 1.235 . S
C318 O324 1.287 . S
C318 O325 1.255 . S
O319 Fe308 1.976 . S
O319 C326 1.287 . S
O320 Fe309 1.996 . S
O320 C326 1.255 . S
O321 Fe311 1.976 . S
O321 C316 1.287 . S
O322 Fe308 1.996 . S
O322 C316 1.255 . S
C323 O327 1.295 . S
C323 O328 1.235 . S
O324 Fe309 1.976 . S
O324 C318 1.287 . S
O325 Fe311 1.996 . S
O325 C318 1.255 . S
C326 O319 1.287 . S
C326 O320 1.255 . S
O327 Fe309 2.002 . S
O327 C323 1.295 . S
O328 Fe311 1.997 . S
O328 C323 1.235 . S
C329 O312 1.295 . S
C329 O313 1.235 . S
Fe330 O332 1.918 . S
Fe330 O335 1.997 . S
Fe330 O336 2.002 . S
Fe330 O341 1.976 . S
Fe330 O344 1.996 . S
Fe331 O332 1.918 . S
Fe331 O339 1.997 . S
Fe331 O342 1.996 . S
Fe331 O346 1.976 . S
Fe331 O349 2.002 . S
O332 Fe330 1.918 . S
O332 Fe331 1.918 . S
O332 Fe333 1.918 . S
Fe333 O332 1.918 . S
Fe333 O334 2.002 . S
Fe333 O343 1.976 . S
Fe333 O347 1.996 . S
Fe333 O350 1.997 . S
O334 Fe333 2.002 . S
O334 C351 1.295 . S
O335 Fe330 1.997 . S
O335 C351 1.235 . S
O336 Fe330 2.002 . S
O336 C337 1.295 . S
C337 O336 1.295 . S
C337 O339 1.235 . S
C338 O343 1.287 1_565 S
C338 O344 1.255 1_565 S
O339 Fe331 1.997 . S
O339 C337 1.235 . S
C340 O346 1.287 . S
C340 O347 1.255 . S
O341 Fe330 1.976 . S
O341 C348 1.287 . S
O342 Fe331 1.996 . S
O342 C348 1.255 . S
O343 Fe333 1.976 . S
O343 C338 1.287 1_545 S
O344 Fe330 1.996 . S
O344 C338 1.255 1_545 S
C345 O349 1.295 . S
C345 O350 1.235 . S
O346 Fe331 1.976 . S
O346 C340 1.287 . S
O347 Fe333 1.996 . S
O347 C340 1.255 . S
C348 O341 1.287 . S
C348 O342 1.255 . S
O349 Fe331 2.002 . S
O349 C345 1.295 . S
O350 Fe333 1.997 . S
O350 C345 1.235 . S
C351 O334 1.295 . S
C351 O335 1.235 . S
H352 C358 0.930 . S
H353 C362 0.930 . S
H354 C367 0.929 . S
H355 C365 0.929 . S
H356 C360 0.929 . S
H357 C366 0.929 . S
C358 H352 0.930 . S
C358 C359 1.367 . S
C358 C366 1.378 . S
C359 C358 1.367 . S
C359 C367 1.433 . S
C360 H356 0.929 . S
C360 C362 1.378 . S
C360 C364 1.350 . S
C361 C364 1.463 . S
C361 C366 1.350 . S
C361 N369 1.427 . S
C362 H353 0.930 . S
C362 C360 1.378 . S
C362 C363 1.367 . S
C363 C362 1.367 . S
C363 C365 1.433 . S
C364 C360 1.350 . S
C364 C361 1.463 . S
C364 N368 1.427 . S
C365 H355 0.929 . S
C365 C363 1.433 . S
C365 N368 1.384 . S
C366 H357 0.929 . S
C366 C358 1.378 . S
C366 C361 1.350 . S
C367 H354 0.929 . S
C367 C359 1.433 . S
C367 N369 1.384 . S
N368 C364 1.427 . S
N368 C365 1.384 . S
N369 C361 1.427 . S
N369 C367 1.384 . S
H370 C376 0.930 . S
H371 C380 0.930 . S
H372 C385 0.929 . S
H373 C383 0.929 . S
H374 C378 0.929 . S
H375 C384 0.929 . S
C376 H370 0.930 . S
C376 C377 1.367 . S
C376 C384 1.378 . S
C377 C376 1.367 . S
C377 C385 1.433 . S
C378 H374 0.929 . S
C378 C380 1.378 . S
C378 C382 1.350 . S
C379 C382 1.463 . S
C379 C384 1.350 . S
C379 N387 1.427 . S
C380 H371 0.930 . S
C380 C378 1.378 . S
C380 C381 1.367 . S
C381 C380 1.367 . S
C381 C383 1.433 . S
C382 C378 1.350 . S
C382 C379 1.463 . S
C382 N386 1.427 . S
C383 H373 0.929 . S
C383 C381 1.433 . S
C383 N386 1.384 . S
C384 H375 0.929 . S
C384 C376 1.378 . S
C384 C379 1.350 . S
C385 H372 0.929 . S
C385 C377 1.433 . S
C385 N387 1.384 . S
N386 C382 1.427 . S
N386 C383 1.384 . S
N387 C379 1.427 . S
N387 C385 1.384 . S
H388 C394 0.930 . S
H389 C398 0.930 . S
H390 C403 0.929 . S
H391 C401 0.929 . S
H392 C396 0.929 . S
H393 C402 0.929 . S
C394 H388 0.930 . S
C394 C395 1.367 . S
C394 C402 1.378 . S
C395 C394 1.367 . S
C395 C403 1.433 . S
C396 H392 0.929 . S
C396 C398 1.378 . S
C396 C400 1.350 . S
C397 C400 1.463 1_455 S
C397 C402 1.350 . S
C397 N405 1.427 . S
C398 H389 0.930 . S
C398 C396 1.378 . S
C398 C399 1.367 . S
C399 C398 1.367 . S
C399 C401 1.433 . S
C400 C396 1.350 . S
C400 C397 1.463 1_655 S
C400 N404 1.427 . S
C401 H391 0.929 . S
C401 C399 1.433 . S
C401 N404 1.384 . S
C402 H393 0.929 . S
C402 C394 1.378 . S
C402 C397 1.350 . S
C403 H390 0.929 . S
C403 C395 1.433 . S
C403 N405 1.384 . S
N404 C400 1.427 . S
N404 C401 1.384 . S
N405 C397 1.427 . S
N405 C403 1.384 . S
H406 C412 0.930 . S
H407 C416 0.930 . S
H408 C421 0.929 . S
H409 C419 0.929 . S
H410 C414 0.929 1_455 S
H411 C420 0.913 1_655 S
C412 H406 0.930 . S
C412 C413 1.367 . S
C412 C420 1.390 . S
C413 C412 1.367 . S
C413 C421 1.433 . S
C414 H410 0.929 1_655 S
C414 C416 1.378 . S
C414 C418 1.350 . S
C415 C418 1.463 1_455 S
C415 C420 1.354 . S
C415 N423 1.427 . S
C416 H407 0.930 . S
C416 C414 1.378 . S
C416 C417 1.367 . S
C417 C416 1.367 . S
C417 C419 1.433 . S
C418 C414 1.350 . S
C418 C415 1.463 1_655 S
C418 N422 1.427 . S
C419 H409 0.929 . S
C419 C417 1.433 . S
C419 N422 1.384 . S
C420 H411 0.913 1_455 S
C420 C412 1.390 . S
C420 C415 1.354 . S
C421 H408 0.929 . S
C421 C413 1.433 . S
C421 N423 1.384 . S
N422 C418 1.427 . S
N422 C419 1.384 . S
N423 C415 1.427 . S
N423 C421 1.384 . S
H424 C430 0.930 . S
H425 C434 0.930 . S
H426 C439 0.929 . S
H427 C437 0.929 . S
H428 C432 0.929 . S
H429 C438 0.929 . S
C430 H424 0.930 . S
C430 C431 1.367 . S
C430 C438 1.378 . S
C431 C430 1.367 . S
C431 C439 1.433 . S
C432 H428 0.929 . S
C432 C434 1.378 . S
C432 C436 1.350 . S
C433 C436 1.463 . S
C433 C438 1.350 . S
C433 N441 1.427 . S
C434 H425 0.930 . S
C434 C432 1.378 . S
C434 C435 1.367 . S
C435 C434 1.367 . S
C435 C437 1.433 . S
C436 C432 1.350 . S
C436 C433 1.463 . S
C436 N440 1.427 . S
C437 H427 0.929 . S
C437 C435 1.433 . S
C437 N440 1.384 . S
C438 H429 0.929 . S
C438 C430 1.378 . S
C438 C433 1.350 . S
C439 H426 0.929 . S
C439 C431 1.433 . S
C439 N441 1.384 . S
N440 C436 1.427 . S
N440 C437 1.384 . S
N441 C433 1.427 . S
N441 C439 1.384 . S
H442 C448 0.930 . S
H443 C452 0.930 . S
H444 C457 0.929 . S
H445 C455 0.929 . S
H446 C450 0.929 . S
H447 C456 0.929 . S
C448 H442 0.930 . S
C448 C449 1.367 . S
C448 C456 1.378 . S
C449 C448 1.367 . S
C449 C457 1.433 . S
C450 H446 0.929 . S
C450 C452 1.378 . S
C450 C454 1.350 . S
C451 C454 1.463 . S
C451 C456 1.350 . S
C451 N459 1.427 . S
C452 H443 0.930 . S
C452 C450 1.378 . S
C452 C453 1.367 . S
C453 C452 1.367 . S
C453 C455 1.433 . S
C454 C450 1.350 . S
C454 C451 1.463 . S
C454 N458 1.427 . S
C455 H445 0.929 . S
C455 C453 1.433 . S
C455 N458 1.384 . S
C456 H447 0.929 . S
C456 C448 1.378 . S
C456 C451 1.350 . S
C457 H444 0.929 . S
C457 C449 1.433 . S
C457 N459 1.384 . S
N458 C454 1.427 . S
N458 C455 1.384 . S
N459 C451 1.427 . S
N459 C457 1.384 . S
H460 C466 0.930 . S
H461 C470 0.930 . S
H462 C475 0.929 . S
H463 C473 0.929 . S
H464 C468 0.929 . S
H465 C474 0.929 . S
C466 H460 0.930 . S
C466 C467 1.367 . S
C466 C474 1.378 . S
C467 C466 1.367 . S
C467 C475 1.433 . S
C468 H464 0.929 . S
C468 C470 1.378 . S
C468 C472 1.350 . S
C469 C472 1.463 1_455 S
C469 C474 1.350 . S
C469 N477 1.427 . S
C470 H461 0.930 . S
C470 C468 1.378 . S
C470 C471 1.367 . S
C471 C470 1.367 . S
C471 C473 1.433 . S
C472 C468 1.350 . S
C472 C469 1.463 1_655 S
C472 N476 1.427 . S
C473 H463 0.929 . S
C473 C471 1.433 . S
C473 N476 1.384 . S
C474 H465 0.929 . S
C474 C466 1.378 . S
C474 C469 1.350 . S
C475 H462 0.929 . S
C475 C467 1.433 . S
C475 N477 1.384 . S
N476 C472 1.427 . S
N476 C473 1.384 . S
N477 C469 1.427 . S
N477 C475 1.384 . S
H478 C484 0.930 . S
H479 C488 0.930 . S
H480 C493 0.929 . S
H481 C491 0.929 . S
H482 C486 0.929 . S
H483 C492 0.929 . S
C484 H478 0.930 . S
C484 C485 1.367 . S
C484 C492 1.378 . S
C485 C484 1.367 . S
C485 C493 1.433 . S
C486 H482 0.929 . S
C486 C488 1.378 . S
C486 C490 1.350 . S
C487 C490 1.463 1_455 S
C487 C492 1.350 . S
C487 N495 1.427 . S
C488 H479 0.930 . S
C488 C486 1.378 . S
C488 C489 1.367 . S
C489 C488 1.367 . S
C489 C491 1.433 . S
C490 C486 1.350 . S
C490 C487 1.463 1_655 S
C490 N494 1.427 . S
C491 H481 0.929 . S
C491 C489 1.433 . S
C491 N494 1.384 . S
C492 H483 0.929 . S
C492 C484 1.378 . S
C492 C487 1.350 . S
C493 H480 0.929 . S
C493 C485 1.433 . S
C493 N495 1.384 . S
N494 C490 1.427 . S
N494 C491 1.384 . S
N495 C487 1.427 . S
N495 C493 1.384 . S
H496 C502 0.930 . S
H497 C506 0.930 . S
H498 C511 0.929 . S
H499 C509 0.929 . S
H500 C504 0.929 1_544 S
H501 C510 0.929 1_566 S
C502 H496 0.930 . S
C502 C503 1.367 . S
C502 C510 1.378 . S
C503 C502 1.367 . S
C503 C511 1.433 . S
C504 H500 0.929 1_566 S
C504 C506 1.378 . S
C504 C508 1.350 . S
C505 C508 1.463 1_544 S
C505 C510 1.350 . S
C505 N513 1.427 . S
C506 H497 0.930 . S
C506 C504 1.378 . S
C506 C507 1.367 . S
C507 C506 1.367 . S
C507 C509 1.433 . S
C508 C504 1.350 . S
C508 C505 1.463 1_566 S
C508 N512 1.427 . S
C509 H499 0.929 . S
C509 C507 1.433 . S
C509 N512 1.384 . S
C510 H501 0.929 1_544 S
C510 C502 1.378 . S
C510 C505 1.350 . S
C511 H498 0.929 . S
C511 C503 1.433 . S
C511 N513 1.384 . S
N512 C508 1.427 . S
N512 C509 1.384 . S
N513 C505 1.427 . S
N513 C511 1.384 . S
H514 C520 0.930 . S
H515 C524 0.930 . S
H516 C529 0.929 . S
H517 C527 0.929 . S
H518 C522 0.929 . S
H519 C528 0.929 . S
C520 H514 0.930 . S
C520 C521 1.367 . S
C520 C528 1.378 . S
C521 C520 1.367 . S
C521 C529 1.433 . S
C522 H518 0.929 . S
C522 C524 1.378 . S
C522 C526 1.350 . S
C523 C526 1.463 . S
C523 C528 1.350 . S
C523 N531 1.427 . S
C524 H515 0.930 . S
C524 C522 1.378 . S
C524 C525 1.367 . S
C525 C524 1.367 . S
C525 C527 1.433 . S
C526 C522 1.350 . S
C526 C523 1.463 . S
C526 N530 1.427 . S
C527 H517 0.929 . S
C527 C525 1.433 . S
C527 N530 1.384 . S
C528 H519 0.929 . S
C528 C520 1.378 . S
C528 C523 1.350 . S
C529 H516 0.929 . S
C529 C521 1.433 . S
C529 N531 1.384 . S
N530 C526 1.427 . S
N530 C527 1.384 . S
N531 C523 1.427 . S
N531 C529 1.384 . S
H532 C538 0.930 . S
H533 C542 0.930 . S
H534 C547 0.929 . S
H535 C545 0.929 . S
H536 C540 0.929 . S
H537 C546 0.929 . S
C538 H532 0.930 . S
C538 C539 1.367 . S
C538 C546 1.378 1_565 S
C539 C538 1.367 . S
C539 C547 1.433 . S
C540 H536 0.929 . S
C540 C542 1.378 1_565 S
C540 C544 1.350 1_565 S
C541 C544 1.463 1_465 S
C541 C546 1.350 1_565 S
C541 N549 1.427 . S
C542 H533 0.930 . S
C542 C540 1.378 1_545 S
C542 C543 1.367 . S
C543 C542 1.367 . S
C543 C545 1.433 . S
C544 C540 1.350 1_545 S
C544 C541 1.463 1_645 S
C544 N548 1.427 . S
C545 H535 0.929 . S
C545 C543 1.433 . S
C545 N548 1.384 . S
C546 H537 0.929 . S
C546 C538 1.378 1_545 S
C546 C541 1.350 1_545 S
C547 H534 0.929 . S
C547 C539 1.433 . S
C547 N549 1.384 . S
N548 C544 1.427 . S
N548 C545 1.384 . S
N549 C541 1.427 . S
N549 C547 1.384 . S
H550 C556 0.930 . S
H551 C560 0.930 . S
H552 C565 0.929 . S
H553 C563 0.929 . S
H554 C558 0.929 . S
H555 C564 0.929 . S
C556 H550 0.930 . S
C556 C557 1.367 . S
C556 C564 1.378 . S
C557 C556 1.367 . S
C557 C565 1.433 . S
C558 H554 0.929 . S
C558 C560 1.378 . S
C558 C562 1.350 . S
C559 C562 1.463 . S
C559 C564 1.350 . S
C559 N567 1.427 . S
C560 H551 0.930 . S
C560 C558 1.378 . S
C560 C561 1.367 . S
C561 C560 1.367 . S
C561 C563 1.433 . S
C562 C558 1.350 . S
C562 C559 1.463 . S
C562 N566 1.427 . S
C563 H553 0.929 . S
C563 C561 1.433 . S
C563 N566 1.384 . S
C564 H555 0.929 . S
C564 C556 1.378 . S
C564 C559 1.350 . S
C565 H552 0.929 . S
C565 C557 1.433 . S
C565 N567 1.384 . S
N566 C562 1.427 . S
N566 C563 1.384 . S
N567 C559 1.427 . S
N567 C565 1.384 . S
H568 C574 0.930 . S
H569 C578 0.930 . S
H570 C583 0.929 . S
H571 C581 0.929 . S
H572 C576 0.929 . S
H573 C582 0.929 . S
C574 H568 0.930 . S
C574 C575 1.367 . S
C574 C582 1.378 . S
C575 C574 1.367 . S
C575 C583 1.433 . S
C576 H572 0.929 . S
C576 C578 1.378 . S
C576 C580 1.350 . S
C577 C580 1.463 . S
C577 C582 1.350 . S
C577 N585 1.427 . S
C578 H569 0.930 . S
C578 C576 1.378 . S
C578 C579 1.367 . S
C579 C578 1.367 . S
C579 C581 1.433 . S
C580 C576 1.350 . S
C580 C577 1.463 . S
C580 N584 1.427 . S
C581 H571 0.929 . S
C581 C579 1.433 . S
C581 N584 1.384 . S
C582 H573 0.929 . S
C582 C574 1.378 . S
C582 C577 1.350 . S
C583 H570 0.929 . S
C583 C575 1.433 . S
C583 N585 1.384 . S
N584 C580 1.427 . S
N584 C581 1.384 . S
N585 C577 1.427 . S
N585 C583 1.384 . S
H586 C592 0.930 . S
H587 C596 0.930 . S
H588 C601 0.929 . S
H589 C599 0.929 . S
H590 C594 0.929 . S
H591 C600 0.929 . S
C592 H586 0.930 . S
C592 C593 1.367 . S
C592 C600 1.378 . S
C593 C592 1.367 . S
C593 C601 1.433 . S
C594 H590 0.929 . S
C594 C596 1.378 . S
C594 C598 1.350 . S
C595 C598 1.463 . S
C595 C600 1.350 . S
C595 N603 1.427 . S
C596 H587 0.930 . S
C596 C594 1.378 . S
C596 C597 1.367 . S
C597 C596 1.367 . S
C597 C599 1.433 . S
C598 C594 1.350 . S
C598 C595 1.463 . S
C598 N602 1.427 . S
C599 H589 0.929 . S
C599 C597 1.433 . S
C599 N602 1.384 . S
C600 H591 0.929 . S
C600 C592 1.378 . S
C600 C595 1.350 . S
C601 H588 0.929 . S
C601 C593 1.433 . S
C601 N603 1.384 . S
N602 C598 1.427 . S
N602 C599 1.384 . S
N603 C595 1.427 . S
N603 C601 1.384 . S
H604 C610 0.930 . S
H605 C614 0.930 . S
H606 C619 0.929 . S
H607 C617 0.929 . S
H608 C612 0.929 . S
H609 C618 0.929 . S
C610 H604 0.930 . S
C610 C611 1.367 . S
C610 C618 1.378 . S
C611 C610 1.367 . S
C611 C619 1.433 . S
C612 H608 0.929 . S
C612 C614 1.378 . S
C612 C616 1.350 . S
C613 C616 1.463 1_455 S
C613 C618 1.350 . S
C613 N621 1.427 . S
C614 H605 0.930 . S
C614 C612 1.378 . S
C614 C615 1.367 . S
C615 C614 1.367 . S
C615 C617 1.433 . S
C616 C612 1.350 . S
C616 C613 1.463 1_655 S
C616 N620 1.427 . S
C617 H607 0.929 . S
C617 C615 1.433 . S
C617 N620 1.384 . S
C618 H609 0.929 . S
C618 C610 1.378 . S
C618 C613 1.350 . S
C619 H606 0.929 . S
C619 C611 1.433 . S
C619 N621 1.384 . S
N620 C616 1.427 . S
N620 C617 1.384 . S
N621 C613 1.427 . S
N621 C619 1.384 . S
H622 C628 0.930 . S
H623 C632 0.930 . S
H624 C637 0.929 . S
H625 C635 0.929 . S
H626 C630 0.929 . S
H627 C636 0.929 . S
C628 H622 0.930 . S
C628 C629 1.367 . S
C628 C636 1.378 1_554 S
C629 C628 1.367 . S
C629 C637 1.433 . S
C630 H626 0.929 . S
C630 C632 1.378 1_554 S
C630 C634 1.350 1_554 S
C631 C634 1.463 1_554 S
C631 C636 1.350 1_554 S
C631 N639 1.427 . S
C632 H623 0.930 . S
C632 C630 1.378 1_556 S
C632 C633 1.367 . S
C633 C632 1.367 . S
C633 C635 1.433 . S
C634 C630 1.350 1_556 S
C634 C631 1.463 1_556 S
C634 N638 1.427 . S
C635 H625 0.929 . S
C635 C633 1.433 . S
C635 N638 1.384 . S
C636 H627 0.929 . S
C636 C628 1.378 1_556 S
C636 C631 1.350 1_556 S
C637 H624 0.929 . S
C637 C629 1.433 . S
C637 N639 1.384 . S
N638 C634 1.427 . S
N638 C635 1.384 . S
N639 C631 1.427 . S
N639 C637 1.384 . S
H640 C646 0.930 . S
H641 C650 0.930 . S
H642 C655 0.929 . S
H643 C653 0.929 . S
H644 C648 0.929 . S
H645 C654 0.929 . S
C646 H640 0.930 . S
C646 C647 1.367 . S
C646 C654 1.378 . S
C647 C646 1.367 . S
C647 C655 1.433 . S
C648 H644 0.929 . S
C648 C650 1.378 . S
C648 C652 1.350 . S
C649 C652 1.463 . S
C649 C654 1.350 . S
C649 N657 1.427 . S
C650 H641 0.930 . S
C650 C648 1.378 . S
C650 C651 1.367 . S
C651 C650 1.367 . S
C651 C653 1.433 . S
C652 C648 1.350 . S
C652 C649 1.463 . S
C652 N656 1.427 . S
C653 H643 0.929 . S
C653 C651 1.433 . S
C653 N656 1.384 . S
C654 H645 0.929 . S
C654 C646 1.378 . S
C654 C649 1.350 . S
C655 H642 0.929 . S
C655 C647 1.433 . S
C655 N657 1.384 . S
N656 C652 1.427 . S
N656 C653 1.384 . S
N657 C649 1.427 . S
N657 C655 1.384 . S
H658 C664 0.930 . S
H659 C668 0.930 . S
H660 C673 0.929 . S
H661 C671 0.929 . S
H662 C666 0.929 . S
H663 C672 0.929 . S
C664 H658 0.930 . S
C664 C665 1.367 . S
C664 C672 1.378 . S
C665 C664 1.367 . S
C665 C673 1.433 . S
C666 H662 0.929 . S
C666 C668 1.378 . S
C666 C670 1.350 . S
C667 C670 1.463 . S
C667 C672 1.350 . S
C667 N675 1.427 . S
C668 H659 0.930 . S
C668 C666 1.378 . S
C668 C669 1.367 . S
C669 C668 1.367 . S
C669 C671 1.433 . S
C670 C666 1.350 . S
C670 C667 1.463 . S
C670 N674 1.427 . S
C671 H661 0.929 . S
C671 C669 1.433 . S
C671 N674 1.384 . S
C672 H663 0.929 . S
C672 C664 1.378 . S
C672 C667 1.350 . S
C673 H660 0.929 . S
C673 C665 1.433 . S
C673 N675 1.384 . S
N674 C670 1.427 . S
N674 C671 1.384 . S
N675 C667 1.427 . S
N675 C673 1.384 . S
H676 C682 0.930 . S
H677 C686 0.930 . S
H678 C691 0.929 . S
H679 C689 0.929 . S
H680 C684 0.929 . S
H681 C690 0.929 . S
C682 H676 0.930 . S
C682 C683 1.367 . S
C682 C690 1.378 . S
C683 C682 1.367 . S
C683 C691 1.433 . S
C684 H680 0.929 . S
C684 C686 1.378 . S
C684 C688 1.350 . S
C685 C688 1.463 . S
C685 C690 1.350 . S
C685 N693 1.427 . S
C686 H677 0.930 . S
C686 C684 1.378 . S
C686 C687 1.367 . S
C687 C686 1.367 . S
C687 C689 1.433 . S
C688 C684 1.350 . S
C688 C685 1.463 . S
C688 N692 1.427 . S
C689 H679 0.929 . S
C689 C687 1.433 . S
C689 N692 1.384 . S
C690 H681 0.929 . S
C690 C682 1.378 . S
C690 C685 1.350 . S
C691 H678 0.929 . S
C691 C683 1.433 . S
C691 N693 1.384 . S
N692 C688 1.427 . S
N692 C689 1.384 . S
N693 C685 1.427 . S
N693 C691 1.384 . S
H694 C700 0.930 . S
H695 C704 0.930 . S
H696 C709 0.929 . S
H697 C707 0.929 . S
H698 C702 0.929 . S
H699 C708 0.929 . S
C700 H694 0.930 . S
C700 C701 1.367 . S
C700 C708 1.378 . S
C701 C700 1.367 . S
C701 C709 1.433 . S
C702 H698 0.929 . S
C702 C704 1.378 . S
C702 C706 1.350 . S
C703 C706 1.463 . S
C703 C708 1.350 . S
C703 N711 1.427 . S
C704 H695 0.930 . S
C704 C702 1.378 . S
C704 C705 1.367 . S
C705 C704 1.367 . S
C705 C707 1.433 . S
C706 C702 1.350 . S
C706 C703 1.463 . S
C706 N710 1.427 . S
C707 H697 0.929 . S
C707 C705 1.433 . S
C707 N710 1.384 . S
C708 H699 0.929 . S
C708 C700 1.378 . S
C708 C703 1.350 . S
C709 H696 0.929 . S
C709 C701 1.433 . S
C709 N711 1.384 . S
N710 C706 1.427 . S
N710 C707 1.384 . S
N711 C703 1.427 . S
N711 C709 1.384 . S
H712 C718 0.930 . S
H713 C722 0.930 . S
H714 C727 0.929 . S
H715 C725 0.929 . S
H716 C720 0.929 . S
H717 C726 0.929 . S
C718 H712 0.930 . S
C718 C719 1.367 . S
C718 C726 1.378 . S
C719 C718 1.367 . S
C719 C727 1.433 . S
C720 H716 0.929 . S
C720 C722 1.378 . S
C720 C724 1.350 . S
C721 C724 1.463 . S
C721 C726 1.350 . S
C721 N729 1.427 . S
C722 H713 0.930 . S
C722 C720 1.378 . S
C722 C723 1.367 . S
C723 C722 1.367 . S
C723 C725 1.433 . S
C724 C720 1.350 . S
C724 C721 1.463 . S
C724 N728 1.427 . S
C725 H715 0.929 . S
C725 C723 1.433 . S
C725 N728 1.384 . S
C726 H717 0.929 . S
C726 C718 1.378 . S
C726 C721 1.350 . S
C727 H714 0.929 . S
C727 C719 1.433 . S
C727 N729 1.384 . S
N728 C724 1.427 . S
N728 C725 1.384 . S
N729 C721 1.427 . S
N729 C727 1.384 . S
H730 C736 0.930 . S
H731 C740 0.930 . S
H732 C745 0.929 . S
H733 C743 0.929 . S
H734 C738 0.929 . S
H735 C744 0.929 . S
C736 H730 0.930 . S
C736 C737 1.367 . S
C736 C744 1.378 . S
C737 C736 1.367 . S
C737 C745 1.433 . S
C738 H734 0.929 . S
C738 C740 1.378 . S
C738 C742 1.350 . S
C739 C742 1.463 . S
C739 C744 1.350 . S
C739 N747 1.427 . S
C740 H731 0.930 . S
C740 C738 1.378 . S
C740 C741 1.367 . S
C741 C740 1.367 . S
C741 C743 1.433 . S
C742 C738 1.350 . S
C742 C739 1.463 . S
C742 N746 1.427 . S
C743 H733 0.929 . S
C743 C741 1.433 . S
C743 N746 1.384 . S
C744 H735 0.929 . S
C744 C736 1.378 . S
C744 C739 1.350 . S
C745 H732 0.929 . S
C745 C737 1.433 . S
C745 N747 1.384 . S
N746 C742 1.427 . S
N746 C743 1.384 . S
N747 C739 1.427 . S
N747 C745 1.384 . S
H748 C754 0.930 . S
H749 C758 0.930 . S
H750 C763 0.929 . S
H751 C761 0.929 . S
H752 C756 0.929 . S
H753 C762 0.929 . S
C754 H748 0.930 . S
C754 C755 1.367 . S
C754 C762 1.378 . S
C755 C754 1.367 . S
C755 C763 1.433 . S
C756 H752 0.929 . S
C756 C758 1.378 . S
C756 C760 1.350 . S
C757 C760 1.463 . S
C757 C762 1.350 . S
C757 N765 1.427 . S
C758 H749 0.930 . S
C758 C756 1.378 . S
C758 C759 1.367 . S
C759 C758 1.367 . S
C759 C761 1.433 . S
C760 C756 1.350 . S
C760 C757 1.463 . S
C760 N764 1.427 . S
C761 H751 0.929 . S
C761 C759 1.433 . S
C761 N764 1.384 . S
C762 H753 0.929 . S
C762 C754 1.378 . S
C762 C757 1.350 . S
C763 H750 0.929 . S
C763 C755 1.433 . S
C763 N765 1.384 . S
N764 C760 1.427 . S
N764 C761 1.384 . S
N765 C757 1.427 . S
N765 C763 1.384 . S
H766 C772 0.930 . S
H767 C776 0.930 . S
H768 C781 0.929 . S
H769 C779 0.929 . S
H770 C774 0.929 . S
H771 C780 0.929 . S
C772 H766 0.930 . S
C772 C773 1.367 . S
C772 C780 1.378 . S
C773 C772 1.367 . S
C773 C781 1.433 . S
C774 H770 0.929 . S
C774 C776 1.378 . S
C774 C778 1.350 . S
C775 C778 1.463 . S
C775 C780 1.350 . S
C775 N783 1.427 . S
C776 H767 0.930 . S
C776 C774 1.378 . S
C776 C777 1.367 . S
C777 C776 1.367 . S
C777 C779 1.433 . S
C778 C774 1.350 . S
C778 C775 1.463 . S
C778 N782 1.427 . S
C779 H769 0.929 . S
C779 C777 1.433 . S
C779 N782 1.384 . S
C780 H771 0.929 . S
C780 C772 1.378 . S
C780 C775 1.350 . S
C781 H768 0.929 . S
C781 C773 1.433 . S
C781 N783 1.384 . S
N782 C778 1.427 . S
N782 C779 1.384 . S
N783 C775 1.427 . S
N783 C781 1.384 . S
H784 C790 0.930 . S
H785 C794 0.930 . S
H786 C799 0.929 . S
H787 C797 0.929 . S
H788 C792 0.929 . S
H789 C798 0.929 . S
C790 H784 0.930 . S
C790 C791 1.367 . S
C790 C798 1.378 . S
C791 C790 1.367 . S
C791 C799 1.433 . S
C792 H788 0.929 . S
C792 C794 1.378 . S
C792 C796 1.350 . S
C793 C796 1.463 . S
C793 C798 1.350 . S
C793 N801 1.427 . S
C794 H785 0.930 . S
C794 C792 1.378 . S
C794 C795 1.367 . S
C795 C794 1.367 . S
C795 C797 1.433 . S
C796 C792 1.350 . S
C796 C793 1.463 . S
C796 N800 1.427 . S
C797 H787 0.929 . S
C797 C795 1.433 . S
C797 N800 1.384 . S
C798 H789 0.929 . S
C798 C790 1.378 . S
C798 C793 1.350 . S
C799 H786 0.929 . S
C799 C791 1.433 . S
C799 N801 1.384 . S
N800 C796 1.427 . S
N800 C797 1.384 . S
N801 C793 1.427 . S
N801 C799 1.384 . S
H802 C808 0.930 . S
H803 C812 0.930 . S
H804 C817 0.929 . S
H805 C815 0.929 . S
H806 C810 0.929 . S
H807 C816 0.929 . S
C808 H802 0.930 . S
C808 C809 1.367 . S
C808 C816 1.378 . S
C809 C808 1.367 . S
C809 C817 1.433 . S
C810 H806 0.929 . S
C810 C812 1.378 . S
C810 C814 1.350 . S
C811 C814 1.463 . S
C811 C816 1.350 . S
C811 N819 1.427 . S
C812 H803 0.930 . S
C812 C810 1.378 . S
C812 C813 1.367 1_565 S
C813 C812 1.367 1_545 S
C813 C815 1.433 . S
C814 C810 1.350 . S
C814 C811 1.463 . S
C814 N818 1.438 . S
C815 H805 0.929 . S
C815 C813 1.433 . S
C815 N818 1.374 1_545 S
C816 H807 0.929 . S
C816 C808 1.378 . S
C816 C811 1.350 . S
C817 H804 0.929 . S
C817 C809 1.433 . S
C817 N819 1.384 . S
N818 C814 1.438 . S
N818 C815 1.374 1_565 S
N819 C811 1.427 . S
N819 C817 1.384 . S
H820 C826 0.930 . S
H821 C830 0.930 . S
H822 C835 0.929 . S
H823 C833 0.929 . S
H824 C828 0.929 . S
H825 C834 0.929 . S
C826 H820 0.930 . S
C826 C827 1.367 . S
C826 C834 1.378 . S
C827 C826 1.367 . S
C827 C835 1.433 . S
C828 H824 0.929 . S
C828 C830 1.378 . S
C828 C832 1.350 . S
C829 C832 1.463 . S
C829 C834 1.350 . S
C829 N837 1.427 . S
C830 H821 0.930 . S
C830 C828 1.378 . S
C830 C831 1.367 . S
C831 C830 1.367 . S
C831 C833 1.433 . S
C832 C828 1.350 . S
C832 C829 1.463 . S
C832 N836 1.427 . S
C833 H823 0.929 . S
C833 C831 1.433 . S
C833 N836 1.384 . S
C834 H825 0.929 . S
C834 C826 1.378 . S
C834 C829 1.350 . S
C835 H822 0.929 . S
C835 C827 1.433 . S
C835 N837 1.384 . S
N836 C832 1.427 . S
N836 C833 1.384 . S
N837 C829 1.427 . S
N837 C835 1.384 . S
H838 C844 0.930 . S
H839 C848 0.930 . S
H840 C853 0.929 . S
H841 C851 0.929 . S
H842 C846 0.929 . S
H843 C852 0.929 . S
C844 H838 0.930 . S
C844 C845 1.367 . S
C844 C852 1.378 . S
C845 C844 1.367 . S
C845 C853 1.433 . S
C846 H842 0.929 . S
C846 C848 1.378 . S
C846 C850 1.350 . S
C847 C850 1.463 . S
C847 C852 1.350 . S
C847 N855 1.427 . S
C848 H839 0.930 . S
C848 C846 1.378 . S
C848 C849 1.367 1_545 S
C849 C848 1.367 1_565 S
C849 C851 1.433 . S
C850 C846 1.350 . S
C850 C847 1.463 . S
C850 N854 1.427 . S
C851 H841 0.929 . S
C851 C849 1.433 . S
C851 N854 1.384 1_565 S
C852 H843 0.929 . S
C852 C844 1.378 . S
C852 C847 1.350 . S
C853 H840 0.929 . S
C853 C845 1.433 . S
C853 N855 1.384 . S
N854 C850 1.427 . S
N854 C851 1.384 1_545 S
N855 C847 1.427 . S
N855 C853 1.384 . S
H856 C862 0.930 . S
H857 C866 0.930 . S
H858 C871 0.929 . S
H859 C869 0.929 . S
H860 C864 0.929 . S
H861 C870 0.929 . S
C862 H856 0.930 . S
C862 C863 1.367 . S
C862 C870 1.378 . S
C863 C862 1.367 . S
C863 C871 1.433 . S
C864 H860 0.929 . S
C864 C866 1.378 . S
C864 C868 1.350 . S
C865 C868 1.463 . S
C865 C870 1.350 . S
C865 N873 1.427 . S
C866 H857 0.930 . S
C866 C864 1.378 . S
C866 C867 1.367 . S
C867 C866 1.367 . S
C867 C869 1.433 . S
C868 C864 1.350 . S
C868 C865 1.463 . S
C868 N872 1.427 . S
C869 H859 0.929 . S
C869 C867 1.433 . S
C869 N872 1.384 . S
C870 H861 0.929 . S
C870 C862 1.378 . S
C870 C865 1.350 . S
C871 H858 0.929 . S
C871 C863 1.433 . S
C871 N873 1.384 . S
N872 C868 1.427 . S
N872 C869 1.384 . S
N873 C865 1.427 . S
N873 C871 1.384 . S
H874 C880 0.930 . S
H875 C884 0.930 . S
H876 C889 0.929 1_655 S
H877 C887 0.929 . S
H878 C882 0.929 . S
H879 C888 0.929 . S
C880 H874 0.930 . S
C880 C881 1.367 . S
C880 C888 1.378 . S
C881 C880 1.367 . S
C881 C889 1.433 1_565 S
C882 H878 0.929 . S
C882 C884 1.378 . S
C882 C886 1.350 . S
C883 C886 1.463 . S
C883 C888 1.350 1_545 S
C883 N891 1.427 . S
C884 H875 0.930 . S
C884 C882 1.378 . S
C884 C885 1.367 . S
C885 C884 1.367 . S
C885 C887 1.433 . S
C886 C882 1.350 . S
C886 C883 1.463 . S
C886 N890 1.427 . S
C887 H877 0.929 . S
C887 C885 1.433 . S
C887 N890 1.384 . S
C888 H879 0.929 . S
C888 C880 1.378 . S
C888 C883 1.350 1_565 S
C889 H876 0.929 1_455 S
C889 C881 1.433 1_545 S
C889 N891 1.384 . S
N890 C886 1.427 . S
N890 C887 1.384 . S
N891 C883 1.427 . S
N891 C889 1.384 . S
H892 C898 0.930 . S
H893 C902 0.930 . S
H894 C907 0.929 . S
H895 C905 0.929 . S
H896 C900 0.929 . S
H897 C906 0.929 . S
C898 H892 0.930 . S
C898 C899 1.367 . S
C898 C906 1.378 . S
C899 C898 1.367 . S
C899 C907 1.433 . S
C900 H896 0.929 . S
C900 C902 1.378 . S
C900 C904 1.350 . S
C901 C904 1.463 . S
C901 C906 1.350 . S
C901 N909 1.427 . S
C902 H893 0.930 . S
C902 C900 1.378 . S
C902 C903 1.367 . S
C903 C902 1.367 . S
C903 C905 1.433 . S
C904 C900 1.350 . S
C904 C901 1.463 . S
C904 N908 1.427 . S
C905 H895 0.929 . S
C905 C903 1.433 . S
C905 N908 1.384 . S
C906 H897 0.929 . S
C906 C898 1.378 . S
C906 C901 1.350 . S
C907 H894 0.929 . S
C907 C899 1.433 . S
C907 N909 1.384 . S
N908 C904 1.427 . S
N908 C905 1.384 . S
N909 C901 1.427 . S
N909 C907 1.384 . S
H910 C916 0.930 . S
H911 C920 0.930 . S
H912 C925 0.929 . S
H913 C923 0.929 . S
H914 C918 0.929 . S
H915 C924 0.929 . S
C916 H910 0.930 . S
C916 C917 1.367 . S
C916 C924 1.378 1_545 S
C917 C916 1.367 . S
C917 C925 1.433 . S
C918 H914 0.929 . S
C918 C920 1.378 . S
C918 C922 1.350 . S
C919 C922 1.463 . S
C919 C924 1.350 . S
C919 N927 1.427 . S
C920 H911 0.930 . S
C920 C918 1.378 . S
C920 C921 1.367 . S
C921 C920 1.367 . S
C921 C923 1.433 . S
C922 C918 1.350 . S
C922 C919 1.463 . S
C922 N926 1.427 . S
C923 H913 0.929 . S
C923 C921 1.433 . S
C923 N926 1.384 . S
C924 H915 0.929 . S
C924 C916 1.378 1_565 S
C924 C919 1.350 . S
C925 H912 0.929 . S
C925 C917 1.433 . S
C925 N927 1.384 1_545 S
N926 C922 1.427 . S
N926 C923 1.384 . S
N927 C919 1.427 . S
N927 C925 1.384 1_565 S
H928 C934 0.930 . S
H929 C938 0.930 . S
H930 C943 0.929 . S
H931 C941 0.929 . S
H932 C936 0.929 . S
H933 C942 0.929 . S
C934 H928 0.930 . S
C934 C935 1.367 . S
C934 C942 1.378 1_554 S
C935 C934 1.367 . S
C935 C943 1.433 . S
C936 H932 0.929 . S
C936 C938 1.378 . S
C936 C940 1.350 . S
C937 C940 1.463 . S
C937 C942 1.350 . S
C937 N945 1.427 . S
C938 H929 0.930 . S
C938 C936 1.378 . S
C938 C939 1.367 . S
C939 C938 1.367 . S
C939 C941 1.433 . S
C940 C936 1.350 . S
C940 C937 1.463 . S
C940 N944 1.427 . S
C941 H931 0.929 . S
C941 C939 1.433 . S
C941 N944 1.384 . S
C942 H933 0.929 . S
C942 C934 1.378 1_556 S
C942 C937 1.350 . S
C943 H930 0.929 . S
C943 C935 1.433 . S
C943 N945 1.384 1_554 S
N944 C940 1.427 . S
N944 C941 1.384 . S
N945 C937 1.427 . S
N945 C943 1.384 1_556 S
H946 C952 0.930 . S
H947 C956 0.930 . S
H948 C961 0.929 . S
H949 C959 0.929 . S
H950 C954 0.929 . S
H951 C960 0.929 . S
C952 H946 0.930 . S
C952 C953 1.367 . S
C952 C960 1.378 . S
C953 C952 1.367 . S
C953 C961 1.433 . S
C954 H950 0.929 . S
C954 C956 1.378 . S
C954 C958 1.350 . S
C955 C958 1.463 . S
C955 C960 1.350 . S
C955 N963 1.427 . S
C956 H947 0.930 . S
C956 C954 1.378 . S
C956 C957 1.367 . S
C957 C956 1.367 . S
C957 C959 1.433 . S
C958 C954 1.350 . S
C958 C955 1.463 . S
C958 N962 1.427 . S
C959 H949 0.929 . S
C959 C957 1.433 . S
C959 N962 1.384 . S
C960 H951 0.929 . S
C960 C952 1.378 . S
C960 C955 1.350 . S
C961 H948 0.929 . S
C961 C953 1.433 . S
C961 N963 1.384 . S
N962 C958 1.427 . S
N962 C959 1.384 . S
N963 C955 1.427 . S
N963 C961 1.384 . S
H964 C970 0.930 . S
H965 C974 0.930 . S
H966 C979 0.929 . S
H967 C977 0.929 . S
H968 C972 0.929 . S
H969 C978 0.929 . S
C970 H964 0.930 . S
C970 C971 1.367 . S
C970 C978 1.378 . S
C971 C970 1.367 . S
C971 C979 1.433 . S
C972 H968 0.929 . S
C972 C974 1.378 . S
C972 C976 1.350 . S
C973 C976 1.463 . S
C973 C978 1.350 . S
C973 N981 1.427 . S
C974 H965 0.930 . S
C974 C972 1.378 . S
C974 C975 1.367 . S
C975 C974 1.367 . S
C975 C977 1.433 . S
C976 C972 1.350 . S
C976 C973 1.463 . S
C976 N980 1.427 . S
C977 H967 0.929 . S
C977 C975 1.433 . S
C977 N980 1.384 . S
C978 H969 0.929 . S
C978 C970 1.378 . S
C978 C973 1.350 . S
C979 H966 0.929 . S
C979 C971 1.433 . S
C979 N981 1.384 . S
N980 C976 1.427 . S
N980 C977 1.384 . S
N981 C973 1.427 . S
N981 C979 1.384 . S
H982 C988 0.930 . S
H983 C992 0.930 . S
H984 C997 0.929 . S
H985 C995 0.929 . S
H986 C990 0.929 . S
H987 C996 0.929 . S
C988 H982 0.930 . S
C988 C989 1.367 . S
C988 C996 1.378 . S
C989 C988 1.367 . S
C989 C997 1.433 . S
C990 H986 0.929 . S
C990 C992 1.378 . S
C990 C994 1.350 . S
C991 C994 1.463 . S
C991 C996 1.350 . S
C991 N999 1.427 . S
C992 H983 0.930 . S
C992 C990 1.378 . S
C992 C993 1.367 . S
C993 C992 1.367 . S
C993 C995 1.433 . S
C994 C990 1.350 . S
C994 C991 1.463 . S
C994 N998 1.427 . S
C995 H985 0.929 . S
C995 C993 1.433 . S
C995 N998 1.384 . S
C996 H987 0.929 . S
C996 C988 1.378 . S
C996 C991 1.350 . S
C997 H984 0.929 . S
C997 C989 1.433 . S
C997 N999 1.384 . S
N998 C994 1.427 . S
N998 C995 1.384 . S
N999 C991 1.427 . S
N999 C997 1.384 . S
H1000 C1006 0.930 . S
H1001 C1010 0.930 . S
H1002 C1015 0.929 . S
H1003 C1013 0.929 . S
H1004 C1008 0.929 . S
H1005 C1014 0.929 . S
C1006 H1000 0.930 . S
C1006 C1007 1.367 . S
C1006 C1014 1.378 . S
C1007 C1006 1.367 . S
C1007 C1015 1.433 . S
C1008 H1004 0.929 . S
C1008 C1010 1.378 1_554 S
C1008 C1012 1.350 . S
C1009 C1012 1.463 . S
C1009 C1014 1.350 . S
C1009 N1017 1.427 . S
C1010 H1001 0.930 . S
C1010 C1008 1.378 1_556 S
C1010 C1011 1.367 . S
C1011 C1010 1.367 . S
C1011 C1013 1.433 . S
C1012 C1008 1.350 . S
C1012 C1009 1.463 . S
C1012 N1016 1.427 . S
C1013 H1003 0.929 . S
C1013 C1011 1.433 . S
C1013 N1016 1.384 1_556 S
C1014 H1005 0.929 . S
C1014 C1006 1.378 . S
C1014 C1009 1.350 . S
C1015 H1002 0.929 . S
C1015 C1007 1.433 . S
C1015 N1017 1.384 . S
N1016 C1012 1.427 . S
N1016 C1013 1.384 1_554 S
N1017 C1009 1.427 . S
N1017 C1015 1.384 . S
H1018 C1024 0.930 . S
H1019 C1028 0.930 . S
H1020 C1033 0.929 . S
H1021 C1031 0.929 . S
H1022 C1026 0.929 . S
H1023 C1032 0.929 . S
C1024 H1018 0.930 . S
C1024 C1025 1.367 . S
C1024 C1032 1.378 . S
C1025 C1024 1.367 . S
C1025 C1033 1.433 . S
C1026 H1022 0.929 . S
C1026 C1028 1.378 . S
C1026 C1030 1.350 . S
C1027 C1030 1.463 . S
C1027 C1032 1.350 . S
C1027 N1035 1.427 . S
C1028 H1019 0.930 . S
C1028 C1026 1.378 . S
C1028 C1029 1.367 . S
C1029 C1028 1.367 . S
C1029 C1031 1.433 . S
C1030 C1026 1.350 . S
C1030 C1027 1.463 . S
C1030 N1034 1.427 . S
C1031 H1021 0.929 . S
C1031 C1029 1.433 . S
C1031 N1034 1.384 . S
C1032 H1023 0.929 . S
C1032 C1024 1.378 . S
C1032 C1027 1.350 . S
C1033 H1020 0.929 . S
C1033 C1025 1.433 . S
C1033 N1035 1.384 . S
N1034 C1030 1.427 . S
N1034 C1031 1.384 . S
N1035 C1027 1.427 . S
N1035 C1033 1.384 . S
H1036 C1042 0.930 . S
H1037 C1046 0.930 . S
H1038 C1051 0.929 . S
H1039 C1049 0.929 . S
H1040 C1044 0.929 . S
H1041 C1050 0.929 . S
C1042 H1036 0.930 . S
C1042 C1043 1.367 . S
C1042 C1050 1.378 . S
C1043 C1042 1.367 . S
C1043 C1051 1.433 . S
C1044 H1040 0.929 . S
C1044 C1046 1.378 . S
C1044 C1048 1.350 . S
C1045 C1048 1.463 . S
C1045 C1050 1.350 . S
C1045 N1053 1.427 . S
C1046 H1037 0.930 . S
C1046 C1044 1.378 . S
C1046 C1047 1.367 . S
C1047 C1046 1.367 . S
C1047 C1049 1.433 . S
C1048 C1044 1.350 . S
C1048 C1045 1.463 . S
C1048 N1052 1.427 . S
C1049 H1039 0.929 . S
C1049 C1047 1.433 . S
C1049 N1052 1.384 . S
C1050 H1041 0.929 . S
C1050 C1042 1.378 . S
C1050 C1045 1.350 . S
C1051 H1038 0.929 . S
C1051 C1043 1.433 . S
C1051 N1053 1.384 . S
N1052 C1048 1.427 . S
N1052 C1049 1.384 . S
N1053 C1045 1.427 . S
N1053 C1051 1.384 . S
H1054 C1060 0.930 . S
H1055 C1064 0.930 . S
H1056 C1069 0.929 . S
H1057 C1067 0.929 . S
H1058 C1062 0.929 . S
H1059 C1068 0.929 . S
C1060 H1054 0.930 . S
C1060 C1061 1.367 . S
C1060 C1068 1.378 . S
C1061 C1060 1.367 . S
C1061 C1069 1.433 . S
C1062 H1058 0.929 . S
C1062 C1064 1.378 . S
C1062 C1066 1.350 . S
C1063 C1066 1.463 . S
C1063 C1068 1.350 . S
C1063 N1071 1.427 . S
C1064 H1055 0.930 . S
C1064 C1062 1.378 . S
C1064 C1065 1.367 . S
C1065 C1064 1.367 . S
C1065 C1067 1.433 . S
C1066 C1062 1.350 . S
C1066 C1063 1.463 . S
C1066 N1070 1.427 . S
C1067 H1057 0.929 . S
C1067 C1065 1.433 . S
C1067 N1070 1.384 . S
C1068 H1059 0.929 . S
C1068 C1060 1.378 . S
C1068 C1063 1.350 . S
C1069 H1056 0.929 . S
C1069 C1061 1.433 . S
C1069 N1071 1.384 . S
N1070 C1066 1.427 . S
N1070 C1067 1.384 . S
N1071 C1063 1.427 . S
N1071 C1069 1.384 . S
H1072 C1078 0.930 . S
H1073 C1082 0.930 . S
H1074 C1087 0.929 . S
H1075 C1085 0.929 . S
H1076 C1080 0.929 . S
H1077 C1086 0.929 . S
C1078 H1072 0.930 . S
C1078 C1079 1.367 . S
C1078 C1086 1.378 . S
C1079 C1078 1.367 . S
C1079 C1087 1.433 . S
C1080 H1076 0.929 . S
C1080 C1082 1.378 . S
C1080 C1084 1.350 . S
C1081 C1084 1.463 . S
C1081 C1086 1.350 . S
C1081 N1089 1.427 . S
C1082 H1073 0.930 . S
C1082 C1080 1.378 . S
C1082 C1083 1.367 . S
C1083 C1082 1.367 . S
C1083 C1085 1.433 . S
C1084 C1080 1.350 . S
C1084 C1081 1.463 . S
C1084 N1088 1.427 . S
C1085 H1075 0.929 . S
C1085 C1083 1.433 . S
C1085 N1088 1.384 . S
C1086 H1077 0.929 . S
C1086 C1078 1.378 . S
C1086 C1081 1.350 . S
C1087 H1074 0.929 . S
C1087 C1079 1.433 . S
C1087 N1089 1.384 . S
N1088 C1084 1.427 . S
N1088 C1085 1.384 . S
N1089 C1081 1.427 . S
N1089 C1087 1.384 . S
H1090 C1096 0.930 . S
H1091 C1100 0.930 . S
H1092 C1105 0.929 . S
H1093 C1103 0.929 . S
H1094 C1098 0.929 . S
H1095 C1104 0.929 . S
C1096 H1090 0.930 . S
C1096 C1097 1.367 . S
C1096 C1104 1.378 . S
C1097 C1096 1.367 . S
C1097 C1105 1.433 . S
C1098 H1094 0.929 . S
C1098 C1100 1.378 1_565 S
C1098 C1102 1.350 . S
C1099 C1102 1.463 . S
C1099 C1104 1.350 . S
C1099 N1107 1.427 . S
C1100 H1091 0.930 . S
C1100 C1098 1.378 1_545 S
C1100 C1101 1.367 . S
C1101 C1100 1.367 . S
C1101 C1103 1.433 . S
C1102 C1098 1.350 . S
C1102 C1099 1.463 . S
C1102 N1106 1.427 1_565 S
C1103 H1093 0.929 . S
C1103 C1101 1.433 . S
C1103 N1106 1.384 . S
C1104 H1095 0.929 . S
C1104 C1096 1.378 . S
C1104 C1099 1.350 . S
C1105 H1092 0.929 . S
C1105 C1097 1.433 . S
C1105 N1107 1.384 . S
N1106 C1102 1.427 1_545 S
N1106 C1103 1.384 . S
N1107 C1099 1.427 . S
N1107 C1105 1.384 . S
H1108 C1114 0.930 . S
H1109 C1118 0.930 . S
H1110 C1123 0.929 . S
H1111 C1121 0.929 . S
H1112 C1116 0.929 . S
H1113 C1122 0.929 . S
C1114 H1108 0.930 . S
C1114 C1115 1.367 . S
C1114 C1122 1.378 . S
C1115 C1114 1.367 . S
C1115 C1123 1.433 . S
C1116 H1112 0.929 . S
C1116 C1118 1.378 1_556 S
C1116 C1120 1.350 . S
C1117 C1120 1.463 . S
C1117 C1122 1.350 . S
C1117 N1125 1.427 . S
C1118 H1109 0.930 . S
C1118 C1116 1.378 1_554 S
C1118 C1119 1.367 . S
C1119 C1118 1.367 . S
C1119 C1121 1.433 . S
C1120 C1116 1.350 . S
C1120 C1117 1.463 . S
C1120 N1124 1.427 . S
C1121 H1111 0.929 . S
C1121 C1119 1.433 . S
C1121 N1124 1.384 1_554 S
C1122 H1113 0.929 . S
C1122 C1114 1.378 . S
C1122 C1117 1.350 . S
C1123 H1110 0.929 . S
C1123 C1115 1.433 . S
C1123 N1125 1.384 . S
N1124 C1120 1.427 . S
N1124 C1121 1.384 1_556 S
N1125 C1117 1.427 . S
N1125 C1123 1.384 . S
H1126 C1132 0.930 . S
H1127 C1136 0.930 . S
H1128 C1141 0.929 . S
H1129 C1139 0.929 . S
H1130 C1134 0.929 . S
H1131 C1140 0.929 . S
C1132 H1126 0.930 . S
C1132 C1133 1.367 . S
C1132 C1140 1.378 . S
C1133 C1132 1.367 . S
C1133 C1141 1.433 1_565 S
C1134 H1130 0.929 . S
C1134 C1136 1.378 . S
C1134 C1138 1.350 . S
C1135 C1138 1.463 . S
C1135 C1140 1.350 1_545 S
C1135 N1143 1.427 . S
C1136 H1127 0.930 . S
C1136 C1134 1.378 . S
C1136 C1137 1.367 . S
C1137 C1136 1.367 . S
C1137 C1139 1.433 . S
C1138 C1134 1.350 . S
C1138 C1135 1.463 . S
C1138 N1142 1.427 . S
C1139 H1129 0.929 . S
C1139 C1137 1.433 . S
C1139 N1142 1.384 . S
C1140 H1131 0.929 . S
C1140 C1132 1.378 . S
C1140 C1135 1.350 1_565 S
C1141 H1128 0.929 . S
C1141 C1133 1.433 1_545 S
C1141 N1143 1.384 . S
N1142 C1138 1.427 . S
N1142 C1139 1.384 . S
N1143 C1135 1.427 . S
N1143 C1141 1.384 . S
H1144 C1150 0.930 . S
H1145 C1154 0.930 . S
H1146 C1159 0.929 . S
H1147 C1157 0.929 . S
H1148 C1152 0.929 . S
H1149 C1158 0.929 . S
C1150 H1144 0.930 . S
C1150 C1151 1.367 . S
C1150 C1158 1.378 . S
C1151 C1150 1.367 . S
C1151 C1159 1.433 . S
C1152 H1148 0.929 . S
C1152 C1154 1.378 . S
C1152 C1156 1.350 . S
C1153 C1156 1.463 . S
C1153 C1158 1.350 . S
C1153 N1161 1.427 . S
C1154 H1145 0.930 . S
C1154 C1152 1.378 . S
C1154 C1155 1.367 . S
C1155 C1154 1.367 . S
C1155 C1157 1.433 . S
C1156 C1152 1.350 . S
C1156 C1153 1.463 . S
C1156 N1160 1.427 . S
C1157 H1147 0.929 . S
C1157 C1155 1.433 . S
C1157 N1160 1.384 . S
C1158 H1149 0.929 . S
C1158 C1150 1.378 . S
C1158 C1153 1.350 . S
C1159 H1146 0.929 . S
C1159 C1151 1.433 . S
C1159 N1161 1.384 . S
N1160 C1156 1.427 . S
N1160 C1157 1.384 . S
N1161 C1153 1.427 . S
N1161 C1159 1.384 . S
H1162 C1168 0.930 . S
H1163 C1172 0.930 . S
H1164 C1177 0.929 . S
H1165 C1175 0.929 . S
H1166 C1170 0.929 . S
H1167 C1176 0.929 1_565 S
C1168 H1162 0.930 . S
C1168 C1169 1.367 . S
C1168 C1176 1.378 . S
C1169 C1168 1.367 . S
C1169 C1177 1.433 . S
C1170 H1166 0.929 . S
C1170 C1172 1.378 . S
C1170 C1174 1.350 . S
C1171 C1174 1.463 . S
C1171 C1176 1.350 . S
C1171 N1179 1.427 . S
C1172 H1163 0.930 . S
C1172 C1170 1.378 . S
C1172 C1173 1.367 1_545 S
C1173 C1172 1.367 1_565 S
C1173 C1175 1.433 . S
C1174 C1170 1.350 . S
C1174 C1171 1.463 . S
C1174 N1178 1.427 1_545 S
C1175 H1165 0.929 . S
C1175 C1173 1.433 . S
C1175 N1178 1.384 . S
C1176 H1167 0.929 1_545 S
C1176 C1168 1.378 . S
C1176 C1171 1.350 . S
C1177 H1164 0.929 . S
C1177 C1169 1.433 . S
C1177 N1179 1.384 . S
N1178 C1174 1.427 1_565 S
N1178 C1175 1.384 . S
N1179 C1171 1.427 . S
N1179 C1177 1.384 . S
H1180 C1186 0.930 . S
H1181 C1190 0.930 . S
H1182 C1195 0.929 . S
H1183 C1193 0.937 . S
H1184 C1188 0.929 . S
H1185 C1194 0.929 . S
C1186 H1180 0.930 . S
C1186 C1187 1.367 . S
C1186 C1194 1.378 . S
C1187 C1186 1.367 . S
C1187 C1195 1.433 . S
C1188 H1184 0.929 . S
C1188 C1190 1.378 1_554 S
C1188 C1192 1.350 . S
C1189 C1192 1.463 . S
C1189 C1194 1.350 . S
C1189 N1197 1.427 . S
C1190 H1181 0.930 . S
C1190 C1188 1.378 1_556 S
C1190 C1191 1.367 . S
C1191 C1190 1.367 . S
C1191 C1193 1.463 . S
C1192 C1188 1.350 . S
C1192 C1189 1.463 . S
C1192 N1196 1.427 . S
C1193 H1183 0.937 . S
C1193 C1191 1.463 . S
C1193 N1196 1.347 1_556 S
C1194 H1185 0.929 . S
C1194 C1186 1.378 . S
C1194 C1189 1.350 . S
C1195 H1182 0.929 . S
C1195 C1187 1.433 . S
C1195 N1197 1.384 . S
N1196 C1192 1.427 . S
N1196 C1193 1.347 1_554 S
N1197 C1189 1.427 . S
N1197 C1195 1.384 . S
H1198 C1204 0.930 . S
H1199 C1208 0.930 . S
H1200 C1213 0.929 . S
H1201 C1211 0.929 . S
H1202 C1206 0.929 . S
H1203 C1212 0.929 1_545 S
C1204 H1198 0.930 . S
C1204 C1205 1.367 . S
C1204 C1212 1.378 . S
C1205 C1204 1.367 . S
C1205 C1213 1.433 . S
C1206 H1202 0.929 . S
C1206 C1208 1.378 . S
C1206 C1210 1.350 . S
C1207 C1210 1.463 . S
C1207 C1212 1.350 . S
C1207 N1215 1.427 . S
C1208 H1199 0.930 . S
C1208 C1206 1.378 . S
C1208 C1209 1.367 1_565 S
C1209 C1208 1.367 1_545 S
C1209 C1211 1.433 . S
C1210 C1206 1.350 . S
C1210 C1207 1.463 . S
C1210 N1214 1.427 1_565 S
C1211 H1201 0.929 . S
C1211 C1209 1.433 . S
C1211 N1214 1.384 . S
C1212 H1203 0.929 1_565 S
C1212 C1204 1.378 . S
C1212 C1207 1.350 . S
C1213 H1200 0.929 . S
C1213 C1205 1.433 . S
C1213 N1215 1.384 . S
N1214 C1210 1.427 1_545 S
N1214 C1211 1.384 . S
N1215 C1207 1.427 . S
N1215 C1213 1.384 . S
C359 C15 0.664 . S
C363 C241 0.644 . S
C377 C32 0.616 . S
C381 C263 0.630 . S
C395 C65 0.662 . S
C399 C197 0.641 . S
C413 C216 0.632 . S
C417 C81 0.611 . S
C431 C103 0.669 . S
C435 C323 0.690 . S
C449 C345 0.653 . S
C453 C117 0.659 . S
C467 C285 0.688 . S
C471 C153 0.667 . S
C485 C169 0.670 . S
C489 C301 0.650 . S
C503 C7 2.105 . S
C507 C95 2.105 . S
C521 C30 2.072 . S
C525 C293 2.060 . S
C539 C59 2.121 . S
C543 C147 2.121 . S
C557 C73 2.096 . S
C561 C337 2.096 . S
C575 C131 2.055 . S
C579 C208 2.069 . S
C593 C257 2.097 . S
C597 C161 2.097 . S
C611 C279 2.106 . S
C615 C191 2.105 . S
C629 C235 2.117 . S
C633 C315 2.118 . S
C647 C10 1.776 . S
C651 C162 1.770 . S
C665 C37 1.811 . S
C669 C282 1.813 . S
C683 C52 1.774 . S
C687 C120 1.769 . S
C701 C76 1.779 1_455 S
C705 C316 1.770 . S
C719 C74 1.750 . S
C723 C98 1.746 . S
C737 C128 1.763 . S
C741 C194 1.758 . S
C755 C140 1.816 . S
C759 C29 1.812 . S
C773 C238 1.768 . S
C777 C164 1.775 1_655 S
C791 C184 1.780 . S
C795 C338 1.771 . S
C809 C96 1.813 . S
C813 C205 1.811 1_655 S
C827 C294 1.772 . S
C831 C228 1.778 . S
C845 C150 1.771 . S
C849 C250 1.779 . S
C863 C272 1.746 . S
C867 C260 1.751 . S
C881 C296 1.762 1_455 S
C885 C8 1.759 . S
C899 C219 1.806 . S
C903 C318 1.814 . S
C917 C340 1.770 . S
C921 C62 1.773 . S
C935 C18 0.856 . S
C939 C206 0.841 . S
C953 C227 0.938 . S
C957 C43 0.955 . S
C971 C54 0.920 . S
C975 C249 0.908 . S
C989 C183 0.865 . S
C993 C84 0.890 . S
C1007 C307 0.871 . S
C1011 C106 0.900 . S
C1025 C329 0.881 . S
C1029 C118 0.909 . S
C1043 C351 0.880 . S
C1047 C142 0.908 . S
C1061 C271 0.885 . S
C1065 C172 0.908 . S
C1079 C40 0.857 . S
C1083 C186 0.861 . S
C1097 C51 0.940 . S
C1101 C213 0.950 . S
C1115 C87 0.908 . S
C1119 C230 0.920 . S
C1133 C252 0.890 . S
C1137 C21 0.864 . S
C1151 C125 0.871 . S
C1155 C274 0.899 . S
C1169 C139 0.902 . S
C1173 C304 0.918 . S
C1187 C175 0.901 . S
C1191 C326 0.915 . S
C1205 C109 0.885 . S
C1209 C348 0.908 . S
