# Generated by pormake.
# Topology una, (4)-cn, num edge types: 1
# Building blocks:
#     Node 0, Type 0, BuildingBlock: KUFVIS_clean_sbu_0, # of connection points: 4
#     Node 1, Type 0, BuildingBlock: KUFVIS_clean_sbu_0, # of connection points: 4
#     Node 2, Type 0, BuildingBlock: KUFVIS_clean_sbu_0, # of connection points: 4
#     Node 3, Type 0, BuildingBlock: KUFVIS_clean_sbu_0, # of connection points: 4
#     Node 4, Type 0, BuildingBlock: KUFVIS_clean_sbu_0, # of connection points: 4
#     Node 5, Type 0, BuildingBlock: KUFVIS_clean_sbu_0, # of connection points: 4
#     Node 6, Type 0, BuildingBlock: KUFVIS_clean_sbu_0, # of connection points: 4
#     Node 7, Type 0, BuildingBlock: KUFVIS_clean_sbu_0, # of connection points: 4
#     Node 8, Type 0, BuildingBlock: KUFVIS_clean_sbu_0, # of connection points: 4
#     Node 9, Type 0, BuildingBlock: KUFVIS_clean_sbu_0, # of connection points: 4
#     Node 10, Type 0, BuildingBlock: KUFVIS_clean_sbu_0, # of connection points: 4
#     Node 11, Type 0, BuildingBlock: KUFVIS_clean_sbu_0, # of connection points: 4
#     Edge 12, Type (0, 0), BuildingBlock: AJUNOK_clean_linker_0, # of connection points: 2
#     Edge 13, Type (0, 0), BuildingBlock: AJUNOK_clean_linker_0, # of connection points: 2
#     Edge 14, Type (0, 0), BuildingBlock: AJUNOK_clean_linker_0, # of connection points: 2
#     Edge 15, Type (0, 0), BuildingBlock: AJUNOK_clean_linker_0, # of connection points: 2
#     Edge 16, Type (0, 0), BuildingBlock: AJUNOK_clean_linker_0, # of connection points: 2
#     Edge 17, Type (0, 0), BuildingBlock: AJUNOK_clean_linker_0, # of connection points: 2
#     Edge 18, Type (0, 0), BuildingBlock: AJUNOK_clean_linker_0, # of connection points: 2
#     Edge 19, Type (0, 0), BuildingBlock: AJUNOK_clean_linker_0, # of connection points: 2
#     Edge 20, Type (0, 0), BuildingBlock: AJUNOK_clean_linker_0, # of connection points: 2
#     Edge 21, Type (0, 0), BuildingBlock: AJUNOK_clean_linker_0, # of connection points: 2
#     Edge 22, Type (0, 0), BuildingBlock: AJUNOK_clean_linker_0, # of connection points: 2
#     Edge 23, Type (0, 0), BuildingBlock: AJUNOK_clean_linker_0, # of connection points: 2
#     Edge 24, Type (0, 0), BuildingBlock: AJUNOK_clean_linker_0, # of connection points: 2
#     Edge 25, Type (0, 0), BuildingBlock: AJUNOK_clean_linker_0, # of connection points: 2
#     Edge 26, Type (0, 0), BuildingBlock: AJUNOK_clean_linker_0, # of connection points: 2
#     Edge 27, Type (0, 0), BuildingBlock: AJUNOK_clean_linker_0, # of connection points: 2
#     Edge 28, Type (0, 0), BuildingBlock: AJUNOK_clean_linker_0, # of connection points: 2
#     Edge 29, Type (0, 0), BuildingBlock: AJUNOK_clean_linker_0, # of connection points: 2
#     Edge 30, Type (0, 0), BuildingBlock: AJUNOK_clean_linker_0, # of connection points: 2
#     Edge 31, Type (0, 0), BuildingBlock: AJUNOK_clean_linker_0, # of connection points: 2
#     Edge 32, Type (0, 0), BuildingBlock: AJUNOK_clean_linker_0, # of connection points: 2
#     Edge 33, Type (0, 0), BuildingBlock: AJUNOK_clean_linker_0, # of connection points: 2
#     Edge 34, Type (0, 0), BuildingBlock: AJUNOK_clean_linker_0, # of connection points: 2
#     Edge 35, Type (0, 0), BuildingBlock: AJUNOK_clean_linker_0, # of connection points: 2
# Relax obj value: 0.032
# Max RMSD: 0.075
# Mean RMSD: 0.075
data_MOF--net-una--node1-KUFVIS_clean_sbu_0--edge1-AJUNOK_clean_linker_0
_symmetry_space_group_name_H-M    P1
_symmetry_Int_Tables_number       1
_symmetry_cell_setting            triclinic
loop_
_symmetry_equiv_pos_as_xyz
'x, y, z'
_cell_length_a     42.205858
_cell_length_b     42.167977
_cell_length_c     16.140992
_cell_angle_alpha  89.878457
_cell_angle_beta   90.071799
_cell_angle_gamma 120.0404
loop_
_atom_site_label
_atom_site_type_symbol
_atom_site_fract_x
_atom_site_fract_y
_atom_site_fract_z
_atom_type_partial_charge
Mn0 Mn 0.15871 0.45353 0.05147 0.0
Mn1 Mn 0.14975 0.49225 0.87491 0.0
C2 C 0.18506 0.44916 0.93071 0.0
C3 C 0.19145 0.45544 0.17256 0.0
C4 C 0.08992 0.4198 0.93877 0.0
O5 O 0.14472 0.48976 0.09561 0.0
O6 O 0.13578 0.51066 0.97439 0.0
C7 C 0.20571 0.56992 0.90388 0.0
N8 N 0.1913 0.5395 0.8552 0.0
C9 C 0.22951 0.57399 0.74038 0.0
C10 C 0.24462 0.60572 0.78921 0.0
C11 C 0.23285 0.60361 0.87146 0.0
C12 C 0.20261 0.54118 0.77612 0.0
H13 H 0.1964 0.56856 0.9667 0.0
C14 C 0.1357 0.50976 0.05388 0.0
O15 O 0.15666 0.43227 0.16508 0.0
O16 O 0.20669 0.47834 0.11218 0.0
N17 N 0.16286 0.47818 0.77381 0.0
C18 C 0.14814 0.44443 0.73839 0.0
C19 C 0.15994 0.44102 0.65929 0.0
C20 C 0.18608 0.47239 0.61676 0.0
C21 C 0.20051 0.50689 0.65416 0.0
C22 C 0.18815 0.50851 0.73362 0.0
H23 H 0.12785 0.42034 0.77073 0.0
O24 O 0.17602 0.42505 0.9893 0.0
O25 O 0.17779 0.47552 0.94281 0.0
O26 O 0.10534 0.42007 1.00761 0.0
O27 O 0.10522 0.4447 0.88433 0.0
C28 C 0.22703 0.53968 0.61626 0.0
C29 C 0.24134 0.57324 0.65912 0.0
H30 H 0.26581 0.63169 0.76483 0.0
H31 H 0.24453 0.62794 0.90965 0.0
H32 H 0.14874 0.4143 0.63092 0.0
H33 H 0.19498 0.46965 0.55563 0.0
H34 H 0.23699 0.53933 0.55464 0.0
H35 H 0.26226 0.59814 0.6301 0.0
Mn36 Mn 0.71678 0.15278 0.21259 0.0
Mn37 Mn 0.66955 0.14833 0.03842 0.0
C38 C 0.74762 0.17831 0.09179 0.0
C39 C 0.74777 0.18585 0.33301 0.0
C40 C 0.67882 0.08516 0.09749 0.0
O41 O 0.66659 0.13884 0.25785 0.0
O42 O 0.63798 0.13654 0.13849 0.0
C43 C 0.65834 0.21093 0.07419 0.0
N44 N 0.67006 0.19352 0.02223 0.0
C45 C 0.68422 0.23867 0.91559 0.0
C46 C 0.67173 0.25674 0.96747 0.0
C47 C 0.65895 0.24294 0.04729 0.0
C48 C 0.68248 0.20661 0.94533 0.0
H49 H 0.64848 0.20041 0.13557 0.0
C50 C 0.63838 0.13368 0.21751 0.0
O51 O 0.73677 0.15112 0.32584 0.0
O52 O 0.73934 0.20047 0.27284 0.0
N53 N 0.69593 0.15951 0.93609 0.0
C54 C 0.71092 0.14134 0.89785 0.0
C55 C 0.72725 0.15319 0.81965 0.0
C56 C 0.72772 0.18335 0.78124 0.0
C57 C 0.71207 0.2016 0.82171 0.0
C58 C 0.69602 0.18844 0.89942 0.0
H59 H 0.71096 0.1184 0.92748 0.0
O60 O 0.76276 0.16985 0.15106 0.0
O61 O 0.71461 0.17239 0.10509 0.0
O62 O 0.69646 0.10002 0.16471 0.0
O63 O 0.6679 0.10119 0.04756 0.0
C64 C 0.71312 0.23321 0.78952 0.0
C65 C 0.69919 0.25172 0.83642 0.0
H66 H 0.67227 0.28149 0.94707 0.0
H67 H 0.64961 0.25695 0.08797 0.0
H68 H 0.73961 0.13921 0.78921 0.0
H69 H 0.74073 0.19266 0.72136 0.0
H70 H 0.72537 0.24402 0.7296 0.0
H71 H 0.70083 0.27642 0.81176 0.0
Mn72 Mn 0.56583 0.70914 0.3808 0.0
Mn73 Mn 0.52911 0.66078 0.20433 0.0
C74 C 0.56891 0.73913 0.25957 0.0
C75 C 0.56149 0.73913 0.50077 0.0
C76 C 0.6027 0.67713 0.26917 0.0
O77 O 0.53172 0.65807 0.4254 0.0
O78 O 0.51166 0.6285 0.30394 0.0
C79 C 0.45089 0.63641 0.2332 0.0
N80 N 0.48127 0.65342 0.18451 0.0
C81 C 0.44638 0.65748 0.07109 0.0
C82 C 0.41472 0.63999 0.12007 0.0
C83 C 0.41704 0.62957 0.20156 0.0
C84 C 0.47937 0.66367 0.10608 0.0
H85 H 0.4524 0.6279 0.29549 0.0
C86 C 0.51243 0.62895 0.38334 0.0
O87 O 0.58644 0.7298 0.49382 0.0
O88 O 0.53822 0.72936 0.44058 0.0
N89 N 0.54249 0.68802 0.10298 0.0
C90 C 0.57608 0.70749 0.067 0.0
C91 C 0.57912 0.72302 0.98827 0.0
C92 C 0.54754 0.71764 0.94662 0.0
C93 C 0.5132 0.69698 0.98439 0.0
C94 C 0.51194 0.68264 0.06342 0.0
H95 H 0.60036 0.71152 0.09871 0.0
O96 O 0.59235 0.75537 0.31863 0.0
O97 O 0.54378 0.70501 0.27188 0.0
O98 O 0.60171 0.69232 0.33726 0.0
O99 O 0.57752 0.66591 0.21499 0.0
C100 C 0.48023 0.6905 0.9473 0.0
C101 C 0.44682 0.67059 0.99045 0.0
H102 H 0.38865 0.63511 0.09642 0.0
H103 H 0.39275 0.61618 0.2398 0.0
H104 H 0.60572 0.73897 0.95958 0.0
H105 H 0.55 0.72963 0.88586 0.0
H106 H 0.48032 0.70116 0.88613 0.0
H107 H 0.42179 0.66653 0.96216 0.0
Mn108 Mn 0.87503 0.57209 0.56204 0.0
Mn109 Mn 0.87315 0.52884 0.3836 0.0
C110 C 0.84724 0.57881 0.44638 0.0
C111 C 0.84462 0.57069 0.68677 0.0
C112 C 0.93993 0.59968 0.43838 0.0
O113 O 0.88754 0.53385 0.60196 0.0
O114 O 0.88573 0.50752 0.47966 0.0
C115 C 0.80916 0.45638 0.42355 0.0
N116 N 0.82665 0.48536 0.37087 0.0
C117 C 0.77898 0.45611 0.26889 0.0
C118 C 0.76072 0.42576 0.32162 0.0
C119 C 0.77577 0.42599 0.39946 0.0
C120 C 0.8124 0.48543 0.29581 0.0
H121 H 0.82064 0.45646 0.48343 0.0
C122 C 0.89029 0.51008 0.55837 0.0
O123 O 0.87942 0.59357 0.67699 0.0
O124 O 0.82846 0.54808 0.62683 0.0
N125 N 0.86059 0.5454 0.28487 0.0
C126 C 0.87792 0.57912 0.24869 0.0
C127 C 0.86506 0.58453 0.17269 0.0
C128 C 0.83432 0.5553 0.13497 0.0
C129 C 0.81629 0.52106 0.17447 0.0
C130 C 0.83065 0.51718 0.24969 0.0
H131 H 0.9005 0.60197 0.27922 0.0
O132 O 0.8583 0.60272 0.50544 0.0
O133 O 0.85246 0.5511 0.45644 0.0
O134 O 0.92719 0.60299 0.50843 0.0
O135 O 0.92162 0.5731 0.38885 0.0
C136 C 0.78347 0.49131 0.14457 0.0
C137 C 0.76479 0.45889 0.19186 0.0
H138 H 0.73487 0.40234 0.30349 0.0
H139 H 0.76164 0.40281 0.4408 0.0
H140 H 0.87848 0.61132 0.14387 0.0
H141 H 0.82407 0.55977 0.07714 0.0
H142 H 0.7717 0.49354 0.08667 0.0
H143 H 0.73903 0.43662 0.16941 0.0
Mn144 Mn 0.3156 0.86934 0.71829 0.0
Mn145 Mn 0.36365 0.87808 0.54304 0.0
C146 C 0.28526 0.84004 0.59924 0.0
C147 C 0.28585 0.83676 0.8408 0.0
C148 C 0.34711 0.93642 0.59954 0.0
O149 O 0.3665 0.88693 0.76327 0.0
O150 O 0.39622 0.89509 0.64245 0.0
C151 C 0.38905 0.82549 0.57988 0.0
N152 N 0.37191 0.83782 0.52848 0.0
C153 C 0.3703 0.7987 0.41812 0.0
C154 C 0.38819 0.7858 0.4697 0.0
C155 C 0.39736 0.79907 0.55111 0.0
C156 C 0.36279 0.82509 0.45018 0.0
H157 H 0.39659 0.83592 0.6421 0.0
C158 C 0.39564 0.8964 0.72184 0.0
O159 O 0.29501 0.8709 0.83046 0.0
O160 O 0.29565 0.82242 0.78267 0.0
N161 N 0.33641 0.86198 0.442 0.0
C162 C 0.31511 0.87366 0.40473 0.0
C163 C 0.3002 0.86007 0.32617 0.0
C164 C 0.30773 0.83497 0.28634 0.0
C165 C 0.32962 0.82321 0.32615 0.0
C166 C 0.34335 0.8374 0.40481 0.0
H167 H 0.30876 0.89236 0.43597 0.0
O168 O 0.26933 0.84853 0.6565 0.0
O169 O 0.31946 0.84934 0.61177 0.0
O170 O 0.33252 0.92164 0.66941 0.0
O171 O 0.3579 0.92127 0.54751 0.0
C172 C 0.33759 0.7973 0.2918 0.0
C173 C 0.35807 0.78519 0.33759 0.0
H174 H 0.39441 0.76523 0.44803 0.0
H175 H 0.41099 0.7891 0.59144 0.0
H176 H 0.28289 0.86886 0.29644 0.0
H177 H 0.29612 0.82449 0.22581 0.0
H178 H 0.32748 0.78593 0.23092 0.0
H179 H 0.36308 0.76449 0.31151 0.0
Mn180 Mn 0.46544 0.31503 0.88816 0.0
Mn181 Mn 0.50676 0.36311 0.71382 0.0
C182 C 0.46432 0.28439 0.77 0.0
C183 C 0.46794 0.28568 0.0115 0.0
C184 C 0.43157 0.34754 0.76782 0.0
O185 O 0.499 0.36587 0.93307 0.0
O186 O 0.5234 0.3956 0.8135 0.0
C187 C 0.58427 0.38629 0.74995 0.0
N188 N 0.55464 0.36977 0.6989 0.0
C189 C 0.59147 0.36769 0.58746 0.0
C190 C 0.62241 0.38494 0.63868 0.0
C191 C 0.61871 0.39398 0.72048 0.0
C192 C 0.55786 0.3607 0.62027 0.0
H193 H 0.58173 0.39393 0.81232 0.0
C194 C 0.5205 0.39481 0.89274 0.0
O195 O 0.44288 0.29464 1.00039 0.0
O196 O 0.49205 0.29515 0.95339 0.0
N197 N 0.49478 0.33586 0.61271 0.0
C198 C 0.4616 0.315 0.576 0.0
C199 C 0.45977 0.30014 0.49715 0.0
C200 C 0.49211 0.30721 0.45657 0.0
C201 C 0.52595 0.32846 0.49602 0.0
C202 C 0.52598 0.3421 0.57506 0.0
H203 H 0.43675 0.30887 0.60795 0.0
O204 O 0.43982 0.26871 0.82731 0.0
O205 O 0.48967 0.3185 0.78235 0.0
O206 O 0.43044 0.33194 0.83721 0.0
O207 O 0.45853 0.35909 0.71831 0.0
C208 C 0.55958 0.336 0.46086 0.0
C209 C 0.59238 0.3559 0.50625 0.0
H210 H 0.64901 0.39086 0.61627 0.0
H211 H 0.64244 0.40715 0.76051 0.0
H212 H 0.4335 0.28322 0.46781 0.0
H213 H 0.49059 0.29569 0.39577 0.0
H214 H 0.56047 0.3261 0.3995 0.0
H215 H 0.61798 0.36101 0.47909 0.0
Mn216 Mn 0.5668 0.86603 0.89072 0.0
Mn217 Mn 0.5302 0.87441 0.07076 0.0
C218 C 0.56919 0.83625 1.00768 0.0
C219 C 0.56231 0.83401 0.7668 0.0
C220 C 0.60432 0.93244 0.00992 0.0
O221 O 0.53321 0.88422 0.85037 0.0
O222 O 0.51383 0.89225 0.9742 0.0
C223 C 0.45167 0.8226 0.03802 0.0
N224 N 0.48172 0.83433 0.08727 0.0
C225 C 0.44532 0.79443 0.19816 0.0
C226 C 0.41399 0.78206 0.14869 0.0
C227 C 0.41723 0.79605 0.06812 0.0
C228 C 0.47892 0.82092 0.16477 0.0
H229 H 0.4539 0.83361 0.97652 0.0
C230 C 0.5145 0.89391 0.89482 0.0
O231 O 0.5876 0.86803 0.77679 0.0
O232 O 0.53882 0.81947 0.82627 0.0
N233 N 0.54229 0.85757 0.16958 0.0
C234 C 0.57561 0.86911 0.20487 0.0
C235 C 0.57769 0.855 0.28231 0.0
C236 C 0.54546 0.82959 0.32319 0.0
C237 C 0.51144 0.8181 0.2856 0.0
C238 C 0.51113 0.83279 0.20791 0.0
H239 H 0.60035 0.88807 0.17285 0.0
O240 O 0.59282 0.84473 0.94853 0.0
O241 O 0.54433 0.84579 0.9983 0.0
O242 O 0.60289 0.91794 0.93909 0.0
O243 O 0.5793 0.91727 0.06419 0.0
C244 C 0.47788 0.79204 0.32128 0.0
C245 C 0.44483 0.78035 0.27777 0.0
H246 H 0.38741 0.76136 0.17128 0.0
H247 H 0.3932 0.78653 0.02948 0.0
H248 H 0.60408 0.86364 0.31034 0.0
H249 H 0.54717 0.81871 0.38285 0.0
H250 H 0.47723 0.78029 0.38146 0.0
H251 H 0.41935 0.75961 0.30493 0.0
Mn252 Mn 0.71927 0.57265 0.07383 0.0
Mn253 Mn 0.67403 0.53084 0.2505 0.0
C254 C 0.75133 0.57889 0.19341 0.0
C255 C 0.75016 0.57046 0.95288 0.0
C256 C 0.68237 0.60285 0.19146 0.0
O257 O 0.66891 0.53547 0.03026 0.0
O258 O 0.6414 0.51151 0.15192 0.0
C259 C 0.66096 0.45648 0.21236 0.0
N260 N 0.67362 0.48559 0.26481 0.0
C261 C 0.68673 0.45331 0.3702 0.0
C262 C 0.67333 0.42281 0.31775 0.0
C263 C 0.66061 0.42449 0.23832 0.0
C264 C 0.68594 0.48426 0.3414 0.0
H265 H 0.65105 0.45759 0.15135 0.0
C266 C 0.64091 0.51342 0.07275 0.0
O267 O 0.73866 0.59381 0.95956 0.0
O268 O 0.74215 0.54781 0.01369 0.0
N269 N 0.70142 0.54538 0.35171 0.0
C270 C 0.71881 0.57885 0.38878 0.0
C271 C 0.73537 0.58275 0.46648 0.0
C272 C 0.73405 0.55223 0.50513 0.0
C273 C 0.71676 0.5182 0.46493 0.0
C274 C 0.70042 0.5159 0.38786 0.0
H275 H 0.72129 0.60258 0.3576 0.0
O276 O 0.76563 0.60249 0.13386 0.0
O277 O 0.71833 0.55147 0.18151 0.0
O278 O 0.69828 0.60463 0.12205 0.0
O279 O 0.67313 0.57683 0.2434 0.0
C280 C 0.71673 0.48697 0.49633 0.0
C281 C 0.70169 0.45453 0.44902 0.0
H282 H 0.67314 0.39814 0.33739 0.0
H283 H 0.65052 0.40117 0.19723 0.0
H284 H 0.74958 0.60933 0.49597 0.0
H285 H 0.7474 0.55549 0.56443 0.0
H286 H 0.72914 0.48792 0.55576 0.0
H287 H 0.70258 0.43097 0.473 0.0
Mn288 Mn 0.16081 0.70982 0.23001 0.0
Mn289 Mn 0.15267 0.66265 0.40701 0.0
C290 C 0.18871 0.74079 0.34966 0.0
C291 C 0.19298 0.74053 0.10797 0.0
C292 C 0.0932 0.67644 0.34645 0.0
O293 O 0.14507 0.65897 0.18596 0.0
O294 O 0.13723 0.63009 0.30803 0.0
C295 C 0.20717 0.63948 0.37411 0.0
N296 N 0.19394 0.65626 0.42384 0.0
C297 C 0.23366 0.66033 0.53555 0.0
C298 C 0.24767 0.64306 0.48552 0.0
C299 C 0.2345 0.63278 0.40432 0.0
C300 C 0.20651 0.66638 0.50197 0.0
H301 H 0.19674 0.63096 0.31216 0.0
C302 C 0.13623 0.63016 0.22865 0.0
O303 O 0.15846 0.72974 0.11757 0.0
O304 O 0.20802 0.73155 0.16641 0.0
N305 N 0.16726 0.6901 0.5078 0.0
C306 C 0.15311 0.70926 0.54499 0.0
C307 C 0.16605 0.72474 0.62346 0.0
C308 C 0.19266 0.71954 0.66369 0.0
C309 C 0.20636 0.69917 0.6247 0.0
C310 C 0.19289 0.68498 0.5459 0.0
H311 H 0.13245 0.71304 0.51447 0.0
O312 O 0.17982 0.75606 0.29139 0.0
O313 O 0.18069 0.70692 0.3378 0.0
O314 O 0.10819 0.69127 0.27703 0.0
O315 O 0.10857 0.66655 0.40005 0.0
C316 C 0.23319 0.69282 0.66038 0.0
C317 C 0.24666 0.67321 0.61605 0.0
H318 H 0.26896 0.63811 0.50826 0.0
H319 H 0.24524 0.61952 0.36529 0.0
H320 H 0.15538 0.74044 0.65311 0.0
H321 H 0.20249 0.73142 0.72431 0.0
H322 H 0.24402 0.70332 0.72141 0.0
H323 H 0.26781 0.66916 0.64336 0.0
Mn324 Mn 0.46404 0.15763 0.40039 0.0
Mn325 Mn 0.50199 0.1472 0.57658 0.0
C326 C 0.46224 0.18582 0.52044 0.0
C327 C 0.46803 0.19146 0.27927 0.0
C328 C 0.42769 0.08925 0.51423 0.0
O329 O 0.49779 0.14031 0.35604 0.0
O330 O 0.51989 0.13291 0.4771 0.0
C331 C 0.58053 0.20092 0.55001 0.0
N332 N 0.54975 0.18786 0.5972 0.0
C333 C 0.58425 0.22569 0.7124 0.0
C334 C 0.61633 0.2394 0.66511 0.0
C335 C 0.6144 0.22715 0.58337 0.0
C336 C 0.55129 0.1996 0.67582 0.0
H337 H 0.57937 0.19107 0.48777 0.0
C338 C 0.51833 0.13194 0.39772 0.0
O339 O 0.44287 0.15727 0.28757 0.0
O340 O 0.49166 0.2051 0.33872 0.0
N341 N 0.48814 0.16086 0.6773 0.0
C342 C 0.45435 0.14686 0.71211 0.0
C343 C 0.45096 0.15915 0.79063 0.0
C344 C 0.48238 0.18502 0.83328 0.0
C345 C 0.51692 0.19866 0.7966 0.0
C346 C 0.51851 0.18593 0.71755 0.0
H347 H 0.43019 0.12684 0.67965 0.0
O348 O 0.43832 0.17811 0.4622 0.0
O349 O 0.48702 0.17642 0.50824 0.0
O350 O 0.42781 0.10517 0.4462 0.0
O351 O 0.45377 0.10347 0.56617 0.0
C352 C 0.54978 0.22462 0.83501 0.0
C353 C 0.58348 0.23784 0.7933 0.0
H354 H 0.64249 0.25968 0.69053 0.0
H355 H 0.63902 0.23765 0.54641 0.0
H356 H 0.42421 0.14855 0.81844 0.0
H357 H 0.47966 0.1943 0.894 0.0
H358 H 0.54944 0.23479 0.89637 0.0
H359 H 0.60852 0.25802 0.82317 0.0
Mn360 Mn 0.31481 0.45217 0.56482 0.0
Mn361 Mn 0.36267 0.49148 0.74039 0.0
C362 C 0.28421 0.44824 0.6855 0.0
C363 C 0.284 0.45466 0.44344 0.0
C364 C 0.3498 0.41861 0.67885 0.0
O365 O 0.36504 0.48806 0.52006 0.0
O366 O 0.39503 0.50948 0.64071 0.0
C367 C 0.38405 0.56888 0.70822 0.0
N368 N 0.36822 0.53876 0.75811 0.0
C369 C 0.36365 0.57366 0.87056 0.0
C370 C 0.38008 0.60509 0.82048 0.0
C371 C 0.39011 0.60262 0.73882 0.0
C372 C 0.35826 0.54078 0.83663 0.0
H373 H 0.39216 0.56724 0.64574 0.0
C374 C 0.39411 0.50824 0.56127 0.0
O375 O 0.29536 0.43125 0.45095 0.0
O376 O 0.29208 0.47739 0.50416 0.0
N377 N 0.3355 0.47787 0.84167 0.0
C378 C 0.31666 0.44433 0.87839 0.0
C379 C 0.30118 0.44125 0.95709 0.0
C380 C 0.30594 0.47277 0.99786 0.0
C381 C 0.32585 0.50705 0.9592 0.0
C382 C 0.34016 0.50833 0.88028 0.0
H383 H 0.31318 0.42012 0.84735 0.0
O384 O 0.26893 0.42402 0.62738 0.0
O385 O 0.31789 0.4744 0.67281 0.0
O386 O 0.33447 0.41853 0.60991 0.0
O387 O 0.35962 0.44386 0.73234 0.0
C388 C 0.33155 0.53993 0.99526 0.0
C389 C 0.35061 0.57323 0.95114 0.0
H390 H 0.38436 0.63106 0.84335 0.0
H391 H 0.40258 0.62671 0.69963 0.0
H392 H 0.28578 0.41469 0.98645 0.0
H393 H 0.29405 0.47032 0.05861 0.0
H394 H 0.3209 0.53982 0.05635 0.0
H395 H 0.35398 0.59814 0.97853 0.0
Mn396 Mn 0.8719 0.30905 0.72431 0.0
Mn397 Mn 0.87023 0.35077 0.90214 0.0
C398 C 0.84358 0.27454 0.83933 0.0
C399 C 0.84151 0.28044 0.59936 0.0
C400 C 0.93661 0.34588 0.8483 0.0
O401 O 0.88525 0.35997 0.68462 0.0
O402 O 0.88314 0.3849 0.80608 0.0
C403 C 0.80661 0.35971 0.86206 0.0
N404 N 0.82386 0.34798 0.91469 0.0
C405 C 0.77609 0.32953 0.01633 0.0
C406 C 0.7581 0.34194 0.96371 0.0
C407 C 0.77331 0.35688 0.88605 0.0
C408 C 0.80944 0.33349 0.98954 0.0
H409 H 0.8182 0.3712 0.80231 0.0
C410 C 0.88799 0.38666 0.7274 0.0
O411 O 0.87621 0.29195 0.6094 0.0
O412 O 0.82552 0.28711 0.65923 0.0
N413 N 0.85742 0.3215 1.00069 0.0
C414 C 0.87464 0.30505 0.037 0.0
C415 C 0.86155 0.28658 0.11272 0.0
C416 C 0.83074 0.28499 0.15009 0.0
C417 C 0.8129 0.30136 0.11058 0.0
C418 C 0.82745 0.31975 0.0356 0.0
H419 H 0.8974 0.30501 1.00693 0.0
O420 O 0.85449 0.26154 0.78035 0.0
O421 O 0.84925 0.30767 0.82948 0.0
O422 O 0.92378 0.3296 0.77851 0.0
O423 O 0.91855 0.35472 0.89712 0.0
C424 C 0.78012 0.29837 0.1403 0.0
C425 C 0.76171 0.3124 0.09313 0.0
H426 H 0.73234 0.33967 0.9818 0.0
H427 H 0.75937 0.36616 0.84479 0.0
H428 H 0.87487 0.27317 0.14165 0.0
H429 H 0.82034 0.27015 0.20775 0.0
H430 H 0.76821 0.28426 0.19802 0.0
H431 H 0.736 0.30902 0.11549 0.0
C432 C 0.21811 0.47301 0.31593 0.0
C433 C 0.21383 0.45378 0.24196 0.0
C434 C 0.24114 0.47339 0.37984 0.0
C435 C 0.26071 0.45437 0.37271 0.0
H436 H 0.20385 0.48816 0.32418 0.0
H437 H 0.24339 0.4886 0.43565 0.0
S438 S 0.25941 0.40074 0.18929 0.0
N439 N 0.23157 0.4161 0.16376 0.0
N440 N 0.27426 0.41623 0.28366 0.0
C441 C 0.25655 0.43509 0.29857 0.0
C442 C 0.23334 0.43501 0.23332 0.0
C443 C 0.82402 0.22959 0.49524 0.0
C444 C 0.81951 0.25815 0.52731 0.0
C445 C 0.79986 0.20522 0.4348 0.0
C446 C 0.77083 0.20905 0.40293 0.0
H447 H 0.84569 0.22538 0.51873 0.0
H448 H 0.80439 0.18371 0.41168 0.0
S449 S 0.74756 0.27961 0.46532 0.0
N450 N 0.7835 0.2885 0.5227 0.0
N451 N 0.7394 0.244 0.40763 0.0
C452 C 0.76648 0.23783 0.4337 0.0
C453 C 0.79042 0.26198 0.49624 0.0
C454 C 0.594 0.78882 0.6076 0.0
C455 C 0.5611 0.76252 0.56985 0.0
C456 C 0.59442 0.81303 0.66849 0.0
C457 C 0.56186 0.81127 0.69562 0.0
H458 H 0.61974 0.7912 0.58891 0.0
H459 H 0.62034 0.83258 0.69616 0.0
S460 S 0.46848 0.74756 0.61705 0.0
N461 N 0.49517 0.73693 0.56341 0.0
N462 N 0.49588 0.78103 0.67993 0.0
C463 C 0.52883 0.78497 0.65889 0.0
C464 C 0.52847 0.76102 0.59549 0.0
C465 C 0.82453 0.60374 0.78543 0.0
C466 C 0.82279 0.57106 0.75901 0.0
C467 C 0.80007 0.60342 0.84578 0.0
C468 C 0.7735 0.57048 0.8832 0.0
H469 H 0.84416 0.6296 0.75748 0.0
H470 H 0.80244 0.62919 0.86433 0.0
S471 S 0.75821 0.47762 0.8366 0.0
N472 N 0.79214 0.50501 0.77464 0.0
N473 N 0.74756 0.50445 0.88957 0.0
C474 C 0.77202 0.53779 0.85796 0.0
C475 C 0.79622 0.53807 0.7955 0.0
C476 C 0.26794 0.7856 0.94373 0.0
C477 C 0.26283 0.81381 0.91143 0.0
C478 C 0.24519 0.76201 1.00678 0.0
C479 C 0.2154 0.76461 0.03797 0.0
H480 H 0.28994 0.78189 0.92054 0.0
H481 H 0.25076 0.74126 0.03068 0.0
S482 S 0.18954 0.83314 0.97327 0.0
N483 N 0.22572 0.84295 0.91592 0.0
N484 N 0.18218 0.79781 0.03147 0.0
C485 C 0.20968 0.79236 1.00542 0.0
C486 C 0.23356 0.81713 0.94305 0.0
C487 C 0.43558 0.20874 0.17198 0.0
C488 C 0.46845 0.2151 0.20952 0.0
C489 C 0.43532 0.23259 0.11067 0.0
C490 C 0.46801 0.26321 0.08302 0.0
H491 H 0.40975 0.18554 0.19116 0.0
H492 H 0.40944 0.22642 0.08314 0.0
S493 S 0.56135 0.29217 0.1608 0.0
N494 N 0.53448 0.25497 0.21499 0.0
N495 N 0.53406 0.29852 0.09809 0.0
C496 C 0.50099 0.26969 0.1196 0.0
C497 C 0.50119 0.24603 0.18324 0.0
C498 C 0.13084 0.56665 0.05573 0.0
C499 C 0.12885 0.53657 0.09878 0.0
C500 C 0.13098 0.59576 0.09778 0.0
C501 C 0.12883 0.59601 0.18479 0.0
H502 H 0.13425 0.56882 0.98908 0.0
H503 H 0.13447 0.61898 0.06169 0.0
S504 S 0.11654 0.52065 0.32575 0.0
N505 N 0.12 0.50666 0.23259 0.0
N506 N 0.11975 0.56092 0.31178 0.0
C507 C 0.12378 0.56464 0.22813 0.0
C508 C 0.12395 0.53511 0.18519 0.0
C509 C 0.57737 0.13025 0.22239 0.0
C510 C 0.60517 0.12725 0.26391 0.0
C511 C 0.5482 0.12944 0.26553 0.0
C512 C 0.54534 0.12547 0.35226 0.0
H513 H 0.57882 0.13491 0.15614 0.0
H514 H 0.52866 0.13362 0.23058 0.0
S515 S 0.60792 0.11088 0.48933 0.0
N516 N 0.62576 0.1161 0.39597 0.0
N517 N 0.57089 0.11423 0.47713 0.0
C518 C 0.57156 0.11981 0.394 0.0
C519 C 0.60145 0.12084 0.34993 0.0
C520 C 0.45558 0.56541 0.5579 0.0
C521 C 0.42758 0.53504 0.51566 0.0
C522 C 0.48413 0.59466 0.51502 0.0
C523 C 0.48619 0.59474 0.42797 0.0
H524 H 0.45453 0.56772 0.62454 0.0
H525 H 0.50377 0.6181 0.55052 0.0
S526 S 0.42337 0.51862 0.28894 0.0
N527 N 0.40636 0.50467 0.38256 0.0
N528 N 0.46011 0.55922 0.30181 0.0
C529 C 0.46005 0.56309 0.38543 0.0
C530 C 0.43077 0.53341 0.42922 0.0
C531 C 0.89076 0.47703 0.68754 0.0
C532 C 0.89533 0.48153 0.60115 0.0
C533 C 0.89005 0.44722 0.72796 0.0
C534 C 0.89386 0.42045 0.68393 0.0
H535 H 0.88617 0.49584 0.72425 0.0
H536 H 0.88505 0.44455 0.7941 0.0
S537 S 0.91136 0.42192 0.458 0.0
N538 N 0.90739 0.45842 0.47378 0.0
N539 N 0.90588 0.40246 0.54966 0.0
C540 C 0.90052 0.42569 0.59811 0.0
C541 C 0.9013 0.45614 0.55686 0.0
C542 C 0.45848 0.90407 0.72372 0.0
C543 C 0.42957 0.90421 0.76714 0.0
C544 C 0.48717 0.90325 0.76547 0.0
C545 C 0.48851 0.9029 0.85258 0.0
H546 H 0.45798 0.90231 0.65675 0.0
H547 H 0.50744 0.90101 0.72879 0.0
S548 S 0.42353 0.91059 0.99546 0.0
N549 N 0.40696 0.90933 0.90213 0.0
N550 N 0.46105 0.90837 0.98078 0.0
C551 C 0.46167 0.90663 0.89673 0.0
C552 C 0.43221 0.90713 0.85404 0.0
C553 C 0.57666 0.45726 0.89803 0.0
C554 C 0.54716 0.42799 0.93987 0.0
C555 C 0.60593 0.48564 0.94132 0.0
C556 C 0.60701 0.48621 0.02852 0.0
H557 H 0.57823 0.45752 0.83104 0.0
H558 H 0.62855 0.5065 0.90575 0.0
S559 S 0.53402 0.41886 0.16812 0.0
N560 N 0.51908 0.40351 0.07395 0.0
N561 N 0.57374 0.4567 0.15526 0.0
C562 C 0.57643 0.45845 0.07123 0.0
C563 C 0.54666 0.42946 0.02703 0.0
C564 C 0.23129 0.41675 0.78081 0.0
C565 C 0.2605 0.44965 0.75026 0.0
C566 C 0.20632 0.41697 0.83733 0.0
C567 C 0.20993 0.4501 0.86578 0.0
H568 H 0.22761 0.39064 0.76054 0.0
H569 H 0.18414 0.39101 0.8593 0.0
S570 S 0.28155 0.54327 0.80457 0.0
N571 N 0.28921 0.51585 0.74586 0.0
N572 N 0.24699 0.51638 0.86539 0.0
C573 C 0.23963 0.48305 0.83761 0.0
C574 C 0.26363 0.48279 0.77609 0.0
C575 C 0.76682 0.22959 0.99299 0.0
C576 C 0.77057 0.20052 0.02308 0.0
C577 C 0.78924 0.25201 0.92959 0.0
C578 C 0.81944 0.24951 0.90312 0.0
H579 H 0.74667 0.23529 0.01914 0.0
H580 H 0.78335 0.27194 0.90242 0.0
S581 S 0.84283 0.17914 0.96585 0.0
N582 N 0.8058 0.16926 0.01989 0.0
N583 N 0.85198 0.21559 0.90992 0.0
C584 C 0.82422 0.22105 0.93387 0.0
C585 C 0.79942 0.19618 0.99345 0.0
C586 C 0.60068 0.79039 0.16075 0.0
C587 C 0.56765 0.76174 0.19203 0.0
C588 C 0.60077 0.81471 0.10184 0.0
C589 C 0.56782 0.81114 0.07234 0.0
H590 H 0.62666 0.79418 0.18248 0.0
H591 H 0.62682 0.83664 0.07962 0.0
S592 S 0.47434 0.74037 0.13334 0.0
N593 N 0.50143 0.7329 0.19403 0.0
N594 N 0.50154 0.77463 0.07196 0.0
C595 C 0.53469 0.78185 0.10082 0.0
C596 C 0.53462 0.75827 0.16406 0.0
C597 C 0.79309 0.54712 0.35577 0.0
C598 C 0.82338 0.57984 0.38213 0.0
C599 C 0.77089 0.54705 0.29184 0.0
C600 C 0.77501 0.57987 0.26076 0.0
H601 H 0.78689 0.52132 0.38362 0.0
H602 H 0.75039 0.5211 0.26654 0.0
S603 S 0.8479 0.67362 0.31656 0.0
N604 N 0.85655 0.64633 0.37383 0.0
N605 N 0.81089 0.64644 0.26233 0.0
C606 C 0.80412 0.61313 0.28975 0.0
C607 C 0.82863 0.61309 0.35021 0.0
C608 C 0.20839 0.793 0.44557 0.0
C609 C 0.21303 0.76434 0.41564 0.0
C610 C 0.23264 0.8179 0.50348 0.0
C611 C 0.2622 0.81484 0.53386 0.0
H612 H 0.18592 0.79631 0.42375 0.0
H613 H 0.22817 0.83971 0.52475 0.0
S614 S 0.28594 0.74459 0.47553 0.0
N615 N 0.25125 0.73645 0.41465 0.0
N616 N 0.29254 0.77889 0.53597 0.0
C617 C 0.26642 0.78567 0.50641 0.0
C618 C 0.24302 0.76163 0.4437 0.0
C619 C 0.4322 0.2321 0.67461 0.0
C620 C 0.46545 0.26104 0.70418 0.0
C621 C 0.43163 0.20723 0.61697 0.0
C622 C 0.4643 0.21062 0.58645 0.0
H623 H 0.40635 0.22856 0.69643 0.0
H624 H 0.4054 0.18526 0.5958 0.0
S625 S 0.55828 0.28172 0.64351 0.0
N626 N 0.53164 0.28963 0.70452 0.0
N627 N 0.53061 0.2471 0.58369 0.0
C628 C 0.49768 0.24003 0.61356 0.0
C629 C 0.49825 0.2641 0.676 0.0
C630 C 0.03946 0.38188 0.83869 0.0
C631 C 0.05095 0.3923 0.92146 0.0
C632 C 1.00226 0.36444 0.81594 0.0
C633 C 0.97497 0.35736 0.8748 0.0
H634 H 0.05961 0.38906 0.79009 0.0
H635 H 0.99519 0.35873 0.75103 0.0
S636 S 0.99042 0.3757 0.1016 0.0
N637 N 0.03181 0.39104 0.06331 0.0
N638 N 0.96232 0.35928 0.02182 0.0
C639 C 0.98607 0.36553 0.95882 0.0
C640 C 0.02388 0.38264 0.98186 0.0
C641 C 0.6424 0.99823 0.96873 0.0
C642 C 0.633 0.97087 0.02876 0.0
C643 C 0.65953 0.03536 0.99125 0.0
C644 C 0.66837 0.04681 0.07467 0.0
H645 H 0.63373 0.99083 0.90505 0.0
H646 H 0.66396 0.05503 0.94304 0.0
S647 S 0.65552 0.98619 0.25325 0.0
N648 N 0.63833 0.95809 0.17363 0.0
N649 N 0.67067 0.02774 0.21544 0.0
C650 C 0.66236 0.02 0.13393 0.0
C651 C 0.64462 0.98212 0.1111 0.0
C652 C 0.65975 0.64579 0.15036 0.0
C653 C 0.67072 0.63005 0.21274 0.0
C654 C 0.64044 0.66401 0.16992 0.0
C655 C 0.63178 0.66776 0.25268 0.0
H656 H 0.66361 0.64169 0.08576 0.0
H657 H 0.63031 0.67333 0.11924 0.0
S658 S 0.6595 0.63688 0.43991 0.0
N659 N 0.67518 0.62351 0.36184 0.0
N660 N 0.63959 0.65807 0.39749 0.0
C661 C 0.64561 0.65529 0.31581 0.0
C662 C 0.66479 0.6363 0.29609 0.0
C663 C 0.04335 0.66387 0.44859 0.0
C664 C 0.05451 0.66567 0.36525 0.0
C665 C 1.00614 0.64489 0.47159 0.0
C666 C 0.97849 0.62621 0.41238 0.0
H667 H 0.06368 0.67563 0.49725 0.0
H668 H 0.99925 0.64282 0.53675 0.0
S669 S 0.99309 0.62585 0.18451 0.0
N670 N 0.03474 0.65023 0.22286 0.0
N671 N 0.96528 0.61393 0.26482 0.0
C672 C 0.98935 0.62994 0.32807 0.0
C673 C 0.02716 0.64985 0.30481 0.0
C674 C 0.39225 0.03948 0.61838 0.0
C675 C 0.39804 0.05121 0.53466 0.0
C676 C 0.37207 1.00217 0.64014 0.0
C677 C 0.35704 0.97491 0.57906 0.0
H678 H 0.40542 0.05917 0.66774 0.0
H679 H 0.37102 0.99463 0.70471 0.0
S680 S 0.35831 0.99101 0.35194 0.0
N681 N 0.38249 0.0325 0.39149 0.0
N682 N 0.34474 0.96263 0.43166 0.0
C683 C 0.35956 0.98646 0.49569 0.0
C684 C 0.37991 0.02449 0.47365 0.0
C685 C 0.36461 0.38295 0.78131 0.0
C686 C 0.36106 0.39096 0.69771 0.0
C687 C 0.38463 0.36572 0.80376 0.0
C688 C 0.40241 0.35621 0.74357 0.0
H689 H 0.35371 0.39214 0.83051 0.0
H690 H 0.38851 0.36248 0.86893 0.0
S691 S 0.39707 0.36614 0.51523 0.0
N692 N 0.37331 0.38391 0.5544 0.0
N693 N 0.41107 0.35206 0.59542 0.0
C694 C 0.39638 0.36127 0.65932 0.0
C695 C 0.37563 0.3784 0.63666 0.0
loop_
_geom_bond_atom_site_label_1
_geom_bond_atom_site_label_2
_geom_bond_distance
_geom_bond_site_symmetry_2
_ccdc_geom_bond_type
Mn0 O5 2.095 . S
Mn0 O15 2.162 . S
Mn0 O16 2.297 . S
Mn0 O24 2.385 1_554 S
Mn0 O25 2.209 1_554 S
Mn0 O26 2.094 . S
Mn1 O6 2.121 . S
Mn1 N8 2.257 . S
Mn1 N17 2.282 . S
Mn1 O25 2.215 . S
Mn1 O27 2.117 . S
C2 O24 1.234 . S
C2 O25 1.283 . S
C3 O15 1.281 . S
C3 O16 1.236 . S
C4 O26 1.240 1_556 S
C4 O27 1.264 . S
O5 Mn0 2.095 . S
O5 C14 1.250 . S
O6 Mn1 2.121 . S
O6 C14 1.258 1_556 S
C7 N8 1.326 . S
C7 C11 1.460 . S
C7 H13 0.929 . S
N8 Mn1 2.257 . S
N8 C7 1.326 . S
N8 C12 1.362 . S
C9 C10 1.258 . S
C9 C12 1.431 . S
C9 C29 1.449 . S
C10 C9 1.258 . S
C10 C11 1.477 . S
C10 H30 0.931 . S
C11 C7 1.460 . S
C11 C10 1.477 . S
C11 H31 0.930 . S
C12 N8 1.362 . S
C12 C9 1.431 . S
C12 C22 1.476 . S
H13 C7 0.929 . S
C14 O5 1.250 . S
C14 O6 1.258 1_554 S
O15 Mn0 2.162 . S
O15 C3 1.281 . S
O16 Mn0 2.297 . S
O16 C3 1.236 . S
N17 Mn1 2.282 . S
N17 C18 1.328 . S
N17 C22 1.318 . S
C18 N17 1.328 . S
C18 C19 1.457 . S
C18 H23 0.929 . S
C19 C18 1.457 . S
C19 C20 1.291 . S
C19 H32 0.931 . S
C20 C19 1.291 . S
C20 C21 1.373 . S
C20 H33 0.929 . S
C21 C20 1.373 . S
C21 C22 1.396 . S
C21 C28 1.403 . S
C22 C12 1.476 . S
C22 N17 1.318 . S
C22 C21 1.396 . S
H23 C18 0.929 . S
O24 Mn0 2.385 1_556 S
O24 C2 1.234 . S
O25 Mn0 2.209 1_556 S
O25 Mn1 2.215 . S
O25 C2 1.283 . S
O26 Mn0 2.094 . S
O26 C4 1.240 1_554 S
O27 Mn1 2.117 . S
O27 C4 1.264 . S
C28 C21 1.403 . S
C28 C29 1.399 . S
C28 H34 0.929 . S
C29 C9 1.449 . S
C29 C28 1.399 . S
C29 H35 0.930 . S
H30 C10 0.931 . S
H31 C11 0.930 . S
H32 C19 0.931 . S
H33 C20 0.929 . S
H34 C28 0.929 . S
H35 C29 0.930 . S
Mn36 O41 2.095 . S
Mn36 O51 2.162 . S
Mn36 O52 2.297 . S
Mn36 O60 2.385 . S
Mn36 O61 2.209 . S
Mn36 O62 2.094 . S
Mn37 O42 2.121 . S
Mn37 N44 2.257 1_554 S
Mn37 N53 2.282 1_554 S
Mn37 O61 2.215 . S
Mn37 O63 2.117 . S
C38 O60 1.234 . S
C38 O61 1.283 . S
C39 O51 1.281 . S
C39 O52 1.236 . S
C40 O62 1.240 . S
C40 O63 1.264 . S
O41 Mn36 2.095 . S
O41 C50 1.250 . S
O42 Mn37 2.121 . S
O42 C50 1.258 . S
C43 N44 1.326 1_554 S
C43 C47 1.460 1_554 S
C43 H49 0.929 . S
N44 Mn37 2.257 1_556 S
N44 C43 1.326 1_556 S
N44 C48 1.362 . S
C45 C46 1.258 . S
C45 C48 1.431 . S
C45 C65 1.449 . S
C46 C45 1.258 . S
C46 C47 1.477 . S
C46 H66 0.931 . S
C47 C43 1.460 1_556 S
C47 C46 1.477 . S
C47 H67 0.930 . S
C48 N44 1.362 . S
C48 C45 1.431 . S
C48 C58 1.476 . S
H49 C43 0.929 . S
C50 O41 1.250 . S
C50 O42 1.258 . S
O51 Mn36 2.162 . S
O51 C39 1.281 . S
O52 Mn36 2.297 . S
O52 C39 1.236 . S
N53 Mn37 2.282 1_556 S
N53 C54 1.328 . S
N53 C58 1.318 . S
C54 N53 1.328 . S
C54 C55 1.457 . S
C54 H59 0.929 . S
C55 C54 1.457 . S
C55 C56 1.291 . S
C55 H68 0.931 . S
C56 C55 1.291 . S
C56 C57 1.373 . S
C56 H69 0.929 . S
C57 C56 1.373 . S
C57 C58 1.396 . S
C57 C64 1.403 . S
C58 C48 1.476 . S
C58 N53 1.318 . S
C58 C57 1.396 . S
H59 C54 0.929 . S
O60 Mn36 2.385 . S
O60 C38 1.234 . S
O61 Mn36 2.209 . S
O61 Mn37 2.215 . S
O61 C38 1.283 . S
O62 Mn36 2.094 . S
O62 C40 1.240 . S
O63 Mn37 2.117 . S
O63 C40 1.264 . S
C64 C57 1.403 . S
C64 C65 1.399 . S
C64 H70 0.929 . S
C65 C45 1.449 . S
C65 C64 1.399 . S
C65 H71 0.930 . S
H66 C46 0.931 . S
H67 C47 0.930 . S
H68 C55 0.931 . S
H69 C56 0.929 . S
H70 C64 0.929 . S
H71 C65 0.930 . S
Mn72 O77 2.095 . S
Mn72 O87 2.162 . S
Mn72 O88 2.297 . S
Mn72 O96 2.385 . S
Mn72 O97 2.209 . S
Mn72 O98 2.094 . S
Mn73 O78 2.121 . S
Mn73 N80 2.257 . S
Mn73 N89 2.282 . S
Mn73 O97 2.215 . S
Mn73 O99 2.117 . S
C74 O96 1.234 . S
C74 O97 1.283 . S
C75 O87 1.281 . S
C75 O88 1.236 . S
C76 O98 1.240 . S
C76 O99 1.264 . S
O77 Mn72 2.095 . S
O77 C86 1.250 . S
O78 Mn73 2.121 . S
O78 C86 1.258 . S
C79 N80 1.326 . S
C79 C83 1.460 . S
C79 H85 0.929 . S
N80 Mn73 2.257 . S
N80 C79 1.326 . S
N80 C84 1.362 . S
C81 C82 1.258 . S
C81 C84 1.431 . S
C81 C101 1.449 1_554 S
C82 C81 1.258 . S
C82 C83 1.477 . S
C82 H102 0.931 1_554 S
C83 C79 1.460 . S
C83 C82 1.477 . S
C83 H103 0.930 . S
C84 N80 1.362 . S
C84 C81 1.431 . S
C84 C94 1.476 . S
H85 C79 0.929 . S
C86 O77 1.250 . S
C86 O78 1.258 . S
O87 Mn72 2.162 . S
O87 C75 1.281 . S
O88 Mn72 2.297 . S
O88 C75 1.236 . S
N89 Mn73 2.282 . S
N89 C90 1.328 . S
N89 C94 1.318 . S
C90 N89 1.328 . S
C90 C91 1.457 . S
C90 H95 0.929 . S
C91 C90 1.457 . S
C91 C92 1.291 1_554 S
C91 H104 0.931 1_554 S
C92 C91 1.291 1_556 S
C92 C93 1.373 . S
C92 H105 0.929 . S
C93 C92 1.373 . S
C93 C94 1.396 1_556 S
C93 C100 1.403 . S
C94 C84 1.476 . S
C94 N89 1.318 . S
C94 C93 1.396 1_554 S
H95 C90 0.929 . S
O96 Mn72 2.385 . S
O96 C74 1.234 . S
O97 Mn72 2.209 . S
O97 Mn73 2.215 . S
O97 C74 1.283 . S
O98 Mn72 2.094 . S
O98 C76 1.240 . S
O99 Mn73 2.117 . S
O99 C76 1.264 . S
C100 C93 1.403 . S
C100 C101 1.399 . S
C100 H106 0.929 . S
C101 C81 1.449 1_556 S
C101 C100 1.399 . S
C101 H107 0.930 . S
H102 C82 0.931 1_556 S
H103 C83 0.930 . S
H104 C91 0.931 1_556 S
H105 C92 0.929 . S
H106 C100 0.929 . S
H107 C101 0.930 . S
Mn108 O113 2.095 . S
Mn108 O123 2.162 . S
Mn108 O124 2.297 . S
Mn108 O132 2.385 . S
Mn108 O133 2.209 . S
Mn108 O134 2.094 . S
Mn109 O114 2.121 . S
Mn109 N116 2.257 . S
Mn109 N125 2.282 . S
Mn109 O133 2.215 . S
Mn109 O135 2.117 . S
C110 O132 1.234 . S
C110 O133 1.283 . S
C111 O123 1.281 . S
C111 O124 1.236 . S
C112 O134 1.240 . S
C112 O135 1.264 . S
O113 Mn108 2.095 . S
O113 C122 1.250 . S
O114 Mn109 2.121 . S
O114 C122 1.258 . S
C115 N116 1.326 . S
C115 C119 1.460 . S
C115 H121 0.929 . S
N116 Mn109 2.257 . S
N116 C115 1.326 . S
N116 C120 1.362 . S
C117 C118 1.258 . S
C117 C120 1.431 . S
C117 C137 1.449 . S
C118 C117 1.258 . S
C118 C119 1.477 . S
C118 H138 0.931 . S
C119 C115 1.460 . S
C119 C118 1.477 . S
C119 H139 0.930 . S
C120 N116 1.362 . S
C120 C117 1.431 . S
C120 C130 1.476 . S
H121 C115 0.929 . S
C122 O113 1.250 . S
C122 O114 1.258 . S
O123 Mn108 2.162 . S
O123 C111 1.281 . S
O124 Mn108 2.297 . S
O124 C111 1.236 . S
N125 Mn109 2.282 . S
N125 C126 1.328 . S
N125 C130 1.318 . S
C126 N125 1.328 . S
C126 C127 1.457 . S
C126 H131 0.929 . S
C127 C126 1.457 . S
C127 C128 1.291 . S
C127 H140 0.931 . S
C128 C127 1.291 . S
C128 C129 1.373 . S
C128 H141 0.929 . S
C129 C128 1.373 . S
C129 C130 1.396 . S
C129 C136 1.403 . S
C130 C120 1.476 . S
C130 N125 1.318 . S
C130 C129 1.396 . S
H131 C126 0.929 . S
O132 Mn108 2.385 . S
O132 C110 1.234 . S
O133 Mn108 2.209 . S
O133 Mn109 2.215 . S
O133 C110 1.283 . S
O134 Mn108 2.094 . S
O134 C112 1.240 . S
O135 Mn109 2.117 . S
O135 C112 1.264 . S
C136 C129 1.403 . S
C136 C137 1.399 . S
C136 H142 0.929 . S
C137 C117 1.449 . S
C137 C136 1.399 . S
C137 H143 0.930 . S
H138 C118 0.931 . S
H139 C119 0.930 . S
H140 C127 0.931 . S
H141 C128 0.929 . S
H142 C136 0.929 . S
H143 C137 0.930 . S
Mn144 O149 2.095 . S
Mn144 O159 2.162 . S
Mn144 O160 2.297 . S
Mn144 O168 2.385 . S
Mn144 O169 2.209 . S
Mn144 O170 2.094 . S
Mn145 O150 2.121 . S
Mn145 N152 2.257 . S
Mn145 N161 2.282 . S
Mn145 O169 2.215 . S
Mn145 O171 2.117 . S
C146 O168 1.234 . S
C146 O169 1.283 . S
C147 O159 1.281 . S
C147 O160 1.236 . S
C148 O170 1.240 . S
C148 O171 1.264 . S
O149 Mn144 2.095 . S
O149 C158 1.250 . S
O150 Mn145 2.121 . S
O150 C158 1.258 . S
C151 N152 1.326 . S
C151 C155 1.460 . S
C151 H157 0.929 . S
N152 Mn145 2.257 . S
N152 C151 1.326 . S
N152 C156 1.362 . S
C153 C154 1.258 . S
C153 C156 1.431 . S
C153 C173 1.449 . S
C154 C153 1.258 . S
C154 C155 1.477 . S
C154 H174 0.931 . S
C155 C151 1.460 . S
C155 C154 1.477 . S
C155 H175 0.930 . S
C156 N152 1.362 . S
C156 C153 1.431 . S
C156 C166 1.476 . S
H157 C151 0.929 . S
C158 O149 1.250 . S
C158 O150 1.258 . S
O159 Mn144 2.162 . S
O159 C147 1.281 . S
O160 Mn144 2.297 . S
O160 C147 1.236 . S
N161 Mn145 2.282 . S
N161 C162 1.328 . S
N161 C166 1.318 . S
C162 N161 1.328 . S
C162 C163 1.457 . S
C162 H167 0.929 . S
C163 C162 1.457 . S
C163 C164 1.291 . S
C163 H176 0.931 . S
C164 C163 1.291 . S
C164 C165 1.373 . S
C164 H177 0.929 . S
C165 C164 1.373 . S
C165 C166 1.396 . S
C165 C172 1.403 . S
C166 C156 1.476 . S
C166 N161 1.318 . S
C166 C165 1.396 . S
H167 C162 0.929 . S
O168 Mn144 2.385 . S
O168 C146 1.234 . S
O169 Mn144 2.209 . S
O169 Mn145 2.215 . S
O169 C146 1.283 . S
O170 Mn144 2.094 . S
O170 C148 1.240 . S
O171 Mn145 2.117 . S
O171 C148 1.264 . S
C172 C165 1.403 . S
C172 C173 1.399 . S
C172 H178 0.929 . S
C173 C153 1.449 . S
C173 C172 1.399 . S
C173 H179 0.930 . S
H174 C154 0.931 . S
H175 C155 0.930 . S
H176 C163 0.931 . S
H177 C164 0.929 . S
H178 C172 0.929 . S
H179 C173 0.930 . S
Mn180 O185 2.095 . S
Mn180 O195 2.170 . S
Mn180 O196 2.297 . S
Mn180 O204 2.385 . S
Mn180 O205 2.209 . S
Mn180 O206 2.094 . S
Mn181 O186 2.121 . S
Mn181 N188 2.257 . S
Mn181 N197 2.282 . S
Mn181 O205 2.215 . S
Mn181 O207 2.117 . S
C182 O204 1.234 . S
C182 O205 1.283 . S
C183 O195 1.280 1_554 S
C183 O196 1.236 1_554 S
C184 O206 1.240 . S
C184 O207 1.264 . S
O185 Mn180 2.095 . S
O185 C194 1.250 . S
O186 Mn181 2.121 . S
O186 C194 1.258 . S
C187 N188 1.326 . S
C187 C191 1.460 . S
C187 H193 0.929 . S
N188 Mn181 2.257 . S
N188 C187 1.326 . S
N188 C192 1.362 . S
C189 C190 1.258 . S
C189 C192 1.431 . S
C189 C209 1.449 . S
C190 C189 1.258 . S
C190 C191 1.477 . S
C190 H210 0.931 . S
C191 C187 1.460 . S
C191 C190 1.477 . S
C191 H211 0.930 . S
C192 N188 1.362 . S
C192 C189 1.431 . S
C192 C202 1.476 . S
H193 C187 0.929 . S
C194 O185 1.250 . S
C194 O186 1.258 . S
O195 Mn180 2.170 . S
O195 C183 1.280 1_556 S
O196 Mn180 2.297 . S
O196 C183 1.236 1_556 S
N197 Mn181 2.282 . S
N197 C198 1.328 . S
N197 C202 1.318 . S
C198 N197 1.328 . S
C198 C199 1.457 . S
C198 H203 0.929 . S
C199 C198 1.457 . S
C199 C200 1.291 . S
C199 H212 0.931 . S
C200 C199 1.291 . S
C200 C201 1.373 . S
C200 H213 0.929 . S
C201 C200 1.373 . S
C201 C202 1.396 . S
C201 C208 1.403 . S
C202 C192 1.476 . S
C202 N197 1.318 . S
C202 C201 1.396 . S
H203 C198 0.929 . S
O204 Mn180 2.385 . S
O204 C182 1.234 . S
O205 Mn180 2.209 . S
O205 Mn181 2.215 . S
O205 C182 1.283 . S
O206 Mn180 2.094 . S
O206 C184 1.240 . S
O207 Mn181 2.117 . S
O207 C184 1.264 . S
C208 C201 1.403 . S
C208 C209 1.399 . S
C208 H214 0.929 . S
C209 C189 1.449 . S
C209 C208 1.399 . S
C209 H215 0.930 . S
H210 C190 0.931 . S
H211 C191 0.930 . S
H212 C199 0.931 . S
H213 C200 0.929 . S
H214 C208 0.929 . S
H215 C209 0.930 . S
Mn216 O221 2.095 . S
Mn216 O231 2.162 . S
Mn216 O232 2.297 . S
Mn216 O240 2.385 . S
Mn216 O241 2.209 . S
Mn216 O242 2.094 . S
Mn217 O222 2.121 1_554 S
Mn217 N224 2.257 . S
Mn217 N233 2.282 . S
Mn217 O241 2.215 1_554 S
Mn217 O243 2.117 . S
C218 O240 1.235 . S
C218 O241 1.284 . S
C219 O231 1.281 . S
C219 O232 1.236 . S
C220 O242 1.240 . S
C220 O243 1.264 1_556 S
O221 Mn216 2.095 . S
O221 C230 1.250 . S
O222 Mn217 2.121 1_556 S
O222 C230 1.258 . S
C223 N224 1.326 . S
C223 C227 1.460 . S
C223 H229 0.929 . S
N224 Mn217 2.257 . S
N224 C223 1.326 . S
N224 C228 1.362 . S
C225 C226 1.258 . S
C225 C228 1.431 . S
C225 C245 1.449 . S
C226 C225 1.258 . S
C226 C227 1.477 . S
C226 H246 0.931 . S
C227 C223 1.460 . S
C227 C226 1.477 . S
C227 H247 0.930 . S
C228 N224 1.362 . S
C228 C225 1.431 . S
C228 C238 1.476 . S
H229 C223 0.929 . S
C230 O221 1.250 . S
C230 O222 1.258 . S
O231 Mn216 2.162 . S
O231 C219 1.281 . S
O232 Mn216 2.297 . S
O232 C219 1.236 . S
N233 Mn217 2.282 . S
N233 C234 1.328 . S
N233 C238 1.318 . S
C234 N233 1.328 . S
C234 C235 1.457 . S
C234 H239 0.929 . S
C235 C234 1.457 . S
C235 C236 1.291 . S
C235 H248 0.931 . S
C236 C235 1.291 . S
C236 C237 1.373 . S
C236 H249 0.929 . S
C237 C236 1.373 . S
C237 C238 1.396 . S
C237 C244 1.403 . S
C238 C228 1.476 . S
C238 N233 1.318 . S
C238 C237 1.396 . S
H239 C234 0.929 . S
O240 Mn216 2.385 . S
O240 C218 1.235 . S
O241 Mn216 2.209 . S
O241 Mn217 2.215 1_556 S
O241 C218 1.284 . S
O242 Mn216 2.094 . S
O242 C220 1.240 . S
O243 Mn217 2.117 . S
O243 C220 1.264 1_554 S
C244 C237 1.403 . S
C244 C245 1.399 . S
C244 H250 0.929 . S
C245 C225 1.449 . S
C245 C244 1.399 . S
C245 H251 0.930 . S
H246 C226 0.931 . S
H247 C227 0.930 . S
H248 C235 0.931 . S
H249 C236 0.929 . S
H250 C244 0.929 . S
H251 C245 0.930 . S
Mn252 O257 2.095 . S
Mn252 O267 2.162 1_554 S
Mn252 O268 2.297 1_554 S
Mn252 O276 2.385 . S
Mn252 O277 2.209 . S
Mn252 O278 2.094 . S
Mn253 O258 2.121 . S
Mn253 N260 2.257 . S
Mn253 N269 2.282 . S
Mn253 O277 2.215 . S
Mn253 O279 2.117 . S
C254 O276 1.234 . S
C254 O277 1.283 . S
C255 O267 1.281 . S
C255 O268 1.236 . S
C256 O278 1.240 . S
C256 O279 1.264 . S
O257 Mn252 2.095 . S
O257 C266 1.250 . S
O258 Mn253 2.121 . S
O258 C266 1.258 . S
C259 N260 1.326 . S
C259 C263 1.460 . S
C259 H265 0.929 . S
N260 Mn253 2.257 . S
N260 C259 1.326 . S
N260 C264 1.362 . S
C261 C262 1.258 . S
C261 C264 1.431 . S
C261 C281 1.449 . S
C262 C261 1.258 . S
C262 C263 1.477 . S
C262 H282 0.931 . S
C263 C259 1.460 . S
C263 C262 1.477 . S
C263 H283 0.930 . S
C264 N260 1.362 . S
C264 C261 1.431 . S
C264 C274 1.476 . S
H265 C259 0.929 . S
C266 O257 1.250 . S
C266 O258 1.258 . S
O267 Mn252 2.162 1_556 S
O267 C255 1.281 . S
O268 Mn252 2.297 1_556 S
O268 C255 1.236 . S
N269 Mn253 2.282 . S
N269 C270 1.328 . S
N269 C274 1.318 . S
C270 N269 1.328 . S
C270 C271 1.457 . S
C270 H275 0.929 . S
C271 C270 1.457 . S
C271 C272 1.291 . S
C271 H284 0.931 . S
C272 C271 1.291 . S
C272 C273 1.373 . S
C272 H285 0.929 . S
C273 C272 1.373 . S
C273 C274 1.396 . S
C273 C280 1.403 . S
C274 C264 1.476 . S
C274 N269 1.318 . S
C274 C273 1.396 . S
H275 C270 0.929 . S
O276 Mn252 2.385 . S
O276 C254 1.234 . S
O277 Mn252 2.209 . S
O277 Mn253 2.215 . S
O277 C254 1.283 . S
O278 Mn252 2.094 . S
O278 C256 1.240 . S
O279 Mn253 2.117 . S
O279 C256 1.264 . S
C280 C273 1.403 . S
C280 C281 1.399 . S
C280 H286 0.929 . S
C281 C261 1.449 . S
C281 C280 1.399 . S
C281 H287 0.930 . S
H282 C262 0.931 . S
H283 C263 0.930 . S
H284 C271 0.931 . S
H285 C272 0.929 . S
H286 C280 0.929 . S
H287 C281 0.930 . S
Mn288 O293 2.095 . S
Mn288 O303 2.162 . S
Mn288 O304 2.297 . S
Mn288 O312 2.385 . S
Mn288 O313 2.209 . S
Mn288 O314 2.094 . S
Mn289 O294 2.121 . S
Mn289 N296 2.257 . S
Mn289 N305 2.282 . S
Mn289 O313 2.215 . S
Mn289 O315 2.117 . S
C290 O312 1.234 . S
C290 O313 1.283 . S
C291 O303 1.281 . S
C291 O304 1.236 . S
C292 O314 1.240 . S
C292 O315 1.264 . S
O293 Mn288 2.095 . S
O293 C302 1.250 . S
O294 Mn289 2.121 . S
O294 C302 1.258 . S
C295 N296 1.326 . S
C295 C299 1.460 . S
C295 H301 0.929 . S
N296 Mn289 2.257 . S
N296 C295 1.326 . S
N296 C300 1.362 . S
C297 C298 1.258 . S
C297 C300 1.431 . S
C297 C317 1.449 . S
C298 C297 1.258 . S
C298 C299 1.477 . S
C298 H318 0.931 . S
C299 C295 1.460 . S
C299 C298 1.477 . S
C299 H319 0.930 . S
C300 N296 1.362 . S
C300 C297 1.431 . S
C300 C310 1.476 . S
H301 C295 0.929 . S
C302 O293 1.250 . S
C302 O294 1.258 . S
O303 Mn288 2.162 . S
O303 C291 1.281 . S
O304 Mn288 2.297 . S
O304 C291 1.236 . S
N305 Mn289 2.282 . S
N305 C306 1.328 . S
N305 C310 1.318 . S
C306 N305 1.328 . S
C306 C307 1.457 . S
C306 H311 0.929 . S
C307 C306 1.457 . S
C307 C308 1.291 . S
C307 H320 0.931 . S
C308 C307 1.291 . S
C308 C309 1.373 . S
C308 H321 0.929 . S
C309 C308 1.373 . S
C309 C310 1.396 . S
C309 C316 1.403 . S
C310 C300 1.476 . S
C310 N305 1.318 . S
C310 C309 1.396 . S
H311 C306 0.929 . S
O312 Mn288 2.385 . S
O312 C290 1.234 . S
O313 Mn288 2.209 . S
O313 Mn289 2.215 . S
O313 C290 1.283 . S
O314 Mn288 2.094 . S
O314 C292 1.240 . S
O315 Mn289 2.117 . S
O315 C292 1.264 . S
C316 C309 1.403 . S
C316 C317 1.399 . S
C316 H322 0.929 . S
C317 C297 1.449 . S
C317 C316 1.399 . S
C317 H323 0.930 . S
H318 C298 0.931 . S
H319 C299 0.930 . S
H320 C307 0.931 . S
H321 C308 0.929 . S
H322 C316 0.929 . S
H323 C317 0.930 . S
Mn324 O329 2.095 . S
Mn324 O339 2.162 . S
Mn324 O340 2.297 . S
Mn324 O348 2.385 . S
Mn324 O349 2.209 . S
Mn324 O350 2.094 . S
Mn325 O330 2.121 . S
Mn325 N332 2.257 . S
Mn325 N341 2.282 . S
Mn325 O349 2.215 . S
Mn325 O351 2.117 . S
C326 O348 1.234 . S
C326 O349 1.283 . S
C327 O339 1.281 . S
C327 O340 1.236 . S
C328 O350 1.240 . S
C328 O351 1.264 . S
O329 Mn324 2.095 . S
O329 C338 1.250 . S
O330 Mn325 2.121 . S
O330 C338 1.258 . S
C331 N332 1.326 . S
C331 C335 1.460 . S
C331 H337 0.929 . S
N332 Mn325 2.257 . S
N332 C331 1.326 . S
N332 C336 1.362 . S
C333 C334 1.258 . S
C333 C336 1.431 . S
C333 C353 1.449 . S
C334 C333 1.258 . S
C334 C335 1.477 . S
C334 H354 0.931 . S
C335 C331 1.460 . S
C335 C334 1.477 . S
C335 H355 0.930 . S
C336 N332 1.362 . S
C336 C333 1.431 . S
C336 C346 1.476 . S
H337 C331 0.929 . S
C338 O329 1.250 . S
C338 O330 1.258 . S
O339 Mn324 2.162 . S
O339 C327 1.281 . S
O340 Mn324 2.297 . S
O340 C327 1.236 . S
N341 Mn325 2.282 . S
N341 C342 1.328 . S
N341 C346 1.318 . S
C342 N341 1.328 . S
C342 C343 1.457 . S
C342 H347 0.929 . S
C343 C342 1.457 . S
C343 C344 1.291 . S
C343 H356 0.931 . S
C344 C343 1.291 . S
C344 C345 1.373 . S
C344 H357 0.929 . S
C345 C344 1.373 . S
C345 C346 1.396 . S
C345 C352 1.403 . S
C346 C336 1.476 . S
C346 N341 1.318 . S
C346 C345 1.396 . S
H347 C342 0.929 . S
O348 Mn324 2.385 . S
O348 C326 1.234 . S
O349 Mn324 2.209 . S
O349 Mn325 2.215 . S
O349 C326 1.283 . S
O350 Mn324 2.094 . S
O350 C328 1.240 . S
O351 Mn325 2.117 . S
O351 C328 1.264 . S
C352 C345 1.403 . S
C352 C353 1.399 . S
C352 H358 0.929 . S
C353 C333 1.449 . S
C353 C352 1.399 . S
C353 H359 0.930 . S
H354 C334 0.931 . S
H355 C335 0.930 . S
H356 C343 0.931 . S
H357 C344 0.929 . S
H358 C352 0.929 . S
H359 C353 0.930 . S
Mn360 O365 2.095 . S
Mn360 O375 2.162 . S
Mn360 O376 2.297 . S
Mn360 O384 2.385 . S
Mn360 O385 2.209 . S
Mn360 O386 2.094 . S
Mn361 O366 2.121 . S
Mn361 N368 2.257 . S
Mn361 N377 2.282 . S
Mn361 O385 2.215 . S
Mn361 O387 2.117 . S
C362 O384 1.234 . S
C362 O385 1.283 . S
C363 O375 1.281 . S
C363 O376 1.236 . S
C364 O386 1.240 . S
C364 O387 1.264 . S
O365 Mn360 2.095 . S
O365 C374 1.250 . S
O366 Mn361 2.121 . S
O366 C374 1.258 . S
C367 N368 1.326 . S
C367 C371 1.460 . S
C367 H373 0.929 . S
N368 Mn361 2.257 . S
N368 C367 1.326 . S
N368 C372 1.362 . S
C369 C370 1.258 . S
C369 C372 1.431 . S
C369 C389 1.449 . S
C370 C369 1.258 . S
C370 C371 1.477 . S
C370 H390 0.931 . S
C371 C367 1.460 . S
C371 C370 1.477 . S
C371 H391 0.930 . S
C372 N368 1.362 . S
C372 C369 1.431 . S
C372 C382 1.476 . S
H373 C367 0.929 . S
C374 O365 1.250 . S
C374 O366 1.258 . S
O375 Mn360 2.162 . S
O375 C363 1.281 . S
O376 Mn360 2.297 . S
O376 C363 1.236 . S
N377 Mn361 2.282 . S
N377 C378 1.328 . S
N377 C382 1.318 . S
C378 N377 1.328 . S
C378 C379 1.457 . S
C378 H383 0.929 . S
C379 C378 1.457 . S
C379 C380 1.291 . S
C379 H392 0.931 . S
C380 C379 1.291 . S
C380 C381 1.373 . S
C380 H393 0.929 1_556 S
C381 C380 1.373 . S
C381 C382 1.396 . S
C381 C388 1.403 1_556 S
C382 C372 1.476 . S
C382 N377 1.318 . S
C382 C381 1.396 . S
H383 C378 0.929 . S
O384 Mn360 2.385 . S
O384 C362 1.234 . S
O385 Mn360 2.209 . S
O385 Mn361 2.215 . S
O385 C362 1.283 . S
O386 Mn360 2.094 . S
O386 C364 1.240 . S
O387 Mn361 2.117 . S
O387 C364 1.264 . S
C388 C381 1.403 1_554 S
C388 C389 1.399 1_554 S
C388 H394 0.929 . S
C389 C369 1.449 . S
C389 C388 1.399 1_556 S
C389 H395 0.930 1_556 S
H390 C370 0.931 . S
H391 C371 0.930 . S
H392 C379 0.931 . S
H393 C380 0.929 1_554 S
H394 C388 0.929 . S
H395 C389 0.930 1_554 S
Mn396 O401 2.095 . S
Mn396 O411 2.162 . S
Mn396 O412 2.297 . S
Mn396 O420 2.385 . S
Mn396 O421 2.209 . S
Mn396 O422 2.094 . S
Mn397 O402 2.121 . S
Mn397 N404 2.257 . S
Mn397 N413 2.282 . S
Mn397 O421 2.215 . S
Mn397 O423 2.117 . S
C398 O420 1.234 . S
C398 O421 1.283 . S
C399 O411 1.281 . S
C399 O412 1.236 . S
C400 O422 1.240 . S
C400 O423 1.264 . S
O401 Mn396 2.095 . S
O401 C410 1.250 . S
O402 Mn397 2.121 . S
O402 C410 1.258 . S
C403 N404 1.326 . S
C403 C407 1.460 . S
C403 H409 0.929 . S
N404 Mn397 2.257 . S
N404 C403 1.326 . S
N404 C408 1.362 1_556 S
C405 C406 1.258 . S
C405 C408 1.431 . S
C405 C425 1.449 . S
C406 C405 1.258 . S
C406 C407 1.477 1_554 S
C406 H426 0.931 . S
C407 C403 1.460 . S
C407 C406 1.477 1_556 S
C407 H427 0.930 . S
C408 N404 1.362 1_554 S
C408 C405 1.431 . S
C408 C418 1.476 . S
H409 C403 0.929 . S
C410 O401 1.250 . S
C410 O402 1.258 . S
O411 Mn396 2.162 . S
O411 C399 1.281 . S
O412 Mn396 2.297 . S
O412 C399 1.236 . S
N413 Mn397 2.282 . S
N413 C414 1.328 1_556 S
N413 C418 1.318 1_556 S
C414 N413 1.328 1_554 S
C414 C415 1.457 . S
C414 H419 0.929 1_554 S
C415 C414 1.457 . S
C415 C416 1.291 . S
C415 H428 0.931 . S
C416 C415 1.291 . S
C416 C417 1.373 . S
C416 H429 0.929 . S
C417 C416 1.373 . S
C417 C418 1.396 . S
C417 C424 1.403 . S
C418 C408 1.476 . S
C418 N413 1.318 1_554 S
C418 C417 1.396 . S
H419 C414 0.929 1_556 S
O420 Mn396 2.385 . S
O420 C398 1.234 . S
O421 Mn396 2.209 . S
O421 Mn397 2.215 . S
O421 C398 1.283 . S
O422 Mn396 2.094 . S
O422 C400 1.240 . S
O423 Mn397 2.117 . S
O423 C400 1.264 . S
C424 C417 1.403 . S
C424 C425 1.399 . S
C424 H430 0.929 . S
C425 C405 1.449 . S
C425 C424 1.399 . S
C425 H431 0.930 . S
H426 C406 0.931 . S
H427 C407 0.930 . S
H428 C415 0.931 . S
H429 C416 0.929 . S
H430 C424 0.929 . S
H431 C425 0.930 . S
C432 C433 1.369 . S
C432 C434 1.419 . S
C432 H436 0.930 . S
C433 C432 1.369 . S
C433 C442 1.429 . S
C434 C432 1.419 . S
C434 C435 1.363 . S
C434 H437 0.929 . S
C435 C434 1.363 . S
C435 C441 1.428 . S
H436 C432 0.930 . S
H437 C434 0.929 . S
S438 N439 1.613 . S
S438 N440 1.610 . S
N439 S438 1.613 . S
N439 C442 1.350 . S
N440 S438 1.610 . S
N440 C441 1.351 . S
C441 C435 1.428 . S
C441 N440 1.351 . S
C441 C442 1.434 . S
C442 C433 1.429 . S
C442 N439 1.350 . S
C442 C441 1.434 . S
C443 C444 1.369 . S
C443 C445 1.419 . S
C443 H447 0.930 . S
C444 C443 1.369 . S
C444 C453 1.429 . S
C445 C443 1.419 . S
C445 C446 1.363 . S
C445 H448 0.929 . S
C446 C445 1.363 . S
C446 C452 1.428 . S
H447 C443 0.930 . S
H448 C445 0.929 . S
S449 N450 1.613 . S
S449 N451 1.610 . S
N450 S449 1.613 . S
N450 C453 1.350 . S
N451 S449 1.610 . S
N451 C452 1.351 . S
C452 C446 1.428 . S
C452 N451 1.351 . S
C452 C453 1.434 . S
C453 C444 1.429 . S
C453 N450 1.350 . S
C453 C452 1.434 . S
C454 C455 1.369 . S
C454 C456 1.419 . S
C454 H458 0.930 . S
C455 C454 1.369 . S
C455 C464 1.429 . S
C456 C454 1.419 . S
C456 C457 1.363 . S
C456 H459 0.929 . S
C457 C456 1.363 . S
C457 C463 1.428 . S
H458 C454 0.930 . S
H459 C456 0.929 . S
S460 N461 1.613 . S
S460 N462 1.610 . S
N461 S460 1.613 . S
N461 C464 1.350 . S
N462 S460 1.610 . S
N462 C463 1.351 . S
C463 C457 1.428 . S
C463 N462 1.351 . S
C463 C464 1.434 . S
C464 C455 1.429 . S
C464 N461 1.350 . S
C464 C463 1.434 . S
C465 C466 1.369 . S
C465 C467 1.419 . S
C465 H469 0.930 . S
C466 C465 1.369 . S
C466 C475 1.429 . S
C467 C465 1.419 . S
C467 C468 1.363 . S
C467 H470 0.929 . S
C468 C467 1.363 . S
C468 C474 1.428 . S
H469 C465 0.930 . S
H470 C467 0.929 . S
S471 N472 1.613 . S
S471 N473 1.610 . S
N472 S471 1.613 . S
N472 C475 1.350 . S
N473 S471 1.610 . S
N473 C474 1.351 . S
C474 C468 1.428 . S
C474 N473 1.351 . S
C474 C475 1.434 . S
C475 C466 1.429 . S
C475 N472 1.350 . S
C475 C474 1.434 . S
C476 C477 1.369 . S
C476 C478 1.419 . S
C476 H480 0.930 . S
C477 C476 1.369 . S
C477 C486 1.429 . S
C478 C476 1.419 . S
C478 C479 1.363 1_556 S
C478 H481 0.929 . S
C479 C478 1.363 1_554 S
C479 C485 1.428 . S
H480 C476 0.930 . S
H481 C478 0.929 . S
S482 N483 1.613 1_554 S
S482 N484 1.610 . S
N483 S482 1.613 1_556 S
N483 C486 1.350 . S
N484 S482 1.610 . S
N484 C485 1.351 . S
C485 C479 1.428 . S
C485 N484 1.351 . S
C485 C486 1.434 1_554 S
C486 C477 1.429 . S
C486 N483 1.350 . S
C486 C485 1.434 1_556 S
C487 C488 1.369 . S
C487 C489 1.419 . S
C487 H491 0.930 . S
C488 C487 1.369 . S
C488 C497 1.429 . S
C489 C487 1.419 . S
C489 C490 1.363 . S
C489 H492 0.929 . S
C490 C489 1.363 . S
C490 C496 1.428 . S
H491 C487 0.930 . S
H492 C489 0.929 . S
S493 N494 1.613 . S
S493 N495 1.610 . S
N494 S493 1.613 . S
N494 C497 1.350 . S
N495 S493 1.610 . S
N495 C496 1.351 . S
C496 C490 1.428 . S
C496 N495 1.351 . S
C496 C497 1.434 . S
C497 C488 1.429 . S
C497 N494 1.350 . S
C497 C496 1.434 . S
C498 C499 1.369 . S
C498 C500 1.419 . S
C498 H502 0.931 . S
C499 C498 1.369 . S
C499 C508 1.429 . S
C500 C498 1.419 . S
C500 C501 1.363 . S
C500 H503 0.929 . S
C501 C500 1.363 . S
C501 C507 1.428 . S
H502 C498 0.931 . S
H503 C500 0.929 . S
S504 N505 1.613 . S
S504 N506 1.610 . S
N505 S504 1.613 . S
N505 C508 1.350 . S
N506 S504 1.610 . S
N506 C507 1.351 . S
C507 C501 1.428 . S
C507 N506 1.351 . S
C507 C508 1.434 . S
C508 C499 1.429 . S
C508 N505 1.350 . S
C508 C507 1.434 . S
C509 C510 1.369 . S
C509 C511 1.419 . S
C509 H513 0.930 . S
C510 C509 1.369 . S
C510 C519 1.429 . S
C511 C509 1.419 . S
C511 C512 1.363 . S
C511 H514 0.929 . S
C512 C511 1.363 . S
C512 C518 1.428 . S
H513 C509 0.930 . S
H514 C511 0.929 . S
S515 N516 1.613 . S
S515 N517 1.610 . S
N516 S515 1.613 . S
N516 C519 1.350 . S
N517 S515 1.610 . S
N517 C518 1.351 . S
C518 C512 1.428 . S
C518 N517 1.351 . S
C518 C519 1.434 . S
C519 C510 1.429 . S
C519 N516 1.350 . S
C519 C518 1.434 . S
C520 C521 1.369 . S
C520 C522 1.419 . S
C520 H524 0.930 . S
C521 C520 1.369 . S
C521 C530 1.429 . S
C522 C520 1.419 . S
C522 C523 1.363 . S
C522 H525 0.929 . S
C523 C522 1.363 . S
C523 C529 1.428 . S
H524 C520 0.930 . S
H525 C522 0.929 . S
S526 N527 1.613 . S
S526 N528 1.610 . S
N527 S526 1.613 . S
N527 C530 1.350 . S
N528 S526 1.610 . S
N528 C529 1.351 . S
C529 C523 1.428 . S
C529 N528 1.351 . S
C529 C530 1.434 . S
C530 C521 1.429 . S
C530 N527 1.350 . S
C530 C529 1.434 . S
C531 C532 1.369 . S
C531 C533 1.419 . S
C531 H535 0.930 . S
C532 C531 1.369 . S
C532 C541 1.429 . S
C533 C531 1.419 . S
C533 C534 1.363 . S
C533 H536 0.929 . S
C534 C533 1.363 . S
C534 C540 1.428 . S
H535 C531 0.930 . S
H536 C533 0.929 . S
S537 N538 1.613 . S
S537 N539 1.610 . S
N538 S537 1.613 . S
N538 C541 1.350 . S
N539 S537 1.610 . S
N539 C540 1.351 . S
C540 C534 1.428 . S
C540 N539 1.351 . S
C540 C541 1.434 . S
C541 C532 1.429 . S
C541 N538 1.350 . S
C541 C540 1.434 . S
C542 C543 1.369 . S
C542 C544 1.419 . S
C542 H546 0.930 . S
C543 C542 1.369 . S
C543 C552 1.429 . S
C544 C542 1.419 . S
C544 C545 1.363 . S
C544 H547 0.929 . S
C545 C544 1.363 . S
C545 C551 1.428 . S
H546 C542 0.930 . S
H547 C544 0.929 . S
S548 N549 1.619 . S
S548 N550 1.613 . S
N549 S548 1.619 . S
N549 C552 1.350 . S
N550 S548 1.613 . S
N550 C551 1.351 . S
C551 C545 1.428 . S
C551 N550 1.351 . S
C551 C552 1.434 . S
C552 C543 1.429 . S
C552 N549 1.350 . S
C552 C551 1.434 . S
C553 C554 1.369 . S
C553 C555 1.419 . S
C553 H557 0.930 . S
C554 C553 1.369 . S
C554 C563 1.429 1_556 S
C555 C553 1.419 . S
C555 C556 1.363 . S
C555 H558 0.929 . S
C556 C555 1.363 . S
C556 C562 1.428 1_556 S
H557 C553 0.930 . S
H558 C555 0.929 . S
S559 N560 1.613 . S
S559 N561 1.610 . S
N560 S559 1.613 . S
N560 C563 1.350 . S
N561 S559 1.610 . S
N561 C562 1.351 . S
C562 C556 1.428 1_554 S
C562 N561 1.351 . S
C562 C563 1.434 . S
C563 C554 1.429 1_554 S
C563 N560 1.350 . S
C563 C562 1.434 . S
C564 C565 1.369 . S
C564 C566 1.419 . S
C564 H568 0.930 . S
C565 C564 1.369 . S
C565 C574 1.429 . S
C566 C564 1.419 . S
C566 C567 1.363 . S
C566 H569 0.929 . S
C567 C566 1.363 . S
C567 C573 1.428 . S
H568 C564 0.930 . S
H569 C566 0.929 . S
S570 N571 1.613 . S
S570 N572 1.610 . S
N571 S570 1.613 . S
N571 C574 1.350 . S
N572 S570 1.610 . S
N572 C573 1.351 . S
C573 C567 1.428 . S
C573 N572 1.351 . S
C573 C574 1.434 . S
C574 C565 1.429 . S
C574 N571 1.350 . S
C574 C573 1.434 . S
C575 C576 1.369 . S
C575 C577 1.419 1_554 S
C575 H579 0.930 . S
C576 C575 1.369 . S
C576 C585 1.429 1_554 S
C577 C575 1.419 1_556 S
C577 C578 1.363 . S
C577 H580 0.929 . S
C578 C577 1.363 . S
C578 C584 1.428 . S
H579 C575 0.930 . S
H580 C577 0.929 . S
S581 N582 1.613 . S
S581 N583 1.610 . S
N582 S581 1.613 . S
N582 C585 1.350 . S
N583 S581 1.610 . S
N583 C584 1.351 . S
C584 C578 1.428 . S
C584 N583 1.351 . S
C584 C585 1.434 . S
C585 C576 1.429 1_556 S
C585 N582 1.350 . S
C585 C584 1.434 . S
C586 C587 1.369 . S
C586 C588 1.419 . S
C586 H590 0.930 . S
C587 C586 1.369 . S
C587 C596 1.429 . S
C588 C586 1.419 . S
C588 C589 1.363 . S
C588 H591 0.929 . S
C589 C588 1.363 . S
C589 C595 1.428 . S
H590 C586 0.930 . S
H591 C588 0.929 . S
S592 N593 1.613 . S
S592 N594 1.610 1_554 S
N593 S592 1.613 . S
N593 C596 1.350 . S
N594 S592 1.610 1_556 S
N594 C595 1.351 1_556 S
C595 C589 1.428 . S
C595 N594 1.351 1_554 S
C595 C596 1.434 . S
C596 C587 1.429 . S
C596 N593 1.350 . S
C596 C595 1.434 . S
C597 C598 1.369 . S
C597 C599 1.419 . S
C597 H601 0.930 . S
C598 C597 1.369 . S
C598 C607 1.429 . S
C599 C597 1.419 . S
C599 C600 1.363 . S
C599 H602 0.929 . S
C600 C599 1.363 . S
C600 C606 1.428 . S
H601 C597 0.930 . S
H602 C599 0.929 . S
S603 N604 1.613 . S
S603 N605 1.610 . S
N604 S603 1.613 . S
N604 C607 1.350 . S
N605 S603 1.610 . S
N605 C606 1.351 . S
C606 C600 1.428 . S
C606 N605 1.351 . S
C606 C607 1.434 . S
C607 C598 1.429 . S
C607 N604 1.350 . S
C607 C606 1.434 . S
C608 C609 1.369 . S
C608 C610 1.419 . S
C608 H612 0.930 . S
C609 C608 1.369 . S
C609 C618 1.429 . S
C610 C608 1.419 . S
C610 C611 1.363 . S
C610 H613 0.929 . S
C611 C610 1.363 . S
C611 C617 1.428 . S
H612 C608 0.930 . S
H613 C610 0.929 . S
S614 N615 1.613 . S
S614 N616 1.610 . S
N615 S614 1.613 . S
N615 C618 1.350 . S
N616 S614 1.610 . S
N616 C617 1.351 . S
C617 C611 1.428 . S
C617 N616 1.351 . S
C617 C618 1.434 . S
C618 C609 1.429 . S
C618 N615 1.350 . S
C618 C617 1.434 . S
C619 C620 1.369 . S
C619 C621 1.419 . S
C619 H623 0.930 . S
C620 C619 1.369 . S
C620 C629 1.429 . S
C621 C619 1.419 . S
C621 C622 1.363 . S
C621 H624 0.929 . S
C622 C621 1.363 . S
C622 C628 1.428 . S
H623 C619 0.930 . S
H624 C621 0.929 . S
S625 N626 1.613 . S
S625 N627 1.610 . S
N626 S625 1.613 . S
N626 C629 1.350 . S
N627 S625 1.610 . S
N627 C628 1.351 . S
C628 C622 1.428 . S
C628 N627 1.351 . S
C628 C629 1.434 . S
C629 C620 1.429 . S
C629 N626 1.350 . S
C629 C628 1.434 . S
C630 C631 1.369 . S
C630 C632 1.419 . S
C630 H634 0.930 . S
C631 C630 1.369 . S
C631 C640 1.429 1_455 S
C632 C630 1.419 . S
C632 C633 1.363 1_455 S
C632 H635 0.929 . S
C633 C632 1.363 1_655 S
C633 C639 1.428 . S
H634 C630 0.930 . S
H635 C632 0.929 . S
S636 N637 1.613 . S
S636 N638 1.610 1_554 S
N637 S636 1.613 . S
N637 C640 1.350 1_554 S
N638 S636 1.610 1_556 S
N638 C639 1.351 . S
C639 C633 1.428 . S
C639 N638 1.351 . S
C639 C640 1.434 . S
C640 C631 1.429 1_655 S
C640 N637 1.350 1_556 S
C640 C639 1.434 . S
C641 C642 1.369 . S
C641 C643 1.419 1_566 S
C641 H645 0.930 . S
C642 C641 1.369 . S
C642 C651 1.429 1_556 S
C643 C641 1.419 1_544 S
C643 C644 1.363 . S
C643 H646 0.929 . S
C644 C643 1.363 . S
C644 C650 1.428 . S
H645 C641 0.930 . S
H646 C643 0.929 . S
S647 N648 1.613 . S
S647 N649 1.616 . S
N648 S647 1.613 . S
N648 C651 1.350 . S
N649 S647 1.616 . S
N649 C650 1.349 1_565 S
C650 C644 1.428 . S
C650 N649 1.349 1_545 S
C650 C651 1.434 1_545 S
C651 C642 1.429 1_554 S
C651 N648 1.350 . S
C651 C650 1.434 1_565 S
C652 C653 1.369 . S
C652 C654 1.419 . S
C652 H656 0.930 . S
C653 C652 1.369 . S
C653 C662 1.429 . S
C654 C652 1.419 . S
C654 C655 1.363 . S
C654 H657 0.929 . S
C655 C654 1.363 . S
C655 C661 1.428 . S
H656 C652 0.930 . S
H657 C654 0.929 . S
S658 N659 1.613 . S
S658 N660 1.610 . S
N659 S658 1.613 . S
N659 C662 1.350 . S
N660 S658 1.610 . S
N660 C661 1.351 . S
C661 C655 1.428 . S
C661 N660 1.351 . S
C661 C662 1.434 . S
C662 C653 1.429 . S
C662 N659 1.350 . S
C662 C661 1.434 . S
C663 C664 1.369 . S
C663 C665 1.419 1_455 S
C663 H667 0.930 . S
C664 C663 1.369 . S
C664 C673 1.437 . S
C665 C663 1.419 1_655 S
C665 C666 1.363 . S
C665 H668 0.934 . S
C666 C665 1.363 . S
C666 C672 1.428 . S
H667 C663 0.930 . S
H668 C665 0.934 . S
S669 N670 1.613 . S
S669 N671 1.610 . S
N670 S669 1.613 . S
N670 C673 1.347 1_655 S
N671 S669 1.610 . S
N671 C672 1.351 . S
C672 C666 1.428 . S
C672 N671 1.351 . S
C672 C673 1.428 1_655 S
C673 C664 1.437 . S
C673 N670 1.347 1_455 S
C673 C672 1.428 1_455 S
C674 C675 1.369 . S
C674 C676 1.419 1_545 S
C674 H678 0.930 . S
C675 C674 1.369 . S
C675 C684 1.429 . S
C676 C674 1.419 1_565 S
C676 C677 1.363 . S
C676 H679 0.929 . S
C677 C676 1.363 . S
C677 C683 1.428 . S
H678 C674 0.930 . S
H679 C676 0.929 . S
S680 N681 1.613 1_565 S
S680 N682 1.610 . S
N681 S680 1.613 1_545 S
N681 C684 1.350 . S
N682 S680 1.610 . S
N682 C683 1.351 . S
C683 C677 1.428 . S
C683 N682 1.351 . S
C683 C684 1.434 1_565 S
C684 C675 1.429 . S
C684 N681 1.350 . S
C684 C683 1.434 1_545 S
C685 C686 1.369 . S
C685 C687 1.419 . S
C685 H689 0.930 . S
C686 C685 1.369 . S
C686 C695 1.429 . S
C687 C685 1.419 . S
C687 C688 1.363 . S
C687 H690 0.929 . S
C688 C687 1.363 . S
C688 C694 1.428 . S
H689 C685 0.930 . S
H690 C687 0.929 . S
S691 N692 1.613 . S
S691 N693 1.610 . S
N692 S691 1.613 . S
N692 C695 1.350 . S
N693 S691 1.610 . S
N693 C694 1.351 . S
C694 C688 1.428 . S
C694 N693 1.351 . S
C694 C695 1.434 . S
C695 C686 1.429 . S
C695 N692 1.350 . S
C695 C694 1.434 . S
C433 C3 1.333 . S
C435 C363 1.334 . S
C444 C399 1.333 . S
C446 C39 1.333 . S
C455 C75 1.332 . S
C457 C219 1.333 . S
C466 C111 1.333 . S
C468 C255 1.332 . S
C477 C147 1.335 . S
C479 C291 1.334 . S
C488 C327 1.332 . S
C490 C183 1.332 . S
C499 C14 1.538 . S
C501 C302 1.533 . S
C510 C50 1.536 . S
C512 C338 1.533 . S
C521 C374 1.538 . S
C523 C86 1.533 . S
C532 C122 1.534 . S
C534 C410 1.539 . S
C543 C158 1.539 . S
C545 C230 1.533 . S
C554 C194 1.540 . S
C556 C266 1.534 1_556 S
C565 C362 1.489 . S
C567 C2 1.488 . S
C576 C38 1.485 . S
C578 C398 1.485 . S
C587 C74 1.488 . S
C589 C218 1.485 1_554 S
C598 C110 1.485 . S
C600 C254 1.486 . S
C609 C290 1.488 . S
C611 C146 1.488 . S
C620 C182 1.488 . S
C622 C326 1.487 . S
C631 C4 1.403 . S
C633 C400 1.397 . S
C642 C220 1.396 . S
C644 C40 1.402 . S
C653 C256 1.395 . S
C655 C76 1.400 . S
C664 C292 1.402 . S
C666 C112 1.398 . S
C675 C328 1.401 . S
C677 C148 1.400 . S
C686 C364 1.399 . S
C688 C184 1.396 . S
