# Generated by pormake.
# Topology mon, (4)-cn, num edge types: 1
# Building blocks:
#     Node 0, Type 0, BuildingBlock: QUQFOY_clean_sbu_3, # of connection points: 4
#     Node 1, Type 0, BuildingBlock: QUQFOY_clean_sbu_3, # of connection points: 4
#     Node 2, Type 0, BuildingBlock: QUQFOY_clean_sbu_3, # of connection points: 4
#     Node 3, Type 0, BuildingBlock: QUQFOY_clean_sbu_3, # of connection points: 4
#     Node 4, Type 0, BuildingBlock: QUQFOY_clean_sbu_3, # of connection points: 4
#     Node 5, Type 0, BuildingBlock: QUQFOY_clean_sbu_3, # of connection points: 4
#     Node 6, Type 0, BuildingBlock: QUQFOY_clean_sbu_3, # of connection points: 4
#     Node 7, Type 0, BuildingBlock: QUQFOY_clean_sbu_3, # of connection points: 4
#     Node 8, Type 0, BuildingBlock: QUQFOY_clean_sbu_3, # of connection points: 4
#     Node 9, Type 0, BuildingBlock: QUQFOY_clean_sbu_3, # of connection points: 4
#     Node 10, Type 0, BuildingBlock: QUQFOY_clean_sbu_3, # of connection points: 4
#     Node 11, Type 0, BuildingBlock: QUQFOY_clean_sbu_3, # of connection points: 4
#     Node 12, Type 0, BuildingBlock: QUQFOY_clean_sbu_3, # of connection points: 4
#     Node 13, Type 0, BuildingBlock: QUQFOY_clean_sbu_3, # of connection points: 4
#     Node 14, Type 0, BuildingBlock: QUQFOY_clean_sbu_3, # of connection points: 4
#     Node 15, Type 0, BuildingBlock: QUQFOY_clean_sbu_3, # of connection points: 4
#     Edge 16, Type (0, 0), BuildingBlock: OJICUG_clean_linker_0, # of connection points: 2
#     Edge 17, Type (0, 0), BuildingBlock: OJICUG_clean_linker_0, # of connection points: 2
#     Edge 18, Type (0, 0), BuildingBlock: OJICUG_clean_linker_0, # of connection points: 2
#     Edge 19, Type (0, 0), BuildingBlock: OJICUG_clean_linker_0, # of connection points: 2
#     Edge 20, Type (0, 0), BuildingBlock: OJICUG_clean_linker_0, # of connection points: 2
#     Edge 21, Type (0, 0), BuildingBlock: OJICUG_clean_linker_0, # of connection points: 2
#     Edge 22, Type (0, 0), BuildingBlock: OJICUG_clean_linker_0, # of connection points: 2
#     Edge 23, Type (0, 0), BuildingBlock: OJICUG_clean_linker_0, # of connection points: 2
#     Edge 24, Type (0, 0), BuildingBlock: OJICUG_clean_linker_0, # of connection points: 2
#     Edge 25, Type (0, 0), BuildingBlock: OJICUG_clean_linker_0, # of connection points: 2
#     Edge 26, Type (0, 0), BuildingBlock: OJICUG_clean_linker_0, # of connection points: 2
#     Edge 27, Type (0, 0), BuildingBlock: OJICUG_clean_linker_0, # of connection points: 2
#     Edge 28, Type (0, 0), BuildingBlock: OJICUG_clean_linker_0, # of connection points: 2
#     Edge 29, Type (0, 0), BuildingBlock: OJICUG_clean_linker_0, # of connection points: 2
#     Edge 30, Type (0, 0), BuildingBlock: OJICUG_clean_linker_0, # of connection points: 2
#     Edge 31, Type (0, 0), BuildingBlock: OJICUG_clean_linker_0, # of connection points: 2
#     Edge 32, Type (0, 0), BuildingBlock: OJICUG_clean_linker_0, # of connection points: 2
#     Edge 33, Type (0, 0), BuildingBlock: OJICUG_clean_linker_0, # of connection points: 2
#     Edge 34, Type (0, 0), BuildingBlock: OJICUG_clean_linker_0, # of connection points: 2
#     Edge 35, Type (0, 0), BuildingBlock: OJICUG_clean_linker_0, # of connection points: 2
#     Edge 36, Type (0, 0), BuildingBlock: OJICUG_clean_linker_0, # of connection points: 2
#     Edge 37, Type (0, 0), BuildingBlock: OJICUG_clean_linker_0, # of connection points: 2
#     Edge 38, Type (0, 0), BuildingBlock: OJICUG_clean_linker_0, # of connection points: 2
#     Edge 39, Type (0, 0), BuildingBlock: OJICUG_clean_linker_0, # of connection points: 2
#     Edge 40, Type (0, 0), BuildingBlock: OJICUG_clean_linker_0, # of connection points: 2
#     Edge 41, Type (0, 0), BuildingBlock: OJICUG_clean_linker_0, # of connection points: 2
#     Edge 42, Type (0, 0), BuildingBlock: OJICUG_clean_linker_0, # of connection points: 2
#     Edge 43, Type (0, 0), BuildingBlock: OJICUG_clean_linker_0, # of connection points: 2
#     Edge 44, Type (0, 0), BuildingBlock: OJICUG_clean_linker_0, # of connection points: 2
#     Edge 45, Type (0, 0), BuildingBlock: OJICUG_clean_linker_0, # of connection points: 2
#     Edge 46, Type (0, 0), BuildingBlock: OJICUG_clean_linker_0, # of connection points: 2
#     Edge 47, Type (0, 0), BuildingBlock: OJICUG_clean_linker_0, # of connection points: 2
# Relax obj value: 0.180
# Max RMSD: 0.174
# Mean RMSD: 0.174
data_MOF--net-mon--node1-QUQFOY_clean_sbu_3--edge1-OJICUG_clean_linker_0
_symmetry_space_group_name_H-M    P1
_symmetry_Int_Tables_number       1
_symmetry_cell_setting            triclinic
loop_
_symmetry_equiv_pos_as_xyz
'x, y, z'
_cell_length_a     27.001584
_cell_length_b     26.790152
_cell_length_c     66.69022
_cell_angle_alpha  89.955526
_cell_angle_beta   89.993594
_cell_angle_gamma 89.951602
loop_
_atom_site_label
_atom_site_type_symbol
_atom_site_fract_x
_atom_site_fract_y
_atom_site_fract_z
_atom_type_partial_charge
C0 C 0.06684 0.9272 0.55947 0.0
O1 O 0.05573 0.8981 0.54516 0.0
Cd2 Cd -0.01474 0.90716 0.52457 0.0
O3 O 0.04096 0.9662 0.56306 0.0
Cd4 Cd -0.03144 0.01005 0.54691 0.0
C5 C 0.89673 0.91466 0.56179 0.0
O6 O -0.00545 -0.0093 0.5138 0.0
O7 O 0.91753 0.00917 0.51511 0.0
O8 O 0.00994 0.09037 0.5523 0.0
C9 C 0.95515 -0.00031 0.50438 0.0
O10 O 0.91402 0.89116 0.54673 0.0
C11 C -0.02907 0.11402 0.5571 0.0
O12 O 0.91256 0.95791 0.56633 0.0
O13 O 0.9311 0.0889 0.5579 0.0
C14 C 0.26365 0.8168 0.80981 0.0
O15 O 0.29208 0.80627 0.79526 0.0
Cd16 Cd 0.28318 0.73582 0.77446 0.0
O17 O 0.22521 0.79045 0.81349 0.0
Cd18 Cd 0.18131 0.71803 0.79714 0.0
C19 C 0.27681 0.64622 0.81166 0.0
O20 O 0.20002 0.74534 0.7642 0.0
O21 O 0.18272 0.66749 0.76506 0.0
O22 O 0.1015 0.75943 0.80286 0.0
C23 C 0.19171 0.70589 0.75454 0.0
O24 O 0.29981 0.66406 0.79659 0.0
C25 C 0.07815 0.7199 0.80744 0.0
O26 O 0.23371 0.66161 0.81628 0.0
O27 O 0.10321 0.67977 0.80799 0.0
C28 C 0.36894 0.0195 0.05915 0.0
O29 O 0.38165 0.04913 0.04522 0.0
Cd30 Cd 0.45256 0.04005 0.02488 0.0
O31 O 0.39413 -0.01995 0.06286 0.0
Cd32 Cd 0.46804 0.93619 0.04773 0.0
C33 C 0.54067 0.03207 0.0623 0.0
O34 O 0.44288 0.9563 0.01467 0.0
O35 O 0.51924 0.93529 0.01588 0.0
O36 O 0.42577 0.85596 0.05291 0.0
C37 C 0.48192 0.94625 0.0052 0.0
O38 O 0.52357 0.05539 0.04715 0.0
C39 C 0.46439 0.83189 0.0579 0.0
O40 O 0.52445 -0.01099 0.06702 0.0
O41 O 0.50435 0.85675 0.05899 0.0
C42 C 0.1748 0.11767 0.30859 0.0
O43 O 0.14609 0.12997 0.29435 0.0
Cd44 Cd 0.15555 0.20145 0.27405 0.0
O45 O 0.21363 0.14329 0.31248 0.0
Cd46 Cd 0.25765 0.21742 0.29727 0.0
C47 C 0.16183 0.28992 0.31165 0.0
O48 O 0.23891 0.19253 0.26402 0.0
O49 O 0.25774 0.26992 0.26568 0.0
O50 O 0.33745 0.17504 0.30243 0.0
C51 C 0.24804 0.23244 0.25477 0.0
O52 O 0.13922 0.2727 0.29638 0.0
C53 C 0.36109 0.21396 0.30754 0.0
O54 O 0.20458 0.27382 0.31651 0.0
O55 O 0.3362 0.25412 0.30872 0.0
C56 C 0.06855 0.00519 0.36545 0.0
O57 O 0.06478 0.03209 0.38103 0.0
Cd58 Cd -0.00631 0.0327 0.40112 0.0
O59 O 0.03636 -0.02855 0.36152 0.0
Cd60 Cd 0.96269 0.93003 0.37857 0.0
C61 C 0.90292 0.03308 0.36351 0.0
O62 O -0.00843 0.94857 0.41122 0.0
O63 O 0.91394 0.93253 0.4109 0.0
O64 O 0.00246 0.84906 0.37277 0.0
C65 C 0.95237 0.94212 0.42111 0.0
O66 O 0.92916 0.05526 0.37666 0.0
C67 C 0.96301 0.82575 0.36838 0.0
O68 O 0.90658 -0.01382 0.36075 0.0
O69 O 0.92335 0.8513 0.36797 0.0
C70 C 0.17861 0.81806 0.61579 0.0
O71 O 0.14999 0.80761 0.63029 0.0
Cd72 Cd 0.15835 0.7373 0.65128 0.0
O73 O 0.21718 0.79172 0.61224 0.0
Cd74 Cd 0.26113 0.71946 0.62882 0.0
C75 C 0.16593 0.64744 0.61422 0.0
O76 O 0.24131 0.74641 0.6617 0.0
O77 O 0.25977 0.6688 0.66087 0.0
O78 O 0.34093 0.76107 0.62343 0.0
C79 C 0.24974 0.70696 0.67137 0.0
O80 O 0.1426 0.66544 0.62918 0.0
C81 C 0.36447 0.72166 0.6188 0.0
O82 O 0.20908 0.6628 0.60968 0.0
O83 O 0.33953 0.68152 0.61807 0.0
C84 C 0.37531 0.92607 0.86599 0.0
O85 O 0.38628 0.89694 0.88034 0.0
Cd86 Cd 0.45622 0.90603 0.90115 0.0
O87 O 0.40118 0.96506 0.86242 0.0
Cd88 Cd 0.47331 0.00874 0.87878 0.0
C89 C 0.5455 0.91329 0.86425 0.0
O90 O 0.44599 -0.01039 0.91167 0.0
O91 O 0.52308 0.00781 0.91096 0.0
O92 O 0.4322 0.08913 0.87303 0.0
C93 C 0.48489 -0.00137 0.92139 0.0
O94 O 0.52794 0.88985 0.87929 0.0
C95 C 0.47145 0.11272 0.86855 0.0
O96 O 0.52974 0.95655 0.85962 0.0
O97 O 0.51129 0.08752 0.86806 0.0
C98 C 0.25327 0.12243 0.11593 0.0
O99 O 0.27902 0.12524 0.13179 0.0
Cd100 Cd 0.27917 0.19644 0.15208 0.0
O101 O 0.2202 0.15532 0.11192 0.0
Cd102 Cd 0.17822 0.2289 0.12909 0.0
C103 C 0.28104 0.28851 0.11461 0.0
O104 O 0.19543 0.1989 0.16168 0.0
O105 O 0.18059 0.27737 0.16159 0.0
O106 O 0.09811 0.18897 0.12281 0.0
C107 C 0.18938 0.23824 0.17169 0.0
O108 O 0.30247 0.26159 0.12779 0.0
C109 C 0.07497 0.22885 0.11853 0.0
O110 O 0.23454 0.28542 0.11166 0.0
O111 O 0.10025 0.26885 0.11838 0.0
C112 C 0.67476 0.32406 0.11742 0.0
O113 O 0.64621 0.31167 0.13169 0.0
Cd114 Cd 0.65627 0.24002 0.15186 0.0
O115 O 0.71361 0.29847 0.11346 0.0
Cd116 Cd 0.75784 0.22428 0.12853 0.0
C117 C 0.66222 0.1518 0.11417 0.0
O118 O 0.73968 0.24906 0.16187 0.0
O119 O 0.75805 0.17153 0.16005 0.0
O120 O 0.83743 0.26676 0.12325 0.0
C121 C 0.74887 0.20904 0.17103 0.0
O122 O 0.63974 0.16884 0.12952 0.0
C123 C 0.86115 0.22788 0.1181 0.0
O124 O 0.70485 0.16802 0.10926 0.0
O125 O 0.83638 0.18769 0.11696 0.0
C126 C 0.76393 0.6253 0.61623 0.0
O127 O 0.79247 0.63577 0.63074 0.0
Cd128 Cd 0.78376 0.70606 0.65165 0.0
O129 O 0.72539 0.65165 0.61263 0.0
Cd130 Cd 0.68143 0.72396 0.62911 0.0
C131 C 0.77677 0.79591 0.61454 0.0
O132 O 0.70071 0.69648 0.66198 0.0
O133 O 0.68279 0.77422 0.66126 0.0
O134 O 0.60165 0.68254 0.62346 0.0
C135 C 0.69229 0.7358 0.6717 0.0
O136 O 0.79996 0.77793 0.62954 0.0
C137 C 0.57817 0.72208 0.61895 0.0
O138 O 0.73364 0.78057 0.60998 0.0
O139 O 0.60313 0.76223 0.61841 0.0
C140 C 0.7531 0.31982 0.30994 0.0
O141 O 0.77911 0.31693 0.29414 0.0
Cd142 Cd 0.77989 0.24573 0.27385 0.0
O143 O 0.72002 0.28695 0.31389 0.0
Cd144 Cd 0.67838 0.21324 0.29669 0.0
C145 C 0.78128 0.15378 0.3114 0.0
O146 O 0.69629 0.24309 0.26415 0.0
O147 O 0.68097 0.16474 0.26419 0.0
O148 O 0.59805 0.25313 0.30277 0.0
C149 C 0.69032 0.20378 0.25412 0.0
O150 O 0.80285 0.18068 0.29826 0.0
C151 C 0.57498 0.21325 0.30706 0.0
O152 O 0.73473 0.15681 0.31423 0.0
O153 O 0.60039 0.17329 0.30731 0.0
C154 C 0.67898 0.62349 0.81039 0.0
O155 O 0.65052 0.63384 0.79582 0.0
Cd156 Cd 0.65903 0.70414 0.77484 0.0
O157 O 0.71741 0.64991 0.81399 0.0
Cd158 Cd 0.7613 0.72212 0.79743 0.0
C159 C 0.66586 0.79405 0.81188 0.0
O160 O 0.74211 0.69515 0.76449 0.0
O161 O 0.75987 0.77289 0.76542 0.0
O162 O 0.84115 0.68064 0.80296 0.0
C163 C 0.75039 0.7347 0.75487 0.0
O164 O 0.64276 0.77604 0.79688 0.0
C165 C 0.86452 0.7201 0.8076 0.0
O166 O 0.70899 0.7787 0.8165 0.0
O167 O 0.83946 0.76021 0.80827 0.0
C168 C 0.56837 0.43678 0.06064 0.0
O169 O 0.56467 0.40984 0.04508 0.0
Cd170 Cd 0.49363 0.40909 0.02497 0.0
O171 O 0.53613 0.47056 0.06455 0.0
Cd172 Cd 0.46251 0.51203 0.04746 0.0
C173 C 0.40283 0.40909 0.06259 0.0
O174 O 0.49143 0.49317 0.01485 0.0
O175 O 0.41386 0.5096 0.0151 0.0
O176 O 0.50238 0.59289 0.05321 0.0
C177 C 0.4523 0.49968 0.00493 0.0
O178 O 0.42913 0.38681 0.04947 0.0
C179 C 0.46297 0.61634 0.05759 0.0
O180 O 0.4064 0.45601 0.06529 0.0
O181 O 0.42326 0.59092 0.05801 0.0
C182 C 0.87569 0.51625 0.55995 0.0
O183 O 0.88675 0.54546 0.54564 0.0
Cd184 Cd 0.95667 0.53628 0.5248 0.0
O185 O 0.90149 0.47713 0.56347 0.0
Cd186 Cd -0.02639 0.43332 0.54708 0.0
C187 C 0.04596 0.52852 0.56168 0.0
O188 O 0.9462 0.45279 0.51422 0.0
O189 O 0.02322 0.4341 0.51484 0.0
O190 O 0.93238 0.35302 0.55281 0.0
C191 C -0.01499 0.44357 0.50446 0.0
O192 O 0.02842 0.55212 0.54667 0.0
C193 C -0.02839 0.32929 0.55726 0.0
O194 O 0.03015 0.48528 0.56625 0.0
O195 O 0.01148 0.35436 0.55773 0.0
C196 C 0.5671 0.51452 0.86671 0.0
O197 O 0.55599 0.54354 0.88105 0.0
Cd198 Cd 0.48546 0.53439 0.9016 0.0
O199 O 0.54121 0.4756 0.86307 0.0
Cd200 Cd 0.4688 0.43182 0.87916 0.0
C201 C 0.39704 0.52738 0.86435 0.0
O202 O 0.49468 0.45077 0.91233 0.0
O203 O 0.41759 0.43276 0.91092 0.0
O204 O 0.5101 0.35144 0.8737 0.0
C205 C 0.45519 0.44189 0.9217 0.0
O206 O 0.41426 0.55073 0.87945 0.0
C207 C 0.47107 0.32794 0.86885 0.0
O208 O 0.4129 0.48414 0.85977 0.0
O209 O 0.43128 0.35318 0.86807 0.0
C210 C 0.86844 0.42275 0.36671 0.0
O211 O 0.88119 0.3931 0.38065 0.0
Cd212 Cd 0.95216 0.40211 0.40094 0.0
O213 O 0.89362 0.46216 0.36299 0.0
Cd214 Cd -0.03239 0.50585 0.37811 0.0
C215 C 0.04024 0.40987 0.36351 0.0
O216 O 0.94255 0.48586 0.41121 0.0
O217 O 0.01896 0.50653 0.40991 0.0
O218 O 0.92544 0.58624 0.37297 0.0
C219 C -0.01833 0.49578 0.42063 0.0
O220 O 0.02318 0.3866 0.37868 0.0
C221 C 0.96408 0.61018 0.36796 0.0
O222 O 0.02397 0.45294 0.35878 0.0
O223 O 0.00399 0.58519 0.36684 0.0
C224 C 0.01609 0.19537 0.56022 0.0
C225 C -0.02881 0.16887 0.55992 0.0
H226 H 0.05145 0.26688 0.55993 0.0
C227 C 0.92645 0.19568 0.56068 0.0
H228 H 0.0512 0.1758 0.55974 0.0
C229 C 0.92658 0.2479 0.56062 0.0
C230 C -0.02854 0.27441 0.56001 0.0
H231 H 0.89121 0.17638 0.56049 0.0
H232 H 0.89146 0.26748 0.56044 0.0
C233 C 0.01623 0.24759 0.56037 0.0
C234 C 0.94542 0.76516 0.81093 0.0
C235 C 0.91898 0.72 0.81035 0.0
H236 H 0.01652 0.80058 0.81047 0.0
C237 C 0.94546 0.67481 0.81075 0.0
H238 H 0.92614 0.80063 0.81066 0.0
C239 C -0.00272 0.67479 0.81081 0.0
C240 C 0.02372 0.71996 0.81028 0.0
H241 H 0.92618 0.63938 0.8104 0.0
H242 H 0.01656 0.63933 0.81045 0.0
C243 C -0.00276 0.76515 0.81079 0.0
C244 C 0.41829 0.69827 0.06036 0.0
C245 C 0.46296 0.67126 0.0604 0.0
H246 H 0.38366 0.77026 0.05954 0.0
C247 C 0.50788 0.69764 0.0615 0.0
H248 H 0.38306 0.67908 0.05952 0.0
C249 C 0.50821 0.74987 0.0617 0.0
C250 C 0.46365 0.77692 0.06057 0.0
H251 H 0.54293 0.67796 0.06165 0.0
H252 H 0.54353 0.76901 0.06191 0.0
C253 C 0.41864 0.75054 0.06034 0.0
C254 C 0.4941 0.25819 0.31118 0.0
C255 C 0.5205 0.21303 0.30995 0.0
H256 H 0.4231 0.29387 0.31172 0.0
C257 C 0.49392 0.16792 0.30983 0.0
H258 H 0.51345 0.29359 0.31139 0.0
C259 C 0.44205 0.1681 0.30985 0.0
C260 C 0.41565 0.21337 0.3102 0.0
H261 H 0.51312 0.13249 0.30889 0.0
H262 H 0.42266 0.13279 0.30898 0.0
C263 C 0.44227 0.25835 0.31141 0.0
C264 C 0.9182 0.74398 0.36558 0.0
C265 C 0.96292 0.77083 0.36554 0.0
H266 H 0.88345 0.67209 0.36637 0.0
C267 C 0.00778 0.7443 0.36441 0.0
H268 H 0.883 0.76328 0.36644 0.0
C269 C 0.00803 0.69207 0.36419 0.0
C270 C 0.96343 0.66517 0.36531 0.0
H271 H 0.04287 0.76387 0.36427 0.0
H272 H 0.04331 0.67282 0.36396 0.0
C273 C 0.91846 0.6917 0.36557 0.0
C274 C 0.44553 0.67672 0.61546 0.0
C275 C 0.41896 0.72185 0.6161 0.0
H276 H 0.51672 0.64137 0.61585 0.0
C277 C 0.44532 0.76707 0.6158 0.0
H278 H 0.42634 0.64123 0.61566 0.0
C279 C 0.49714 0.76714 0.61573 0.0
C280 C 0.52371 0.72199 0.61618 0.0
H281 H 0.42594 0.80247 0.6162 0.0
H282 H 0.51633 0.80261 0.61615 0.0
C283 C 0.49735 0.67679 0.6156 0.0
C284 C 0.42649 0.24646 0.86517 0.0
C285 C 0.47127 0.27312 0.86596 0.0
H286 H 0.3914 0.17477 0.86535 0.0
C287 C 0.51613 0.24649 0.86565 0.0
H288 H 0.39128 0.26586 0.86537 0.0
C289 C 0.5162 0.19427 0.86546 0.0
C290 C 0.47139 0.1676 0.8658 0.0
H291 H 0.55126 0.26595 0.86616 0.0
H292 H 0.55139 0.17486 0.8659 0.0
C293 C 0.42654 0.19424 0.86519 0.0
C294 C -0.00619 0.2741 0.11574 0.0
C295 C 0.02051 0.22902 0.11559 0.0
H296 H 0.92245 0.30914 0.11663 0.0
C297 C -0.00576 0.18384 0.11432 0.0
H298 H 0.01291 0.30955 0.11671 0.0
C299 C 0.94242 0.18362 0.1141 0.0
C300 C 0.91568 0.22856 0.11537 0.0
H301 H 0.0137 0.14847 0.11409 0.0
H302 H 0.92335 0.14807 0.11378 0.0
C303 C 0.94194 0.27386 0.11573 0.0
C304 C -0.00405 0.96554 0.45235 0.0
C305 C 0.95098 0.9562 0.4425 0.0
H306 H 0.0321 -0.01252 0.47926 0.0
C307 C 0.90627 0.96295 0.45299 0.0
H308 H 0.03107 0.96089 0.44471 0.0
C309 C 0.90688 -0.0213 0.47308 0.0
C310 C 0.95221 -0.0125 0.48285 0.0
H311 H 0.87106 0.95638 0.44569 0.0
H312 H 0.87216 -0.01692 0.48102 0.0
C313 C -0.00345 -0.01899 0.47219 0.0
C314 C 0.21355 0.65861 0.72299 0.0
C315 C 0.20443 0.70384 0.73305 0.0
H316 H 0.23613 0.62379 0.69538 0.0
C317 C 0.21109 0.74901 0.72275 0.0
H318 H 0.20908 0.62326 0.73067 0.0
C319 C 0.22684 0.74933 0.70295 0.0
C320 C 0.23625 0.70447 0.69279 0.0
H321 H 0.20444 0.78452 0.73004 0.0
H322 H 0.2315 0.78508 0.69558 0.0
C323 C 0.22953 0.65893 0.70294 0.0
C324 C 0.53035 0.96392 -0.02644 0.0
C325 C 0.48493 0.95825 -0.01635 0.0
H326 H 0.56636 -0.01773 0.94571 0.0
C327 C 0.44067 0.9672 -0.02678 0.0
H328 H 0.56503 0.95762 -0.01868 0.0
C329 C 0.44144 -0.01849 0.95324 0.0
C330 C 0.48648 -0.0128 0.94302 0.0
H331 H 0.40504 0.96327 -0.01947 0.0
H332 H 0.40639 -0.01213 0.94575 0.0
C333 C 0.53113 -0.02148 0.95332 0.0
C334 C 0.21222 0.19325 0.20274 0.0
C335 C 0.2035 0.23896 0.19307 0.0
H336 H 0.23407 0.15578 0.22943 0.0
C337 C 0.21114 0.28364 0.2037 0.0
H338 H 0.20688 0.1581 0.19501 0.0
C339 C 0.22719 0.28227 0.22373 0.0
C340 C 0.23547 0.2362 0.2333 0.0
H341 H 0.20507 0.31942 0.19653 0.0
H342 H 0.23228 0.31699 0.23178 0.0
C343 C 0.22804 0.1919 0.22252 0.0
C344 C 0.7271 0.15935 0.20199 0.0
C345 C 0.73686 0.20528 0.19255 0.0
H346 H 0.70367 0.12253 0.22908 0.0
C347 C 0.73118 0.2496 0.20349 0.0
H348 H 0.73083 0.12464 0.19382 0.0
C349 C 0.71539 0.24846 0.22328 0.0
C350 C 0.70495 0.20293 0.23279 0.0
H351 H 0.73844 0.2856 0.19667 0.0
H352 H 0.71132 0.28364 0.23112 0.0
C353 C 0.71108 0.15819 0.22203 0.0
C354 C 0.7134 0.78303 0.70334 0.0
C355 C 0.70534 0.73777 0.69317 0.0
H356 H 0.73507 0.81791 0.73105 0.0
C357 C 0.71321 0.6926 0.70334 0.0
H358 H 0.70799 0.8184 0.69577 0.0
C359 C 0.72898 0.69232 0.72314 0.0
C360 C 0.73719 0.73721 0.73343 0.0
H361 H 0.70743 0.65706 0.69596 0.0
H362 H 0.73452 0.65658 0.73042 0.0
C363 C 0.7294 0.78275 0.72339 0.0
C364 C 0.40686 0.46347 0.95292 0.0
C365 C 0.45217 0.45393 0.94324 0.0
H366 H 0.37105 0.48648 -0.01977 0.0
C367 C 0.49647 0.45967 0.95397 0.0
H368 H 0.37218 0.45968 0.94492 0.0
C369 C 0.49587 0.4752 -0.02619 0.0
C370 C 0.45093 0.48536 -0.01643 0.0
H371 H 0.532 0.45259 0.94696 0.0
H372 H 0.53098 0.47929 -0.0185 0.0
C373 C 0.40625 0.47927 -0.027 0.0
C374 C 0.9414 0.46104 0.47267 0.0
C375 C -0.01351 0.45501 0.48283 0.0
H376 H 0.90489 0.47948 0.44542 0.0
C377 C 0.0311 0.46333 0.47246 0.0
H378 H 0.90637 0.45496 0.48021 0.0
C379 C 0.03024 0.47789 0.45221 0.0
C380 C -0.01522 0.48387 0.44219 0.0
H381 H 0.06637 0.45932 0.48002 0.0
H382 H 0.06489 0.48389 0.4444 0.0
C383 C 0.94056 0.4753 0.45268 0.0
C384 C 0.12925 0.89418 0.60792 0.0
C385 C 0.16198 0.85656 0.60149 0.0
H386 H 0.07395 0.94746 0.59941 0.0
C387 C 0.17063 0.85041 0.58091 0.0
H388 H 0.12231 0.89997 0.62375 0.0
C389 C 0.14244 0.87712 0.567 0.0
C390 C 0.1059 0.91093 0.57348 0.0
H391 H 0.19566 0.82174 0.57555 0.0
H392 H 0.14679 0.86871 0.55121 0.0
C393 C 0.10169 0.92152 0.594 0.0
C394 C 0.31333 0.89272 0.81753 0.0
C395 C 0.28036 0.85539 0.82402 0.0
H396 H 0.36879 0.94577 0.82597 0.0
C397 C 0.27144 0.84964 0.8446 0.0
H398 H 0.32048 0.89821 0.80169 0.0
C399 C 0.29958 0.87641 0.85848 0.0
C400 C 0.33635 0.90988 0.85195 0.0
H401 H 0.24621 0.82124 0.85001 0.0
H402 H 0.29501 0.86829 0.87429 0.0
C403 C 0.34085 0.92011 0.83141 0.0
C404 C 0.32694 0.01902 0.09254 0.0
C405 C 0.3282 0.03516 0.07254 0.0
H406 H 0.3008 0.03404 0.12219 0.0
C407 C 0.2951 0.07274 0.0663 0.0
H408 H 0.35165 -0.01011 0.09775 0.0
C409 C 0.26557 0.09773 0.08026 0.0
C410 C 0.2692 0.08587 0.10069 0.0
H411 H 0.29464 0.08535 0.05086 0.0
H412 H 0.24376 0.12937 0.0753 0.0
C413 C 0.29781 0.04437 0.10653 0.0
C414 C 0.14672 0.04916 0.3564 0.0
C415 C 0.10582 0.0202 0.35042 0.0
H416 H 0.20165 0.10245 0.34763 0.0
C417 C 0.09547 0.0152 0.32992 0.0
H418 H 0.1559 0.05317 0.37213 0.0
C419 C 0.12143 0.04382 0.31591 0.0
C420 C 0.15844 0.07736 0.32219 0.0
H421 H 0.06433 -0.00693 0.32487 0.0
H422 H 0.10996 0.04243 0.30036 0.0
C423 C 0.17303 0.07735 0.34237 0.0
C424 C 0.82474 0.04549 0.34367 0.0
C425 C 0.87089 0.06325 0.35029 0.0
H426 H 0.75916 0.06108 0.32644 0.0
C427 C 0.88717 0.1104 0.34391 0.0
H428 H 0.81144 0.00922 0.34841 0.0
C429 C 0.85827 0.13907 0.33094 0.0
C430 C 0.81178 0.12189 0.32456 0.0
H431 H 0.92277 0.12479 0.34867 0.0
H432 H 0.87194 0.17521 0.32619 0.0
C433 C 0.79493 0.07506 0.33118 0.0
C434 C 0.61111 0.09125 0.06742 0.0
C435 C 0.57655 0.0576 0.07548 0.0
H436 H 0.66661 0.14641 0.07346 0.0
C437 C 0.57356 0.05194 0.09639 0.0
H438 H 0.61415 0.09623 0.05134 0.0
C439 C 0.60255 0.08159 0.10903 0.0
C440 C 0.63614 0.11624 0.10097 0.0
H441 H 0.54699 0.02648 0.10299 0.0
H442 H 0.598 0.07816 0.12512 0.0
C443 C 0.64122 0.11975 0.08006 0.0
C444 C 0.60617 0.86405 0.81728 0.0
C445 C 0.64 0.82942 0.82518 0.0
H446 H 0.55071 0.9191 0.82362 0.0
C447 C 0.64558 0.82567 0.84607 0.0
H448 H 0.60124 0.86758 0.80122 0.0
C449 C 0.61573 0.85402 0.85887 0.0
C450 C 0.58101 0.88773 0.85097 0.0
H451 H 0.67118 0.79895 0.85253 0.0
H452 H 0.61911 0.84891 0.87493 0.0
C453 C 0.57748 0.89358 0.83008 0.0
C454 C 0.79675 0.82737 0.58027 0.0
C455 C 0.80257 0.83116 0.60115 0.0
H456 H 0.82293 0.85044 0.55135 0.0
C457 C 0.83656 0.86569 0.60895 0.0
H458 H 0.77104 0.80073 0.5739 0.0
C459 C 0.86517 0.89508 0.59606 0.0
C460 C 0.86139 0.88919 0.57519 0.0
H461 H 0.84168 0.86925 0.625 0.0
H462 H 0.89205 0.92053 0.60244 0.0
C463 C 0.82651 0.85557 0.56739 0.0
C464 C 0.67302 0.36476 0.08372 0.0
C465 C 0.65825 0.36445 0.10388 0.0
H466 H 0.65603 0.38924 0.05398 0.0
C467 C 0.62102 0.39779 0.11017 0.0
H468 H 0.70182 0.33983 0.07845 0.0
C469 C 0.59505 0.4265 0.09618 0.0
C470 C 0.60561 0.42179 0.07568 0.0
H471 H 0.60942 0.39896 0.12571 0.0
H472 H 0.56375 0.44846 0.10123 0.0
C473 C 0.6467 0.39304 0.06971 0.0
C474 C 0.79727 0.39798 0.31935 0.0
C475 C 0.76879 0.35643 0.32519 0.0
H476 H 0.85098 0.45249 0.32814 0.0
C477 C 0.7652 0.34453 0.34561 0.0
H478 H 0.80023 0.40834 0.30369 0.0
C479 C 0.79467 0.36953 0.35957 0.0
C480 C 0.82769 0.40714 0.35334 0.0
H481 H 0.74348 0.31284 0.35056 0.0
H482 H 0.79427 0.35687 0.37501 0.0
C483 C 0.82634 0.42333 0.33335 0.0
C484 C 0.8 0.56609 0.56749 0.0
C485 C 0.8367 0.53244 0.57399 0.0
H486 H 0.74666 0.62133 0.57601 0.0
C487 C 0.84108 0.52198 0.59451 0.0
H488 H 0.79553 0.57438 0.55169 0.0
C489 C 0.81351 0.5493 0.60842 0.0
C490 C 0.78062 0.58678 0.60197 0.0
H491 H 0.86895 0.49616 0.59993 0.0
H492 H 0.82057 0.54362 0.62426 0.0
C493 C 0.77181 0.59278 0.58139 0.0
C494 C 0.62964 0.54744 0.81827 0.0
C495 C 0.66229 0.58508 0.8247 0.0
H496 H 0.57438 0.4942 0.82677 0.0
C497 C 0.67083 0.5913 0.84528 0.0
H498 H 0.62278 0.5416 0.80244 0.0
C499 C 0.64262 0.56463 0.85919 0.0
C500 C 0.60616 0.5308 0.8527 0.0
H501 H 0.69579 0.61997 0.85065 0.0
H502 H 0.64689 0.57309 0.87498 0.0
C503 C 0.60206 0.52016 0.83219 0.0
C504 C 0.32684 0.58663 0.85879 0.0
C505 C 0.36171 0.55296 0.85097 0.0
H506 H 0.2713 0.64151 0.85231 0.0
C507 C 0.36543 0.54706 0.83009 0.0
H508 H 0.3233 0.59176 0.87484 0.0
C509 C 0.33676 0.57647 0.81722 0.0
C510 C 0.30276 0.61102 0.82504 0.0
H511 H 0.3923 0.52157 0.8237 0.0
H512 H 0.34181 0.57287 0.80117 0.0
C513 C 0.29702 0.61485 0.84592 0.0
C514 C 0.11616 0.58768 0.56715 0.0
C515 C 0.08145 0.55393 0.575 0.0
H516 H 0.17148 0.64272 0.57358 0.0
C517 C 0.07788 0.54793 0.59588 0.0
H518 H 0.11958 0.5929 0.5511 0.0
C519 C 0.10648 0.57738 0.60872 0.0
C520 C 0.14026 0.61207 0.60087 0.0
H521 H 0.05113 0.52238 0.6023 0.0
H522 H 0.10149 0.57376 0.62478 0.0
C523 C 0.14593 0.61595 0.57999 0.0
C524 C 0.11078 0.35069 0.35839 0.0
C525 C 0.07613 0.3843 0.35033 0.0
H526 H 0.16637 0.29551 0.35236 0.0
C527 C 0.07308 0.38987 0.32942 0.0
H528 H 0.11387 0.34578 0.37447 0.0
C529 C 0.10209 0.36017 0.31678 0.0
C530 C 0.13577 0.32556 0.32484 0.0
H531 H 0.04644 0.4153 0.32282 0.0
H532 H 0.09749 0.36353 0.3007 0.0
C533 C 0.14092 0.32214 0.34576 0.0
C534 C 0.3873 0.33204 0.08237 0.0
C535 C 0.37082 0.37901 0.07583 0.0
H536 H 0.37217 0.26738 0.10017 0.0
C537 C 0.32446 0.39665 0.08229 0.0
H538 H 0.42307 0.31775 0.07773 0.0
C539 C 0.29462 0.36711 0.09476 0.0
C540 C 0.31164 0.32043 0.10151 0.0
H541 H 0.31102 0.43279 0.07742 0.0
H542 H 0.25868 0.38097 0.09936 0.0
C543 C 0.35836 0.3034 0.09531 0.0
loop_
_geom_bond_atom_site_label_1
_geom_bond_atom_site_label_2
_geom_bond_distance
_geom_bond_site_symmetry_2
_ccdc_geom_bond_type
C0 O1 1.306 . S
C0 O3 1.160 1_565 S
O1 C0 1.306 . S
O1 Cd2 2.228 . S
Cd2 O1 2.228 . S
Cd2 O6 2.285 . S
Cd2 O10 2.277 1_455 S
O3 C0 1.160 1_545 S
O3 Cd4 2.203 1_455 S
Cd4 O3 2.203 1_655 S
Cd4 O6 2.405 1_645 S
Cd4 O7 2.333 . S
Cd4 O8 2.352 1_655 S
Cd4 O12 2.277 . S
Cd4 O13 2.356 . S
C5 O10 1.209 . S
C5 O12 1.226 1_565 S
O6 Cd2 2.285 . S
O6 Cd4 2.405 1_465 S
O6 C9 1.314 1_465 S
O7 Cd4 2.333 . S
O7 C9 1.214 . S
O8 Cd4 2.352 1_455 S
O8 C11 1.258 . S
C9 O6 1.314 1_645 S
C9 O7 1.214 . S
O10 Cd2 2.277 1_655 S
O10 C5 1.209 . S
C11 O8 1.258 . S
C11 O13 1.282 1_455 S
O12 Cd4 2.277 . S
O12 C5 1.226 1_545 S
O13 Cd4 2.356 . S
O13 C11 1.282 1_655 S
C14 O15 1.306 . S
C14 O17 1.160 . S
O15 C14 1.306 . S
O15 Cd16 2.228 . S
Cd16 O15 2.228 . S
Cd16 O20 2.273 . S
Cd16 O24 2.277 . S
O17 C14 1.160 . S
O17 Cd18 2.203 . S
Cd18 O17 2.203 . S
Cd18 O20 2.411 . S
Cd18 O21 2.333 . S
Cd18 O22 2.352 . S
Cd18 O26 2.277 . S
Cd18 O27 2.356 . S
C19 O24 1.209 . S
C19 O26 1.226 . S
O20 Cd16 2.273 . S
O20 Cd18 2.411 . S
O20 C23 1.320 . S
O21 Cd18 2.333 . S
O21 C23 1.214 . S
O22 Cd18 2.352 . S
O22 C25 1.258 . S
C23 O20 1.320 . S
C23 O21 1.214 . S
O24 Cd16 2.277 . S
O24 C19 1.209 . S
C25 O22 1.258 . S
C25 O27 1.282 . S
O26 Cd18 2.277 . S
O26 C19 1.226 . S
O27 Cd18 2.356 . S
O27 C25 1.282 . S
C28 O29 1.306 . S
C28 O31 1.160 1_545 S
O29 C28 1.306 . S
O29 Cd30 2.228 . S
Cd30 O29 2.228 . S
Cd30 O34 2.285 . S
Cd30 O38 2.277 . S
O31 C28 1.160 1_565 S
O31 Cd32 2.203 . S
Cd32 O31 2.203 . S
Cd32 O34 2.405 1_565 S
Cd32 O35 2.333 . S
Cd32 O36 2.352 . S
Cd32 O40 2.277 . S
Cd32 O41 2.356 . S
C33 O38 1.209 . S
C33 O40 1.226 1_545 S
O34 Cd30 2.285 . S
O34 Cd32 2.405 1_545 S
O34 C37 1.314 1_545 S
O35 Cd32 2.333 . S
O35 C37 1.214 . S
O36 Cd32 2.352 . S
O36 C39 1.258 . S
C37 O34 1.314 1_565 S
C37 O35 1.214 . S
O38 Cd30 2.277 . S
O38 C33 1.209 . S
C39 O36 1.258 . S
C39 O41 1.282 . S
O40 Cd32 2.277 . S
O40 C33 1.226 1_565 S
O41 Cd32 2.356 . S
O41 C39 1.282 . S
C42 O43 1.306 . S
C42 O45 1.160 . S
O43 C42 1.306 . S
O43 Cd44 2.228 . S
Cd44 O43 2.228 . S
Cd44 O48 2.273 . S
Cd44 O52 2.277 . S
O45 C42 1.160 . S
O45 Cd46 2.203 . S
Cd46 O45 2.203 . S
Cd46 O48 2.411 . S
Cd46 O49 2.333 . S
Cd46 O50 2.352 . S
Cd46 O54 2.277 . S
Cd46 O55 2.356 . S
C47 O52 1.209 . S
C47 O54 1.226 . S
O48 Cd44 2.273 . S
O48 Cd46 2.411 . S
O48 C51 1.320 . S
O49 Cd46 2.333 . S
O49 C51 1.214 . S
O50 Cd46 2.352 . S
O50 C53 1.258 . S
C51 O48 1.320 . S
C51 O49 1.214 . S
O52 Cd44 2.277 . S
O52 C47 1.209 . S
C53 O50 1.258 . S
C53 O55 1.282 . S
O54 Cd46 2.277 . S
O54 C47 1.226 . S
O55 Cd46 2.356 . S
O55 C53 1.282 . S
C56 O57 1.306 . S
C56 O59 1.160 1_545 S
O57 C56 1.306 . S
O57 Cd58 2.228 . S
Cd58 O57 2.228 . S
Cd58 O62 2.285 . S
Cd58 O66 2.277 1_455 S
O59 C56 1.160 1_565 S
O59 Cd60 2.203 1_455 S
Cd60 O59 2.203 1_655 S
Cd60 O62 2.405 1_665 S
Cd60 O63 2.333 . S
Cd60 O64 2.352 1_655 S
Cd60 O68 2.277 . S
Cd60 O69 2.356 . S
C61 O66 1.209 . S
C61 O68 1.226 1_545 S
O62 Cd58 2.285 . S
O62 Cd60 2.405 1_445 S
O62 C65 1.314 1_445 S
O63 Cd60 2.333 . S
O63 C65 1.214 . S
O64 Cd60 2.352 1_455 S
O64 C67 1.258 . S
C65 O62 1.314 1_665 S
C65 O63 1.214 . S
O66 Cd58 2.277 1_655 S
O66 C61 1.209 . S
C67 O64 1.258 . S
C67 O69 1.282 1_455 S
O68 Cd60 2.277 . S
O68 C61 1.226 1_565 S
O69 Cd60 2.356 . S
O69 C67 1.282 1_655 S
C70 O71 1.306 . S
C70 O73 1.160 . S
O71 C70 1.306 . S
O71 Cd72 2.228 . S
Cd72 O71 2.228 . S
Cd72 O76 2.273 . S
Cd72 O80 2.277 . S
O73 C70 1.160 . S
O73 Cd74 2.203 . S
Cd74 O73 2.203 . S
Cd74 O76 2.411 . S
Cd74 O77 2.333 . S
Cd74 O78 2.352 . S
Cd74 O82 2.277 . S
Cd74 O83 2.356 . S
C75 O80 1.209 . S
C75 O82 1.226 . S
O76 Cd72 2.273 . S
O76 Cd74 2.411 . S
O76 C79 1.320 . S
O77 Cd74 2.333 . S
O77 C79 1.214 . S
O78 Cd74 2.352 . S
O78 C81 1.258 . S
C79 O76 1.320 . S
C79 O77 1.214 . S
O80 Cd72 2.277 . S
O80 C75 1.209 . S
C81 O78 1.258 . S
C81 O83 1.282 . S
O82 Cd74 2.277 . S
O82 C75 1.226 . S
O83 Cd74 2.356 . S
O83 C81 1.282 . S
C84 O85 1.306 . S
C84 O87 1.160 1_565 S
O85 C84 1.306 . S
O85 Cd86 2.228 . S
Cd86 O85 2.228 . S
Cd86 O90 2.285 . S
Cd86 O94 2.277 . S
O87 C84 1.160 1_545 S
O87 Cd88 2.203 . S
Cd88 O87 2.203 . S
Cd88 O90 2.405 1_545 S
Cd88 O91 2.333 . S
Cd88 O92 2.352 . S
Cd88 O96 2.277 . S
Cd88 O97 2.356 . S
C89 O94 1.209 . S
C89 O96 1.226 1_565 S
O90 Cd86 2.285 . S
O90 Cd88 2.405 1_565 S
O90 C93 1.314 1_565 S
O91 Cd88 2.333 . S
O91 C93 1.214 . S
O92 Cd88 2.352 . S
O92 C95 1.258 . S
C93 O90 1.314 1_545 S
C93 O91 1.214 . S
O94 Cd86 2.277 . S
O94 C89 1.209 . S
C95 O92 1.258 . S
C95 O97 1.282 . S
O96 Cd88 2.277 . S
O96 C89 1.226 1_545 S
O97 Cd88 2.356 . S
O97 C95 1.282 . S
C98 O99 1.306 . S
C98 O101 1.160 . S
O99 C98 1.306 . S
O99 Cd100 2.228 . S
Cd100 O99 2.228 . S
Cd100 O104 2.273 . S
Cd100 O108 2.277 . S
O101 C98 1.160 . S
O101 Cd102 2.203 . S
Cd102 O101 2.203 . S
Cd102 O104 2.411 . S
Cd102 O105 2.333 . S
Cd102 O106 2.352 . S
Cd102 O110 2.277 . S
Cd102 O111 2.356 . S
C103 O108 1.209 . S
C103 O110 1.226 . S
O104 Cd100 2.273 . S
O104 Cd102 2.411 . S
O104 C107 1.320 . S
O105 Cd102 2.333 . S
O105 C107 1.214 . S
O106 Cd102 2.352 . S
O106 C109 1.258 . S
C107 O104 1.320 . S
C107 O105 1.214 . S
O108 Cd100 2.277 . S
O108 C103 1.209 . S
C109 O106 1.258 . S
C109 O111 1.282 . S
O110 Cd102 2.277 . S
O110 C103 1.226 . S
O111 Cd102 2.356 . S
O111 C109 1.282 . S
C112 O113 1.306 . S
C112 O115 1.160 . S
O113 C112 1.306 . S
O113 Cd114 2.228 . S
Cd114 O113 2.228 . S
Cd114 O118 2.273 . S
Cd114 O122 2.277 . S
O115 C112 1.160 . S
O115 Cd116 2.203 . S
Cd116 O115 2.203 . S
Cd116 O118 2.411 . S
Cd116 O119 2.333 . S
Cd116 O120 2.352 . S
Cd116 O124 2.277 . S
Cd116 O125 2.356 . S
C117 O122 1.209 . S
C117 O124 1.226 . S
O118 Cd114 2.273 . S
O118 Cd116 2.411 . S
O118 C121 1.320 . S
O119 Cd116 2.333 . S
O119 C121 1.214 . S
O120 Cd116 2.352 . S
O120 C123 1.258 . S
C121 O118 1.320 . S
C121 O119 1.214 . S
O122 Cd114 2.277 . S
O122 C117 1.209 . S
C123 O120 1.258 . S
C123 O125 1.282 . S
O124 Cd116 2.277 . S
O124 C117 1.226 . S
O125 Cd116 2.356 . S
O125 C123 1.282 . S
C126 O127 1.306 . S
C126 O129 1.160 . S
O127 C126 1.306 . S
O127 Cd128 2.228 . S
Cd128 O127 2.228 . S
Cd128 O132 2.273 . S
Cd128 O136 2.277 . S
O129 C126 1.160 . S
O129 Cd130 2.203 . S
Cd130 O129 2.203 . S
Cd130 O132 2.411 . S
Cd130 O133 2.333 . S
Cd130 O134 2.352 . S
Cd130 O138 2.277 . S
Cd130 O139 2.356 . S
C131 O136 1.209 . S
C131 O138 1.226 . S
O132 Cd128 2.273 . S
O132 Cd130 2.411 . S
O132 C135 1.320 . S
O133 Cd130 2.333 . S
O133 C135 1.214 . S
O134 Cd130 2.352 . S
O134 C137 1.258 . S
C135 O132 1.320 . S
C135 O133 1.214 . S
O136 Cd128 2.277 . S
O136 C131 1.209 . S
C137 O134 1.258 . S
C137 O139 1.282 . S
O138 Cd130 2.277 . S
O138 C131 1.226 . S
O139 Cd130 2.356 . S
O139 C137 1.282 . S
C140 O141 1.306 . S
C140 O143 1.160 . S
O141 C140 1.306 . S
O141 Cd142 2.228 . S
Cd142 O141 2.228 . S
Cd142 O146 2.273 . S
Cd142 O150 2.277 . S
O143 C140 1.160 . S
O143 Cd144 2.203 . S
Cd144 O143 2.203 . S
Cd144 O146 2.411 . S
Cd144 O147 2.333 . S
Cd144 O148 2.352 . S
Cd144 O152 2.277 . S
Cd144 O153 2.356 . S
C145 O150 1.209 . S
C145 O152 1.226 . S
O146 Cd142 2.273 . S
O146 Cd144 2.411 . S
O146 C149 1.320 . S
O147 Cd144 2.333 . S
O147 C149 1.214 . S
O148 Cd144 2.352 . S
O148 C151 1.258 . S
C149 O146 1.320 . S
C149 O147 1.214 . S
O150 Cd142 2.277 . S
O150 C145 1.209 . S
C151 O148 1.258 . S
C151 O153 1.282 . S
O152 Cd144 2.277 . S
O152 C145 1.226 . S
O153 Cd144 2.356 . S
O153 C151 1.282 . S
C154 O155 1.306 . S
C154 O157 1.160 . S
O155 C154 1.306 . S
O155 Cd156 2.228 . S
Cd156 O155 2.228 . S
Cd156 O160 2.273 . S
Cd156 O164 2.277 . S
O157 C154 1.160 . S
O157 Cd158 2.203 . S
Cd158 O157 2.203 . S
Cd158 O160 2.411 . S
Cd158 O161 2.333 . S
Cd158 O162 2.352 . S
Cd158 O166 2.277 . S
Cd158 O167 2.356 . S
C159 O164 1.209 . S
C159 O166 1.226 . S
O160 Cd156 2.273 . S
O160 Cd158 2.411 . S
O160 C163 1.320 . S
O161 Cd158 2.333 . S
O161 C163 1.214 . S
O162 Cd158 2.352 . S
O162 C165 1.258 . S
C163 O160 1.320 . S
C163 O161 1.214 . S
O164 Cd156 2.277 . S
O164 C159 1.209 . S
C165 O162 1.258 . S
C165 O167 1.282 . S
O166 Cd158 2.277 . S
O166 C159 1.226 . S
O167 Cd158 2.356 . S
O167 C165 1.282 . S
C168 O169 1.306 . S
C168 O171 1.160 . S
O169 C168 1.306 . S
O169 Cd170 2.228 . S
Cd170 O169 2.228 . S
Cd170 O174 2.273 . S
Cd170 O178 2.277 . S
O171 C168 1.160 . S
O171 Cd172 2.203 . S
Cd172 O171 2.203 . S
Cd172 O174 2.411 . S
Cd172 O175 2.333 . S
Cd172 O176 2.352 . S
Cd172 O180 2.277 . S
Cd172 O181 2.356 . S
C173 O178 1.209 . S
C173 O180 1.226 . S
O174 Cd170 2.273 . S
O174 Cd172 2.411 . S
O174 C177 1.320 . S
O175 Cd172 2.333 . S
O175 C177 1.214 . S
O176 Cd172 2.352 . S
O176 C179 1.258 . S
C177 O174 1.320 . S
C177 O175 1.214 . S
O178 Cd170 2.277 . S
O178 C173 1.209 . S
C179 O176 1.258 . S
C179 O181 1.282 . S
O180 Cd172 2.277 . S
O180 C173 1.226 . S
O181 Cd172 2.356 . S
O181 C179 1.282 . S
C182 O183 1.306 . S
C182 O185 1.160 . S
O183 C182 1.306 . S
O183 Cd184 2.228 . S
Cd184 O183 2.228 . S
Cd184 O188 2.273 . S
Cd184 O192 2.277 1_655 S
O185 C182 1.160 . S
O185 Cd186 2.203 1_655 S
Cd186 O185 2.203 1_455 S
Cd186 O188 2.411 1_455 S
Cd186 O189 2.333 . S
Cd186 O190 2.352 1_455 S
Cd186 O194 2.277 . S
Cd186 O195 2.356 . S
C187 O192 1.209 . S
C187 O194 1.226 . S
O188 Cd184 2.273 . S
O188 Cd186 2.411 1_655 S
O188 C191 1.320 1_655 S
O189 Cd186 2.333 . S
O189 C191 1.214 . S
O190 Cd186 2.352 1_655 S
O190 C193 1.258 . S
C191 O188 1.320 1_455 S
C191 O189 1.214 . S
O192 Cd184 2.277 1_455 S
O192 C187 1.209 . S
C193 O190 1.258 . S
C193 O195 1.282 1_655 S
O194 Cd186 2.277 . S
O194 C187 1.226 . S
O195 Cd186 2.356 . S
O195 C193 1.282 1_455 S
C196 O197 1.306 . S
C196 O199 1.160 . S
O197 C196 1.306 . S
O197 Cd198 2.228 . S
Cd198 O197 2.228 . S
Cd198 O202 2.273 . S
Cd198 O206 2.277 . S
O199 C196 1.160 . S
O199 Cd200 2.203 . S
Cd200 O199 2.203 . S
Cd200 O202 2.411 . S
Cd200 O203 2.333 . S
Cd200 O204 2.352 . S
Cd200 O208 2.277 . S
Cd200 O209 2.356 . S
C201 O206 1.209 . S
C201 O208 1.226 . S
O202 Cd198 2.273 . S
O202 Cd200 2.411 . S
O202 C205 1.320 . S
O203 Cd200 2.333 . S
O203 C205 1.214 . S
O204 Cd200 2.352 . S
O204 C207 1.258 . S
C205 O202 1.320 . S
C205 O203 1.214 . S
O206 Cd198 2.277 . S
O206 C201 1.209 . S
C207 O204 1.258 . S
C207 O209 1.282 . S
O208 Cd200 2.277 . S
O208 C201 1.226 . S
O209 Cd200 2.356 . S
O209 C207 1.282 . S
C210 O211 1.306 . S
C210 O213 1.160 . S
O211 C210 1.306 . S
O211 Cd212 2.228 . S
Cd212 O211 2.228 . S
Cd212 O216 2.273 . S
Cd212 O220 2.277 1_655 S
O213 C210 1.160 . S
O213 Cd214 2.203 1_655 S
Cd214 O213 2.203 1_455 S
Cd214 O216 2.411 1_455 S
Cd214 O217 2.333 . S
Cd214 O218 2.352 1_455 S
Cd214 O222 2.277 . S
Cd214 O223 2.356 . S
C215 O220 1.209 . S
C215 O222 1.226 . S
O216 Cd212 2.273 . S
O216 Cd214 2.411 1_655 S
O216 C219 1.320 1_655 S
O217 Cd214 2.333 . S
O217 C219 1.214 . S
O218 Cd214 2.352 1_655 S
O218 C221 1.258 . S
C219 O216 1.320 1_455 S
C219 O217 1.214 . S
O220 Cd212 2.277 1_455 S
O220 C215 1.209 . S
C221 O218 1.258 . S
C221 O223 1.282 1_655 S
O222 Cd214 2.277 . S
O222 C215 1.226 . S
O223 Cd214 2.356 . S
O223 C221 1.282 1_455 S
C224 C225 1.387 . S
C224 H228 0.950 . S
C224 C233 1.390 1_455 S
C225 C224 1.387 . S
C225 C227 1.387 . S
H226 C233 0.950 . S
C227 C225 1.387 . S
C227 C229 1.390 1_455 S
C227 H231 0.950 . S
H228 C224 0.950 . S
C229 C227 1.390 1_655 S
C229 C230 1.387 . S
C229 H232 0.950 . S
C230 C229 1.387 . S
C230 C233 1.387 . S
H231 C227 0.950 . S
H232 C229 0.950 . S
C233 C224 1.390 1_655 S
C233 H226 0.950 . S
C233 C230 1.387 . S
C234 C235 1.387 . S
C234 H238 0.950 . S
C234 C243 1.390 1_655 S
C235 C234 1.387 . S
C235 C237 1.387 . S
H236 C243 0.950 . S
C237 C235 1.387 . S
C237 C239 1.390 1_655 S
C237 H241 0.950 . S
H238 C234 0.950 . S
C239 C237 1.390 1_455 S
C239 C240 1.387 . S
C239 H242 0.950 . S
C240 C239 1.387 . S
C240 C243 1.387 . S
H241 C237 0.950 . S
H242 C239 0.950 . S
C243 C234 1.390 1_455 S
C243 H236 0.950 . S
C243 C240 1.387 . S
C244 C245 1.387 . S
C244 H248 0.950 . S
C244 C253 1.390 . S
C245 C244 1.387 . S
C245 C247 1.387 . S
H246 C253 0.950 . S
C247 C245 1.387 . S
C247 C249 1.390 . S
C247 H251 0.950 . S
H248 C244 0.950 . S
C249 C247 1.390 . S
C249 C250 1.387 . S
C249 H252 0.950 . S
C250 C249 1.387 . S
C250 C253 1.387 . S
H251 C247 0.950 . S
H252 C249 0.950 . S
C253 C244 1.390 . S
C253 H246 0.950 . S
C253 C250 1.387 . S
C254 C255 1.387 . S
C254 H258 0.950 . S
C254 C263 1.390 . S
C255 C254 1.387 . S
C255 C257 1.387 . S
H256 C263 0.950 . S
C257 C255 1.387 . S
C257 C259 1.390 . S
C257 H261 0.950 . S
H258 C254 0.950 . S
C259 C257 1.390 . S
C259 C260 1.387 . S
C259 H262 0.950 . S
C260 C259 1.387 . S
C260 C263 1.387 . S
H261 C257 0.950 . S
H262 C259 0.950 . S
C263 C254 1.390 . S
C263 H256 0.950 . S
C263 C260 1.387 . S
C264 C265 1.387 . S
C264 H268 0.950 . S
C264 C273 1.390 1_455 S
C265 C264 1.387 . S
C265 C267 1.387 . S
H266 C273 0.950 . S
C267 C265 1.387 . S
C267 C269 1.390 1_455 S
C267 H271 0.950 . S
H268 C264 0.950 . S
C269 C267 1.390 1_655 S
C269 C270 1.387 . S
C269 H272 0.950 . S
C270 C269 1.387 . S
C270 C273 1.387 . S
H271 C267 0.950 . S
H272 C269 0.950 . S
C273 C264 1.390 1_655 S
C273 H266 0.950 . S
C273 C270 1.387 . S
C274 C275 1.387 . S
C274 H278 0.950 . S
C274 C283 1.390 . S
C275 C274 1.387 . S
C275 C277 1.387 . S
H276 C283 0.950 . S
C277 C275 1.387 . S
C277 C279 1.390 . S
C277 H281 0.950 . S
H278 C274 0.950 . S
C279 C277 1.390 . S
C279 C280 1.387 . S
C279 H282 0.950 . S
C280 C279 1.387 . S
C280 C283 1.387 . S
H281 C277 0.950 . S
H282 C279 0.950 . S
C283 C274 1.390 . S
C283 H276 0.950 . S
C283 C280 1.387 . S
C284 C285 1.387 . S
C284 H288 0.950 . S
C284 C293 1.390 . S
C285 C284 1.387 . S
C285 C287 1.387 . S
H286 C293 0.950 . S
C287 C285 1.387 . S
C287 C289 1.390 . S
C287 H291 0.950 . S
H288 C284 0.950 . S
C289 C287 1.390 . S
C289 C290 1.387 . S
C289 H292 0.950 . S
C290 C289 1.387 . S
C290 C293 1.387 . S
H291 C287 0.950 . S
H292 C289 0.950 . S
C293 C284 1.390 . S
C293 H286 0.950 . S
C293 C290 1.387 . S
C294 C295 1.387 . S
C294 H298 0.950 . S
C294 C303 1.390 1_455 S
C295 C294 1.387 . S
C295 C297 1.387 . S
H296 C303 0.950 . S
C297 C295 1.387 . S
C297 C299 1.390 1_455 S
C297 H301 0.950 . S
H298 C294 0.950 . S
C299 C297 1.390 1_655 S
C299 C300 1.387 . S
C299 H302 0.950 . S
C300 C299 1.387 . S
C300 C303 1.387 . S
H301 C297 0.950 . S
H302 C299 0.950 . S
C303 C294 1.390 1_655 S
C303 H296 0.950 . S
C303 C300 1.387 . S
C304 C305 1.387 1_455 S
C304 H308 0.950 . S
C304 C313 1.390 1_565 S
C305 C304 1.387 1_655 S
C305 C307 1.387 . S
H306 C313 0.950 . S
C307 C305 1.387 . S
C307 C309 1.390 1_565 S
C307 H311 0.950 . S
H308 C304 0.950 . S
C309 C307 1.390 1_545 S
C309 C310 1.387 . S
C309 H312 0.950 . S
C310 C309 1.387 . S
C310 C313 1.387 1_655 S
H311 C307 0.950 . S
H312 C309 0.950 . S
C313 C304 1.390 1_545 S
C313 H306 0.950 . S
C313 C310 1.387 1_455 S
C314 C315 1.387 . S
C314 H318 0.950 . S
C314 C323 1.390 . S
C315 C314 1.387 . S
C315 C317 1.387 . S
H316 C323 0.950 . S
C317 C315 1.387 . S
C317 C319 1.390 . S
C317 H321 0.950 . S
H318 C314 0.950 . S
C319 C317 1.390 . S
C319 C320 1.387 . S
C319 H322 0.950 . S
C320 C319 1.387 . S
C320 C323 1.387 . S
H321 C317 0.950 . S
H322 C319 0.950 . S
C323 C314 1.390 . S
C323 H316 0.950 . S
C323 C320 1.387 . S
C324 C325 1.387 . S
C324 H328 0.950 . S
C324 C333 1.390 1_564 S
C325 C324 1.387 . S
C325 C327 1.387 . S
H326 C333 0.950 . S
C327 C325 1.387 . S
C327 C329 1.390 1_564 S
C327 H331 0.950 . S
H328 C324 0.950 . S
C329 C327 1.390 1_546 S
C329 C330 1.387 . S
C329 H332 0.950 . S
C330 C329 1.387 . S
C330 C333 1.387 . S
H331 C327 0.950 . S
H332 C329 0.950 . S
C333 C324 1.390 1_546 S
C333 H326 0.950 . S
C333 C330 1.387 . S
C334 C335 1.387 . S
C334 H338 0.950 . S
C334 C343 1.390 . S
C335 C334 1.387 . S
C335 C337 1.387 . S
H336 C343 0.950 . S
C337 C335 1.387 . S
C337 C339 1.390 . S
C337 H341 0.950 . S
H338 C334 0.950 . S
C339 C337 1.390 . S
C339 C340 1.387 . S
C339 H342 0.950 . S
C340 C339 1.387 . S
C340 C343 1.387 . S
H341 C337 0.950 . S
H342 C339 0.950 . S
C343 C334 1.390 . S
C343 H336 0.950 . S
C343 C340 1.387 . S
C344 C345 1.387 . S
C344 H348 0.950 . S
C344 C353 1.390 . S
C345 C344 1.387 . S
C345 C347 1.387 . S
H346 C353 0.950 . S
C347 C345 1.387 . S
C347 C349 1.390 . S
C347 H351 0.950 . S
H348 C344 0.950 . S
C349 C347 1.390 . S
C349 C350 1.387 . S
C349 H352 0.950 . S
C350 C349 1.387 . S
C350 C353 1.387 . S
H351 C347 0.950 . S
H352 C349 0.950 . S
C353 C344 1.390 . S
C353 H346 0.950 . S
C353 C350 1.387 . S
C354 C355 1.387 . S
C354 H358 0.950 . S
C354 C363 1.390 . S
C355 C354 1.387 . S
C355 C357 1.387 . S
H356 C363 0.950 . S
C357 C355 1.387 . S
C357 C359 1.390 . S
C357 H361 0.950 . S
H358 C354 0.950 . S
C359 C357 1.390 . S
C359 C360 1.387 . S
C359 H362 0.950 . S
C360 C359 1.387 . S
C360 C363 1.387 . S
H361 C357 0.950 . S
H362 C359 0.950 . S
C363 C354 1.390 . S
C363 H356 0.950 . S
C363 C360 1.387 . S
C364 C365 1.387 . S
C364 H368 0.950 . S
C364 C373 1.390 1_556 S
C365 C364 1.387 . S
C365 C367 1.387 . S
H366 C373 0.950 . S
C367 C365 1.387 . S
C367 C369 1.390 1_556 S
C367 H371 0.950 . S
H368 C364 0.950 . S
C369 C367 1.390 1_554 S
C369 C370 1.387 . S
C369 H372 0.950 . S
C370 C369 1.387 . S
C370 C373 1.387 . S
H371 C367 0.950 . S
H372 C369 0.950 . S
C373 C364 1.390 1_554 S
C373 H366 0.950 . S
C373 C370 1.387 . S
C374 C375 1.387 1_655 S
C374 H378 0.950 . S
C374 C383 1.390 . S
C375 C374 1.387 1_455 S
C375 C377 1.387 . S
H376 C383 0.950 . S
C377 C375 1.387 . S
C377 C379 1.390 . S
C377 H381 0.950 . S
H378 C374 0.950 . S
C379 C377 1.390 . S
C379 C380 1.387 . S
C379 H382 0.950 . S
C380 C379 1.387 . S
C380 C383 1.387 1_455 S
H381 C377 0.950 . S
H382 C379 0.950 . S
C383 C374 1.390 . S
C383 H376 0.950 . S
C383 C380 1.387 1_655 S
C384 C385 1.387 . S
C384 H388 0.950 . S
C384 C393 1.390 . S
C385 C384 1.387 . S
C385 C387 1.387 . S
H386 C393 0.950 . S
C387 C385 1.387 . S
C387 C389 1.390 . S
C387 H391 0.950 . S
H388 C384 0.950 . S
C389 C387 1.390 . S
C389 C390 1.387 . S
C389 H392 0.950 . S
C390 C389 1.387 . S
C390 C393 1.387 . S
H391 C387 0.950 . S
H392 C389 0.950 . S
C393 C384 1.390 . S
C393 H386 0.950 . S
C393 C390 1.387 . S
C394 C395 1.387 . S
C394 H398 0.950 . S
C394 C403 1.390 . S
C395 C394 1.387 . S
C395 C397 1.387 . S
H396 C403 0.950 . S
C397 C395 1.387 . S
C397 C399 1.390 . S
C397 H401 0.950 . S
H398 C394 0.950 . S
C399 C397 1.390 . S
C399 C400 1.387 . S
C399 H402 0.950 . S
C400 C399 1.387 . S
C400 C403 1.387 . S
H401 C397 0.950 . S
H402 C399 0.950 . S
C403 C394 1.390 . S
C403 H396 0.950 . S
C403 C400 1.387 . S
C404 C405 1.387 . S
C404 H408 0.950 . S
C404 C413 1.390 . S
C405 C404 1.387 . S
C405 C407 1.387 . S
H406 C413 0.950 . S
C407 C405 1.387 . S
C407 C409 1.390 . S
C407 H411 0.950 . S
H408 C404 0.950 . S
C409 C407 1.390 . S
C409 C410 1.387 . S
C409 H412 0.950 . S
C410 C409 1.387 . S
C410 C413 1.387 . S
H411 C407 0.950 . S
H412 C409 0.950 . S
C413 C404 1.390 . S
C413 H406 0.950 . S
C413 C410 1.387 . S
C414 C415 1.387 . S
C414 H418 0.950 . S
C414 C423 1.390 . S
C415 C414 1.387 . S
C415 C417 1.387 . S
H416 C423 0.950 . S
C417 C415 1.387 . S
C417 C419 1.390 . S
C417 H421 0.950 . S
H418 C414 0.950 . S
C419 C417 1.390 . S
C419 C420 1.387 . S
C419 H422 0.950 . S
C420 C419 1.387 . S
C420 C423 1.387 . S
H421 C417 0.950 . S
H422 C419 0.950 . S
C423 C414 1.390 . S
C423 H416 0.950 . S
C423 C420 1.387 . S
C424 C425 1.387 . S
C424 H428 0.950 . S
C424 C433 1.390 . S
C425 C424 1.387 . S
C425 C427 1.387 . S
H426 C433 0.950 . S
C427 C425 1.387 . S
C427 C429 1.390 . S
C427 H431 0.950 . S
H428 C424 0.950 . S
C429 C427 1.390 . S
C429 C430 1.387 . S
C429 H432 0.950 . S
C430 C429 1.387 . S
C430 C433 1.387 . S
H431 C427 0.950 . S
H432 C429 0.950 . S
C433 C424 1.390 . S
C433 H426 0.950 . S
C433 C430 1.387 . S
C434 C435 1.387 . S
C434 H438 0.950 . S
C434 C443 1.390 . S
C435 C434 1.387 . S
C435 C437 1.387 . S
H436 C443 0.950 . S
C437 C435 1.387 . S
C437 C439 1.390 . S
C437 H441 0.950 . S
H438 C434 0.950 . S
C439 C437 1.390 . S
C439 C440 1.387 . S
C439 H442 0.950 . S
C440 C439 1.387 . S
C440 C443 1.387 . S
H441 C437 0.950 . S
H442 C439 0.950 . S
C443 C434 1.390 . S
C443 H436 0.950 . S
C443 C440 1.387 . S
C444 C445 1.387 . S
C444 H448 0.950 . S
C444 C453 1.390 . S
C445 C444 1.387 . S
C445 C447 1.387 . S
H446 C453 0.950 . S
C447 C445 1.387 . S
C447 C449 1.390 . S
C447 H451 0.950 . S
H448 C444 0.950 . S
C449 C447 1.390 . S
C449 C450 1.387 . S
C449 H452 0.950 . S
C450 C449 1.387 . S
C450 C453 1.387 . S
H451 C447 0.950 . S
H452 C449 0.950 . S
C453 C444 1.390 . S
C453 H446 0.950 . S
C453 C450 1.387 . S
C454 C455 1.387 . S
C454 H458 0.950 . S
C454 C463 1.390 . S
C455 C454 1.387 . S
C455 C457 1.387 . S
H456 C463 0.950 . S
C457 C455 1.387 . S
C457 C459 1.390 . S
C457 H461 0.950 . S
H458 C454 0.950 . S
C459 C457 1.390 . S
C459 C460 1.387 . S
C459 H462 0.950 . S
C460 C459 1.387 . S
C460 C463 1.387 . S
H461 C457 0.950 . S
H462 C459 0.950 . S
C463 C454 1.390 . S
C463 H456 0.950 . S
C463 C460 1.387 . S
C464 C465 1.387 . S
C464 H468 0.950 . S
C464 C473 1.390 . S
C465 C464 1.387 . S
C465 C467 1.387 . S
H466 C473 0.950 . S
C467 C465 1.387 . S
C467 C469 1.390 . S
C467 H471 0.950 . S
H468 C464 0.950 . S
C469 C467 1.390 . S
C469 C470 1.387 . S
C469 H472 0.950 . S
C470 C469 1.387 . S
C470 C473 1.387 . S
H471 C467 0.950 . S
H472 C469 0.950 . S
C473 C464 1.390 . S
C473 H466 0.950 . S
C473 C470 1.387 . S
C474 C475 1.387 . S
C474 H478 0.950 . S
C474 C483 1.390 . S
C475 C474 1.387 . S
C475 C477 1.387 . S
H476 C483 0.950 . S
C477 C475 1.387 . S
C477 C479 1.390 . S
C477 H481 0.950 . S
H478 C474 0.950 . S
C479 C477 1.390 . S
C479 C480 1.387 . S
C479 H482 0.950 . S
C480 C479 1.387 . S
C480 C483 1.387 . S
H481 C477 0.950 . S
H482 C479 0.950 . S
C483 C474 1.390 . S
C483 H476 0.950 . S
C483 C480 1.387 . S
C484 C485 1.387 . S
C484 H488 0.950 . S
C484 C493 1.390 . S
C485 C484 1.387 . S
C485 C487 1.387 . S
H486 C493 0.950 . S
C487 C485 1.387 . S
C487 C489 1.390 . S
C487 H491 0.950 . S
H488 C484 0.950 . S
C489 C487 1.390 . S
C489 C490 1.387 . S
C489 H492 0.950 . S
C490 C489 1.387 . S
C490 C493 1.387 . S
H491 C487 0.950 . S
H492 C489 0.950 . S
C493 C484 1.390 . S
C493 H486 0.950 . S
C493 C490 1.387 . S
C494 C495 1.387 . S
C494 H498 0.950 . S
C494 C503 1.390 . S
C495 C494 1.387 . S
C495 C497 1.387 . S
H496 C503 0.950 . S
C497 C495 1.387 . S
C497 C499 1.390 . S
C497 H501 0.950 . S
H498 C494 0.950 . S
C499 C497 1.390 . S
C499 C500 1.387 . S
C499 H502 0.950 . S
C500 C499 1.387 . S
C500 C503 1.387 . S
H501 C497 0.950 . S
H502 C499 0.950 . S
C503 C494 1.390 . S
C503 H496 0.950 . S
C503 C500 1.387 . S
C504 C505 1.387 . S
C504 H508 0.950 . S
C504 C513 1.390 . S
C505 C504 1.387 . S
C505 C507 1.387 . S
H506 C513 0.950 . S
C507 C505 1.387 . S
C507 C509 1.390 . S
C507 H511 0.950 . S
H508 C504 0.950 . S
C509 C507 1.390 . S
C509 C510 1.387 . S
C509 H512 0.950 . S
C510 C509 1.387 . S
C510 C513 1.387 . S
H511 C507 0.950 . S
H512 C509 0.950 . S
C513 C504 1.390 . S
C513 H506 0.950 . S
C513 C510 1.387 . S
C514 C515 1.387 . S
C514 H518 0.950 . S
C514 C523 1.390 . S
C515 C514 1.387 . S
C515 C517 1.387 . S
H516 C523 0.950 . S
C517 C515 1.387 . S
C517 C519 1.390 . S
C517 H521 0.950 . S
H518 C514 0.950 . S
C519 C517 1.390 . S
C519 C520 1.387 . S
C519 H522 0.950 . S
C520 C519 1.387 . S
C520 C523 1.387 . S
H521 C517 0.950 . S
H522 C519 0.950 . S
C523 C514 1.390 . S
C523 H516 0.950 . S
C523 C520 1.387 . S
C524 C525 1.387 . S
C524 H528 0.950 . S
C524 C533 1.390 . S
C525 C524 1.387 . S
C525 C527 1.387 . S
H526 C533 0.950 . S
C527 C525 1.387 . S
C527 C529 1.390 . S
C527 H531 0.950 . S
H528 C524 0.950 . S
C529 C527 1.390 . S
C529 C530 1.387 . S
C529 H532 0.950 . S
C530 C529 1.387 . S
C530 C533 1.387 . S
H531 C527 0.950 . S
H532 C529 0.950 . S
C533 C524 1.390 . S
C533 H526 0.950 . S
C533 C530 1.387 . S
C534 C535 1.387 . S
C534 H538 0.950 . S
C534 C543 1.390 . S
C535 C534 1.387 . S
C535 C537 1.387 . S
H536 C543 0.950 . S
C537 C535 1.387 . S
C537 C539 1.390 . S
C537 H541 0.950 . S
H538 C534 0.950 . S
C539 C537 1.390 . S
C539 C540 1.387 . S
C539 H542 0.950 . S
C540 C539 1.387 . S
C540 C543 1.387 . S
H541 C537 0.950 . S
H542 C539 0.950 . S
C543 C534 1.390 . S
C543 H536 0.950 . S
C543 C540 1.387 . S
C225 C11 1.343 . S
C230 C193 1.343 . S
C235 C165 1.343 . S
C240 C25 1.343 . S
C245 C179 1.343 . S
C250 C39 1.343 . S
C255 C151 1.340 . S
C260 C53 1.340 . S
C265 C67 1.343 . S
C270 C221 1.343 . S
C275 C81 1.340 . S
C280 C137 1.340 . S
C285 C207 1.340 . S
C290 C95 1.340 . S
C295 C109 1.343 . S
C300 C123 1.343 . S
C305 C65 1.617 . S
C310 C9 1.617 . S
C315 C23 1.617 . S
C320 C79 1.617 . S
C325 C37 1.617 . S
C330 C93 1.617 . S
C335 C107 1.617 . S
C340 C51 1.617 . S
C345 C121 1.617 . S
C350 C149 1.617 . S
C355 C135 1.617 . S
C360 C163 1.617 . S
C365 C205 1.617 . S
C370 C177 1.617 . S
C375 C191 1.617 . S
C380 C219 1.617 . S
C385 C70 1.482 . S
C390 C0 1.484 . S
C395 C14 1.482 . S
C400 C84 1.484 . S
C405 C28 1.484 . S
C410 C98 1.482 . S
C415 C56 1.483 . S
C420 C42 1.485 . S
C425 C61 1.329 . S
C430 C145 1.329 . S
C435 C33 1.331 . S
C440 C117 1.330 . S
C445 C159 1.330 . S
C450 C89 1.329 . S
C455 C131 1.329 . S
C460 C5 1.330 . S
C465 C112 1.485 . S
C470 C168 1.483 . S
C475 C140 1.482 . S
C480 C210 1.484 . S
C485 C182 1.483 . S
C490 C126 1.485 . S
C495 C154 1.482 . S
C500 C196 1.484 . S
C505 C201 1.330 . S
C510 C19 1.329 . S
C515 C187 1.330 . S
C520 C75 1.330 . S
C525 C215 1.330 . S
C530 C47 1.330 . S
C535 C173 1.331 . S
C540 C103 1.331 . S
