# Generated by pormake.
# Topology reo-e, (6)-cn, num edge types: 1
# Building blocks:
#     Node 0, Type 0, BuildingBlock: OJICUG_clean_sbu_0, # of connection points: 6
#     Node 1, Type 0, BuildingBlock: OJICUG_clean_sbu_0, # of connection points: 6
#     Node 2, Type 0, BuildingBlock: OJICUG_clean_sbu_0, # of connection points: 6
#     Node 3, Type 0, BuildingBlock: OJICUG_clean_sbu_0, # of connection points: 6
#     Node 4, Type 0, BuildingBlock: OJICUG_clean_sbu_0, # of connection points: 6
#     Node 5, Type 0, BuildingBlock: OJICUG_clean_sbu_0, # of connection points: 6
#     Node 6, Type 0, BuildingBlock: OJICUG_clean_sbu_0, # of connection points: 6
#     Node 7, Type 0, BuildingBlock: OJICUG_clean_sbu_0, # of connection points: 6
#     Node 8, Type 0, BuildingBlock: OJICUG_clean_sbu_0, # of connection points: 6
#     Node 9, Type 0, BuildingBlock: OJICUG_clean_sbu_0, # of connection points: 6
#     Node 10, Type 0, BuildingBlock: OJICUG_clean_sbu_0, # of connection points: 6
#     Node 11, Type 0, BuildingBlock: OJICUG_clean_sbu_0, # of connection points: 6
#     Edge 12, Type (0, 0), BuildingBlock: KIFKEQ_clean_linker_1, # of connection points: 2
#     Edge 13, Type (0, 0), BuildingBlock: KIFKEQ_clean_linker_1, # of connection points: 2
#     Edge 14, Type (0, 0), BuildingBlock: KIFKEQ_clean_linker_1, # of connection points: 2
#     Edge 15, Type (0, 0), BuildingBlock: KIFKEQ_clean_linker_1, # of connection points: 2
#     Edge 16, Type (0, 0), BuildingBlock: KIFKEQ_clean_linker_1, # of connection points: 2
#     Edge 17, Type (0, 0), BuildingBlock: KIFKEQ_clean_linker_1, # of connection points: 2
#     Edge 18, Type (0, 0), BuildingBlock: KIFKEQ_clean_linker_1, # of connection points: 2
#     Edge 19, Type (0, 0), BuildingBlock: KIFKEQ_clean_linker_1, # of connection points: 2
#     Edge 20, Type (0, 0), BuildingBlock: KIFKEQ_clean_linker_1, # of connection points: 2
#     Edge 21, Type (0, 0), BuildingBlock: KIFKEQ_clean_linker_1, # of connection points: 2
#     Edge 22, Type (0, 0), BuildingBlock: KIFKEQ_clean_linker_1, # of connection points: 2
#     Edge 23, Type (0, 0), BuildingBlock: KIFKEQ_clean_linker_1, # of connection points: 2
#     Edge 24, Type (0, 0), BuildingBlock: KIFKEQ_clean_linker_1, # of connection points: 2
#     Edge 25, Type (0, 0), BuildingBlock: KIFKEQ_clean_linker_1, # of connection points: 2
#     Edge 26, Type (0, 0), BuildingBlock: KIFKEQ_clean_linker_1, # of connection points: 2
#     Edge 27, Type (0, 0), BuildingBlock: KIFKEQ_clean_linker_1, # of connection points: 2
#     Edge 28, Type (0, 0), BuildingBlock: KIFKEQ_clean_linker_1, # of connection points: 2
#     Edge 29, Type (0, 0), BuildingBlock: KIFKEQ_clean_linker_1, # of connection points: 2
#     Edge 30, Type (0, 0), BuildingBlock: KIFKEQ_clean_linker_1, # of connection points: 2
#     Edge 31, Type (0, 0), BuildingBlock: KIFKEQ_clean_linker_1, # of connection points: 2
#     Edge 32, Type (0, 0), BuildingBlock: KIFKEQ_clean_linker_1, # of connection points: 2
#     Edge 33, Type (0, 0), BuildingBlock: KIFKEQ_clean_linker_1, # of connection points: 2
#     Edge 34, Type (0, 0), BuildingBlock: KIFKEQ_clean_linker_1, # of connection points: 2
#     Edge 35, Type (0, 0), BuildingBlock: KIFKEQ_clean_linker_1, # of connection points: 2
#     Edge 36, Type (0, 0), BuildingBlock: KIFKEQ_clean_linker_1, # of connection points: 2
#     Edge 37, Type (0, 0), BuildingBlock: KIFKEQ_clean_linker_1, # of connection points: 2
#     Edge 38, Type (0, 0), BuildingBlock: KIFKEQ_clean_linker_1, # of connection points: 2
#     Edge 39, Type (0, 0), BuildingBlock: KIFKEQ_clean_linker_1, # of connection points: 2
#     Edge 40, Type (0, 0), BuildingBlock: KIFKEQ_clean_linker_1, # of connection points: 2
#     Edge 41, Type (0, 0), BuildingBlock: KIFKEQ_clean_linker_1, # of connection points: 2
#     Edge 42, Type (0, 0), BuildingBlock: KIFKEQ_clean_linker_1, # of connection points: 2
#     Edge 43, Type (0, 0), BuildingBlock: KIFKEQ_clean_linker_1, # of connection points: 2
#     Edge 44, Type (0, 0), BuildingBlock: KIFKEQ_clean_linker_1, # of connection points: 2
#     Edge 45, Type (0, 0), BuildingBlock: KIFKEQ_clean_linker_1, # of connection points: 2
#     Edge 46, Type (0, 0), BuildingBlock: KIFKEQ_clean_linker_1, # of connection points: 2
#     Edge 47, Type (0, 0), BuildingBlock: KIFKEQ_clean_linker_1, # of connection points: 2
# Relax obj value: 0.131
# Max RMSD: 0.142
# Mean RMSD: 0.142
data_MOF--net-reo-e--node1-OJICUG_clean_sbu_0--edge1-KIFKEQ_clean_linker_1
_symmetry_space_group_name_H-M    P1
_symmetry_Int_Tables_number       1
_symmetry_cell_setting            triclinic
loop_
_symmetry_equiv_pos_as_xyz
'x, y, z'
_cell_length_a     40.503822
_cell_length_b     40.545602
_cell_length_c     40.535778
_cell_angle_alpha  90.000244
_cell_angle_beta   90.006927
_cell_angle_gamma 90.012093
loop_
_atom_site_label
_atom_site_type_symbol
_atom_site_fract_x
_atom_site_fract_y
_atom_site_fract_z
_atom_type_partial_charge
Sc0 Sc 0.18484 0.18472 0.45017 0.0
Sc1 Sc 0.23899 0.2369 0.49346 0.0
Sc2 Sc 0.18373 0.18634 0.53744 0.0
O3 O 0.20247 0.20265 0.49371 0.0
C4 C 0.1189 0.19136 0.49312 0.0
C5 C 0.19356 0.26115 0.43378 0.0
C6 C 0.1942 0.26296 0.55271 0.0
C7 C 0.26186 0.19022 0.43444 0.0
C8 C 0.18706 0.12001 0.49465 0.0
C9 C 0.26077 0.1909 0.55357 0.0
O10 O 0.13424 0.18821 0.46595 0.0
O11 O 0.21524 0.26578 0.45597 0.0
O12 O 0.18055 0.23528 0.5584 0.0
O13 O 0.23324 0.17869 0.4288 0.0
O14 O 0.1847 0.13543 0.52189 0.0
O15 O 0.26659 0.21176 0.53091 0.0
O16 O 0.18814 0.13451 0.46686 0.0
O17 O 0.26755 0.21096 0.45721 0.0
O18 O 0.23214 0.17907 0.55886 0.0
O19 O 0.17988 0.23331 0.42887 0.0
O20 O 0.13345 0.19198 0.52092 0.0
O21 O 0.21521 0.26711 0.52983 0.0
Sc22 Sc 0.80501 0.18119 0.53611 0.0
Sc23 Sc 0.75076 0.23434 0.49393 0.0
Sc24 Sc 0.80353 0.18231 0.44876 0.0
O25 O 0.78644 0.19924 0.49292 0.0
C26 C 0.86973 0.18681 0.49152 0.0
C27 C 0.79782 0.25766 0.55273 0.0
C28 C 0.7951 0.25919 0.43368 0.0
C29 C 0.72855 0.18754 0.55342 0.0
C30 C 0.80058 0.11627 0.49179 0.0
C31 C 0.72626 0.18922 0.43419 0.0
O32 O 0.85511 0.18508 0.5192 0.0
O33 O 0.77641 0.26311 0.53046 0.0
O34 O 0.80804 0.23118 0.42793 0.0
O35 O 0.75704 0.17536 0.55835 0.0
O36 O 0.8008 0.13149 0.46434 0.0
O37 O 0.72137 0.20988 0.45725 0.0
O38 O 0.80195 0.13095 0.51946 0.0
O39 O 0.72266 0.20871 0.53106 0.0
O40 O 0.75451 0.17683 0.42822 0.0
O41 O 0.81023 0.22935 0.55793 0.0
O42 O 0.85445 0.18622 0.4641 0.0
O43 O 0.77436 0.26385 0.45674 0.0
Sc44 Sc 0.8043 0.80178 0.53539 0.0
Sc45 Sc 0.75005 0.75111 0.49049 0.0
Sc46 Sc 0.80661 0.80155 0.4481 0.0
O47 O 0.78704 0.78482 0.49135 0.0
C48 C 0.80241 0.86721 0.49139 0.0
C49 C 0.72729 0.79624 0.55092 0.0
C50 C 0.72964 0.79819 0.43114 0.0
C51 C 0.79453 0.72486 0.54991 0.0
C52 C 0.8708 0.79597 0.49336 0.0
C53 C 0.79618 0.72566 0.43151 0.0
O54 O 0.80254 0.85236 0.51905 0.0
O55 O 0.72203 0.77534 0.52821 0.0
O56 O 0.75898 0.80754 0.4251 0.0
O57 O 0.80747 0.7528 0.55614 0.0
O58 O 0.8565 0.79763 0.46553 0.0
O59 O 0.77324 0.72217 0.45261 0.0
O60 O 0.85521 0.79681 0.52057 0.0
O61 O 0.7739 0.72042 0.52665 0.0
O62 O 0.81162 0.75268 0.42759 0.0
O63 O 0.75561 0.8087 0.55618 0.0
O64 O 0.80375 0.85218 0.46387 0.0
O65 O 0.72236 0.77876 0.45464 0.0
Sc66 Sc 0.18495 0.80511 0.45237 0.0
Sc67 Sc 0.23961 0.75376 0.49602 0.0
Sc68 Sc 0.1853 0.80562 0.53968 0.0
O69 O 0.20327 0.78819 0.49602 0.0
C70 C 0.18776 0.8709 0.49598 0.0
C71 C 0.26195 0.8003 0.43643 0.0
C72 C 0.26223 0.80003 0.55558 0.0
C73 C 0.19477 0.72854 0.43641 0.0
C74 C 0.1198 0.79911 0.49609 0.0
C75 C 0.19387 0.72912 0.55539 0.0
O76 O 0.18586 0.85577 0.46855 0.0
O77 O 0.26749 0.77901 0.45877 0.0
O78 O 0.23351 0.81119 0.56145 0.0
O79 O 0.18167 0.75649 0.43086 0.0
O80 O 0.13477 0.802 0.52351 0.0
O81 O 0.21548 0.72447 0.53312 0.0
O82 O 0.13466 0.79916 0.46846 0.0
O83 O 0.21563 0.72386 0.45935 0.0
O84 O 0.1805 0.757 0.56067 0.0
O85 O 0.23347 0.81255 0.43133 0.0
O86 O 0.18851 0.85609 0.52362 0.0
O87 O 0.2682 0.77971 0.53248 0.0
Sc88 Sc 0.44881 0.18246 0.18245 0.0
Sc89 Sc 0.4914 0.23274 0.23915 0.0
Sc90 Sc 0.53619 0.18428 0.18291 0.0
O91 O 0.49212 0.19981 0.20148 0.0
C92 C 0.49403 0.1178 0.18397 0.0
C93 C 0.43239 0.18451 0.25928 0.0
C94 C 0.55211 0.18749 0.26014 0.0
C95 C 0.43183 0.25844 0.19421 0.0
C96 C 0.49247 0.19074 0.11755 0.0
C97 C 0.5503 0.26059 0.19455 0.0
O98 O 0.46621 0.1323 0.18255 0.0
O99 O 0.45451 0.20569 0.26592 0.0
O100 O 0.55848 0.17808 0.23091 0.0
O101 O 0.42653 0.23075 0.18043 0.0
O102 O 0.51993 0.18895 0.13259 0.0
O103 O 0.52854 0.26348 0.21696 0.0
O104 O 0.46482 0.18919 0.13228 0.0
O105 O 0.45459 0.26291 0.21537 0.0
O106 O 0.55545 0.23371 0.17921 0.0
O107 O 0.42726 0.17366 0.23031 0.0
O108 O 0.52138 0.13322 0.18486 0.0
O109 O 0.52804 0.20635 0.26706 0.0
Sc110 Sc 0.80247 0.53561 0.18112 0.0
Sc111 Sc 0.75125 0.49229 0.23631 0.0
Sc112 Sc 0.80212 0.44825 0.18148 0.0
O113 O 0.78529 0.49205 0.1996 0.0
C114 C 0.79648 0.49183 0.11594 0.0
C115 C 0.72609 0.55186 0.1912 0.0
C116 C 0.72548 0.43326 0.19083 0.0
C117 C 0.79818 0.55167 0.25808 0.0
C118 C 0.86787 0.49162 0.18414 0.0
C119 C 0.79702 0.43212 0.2584 0.0
O120 O 0.79767 0.51943 0.13078 0.0
O121 O 0.72159 0.52932 0.21252 0.0
O122 O 0.75325 0.42764 0.17734 0.0
O123 O 0.80929 0.55721 0.22928 0.0
O124 O 0.85285 0.46407 0.18412 0.0
O125 O 0.77684 0.45532 0.26452 0.0
O126 O 0.85298 0.51921 0.18285 0.0
O127 O 0.77752 0.52892 0.26431 0.0
O128 O 0.80814 0.42639 0.22964 0.0
O129 O 0.75387 0.55712 0.17755 0.0
O130 O 0.79782 0.46435 0.13098 0.0
O131 O 0.72118 0.45568 0.21233 0.0
Sc132 Sc 0.4498 0.80362 0.18402 0.0
Sc133 Sc 0.49246 0.75391 0.24081 0.0
Sc134 Sc 0.53713 0.80261 0.18455 0.0
O135 O 0.49315 0.78671 0.20307 0.0
C136 C 0.49414 0.79613 0.11911 0.0
C137 C 0.43302 0.72802 0.19551 0.0
C138 C 0.55136 0.72596 0.19678 0.0
C139 C 0.43328 0.80113 0.26113 0.0
C140 C 0.49388 0.86869 0.1858 0.0
C141 C 0.55315 0.79973 0.26148 0.0
O142 O 0.46668 0.79969 0.13384 0.0
O143 O 0.45403 0.72493 0.2186 0.0
O144 O 0.55774 0.75351 0.18314 0.0
O145 O 0.42688 0.8098 0.23169 0.0
O146 O 0.52125 0.85339 0.1839 0.0
O147 O 0.53064 0.7788 0.26749 0.0
O148 O 0.4661 0.85408 0.18702 0.0
O149 O 0.45716 0.7822 0.26849 0.0
O150 O 0.5582 0.81142 0.2328 0.0
O151 O 0.42928 0.75468 0.17939 0.0
O152 O 0.52162 0.79558 0.13423 0.0
O153 O 0.52808 0.7222 0.2175 0.0
Sc154 Sc 0.1836 0.45135 0.18394 0.0
Sc155 Sc 0.23373 0.49535 0.23948 0.0
Sc156 Sc 0.1817 0.53867 0.18518 0.0
O157 O 0.19966 0.49513 0.20282 0.0
C158 C 0.18792 0.49593 0.11922 0.0
C159 C 0.2599 0.43587 0.19449 0.0
C160 C 0.25836 0.5546 0.19385 0.0
C161 C 0.18799 0.43539 0.26108 0.0
C162 C 0.11709 0.49354 0.18769 0.0
C163 C 0.18735 0.55508 0.26182 0.0
O164 O 0.18712 0.4682 0.13379 0.0
O165 O 0.26329 0.45762 0.2168 0.0
O166 O 0.23009 0.56042 0.18147 0.0
O167 O 0.17816 0.42906 0.23196 0.0
O168 O 0.13145 0.52145 0.18745 0.0
O169 O 0.20861 0.53276 0.26735 0.0
O170 O 0.13263 0.4663 0.18654 0.0
O171 O 0.20722 0.45923 0.26783 0.0
O172 O 0.17496 0.56009 0.23346 0.0
O173 O 0.23283 0.43133 0.17924 0.0
O174 O 0.1865 0.52326 0.13452 0.0
O175 O 0.26359 0.5316 0.21457 0.0
Sc176 Sc 0.45272 0.80354 0.80462 0.0
Sc177 Sc 0.49734 0.75145 0.75153 0.0
Sc178 Sc 0.5401 0.80488 0.80503 0.0
O179 O 0.49672 0.78666 0.78707 0.0
C180 C 0.4958 0.86964 0.801 0.0
C181 C 0.43762 0.7971 0.72765 0.0
C182 C 0.55677 0.79777 0.72844 0.0
C183 C 0.43738 0.72667 0.79607 0.0
C184 C 0.49585 0.79909 0.87021 0.0
C185 C 0.5565 0.7284 0.79838 0.0
O186 O 0.4685 0.8543 0.80317 0.0
O187 O 0.46003 0.77571 0.7228 0.0
O188 O 0.56236 0.80958 0.75694 0.0
O189 O 0.4314 0.75488 0.80838 0.0
O190 O 0.52338 0.80215 0.85543 0.0
O191 O 0.53447 0.72309 0.77667 0.0
O192 O 0.46833 0.79847 0.85512 0.0
O193 O 0.46074 0.72168 0.77576 0.0
O194 O 0.56153 0.7566 0.81113 0.0
O195 O 0.43228 0.81006 0.75575 0.0
O196 O 0.5236 0.8551 0.80054 0.0
O197 O 0.53382 0.77716 0.72272 0.0
Sc198 Sc 0.18487 0.45134 0.80584 0.0
Sc199 Sc 0.24002 0.49402 0.75414 0.0
Sc200 Sc 0.18434 0.53864 0.8036 0.0
O201 O 0.20304 0.49467 0.78787 0.0
C202 C 0.11924 0.49463 0.79882 0.0
C203 C 0.19411 0.43473 0.72951 0.0
C204 C 0.19524 0.55312 0.72718 0.0
C205 C 0.26161 0.43471 0.80115 0.0
C206 C 0.18768 0.49655 0.87023 0.0
C207 C 0.26163 0.55441 0.79956 0.0
O208 O 0.13433 0.46727 0.80144 0.0
O209 O 0.21554 0.45716 0.72464 0.0
O210 O 0.18049 0.5584 0.75435 0.0
O211 O 0.23288 0.42946 0.81254 0.0
O212 O 0.18611 0.52378 0.85469 0.0
O213 O 0.26817 0.53071 0.7801 0.0
O214 O 0.18769 0.46864 0.85591 0.0
O215 O 0.26776 0.45724 0.78029 0.0
O216 O 0.23257 0.56063 0.80973 0.0
O217 O 0.18079 0.42953 0.75746 0.0
O218 O 0.13404 0.52226 0.79888 0.0
O219 O 0.21723 0.53103 0.72381 0.0
Sc220 Sc 0.45048 0.18407 0.8046 0.0
Sc221 Sc 0.49264 0.23478 0.74832 0.0
Sc222 Sc 0.53785 0.18432 0.8027 0.0
O223 O 0.49368 0.20102 0.78523 0.0
C224 C 0.49566 0.1906 0.86887 0.0
C225 C 0.4338 0.26 0.79464 0.0
C226 C 0.5523 0.26117 0.7924 0.0
C227 C 0.43315 0.18769 0.72784 0.0
C228 C 0.49427 0.11865 0.80107 0.0
C229 C 0.55293 0.18942 0.72557 0.0
O230 O 0.46789 0.18868 0.85445 0.0
O231 O 0.45498 0.26379 0.77183 0.0
O232 O 0.55855 0.23332 0.80549 0.0
O233 O 0.42742 0.17788 0.75706 0.0
O234 O 0.52183 0.13369 0.80179 0.0
O235 O 0.53016 0.21027 0.7203 0.0
O236 O 0.46661 0.13351 0.80155 0.0
O237 O 0.45649 0.20741 0.72071 0.0
O238 O 0.55843 0.17715 0.75394 0.0
O239 O 0.42972 0.23277 0.80962 0.0
O240 O 0.523 0.18947 0.85351 0.0
O241 O 0.52899 0.26547 0.77182 0.0
Sc242 Sc 0.80371 0.53637 0.80244 0.0
Sc243 Sc 0.75148 0.49299 0.74844 0.0
Sc244 Sc 0.80534 0.44908 0.80042 0.0
O245 O 0.78689 0.49281 0.78379 0.0
C246 C 0.87003 0.49398 0.79712 0.0
C247 C 0.79731 0.55249 0.72541 0.0
C248 C 0.79724 0.43355 0.72394 0.0
C249 C 0.72729 0.55233 0.79441 0.0
C250 C 0.79973 0.49119 0.86686 0.0
C251 C 0.72819 0.43334 0.79384 0.0
O252 O 0.85462 0.52126 0.79878 0.0
O253 O 0.77745 0.52896 0.71937 0.0
O254 O 0.81143 0.4289 0.75151 0.0
O255 O 0.75495 0.55681 0.80849 0.0
O256 O 0.80146 0.46394 0.8514 0.0
O257 O 0.7222 0.45705 0.7742 0.0
O258 O 0.80037 0.51904 0.85248 0.0
O259 O 0.72295 0.53071 0.77219 0.0
O260 O 0.75698 0.42695 0.80468 0.0
O261 O 0.80828 0.55868 0.7542 0.0
O262 O 0.85554 0.46617 0.7975 0.0
O263 O 0.77507 0.45529 0.7198 0.0
H264 H 0.22388 0.32113 0.43098 0.0
H265 H 0.14527 0.26449 0.38619 0.0
H266 H 0.21536 0.36468 0.3912 0.0
H267 H 0.13585 0.30904 0.34679 0.0
H268 H 0.16835 0.37119 0.25559 0.0
H269 H 0.16331 0.33092 0.29974 0.0
H270 H 0.18141 0.40758 0.37168 0.0
H271 H 0.1879 0.44755 0.32733 0.0
C272 C 0.20429 0.31819 0.41302 0.0
C273 C 0.18551 0.28907 0.41162 0.0
C274 C 0.19918 0.34343 0.39028 0.0
C275 C 0.1749 0.34046 0.36568 0.0
C276 C 0.1551 0.31194 0.3651 0.0
C277 C 0.16041 0.28646 0.38777 0.0
C278 C 0.17067 0.37956 0.28087 0.0
C279 C 0.1791 0.41242 0.28796 0.0
C280 C 0.16761 0.35646 0.30626 0.0
C281 C 0.17247 0.36586 0.33931 0.0
C282 C 0.17839 0.3993 0.34646 0.0
C283 C 0.18195 0.42226 0.32106 0.0
H284 H 0.53985 0.18604 0.3264 0.0
H285 H 0.61673 0.169 0.25457 0.0
H286 H 0.5797 0.17871 0.37078 0.0
H287 H 0.65692 0.16324 0.29876 0.0
H288 H 0.7235 0.14298 0.38456 0.0
H289 H 0.67917 0.13483 0.34458 0.0
H290 H 0.62217 0.21112 0.39264 0.0
H291 H 0.66548 0.21821 0.43302 0.0
C292 C 0.56525 0.18052 0.32011 0.0
C293 C 0.57521 0.17849 0.28698 0.0
C294 C 0.58818 0.17651 0.34554 0.0
C295 C 0.62175 0.17098 0.33846 0.0
C296 C 0.6313 0.16716 0.30529 0.0
C297 C 0.60825 0.17064 0.27986 0.0
C298 C 0.70126 0.15762 0.38684 0.0
C299 C 0.69824 0.18143 0.4119 0.0
C300 C 0.67589 0.1531 0.36379 0.0
C301 C 0.64706 0.17244 0.36514 0.0
C302 C 0.64365 0.19532 0.391 0.0
C303 C 0.66876 0.1996 0.41413 0.0
H304 H 0.84506 0.72066 0.38462 0.0
H305 H 0.76379 0.66677 0.428 0.0
H306 H 0.85334 0.67599 0.34508 0.0
H307 H 0.77122 0.62314 0.38808 0.0
H308 H 0.79653 0.53948 0.32427 0.0
H309 H 0.80369 0.5791 0.36884 0.0
H310 H 0.826 0.65516 0.29746 0.0
H311 H 0.82028 0.61514 0.2531 0.0
C312 C 0.8291 0.69926 0.38589 0.0
C313 C 0.80359 0.69749 0.40937 0.0
C314 C 0.83375 0.67372 0.36311 0.0
C315 C 0.81289 0.64595 0.36323 0.0
C316 C 0.78818 0.64377 0.38749 0.0
C317 C 0.78371 0.66908 0.41032 0.0
C318 C 0.80353 0.56455 0.31818 0.0
C319 C 0.80739 0.57431 0.28516 0.0
C320 C 0.80747 0.58732 0.34371 0.0
C321 C 0.81478 0.62054 0.33678 0.0
C322 C 0.82061 0.62979 0.30383 0.0
C323 C 0.81716 0.60685 0.27831 0.0
H324 H 0.32417 0.77461 0.43604 0.0
H325 H 0.26231 0.84546 0.38568 0.0
H326 H 0.3668 0.78247 0.39521 0.0
H327 H 0.30599 0.85444 0.34517 0.0
H328 H 0.36825 0.81788 0.25562 0.0
H329 H 0.32867 0.82499 0.30016 0.0
H330 H 0.40753 0.81564 0.37149 0.0
H331 H 0.44678 0.80682 0.32684 0.0
C332 C 0.31987 0.79245 0.41662 0.0
C333 C 0.28951 0.80904 0.41396 0.0
C334 C 0.34461 0.79722 0.39322 0.0
C335 C 0.33993 0.81902 0.36666 0.0
C336 C 0.31024 0.83701 0.36495 0.0
C337 C 0.28525 0.832 0.3883 0.0
C338 C 0.37719 0.81789 0.28081 0.0
C339 C 0.4105 0.8112 0.28777 0.0
C340 C 0.3545 0.82218 0.30642 0.0
C341 C 0.36473 0.82037 0.33956 0.0
C342 C 0.39857 0.81624 0.34633 0.0
C343 C 0.42113 0.81136 0.32074 0.0
H344 H 0.16932 0.73194 0.61807 0.0
H345 H 0.20041 0.66337 0.54267 0.0
H346 H 0.16412 0.68672 0.65715 0.0
H347 H 0.19374 0.61785 0.58125 0.0
H348 H 0.23041 0.55824 0.67005 0.0
H349 H 0.22401 0.59861 0.62663 0.0
H350 H 0.13775 0.63798 0.6756 0.0
H351 H 0.14504 0.59812 0.72011 0.0
C352 C 0.17424 0.70708 0.60962 0.0
C353 C 0.18577 0.70126 0.57746 0.0
C354 C 0.17108 0.68105 0.63199 0.0
C355 C 0.17893 0.64858 0.62254 0.0
C356 C 0.18832 0.64261 0.58966 0.0
C357 C 0.19198 0.66868 0.56747 0.0
C358 C 0.20979 0.57519 0.67147 0.0
C359 C 0.18845 0.57512 0.69881 0.0
C360 C 0.20594 0.5983 0.64631 0.0
C361 C 0.18039 0.62175 0.64755 0.0
C362 C 0.15806 0.62069 0.67413 0.0
C363 C 0.16213 0.59772 0.69956 0.0
H364 H 0.32282 0.2169 0.55434 0.0
H365 H 0.26118 0.1453 0.60393 0.0
H366 H 0.3656 0.20852 0.59485 0.0
H367 H 0.30506 0.13576 0.64412 0.0
H368 H 0.36826 0.17068 0.73371 0.0
H369 H 0.32825 0.16427 0.68943 0.0
H370 H 0.40645 0.17493 0.61755 0.0
H371 H 0.44609 0.18312 0.66198 0.0
C372 C 0.3186 0.19878 0.57352 0.0
C373 C 0.28828 0.18209 0.57604 0.0
C374 C 0.34344 0.19371 0.59673 0.0
C375 C 0.33891 0.17148 0.62295 0.0
C376 C 0.30921 0.15349 0.62458 0.0
C377 C 0.2841 0.15882 0.60143 0.0
C378 C 0.37696 0.1711 0.70844 0.0
C379 C 0.41018 0.17799 0.70127 0.0
C380 C 0.35402 0.16722 0.68297 0.0
C381 C 0.36395 0.16963 0.64979 0.0
C382 C 0.39772 0.1739 0.64278 0.0
C383 C 0.42051 0.17842 0.66822 0.0
H384 H 0.76563 0.43029 0.66467 0.0
H385 H 0.8457 0.38617 0.71972 0.0
H386 H 0.77261 0.38977 0.62163 0.0
H387 H 0.8537 0.34605 0.67552 0.0
H388 H 0.79601 0.32355 0.53942 0.0
H389 H 0.80398 0.36883 0.57807 0.0
H390 H 0.82609 0.29872 0.6554 0.0
H391 H 0.81979 0.25369 0.61625 0.0
C392 C 0.78526 0.41235 0.66732 0.0
C393 C 0.80483 0.41131 0.69594 0.0
C394 C 0.78948 0.38914 0.64234 0.0
C395 C 0.81369 0.36444 0.645 0.0
C396 C 0.83442 0.36436 0.67289 0.0
C397 C 0.82996 0.38748 0.69815 0.0
C398 C 0.8031 0.31792 0.56457 0.0
C399 C 0.80684 0.28509 0.57494 0.0
C400 C 0.80751 0.34384 0.5868 0.0
C401 C 0.81506 0.33749 0.62009 0.0
C402 C 0.82059 0.30467 0.62995 0.0
C403 C 0.81677 0.27877 0.60754 0.0
H404 H 0.66687 0.76675 0.55355 0.0
H405 H 0.72518 0.8429 0.60025 0.0
H406 H 0.62445 0.77357 0.59478 0.0
H407 H 0.6816 0.85088 0.64109 0.0
H408 H 0.62115 0.81726 0.7326 0.0
H409 H 0.66044 0.82307 0.68758 0.0
H410 H 0.58213 0.80513 0.61726 0.0
H411 H 0.54333 0.79757 0.6625 0.0
C412 C 0.67037 0.78553 0.57222 0.0
C413 C 0.69971 0.80403 0.5737 0.0
C414 C 0.64575 0.78967 0.59587 0.0
C415 C 0.64946 0.81276 0.62149 0.0
C416 C 0.67811 0.83244 0.62208 0.0
C417 C 0.70303 0.82803 0.59853 0.0
C418 C 0.61227 0.81504 0.70749 0.0
C419 C 0.57929 0.80645 0.70108 0.0
C420 C 0.63479 0.81857 0.68158 0.0
C421 C 0.62467 0.81411 0.64865 0.0
C422 C 0.59108 0.80781 0.64229 0.0
C423 C 0.56875 0.80366 0.6682 0.0
H424 H 0.36793 0.16563 0.25435 0.0
H425 H 0.44629 0.18105 0.3249 0.0
H426 H 0.32849 0.15974 0.29926 0.0
H427 H 0.40728 0.17346 0.36997 0.0
H428 H 0.32354 0.21711 0.43233 0.0
H429 H 0.36622 0.20768 0.3918 0.0
H430 H 0.30627 0.13231 0.34583 0.0
H431 H 0.26261 0.14279 0.38597 0.0
C432 C 0.37687 0.16674 0.27951 0.0
C433 C 0.41002 0.17439 0.28617 0.0
C434 C 0.35428 0.1632 0.30534 0.0
C435 C 0.36453 0.16674 0.33834 0.0
C436 C 0.39831 0.17158 0.34488 0.0
C437 C 0.42073 0.17573 0.31908 0.0
C438 C 0.31949 0.1982 0.41389 0.0
C439 C 0.2894 0.18103 0.4122 0.0
C440 C 0.34423 0.19254 0.39069 0.0
C441 C 0.33977 0.16926 0.36535 0.0
C442 C 0.31033 0.15083 0.36465 0.0
C443 C 0.28536 0.15673 0.38776 0.0
H444 H 0.79621 0.44463 0.32457 0.0
H445 H 0.81703 0.36797 0.25359 0.0
H446 H 0.80316 0.40518 0.36932 0.0
H447 H 0.82239 0.32811 0.29811 0.0
H448 H 0.84221 0.26266 0.38493 0.0
H449 H 0.85009 0.30679 0.34476 0.0
H450 H 0.77121 0.36212 0.3906 0.0
H451 H 0.76434 0.31901 0.43121 0.0
C452 C 0.80246 0.41935 0.31855 0.0
C453 C 0.8057 0.40933 0.28555 0.0
C454 C 0.80625 0.39665 0.34419 0.0
C455 C 0.81274 0.36322 0.33742 0.0
C456 C 0.81771 0.35363 0.30441 0.0
C457 C 0.81447 0.37649 0.27879 0.0
C458 C 0.8269 0.28449 0.38667 0.0
C459 C 0.80248 0.28712 0.4112 0.0
C460 C 0.83129 0.30974 0.36351 0.0
C461 C 0.81118 0.33805 0.36419 0.0
C462 C 0.7876 0.34106 0.38948 0.0
C463 C 0.78346 0.31607 0.41275 0.0
H464 H 0.60483 0.84393 0.26093 0.0
H465 H 0.5532 0.77506 0.32399 0.0
H466 H 0.64582 0.85255 0.30427 0.0
H467 H 0.59447 0.78242 0.36617 0.0
H468 H 0.735 0.81434 0.36607 0.0
H469 H 0.69027 0.82239 0.32686 0.0
H470 H 0.61938 0.815 0.40633 0.0
H471 H 0.66419 0.80508 0.44515 0.0
C472 C 0.60203 0.83085 0.28407 0.0
C473 C 0.57589 0.80851 0.28876 0.0
C474 C 0.62564 0.83564 0.30885 0.0
C475 C 0.62371 0.81801 0.33872 0.0
C476 C 0.59666 0.79691 0.34384 0.0
C477 C 0.573 0.7924 0.31934 0.0
C478 C 0.70986 0.81495 0.37519 0.0
C479 C 0.703 0.80848 0.40852 0.0
C480 C 0.68415 0.8198 0.35272 0.0
C481 C 0.65106 0.81884 0.36326 0.0
C482 C 0.64448 0.81493 0.39714 0.0
C483 C 0.67014 0.8094 0.41945 0.0
H484 H 0.14574 0.72449 0.38972 0.0
H485 H 0.2268 0.66951 0.43198 0.0
H486 H 0.13662 0.68027 0.3499 0.0
H487 H 0.21863 0.62627 0.39166 0.0
H488 H 0.19088 0.54298 0.32789 0.0
H489 H 0.18573 0.5827 0.37261 0.0
H490 H 0.16219 0.65899 0.30187 0.0
H491 H 0.16584 0.61882 0.25739 0.0
C492 C 0.16152 0.70294 0.39062 0.0
C493 C 0.18712 0.70067 0.41397 0.0
C494 C 0.1564 0.67765 0.36767 0.0
C495 C 0.17693 0.64965 0.36737 0.0
C496 C 0.20187 0.64706 0.3914 0.0
C497 C 0.20675 0.6721 0.41448 0.0
C498 C 0.18401 0.56813 0.32199 0.0
C499 C 0.17914 0.57787 0.2891 0.0
C500 C 0.18128 0.59098 0.34761 0.0
C501 C 0.1742 0.62429 0.3409 0.0
C502 C 0.16743 0.63357 0.30811 0.0
C503 C 0.16965 0.61054 0.28252 0.0
H504 H 0.25772 0.82008 0.6197 0.0
H505 H 0.32833 0.79984 0.54248 0.0
H506 H 0.30251 0.82585 0.65922 0.0
H507 H 0.37336 0.80729 0.58159 0.0
H508 H 0.4353 0.76749 0.6673 0.0
H509 H 0.39484 0.77513 0.62425 0.0
H510 H 0.34922 0.85341 0.68055 0.0
H511 H 0.38927 0.8447 0.7247 0.0
C512 C 0.2829 0.81774 0.61099 0.0
C513 C 0.2895 0.80895 0.57812 0.0
C514 C 0.30867 0.82125 0.63364 0.0
C515 C 0.34166 0.81655 0.62379 0.0
C516 C 0.34825 0.81016 0.5903 0.0
C517 C 0.32246 0.80606 0.56781 0.0
C518 C 0.41694 0.78665 0.67048 0.0
C519 C 0.41537 0.8052 0.69974 0.0
C520 C 0.39377 0.79126 0.6455 0.0
C521 C 0.36855 0.81485 0.64881 0.0
C522 C 0.36793 0.83461 0.67738 0.0
C523 C 0.39101 0.82974 0.70264 0.0
H524 H 0.22806 0.32093 0.55681 0.0
H525 H 0.1457 0.26854 0.59986 0.0
H526 H 0.22228 0.36395 0.59764 0.0
H527 H 0.13888 0.31271 0.6402 0.0
H528 H 0.19929 0.44729 0.66356 0.0
H529 H 0.19232 0.4085 0.61825 0.0
H530 H 0.16581 0.33217 0.68793 0.0
H531 H 0.17117 0.37148 0.73293 0.0
C532 C 0.20818 0.31891 0.57457 0.0
C533 C 0.18754 0.29104 0.57518 0.0
C534 C 0.20469 0.34386 0.59797 0.0
C535 C 0.18014 0.34193 0.62243 0.0
C536 C 0.15846 0.31477 0.62213 0.0
C537 C 0.16222 0.28952 0.59887 0.0
C538 C 0.19149 0.42233 0.6691 0.0
C539 C 0.18611 0.41234 0.70183 0.0
C540 C 0.18768 0.4 0.64314 0.0
C541 C 0.17904 0.36694 0.64935 0.0
C542 C 0.17214 0.35743 0.68204 0.0
C543 C 0.1754 0.37995 0.70795 0.0
H544 H 0.55493 0.21848 0.66501 0.0
H545 H 0.60231 0.14275 0.72328 0.0
H546 H 0.59565 0.21135 0.62222 0.0
H547 H 0.64265 0.13442 0.67929 0.0
H548 H 0.73351 0.16787 0.6176 0.0
H549 H 0.68891 0.16196 0.65736 0.0
H550 H 0.61763 0.17967 0.57988 0.0
H551 H 0.66246 0.18742 0.54064 0.0
C552 C 0.57364 0.19971 0.66843 0.0
C553 C 0.57547 0.18143 0.69785 0.0
C554 C 0.59699 0.19539 0.64358 0.0
C555 C 0.62266 0.17231 0.64714 0.0
C556 C 0.6236 0.15284 0.6759 0.0
C557 C 0.60034 0.15746 0.70106 0.0
C558 C 0.70827 0.17001 0.60902 0.0
C559 C 0.70146 0.17863 0.57615 0.0
C560 C 0.6826 0.16642 0.6318 0.0
C561 C 0.64953 0.17082 0.62206 0.0
C562 C 0.64278 0.17706 0.58855 0.0
C563 C 0.66845 0.18131 0.56596 0.0
H564 H 0.81786 0.61655 0.72962 0.0
H565 H 0.79556 0.53962 0.65933 0.0
H566 H 0.82294 0.65609 0.6848 0.0
H567 H 0.8021 0.5788 0.61429 0.0
H568 H 0.76285 0.6655 0.55292 0.0
H569 H 0.76994 0.62227 0.59347 0.0
H570 H 0.85063 0.67645 0.63755 0.0
H571 H 0.84262 0.72061 0.59749 0.0
C572 C 0.81489 0.6079 0.70451 0.0
C573 C 0.80581 0.57509 0.69805 0.0
C574 C 0.81798 0.63056 0.67871 0.0
C575 C 0.81248 0.6208 0.64584 0.0
C576 C 0.80564 0.58741 0.63933 0.0
C577 C 0.80207 0.56488 0.66514 0.0
C578 C 0.78241 0.66811 0.57096 0.0
C579 C 0.80191 0.69677 0.57212 0.0
C580 C 0.78667 0.64309 0.59418 0.0
C581 C 0.81081 0.64582 0.61899 0.0
C582 C 0.8314 0.67378 0.61919 0.0
C583 C 0.82691 0.69903 0.5961 0.0
H584 H 0.36855 0.25542 0.17103 0.0
H585 H 0.44412 0.3243 0.20111 0.0
H586 H 0.32923 0.30049 0.16606 0.0
H587 H 0.40533 0.36969 0.19457 0.0
H588 H 0.31731 0.43109 0.22935 0.0
H589 H 0.36025 0.39009 0.22399 0.0
H590 H 0.31031 0.3486 0.13932 0.0
H591 H 0.2662 0.38912 0.14566 0.0
C592 C 0.37697 0.28032 0.17584 0.0
C593 C 0.40931 0.28625 0.18691 0.0
C594 C 0.35444 0.30627 0.17279 0.0
C595 C 0.36389 0.33884 0.18027 0.0
C596 C 0.39687 0.34489 0.18944 0.0
C597 C 0.4192 0.31888 0.19302 0.0
C598 C 0.31554 0.41353 0.2093 0.0
C599 C 0.28804 0.4133 0.18813 0.0
C600 C 0.34045 0.39002 0.20605 0.0
C601 C 0.33887 0.36581 0.18125 0.0
C602 C 0.31209 0.36647 0.15909 0.0
C603 C 0.28689 0.38986 0.16258 0.0
H604 H 0.32777 0.54155 0.8002 0.0
H605 H 0.2568 0.61895 0.81833 0.0
H606 H 0.37264 0.58097 0.80681 0.0
H607 H 0.30149 0.65872 0.82343 0.0
H608 H 0.38844 0.72409 0.84295 0.0
H609 H 0.3481 0.68021 0.85141 0.0
H610 H 0.3942 0.62336 0.77382 0.0
H611 H 0.43499 0.66631 0.76633 0.0
C612 C 0.32178 0.56697 0.80583 0.0
C613 C 0.28875 0.57722 0.80835 0.0
C614 C 0.34749 0.58964 0.80942 0.0
C615 C 0.34077 0.62323 0.81504 0.0
C616 C 0.30773 0.63307 0.81941 0.0
C617 C 0.28202 0.61026 0.81632 0.0
C618 C 0.39021 0.70199 0.82804 0.0
C619 C 0.41485 0.69888 0.80378 0.0
C620 C 0.36695 0.67689 0.83277 0.0
C621 C 0.36766 0.64824 0.81318 0.0
C622 C 0.39308 0.64473 0.7898 0.0
C623 C 0.41644 0.6696 0.78529 0.0
H624 H 0.25643 0.37119 0.82298 0.0
H625 H 0.32784 0.44667 0.79919 0.0
H626 H 0.30066 0.33085 0.8277 0.0
H627 H 0.37228 0.40672 0.80534 0.0
H628 H 0.42984 0.31915 0.76282 0.0
H629 H 0.39036 0.36296 0.77163 0.0
H630 H 0.34876 0.30944 0.85399 0.0
H631 H 0.38785 0.26465 0.84436 0.0
C632 C 0.28168 0.37936 0.81968 0.0
C633 C 0.28863 0.41194 0.81012 0.0
C634 C 0.30712 0.35625 0.82254 0.0
C635 C 0.34006 0.36537 0.81633 0.0
C636 C 0.34713 0.39862 0.80937 0.0
C637 C 0.32168 0.42158 0.80602 0.0
C638 C 0.41256 0.31673 0.78307 0.0
C639 C 0.41185 0.28813 0.80264 0.0
C640 C 0.39 0.34213 0.78834 0.0
C641 C 0.36627 0.33982 0.81355 0.0
C642 C 0.36639 0.31182 0.83405 0.0
C643 C 0.38889 0.2862 0.82861 0.0
H644 H 0.73223 0.3694 0.81471 0.0
H645 H 0.66206 0.44627 0.79172 0.0
H646 H 0.68729 0.33 0.82006 0.0
H647 H 0.6169 0.40723 0.79852 0.0
H648 H 0.55539 0.32017 0.76013 0.0
H649 H 0.59601 0.36344 0.76679 0.0
H650 H 0.63998 0.31009 0.84803 0.0
H651 H 0.59986 0.26587 0.84045 0.0
C652 C 0.70713 0.37807 0.81163 0.0
C653 C 0.70073 0.41082 0.8023 0.0
C654 C 0.68127 0.35549 0.81488 0.0
C655 C 0.64839 0.36527 0.8093 0.0
C656 C 0.64194 0.39861 0.80215 0.0
C657 C 0.66782 0.42105 0.79843 0.0
C658 C 0.57342 0.31775 0.77972 0.0
C659 C 0.57454 0.28931 0.79951 0.0
C660 C 0.59668 0.3428 0.78373 0.0
C661 C 0.62148 0.3403 0.80789 0.0
C662 C 0.62163 0.31257 0.82877 0.0
C663 C 0.59851 0.28729 0.82453 0.0
H664 H 0.72332 0.59871 0.84376 0.0
H665 H 0.66809 0.55664 0.76273 0.0
H666 H 0.67926 0.63881 0.85267 0.0
H667 H 0.62513 0.59716 0.77068 0.0
H668 H 0.54299 0.66262 0.79601 0.0
H669 H 0.58165 0.6172 0.80305 0.0
H670 H 0.65922 0.68687 0.82594 0.0
H671 H 0.62005 0.73206 0.8205 0.0
C672 C 0.70175 0.59786 0.82799 0.0
C673 C 0.69941 0.5746 0.80235 0.0
C674 C 0.67656 0.62096 0.83299 0.0
C675 C 0.64865 0.62142 0.81232 0.0
C676 C 0.64588 0.59731 0.78753 0.0
C677 C 0.6708 0.57413 0.78275 0.0
C678 C 0.56819 0.66812 0.80311 0.0
C679 C 0.57864 0.70088 0.80726 0.0
C680 C 0.59041 0.64212 0.80698 0.0
C681 C 0.62377 0.64833 0.81441 0.0
C682 C 0.63371 0.68105 0.82047 0.0
C683 C 0.61129 0.70703 0.81717 0.0
H684 H 0.55649 0.6688 0.23194 0.0
H685 H 0.59629 0.71886 0.14662 0.0
H686 H 0.5966 0.62503 0.22508 0.0
H687 H 0.63575 0.67412 0.13883 0.0
H688 H 0.72922 0.61481 0.16735 0.0
H689 H 0.68452 0.65468 0.16393 0.0
H690 H 0.61514 0.57961 0.19457 0.0
H691 H 0.6602 0.54019 0.19945 0.0
C692 C 0.57337 0.67014 0.21125 0.0
C693 C 0.57334 0.69754 0.19002 0.0
C694 C 0.59633 0.64482 0.20715 0.0
C695 C 0.61963 0.64596 0.18143 0.0
C696 C 0.61863 0.67268 0.15929 0.0
C697 C 0.59587 0.69827 0.16364 0.0
C698 C 0.70434 0.6067 0.17287 0.0
C699 C 0.69832 0.57448 0.18409 0.0
C700 C 0.6786 0.62956 0.17075 0.0
C701 C 0.64615 0.62057 0.17937 0.0
C702 C 0.6399 0.58769 0.18857 0.0
C703 C 0.66571 0.565 0.19117 0.0
H704 H 0.38736 0.72134 0.14569 0.0
H705 H 0.42806 0.6707 0.23032 0.0
H706 H 0.34774 0.67657 0.13817 0.0
H707 H 0.38803 0.62705 0.22363 0.0
H708 H 0.25456 0.61754 0.17021 0.0
H709 H 0.29927 0.65719 0.1649 0.0
H710 H 0.36949 0.58176 0.19254 0.0
H711 H 0.32447 0.54252 0.19931 0.0
C712 C 0.388 0.70064 0.16257 0.0
C713 C 0.41077 0.69979 0.18875 0.0
C714 C 0.36519 0.67505 0.15835 0.0
C715 C 0.36454 0.64819 0.18035 0.0
C716 C 0.38807 0.64694 0.20581 0.0
C717 C 0.41096 0.67226 0.20983 0.0
C718 C 0.2796 0.6093 0.17468 0.0
C719 C 0.28594 0.57706 0.18571 0.0
C720 C 0.30532 0.63202 0.17143 0.0
C721 C 0.33801 0.62285 0.17873 0.0
C722 C 0.34452 0.58992 0.18756 0.0
C723 C 0.31875 0.56736 0.19129 0.0
H724 H 0.59363 0.26893 0.14314 0.0
H725 H 0.55625 0.31701 0.2307 0.0
H726 H 0.63293 0.31385 0.13536 0.0
H727 H 0.59612 0.36092 0.22374 0.0
H728 H 0.65977 0.4457 0.1994 0.0
H729 H 0.61416 0.40702 0.19354 0.0
H730 H 0.68244 0.33191 0.16067 0.0
H731 H 0.7277 0.37103 0.16514 0.0
C732 C 0.59368 0.28913 0.16063 0.0
C733 C 0.57197 0.2892 0.1877 0.0
C734 C 0.61631 0.31481 0.15626 0.0
C735 C 0.61794 0.34096 0.17903 0.0
C736 C 0.59534 0.34155 0.20536 0.0
C737 C 0.57254 0.31613 0.20952 0.0
C738 C 0.66492 0.42106 0.19043 0.0
C739 C 0.69739 0.41129 0.18313 0.0
C740 C 0.63881 0.39881 0.18723 0.0
C741 C 0.64462 0.36612 0.17716 0.0
C742 C 0.67689 0.35693 0.16818 0.0
C743 C 0.70295 0.37934 0.17092 0.0
H744 H 0.20532 0.9121 0.54648 0.0
H745 H 0.1724 0.91234 0.44504 0.0
H746 H 0.20664 0.97211 0.5462 0.0
H747 H 0.17254 0.97231 0.44513 0.0
H748 H 0.20644 0.07867 0.44505 0.0
H749 H 0.20812 0.01872 0.44567 0.0
H750 H 0.17116 0.01874 0.54573 0.0
H751 H 0.17066 0.07876 0.54551 0.0
C752 C 0.19816 0.92495 0.52417 0.0
C753 C 0.18877 0.9074 0.49577 0.0
C754 C 0.19874 0.9594 0.52407 0.0
C755 C 0.18964 0.97713 0.49567 0.0
C756 C 0.18026 0.95951 0.46727 0.0
C757 C 0.18 0.92508 0.46727 0.0
C758 C 0.19871 0.06589 0.46721 0.0
C759 C 0.18836 0.08353 0.49522 0.0
C760 C 0.1995 0.03147 0.46751 0.0
C761 C 0.18964 0.01381 0.49569 0.0
C762 C 0.17942 0.03149 0.52375 0.0
C763 C 0.17896 0.06594 0.52358 0.0
H764 H 0.07733 0.21165 0.54235 0.0
H765 H 0.07785 0.17565 0.44199 0.0
H766 H 0.01725 0.21322 0.54141 0.0
H767 H 0.01787 0.17597 0.44146 0.0
H768 H 0.91004 0.2056 0.44058 0.0
H769 H 0.97008 0.20966 0.4408 0.0
H770 H 0.97184 0.17656 0.54218 0.0
H771 H 0.91198 0.17375 0.54232 0.0
C772 C 0.06463 0.20395 0.52013 0.0
C773 C 0.08242 0.19342 0.4923 0.0
C774 C 0.03015 0.20468 0.51963 0.0
C775 C 0.01261 0.19452 0.49142 0.0
C776 C 0.03048 0.18444 0.46345 0.0
C777 C 0.06494 0.18407 0.46382 0.0
C778 C 0.92328 0.19926 0.46292 0.0
C779 C 0.9062 0.18934 0.49142 0.0
C780 C 0.95773 0.20145 0.46302 0.0
C781 C 0.9759 0.19343 0.49151 0.0
C782 C 0.95872 0.18355 0.51998 0.0
C783 C 0.92432 0.18171 0.51999 0.0
H784 H 0.78275 0.07552 0.44092 0.0
H785 H 0.81567 0.07443 0.54234 0.0
H786 H 0.78124 0.01545 0.44082 0.0
H787 H 0.81545 0.01455 0.54186 0.0
H788 H 0.78313 0.90797 0.54153 0.0
H789 H 0.78058 0.96792 0.54124 0.0
H790 H 0.81659 0.96892 0.44083 0.0
H791 H 0.81785 0.90895 0.44073 0.0
C792 C 0.78986 0.06247 0.46313 0.0
C793 C 0.79931 0.07979 0.49164 0.0
C794 C 0.78917 0.028 0.46303 0.0
C795 C 0.79828 0.01006 0.49132 0.0
C796 C 0.80768 0.02747 0.51981 0.0
C797 C 0.808 0.06189 0.52003 0.0
C798 C 0.79047 0.92099 0.51938 0.0
C799 C 0.80076 0.90367 0.49118 0.0
C800 C 0.78915 0.95541 0.51925 0.0
C801 C 0.79851 0.97336 0.49105 0.0
C802 C 0.80868 0.95597 0.46281 0.0
C803 C 0.80961 0.92153 0.46281 0.0
H804 H 0.0799 0.77683 0.44649 0.0
H805 H 0.07738 0.81424 0.54629 0.0
H806 H 0.01996 0.77293 0.44642 0.0
H807 H 0.01738 0.81162 0.54579 0.0
H808 H 0.91066 0.7784 0.5451 0.0
H809 H 0.97079 0.77614 0.54602 0.0
H810 H 0.97339 0.80785 0.4442 0.0
H811 H 0.91351 0.80884 0.44294 0.0
C812 C 0.06654 0.7844 0.46836 0.0
C813 C 0.08341 0.796 0.49633 0.0
C814 C 0.03213 0.78231 0.46828 0.0
C815 C 0.01374 0.79217 0.49602 0.0
C816 C 0.0307 0.80335 0.52416 0.0
C817 C 0.06514 0.80507 0.52438 0.0
C818 C 0.92411 0.78474 0.52289 0.0
C819 C 0.90727 0.79382 0.49396 0.0
C820 C 0.9586 0.78361 0.52345 0.0
C821 C 0.97703 0.79187 0.4952 0.0
C822 C 0.96008 0.80073 0.46625 0.0
C823 C 0.92566 0.8015 0.46559 0.0
H824 H 0.54642 0.17687 0.91122 0.0
H825 H 0.44558 0.21157 0.90868 0.0
H826 H 0.54559 0.17889 0.97124 0.0
H827 H 0.44515 0.21495 0.96856 0.0
H828 H 0.44204 0.17794 0.0747 0.0
H829 H 0.44342 0.17981 0.01481 0.0
H830 H 0.54466 0.21355 0.01816 0.0
H831 H 0.54364 0.21035 0.07814 0.0
C832 C 0.52423 0.18537 0.92347 0.0
C833 C 0.49598 0.19377 0.90521 0.0
C834 C 0.52379 0.18672 0.95791 0.0
C835 C 0.49523 0.19693 0.97485 0.0
C836 C 0.46733 0.20626 0.95644 0.0
C837 C 0.46763 0.20449 0.92206 0.0
C838 C 0.46454 0.18593 0.06267 0.0
C839 C 0.49277 0.19382 0.08119 0.0
C840 C 0.4653 0.18719 0.02827 0.0
C841 C 0.49418 0.19681 0.01154 0.0
C842 C 0.52219 0.20544 0.03015 0.0
C843 C 0.52155 0.20378 0.06457 0.0
H844 H 0.77826 0.54059 0.90727 0.0
H845 H 0.81489 0.44051 0.90882 0.0
H846 H 0.77465 0.54028 0.96713 0.0
H847 H 0.81261 0.44062 0.96885 0.0
H848 H 0.77914 0.44059 0.07547 0.0
H849 H 0.77736 0.44018 0.0154 0.0
H850 H 0.80898 0.54203 0.01393 0.0
H851 H 0.80943 0.54279 0.07382 0.0
C852 C 0.78577 0.51857 0.92042 0.0
C853 C 0.79701 0.49062 0.90327 0.0
C854 C 0.78385 0.51844 0.95481 0.0
C855 C 0.79356 0.49051 0.97296 0.0
C856 C 0.80447 0.46241 0.95574 0.0
C857 C 0.80598 0.4624 0.92128 0.0
C858 C 0.78555 0.46294 0.06229 0.0
C859 C 0.79444 0.49172 0.07946 0.0
C860 C 0.78473 0.46265 0.02781 0.0
C861 C 0.79313 0.49103 0.00969 0.0
C862 C 0.80178 0.51986 0.02697 0.0
C863 C 0.80222 0.52026 0.0614 0.0
H864 H 0.44348 0.81022 0.07691 0.0
H865 H 0.54473 0.77656 0.07877 0.0
H866 H 0.44421 0.80933 0.01702 0.0
H867 H 0.54507 0.7745 0.01871 0.0
H868 H 0.54624 0.81348 0.91274 0.0
H869 H 0.54564 0.81082 0.97267 0.0
H870 H 0.44529 0.77456 0.97004 0.0
H871 H 0.44549 0.77838 0.91012 0.0
C872 C 0.46579 0.80219 0.06456 0.0
C873 C 0.49411 0.79363 0.08267 0.0
C874 C 0.46614 0.8015 0.03013 0.0
C875 C 0.49472 0.79189 0.01295 0.0
C876 C 0.52282 0.7826 0.0311 0.0
C877 C 0.52258 0.78361 0.06556 0.0
C878 C 0.52407 0.80485 0.92494 0.0
C879 C 0.49584 0.79635 0.90663 0.0
C880 C 0.52379 0.80311 0.95934 0.0
C881 C 0.4954 0.79251 0.97627 0.0
C882 C 0.46738 0.78341 0.95788 0.0
C883 C 0.46754 0.78547 0.92349 0.0
H884 H 0.20867 0.44747 0.9112 0.0
H885 H 0.17088 0.54714 0.91166 0.0
H886 H 0.21097 0.44798 0.9711 0.0
H887 H 0.17187 0.54721 0.97174 0.0
H888 H 0.20466 0.54755 0.07896 0.0
H889 H 0.20662 0.5481 0.01888 0.0
H890 H 0.17552 0.44609 0.0171 0.0
H891 H 0.17488 0.44519 0.07697 0.0
C892 C 0.20061 0.46943 0.92412 0.0
C893 C 0.18946 0.49722 0.90667 0.0
C894 C 0.20177 0.46967 0.95852 0.0
C895 C 0.19138 0.49755 0.97636 0.0
C896 C 0.18051 0.52548 0.95885 0.0
C897 C 0.17975 0.52538 0.92438 0.0
C898 C 0.19837 0.52522 0.0657 0.0
C899 C 0.18969 0.49631 0.08277 0.0
C900 C 0.1993 0.52558 0.03123 0.0
C901 C 0.19122 0.49715 0.01305 0.0
C902 C 0.18254 0.46827 0.03022 0.0
C903 C 0.18199 0.4678 0.06462 0.0
H904 H 0.07632 0.44213 0.172 0.0
H905 H 0.07526 0.54321 0.20583 0.0
H906 H 0.01627 0.44161 0.17153 0.0
H907 H 0.01521 0.54231 0.20664 0.0
H908 H 0.90966 0.54219 0.16876 0.0
H909 H 0.96964 0.54216 0.17022 0.0
H910 H 0.96871 0.44153 0.20553 0.0
H911 H 0.90866 0.44118 0.2028 0.0
C912 C 0.06327 0.46413 0.17972 0.0
C913 C 0.08059 0.49277 0.18879 0.0
C914 C 0.02879 0.46378 0.17962 0.0
C915 C 0.01081 0.49195 0.18897 0.0
C916 C 0.0282 0.52038 0.19865 0.0
C917 C 0.06267 0.52085 0.19837 0.0
C918 C 0.92225 0.52006 0.17688 0.0
C919 C 0.90437 0.49167 0.1856 0.0
C920 C 0.95669 0.5201 0.17792 0.0
C921 C 0.9741 0.49187 0.18809 0.0
C922 C 0.95617 0.46354 0.19706 0.0
C923 C 0.92171 0.46338 0.19565 0.0
H924 H 0.91159 0.54513 0.81171 0.0
H925 H 0.91103 0.44403 0.77791 0.0
H926 H 0.97166 0.54513 0.81076 0.0
H927 H 0.97105 0.44441 0.77571 0.0
H928 H 0.07723 0.44384 0.81307 0.0
H929 H 0.01726 0.44409 0.81136 0.0
H930 H 0.01867 0.54468 0.77596 0.0
H931 H 0.07871 0.54481 0.77891 0.0
C932 C 0.92428 0.52302 0.80369 0.0
C933 C 0.90651 0.49451 0.7951 0.0
C934 C 0.95877 0.52307 0.80295 0.0
C935 C 0.97629 0.49473 0.79323 0.0
C936 C 0.95843 0.46646 0.78396 0.0
C937 C 0.92398 0.46629 0.78506 0.0
C938 C 0.06477 0.46598 0.8048 0.0
C939 C 0.08278 0.49435 0.79628 0.0
C940 C 0.03032 0.46607 0.80363 0.0
C941 C 0.01302 0.49442 0.79354 0.0
C942 C 0.03111 0.5226 0.78443 0.0
C943 C 0.06557 0.52263 0.78595 0.0
H944 H 0.5454 0.07718 0.81562 0.0
H945 H 0.44356 0.07758 0.78377 0.0
H946 H 0.5454 0.01724 0.81496 0.0
H947 H 0.44392 0.01758 0.78183 0.0
H948 H 0.44493 0.91083 0.81728 0.0
H949 H 0.44466 0.97081 0.81677 0.0
H950 H 0.54469 0.97092 0.7795 0.0
H951 H 0.54537 0.91095 0.78127 0.0
C952 C 0.5231 0.06447 0.80814 0.0
C953 C 0.49444 0.08218 0.79986 0.0
C954 C 0.52315 0.03005 0.80756 0.0
C955 C 0.49467 0.01248 0.7983 0.0
C956 C 0.46613 0.03024 0.78965 0.0
C957 C 0.46596 0.06468 0.7906 0.0
C958 C 0.46684 0.92366 0.80889 0.0
C959 C 0.49522 0.9061 0.79946 0.0
C960 C 0.46663 0.95809 0.80841 0.0
C961 C 0.49467 0.9758 0.79813 0.0
C962 C 0.52286 0.95816 0.78817 0.0
C963 C 0.5232 0.92373 0.78901 0.0
H964 H 0.44406 0.91033 0.20404 0.0
H965 H 0.54482 0.90969 0.16892 0.0
H966 H 0.44467 0.97029 0.2047 0.0
H967 H 0.54504 0.96971 0.16839 0.0
H968 H 0.44382 0.07585 0.16781 0.0
H969 H 0.44435 0.01594 0.16826 0.0
H970 H 0.54527 0.01706 0.20301 0.0
H971 H 0.54512 0.07712 0.20136 0.0
C972 C 0.46628 0.92298 0.19623 0.0
C973 C 0.49437 0.90519 0.18638 0.0
C974 C 0.46658 0.95741 0.19643 0.0
C975 C 0.49485 0.97491 0.18644 0.0
C976 C 0.523 0.95708 0.17671 0.0
C977 C 0.52281 0.92263 0.17684 0.0
C978 C 0.46614 0.06334 0.17557 0.0
C979 C 0.49444 0.0813 0.18454 0.0
C980 C 0.46638 0.02893 0.17603 0.0
C981 C 0.4948 0.01159 0.18582 0.0
C982 C 0.5231 0.02957 0.19487 0.0
C983 C 0.52297 0.06403 0.19408 0.0
loop_
_geom_bond_atom_site_label_1
_geom_bond_atom_site_label_2
_geom_bond_distance
_geom_bond_site_symmetry_2
_ccdc_geom_bond_type
Sc0 O3 2.025 . S
Sc0 O10 2.105 . S
Sc0 O13 2.105 . S
Sc0 O16 2.105 . S
Sc0 O19 2.105 . S
Sc1 O3 2.025 . S
Sc1 O11 2.105 . S
Sc1 O15 2.105 . S
Sc1 O17 2.105 . S
Sc1 O21 2.105 . S
Sc2 O3 2.025 . S
Sc2 O12 2.105 . S
Sc2 O14 2.105 . S
Sc2 O18 2.105 . S
Sc2 O20 2.105 . S
O3 Sc0 2.025 . S
O3 Sc1 2.025 . S
O3 Sc2 2.025 . S
C4 O10 1.268 . S
C4 O20 1.268 . S
C5 O11 1.268 . S
C5 O19 1.268 . S
C6 O12 1.268 . S
C6 O21 1.268 . S
C7 O13 1.268 . S
C7 O17 1.268 . S
C8 O14 1.268 . S
C8 O16 1.268 . S
C9 O15 1.268 . S
C9 O18 1.268 . S
O10 Sc0 2.105 . S
O10 C4 1.268 . S
O11 Sc1 2.105 . S
O11 C5 1.268 . S
O12 Sc2 2.105 . S
O12 C6 1.268 . S
O13 Sc0 2.105 . S
O13 C7 1.268 . S
O14 Sc2 2.105 . S
O14 C8 1.268 . S
O15 Sc1 2.105 . S
O15 C9 1.268 . S
O16 Sc0 2.105 . S
O16 C8 1.268 . S
O17 Sc1 2.105 . S
O17 C7 1.268 . S
O18 Sc2 2.105 . S
O18 C9 1.268 . S
O19 Sc0 2.105 . S
O19 C5 1.268 . S
O20 Sc2 2.105 . S
O20 C4 1.268 . S
O21 Sc1 2.105 . S
O21 C6 1.268 . S
Sc22 O25 2.025 . S
Sc22 O32 2.105 . S
Sc22 O35 2.105 . S
Sc22 O38 2.105 . S
Sc22 O41 2.105 . S
Sc23 O25 2.025 . S
Sc23 O33 2.105 . S
Sc23 O37 2.105 . S
Sc23 O39 2.105 . S
Sc23 O43 2.105 . S
Sc24 O25 2.025 . S
Sc24 O34 2.105 . S
Sc24 O36 2.105 . S
Sc24 O40 2.105 . S
Sc24 O42 2.105 . S
O25 Sc22 2.025 . S
O25 Sc23 2.025 . S
O25 Sc24 2.025 . S
C26 O32 1.268 . S
C26 O42 1.268 . S
C27 O33 1.268 . S
C27 O41 1.268 . S
C28 O34 1.268 . S
C28 O43 1.268 . S
C29 O35 1.268 . S
C29 O39 1.268 . S
C30 O36 1.268 . S
C30 O38 1.268 . S
C31 O37 1.268 . S
C31 O40 1.268 . S
O32 Sc22 2.105 . S
O32 C26 1.268 . S
O33 Sc23 2.105 . S
O33 C27 1.268 . S
O34 Sc24 2.105 . S
O34 C28 1.268 . S
O35 Sc22 2.105 . S
O35 C29 1.268 . S
O36 Sc24 2.105 . S
O36 C30 1.268 . S
O37 Sc23 2.105 . S
O37 C31 1.268 . S
O38 Sc22 2.105 . S
O38 C30 1.268 . S
O39 Sc23 2.105 . S
O39 C29 1.268 . S
O40 Sc24 2.105 . S
O40 C31 1.268 . S
O41 Sc22 2.105 . S
O41 C27 1.268 . S
O42 Sc24 2.105 . S
O42 C26 1.268 . S
O43 Sc23 2.105 . S
O43 C28 1.268 . S
Sc44 O47 2.025 . S
Sc44 O54 2.105 . S
Sc44 O57 2.105 . S
Sc44 O60 2.105 . S
Sc44 O63 2.105 . S
Sc45 O47 2.025 . S
Sc45 O55 2.105 . S
Sc45 O59 2.105 . S
Sc45 O61 2.105 . S
Sc45 O65 2.105 . S
Sc46 O47 2.025 . S
Sc46 O56 2.105 . S
Sc46 O58 2.105 . S
Sc46 O62 2.105 . S
Sc46 O64 2.105 . S
O47 Sc44 2.025 . S
O47 Sc45 2.025 . S
O47 Sc46 2.025 . S
C48 O54 1.268 . S
C48 O64 1.268 . S
C49 O55 1.268 . S
C49 O63 1.268 . S
C50 O56 1.268 . S
C50 O65 1.268 . S
C51 O57 1.268 . S
C51 O61 1.268 . S
C52 O58 1.268 . S
C52 O60 1.268 . S
C53 O59 1.268 . S
C53 O62 1.268 . S
O54 Sc44 2.105 . S
O54 C48 1.268 . S
O55 Sc45 2.105 . S
O55 C49 1.268 . S
O56 Sc46 2.105 . S
O56 C50 1.268 . S
O57 Sc44 2.105 . S
O57 C51 1.268 . S
O58 Sc46 2.105 . S
O58 C52 1.268 . S
O59 Sc45 2.105 . S
O59 C53 1.268 . S
O60 Sc44 2.105 . S
O60 C52 1.268 . S
O61 Sc45 2.105 . S
O61 C51 1.268 . S
O62 Sc46 2.105 . S
O62 C53 1.268 . S
O63 Sc44 2.105 . S
O63 C49 1.268 . S
O64 Sc46 2.105 . S
O64 C48 1.268 . S
O65 Sc45 2.105 . S
O65 C50 1.268 . S
Sc66 O69 2.025 . S
Sc66 O76 2.105 . S
Sc66 O79 2.105 . S
Sc66 O82 2.105 . S
Sc66 O85 2.105 . S
Sc67 O69 2.025 . S
Sc67 O77 2.105 . S
Sc67 O81 2.105 . S
Sc67 O83 2.105 . S
Sc67 O87 2.105 . S
Sc68 O69 2.025 . S
Sc68 O78 2.105 . S
Sc68 O80 2.105 . S
Sc68 O84 2.105 . S
Sc68 O86 2.105 . S
O69 Sc66 2.025 . S
O69 Sc67 2.025 . S
O69 Sc68 2.025 . S
C70 O76 1.268 . S
C70 O86 1.268 . S
C71 O77 1.268 . S
C71 O85 1.268 . S
C72 O78 1.268 . S
C72 O87 1.268 . S
C73 O79 1.268 . S
C73 O83 1.268 . S
C74 O80 1.268 . S
C74 O82 1.268 . S
C75 O81 1.268 . S
C75 O84 1.268 . S
O76 Sc66 2.105 . S
O76 C70 1.268 . S
O77 Sc67 2.105 . S
O77 C71 1.268 . S
O78 Sc68 2.105 . S
O78 C72 1.268 . S
O79 Sc66 2.105 . S
O79 C73 1.268 . S
O80 Sc68 2.105 . S
O80 C74 1.268 . S
O81 Sc67 2.105 . S
O81 C75 1.268 . S
O82 Sc66 2.105 . S
O82 C74 1.268 . S
O83 Sc67 2.105 . S
O83 C73 1.268 . S
O84 Sc68 2.105 . S
O84 C75 1.268 . S
O85 Sc66 2.105 . S
O85 C71 1.268 . S
O86 Sc68 2.105 . S
O86 C70 1.268 . S
O87 Sc67 2.105 . S
O87 C72 1.268 . S
Sc88 O91 2.025 . S
Sc88 O98 2.105 . S
Sc88 O101 2.105 . S
Sc88 O104 2.105 . S
Sc88 O107 2.105 . S
Sc89 O91 2.025 . S
Sc89 O99 2.105 . S
Sc89 O103 2.105 . S
Sc89 O105 2.105 . S
Sc89 O109 2.105 . S
Sc90 O91 2.025 . S
Sc90 O100 2.105 . S
Sc90 O102 2.105 . S
Sc90 O106 2.105 . S
Sc90 O108 2.105 . S
O91 Sc88 2.025 . S
O91 Sc89 2.025 . S
O91 Sc90 2.025 . S
C92 O98 1.268 . S
C92 O108 1.268 . S
C93 O99 1.268 . S
C93 O107 1.268 . S
C94 O100 1.268 . S
C94 O109 1.268 . S
C95 O101 1.268 . S
C95 O105 1.268 . S
C96 O102 1.268 . S
C96 O104 1.268 . S
C97 O103 1.268 . S
C97 O106 1.268 . S
O98 Sc88 2.105 . S
O98 C92 1.268 . S
O99 Sc89 2.105 . S
O99 C93 1.268 . S
O100 Sc90 2.105 . S
O100 C94 1.268 . S
O101 Sc88 2.105 . S
O101 C95 1.268 . S
O102 Sc90 2.105 . S
O102 C96 1.268 . S
O103 Sc89 2.105 . S
O103 C97 1.268 . S
O104 Sc88 2.105 . S
O104 C96 1.268 . S
O105 Sc89 2.105 . S
O105 C95 1.268 . S
O106 Sc90 2.105 . S
O106 C97 1.268 . S
O107 Sc88 2.105 . S
O107 C93 1.268 . S
O108 Sc90 2.105 . S
O108 C92 1.268 . S
O109 Sc89 2.105 . S
O109 C94 1.268 . S
Sc110 O113 2.025 . S
Sc110 O120 2.105 . S
Sc110 O123 2.105 . S
Sc110 O126 2.105 . S
Sc110 O129 2.105 . S
Sc111 O113 2.025 . S
Sc111 O121 2.105 . S
Sc111 O125 2.105 . S
Sc111 O127 2.105 . S
Sc111 O131 2.105 . S
Sc112 O113 2.025 . S
Sc112 O122 2.105 . S
Sc112 O124 2.105 . S
Sc112 O128 2.105 . S
Sc112 O130 2.105 . S
O113 Sc110 2.025 . S
O113 Sc111 2.025 . S
O113 Sc112 2.025 . S
C114 O120 1.268 . S
C114 O130 1.268 . S
C115 O121 1.268 . S
C115 O129 1.268 . S
C116 O122 1.268 . S
C116 O131 1.268 . S
C117 O123 1.268 . S
C117 O127 1.268 . S
C118 O124 1.268 . S
C118 O126 1.268 . S
C119 O125 1.268 . S
C119 O128 1.268 . S
O120 Sc110 2.105 . S
O120 C114 1.268 . S
O121 Sc111 2.105 . S
O121 C115 1.268 . S
O122 Sc112 2.105 . S
O122 C116 1.268 . S
O123 Sc110 2.105 . S
O123 C117 1.268 . S
O124 Sc112 2.105 . S
O124 C118 1.268 . S
O125 Sc111 2.105 . S
O125 C119 1.268 . S
O126 Sc110 2.105 . S
O126 C118 1.268 . S
O127 Sc111 2.105 . S
O127 C117 1.268 . S
O128 Sc112 2.105 . S
O128 C119 1.268 . S
O129 Sc110 2.105 . S
O129 C115 1.268 . S
O130 Sc112 2.105 . S
O130 C114 1.268 . S
O131 Sc111 2.105 . S
O131 C116 1.268 . S
Sc132 O135 2.025 . S
Sc132 O142 2.105 . S
Sc132 O145 2.105 . S
Sc132 O148 2.105 . S
Sc132 O151 2.105 . S
Sc133 O135 2.025 . S
Sc133 O143 2.105 . S
Sc133 O147 2.105 . S
Sc133 O149 2.105 . S
Sc133 O153 2.105 . S
Sc134 O135 2.025 . S
Sc134 O144 2.105 . S
Sc134 O146 2.105 . S
Sc134 O150 2.105 . S
Sc134 O152 2.105 . S
O135 Sc132 2.025 . S
O135 Sc133 2.025 . S
O135 Sc134 2.025 . S
C136 O142 1.268 . S
C136 O152 1.268 . S
C137 O143 1.268 . S
C137 O151 1.268 . S
C138 O144 1.268 . S
C138 O153 1.268 . S
C139 O145 1.268 . S
C139 O149 1.268 . S
C140 O146 1.268 . S
C140 O148 1.268 . S
C141 O147 1.268 . S
C141 O150 1.268 . S
O142 Sc132 2.105 . S
O142 C136 1.268 . S
O143 Sc133 2.105 . S
O143 C137 1.268 . S
O144 Sc134 2.105 . S
O144 C138 1.268 . S
O145 Sc132 2.105 . S
O145 C139 1.268 . S
O146 Sc134 2.105 . S
O146 C140 1.268 . S
O147 Sc133 2.105 . S
O147 C141 1.268 . S
O148 Sc132 2.105 . S
O148 C140 1.268 . S
O149 Sc133 2.105 . S
O149 C139 1.268 . S
O150 Sc134 2.105 . S
O150 C141 1.268 . S
O151 Sc132 2.105 . S
O151 C137 1.268 . S
O152 Sc134 2.105 . S
O152 C136 1.268 . S
O153 Sc133 2.105 . S
O153 C138 1.268 . S
Sc154 O157 2.025 . S
Sc154 O164 2.105 . S
Sc154 O167 2.105 . S
Sc154 O170 2.105 . S
Sc154 O173 2.105 . S
Sc155 O157 2.025 . S
Sc155 O165 2.105 . S
Sc155 O169 2.105 . S
Sc155 O171 2.105 . S
Sc155 O175 2.105 . S
Sc156 O157 2.025 . S
Sc156 O166 2.105 . S
Sc156 O168 2.105 . S
Sc156 O172 2.105 . S
Sc156 O174 2.105 . S
O157 Sc154 2.025 . S
O157 Sc155 2.025 . S
O157 Sc156 2.025 . S
C158 O164 1.268 . S
C158 O174 1.268 . S
C159 O165 1.268 . S
C159 O173 1.268 . S
C160 O166 1.268 . S
C160 O175 1.268 . S
C161 O167 1.268 . S
C161 O171 1.268 . S
C162 O168 1.268 . S
C162 O170 1.268 . S
C163 O169 1.268 . S
C163 O172 1.268 . S
O164 Sc154 2.105 . S
O164 C158 1.268 . S
O165 Sc155 2.105 . S
O165 C159 1.268 . S
O166 Sc156 2.105 . S
O166 C160 1.268 . S
O167 Sc154 2.105 . S
O167 C161 1.268 . S
O168 Sc156 2.105 . S
O168 C162 1.268 . S
O169 Sc155 2.105 . S
O169 C163 1.268 . S
O170 Sc154 2.105 . S
O170 C162 1.268 . S
O171 Sc155 2.105 . S
O171 C161 1.268 . S
O172 Sc156 2.105 . S
O172 C163 1.268 . S
O173 Sc154 2.105 . S
O173 C159 1.268 . S
O174 Sc156 2.105 . S
O174 C158 1.268 . S
O175 Sc155 2.105 . S
O175 C160 1.268 . S
Sc176 O179 2.025 . S
Sc176 O186 2.105 . S
Sc176 O189 2.105 . S
Sc176 O192 2.105 . S
Sc176 O195 2.105 . S
Sc177 O179 2.025 . S
Sc177 O187 2.105 . S
Sc177 O191 2.105 . S
Sc177 O193 2.105 . S
Sc177 O197 2.105 . S
Sc178 O179 2.025 . S
Sc178 O188 2.105 . S
Sc178 O190 2.105 . S
Sc178 O194 2.105 . S
Sc178 O196 2.105 . S
O179 Sc176 2.025 . S
O179 Sc177 2.025 . S
O179 Sc178 2.025 . S
C180 O186 1.268 . S
C180 O196 1.268 . S
C181 O187 1.268 . S
C181 O195 1.268 . S
C182 O188 1.268 . S
C182 O197 1.268 . S
C183 O189 1.268 . S
C183 O193 1.268 . S
C184 O190 1.268 . S
C184 O192 1.268 . S
C185 O191 1.268 . S
C185 O194 1.268 . S
O186 Sc176 2.105 . S
O186 C180 1.268 . S
O187 Sc177 2.105 . S
O187 C181 1.268 . S
O188 Sc178 2.105 . S
O188 C182 1.268 . S
O189 Sc176 2.105 . S
O189 C183 1.268 . S
O190 Sc178 2.105 . S
O190 C184 1.268 . S
O191 Sc177 2.105 . S
O191 C185 1.268 . S
O192 Sc176 2.105 . S
O192 C184 1.268 . S
O193 Sc177 2.105 . S
O193 C183 1.268 . S
O194 Sc178 2.105 . S
O194 C185 1.268 . S
O195 Sc176 2.105 . S
O195 C181 1.268 . S
O196 Sc178 2.105 . S
O196 C180 1.268 . S
O197 Sc177 2.105 . S
O197 C182 1.268 . S
Sc198 O201 2.025 . S
Sc198 O208 2.105 . S
Sc198 O211 2.105 . S
Sc198 O214 2.105 . S
Sc198 O217 2.105 . S
Sc199 O201 2.025 . S
Sc199 O209 2.105 . S
Sc199 O213 2.105 . S
Sc199 O215 2.105 . S
Sc199 O219 2.105 . S
Sc200 O201 2.025 . S
Sc200 O210 2.105 . S
Sc200 O212 2.105 . S
Sc200 O216 2.105 . S
Sc200 O218 2.105 . S
O201 Sc198 2.025 . S
O201 Sc199 2.025 . S
O201 Sc200 2.025 . S
C202 O208 1.268 . S
C202 O218 1.268 . S
C203 O209 1.268 . S
C203 O217 1.268 . S
C204 O210 1.268 . S
C204 O219 1.268 . S
C205 O211 1.268 . S
C205 O215 1.268 . S
C206 O212 1.268 . S
C206 O214 1.268 . S
C207 O213 1.268 . S
C207 O216 1.268 . S
O208 Sc198 2.105 . S
O208 C202 1.268 . S
O209 Sc199 2.105 . S
O209 C203 1.268 . S
O210 Sc200 2.105 . S
O210 C204 1.268 . S
O211 Sc198 2.105 . S
O211 C205 1.268 . S
O212 Sc200 2.105 . S
O212 C206 1.268 . S
O213 Sc199 2.105 . S
O213 C207 1.268 . S
O214 Sc198 2.105 . S
O214 C206 1.268 . S
O215 Sc199 2.105 . S
O215 C205 1.268 . S
O216 Sc200 2.105 . S
O216 C207 1.268 . S
O217 Sc198 2.105 . S
O217 C203 1.268 . S
O218 Sc200 2.105 . S
O218 C202 1.268 . S
O219 Sc199 2.105 . S
O219 C204 1.268 . S
Sc220 O223 2.025 . S
Sc220 O230 2.105 . S
Sc220 O233 2.105 . S
Sc220 O236 2.105 . S
Sc220 O239 2.105 . S
Sc221 O223 2.025 . S
Sc221 O231 2.105 . S
Sc221 O235 2.105 . S
Sc221 O237 2.105 . S
Sc221 O241 2.105 . S
Sc222 O223 2.025 . S
Sc222 O232 2.105 . S
Sc222 O234 2.105 . S
Sc222 O238 2.105 . S
Sc222 O240 2.105 . S
O223 Sc220 2.025 . S
O223 Sc221 2.025 . S
O223 Sc222 2.025 . S
C224 O230 1.268 . S
C224 O240 1.268 . S
C225 O231 1.268 . S
C225 O239 1.268 . S
C226 O232 1.268 . S
C226 O241 1.268 . S
C227 O233 1.268 . S
C227 O237 1.268 . S
C228 O234 1.268 . S
C228 O236 1.268 . S
C229 O235 1.268 . S
C229 O238 1.268 . S
O230 Sc220 2.105 . S
O230 C224 1.268 . S
O231 Sc221 2.105 . S
O231 C225 1.268 . S
O232 Sc222 2.105 . S
O232 C226 1.268 . S
O233 Sc220 2.105 . S
O233 C227 1.268 . S
O234 Sc222 2.105 . S
O234 C228 1.268 . S
O235 Sc221 2.105 . S
O235 C229 1.268 . S
O236 Sc220 2.105 . S
O236 C228 1.268 . S
O237 Sc221 2.105 . S
O237 C227 1.268 . S
O238 Sc222 2.105 . S
O238 C229 1.268 . S
O239 Sc220 2.105 . S
O239 C225 1.268 . S
O240 Sc222 2.105 . S
O240 C224 1.268 . S
O241 Sc221 2.105 . S
O241 C226 1.268 . S
Sc242 O245 2.025 . S
Sc242 O252 2.105 . S
Sc242 O255 2.105 . S
Sc242 O258 2.105 . S
Sc242 O261 2.105 . S
Sc243 O245 2.025 . S
Sc243 O253 2.105 . S
Sc243 O257 2.105 . S
Sc243 O259 2.105 . S
Sc243 O263 2.105 . S
Sc244 O245 2.025 . S
Sc244 O254 2.105 . S
Sc244 O256 2.105 . S
Sc244 O260 2.105 . S
Sc244 O262 2.105 . S
O245 Sc242 2.025 . S
O245 Sc243 2.025 . S
O245 Sc244 2.025 . S
C246 O252 1.268 . S
C246 O262 1.268 . S
C247 O253 1.268 . S
C247 O261 1.268 . S
C248 O254 1.268 . S
C248 O263 1.268 . S
C249 O255 1.268 . S
C249 O259 1.268 . S
C250 O256 1.268 . S
C250 O258 1.268 . S
C251 O257 1.268 . S
C251 O260 1.268 . S
O252 Sc242 2.105 . S
O252 C246 1.268 . S
O253 Sc243 2.105 . S
O253 C247 1.268 . S
O254 Sc244 2.105 . S
O254 C248 1.268 . S
O255 Sc242 2.105 . S
O255 C249 1.268 . S
O256 Sc244 2.105 . S
O256 C250 1.268 . S
O257 Sc243 2.105 . S
O257 C251 1.268 . S
O258 Sc242 2.105 . S
O258 C250 1.268 . S
O259 Sc243 2.105 . S
O259 C249 1.268 . S
O260 Sc244 2.105 . S
O260 C251 1.268 . S
O261 Sc242 2.105 . S
O261 C247 1.268 . S
O262 Sc244 2.105 . S
O262 C246 1.268 . S
O263 Sc243 2.105 . S
O263 C248 1.268 . S
H264 C272 0.950 . S
H265 C277 0.950 . S
H266 C274 0.950 . S
H267 C276 0.950 . S
H268 C278 0.950 . S
H269 C280 0.950 . S
H270 C282 0.950 . S
H271 C283 0.950 . S
C272 H264 0.950 . S
C272 C273 1.386 . S
C272 C274 1.391 . S
C273 C272 1.386 . S
C273 C277 1.393 . S
C274 H266 0.950 . S
C274 C272 1.391 . S
C274 C275 1.400 . S
C275 C274 1.400 . S
C275 C276 1.398 . S
C275 C281 1.491 . S
C276 H267 0.950 . S
C276 C275 1.398 . S
C276 C277 1.391 . S
C277 H265 0.950 . S
C277 C273 1.393 . S
C277 C276 1.391 . S
C278 H268 0.950 . S
C278 C279 1.386 . S
C278 C280 1.391 . S
C279 C278 1.386 . S
C279 C283 1.393 . S
C280 H269 0.950 . S
C280 C278 1.391 . S
C280 C281 1.400 . S
C281 C275 1.491 . S
C281 C280 1.400 . S
C281 C282 1.398 . S
C282 H270 0.950 . S
C282 C281 1.398 . S
C282 C283 1.391 . S
C283 H271 0.950 . S
C283 C279 1.393 . S
C283 C282 1.391 . S
H284 C292 0.950 . S
H285 C297 0.950 . S
H286 C294 0.950 . S
H287 C296 0.950 . S
H288 C298 0.950 . S
H289 C300 0.950 . S
H290 C302 0.950 . S
H291 C303 0.950 . S
C292 H284 0.950 . S
C292 C293 1.386 . S
C292 C294 1.391 . S
C293 C292 1.386 . S
C293 C297 1.393 . S
C294 H286 0.950 . S
C294 C292 1.391 . S
C294 C295 1.400 . S
C295 C294 1.400 . S
C295 C296 1.398 . S
C295 C301 1.491 . S
C296 H287 0.950 . S
C296 C295 1.398 . S
C296 C297 1.391 . S
C297 H285 0.950 . S
C297 C293 1.393 . S
C297 C296 1.391 . S
C298 H288 0.950 . S
C298 C299 1.386 . S
C298 C300 1.391 . S
C299 C298 1.386 . S
C299 C303 1.393 . S
C300 H289 0.950 . S
C300 C298 1.391 . S
C300 C301 1.400 . S
C301 C295 1.491 . S
C301 C300 1.400 . S
C301 C302 1.398 . S
C302 H290 0.950 . S
C302 C301 1.398 . S
C302 C303 1.391 . S
C303 H291 0.950 . S
C303 C299 1.393 . S
C303 C302 1.391 . S
H304 C312 0.950 . S
H305 C317 0.950 . S
H306 C314 0.950 . S
H307 C316 0.950 . S
H308 C318 0.950 . S
H309 C320 0.950 . S
H310 C322 0.950 . S
H311 C323 0.950 . S
C312 H304 0.950 . S
C312 C313 1.386 . S
C312 C314 1.391 . S
C313 C312 1.386 . S
C313 C317 1.393 . S
C314 H306 0.950 . S
C314 C312 1.391 . S
C314 C315 1.400 . S
C315 C314 1.400 . S
C315 C316 1.398 . S
C315 C321 1.491 . S
C316 H307 0.950 . S
C316 C315 1.398 . S
C316 C317 1.391 . S
C317 H305 0.950 . S
C317 C313 1.393 . S
C317 C316 1.391 . S
C318 H308 0.950 . S
C318 C319 1.386 . S
C318 C320 1.391 . S
C319 C318 1.386 . S
C319 C323 1.393 . S
C320 H309 0.950 . S
C320 C318 1.391 . S
C320 C321 1.400 . S
C321 C315 1.491 . S
C321 C320 1.400 . S
C321 C322 1.398 . S
C322 H310 0.950 . S
C322 C321 1.398 . S
C322 C323 1.391 . S
C323 H311 0.950 . S
C323 C319 1.393 . S
C323 C322 1.391 . S
H324 C332 0.950 . S
H325 C337 0.950 . S
H326 C334 0.950 . S
H327 C336 0.950 . S
H328 C338 0.950 . S
H329 C340 0.950 . S
H330 C342 0.950 . S
H331 C343 0.950 . S
C332 H324 0.950 . S
C332 C333 1.386 . S
C332 C334 1.391 . S
C333 C332 1.386 . S
C333 C337 1.393 . S
C334 H326 0.950 . S
C334 C332 1.391 . S
C334 C335 1.400 . S
C335 C334 1.400 . S
C335 C336 1.398 . S
C335 C341 1.491 . S
C336 H327 0.950 . S
C336 C335 1.398 . S
C336 C337 1.391 . S
C337 H325 0.950 . S
C337 C333 1.393 . S
C337 C336 1.391 . S
C338 H328 0.950 . S
C338 C339 1.386 . S
C338 C340 1.391 . S
C339 C338 1.386 . S
C339 C343 1.393 . S
C340 H329 0.950 . S
C340 C338 1.391 . S
C340 C341 1.400 . S
C341 C335 1.491 . S
C341 C340 1.400 . S
C341 C342 1.398 . S
C342 H330 0.950 . S
C342 C341 1.398 . S
C342 C343 1.391 . S
C343 H331 0.950 . S
C343 C339 1.393 . S
C343 C342 1.391 . S
H344 C352 0.950 . S
H345 C357 0.950 . S
H346 C354 0.950 . S
H347 C356 0.950 . S
H348 C358 0.950 . S
H349 C360 0.950 . S
H350 C362 0.950 . S
H351 C363 0.950 . S
C352 H344 0.950 . S
C352 C353 1.386 . S
C352 C354 1.391 . S
C353 C352 1.386 . S
C353 C357 1.393 . S
C354 H346 0.950 . S
C354 C352 1.391 . S
C354 C355 1.400 . S
C355 C354 1.400 . S
C355 C356 1.398 . S
C355 C361 1.491 . S
C356 H347 0.950 . S
C356 C355 1.398 . S
C356 C357 1.391 . S
C357 H345 0.950 . S
C357 C353 1.393 . S
C357 C356 1.391 . S
C358 H348 0.950 . S
C358 C359 1.386 . S
C358 C360 1.391 . S
C359 C358 1.386 . S
C359 C363 1.393 . S
C360 H349 0.950 . S
C360 C358 1.391 . S
C360 C361 1.400 . S
C361 C355 1.491 . S
C361 C360 1.400 . S
C361 C362 1.398 . S
C362 H350 0.950 . S
C362 C361 1.398 . S
C362 C363 1.391 . S
C363 H351 0.950 . S
C363 C359 1.393 . S
C363 C362 1.391 . S
H364 C372 0.950 . S
H365 C377 0.950 . S
H366 C374 0.950 . S
H367 C376 0.950 . S
H368 C378 0.950 . S
H369 C380 0.950 . S
H370 C382 0.950 . S
H371 C383 0.950 . S
C372 H364 0.950 . S
C372 C373 1.386 . S
C372 C374 1.391 . S
C373 C372 1.386 . S
C373 C377 1.393 . S
C374 H366 0.950 . S
C374 C372 1.391 . S
C374 C375 1.400 . S
C375 C374 1.400 . S
C375 C376 1.398 . S
C375 C381 1.491 . S
C376 H367 0.950 . S
C376 C375 1.398 . S
C376 C377 1.391 . S
C377 H365 0.950 . S
C377 C373 1.393 . S
C377 C376 1.391 . S
C378 H368 0.950 . S
C378 C379 1.386 . S
C378 C380 1.391 . S
C379 C378 1.386 . S
C379 C383 1.393 . S
C380 H369 0.950 . S
C380 C378 1.391 . S
C380 C381 1.400 . S
C381 C375 1.491 . S
C381 C380 1.400 . S
C381 C382 1.398 . S
C382 H370 0.950 . S
C382 C381 1.398 . S
C382 C383 1.391 . S
C383 H371 0.950 . S
C383 C379 1.393 . S
C383 C382 1.391 . S
H384 C392 0.950 . S
H385 C397 0.950 . S
H386 C394 0.950 . S
H387 C396 0.950 . S
H388 C398 0.950 . S
H389 C400 0.950 . S
H390 C402 0.950 . S
H391 C403 0.950 . S
C392 H384 0.950 . S
C392 C393 1.386 . S
C392 C394 1.391 . S
C393 C392 1.386 . S
C393 C397 1.393 . S
C394 H386 0.950 . S
C394 C392 1.391 . S
C394 C395 1.400 . S
C395 C394 1.400 . S
C395 C396 1.398 . S
C395 C401 1.491 . S
C396 H387 0.950 . S
C396 C395 1.398 . S
C396 C397 1.391 . S
C397 H385 0.950 . S
C397 C393 1.393 . S
C397 C396 1.391 . S
C398 H388 0.950 . S
C398 C399 1.386 . S
C398 C400 1.391 . S
C399 C398 1.386 . S
C399 C403 1.393 . S
C400 H389 0.950 . S
C400 C398 1.391 . S
C400 C401 1.400 . S
C401 C395 1.491 . S
C401 C400 1.400 . S
C401 C402 1.398 . S
C402 H390 0.950 . S
C402 C401 1.398 . S
C402 C403 1.391 . S
C403 H391 0.950 . S
C403 C399 1.393 . S
C403 C402 1.391 . S
H404 C412 0.950 . S
H405 C417 0.950 . S
H406 C414 0.950 . S
H407 C416 0.950 . S
H408 C418 0.950 . S
H409 C420 0.950 . S
H410 C422 0.950 . S
H411 C423 0.950 . S
C412 H404 0.950 . S
C412 C413 1.386 . S
C412 C414 1.391 . S
C413 C412 1.386 . S
C413 C417 1.393 . S
C414 H406 0.950 . S
C414 C412 1.391 . S
C414 C415 1.400 . S
C415 C414 1.400 . S
C415 C416 1.398 . S
C415 C421 1.491 . S
C416 H407 0.950 . S
C416 C415 1.398 . S
C416 C417 1.391 . S
C417 H405 0.950 . S
C417 C413 1.393 . S
C417 C416 1.391 . S
C418 H408 0.950 . S
C418 C419 1.386 . S
C418 C420 1.391 . S
C419 C418 1.386 . S
C419 C423 1.393 . S
C420 H409 0.950 . S
C420 C418 1.391 . S
C420 C421 1.400 . S
C421 C415 1.491 . S
C421 C420 1.400 . S
C421 C422 1.398 . S
C422 H410 0.950 . S
C422 C421 1.398 . S
C422 C423 1.391 . S
C423 H411 0.950 . S
C423 C419 1.393 . S
C423 C422 1.391 . S
H424 C432 0.950 . S
H425 C437 0.950 . S
H426 C434 0.950 . S
H427 C436 0.950 . S
H428 C438 0.950 . S
H429 C440 0.950 . S
H430 C442 0.950 . S
H431 C443 0.950 . S
C432 H424 0.950 . S
C432 C433 1.386 . S
C432 C434 1.391 . S
C433 C432 1.386 . S
C433 C437 1.393 . S
C434 H426 0.950 . S
C434 C432 1.391 . S
C434 C435 1.400 . S
C435 C434 1.400 . S
C435 C436 1.398 . S
C435 C441 1.491 . S
C436 H427 0.950 . S
C436 C435 1.398 . S
C436 C437 1.391 . S
C437 H425 0.950 . S
C437 C433 1.393 . S
C437 C436 1.391 . S
C438 H428 0.950 . S
C438 C439 1.386 . S
C438 C440 1.391 . S
C439 C438 1.386 . S
C439 C443 1.393 . S
C440 H429 0.950 . S
C440 C438 1.391 . S
C440 C441 1.400 . S
C441 C435 1.491 . S
C441 C440 1.400 . S
C441 C442 1.398 . S
C442 H430 0.950 . S
C442 C441 1.398 . S
C442 C443 1.391 . S
C443 H431 0.950 . S
C443 C439 1.393 . S
C443 C442 1.391 . S
H444 C452 0.950 . S
H445 C457 0.950 . S
H446 C454 0.950 . S
H447 C456 0.950 . S
H448 C458 0.950 . S
H449 C460 0.950 . S
H450 C462 0.950 . S
H451 C463 0.950 . S
C452 H444 0.950 . S
C452 C453 1.386 . S
C452 C454 1.391 . S
C453 C452 1.386 . S
C453 C457 1.393 . S
C454 H446 0.950 . S
C454 C452 1.391 . S
C454 C455 1.400 . S
C455 C454 1.400 . S
C455 C456 1.398 . S
C455 C461 1.491 . S
C456 H447 0.950 . S
C456 C455 1.398 . S
C456 C457 1.391 . S
C457 H445 0.950 . S
C457 C453 1.393 . S
C457 C456 1.391 . S
C458 H448 0.950 . S
C458 C459 1.386 . S
C458 C460 1.391 . S
C459 C458 1.386 . S
C459 C463 1.393 . S
C460 H449 0.950 . S
C460 C458 1.391 . S
C460 C461 1.400 . S
C461 C455 1.491 . S
C461 C460 1.400 . S
C461 C462 1.398 . S
C462 H450 0.950 . S
C462 C461 1.398 . S
C462 C463 1.391 . S
C463 H451 0.950 . S
C463 C459 1.393 . S
C463 C462 1.391 . S
H464 C472 0.950 . S
H465 C477 0.950 . S
H466 C474 0.950 . S
H467 C476 0.950 . S
H468 C478 0.950 . S
H469 C480 0.950 . S
H470 C482 0.950 . S
H471 C483 0.950 . S
C472 H464 0.950 . S
C472 C473 1.386 . S
C472 C474 1.391 . S
C473 C472 1.386 . S
C473 C477 1.393 . S
C474 H466 0.950 . S
C474 C472 1.391 . S
C474 C475 1.400 . S
C475 C474 1.400 . S
C475 C476 1.398 . S
C475 C481 1.491 . S
C476 H467 0.950 . S
C476 C475 1.398 . S
C476 C477 1.391 . S
C477 H465 0.950 . S
C477 C473 1.393 . S
C477 C476 1.391 . S
C478 H468 0.950 . S
C478 C479 1.386 . S
C478 C480 1.391 . S
C479 C478 1.386 . S
C479 C483 1.393 . S
C480 H469 0.950 . S
C480 C478 1.391 . S
C480 C481 1.400 . S
C481 C475 1.491 . S
C481 C480 1.400 . S
C481 C482 1.398 . S
C482 H470 0.950 . S
C482 C481 1.398 . S
C482 C483 1.391 . S
C483 H471 0.950 . S
C483 C479 1.393 . S
C483 C482 1.391 . S
H484 C492 0.950 . S
H485 C497 0.950 . S
H486 C494 0.950 . S
H487 C496 0.950 . S
H488 C498 0.950 . S
H489 C500 0.950 . S
H490 C502 0.950 . S
H491 C503 0.950 . S
C492 H484 0.950 . S
C492 C493 1.386 . S
C492 C494 1.391 . S
C493 C492 1.386 . S
C493 C497 1.393 . S
C494 H486 0.950 . S
C494 C492 1.391 . S
C494 C495 1.400 . S
C495 C494 1.400 . S
C495 C496 1.398 . S
C495 C501 1.491 . S
C496 H487 0.950 . S
C496 C495 1.398 . S
C496 C497 1.391 . S
C497 H485 0.950 . S
C497 C493 1.393 . S
C497 C496 1.391 . S
C498 H488 0.950 . S
C498 C499 1.386 . S
C498 C500 1.391 . S
C499 C498 1.386 . S
C499 C503 1.393 . S
C500 H489 0.950 . S
C500 C498 1.391 . S
C500 C501 1.400 . S
C501 C495 1.491 . S
C501 C500 1.400 . S
C501 C502 1.398 . S
C502 H490 0.950 . S
C502 C501 1.398 . S
C502 C503 1.391 . S
C503 H491 0.950 . S
C503 C499 1.393 . S
C503 C502 1.391 . S
H504 C512 0.950 . S
H505 C517 0.950 . S
H506 C514 0.950 . S
H507 C516 0.950 . S
H508 C518 0.950 . S
H509 C520 0.950 . S
H510 C522 0.950 . S
H511 C523 0.950 . S
C512 H504 0.950 . S
C512 C513 1.386 . S
C512 C514 1.391 . S
C513 C512 1.386 . S
C513 C517 1.393 . S
C514 H506 0.950 . S
C514 C512 1.391 . S
C514 C515 1.400 . S
C515 C514 1.400 . S
C515 C516 1.398 . S
C515 C521 1.491 . S
C516 H507 0.950 . S
C516 C515 1.398 . S
C516 C517 1.391 . S
C517 H505 0.950 . S
C517 C513 1.393 . S
C517 C516 1.391 . S
C518 H508 0.950 . S
C518 C519 1.386 . S
C518 C520 1.391 . S
C519 C518 1.386 . S
C519 C523 1.393 . S
C520 H509 0.950 . S
C520 C518 1.391 . S
C520 C521 1.400 . S
C521 C515 1.491 . S
C521 C520 1.400 . S
C521 C522 1.398 . S
C522 H510 0.950 . S
C522 C521 1.398 . S
C522 C523 1.391 . S
C523 H511 0.950 . S
C523 C519 1.393 . S
C523 C522 1.391 . S
H524 C532 0.950 . S
H525 C537 0.950 . S
H526 C534 0.950 . S
H527 C536 0.950 . S
H528 C538 0.950 . S
H529 C540 0.950 . S
H530 C542 0.950 . S
H531 C543 0.950 . S
C532 H524 0.950 . S
C532 C533 1.386 . S
C532 C534 1.391 . S
C533 C532 1.386 . S
C533 C537 1.393 . S
C534 H526 0.950 . S
C534 C532 1.391 . S
C534 C535 1.400 . S
C535 C534 1.400 . S
C535 C536 1.398 . S
C535 C541 1.491 . S
C536 H527 0.950 . S
C536 C535 1.398 . S
C536 C537 1.391 . S
C537 H525 0.950 . S
C537 C533 1.393 . S
C537 C536 1.391 . S
C538 H528 0.950 . S
C538 C539 1.386 . S
C538 C540 1.391 . S
C539 C538 1.386 . S
C539 C543 1.393 . S
C540 H529 0.950 . S
C540 C538 1.391 . S
C540 C541 1.400 . S
C541 C535 1.491 . S
C541 C540 1.400 . S
C541 C542 1.398 . S
C542 H530 0.950 . S
C542 C541 1.398 . S
C542 C543 1.391 . S
C543 H531 0.950 . S
C543 C539 1.393 . S
C543 C542 1.391 . S
H544 C552 0.950 . S
H545 C557 0.950 . S
H546 C554 0.950 . S
H547 C556 0.950 . S
H548 C558 0.950 . S
H549 C560 0.950 . S
H550 C562 0.950 . S
H551 C563 0.950 . S
C552 H544 0.950 . S
C552 C553 1.386 . S
C552 C554 1.391 . S
C553 C552 1.386 . S
C553 C557 1.393 . S
C554 H546 0.950 . S
C554 C552 1.391 . S
C554 C555 1.400 . S
C555 C554 1.400 . S
C555 C556 1.398 . S
C555 C561 1.491 . S
C556 H547 0.950 . S
C556 C555 1.398 . S
C556 C557 1.391 . S
C557 H545 0.950 . S
C557 C553 1.393 . S
C557 C556 1.391 . S
C558 H548 0.950 . S
C558 C559 1.386 . S
C558 C560 1.391 . S
C559 C558 1.386 . S
C559 C563 1.393 . S
C560 H549 0.950 . S
C560 C558 1.391 . S
C560 C561 1.400 . S
C561 C555 1.491 . S
C561 C560 1.400 . S
C561 C562 1.398 . S
C562 H550 0.950 . S
C562 C561 1.398 . S
C562 C563 1.391 . S
C563 H551 0.950 . S
C563 C559 1.393 . S
C563 C562 1.391 . S
H564 C572 0.950 . S
H565 C577 0.950 . S
H566 C574 0.950 . S
H567 C576 0.950 . S
H568 C578 0.950 . S
H569 C580 0.950 . S
H570 C582 0.950 . S
H571 C583 0.950 . S
C572 H564 0.950 . S
C572 C573 1.386 . S
C572 C574 1.391 . S
C573 C572 1.386 . S
C573 C577 1.393 . S
C574 H566 0.950 . S
C574 C572 1.391 . S
C574 C575 1.400 . S
C575 C574 1.400 . S
C575 C576 1.398 . S
C575 C581 1.491 . S
C576 H567 0.950 . S
C576 C575 1.398 . S
C576 C577 1.391 . S
C577 H565 0.950 . S
C577 C573 1.393 . S
C577 C576 1.391 . S
C578 H568 0.950 . S
C578 C579 1.386 . S
C578 C580 1.391 . S
C579 C578 1.386 . S
C579 C583 1.393 . S
C580 H569 0.950 . S
C580 C578 1.391 . S
C580 C581 1.400 . S
C581 C575 1.491 . S
C581 C580 1.400 . S
C581 C582 1.398 . S
C582 H570 0.950 . S
C582 C581 1.398 . S
C582 C583 1.391 . S
C583 H571 0.950 . S
C583 C579 1.393 . S
C583 C582 1.391 . S
H584 C592 0.950 . S
H585 C597 0.950 . S
H586 C594 0.950 . S
H587 C596 0.950 . S
H588 C598 0.950 . S
H589 C600 0.950 . S
H590 C602 0.950 . S
H591 C603 0.950 . S
C592 H584 0.950 . S
C592 C593 1.386 . S
C592 C594 1.391 . S
C593 C592 1.386 . S
C593 C597 1.393 . S
C594 H586 0.950 . S
C594 C592 1.391 . S
C594 C595 1.400 . S
C595 C594 1.400 . S
C595 C596 1.398 . S
C595 C601 1.491 . S
C596 H587 0.950 . S
C596 C595 1.398 . S
C596 C597 1.391 . S
C597 H585 0.950 . S
C597 C593 1.393 . S
C597 C596 1.391 . S
C598 H588 0.950 . S
C598 C599 1.386 . S
C598 C600 1.391 . S
C599 C598 1.386 . S
C599 C603 1.393 . S
C600 H589 0.950 . S
C600 C598 1.391 . S
C600 C601 1.400 . S
C601 C595 1.491 . S
C601 C600 1.400 . S
C601 C602 1.398 . S
C602 H590 0.950 . S
C602 C601 1.398 . S
C602 C603 1.391 . S
C603 H591 0.950 . S
C603 C599 1.393 . S
C603 C602 1.391 . S
H604 C612 0.950 . S
H605 C617 0.950 . S
H606 C614 0.950 . S
H607 C616 0.950 . S
H608 C618 0.950 . S
H609 C620 0.950 . S
H610 C622 0.950 . S
H611 C623 0.950 . S
C612 H604 0.950 . S
C612 C613 1.386 . S
C612 C614 1.391 . S
C613 C612 1.386 . S
C613 C617 1.393 . S
C614 H606 0.950 . S
C614 C612 1.391 . S
C614 C615 1.400 . S
C615 C614 1.400 . S
C615 C616 1.398 . S
C615 C621 1.491 . S
C616 H607 0.950 . S
C616 C615 1.398 . S
C616 C617 1.391 . S
C617 H605 0.950 . S
C617 C613 1.393 . S
C617 C616 1.391 . S
C618 H608 0.950 . S
C618 C619 1.386 . S
C618 C620 1.391 . S
C619 C618 1.386 . S
C619 C623 1.393 . S
C620 H609 0.950 . S
C620 C618 1.391 . S
C620 C621 1.400 . S
C621 C615 1.491 . S
C621 C620 1.400 . S
C621 C622 1.398 . S
C622 H610 0.950 . S
C622 C621 1.398 . S
C622 C623 1.391 . S
C623 H611 0.950 . S
C623 C619 1.393 . S
C623 C622 1.391 . S
H624 C632 0.950 . S
H625 C637 0.950 . S
H626 C634 0.950 . S
H627 C636 0.950 . S
H628 C638 0.950 . S
H629 C640 0.950 . S
H630 C642 0.950 . S
H631 C643 0.950 . S
C632 H624 0.950 . S
C632 C633 1.386 . S
C632 C634 1.391 . S
C633 C632 1.386 . S
C633 C637 1.393 . S
C634 H626 0.950 . S
C634 C632 1.391 . S
C634 C635 1.400 . S
C635 C634 1.400 . S
C635 C636 1.398 . S
C635 C641 1.491 . S
C636 H627 0.950 . S
C636 C635 1.398 . S
C636 C637 1.391 . S
C637 H625 0.950 . S
C637 C633 1.393 . S
C637 C636 1.391 . S
C638 H628 0.950 . S
C638 C639 1.386 . S
C638 C640 1.391 . S
C639 C638 1.386 . S
C639 C643 1.393 . S
C640 H629 0.950 . S
C640 C638 1.391 . S
C640 C641 1.400 . S
C641 C635 1.491 . S
C641 C640 1.400 . S
C641 C642 1.398 . S
C642 H630 0.950 . S
C642 C641 1.398 . S
C642 C643 1.391 . S
C643 H631 0.950 . S
C643 C639 1.393 . S
C643 C642 1.391 . S
H644 C652 0.950 . S
H645 C657 0.950 . S
H646 C654 0.950 . S
H647 C656 0.950 . S
H648 C658 0.950 . S
H649 C660 0.950 . S
H650 C662 0.950 . S
H651 C663 0.950 . S
C652 H644 0.950 . S
C652 C653 1.386 . S
C652 C654 1.391 . S
C653 C652 1.386 . S
C653 C657 1.393 . S
C654 H646 0.950 . S
C654 C652 1.391 . S
C654 C655 1.400 . S
C655 C654 1.400 . S
C655 C656 1.398 . S
C655 C661 1.491 . S
C656 H647 0.950 . S
C656 C655 1.398 . S
C656 C657 1.391 . S
C657 H645 0.950 . S
C657 C653 1.393 . S
C657 C656 1.391 . S
C658 H648 0.950 . S
C658 C659 1.386 . S
C658 C660 1.391 . S
C659 C658 1.386 . S
C659 C663 1.393 . S
C660 H649 0.950 . S
C660 C658 1.391 . S
C660 C661 1.400 . S
C661 C655 1.491 . S
C661 C660 1.400 . S
C661 C662 1.398 . S
C662 H650 0.950 . S
C662 C661 1.398 . S
C662 C663 1.391 . S
C663 H651 0.950 . S
C663 C659 1.393 . S
C663 C662 1.391 . S
H664 C672 0.950 . S
H665 C677 0.950 . S
H666 C674 0.950 . S
H667 C676 0.950 . S
H668 C678 0.950 . S
H669 C680 0.950 . S
H670 C682 0.950 . S
H671 C683 0.950 . S
C672 H664 0.950 . S
C672 C673 1.386 . S
C672 C674 1.391 . S
C673 C672 1.386 . S
C673 C677 1.393 . S
C674 H666 0.950 . S
C674 C672 1.391 . S
C674 C675 1.400 . S
C675 C674 1.400 . S
C675 C676 1.398 . S
C675 C681 1.491 . S
C676 H667 0.950 . S
C676 C675 1.398 . S
C676 C677 1.391 . S
C677 H665 0.950 . S
C677 C673 1.393 . S
C677 C676 1.391 . S
C678 H668 0.950 . S
C678 C679 1.386 . S
C678 C680 1.391 . S
C679 C678 1.386 . S
C679 C683 1.393 . S
C680 H669 0.950 . S
C680 C678 1.391 . S
C680 C681 1.400 . S
C681 C675 1.491 . S
C681 C680 1.400 . S
C681 C682 1.398 . S
C682 H670 0.950 . S
C682 C681 1.398 . S
C682 C683 1.391 . S
C683 H671 0.950 . S
C683 C679 1.393 . S
C683 C682 1.391 . S
H684 C692 0.950 . S
H685 C697 0.950 . S
H686 C694 0.950 . S
H687 C696 0.950 . S
H688 C698 0.950 . S
H689 C700 0.950 . S
H690 C702 0.950 . S
H691 C703 0.950 . S
C692 H684 0.950 . S
C692 C693 1.386 . S
C692 C694 1.391 . S
C693 C692 1.386 . S
C693 C697 1.393 . S
C694 H686 0.950 . S
C694 C692 1.391 . S
C694 C695 1.400 . S
C695 C694 1.400 . S
C695 C696 1.398 . S
C695 C701 1.491 . S
C696 H687 0.950 . S
C696 C695 1.398 . S
C696 C697 1.391 . S
C697 H685 0.950 . S
C697 C693 1.393 . S
C697 C696 1.391 . S
C698 H688 0.950 . S
C698 C699 1.386 . S
C698 C700 1.391 . S
C699 C698 1.386 . S
C699 C703 1.393 . S
C700 H689 0.950 . S
C700 C698 1.391 . S
C700 C701 1.400 . S
C701 C695 1.491 . S
C701 C700 1.400 . S
C701 C702 1.398 . S
C702 H690 0.950 . S
C702 C701 1.398 . S
C702 C703 1.391 . S
C703 H691 0.950 . S
C703 C699 1.393 . S
C703 C702 1.391 . S
H704 C712 0.950 . S
H705 C717 0.950 . S
H706 C714 0.950 . S
H707 C716 0.950 . S
H708 C718 0.950 . S
H709 C720 0.950 . S
H710 C722 0.950 . S
H711 C723 0.950 . S
C712 H704 0.950 . S
C712 C713 1.386 . S
C712 C714 1.391 . S
C713 C712 1.386 . S
C713 C717 1.393 . S
C714 H706 0.950 . S
C714 C712 1.391 . S
C714 C715 1.400 . S
C715 C714 1.400 . S
C715 C716 1.398 . S
C715 C721 1.491 . S
C716 H707 0.950 . S
C716 C715 1.398 . S
C716 C717 1.391 . S
C717 H705 0.950 . S
C717 C713 1.393 . S
C717 C716 1.391 . S
C718 H708 0.950 . S
C718 C719 1.386 . S
C718 C720 1.391 . S
C719 C718 1.386 . S
C719 C723 1.393 . S
C720 H709 0.950 . S
C720 C718 1.391 . S
C720 C721 1.400 . S
C721 C715 1.491 . S
C721 C720 1.400 . S
C721 C722 1.398 . S
C722 H710 0.950 . S
C722 C721 1.398 . S
C722 C723 1.391 . S
C723 H711 0.950 . S
C723 C719 1.393 . S
C723 C722 1.391 . S
H724 C732 0.950 . S
H725 C737 0.950 . S
H726 C734 0.950 . S
H727 C736 0.950 . S
H728 C738 0.950 . S
H729 C740 0.950 . S
H730 C742 0.950 . S
H731 C743 0.950 . S
C732 H724 0.950 . S
C732 C733 1.386 . S
C732 C734 1.391 . S
C733 C732 1.386 . S
C733 C737 1.393 . S
C734 H726 0.950 . S
C734 C732 1.391 . S
C734 C735 1.400 . S
C735 C734 1.400 . S
C735 C736 1.398 . S
C735 C741 1.491 . S
C736 H727 0.950 . S
C736 C735 1.398 . S
C736 C737 1.391 . S
C737 H725 0.950 . S
C737 C733 1.393 . S
C737 C736 1.391 . S
C738 H728 0.950 . S
C738 C739 1.386 . S
C738 C740 1.391 . S
C739 C738 1.386 . S
C739 C743 1.393 . S
C740 H729 0.950 . S
C740 C738 1.391 . S
C740 C741 1.400 . S
C741 C735 1.491 . S
C741 C740 1.400 . S
C741 C742 1.398 . S
C742 H730 0.950 . S
C742 C741 1.398 . S
C742 C743 1.391 . S
C743 H731 0.950 . S
C743 C739 1.393 . S
C743 C742 1.391 . S
H744 C752 0.950 . S
H745 C757 0.950 . S
H746 C754 0.950 . S
H747 C756 0.950 . S
H748 C758 0.950 . S
H749 C760 0.950 . S
H750 C762 0.950 . S
H751 C763 0.950 . S
C752 H744 0.950 . S
C752 C753 1.386 . S
C752 C754 1.391 . S
C753 C752 1.386 . S
C753 C757 1.393 . S
C754 H746 0.950 . S
C754 C752 1.391 . S
C754 C755 1.400 . S
C755 C754 1.400 . S
C755 C756 1.398 . S
C755 C761 1.491 1_565 S
C756 H747 0.950 . S
C756 C755 1.398 . S
C756 C757 1.391 . S
C757 H745 0.950 . S
C757 C753 1.393 . S
C757 C756 1.391 . S
C758 H748 0.950 . S
C758 C759 1.386 . S
C758 C760 1.391 . S
C759 C758 1.386 . S
C759 C763 1.393 . S
C760 H749 0.950 . S
C760 C758 1.391 . S
C760 C761 1.400 . S
C761 C755 1.491 1_545 S
C761 C760 1.400 . S
C761 C762 1.398 . S
C762 H750 0.950 . S
C762 C761 1.398 . S
C762 C763 1.391 . S
C763 H751 0.950 . S
C763 C759 1.393 . S
C763 C762 1.391 . S
H764 C772 0.950 . S
H765 C777 0.950 . S
H766 C774 0.950 . S
H767 C776 0.950 . S
H768 C778 0.950 . S
H769 C780 0.950 . S
H770 C782 0.950 . S
H771 C783 0.950 . S
C772 H764 0.950 . S
C772 C773 1.386 . S
C772 C774 1.391 . S
C773 C772 1.386 . S
C773 C777 1.393 . S
C774 H766 0.950 . S
C774 C772 1.391 . S
C774 C775 1.400 . S
C775 C774 1.400 . S
C775 C776 1.398 . S
C775 C781 1.491 1_455 S
C776 H767 0.950 . S
C776 C775 1.398 . S
C776 C777 1.391 . S
C777 H765 0.950 . S
C777 C773 1.393 . S
C777 C776 1.391 . S
C778 H768 0.950 . S
C778 C779 1.386 . S
C778 C780 1.391 . S
C779 C778 1.386 . S
C779 C783 1.393 . S
C780 H769 0.950 . S
C780 C778 1.391 . S
C780 C781 1.400 . S
C781 C775 1.491 1_655 S
C781 C780 1.400 . S
C781 C782 1.398 . S
C782 H770 0.950 . S
C782 C781 1.398 . S
C782 C783 1.391 . S
C783 H771 0.950 . S
C783 C779 1.393 . S
C783 C782 1.391 . S
H784 C792 0.950 . S
H785 C797 0.950 . S
H786 C794 0.950 . S
H787 C796 0.950 . S
H788 C798 0.950 . S
H789 C800 0.950 . S
H790 C802 0.950 . S
H791 C803 0.950 . S
C792 H784 0.950 . S
C792 C793 1.386 . S
C792 C794 1.391 . S
C793 C792 1.386 . S
C793 C797 1.393 . S
C794 H786 0.950 . S
C794 C792 1.391 . S
C794 C795 1.400 . S
C795 C794 1.400 . S
C795 C796 1.398 . S
C795 C801 1.491 1_545 S
C796 H787 0.950 . S
C796 C795 1.398 . S
C796 C797 1.391 . S
C797 H785 0.950 . S
C797 C793 1.393 . S
C797 C796 1.391 . S
C798 H788 0.950 . S
C798 C799 1.386 . S
C798 C800 1.391 . S
C799 C798 1.386 . S
C799 C803 1.393 . S
C800 H789 0.950 . S
C800 C798 1.391 . S
C800 C801 1.400 . S
C801 C795 1.491 1_565 S
C801 C800 1.400 . S
C801 C802 1.398 . S
C802 H790 0.950 . S
C802 C801 1.398 . S
C802 C803 1.391 . S
C803 H791 0.950 . S
C803 C799 1.393 . S
C803 C802 1.391 . S
H804 C812 0.950 . S
H805 C817 0.950 . S
H806 C814 0.950 . S
H807 C816 0.950 . S
H808 C818 0.950 . S
H809 C820 0.950 . S
H810 C822 0.950 . S
H811 C823 0.950 . S
C812 H804 0.950 . S
C812 C813 1.386 . S
C812 C814 1.391 . S
C813 C812 1.386 . S
C813 C817 1.393 . S
C814 H806 0.950 . S
C814 C812 1.391 . S
C814 C815 1.400 . S
C815 C814 1.400 . S
C815 C816 1.398 . S
C815 C821 1.491 1_455 S
C816 H807 0.950 . S
C816 C815 1.398 . S
C816 C817 1.391 . S
C817 H805 0.950 . S
C817 C813 1.393 . S
C817 C816 1.391 . S
C818 H808 0.950 . S
C818 C819 1.386 . S
C818 C820 1.391 . S
C819 C818 1.386 . S
C819 C823 1.393 . S
C820 H809 0.950 . S
C820 C818 1.391 . S
C820 C821 1.400 . S
C821 C815 1.491 1_655 S
C821 C820 1.400 . S
C821 C822 1.398 . S
C822 H810 0.950 . S
C822 C821 1.398 . S
C822 C823 1.391 . S
C823 H811 0.950 . S
C823 C819 1.393 . S
C823 C822 1.391 . S
H824 C832 0.950 . S
H825 C837 0.950 . S
H826 C834 0.950 . S
H827 C836 0.950 . S
H828 C838 0.950 . S
H829 C840 0.950 . S
H830 C842 0.950 . S
H831 C843 0.950 . S
C832 H824 0.950 . S
C832 C833 1.386 . S
C832 C834 1.391 . S
C833 C832 1.386 . S
C833 C837 1.393 . S
C834 H826 0.950 . S
C834 C832 1.391 . S
C834 C835 1.400 . S
C835 C834 1.400 . S
C835 C836 1.398 . S
C835 C841 1.491 1_556 S
C836 H827 0.950 . S
C836 C835 1.398 . S
C836 C837 1.391 . S
C837 H825 0.950 . S
C837 C833 1.393 . S
C837 C836 1.391 . S
C838 H828 0.950 . S
C838 C839 1.386 . S
C838 C840 1.391 . S
C839 C838 1.386 . S
C839 C843 1.393 . S
C840 H829 0.950 . S
C840 C838 1.391 . S
C840 C841 1.400 . S
C841 C835 1.491 1_554 S
C841 C840 1.400 . S
C841 C842 1.398 . S
C842 H830 0.950 . S
C842 C841 1.398 . S
C842 C843 1.391 . S
C843 H831 0.950 . S
C843 C839 1.393 . S
C843 C842 1.391 . S
H844 C852 0.950 . S
H845 C857 0.950 . S
H846 C854 0.950 . S
H847 C856 0.950 . S
H848 C858 0.950 . S
H849 C860 0.950 . S
H850 C862 0.950 . S
H851 C863 0.950 . S
C852 H844 0.950 . S
C852 C853 1.386 . S
C852 C854 1.391 . S
C853 C852 1.386 . S
C853 C857 1.393 . S
C854 H846 0.950 . S
C854 C852 1.391 . S
C854 C855 1.400 . S
C855 C854 1.400 . S
C855 C856 1.398 . S
C855 C861 1.491 1_556 S
C856 H847 0.950 . S
C856 C855 1.398 . S
C856 C857 1.391 . S
C857 H845 0.950 . S
C857 C853 1.393 . S
C857 C856 1.391 . S
C858 H848 0.950 . S
C858 C859 1.386 . S
C858 C860 1.391 . S
C859 C858 1.386 . S
C859 C863 1.393 . S
C860 H849 0.950 . S
C860 C858 1.391 . S
C860 C861 1.400 . S
C861 C855 1.491 1_554 S
C861 C860 1.400 . S
C861 C862 1.398 . S
C862 H850 0.950 . S
C862 C861 1.398 . S
C862 C863 1.391 . S
C863 H851 0.950 . S
C863 C859 1.393 . S
C863 C862 1.391 . S
H864 C872 0.950 . S
H865 C877 0.950 . S
H866 C874 0.950 . S
H867 C876 0.950 . S
H868 C878 0.950 . S
H869 C880 0.950 . S
H870 C882 0.950 . S
H871 C883 0.950 . S
C872 H864 0.950 . S
C872 C873 1.386 . S
C872 C874 1.391 . S
C873 C872 1.386 . S
C873 C877 1.393 . S
C874 H866 0.950 . S
C874 C872 1.391 . S
C874 C875 1.400 . S
C875 C874 1.400 . S
C875 C876 1.398 . S
C875 C881 1.491 1_554 S
C876 H867 0.950 . S
C876 C875 1.398 . S
C876 C877 1.391 . S
C877 H865 0.950 . S
C877 C873 1.393 . S
C877 C876 1.391 . S
C878 H868 0.950 . S
C878 C879 1.386 . S
C878 C880 1.391 . S
C879 C878 1.386 . S
C879 C883 1.393 . S
C880 H869 0.950 . S
C880 C878 1.391 . S
C880 C881 1.400 . S
C881 C875 1.491 1_556 S
C881 C880 1.400 . S
C881 C882 1.398 . S
C882 H870 0.950 . S
C882 C881 1.398 . S
C882 C883 1.391 . S
C883 H871 0.950 . S
C883 C879 1.393 . S
C883 C882 1.391 . S
H884 C892 0.950 . S
H885 C897 0.950 . S
H886 C894 0.950 . S
H887 C896 0.950 . S
H888 C898 0.950 . S
H889 C900 0.950 . S
H890 C902 0.950 . S
H891 C903 0.950 . S
C892 H884 0.950 . S
C892 C893 1.386 . S
C892 C894 1.391 . S
C893 C892 1.386 . S
C893 C897 1.393 . S
C894 H886 0.950 . S
C894 C892 1.391 . S
C894 C895 1.400 . S
C895 C894 1.400 . S
C895 C896 1.398 . S
C895 C901 1.491 1_556 S
C896 H887 0.950 . S
C896 C895 1.398 . S
C896 C897 1.391 . S
C897 H885 0.950 . S
C897 C893 1.393 . S
C897 C896 1.391 . S
C898 H888 0.950 . S
C898 C899 1.386 . S
C898 C900 1.391 . S
C899 C898 1.386 . S
C899 C903 1.393 . S
C900 H889 0.950 . S
C900 C898 1.391 . S
C900 C901 1.400 . S
C901 C895 1.491 1_554 S
C901 C900 1.400 . S
C901 C902 1.398 . S
C902 H890 0.950 . S
C902 C901 1.398 . S
C902 C903 1.391 . S
C903 H891 0.950 . S
C903 C899 1.393 . S
C903 C902 1.391 . S
H904 C912 0.950 . S
H905 C917 0.950 . S
H906 C914 0.950 . S
H907 C916 0.950 . S
H908 C918 0.950 . S
H909 C920 0.950 . S
H910 C922 0.950 . S
H911 C923 0.950 . S
C912 H904 0.950 . S
C912 C913 1.386 . S
C912 C914 1.391 . S
C913 C912 1.386 . S
C913 C917 1.393 . S
C914 H906 0.950 . S
C914 C912 1.391 . S
C914 C915 1.400 . S
C915 C914 1.400 . S
C915 C916 1.398 . S
C915 C921 1.491 1_455 S
C916 H907 0.950 . S
C916 C915 1.398 . S
C916 C917 1.391 . S
C917 H905 0.950 . S
C917 C913 1.393 . S
C917 C916 1.391 . S
C918 H908 0.950 . S
C918 C919 1.386 . S
C918 C920 1.391 . S
C919 C918 1.386 . S
C919 C923 1.393 . S
C920 H909 0.950 . S
C920 C918 1.391 . S
C920 C921 1.400 . S
C921 C915 1.491 1_655 S
C921 C920 1.400 . S
C921 C922 1.398 . S
C922 H910 0.950 . S
C922 C921 1.398 . S
C922 C923 1.391 . S
C923 H911 0.950 . S
C923 C919 1.393 . S
C923 C922 1.391 . S
H924 C932 0.950 . S
H925 C937 0.950 . S
H926 C934 0.950 . S
H927 C936 0.950 . S
H928 C938 0.950 . S
H929 C940 0.950 . S
H930 C942 0.950 . S
H931 C943 0.950 . S
C932 H924 0.950 . S
C932 C933 1.386 . S
C932 C934 1.391 . S
C933 C932 1.386 . S
C933 C937 1.393 . S
C934 H926 0.950 . S
C934 C932 1.391 . S
C934 C935 1.400 . S
C935 C934 1.400 . S
C935 C936 1.398 . S
C935 C941 1.491 1_655 S
C936 H927 0.950 . S
C936 C935 1.398 . S
C936 C937 1.391 . S
C937 H925 0.950 . S
C937 C933 1.393 . S
C937 C936 1.391 . S
C938 H928 0.950 . S
C938 C939 1.386 . S
C938 C940 1.391 . S
C939 C938 1.386 . S
C939 C943 1.393 . S
C940 H929 0.950 . S
C940 C938 1.391 . S
C940 C941 1.400 . S
C941 C935 1.491 1_455 S
C941 C940 1.400 . S
C941 C942 1.398 . S
C942 H930 0.950 . S
C942 C941 1.398 . S
C942 C943 1.391 . S
C943 H931 0.950 . S
C943 C939 1.393 . S
C943 C942 1.391 . S
H944 C952 0.950 . S
H945 C957 0.950 . S
H946 C954 0.950 . S
H947 C956 0.950 . S
H948 C958 0.950 . S
H949 C960 0.950 . S
H950 C962 0.950 . S
H951 C963 0.950 . S
C952 H944 0.950 . S
C952 C953 1.386 . S
C952 C954 1.391 . S
C953 C952 1.386 . S
C953 C957 1.393 . S
C954 H946 0.950 . S
C954 C952 1.391 . S
C954 C955 1.400 . S
C955 C954 1.400 . S
C955 C956 1.398 . S
C955 C961 1.491 1_545 S
C956 H947 0.950 . S
C956 C955 1.398 . S
C956 C957 1.391 . S
C957 H945 0.950 . S
C957 C953 1.393 . S
C957 C956 1.391 . S
C958 H948 0.950 . S
C958 C959 1.386 . S
C958 C960 1.391 . S
C959 C958 1.386 . S
C959 C963 1.393 . S
C960 H949 0.950 . S
C960 C958 1.391 . S
C960 C961 1.400 . S
C961 C955 1.491 1_565 S
C961 C960 1.400 . S
C961 C962 1.398 . S
C962 H950 0.950 . S
C962 C961 1.398 . S
C962 C963 1.391 . S
C963 H951 0.950 . S
C963 C959 1.393 . S
C963 C962 1.391 . S
H964 C972 0.950 . S
H965 C977 0.950 . S
H966 C974 0.950 . S
H967 C976 0.950 . S
H968 C978 0.950 . S
H969 C980 0.950 . S
H970 C982 0.950 . S
H971 C983 0.950 . S
C972 H964 0.950 . S
C972 C973 1.386 . S
C972 C974 1.391 . S
C973 C972 1.386 . S
C973 C977 1.393 . S
C974 H966 0.950 . S
C974 C972 1.391 . S
C974 C975 1.400 . S
C975 C974 1.400 . S
C975 C976 1.398 . S
C975 C981 1.491 1_565 S
C976 H967 0.950 . S
C976 C975 1.398 . S
C976 C977 1.391 . S
C977 H965 0.950 . S
C977 C973 1.393 . S
C977 C976 1.391 . S
C978 H968 0.950 . S
C978 C979 1.386 . S
C978 C980 1.391 . S
C979 C978 1.386 . S
C979 C983 1.393 . S
C980 H969 0.950 . S
C980 C978 1.391 . S
C980 C981 1.400 . S
C981 C975 1.491 1_545 S
C981 C980 1.400 . S
C981 C982 1.398 . S
C982 H970 0.950 . S
C982 C981 1.398 . S
C982 C983 1.391 . S
C983 H971 0.950 . S
C983 C979 1.393 . S
C983 C982 1.391 . S
C273 C5 1.426 . S
C279 C161 1.428 . S
C293 C94 1.440 . S
C299 C31 1.414 . S
C313 C53 1.440 . S
C319 C117 1.414 . S
C333 C71 1.417 . S
C339 C139 1.438 . S
C353 C75 1.430 . S
C359 C204 1.425 . S
C373 C9 1.417 . S
C379 C227 1.438 . S
C393 C248 1.427 . S
C399 C27 1.428 . S
C413 C49 1.422 . S
C419 C182 1.432 . S
C433 C93 1.440 . S
C439 C7 1.415 . S
C453 C119 1.414 . S
C459 C28 1.440 . S
C473 C141 1.424 . S
C479 C50 1.430 . S
C493 C73 1.419 . S
C499 C163 1.435 . S
C513 C72 1.420 . S
C519 C181 1.434 . S
C533 C6 1.431 . S
C539 C203 1.423 . S
C553 C229 1.422 . S
C559 C29 1.432 . S
C573 C247 1.440 . S
C579 C51 1.415 . S
C593 C95 1.420 . S
C599 C159 1.435 . S
C613 C207 1.419 . S
C619 C183 1.436 . S
C633 C205 1.423 . S
C639 C225 1.431 . S
C653 C251 1.436 . S
C659 C226 1.418 . S
C673 C249 1.416 . S
C679 C185 1.439 . S
C693 C138 1.437 . S
C699 C115 1.417 . S
C713 C137 1.427 . S
C719 C160 1.428 . S
C733 C97 1.440 . S
C739 C116 1.414 . S
C753 C70 1.549 . S
C759 C8 1.538 . S
C773 C4 1.547 . S
C779 C26 1.540 . S
C793 C30 1.537 . S
C799 C48 1.550 . S
C813 C74 1.550 . S
C819 C52 1.537 . S
C833 C224 1.544 . S
C839 C96 1.542 . S
C853 C250 1.547 . S
C859 C114 1.540 . S
C873 C136 1.540 . S
C879 C184 1.547 . S
C893 C206 1.546 . S
C899 C158 1.541 . S
C913 C162 1.545 . S
C919 C118 1.541 . S
C933 C246 1.537 . S
C939 C202 1.549 . S
C953 C228 1.540 . S
C959 C180 1.547 . S
C973 C140 1.541 . S
C979 C92 1.546 . S
