# Generated by pormake.
# Topology ums, (4)-cn, num edge types: 1
# Building blocks:
#     Node 0, Type 0, BuildingBlock: QUQFOY_clean_sbu_3, # of connection points: 4
#     Node 1, Type 0, BuildingBlock: QUQFOY_clean_sbu_3, # of connection points: 4
#     Node 2, Type 0, BuildingBlock: QUQFOY_clean_sbu_3, # of connection points: 4
#     Node 3, Type 0, BuildingBlock: QUQFOY_clean_sbu_3, # of connection points: 4
#     Node 4, Type 0, BuildingBlock: QUQFOY_clean_sbu_3, # of connection points: 4
#     Node 5, Type 0, BuildingBlock: QUQFOY_clean_sbu_3, # of connection points: 4
#     Node 6, Type 0, BuildingBlock: QUQFOY_clean_sbu_3, # of connection points: 4
#     Node 7, Type 0, BuildingBlock: QUQFOY_clean_sbu_3, # of connection points: 4
#     Node 8, Type 0, BuildingBlock: QUQFOY_clean_sbu_3, # of connection points: 4
#     Node 9, Type 0, BuildingBlock: QUQFOY_clean_sbu_3, # of connection points: 4
#     Node 10, Type 0, BuildingBlock: QUQFOY_clean_sbu_3, # of connection points: 4
#     Node 11, Type 0, BuildingBlock: QUQFOY_clean_sbu_3, # of connection points: 4
#     Node 12, Type 0, BuildingBlock: QUQFOY_clean_sbu_3, # of connection points: 4
#     Node 13, Type 0, BuildingBlock: QUQFOY_clean_sbu_3, # of connection points: 4
#     Node 14, Type 0, BuildingBlock: QUQFOY_clean_sbu_3, # of connection points: 4
#     Node 15, Type 0, BuildingBlock: QUQFOY_clean_sbu_3, # of connection points: 4
#     Node 16, Type 0, BuildingBlock: QUQFOY_clean_sbu_3, # of connection points: 4
#     Node 17, Type 0, BuildingBlock: QUQFOY_clean_sbu_3, # of connection points: 4
#     Node 18, Type 0, BuildingBlock: QUQFOY_clean_sbu_3, # of connection points: 4
#     Node 19, Type 0, BuildingBlock: QUQFOY_clean_sbu_3, # of connection points: 4
#     Node 20, Type 0, BuildingBlock: QUQFOY_clean_sbu_3, # of connection points: 4
#     Node 21, Type 0, BuildingBlock: QUQFOY_clean_sbu_3, # of connection points: 4
#     Node 22, Type 0, BuildingBlock: QUQFOY_clean_sbu_3, # of connection points: 4
#     Node 23, Type 0, BuildingBlock: QUQFOY_clean_sbu_3, # of connection points: 4
#     Node 24, Type 0, BuildingBlock: QUQFOY_clean_sbu_3, # of connection points: 4
#     Node 25, Type 0, BuildingBlock: QUQFOY_clean_sbu_3, # of connection points: 4
#     Node 26, Type 0, BuildingBlock: QUQFOY_clean_sbu_3, # of connection points: 4
#     Node 27, Type 0, BuildingBlock: QUQFOY_clean_sbu_3, # of connection points: 4
#     Node 28, Type 0, BuildingBlock: QUQFOY_clean_sbu_3, # of connection points: 4
#     Node 29, Type 0, BuildingBlock: QUQFOY_clean_sbu_3, # of connection points: 4
#     Node 30, Type 0, BuildingBlock: QUQFOY_clean_sbu_3, # of connection points: 4
#     Node 31, Type 0, BuildingBlock: QUQFOY_clean_sbu_3, # of connection points: 4
#     Node 32, Type 0, BuildingBlock: QUQFOY_clean_sbu_3, # of connection points: 4
#     Node 33, Type 0, BuildingBlock: QUQFOY_clean_sbu_3, # of connection points: 4
#     Node 34, Type 0, BuildingBlock: QUQFOY_clean_sbu_3, # of connection points: 4
#     Node 35, Type 0, BuildingBlock: QUQFOY_clean_sbu_3, # of connection points: 4
#     Edge 36, Type (0, 0), BuildingBlock: MIFKUJ_clean_linker_0, # of connection points: 2
#     Edge 37, Type (0, 0), BuildingBlock: MIFKUJ_clean_linker_0, # of connection points: 2
#     Edge 38, Type (0, 0), BuildingBlock: MIFKUJ_clean_linker_0, # of connection points: 2
#     Edge 39, Type (0, 0), BuildingBlock: MIFKUJ_clean_linker_0, # of connection points: 2
#     Edge 40, Type (0, 0), BuildingBlock: MIFKUJ_clean_linker_0, # of connection points: 2
#     Edge 41, Type (0, 0), BuildingBlock: MIFKUJ_clean_linker_0, # of connection points: 2
#     Edge 42, Type (0, 0), BuildingBlock: MIFKUJ_clean_linker_0, # of connection points: 2
#     Edge 43, Type (0, 0), BuildingBlock: MIFKUJ_clean_linker_0, # of connection points: 2
#     Edge 44, Type (0, 0), BuildingBlock: MIFKUJ_clean_linker_0, # of connection points: 2
#     Edge 45, Type (0, 0), BuildingBlock: MIFKUJ_clean_linker_0, # of connection points: 2
#     Edge 46, Type (0, 0), BuildingBlock: MIFKUJ_clean_linker_0, # of connection points: 2
#     Edge 47, Type (0, 0), BuildingBlock: MIFKUJ_clean_linker_0, # of connection points: 2
#     Edge 48, Type (0, 0), BuildingBlock: MIFKUJ_clean_linker_0, # of connection points: 2
#     Edge 49, Type (0, 0), BuildingBlock: MIFKUJ_clean_linker_0, # of connection points: 2
#     Edge 50, Type (0, 0), BuildingBlock: MIFKUJ_clean_linker_0, # of connection points: 2
#     Edge 51, Type (0, 0), BuildingBlock: MIFKUJ_clean_linker_0, # of connection points: 2
#     Edge 52, Type (0, 0), BuildingBlock: MIFKUJ_clean_linker_0, # of connection points: 2
#     Edge 53, Type (0, 0), BuildingBlock: MIFKUJ_clean_linker_0, # of connection points: 2
#     Edge 54, Type (0, 0), BuildingBlock: MIFKUJ_clean_linker_0, # of connection points: 2
#     Edge 55, Type (0, 0), BuildingBlock: MIFKUJ_clean_linker_0, # of connection points: 2
#     Edge 56, Type (0, 0), BuildingBlock: MIFKUJ_clean_linker_0, # of connection points: 2
#     Edge 57, Type (0, 0), BuildingBlock: MIFKUJ_clean_linker_0, # of connection points: 2
#     Edge 58, Type (0, 0), BuildingBlock: MIFKUJ_clean_linker_0, # of connection points: 2
#     Edge 59, Type (0, 0), BuildingBlock: MIFKUJ_clean_linker_0, # of connection points: 2
#     Edge 60, Type (0, 0), BuildingBlock: MIFKUJ_clean_linker_0, # of connection points: 2
#     Edge 61, Type (0, 0), BuildingBlock: MIFKUJ_clean_linker_0, # of connection points: 2
#     Edge 62, Type (0, 0), BuildingBlock: MIFKUJ_clean_linker_0, # of connection points: 2
#     Edge 63, Type (0, 0), BuildingBlock: MIFKUJ_clean_linker_0, # of connection points: 2
#     Edge 64, Type (0, 0), BuildingBlock: MIFKUJ_clean_linker_0, # of connection points: 2
#     Edge 65, Type (0, 0), BuildingBlock: MIFKUJ_clean_linker_0, # of connection points: 2
#     Edge 66, Type (0, 0), BuildingBlock: MIFKUJ_clean_linker_0, # of connection points: 2
#     Edge 67, Type (0, 0), BuildingBlock: MIFKUJ_clean_linker_0, # of connection points: 2
#     Edge 68, Type (0, 0), BuildingBlock: MIFKUJ_clean_linker_0, # of connection points: 2
#     Edge 69, Type (0, 0), BuildingBlock: MIFKUJ_clean_linker_0, # of connection points: 2
#     Edge 70, Type (0, 0), BuildingBlock: MIFKUJ_clean_linker_0, # of connection points: 2
#     Edge 71, Type (0, 0), BuildingBlock: MIFKUJ_clean_linker_0, # of connection points: 2
#     Edge 72, Type (0, 0), BuildingBlock: MIFKUJ_clean_linker_0, # of connection points: 2
#     Edge 73, Type (0, 0), BuildingBlock: MIFKUJ_clean_linker_0, # of connection points: 2
#     Edge 74, Type (0, 0), BuildingBlock: MIFKUJ_clean_linker_0, # of connection points: 2
#     Edge 75, Type (0, 0), BuildingBlock: MIFKUJ_clean_linker_0, # of connection points: 2
#     Edge 76, Type (0, 0), BuildingBlock: MIFKUJ_clean_linker_0, # of connection points: 2
#     Edge 77, Type (0, 0), BuildingBlock: MIFKUJ_clean_linker_0, # of connection points: 2
#     Edge 78, Type (0, 0), BuildingBlock: MIFKUJ_clean_linker_0, # of connection points: 2
#     Edge 79, Type (0, 0), BuildingBlock: MIFKUJ_clean_linker_0, # of connection points: 2
#     Edge 80, Type (0, 0), BuildingBlock: MIFKUJ_clean_linker_0, # of connection points: 2
#     Edge 81, Type (0, 0), BuildingBlock: MIFKUJ_clean_linker_0, # of connection points: 2
#     Edge 82, Type (0, 0), BuildingBlock: MIFKUJ_clean_linker_0, # of connection points: 2
#     Edge 83, Type (0, 0), BuildingBlock: MIFKUJ_clean_linker_0, # of connection points: 2
#     Edge 84, Type (0, 0), BuildingBlock: MIFKUJ_clean_linker_0, # of connection points: 2
#     Edge 85, Type (0, 0), BuildingBlock: MIFKUJ_clean_linker_0, # of connection points: 2
#     Edge 86, Type (0, 0), BuildingBlock: MIFKUJ_clean_linker_0, # of connection points: 2
#     Edge 87, Type (0, 0), BuildingBlock: MIFKUJ_clean_linker_0, # of connection points: 2
#     Edge 88, Type (0, 0), BuildingBlock: MIFKUJ_clean_linker_0, # of connection points: 2
#     Edge 89, Type (0, 0), BuildingBlock: MIFKUJ_clean_linker_0, # of connection points: 2
#     Edge 90, Type (0, 0), BuildingBlock: MIFKUJ_clean_linker_0, # of connection points: 2
#     Edge 91, Type (0, 0), BuildingBlock: MIFKUJ_clean_linker_0, # of connection points: 2
#     Edge 92, Type (0, 0), BuildingBlock: MIFKUJ_clean_linker_0, # of connection points: 2
#     Edge 93, Type (0, 0), BuildingBlock: MIFKUJ_clean_linker_0, # of connection points: 2
#     Edge 94, Type (0, 0), BuildingBlock: MIFKUJ_clean_linker_0, # of connection points: 2
#     Edge 95, Type (0, 0), BuildingBlock: MIFKUJ_clean_linker_0, # of connection points: 2
#     Edge 96, Type (0, 0), BuildingBlock: MIFKUJ_clean_linker_0, # of connection points: 2
#     Edge 97, Type (0, 0), BuildingBlock: MIFKUJ_clean_linker_0, # of connection points: 2
#     Edge 98, Type (0, 0), BuildingBlock: MIFKUJ_clean_linker_0, # of connection points: 2
#     Edge 99, Type (0, 0), BuildingBlock: MIFKUJ_clean_linker_0, # of connection points: 2
#     Edge 100, Type (0, 0), BuildingBlock: MIFKUJ_clean_linker_0, # of connection points: 2
#     Edge 101, Type (0, 0), BuildingBlock: MIFKUJ_clean_linker_0, # of connection points: 2
#     Edge 102, Type (0, 0), BuildingBlock: MIFKUJ_clean_linker_0, # of connection points: 2
#     Edge 103, Type (0, 0), BuildingBlock: MIFKUJ_clean_linker_0, # of connection points: 2
#     Edge 104, Type (0, 0), BuildingBlock: MIFKUJ_clean_linker_0, # of connection points: 2
#     Edge 105, Type (0, 0), BuildingBlock: MIFKUJ_clean_linker_0, # of connection points: 2
#     Edge 106, Type (0, 0), BuildingBlock: MIFKUJ_clean_linker_0, # of connection points: 2
#     Edge 107, Type (0, 0), BuildingBlock: MIFKUJ_clean_linker_0, # of connection points: 2
# Relax obj value: 0.191
# Max RMSD: 0.141
# Mean RMSD: 0.140
data_MOF--net-ums--node1-QUQFOY_clean_sbu_3--edge1-MIFKUJ_clean_linker_0
_symmetry_space_group_name_H-M    P1
_symmetry_Int_Tables_number       1
_symmetry_cell_setting            triclinic
loop_
_symmetry_equiv_pos_as_xyz
'x, y, z'
_cell_length_a     133.99754
_cell_length_b     134.01371
_cell_length_c     30.959329
_cell_angle_alpha  90.058406
_cell_angle_beta   89.995914
_cell_angle_gamma 119.97339
loop_
_atom_site_label
_atom_site_type_symbol
_atom_site_fract_x
_atom_site_fract_y
_atom_site_fract_z
_atom_type_partial_charge
C0 C 0.16304 0.27112 0.16867 0.0
O1 O 0.15424 0.26951 0.18983 0.0
Cd2 Cd 0.14106 0.25194 0.22601 0.0
O3 O 0.16547 0.26309 0.16524 0.0
Cd4 Cd 0.15714 0.24296 0.19057 0.0
C5 C 0.13199 0.23385 0.13901 0.0
O6 O 0.15252 0.24581 0.2637 0.0
O7 O 0.14533 0.22814 0.24363 0.0
O8 O 0.17677 0.24694 0.20048 0.0
C9 C 0.14708 0.23524 0.27371 0.0
O10 O 0.12926 0.23814 0.17046 0.0
C11 C 0.17503 0.23759 0.18348 0.0
O12 O 0.14211 0.23532 0.13565 0.0
O13 O 0.16512 0.23106 0.16745 0.0
C14 C 0.7117 0.89792 0.20134 0.0
O15 O 0.71205 0.89077 0.22723 0.0
Cd16 Cd 0.72985 0.892 0.24705 0.0
O17 O 0.72093 0.90691 0.18956 0.0
Cd18 Cd 0.74174 0.91686 0.20924 0.0
C19 C 0.74389 0.89775 0.14799 0.0
O20 O 0.74145 0.90998 0.28213 0.0
O21 O 0.75738 0.91615 0.24717 0.0
O22 O 0.74044 0.93374 0.22765 0.0
C23 C 0.75194 0.9126 0.28244 0.0
O24 O 0.73889 0.89092 0.17948 0.0
C25 C 0.74947 0.94079 0.20735 0.0
O26 O 0.74564 0.908 0.14854 0.0
O27 O 0.75467 0.93663 0.18618 0.0
C28 C 0.09956 0.81929 0.20502 0.0
O29 O 0.10592 0.82851 0.2257 0.0
Cd30 Cd 0.09986 0.84199 0.24553 0.0
O31 O 0.08917 0.81639 0.19617 0.0
Cd32 Cd 0.07568 0.82363 0.20891 0.0
C33 C 0.09158 0.8459 0.14439 0.0
O34 O 0.08146 0.8324 0.27965 0.0
O35 O 0.07213 0.8383 0.24028 0.0
O36 O 0.06104 0.80495 0.23439 0.0
C37 C 0.07648 0.8383 0.27664 0.0
O38 O 0.09831 0.85 0.17677 0.0
C39 C 0.05327 0.80404 0.20858 0.0
O40 O 0.08283 0.8358 0.14551 0.0
O41 O 0.05611 0.81209 0.18124 0.0
C42 C 0.27632 0.18006 0.30755 0.0
O43 O 0.27648 0.17371 0.27743 0.0
Cd44 Cd 0.2594 0.15843 0.24621 0.0
O45 O 0.26689 0.1793 0.31986 0.0
Cd46 Cd 0.24641 0.16902 0.29578 0.0
C47 C 0.24354 0.14486 0.33792 0.0
O48 O 0.24901 0.16721 0.21927 0.0
O49 O 0.23203 0.15569 0.24392 0.0
O50 O 0.24754 0.18761 0.295 0.0
C51 C 0.23862 0.15977 0.21151 0.0
O52 O 0.24915 0.14472 0.30487 0.0
C53 C 0.23787 0.18418 0.31308 0.0
O54 O 0.24172 0.1532 0.34441 0.0
O55 O 0.2324 0.17375 0.32541 0.0
C56 C 0.82344 0.10296 0.33443 0.0
O57 O 0.83069 0.10946 0.30637 0.0
Cd58 Cd 0.84432 0.10542 0.27241 0.0
O59 O 0.82241 0.09321 0.34354 0.0
Cd60 Cd 0.83039 0.08103 0.31752 0.0
C61 C 0.85578 0.09941 0.36212 0.0
O62 O 0.83379 0.08659 0.24201 0.0
O63 O 0.84279 0.07827 0.26708 0.0
O64 O 0.81086 0.06505 0.3114 0.0
C65 C 0.84015 0.08226 0.23477 0.0
O66 O 0.85699 0.10606 0.33068 0.0
C67 C 0.81284 0.05783 0.33045 0.0
O68 O 0.84653 0.08981 0.36692 0.0
O69 O 0.8229 0.06158 0.34563 0.0
C70 C 0.88988 0.71178 0.30331 0.0
O71 O 0.88287 0.7129 0.27897 0.0
Cd72 Cd 0.88631 0.73108 0.2527 0.0
O73 O 0.89964 0.72045 0.31258 0.0
Cd74 Cd 0.91123 0.74119 0.29382 0.0
C75 C 0.89277 0.74622 0.34917 0.0
O76 O 0.90496 0.74023 0.22049 0.0
O77 O 0.91316 0.75722 0.2485 0.0
O78 O 0.92719 0.73835 0.27667 0.0
C79 C 0.90889 0.75093 0.2154 0.0
O80 O 0.88599 0.74144 0.31731 0.0
C81 C 0.93442 0.74625 0.30115 0.0
O82 O 0.90259 0.74691 0.35054 0.0
O83 O 0.93077 0.75171 0.32368 0.0
C84 C 0.81642 0.71428 0.80941 0.0
O85 O 0.82454 0.71555 0.78472 0.0
Cd86 Cd 0.83859 0.73351 0.75457 0.0
O87 O 0.81489 0.72275 0.81762 0.0
Cd88 Cd 0.82357 0.7433 0.7958 0.0
C89 C 0.84778 0.7495 0.8487 0.0
O90 O 0.82832 0.74181 0.72218 0.0
O91 O 0.83742 0.75897 0.74841 0.0
O92 O 0.80481 0.74093 0.78036 0.0
C93 C 0.83504 0.75245 0.71576 0.0
O94 O 0.84985 0.74479 0.8168 0.0
C95 C 0.80596 0.74909 0.80455 0.0
O96 O 0.83836 0.74965 0.8509 0.0
O97 O 0.81522 0.75434 0.82631 0.0
C98 C 0.26945 0.09663 0.80691 0.0
O99 O 0.2697 0.10375 0.77931 0.0
Cd100 Cd 0.25298 0.10191 0.74488 0.0
O101 O 0.25997 0.08763 0.8165 0.0
Cd102 Cd 0.23938 0.07813 0.79394 0.0
C103 C 0.2372 0.10001 0.83586 0.0
O104 O 0.24291 0.08263 0.71809 0.0
O105 O 0.22562 0.07718 0.73895 0.0
O106 O 0.24027 0.06057 0.79748 0.0
C107 C 0.23266 0.07971 0.70801 0.0
O108 O 0.24276 0.10564 0.80261 0.0
C109 C 0.23036 0.05449 0.81395 0.0
O110 O 0.23523 0.08981 0.84239 0.0
O111 O 0.22473 0.05955 0.82282 0.0
C112 C 0.89061 0.1717 0.80977 0.0
O113 O 0.88404 0.16297 0.78696 0.0
Cd114 Cd 0.88884 0.14903 0.76277 0.0
O115 O 0.90064 0.17368 0.82028 0.0
Cd116 Cd 0.91277 0.16476 0.80646 0.0
C117 C 0.89471 0.14094 0.86085 0.0
O118 O 0.9076 0.15942 0.73164 0.0
O119 O 0.91592 0.15121 0.76334 0.0
O120 O 0.92846 0.18417 0.7949 0.0
C121 C 0.91229 0.15326 0.7286 0.0
O122 O 0.88832 0.13843 0.82754 0.0
C123 C 0.93592 0.18277 0.81492 0.0
O124 O 0.90408 0.15053 0.86359 0.0
O125 O 0.93241 0.17317 0.8338 0.0
C126 C 0.71138 0.8169 0.67646 0.0
O127 O 0.71138 0.82513 0.69677 0.0
Cd128 Cd 0.72832 0.84076 0.728 0.0
O129 O 0.72055 0.81629 0.67381 0.0
Cd130 Cd 0.74063 0.82698 0.7009 0.0
C131 C 0.74629 0.84959 0.63894 0.0
O132 O 0.73757 0.83302 0.77101 0.0
O133 O 0.75501 0.84229 0.7468 0.0
O134 O 0.73864 0.80914 0.72706 0.0
C135 C 0.74809 0.84028 0.77783 0.0
O136 O 0.74045 0.85146 0.66697 0.0
C137 C 0.74732 0.81 0.70731 0.0
O138 O 0.74732 0.84065 0.64125 0.0
O139 O 0.75278 0.81868 0.68277 0.0
C140 C 0.1699 0.89614 0.64359 0.0
O141 O 0.16146 0.88714 0.6595 0.0
Cd142 Cd 0.14515 0.88573 0.69588 0.0
O143 O 0.17036 0.90587 0.64611 0.0
Cd144 Cd 0.15843 0.91349 0.67838 0.0
C145 C 0.13513 0.8968 0.61703 0.0
O146 O 0.1535 0.90182 0.74232 0.0
O147 O 0.14485 0.9116 0.73621 0.0
O148 O 0.17649 0.93032 0.6989 0.0
C149 C 0.14658 0.90465 0.75816 0.0
O150 O 0.13383 0.8885 0.64092 0.0
C151 C 0.1735 0.93755 0.68752 0.0
O152 O 0.14385 0.90684 0.6214 0.0
O153 O 0.16369 0.93357 0.66975 0.0
C154 C 0.09593 0.27103 0.6684 0.0
O155 O 0.10275 0.26963 0.69281 0.0
Cd156 Cd 0.09809 0.25212 0.72974 0.0
O157 O 0.08569 0.26282 0.66193 0.0
Cd158 Cd 0.07349 0.24257 0.68565 0.0
C159 C 0.09115 0.23419 0.64219 0.0
O160 O 0.07955 0.24549 0.76032 0.0
O161 O 0.06963 0.22777 0.7406 0.0
O162 O 0.0576 0.24639 0.6877 0.0
C163 C 0.0746 0.23497 0.77081 0.0
O164 O 0.09759 0.23874 0.67502 0.0
C165 C 0.05037 0.23693 0.67023 0.0
O166 O 0.0823 0.23519 0.63584 0.0
O167 O 0.05409 0.23036 0.65766 0.0
C168 C 0.83135 0.60232 0.50319 0.0
O169 O 0.82165 0.60054 0.5168 0.0
Cd170 Cd 0.80678 0.58294 0.54763 0.0
O171 O 0.83407 0.59448 0.50581 0.0
Cd172 Cd 0.82562 0.57448 0.53321 0.0
C173 C 0.803 0.56417 0.46446 0.0
O174 O 0.81649 0.57703 0.5958 0.0
O175 O 0.81237 0.55952 0.58399 0.0
O176 O 0.84406 0.57906 0.56437 0.0
C177 C 0.81116 0.56659 0.60748 0.0
O178 O 0.79914 0.56922 0.48841 0.0
C179 C 0.84474 0.57108 0.5449 0.0
O180 O 0.81287 0.56525 0.47142 0.0
O181 O 0.83669 0.56494 0.51861 0.0
C182 C 0.38321 0.22981 0.53041 0.0
O183 O 0.3832 0.22327 0.56007 0.0
Cd184 Cd 0.40054 0.22578 0.59239 0.0
O185 O 0.39255 0.23872 0.51901 0.0
Cd186 Cd 0.4131 0.24947 0.5413 0.0
C187 C 0.41642 0.22822 0.50045 0.0
O188 O 0.41088 0.24512 0.6178 0.0
O189 O 0.42796 0.25148 0.59219 0.0
O190 O 0.41086 0.26626 0.54125 0.0
C191 C 0.42141 0.24847 0.62488 0.0
O192 O 0.41105 0.22261 0.53407 0.0
C193 C 0.4204 0.27285 0.523 0.0
O194 O 0.41786 0.2382 0.49305 0.0
O195 O 0.4264 0.2684 0.51114 0.0
C196 C 0.7647 0.15352 0.55021 0.0
O197 O 0.77055 0.16183 0.57588 0.0
Cd198 Cd 0.76479 0.17553 0.59669 0.0
O199 O 0.75493 0.15159 0.53658 0.0
Cd200 Cd 0.74167 0.15919 0.54649 0.0
C201 C 0.76053 0.18326 0.49508 0.0
O202 O 0.7453 0.16554 0.62106 0.0
O203 O 0.73733 0.17289 0.58152 0.0
O204 O 0.72624 0.13976 0.55896 0.0
C205 C 0.74063 0.17175 0.61862 0.0
O206 O 0.76611 0.18615 0.53057 0.0
C207 C 0.71927 0.14021 0.53238 0.0
O208 O 0.75162 0.17336 0.49038 0.0
O209 O 0.72294 0.14942 0.51057 0.0
C210 C 0.94146 0.50378 0.64911 0.0
O211 O 0.94011 0.49554 0.62487 0.0
Cd212 Cd 0.92272 0.48241 0.58823 0.0
O213 O 0.93328 0.50591 0.65472 0.0
Cd214 Cd 0.91315 0.49828 0.62925 0.0
C215 C 0.90447 0.47236 0.6758 0.0
O216 O 0.9159 0.49401 0.55619 0.0
O217 O 0.8982 0.48705 0.57491 0.0
O218 O 0.91618 0.51755 0.61877 0.0
C219 C 0.90538 0.48847 0.54554 0.0
O220 O 0.90978 0.47048 0.6456 0.0
C221 C 0.90804 0.51621 0.6435 0.0
O222 O 0.90475 0.48198 0.67874 0.0
O223 O 0.90252 0.5066 0.66286 0.0
C224 C 0.48399 0.43543 0.62576 0.0
O225 O 0.49153 0.44174 0.59822 0.0
Cd226 Cd 0.50589 0.43778 0.57054 0.0
O227 O 0.48312 0.42592 0.63771 0.0
Cd228 Cd 0.49214 0.41417 0.61879 0.0
C229 C 0.51661 0.43361 0.6661 0.0
O230 O 0.4965 0.41864 0.54249 0.0
O231 O 0.50587 0.41166 0.57511 0.0
O232 O 0.47314 0.3974 0.61087 0.0
C233 C 0.50334 0.41471 0.53998 0.0
O234 O 0.51816 0.43958 0.63213 0.0
C235 C 0.47534 0.39077 0.63299 0.0
O236 O 0.50732 0.42408 0.67159 0.0
O237 O 0.48518 0.39523 0.65084 0.0
C238 C 0.55605 0.04765 0.64599 0.0
O239 O 0.54849 0.04845 0.6239 0.0
Cd240 Cd 0.55136 0.06572 0.59008 0.0
O241 O 0.56616 0.05629 0.65017 0.0
Cd242 Cd 0.57736 0.07649 0.6242 0.0
C243 C 0.56025 0.08395 0.67825 0.0
O244 O 0.56918 0.07357 0.55256 0.0
O245 O 0.57953 0.09127 0.5723 0.0
O246 O 0.59308 0.07299 0.60926 0.0
C247 C 0.57364 0.08413 0.54301 0.0
O248 O 0.55277 0.07835 0.64923 0.0
C249 C 0.60069 0.08189 0.62876 0.0
O250 O 0.5699 0.08423 0.6787 0.0
O251 O 0.59732 0.08809 0.64784 0.0
C252 C 0.48722 0.05462 0.12126 0.0
O253 O 0.49539 0.05603 0.09659 0.0
Cd254 Cd 0.51 0.0745 0.07198 0.0
O255 O 0.48594 0.06312 0.13161 0.0
Cd256 Cd 0.49497 0.08395 0.11359 0.0
C257 C 0.51833 0.08898 0.16947 0.0
O258 O 0.50042 0.08354 0.03937 0.0
O259 O 0.50916 0.10018 0.07018 0.0
O260 O 0.47568 0.08079 0.10277 0.0
C261 C 0.50715 0.0943 0.03594 0.0
O262 O 0.52074 0.08472 0.137 0.0
C263 C 0.47738 0.08968 0.12346 0.0
O264 O 0.50894 0.08919 0.17089 0.0
O265 O 0.48717 0.09569 0.14113 0.0
C266 C 0.93465 0.43077 0.12369 0.0
O267 O 0.93331 0.43743 0.09821 0.0
Cd268 Cd 0.91481 0.43349 0.07329 0.0
O269 O 0.92609 0.42109 0.13448 0.0
Cd270 Cd 0.90528 0.40918 0.11674 0.0
C271 C 0.90048 0.42797 0.17095 0.0
O272 O 0.90562 0.41468 0.0422 0.0
O273 O 0.88896 0.40685 0.07291 0.0
O274 O 0.9084 0.39312 0.10465 0.0
C275 C 0.89485 0.41059 0.03863 0.0
O276 O 0.90478 0.43447 0.13812 0.0
C277 C 0.90002 0.38601 0.12767 0.0
O278 O 0.90011 0.41831 0.17305 0.0
O279 O 0.89425 0.38982 0.14718 0.0
C280 C 0.55652 0.5006 0.13994 0.0
O281 O 0.55025 0.49306 0.11228 0.0
Cd282 Cd 0.55564 0.48034 0.07964 0.0
O283 O 0.5665 0.50223 0.14912 0.0
Cd284 Cd 0.57962 0.49517 0.1251 0.0
C285 C 0.56191 0.46995 0.17194 0.0
O286 O 0.5744 0.49211 0.04987 0.0
O287 O 0.58274 0.48298 0.07342 0.0
O288 O 0.59453 0.51514 0.11948 0.0
C289 C 0.57903 0.48609 0.04152 0.0
O290 O 0.55538 0.46825 0.13953 0.0
C291 C 0.60216 0.51401 0.13949 0.0
O292 O 0.5713 0.47945 0.17646 0.0
O293 O 0.59919 0.50406 0.15429 0.0
C294 C 0.37545 0.1501 0.02505 0.0
O295 O 0.37591 0.15795 0.04937 0.0
Cd296 Cd 0.39333 0.1725 0.08152 0.0
O297 O 0.38449 0.1495 0.01752 0.0
Cd298 Cd 0.40503 0.16 0.03998 0.0
C299 C 0.40993 0.18429 0.99109 0.0
O300 O 0.40241 0.163 0.11554 0.0
O301 O 0.41961 0.1735 0.0906 0.0
O302 O 0.40352 0.14125 0.04549 0.0
C303 C 0.41297 0.16992 0.123 0.0
O304 O 0.40458 0.1855 0.02283 0.0
C305 C 0.41302 0.14421 0.02679 0.0
O306 O 0.41081 0.1753 0.98746 0.0
O307 O 0.41859 0.15443 0.01245 0.0
C308 C 0.83038 0.22339 0.98729 0.0
O309 O 0.82151 0.21518 0.00484 0.0
Cd310 Cd 0.80771 0.21733 0.04683 0.0
O311 O 0.83245 0.23373 0.99026 0.0
Cd312 Cd 0.82295 0.24375 0.02291 0.0
C313 C 0.798 0.22831 0.96815 0.0
O314 O 0.81841 0.23379 0.09166 0.0
O315 O 0.81096 0.24459 0.081 0.0
O316 O 0.84201 0.25967 0.03937 0.0
C317 C 0.81276 0.23828 0.10654 0.0
O318 O 0.79589 0.22023 0.9946 0.0
C319 C 0.84026 0.26737 0.02339 0.0
O320 O 0.80765 0.23765 0.9689 0.0
O321 O 0.83056 0.264 0.00549 0.0
C322 C 0.76522 0.60627 0.02983 0.0
O323 O 0.77254 0.60409 0.04691 0.0
Cd324 Cd 0.76833 0.58559 0.07398 0.0
O325 O 0.75467 0.59847 0.02702 0.0
Cd326 Cd 0.74231 0.57803 0.04741 0.0
C327 C 0.75667 0.56972 0.98151 0.0
O328 O 0.75118 0.57803 0.11513 0.0
O329 O 0.73997 0.56125 0.08825 0.0
O330 O 0.72781 0.58231 0.07363 0.0
C331 C 0.74649 0.5672 0.11898 0.0
O332 O 0.76434 0.57322 0.01092 0.0
C333 C 0.71961 0.57451 0.05171 0.0
O334 O 0.74816 0.57144 0.98397 0.0
O335 O 0.72208 0.56853 0.02663 0.0
C336 C 0.5028 0.94074 0.8632 0.0
O337 O 0.49538 0.94028 0.88988 0.0
Cd338 Cd 0.48037 0.92277 0.92001 0.0
O339 O 0.50287 0.93161 0.85224 0.0
Cd340 Cd 0.49213 0.91075 0.86999 0.0
C341 C 0.46816 0.90817 0.82532 0.0
O342 O 0.48922 0.91231 0.94635 0.0
O343 O 0.47864 0.8955 0.9184 0.0
O344 O 0.51067 0.91176 0.87173 0.0
C345 C 0.482 0.90174 0.95196 0.0
O346 O 0.46733 0.91302 0.85949 0.0
C347 C 0.50742 0.90249 0.85082 0.0
O348 O 0.47682 0.90684 0.8192 0.0
O349 O 0.49712 0.8973 0.83694 0.0
C350 C 0.04986 0.55826 0.86949 0.0
O351 O 0.05183 0.55159 0.89247 0.0
Cd352 Cd 0.07071 0.5566 0.91709 0.0
O353 O 0.05796 0.56838 0.86048 0.0
Cd354 Cd 0.0787 0.58118 0.87678 0.0
C355 C 0.08483 0.56377 0.81889 0.0
O356 O 0.07883 0.57517 0.95008 0.0
O357 O 0.09549 0.5843 0.91953 0.0
O358 O 0.07419 0.59628 0.89086 0.0
C359 C 0.08967 0.57987 0.9535 0.0
O360 O 0.08108 0.557 0.85126 0.0
C361 C 0.08223 0.60383 0.86772 0.0
O362 O 0.08437 0.57303 0.81827 0.0
O363 O 0.08854 0.60076 0.84774 0.0
C364 C 0.42868 0.4876 0.85458 0.0
O365 O 0.4351 0.49526 0.88167 0.0
Cd366 Cd 0.43004 0.508 0.91765 0.0
O367 O 0.41863 0.48589 0.84632 0.0
Cd368 Cd 0.40601 0.49343 0.8708 0.0
C369 C 0.42409 0.51929 0.82816 0.0
O370 O 0.41115 0.49662 0.9466 0.0
O371 O 0.4027 0.50549 0.92157 0.0
O372 O 0.39014 0.4738 0.87506 0.0
C373 C 0.4066 0.50277 0.95399 0.0
O374 O 0.43025 0.52104 0.86176 0.0
C375 C 0.38305 0.47567 0.85447 0.0
O376 O 0.41518 0.50953 0.82116 0.0
O377 O 0.38681 0.48577 0.8397 0.0
C378 C 0.60756 0.84154 0.96793 0.0
O379 O 0.60879 0.83485 0.94221 0.0
Cd380 Cd 0.59281 0.81871 0.90855 0.0
O381 O 0.59771 0.84061 0.97354 0.0
Cd382 Cd 0.57808 0.82926 0.94199 0.0
C383 C 0.57462 0.80626 -0.00408 0.0
O384 O 0.58236 0.82575 0.86887 0.0
O385 O 0.56502 0.81459 0.89135 0.0
O386 O 0.57829 0.84725 0.93026 0.0
C387 C 0.57215 0.8179 0.86044 0.0
O388 O 0.58121 0.80581 0.96723 0.0
C389 C 0.56834 0.84377 0.94589 0.0
O390 O 0.57241 0.81446 -0.00372 0.0
O391 O 0.56309 0.83365 0.9614 0.0
C392 C 0.15604 0.76746 0.98455 0.0
O393 O 0.16539 0.77477 0.96664 0.0
Cd394 Cd 0.1782 0.77015 0.92952 0.0
O395 O 0.15273 0.75674 0.98319 0.0
Cd396 Cd 0.16011 0.74443 0.95305 0.0
C397 C 0.18382 0.75735 0.01486 0.0
O398 O 0.16711 0.75387 0.88431 0.0
O399 O 0.17384 0.74298 0.90439 0.0
O400 O 0.1408 0.72995 0.93054 0.0
C401 C 0.17295 0.7491 0.87513 0.0
O402 O 0.18753 0.76552 0.98745 0.0
C403 C 0.14096 0.72166 0.94959 0.0
O404 O 0.17361 0.74883 0.01218 0.0
O405 O 0.14994 0.72404 0.97122 0.0
C406 C 0.21906 0.38011 0.95633 0.0
O407 O 0.21194 0.38155 0.934 0.0
Cd408 Cd 0.21548 0.39984 0.90887 0.0
O409 O 0.2291 0.38856 0.96402 0.0
Cd410 Cd 0.24072 0.40926 0.94337 0.0
C411 C 0.22398 0.41534 0.00464 0.0
O412 O 0.23336 0.40871 0.87151 0.0
O413 O 0.24169 0.42539 0.90224 0.0
O414 O 0.25618 0.4062 0.91988 0.0
C415 C 0.23724 0.41945 0.86848 0.0
O416 O 0.21674 0.41073 0.97398 0.0
C417 C 0.26402 0.41437 0.94173 0.0
O418 O 0.23356 0.41549 0.0039 0.0
O419 O 0.26093 0.41996 0.9662 0.0
C420 C 0.14822 0.3798 0.45127 0.0
O421 O 0.15691 0.38173 0.42865 0.0
Cd422 Cd 0.17089 0.40034 0.4029 0.0
O423 O 0.14607 0.38787 0.45925 0.0
Cd424 Cd 0.15414 0.4085 0.4402 0.0
C425 C 0.17753 0.41524 0.49962 0.0
O426 O 0.16096 0.40864 0.36784 0.0
O427 O 0.16853 0.42521 0.39934 0.0
O428 O 0.13535 0.40514 0.41866 0.0
C429 C 0.16732 0.41948 0.36522 0.0
O430 O 0.18051 0.41115 0.46822 0.0
C431 C 0.13541 0.41278 0.44309 0.0
O432 O 0.16783 0.41484 0.49951 0.0
O433 O 0.14407 0.41817 0.46782 0.0
C434 C 0.60844 0.75951 0.44027 0.0
O435 O 0.60803 0.7668 0.41526 0.0
Cd436 Cd 0.59038 0.76485 0.38883 0.0
O437 O 0.59928 0.75019 0.44988 0.0
Cd438 Cd 0.57848 0.73997 0.43139 0.0
C439 C 0.57587 0.76016 0.48588 0.0
O440 O 0.5794 0.74617 0.35757 0.0
O441 O 0.56276 0.73913 0.3883 0.0
O442 O 0.57944 0.72296 0.41371 0.0
C443 C 0.56876 0.74288 0.35426 0.0
O444 O 0.58096 0.76663 0.45363 0.0
C445 C 0.57154 0.71628 0.43936 0.0
O446 O 0.57417 0.74993 0.48768 0.0
O447 O 0.56699 0.72073 0.46287 0.0
C448 C 0.22586 0.84629 0.45401 0.0
O449 O 0.21731 0.83749 0.43758 0.0
Cd450 Cd 0.21708 0.82001 0.42025 0.0
O451 O 0.23539 0.84653 0.45985 0.0
Cd452 Cd 0.24395 0.83421 0.44376 0.0
C453 C 0.22691 0.81459 0.5163 0.0
O454 O 0.23365 0.82496 0.37818 0.0
O455 O 0.24264 0.81724 0.40874 0.0
O456 O 0.25955 0.85034 0.40766 0.0
C457 C 0.23665 0.81736 0.37728 0.0
O458 O 0.21899 0.81214 0.48851 0.0
C459 C 0.26754 0.85041 0.42984 0.0
O460 O 0.23711 0.8229 0.51012 0.0
O461 O 0.26454 0.84306 0.46017 0.0
C462 C 0.04291 0.48569 0.34473 0.0
O463 O 0.04425 0.4941 0.36789 0.0
Cd464 Cd 0.06207 0.50808 0.39951 0.0
O465 O 0.05121 0.48376 0.33875 0.0
Cd466 Cd 0.07146 0.49186 0.36407 0.0
C467 C 0.07977 0.51653 0.30976 0.0
O468 O 0.06925 0.4974 0.43602 0.0
O469 O 0.0868 0.50466 0.41473 0.0
O470 O 0.06821 0.47283 0.38175 0.0
C471 C 0.07986 0.50342 0.44486 0.0
O472 O 0.07462 0.51887 0.33927 0.0
C473 C 0.07627 0.47351 0.35815 0.0
O474 O 0.07951 0.5069 0.30932 0.0
O475 O 0.08186 0.48262 0.33592 0.0
C476 C 0.49848 0.55023 0.36512 0.0
O477 O 0.49043 0.54339 0.39007 0.0
Cd478 Cd 0.47616 0.54726 0.41889 0.0
O479 O 0.49989 0.56015 0.35645 0.0
Cd480 Cd 0.49155 0.57229 0.3786 0.0
C481 C 0.46701 0.55462 0.32597 0.0
O482 O 0.48656 0.56567 0.45229 0.0
O483 O 0.47935 0.57581 0.42809 0.0
O484 O 0.51077 0.58793 0.39341 0.0
C485 C 0.48089 0.57073 0.4597 0.0
O486 O 0.46507 0.54758 0.35677 0.0
C487 C 0.50992 0.59532 0.37054 0.0
O488 O 0.47635 0.56427 0.32448 0.0
O489 O 0.50064 0.59181 0.34929 0.0
C490 C 0.43202 0.9473 0.34687 0.0
O491 O 0.43864 0.94659 0.37446 0.0
Cd492 Cd 0.43474 0.929 0.40832 0.0
O493 O 0.42233 0.93851 0.33773 0.0
Cd494 Cd 0.41068 0.9182 0.3625 0.0
C495 C 0.42965 0.91173 0.31909 0.0
O496 O 0.41578 0.92057 0.43819 0.0
O497 O 0.40833 0.90322 0.41376 0.0
O498 O 0.39361 0.9199 0.37001 0.0
C499 C 0.41172 0.90996 0.44598 0.0
O500 O 0.43619 0.91719 0.35078 0.0
C501 C 0.38735 0.91152 0.34524 0.0
O502 O 0.41998 0.91121 0.31414 0.0
O503 O 0.3921 0.90645 0.32708 0.0
H504 H 0.24849 0.20748 0.30269 0.0
H505 H 0.2391 0.21863 0.28465 0.0
H506 H 0.20582 0.18833 0.30226 0.0
H507 H 0.21509 0.17718 0.32137 0.0
H508 H 0.21367 0.20087 0.21244 0.0
H509 H 0.20882 0.20533 0.36584 0.0
H510 H 0.21594 0.21136 0.44012 0.0
H511 H 0.23753 0.24616 0.39695 0.0
H512 H 0.23065 0.24029 0.32223 0.0
H513 H 0.17137 0.21588 0.17295 0.0
H514 H 0.18409 0.20874 0.19486 0.0
H515 H 0.2107 0.2434 0.22582 0.0
H516 H 0.19773 0.25054 0.20575 0.0
H517 H 0.20848 0.23041 0.28959 0.0
H518 H 0.21302 0.22738 0.13912 0.0
H519 H 0.20733 0.22235 0.06297 0.0
H520 H 0.18862 0.18645 0.096 0.0
H521 H 0.19405 0.19127 0.17248 0.0
C522 C 0.23918 0.2033 0.30411 0.0
C523 C 0.2325 0.19145 0.31306 0.0
C524 C 0.23385 0.20967 0.29381 0.0
C525 C 0.22182 0.20423 0.29195 0.0
C526 C 0.21514 0.19262 0.3037 0.0
C527 C 0.22045 0.1863 0.31475 0.0
C528 C 0.21625 0.21015 0.27195 0.0
C529 C 0.21239 0.20725 0.22927 0.0
C530 C 0.21517 0.21883 0.29352 0.0
C531 C 0.21934 0.22234 0.33836 0.0
C532 C 0.21519 0.21424 0.37208 0.0
C533 C 0.21916 0.21763 0.4143 0.0
C534 C 0.22722 0.22912 0.42323 0.0
C535 C 0.23131 0.23725 0.38997 0.0
C536 C 0.22737 0.2339 0.3477 0.0
C537 C 0.18002 0.22203 0.18342 0.0
C538 C 0.18355 0.23376 0.18781 0.0
C539 C 0.18733 0.21794 0.19583 0.0
C540 C 0.19841 0.22554 0.21176 0.0
C541 C 0.20218 0.23737 0.21379 0.0
C542 C 0.19479 0.24144 0.20208 0.0
C543 C 0.20555 0.22095 0.22994 0.0
C544 C 0.2098 0.22412 0.27227 0.0
C545 C 0.2072 0.21266 0.20766 0.0
C546 C 0.20388 0.2097 0.16164 0.0
C547 C 0.20762 0.21842 0.13022 0.0
C548 C 0.20445 0.2156 0.08697 0.0
C549 C 0.1976 0.20409 0.07467 0.0
C550 C 0.19392 0.19536 0.10558 0.0
C551 C 0.19706 0.19813 0.14888 0.0
H552 H 0.19516 0.20192 0.04117 0.0
H553 H 0.23027 0.23174 0.45593 0.0
H554 H 0.78987 0.04769 0.31251 0.0
H555 H 0.7769 0.02735 0.29499 0.0
H556 H 0.80385 0.0198 0.32495 0.0
H557 H 0.81679 0.04002 0.34359 0.0
H558 H 0.79092 0.01625 0.22858 0.0
H559 H 0.7881 0.00733 0.38439 0.0
H560 H 0.78347 0.00979 0.45935 0.0
H561 H 0.74914 0.00059 0.42072 0.0
H562 H 0.75365 -0.00175 0.34535 0.0
H563 H 0.77159 0.95763 0.19305 0.0
H564 H 0.78042 0.97782 0.21383 0.0
H565 H 0.7472 0.97248 0.25354 0.0
H566 H 0.73842 0.95208 0.23471 0.0
H567 H 0.76151 0.98327 0.3135 0.0
H568 H 0.76234 0.9893 0.16228 0.0
H569 H 0.76583 0.98745 0.08527 0.0
H570 H 0.80211 0.00299 0.10994 0.0
H571 H 0.79883 0.00478 0.18723 0.0
C572 C 0.79292 0.04163 0.31661 0.0
C573 C 0.80435 0.04543 0.32918 0.0
C574 C 0.78551 0.03005 0.30661 0.0
C575 C 0.78948 0.02218 0.30875 0.0
C576 C 0.80066 0.02581 0.3235 0.0
C577 C 0.80801 0.03733 0.33422 0.0
C578 C 0.78255 0.01059 0.2902 0.0
C579 C 0.78454 0.00897 0.24704 0.0
C580 C 0.77394 0.00135 0.314 0.0
C581 C 0.77127 0.00279 0.3592 0.0
C582 C 0.77962 0.00598 0.39179 0.0
C583 C 0.777 0.00731 0.43437 0.0
C584 C 0.76603 0.00539 0.44477 0.0
C585 C 0.75764 0.0021 0.41261 0.0
C586 C 0.76022 0.00077 0.36997 0.0
C587 C 0.76613 0.96081 0.20534 0.0
C588 C 0.75433 0.9533 0.21237 0.0
C589 C 0.77118 0.97238 0.21709 0.0
C590 C 0.76446 0.97672 0.23495 0.0
C591 C 0.75256 0.96933 0.23998 0.0
C592 C 0.74755 0.9577 0.22901 0.0
C593 C 0.77005 0.98869 0.25168 0.0
C594 C 0.76779 0.99048 0.29451 0.0
C595 C 0.77829 -0.00184 0.22717 0.0
C596 C 0.78032 -0.0029 0.18066 0.0
C597 C 0.77106 0.99224 0.15136 0.0
C598 C 0.773 0.99122 0.10764 0.0
C599 C 0.78419 0.99508 0.09274 0.0
C600 C 0.79345 -0.0 0.12153 0.0
C601 C 0.79156 0.00103 0.16529 0.0
H602 H 0.78567 0.99428 0.05887 0.0
H603 H 0.76402 0.00642 0.47776 0.0
H604 H 0.94482 0.7385 0.24584 0.0
H605 H 0.96539 0.74603 0.23656 0.0
H606 H 0.9724 0.76884 0.34515 0.0
H607 H 0.95175 0.76162 0.3536 0.0
H608 H 0.9847 0.78046 0.28093 0.0
H609 H 0.9778 0.74571 0.34769 0.0
H610 H 0.96815 0.72478 0.3607 0.0
H611 H 0.97711 0.71948 0.23294 0.0
H612 H 0.98668 0.74036 0.21892 0.0
H613 H 0.04462 0.78709 0.26945 0.0
H614 H 0.02438 0.77473 0.28845 0.0
H615 H 0.01436 0.78779 0.17948 0.0
H616 H 0.03461 0.80036 0.1607 0.0
H617 H 0.00445 0.7581 0.2533 0.0
H618 H -0.00548 0.79448 0.21331 0.0
H619 H 0.00485 0.81568 0.20771 0.0
H620 H 0.03043 0.81798 0.29706 0.0
H621 H 0.02016 0.79682 0.30368 0.0
C622 C 0.95072 0.74498 0.26828 0.0
C623 C 0.94669 0.74955 0.30025 0.0
C624 C 0.96249 0.74922 0.2631 0.0
C625 C 0.97045 0.75795 0.29033 0.0
C626 C 0.96641 0.76211 0.32372 0.0
C627 C 0.95462 0.75797 0.32857 0.0
C628 C 0.98293 0.76355 0.28086 0.0
C629 C 0.989 0.77554 0.27524 0.0
C630 C 0.98862 0.75718 0.27385 0.0
C631 C 0.9829 0.74461 0.28216 0.0
C632 C 0.97765 0.74007 0.32225 0.0
C633 C 0.9722 0.72822 0.32983 0.0
C634 C 0.972 0.7208 0.29765 0.0
C635 C 0.97727 0.72523 0.25784 0.0
C636 C 0.98272 0.73708 0.25008 0.0
C637 C 0.03811 0.78715 0.24895 0.0
C638 C 0.04119 0.79485 0.21405 0.0
C639 C 0.02654 0.78005 0.25981 0.0
C640 C 0.01792 0.78055 0.23592 0.0
C641 C 0.02093 0.78746 0.19876 0.0
C642 C 0.03249 0.79461 0.188 0.0
C643 C 0.00599 0.77487 0.25242 0.0
C644 C 8e-05 0.76294 0.25931 0.0
C645 C 0.0005 0.7813 0.26179 0.0
C646 C 0.00663 0.79406 0.25863 0.0
C647 C 0.00232 0.79952 0.2319 0.0
C648 C 0.00816 0.81153 0.22854 0.0
C649 C 0.01831 0.81817 0.25191 0.0
C650 C 0.02259 0.81283 0.27886 0.0
C651 C 0.01677 0.80082 0.2824 0.0
H652 H 0.02283 0.82747 0.24921 0.0
H653 H 0.96777 0.71163 0.30358 0.0
H654 H 0.80499 0.76495 0.85731 0.0
H655 H 0.79266 0.77345 0.84851 0.0
H656 H 0.77606 0.75117 0.73929 0.0
H657 H 0.788 0.74237 0.74897 0.0
H658 H 0.79292 0.78567 0.78491 0.0
H659 H 0.7498 0.74725 0.72095 0.0
H660 H 0.7374 0.72645 0.73452 0.0
H661 H 0.75121 0.73073 0.86271 0.0
H662 H 0.76357 0.75158 0.85015 0.0
H663 H 0.76455 0.80842 0.66608 0.0
H664 H 0.77263 0.79626 0.68646 0.0
H665 H 0.7477 0.78136 0.78932 0.0
H666 H 0.73934 0.79313 0.76819 0.0
H667 H 0.7509 0.76548 0.75572 0.0
H668 H 0.77532 0.80364 0.80851 0.0
H669 H 0.7873 0.82478 0.80404 0.0
H670 H 0.81015 0.82144 0.71564 0.0
H671 H 0.79822 0.80026 0.71913 0.0
C672 C 0.79852 0.76169 0.8321 0.0
C673 C 0.79748 0.75304 0.80373 0.0
C674 C 0.79151 0.76658 0.827 0.0
C675 C 0.78341 0.76294 0.79331 0.0
C676 C 0.78207 0.75398 0.76605 0.0
C677 C 0.78896 0.74899 0.77149 0.0
C678 C 0.7772 0.76924 0.78382 0.0
C679 C 0.78371 0.78124 0.77886 0.0
C680 C 0.76517 0.76351 0.77646 0.0
C681 C 0.75768 0.75098 0.78443 0.0
C682 C 0.75015 0.74377 0.7521 0.0
C683 C 0.74314 0.73196 0.7596 0.0
C684 C 0.74354 0.72727 0.7994 0.0
C685 C 0.75093 0.73437 0.83183 0.0
C686 C 0.75796 0.74618 0.82451 0.0
C687 C 0.76069 0.80242 0.69259 0.0
C688 C 0.75139 0.8018 0.71579 0.0
C689 C 0.76534 0.79553 0.70437 0.0
C690 C 0.76092 0.7881 0.74003 0.0
C691 C 0.75128 0.78707 0.76182 0.0
C692 C 0.74653 0.79383 0.74974 0.0
C693 C 0.76667 0.78183 0.75606 0.0
C694 C 0.76008 0.76987 0.7621 0.0
C695 C 0.77858 0.78763 0.76582 0.0
C696 C 0.78582 0.80037 0.76379 0.0
C697 C 0.78286 0.80741 0.7879 0.0
C698 C 0.78964 0.8194 0.78557 0.0
C699 C 0.79946 0.82445 0.7595 0.0
C700 C 0.80254 0.81752 0.73578 0.0
C701 C 0.79577 0.80552 0.73795 0.0
H702 H 0.80471 0.83373 0.75774 0.0
H703 H 0.73811 0.71813 0.80514 0.0
H704 H 0.20753 0.03857 0.81749 0.0
H705 H 0.19887 0.01793 0.80536 0.0
H706 H 0.23264 0.02127 0.80549 0.0
H707 H 0.24137 0.04206 0.81555 0.0
H708 H 0.22221 0.01075 0.73731 0.0
H709 H 0.21137 0.00547 0.88501 0.0
H710 H 0.20334 0.00797 0.95314 0.0
H711 H 0.16996 0.99373 0.89431 0.0
H712 H 0.17781 0.99129 0.82561 0.0
H713 H 0.19589 0.94897 0.71456 0.0
H714 H 0.20666 0.9687 0.7424 0.0
H715 H 0.17766 0.97336 0.71572 0.0
H716 H 0.16689 0.95373 0.68726 0.0
H717 H 0.18686 0.97894 0.80304 0.0
H718 H 0.19912 0.9862 0.6533 0.0
H719 H 0.20765 0.9834 0.58704 0.0
H720 H 0.23926 0.99348 0.65479 0.0
H721 H 0.23085 -0.00381 0.72165 0.0
C722 C 0.21309 0.03486 0.81613 0.0
C723 C 0.22512 0.0419 0.81704 0.0
C724 C 0.20812 0.02303 0.80938 0.0
C725 C 0.2151 0.01801 0.80458 0.0
C726 C 0.22709 0.02495 0.80881 0.0
C727 C 0.23207 0.03682 0.81472 0.0
C728 C 0.21 0.00592 0.78966 0.0
C729 C 0.21464 0.00376 0.75244 0.0
C730 C 0.19999 -0.0032 0.80876 0.0
C731 C 0.19521 -0.00173 0.85002 0.0
C732 C 0.20233 0.00296 0.88648 0.0
C733 C 0.19781 0.00435 0.92523 0.0
C734 C 0.18615 0.00103 0.92803 0.0
C735 C 0.17899 -0.0037 0.89209 0.0
C736 C 0.18347 0.99489 0.85325 0.0
C737 C 0.19188 0.95426 0.714 0.0
C738 C 0.18056 0.94983 0.69878 0.0
C739 C 0.19802 0.9655 0.72998 0.0
C740 C 0.19288 0.97239 0.7313 0.0
C741 C 0.18171 0.9681 0.71509 0.0
C742 C 0.17562 0.95694 0.69857 0.0
C743 C 0.19901 0.98397 0.75077 0.0
C744 C 0.19454 0.98597 0.78866 0.0
C745 C 0.20927 0.9929 0.73276 0.0
C746 C 0.21431 0.99126 0.69259 0.0
C747 C 0.20785 0.98771 0.65418 0.0
C748 C 0.21267 0.98616 0.61648 0.0
C749 C 0.22397 0.98823 0.61674 0.0
C750 C 0.23049 0.99187 0.65466 0.0
C751 C 0.22571 0.99342 0.69245 0.0
H752 H 0.22769 0.98703 0.58752 0.0
H753 H 0.18266 0.00212 0.95806 0.0
H754 H 0.04016 0.25002 0.68088 0.0
H755 H 0.01997 0.24299 0.69926 0.0
H756 H 0.01264 0.20796 0.6832 0.0
H757 H 0.03261 0.21494 0.66278 0.0
H758 H -0.00544 0.20882 0.66213 0.0
H759 H 0.02062 0.22237 0.78295 0.0
H760 H 0.03745 0.23651 0.82486 0.0
H761 H 0.0233 0.25903 0.83012 0.0
H762 H 0.00645 0.24506 0.78771 0.0
H763 H 0.95375 0.17877 0.82597 0.0
H764 H 0.97332 0.19063 0.7983 0.0
H765 H 0.96563 0.21717 0.76308 0.0
H766 H 0.94588 0.20522 0.78961 0.0
H767 H 0.99045 0.22222 0.80721 0.0
H768 H 0.96299 0.20585 0.68616 0.0
H769 H 0.94631 0.18953 0.65081 0.0
H770 H 0.9637 0.16994 0.6535 0.0
H771 H 0.9804 0.18608 0.68968 0.0
C772 C 0.03414 0.24083 0.68004 0.0
C773 C 0.03796 0.23301 0.67106 0.0
C774 C 0.02264 0.23682 0.69082 0.0
C775 C 0.01489 0.22494 0.69399 0.0
C776 C 0.01848 0.21716 0.68131 0.0
C777 C 0.02991 0.22117 0.66964 0.0
C778 C 0.00347 0.22054 0.71461 0.0
C779 C -0.00631 0.21181 0.69373 0.0
C780 C 0.00229 0.22437 0.75605 0.0
C781 C 0.01236 0.23275 0.78174 0.0
C782 C 0.02114 0.23037 0.79281 0.0
C783 C 0.03067 0.23835 0.81667 0.0
C784 C 0.03146 0.24868 0.83003 0.0
C785 C 0.02269 0.25104 0.81966 0.0
C786 C 0.01315 0.24309 0.79572 0.0
C787 C 0.95631 0.18727 0.81358 0.0
C788 C 0.94828 0.19105 0.80956 0.0
C789 C 0.96746 0.19399 0.79764 0.0
C790 C 0.97077 0.20464 0.7783 0.0
C791 C 0.96314 0.20892 0.77783 0.0
C792 C 0.9519 0.20211 0.79302 0.0
C793 C 0.98172 0.21062 0.75456 0.0
C794 C 0.99136 0.21951 0.77509 0.0
C795 C 0.98284 0.20674 0.71337 0.0
C796 C 0.97288 0.19712 0.69105 0.0
C797 C 0.96321 0.19802 0.67963 0.0
C798 C 0.95376 0.18881 0.65937 0.0
C799 C 0.95393 0.17869 0.65002 0.0
C800 C 0.96357 0.17778 0.66083 0.0
C801 C 0.97302 0.18695 0.68119 0.0
H802 H 0.94661 0.17158 0.6343 0.0
H803 H 0.03884 0.25485 0.84851 0.0
H804 H 0.84953 0.55596 0.50369 0.0
H805 H 0.86259 0.54935 0.52801 0.0
H806 H 0.8732 0.57303 0.63539 0.0
H807 H 0.86039 0.57993 0.61057 0.0
H808 H 0.89102 0.57132 0.60579 0.0
H809 H 0.85244 0.54546 0.64987 0.0
H810 H 0.83147 0.53297 0.64057 0.0
H811 H 0.83714 0.51136 0.55334 0.0
H812 H 0.85816 0.52383 0.56164 0.0
H813 H 0.89225 0.51658 0.69824 0.0
H814 H 0.88383 0.52906 0.69337 0.0
H815 H 0.90663 0.54741 0.58749 0.0
H816 H 0.91533 0.53527 0.59322 0.0
H817 H 0.87188 0.52911 0.62937 0.0
H818 H 0.90992 0.57369 0.57407 0.0
H819 H 0.93047 0.58647 0.59115 0.0
H820 H 0.92538 0.57105 0.71662 0.0
H821 H 0.90478 0.55829 0.70058 0.0
C822 C 0.85479 0.55991 0.53203 0.0
C823 C 0.85383 0.56835 0.55555 0.0
C824 C 0.86222 0.5561 0.54598 0.0
C825 C 0.86865 0.56052 0.58406 0.0
C826 C 0.86826 0.56947 0.60606 0.0
C827 C 0.86092 0.57338 0.59187 0.0
C828 C 0.87506 0.55519 0.6025 0.0
C829 C 0.88688 0.5621 0.61105 0.0
C830 C 0.86952 0.54322 0.61093 0.0
C831 C 0.85688 0.53563 0.60614 0.0
C832 C 0.84922 0.53809 0.6285 0.0
C833 C 0.83732 0.53101 0.62343 0.0
C834 C 0.83297 0.52139 0.59632 0.0
C835 C 0.84052 0.51882 0.57431 0.0
C836 C 0.85242 0.52588 0.57921 0.0
C837 C 0.89566 0.52348 0.67469 0.0
C838 C 0.90437 0.52489 0.64585 0.0
C839 C 0.89083 0.53058 0.67189 0.0
C840 C 0.89458 0.53917 0.64005 0.0
C841 C 0.90372 0.54099 0.61282 0.0
C842 C 0.90864 0.53398 0.61595 0.0
C843 C 0.888 0.54516 0.63145 0.0
C844 C 0.87609 0.53835 0.62466 0.0
C845 C 0.89342 0.55724 0.62589 0.0
C846 C 0.9058 0.56496 0.63594 0.0
C847 C 0.91317 0.57306 0.60539 0.0
C848 C 0.92484 0.58029 0.61487 0.0
C849 C 0.92924 0.57955 0.6549 0.0
C850 C 0.92197 0.57159 0.68557 0.0
C851 C 0.9103 0.56434 0.67626 0.0
H852 H 0.93827 0.58515 0.66217 0.0
H853 H 0.82376 0.51592 0.59243 0.0
H854 H 0.44287 0.28972 0.51801 0.0
H855 H 0.45059 0.31013 0.53479 0.0
H856 H 0.4161 0.30467 0.54309 0.0
H857 H 0.40826 0.28416 0.52747 0.0
H858 H 0.43693 0.32763 0.49954 0.0
H859 H 0.42262 0.30333 0.62925 0.0
H860 H 0.42118 0.2876 0.67499 0.0
H861 H 0.45802 0.30515 0.68718 0.0
H862 H 0.45967 0.32089 0.64082 0.0
H863 H 0.45268 0.37908 0.6095 0.0
H864 H 0.44124 0.35856 0.59239 0.0
H865 H 0.46932 0.35377 0.63397 0.0
H866 H 0.48055 0.37412 0.65288 0.0
H867 H 0.4502 0.33542 0.65204 0.0
H868 H 0.46567 0.35919 0.52621 0.0
H869 H 0.46906 0.37484 0.47595 0.0
H870 H 0.43274 0.35879 0.45123 0.0
H871 H 0.42911 0.34311 0.50184 0.0
C872 C 0.43693 0.29293 0.52207 0.0
C873 C 0.42497 0.28537 0.52188 0.0
C874 C 0.44136 0.30456 0.53174 0.0
C875 C 0.43388 0.30878 0.54046 0.0
C876 C 0.42196 0.30149 0.5364 0.0
C877 C 0.41752 0.28981 0.52757 0.0
C878 C 0.43846 0.32034 0.55927 0.0
C879 C 0.43966 0.32936 0.53303 0.0
C880 C 0.44227 0.32252 0.60258 0.0
C881 C 0.44127 0.31321 0.63126 0.0
C882 C 0.43041 0.30378 0.64139 0.0
C883 C 0.42956 0.29488 0.66746 0.0
C884 C 0.43951 0.29536 0.68389 0.0
C885 C 0.45032 0.30478 0.67439 0.0
C886 C 0.45122 0.31369 0.64825 0.0
C887 C 0.45627 0.37357 0.61607 0.0
C888 C 0.46755 0.3782 0.63199 0.0
C889 C 0.44977 0.36188 0.60597 0.0
C890 C 0.45457 0.35471 0.61061 0.0
C891 C 0.46547 0.35915 0.62978 0.0
C892 C 0.47189 0.37079 0.64063 0.0
C893 C 0.44872 0.3429 0.59242 0.0
C894 C 0.44732 0.33377 0.61871 0.0
C895 C 0.44496 0.34068 0.5488 0.0
C896 C 0.44711 0.35005 0.51817 0.0
C897 C 0.4584 0.35904 0.51027 0.0
C898 C 0.46037 0.36791 0.48171 0.0
C899 C 0.45112 0.36783 0.46051 0.0
C900 C 0.43989 0.35886 0.46774 0.0
C901 C 0.43787 0.34997 0.49635 0.0
H902 H 0.45266 0.37471 0.4384 0.0
H903 H 0.43883 0.28845 0.70405 0.0
H904 H 0.70136 0.14077 0.49274 0.0
H905 H 0.68087 0.12779 0.50633 0.0
H906 H 0.68906 0.10612 0.58394 0.0
H907 H 0.70957 0.11917 0.57121 0.0
H908 H 0.66452 0.1054 0.49815 0.0
H909 H 0.67325 0.09974 0.67631 0.0
H910 H 0.6885 0.10952 0.73117 0.0
H911 H 0.69998 0.14194 0.66766 0.0
H912 H 0.68471 0.13237 0.61287 0.0
H913 H 0.61011 0.06993 0.5925 0.0
H914 H 0.63043 0.07718 0.5761 0.0
H915 H 0.63934 0.10932 0.63908 0.0
H916 H 0.61908 0.10205 0.65636 0.0
H917 H 0.65531 0.10352 0.65436 0.0
H918 H 0.63513 0.10634 0.53062 0.0
H919 H 0.6199 0.09891 0.47505 0.0
H920 H 0.6313 0.07609 0.4283 0.0
H921 H 0.64652 0.08329 0.48403 0.0
C922 C 0.69879 0.13309 0.51176 0.0
C923 C 0.70706 0.13109 0.5316 0.0
C924 C 0.68707 0.12567 0.51943 0.0
C925 C 0.6835 0.11616 0.54691 0.0
C926 C 0.69168 0.11354 0.56328 0.0
C927 C 0.70339 0.12099 0.55589 0.0
C928 C 0.67147 0.10988 0.5625 0.0
C929 C 0.66249 0.10486 0.5323 0.0
C930 C 0.66885 0.10944 0.60703 0.0
C931 C 0.67793 0.11531 0.64025 0.0
C932 C 0.67901 0.10896 0.67418 0.0
C933 C 0.68766 0.11446 0.70524 0.0
C934 C 0.69523 0.12634 0.7028 0.0
C935 C 0.69414 0.13274 0.66943 0.0
C936 C 0.6855 0.12728 0.63835 0.0
C937 C 0.61643 0.07846 0.60358 0.0
C938 C 0.61301 0.08548 0.62528 0.0
C939 C 0.62802 0.0826 0.59403 0.0
C940 C 0.63634 0.09386 0.60562 0.0
C941 C 0.63303 0.10061 0.62971 0.0
C942 C 0.62145 0.09645 0.63951 0.0
C943 C 0.64834 0.09895 0.59004 0.0
C944 C 0.65732 0.10381 0.62026 0.0
C945 C 0.65095 0.09954 0.54545 0.0
C946 C 0.64187 0.09526 0.51177 0.0
C947 C 0.63433 0.09968 0.50868 0.0
C948 C 0.62571 0.09552 0.47714 0.0
C949 C 0.62461 0.08701 0.44825 0.0
C950 C 0.63215 0.08267 0.45076 0.0
C951 C 0.64078 0.08679 0.4823 0.0
H952 H 0.61793 0.0838 0.42384 0.0
H953 H 0.70193 0.13058 0.72684 0.0
H954 H 0.45443 0.07685 0.10544 0.0
H955 H 0.44115 0.08403 0.09179 0.0
H956 H 0.46814 0.11855 0.12234 0.0
H957 H 0.48122 0.11132 0.13812 0.0
H958 H 0.44906 0.11629 0.14841 0.0
H959 H 0.46178 0.10752 0.01576 0.0
H960 H 0.46474 0.09523 0.964 0.0
H961 H 0.42818 0.07233 0.95664 0.0
H962 H 0.42503 0.08442 0.00882 0.0
H963 H 0.43546 0.15033 0.01449 0.0
H964 H 0.44433 0.13862 0.03037 0.0
H965 H 0.41085 0.10929 0.05583 0.0
H966 H 0.40188 0.12102 0.04106 0.0
H967 H 0.43107 0.10736 0.00281 0.0
H968 H 0.41957 0.11828 0.13779 0.0
H969 H 0.41848 0.13277 0.18367 0.0
H970 H 0.45532 0.15399 0.17985 0.0
H971 H 0.45659 0.1397 0.13329 0.0
C972 C 0.45743 0.08593 0.11012 0.0
C973 C 0.46887 0.09356 0.12239 0.0
C974 C 0.44987 0.09003 0.10202 0.0
C975 C 0.45375 0.10187 0.10482 0.0
C976 C 0.46497 0.10938 0.11973 0.0
C977 C 0.47244 0.10525 0.12873 0.0
C978 C 0.44647 0.10662 0.08964 0.0
C979 C 0.44514 0.1143 0.11658 0.0
C980 C 0.44131 0.10404 0.04807 0.0
C981 C 0.44318 0.0968 0.01654 0.0
C982 C 0.45438 0.09982 0.00331 0.0
C983 C 0.45609 0.0929 0.97388 0.0
C984 C 0.44666 0.08299 0.95715 0.0
C985 C 0.43549 0.08 0.9697 0.0
C986 C 0.43373 0.08688 -0.00082 0.0
C987 C 0.42995 0.14132 0.02236 0.0
C988 C 0.418 0.1366 0.02697 0.0
C989 C 0.43503 0.13467 0.03145 0.0
C990 C 0.4282 0.12318 0.0445 0.0
C991 C 0.4162 0.11817 0.04576 0.0
C992 C 0.41112 0.12487 0.03743 0.0
C993 C 0.43377 0.11693 0.06157 0.0
C994 C 0.43482 0.10908 0.03491 0.0
C995 C 0.4389 0.11954 0.10292 0.0
C996 C 0.43816 0.12798 0.13176 0.0
C997 C 0.42743 0.12608 0.14645 0.0
C998 C 0.42678 0.13425 0.17262 0.0
C999 C 0.43683 0.14431 0.18457 0.0
C1000 C 0.44755 0.1462 0.17052 0.0
C1001 C 0.44824 0.13806 0.14428 0.0
H1002 H 0.43631 0.15063 0.2048 0.0
H1003 H 0.448 0.07764 0.93436 0.0
H1004 H 0.86123 0.27694 0.06316 0.0
H1005 H 0.87375 0.29721 0.08211 0.0
H1006 H 0.85059 0.30587 0.01723 0.0
H1007 H 0.83812 0.28567 -0.00237 0.0
H1008 H 0.87259 0.32199 0.00347 0.0
H1009 H 0.84862 0.30143 0.12477 0.0
H1010 H 0.84052 0.28609 0.17978 0.0
H1011 H 0.87439 0.29782 0.23088 0.0
H1012 H 0.88271 0.31314 0.17574 0.0
H1013 H 0.88055 0.36827 0.16306 0.0
H1014 H 0.8727 0.34773 0.14904 0.0
H1015 H 0.9033 0.35528 0.07748 0.0
H1016 H 0.91116 0.37583 0.09082 0.0
H1017 H 0.87857 0.33101 0.16018 0.0
H1018 H 0.89449 0.33983 0.98389 0.0
H1019 H 0.90057 0.35516 0.92911 0.0
H1020 H 0.8793 0.36685 0.98874 0.0
H1021 H 0.87297 0.35149 0.04342 0.0
C1022 C 0.85891 0.28319 0.05229 0.0
C1023 C 0.84864 0.27972 0.02925 0.0
C1024 C 0.86604 0.29475 0.06331 0.0
C1025 C 0.86297 0.30298 0.05169 0.0
C1026 C 0.85308 0.29963 0.0266 0.0
C1027 C 0.84596 0.28809 0.01549 0.0
C1028 C 0.86965 0.31494 0.06775 0.0
C1029 C 0.874 0.32396 0.0377 0.0
C1030 C 0.87128 0.31749 0.11248 0.0
C1031 C 0.86629 0.30835 0.14585 0.0
C1032 C 0.85435 0.30068 0.14754 0.0
C1033 C 0.84972 0.292 0.17877 0.0
C1034 C 0.85694 0.29096 0.20873 0.0
C1035 C 0.86881 0.29862 0.2076 0.0
C1036 C 0.87348 0.30731 0.17639 0.0
C1037 C 0.88573 0.36554 0.14521 0.0
C1038 C 0.89638 0.37366 0.12737 0.0
C1039 C 0.88124 0.3538 0.13735 0.0
C1040 C 0.88734 0.35004 0.11156 0.0
C1041 C 0.8984 0.35805 0.09691 0.0
C1042 C 0.90287 0.36978 0.1046 0.0
C1043 C 0.88158 0.33803 0.09586 0.0
C1044 C 0.87736 0.32902 0.12595 0.0
C1045 C 0.8798 0.33547 0.05118 0.0
C1046 C 0.88338 0.3446 0.018 0.0
C1047 C 0.89109 0.34565 0.98519 0.0
C1048 C 0.89458 0.35434 0.95417 0.0
C1049 C 0.89036 0.362 0.95554 0.0
C1050 C 0.8826 0.36094 0.98781 0.0
C1051 C 0.87907 0.35225 0.01883 0.0
H1052 H 0.89308 0.36873 0.93155 0.0
H1053 H 0.85334 0.28423 0.23288 0.0
H1054 H 0.62099 0.51334 0.16941 0.0
H1055 H 0.64115 0.52813 0.16042 0.0
H1056 H 0.63072 0.551 0.1046 0.0
H1057 H 0.61052 0.53616 0.11278 0.0
H1058 H 0.6452 0.54912 0.0534 0.0
H1059 H 0.64495 0.55753 0.20157 0.0
H1060 H 0.64111 0.55366 0.27941 0.0
H1061 H 0.66337 0.53922 0.28361 0.0
H1062 H 0.66723 0.54284 0.20565 0.0
H1063 H 0.71197 0.58591 0.1029 0.0
H1064 H 0.69197 0.58009 0.12005 0.0
H1065 H 0.68027 0.55116 0.03321 0.0
H1066 H 0.70018 0.55704 0.01531 0.0
H1067 H 0.677 0.56104 0.15905 0.0
H1068 H 0.65447 0.54351 0.99268 0.0
H1069 H 0.65836 0.54857 0.91558 0.0
H1070 H 0.68158 0.58387 0.94937 0.0
H1071 H 0.67772 0.57906 0.02666 0.0
C1072 C 0.62298 0.5216 0.15612 0.0
C1073 C 0.61419 0.52355 0.1414 0.0
C1074 C 0.63452 0.53008 0.15118 0.0
C1075 C 0.63744 0.54068 0.1319 0.0
C1076 C 0.62865 0.54287 0.11945 0.0
C1077 C 0.61712 0.53438 0.12422 0.0
C1078 C 0.64956 0.54884 0.12025 0.0
C1079 C 0.65216 0.55185 0.07659 0.0
C1080 C 0.65861 0.55262 0.15066 0.0
C1081 C 0.65633 0.55041 0.19764 0.0
C1082 C 0.64897 0.55346 0.21901 0.0
C1083 C 0.6468 0.55132 0.26318 0.0
C1084 C 0.65198 0.54619 0.28643 0.0
C1085 C 0.65936 0.5432 0.26556 0.0
C1086 C 0.66156 0.54531 0.22138 0.0
C1087 C 0.70512 0.57843 0.08685 0.0
C1088 C 0.70763 0.5719 0.05787 0.0
C1089 C 0.69371 0.57511 0.09678 0.0
C1090 C 0.68464 0.56524 0.07777 0.0
C1091 C 0.68713 0.55893 0.04771 0.0
C1092 C 0.69852 0.56227 0.03764 0.0
C1093 C 0.67261 0.56088 0.09197 0.0
C1094 C 0.67004 0.55854 0.13605 0.0
C1095 C 0.66358 0.5579 0.06205 0.0
C1096 C 0.66585 0.5609 0.01554 0.0
C1097 C 0.66036 0.55236 0.98368 0.0
C1098 C 0.66257 0.55519 0.93993 0.0
C1099 C 0.67023 0.56653 0.92759 0.0
C1100 C 0.67568 0.57508 0.95898 0.0
C1101 C 0.67349 0.5723 0.00277 0.0
H1102 H 0.67193 0.5687 0.8937 0.0
H1103 H 0.65029 0.54454 0.32062 0.0
H1104 H 0.53065 0.91302 0.86304 0.0
H1105 H 0.54201 0.90351 0.8741 0.0
H1106 H 0.51206 0.8706 0.84668 0.0
H1107 H 0.50069 0.88003 0.83462 0.0
H1108 H 0.52342 0.8741 0.93281 0.0
H1109 H 0.53126 0.87811 0.77938 0.0
H1110 H 0.53808 0.88898 0.71126 0.0
H1111 H 0.57176 0.90981 0.76604 0.0
H1112 H 0.56509 0.89917 0.83474 0.0
H1113 H 0.54539 0.83626 0.94912 0.0
H1114 H 0.53588 0.84719 0.93152 0.0
H1115 H 0.56902 0.87801 0.91691 0.0
H1116 H 0.57857 0.86691 0.93239 0.0
H1117 H 0.55658 0.87652 0.85247 0.0
H1118 H 0.55003 0.87357 0.0041 0.0
H1119 H 0.54408 0.86423 0.07538 0.0
H1120 H 0.50933 0.84359 0.02992 0.0
H1121 H 0.5151 0.85269 0.95816 0.0
C1122 C 0.52657 0.90379 0.85818 0.0
C1123 C 0.51478 0.89724 0.84828 0.0
C1124 C 0.53307 0.8984 0.86448 0.0
C1125 C 0.52781 0.88639 0.86143 0.0
C1126 C 0.51622 0.87989 0.84913 0.0
C1127 C 0.50976 0.8853 0.84208 0.0
C1128 C 0.53401 0.88052 0.876 0.0
C1129 C 0.53058 0.87445 0.91506 0.0
C1130 C 0.54363 0.88152 0.85364 0.0
C1131 C 0.54764 0.88793 0.81237 0.0
C1132 C 0.54009 0.88509 0.77706 0.0
C1133 C 0.54393 0.89119 0.7383 0.0
C1134 C 0.55533 0.9001 0.73437 0.0
C1135 C 0.56292 0.90291 0.76916 0.0
C1136 C 0.55912 0.89684 0.808 0.0
C1137 C 0.55065 0.84541 0.94293 0.0
C1138 C 0.56271 0.85075 0.94209 0.0
C1139 C 0.5452 0.85167 0.933 0.0
C1140 C 0.55173 0.86346 0.92327 0.0
C1141 C 0.5638 0.86891 0.92415 0.0
C1142 C 0.56925 0.86259 0.93322 0.0
C1143 C 0.54594 0.86989 0.90938 0.0
C1144 C 0.54946 0.87614 0.87052 0.0
C1145 C 0.53653 0.86928 0.9325 0.0
C1146 C 0.53303 0.86375 0.97561 0.0
C1147 C 0.54114 0.86697 0.00918 0.0
C1148 C 0.5378 0.86174 0.0497 0.0
C1149 C 0.52634 0.8533 0.05714 0.0
C1150 C 0.5182 0.85011 0.0241 0.0
C1151 C 0.5215 0.85532 0.98351 0.0
H1152 H 0.52377 0.84926 0.08854 0.0
H1153 H 0.55829 0.90481 0.70432 0.0
H1154 H 0.06922 0.61228 0.90235 0.0
H1155 H 0.07463 0.6325 0.91078 0.0
H1156 H 0.10636 0.64273 0.84235 0.0
H1157 H 0.10088 0.62256 0.83289 0.0
H1158 H 0.09178 0.64747 0.95612 0.0
H1159 H 0.11674 0.66842 0.79629 0.0
H1160 H 0.1148 0.66401 0.71838 0.0
H1161 H 0.07834 0.64174 0.73359 0.0
H1162 H 0.08001 0.64614 0.81147 0.0
H1163 H 0.13963 0.70224 0.98317 0.0
H1164 H 0.12518 0.68233 0.9675 0.0
H1165 H 0.10649 0.69397 0.8883 0.0
H1166 H 0.12108 0.71399 0.90326 0.0
H1167 H 0.10942 0.6785 0.84651 0.0
H1168 H 0.09505 0.68029 0.98397 0.0
H1169 H 0.09569 0.68473 0.06156 0.0
H1170 H 0.10816 0.66153 0.09006 0.0
H1171 H 0.10776 0.65707 0.01258 0.0
C1172 C 0.07724 0.61884 0.8883 0.0
C1173 C 0.08468 0.61586 0.86722 0.0
C1174 C 0.08032 0.63038 0.89319 0.0
C1175 C 0.09087 0.63913 0.87711 0.0
C1176 C 0.09807 0.63614 0.85436 0.0
C1177 C 0.09496 0.62459 0.84918 0.0
C1178 C 0.09502 0.65134 0.88826 0.0
C1179 C 0.09551 0.65425 0.93209 0.0
C1180 C 0.09961 0.66017 0.85683 0.0
C1181 C 0.09852 0.65757 0.80985 0.0
C1182 C 0.10829 0.66264 0.783 0.0
C1183 C 0.10724 0.66012 0.73883 0.0
C1184 C 0.09646 0.65258 0.72106 0.0
C1185 C 0.08669 0.64756 0.74741 0.0
C1186 C 0.08769 0.65004 0.7916 0.0
C1187 C 0.13236 0.70058 0.96295 0.0
C1188 C 0.13151 0.70967 0.94431 0.0
C1189 C 0.12407 0.68918 0.95419 0.0
C1190 C 0.11471 0.68667 0.92702 0.0
C1191 C 0.11364 0.69573 0.9094 0.0
C1192 C 0.12196 0.70715 0.91808 0.0
C1193 C 0.10664 0.67459 0.91444 0.0
C1194 C 0.10544 0.6717 0.87041 0.0
C1195 C 0.10119 0.66577 0.94561 0.0
C1196 C 0.10142 0.66839 0.99236 0.0
C1197 C 0.098 0.67619 0.00674 0.0
C1198 C 0.09831 0.6787 0.05072 0.0
C1199 C 0.10197 0.67342 0.08072 0.0
C1200 C 0.10532 0.66561 0.06679 0.0
C1201 C 0.10503 0.66307 0.02284 0.0
H1202 H 0.10221 0.67538 0.11476 0.0
H1203 H 0.09567 0.65065 0.68687 0.0
H1204 H 0.27282 0.40472 0.88728 0.0
H1205 H 0.29306 0.41201 0.86956 0.0
H1206 H 0.30309 0.43924 0.96323 0.0
H1207 H 0.28284 0.43198 0.98132 0.0
H1208 H 0.30743 0.43287 0.83517 0.0
H1209 H 0.32946 0.44625 0.00347 0.0
H1210 H 0.32546 0.43946 0.07889 0.0
H1211 H 0.30257 0.40497 0.03505 0.0
H1212 H 0.30655 0.41151 0.95938 0.0
H1213 H 0.36516 0.47854 0.82884 0.0
H1214 H 0.34466 0.46494 0.83812 0.0
H1215 H 0.35254 0.4393 0.88459 0.0
H1216 H 0.3731 0.45299 0.87649 0.0
H1217 H 0.33896 0.44154 0.93889 0.0
H1218 H 0.33864 0.43622 0.78639 0.0
H1219 H 0.34258 0.44208 0.70998 0.0
H1220 H 0.32199 0.45832 0.71961 0.0
H1221 H 0.31805 0.4527 0.79624 0.0
C1222 C 0.27934 0.41215 0.90466 0.0
C1223 C 0.27625 0.41782 0.93558 0.0
C1224 C 0.29089 0.41631 0.89435 0.0
C1225 C 0.29955 0.42614 0.91506 0.0
C1226 C 0.29653 0.43156 0.94719 0.0
C1227 C 0.28496 0.42742 0.95743 0.0
C1228 C 0.31167 0.43125 0.90095 0.0
C1229 C 0.31434 0.4347 0.85771 0.0
C1230 C 0.32061 0.43344 0.93028 0.0
C1231 C 0.31823 0.4294 0.97573 0.0
C1232 C 0.32361 0.43721 0.00991 0.0
C1233 C 0.32134 0.4334 0.05271 0.0
C1234 C 0.31374 0.4218 0.06176 0.0
C1235 C 0.30842 0.41397 0.02801 0.0
C1236 C 0.31066 0.41772 0.98515 0.0
C1237 C 0.36252 0.46993 0.84011 0.0
C1238 C 0.37073 0.46686 0.85225 0.0
C1239 C 0.35079 0.46213 0.84528 0.0
C1240 C 0.34706 0.45108 0.86198 0.0
C1241 C 0.35523 0.4478 0.87182 0.0
C1242 C 0.36697 0.45562 0.86704 0.0
C1243 C 0.33478 0.44343 0.87323 0.0
C1244 C 0.33207 0.43956 0.91607 0.0
C1245 C 0.32579 0.44073 0.84336 0.0
C1246 C 0.32811 0.44409 0.79718 0.0
C1247 C 0.33501 0.44111 0.77231 0.0
C1248 C 0.33724 0.44438 0.72893 0.0
C1249 C 0.33256 0.45058 0.70997 0.0
C1250 C 0.32561 0.45351 0.73433 0.0
C1251 C 0.32337 0.45027 0.77773 0.0
H1252 H 0.33429 0.4531 0.67639 0.0
H1253 H 0.312 0.41887 0.09492 0.0
H1254 H 0.09168 0.47154 0.30628 0.0
H1255 H 0.09926 0.45845 0.31587 0.0
H1256 H 0.07661 0.44281 0.42481 0.0
H1257 H 0.06874 0.45557 0.41446 0.0
H1258 H 0.11108 0.45831 0.38076 0.0
H1259 H 0.07164 0.41586 0.44273 0.0
H1260 H 0.05075 0.4042 0.42919 0.0
H1261 H 0.0555 0.41835 0.30151 0.0
H1262 H 0.07643 0.42997 0.31404 0.0
H1263 H 0.13284 0.42831 0.49222 0.0
H1264 H 0.1202 0.43617 0.47713 0.0
H1265 H 0.10556 0.41298 0.36892 0.0
H1266 H 0.1179 0.40486 0.38452 0.0
H1267 H 0.08951 0.41613 0.40651 0.0
H1268 H 0.12791 0.43998 0.35368 0.0
H1269 H 0.1491 0.45126 0.35876 0.0
H1270 H 0.14669 0.47374 0.45184 0.0
H1271 H 0.12547 0.46249 0.44776 0.0
C1272 C 0.08815 0.46513 0.33166 0.0
C1273 C 0.07967 0.46461 0.35976 0.0
C1274 C 0.0925 0.45768 0.33719 0.0
C1275 C 0.0885 0.44964 0.37104 0.0
C1276 C 0.0797 0.4488 0.39802 0.0
C1277 C 0.07525 0.45615 0.39219 0.0
C1278 C 0.09433 0.44297 0.38085 0.0
C1279 C 0.10633 0.44907 0.38616 0.0
C1280 C 0.08818 0.43091 0.38751 0.0
C1281 C 0.0756 0.42387 0.37952 0.0
C1282 C 0.06824 0.41645 0.4117 0.0
C1283 C 0.05638 0.40985 0.40421 0.0
C1284 C 0.0518 0.41056 0.36456 0.0
C1285 C 0.05906 0.41784 0.33227 0.0
C1286 C 0.07092 0.42445 0.33958 0.0
C1287 C 0.12675 0.42472 0.46581 0.0
C1288 C 0.12648 0.4161 0.43915 0.0
C1289 C 0.11956 0.42923 0.45713 0.0
C1290 C 0.11214 0.42533 0.42128 0.0
C1291 C 0.11126 0.41615 0.39659 0.0
C1292 C 0.11836 0.41155 0.4055 0.0
C1293 C 0.10617 0.43153 0.40703 0.0
C1294 C 0.09419 0.42535 0.40099 0.0
C1295 C 0.11235 0.44349 0.39841 0.0
C1296 C 0.12511 0.45033 0.40071 0.0
C1297 C 0.1319 0.44729 0.37543 0.0
C1298 C 0.14392 0.45368 0.37811 0.0
C1299 C 0.14924 0.46319 0.40568 0.0
C1300 C 0.14256 0.46636 0.43054 0.0
C1301 C 0.13054 0.45998 0.42804 0.0
H1302 H 0.15854 0.46813 0.40771 0.0
H1303 H 0.04262 0.40545 0.35884 0.0
H1304 H 0.52853 0.60541 0.42401 0.0
H1305 H 0.54073 0.62594 0.4384 0.0
H1306 H 0.52352 0.63367 0.33709 0.0
H1307 H 0.51099 0.61308 0.32345 0.0
H1308 H 0.55566 0.64477 0.39893 0.0
H1309 H 0.51887 0.65493 0.36902 0.0
H1310 H 0.49763 0.64493 0.37149 0.0
H1311 H 0.49729 0.62074 0.46318 0.0
H1312 H 0.51852 0.63069 0.46172 0.0
H1313 H 0.57694 0.70439 0.38188 0.0
H1314 H 0.56819 0.6836 0.37518 0.0
H1315 H 0.54787 0.67904 0.48943 0.0
H1316 H 0.55631 0.69995 0.4953 0.0
H1317 H 0.53469 0.66575 0.43021 0.0
H1318 H 0.57044 0.67279 0.48733 0.0
H1319 H 0.59155 0.68216 0.49452 0.0
H1320 H 0.59392 0.67101 0.36676 0.0
H1321 H 0.57283 0.66171 0.35855 0.0
C1322 C 0.52746 0.61148 0.40426 0.0
C1323 C 0.51869 0.60764 0.37304 0.0
C1324 C 0.53447 0.62322 0.41251 0.0
C1325 C 0.53285 0.63131 0.38952 0.0
C1326 C 0.52472 0.62754 0.35591 0.0
C1327 C 0.51761 0.61578 0.34797 0.0
C1328 C 0.53904 0.64356 0.40285 0.0
C1329 C 0.5511 0.64938 0.40572 0.0
C1330 C 0.53305 0.64944 0.41332 0.0
C1331 C 0.52027 0.6435 0.4149 0.0
C1332 C 0.51426 0.64751 0.38984 0.0
C1333 C 0.50222 0.64185 0.39105 0.0
C1334 C 0.49611 0.63219 0.41737 0.0
C1335 C 0.50203 0.6282 0.44269 0.0
C1336 C 0.51406 0.63384 0.44166 0.0
C1337 C 0.57074 0.69898 0.406 0.0
C1338 C 0.56727 0.70379 0.43904 0.0
C1339 C 0.56578 0.68708 0.40227 0.0
C1340 C 0.55745 0.67974 0.43204 0.0
C1341 C 0.55428 0.68454 0.46606 0.0
C1342 C 0.55913 0.69648 0.46946 0.0
C1343 C 0.55137 0.6671 0.42532 0.0
C1344 C 0.5393 0.66117 0.42366 0.0
C1345 C 0.55735 0.66105 0.41744 0.0
C1346 C 0.57005 0.66662 0.42222 0.0
C1347 C 0.57547 0.67241 0.46064 0.0
C1348 C 0.58743 0.67769 0.46492 0.0
C1349 C 0.59407 0.6772 0.43109 0.0
C1350 C 0.58876 0.67139 0.39294 0.0
C1351 C 0.5768 0.6661 0.38848 0.0
H1352 H 0.60334 0.6813 0.43447 0.0
H1353 H 0.4868 0.62781 0.41821 0.0
H1354 H 0.37195 0.89459 0.29162 0.0
H1355 H 0.35095 0.88552 0.29358 0.0
H1356 H 0.35366 0.90913 0.394 0.0
H1357 H 0.37456 0.91844 0.3911 0.0
H1358 H 0.33801 0.87402 0.35678 0.0
H1359 H 0.33075 0.9125 0.39845 0.0
H1360 H 0.33866 0.93283 0.37764 0.0
H1361 H 0.35046 0.92647 0.25738 0.0
H1362 H 0.34248 0.90606 0.27715 0.0
H1363 H 0.28668 0.85342 0.47292 0.0
H1364 H 0.30675 0.865 0.44975 0.0
H1365 H 0.29586 0.87599 0.33707 0.0
H1366 H 0.27588 0.86476 0.36062 0.0
H1367 H 0.31467 0.89328 0.36721 0.0
H1368 H 0.30243 0.85441 0.33021 0.0
H1369 H 0.29386 0.83351 0.34187 0.0
H1370 H 0.32005 0.8398 0.43532 0.0
H1371 H 0.32868 0.86075 0.42466 0.0
C1372 C 0.36806 0.898 0.31336 0.0
C1373 C 0.37488 0.90717 0.34138 0.0
C1374 C 0.35607 0.8928 0.31453 0.0
C1375 C 0.35072 0.89666 0.34385 0.0
C1376 C 0.35756 0.90613 0.37051 0.0
C1377 C 0.36953 0.91141 0.369 0.0
C1378 C 0.33807 0.89007 0.35012 0.0
C1379 C 0.3329 0.87823 0.35866 0.0
C1380 C 0.33134 0.8955 0.35178 0.0
C1381 C 0.33608 0.90775 0.33947 0.0
C1382 C 0.33498 0.91542 0.36747 0.0
C1383 C 0.33949 0.92696 0.35587 0.0
C1384 C 0.34509 0.93095 0.31626 0.0
C1385 C 0.34616 0.92338 0.28811 0.0
C1386 C 0.34166 0.91183 0.29954 0.0
C1387 C 0.28859 0.85841 0.44348 0.0
C1388 C 0.27972 0.85813 0.41845 0.0
C1389 C 0.30004 0.86496 0.43014 0.0
C1390 C 0.30276 0.87117 0.39123 0.0
C1391 C 0.29395 0.87124 0.36709 0.0
C1392 C 0.28253 0.86479 0.3806 0.0
C1393 C 0.31476 0.87735 0.37512 0.0
C1394 C 0.31979 0.88908 0.36482 0.0
C1395 C 0.32128 0.87176 0.37044 0.0
C1396 C 0.31614 0.85916 0.37688 0.0
C1397 C 0.30631 0.85134 0.35346 0.0
C1398 C 0.30145 0.83948 0.35986 0.0
C1399 C 0.30639 0.83533 0.38938 0.0
C1400 C 0.31622 0.84303 0.41249 0.0
C1401 C 0.32111 0.8549 0.40625 0.0
H1402 H 0.30261 0.82615 0.39429 0.0
H1403 H 0.34858 0.93989 0.30736 0.0
H1404 H 0.08696 0.24888 0.83731 0.0
H1405 H 0.09257 0.24336 0.9038 0.0
H1406 H 0.07249 0.20752 0.86777 0.0
H1407 H 0.06703 0.21304 0.80014 0.0
H1408 H 0.08211 0.23109 0.97158 0.0
H1409 H 0.08748 0.19419 0.90428 0.0
H1410 H 0.09018 0.18694 0.83443 0.0
H1411 H 0.10704 0.22129 0.78312 0.0
H1412 H 0.10457 0.22874 0.8528 0.0
H1413 H 0.10864 0.22106 0.14584 0.0
H1414 H 0.09467 0.21476 0.08666 0.0
H1415 H 0.12257 0.22831 0.99443 0.0
H1416 H 0.13645 0.23394 0.05335 0.0
H1417 H 0.10487 0.21124 0.95884 0.0
H1418 H 0.11138 0.24512 0.04009 0.0
H1419 H 0.11149 0.25556 0.10597 0.0
H1420 H 0.07523 0.23233 0.12257 0.0
H1421 H 0.07496 0.22169 0.05699 0.0
C1422 C 0.08362 0.23981 0.84366 0.0
C1423 C 0.07667 0.2314 0.81329 0.0
C1424 C 0.08679 0.23666 0.8818 0.0
C1425 C 0.08305 0.22504 0.89052 0.0
C1426 C 0.07559 0.21654 0.86136 0.0
C1427 C 0.07246 0.21971 0.82287 0.0
C1428 C 0.08769 0.22214 0.92886 0.0
C1429 C 0.08692 0.22656 0.96897 0.0
C1430 C 0.09404 0.21633 0.92535 0.0
C1431 C 0.09569 0.21198 0.8835 0.0
C1432 C 0.09178 0.20018 0.87808 0.0
C1433 C 0.09327 0.19604 0.83854 0.0
C1434 C 0.09873 0.20364 0.8043 0.0
C1435 C 0.10277 0.21541 0.8096 0.0
C1436 C 0.10132 0.21959 0.84909 0.0
C1437 C 0.11173 0.22239 0.11284 0.0
C1438 C 0.1236 0.22815 0.104 0.0
C1439 C 0.10377 0.21881 0.0791 0.0
C1440 C 0.10759 0.22138 0.03615 0.0
C1441 C 0.1194 0.22627 0.02728 0.0
C1442 C 0.12734 0.22954 0.06098 0.0
C1443 C 0.09966 0.2206 0.00118 0.0
C1444 C 0.09974 0.21542 0.96183 0.0
C1445 C 0.09304 0.22614 0.00481 0.0
C1446 C 0.09318 0.23254 0.04406 0.0
C1447 C 0.10345 0.24222 0.05796 0.0
C1448 C 0.10354 0.24817 0.09521 0.0
C1449 C 0.09338 0.24459 0.11852 0.0
C1450 C 0.0831 0.23507 0.10455 0.0
C1451 C 0.08298 0.22908 0.06736 0.0
H1452 H 0.09346 0.2492 0.14735 0.0
H1453 H 0.09987 0.20042 0.77371 0.0
H1454 H 0.73844 0.8757 0.12982 0.0
H1455 H 0.74424 0.86879 0.06741 0.0
H1456 H 0.76396 0.90355 0.01913 0.0
H1457 H 0.75788 0.91054 0.08123 0.0
H1458 H 0.75209 0.88999 0.95666 0.0
H1459 H 0.77757 0.88916 0.05887 0.0
H1460 H 0.78424 0.88554 0.12817 0.0
H1461 H 0.76218 0.84911 0.11099 0.0
H1462 H 0.75523 0.8525 0.04188 0.0
H1463 H 0.76636 0.86204 0.78808 0.0
H1464 H 0.77072 0.87449 0.85177 0.0
H1465 H 0.7423 0.8468 0.9198 0.0
H1466 H 0.73771 0.83445 0.85611 0.0
H1467 H 0.76437 0.86076 0.96913 0.0
H1468 H 0.73636 0.86374 0.87399 0.0
H1469 H 0.73084 0.86811 0.80353 0.0
H1470 H 0.76027 0.90221 0.80726 0.0
H1471 H 0.76606 0.89796 0.8775 0.0
C1472 C 0.74408 0.88191 0.10614 0.0
C1473 C 0.74769 0.89367 0.11049 0.0
C1474 C 0.74748 0.87796 0.0706 0.0
C1475 C 0.75474 0.88569 0.03901 0.0
C1476 C 0.75842 0.89745 0.04328 0.0
C1477 C 0.75492 0.90142 0.07872 0.0
C1478 C 0.75773 0.88122 0.00023 0.0
C1479 C 0.75509 0.88385 0.95941 0.0
C1480 C 0.7617 0.87324 0.0036 0.0
C1481 C 0.76584 0.8711 0.04519 0.0
C1482 C 0.77408 0.88038 0.06998 0.0
C1483 C 0.77792 0.87836 0.10923 0.0
C1484 C 0.77363 0.8671 0.12399 0.0
C1485 C 0.7655 0.85783 0.0995 0.0
C1486 C 0.76162 0.85979 0.06023 0.0
C1487 C 0.76117 0.85857 0.8169 0.0
C1488 C 0.75165 0.84734 0.81728 0.0
C1489 C 0.76368 0.86567 0.85311 0.0
C1490 C 0.75682 0.86151 0.89023 0.0
C1491 C 0.7477 0.85011 0.89139 0.0
C1492 C 0.74505 0.8431 0.85501 0.0
C1493 C 0.75828 0.86923 0.92654 0.0
C1494 C 0.76174 0.8672 0.96666 0.0
C1495 C 0.7553 0.87791 0.92249 0.0
C1496 C 0.75172 0.88049 0.88063 0.0
C1497 C 0.74171 0.87213 0.85958 0.0
C1498 C 0.73852 0.87459 0.81974 0.0
C1499 C 0.74522 0.88542 0.80086 0.0
C1500 C 0.75511 0.89382 0.82187 0.0
C1501 C 0.75834 0.89139 0.86168 0.0
H1502 H 0.74274 0.88731 0.77001 0.0
H1503 H 0.77661 0.86556 0.15439 0.0
H1504 H 0.08171 0.83887 0.06441 0.0
H1505 H 0.08885 0.84932 -0.00378 0.0
H1506 H 0.11515 0.87865 0.06538 0.0
H1507 H 0.10819 0.86833 0.13341 0.0
H1508 H 0.09387 0.87094 0.96015 0.0
H1509 H 0.14031 0.88557 0.01688 0.0
H1510 H 0.15031 0.87917 0.06702 0.0
H1511 H 0.12294 0.84414 0.05386 0.0
H1512 H 0.11287 0.85032 0.00323 0.0
H1513 H 0.13438 0.91132 0.80963 0.0
H1514 H 0.12297 0.90131 0.87356 0.0
H1515 H 0.13108 0.87422 0.85419 0.0
H1516 H 0.14284 0.88441 0.79186 0.0
H1517 H 0.13401 0.87984 0.93306 0.0
H1518 H 0.10385 0.87102 0.83119 0.0
H1519 H 0.09293 0.8752 0.77706 0.0
H1520 H 0.08615 0.89461 0.87124 0.0
H1521 H 0.09716 0.89067 0.92581 0.0
C1522 C 0.08886 0.84763 0.06518 0.0
C1523 C 0.09454 0.85269 0.10418 0.0
C1524 C 0.09287 0.85359 0.02625 0.0
C1525 C 0.10259 0.86466 0.02595 0.0
C1526 C 0.10769 0.87005 0.06509 0.0
C1527 C 0.10373 0.86412 0.10388 0.0
C1528 C 0.10838 0.86998 0.98491 0.0
C1529 C 0.10265 0.87293 0.95402 0.0
C1530 C 0.11969 0.87224 0.97674 0.0
C1531 C 0.12579 0.86843 0.00667 0.0
C1532 C 0.13645 0.8765 0.0246 0.0
C1533 C 0.14213 0.87291 0.0531 0.0
C1534 C 0.13724 0.86126 0.06374 0.0
C1535 C 0.12669 0.85317 0.04575 0.0
C1536 C 0.12099 0.85671 0.0172 0.0
C1537 C 0.13369 0.90323 0.81916 0.0
C1538 C 0.13954 0.89867 0.79614 0.0
C1539 C 0.12711 0.89747 0.8554 0.0
C1540 C 0.12608 0.88696 0.86842 0.0
C1541 C 0.13179 0.88235 0.84488 0.0
C1542 C 0.13852 0.88818 0.8093 0.0
C1543 C 0.1196 0.88098 0.90783 0.0
C1544 C 0.12523 0.87791 0.93877 0.0
C1545 C 0.10808 0.8783 0.91516 0.0
C1546 C 0.10142 0.88064 0.88247 0.0
C1547 C 0.1001 0.87625 0.84027 0.0
C1548 C 0.09389 0.87857 0.80952 0.0
C1549 C 0.08888 0.88519 0.82067 0.0
C1550 C 0.09005 0.88949 0.86264 0.0
C1551 C 0.09626 0.88721 0.8935 0.0
H1552 H 0.08407 0.88697 0.79682 0.0
H1553 H 0.14165 0.85851 0.08585 0.0
H1554 H 0.21736 0.08656 0.68496 0.0
H1555 H 0.21615 0.09424 0.61483 0.0
H1556 H 0.24066 0.08548 0.56237 0.0
H1557 H 0.24235 0.0784 0.6331 0.0
H1558 H 0.24779 0.10662 0.5482 0.0
H1559 H 0.21128 0.07246 0.52839 0.0
H1560 H 0.19154 0.0575 0.54771 0.0
H1561 H 0.18123 0.08307 0.55491 0.0
H1562 H 0.20095 0.09822 0.5362 0.0
H1563 H 0.24812 0.12715 0.33981 0.0
H1564 H 0.24308 0.11278 0.39656 0.0
H1565 H 0.22487 0.12682 0.46521 0.0
H1566 H 0.22986 0.14128 0.40859 0.0
H1567 H 0.21378 0.10195 0.46713 0.0
H1568 H 0.25071 0.13594 0.49445 0.0
H1569 H 0.27047 0.15093 0.4754 0.0
H1570 H 0.27979 0.12496 0.45423 0.0
H1571 H 0.26002 0.1098 0.47254 0.0
C1572 C 0.22226 0.08603 0.65812 0.0
C1573 C 0.23003 0.08201 0.66432 0.0
C1574 C 0.22152 0.09036 0.61795 0.0
C1575 C 0.2283 0.09043 0.58319 0.0
C1576 C 0.2354 0.08559 0.58875 0.0
C1577 C 0.23635 0.08153 0.62908 0.0
C1578 C 0.22925 0.09692 0.54317 0.0
C1579 C 0.24033 0.10535 0.53 0.0
C1580 C 0.21952 0.0956 0.52015 0.0
C1581 C 0.20763 0.08649 0.5312 0.0
C1582 C 0.20483 0.07491 0.53439 0.0
C1583 C 0.19363 0.06639 0.54519 0.0
C1584 C 0.18514 0.06933 0.55262 0.0
C1585 C 0.18781 0.0808 0.54916 0.0
C1586 C 0.199 0.08936 0.5384 0.0
C1587 C 0.24291 0.12711 0.36663 0.0
C1588 C 0.23953 0.13547 0.36998 0.0
C1589 C 0.24002 0.11887 0.39894 0.0
C1590 C 0.23368 0.11882 0.43506 0.0
C1591 C 0.22975 0.12673 0.43744 0.0
C1592 C 0.23269 0.13503 0.40524 0.0
C1593 C 0.23227 0.11138 0.47237 0.0
C1594 C 0.22117 0.10294 0.48515 0.0
C1595 C 0.24195 0.11262 0.49515 0.0
C1596 C 0.25386 0.12174 0.48436 0.0
C1597 C 0.25695 0.13342 0.48536 0.0
C1598 C 0.26815 0.14195 0.47477 0.0
C1599 C 0.27637 0.1389 0.46348 0.0
C1600 C 0.27341 0.12731 0.46289 0.0
C1601 C 0.26221 0.11875 0.47339 0.0
H1602 H 0.28505 0.14551 0.4553 0.0
H1603 H 0.17648 0.06272 0.56098 0.0
H1604 H 0.85987 0.08597 0.41748 0.0
H1605 H 0.87424 0.09248 0.47531 0.0
H1606 H 0.88656 0.12781 0.43848 0.0
H1607 H 0.87267 0.12134 0.37954 0.0
H1608 H 0.9039 0.12608 0.46563 0.0
H1609 H 0.86498 0.11304 0.51845 0.0
H1610 H 0.84447 0.09875 0.5299 0.0
H1611 H 0.85399 0.07652 0.5955 0.0
H1612 H 0.87457 0.09064 0.58398 0.0
H1613 H 0.91041 0.1596 0.64737 0.0
H1614 H 0.90601 0.14803 0.58177 0.0
H1615 H 0.90745 0.1212 0.65353 0.0
H1616 H 0.91208 0.13288 0.71946 0.0
H1617 H 0.88634 0.11454 0.61117 0.0
H1618 H 0.92597 0.13269 0.57689 0.0
H1619 H 0.94573 0.14907 0.56946 0.0
H1620 H 0.93434 0.16379 0.47156 0.0
H1621 H 0.91446 0.14763 0.47895 0.0
C1622 C 0.86576 0.09511 0.42144 0.0
C1623 C 0.86505 0.10317 0.3945 0.0
C1624 C 0.87397 0.09882 0.45443 0.0
C1625 C 0.88132 0.11064 0.46181 0.0
C1626 C 0.88099 0.11864 0.43345 0.0
C1627 C 0.87299 0.11494 0.39992 0.0
C1628 C 0.88849 0.11486 0.50136 0.0
C1629 C 0.9001 0.12352 0.49749 0.0
C1630 C 0.88363 0.11129 0.54303 0.0
C1631 C 0.87128 0.1028 0.54981 0.0
C1632 C 0.86268 0.10506 0.53503 0.0
C1633 C 0.85106 0.09701 0.54157 0.0
C1634 C 0.84793 0.08671 0.56326 0.0
C1635 C 0.85643 0.08448 0.57858 0.0
C1636 C 0.86807 0.0925 0.57205 0.0
C1637 C 0.91005 0.15135 0.64894 0.0
C1638 C 0.91145 0.14706 0.68838 0.0
C1639 C 0.90764 0.1448 0.61145 0.0
C1640 C 0.90648 0.13381 0.61291 0.0
C1641 C 0.90841 0.12971 0.65186 0.0
C1642 C 0.91104 0.13637 0.68935 0.0
C1643 C 0.90152 0.12612 0.57526 0.0
C1644 C 0.89031 0.11679 0.57945 0.0
C1645 C 0.90667 0.12929 0.53402 0.0
C1646 C 0.91869 0.13892 0.52855 0.0
C1647 C 0.92765 0.13944 0.55389 0.0
C1648 C 0.93888 0.14869 0.5497 0.0
C1649 C 0.94128 0.15746 0.52006 0.0
C1650 C 0.93246 0.15698 0.49447 0.0
C1651 C 0.92121 0.14776 0.4986 0.0
H1652 H 0.94998 0.16463 0.51692 0.0
H1653 H 0.83892 0.08049 0.56832 0.0
H1654 H 0.82849 0.74285 0.6367 0.0
H1655 H 0.84095 0.74625 0.57445 0.0
H1656 H 0.86957 0.77364 0.64303 0.0
H1657 H 0.85698 0.77047 0.70532 0.0
H1658 H 0.87023 0.77742 0.55188 0.0
H1659 H 0.86742 0.74909 0.65059 0.0
H1660 H 0.85739 0.73241 0.69925 0.0
H1661 H 0.83901 0.71082 0.59145 0.0
H1662 H 0.84874 0.72743 0.54223 0.0
H1663 H 0.90551 0.75964 0.41751 0.0
H1664 H 0.8983 0.76504 0.48119 0.0
H1665 H 0.864 0.74742 0.42795 0.0
H1666 H 0.87103 0.74216 0.36424 0.0
H1667 H 0.87021 0.74109 0.5198 0.0
H1668 H 0.87225 0.77155 0.42425 0.0
H1669 H 0.8831 0.78881 0.3789 0.0
H1670 H 0.9051 0.80688 0.4862 0.0
H1671 H 0.89448 0.78964 0.532 0.0
C1672 C 0.83737 0.74982 0.63806 0.0
C1673 C 0.84187 0.75629 0.6759 0.0
C1674 C 0.84446 0.75175 0.60254 0.0
C1675 C 0.85621 0.76 0.60468 0.0
C1676 C 0.86052 0.7672 0.64096 0.0
C1677 C 0.85335 0.76538 0.6765 0.0
C1678 C 0.86405 0.75986 0.57147 0.0
C1679 C 0.87039 0.76956 0.54524 0.0
C1680 C 0.86443 0.74966 0.56347 0.0
C1681 C 0.85877 0.73954 0.59274 0.0
C1682 C 0.86119 0.7408 0.63728 0.0
C1683 C 0.85556 0.73136 0.66497 0.0
C1684 C 0.84756 0.72056 0.64846 0.0
C1685 C 0.84521 0.71919 0.60419 0.0
C1686 C 0.85079 0.72862 0.57637 0.0
C1687 C 0.89646 0.75705 0.41913 0.0
C1688 C 0.88882 0.75041 0.38595 0.0
C1689 C 0.8924 0.7602 0.45535 0.0
C1690 C 0.88067 0.75665 0.45885 0.0
C1691 C 0.8731 0.75028 0.42544 0.0
C1692 C 0.87715 0.74728 0.38912 0.0
C1693 C 0.87589 0.75843 0.49903 0.0
C1694 C 0.8702 0.74902 0.5269 0.0
C1695 C 0.87635 0.76894 0.50889 0.0
C1696 C 0.88269 0.77926 0.48132 0.0
C1697 C 0.87949 0.77915 0.43801 0.0
C1698 C 0.88558 0.78894 0.41227 0.0
C1699 C 0.89482 0.79892 0.4296 0.0
C1700 C 0.89797 0.79913 0.47277 0.0
C1701 C 0.89191 0.78936 0.49863 0.0
H1702 H 0.89951 0.80649 0.40963 0.0
H1703 H 0.8432 0.71326 0.66996 0.0
H1704 H 0.84665 0.76052 0.92179 0.0
H1705 H 0.85912 0.76566 0.98562 0.0
H1706 H 0.87977 0.75366 0.92199 0.0
H1707 H 0.86757 0.74864 0.85806 0.0
H1708 H 0.86406 0.7436 0.01559 0.0
H1709 H 0.89546 0.77534 0.92875 0.0
H1710 H 0.90275 0.7934 0.88749 0.0
H1711 H 0.8959 0.80925 -0.00464 0.0
H1712 H 0.88842 0.79121 0.03699 0.0
H1713 H 0.90545 0.74166 0.13552 0.0
H1714 H 0.89707 0.74606 0.07362 0.0
H1715 H 0.89705 0.77373 0.14493 0.0
H1716 H 0.90581 0.76956 0.20698 0.0
H1717 H 0.90091 0.77842 0.05571 0.0
H1718 H 0.87372 0.74923 0.14801 0.0
H1719 H 0.86582 0.73174 0.19293 0.0
H1720 H 0.86257 0.71145 0.08078 0.0
H1721 H 0.87069 0.72886 0.03529 0.0
C1722 C 0.854 0.75921 0.92101 0.0
C1723 C 0.85605 0.75407 0.88497 0.0
C1724 C 0.86112 0.76221 0.95737 0.0
C1725 C 0.87039 0.76015 0.95802 0.0
C1726 C 0.87274 0.75547 0.92159 0.0
C1727 C 0.86571 0.75255 0.88521 0.0
C1728 C 0.87649 0.76104 -0.00144 0.0
C1729 C 0.87211 0.75119 0.02445 0.0
C1730 C 0.88672 0.77111 0.01068 0.0
C1731 C 0.89124 0.7819 0.98567 0.0
C1732 C 0.89538 0.78263 0.94344 0.0
C1733 C 0.89958 0.79287 0.92005 0.0
C1734 C 0.89975 0.80245 0.93873 0.0
C1735 C 0.89574 0.80182 0.98089 0.0
C1736 C 0.89153 0.79159 0.00438 0.0
C1737 C 0.90392 0.74886 0.13765 0.0
C1738 C 0.90608 0.75515 0.17606 0.0
C1739 C 0.89914 0.75136 0.10232 0.0
C1740 C 0.8962 0.76003 0.10522 0.0
C1741 C 0.89922 0.76697 0.14228 0.0
C1742 C 0.90419 0.76457 0.1776 0.0
C1743 C 0.88878 0.76073 0.07153 0.0
C1744 C 0.89279 0.77086 0.04727 0.0
C1745 C 0.87804 0.75095 0.06122 0.0
C1746 C 0.87289 0.74038 0.08827 0.0
C1747 C 0.87139 0.74105 0.13295 0.0
C1748 C 0.86687 0.73115 0.15852 0.0
C1749 C 0.86371 0.72049 0.13973 0.0
C1750 C 0.86503 0.71971 0.09529 0.0
C1751 C 0.86959 0.7296 0.06959 0.0
H1752 H 0.86021 0.71283 0.15958 0.0
H1753 H 0.90301 0.81038 0.92058 0.0
H1754 H 0.24306 0.12265 0.83886 0.0
H1755 H 0.23997 0.13272 0.89846 0.0
H1756 H 0.22074 0.10067 0.96722 0.0
H1757 H 0.22384 0.09045 0.90776 0.0
H1758 H 0.21205 0.1173 0.97433 0.0
H1759 H 0.24621 0.11407 0.99295 0.0
H1760 H 0.26458 0.1158 0.96918 0.0
H1761 H 0.27873 0.15212 0.94931 0.0
H1762 H 0.26036 0.15055 0.97232 0.0
H1763 H 0.22128 0.1381 0.19203 0.0
H1764 H 0.21799 0.12816 0.12279 0.0
H1765 H 0.24483 0.15941 0.06492 0.0
H1766 H 0.24849 0.1692 0.13458 0.0
H1767 H 0.24879 0.14295 0.05005 0.0
H1768 H 0.21519 0.14673 0.03759 0.0
H1769 H 0.19682 0.14506 0.06091 0.0
H1770 H 0.1815 0.10831 0.06912 0.0
H1771 H 0.19983 0.10977 0.0464 0.0
C1772 C 0.23798 0.11768 0.86622 0.0
C1773 C 0.23384 0.10577 0.86886 0.0
C1774 C 0.2362 0.12345 0.90016 0.0
C1775 C 0.2302 0.11742 0.93715 0.0
C1776 C 0.22536 0.10543 0.93875 0.0
C1777 C 0.22722 0.09964 0.90492 0.0
C1778 C 0.23034 0.12384 0.97607 0.0
C1779 C 0.22003 0.12286 0.99126 0.0
C1780 C 0.2408 0.13119 -0.00258 0.0
C1781 C 0.25188 0.13216 0.98385 0.0
C1782 C 0.25321 0.1224 0.98312 0.0
C1783 C 0.26362 0.12336 0.96986 0.0
C1784 C 0.27281 0.13406 0.95762 0.0
C1785 C 0.2716 0.14383 0.95873 0.0
C1786 C 0.26119 0.14291 0.97188 0.0
C1787 C 0.22631 0.14289 0.16428 0.0
C1788 C 0.23522 0.15437 0.16861 0.0
C1789 C 0.22438 0.13722 0.12464 0.0
C1790 C 0.23115 0.14304 0.08855 0.0
C1791 C 0.23955 0.15473 0.09236 0.0
C1792 C 0.24163 0.16032 0.13211 0.0
C1793 C 0.2305 0.13667 0.04848 0.0
C1794 C 0.24076 0.13755 0.03313 0.0
C1795 C 0.21998 0.12929 0.02712 0.0
C1796 C 0.20893 0.12837 0.04063 0.0
C1797 C 0.20793 0.1383 0.04468 0.0
C1798 C 0.19752 0.13739 0.05774 0.0
C1799 C 0.18801 0.12658 0.06659 0.0
C1800 C 0.18888 0.11667 0.06229 0.0
C1801 C 0.19928 0.11753 0.04926 0.0
H1802 H 0.17996 0.1259 0.0767 0.0
H1803 H 0.28087 0.13478 0.94738 0.0
H1804 H 0.86104 0.08398 0.22073 0.0
H1805 H 0.87256 0.09063 0.15452 0.0
H1806 H 0.84459 0.09162 0.08971 0.0
H1807 H 0.83315 0.08532 0.15608 0.0
H1808 H 0.85876 0.08295 0.0391 0.0
H1809 H 0.86109 0.11449 0.13057 0.0
H1810 H 0.86508 0.12439 0.20101 0.0
H1811 H 0.89912 0.12884 0.20095 0.0
H1812 H 0.89523 0.11876 0.1308 0.0
H1813 H 0.87318 0.12298 0.87559 0.0
H1814 H 0.86652 0.11009 0.93728 0.0
H1815 H 0.90102 0.127 0.98944 0.0
H1816 H 0.90768 0.14035 0.92822 0.0
H1817 H 0.88728 0.12469 0.04969 0.0
H1818 H 0.88736 0.09828 0.95009 0.0
H1819 H 0.88413 0.08765 0.88175 0.0
H1820 H 0.84756 0.07246 0.89748 0.0
H1821 H 0.85055 0.08313 0.9656 0.0
C1822 C 0.85725 0.08536 0.19205 0.0
C1823 C 0.84626 0.08427 0.19344 0.0
C1824 C 0.86383 0.08912 0.15436 0.0
C1825 C 0.85938 0.09158 0.11752 0.0
C1826 C 0.8481 0.08967 0.1179 0.0
C1827 C 0.84162 0.08616 0.15579 0.0
C1828 C 0.86692 0.09773 0.08076 0.0
C1829 C 0.86504 0.09206 0.04107 0.0
C1830 C 0.8754 0.10947 0.08428 0.0
C1831 C 0.87782 0.11577 0.1258 0.0
C1832 C 0.86939 0.11751 0.14577 0.0
C1833 C 0.87164 0.12315 0.1856 0.0
C1834 C 0.88234 0.12721 0.20551 0.0
C1835 C 0.89083 0.12567 0.18554 0.0
C1836 C 0.88861 0.11999 0.14576 0.0
C1837 C 0.8794 0.12389 0.8999 0.0
C1838 C 0.89095 0.1327 0.89711 0.0
C1839 C 0.87559 0.11642 0.93504 0.0
C1840 C 0.88331 0.11739 0.96767 0.0
C1841 C 0.89492 0.12604 0.96455 0.0
C1842 C 0.89871 0.13367 0.92963 0.0
C1843 C 0.87889 0.11006 0.00676 0.0
C1844 C 0.88131 0.11551 0.04727 0.0
C1845 C 0.8711 0.09804 0.004 0.0
C1846 C 0.8692 0.09156 0.96296 0.0
C1847 C 0.87863 0.09274 0.93886 0.0
C1848 C 0.87684 0.08669 0.90016 0.0
C1849 C 0.86565 0.07939 0.88526 0.0
C1850 C 0.85622 0.07811 0.90908 0.0
C1851 C 0.85796 0.08414 0.94779 0.0
H1852 H 0.86428 0.07471 0.85529 0.0
H1853 H 0.88407 0.13158 0.23636 0.0
H1854 H 0.74531 0.91023 0.36631 0.0
H1855 H 0.75151 0.90249 0.42538 0.0
H1856 H 0.77511 0.89925 0.33966 0.0
H1857 H 0.76915 0.90731 0.28047 0.0
H1858 H 0.7583 0.8784 0.38389 0.0
H1859 H 0.78748 0.91648 0.41513 0.0
H1860 H 0.79597 0.93739 0.42609 0.0
H1861 H 0.77369 0.93119 0.5347 0.0
H1862 H 0.76493 0.91024 0.52402 0.0
H1863 H 0.76048 0.84953 0.57483 0.0
H1864 H 0.76821 0.8627 0.51315 0.0
H1865 H 0.75153 0.88109 0.55962 0.0
H1866 H 0.74411 0.8683 0.62137 0.0
H1867 H 0.77199 0.89582 0.52867 0.0
H1868 H 0.73919 0.85901 0.48188 0.0
H1869 H 0.72912 0.83802 0.46931 0.0
H1870 H 0.75699 0.84193 0.38903 0.0
H1871 H 0.76727 0.86294 0.40156 0.0
C1872 C 0.75198 0.90809 0.3603 0.0
C1873 C 0.75673 0.90932 0.31894 0.0
C1874 C 0.75556 0.90373 0.39402 0.0
C1875 C 0.7638 0.90037 0.38676 0.0
C1876 C 0.76881 0.90189 0.3458 0.0
C1877 C 0.7654 0.90649 0.31218 0.0
C1878 C 0.76602 0.89409 0.42102 0.0
C1879 C 0.76164 0.88225 0.41526 0.0
C1880 C 0.77026 0.89915 0.46184 0.0
C1881 C 0.77552 0.91176 0.46867 0.0
C1882 C 0.78433 0.91957 0.44119 0.0
C1883 C 0.7892 0.93144 0.44738 0.0
C1884 C 0.78537 0.93562 0.48106 0.0
C1885 C 0.77666 0.92794 0.50865 0.0
C1886 C 0.77175 0.91606 0.50259 0.0
C1887 C 0.75857 0.85646 0.57204 0.0
C1888 C 0.75158 0.85779 0.60279 0.0
C1889 C 0.76299 0.86397 0.53682 0.0
C1890 C 0.76036 0.87282 0.53159 0.0
C1891 C 0.75373 0.87437 0.56306 0.0
C1892 C 0.74941 0.86697 0.59827 0.0
C1893 C 0.76364 0.88002 0.49214 0.0
C1894 C 0.76907 0.89203 0.49693 0.0
C1895 C 0.76021 0.8751 0.45047 0.0
C1896 C 0.75406 0.86249 0.44315 0.0
C1897 C 0.7432 0.85537 0.46184 0.0
C1898 C 0.73745 0.84348 0.45467 0.0
C1899 C 0.74243 0.83864 0.42853 0.0
C1900 C 0.75316 0.84569 0.40939 0.0
C1901 C 0.75895 0.85758 0.41651 0.0
H1902 H 0.73796 0.82943 0.423 0.0
H1903 H 0.78915 0.94481 0.48579 0.0
H1904 H 0.07869 0.83624 0.36253 0.0
H1905 H 0.08397 0.8511 0.41763 0.0
H1906 H 0.08353 0.87426 0.32194 0.0
H1907 H 0.07788 0.85921 0.26662 0.0
H1908 H 0.10498 0.88202 0.36784 0.0
H1909 H 0.06615 0.86954 0.39803 0.0
H1910 H 0.04555 0.85568 0.40967 0.0
H1911 H 0.05387 0.84269 0.52253 0.0
H1912 H 0.07453 0.85633 0.51125 0.0
H1913 H 0.13435 0.91206 0.55942 0.0
H1914 H 0.12051 0.9075 0.50033 0.0
H1915 H 0.10274 0.87179 0.5391 0.0
H1916 H 0.11616 0.87627 0.59819 0.0
H1917 H 0.08761 0.87761 0.51299 0.0
H1918 H 0.12509 0.88332 0.46022 0.0
H1919 H 0.14598 0.89534 0.44681 0.0
H1920 H 0.14014 0.91948 0.37583 0.0
H1921 H 0.11922 0.90763 0.38921 0.0
C1922 C 0.07943 0.84439 0.35349 0.0
C1923 C 0.07794 0.84663 0.31048 0.0
C1924 C 0.08236 0.85284 0.38496 0.0
C1925 C 0.08405 0.86372 0.37378 0.0
C1926 C 0.08214 0.86586 0.33113 0.0
C1927 C 0.07893 0.85728 0.29971 0.0
C1928 C 0.08948 0.87312 0.4057 0.0
C1929 C 0.10108 0.88139 0.3992 0.0
C1930 C 0.08436 0.87221 0.44643 0.0
C1931 C 0.07192 0.864 0.45377 0.0
C1932 C 0.0636 0.86369 0.42523 0.0
C1933 C 0.05191 0.85587 0.43178 0.0
C1934 C 0.0484 0.84831 0.46684 0.0
C1935 C 0.05659 0.84857 0.49544 0.0
C1936 C 0.0683 0.85637 0.48904 0.0
C1937 C 0.12739 0.90327 0.55559 0.0
C1938 C 0.12645 0.8945 0.58315 0.0
C1939 C 0.11949 0.90069 0.52189 0.0
C1940 C 0.11064 0.88929 0.51509 0.0
C1941 C 0.10944 0.88067 0.54381 0.0
C1942 C 0.11722 0.88324 0.57745 0.0
C1943 C 0.10331 0.88578 0.47594 0.0
C1944 C 0.09135 0.87868 0.48108 0.0
C1945 C 0.10813 0.88759 0.43404 0.0
C1946 C 0.12066 0.89471 0.42621 0.0
C1947 C 0.12829 0.89124 0.442 0.0
C1948 C 0.14012 0.89801 0.43438 0.0
C1949 C 0.14439 0.9082 0.41063 0.0
C1950 C 0.13683 0.91161 0.39434 0.0
C1951 C 0.12499 0.90488 0.40194 0.0
H1952 H 0.15355 0.91342 0.40473 0.0
H1953 H 0.03935 0.84226 0.47184 0.0
H1954 H 0.08578 0.23143 0.55662 0.0
H1955 H 0.09411 0.22507 0.50074 0.0
H1956 H 0.11232 0.21727 0.59798 0.0
H1957 H 0.10443 0.22425 0.65395 0.0
H1958 H 0.12661 0.22939 0.54288 0.0
H1959 H 0.09097 0.19569 0.52882 0.0
H1960 H 0.06991 0.1831 0.52383 0.0
H1961 H 0.06958 0.19914 0.40429 0.0
H1962 H 0.09061 0.21195 0.40882 0.0
H1963 H 0.13439 0.21315 0.30396 0.0
H1964 H 0.12461 0.20703 0.37397 0.0
H1965 H 0.13755 0.24261 0.40881 0.0
H1966 H 0.14748 0.24875 0.33993 0.0
H1967 H 0.10791 0.20957 0.40611 0.0
H1968 H 0.1427 0.24753 0.51102 0.0
H1969 H 0.16386 0.25842 0.51761 0.0
H1970 H 0.1659 0.23027 0.46064 0.0
H1971 H 0.14474 0.21913 0.45428 0.0
C1972 C 0.09136 0.22813 0.56617 0.0
C1973 C 0.09458 0.22847 0.60951 0.0
C1974 C 0.09605 0.22437 0.53418 0.0
C1975 C 0.10379 0.22057 0.54503 0.0
C1976 C 0.1064 0.22019 0.58873 0.0
C1977 C 0.10191 0.22419 0.62067 0.0
C1978 C 0.11041 0.21875 0.51048 0.0
C1979 C 0.12249 0.22487 0.5133 0.0
C1980 C 0.10509 0.2125 0.47234 0.0
C1981 C 0.0924 0.20481 0.46925 0.0
C1982 C 0.08641 0.19659 0.50158 0.0
C1983 C 0.07447 0.1894 0.49881 0.0
C1984 C 0.06841 0.19032 0.46377 0.0
C1985 C 0.07428 0.19842 0.43139 0.0
C1986 C 0.08622 0.20563 0.43399 0.0
C1987 C 0.13525 0.21965 0.32687 0.0
C1988 C 0.1417 0.23143 0.31654 0.0
C1989 C 0.12966 0.21614 0.36675 0.0
C1990 C 0.13049 0.22436 0.39683 0.0
C1991 C 0.13701 0.23611 0.38656 0.0
C1992 C 0.14263 0.23962 0.34699 0.0
C1993 C 0.12398 0.22087 0.43791 0.0
C1994 C 0.11197 0.21374 0.43628 0.0
C1995 C 0.12936 0.22589 0.47762 0.0
C1996 C 0.14211 0.2325 0.48211 0.0
C1997 C 0.14764 0.24361 0.50024 0.0
C1998 C 0.15965 0.24985 0.50383 0.0
C1999 C 0.16622 0.24504 0.48951 0.0
C2000 C 0.1608 0.23399 0.47164 0.0
C2001 C 0.1488 0.22772 0.46799 0.0
H2002 H 0.17551 0.24989 0.49229 0.0
H2003 H 0.05917 0.18475 0.46169 0.0
H2004 H 0.78076 0.55793 0.44698 0.0
H2005 H 0.77044 0.55035 0.37991 0.0
H2006 H 0.799 0.54771 0.32862 0.0
H2007 H 0.80963 0.55568 0.3961 0.0
H2008 H 0.79423 0.55926 0.27622 0.0
H2009 H 0.77134 0.52312 0.33522 0.0
H2010 H 0.75986 0.50805 0.38853 0.0
H2011 H 0.73449 0.51868 0.38944 0.0
H2012 H 0.74588 0.53394 0.33671 0.0
H2013 H 0.74182 0.54483 0.1243 0.0
H2014 H 0.75097 0.53725 0.17281 0.0
H2015 H 0.76988 0.57055 0.23408 0.0
H2016 H 0.76095 0.57816 0.18592 0.0
H2017 H 0.75176 0.53557 0.26106 0.0
H2018 H 0.79682 0.57776 0.24758 0.0
H2019 H 0.8083 0.59173 0.19094 0.0
H2020 H 0.78979 0.56636 0.09313 0.0
H2021 H 0.77833 0.55217 0.14917 0.0
C2022 C 0.78481 0.55554 0.42186 0.0
C2023 C 0.79611 0.55762 0.42659 0.0
C2024 C 0.77879 0.55101 0.38357 0.0
C2025 C 0.78387 0.54833 0.34917 0.0
C2026 C 0.79488 0.54967 0.35479 0.0
C2027 C 0.80095 0.55424 0.39331 0.0
C2028 C 0.77848 0.54629 0.30582 0.0
C2029 C 0.78498 0.55387 0.27254 0.0
C2030 C 0.76648 0.53887 0.29997 0.0
C2031 C 0.75949 0.52969 0.33179 0.0
C2032 C 0.76335 0.5223 0.34691 0.0
C2033 C 0.75684 0.51371 0.37705 0.0
C2034 C 0.74645 0.5124 0.39232 0.0
C2035 C 0.74253 0.51968 0.37748 0.0
C2036 C 0.749 0.52829 0.34734 0.0
C2037 C 0.74785 0.55048 0.14843 0.0
C2038 C 0.75076 0.56212 0.15111 0.0
C2039 C 0.75307 0.54615 0.17594 0.0
C2040 C 0.76129 0.55343 0.20618 0.0
C2041 C 0.76377 0.56487 0.21015 0.0
C2042 C 0.7586 0.56919 0.18282 0.0
C2043 C 0.76742 0.54933 0.2343 0.0
C2044 C 0.76106 0.54058 0.26422 0.0
C2045 C 0.77958 0.55542 0.23652 0.0
C2046 C 0.7867 0.56388 0.2027 0.0
C2047 C 0.79527 0.57511 0.21404 0.0
C2048 C 0.80176 0.58308 0.18201 0.0
C2049 C 0.79978 0.57994 0.13847 0.0
C2050 C 0.79131 0.5688 0.12687 0.0
C2051 C 0.78481 0.56078 0.15876 0.0
H2052 H 0.80479 0.58613 0.11373 0.0
H2053 H 0.74143 0.50575 0.41568 0.0
H2054 H 0.42898 0.19206 0.14172 0.0
H2055 H 0.4331 0.20132 0.2125 0.0
H2056 H 0.41013 0.1685 0.27179 0.0
H2057 H 0.40538 0.15944 0.20046 0.0
H2058 H 0.40476 0.18243 0.29929 0.0
H2059 H 0.44113 0.18468 0.28778 0.0
H2060 H 0.45948 0.18877 0.25428 0.0
H2061 H 0.47021 0.22476 0.24836 0.0
H2062 H 0.45185 0.22087 0.28126 0.0
H2063 H 0.41431 0.20688 0.50488 0.0
H2064 H 0.41789 0.19664 0.44723 0.0
H2065 H 0.43078 0.22663 0.36573 0.0
H2066 H 0.42728 0.23702 0.42327 0.0
H2067 H 0.44238 0.21301 0.3559 0.0
H2068 H 0.40384 0.20876 0.36124 0.0
H2069 H 0.38594 0.20383 0.40044 0.0
H2070 H 0.37981 0.16957 0.42216 0.0
H2071 H 0.39785 0.17441 0.3841 0.0
C2072 C 0.42498 0.18683 0.17004 0.0
C2073 C 0.4168 0.17509 0.16591 0.0
C2074 C 0.42742 0.19209 0.21058 0.0
C2075 C 0.42202 0.18561 0.24778 0.0
C2076 C 0.41437 0.17371 0.24366 0.0
C2077 C 0.41166 0.16853 0.203 0.0
C2078 C 0.4232 0.19143 0.28988 0.0
C2079 C 0.41305 0.1889 0.31198 0.0
C2080 C 0.43397 0.20005 0.30642 0.0
C2081 C 0.44506 0.20246 0.28675 0.0
C2082 C 0.44737 0.19346 0.27907 0.0
C2083 C 0.45778 0.19575 0.26022 0.0
C2084 C 0.466 0.20702 0.24913 0.0
C2085 C 0.46383 0.21603 0.25696 0.0
C2086 C 0.45343 0.21379 0.27577 0.0
C2087 C 0.41812 0.2114 0.47505 0.0
C2088 C 0.42028 0.22269 0.46832 0.0
C2089 C 0.42023 0.20555 0.44227 0.0
C2090 C 0.42448 0.21086 0.40223 0.0
C2091 C 0.42751 0.22241 0.39653 0.0
C2092 C 0.4254 0.22829 0.42932 0.0
C2093 C 0.42399 0.2039 0.36447 0.0
C2094 C 0.4342 0.20633 0.34321 0.0
C2095 C 0.41331 0.19499 0.34899 0.0
C2096 C 0.40225 0.19199 0.37031 0.0
C2097 C 0.39871 0.2002 0.37461 0.0
C2098 C 0.38855 0.19743 0.39666 0.0
C2099 C 0.38176 0.1864 0.41387 0.0
C2100 C 0.38509 0.17812 0.40889 0.0
C2101 C 0.39529 0.18087 0.38716 0.0
H2102 H 0.37392 0.18427 0.43109 0.0
H2103 H 0.47406 0.20877 0.23453 0.0
H2104 H 0.79982 0.24617 0.14664 0.0
H2105 H 0.79089 0.24076 0.21829 0.0
H2106 H 0.80493 0.21822 0.23522 0.0
H2107 H 0.81399 0.2237 0.16444 0.0
H2108 H 0.77494 0.22042 0.24859 0.0
H2109 H 0.81207 0.21762 0.33677 0.0
H2110 H 0.83331 0.22802 0.33686 0.0
H2111 H 0.83392 0.25835 0.28867 0.0
H2112 H 0.81269 0.2482 0.28891 0.0
H2113 H 0.75512 0.17843 0.40981 0.0
H2114 H 0.76342 0.19151 0.34882 0.0
H2115 H 0.78353 0.21962 0.43642 0.0
H2116 H 0.77556 0.20644 0.49762 0.0
H2117 H 0.79671 0.21989 0.37736 0.0
H2118 H 0.76072 0.21821 0.37491 0.0
H2119 H 0.73959 0.20949 0.37642 0.0
H2120 H 0.73684 0.19154 0.25813 0.0
H2121 H 0.75794 0.20001 0.25619 0.0
C2122 C 0.80106 0.24013 0.16585 0.0
C2123 C 0.80761 0.23537 0.15003 0.0
C2124 C 0.79595 0.23704 0.20667 0.0
C2125 C 0.79739 0.22921 0.23224 0.0
C2126 C 0.80392 0.22446 0.21639 0.0
C2127 C 0.80904 0.22756 0.17581 0.0
C2128 C 0.7917 0.22552 0.27482 0.0
C2129 C 0.77968 0.22039 0.27696 0.0
C2130 C 0.79796 0.22588 0.31213 0.0
C2131 C 0.81076 0.23211 0.31267 0.0
C2132 C 0.81673 0.22653 0.32649 0.0
C2133 C 0.82877 0.23238 0.32641 0.0
C2134 C 0.83496 0.24383 0.31271 0.0
C2135 C 0.82911 0.24947 0.29917 0.0
C2136 C 0.81707 0.24367 0.29923 0.0
C2137 C 0.76119 0.18742 0.41614 0.0
C2138 C 0.76475 0.19139 0.45847 0.0
C2139 C 0.76588 0.19493 0.38122 0.0
C2140 C 0.774 0.2066 0.388 0.0
C2141 C 0.77727 0.21065 0.43039 0.0
C2142 C 0.77273 0.20311 0.46531 0.0
C2143 C 0.77984 0.21423 0.35066 0.0
C2144 C 0.79194 0.22011 0.34944 0.0
C2145 C 0.77365 0.21484 0.31465 0.0
C2146 C 0.76093 0.20972 0.31553 0.0
C2147 C 0.75561 0.21234 0.34935 0.0
C2148 C 0.74364 0.20745 0.35026 0.0
C2149 C 0.73688 0.19996 0.31742 0.0
C2150 C 0.74209 0.19735 0.28354 0.0
C2151 C 0.75406 0.20221 0.28248 0.0
H2152 H 0.72761 0.19618 0.31819 0.0
H2153 H 0.84428 0.24834 0.31263 0.0
H2154 H 0.88885 0.47114 0.73581 0.0
H2155 H 0.88027 0.45722 0.79473 0.0
H2156 H 0.89819 0.43985 0.75063 0.0
H2157 H 0.90638 0.45337 0.69101 0.0
H2158 H 0.87808 0.42456 0.77991 0.0
H2159 H 0.90924 0.46143 0.83112 0.0
H2160 H 0.91899 0.48239 0.84396 0.0
H2161 H 0.88989 0.47816 0.91715 0.0
H2162 H 0.87993 0.45716 0.90434 0.0
H2163 H 0.90252 0.41183 0.95685 0.0
H2164 H 0.89673 0.41833 0.89279 0.0
H2165 H 0.87099 0.42099 0.96756 0.0
H2166 H 0.87655 0.41415 0.03176 0.0
H2167 H 0.88846 0.44185 0.92632 0.0
H2168 H 0.86081 0.40336 0.89042 0.0
H2169 H 0.85336 0.38259 0.87978 0.0
H2170 H 0.87817 0.38998 0.77925 0.0
H2171 H 0.8859 0.41081 0.78969 0.0
C2172 C 0.89083 0.46426 0.73841 0.0
C2173 C 0.89842 0.46344 0.70911 0.0
C2174 C 0.88592 0.45631 0.77207 0.0
C2175 C 0.88874 0.44761 0.77754 0.0
C2176 C 0.89587 0.44647 0.74707 0.0
C2177 C 0.90061 0.45427 0.71309 0.0
C2178 C 0.88525 0.4403 0.81678 0.0
C2179 C 0.8803 0.42832 0.81197 0.0
C2180 C 0.88784 0.44517 0.85876 0.0
C2181 C 0.89378 0.45778 0.86626 0.0
C2182 C 0.90489 0.46499 0.84966 0.0
C2183 C 0.91046 0.47687 0.85698 0.0
C2184 C 0.90504 0.48161 0.88121 0.0
C2185 C 0.89406 0.47448 0.89828 0.0
C2186 C 0.88845 0.46259 0.891 0.0
C2187 C 0.89542 0.41351 0.95932 0.0
C2188 C 0.89002 0.41257 -0.00089 0.0
C2189 C 0.89208 0.41715 0.92274 0.0
C2190 C 0.8834 0.42007 0.92556 0.0
C2191 C 0.87762 0.41866 0.96482 0.0
C2192 C 0.88081 0.41476 0.00132 0.0
C2193 C 0.88179 0.42622 0.88916 0.0
C2194 C 0.88582 0.43801 0.89448 0.0
C2195 C 0.87862 0.42121 0.84768 0.0
C2196 C 0.87396 0.40868 0.84096 0.0
C2197 C 0.86474 0.40057 0.86622 0.0
C2198 C 0.86045 0.38878 0.8602 0.0
C2199 C 0.8653 0.38497 0.82888 0.0
C2200 C 0.87442 0.39295 0.80347 0.0
C2201 C 0.87874 0.40475 0.80938 0.0
H2202 H 0.86197 0.37584 0.82428 0.0
H2203 H 0.90937 0.49081 0.88686 0.0
H2204 H 0.57046 0.46337 0.02428 0.0
H2205 H 0.56311 0.4539 0.95462 0.0
H2206 H 0.57649 0.48715 0.89362 0.0
H2207 H 0.58306 0.49652 0.96389 0.0
H2208 H 0.55555 0.47533 0.87586 0.0
H2209 H 0.58625 0.46678 0.87143 0.0
H2210 H 0.59867 0.45946 0.89872 0.0
H2211 H 0.56931 0.42545 0.90905 0.0
H2212 H 0.55668 0.4326 0.88237 0.0
H2213 H 0.53671 0.45424 0.66756 0.0
H2214 H 0.5505 0.46238 0.72678 0.0
H2215 H 0.53072 0.43133 0.80075 0.0
H2216 H 0.5168 0.42303 0.74159 0.0
H2217 H 0.55576 0.44183 0.80856 0.0
H2218 H 0.52528 0.45119 0.81996 0.0
H2219 H 0.51292 0.45854 0.79225 0.0
H2220 H 0.54279 0.49154 0.76848 0.0
H2221 H 0.55534 0.48431 0.79548 0.0
C2222 C 0.5721 0.46862 -0.00433 0.0
C2223 C 0.57726 0.48063 -0.00094 0.0
C2224 C 0.56796 0.46321 0.9558 0.0
C2225 C 0.56926 0.46979 0.91867 0.0
C2226 C 0.57531 0.48188 0.92179 0.0
C2227 C 0.5791 0.48724 0.96179 0.0
C2228 C 0.5629 0.4642 0.87838 0.0
C2229 C 0.55587 0.46819 0.86073 0.0
C2230 C 0.56291 0.45459 0.85932 0.0
C2231 C 0.5705 0.45025 0.87519 0.0
C2232 C 0.58242 0.45776 0.87981 0.0
C2233 C 0.5895 0.45363 0.89512 0.0
C2234 C 0.58477 0.442 0.9057 0.0
C2235 C 0.57296 0.43446 0.90087 0.0
C2236 C 0.56584 0.43854 0.88559 0.0
C2237 C 0.53534 0.44905 0.69613 0.0
C2238 C 0.52555 0.43805 0.70013 0.0
C2239 C 0.54327 0.45371 0.72983 0.0
C2240 C 0.54156 0.44746 0.76807 0.0
C2241 C 0.53218 0.43624 0.77133 0.0
C2242 C 0.52419 0.43157 0.73766 0.0
C2243 C 0.54875 0.45318 0.80628 0.0
C2244 C 0.55573 0.44913 0.82362 0.0
C2245 C 0.54879 0.4628 0.82515 0.0
C2246 C 0.54125 0.46717 0.80927 0.0
C2247 C 0.52921 0.45998 0.80848 0.0
C2248 C 0.52217 0.46413 0.79297 0.0
C2249 C 0.52707 0.47549 0.77849 0.0
C2250 C 0.53901 0.48273 0.77963 0.0
C2251 C 0.54609 0.47862 0.79505 0.0
H2252 H 0.5216 0.47868 0.7665 0.0
H2253 H 0.59027 0.43883 0.91756 0.0
H2254 H 0.57489 0.09994 0.73705 0.0
H2255 H 0.56974 0.10887 0.79556 0.0
H2256 H 0.53413 0.0899 0.7555 0.0
H2257 H 0.53924 0.08135 0.6965 0.0
H2258 H 0.53897 0.11043 0.77978 0.0
H2259 H 0.54596 0.0805 0.83798 0.0
H2260 H 0.55793 0.07168 0.85352 0.0
H2261 H 0.58224 0.10221 0.92147 0.0
H2262 H 0.57046 0.11124 0.90589 0.0
H2263 H 0.50146 0.08634 0.95406 0.0
H2264 H 0.5142 0.09224 0.89131 0.0
H2265 H 0.54172 0.11858 0.96755 0.0
H2266 H 0.52887 0.11288 0.03045 0.0
H2267 H 0.5463 0.10184 0.92839 0.0
H2268 H 0.53424 0.12815 0.88758 0.0
H2269 H 0.52049 0.13497 0.8746 0.0
H2270 H 0.50391 0.10941 0.77562 0.0
H2271 H 0.51745 0.10231 0.78842 0.0
C2272 C 0.56598 0.09777 0.74058 0.0
C2273 C 0.55745 0.08985 0.71243 0.0
C2274 C 0.56306 0.10288 0.77398 0.0
C2275 C 0.55152 0.09996 0.78023 0.0
C2276 C 0.5431 0.09235 0.75124 0.0
C2277 C 0.54602 0.08739 0.71763 0.0
C2278 C 0.54787 0.10396 0.81855 0.0
C2279 C 0.54062 0.10862 0.81232 0.0
C2280 C 0.55034 0.10199 0.86112 0.0
C2281 C 0.55744 0.0966 0.87024 0.0
C2282 C 0.55391 0.08535 0.85594 0.0
C2283 C 0.56064 0.08032 0.8648 0.0
C2284 C 0.57086 0.0864 0.88832 0.0
C2285 C 0.57435 0.09753 0.90313 0.0
C2286 C 0.56765 0.10261 0.89429 0.0
C2287 C 0.51013 0.09358 0.95712 0.0
C2288 C 0.51422 0.09912 -0.00303 0.0
C2289 C 0.51738 0.09698 0.92127 0.0
C2290 C 0.52886 0.10587 0.92489 0.0
C2291 C 0.53285 0.11177 0.96418 0.0
C2292 C 0.52551 0.10851 -6e-05 0.0
C2293 C 0.53691 0.10765 0.88931 0.0
C2294 C 0.54501 0.1041 0.89603 0.0
C2295 C 0.53502 0.11041 0.84723 0.0
C2296 C 0.52687 0.11468 0.83905 0.0
C2297 C 0.52763 0.12393 0.86322 0.0
C2298 C 0.51987 0.12785 0.85586 0.0
C2299 C 0.51133 0.12262 0.82432 0.0
C2300 C 0.51054 0.11346 0.80001 0.0
C2301 C 0.51827 0.1095 0.80724 0.0
H2302 H 0.50533 0.12567 0.81868 0.0
H2303 H 0.57606 0.08249 0.89517 0.0
H2304 H 0.51682 0.09991 0.24183 0.0
H2305 H 0.52877 0.10494 0.30671 0.0
H2306 H 0.54937 0.09222 0.24705 0.0
H2307 H 0.53769 0.08745 0.18193 0.0
H2308 H 0.53 0.0904 0.3574 0.0
H2309 H 0.5758 0.10427 0.28757 0.0
H2310 H 0.58825 0.11618 0.22801 0.0
H2311 H 0.5701 0.13501 0.22367 0.0
H2312 H 0.55765 0.12334 0.28364 0.0
H2313 H 0.55908 0.0704 0.48012 0.0
H2314 H 0.55179 0.07624 0.41876 0.0
H2315 H 0.57302 0.11191 0.455 0.0
H2316 H 0.58044 0.10613 0.51682 0.0
H2317 H 0.5725 0.10803 0.36519 0.0
H2318 H 0.54652 0.10052 0.48043 0.0
H2319 H 0.53431 0.08984 0.54244 0.0
H2320 H 0.5131 0.06123 0.45968 0.0
H2321 H 0.5253 0.07166 0.39726 0.0
C2322 C 0.52402 0.09837 0.24225 0.0
C2323 C 0.52624 0.09318 0.20687 0.0
C2324 C 0.53085 0.10128 0.27932 0.0
C2325 C 0.54001 0.09904 0.28166 0.0
C2326 C 0.54251 0.09426 0.24573 0.0
C2327 C 0.53574 0.09143 0.20859 0.0
C2328 C 0.54603 0.10024 0.32311 0.0
C2329 C 0.5393 0.09442 0.3592 0.0
C2330 C 0.55819 0.10573 0.32591 0.0
C2331 C 0.56574 0.11287 0.29004 0.0
C2332 C 0.5745 0.111 0.27414 0.0
C2333 C 0.58155 0.1177 0.24023 0.0
C2334 C 0.57995 0.12633 0.22202 0.0
C2335 C 0.57131 0.1283 0.23772 0.0
C2336 C 0.56424 0.12163 0.27163 0.0
C2337 C 0.5623 0.0795 0.47488 0.0
C2338 C 0.57024 0.08781 0.5035 0.0
C2339 C 0.5581 0.08281 0.4399 0.0
C2340 C 0.56174 0.09448 0.43294 0.0
C2341 C 0.57008 0.10286 0.46013 0.0
C2342 C 0.57428 0.09954 0.49537 0.0
C2343 C 0.55639 0.09768 0.39802 0.0
C2344 C 0.56323 0.1043 0.36342 0.0
C2345 C 0.54435 0.09316 0.39684 0.0
C2346 C 0.53687 0.08687 0.43416 0.0
C2347 C 0.53929 0.09193 0.47548 0.0
C2348 C 0.53237 0.08592 0.51071 0.0
C2349 C 0.52294 0.07486 0.50501 0.0
C2350 C 0.5204 0.0698 0.46404 0.0
C2351 C 0.52731 0.07577 0.4287 0.0
H2352 H 0.51759 0.07022 0.53233 0.0
H2353 H 0.58541 0.1315 0.19576 0.0
H2354 H 0.88988 0.41614 0.24471 0.0
H2355 H 0.8852 0.42361 0.30893 0.0
H2356 H 0.89766 0.45642 0.24581 0.0
H2357 H 0.9021 0.44898 0.18134 0.0
H2358 H 0.90006 0.43987 0.35784 0.0
H2359 H 0.88564 0.47107 0.2857 0.0
H2360 H 0.8736 0.47125 0.22583 0.0
H2361 H 0.85491 0.43427 0.22383 0.0
H2362 H 0.86672 0.43385 0.2841 0.0
H2363 H 0.91919 0.48881 0.48063 0.0
H2364 H 0.91359 0.47617 0.41781 0.0
H2365 H 0.87789 0.46053 0.45511 0.0
H2366 H 0.88342 0.47323 0.51848 0.0
H2367 H 0.88183 0.46425 0.36402 0.0
H2368 H 0.88989 0.44626 0.48026 0.0
H2369 H 0.90092 0.44534 0.54238 0.0
H2370 H 0.92967 0.45345 0.4595 0.0
H2371 H 0.9189 0.45462 0.39697 0.0
C2372 C 0.89144 0.42489 0.24422 0.0
C2373 C 0.89647 0.432 0.20803 0.0
C2374 C 0.88874 0.42913 0.28094 0.0
C2375 C 0.891 0.44055 0.28212 0.0
C2376 C 0.89561 0.44751 0.24541 0.0
C2377 C 0.89825 0.44327 0.20864 0.0
C2378 C 0.88994 0.44567 0.32309 0.0
C2379 C 0.89592 0.44505 0.35927 0.0
C2380 C 0.88434 0.45225 0.32537 0.0
C2381 C 0.87712 0.45244 0.28933 0.0
C2382 C 0.87891 0.46297 0.27269 0.0
C2383 C 0.87214 0.46312 0.23862 0.0
C2384 C 0.86351 0.45278 0.22098 0.0
C2385 C 0.86162 0.44227 0.23743 0.0
C2386 C 0.86837 0.44208 0.27151 0.0
C2387 C 0.91012 0.4828 0.47527 0.0
C2388 C 0.90175 0.48191 0.50476 0.0
C2389 C 0.90695 0.47558 0.4394 0.0
C2390 C 0.89536 0.46733 0.43237 0.0
C2391 C 0.88688 0.46684 0.46024 0.0
C2392 C 0.89006 0.47407 0.49637 0.0
C2393 C 0.89239 0.45881 0.39738 0.0
C2394 C 0.8857 0.45882 0.36259 0.0
C2395 C 0.89712 0.45146 0.39657 0.0
C2396 C 0.9036 0.45058 0.43394 0.0
C2397 C 0.89859 0.44791 0.47531 0.0
C2398 C 0.9048 0.44735 0.5106 0.0
C2399 C 0.91599 0.44935 0.5049 0.0
C2400 C 0.921 0.4519 0.46386 0.0
C2401 C 0.91484 0.4525 0.42846 0.0
H2402 H 0.92078 0.44891 0.53227 0.0
H2403 H 0.85828 0.45291 0.19459 0.0
H2404 H 0.52436 0.41628 0.53308 0.0
H2405 H 0.53663 0.42175 0.46878 0.0
H2406 H 0.5095 0.42156 0.39328 0.0
H2407 H 0.49728 0.41639 0.45764 0.0
H2408 H 0.52423 0.41231 0.35137 0.0
H2409 H 0.52562 0.44512 0.43098 0.0
H2410 H 0.5287 0.45602 0.49868 0.0
H2411 H 0.56257 0.46032 0.51042 0.0
H2412 H 0.55958 0.44926 0.4431 0.0
H2413 H 0.54062 0.45108 0.18178 0.0
H2414 H 0.53345 0.43811 0.24315 0.0
H2415 H 0.5673 0.45559 0.30105 0.0
H2416 H 0.57445 0.46897 0.2401 0.0
H2417 H 0.55286 0.45409 0.357 0.0
H2418 H 0.55402 0.42646 0.26749 0.0
H2419 H 0.55164 0.4149 0.2023 0.0
H2420 H 0.51491 0.39985 0.21037 0.0
H2421 H 0.51706 0.41144 0.27523 0.0
C2422 C 0.52092 0.41714 0.50256 0.0
C2423 C 0.50994 0.41606 0.50028 0.0
C2424 C 0.52792 0.42022 0.46594 0.0
C2425 C 0.52392 0.42202 0.42654 0.0
C2426 C 0.51265 0.4201 0.42348 0.0
C2427 C 0.50574 0.41726 0.46023 0.0
C2428 C 0.53193 0.42763 0.39036 0.0
C2429 C 0.53054 0.42143 0.35227 0.0
C2430 C 0.54045 0.43939 0.39262 0.0
C2431 C 0.54233 0.44627 0.43239 0.0
C2432 C 0.53369 0.44833 0.44819 0.0
C2433 C 0.53541 0.45453 0.48646 0.0
C2434 C 0.54581 0.45883 0.50891 0.0
C2435 C 0.55451 0.45697 0.49304 0.0
C2436 C 0.55281 0.45073 0.45485 0.0
C2437 C 0.54661 0.45206 0.20713 0.0
C2438 C 0.55808 0.46113 0.20625 0.0
C2439 C 0.54252 0.44454 0.24214 0.0
C2440 C 0.54986 0.44575 0.27663 0.0
C2441 C 0.56147 0.45447 0.27482 0.0
C2442 C 0.56555 0.46211 0.23999 0.0
C2443 C 0.54496 0.43891 0.31658 0.0
C2444 C 0.54688 0.44489 0.35578 0.0
C2445 C 0.53711 0.42688 0.31538 0.0
C2446 C 0.53572 0.41988 0.27623 0.0
C2447 C 0.54544 0.42075 0.25522 0.0
C2448 C 0.54412 0.41418 0.21833 0.0
C2449 C 0.53313 0.40665 0.20219 0.0
C2450 C 0.52342 0.40567 0.22294 0.0
C2451 C 0.52468 0.41223 0.25983 0.0
H2452 H 0.53213 0.40157 0.17362 0.0
H2453 H 0.54713 0.46363 0.53855 0.0
H2454 H 0.41119 0.24615 0.70282 0.0
H2455 H 0.41526 0.2392 0.76977 0.0
H2456 H 0.44367 0.23832 0.70807 0.0
H2457 H 0.43978 0.2455 0.64107 0.0
H2458 H 0.42617 0.217 0.74205 0.0
H2459 H 0.45039 0.25554 0.78804 0.0
H2460 H 0.45596 0.27583 0.8009 0.0
H2461 H 0.42799 0.26524 0.89044 0.0
H2462 H 0.42212 0.24487 0.87762 0.0
H2463 H 0.42655 0.18789 0.93193 0.0
H2464 H 0.43405 0.20224 0.87416 0.0
H2465 H 0.41183 0.21509 0.91609 0.0
H2466 H 0.40469 0.20113 0.97484 0.0
H2467 H 0.43145 0.23238 0.89124 0.0
H2468 H 0.40452 0.19479 0.83216 0.0
H2469 H 0.39717 0.17424 0.81628 0.0
H2470 H 0.42846 0.18283 0.74892 0.0
H2471 H 0.43605 0.20344 0.76486 0.0
C2472 C 0.41848 0.24475 0.70387 0.0
C2473 C 0.4251 0.24626 0.66679 0.0
C2474 C 0.42083 0.24085 0.74213 0.0
C2475 C 0.42977 0.23828 0.74371 0.0
C2476 C 0.43678 0.24033 0.70738 0.0
C2477 C 0.43455 0.24443 0.66925 0.0
C2478 C 0.43058 0.23193 0.78116 0.0
C2479 C 0.42766 0.22044 0.77466 0.0
C2480 C 0.43224 0.2364 0.82352 0.0
C2481 C 0.43578 0.24865 0.83169 0.0
C2482 C 0.44537 0.25753 0.81025 0.0
C2483 C 0.44859 0.26905 0.81757 0.0
C2484 C 0.44233 0.27182 0.84643 0.0
C2485 C 0.43284 0.26308 0.8681 0.0
C2486 C 0.42957 0.25154 0.86087 0.0
C2487 C 0.42334 0.19384 0.92899 0.0
C2488 C 0.41494 0.19331 0.95758 0.0
C2489 C 0.42763 0.20203 0.89598 0.0
C2490 C 0.42336 0.20962 0.89034 0.0
C2491 C 0.41527 0.20935 0.91983 0.0
C2492 C 0.41114 0.20131 0.95327 0.0
C2493 C 0.42663 0.21731 0.85223 0.0
C2494 C 0.43029 0.22902 0.85861 0.0
C2495 C 0.42544 0.213 0.8096 0.0
C2496 C 0.42091 0.20062 0.80021 0.0
C2497 C 0.40987 0.19228 0.81427 0.0
C2498 C 0.40565 0.18063 0.80521 0.0
C2499 C 0.41236 0.17723 0.78175 0.0
C2500 C 0.42329 0.18548 0.76719 0.0
C2501 C 0.42755 0.19714 0.77623 0.0
H2502 H 0.40908 0.1682 0.77474 0.0
H2503 H 0.44483 0.28074 0.85204 0.0
H2504 H 0.74272 0.19302 0.6133 0.0
H2505 H 0.74844 0.20721 0.67172 0.0
H2506 H 0.74658 0.18198 0.76262 0.0
H2507 H 0.74122 0.16788 0.70429 0.0
H2508 H 0.73906 0.19902 0.79368 0.0
H2509 H 0.77047 0.19561 0.71941 0.0
H2510 H 0.78041 0.1962 0.65154 0.0
H2511 H 0.78625 0.23018 0.62553 0.0
H2512 H 0.77615 0.22968 0.69299 0.0
H2513 H 0.77704 0.20916 0.95666 0.0
H2514 H 0.76395 0.20471 0.89654 0.0
H2515 H 0.7859 0.23858 0.84334 0.0
H2516 H 0.7994 0.24301 0.9034 0.0
H2517 H 0.78157 0.22364 0.78446 0.0
H2518 H 0.75729 0.22962 0.87515 0.0
H2519 H 0.74682 0.22933 0.94099 0.0
H2520 H 0.72679 0.19243 0.93488 0.0
H2521 H 0.73725 0.19245 0.86942 0.0
C2522 C 0.74321 0.19042 0.64598 0.0
C2523 C 0.74168 0.17943 0.65442 0.0
C2524 C 0.74642 0.19851 0.67922 0.0
C2525 C 0.74789 0.19559 0.72127 0.0
C2526 C 0.74538 0.18432 0.73034 0.0
C2527 C 0.74242 0.17632 0.69703 0.0
C2528 C 0.75408 0.20458 0.75407 0.0
C2529 C 0.74833 0.20454 0.79187 0.0
C2530 C 0.76608 0.21211 0.75049 0.0
C2531 C 0.77249 0.21257 0.71089 0.0
C2532 C 0.77384 0.20318 0.69909 0.0
C2533 C 0.77949 0.20349 0.66072 0.0
C2534 C 0.78394 0.21321 0.63418 0.0
C2535 C 0.78278 0.22265 0.64608 0.0
C2536 C 0.77709 0.22236 0.68435 0.0
C2537 C 0.77904 0.21578 0.93268 0.0
C2538 C 0.78935 0.2264 0.93462 0.0
C2539 C 0.77142 0.21326 0.89844 0.0
C2540 C 0.77381 0.22137 0.86559 0.0
C2541 C 0.78384 0.23221 0.86843 0.0
C2542 C 0.79155 0.23472 0.90272 0.0
C2543 C 0.76668 0.21769 0.8258 0.0
C2544 C 0.77225 0.21864 0.78632 0.0
C2545 C 0.75448 0.2112 0.82775 0.0
C2546 C 0.74809 0.21105 0.86722 0.0
C2547 C 0.7507 0.22143 0.88794 0.0
C2548 C 0.74475 0.22132 0.92522 0.0
C2549 C 0.73614 0.21087 0.94209 0.0
C2550 C 0.73345 0.20052 0.92171 0.0
C2551 C 0.73937 0.20058 0.88443 0.0
H2552 H 0.73155 0.2108 0.97097 0.0
H2553 H 0.7883 0.21344 0.60445 0.0
H2554 H 0.76458 0.55464 0.97832 0.0
H2555 H 0.76988 0.5478 0.91376 0.0
H2556 H 0.75831 0.56642 0.83362 0.0
H2557 H 0.7523 0.57259 0.8981 0.0
H2558 H 0.75503 0.54843 0.79183 0.0
H2559 H 0.78713 0.57839 0.87126 0.0
H2560 H 0.79947 0.58712 0.93522 0.0
H2561 H 0.80682 0.55941 0.93962 0.0
H2562 H 0.7944 0.55044 0.87594 0.0
H2563 H 0.79957 0.57694 0.63719 0.0
H2564 H 0.78649 0.57121 0.6989 0.0
H2565 H 0.79131 0.54215 0.72154 0.0
H2566 H 0.80419 0.54764 0.65851 0.0
H2567 H 0.79654 0.56029 0.7931 0.0
H2568 H 0.7672 0.53374 0.69756 0.0
H2569 H 0.75608 0.52779 0.62972 0.0
H2570 H 0.74495 0.55237 0.65132 0.0
H2571 H 0.75615 0.55861 0.71896 0.0
C2572 C 0.76294 0.55703 0.9468 0.0
C2573 C 0.7582 0.56425 0.94292 0.0
C2574 C 0.76599 0.55316 0.90999 0.0
C2575 C 0.76482 0.55688 0.86889 0.0
C2576 C 0.75935 0.56346 0.86497 0.0
C2577 C 0.75596 0.56703 0.90177 0.0
C2578 C 0.77042 0.5551 0.83066 0.0
C2579 C 0.7641 0.55099 0.79216 0.0
C2580 C 0.78223 0.55828 0.83114 0.0
C2581 C 0.78973 0.56367 0.86926 0.0
C2582 C 0.79132 0.57413 0.88606 0.0
C2583 C 0.79833 0.57912 0.92222 0.0
C2584 C 0.80389 0.5738 0.94157 0.0
C2585 C 0.80248 0.5635 0.92467 0.0
C2586 C 0.79546 0.55846 0.88856 0.0
C2587 C 0.79775 0.56926 0.65502 0.0
C2588 C 0.80292 0.56276 0.64346 0.0
C2589 C 0.79022 0.56595 0.68994 0.0
C2590 C 0.78791 0.55623 0.71428 0.0
C2591 C 0.79294 0.54962 0.70265 0.0
C2592 C 0.80028 0.55277 0.66691 0.0
C2593 C 0.78122 0.55389 0.75442 0.0
C2594 C 0.78738 0.55734 0.79323 0.0
C2595 C 0.7694 0.55046 0.75381 0.0
C2596 C 0.76258 0.54669 0.71326 0.0
C2597 C 0.76246 0.53795 0.68768 0.0
C2598 C 0.75613 0.53451 0.64928 0.0
C2599 C 0.74982 0.53971 0.63618 0.0
C2600 C 0.74983 0.54835 0.66151 0.0
C2601 C 0.75616 0.55183 0.69993 0.0
H2602 H 0.74493 0.53704 0.60644 0.0
H2603 H 0.80931 0.57768 0.96957 0.0
H2604 H 0.41687 0.89316 0.46394 0.0
H2605 H 0.42311 0.88956 0.5335 0.0
H2606 H 0.41604 0.91447 0.59374 0.0
H2607 H 0.41052 0.91858 0.52363 0.0
H2608 H 0.43625 0.91954 0.61245 0.0
H2609 H 0.40044 0.88389 0.61551 0.0
H2610 H 0.3851 0.86522 0.58776 0.0
H2611 H 0.40914 0.85296 0.5793 0.0
H2612 H 0.42466 0.87161 0.60646 0.0
H2613 H 0.45019 0.91233 0.82287 0.0
H2614 H 0.43723 0.90906 0.76244 0.0
H2615 H 0.45301 0.89308 0.69016 0.0
H2616 H 0.46612 0.89635 0.75047 0.0
H2617 H 0.42757 0.88255 0.68044 0.0
H2618 H 0.46339 0.91901 0.67095 0.0
H2619 H 0.47853 0.93765 0.6997 0.0
H2620 H 0.45345 0.94815 0.72109 0.0
H2621 H 0.43812 0.92948 0.69307 0.0
C2622 C 0.41642 0.89766 0.49229 0.0
C2623 C 0.41333 0.9062 0.48864 0.0
C2624 C 0.41992 0.89555 0.53212 0.0
C2625 C 0.42001 0.90171 0.56905 0.0
C2626 C 0.41612 0.90967 0.5657 0.0
C2627 C 0.41295 0.912 0.52575 0.0
C2628 C 0.42552 0.90103 0.60964 0.0
C2629 C 0.43411 0.91142 0.62767 0.0
C2630 C 0.42307 0.89044 0.6289 0.0
C2631 C 0.41374 0.87919 0.61271 0.0
C2632 C 0.40248 0.87725 0.60744 0.0
C2633 C 0.39375 0.86666 0.59186 0.0
C2634 C 0.39615 0.85792 0.58168 0.0
C2635 C 0.40729 0.85974 0.58717 0.0
C2636 C 0.41606 0.87031 0.60271 0.0
C2637 C 0.4508 0.90793 0.79449 0.0
C2638 C 0.45932 0.90477 0.79121 0.0
C2639 C 0.44335 0.90604 0.76009 0.0
C2640 C 0.44425 0.9009 0.72195 0.0
C2641 C 0.45219 0.89702 0.71951 0.0
C2642 C 0.45973 0.89899 0.75385 0.0
C2643 C 0.43799 0.90101 0.68296 0.0
C2644 C 0.42945 0.89059 0.6652 0.0
C2645 C 0.44038 0.91154 0.66388 0.0
C2646 C 0.4496 0.9228 0.6804 0.0
C2647 C 0.46109 0.92525 0.68215 0.0
C2648 C 0.46971 0.93583 0.69824 0.0
C2649 C 0.46695 0.94407 0.71234 0.0
C2650 C 0.45557 0.94175 0.71024 0.0
C2651 C 0.44691 0.93118 0.69424 0.0
H2652 H 0.47363 0.95225 0.72478 0.0
H2653 H 0.38938 0.84972 0.56962 0.0
H2654 H 0.08591 0.54411 0.80726 0.0
H2655 H 0.09047 0.53745 0.74101 0.0
H2656 H 0.09805 0.5691 0.67733 0.0
H2657 H 0.09326 0.57577 0.74345 0.0
H2658 H 0.08345 0.55167 0.63184 0.0
H2659 H 0.11942 0.56229 0.69425 0.0
H2660 H 0.13333 0.56408 0.75008 0.0
H2661 H 0.11858 0.52733 0.75178 0.0
H2662 H 0.10446 0.5253 0.69642 0.0
H2663 H 0.10173 0.52043 0.46591 0.0
H2664 H 0.10733 0.53381 0.52723 0.0
H2665 H 0.0723 0.51584 0.57359 0.0
H2666 H 0.06664 0.50257 0.51272 0.0
H2667 H 0.10567 0.53128 0.61774 0.0
H2668 H 0.06466 0.5354 0.59852 0.0
H2669 H 0.05175 0.53454 0.54007 0.0
H2670 H 0.07901 0.54447 0.44776 0.0
H2671 H 0.09215 0.54559 0.50574 0.0
C2672 C 0.08872 0.54976 0.77943 0.0
C2673 C 0.08908 0.56042 0.78053 0.0
C2674 C 0.09144 0.54597 0.74161 0.0
C2675 C 0.09469 0.55281 0.70425 0.0
C2676 C 0.09558 0.56369 0.70581 0.0
C2677 C 0.09282 0.56748 0.74363 0.0
C2678 C 0.09564 0.5479 0.66257 0.0
C2679 C 0.08845 0.54737 0.62861 0.0
C2680 C 0.10236 0.54251 0.65788 0.0
C2681 C 0.11083 0.54365 0.69124 0.0
C2682 C 0.11908 0.55458 0.70672 0.0
C2683 C 0.12702 0.55564 0.73827 0.0
C2684 C 0.12683 0.54582 0.7545 0.0
C2685 C 0.11872 0.53493 0.73916 0.0
C2686 C 0.11076 0.53382 0.70763 0.0
C2687 C 0.09527 0.51925 0.48954 0.0
C2688 C 0.08371 0.51055 0.48428 0.0
C2689 C 0.09849 0.52688 0.52448 0.0
C2690 C 0.09018 0.52591 0.55432 0.0
C2691 C 0.07879 0.51684 0.55039 0.0
C2692 C 0.07558 0.50925 0.51565 0.0
C2693 C 0.09306 0.53462 0.58854 0.0
C2694 C 0.10092 0.53584 0.62085 0.0
C2695 C 0.08715 0.54087 0.59144 0.0
C2696 C 0.07937 0.54051 0.55651 0.0
C2697 C 0.06793 0.53749 0.56582 0.0
C2698 C 0.06056 0.53694 0.53275 0.0
C2699 C 0.06455 0.53942 0.49022 0.0
C2700 C 0.07592 0.54251 0.4807 0.0
C2701 C 0.08333 0.5431 0.51365 0.0
H2702 H 0.05882 0.53897 0.46466 0.0
H2703 H 0.13299 0.54666 0.77892 0.0
H2704 H 0.438 0.54246 0.83985 0.0
H2705 H 0.44623 0.55727 0.78382 0.0
H2706 H 0.42755 0.53137 0.68664 0.0
H2707 H 0.41888 0.51678 0.74249 0.0
H2708 H 0.46037 0.55927 0.72884 0.0
H2709 H 0.4242 0.54081 0.59482 0.0
H2710 H 0.40327 0.5332 0.59041 0.0
H2711 H 0.40428 0.5503 0.70904 0.0
H2712 H 0.42526 0.55818 0.71389 0.0
H2713 H 0.48076 0.55815 0.52854 0.0
H2714 H 0.4709 0.55546 0.59703 0.0
H2715 H 0.45881 0.57834 0.55588 0.0
H2716 H 0.46851 0.58087 0.48615 0.0
H2717 H 0.44188 0.56001 0.59104 0.0
H2718 H 0.47891 0.58686 0.63707 0.0
H2719 H 0.50005 0.59655 0.64332 0.0
H2720 H 0.49739 0.56667 0.70533 0.0
H2721 H 0.47624 0.55672 0.69889 0.0
C2722 C 0.43545 0.54002 0.80656 0.0
C2723 C 0.42787 0.52846 0.79543 0.0
C2724 C 0.44015 0.54848 0.77458 0.0
C2725 C 0.43748 0.54551 0.73087 0.0
C2726 C 0.42953 0.53402 0.72006 0.0
C2727 C 0.42465 0.52562 0.75206 0.0
C2728 C 0.44422 0.55383 0.69621 0.0
C2729 C 0.4563 0.55959 0.69903 0.0
C2730 C 0.43898 0.55474 0.65779 0.0
C2731 C 0.42634 0.55008 0.65476 0.0
C2732 C 0.42 0.54304 0.6198 0.0
C2733 C 0.4081 0.53865 0.61727 0.0
C2734 C 0.40245 0.54125 0.64944 0.0
C2735 C 0.40867 0.54827 0.68419 0.0
C2736 C 0.42056 0.55269 0.68688 0.0
C2737 C 0.4761 0.56271 0.53409 0.0
C2738 C 0.4754 0.56971 0.50198 0.0
C2739 C 0.47054 0.56123 0.57346 0.0
C2740 C 0.4643 0.56688 0.58193 0.0
C2741 C 0.46365 0.57398 0.55009 0.0
C2742 C 0.46918 0.57541 0.51037 0.0
C2743 C 0.45787 0.56454 0.62304 0.0
C2744 C 0.4459 0.55998 0.62141 0.0
C2745 C 0.46321 0.56509 0.66305 0.0
C2746 C 0.47595 0.57103 0.66747 0.0
C2747 C 0.48283 0.58233 0.65188 0.0
C2748 C 0.49482 0.58787 0.65545 0.0
C2749 C 0.50006 0.58223 0.67472 0.0
C2750 C 0.49331 0.57103 0.69049 0.0
C2751 C 0.48131 0.56545 0.68697 0.0
H2752 H 0.50935 0.58653 0.67743 0.0
H2753 H 0.39324 0.53784 0.64742 0.0
H2754 H 0.55766 0.80229 0.0543 0.0
H2755 H 0.55037 0.78805 0.11251 0.0
H2756 H 0.57339 0.77599 0.07258 0.0
H2757 H 0.58043 0.7899 0.01377 0.0
H2758 H 0.5534 0.75835 0.0962 0.0
H2759 H 0.58018 0.7964 0.15486 0.0
H2760 H 0.58683 0.81684 0.17052 0.0
H2761 H 0.55539 0.80716 0.23879 0.0
H2762 H 0.5485 0.78666 0.22306 0.0
H2763 H 0.5775 0.74598 0.27329 0.0
H2764 H 0.57172 0.75274 0.21008 0.0
H2765 H 0.54432 0.75267 0.28355 0.0
H2766 H 0.54997 0.74568 0.34705 0.0
H2767 H 0.55984 0.77396 0.24532 0.0
H2768 H 0.53627 0.73521 0.20239 0.0
H2769 H 0.53103 0.71504 0.18902 0.0
H2770 H 0.55757 0.72605 0.09296 0.0
H2771 H 0.56309 0.74631 0.10617 0.0
C2772 C 0.5611 0.79654 0.05775 0.0
C2773 C 0.56972 0.7973 0.02973 0.0
C2774 C 0.55691 0.78841 0.09099 0.0
C2775 C 0.56144 0.78106 0.0972 0.0
C2776 C 0.56974 0.78155 0.06832 0.0
C2777 C 0.57382 0.78956 0.03485 0.0
C2778 C 0.55826 0.7734 0.13532 0.0
C2779 C 0.55477 0.76174 0.12884 0.0
C2780 C 0.55964 0.77773 0.17797 0.0
C2781 C 0.56376 0.79004 0.18727 0.0
C2782 C 0.57465 0.79865 0.17291 0.0
C2783 C 0.57847 0.81023 0.18185 0.0
C2784 C 0.57152 0.8133 0.20549 0.0
C2785 C 0.56075 0.80477 0.22036 0.0
C2786 C 0.55688 0.79318 0.21145 0.0
C2787 C 0.57009 0.74717 0.27573 0.0
C2788 C 0.56422 0.74539 0.31501 0.0
C2789 C 0.56675 0.75096 0.23957 0.0
C2790 C 0.55756 0.75313 0.2422 0.0
C2791 C 0.55139 0.75095 0.28094 0.0
C2792 C 0.55461 0.74696 0.31705 0.0
C2793 C 0.55555 0.75908 0.20602 0.0
C2794 C 0.55806 0.77044 0.21282 0.0
C2795 C 0.55342 0.7545 0.16374 0.0
C2796 C 0.55012 0.74231 0.15539 0.0
C2797 C 0.54104 0.73335 0.1786 0.0
C2798 C 0.53801 0.72189 0.17102 0.0
C2799 C 0.54397 0.71927 0.14018 0.0
C2800 C 0.55296 0.7281 0.11681 0.0
C2801 C 0.55602 0.73957 0.12427 0.0
H2802 H 0.54161 0.71039 0.13437 0.0
H2803 H 0.5745 0.82227 0.2124 0.0
H2804 H 0.2399 0.79877 0.371 0.0
H2805 H 0.23142 0.78317 0.31749 0.0
H2806 H 0.2145 0.79968 0.2565 0.0
H2807 H 0.22277 0.81512 0.30971 0.0
H2808 H 0.19998 0.77677 0.26709 0.0
H2809 H 0.2395 0.8025 0.21652 0.0
H2810 H 0.26063 0.81218 0.22436 0.0
H2811 H 0.25866 0.77938 0.23926 0.0
H2812 H 0.23749 0.76952 0.23198 0.0
H2813 H 0.20539 0.775 0.03264 0.0
H2814 H 0.21535 0.77919 0.10144 0.0
H2815 H 0.18897 0.74654 0.15169 0.0
H2816 H 0.17865 0.7424 0.08287 0.0
H2817 H 0.22447 0.77151 0.15975 0.0
H2818 H 0.18266 0.7514 0.25156 0.0
H2819 H 0.1618 0.74334 0.23972 0.0
H2820 H 0.16886 0.76762 0.13751 0.0
H2821 H 0.18977 0.77587 0.14903 0.0
C2822 C 0.23438 0.79905 0.34613 0.0
C2823 C 0.232 0.80815 0.34448 0.0
C2824 C 0.22954 0.79015 0.31569 0.0
C2825 C 0.2223 0.79028 0.28323 0.0
C2826 C 0.21997 0.79937 0.28159 0.0
C2827 C 0.22477 0.80822 0.31186 0.0
C2828 C 0.21729 0.78123 0.24975 0.0
C2829 C 0.20531 0.77542 0.24411 0.0
C2830 C 0.22423 0.77937 0.22013 0.0
C2831 C 0.23693 0.7853 0.22427 0.0
C2832 C 0.24357 0.79737 0.22179 0.0
C2833 C 0.25555 0.80288 0.22607 0.0
C2834 C 0.26098 0.7964 0.23246 0.0
C2835 C 0.25444 0.78439 0.23443 0.0
C2836 C 0.24246 0.77884 0.23022 0.0
C2837 C 0.20179 0.76857 0.05791 0.0
C2838 C 0.19104 0.75852 0.05272 0.0
C2839 C 0.20758 0.77094 0.09721 0.0
C2840 C 0.20278 0.76329 0.13199 0.0
C2841 C 0.19271 0.75265 0.12543 0.0
C2842 C 0.18682 0.75031 0.08611 0.0
C2843 C 0.20723 0.76756 0.17591 0.0
C2844 C 0.21908 0.77242 0.18378 0.0
C2845 C 0.20021 0.76876 0.20728 0.0
C2846 C 0.18772 0.76412 0.2008 0.0
C2847 C 0.17974 0.75503 0.22667 0.0
C2848 C 0.16792 0.75043 0.22 0.0
C2849 C 0.16401 0.75492 0.18772 0.0
C2850 C 0.17191 0.76411 0.16234 0.0
C2851 C 0.18373 0.76876 0.16895 0.0
H2852 H 0.15487 0.75127 0.1824 0.0
H2853 H 0.27025 0.80069 0.23577 0.0
H2854 H 0.20327 0.41365 0.0214 0.0
H2855 H 0.19788 0.42101 0.08333 0.0
H2856 H 0.23246 0.43596 0.13373 0.0
H2857 H 0.23788 0.42825 0.07184 0.0
H2858 H 0.2179 0.42521 0.19503 0.0
H2859 H 0.22175 0.45346 0.09669 0.0
H2860 H 0.22015 0.46193 0.02822 0.0
H2861 H 0.18329 0.44362 0.03963 0.0
H2862 H 0.18464 0.4349 0.10783 0.0
H2863 H 0.18921 0.43786 0.36431 0.0
H2864 H 0.20283 0.44401 0.30366 0.0
H2865 H 0.17605 0.41886 0.22153 0.0
H2866 H 0.16255 0.41245 0.28212 0.0
H2867 H 0.19234 0.44199 0.18214 0.0
H2868 H 0.1905 0.40992 0.26903 0.0
H2869 H 0.1926 0.40229 0.33884 0.0
H2870 H 0.22743 0.43022 0.34946 0.0
H2871 H 0.22545 0.43811 0.27998 0.0
C2872 C 0.2098 0.4186 0.04533 0.0
C2873 C 0.22101 0.42035 0.04165 0.0
C2874 C 0.20673 0.42292 0.08063 0.0
C2875 C 0.21483 0.42929 0.11277 0.0
C2876 C 0.22609 0.43117 0.1091 0.0
C2877 C 0.22916 0.42673 0.0738 0.0
C2878 C 0.21105 0.43294 0.15175 0.0
C2879 C 0.21263 0.42924 0.19228 0.0
C2880 C 0.20423 0.43827 0.1485 0.0
C2881 C 0.20331 0.44351 0.10746 0.0
C2882 C 0.21329 0.45119 0.08451 0.0
C2883 C 0.21243 0.45604 0.04573 0.0
C2884 C 0.20162 0.45331 0.02959 0.0
C2885 C 0.19166 0.44574 0.05222 0.0
C2886 C 0.19247 0.44086 0.09101 0.0
C2887 C 0.18619 0.43387 0.33299 0.0
C2888 C 0.17489 0.42464 0.32771 0.0
C2889 C 0.19395 0.43739 0.29852 0.0
C2890 C 0.1904 0.43187 0.25834 0.0
C2891 C 0.1789 0.42325 0.25231 0.0
C2892 C 0.17123 0.41956 0.2869 0.0
C2893 C 0.1988 0.43376 0.22414 0.0
C2894 C 0.19804 0.43845 0.18475 0.0
C2895 C 0.20654 0.42956 0.22851 0.0
C2896 C 0.20779 0.42467 0.26969 0.0
C2897 C 0.19857 0.41447 0.28644 0.0
C2898 C 0.19974 0.41009 0.3259 0.0
C2899 C 0.21013 0.41578 0.34864 0.0
C2900 C 0.21938 0.42583 0.33186 0.0
C2901 C 0.21824 0.43026 0.29246 0.0
H2902 H 0.21102 0.41239 0.37919 0.0
H2903 H 0.20097 0.45708 -0.00045 0.0
H2904 H 0.23547 0.41256 0.78535 0.0
H2905 H 0.22789 0.41838 0.72444 0.0
H2906 H 0.22392 0.44213 0.80684 0.0
H2907 H 0.23194 0.43664 0.86779 0.0
H2908 H 0.20291 0.42254 0.75885 0.0
H2909 H 0.24023 0.45527 0.73847 0.0
H2910 H 0.2614 0.46554 0.73239 0.0
H2911 H 0.25894 0.44527 0.62114 0.0
H2912 H 0.23776 0.43475 0.62694 0.0
H2913 H 0.17537 0.42674 0.56917 0.0
H2914 H 0.18761 0.43346 0.63355 0.0
H2915 H 0.20918 0.42111 0.57983 0.0
H2916 H 0.19727 0.41472 0.51523 0.0
H2917 H 0.22209 0.44056 0.62046 0.0
H2918 H 0.18684 0.40484 0.65129 0.0
H2919 H 0.1658 0.39225 0.65769 0.0
H2920 H 0.16444 0.41572 0.74884 0.0
H2921 H 0.18548 0.42851 0.74256 0.0
C2922 C 0.23324 0.41922 0.79016 0.0
C2923 C 0.23426 0.42416 0.83103 0.0
C2924 C 0.22896 0.42255 0.75546 0.0
C2925 C 0.22541 0.43069 0.76137 0.0
C2926 C 0.22673 0.43591 0.80182 0.0
C2927 C 0.23131 0.43279 0.8364 0.0
C2928 C 0.21912 0.43254 0.72621 0.0
C2929 C 0.20708 0.4268 0.72894 0.0
C2930 C 0.22464 0.43783 0.68715 0.0
C2931 C 0.23739 0.44418 0.6833 0.0
C2932 C 0.2442 0.45293 0.71291 0.0
C2933 C 0.25621 0.45882 0.70947 0.0
C2934 C 0.26151 0.45605 0.67643 0.0
C2935 C 0.25482 0.44741 0.64671 0.0
C2936 C 0.24281 0.44149 0.65002 0.0
C2937 C 0.1828 0.42557 0.57092 0.0
C2938 C 0.18527 0.42008 0.53729 0.0
C2939 C 0.18978 0.42941 0.60771 0.0
C2940 C 0.19922 0.42766 0.6117 0.0
C2941 C 0.20196 0.42259 0.57742 0.0
C2942 C 0.19508 0.41887 0.54056 0.0
C2943 C 0.20581 0.43019 0.65255 0.0
C2944 C 0.2179 0.43668 0.6508 0.0
C2945 C 0.20033 0.42534 0.69236 0.0
C2946 C 0.18769 0.41771 0.69598 0.0
C2947 C 0.18203 0.40736 0.67241 0.0
C2948 C 0.17011 0.40018 0.67607 0.0
C2949 C 0.16377 0.40321 0.70353 0.0
C2950 C 0.16935 0.4134 0.72748 0.0
C2951 C 0.18127 0.42062 0.72388 0.0
H2952 H 0.15455 0.39763 0.70634 0.0
H2953 H 0.27081 0.46061 0.67382 0.0
H2954 H 0.55383 0.79661 0.84334 0.0
H2955 H 0.55035 0.78522 0.77739 0.0
H2956 H 0.58044 0.8134 0.71888 0.0
H2957 H 0.58411 0.82477 0.78494 0.0
H2958 H 0.55969 0.80113 0.66326 0.0
H2959 H 0.58432 0.79454 0.76286 0.0
H2960 H 0.58825 0.78875 0.83359 0.0
H2961 H 0.55776 0.75559 0.82124 0.0
H2962 H 0.55356 0.76126 0.75067 0.0
H2963 H 0.5829 0.78266 0.50247 0.0
H2964 H 0.57804 0.79062 0.56418 0.0
H2965 H 0.55568 0.75632 0.61294 0.0
H2966 H 0.56092 0.74827 0.5517 0.0
H2967 H 0.56796 0.76903 0.6752 0.0
H2968 H 0.54488 0.77356 0.57092 0.0
H2969 H 0.53968 0.77867 0.50136 0.0
H2970 H 0.56469 0.81427 0.52233 0.0
H2971 H 0.57018 0.80936 0.59174 0.0
C2972 C 0.55961 0.80044 0.81619 0.0
C2973 C 0.5693 0.81154 0.81928 0.0
C2974 C 0.5576 0.79392 0.77864 0.0
C2975 C 0.56517 0.79849 0.74356 0.0
C2976 C 0.5745 0.80978 0.74572 0.0
C2977 C 0.57662 0.81622 0.78347 0.0
C2978 C 0.56403 0.79123 0.70598 0.0
C2979 C 0.5615 0.79411 0.66557 0.0
C2980 C 0.56593 0.78181 0.70973 0.0
C2981 C 0.56856 0.77837 0.7518 0.0
C2982 C 0.57841 0.78605 0.77541 0.0
C2983 C 0.58069 0.78279 0.81543 0.0
C2984 C 0.57324 0.77183 0.83197 0.0
C2985 C 0.56351 0.76409 0.80843 0.0
C2986 C 0.56118 0.76732 0.76843 0.0
C2987 C 0.57685 0.77678 0.52603 0.0
C2988 C 0.57229 0.76483 0.5222 0.0
C2989 C 0.574 0.78135 0.56121 0.0
C2990 C 0.5663 0.77407 0.59284 0.0
C2991 C 0.56159 0.7621 0.58882 0.0
C2992 C 0.56459 0.75752 0.55385 0.0
C2993 C 0.56397 0.77911 0.63156 0.0
C2994 C 0.56585 0.77584 0.67248 0.0
C2995 C 0.56124 0.78803 0.62828 0.0
C2996 C 0.55798 0.79107 0.58651 0.0
C2997 C 0.54933 0.78247 0.56059 0.0
C2998 C 0.54632 0.78533 0.52119 0.0
C2999 C 0.55186 0.79679 0.50741 0.0
C3000 C 0.56041 0.8054 0.53305 0.0
C3001 C 0.56346 0.80258 0.57247 0.0
H3002 H 0.54952 0.79899 0.47689 0.0
H3003 H 0.57502 0.76932 0.86296 0.0
H3004 H 0.16853 0.75554 0.79813 0.0
H3005 H 0.18169 0.7639 0.73705 0.0
H3006 H 0.20753 0.75988 0.8052 0.0
H3007 H 0.1942 0.75113 0.86628 0.0
H3008 H 0.21395 0.78341 0.77298 0.0
H3009 H 0.19997 0.7453 0.72363 0.0
H3010 H 0.18543 0.72512 0.70798 0.0
H3011 H 0.16907 0.73641 0.61652 0.0
H3012 H 0.1834 0.75666 0.63208 0.0
H3013 H 0.24178 0.8133 0.57441 0.0
H3014 H 0.23664 0.80005 0.6359 0.0
H3015 H 0.20059 0.78633 0.60712 0.0
H3016 H 0.2056 0.79924 0.54587 0.0
H3017 H 0.205 0.76934 0.62189 0.0
H3018 H 0.21497 0.80647 0.68867 0.0
H3019 H 0.22836 0.82684 0.70682 0.0
H3020 H 0.25138 0.81742 0.76667 0.0
H3021 H 0.23817 0.79701 0.74843 0.0
C3022 C 0.17693 0.75622 0.79971 0.0
C3023 C 0.18037 0.75271 0.8367 0.0
C3024 C 0.18441 0.76096 0.76488 0.0
C3025 C 0.19553 0.76245 0.76677 0.0
C3026 C 0.19894 0.75871 0.80324 0.0
C3027 C 0.19132 0.7537 0.83786 0.0
C3028 C 0.2037 0.76886 0.73176 0.0
C3029 C 0.21229 0.78026 0.73997 0.0
C3030 C 0.20141 0.7647 0.68893 0.0
C3031 C 0.19277 0.75252 0.67913 0.0
C3032 C 0.19323 0.74349 0.70038 0.0
C3033 C 0.18503 0.73203 0.69149 0.0
C3034 C 0.17633 0.72948 0.66129 0.0
C3035 C 0.17582 0.73839 0.63987 0.0
C3036 C 0.184 0.74987 0.64865 0.0
C3037 C 0.23277 0.80749 0.58145 0.0
C3038 C 0.22409 0.8073 0.55523 0.0
C3039 C 0.22985 0.79991 0.61646 0.0
C3040 C 0.21823 0.79216 0.62589 0.0
C3041 C 0.20962 0.79213 0.60009 0.0
C3042 C 0.2125 0.79958 0.56518 0.0
C3043 C 0.21472 0.78412 0.66288 0.0
C3044 C 0.20702 0.77239 0.65496 0.0
C3045 C 0.21775 0.78801 0.70595 0.0
C3046 C 0.22568 0.80026 0.71665 0.0
C3047 C 0.22294 0.80877 0.70537 0.0
C3048 C 0.23048 0.82031 0.71574 0.0
C3049 C 0.24074 0.82343 0.73773 0.0
C3050 C 0.24346 0.815 0.74952 0.0
C3051 C 0.23595 0.80345 0.73918 0.0
H3052 H 0.24656 0.83237 0.74575 0.0
H3053 H 0.16999 0.72061 0.65446 0.0
H3054 H 0.10776 0.57593 0.95645 0.0
H3055 H 0.11332 0.56827 0.01822 0.0
H3056 H 0.08855 0.57124 0.09805 0.0
H3057 H 0.08271 0.57851 0.0363 0.0
H3058 H 0.11119 0.57664 0.13987 0.0
H3059 H 0.07853 0.54788 0.05056 0.0
H3060 H 0.07085 0.53879 0.97978 0.0
H3061 H 0.09758 0.53012 0.96893 0.0
H3062 H 0.10553 0.53937 0.03938 0.0
H3063 H 0.08006 0.53676 0.29644 0.0
H3064 H 0.08872 0.55012 0.23684 0.0
H3065 H 0.1021 0.52924 0.18492 0.0
H3066 H 0.09309 0.51553 0.24431 0.0
H3067 H 0.09222 0.53416 0.12398 0.0
H3068 H 0.12062 0.55693 0.22482 0.0
H3069 H 0.12917 0.56642 0.29413 0.0
H3070 H 0.11284 0.58689 0.28303 0.0
H3071 H 0.10404 0.5774 0.21399 0.0
C3072 C 0.10376 0.57525 0.98755 0.0
C3073 C 0.09476 0.57769 0.99181 0.0
C3074 C 0.10696 0.57091 0.02268 0.0
C3075 C 0.10133 0.56922 0.06248 0.0
C3076 C 0.09303 0.57259 0.06759 0.0
C3077 C 0.08966 0.57665 0.03234 0.0
C3078 C 0.1025 0.56224 0.09669 0.0
C3079 C 0.10716 0.56736 0.13662 0.0
C3080 C 0.09764 0.55022 0.09156 0.0
C3081 C 0.09269 0.54442 0.04988 0.0
C3082 C 0.0828 0.5441 0.03292 0.0
C3083 C 0.0784 0.53892 0.99289 0.0
C3084 C 0.08374 0.53391 0.96981 0.0
C3085 C 0.09347 0.53403 0.9868 0.0
C3086 C 0.09792 0.53924 0.02675 0.0
C3087 C 0.08495 0.53504 0.27272 0.0
C3088 C 0.08582 0.52503 0.27506 0.0
C3089 C 0.09002 0.54278 0.23878 0.0
C3090 C 0.09627 0.54082 0.20674 0.0
C3091 C 0.09739 0.53097 0.20944 0.0
C3092 C 0.09222 0.52314 0.24334 0.0
C3093 C 0.10044 0.54847 0.1684 0.0
C3094 C 0.09672 0.54346 0.12743 0.0
C3095 C 0.10637 0.56063 0.17256 0.0
C3096 C 0.11164 0.56642 0.21415 0.0
C3097 C 0.11879 0.5634 0.23726 0.0
C3098 C 0.12369 0.56879 0.2765 0.0
C3099 C 0.12155 0.57725 0.29297 0.0
C3100 C 0.11451 0.58035 0.2702 0.0
C3101 C 0.10957 0.57498 0.23093 0.0
H3102 H 0.12535 0.58141 0.32337 0.0
H3103 H 0.08032 0.52991 0.93882 0.0
H3104 H 0.40851 0.52373 0.96888 0.0
H3105 H 0.41528 0.53509 0.03554 0.0
H3106 H 0.41565 0.50668 0.09921 0.0
H3107 H 0.40921 0.4954 0.03247 0.0
H3108 H 0.40776 0.52069 0.15158 0.0
H3109 H 0.43862 0.52345 0.05543 0.0
H3110 H 0.4481 0.52782 0.98414 0.0
H3111 H 0.45293 0.56198 0.98957 0.0
H3112 H 0.44326 0.55771 0.06061 0.0
H3113 H 0.44882 0.53329 0.30954 0.0
H3114 H 0.43551 0.52735 0.24911 0.0
H3115 H 0.45218 0.5624 0.20269 0.0
H3116 H 0.46592 0.56836 0.26266 0.0
H3117 H 0.44949 0.54915 0.1393 0.0
H3118 H 0.4238 0.54854 0.24384 0.0
H3119 H 0.41363 0.54477 0.31348 0.0
H3120 H 0.39814 0.50834 0.29253 0.0
H3121 H 0.40835 0.51187 0.22306 0.0
C3122 C 0.40976 0.51981 -0.00256 0.0
C3123 C 0.40847 0.50875 -0.00439 0.0
C3124 C 0.41359 0.5263 0.03539 0.0
C3125 C 0.41595 0.52169 0.07202 0.0
C3126 C 0.41379 0.51032 0.07121 0.0
C3127 C 0.4102 0.50393 0.0331 0.0
C3128 C 0.4223 0.5291 0.10892 0.0
C3129 C 0.41687 0.52697 0.14921 0.0
C3130 C 0.43404 0.53758 0.10503 0.0
C3131 C 0.44012 0.54023 0.06299 0.0
C3132 C 0.44164 0.53186 0.04126 0.0
C3133 C 0.44704 0.53432 0.00093 0.0
C3134 C 0.45109 0.54516 0.98228 0.0
C3135 C 0.44977 0.55358 0.00402 0.0
C3136 C 0.44433 0.55115 0.04429 0.0
C3137 C 0.4496 0.53979 0.28683 0.0
C3138 C 0.45845 0.5513 0.29085 0.0
C3139 C 0.44189 0.53639 0.25242 0.0
C3140 C 0.44267 0.54446 0.22171 0.0
C3141 C 0.45136 0.55603 0.22611 0.0
C3142 C 0.45921 0.55942 0.26034 0.0
C3143 C 0.43511 0.54047 0.18307 0.0
C3144 C 0.44031 0.5432 0.14212 0.0
C3145 C 0.42309 0.53271 0.1864 0.0
C3146 C 0.41689 0.53049 0.22821 0.0
C3147 C 0.41829 0.53972 0.25418 0.0
C3148 C 0.4125 0.53763 0.29363 0.0
C3149 C 0.40525 0.52633 0.30743 0.0
C3150 C 0.40375 0.51709 0.28178 0.0
C3151 C 0.40952 0.51914 0.2423 0.0
H3152 H 0.40078 0.52472 0.33799 0.0
H3153 H 0.45526 0.54705 0.95104 0.0
H3154 H 0.48976 0.91115 0.03112 0.0
H3155 H 0.47868 0.90636 0.09812 0.0
H3156 H 0.44948 0.87862 0.03335 0.0
H3157 H 0.46062 0.88323 0.96622 0.0
H3158 H 0.44564 0.89577 0.07072 0.0
H3159 H 0.45977 0.87105 0.11181 0.0
H3160 H 0.47433 0.86518 0.12297 0.0
H3161 H 0.49177 0.89235 0.21569 0.0
H3162 H 0.47742 0.8985 0.20463 0.0
H3163 H 0.41644 0.89482 0.26125 0.0
H3164 H 0.42311 0.88709 0.20359 0.0
H3165 H 0.45825 0.90899 0.24521 0.0
H3166 H 0.45161 0.91637 0.30391 0.0
H3167 H 0.45568 0.8893 0.21831 0.0
H3168 H 0.44543 0.91692 0.16352 0.0
H3169 H 0.43239 0.92459 0.1499 0.0
H3170 H 0.40929 0.89378 0.08065 0.0
H3171 H 0.42215 0.88587 0.09433 0.0
C3172 C 0.48108 0.90386 0.03145 0.0
C3173 C 0.476 0.89763 0.99353 0.0
C3174 C 0.47479 0.90108 0.06976 0.0
C3175 C 0.4633 0.89212 0.07057 0.0
C3176 C 0.45837 0.88551 0.03328 0.0
C3177 C 0.46474 0.88816 0.99507 0.0
C3178 C 0.45609 0.89096 0.10835 0.0
C3179 C 0.44757 0.894 0.10293 0.0
C3180 C 0.45888 0.88895 0.15023 0.0
C3181 C 0.46753 0.88527 0.15722 0.0
C3182 C 0.46676 0.87583 0.13435 0.0
C3183 C 0.47497 0.87244 0.1407 0.0
C3184 C 0.48397 0.8784 0.16998 0.0
C3185 C 0.48478 0.88774 0.19303 0.0
C3186 C 0.4766 0.89117 0.18679 0.0
C3187 C 0.42558 0.89788 0.25838 0.0
C3188 C 0.43353 0.90632 0.28668 0.0
C3189 C 0.42937 0.89345 0.22545 0.0
C3190 C 0.44119 0.89762 0.21958 0.0
C3191 C 0.44908 0.90564 0.24911 0.0
C3192 C 0.44528 0.90991 0.28251 0.0
C3193 C 0.44551 0.89449 0.18077 0.0
C3194 C 0.45349 0.8907 0.18601 0.0
C3195 C 0.44241 0.89602 0.13857 0.0
C3196 C 0.43466 0.90075 0.13046 0.0
C3197 C 0.43752 0.91175 0.14569 0.0
C3198 C 0.43018 0.91614 0.13791 0.0
C3199 C 0.42 0.90966 0.11456 0.0
C3200 C 0.41716 0.89878 0.09883 0.0
C3201 C 0.42448 0.89433 0.10659 0.0
H3202 H 0.41432 0.91308 0.10855 0.0
H3203 H 0.49032 0.87576 0.17485 0.0
H3204 H 0.19908 0.36006 0.94065 0.0
H3205 H 0.19214 0.34152 0.97597 0.0
H3206 H 0.22368 0.35541 0.04927 0.0
H3207 H 0.2307 0.37413 0.01427 0.0
H3208 H 0.19954 0.32615 0.98168 0.0
H3209 H 0.21609 0.34364 0.1518 0.0
H3210 H 0.22207 0.3612 0.1952 0.0
H3211 H 0.19969 0.36889 0.12091 0.0
H3212 H 0.19348 0.35131 0.07749 0.0
H3213 H 0.18279 0.27788 0.12182 0.0
H3214 H 0.19471 0.29641 0.08598 0.0
H3215 H 0.17195 0.30822 0.1315 0.0
H3216 H 0.16011 0.28987 0.16786 0.0
H3217 H 0.19396 0.3247 0.14049 0.0
H3218 H 0.1701 0.29823 0.02844 0.0
H3219 H 0.16245 0.28062 0.98408 0.0
H3220 H 0.19664 0.29075 0.94043 0.0
H3221 H 0.2045 0.30836 0.985 0.0
C3222 C 0.20461 0.35918 0.964 0.0
C3223 C 0.2154 0.36862 0.97495 0.0
C3224 C 0.20065 0.34854 0.98398 0.0
C3225 C 0.20735 0.34712 0.01547 0.0
C3226 C 0.21833 0.35637 0.02531 0.0
C3227 C 0.22233 0.36705 0.00523 0.0
C3228 C 0.20242 0.33614 0.03966 0.0
C3229 C 0.19844 0.32583 0.01648 0.0
C3230 C 0.20088 0.33572 0.08497 0.0
C3231 C 0.20445 0.34625 0.1111 0.0
C3232 C 0.21244 0.34907 0.14482 0.0
C3233 C 0.21586 0.35903 0.16941 0.0
C3234 C 0.2113 0.36618 0.1607 0.0
C3235 C 0.20326 0.36337 0.1275 0.0
C3236 C 0.19979 0.35342 0.10287 0.0
C3237 C 0.18034 0.28444 0.12433 0.0
C3238 C 0.17046 0.28237 0.14758 0.0
C3239 C 0.18716 0.29501 0.10376 0.0
C3240 C 0.18417 0.30366 0.10584 0.0
C3241 C 0.17444 0.30168 0.1296 0.0
C3242 C 0.16764 0.29115 0.15021 0.0
C3243 C 0.19094 0.31469 0.08246 0.0
C3244 C 0.19528 0.32502 0.10582 0.0
C3245 C 0.19262 0.31511 0.03721 0.0
C3246 C 0.1879 0.30454 0.01042 0.0
C3247 C 0.17599 0.29665 0.00965 0.0
C3248 C 0.17162 0.28668 0.98442 0.0
C3249 C 0.17906 0.28455 0.95956 0.0
C3250 C 0.19089 0.2924 0.95978 0.0
C3251 C 0.19531 0.30238 0.98499 0.0
H3252 H 0.17566 0.27683 0.94004 0.0
H3253 H 0.21397 0.37389 0.17975 0.0
H3254 H 0.69065 0.88712 0.23998 0.0
H3255 H 0.67193 0.88056 0.20576 0.0
H3256 H 0.68895 0.8954 0.08483 0.0
H3257 H 0.70768 0.90264 0.11985 0.0
H3258 H 0.6709 0.89709 0.08789 0.0
H3259 H 0.67808 0.86586 0.11373 0.0
H3260 H 0.68261 0.85321 0.15711 0.0
H3261 H 0.65233 0.84292 0.23396 0.0
H3262 H 0.64769 0.85563 0.19131 0.0
H3263 H 0.63019 0.85182 0.94525 0.0
H3264 H 0.64691 0.86453 0.98977 0.0
H3265 H 0.62433 0.86277 0.09234 0.0
H3266 H 0.60752 0.85034 0.04745 0.0
H3267 H 0.64358 0.85521 0.10382 0.0
H3268 H 0.63594 0.88576 0.06547 0.0
H3269 H 0.63211 0.89746 0.01388 0.0
H3270 H 0.66435 0.90777 0.95065 0.0
H3271 H 0.66828 0.89598 0.00148 0.0
C3272 C 0.69036 0.88915 0.2063 0.0
C3273 C 0.70056 0.89527 0.18236 0.0
C3274 C 0.67968 0.88535 0.18668 0.0
C3275 C 0.67899 0.88717 0.14233 0.0
C3276 C 0.68922 0.89383 0.11902 0.0
C3277 C 0.69992 0.89795 0.13899 0.0
C3278 C 0.66772 0.88143 0.11951 0.0
C3279 C 0.66496 0.88793 0.09139 0.0
C3280 C 0.65986 0.86946 0.12408 0.0
C3281 C 0.66262 0.86179 0.14969 0.0
C3282 C 0.67243 0.86096 0.14007 0.0
C3283 C 0.67501 0.85377 0.16449 0.0
C3284 C 0.66778 0.84729 0.19836 0.0
C3285 C 0.65794 0.84796 0.20778 0.0
C3286 C 0.65532 0.85515 0.18349 0.0
C3287 C 0.62879 0.8543 0.977 0.0
C3288 C 0.61757 0.85008 0.99299 0.0
C3289 C 0.63832 0.86158 0.00224 0.0
C3290 C 0.63679 0.86459 0.04407 0.0
C3291 C 0.62563 0.86059 0.0599 0.0
C3292 C 0.61607 0.85352 0.03426 0.0
C3293 C 0.64689 0.87088 0.07248 0.0
C3294 C 0.64945 0.86442 0.10123 0.0
C3295 C 0.65467 0.88277 0.06751 0.0
C3296 C 0.65235 0.88989 0.03701 0.0
C3297 C 0.64215 0.89042 0.04028 0.0
C3298 C 0.63998 0.8971 0.01124 0.0
C3299 C 0.64797 0.90333 0.97893 0.0
C3300 C 0.65816 0.90293 0.97566 0.0
C3301 C 0.66037 0.89626 0.00461 0.0
H3302 H 0.64627 0.90849 0.95649 0.0
H3303 H 0.6698 0.84173 0.21723 0.0
H3304 H 0.16365 0.7888 0.01849 0.0
H3305 H 0.15262 0.79557 0.0597 0.0
H3306 H 0.12202 0.76234 0.04569 0.0
H3307 H 0.13309 0.75534 0.00516 0.0
H3308 H 0.12119 0.78459 0.02419 0.0
H3309 H 0.13038 0.76524 0.13576 0.0
H3310 H 0.14344 0.76077 0.17649 0.0
H3311 H 0.16434 0.7964 0.21143 0.0
H3312 H 0.15139 0.80109 0.1706 0.0
H3313 H 0.08819 0.79833 0.16456 0.0
H3314 H 0.09663 0.78778 0.13072 0.0
H3315 H 0.13044 0.81403 0.17217 0.0
H3316 H 0.12206 0.8245 0.20694 0.0
H3317 H 0.12843 0.79353 0.18058 0.0
H3318 H 0.12094 0.81366 0.06921 0.0
H3319 H 0.10928 0.81957 0.02621 0.0
H3320 H 0.087 0.78448 0.98723 0.0
H3321 H 0.09845 0.77834 0.03052 0.0
C3322 C 0.15457 0.78292 0.02405 0.0
C3323 C 0.14922 0.77154 0.00855 0.0
C3324 C 0.14831 0.7868 0.04769 0.0
C3325 C 0.13656 0.77943 0.05567 0.0
C3326 C 0.13111 0.76812 0.03976 0.0
C3327 C 0.13743 0.76414 0.01678 0.0
C3328 C 0.13006 0.78369 0.08065 0.0
C3329 C 0.12254 0.78632 0.05858 0.0
C3330 C 0.13221 0.7863 0.12506 0.0
C3331 C 0.13998 0.78353 0.14981 0.0
C3332 C 0.13782 0.77214 0.15182 0.0
C3333 C 0.14519 0.76956 0.175 0.0
C3334 C 0.15476 0.7783 0.1964 0.0
C3335 C 0.15694 0.78964 0.19479 0.0
C3336 C 0.14957 0.79226 0.17172 0.0
C3337 C 0.09741 0.80181 0.16689 0.0
C3338 C 0.10446 0.81231 0.1882 0.0
C3339 C 0.10222 0.79578 0.14735 0.0
C3340 C 0.11418 0.80022 0.14826 0.0
C3341 C 0.12119 0.81046 0.17098 0.0
C3342 C 0.11638 0.81645 0.19079 0.0
C3343 C 0.11948 0.79446 0.12423 0.0
C3344 C 0.12687 0.79163 0.14636 0.0
C3345 C 0.11737 0.79187 0.07961 0.0
C3346 C 0.11047 0.79552 0.05352 0.0
C3347 C 0.1135 0.80719 0.05176 0.0
C3348 C 0.10694 0.81059 0.02728 0.0
C3349 C 0.09738 0.8024 0.00411 0.0
C3350 C 0.09439 0.79081 0.00527 0.0
C3351 C 0.10092 0.78737 0.02976 0.0
H3352 H 0.09232 0.80505 0.98516 0.0
H3353 H 0.16046 0.77628 0.21433 0.0
H3354 H 0.2797 0.18547 0.39311 0.0
H3355 H 0.29817 0.19668 0.43016 0.0
H3356 H 0.3158 0.20435 0.30736 0.0
H3357 H 0.29741 0.19248 0.27081 0.0
H3358 H 0.32589 0.19776 0.35644 0.0
H3359 H 0.31365 0.22528 0.37558 0.0
H3360 H 0.30068 0.23259 0.39584 0.0
H3361 H 0.30101 0.2229 0.52776 0.0
H3362 H 0.31387 0.21538 0.5082 0.0
H3363 H 0.38055 0.23667 0.45031 0.0
H3364 H 0.36246 0.23068 0.41168 0.0
H3365 H 0.34326 0.21059 0.52179 0.0
H3366 H 0.3613 0.21631 0.56035 0.0
H3367 H 0.33486 0.22525 0.47747 0.0
H3368 H 0.34562 0.19591 0.45207 0.0
H3369 H 0.35856 0.18884 0.42876 0.0
H3370 H 0.36153 0.20374 0.30331 0.0
H3371 H 0.34864 0.21097 0.32613 0.0
C3372 C 0.28753 0.18971 0.37412 0.0
C3373 C 0.28719 0.18809 0.32925 0.0
C3374 C 0.29809 0.1962 0.39524 0.0
C3375 C 0.30844 0.20149 0.37161 0.0
C3376 C 0.30798 0.20031 0.32642 0.0
C3377 C 0.29748 0.19356 0.30552 0.0
C3378 C 0.31977 0.20721 0.39403 0.0
C3379 C 0.32788 0.20398 0.38219 0.0
C3380 C 0.32239 0.21516 0.42839 0.0
C3381 C 0.31466 0.21967 0.44032 0.0
C3382 C 0.31089 0.22462 0.40885 0.0
C3383 C 0.30357 0.22882 0.42023 0.0
C3384 C 0.3 0.22818 0.46304 0.0
C3385 C 0.30377 0.22338 0.4946 0.0
C3386 C 0.31109 0.21916 0.48339 0.0
C3387 C 0.37247 0.23107 0.46646 0.0
C3388 C 0.37233 0.2269 0.50825 0.0
C3389 C 0.36217 0.22767 0.44438 0.0
C3390 C 0.35158 0.22023 0.46403 0.0
C3391 C 0.35138 0.21639 0.50629 0.0
C3392 C 0.36167 0.2196 0.52809 0.0
C3393 C 0.34075 0.21576 0.43942 0.0
C3394 C 0.3328 0.21919 0.45109 0.0
C3395 C 0.33832 0.20817 0.40431 0.0
C3396 C 0.3463 0.2041 0.39097 0.0
C3397 C 0.34915 0.1978 0.41971 0.0
C3398 C 0.35645 0.19373 0.40652 0.0
C3399 C 0.3609 0.19587 0.36459 0.0
C3400 C 0.35809 0.2021 0.3358 0.0
C3401 C 0.35078 0.20618 0.34882 0.0
H3402 H 0.36648 0.19263 0.35428 0.0
H3403 H 0.29433 0.23144 0.47178 0.0
H3404 H 0.78447 0.15396 0.57611 0.0
H3405 H 0.79347 0.14381 0.5433 0.0
H3406 H 0.76525 0.12738 0.45312 0.0
H3407 H 0.75605 0.13724 0.48638 0.0
H3408 H 0.77194 0.1127 0.47669 0.0
H3409 H 0.79032 0.15156 0.42486 0.0
H3410 H 0.80043 0.17274 0.43108 0.0
H3411 H 0.82845 0.1724 0.49705 0.0
H3412 H 0.81842 0.15119 0.49172 0.0
H3413 H 0.81924 0.12005 0.31 0.0
H3414 H 0.80812 0.1271 0.34854 0.0
H3415 H 0.80091 0.1023 0.44985 0.0
H3416 H 0.81169 0.09489 0.4105 0.0
H3417 H 0.81163 0.13734 0.42109 0.0
H3418 H 0.7757 0.09553 0.49996 0.0
H3419 H 0.76457 0.07467 0.48493 0.0
H3420 H 0.7699 0.08132 0.3488 0.0
H3421 H 0.78094 0.10222 0.36298 0.0
C3422 C 0.78011 0.14808 0.54965 0.0
C3423 C 0.7696 0.14651 0.53357 0.0
C3424 C 0.78528 0.14231 0.53085 0.0
C3425 C 0.78013 0.135 0.49526 0.0
C3426 C 0.76939 0.13299 0.48049 0.0
C3427 C 0.76416 0.13868 0.49949 0.0
C3428 C 0.78626 0.13001 0.47167 0.0
C3429 C 0.78064 0.11806 0.46467 0.0
C3430 C 0.7975 0.13704 0.45511 0.0
C3431 C 0.80357 0.14979 0.4583 0.0
C3432 C 0.7986 0.156 0.44098 0.0
C3433 C 0.80432 0.168 0.44429 0.0
C3434 C 0.81506 0.1739 0.46455 0.0
C3435 C 0.82012 0.16781 0.48143 0.0
C3436 C 0.81442 0.1558 0.47825 0.0
C3437 C 0.81522 0.11603 0.34033 0.0
C3438 C 0.81633 0.10691 0.35719 0.0
C3439 C 0.80888 0.12009 0.3624 0.0
C3440 C 0.80361 0.11521 0.40202 0.0
C3441 C 0.8047 0.10607 0.41896 0.0
C3442 C 0.81091 0.10188 0.39652 0.0
C3443 C 0.79734 0.11999 0.42604 0.0
C3444 C 0.80296 0.13192 0.43328 0.0
C3445 C 0.78596 0.11297 0.44154 0.0
C3446 C 0.77925 0.10043 0.4326 0.0
C3447 C 0.77447 0.09254 0.46682 0.0
C3448 C 0.76818 0.08071 0.45845 0.0
C3449 C 0.76657 0.07667 0.41595 0.0
C3450 C 0.7712 0.08445 0.38171 0.0
C3451 C 0.77749 0.09629 0.3899 0.0
H3452 H 0.7617 0.06751 0.40954 0.0
H3453 H 0.81948 0.1832 0.46708 0.0
H3454 H 0.90125 0.70655 0.36486 0.0
H3455 H 0.89484 0.68784 0.39901 0.0
H3456 H 0.86439 0.67263 0.31907 0.0
H3457 H 0.87072 0.6912 0.28468 0.0
H3458 H 0.87562 0.6754 0.44607 0.0
H3459 H 0.85641 0.64507 0.29682 0.0
H3460 H 0.86078 0.64509 0.21943 0.0
H3461 H 0.89644 0.66933 0.24368 0.0
H3462 H 0.89233 0.66933 0.32129 0.0
H3463 H 0.829 0.62138 0.49785 0.0
H3464 H 0.84233 0.63996 0.46578 0.0
H3465 H 0.8656 0.62763 0.43336 0.0
H3466 H 0.85224 0.60889 0.46524 0.0
H3467 H 0.86253 0.63881 0.36614 0.0
H3468 H 0.87261 0.64637 0.51426 0.0
H3469 H 0.8693 0.64645 0.59256 0.0
H3470 H 0.85436 0.66793 0.57255 0.0
H3471 H 0.85743 0.66785 0.49403 0.0
C3472 C 0.89325 0.69919 0.3542 0.0
C3473 C 0.88648 0.70037 0.32212 0.0
C3474 C 0.8896 0.68852 0.3738 0.0
C3475 C 0.8792 0.67884 0.3613 0.0
C3476 C 0.87254 0.67996 0.32873 0.0
C3477 C 0.87614 0.6906 0.30929 0.0
C3478 C 0.87481 0.66772 0.38408 0.0
C3479 C 0.87286 0.66741 0.4287 0.0
C3480 C 0.87146 0.65733 0.36151 0.0
C3481 C 0.87403 0.65725 0.31489 0.0
C3482 C 0.8652 0.65035 0.2857 0.0
C3483 C 0.86763 0.65037 0.24177 0.0
C3484 C 0.87887 0.65723 0.22663 0.0
C3485 C 0.88772 0.66405 0.25542 0.0
C3486 C 0.88534 0.66406 0.29938 0.0
C3487 C 0.83696 0.62259 0.48405 0.0
C3488 C 0.83955 0.61363 0.48417 0.0
C3489 C 0.8446 0.63325 0.46593 0.0
C3490 C 0.85501 0.6352 0.4477 0.0
C3491 C 0.85763 0.62629 0.44747 0.0
C3492 C 0.84999 0.61561 0.46576 0.0
C3493 C 0.86291 0.64648 0.42771 0.0
C3494 C 0.86549 0.64682 0.38364 0.0
C3495 C 0.86701 0.65691 0.45092 0.0
C3496 C 0.8652 0.65705 0.49819 0.0
C3497 C 0.86855 0.65105 0.52651 0.0
C3498 C 0.86673 0.65111 0.57095 0.0
C3499 C 0.86161 0.65718 0.58752 0.0
C3500 C 0.85833 0.66323 0.55967 0.0
C3501 C 0.86012 0.6632 0.5152 0.0
H3502 H 0.8602 0.65721 0.62193 0.0
H3503 H 0.88073 0.65723 0.19261 0.0
H3504 H 0.79969 0.7087 0.87094 0.0
H3505 H 0.78882 0.69037 0.90933 0.0
H3506 H 0.80587 0.67613 0.83427 0.0
H3507 H 0.81663 0.69428 0.79553 0.0
H3508 H 0.78344 0.66068 0.84386 0.0
H3509 H 0.8153 0.68671 0.9346 0.0
H3510 H 0.82707 0.70464 0.97565 0.0
H3511 H 0.79779 0.69749 0.05399 0.0
H3512 H 0.78581 0.67958 0.013 0.0
H3513 H 0.78698 0.62496 0.03032 0.0
H3514 H 0.79364 0.64347 0.99476 0.0
H3515 H 0.75899 0.63236 0.9521 0.0
H3516 H 0.75224 0.61373 0.98719 0.0
H3517 H 0.78867 0.66058 0.00254 0.0
H3518 H 0.76084 0.64297 0.84928 0.0
H3519 H 0.75086 0.62495 0.80705 0.0
H3520 H 0.77505 0.61513 0.85197 0.0
H3521 H 0.78526 0.63315 0.89396 0.0
C3522 C 0.80103 0.70163 0.86229 0.0
C3523 C 0.8091 0.70299 0.83038 0.0
C3524 C 0.79484 0.69118 0.88435 0.0
C3525 C 0.79663 0.68194 0.87493 0.0
C3526 C 0.80435 0.68315 0.84202 0.0
C3527 C 0.81053 0.69356 0.82004 0.0
C3528 C 0.79095 0.67116 0.90048 0.0
C3529 C 0.78448 0.66067 0.87862 0.0
C3530 C 0.79244 0.67114 0.94574 0.0
C3531 C 0.79963 0.68189 0.97042 0.0
C3532 C 0.81135 0.68901 0.96035 0.0
C3533 C 0.81806 0.69916 0.98364 0.0
C3534 C 0.81317 0.70222 0.01732 0.0
C3535 C 0.80156 0.69512 0.02784 0.0
C3536 C 0.79481 0.68497 0.00461 0.0
C3537 C 0.78074 0.62646 0.01367 0.0
C3538 C 0.76909 0.61782 0.01129 0.0
C3539 C 0.78456 0.63708 0.99353 0.0
C3540 C 0.77683 0.63924 0.97048 0.0
C3541 C 0.76512 0.63081 0.96933 0.0
C3542 C 0.76128 0.62017 0.98948 0.0
C3543 C 0.7812 0.65011 0.94587 0.0
C3544 C 0.78743 0.66062 0.96791 0.0
C3545 C 0.7797 0.65013 0.90063 0.0
C3546 C 0.77371 0.63933 0.87516 0.0
C3547 C 0.76404 0.63697 0.85004 0.0
C3548 C 0.75834 0.62676 0.82616 0.0
C3549 C 0.76229 0.61888 0.82697 0.0
C3550 C 0.77197 0.62122 0.85152 0.0
C3551 C 0.77771 0.63142 0.8754 0.0
H3552 H 0.75786 0.61098 0.80849 0.0
H3553 H 0.81838 0.71008 0.03532 0.0
H3554 H 0.3553 0.15049 0.02629 0.0
H3555 H 0.33716 0.13709 0.99172 0.0
H3556 H 0.35208 0.11712 0.94459 0.0
H3557 H 0.37047 0.13074 0.97835 0.0
H3558 H 0.34062 0.11992 0.88283 0.0
H3559 H 0.33172 0.10659 0.02591 0.0
H3560 H 0.33067 0.10766 0.10513 0.0
H3561 H 0.30846 0.12201 0.09216 0.0
H3562 H 0.30951 0.12118 0.01283 0.0
H3563 H 0.27252 0.08346 0.86758 0.0
H3564 H 0.29041 0.08799 0.90501 0.0
H3565 H 0.30853 0.11975 0.83343 0.0
H3566 H 0.29087 0.11524 0.79554 0.0
H3567 H 0.30307 0.10504 0.95751 0.0
H3568 H 0.33562 0.12726 0.81518 0.0
H3569 H 0.33654 0.12438 0.73692 0.0
H3570 H 0.31122 0.08859 0.75027 0.0
H3571 H 0.31027 0.0912 0.82869 0.0
C3572 C 0.35474 0.14321 0.00886 0.0
C3573 C 0.36435 0.14169 0.00512 0.0
C3574 C 0.34432 0.13549 0.98934 0.0
C3575 C 0.34319 0.12597 0.96621 0.0
C3576 C 0.35274 0.12437 0.96249 0.0
C3577 C 0.36324 0.13217 0.9818 0.0
C3578 C 0.3322 0.11817 0.94392 0.0
C3579 C 0.33241 0.11655 0.89921 0.0
C3580 C 0.32147 0.11339 0.96556 0.0
C3581 C 0.32073 0.11386 0.01334 0.0
C3582 C 0.32666 0.11003 0.03992 0.0
C3583 C 0.32606 0.1106 0.08487 0.0
C3584 C 0.31951 0.11491 0.10366 0.0
C3585 C 0.31352 0.11866 0.07755 0.0
C3586 C 0.3141 0.11813 0.03258 0.0
C3587 C 0.28035 0.09135 0.85952 0.0
C3588 C 0.28026 0.09899 0.82855 0.0
C3589 C 0.29055 0.09392 0.88094 0.0
C3590 C 0.30084 0.10412 0.87158 0.0
C3591 C 0.30076 0.1117 0.84049 0.0
C3592 C 0.29062 0.10914 0.81905 0.0
C3593 C 0.31154 0.10741 0.89613 0.0
C3594 C 0.31127 0.10817 0.94127 0.0
C3595 C 0.32219 0.1111 0.87505 0.0
C3596 C 0.32284 0.10945 0.82788 0.0
C3597 C 0.33031 0.11875 0.8015 0.0
C3598 C 0.33082 0.11717 0.75708 0.0
C3599 C 0.32393 0.10632 0.73863 0.0
C3600 C 0.31653 0.097 0.76458 0.0
C3601 C 0.31599 0.09853 0.80902 0.0
H3602 H 0.32434 0.10511 0.70423 0.0
H3603 H 0.31905 0.11534 0.13847 0.0
H3604 H 0.903 0.19294 0.84816 0.0
H3605 H 0.89577 0.20553 0.87296 0.0
H3606 H 0.86158 0.18043 0.83045 0.0
H3607 H 0.86875 0.16804 0.80463 0.0
H3608 H 0.86581 0.20102 0.80929 0.0
H3609 H 0.87059 0.18326 0.9384 0.0
H3610 H 0.88159 0.17871 0.9909 0.0
H3611 H 0.90404 0.21478 0.01509 0.0
H3612 H 0.89324 0.21954 0.96231 0.0
H3613 H 0.82544 0.20324 0.9485 0.0
H3614 H 0.83879 0.19859 0.91208 0.0
H3615 H 0.86684 0.23288 0.93742 0.0
H3616 H 0.85342 0.23773 0.97314 0.0
H3617 H 0.86955 0.21255 0.9634 0.0
H3618 H 0.86132 0.22937 0.84262 0.0
H3619 H 0.84894 0.23273 0.79284 0.0
H3620 H 0.83161 0.19712 0.75527 0.0
H3621 H 0.84376 0.1935 0.80534 0.0
C3622 C 0.89395 0.19014 0.84402 0.0
C3623 C 0.88645 0.17947 0.82454 0.0
C3624 C 0.88983 0.19733 0.85826 0.0
C3625 C 0.87811 0.19388 0.85386 0.0
C3626 C 0.87067 0.1833 0.83398 0.0
C3627 C 0.87478 0.1762 0.81939 0.0
C3628 C 0.87336 0.201 0.87075 0.0
C3629 C 0.86664 0.20355 0.84299 0.0
C3630 C 0.87472 0.20461 0.91444 0.0
C3631 C 0.88122 0.20176 0.94602 0.0
C3632 C 0.87793 0.19022 0.95466 0.0
C3633 C 0.88412 0.1876 0.98451 0.0
C3634 C 0.89353 0.19645 0.0062 0.0
C3635 C 0.89676 0.20793 -0.00182 0.0
C3636 C 0.89062 0.2106 0.96832 0.0
C3637 C 0.83443 0.20982 0.94607 0.0
C3638 C 0.83841 0.22084 0.96368 0.0
C3639 C 0.84202 0.20717 0.92515 0.0
C3640 C 0.85375 0.21542 0.92206 0.0
C3641 C 0.85779 0.22644 0.93945 0.0
C3642 C 0.85013 0.22919 0.95966 0.0
C3643 C 0.86171 0.21213 0.90226 0.0
C3644 C 0.869 0.21031 0.92945 0.0
C3645 C 0.86075 0.20902 0.85824 0.0
C3646 C 0.85341 0.21115 0.82798 0.0
C3647 C 0.8548 0.22223 0.82403 0.0
C3648 C 0.84784 0.22418 0.79569 0.0
C3649 C 0.83948 0.21514 0.77095 0.0
C3650 C 0.83809 0.20412 0.77445 0.0
C3651 C 0.84502 0.20211 0.80277 0.0
H3652 H 0.8341 0.21667 0.74902 0.0
H3653 H 0.89831 0.19441 0.02931 0.0
H3654 H 0.69068 0.81617 0.67244 0.0
H3655 H 0.67344 0.80241 0.63356 0.0
H3656 H 0.69055 0.78398 0.59251 0.0
H3657 H 0.708 0.7979 0.63084 0.0
H3658 H 0.67994 0.78709 0.52663 0.0
H3659 H 0.66907 0.77212 0.66759 0.0
H3660 H 0.66647 0.77246 0.74631 0.0
H3661 H 0.6429 0.78496 0.72679 0.0
H3662 H 0.64548 0.78486 0.64796 0.0
H3663 H 0.6125 0.74648 0.49817 0.0
H3664 H 0.63041 0.75202 0.53719 0.0
H3665 H 0.64713 0.78436 0.46866 0.0
H3666 H 0.62942 0.77884 0.4291 0.0
H3667 H 0.64093 0.76908 0.5918 0.0
H3668 H 0.67521 0.7945 0.45805 0.0
H3669 H 0.67781 0.79273 0.38012 0.0
H3670 H 0.65458 0.75624 0.38663 0.0
H3671 H 0.65196 0.75775 0.46471 0.0
C3672 C 0.69078 0.80915 0.65547 0.0
C3673 C 0.70073 0.80815 0.65476 0.0
C3674 C 0.68088 0.80124 0.63344 0.0
C3675 C 0.68065 0.79207 0.61062 0.0
C3676 C 0.69053 0.79097 0.61008 0.0
C3677 C 0.70048 0.79892 0.63205 0.0
C3678 C 0.67027 0.7841 0.58547 0.0
C3679 C 0.67141 0.78304 0.54089 0.0
C3680 C 0.65917 0.77852 0.60436 0.0
C3681 C 0.65751 0.77853 0.6518 0.0
C3682 C 0.66338 0.77501 0.68008 0.0
C3683 C 0.66191 0.77515 0.72473 0.0
C3684 C 0.65454 0.77874 0.74154 0.0
C3685 C 0.64861 0.78217 0.71372 0.0
C3686 C 0.65006 0.78206 0.66903 0.0
C3687 C 0.62005 0.75469 0.49088 0.0
C3688 C 0.61951 0.76224 0.46063 0.0
C3689 C 0.63027 0.75785 0.51327 0.0
C3690 C 0.64013 0.76856 0.50562 0.0
C3691 C 0.6397 0.77595 0.47453 0.0
C3692 C 0.62952 0.77281 0.45211 0.0
C3693 C 0.65058 0.77257 0.53263 0.0
C3694 C 0.64946 0.7729 0.5776 0.0
C3695 C 0.66169 0.77725 0.5142 0.0
C3696 C 0.66335 0.77626 0.46727 0.0
C3697 C 0.67071 0.78608 0.44295 0.0
C3698 C 0.67217 0.78513 0.39871 0.0
C3699 C 0.66634 0.77438 0.37842 0.0
C3700 C 0.65906 0.76456 0.40236 0.0
C3701 C 0.65757 0.76547 0.4466 0.0
H3702 H 0.66748 0.77367 0.34417 0.0
H3703 H 0.65341 0.77884 0.77613 0.0
H3704 H 0.17249 0.87728 0.64123 0.0
H3705 H 0.18795 0.87544 0.60854 0.0
H3706 H 0.20445 0.91087 0.56708 0.0
H3707 H 0.18881 0.91283 0.59995 0.0
H3708 H 0.20349 0.89636 0.50268 0.0
H3709 H 0.21742 0.90463 0.64459 0.0
H3710 H 0.21678 0.90395 0.72415 0.0
H3711 H 0.20648 0.86804 0.72098 0.0
H3712 H 0.20688 0.86844 0.64139 0.0
H3713 H 0.24103 0.86537 0.50053 0.0
H3714 H 0.23782 0.88066 0.52844 0.0
H3715 H 0.20447 0.86461 0.46688 0.0
H3716 H 0.20763 0.8495 0.43865 0.0
H3717 H 0.22191 0.87795 0.58407 0.0
H3718 H 0.19633 0.88303 0.43946 0.0
H3719 H 0.19802 0.88478 0.36022 0.0
H3720 H 0.23423 0.89663 0.36894 0.0
H3721 H 0.23281 0.89513 0.44829 0.0
C3722 C 0.17939 0.88473 0.62533 0.0
C3723 C 0.1794 0.89521 0.62325 0.0
C3724 C 0.18829 0.88368 0.60693 0.0
C3725 C 0.19745 0.89308 0.58611 0.0
C3726 C 0.1975 0.90356 0.58342 0.0
C3727 C 0.18857 0.90465 0.60216 0.0
C3728 C 0.2065 0.89146 0.56541 0.0
C3729 C 0.2077 0.89252 0.5204 0.0
C3730 C 0.21237 0.88691 0.58889 0.0
C3731 C 0.21218 0.88658 0.6369 0.0
C3732 C 0.21496 0.89657 0.66082 0.0
C3733 C 0.21465 0.89623 0.70595 0.0
C3734 C 0.21159 0.88596 0.7276 0.0
C3735 C 0.20886 0.876 0.70416 0.0
C3736 C 0.20916 0.87629 0.65902 0.0
C3737 C 0.2331 0.86522 0.49234 0.0
C3738 C 0.22454 0.85616 0.46764 0.0
C3739 C 0.2313 0.87397 0.50827 0.0
C3740 C 0.22098 0.87387 0.49932 0.0
C3741 C 0.21262 0.86504 0.47344 0.0
C3742 C 0.21439 0.85631 0.45769 0.0
C3743 C 0.21813 0.88199 0.52099 0.0
C3744 C 0.21809 0.88217 0.56628 0.0
C3745 C 0.21354 0.88789 0.49777 0.0
C3746 C 0.21445 0.88895 0.44996 0.0
C3747 C 0.20468 0.88611 0.42457 0.0
C3748 C 0.20558 0.88703 0.37958 0.0
C3749 C 0.21622 0.8908 0.35956 0.0
C3750 C 0.22598 0.89368 0.38448 0.0
C3751 C 0.22513 0.89278 0.42947 0.0
H3752 H 0.2169 0.8915 0.32473 0.0
H3753 H 0.21135 0.88571 0.76255 0.0
H3754 H 0.12973 0.37271 0.50565 0.0
H3755 H 0.11883 0.35401 0.54143 0.0
H3756 H 0.13952 0.34219 0.4766 0.0
H3757 H 0.15032 0.36071 0.44032 0.0
H3758 H 0.1174 0.32561 0.47818 0.0
H3759 H 0.14556 0.35228 0.57944 0.0
H3760 H 0.15517 0.37009 0.62284 0.0
H3761 H 0.12333 0.36049 0.68792 0.0
H3762 H 0.11349 0.34268 0.64446 0.0
H3763 H 0.1172 0.29026 0.67441 0.0
H3764 H 0.12417 0.30859 0.63723 0.0
H3765 H 0.0909 0.29582 0.57742 0.0
H3766 H 0.08386 0.27733 0.61408 0.0
H3767 H 0.11792 0.32469 0.63838 0.0
H3768 H 0.09534 0.30704 0.4748 0.0
H3769 H 0.08759 0.28932 0.43091 0.0
H3770 H 0.11148 0.28099 0.49024 0.0
H3771 H 0.11946 0.29873 0.53402 0.0
C3772 C 0.13188 0.36609 0.49865 0.0
C3773 C 0.14096 0.36824 0.47035 0.0
C3774 C 0.12566 0.35542 0.51923 0.0
C3775 C 0.12846 0.34677 0.51202 0.0
C3776 C 0.13722 0.34875 0.48261 0.0
C3777 C 0.14342 0.35938 0.46203 0.0
C3778 C 0.12268 0.3358 0.53638 0.0
C3779 C 0.11742 0.3254 0.51322 0.0
C3780 C 0.12284 0.33555 0.58208 0.0
C3781 C 0.12876 0.34622 0.60836 0.0
C3782 C 0.14059 0.35401 0.60278 0.0
C3783 C 0.14608 0.3641 0.62742 0.0
C3784 C 0.13986 0.36644 0.65802 0.0
C3785 C 0.12813 0.35868 0.66414 0.0
C3786 C 0.1226 0.34858 0.63953 0.0
C3787 C 0.11133 0.29133 0.65345 0.0
C3788 C 0.09999 0.28229 0.64699 0.0
C3789 C 0.11532 0.30185 0.63239 0.0
C3790 C 0.10808 0.30354 0.60435 0.0
C3791 C 0.09667 0.29464 0.59856 0.0
C3792 C 0.09266 0.28409 0.61959 0.0
C3793 C 0.11268 0.3145 0.58016 0.0
C3794 C 0.11772 0.32489 0.60337 0.0
C3795 C 0.11254 0.31476 0.53448 0.0
C3796 C 0.10789 0.30413 0.50804 0.0
C3797 C 0.09895 0.30144 0.47838 0.0
C3798 C 0.09452 0.29139 0.45353 0.0
C3799 C 0.09901 0.28401 0.45791 0.0
C3800 C 0.10798 0.28669 0.48701 0.0
C3801 C 0.11245 0.29673 0.51189 0.0
H3802 H 0.09557 0.27624 0.43867 0.0
H3803 H 0.14412 0.37425 0.67707 0.0
H3804 H 0.03066 0.53716 0.88118 0.0
H3805 H 0.01195 0.52962 0.84603 0.0
H3806 H 0.02383 0.56221 0.78203 0.0
H3807 H 0.04265 0.56981 0.81663 0.0
H3808 H -0.0047 0.5354 0.84441 0.0
H3809 H 0.01306 0.55647 0.67885 0.0
H3810 H 0.03088 0.56403 0.63577 0.0
H3811 H 0.03957 0.54111 0.7009 0.0
H3812 H 0.02174 0.53333 0.74392 0.0
H3813 H 0.94764 0.52191 0.70475 0.0
H3814 H 0.96588 0.53285 0.74372 0.0
H3815 H 0.97853 0.5122 0.68419 0.0
H3816 H 0.9605 0.50138 0.64479 0.0
H3817 H -0.00527 0.53429 0.68416 0.0
H3818 H 0.96804 0.50692 0.78695 0.0
H3819 H 0.95011 0.49749 0.82965 0.0
H3820 H 0.95915 0.52978 0.89013 0.0
H3821 H 0.97707 0.53943 0.84732 0.0
C3822 C 0.02928 0.54277 0.85993 0.0
C3823 C 0.0382 0.55405 0.85136 0.0
C3824 C 0.01856 0.53846 0.84004 0.0
C3825 C 0.01655 0.54532 0.8111 0.0
C3826 C 0.02526 0.55673 0.80387 0.0
C3827 C 0.036 0.56106 0.82373 0.0
C3828 C 0.00561 0.54023 0.78657 0.0
C3829 C -0.00484 0.53524 0.80937 0.0
C3830 C 0.00544 0.53989 0.74088 0.0
C3831 C 0.01614 0.54444 0.71495 0.0
C3832 C 0.01877 0.55304 0.68389 0.0
C3833 C 0.02887 0.55736 0.65949 0.0
C3834 C 0.03637 0.55308 0.66571 0.0
C3835 C 0.03378 0.54445 0.69624 0.0
C3836 C 0.02368 0.54009 0.72068 0.0
C3837 C 0.95433 0.51974 0.6998 0.0
C3838 C 0.95258 0.51074 0.67175 0.0
C3839 C 0.96473 0.52598 0.72219 0.0
C3840 C 0.97352 0.52327 0.71709 0.0
C3841 C 0.97187 0.51444 0.68853 0.0
C3842 C 0.96152 0.50824 0.66613 0.0
C3843 C 0.9844 0.52941 0.74194 0.0
C3844 C -0.00515 0.53462 0.71919 0.0
C3845 C 0.98455 0.52972 0.78766 0.0
C3846 C 0.97382 0.52391 0.81359 0.0
C3847 C 0.96616 0.51202 0.80912 0.0
C3848 C 0.95601 0.50664 0.83337 0.0
C3849 C 0.95347 0.51304 0.86248 0.0
C3850 C 0.96111 0.52483 0.8675 0.0
C3851 C 0.97127 0.53026 0.84327 0.0
H3852 H 0.94561 0.50885 0.88122 0.0
H3853 H 0.04419 0.55644 0.64681 0.0
H3854 H 0.44868 0.4874 0.86964 0.0
H3855 H 0.45655 0.47739 0.82837 0.0
H3856 H 0.42681 0.46297 0.74481 0.0
H3857 H 0.41872 0.47276 0.78657 0.0
H3858 H 0.43285 0.44729 0.76157 0.0
H3859 H 0.452 0.48623 0.71275 0.0
H3860 H 0.46294 0.50739 0.71958 0.0
H3861 H 0.49122 0.50562 0.77661 0.0
H3862 H 0.48038 0.48443 0.77066 0.0
H3863 H 0.47999 0.4523 0.59631 0.0
H3864 H 0.46876 0.45982 0.63114 0.0
H3865 H 0.46041 0.43558 0.73548 0.0
H3866 H 0.47129 0.42773 0.69996 0.0
H3867 H 0.47235 0.47061 0.70242 0.0
H3868 H 0.43539 0.42965 0.78353 0.0
H3869 H 0.42356 0.40881 0.76903 0.0
H3870 H 0.42926 0.41508 0.63283 0.0
H3871 H 0.44099 0.43596 0.64645 0.0
C3872 C 0.44377 0.48205 0.84266 0.0
C3873 C 0.43311 0.48096 0.8312 0.0
C3874 C 0.4483 0.47636 0.819 0.0
C3875 C 0.44236 0.46959 0.78305 0.0
C3876 C 0.43155 0.46817 0.77237 0.0
C3877 C 0.42696 0.4738 0.79622 0.0
C3878 C 0.44763 0.46431 0.75593 0.0
C3879 C 0.44148 0.45237 0.74858 0.0
C3880 C 0.45877 0.47098 0.73803 0.0
C3881 C 0.46533 0.48373 0.74161 0.0
C3882 C 0.46052 0.49035 0.72704 0.0
C3883 C 0.4667 0.50235 0.7307 0.0
C3884 C 0.47775 0.50785 0.7486 0.0
C3885 C 0.48265 0.50135 0.76279 0.0
C3886 C 0.4765 0.48934 0.75925 0.0
C3887 C 0.47565 0.44847 0.62642 0.0
C3888 C 0.47653 0.43942 0.64539 0.0
C3889 C 0.46924 0.4528 0.64635 0.0
C3890 C 0.46367 0.44824 0.68585 0.0
C3891 C 0.46443 0.4391 0.70461 0.0
C3892 C 0.4707 0.43465 0.68436 0.0
C3893 C 0.45767 0.45352 0.70854 0.0
C3894 C 0.4637 0.46549 0.7152 0.0
C3895 C 0.4463 0.4469 0.72466 0.0
C3896 C 0.43916 0.43437 0.71608 0.0
C3897 C 0.43408 0.42659 0.75048 0.0
C3898 C 0.4274 0.41477 0.74241 0.0
C3899 C 0.42569 0.41063 0.70005 0.0
C3900 C 0.43063 0.4183 0.66564 0.0
C3901 C 0.43731 0.43012 0.67352 0.0
H3902 H 0.42052 0.40147 0.69388 0.0
H3903 H 0.48253 0.51714 0.75141 0.0
H3904 H 0.52041 0.94532 0.80703 0.0
H3905 H 0.53341 0.96368 0.77194 0.0
H3906 H 0.51674 0.97964 0.83884 0.0
H3907 H 0.50394 0.96149 0.8746 0.0
H3908 H 0.52859 0.97553 0.71752 0.0
H3909 H 0.53467 0.00739 0.85756 0.0
H3910 H 0.53696 0.00842 0.93674 0.0
H3911 H 0.54966 0.9847 0.93146 0.0
H3912 H 0.54761 0.98365 0.8522 0.0
H3913 H 0.53538 0.02763 0.64368 0.0
H3914 H 0.5301 0.00959 0.68027 0.0
H3915 H 0.5644 0.02443 0.73304 0.0
H3916 H 0.56976 0.04267 0.69688 0.0
H3917 H 0.54869 0.01314 0.79371 0.0
H3918 H 0.55615 0.00449 0.65365 0.0
H3919 H 0.55537 0.00344 0.57413 0.0
H3920 H 0.51876 0.9807 0.57903 0.0
H3921 H 0.51929 0.98174 0.65859 0.0
C3922 C 0.51961 0.95278 0.81464 0.0
C3923 C 0.51113 0.95193 0.84363 0.0
C3924 C 0.52704 0.96326 0.79453 0.0
C3925 C 0.52615 0.97307 0.80313 0.0
C3926 C 0.51777 0.97226 0.83239 0.0
C3927 C 0.51039 0.96183 0.85263 0.0
C3928 C 0.53336 0.98398 0.77949 0.0
C3929 C 0.53308 0.98375 0.73417 0.0
C3930 C 0.53951 0.99468 0.80119 0.0
C3931 C 0.54092 -0.00461 0.84888 0.0
C3932 C 0.53802 0.00245 0.87323 0.0
C3933 C 0.53926 0.00302 0.91816 0.0
C3934 C 0.54343 -0.00339 0.93912 0.0
C3935 C 0.54639 0.98963 0.91519 0.0
C3936 C 0.54518 0.98903 0.87027 0.0
C3937 C 0.54185 0.02708 0.66285 0.0
C3938 C 0.553 0.03661 0.6673 0.0
C3939 C 0.53883 0.01672 0.68356 0.0
C3940 C 0.54691 0.01561 0.70888 0.0
C3941 C 0.55806 0.02509 0.71347 0.0
C3942 C 0.5611 0.03549 0.69274 0.0
C3943 C 0.54342 0.00467 0.73193 0.0
C3944 C 0.54439 0.00491 0.77708 0.0
C3945 C 0.53814 0.99397 0.71005 0.0
C3946 C 0.53776 0.99325 0.66214 0.0
C3947 C 0.54792 -0.00068 0.63778 0.0
C3948 C 0.54752 -0.00128 0.59268 0.0
C3949 C 0.53702 0.99202 0.57154 0.0
C3950 C 0.52689 0.98589 0.59546 0.0
C3951 C 0.52724 0.98647 0.64057 0.0
H3952 H 0.53673 0.99157 0.53662 0.0
H3953 H 0.54437 -0.00294 0.9739 0.0
H3954 H 0.48443 0.03402 0.09388 0.0
H3955 H 0.47283 0.01517 0.12726 0.0
H3956 H 0.46128 0.03027 0.2243 0.0
H3957 H 0.47259 0.04912 0.19016 0.0
H3958 H 0.47544 0.00859 0.20185 0.0
H3959 H 0.43542 0.01021 0.26534 0.0
H3960 H 0.42314 0.01824 0.2437 0.0
H3961 H 0.43228 0.01811 0.11084 0.0
H3962 H 0.44448 0.00994 0.1316 0.0
H3963 H 0.4502 0.9684 0.36721 0.0
H3964 H 0.45762 0.98621 0.32607 0.0
H3965 H 0.43026 0.96898 0.23298 0.0
H3966 H 0.42258 0.95112 0.27463 0.0
H3967 H 0.43453 0.99054 0.24717 0.0
H3968 H 0.45663 0.9726 0.21221 0.0
H3969 H 0.46829 0.96344 0.22727 0.0
H3970 H 0.49392 0.99435 0.28957 0.0
H3971 H 0.48233 0.00364 0.27539 0.0
C3972 C 0.4793 0.03331 0.12201 0.0
C3973 C 0.47946 0.04307 0.13948 0.0
C3974 C 0.47269 0.02253 0.14109 0.0
C3975 C 0.46615 0.02127 0.17822 0.0
C3976 C 0.46609 0.03097 0.19523 0.0
C3977 C 0.4726 0.04176 0.1758 0.0
C3978 C 0.4601 0.01001 0.20079 0.0
C3979 C 0.46648 0.00465 0.21156 0.0
C3980 C 0.44836 0.00474 0.213 0.0
C3981 C 0.44096 0.00956 0.20012 0.0
C3982 C 0.43478 0.01186 0.23149 0.0
C3983 C 0.42783 0.01644 0.21938 0.0
C3984 C 0.42696 0.01872 0.17594 0.0
C3985 C 0.433 0.01639 0.1445 0.0
C3986 C 0.43994 0.01179 0.15643 0.0
C3987 C 0.44569 0.9684 0.33819 0.0
C3988 C 0.43588 0.9583 0.32391 0.0
C3989 C 0.44995 0.97859 0.31468 0.0
C3990 C 0.44462 0.97886 0.27604 0.0
C3991 C 0.43452 0.96894 0.26265 0.0
C3992 C 0.43017 0.95874 0.28642 0.0
C3993 C 0.44995 0.98932 0.24867 0.0
C3994 C 0.44347 0.99451 0.23717 0.0
C3995 C 0.46152 0.99431 0.23472 0.0
C3996 C 0.46857 0.98878 0.24304 0.0
C3997 C 0.46472 0.97742 0.22937 0.0
C3998 C 0.47132 0.97221 0.23771 0.0
C3999 C 0.48183 0.9783 0.25945 0.0
C4000 C 0.48577 0.98963 0.27278 0.0
C4001 C 0.4792 0.99488 0.26456 0.0
H4002 H 0.48692 0.97425 0.26588 0.0
H4003 H 0.42159 0.02228 0.16664 0.0
H4004 H 0.02219 0.48325 0.36748 0.0
H4005 H 0.00376 0.47202 0.33081 0.0
H4006 H 0.01976 0.46064 0.23691 0.0
H4007 H 0.0382 0.47155 0.27461 0.0
H4008 H -0.00216 0.47479 0.25573 0.0
H4009 H -0.00023 0.435 0.19279 0.0
H4010 H 0.00782 0.42275 0.21457 0.0
H4011 H 0.00712 0.43147 0.3476 0.0
H4012 H -0.00109 0.44364 0.32668 0.0
H4013 H 0.95535 0.44868 0.09766 0.0
H4014 H 0.97395 0.45628 0.13372 0.0
H4015 H 0.9585 0.42946 0.22968 0.0
H4016 H 0.9399 0.42159 0.19304 0.0
H4017 H 0.97972 0.43378 0.21161 0.0
H4018 H 0.96203 0.45605 0.24928 0.0
H4019 H 0.95272 0.46763 0.23548 0.0
H4020 H 0.9829 0.49281 0.16834 0.0
H4021 H 0.99234 0.4813 0.18126 0.0
C4022 C 0.02177 0.47826 0.33927 0.0
C4023 C 0.03165 0.4783 0.32384 0.0
C4024 C 0.01122 0.47186 0.31829 0.0
C4025 C 0.01034 0.46545 0.28114 0.0
C4026 C 0.02017 0.46535 0.26593 0.0
C4027 C 0.03071 0.47162 0.28739 0.0
C4028 C -0.00074 0.45946 0.25721 0.0
C4029 C -0.0061 0.46582 0.24615 0.0
C4030 C -0.00598 0.44772 0.24508 0.0
C4031 C -0.00116 0.44033 0.25808 0.0
C4032 C 0.00129 0.43427 0.22669 0.0
C4033 C 0.00589 0.42735 0.23889 0.0
C4034 C 0.00802 0.42637 0.28242 0.0
C4035 C 0.00551 0.43228 0.31387 0.0
C4036 C 0.0009 0.4392 0.30185 0.0
C4037 C 0.95593 0.44431 0.12614 0.0
C4038 C 0.94612 0.43462 0.14282 0.0
C4039 C 0.96656 0.44867 0.14675 0.0
C4040 C 0.96755 0.44357 0.18487 0.0
C4041 C 0.95792 0.43355 0.20037 0.0
C4042 C 0.94729 0.42909 0.17946 0.0
C4043 C 0.97841 0.44915 0.21013 0.0
C4044 C 0.98372 0.44275 0.22122 0.0
C4045 C 0.98346 0.46078 0.22354 0.0
C4046 C 0.97784 0.46776 0.21588 0.0
C4047 C 0.96665 0.46402 0.23132 0.0
C4048 C 0.96136 0.47058 0.22369 0.0
C4049 C 0.96721 0.48094 0.20095 0.0
C4050 C 0.97838 0.48478 0.18589 0.0
C4051 C 0.9837 0.47824 0.19338 0.0
H4052 H 0.9631 0.486 0.19508 0.0
H4053 H 0.01158 0.42101 0.2918 0.0
H4054 H 0.56635 0.5157 0.20738 0.0
H4055 H 0.55797 0.52532 0.24855 0.0
H4056 H 0.52822 0.51023 0.16499 0.0
H4057 H 0.5364 0.50045 0.12421 0.0
H4058 H 0.5511 0.54064 0.23004 0.0
H4059 H 0.50434 0.50188 0.22419 0.0
H4060 H 0.49442 0.48067 0.21992 0.0
H4061 H 0.52375 0.48091 0.27688 0.0
H4062 H 0.53378 0.5021 0.28205 0.0
H4063 H 0.511 0.55812 0.29078 0.0
H4064 H 0.52246 0.55086 0.25566 0.0
H4065 H 0.51497 0.52698 0.36076 0.0
H4066 H 0.50307 0.53383 0.39484 0.0
H4067 H 0.512 0.51616 0.29107 0.0
H4068 H 0.54245 0.55198 0.344 0.0
H4069 H 0.55333 0.573 0.35551 0.0
H4070 H 0.55841 0.57842 0.21872 0.0
H4071 H 0.54742 0.55744 0.20634 0.0
C4072 C 0.55806 0.51449 0.19758 0.0
C4073 C 0.55198 0.5072 0.1628 0.0
C4074 C 0.55331 0.52003 0.22107 0.0
C4075 C 0.54241 0.51834 0.21019 0.0
C4076 C 0.53656 0.51148 0.17438 0.0
C4077 C 0.54126 0.50591 0.15105 0.0
C4078 C 0.53688 0.52335 0.23719 0.0
C4079 C 0.54256 0.53531 0.24351 0.0
C4080 C 0.52588 0.51635 0.25565 0.0
C4081 C 0.51985 0.50359 0.2531 0.0
C4082 C 0.50865 0.4974 0.23596 0.0
C4083 C 0.50301 0.48538 0.23336 0.0
C4084 C 0.50847 0.47945 0.248 0.0
C4085 C 0.51956 0.48552 0.26541 0.0
C4086 C 0.52523 0.49753 0.26812 0.0
C4087 C 0.51189 0.55139 0.30653 0.0
C4088 C 0.50611 0.5465 0.34543 0.0
C4089 C 0.5185 0.54729 0.28656 0.0
C4090 C 0.5197 0.53845 0.30575 0.0
C4091 C 0.51415 0.53378 0.34521 0.0
C4092 C 0.50737 0.53771 0.36469 0.0
C4093 C 0.52611 0.53354 0.28355 0.0
C4094 C 0.52057 0.52155 0.27793 0.0
C4095 C 0.53737 0.5405 0.2669 0.0
C4096 C 0.54402 0.55313 0.27424 0.0
C4097 C 0.54581 0.55765 0.31635 0.0
C4098 C 0.55201 0.56956 0.32303 0.0
C4099 C 0.55654 0.57704 0.28786 0.0
C4100 C 0.55489 0.57262 0.24593 0.0
C4101 C 0.54869 0.56072 0.23907 0.0
H4102 H 0.56133 0.58626 0.2931 0.0
H4103 H 0.50409 0.47015 0.24593 0.0
loop_
_geom_bond_atom_site_label_1
_geom_bond_atom_site_label_2
_geom_bond_distance
_geom_bond_site_symmetry_2
_ccdc_geom_bond_type
C0 O1 1.306 . S
C0 O3 1.160 . S
O1 C0 1.306 . S
O1 Cd2 2.228 . S
Cd2 O1 2.228 . S
Cd2 O6 2.273 . S
Cd2 O10 2.277 . S
O3 C0 1.160 . S
O3 Cd4 2.203 . S
Cd4 O3 2.203 . S
Cd4 O6 2.411 . S
Cd4 O7 2.333 . S
Cd4 O8 2.352 . S
Cd4 O12 2.277 . S
Cd4 O13 2.356 . S
C5 O10 1.209 . S
C5 O12 1.226 . S
O6 Cd2 2.273 . S
O6 Cd4 2.411 . S
O6 C9 1.320 . S
O7 Cd4 2.333 . S
O7 C9 1.214 . S
O8 Cd4 2.352 . S
O8 C11 1.258 . S
C9 O6 1.320 . S
C9 O7 1.214 . S
O10 Cd2 2.277 . S
O10 C5 1.209 . S
C11 O8 1.258 . S
C11 O13 1.282 . S
O12 Cd4 2.277 . S
O12 C5 1.226 . S
O13 Cd4 2.356 . S
O13 C11 1.282 . S
C14 O15 1.306 . S
C14 O17 1.160 . S
O15 C14 1.306 . S
O15 Cd16 2.228 . S
Cd16 O15 2.228 . S
Cd16 O20 2.273 . S
Cd16 O24 2.277 . S
O17 C14 1.160 . S
O17 Cd18 2.203 . S
Cd18 O17 2.203 . S
Cd18 O20 2.411 . S
Cd18 O21 2.333 . S
Cd18 O22 2.352 . S
Cd18 O26 2.277 . S
Cd18 O27 2.356 . S
C19 O24 1.209 . S
C19 O26 1.226 . S
O20 Cd16 2.273 . S
O20 Cd18 2.411 . S
O20 C23 1.320 . S
O21 Cd18 2.333 . S
O21 C23 1.214 . S
O22 Cd18 2.352 . S
O22 C25 1.258 . S
C23 O20 1.320 . S
C23 O21 1.214 . S
O24 Cd16 2.277 . S
O24 C19 1.209 . S
C25 O22 1.258 . S
C25 O27 1.282 . S
O26 Cd18 2.277 . S
O26 C19 1.226 . S
O27 Cd18 2.356 . S
O27 C25 1.282 . S
C28 O29 1.306 . S
C28 O31 1.160 . S
O29 C28 1.306 . S
O29 Cd30 2.228 . S
Cd30 O29 2.228 . S
Cd30 O34 2.273 . S
Cd30 O38 2.277 . S
O31 C28 1.160 . S
O31 Cd32 2.203 . S
Cd32 O31 2.203 . S
Cd32 O34 2.411 . S
Cd32 O35 2.333 . S
Cd32 O36 2.352 . S
Cd32 O40 2.277 . S
Cd32 O41 2.356 . S
C33 O38 1.209 . S
C33 O40 1.226 . S
O34 Cd30 2.273 . S
O34 Cd32 2.411 . S
O34 C37 1.320 . S
O35 Cd32 2.333 . S
O35 C37 1.214 . S
O36 Cd32 2.352 . S
O36 C39 1.258 . S
C37 O34 1.320 . S
C37 O35 1.214 . S
O38 Cd30 2.277 . S
O38 C33 1.209 . S
C39 O36 1.258 . S
C39 O41 1.282 . S
O40 Cd32 2.277 . S
O40 C33 1.226 . S
O41 Cd32 2.356 . S
O41 C39 1.282 . S
C42 O43 1.306 . S
C42 O45 1.160 . S
O43 C42 1.306 . S
O43 Cd44 2.228 . S
Cd44 O43 2.228 . S
Cd44 O48 2.273 . S
Cd44 O52 2.277 . S
O45 C42 1.160 . S
O45 Cd46 2.203 . S
Cd46 O45 2.203 . S
Cd46 O48 2.411 . S
Cd46 O49 2.333 . S
Cd46 O50 2.352 . S
Cd46 O54 2.277 . S
Cd46 O55 2.356 . S
C47 O52 1.209 . S
C47 O54 1.226 . S
O48 Cd44 2.273 . S
O48 Cd46 2.411 . S
O48 C51 1.320 . S
O49 Cd46 2.333 . S
O49 C51 1.214 . S
O50 Cd46 2.352 . S
O50 C53 1.258 . S
C51 O48 1.320 . S
C51 O49 1.214 . S
O52 Cd44 2.277 . S
O52 C47 1.209 . S
C53 O50 1.258 . S
C53 O55 1.282 . S
O54 Cd46 2.277 . S
O54 C47 1.226 . S
O55 Cd46 2.356 . S
O55 C53 1.282 . S
C56 O57 1.306 . S
C56 O59 1.160 . S
O57 C56 1.306 . S
O57 Cd58 2.228 . S
Cd58 O57 2.228 . S
Cd58 O62 2.273 . S
Cd58 O66 2.277 . S
O59 C56 1.160 . S
O59 Cd60 2.203 . S
Cd60 O59 2.203 . S
Cd60 O62 2.411 . S
Cd60 O63 2.333 . S
Cd60 O64 2.352 . S
Cd60 O68 2.277 . S
Cd60 O69 2.356 . S
C61 O66 1.209 . S
C61 O68 1.226 . S
O62 Cd58 2.273 . S
O62 Cd60 2.411 . S
O62 C65 1.320 . S
O63 Cd60 2.333 . S
O63 C65 1.214 . S
O64 Cd60 2.352 . S
O64 C67 1.258 . S
C65 O62 1.320 . S
C65 O63 1.214 . S
O66 Cd58 2.277 . S
O66 C61 1.209 . S
C67 O64 1.258 . S
C67 O69 1.282 . S
O68 Cd60 2.277 . S
O68 C61 1.226 . S
O69 Cd60 2.356 . S
O69 C67 1.282 . S
C70 O71 1.306 . S
C70 O73 1.160 . S
O71 C70 1.306 . S
O71 Cd72 2.228 . S
Cd72 O71 2.228 . S
Cd72 O76 2.273 . S
Cd72 O80 2.277 . S
O73 C70 1.160 . S
O73 Cd74 2.203 . S
Cd74 O73 2.203 . S
Cd74 O76 2.411 . S
Cd74 O77 2.333 . S
Cd74 O78 2.352 . S
Cd74 O82 2.277 . S
Cd74 O83 2.356 . S
C75 O80 1.209 . S
C75 O82 1.226 . S
O76 Cd72 2.273 . S
O76 Cd74 2.411 . S
O76 C79 1.320 . S
O77 Cd74 2.333 . S
O77 C79 1.214 . S
O78 Cd74 2.352 . S
O78 C81 1.258 . S
C79 O76 1.320 . S
C79 O77 1.214 . S
O80 Cd72 2.277 . S
O80 C75 1.209 . S
C81 O78 1.258 . S
C81 O83 1.282 . S
O82 Cd74 2.277 . S
O82 C75 1.226 . S
O83 Cd74 2.356 . S
O83 C81 1.282 . S
C84 O85 1.306 . S
C84 O87 1.160 . S
O85 C84 1.306 . S
O85 Cd86 2.228 . S
Cd86 O85 2.228 . S
Cd86 O90 2.273 . S
Cd86 O94 2.277 . S
O87 C84 1.160 . S
O87 Cd88 2.203 . S
Cd88 O87 2.203 . S
Cd88 O90 2.411 . S
Cd88 O91 2.333 . S
Cd88 O92 2.352 . S
Cd88 O96 2.277 . S
Cd88 O97 2.356 . S
C89 O94 1.209 . S
C89 O96 1.226 . S
O90 Cd86 2.273 . S
O90 Cd88 2.411 . S
O90 C93 1.320 . S
O91 Cd88 2.333 . S
O91 C93 1.214 . S
O92 Cd88 2.352 . S
O92 C95 1.258 . S
C93 O90 1.320 . S
C93 O91 1.214 . S
O94 Cd86 2.277 . S
O94 C89 1.209 . S
C95 O92 1.258 . S
C95 O97 1.282 . S
O96 Cd88 2.277 . S
O96 C89 1.226 . S
O97 Cd88 2.356 . S
O97 C95 1.282 . S
C98 O99 1.306 . S
C98 O101 1.160 . S
O99 C98 1.306 . S
O99 Cd100 2.228 . S
Cd100 O99 2.228 . S
Cd100 O104 2.273 . S
Cd100 O108 2.277 . S
O101 C98 1.160 . S
O101 Cd102 2.203 . S
Cd102 O101 2.203 . S
Cd102 O104 2.411 . S
Cd102 O105 2.333 . S
Cd102 O106 2.352 . S
Cd102 O110 2.277 . S
Cd102 O111 2.356 . S
C103 O108 1.209 . S
C103 O110 1.226 . S
O104 Cd100 2.273 . S
O104 Cd102 2.411 . S
O104 C107 1.320 . S
O105 Cd102 2.333 . S
O105 C107 1.214 . S
O106 Cd102 2.352 . S
O106 C109 1.258 . S
C107 O104 1.320 . S
C107 O105 1.214 . S
O108 Cd100 2.277 . S
O108 C103 1.209 . S
C109 O106 1.258 . S
C109 O111 1.282 . S
O110 Cd102 2.277 . S
O110 C103 1.226 . S
O111 Cd102 2.356 . S
O111 C109 1.282 . S
C112 O113 1.306 . S
C112 O115 1.160 . S
O113 C112 1.306 . S
O113 Cd114 2.228 . S
Cd114 O113 2.228 . S
Cd114 O118 2.273 . S
Cd114 O122 2.277 . S
O115 C112 1.160 . S
O115 Cd116 2.203 . S
Cd116 O115 2.203 . S
Cd116 O118 2.411 . S
Cd116 O119 2.333 . S
Cd116 O120 2.352 . S
Cd116 O124 2.277 . S
Cd116 O125 2.356 . S
C117 O122 1.209 . S
C117 O124 1.226 . S
O118 Cd114 2.273 . S
O118 Cd116 2.411 . S
O118 C121 1.320 . S
O119 Cd116 2.333 . S
O119 C121 1.214 . S
O120 Cd116 2.352 . S
O120 C123 1.258 . S
C121 O118 1.320 . S
C121 O119 1.214 . S
O122 Cd114 2.277 . S
O122 C117 1.209 . S
C123 O120 1.258 . S
C123 O125 1.282 . S
O124 Cd116 2.277 . S
O124 C117 1.226 . S
O125 Cd116 2.356 . S
O125 C123 1.282 . S
C126 O127 1.306 . S
C126 O129 1.160 . S
O127 C126 1.306 . S
O127 Cd128 2.228 . S
Cd128 O127 2.228 . S
Cd128 O132 2.273 . S
Cd128 O136 2.277 . S
O129 C126 1.160 . S
O129 Cd130 2.203 . S
Cd130 O129 2.203 . S
Cd130 O132 2.411 . S
Cd130 O133 2.333 . S
Cd130 O134 2.352 . S
Cd130 O138 2.277 . S
Cd130 O139 2.356 . S
C131 O136 1.209 . S
C131 O138 1.226 . S
O132 Cd128 2.273 . S
O132 Cd130 2.411 . S
O132 C135 1.320 . S
O133 Cd130 2.333 . S
O133 C135 1.214 . S
O134 Cd130 2.352 . S
O134 C137 1.258 . S
C135 O132 1.320 . S
C135 O133 1.214 . S
O136 Cd128 2.277 . S
O136 C131 1.209 . S
C137 O134 1.258 . S
C137 O139 1.282 . S
O138 Cd130 2.277 . S
O138 C131 1.226 . S
O139 Cd130 2.356 . S
O139 C137 1.282 . S
C140 O141 1.306 . S
C140 O143 1.160 . S
O141 C140 1.306 . S
O141 Cd142 2.228 . S
Cd142 O141 2.228 . S
Cd142 O146 2.273 . S
Cd142 O150 2.277 . S
O143 C140 1.160 . S
O143 Cd144 2.203 . S
Cd144 O143 2.203 . S
Cd144 O146 2.411 . S
Cd144 O147 2.333 . S
Cd144 O148 2.352 . S
Cd144 O152 2.277 . S
Cd144 O153 2.356 . S
C145 O150 1.209 . S
C145 O152 1.226 . S
O146 Cd142 2.273 . S
O146 Cd144 2.411 . S
O146 C149 1.320 . S
O147 Cd144 2.333 . S
O147 C149 1.214 . S
O148 Cd144 2.352 . S
O148 C151 1.258 . S
C149 O146 1.320 . S
C149 O147 1.214 . S
O150 Cd142 2.277 . S
O150 C145 1.209 . S
C151 O148 1.258 . S
C151 O153 1.282 . S
O152 Cd144 2.277 . S
O152 C145 1.226 . S
O153 Cd144 2.356 . S
O153 C151 1.282 . S
C154 O155 1.306 . S
C154 O157 1.160 . S
O155 C154 1.306 . S
O155 Cd156 2.228 . S
Cd156 O155 2.228 . S
Cd156 O160 2.273 . S
Cd156 O164 2.277 . S
O157 C154 1.160 . S
O157 Cd158 2.203 . S
Cd158 O157 2.203 . S
Cd158 O160 2.411 . S
Cd158 O161 2.333 . S
Cd158 O162 2.352 . S
Cd158 O166 2.277 . S
Cd158 O167 2.356 . S
C159 O164 1.209 . S
C159 O166 1.226 . S
O160 Cd156 2.273 . S
O160 Cd158 2.411 . S
O160 C163 1.320 . S
O161 Cd158 2.333 . S
O161 C163 1.214 . S
O162 Cd158 2.352 . S
O162 C165 1.258 . S
C163 O160 1.320 . S
C163 O161 1.214 . S
O164 Cd156 2.277 . S
O164 C159 1.209 . S
C165 O162 1.258 . S
C165 O167 1.282 . S
O166 Cd158 2.277 . S
O166 C159 1.226 . S
O167 Cd158 2.356 . S
O167 C165 1.282 . S
C168 O169 1.306 . S
C168 O171 1.160 . S
O169 C168 1.306 . S
O169 Cd170 2.228 . S
Cd170 O169 2.228 . S
Cd170 O174 2.273 . S
Cd170 O178 2.277 . S
O171 C168 1.160 . S
O171 Cd172 2.203 . S
Cd172 O171 2.203 . S
Cd172 O174 2.411 . S
Cd172 O175 2.333 . S
Cd172 O176 2.352 . S
Cd172 O180 2.277 . S
Cd172 O181 2.356 . S
C173 O178 1.209 . S
C173 O180 1.226 . S
O174 Cd170 2.273 . S
O174 Cd172 2.411 . S
O174 C177 1.320 . S
O175 Cd172 2.333 . S
O175 C177 1.214 . S
O176 Cd172 2.352 . S
O176 C179 1.258 . S
C177 O174 1.320 . S
C177 O175 1.214 . S
O178 Cd170 2.277 . S
O178 C173 1.209 . S
C179 O176 1.258 . S
C179 O181 1.282 . S
O180 Cd172 2.277 . S
O180 C173 1.226 . S
O181 Cd172 2.356 . S
O181 C179 1.282 . S
C182 O183 1.306 . S
C182 O185 1.160 . S
O183 C182 1.306 . S
O183 Cd184 2.228 . S
Cd184 O183 2.228 . S
Cd184 O188 2.273 . S
Cd184 O192 2.277 . S
O185 C182 1.160 . S
O185 Cd186 2.203 . S
Cd186 O185 2.203 . S
Cd186 O188 2.411 . S
Cd186 O189 2.333 . S
Cd186 O190 2.352 . S
Cd186 O194 2.277 . S
Cd186 O195 2.356 . S
C187 O192 1.209 . S
C187 O194 1.226 . S
O188 Cd184 2.273 . S
O188 Cd186 2.411 . S
O188 C191 1.320 . S
O189 Cd186 2.333 . S
O189 C191 1.214 . S
O190 Cd186 2.352 . S
O190 C193 1.258 . S
C191 O188 1.320 . S
C191 O189 1.214 . S
O192 Cd184 2.277 . S
O192 C187 1.209 . S
C193 O190 1.258 . S
C193 O195 1.282 . S
O194 Cd186 2.277 . S
O194 C187 1.226 . S
O195 Cd186 2.356 . S
O195 C193 1.282 . S
C196 O197 1.306 . S
C196 O199 1.160 . S
O197 C196 1.306 . S
O197 Cd198 2.228 . S
Cd198 O197 2.228 . S
Cd198 O202 2.273 . S
Cd198 O206 2.277 . S
O199 C196 1.160 . S
O199 Cd200 2.203 . S
Cd200 O199 2.203 . S
Cd200 O202 2.411 . S
Cd200 O203 2.333 . S
Cd200 O204 2.352 . S
Cd200 O208 2.277 . S
Cd200 O209 2.356 . S
C201 O206 1.209 . S
C201 O208 1.226 . S
O202 Cd198 2.273 . S
O202 Cd200 2.411 . S
O202 C205 1.320 . S
O203 Cd200 2.333 . S
O203 C205 1.214 . S
O204 Cd200 2.352 . S
O204 C207 1.258 . S
C205 O202 1.320 . S
C205 O203 1.214 . S
O206 Cd198 2.277 . S
O206 C201 1.209 . S
C207 O204 1.258 . S
C207 O209 1.282 . S
O208 Cd200 2.277 . S
O208 C201 1.226 . S
O209 Cd200 2.356 . S
O209 C207 1.282 . S
C210 O211 1.306 . S
C210 O213 1.160 . S
O211 C210 1.306 . S
O211 Cd212 2.228 . S
Cd212 O211 2.228 . S
Cd212 O216 2.273 . S
Cd212 O220 2.277 . S
O213 C210 1.160 . S
O213 Cd214 2.203 . S
Cd214 O213 2.203 . S
Cd214 O216 2.411 . S
Cd214 O217 2.333 . S
Cd214 O218 2.352 . S
Cd214 O222 2.277 . S
Cd214 O223 2.356 . S
C215 O220 1.209 . S
C215 O222 1.226 . S
O216 Cd212 2.273 . S
O216 Cd214 2.411 . S
O216 C219 1.320 . S
O217 Cd214 2.333 . S
O217 C219 1.214 . S
O218 Cd214 2.352 . S
O218 C221 1.258 . S
C219 O216 1.320 . S
C219 O217 1.214 . S
O220 Cd212 2.277 . S
O220 C215 1.209 . S
C221 O218 1.258 . S
C221 O223 1.282 . S
O222 Cd214 2.277 . S
O222 C215 1.226 . S
O223 Cd214 2.356 . S
O223 C221 1.282 . S
C224 O225 1.306 . S
C224 O227 1.160 . S
O225 C224 1.306 . S
O225 Cd226 2.228 . S
Cd226 O225 2.228 . S
Cd226 O230 2.273 . S
Cd226 O234 2.277 . S
O227 C224 1.160 . S
O227 Cd228 2.203 . S
Cd228 O227 2.203 . S
Cd228 O230 2.411 . S
Cd228 O231 2.333 . S
Cd228 O232 2.352 . S
Cd228 O236 2.277 . S
Cd228 O237 2.356 . S
C229 O234 1.209 . S
C229 O236 1.226 . S
O230 Cd226 2.273 . S
O230 Cd228 2.411 . S
O230 C233 1.320 . S
O231 Cd228 2.333 . S
O231 C233 1.214 . S
O232 Cd228 2.352 . S
O232 C235 1.258 . S
C233 O230 1.320 . S
C233 O231 1.214 . S
O234 Cd226 2.277 . S
O234 C229 1.209 . S
C235 O232 1.258 . S
C235 O237 1.282 . S
O236 Cd228 2.277 . S
O236 C229 1.226 . S
O237 Cd228 2.356 . S
O237 C235 1.282 . S
C238 O239 1.306 . S
C238 O241 1.160 . S
O239 C238 1.306 . S
O239 Cd240 2.228 . S
Cd240 O239 2.228 . S
Cd240 O244 2.273 . S
Cd240 O248 2.277 . S
O241 C238 1.160 . S
O241 Cd242 2.203 . S
Cd242 O241 2.203 . S
Cd242 O244 2.411 . S
Cd242 O245 2.333 . S
Cd242 O246 2.352 . S
Cd242 O250 2.277 . S
Cd242 O251 2.356 . S
C243 O248 1.209 . S
C243 O250 1.226 . S
O244 Cd240 2.273 . S
O244 Cd242 2.411 . S
O244 C247 1.320 . S
O245 Cd242 2.333 . S
O245 C247 1.214 . S
O246 Cd242 2.352 . S
O246 C249 1.258 . S
C247 O244 1.320 . S
C247 O245 1.214 . S
O248 Cd240 2.277 . S
O248 C243 1.209 . S
C249 O246 1.258 . S
C249 O251 1.282 . S
O250 Cd242 2.277 . S
O250 C243 1.226 . S
O251 Cd242 2.356 . S
O251 C249 1.282 . S
C252 O253 1.306 . S
C252 O255 1.160 . S
O253 C252 1.306 . S
O253 Cd254 2.228 . S
Cd254 O253 2.228 . S
Cd254 O258 2.273 . S
Cd254 O262 2.277 . S
O255 C252 1.160 . S
O255 Cd256 2.203 . S
Cd256 O255 2.203 . S
Cd256 O258 2.411 . S
Cd256 O259 2.333 . S
Cd256 O260 2.352 . S
Cd256 O264 2.277 . S
Cd256 O265 2.356 . S
C257 O262 1.209 . S
C257 O264 1.226 . S
O258 Cd254 2.273 . S
O258 Cd256 2.411 . S
O258 C261 1.320 . S
O259 Cd256 2.333 . S
O259 C261 1.214 . S
O260 Cd256 2.352 . S
O260 C263 1.258 . S
C261 O258 1.320 . S
C261 O259 1.214 . S
O262 Cd254 2.277 . S
O262 C257 1.209 . S
C263 O260 1.258 . S
C263 O265 1.282 . S
O264 Cd256 2.277 . S
O264 C257 1.226 . S
O265 Cd256 2.356 . S
O265 C263 1.282 . S
C266 O267 1.306 . S
C266 O269 1.160 . S
O267 C266 1.306 . S
O267 Cd268 2.228 . S
Cd268 O267 2.228 . S
Cd268 O272 2.273 . S
Cd268 O276 2.277 . S
O269 C266 1.160 . S
O269 Cd270 2.203 . S
Cd270 O269 2.203 . S
Cd270 O272 2.411 . S
Cd270 O273 2.333 . S
Cd270 O274 2.352 . S
Cd270 O278 2.277 . S
Cd270 O279 2.356 . S
C271 O276 1.209 . S
C271 O278 1.226 . S
O272 Cd268 2.273 . S
O272 Cd270 2.411 . S
O272 C275 1.320 . S
O273 Cd270 2.333 . S
O273 C275 1.214 . S
O274 Cd270 2.352 . S
O274 C277 1.258 . S
C275 O272 1.320 . S
C275 O273 1.214 . S
O276 Cd268 2.277 . S
O276 C271 1.209 . S
C277 O274 1.258 . S
C277 O279 1.282 . S
O278 Cd270 2.277 . S
O278 C271 1.226 . S
O279 Cd270 2.356 . S
O279 C277 1.282 . S
C280 O281 1.306 . S
C280 O283 1.160 . S
O281 C280 1.306 . S
O281 Cd282 2.228 . S
Cd282 O281 2.228 . S
Cd282 O286 2.273 . S
Cd282 O290 2.277 . S
O283 C280 1.160 . S
O283 Cd284 2.203 . S
Cd284 O283 2.203 . S
Cd284 O286 2.411 . S
Cd284 O287 2.333 . S
Cd284 O288 2.352 . S
Cd284 O292 2.277 . S
Cd284 O293 2.356 . S
C285 O290 1.209 . S
C285 O292 1.226 . S
O286 Cd282 2.273 . S
O286 Cd284 2.411 . S
O286 C289 1.320 . S
O287 Cd284 2.333 . S
O287 C289 1.214 . S
O288 Cd284 2.352 . S
O288 C291 1.258 . S
C289 O286 1.320 . S
C289 O287 1.214 . S
O290 Cd282 2.277 . S
O290 C285 1.209 . S
C291 O288 1.258 . S
C291 O293 1.282 . S
O292 Cd284 2.277 . S
O292 C285 1.226 . S
O293 Cd284 2.356 . S
O293 C291 1.282 . S
C294 O295 1.306 . S
C294 O297 1.160 . S
O295 C294 1.306 . S
O295 Cd296 2.228 1_556 S
Cd296 O295 2.228 1_554 S
Cd296 O300 2.273 . S
Cd296 O304 2.277 1_554 S
O297 C294 1.160 . S
O297 Cd298 2.203 . S
Cd298 O297 2.203 . S
Cd298 O300 2.411 1_556 S
Cd298 O301 2.333 1_556 S
Cd298 O302 2.352 1_556 S
Cd298 O306 2.277 . S
Cd298 O307 2.356 . S
C299 O304 1.209 . S
C299 O306 1.226 . S
O300 Cd296 2.273 . S
O300 Cd298 2.411 1_554 S
O300 C303 1.320 . S
O301 Cd298 2.333 1_554 S
O301 C303 1.214 . S
O302 Cd298 2.352 1_554 S
O302 C305 1.258 . S
C303 O300 1.320 . S
C303 O301 1.214 . S
O304 Cd296 2.277 1_556 S
O304 C299 1.209 . S
C305 O302 1.258 . S
C305 O307 1.282 1_554 S
O306 Cd298 2.277 . S
O306 C299 1.226 . S
O307 Cd298 2.356 . S
O307 C305 1.282 1_556 S
C308 O309 1.306 . S
C308 O311 1.160 . S
O309 C308 1.306 . S
O309 Cd310 2.228 1_556 S
Cd310 O309 2.228 1_554 S
Cd310 O314 2.273 . S
Cd310 O318 2.277 1_554 S
O311 C308 1.160 . S
O311 Cd312 2.203 . S
Cd312 O311 2.203 . S
Cd312 O314 2.411 1_556 S
Cd312 O315 2.333 1_556 S
Cd312 O316 2.352 1_556 S
Cd312 O320 2.277 . S
Cd312 O321 2.356 . S
C313 O318 1.209 . S
C313 O320 1.226 . S
O314 Cd310 2.273 . S
O314 Cd312 2.411 1_554 S
O314 C317 1.320 . S
O315 Cd312 2.333 1_554 S
O315 C317 1.214 . S
O316 Cd312 2.352 1_554 S
O316 C319 1.258 . S
C317 O314 1.320 . S
C317 O315 1.214 . S
O318 Cd310 2.277 1_556 S
O318 C313 1.209 . S
C319 O316 1.258 . S
C319 O321 1.282 1_554 S
O320 Cd312 2.277 . S
O320 C313 1.226 . S
O321 Cd312 2.356 . S
O321 C319 1.282 1_556 S
C322 O323 1.306 . S
C322 O325 1.160 . S
O323 C322 1.306 . S
O323 Cd324 2.228 1_556 S
Cd324 O323 2.228 1_554 S
Cd324 O328 2.273 . S
Cd324 O332 2.277 1_554 S
O325 C322 1.160 . S
O325 Cd326 2.203 . S
Cd326 O325 2.203 . S
Cd326 O328 2.411 1_556 S
Cd326 O329 2.333 1_556 S
Cd326 O330 2.352 1_556 S
Cd326 O334 2.277 . S
Cd326 O335 2.356 . S
C327 O332 1.209 . S
C327 O334 1.226 . S
O328 Cd324 2.273 . S
O328 Cd326 2.411 1_554 S
O328 C331 1.320 . S
O329 Cd326 2.333 1_554 S
O329 C331 1.214 . S
O330 Cd326 2.352 1_554 S
O330 C333 1.258 . S
C331 O328 1.320 . S
C331 O329 1.214 . S
O332 Cd324 2.277 1_556 S
O332 C327 1.209 . S
C333 O330 1.258 . S
C333 O335 1.282 1_554 S
O334 Cd326 2.277 . S
O334 C327 1.226 . S
O335 Cd326 2.356 . S
O335 C333 1.282 1_556 S
C336 O337 1.306 . S
C336 O339 1.160 . S
O337 C336 1.306 . S
O337 Cd338 2.228 . S
Cd338 O337 2.228 . S
Cd338 O342 2.273 . S
Cd338 O346 2.277 . S
O339 C336 1.160 . S
O339 Cd340 2.203 . S
Cd340 O339 2.203 . S
Cd340 O342 2.411 . S
Cd340 O343 2.333 . S
Cd340 O344 2.352 . S
Cd340 O348 2.277 . S
Cd340 O349 2.356 . S
C341 O346 1.209 . S
C341 O348 1.226 . S
O342 Cd338 2.273 . S
O342 Cd340 2.411 . S
O342 C345 1.320 . S
O343 Cd340 2.333 . S
O343 C345 1.214 . S
O344 Cd340 2.352 . S
O344 C347 1.258 . S
C345 O342 1.320 . S
C345 O343 1.214 . S
O346 Cd338 2.277 . S
O346 C341 1.209 . S
C347 O344 1.258 . S
C347 O349 1.282 . S
O348 Cd340 2.277 . S
O348 C341 1.226 . S
O349 Cd340 2.356 . S
O349 C347 1.282 . S
C350 O351 1.306 . S
C350 O353 1.160 . S
O351 C350 1.306 . S
O351 Cd352 2.228 . S
Cd352 O351 2.228 . S
Cd352 O356 2.273 . S
Cd352 O360 2.277 . S
O353 C350 1.160 . S
O353 Cd354 2.203 . S
Cd354 O353 2.203 . S
Cd354 O356 2.411 . S
Cd354 O357 2.333 . S
Cd354 O358 2.352 . S
Cd354 O362 2.277 . S
Cd354 O363 2.356 . S
C355 O360 1.209 . S
C355 O362 1.226 . S
O356 Cd352 2.273 . S
O356 Cd354 2.411 . S
O356 C359 1.320 . S
O357 Cd354 2.333 . S
O357 C359 1.214 . S
O358 Cd354 2.352 . S
O358 C361 1.258 . S
C359 O356 1.320 . S
C359 O357 1.214 . S
O360 Cd352 2.277 . S
O360 C355 1.209 . S
C361 O358 1.258 . S
C361 O363 1.282 . S
O362 Cd354 2.277 . S
O362 C355 1.226 . S
O363 Cd354 2.356 . S
O363 C361 1.282 . S
C364 O365 1.306 . S
C364 O367 1.160 . S
O365 C364 1.306 . S
O365 Cd366 2.228 . S
Cd366 O365 2.228 . S
Cd366 O370 2.273 . S
Cd366 O374 2.277 . S
O367 C364 1.160 . S
O367 Cd368 2.203 . S
Cd368 O367 2.203 . S
Cd368 O370 2.411 . S
Cd368 O371 2.333 . S
Cd368 O372 2.352 . S
Cd368 O376 2.277 . S
Cd368 O377 2.356 . S
C369 O374 1.209 . S
C369 O376 1.226 . S
O370 Cd366 2.273 . S
O370 Cd368 2.411 . S
O370 C373 1.320 . S
O371 Cd368 2.333 . S
O371 C373 1.214 . S
O372 Cd368 2.352 . S
O372 C375 1.258 . S
C373 O370 1.320 . S
C373 O371 1.214 . S
O374 Cd366 2.277 . S
O374 C369 1.209 . S
C375 O372 1.258 . S
C375 O377 1.282 . S
O376 Cd368 2.277 . S
O376 C369 1.226 . S
O377 Cd368 2.356 . S
O377 C375 1.282 . S
C378 O379 1.306 . S
C378 O381 1.160 . S
O379 C378 1.306 . S
O379 Cd380 2.228 1_554 S
Cd380 O379 2.228 1_556 S
Cd380 O384 2.273 . S
Cd380 O388 2.277 1_556 S
O381 C378 1.160 . S
O381 Cd382 2.203 . S
Cd382 O381 2.203 . S
Cd382 O384 2.411 1_554 S
Cd382 O385 2.333 1_554 S
Cd382 O386 2.352 1_554 S
Cd382 O390 2.277 . S
Cd382 O391 2.356 . S
C383 O388 1.209 . S
C383 O390 1.226 . S
O384 Cd380 2.273 . S
O384 Cd382 2.411 1_556 S
O384 C387 1.320 . S
O385 Cd382 2.333 1_556 S
O385 C387 1.214 . S
O386 Cd382 2.352 1_556 S
O386 C389 1.258 . S
C387 O384 1.320 . S
C387 O385 1.214 . S
O388 Cd380 2.277 1_554 S
O388 C383 1.209 . S
C389 O386 1.258 . S
C389 O391 1.282 1_556 S
O390 Cd382 2.277 . S
O390 C383 1.226 . S
O391 Cd382 2.356 . S
O391 C389 1.282 1_554 S
C392 O393 1.306 . S
C392 O395 1.160 . S
O393 C392 1.306 . S
O393 Cd394 2.228 1_554 S
Cd394 O393 2.228 1_556 S
Cd394 O398 2.273 . S
Cd394 O402 2.277 1_556 S
O395 C392 1.160 . S
O395 Cd396 2.203 . S
Cd396 O395 2.203 . S
Cd396 O398 2.411 1_554 S
Cd396 O399 2.333 1_554 S
Cd396 O400 2.352 1_554 S
Cd396 O404 2.277 . S
Cd396 O405 2.356 . S
C397 O402 1.209 . S
C397 O404 1.226 . S
O398 Cd394 2.273 . S
O398 Cd396 2.411 1_556 S
O398 C401 1.320 . S
O399 Cd396 2.333 1_556 S
O399 C401 1.214 . S
O400 Cd396 2.352 1_556 S
O400 C403 1.258 . S
C401 O398 1.320 . S
C401 O399 1.214 . S
O402 Cd394 2.277 1_554 S
O402 C397 1.209 . S
C403 O400 1.258 . S
C403 O405 1.282 1_556 S
O404 Cd396 2.277 . S
O404 C397 1.226 . S
O405 Cd396 2.356 . S
O405 C403 1.282 1_554 S
C406 O407 1.306 . S
C406 O409 1.160 . S
O407 C406 1.306 . S
O407 Cd408 2.228 1_554 S
Cd408 O407 2.228 1_556 S
Cd408 O412 2.273 . S
Cd408 O416 2.277 1_556 S
O409 C406 1.160 . S
O409 Cd410 2.203 . S
Cd410 O409 2.203 . S
Cd410 O412 2.411 1_554 S
Cd410 O413 2.333 1_554 S
Cd410 O414 2.352 1_554 S
Cd410 O418 2.277 . S
Cd410 O419 2.356 . S
C411 O416 1.209 . S
C411 O418 1.226 . S
O412 Cd408 2.273 . S
O412 Cd410 2.411 1_556 S
O412 C415 1.320 . S
O413 Cd410 2.333 1_556 S
O413 C415 1.214 . S
O414 Cd410 2.352 1_556 S
O414 C417 1.258 . S
C415 O412 1.320 . S
C415 O413 1.214 . S
O416 Cd408 2.277 1_554 S
O416 C411 1.209 . S
C417 O414 1.258 . S
C417 O419 1.282 1_556 S
O418 Cd410 2.277 . S
O418 C411 1.226 . S
O419 Cd410 2.356 . S
O419 C417 1.282 1_554 S
C420 O421 1.306 . S
C420 O423 1.160 . S
O421 C420 1.306 . S
O421 Cd422 2.228 . S
Cd422 O421 2.228 . S
Cd422 O426 2.273 . S
Cd422 O430 2.277 . S
O423 C420 1.160 . S
O423 Cd424 2.203 . S
Cd424 O423 2.203 . S
Cd424 O426 2.411 . S
Cd424 O427 2.333 . S
Cd424 O428 2.352 . S
Cd424 O432 2.277 . S
Cd424 O433 2.356 . S
C425 O430 1.209 . S
C425 O432 1.226 . S
O426 Cd422 2.273 . S
O426 Cd424 2.411 . S
O426 C429 1.320 . S
O427 Cd424 2.333 . S
O427 C429 1.214 . S
O428 Cd424 2.352 . S
O428 C431 1.258 . S
C429 O426 1.320 . S
C429 O427 1.214 . S
O430 Cd422 2.277 . S
O430 C425 1.209 . S
C431 O428 1.258 . S
C431 O433 1.282 . S
O432 Cd424 2.277 . S
O432 C425 1.226 . S
O433 Cd424 2.356 . S
O433 C431 1.282 . S
C434 O435 1.306 . S
C434 O437 1.160 . S
O435 C434 1.306 . S
O435 Cd436 2.228 . S
Cd436 O435 2.228 . S
Cd436 O440 2.273 . S
Cd436 O444 2.277 . S
O437 C434 1.160 . S
O437 Cd438 2.203 . S
Cd438 O437 2.203 . S
Cd438 O440 2.411 . S
Cd438 O441 2.333 . S
Cd438 O442 2.352 . S
Cd438 O446 2.277 . S
Cd438 O447 2.356 . S
C439 O444 1.209 . S
C439 O446 1.226 . S
O440 Cd436 2.273 . S
O440 Cd438 2.411 . S
O440 C443 1.320 . S
O441 Cd438 2.333 . S
O441 C443 1.214 . S
O442 Cd438 2.352 . S
O442 C445 1.258 . S
C443 O440 1.320 . S
C443 O441 1.214 . S
O444 Cd436 2.277 . S
O444 C439 1.209 . S
C445 O442 1.258 . S
C445 O447 1.282 . S
O446 Cd438 2.277 . S
O446 C439 1.226 . S
O447 Cd438 2.356 . S
O447 C445 1.282 . S
C448 O449 1.306 . S
C448 O451 1.160 . S
O449 C448 1.306 . S
O449 Cd450 2.228 . S
Cd450 O449 2.228 . S
Cd450 O454 2.273 . S
Cd450 O458 2.277 . S
O451 C448 1.160 . S
O451 Cd452 2.203 . S
Cd452 O451 2.203 . S
Cd452 O454 2.411 . S
Cd452 O455 2.333 . S
Cd452 O456 2.352 . S
Cd452 O460 2.277 . S
Cd452 O461 2.356 . S
C453 O458 1.209 . S
C453 O460 1.226 . S
O454 Cd450 2.273 . S
O454 Cd452 2.411 . S
O454 C457 1.320 . S
O455 Cd452 2.333 . S
O455 C457 1.214 . S
O456 Cd452 2.352 . S
O456 C459 1.258 . S
C457 O454 1.320 . S
C457 O455 1.214 . S
O458 Cd450 2.277 . S
O458 C453 1.209 . S
C459 O456 1.258 . S
C459 O461 1.282 . S
O460 Cd452 2.277 . S
O460 C453 1.226 . S
O461 Cd452 2.356 . S
O461 C459 1.282 . S
C462 O463 1.306 . S
C462 O465 1.160 . S
O463 C462 1.306 . S
O463 Cd464 2.228 . S
Cd464 O463 2.228 . S
Cd464 O468 2.273 . S
Cd464 O472 2.277 . S
O465 C462 1.160 . S
O465 Cd466 2.203 . S
Cd466 O465 2.203 . S
Cd466 O468 2.411 . S
Cd466 O469 2.333 . S
Cd466 O470 2.352 . S
Cd466 O474 2.277 . S
Cd466 O475 2.356 . S
C467 O472 1.209 . S
C467 O474 1.226 . S
O468 Cd464 2.273 . S
O468 Cd466 2.411 . S
O468 C471 1.320 . S
O469 Cd466 2.333 . S
O469 C471 1.214 . S
O470 Cd466 2.352 . S
O470 C473 1.258 . S
C471 O468 1.320 . S
C471 O469 1.214 . S
O472 Cd464 2.277 . S
O472 C467 1.209 . S
C473 O470 1.258 . S
C473 O475 1.282 . S
O474 Cd466 2.277 . S
O474 C467 1.226 . S
O475 Cd466 2.356 . S
O475 C473 1.282 . S
C476 O477 1.306 . S
C476 O479 1.160 . S
O477 C476 1.306 . S
O477 Cd478 2.228 . S
Cd478 O477 2.228 . S
Cd478 O482 2.273 . S
Cd478 O486 2.277 . S
O479 C476 1.160 . S
O479 Cd480 2.203 . S
Cd480 O479 2.203 . S
Cd480 O482 2.411 . S
Cd480 O483 2.333 . S
Cd480 O484 2.352 . S
Cd480 O488 2.277 . S
Cd480 O489 2.356 . S
C481 O486 1.209 . S
C481 O488 1.226 . S
O482 Cd478 2.273 . S
O482 Cd480 2.411 . S
O482 C485 1.320 . S
O483 Cd480 2.333 . S
O483 C485 1.214 . S
O484 Cd480 2.352 . S
O484 C487 1.258 . S
C485 O482 1.320 . S
C485 O483 1.214 . S
O486 Cd478 2.277 . S
O486 C481 1.209 . S
C487 O484 1.258 . S
C487 O489 1.282 . S
O488 Cd480 2.277 . S
O488 C481 1.226 . S
O489 Cd480 2.356 . S
O489 C487 1.282 . S
C490 O491 1.306 . S
C490 O493 1.160 . S
O491 C490 1.306 . S
O491 Cd492 2.228 . S
Cd492 O491 2.228 . S
Cd492 O496 2.273 . S
Cd492 O500 2.277 . S
O493 C490 1.160 . S
O493 Cd494 2.203 . S
Cd494 O493 2.203 . S
Cd494 O496 2.411 . S
Cd494 O497 2.333 . S
Cd494 O498 2.352 . S
Cd494 O502 2.277 . S
Cd494 O503 2.356 . S
C495 O500 1.209 . S
C495 O502 1.226 . S
O496 Cd492 2.273 . S
O496 Cd494 2.411 . S
O496 C499 1.320 . S
O497 Cd494 2.333 . S
O497 C499 1.214 . S
O498 Cd494 2.352 . S
O498 C501 1.258 . S
C499 O496 1.320 . S
C499 O497 1.214 . S
O500 Cd492 2.277 . S
O500 C495 1.209 . S
C501 O498 1.258 . S
C501 O503 1.282 . S
O502 Cd494 2.277 . S
O502 C495 1.226 . S
O503 Cd494 2.356 . S
O503 C501 1.282 . S
H504 C522 0.951 . S
H505 C524 0.951 . S
H506 C526 0.950 . S
H507 C527 0.950 . S
H508 C529 0.950 . S
H509 C532 0.950 . S
H510 C533 0.950 . S
H511 C535 0.950 . S
H512 C536 0.950 . S
H513 C537 0.951 . S
H514 C539 0.951 . S
H515 C541 0.950 . S
H516 C542 0.950 . S
H517 C544 0.950 . S
H518 C547 0.950 . S
H519 C548 0.950 . S
H520 C550 0.950 . S
H521 C551 0.950 . S
C522 H504 0.951 . S
C522 C523 1.366 . S
C522 C524 1.388 . S
C523 C522 1.366 . S
C523 C527 1.385 . S
C524 H505 0.951 . S
C524 C522 1.388 . S
C524 C525 1.366 . S
C525 C524 1.366 . S
C525 C526 1.414 . S
C525 C528 1.499 . S
C526 H506 0.950 . S
C526 C525 1.414 . S
C526 C527 1.374 . S
C527 H507 0.950 . S
C527 C523 1.385 . S
C527 C526 1.374 . S
C528 C525 1.499 . S
C528 C529 1.373 . S
C528 C530 1.389 . S
C529 H508 0.950 . S
C529 C528 1.373 . S
C529 C545 1.377 . S
C530 C528 1.389 . S
C530 C531 1.524 . S
C530 C544 1.377 . S
C531 C530 1.524 . S
C531 C532 1.397 . S
C531 C536 1.363 . S
C532 H509 0.950 . S
C532 C531 1.397 . S
C532 C533 1.334 . S
C533 H510 0.950 . S
C533 C532 1.334 . S
C533 C534 1.287 . S
C534 C533 1.287 . S
C534 C535 1.524 . S
C534 H553 0.913 . S
C535 H511 0.950 . S
C535 C534 1.524 . S
C535 C536 1.415 . S
C536 H512 0.950 . S
C536 C531 1.363 . S
C536 C535 1.415 . S
C537 H513 0.951 . S
C537 C538 1.366 . S
C537 C539 1.388 . S
C538 C537 1.366 . S
C538 C542 1.385 . S
C539 H514 0.951 . S
C539 C537 1.388 . S
C539 C540 1.366 . S
C540 C539 1.366 . S
C540 C541 1.414 . S
C540 C543 1.499 . S
C541 H515 0.950 . S
C541 C540 1.414 . S
C541 C542 1.374 . S
C542 H516 0.950 . S
C542 C538 1.385 . S
C542 C541 1.374 . S
C543 C540 1.499 . S
C543 C544 1.373 . S
C543 C545 1.389 . S
C544 H517 0.950 . S
C544 C530 1.377 . S
C544 C543 1.373 . S
C545 C529 1.377 . S
C545 C543 1.389 . S
C545 C546 1.524 . S
C546 C545 1.524 . S
C546 C547 1.397 . S
C546 C551 1.363 . S
C547 H518 0.950 . S
C547 C546 1.397 . S
C547 C548 1.334 . S
C548 H519 0.950 . S
C548 C547 1.334 . S
C548 C549 1.287 . S
C549 C548 1.287 . S
C549 C550 1.524 . S
C549 H552 0.999 . S
C550 H520 0.950 . S
C550 C549 1.524 . S
C550 C551 1.415 . S
C551 H521 0.950 . S
C551 C546 1.363 . S
C551 C550 1.415 . S
H552 C549 0.999 . S
H553 C534 0.913 . S
H554 C572 0.951 . S
H555 C574 0.951 . S
H556 C576 0.950 . S
H557 C577 0.950 . S
H558 C579 0.950 . S
H559 C582 0.950 . S
H560 C583 0.950 . S
H561 C585 0.966 1_565 S
H562 C586 0.954 . S
H563 C587 0.951 . S
H564 C589 0.951 . S
H565 C591 0.950 . S
H566 C592 0.950 . S
H567 C594 0.950 . S
H568 C597 0.950 . S
H569 C598 0.950 . S
H570 C600 0.966 1_545 S
H571 C601 0.954 . S
C572 H554 0.951 . S
C572 C573 1.366 . S
C572 C574 1.388 . S
C573 C572 1.366 . S
C573 C577 1.385 . S
C574 H555 0.951 . S
C574 C572 1.388 . S
C574 C575 1.366 . S
C575 C574 1.366 . S
C575 C576 1.414 . S
C575 C578 1.499 . S
C576 H556 0.950 . S
C576 C575 1.414 . S
C576 C577 1.374 . S
C577 H557 0.950 . S
C577 C573 1.385 . S
C577 C576 1.374 . S
C578 C575 1.499 . S
C578 C579 1.373 . S
C578 C580 1.389 . S
C579 H558 0.950 . S
C579 C578 1.373 . S
C579 C595 1.377 1_545 S
C580 C578 1.389 . S
C580 C581 1.524 . S
C580 C594 1.377 1_545 S
C581 C580 1.524 . S
C581 C582 1.397 . S
C581 C586 1.367 1_545 S
C582 H559 0.950 . S
C582 C581 1.397 . S
C582 C583 1.334 . S
C583 H560 0.950 . S
C583 C582 1.334 . S
C583 C584 1.287 . S
C584 C583 1.287 . S
C584 C585 1.526 . S
C584 H603 0.913 . S
C585 H561 0.966 1_545 S
C585 C584 1.526 . S
C585 C586 1.398 1_545 S
C586 H562 0.954 . S
C586 C581 1.367 1_565 S
C586 C585 1.398 1_565 S
C587 H563 0.951 . S
C587 C588 1.366 . S
C587 C589 1.388 . S
C588 C587 1.366 . S
C588 C592 1.385 . S
C589 H564 0.951 . S
C589 C587 1.388 . S
C589 C590 1.366 . S
C590 C589 1.366 . S
C590 C591 1.414 . S
C590 C593 1.499 . S
C591 H565 0.950 . S
C591 C590 1.414 . S
C591 C592 1.374 . S
C592 H566 0.950 . S
C592 C588 1.385 . S
C592 C591 1.374 . S
C593 C590 1.499 . S
C593 C594 1.373 . S
C593 C595 1.389 . S
C594 H567 0.950 . S
C594 C580 1.377 1_565 S
C594 C593 1.373 . S
C595 C579 1.377 1_565 S
C595 C593 1.389 . S
C595 C596 1.524 . S
C596 C595 1.524 . S
C596 C597 1.397 . S
C596 C601 1.367 1_565 S
C597 H568 0.950 . S
C597 C596 1.397 . S
C597 C598 1.334 . S
C598 H569 0.950 . S
C598 C597 1.334 . S
C598 C599 1.287 . S
C599 C598 1.287 . S
C599 C600 1.526 . S
C599 H602 0.999 . S
C600 H570 0.966 1_565 S
C600 C599 1.526 . S
C600 C601 1.398 1_565 S
C601 H571 0.954 . S
C601 C596 1.367 1_545 S
C601 C600 1.398 1_545 S
H602 C599 0.999 . S
H603 C584 0.913 . S
H604 C622 0.951 . S
H605 C624 0.951 . S
H606 C626 0.950 . S
H607 C627 0.950 . S
H608 C629 0.950 . S
H609 C632 0.950 . S
H610 C633 0.950 . S
H611 C635 0.950 . S
H612 C636 0.950 . S
H613 C637 0.951 . S
H614 C639 0.951 . S
H615 C641 0.950 . S
H616 C642 0.950 . S
H617 C644 0.950 . S
H618 C647 0.950 . S
H619 C648 0.950 . S
H620 C650 0.950 . S
H621 C651 0.950 . S
C622 H604 0.951 . S
C622 C623 1.366 . S
C622 C624 1.388 . S
C623 C622 1.366 . S
C623 C627 1.385 . S
C624 H605 0.951 . S
C624 C622 1.388 . S
C624 C625 1.366 . S
C625 C624 1.366 . S
C625 C626 1.414 . S
C625 C628 1.499 . S
C626 H606 0.950 . S
C626 C625 1.414 . S
C626 C627 1.374 . S
C627 H607 0.950 . S
C627 C623 1.385 . S
C627 C626 1.374 . S
C628 C625 1.499 . S
C628 C629 1.373 . S
C628 C630 1.389 . S
C629 H608 0.950 . S
C629 C628 1.373 . S
C629 C645 1.377 1_655 S
C630 C628 1.389 . S
C630 C631 1.524 . S
C630 C644 1.377 1_655 S
C631 C630 1.524 . S
C631 C632 1.397 . S
C631 C636 1.363 . S
C632 H609 0.950 . S
C632 C631 1.397 . S
C632 C633 1.334 . S
C633 H610 0.950 . S
C633 C632 1.334 . S
C633 C634 1.287 . S
C634 C633 1.287 . S
C634 C635 1.524 . S
C634 H653 0.913 . S
C635 H611 0.950 . S
C635 C634 1.524 . S
C635 C636 1.415 . S
C636 H612 0.950 . S
C636 C631 1.363 . S
C636 C635 1.415 . S
C637 H613 0.951 . S
C637 C638 1.366 . S
C637 C639 1.388 . S
C638 C637 1.366 . S
C638 C642 1.385 . S
C639 H614 0.951 . S
C639 C637 1.388 . S
C639 C640 1.366 . S
C640 C639 1.366 . S
C640 C641 1.414 . S
C640 C643 1.499 . S
C641 H615 0.950 . S
C641 C640 1.414 . S
C641 C642 1.374 . S
C642 H616 0.950 . S
C642 C638 1.385 . S
C642 C641 1.374 . S
C643 C640 1.499 . S
C643 C644 1.373 . S
C643 C645 1.389 . S
C644 H617 0.950 . S
C644 C630 1.377 1_455 S
C644 C643 1.373 . S
C645 C629 1.377 1_455 S
C645 C643 1.389 . S
C645 C646 1.524 . S
C646 C645 1.524 . S
C646 C647 1.397 . S
C646 C651 1.363 . S
C647 H618 0.950 . S
C647 C646 1.397 . S
C647 C648 1.334 . S
C648 H619 0.950 . S
C648 C647 1.334 . S
C648 C649 1.287 . S
C649 C648 1.287 . S
C649 C650 1.524 . S
C649 H652 0.999 . S
C650 H620 0.950 . S
C650 C649 1.524 . S
C650 C651 1.415 . S
C651 H621 0.950 . S
C651 C646 1.363 . S
C651 C650 1.415 . S
H652 C649 0.999 . S
H653 C634 0.913 . S
H654 C672 0.951 . S
H655 C674 0.951 . S
H656 C676 0.950 . S
H657 C677 0.950 . S
H658 C679 0.950 . S
H659 C682 0.950 . S
H660 C683 0.950 . S
H661 C685 0.950 . S
H662 C686 0.950 . S
H663 C687 0.951 . S
H664 C689 0.951 . S
H665 C691 0.950 . S
H666 C692 0.950 . S
H667 C694 0.950 . S
H668 C697 0.950 . S
H669 C698 0.950 . S
H670 C700 0.950 . S
H671 C701 0.950 . S
C672 H654 0.951 . S
C672 C673 1.366 . S
C672 C674 1.388 . S
C673 C672 1.366 . S
C673 C677 1.385 . S
C674 H655 0.951 . S
C674 C672 1.388 . S
C674 C675 1.366 . S
C675 C674 1.366 . S
C675 C676 1.414 . S
C675 C678 1.499 . S
C676 H656 0.950 . S
C676 C675 1.414 . S
C676 C677 1.374 . S
C677 H657 0.950 . S
C677 C673 1.385 . S
C677 C676 1.374 . S
C678 C675 1.499 . S
C678 C679 1.373 . S
C678 C680 1.389 . S
C679 H658 0.950 . S
C679 C678 1.373 . S
C679 C695 1.377 . S
C680 C678 1.389 . S
C680 C681 1.524 . S
C680 C694 1.377 . S
C681 C680 1.524 . S
C681 C682 1.397 . S
C681 C686 1.363 . S
C682 H659 0.950 . S
C682 C681 1.397 . S
C682 C683 1.334 . S
C683 H660 0.950 . S
C683 C682 1.334 . S
C683 C684 1.287 . S
C684 C683 1.287 . S
C684 C685 1.524 . S
C684 H703 0.913 . S
C685 H661 0.950 . S
C685 C684 1.524 . S
C685 C686 1.415 . S
C686 H662 0.950 . S
C686 C681 1.363 . S
C686 C685 1.415 . S
C687 H663 0.951 . S
C687 C688 1.366 . S
C687 C689 1.388 . S
C688 C687 1.366 . S
C688 C692 1.385 . S
C689 H664 0.951 . S
C689 C687 1.388 . S
C689 C690 1.366 . S
C690 C689 1.366 . S
C690 C691 1.414 . S
C690 C693 1.499 . S
C691 H665 0.950 . S
C691 C690 1.414 . S
C691 C692 1.374 . S
C692 H666 0.950 . S
C692 C688 1.385 . S
C692 C691 1.374 . S
C693 C690 1.499 . S
C693 C694 1.373 . S
C693 C695 1.389 . S
C694 H667 0.950 . S
C694 C680 1.377 . S
C694 C693 1.373 . S
C695 C679 1.377 . S
C695 C693 1.389 . S
C695 C696 1.524 . S
C696 C695 1.524 . S
C696 C697 1.397 . S
C696 C701 1.363 . S
C697 H668 0.950 . S
C697 C696 1.397 . S
C697 C698 1.334 . S
C698 H669 0.950 . S
C698 C697 1.334 . S
C698 C699 1.287 . S
C699 C698 1.287 . S
C699 C700 1.524 . S
C699 H702 0.999 . S
C700 H670 0.950 . S
C700 C699 1.524 . S
C700 C701 1.415 . S
C701 H671 0.950 . S
C701 C696 1.363 . S
C701 C700 1.415 . S
H702 C699 0.999 . S
H703 C684 0.913 . S
H704 C722 0.951 . S
H705 C724 0.951 . S
H706 C726 0.950 . S
H707 C727 0.950 . S
H708 C729 0.950 . S
H709 C732 0.950 . S
H710 C733 0.950 . S
H711 C735 0.950 . S
H712 C736 0.950 . S
H713 C737 0.951 . S
H714 C739 0.951 . S
H715 C741 0.950 . S
H716 C742 0.950 . S
H717 C744 0.950 . S
H718 C747 0.950 . S
H719 C748 0.950 . S
H720 C750 0.950 . S
H721 C751 0.950 . S
C722 H704 0.951 . S
C722 C723 1.366 . S
C722 C724 1.388 . S
C723 C722 1.366 . S
C723 C727 1.385 . S
C724 H705 0.951 . S
C724 C722 1.388 . S
C724 C725 1.366 . S
C725 C724 1.366 . S
C725 C726 1.414 . S
C725 C728 1.499 . S
C726 H706 0.950 . S
C726 C725 1.414 . S
C726 C727 1.374 . S
C727 H707 0.950 . S
C727 C723 1.385 . S
C727 C726 1.374 . S
C728 C725 1.499 . S
C728 C729 1.373 . S
C728 C730 1.389 . S
C729 H708 0.950 . S
C729 C728 1.373 . S
C729 C745 1.377 1_545 S
C730 C728 1.389 . S
C730 C731 1.524 . S
C730 C744 1.377 1_545 S
C731 C730 1.524 . S
C731 C732 1.397 . S
C731 C736 1.363 . S
C732 H709 0.950 . S
C732 C731 1.397 . S
C732 C733 1.334 . S
C733 H710 0.950 . S
C733 C732 1.334 . S
C733 C734 1.287 . S
C734 C733 1.287 . S
C734 C735 1.524 . S
C734 H753 0.913 . S
C735 H711 0.950 . S
C735 C734 1.524 . S
C735 C736 1.415 . S
C736 H712 0.950 . S
C736 C731 1.363 . S
C736 C735 1.415 . S
C737 H713 0.951 . S
C737 C738 1.366 . S
C737 C739 1.388 . S
C738 C737 1.366 . S
C738 C742 1.385 . S
C739 H714 0.951 . S
C739 C737 1.388 . S
C739 C740 1.366 . S
C740 C739 1.366 . S
C740 C741 1.414 . S
C740 C743 1.499 . S
C741 H715 0.950 . S
C741 C740 1.414 . S
C741 C742 1.374 . S
C742 H716 0.950 . S
C742 C738 1.385 . S
C742 C741 1.374 . S
C743 C740 1.499 . S
C743 C744 1.373 . S
C743 C745 1.389 . S
C744 H717 0.950 . S
C744 C730 1.377 1_565 S
C744 C743 1.373 . S
C745 C729 1.377 1_565 S
C745 C743 1.389 . S
C745 C746 1.524 . S
C746 C745 1.524 . S
C746 C747 1.397 . S
C746 C751 1.363 . S
C747 H718 0.950 . S
C747 C746 1.397 . S
C747 C748 1.334 . S
C748 H719 0.950 . S
C748 C747 1.334 . S
C748 C749 1.287 . S
C749 C748 1.287 . S
C749 C750 1.524 . S
C749 H752 0.999 . S
C750 H720 0.950 . S
C750 C749 1.524 . S
C750 C751 1.415 . S
C751 H721 0.950 . S
C751 C746 1.363 . S
C751 C750 1.415 . S
H752 C749 0.999 . S
H753 C734 0.913 . S
H754 C772 0.951 . S
H755 C774 0.951 . S
H756 C776 0.950 . S
H757 C777 0.950 . S
H758 C779 0.950 . S
H759 C782 0.950 . S
H760 C783 0.950 . S
H761 C785 0.950 . S
H762 C786 0.950 . S
H763 C787 0.951 . S
H764 C789 0.951 . S
H765 C791 0.950 . S
H766 C792 0.950 . S
H767 C794 0.950 . S
H768 C797 0.950 . S
H769 C798 0.950 . S
H770 C800 0.950 . S
H771 C801 0.950 . S
C772 H754 0.951 . S
C772 C773 1.366 . S
C772 C774 1.388 . S
C773 C772 1.366 . S
C773 C777 1.385 . S
C774 H755 0.951 . S
C774 C772 1.388 . S
C774 C775 1.366 . S
C775 C774 1.366 . S
C775 C776 1.414 . S
C775 C778 1.499 . S
C776 H756 0.950 . S
C776 C775 1.414 . S
C776 C777 1.374 . S
C777 H757 0.950 . S
C777 C773 1.385 . S
C777 C776 1.374 . S
C778 C775 1.499 . S
C778 C779 1.373 . S
C778 C780 1.389 . S
C779 H758 0.950 . S
C779 C778 1.373 . S
C779 C795 1.377 1_455 S
C780 C778 1.389 . S
C780 C781 1.524 . S
C780 C794 1.377 1_455 S
C781 C780 1.524 . S
C781 C782 1.397 . S
C781 C786 1.363 . S
C782 H759 0.950 . S
C782 C781 1.397 . S
C782 C783 1.334 . S
C783 H760 0.950 . S
C783 C782 1.334 . S
C783 C784 1.287 . S
C784 C783 1.287 . S
C784 C785 1.524 . S
C784 H803 0.913 . S
C785 H761 0.950 . S
C785 C784 1.524 . S
C785 C786 1.415 . S
C786 H762 0.950 . S
C786 C781 1.363 . S
C786 C785 1.415 . S
C787 H763 0.951 . S
C787 C788 1.366 . S
C787 C789 1.388 . S
C788 C787 1.366 . S
C788 C792 1.385 . S
C789 H764 0.951 . S
C789 C787 1.388 . S
C789 C790 1.366 . S
C790 C789 1.366 . S
C790 C791 1.414 . S
C790 C793 1.499 . S
C791 H765 0.950 . S
C791 C790 1.414 . S
C791 C792 1.374 . S
C792 H766 0.950 . S
C792 C788 1.385 . S
C792 C791 1.374 . S
C793 C790 1.499 . S
C793 C794 1.373 . S
C793 C795 1.389 . S
C794 H767 0.950 . S
C794 C780 1.377 1_655 S
C794 C793 1.373 . S
C795 C779 1.377 1_655 S
C795 C793 1.389 . S
C795 C796 1.524 . S
C796 C795 1.524 . S
C796 C797 1.397 . S
C796 C801 1.363 . S
C797 H768 0.950 . S
C797 C796 1.397 . S
C797 C798 1.334 . S
C798 H769 0.950 . S
C798 C797 1.334 . S
C798 C799 1.287 . S
C799 C798 1.287 . S
C799 C800 1.524 . S
C799 H802 0.999 . S
C800 H770 0.950 . S
C800 C799 1.524 . S
C800 C801 1.415 . S
C801 H771 0.950 . S
C801 C796 1.363 . S
C801 C800 1.415 . S
H802 C799 0.999 . S
H803 C784 0.913 . S
H804 C822 0.951 . S
H805 C824 0.951 . S
H806 C826 0.950 . S
H807 C827 0.950 . S
H808 C829 0.950 . S
H809 C832 0.950 . S
H810 C833 0.950 . S
H811 C835 0.950 . S
H812 C836 0.950 . S
H813 C837 0.951 . S
H814 C839 0.951 . S
H815 C841 0.950 . S
H816 C842 0.950 . S
H817 C844 0.950 . S
H818 C847 0.950 . S
H819 C848 0.950 . S
H820 C850 0.950 . S
H821 C851 0.950 . S
C822 H804 0.951 . S
C822 C823 1.366 . S
C822 C824 1.388 . S
C823 C822 1.366 . S
C823 C827 1.385 . S
C824 H805 0.951 . S
C824 C822 1.388 . S
C824 C825 1.366 . S
C825 C824 1.366 . S
C825 C826 1.414 . S
C825 C828 1.499 . S
C826 H806 0.950 . S
C826 C825 1.414 . S
C826 C827 1.374 . S
C827 H807 0.950 . S
C827 C823 1.385 . S
C827 C826 1.374 . S
C828 C825 1.499 . S
C828 C829 1.373 . S
C828 C830 1.389 . S
C829 H808 0.950 . S
C829 C828 1.373 . S
C829 C845 1.377 . S
C830 C828 1.389 . S
C830 C831 1.524 . S
C830 C844 1.377 . S
C831 C830 1.524 . S
C831 C832 1.397 . S
C831 C836 1.363 . S
C832 H809 0.950 . S
C832 C831 1.397 . S
C832 C833 1.334 . S
C833 H810 0.950 . S
C833 C832 1.334 . S
C833 C834 1.287 . S
C834 C833 1.287 . S
C834 C835 1.524 . S
C834 H853 0.913 . S
C835 H811 0.950 . S
C835 C834 1.524 . S
C835 C836 1.415 . S
C836 H812 0.950 . S
C836 C831 1.363 . S
C836 C835 1.415 . S
C837 H813 0.951 . S
C837 C838 1.366 . S
C837 C839 1.388 . S
C838 C837 1.366 . S
C838 C842 1.385 . S
C839 H814 0.951 . S
C839 C837 1.388 . S
C839 C840 1.366 . S
C840 C839 1.366 . S
C840 C841 1.414 . S
C840 C843 1.499 . S
C841 H815 0.950 . S
C841 C840 1.414 . S
C841 C842 1.374 . S
C842 H816 0.950 . S
C842 C838 1.385 . S
C842 C841 1.374 . S
C843 C840 1.499 . S
C843 C844 1.373 . S
C843 C845 1.389 . S
C844 H817 0.950 . S
C844 C830 1.377 . S
C844 C843 1.373 . S
C845 C829 1.377 . S
C845 C843 1.389 . S
C845 C846 1.524 . S
C846 C845 1.524 . S
C846 C847 1.397 . S
C846 C851 1.363 . S
C847 H818 0.950 . S
C847 C846 1.397 . S
C847 C848 1.334 . S
C848 H819 0.950 . S
C848 C847 1.334 . S
C848 C849 1.287 . S
C849 C848 1.287 . S
C849 C850 1.524 . S
C849 H852 0.999 . S
C850 H820 0.950 . S
C850 C849 1.524 . S
C850 C851 1.415 . S
C851 H821 0.950 . S
C851 C846 1.363 . S
C851 C850 1.415 . S
H852 C849 0.999 . S
H853 C834 0.913 . S
H854 C872 0.951 . S
H855 C874 0.951 . S
H856 C876 0.950 . S
H857 C877 0.950 . S
H858 C879 0.950 . S
H859 C882 0.950 . S
H860 C883 0.950 . S
H861 C885 0.950 . S
H862 C886 0.950 . S
H863 C887 0.951 . S
H864 C889 0.951 . S
H865 C891 0.950 . S
H866 C892 0.950 . S
H867 C894 0.950 . S
H868 C897 0.950 . S
H869 C898 0.950 . S
H870 C900 0.950 . S
H871 C901 0.950 . S
C872 H854 0.951 . S
C872 C873 1.366 . S
C872 C874 1.388 . S
C873 C872 1.366 . S
C873 C877 1.385 . S
C874 H855 0.951 . S
C874 C872 1.388 . S
C874 C875 1.366 . S
C875 C874 1.366 . S
C875 C876 1.414 . S
C875 C878 1.499 . S
C876 H856 0.950 . S
C876 C875 1.414 . S
C876 C877 1.374 . S
C877 H857 0.950 . S
C877 C873 1.385 . S
C877 C876 1.374 . S
C878 C875 1.499 . S
C878 C879 1.373 . S
C878 C880 1.389 . S
C879 H858 0.950 . S
C879 C878 1.373 . S
C879 C895 1.377 . S
C880 C878 1.389 . S
C880 C881 1.524 . S
C880 C894 1.377 . S
C881 C880 1.524 . S
C881 C882 1.397 . S
C881 C886 1.363 . S
C882 H859 0.950 . S
C882 C881 1.397 . S
C882 C883 1.334 . S
C883 H860 0.950 . S
C883 C882 1.334 . S
C883 C884 1.287 . S
C884 C883 1.287 . S
C884 C885 1.524 . S
C884 H903 0.913 . S
C885 H861 0.950 . S
C885 C884 1.524 . S
C885 C886 1.415 . S
C886 H862 0.950 . S
C886 C881 1.363 . S
C886 C885 1.415 . S
C887 H863 0.951 . S
C887 C888 1.366 . S
C887 C889 1.388 . S
C888 C887 1.366 . S
C888 C892 1.385 . S
C889 H864 0.951 . S
C889 C887 1.388 . S
C889 C890 1.366 . S
C890 C889 1.366 . S
C890 C891 1.414 . S
C890 C893 1.499 . S
C891 H865 0.950 . S
C891 C890 1.414 . S
C891 C892 1.374 . S
C892 H866 0.950 . S
C892 C888 1.385 . S
C892 C891 1.374 . S
C893 C890 1.499 . S
C893 C894 1.373 . S
C893 C895 1.389 . S
C894 H867 0.950 . S
C894 C880 1.377 . S
C894 C893 1.373 . S
C895 C879 1.377 . S
C895 C893 1.389 . S
C895 C896 1.524 . S
C896 C895 1.524 . S
C896 C897 1.397 . S
C896 C901 1.363 . S
C897 H868 0.950 . S
C897 C896 1.397 . S
C897 C898 1.334 . S
C898 H869 0.950 . S
C898 C897 1.334 . S
C898 C899 1.287 . S
C899 C898 1.287 . S
C899 C900 1.524 . S
C899 H902 0.999 . S
C900 H870 0.950 . S
C900 C899 1.524 . S
C900 C901 1.415 . S
C901 H871 0.950 . S
C901 C896 1.363 . S
C901 C900 1.415 . S
H902 C899 0.999 . S
H903 C884 0.913 . S
H904 C922 0.951 . S
H905 C924 0.951 . S
H906 C926 0.950 . S
H907 C927 0.950 . S
H908 C929 0.950 . S
H909 C932 0.950 . S
H910 C933 0.950 . S
H911 C935 0.950 . S
H912 C936 0.950 . S
H913 C937 0.951 . S
H914 C939 0.951 . S
H915 C941 0.950 . S
H916 C942 0.950 . S
H917 C944 0.950 . S
H918 C947 0.950 . S
H919 C948 0.950 . S
H920 C950 0.950 . S
H921 C951 0.950 . S
C922 H904 0.951 . S
C922 C923 1.366 . S
C922 C924 1.388 . S
C923 C922 1.366 . S
C923 C927 1.385 . S
C924 H905 0.951 . S
C924 C922 1.388 . S
C924 C925 1.366 . S
C925 C924 1.366 . S
C925 C926 1.414 . S
C925 C928 1.499 . S
C926 H906 0.950 . S
C926 C925 1.414 . S
C926 C927 1.374 . S
C927 H907 0.950 . S
C927 C923 1.385 . S
C927 C926 1.374 . S
C928 C925 1.499 . S
C928 C929 1.373 . S
C928 C930 1.389 . S
C929 H908 0.950 . S
C929 C928 1.373 . S
C929 C945 1.377 . S
C930 C928 1.389 . S
C930 C931 1.524 . S
C930 C944 1.377 . S
C931 C930 1.524 . S
C931 C932 1.397 . S
C931 C936 1.363 . S
C932 H909 0.950 . S
C932 C931 1.397 . S
C932 C933 1.334 . S
C933 H910 0.950 . S
C933 C932 1.334 . S
C933 C934 1.287 . S
C934 C933 1.287 . S
C934 C935 1.524 . S
C934 H953 0.913 . S
C935 H911 0.950 . S
C935 C934 1.524 . S
C935 C936 1.415 . S
C936 H912 0.950 . S
C936 C931 1.363 . S
C936 C935 1.415 . S
C937 H913 0.951 . S
C937 C938 1.366 . S
C937 C939 1.388 . S
C938 C937 1.366 . S
C938 C942 1.385 . S
C939 H914 0.951 . S
C939 C937 1.388 . S
C939 C940 1.366 . S
C940 C939 1.366 . S
C940 C941 1.414 . S
C940 C943 1.499 . S
C941 H915 0.950 . S
C941 C940 1.414 . S
C941 C942 1.374 . S
C942 H916 0.950 . S
C942 C938 1.385 . S
C942 C941 1.374 . S
C943 C940 1.499 . S
C943 C944 1.373 . S
C943 C945 1.389 . S
C944 H917 0.950 . S
C944 C930 1.377 . S
C944 C943 1.373 . S
C945 C929 1.377 . S
C945 C943 1.389 . S
C945 C946 1.524 . S
C946 C945 1.524 . S
C946 C947 1.397 . S
C946 C951 1.363 . S
C947 H918 0.950 . S
C947 C946 1.397 . S
C947 C948 1.334 . S
C948 H919 0.950 . S
C948 C947 1.334 . S
C948 C949 1.287 . S
C949 C948 1.287 . S
C949 C950 1.524 . S
C949 H952 0.999 . S
C950 H920 0.950 . S
C950 C949 1.524 . S
C950 C951 1.415 . S
C951 H921 0.950 . S
C951 C946 1.363 . S
C951 C950 1.415 . S
H952 C949 0.999 . S
H953 C934 0.913 . S
H954 C972 0.951 . S
H955 C974 0.951 . S
H956 C976 0.950 . S
H957 C977 0.950 . S
H958 C979 0.950 . S
H959 C982 0.950 . S
H960 C983 0.950 . S
H961 C985 0.950 . S
H962 C986 0.950 . S
H963 C987 0.951 . S
H964 C989 0.951 . S
H965 C991 0.950 . S
H966 C992 0.950 . S
H967 C994 0.950 . S
H968 C997 0.950 . S
H969 C998 0.950 . S
H970 C1000 0.950 . S
H971 C1001 0.950 . S
C972 H954 0.951 . S
C972 C973 1.366 . S
C972 C974 1.388 . S
C973 C972 1.366 . S
C973 C977 1.385 . S
C974 H955 0.951 . S
C974 C972 1.388 . S
C974 C975 1.366 . S
C975 C974 1.366 . S
C975 C976 1.414 . S
C975 C978 1.499 . S
C976 H956 0.950 . S
C976 C975 1.414 . S
C976 C977 1.374 . S
C977 H957 0.950 . S
C977 C973 1.385 . S
C977 C976 1.374 . S
C978 C975 1.499 . S
C978 C979 1.373 . S
C978 C980 1.389 . S
C979 H958 0.950 . S
C979 C978 1.373 . S
C979 C995 1.377 . S
C980 C978 1.389 . S
C980 C981 1.524 . S
C980 C994 1.377 . S
C981 C980 1.524 . S
C981 C982 1.397 . S
C981 C986 1.363 . S
C982 H959 0.950 . S
C982 C981 1.397 . S
C982 C983 1.334 1_554 S
C983 H960 0.950 . S
C983 C982 1.334 1_556 S
C983 C984 1.287 . S
C984 C983 1.287 . S
C984 C985 1.524 1_556 S
C984 H1003 0.913 . S
C985 H961 0.950 . S
C985 C984 1.524 1_554 S
C985 C986 1.415 . S
C986 H962 0.950 . S
C986 C981 1.363 . S
C986 C985 1.415 . S
C987 H963 0.951 . S
C987 C988 1.366 . S
C987 C989 1.388 . S
C988 C987 1.366 . S
C988 C992 1.385 . S
C989 H964 0.951 . S
C989 C987 1.388 . S
C989 C990 1.366 . S
C990 C989 1.366 . S
C990 C991 1.414 . S
C990 C993 1.499 . S
C991 H965 0.950 . S
C991 C990 1.414 . S
C991 C992 1.374 . S
C992 H966 0.950 . S
C992 C988 1.385 . S
C992 C991 1.374 . S
C993 C990 1.499 . S
C993 C994 1.373 . S
C993 C995 1.389 . S
C994 H967 0.950 . S
C994 C980 1.377 . S
C994 C993 1.373 . S
C995 C979 1.377 . S
C995 C993 1.389 . S
C995 C996 1.524 . S
C996 C995 1.524 . S
C996 C997 1.397 . S
C996 C1001 1.363 . S
C997 H968 0.950 . S
C997 C996 1.397 . S
C997 C998 1.334 . S
C998 H969 0.950 . S
C998 C997 1.334 . S
C998 C999 1.287 . S
C999 C998 1.287 . S
C999 C1000 1.524 . S
C999 H1002 0.999 . S
C1000 H970 0.950 . S
C1000 C999 1.524 . S
C1000 C1001 1.415 . S
C1001 H971 0.950 . S
C1001 C996 1.363 . S
C1001 C1000 1.415 . S
H1002 C999 0.999 . S
H1003 C984 0.913 . S
H1004 C1022 0.951 . S
H1005 C1024 0.951 . S
H1006 C1026 0.950 . S
H1007 C1027 0.950 . S
H1008 C1029 0.950 . S
H1009 C1032 0.950 . S
H1010 C1033 0.950 . S
H1011 C1035 0.950 . S
H1012 C1036 0.950 . S
H1013 C1037 0.951 . S
H1014 C1039 0.951 . S
H1015 C1041 0.950 . S
H1016 C1042 0.950 . S
H1017 C1044 0.950 . S
H1018 C1047 0.950 . S
H1019 C1048 0.950 . S
H1020 C1050 0.950 . S
H1021 C1051 0.950 . S
C1022 H1004 0.951 . S
C1022 C1023 1.366 . S
C1022 C1024 1.388 . S
C1023 C1022 1.366 . S
C1023 C1027 1.385 . S
C1024 H1005 0.951 . S
C1024 C1022 1.388 . S
C1024 C1025 1.366 . S
C1025 C1024 1.366 . S
C1025 C1026 1.414 . S
C1025 C1028 1.499 . S
C1026 H1006 0.950 . S
C1026 C1025 1.414 . S
C1026 C1027 1.374 . S
C1027 H1007 0.950 . S
C1027 C1023 1.385 . S
C1027 C1026 1.374 . S
C1028 C1025 1.499 . S
C1028 C1029 1.373 . S
C1028 C1030 1.389 . S
C1029 H1008 0.950 . S
C1029 C1028 1.373 . S
C1029 C1045 1.377 . S
C1030 C1028 1.389 . S
C1030 C1031 1.524 . S
C1030 C1044 1.377 . S
C1031 C1030 1.524 . S
C1031 C1032 1.397 . S
C1031 C1036 1.363 . S
C1032 H1009 0.950 . S
C1032 C1031 1.397 . S
C1032 C1033 1.334 . S
C1033 H1010 0.950 . S
C1033 C1032 1.334 . S
C1033 C1034 1.287 . S
C1034 C1033 1.287 . S
C1034 C1035 1.524 . S
C1034 H1053 0.913 . S
C1035 H1011 0.950 . S
C1035 C1034 1.524 . S
C1035 C1036 1.415 . S
C1036 H1012 0.950 . S
C1036 C1031 1.363 . S
C1036 C1035 1.415 . S
C1037 H1013 0.951 . S
C1037 C1038 1.366 . S
C1037 C1039 1.388 . S
C1038 C1037 1.366 . S
C1038 C1042 1.385 . S
C1039 H1014 0.951 . S
C1039 C1037 1.388 . S
C1039 C1040 1.366 . S
C1040 C1039 1.366 . S
C1040 C1041 1.414 . S
C1040 C1043 1.499 . S
C1041 H1015 0.950 . S
C1041 C1040 1.414 . S
C1041 C1042 1.374 . S
C1042 H1016 0.950 . S
C1042 C1038 1.385 . S
C1042 C1041 1.374 . S
C1043 C1040 1.499 . S
C1043 C1044 1.373 . S
C1043 C1045 1.389 . S
C1044 H1017 0.950 . S
C1044 C1030 1.377 . S
C1044 C1043 1.373 . S
C1045 C1029 1.377 . S
C1045 C1043 1.389 . S
C1045 C1046 1.524 . S
C1046 C1045 1.524 . S
C1046 C1047 1.397 . S
C1046 C1051 1.363 1_554 S
C1047 H1018 0.950 . S
C1047 C1046 1.397 . S
C1047 C1048 1.334 1_554 S
C1048 H1019 0.950 . S
C1048 C1047 1.334 1_556 S
C1048 C1049 1.287 . S
C1049 C1048 1.287 . S
C1049 C1050 1.524 . S
C1049 H1052 0.999 . S
C1050 H1020 0.950 . S
C1050 C1049 1.524 . S
C1050 C1051 1.415 . S
C1051 H1021 0.950 . S
C1051 C1046 1.363 1_556 S
C1051 C1050 1.415 . S
H1052 C1049 0.999 . S
H1053 C1034 0.913 . S
H1054 C1072 0.951 . S
H1055 C1074 0.951 . S
H1056 C1076 0.950 . S
H1057 C1077 0.950 . S
H1058 C1079 0.950 . S
H1059 C1082 0.950 . S
H1060 C1083 0.950 . S
H1061 C1085 0.950 . S
H1062 C1086 0.950 . S
H1063 C1087 0.951 1_556 S
H1064 C1089 0.951 . S
H1065 C1091 0.950 . S
H1066 C1092 0.950 . S
H1067 C1094 0.950 . S
H1068 C1097 0.950 1_554 S
H1069 C1098 0.950 . S
H1070 C1100 0.950 . S
H1071 C1101 0.950 . S
C1072 H1054 0.951 . S
C1072 C1073 1.366 . S
C1072 C1074 1.388 . S
C1073 C1072 1.366 . S
C1073 C1077 1.385 . S
C1074 H1055 0.951 . S
C1074 C1072 1.388 . S
C1074 C1075 1.366 . S
C1075 C1074 1.366 . S
C1075 C1076 1.414 . S
C1075 C1078 1.499 . S
C1076 H1056 0.950 . S
C1076 C1075 1.414 . S
C1076 C1077 1.374 . S
C1077 H1057 0.950 . S
C1077 C1073 1.385 . S
C1077 C1076 1.374 . S
C1078 C1075 1.499 . S
C1078 C1079 1.373 . S
C1078 C1080 1.389 . S
C1079 H1058 0.950 . S
C1079 C1078 1.373 . S
C1079 C1095 1.377 . S
C1080 C1078 1.389 . S
C1080 C1081 1.524 . S
C1080 C1094 1.377 . S
C1081 C1080 1.524 . S
C1081 C1082 1.397 . S
C1081 C1086 1.363 . S
C1082 H1059 0.950 . S
C1082 C1081 1.397 . S
C1082 C1083 1.334 . S
C1083 H1060 0.950 . S
C1083 C1082 1.334 . S
C1083 C1084 1.287 . S
C1084 C1083 1.287 . S
C1084 C1085 1.524 . S
C1084 H1103 0.913 . S
C1085 H1061 0.950 . S
C1085 C1084 1.524 . S
C1085 C1086 1.415 . S
C1086 H1062 0.950 . S
C1086 C1081 1.363 . S
C1086 C1085 1.415 . S
C1087 H1063 0.951 1_554 S
C1087 C1088 1.366 . S
C1087 C1089 1.388 . S
C1088 C1087 1.366 . S
C1088 C1092 1.385 . S
C1089 H1064 0.951 . S
C1089 C1087 1.388 . S
C1089 C1090 1.366 . S
C1090 C1089 1.366 . S
C1090 C1091 1.414 . S
C1090 C1093 1.499 . S
C1091 H1065 0.950 . S
C1091 C1090 1.414 . S
C1091 C1092 1.374 . S
C1092 H1066 0.950 . S
C1092 C1088 1.385 . S
C1092 C1091 1.374 . S
C1093 C1090 1.499 . S
C1093 C1094 1.373 . S
C1093 C1095 1.389 . S
C1094 H1067 0.950 . S
C1094 C1080 1.377 . S
C1094 C1093 1.373 . S
C1095 C1079 1.377 . S
C1095 C1093 1.389 . S
C1095 C1096 1.524 1_554 S
C1096 C1095 1.524 1_556 S
C1096 C1097 1.397 . S
C1096 C1101 1.363 . S
C1097 H1068 0.950 1_556 S
C1097 C1096 1.397 . S
C1097 C1098 1.334 . S
C1098 H1069 0.950 . S
C1098 C1097 1.334 . S
C1098 C1099 1.287 . S
C1099 C1098 1.287 . S
C1099 C1100 1.524 . S
C1099 H1102 0.999 . S
C1100 H1070 0.950 . S
C1100 C1099 1.524 . S
C1100 C1101 1.415 . S
C1101 H1071 0.950 . S
C1101 C1096 1.363 . S
C1101 C1100 1.415 . S
H1102 C1099 0.999 . S
H1103 C1084 0.913 . S
H1104 C1122 0.951 . S
H1105 C1124 0.951 . S
H1106 C1126 0.950 . S
H1107 C1127 0.950 . S
H1108 C1129 0.950 . S
H1109 C1132 0.950 . S
H1110 C1133 0.950 . S
H1111 C1135 0.950 . S
H1112 C1136 0.950 . S
H1113 C1137 0.951 . S
H1114 C1139 0.951 . S
H1115 C1141 0.950 . S
H1116 C1142 0.949 . S
H1117 C1144 0.950 . S
H1118 C1147 0.950 1_554 S
H1119 C1148 0.950 . S
H1120 C1150 0.950 . S
H1121 C1151 0.950 . S
C1122 H1104 0.951 . S
C1122 C1123 1.366 . S
C1122 C1124 1.388 . S
C1123 C1122 1.366 . S
C1123 C1127 1.385 . S
C1124 H1105 0.951 . S
C1124 C1122 1.388 . S
C1124 C1125 1.366 . S
C1125 C1124 1.366 . S
C1125 C1126 1.414 . S
C1125 C1128 1.499 . S
C1126 H1106 0.950 . S
C1126 C1125 1.414 . S
C1126 C1127 1.374 . S
C1127 H1107 0.950 . S
C1127 C1123 1.385 . S
C1127 C1126 1.374 . S
C1128 C1125 1.499 . S
C1128 C1129 1.373 . S
C1128 C1130 1.389 . S
C1129 H1108 0.950 . S
C1129 C1128 1.373 . S
C1129 C1145 1.377 . S
C1130 C1128 1.389 . S
C1130 C1131 1.524 . S
C1130 C1144 1.377 . S
C1131 C1130 1.524 . S
C1131 C1132 1.397 . S
C1131 C1136 1.363 . S
C1132 H1109 0.950 . S
C1132 C1131 1.397 . S
C1132 C1133 1.334 . S
C1133 H1110 0.950 . S
C1133 C1132 1.334 . S
C1133 C1134 1.287 . S
C1134 C1133 1.287 . S
C1134 C1135 1.524 . S
C1134 H1153 0.913 . S
C1135 H1111 0.950 . S
C1135 C1134 1.524 . S
C1135 C1136 1.415 . S
C1136 H1112 0.950 . S
C1136 C1131 1.363 . S
C1136 C1135 1.415 . S
C1137 H1113 0.951 . S
C1137 C1138 1.366 . S
C1137 C1139 1.388 . S
C1138 C1137 1.366 . S
C1138 C1142 1.385 . S
C1139 H1114 0.951 . S
C1139 C1137 1.388 . S
C1139 C1140 1.366 . S
C1140 C1139 1.366 . S
C1140 C1141 1.414 . S
C1140 C1143 1.499 . S
C1141 H1115 0.950 . S
C1141 C1140 1.414 . S
C1141 C1142 1.374 . S
C1142 H1116 0.949 . S
C1142 C1138 1.385 . S
C1142 C1141 1.374 . S
C1143 C1140 1.499 . S
C1143 C1144 1.373 . S
C1143 C1145 1.389 . S
C1144 H1117 0.950 . S
C1144 C1130 1.377 . S
C1144 C1143 1.373 . S
C1145 C1129 1.377 . S
C1145 C1143 1.389 . S
C1145 C1146 1.524 . S
C1146 C1145 1.524 . S
C1146 C1147 1.397 . S
C1146 C1151 1.363 . S
C1147 H1118 0.950 1_556 S
C1147 C1146 1.397 . S
C1147 C1148 1.334 1_556 S
C1148 H1119 0.950 . S
C1148 C1147 1.334 1_554 S
C1148 C1149 1.287 1_554 S
C1149 C1148 1.287 1_556 S
C1149 C1150 1.524 . S
C1149 H1152 0.999 1_556 S
C1150 H1120 0.950 . S
C1150 C1149 1.524 . S
C1150 C1151 1.415 . S
C1151 H1121 0.950 . S
C1151 C1146 1.363 . S
C1151 C1150 1.415 . S
H1152 C1149 0.999 1_554 S
H1153 C1134 0.913 . S
H1154 C1172 0.951 . S
H1155 C1174 0.951 . S
H1156 C1176 0.950 . S
H1157 C1177 0.950 . S
H1158 C1179 0.950 . S
H1159 C1182 0.950 . S
H1160 C1183 0.950 . S
H1161 C1185 0.950 . S
H1162 C1186 0.950 . S
H1163 C1187 0.947 1_554 S
H1164 C1189 0.951 . S
H1165 C1191 0.950 . S
H1166 C1192 0.950 . S
H1167 C1194 0.950 . S
H1168 C1197 0.967 . S
H1169 C1198 0.950 . S
H1170 C1200 0.950 . S
H1171 C1201 0.950 . S
C1172 H1154 0.951 . S
C1172 C1173 1.366 . S
C1172 C1174 1.388 . S
C1173 C1172 1.366 . S
C1173 C1177 1.385 . S
C1174 H1155 0.951 . S
C1174 C1172 1.388 . S
C1174 C1175 1.366 . S
C1175 C1174 1.366 . S
C1175 C1176 1.414 . S
C1175 C1178 1.499 . S
C1176 H1156 0.950 . S
C1176 C1175 1.414 . S
C1176 C1177 1.374 . S
C1177 H1157 0.950 . S
C1177 C1173 1.385 . S
C1177 C1176 1.374 . S
C1178 C1175 1.499 . S
C1178 C1179 1.373 . S
C1178 C1180 1.389 . S
C1179 H1158 0.950 . S
C1179 C1178 1.373 . S
C1179 C1195 1.377 . S
C1180 C1178 1.389 . S
C1180 C1181 1.524 . S
C1180 C1194 1.377 . S
C1181 C1180 1.524 . S
C1181 C1182 1.397 . S
C1181 C1186 1.363 . S
C1182 H1159 0.950 . S
C1182 C1181 1.397 . S
C1182 C1183 1.334 . S
C1183 H1160 0.950 . S
C1183 C1182 1.334 . S
C1183 C1184 1.287 . S
C1184 C1183 1.287 . S
C1184 C1185 1.524 . S
C1184 H1203 0.913 . S
C1185 H1161 0.950 . S
C1185 C1184 1.524 . S
C1185 C1186 1.415 . S
C1186 H1162 0.950 . S
C1186 C1181 1.363 . S
C1186 C1185 1.415 . S
C1187 H1163 0.947 1_556 S
C1187 C1188 1.366 . S
C1187 C1189 1.388 . S
C1188 C1187 1.366 . S
C1188 C1192 1.385 . S
C1189 H1164 0.951 . S
C1189 C1187 1.388 . S
C1189 C1190 1.366 . S
C1190 C1189 1.366 . S
C1190 C1191 1.414 . S
C1190 C1193 1.499 . S
C1191 H1165 0.950 . S
C1191 C1190 1.414 . S
C1191 C1192 1.374 . S
C1192 H1166 0.950 . S
C1192 C1188 1.385 . S
C1192 C1191 1.374 . S
C1193 C1190 1.499 . S
C1193 C1194 1.373 . S
C1193 C1195 1.389 . S
C1194 H1167 0.950 . S
C1194 C1180 1.377 . S
C1194 C1193 1.373 . S
C1195 C1179 1.377 . S
C1195 C1193 1.389 . S
C1195 C1196 1.524 1_556 S
C1196 C1195 1.524 1_554 S
C1196 C1197 1.397 . S
C1196 C1201 1.363 . S
C1197 H1168 0.967 . S
C1197 C1196 1.397 . S
C1197 C1198 1.334 . S
C1198 H1169 0.950 . S
C1198 C1197 1.334 . S
C1198 C1199 1.287 . S
C1199 C1198 1.287 . S
C1199 C1200 1.524 . S
C1199 H1202 0.999 . S
C1200 H1170 0.950 . S
C1200 C1199 1.524 . S
C1200 C1201 1.415 . S
C1201 H1171 0.950 . S
C1201 C1196 1.363 . S
C1201 C1200 1.415 . S
H1202 C1199 0.999 . S
H1203 C1184 0.913 . S
H1204 C1222 0.951 . S
H1205 C1224 0.951 . S
H1206 C1226 0.950 . S
H1207 C1227 0.950 . S
H1208 C1229 0.950 . S
H1209 C1232 0.950 . S
H1210 C1233 0.950 . S
H1211 C1235 0.950 . S
H1212 C1236 0.944 1_556 S
H1213 C1237 0.951 . S
H1214 C1239 0.951 . S
H1215 C1241 0.950 . S
H1216 C1242 0.950 . S
H1217 C1244 0.950 . S
H1218 C1247 0.950 . S
H1219 C1248 0.950 . S
H1220 C1250 0.950 . S
H1221 C1251 0.950 . S
C1222 H1204 0.951 . S
C1222 C1223 1.366 . S
C1222 C1224 1.388 . S
C1223 C1222 1.366 . S
C1223 C1227 1.385 . S
C1224 H1205 0.951 . S
C1224 C1222 1.388 . S
C1224 C1225 1.366 . S
C1225 C1224 1.366 . S
C1225 C1226 1.414 . S
C1225 C1228 1.499 . S
C1226 H1206 0.950 . S
C1226 C1225 1.414 . S
C1226 C1227 1.374 . S
C1227 H1207 0.950 . S
C1227 C1223 1.385 . S
C1227 C1226 1.374 . S
C1228 C1225 1.499 . S
C1228 C1229 1.373 . S
C1228 C1230 1.389 . S
C1229 H1208 0.950 . S
C1229 C1228 1.373 . S
C1229 C1245 1.377 . S
C1230 C1228 1.389 . S
C1230 C1231 1.524 . S
C1230 C1244 1.377 . S
C1231 C1230 1.524 . S
C1231 C1232 1.397 1_556 S
C1231 C1236 1.361 1_556 S
C1232 H1209 0.950 . S
C1232 C1231 1.397 1_554 S
C1232 C1233 1.334 . S
C1233 H1210 0.950 . S
C1233 C1232 1.334 . S
C1233 C1234 1.287 . S
C1234 C1233 1.287 . S
C1234 C1235 1.524 . S
C1234 H1253 0.913 . S
C1235 H1211 0.950 . S
C1235 C1234 1.524 . S
C1235 C1236 1.423 . S
C1236 H1212 0.944 1_554 S
C1236 C1231 1.361 1_554 S
C1236 C1235 1.423 . S
C1237 H1213 0.951 . S
C1237 C1238 1.366 . S
C1237 C1239 1.388 . S
C1238 C1237 1.366 . S
C1238 C1242 1.385 . S
C1239 H1214 0.951 . S
C1239 C1237 1.388 . S
C1239 C1240 1.366 . S
C1240 C1239 1.366 . S
C1240 C1241 1.414 . S
C1240 C1243 1.499 . S
C1241 H1215 0.950 . S
C1241 C1240 1.414 . S
C1241 C1242 1.374 . S
C1242 H1216 0.950 . S
C1242 C1238 1.385 . S
C1242 C1241 1.374 . S
C1243 C1240 1.499 . S
C1243 C1244 1.373 . S
C1243 C1245 1.389 . S
C1244 H1217 0.950 . S
C1244 C1230 1.377 . S
C1244 C1243 1.373 . S
C1245 C1229 1.377 . S
C1245 C1243 1.389 . S
C1245 C1246 1.524 . S
C1246 C1245 1.524 . S
C1246 C1247 1.397 . S
C1246 C1251 1.363 . S
C1247 H1218 0.950 . S
C1247 C1246 1.397 . S
C1247 C1248 1.334 . S
C1248 H1219 0.950 . S
C1248 C1247 1.334 . S
C1248 C1249 1.287 . S
C1249 C1248 1.287 . S
C1249 C1250 1.524 . S
C1249 H1252 0.999 . S
C1250 H1220 0.950 . S
C1250 C1249 1.524 . S
C1250 C1251 1.415 . S
C1251 H1221 0.950 . S
C1251 C1246 1.363 . S
C1251 C1250 1.415 . S
H1252 C1249 0.999 . S
H1253 C1234 0.913 . S
H1254 C1272 0.951 . S
H1255 C1274 0.951 . S
H1256 C1276 0.950 . S
H1257 C1277 0.950 . S
H1258 C1279 0.950 . S
H1259 C1282 0.950 . S
H1260 C1283 0.950 . S
H1261 C1285 0.950 . S
H1262 C1286 0.950 . S
H1263 C1287 0.951 . S
H1264 C1289 0.951 . S
H1265 C1291 0.950 . S
H1266 C1292 0.950 . S
H1267 C1294 0.950 . S
H1268 C1297 0.950 . S
H1269 C1298 0.950 . S
H1270 C1300 0.950 . S
H1271 C1301 0.950 . S
C1272 H1254 0.951 . S
C1272 C1273 1.366 . S
C1272 C1274 1.388 . S
C1273 C1272 1.366 . S
C1273 C1277 1.385 . S
C1274 H1255 0.951 . S
C1274 C1272 1.388 . S
C1274 C1275 1.366 . S
C1275 C1274 1.366 . S
C1275 C1276 1.414 . S
C1275 C1278 1.499 . S
C1276 H1256 0.950 . S
C1276 C1275 1.414 . S
C1276 C1277 1.374 . S
C1277 H1257 0.950 . S
C1277 C1273 1.385 . S
C1277 C1276 1.374 . S
C1278 C1275 1.499 . S
C1278 C1279 1.373 . S
C1278 C1280 1.389 . S
C1279 H1258 0.950 . S
C1279 C1278 1.373 . S
C1279 C1295 1.377 . S
C1280 C1278 1.389 . S
C1280 C1281 1.524 . S
C1280 C1294 1.377 . S
C1281 C1280 1.524 . S
C1281 C1282 1.397 . S
C1281 C1286 1.363 . S
C1282 H1259 0.950 . S
C1282 C1281 1.397 . S
C1282 C1283 1.334 . S
C1283 H1260 0.950 . S
C1283 C1282 1.334 . S
C1283 C1284 1.287 . S
C1284 C1283 1.287 . S
C1284 C1285 1.524 . S
C1284 H1303 0.913 . S
C1285 H1261 0.950 . S
C1285 C1284 1.524 . S
C1285 C1286 1.415 . S
C1286 H1262 0.950 . S
C1286 C1281 1.363 . S
C1286 C1285 1.415 . S
C1287 H1263 0.951 . S
C1287 C1288 1.366 . S
C1287 C1289 1.388 . S
C1288 C1287 1.366 . S
C1288 C1292 1.385 . S
C1289 H1264 0.951 . S
C1289 C1287 1.388 . S
C1289 C1290 1.366 . S
C1290 C1289 1.366 . S
C1290 C1291 1.414 . S
C1290 C1293 1.499 . S
C1291 H1265 0.950 . S
C1291 C1290 1.414 . S
C1291 C1292 1.374 . S
C1292 H1266 0.950 . S
C1292 C1288 1.385 . S
C1292 C1291 1.374 . S
C1293 C1290 1.499 . S
C1293 C1294 1.373 . S
C1293 C1295 1.389 . S
C1294 H1267 0.950 . S
C1294 C1280 1.377 . S
C1294 C1293 1.373 . S
C1295 C1279 1.377 . S
C1295 C1293 1.389 . S
C1295 C1296 1.524 . S
C1296 C1295 1.524 . S
C1296 C1297 1.397 . S
C1296 C1301 1.363 . S
C1297 H1268 0.950 . S
C1297 C1296 1.397 . S
C1297 C1298 1.334 . S
C1298 H1269 0.950 . S
C1298 C1297 1.334 . S
C1298 C1299 1.287 . S
C1299 C1298 1.287 . S
C1299 C1300 1.524 . S
C1299 H1302 0.999 . S
C1300 H1270 0.950 . S
C1300 C1299 1.524 . S
C1300 C1301 1.415 . S
C1301 H1271 0.950 . S
C1301 C1296 1.363 . S
C1301 C1300 1.415 . S
H1302 C1299 0.999 . S
H1303 C1284 0.913 . S
H1304 C1322 0.951 . S
H1305 C1324 0.951 . S
H1306 C1326 0.950 . S
H1307 C1327 0.950 . S
H1308 C1329 0.950 . S
H1309 C1332 0.950 . S
H1310 C1333 0.950 . S
H1311 C1335 0.950 . S
H1312 C1336 0.950 . S
H1313 C1337 0.951 . S
H1314 C1339 0.951 . S
H1315 C1341 0.950 . S
H1316 C1342 0.950 . S
H1317 C1344 0.950 . S
H1318 C1347 0.950 . S
H1319 C1348 0.950 . S
H1320 C1350 0.950 . S
H1321 C1351 0.950 . S
C1322 H1304 0.951 . S
C1322 C1323 1.366 . S
C1322 C1324 1.388 . S
C1323 C1322 1.366 . S
C1323 C1327 1.385 . S
C1324 H1305 0.951 . S
C1324 C1322 1.388 . S
C1324 C1325 1.366 . S
C1325 C1324 1.366 . S
C1325 C1326 1.414 . S
C1325 C1328 1.499 . S
C1326 H1306 0.950 . S
C1326 C1325 1.414 . S
C1326 C1327 1.374 . S
C1327 H1307 0.950 . S
C1327 C1323 1.385 . S
C1327 C1326 1.374 . S
C1328 C1325 1.499 . S
C1328 C1329 1.373 . S
C1328 C1330 1.389 . S
C1329 H1308 0.950 . S
C1329 C1328 1.373 . S
C1329 C1345 1.377 . S
C1330 C1328 1.389 . S
C1330 C1331 1.524 . S
C1330 C1344 1.377 . S
C1331 C1330 1.524 . S
C1331 C1332 1.397 . S
C1331 C1336 1.363 . S
C1332 H1309 0.950 . S
C1332 C1331 1.397 . S
C1332 C1333 1.334 . S
C1333 H1310 0.950 . S
C1333 C1332 1.334 . S
C1333 C1334 1.287 . S
C1334 C1333 1.287 . S
C1334 C1335 1.524 . S
C1334 H1353 0.913 . S
C1335 H1311 0.950 . S
C1335 C1334 1.524 . S
C1335 C1336 1.415 . S
C1336 H1312 0.950 . S
C1336 C1331 1.363 . S
C1336 C1335 1.415 . S
C1337 H1313 0.951 . S
C1337 C1338 1.366 . S
C1337 C1339 1.388 . S
C1338 C1337 1.366 . S
C1338 C1342 1.385 . S
C1339 H1314 0.951 . S
C1339 C1337 1.388 . S
C1339 C1340 1.366 . S
C1340 C1339 1.366 . S
C1340 C1341 1.414 . S
C1340 C1343 1.499 . S
C1341 H1315 0.950 . S
C1341 C1340 1.414 . S
C1341 C1342 1.374 . S
C1342 H1316 0.950 . S
C1342 C1338 1.385 . S
C1342 C1341 1.374 . S
C1343 C1340 1.499 . S
C1343 C1344 1.373 . S
C1343 C1345 1.389 . S
C1344 H1317 0.950 . S
C1344 C1330 1.377 . S
C1344 C1343 1.373 . S
C1345 C1329 1.377 . S
C1345 C1343 1.389 . S
C1345 C1346 1.524 . S
C1346 C1345 1.524 . S
C1346 C1347 1.397 . S
C1346 C1351 1.363 . S
C1347 H1318 0.950 . S
C1347 C1346 1.397 . S
C1347 C1348 1.334 . S
C1348 H1319 0.950 . S
C1348 C1347 1.334 . S
C1348 C1349 1.287 . S
C1349 C1348 1.287 . S
C1349 C1350 1.524 . S
C1349 H1352 0.999 . S
C1350 H1320 0.950 . S
C1350 C1349 1.524 . S
C1350 C1351 1.415 . S
C1351 H1321 0.950 . S
C1351 C1346 1.363 . S
C1351 C1350 1.415 . S
H1352 C1349 0.999 . S
H1353 C1334 0.913 . S
H1354 C1372 0.951 . S
H1355 C1374 0.951 . S
H1356 C1376 0.950 . S
H1357 C1377 0.950 . S
H1358 C1379 0.950 . S
H1359 C1382 0.950 . S
H1360 C1383 0.950 . S
H1361 C1385 0.950 . S
H1362 C1386 0.950 . S
H1363 C1387 0.951 . S
H1364 C1389 0.951 . S
H1365 C1391 0.950 . S
H1366 C1392 0.950 . S
H1367 C1394 0.950 . S
H1368 C1397 0.950 . S
H1369 C1398 0.950 . S
H1370 C1400 0.950 . S
H1371 C1401 0.950 . S
C1372 H1354 0.951 . S
C1372 C1373 1.366 . S
C1372 C1374 1.388 . S
C1373 C1372 1.366 . S
C1373 C1377 1.385 . S
C1374 H1355 0.951 . S
C1374 C1372 1.388 . S
C1374 C1375 1.366 . S
C1375 C1374 1.366 . S
C1375 C1376 1.414 . S
C1375 C1378 1.499 . S
C1376 H1356 0.950 . S
C1376 C1375 1.414 . S
C1376 C1377 1.374 . S
C1377 H1357 0.950 . S
C1377 C1373 1.385 . S
C1377 C1376 1.374 . S
C1378 C1375 1.499 . S
C1378 C1379 1.373 . S
C1378 C1380 1.389 . S
C1379 H1358 0.950 . S
C1379 C1378 1.373 . S
C1379 C1395 1.377 . S
C1380 C1378 1.389 . S
C1380 C1381 1.524 . S
C1380 C1394 1.377 . S
C1381 C1380 1.524 . S
C1381 C1382 1.397 . S
C1381 C1386 1.363 . S
C1382 H1359 0.950 . S
C1382 C1381 1.397 . S
C1382 C1383 1.334 . S
C1383 H1360 0.950 . S
C1383 C1382 1.334 . S
C1383 C1384 1.287 . S
C1384 C1383 1.287 . S
C1384 C1385 1.524 . S
C1384 H1403 0.913 . S
C1385 H1361 0.950 . S
C1385 C1384 1.524 . S
C1385 C1386 1.415 . S
C1386 H1362 0.950 . S
C1386 C1381 1.363 . S
C1386 C1385 1.415 . S
C1387 H1363 0.951 . S
C1387 C1388 1.366 . S
C1387 C1389 1.388 . S
C1388 C1387 1.366 . S
C1388 C1392 1.385 . S
C1389 H1364 0.951 . S
C1389 C1387 1.388 . S
C1389 C1390 1.366 . S
C1390 C1389 1.366 . S
C1390 C1391 1.414 . S
C1390 C1393 1.499 . S
C1391 H1365 0.950 . S
C1391 C1390 1.414 . S
C1391 C1392 1.374 . S
C1392 H1366 0.950 . S
C1392 C1388 1.385 . S
C1392 C1391 1.374 . S
C1393 C1390 1.499 . S
C1393 C1394 1.373 . S
C1393 C1395 1.389 . S
C1394 H1367 0.950 . S
C1394 C1380 1.377 . S
C1394 C1393 1.373 . S
C1395 C1379 1.377 . S
C1395 C1393 1.389 . S
C1395 C1396 1.524 . S
C1396 C1395 1.524 . S
C1396 C1397 1.397 . S
C1396 C1401 1.363 . S
C1397 H1368 0.950 . S
C1397 C1396 1.397 . S
C1397 C1398 1.334 . S
C1398 H1369 0.950 . S
C1398 C1397 1.334 . S
C1398 C1399 1.287 . S
C1399 C1398 1.287 . S
C1399 C1400 1.524 . S
C1399 H1402 0.999 . S
C1400 H1370 0.950 . S
C1400 C1399 1.524 . S
C1400 C1401 1.415 . S
C1401 H1371 0.950 . S
C1401 C1396 1.363 . S
C1401 C1400 1.415 . S
H1402 C1399 0.999 . S
H1403 C1384 0.913 . S
H1404 C1422 0.951 . S
H1405 C1424 0.951 . S
H1406 C1426 0.950 . S
H1407 C1427 0.950 . S
H1408 C1429 0.950 . S
H1409 C1432 0.950 . S
H1410 C1433 0.950 . S
H1411 C1435 0.950 . S
H1412 C1436 0.950 . S
H1413 C1437 0.951 . S
H1414 C1439 0.951 . S
H1415 C1441 0.950 . S
H1416 C1442 0.950 . S
H1417 C1444 0.950 . S
H1418 C1447 0.950 . S
H1419 C1448 0.950 . S
H1420 C1450 0.950 . S
H1421 C1451 0.950 1_556 S
C1422 H1404 0.951 . S
C1422 C1423 1.366 . S
C1422 C1424 1.388 . S
C1423 C1422 1.366 . S
C1423 C1427 1.385 . S
C1424 H1405 0.951 . S
C1424 C1422 1.388 . S
C1424 C1425 1.366 . S
C1425 C1424 1.366 . S
C1425 C1426 1.414 . S
C1425 C1428 1.499 . S
C1426 H1406 0.950 . S
C1426 C1425 1.414 . S
C1426 C1427 1.374 . S
C1427 H1407 0.950 . S
C1427 C1423 1.385 . S
C1427 C1426 1.374 . S
C1428 C1425 1.499 . S
C1428 C1429 1.373 . S
C1428 C1430 1.389 . S
C1429 H1408 0.950 . S
C1429 C1428 1.373 . S
C1429 C1445 1.377 . S
C1430 C1428 1.389 . S
C1430 C1431 1.524 . S
C1430 C1444 1.377 . S
C1431 C1430 1.524 . S
C1431 C1432 1.397 . S
C1431 C1436 1.363 . S
C1432 H1409 0.950 . S
C1432 C1431 1.397 . S
C1432 C1433 1.334 . S
C1433 H1410 0.950 . S
C1433 C1432 1.334 . S
C1433 C1434 1.287 . S
C1434 C1433 1.287 . S
C1434 C1435 1.524 . S
C1434 H1453 0.913 . S
C1435 H1411 0.950 . S
C1435 C1434 1.524 . S
C1435 C1436 1.415 . S
C1436 H1412 0.950 . S
C1436 C1431 1.363 . S
C1436 C1435 1.415 . S
C1437 H1413 0.951 . S
C1437 C1438 1.366 . S
C1437 C1439 1.388 . S
C1438 C1437 1.366 . S
C1438 C1442 1.385 . S
C1439 H1414 0.951 . S
C1439 C1437 1.388 . S
C1439 C1440 1.366 1_554 S
C1440 C1439 1.366 1_556 S
C1440 C1441 1.414 . S
C1440 C1443 1.499 . S
C1441 H1415 0.950 . S
C1441 C1440 1.414 . S
C1441 C1442 1.374 1_556 S
C1442 H1416 0.950 . S
C1442 C1438 1.385 . S
C1442 C1441 1.374 1_554 S
C1443 C1440 1.499 . S
C1443 C1444 1.373 . S
C1443 C1445 1.389 . S
C1444 H1417 0.950 . S
C1444 C1430 1.377 . S
C1444 C1443 1.373 . S
C1445 C1429 1.377 . S
C1445 C1443 1.389 . S
C1445 C1446 1.524 . S
C1446 C1445 1.524 . S
C1446 C1447 1.397 1_556 S
C1446 C1451 1.363 1_556 S
C1447 H1418 0.950 . S
C1447 C1446 1.397 1_554 S
C1447 C1448 1.334 . S
C1448 H1419 0.950 . S
C1448 C1447 1.334 . S
C1448 C1449 1.287 . S
C1449 C1448 1.287 . S
C1449 C1450 1.524 . S
C1449 H1452 0.999 . S
C1450 H1420 0.950 . S
C1450 C1449 1.524 . S
C1450 C1451 1.415 . S
C1451 H1421 0.950 1_554 S
C1451 C1446 1.363 1_554 S
C1451 C1450 1.415 . S
H1452 C1449 0.999 . S
H1453 C1434 0.913 . S
H1454 C1472 0.951 . S
H1455 C1474 0.951 . S
H1456 C1476 0.950 . S
H1457 C1477 0.950 . S
H1458 C1479 0.950 . S
H1459 C1482 0.950 . S
H1460 C1483 0.950 . S
H1461 C1485 0.950 . S
H1462 C1486 0.950 . S
H1463 C1487 0.951 . S
H1464 C1489 0.951 . S
H1465 C1491 0.950 . S
H1466 C1492 0.950 . S
H1467 C1494 0.950 . S
H1468 C1497 0.950 . S
H1469 C1498 0.950 . S
H1470 C1500 0.950 . S
H1471 C1501 0.950 . S
C1472 H1454 0.951 . S
C1472 C1473 1.366 . S
C1472 C1474 1.388 . S
C1473 C1472 1.366 . S
C1473 C1477 1.385 . S
C1474 H1455 0.951 . S
C1474 C1472 1.388 . S
C1474 C1475 1.366 1_554 S
C1475 C1474 1.366 1_556 S
C1475 C1476 1.414 . S
C1475 C1478 1.499 . S
C1476 H1456 0.950 . S
C1476 C1475 1.414 . S
C1476 C1477 1.374 1_556 S
C1477 H1457 0.950 . S
C1477 C1473 1.385 . S
C1477 C1476 1.374 1_554 S
C1478 C1475 1.499 . S
C1478 C1479 1.373 . S
C1478 C1480 1.389 . S
C1479 H1458 0.950 . S
C1479 C1478 1.373 . S
C1479 C1495 1.377 . S
C1480 C1478 1.389 . S
C1480 C1481 1.524 . S
C1480 C1494 1.377 . S
C1481 C1480 1.524 . S
C1481 C1482 1.397 . S
C1481 C1486 1.363 . S
C1482 H1459 0.950 . S
C1482 C1481 1.397 . S
C1482 C1483 1.334 1_556 S
C1483 H1460 0.950 . S
C1483 C1482 1.334 1_554 S
C1483 C1484 1.287 . S
C1484 C1483 1.287 . S
C1484 C1485 1.524 . S
C1484 H1503 0.913 . S
C1485 H1461 0.950 . S
C1485 C1484 1.524 . S
C1485 C1486 1.415 1_554 S
C1486 H1462 0.950 . S
C1486 C1481 1.363 . S
C1486 C1485 1.415 1_556 S
C1487 H1463 0.951 . S
C1487 C1488 1.366 . S
C1487 C1489 1.388 . S
C1488 C1487 1.366 . S
C1488 C1492 1.385 . S
C1489 H1464 0.951 . S
C1489 C1487 1.388 . S
C1489 C1490 1.366 . S
C1490 C1489 1.366 . S
C1490 C1491 1.414 . S
C1490 C1493 1.499 . S
C1491 H1465 0.950 . S
C1491 C1490 1.414 . S
C1491 C1492 1.374 . S
C1492 H1466 0.950 . S
C1492 C1488 1.385 . S
C1492 C1491 1.374 . S
C1493 C1490 1.499 . S
C1493 C1494 1.373 . S
C1493 C1495 1.389 . S
C1494 H1467 0.950 . S
C1494 C1480 1.377 . S
C1494 C1493 1.373 . S
C1495 C1479 1.377 . S
C1495 C1493 1.389 . S
C1495 C1496 1.524 . S
C1496 C1495 1.524 . S
C1496 C1497 1.397 . S
C1496 C1501 1.363 . S
C1497 H1468 0.950 . S
C1497 C1496 1.397 . S
C1497 C1498 1.334 . S
C1498 H1469 0.950 . S
C1498 C1497 1.334 . S
C1498 C1499 1.287 . S
C1499 C1498 1.287 . S
C1499 C1500 1.524 . S
C1499 H1502 0.999 . S
C1500 H1470 0.950 . S
C1500 C1499 1.524 . S
C1500 C1501 1.415 . S
C1501 H1471 0.950 . S
C1501 C1496 1.363 . S
C1501 C1500 1.415 . S
H1502 C1499 0.999 . S
H1503 C1484 0.913 . S
H1504 C1522 0.951 . S
H1505 C1524 0.951 . S
H1506 C1526 0.950 . S
H1507 C1527 0.950 . S
H1508 C1529 0.950 . S
H1509 C1532 0.950 1_554 S
H1510 C1533 0.950 . S
H1511 C1535 0.950 . S
H1512 C1536 0.950 . S
H1513 C1537 0.951 . S
H1514 C1539 0.951 . S
H1515 C1541 0.950 . S
H1516 C1542 0.950 . S
H1517 C1544 0.950 . S
H1518 C1547 0.950 . S
H1519 C1548 0.950 . S
H1520 C1550 0.950 . S
H1521 C1551 0.950 . S
C1522 H1504 0.951 . S
C1522 C1523 1.366 . S
C1522 C1524 1.388 1_554 S
C1523 C1522 1.366 . S
C1523 C1527 1.385 . S
C1524 H1505 0.951 . S
C1524 C1522 1.388 1_556 S
C1524 C1525 1.366 . S
C1525 C1524 1.366 . S
C1525 C1526 1.414 1_556 S
C1525 C1528 1.499 . S
C1526 H1506 0.950 . S
C1526 C1525 1.414 1_554 S
C1526 C1527 1.374 . S
C1527 H1507 0.950 . S
C1527 C1523 1.385 . S
C1527 C1526 1.374 . S
C1528 C1525 1.499 . S
C1528 C1529 1.373 . S
C1528 C1530 1.389 . S
C1529 H1508 0.950 . S
C1529 C1528 1.373 . S
C1529 C1545 1.377 . S
C1530 C1528 1.389 . S
C1530 C1531 1.524 . S
C1530 C1544 1.377 . S
C1531 C1530 1.524 . S
C1531 C1532 1.397 . S
C1531 C1536 1.363 . S
C1532 H1509 0.950 1_556 S
C1532 C1531 1.397 . S
C1532 C1533 1.334 1_556 S
C1533 H1510 0.950 . S
C1533 C1532 1.334 1_554 S
C1533 C1534 1.287 1_554 S
C1534 C1533 1.287 1_556 S
C1534 C1535 1.524 . S
C1534 H1553 0.913 1_556 S
C1535 H1511 0.950 . S
C1535 C1534 1.524 . S
C1535 C1536 1.415 . S
C1536 H1512 0.950 . S
C1536 C1531 1.363 . S
C1536 C1535 1.415 . S
C1537 H1513 0.951 . S
C1537 C1538 1.366 . S
C1537 C1539 1.388 . S
C1538 C1537 1.366 . S
C1538 C1542 1.385 . S
C1539 H1514 0.951 . S
C1539 C1537 1.388 . S
C1539 C1540 1.366 . S
C1540 C1539 1.366 . S
C1540 C1541 1.414 . S
C1540 C1543 1.499 . S
C1541 H1515 0.950 . S
C1541 C1540 1.414 . S
C1541 C1542 1.374 . S
C1542 H1516 0.950 . S
C1542 C1538 1.385 . S
C1542 C1541 1.374 . S
C1543 C1540 1.499 . S
C1543 C1544 1.373 . S
C1543 C1545 1.389 . S
C1544 H1517 0.950 . S
C1544 C1530 1.377 . S
C1544 C1543 1.373 . S
C1545 C1529 1.377 . S
C1545 C1543 1.389 . S
C1545 C1546 1.524 . S
C1546 C1545 1.524 . S
C1546 C1547 1.397 . S
C1546 C1551 1.363 . S
C1547 H1518 0.950 . S
C1547 C1546 1.397 . S
C1547 C1548 1.334 . S
C1548 H1519 0.950 . S
C1548 C1547 1.334 . S
C1548 C1549 1.287 . S
C1549 C1548 1.287 . S
C1549 C1550 1.524 . S
C1549 H1552 0.999 . S
C1550 H1520 0.950 . S
C1550 C1549 1.524 . S
C1550 C1551 1.415 . S
C1551 H1521 0.950 . S
C1551 C1546 1.363 . S
C1551 C1550 1.415 . S
H1552 C1549 0.999 . S
H1553 C1534 0.913 1_554 S
H1554 C1572 0.951 . S
H1555 C1574 0.951 . S
H1556 C1576 0.950 . S
H1557 C1577 0.950 . S
H1558 C1579 0.950 . S
H1559 C1582 0.950 . S
H1560 C1583 0.950 . S
H1561 C1585 0.950 . S
H1562 C1586 0.950 . S
H1563 C1587 0.951 . S
H1564 C1589 0.951 . S
H1565 C1591 0.950 . S
H1566 C1592 0.950 . S
H1567 C1594 0.950 . S
H1568 C1597 0.950 . S
H1569 C1598 0.950 . S
H1570 C1600 0.950 . S
H1571 C1601 0.950 . S
C1572 H1554 0.951 . S
C1572 C1573 1.366 . S
C1572 C1574 1.388 . S
C1573 C1572 1.366 . S
C1573 C1577 1.385 . S
C1574 H1555 0.951 . S
C1574 C1572 1.388 . S
C1574 C1575 1.366 . S
C1575 C1574 1.366 . S
C1575 C1576 1.414 . S
C1575 C1578 1.499 . S
C1576 H1556 0.950 . S
C1576 C1575 1.414 . S
C1576 C1577 1.374 . S
C1577 H1557 0.950 . S
C1577 C1573 1.385 . S
C1577 C1576 1.374 . S
C1578 C1575 1.499 . S
C1578 C1579 1.373 . S
C1578 C1580 1.389 . S
C1579 H1558 0.950 . S
C1579 C1578 1.373 . S
C1579 C1595 1.377 . S
C1580 C1578 1.389 . S
C1580 C1581 1.524 . S
C1580 C1594 1.377 . S
C1581 C1580 1.524 . S
C1581 C1582 1.397 . S
C1581 C1586 1.363 . S
C1582 H1559 0.950 . S
C1582 C1581 1.397 . S
C1582 C1583 1.334 . S
C1583 H1560 0.950 . S
C1583 C1582 1.334 . S
C1583 C1584 1.287 . S
C1584 C1583 1.287 . S
C1584 C1585 1.524 . S
C1584 H1603 0.913 . S
C1585 H1561 0.950 . S
C1585 C1584 1.524 . S
C1585 C1586 1.415 . S
C1586 H1562 0.950 . S
C1586 C1581 1.363 . S
C1586 C1585 1.415 . S
C1587 H1563 0.951 . S
C1587 C1588 1.366 . S
C1587 C1589 1.388 . S
C1588 C1587 1.366 . S
C1588 C1592 1.385 . S
C1589 H1564 0.951 . S
C1589 C1587 1.388 . S
C1589 C1590 1.366 . S
C1590 C1589 1.366 . S
C1590 C1591 1.414 . S
C1590 C1593 1.499 . S
C1591 H1565 0.950 . S
C1591 C1590 1.414 . S
C1591 C1592 1.374 . S
C1592 H1566 0.950 . S
C1592 C1588 1.385 . S
C1592 C1591 1.374 . S
C1593 C1590 1.499 . S
C1593 C1594 1.373 . S
C1593 C1595 1.389 . S
C1594 H1567 0.950 . S
C1594 C1580 1.377 . S
C1594 C1593 1.373 . S
C1595 C1579 1.377 . S
C1595 C1593 1.389 . S
C1595 C1596 1.524 . S
C1596 C1595 1.524 . S
C1596 C1597 1.397 . S
C1596 C1601 1.363 . S
C1597 H1568 0.950 . S
C1597 C1596 1.397 . S
C1597 C1598 1.334 . S
C1598 H1569 0.950 . S
C1598 C1597 1.334 . S
C1598 C1599 1.287 . S
C1599 C1598 1.287 . S
C1599 C1600 1.524 . S
C1599 H1602 0.999 . S
C1600 H1570 0.950 . S
C1600 C1599 1.524 . S
C1600 C1601 1.415 . S
C1601 H1571 0.950 . S
C1601 C1596 1.363 . S
C1601 C1600 1.415 . S
H1602 C1599 0.999 . S
H1603 C1584 0.913 . S
H1604 C1622 0.951 . S
H1605 C1624 0.951 . S
H1606 C1626 0.950 . S
H1607 C1627 0.950 . S
H1608 C1629 0.950 . S
H1609 C1632 0.950 . S
H1610 C1633 0.950 . S
H1611 C1635 0.950 . S
H1612 C1636 0.950 . S
H1613 C1637 0.951 . S
H1614 C1639 0.951 . S
H1615 C1641 0.950 . S
H1616 C1642 0.950 . S
H1617 C1644 0.950 . S
H1618 C1647 0.950 . S
H1619 C1648 0.950 . S
H1620 C1650 0.950 . S
H1621 C1651 0.950 . S
C1622 H1604 0.951 . S
C1622 C1623 1.366 . S
C1622 C1624 1.388 . S
C1623 C1622 1.366 . S
C1623 C1627 1.385 . S
C1624 H1605 0.951 . S
C1624 C1622 1.388 . S
C1624 C1625 1.366 . S
C1625 C1624 1.366 . S
C1625 C1626 1.414 . S
C1625 C1628 1.499 . S
C1626 H1606 0.950 . S
C1626 C1625 1.414 . S
C1626 C1627 1.374 . S
C1627 H1607 0.950 . S
C1627 C1623 1.385 . S
C1627 C1626 1.374 . S
C1628 C1625 1.499 . S
C1628 C1629 1.373 . S
C1628 C1630 1.389 . S
C1629 H1608 0.950 . S
C1629 C1628 1.373 . S
C1629 C1645 1.377 . S
C1630 C1628 1.389 . S
C1630 C1631 1.524 . S
C1630 C1644 1.377 . S
C1631 C1630 1.524 . S
C1631 C1632 1.397 . S
C1631 C1636 1.363 . S
C1632 H1609 0.950 . S
C1632 C1631 1.397 . S
C1632 C1633 1.334 . S
C1633 H1610 0.950 . S
C1633 C1632 1.334 . S
C1633 C1634 1.287 . S
C1634 C1633 1.287 . S
C1634 C1635 1.524 . S
C1634 H1653 0.913 . S
C1635 H1611 0.950 . S
C1635 C1634 1.524 . S
C1635 C1636 1.415 . S
C1636 H1612 0.950 . S
C1636 C1631 1.363 . S
C1636 C1635 1.415 . S
C1637 H1613 0.951 . S
C1637 C1638 1.366 . S
C1637 C1639 1.388 . S
C1638 C1637 1.366 . S
C1638 C1642 1.385 . S
C1639 H1614 0.951 . S
C1639 C1637 1.388 . S
C1639 C1640 1.366 . S
C1640 C1639 1.366 . S
C1640 C1641 1.414 . S
C1640 C1643 1.499 . S
C1641 H1615 0.950 . S
C1641 C1640 1.414 . S
C1641 C1642 1.374 . S
C1642 H1616 0.950 . S
C1642 C1638 1.385 . S
C1642 C1641 1.374 . S
C1643 C1640 1.499 . S
C1643 C1644 1.373 . S
C1643 C1645 1.389 . S
C1644 H1617 0.950 . S
C1644 C1630 1.377 . S
C1644 C1643 1.373 . S
C1645 C1629 1.377 . S
C1645 C1643 1.389 . S
C1645 C1646 1.524 . S
C1646 C1645 1.524 . S
C1646 C1647 1.397 . S
C1646 C1651 1.363 . S
C1647 H1618 0.950 . S
C1647 C1646 1.397 . S
C1647 C1648 1.334 . S
C1648 H1619 0.950 . S
C1648 C1647 1.334 . S
C1648 C1649 1.287 . S
C1649 C1648 1.287 . S
C1649 C1650 1.524 . S
C1649 H1652 0.999 . S
C1650 H1620 0.950 . S
C1650 C1649 1.524 . S
C1650 C1651 1.415 . S
C1651 H1621 0.950 . S
C1651 C1646 1.363 . S
C1651 C1650 1.415 . S
H1652 C1649 0.999 . S
H1653 C1634 0.913 . S
H1654 C1672 0.951 . S
H1655 C1674 0.951 . S
H1656 C1676 0.950 . S
H1657 C1677 0.950 . S
H1658 C1679 0.950 . S
H1659 C1682 0.950 . S
H1660 C1683 0.950 . S
H1661 C1685 0.950 . S
H1662 C1686 0.950 . S
H1663 C1687 0.951 . S
H1664 C1689 0.951 . S
H1665 C1691 0.950 . S
H1666 C1692 0.950 . S
H1667 C1694 0.950 . S
H1668 C1697 0.950 . S
H1669 C1698 0.950 . S
H1670 C1700 0.950 . S
H1671 C1701 0.950 . S
C1672 H1654 0.951 . S
C1672 C1673 1.366 . S
C1672 C1674 1.388 . S
C1673 C1672 1.366 . S
C1673 C1677 1.385 . S
C1674 H1655 0.951 . S
C1674 C1672 1.388 . S
C1674 C1675 1.366 . S
C1675 C1674 1.366 . S
C1675 C1676 1.414 . S
C1675 C1678 1.499 . S
C1676 H1656 0.950 . S
C1676 C1675 1.414 . S
C1676 C1677 1.374 . S
C1677 H1657 0.950 . S
C1677 C1673 1.385 . S
C1677 C1676 1.374 . S
C1678 C1675 1.499 . S
C1678 C1679 1.373 . S
C1678 C1680 1.389 . S
C1679 H1658 0.950 . S
C1679 C1678 1.373 . S
C1679 C1695 1.377 . S
C1680 C1678 1.389 . S
C1680 C1681 1.524 . S
C1680 C1694 1.377 . S
C1681 C1680 1.524 . S
C1681 C1682 1.397 . S
C1681 C1686 1.363 . S
C1682 H1659 0.950 . S
C1682 C1681 1.397 . S
C1682 C1683 1.334 . S
C1683 H1660 0.950 . S
C1683 C1682 1.334 . S
C1683 C1684 1.287 . S
C1684 C1683 1.287 . S
C1684 C1685 1.524 . S
C1684 H1703 0.913 . S
C1685 H1661 0.950 . S
C1685 C1684 1.524 . S
C1685 C1686 1.415 . S
C1686 H1662 0.950 . S
C1686 C1681 1.363 . S
C1686 C1685 1.415 . S
C1687 H1663 0.951 . S
C1687 C1688 1.366 . S
C1687 C1689 1.388 . S
C1688 C1687 1.366 . S
C1688 C1692 1.385 . S
C1689 H1664 0.951 . S
C1689 C1687 1.388 . S
C1689 C1690 1.366 . S
C1690 C1689 1.366 . S
C1690 C1691 1.414 . S
C1690 C1693 1.499 . S
C1691 H1665 0.950 . S
C1691 C1690 1.414 . S
C1691 C1692 1.374 . S
C1692 H1666 0.950 . S
C1692 C1688 1.385 . S
C1692 C1691 1.374 . S
C1693 C1690 1.499 . S
C1693 C1694 1.373 . S
C1693 C1695 1.389 . S
C1694 H1667 0.950 . S
C1694 C1680 1.377 . S
C1694 C1693 1.373 . S
C1695 C1679 1.377 . S
C1695 C1693 1.389 . S
C1695 C1696 1.524 . S
C1696 C1695 1.524 . S
C1696 C1697 1.397 . S
C1696 C1701 1.363 . S
C1697 H1668 0.950 . S
C1697 C1696 1.397 . S
C1697 C1698 1.334 . S
C1698 H1669 0.950 . S
C1698 C1697 1.334 . S
C1698 C1699 1.287 . S
C1699 C1698 1.287 . S
C1699 C1700 1.524 . S
C1699 H1702 0.999 . S
C1700 H1670 0.950 . S
C1700 C1699 1.524 . S
C1700 C1701 1.415 . S
C1701 H1671 0.950 . S
C1701 C1696 1.363 . S
C1701 C1700 1.415 . S
H1702 C1699 0.999 . S
H1703 C1684 0.913 . S
H1704 C1722 0.951 . S
H1705 C1724 0.951 . S
H1706 C1726 0.950 . S
H1707 C1727 0.950 . S
H1708 C1729 0.950 . S
H1709 C1732 0.950 1_556 S
H1710 C1733 0.950 . S
H1711 C1735 0.950 . S
H1712 C1736 0.950 . S
H1713 C1737 0.951 . S
H1714 C1739 0.951 . S
H1715 C1741 0.950 . S
H1716 C1742 0.950 . S
H1717 C1744 0.950 . S
H1718 C1747 0.950 . S
H1719 C1748 0.950 . S
H1720 C1750 0.950 . S
H1721 C1751 0.950 . S
C1722 H1704 0.951 . S
C1722 C1723 1.366 . S
C1722 C1724 1.388 1_556 S
C1723 C1722 1.366 . S
C1723 C1727 1.385 . S
C1724 H1705 0.951 . S
C1724 C1722 1.388 1_554 S
C1724 C1725 1.366 . S
C1725 C1724 1.366 . S
C1725 C1726 1.414 1_554 S
C1725 C1728 1.499 . S
C1726 H1706 0.950 . S
C1726 C1725 1.414 1_556 S
C1726 C1727 1.374 . S
C1727 H1707 0.950 . S
C1727 C1723 1.385 . S
C1727 C1726 1.374 . S
C1728 C1725 1.499 . S
C1728 C1729 1.373 . S
C1728 C1730 1.389 . S
C1729 H1708 0.950 . S
C1729 C1728 1.373 . S
C1729 C1745 1.377 . S
C1730 C1728 1.389 . S
C1730 C1731 1.524 . S
C1730 C1744 1.377 . S
C1731 C1730 1.524 . S
C1731 C1732 1.397 . S
C1731 C1736 1.363 . S
C1732 H1709 0.950 1_554 S
C1732 C1731 1.397 . S
C1732 C1733 1.334 1_554 S
C1733 H1710 0.950 . S
C1733 C1732 1.334 1_556 S
C1733 C1734 1.287 1_556 S
C1734 C1733 1.287 1_554 S
C1734 C1735 1.524 . S
C1734 H1753 0.913 . S
C1735 H1711 0.950 . S
C1735 C1734 1.524 . S
C1735 C1736 1.415 . S
C1736 H1712 0.950 . S
C1736 C1731 1.363 . S
C1736 C1735 1.415 . S
C1737 H1713 0.951 . S
C1737 C1738 1.366 . S
C1737 C1739 1.388 . S
C1738 C1737 1.366 . S
C1738 C1742 1.385 . S
C1739 H1714 0.951 . S
C1739 C1737 1.388 . S
C1739 C1740 1.366 . S
C1740 C1739 1.366 . S
C1740 C1741 1.414 . S
C1740 C1743 1.499 . S
C1741 H1715 0.950 . S
C1741 C1740 1.414 . S
C1741 C1742 1.374 . S
C1742 H1716 0.950 . S
C1742 C1738 1.385 . S
C1742 C1741 1.374 . S
C1743 C1740 1.499 . S
C1743 C1744 1.373 . S
C1743 C1745 1.389 . S
C1744 H1717 0.950 . S
C1744 C1730 1.377 . S
C1744 C1743 1.373 . S
C1745 C1729 1.377 . S
C1745 C1743 1.389 . S
C1745 C1746 1.524 . S
C1746 C1745 1.524 . S
C1746 C1747 1.397 . S
C1746 C1751 1.363 . S
C1747 H1718 0.950 . S
C1747 C1746 1.397 . S
C1747 C1748 1.334 . S
C1748 H1719 0.950 . S
C1748 C1747 1.334 . S
C1748 C1749 1.287 . S
C1749 C1748 1.287 . S
C1749 C1750 1.524 . S
C1749 H1752 0.999 . S
C1750 H1720 0.950 . S
C1750 C1749 1.524 . S
C1750 C1751 1.415 . S
C1751 H1721 0.950 . S
C1751 C1746 1.363 . S
C1751 C1750 1.415 . S
H1752 C1749 0.999 . S
H1753 C1734 0.913 . S
H1754 C1772 0.951 . S
H1755 C1774 0.951 . S
H1756 C1776 0.950 . S
H1757 C1777 0.950 . S
H1758 C1779 0.950 . S
H1759 C1782 0.950 . S
H1760 C1783 0.950 . S
H1761 C1785 0.950 . S
H1762 C1786 0.950 . S
H1763 C1787 0.951 . S
H1764 C1789 0.951 . S
H1765 C1791 0.950 . S
H1766 C1792 0.950 . S
H1767 C1794 0.950 . S
H1768 C1797 0.950 . S
H1769 C1798 0.950 . S
H1770 C1800 0.950 . S
H1771 C1801 0.950 . S
C1772 H1754 0.951 . S
C1772 C1773 1.366 . S
C1772 C1774 1.388 . S
C1773 C1772 1.366 . S
C1773 C1777 1.385 . S
C1774 H1755 0.951 . S
C1774 C1772 1.388 . S
C1774 C1775 1.366 1_556 S
C1775 C1774 1.366 1_554 S
C1775 C1776 1.414 . S
C1775 C1778 1.499 . S
C1776 H1756 0.950 . S
C1776 C1775 1.414 . S
C1776 C1777 1.374 1_554 S
C1777 H1757 0.950 . S
C1777 C1773 1.385 . S
C1777 C1776 1.374 1_556 S
C1778 C1775 1.499 . S
C1778 C1779 1.373 . S
C1778 C1780 1.389 . S
C1779 H1758 0.950 . S
C1779 C1778 1.373 . S
C1779 C1795 1.377 . S
C1780 C1778 1.389 . S
C1780 C1781 1.524 . S
C1780 C1794 1.377 . S
C1781 C1780 1.524 . S
C1781 C1782 1.397 . S
C1781 C1786 1.363 . S
C1782 H1759 0.950 . S
C1782 C1781 1.397 . S
C1782 C1783 1.334 . S
C1783 H1760 0.950 . S
C1783 C1782 1.334 . S
C1783 C1784 1.287 . S
C1784 C1783 1.287 . S
C1784 C1785 1.524 . S
C1784 H1803 0.913 . S
C1785 H1761 0.950 . S
C1785 C1784 1.524 . S
C1785 C1786 1.415 . S
C1786 H1762 0.950 . S
C1786 C1781 1.363 . S
C1786 C1785 1.415 . S
C1787 H1763 0.951 . S
C1787 C1788 1.366 . S
C1787 C1789 1.388 . S
C1788 C1787 1.366 . S
C1788 C1792 1.385 . S
C1789 H1764 0.951 . S
C1789 C1787 1.388 . S
C1789 C1790 1.366 . S
C1790 C1789 1.366 . S
C1790 C1791 1.414 . S
C1790 C1793 1.499 . S
C1791 H1765 0.950 . S
C1791 C1790 1.414 . S
C1791 C1792 1.374 . S
C1792 H1766 0.950 . S
C1792 C1788 1.385 . S
C1792 C1791 1.374 . S
C1793 C1790 1.499 . S
C1793 C1794 1.373 . S
C1793 C1795 1.389 . S
C1794 H1767 0.950 . S
C1794 C1780 1.377 . S
C1794 C1793 1.373 . S
C1795 C1779 1.377 . S
C1795 C1793 1.389 . S
C1795 C1796 1.524 . S
C1796 C1795 1.524 . S
C1796 C1797 1.397 . S
C1796 C1801 1.363 . S
C1797 H1768 0.950 . S
C1797 C1796 1.397 . S
C1797 C1798 1.334 . S
C1798 H1769 0.950 . S
C1798 C1797 1.334 . S
C1798 C1799 1.287 . S
C1799 C1798 1.287 . S
C1799 C1800 1.524 . S
C1799 H1802 0.999 . S
C1800 H1770 0.950 . S
C1800 C1799 1.524 . S
C1800 C1801 1.415 . S
C1801 H1771 0.950 . S
C1801 C1796 1.363 . S
C1801 C1800 1.415 . S
H1802 C1799 0.999 . S
H1803 C1784 0.913 . S
H1804 C1822 0.951 . S
H1805 C1824 0.951 . S
H1806 C1826 0.950 . S
H1807 C1827 0.950 . S
H1808 C1829 0.950 . S
H1809 C1832 0.950 . S
H1810 C1833 0.950 . S
H1811 C1835 0.950 . S
H1812 C1836 0.950 . S
H1813 C1837 0.951 . S
H1814 C1839 0.951 . S
H1815 C1841 0.950 . S
H1816 C1842 0.950 . S
H1817 C1844 0.950 . S
H1818 C1847 0.950 . S
H1819 C1848 0.950 . S
H1820 C1850 0.950 . S
H1821 C1851 0.950 . S
C1822 H1804 0.951 . S
C1822 C1823 1.366 . S
C1822 C1824 1.388 . S
C1823 C1822 1.366 . S
C1823 C1827 1.385 . S
C1824 H1805 0.951 . S
C1824 C1822 1.388 . S
C1824 C1825 1.366 . S
C1825 C1824 1.366 . S
C1825 C1826 1.414 . S
C1825 C1828 1.499 . S
C1826 H1806 0.950 . S
C1826 C1825 1.414 . S
C1826 C1827 1.374 . S
C1827 H1807 0.950 . S
C1827 C1823 1.385 . S
C1827 C1826 1.374 . S
C1828 C1825 1.499 . S
C1828 C1829 1.373 . S
C1828 C1830 1.389 . S
C1829 H1808 0.950 . S
C1829 C1828 1.373 . S
C1829 C1845 1.377 . S
C1830 C1828 1.389 . S
C1830 C1831 1.524 . S
C1830 C1844 1.377 . S
C1831 C1830 1.524 . S
C1831 C1832 1.397 . S
C1831 C1836 1.363 . S
C1832 H1809 0.950 . S
C1832 C1831 1.397 . S
C1832 C1833 1.334 . S
C1833 H1810 0.950 . S
C1833 C1832 1.334 . S
C1833 C1834 1.287 . S
C1834 C1833 1.287 . S
C1834 C1835 1.524 . S
C1834 H1853 0.913 . S
C1835 H1811 0.950 . S
C1835 C1834 1.524 . S
C1835 C1836 1.415 . S
C1836 H1812 0.950 . S
C1836 C1831 1.363 . S
C1836 C1835 1.415 . S
C1837 H1813 0.951 . S
C1837 C1838 1.366 . S
C1837 C1839 1.388 . S
C1838 C1837 1.366 . S
C1838 C1842 1.385 . S
C1839 H1814 0.951 . S
C1839 C1837 1.388 . S
C1839 C1840 1.366 1_556 S
C1840 C1839 1.366 1_554 S
C1840 C1841 1.414 . S
C1840 C1843 1.499 . S
C1841 H1815 0.950 . S
C1841 C1840 1.414 . S
C1841 C1842 1.374 1_554 S
C1842 H1816 0.950 . S
C1842 C1838 1.385 . S
C1842 C1841 1.374 1_556 S
C1843 C1840 1.499 . S
C1843 C1844 1.373 . S
C1843 C1845 1.389 . S
C1844 H1817 0.950 . S
C1844 C1830 1.377 . S
C1844 C1843 1.373 . S
C1845 C1829 1.377 . S
C1845 C1843 1.389 . S
C1845 C1846 1.524 . S
C1846 C1845 1.524 . S
C1846 C1847 1.397 . S
C1846 C1851 1.363 . S
C1847 H1818 0.950 . S
C1847 C1846 1.397 . S
C1847 C1848 1.334 1_554 S
C1848 H1819 0.950 . S
C1848 C1847 1.334 1_556 S
C1848 C1849 1.287 . S
C1849 C1848 1.287 . S
C1849 C1850 1.524 . S
C1849 H1852 0.999 . S
C1850 H1820 0.950 . S
C1850 C1849 1.524 . S
C1850 C1851 1.415 1_556 S
C1851 H1821 0.950 . S
C1851 C1846 1.363 . S
C1851 C1850 1.415 1_554 S
H1852 C1849 0.999 . S
H1853 C1834 0.913 . S
H1854 C1872 0.951 . S
H1855 C1874 0.951 . S
H1856 C1876 0.950 . S
H1857 C1877 0.950 . S
H1858 C1879 0.950 . S
H1859 C1882 0.950 . S
H1860 C1883 0.950 . S
H1861 C1885 0.950 . S
H1862 C1886 0.950 . S
H1863 C1887 0.951 . S
H1864 C1889 0.951 . S
H1865 C1891 0.950 . S
H1866 C1892 0.950 . S
H1867 C1894 0.950 . S
H1868 C1897 0.950 . S
H1869 C1898 0.950 . S
H1870 C1900 0.950 . S
H1871 C1901 0.950 . S
C1872 H1854 0.951 . S
C1872 C1873 1.366 . S
C1872 C1874 1.388 . S
C1873 C1872 1.366 . S
C1873 C1877 1.385 . S
C1874 H1855 0.951 . S
C1874 C1872 1.388 . S
C1874 C1875 1.366 . S
C1875 C1874 1.366 . S
C1875 C1876 1.414 . S
C1875 C1878 1.499 . S
C1876 H1856 0.950 . S
C1876 C1875 1.414 . S
C1876 C1877 1.374 . S
C1877 H1857 0.950 . S
C1877 C1873 1.385 . S
C1877 C1876 1.374 . S
C1878 C1875 1.499 . S
C1878 C1879 1.373 . S
C1878 C1880 1.389 . S
C1879 H1858 0.950 . S
C1879 C1878 1.373 . S
C1879 C1895 1.377 . S
C1880 C1878 1.389 . S
C1880 C1881 1.524 . S
C1880 C1894 1.377 . S
C1881 C1880 1.524 . S
C1881 C1882 1.397 . S
C1881 C1886 1.363 . S
C1882 H1859 0.950 . S
C1882 C1881 1.397 . S
C1882 C1883 1.334 . S
C1883 H1860 0.950 . S
C1883 C1882 1.334 . S
C1883 C1884 1.287 . S
C1884 C1883 1.287 . S
C1884 C1885 1.524 . S
C1884 H1903 0.913 . S
C1885 H1861 0.950 . S
C1885 C1884 1.524 . S
C1885 C1886 1.415 . S
C1886 H1862 0.950 . S
C1886 C1881 1.363 . S
C1886 C1885 1.415 . S
C1887 H1863 0.951 . S
C1887 C1888 1.366 . S
C1887 C1889 1.388 . S
C1888 C1887 1.366 . S
C1888 C1892 1.385 . S
C1889 H1864 0.951 . S
C1889 C1887 1.388 . S
C1889 C1890 1.366 . S
C1890 C1889 1.366 . S
C1890 C1891 1.414 . S
C1890 C1893 1.499 . S
C1891 H1865 0.950 . S
C1891 C1890 1.414 . S
C1891 C1892 1.374 . S
C1892 H1866 0.950 . S
C1892 C1888 1.385 . S
C1892 C1891 1.374 . S
C1893 C1890 1.499 . S
C1893 C1894 1.373 . S
C1893 C1895 1.389 . S
C1894 H1867 0.950 . S
C1894 C1880 1.377 . S
C1894 C1893 1.373 . S
C1895 C1879 1.377 . S
C1895 C1893 1.389 . S
C1895 C1896 1.524 . S
C1896 C1895 1.524 . S
C1896 C1897 1.397 . S
C1896 C1901 1.363 . S
C1897 H1868 0.950 . S
C1897 C1896 1.397 . S
C1897 C1898 1.334 . S
C1898 H1869 0.950 . S
C1898 C1897 1.334 . S
C1898 C1899 1.287 . S
C1899 C1898 1.287 . S
C1899 C1900 1.524 . S
C1899 H1902 0.999 . S
C1900 H1870 0.950 . S
C1900 C1899 1.524 . S
C1900 C1901 1.415 . S
C1901 H1871 0.950 . S
C1901 C1896 1.363 . S
C1901 C1900 1.415 . S
H1902 C1899 0.999 . S
H1903 C1884 0.913 . S
H1904 C1922 0.951 . S
H1905 C1924 0.951 . S
H1906 C1926 0.950 . S
H1907 C1927 0.950 . S
H1908 C1929 0.950 . S
H1909 C1932 0.950 . S
H1910 C1933 0.950 . S
H1911 C1935 0.950 . S
H1912 C1936 0.950 . S
H1913 C1937 0.951 . S
H1914 C1939 0.951 . S
H1915 C1941 0.950 . S
H1916 C1942 0.950 . S
H1917 C1944 0.950 . S
H1918 C1947 0.950 . S
H1919 C1948 0.950 . S
H1920 C1950 0.950 . S
H1921 C1951 0.950 . S
C1922 H1904 0.951 . S
C1922 C1923 1.366 . S
C1922 C1924 1.388 . S
C1923 C1922 1.366 . S
C1923 C1927 1.385 . S
C1924 H1905 0.951 . S
C1924 C1922 1.388 . S
C1924 C1925 1.366 . S
C1925 C1924 1.366 . S
C1925 C1926 1.414 . S
C1925 C1928 1.499 . S
C1926 H1906 0.950 . S
C1926 C1925 1.414 . S
C1926 C1927 1.374 . S
C1927 H1907 0.950 . S
C1927 C1923 1.385 . S
C1927 C1926 1.374 . S
C1928 C1925 1.499 . S
C1928 C1929 1.373 . S
C1928 C1930 1.389 . S
C1929 H1908 0.950 . S
C1929 C1928 1.373 . S
C1929 C1945 1.377 . S
C1930 C1928 1.389 . S
C1930 C1931 1.524 . S
C1930 C1944 1.377 . S
C1931 C1930 1.524 . S
C1931 C1932 1.397 . S
C1931 C1936 1.363 . S
C1932 H1909 0.950 . S
C1932 C1931 1.397 . S
C1932 C1933 1.334 . S
C1933 H1910 0.950 . S
C1933 C1932 1.334 . S
C1933 C1934 1.287 . S
C1934 C1933 1.287 . S
C1934 C1935 1.524 . S
C1934 H1953 0.913 . S
C1935 H1911 0.950 . S
C1935 C1934 1.524 . S
C1935 C1936 1.415 . S
C1936 H1912 0.950 . S
C1936 C1931 1.363 . S
C1936 C1935 1.415 . S
C1937 H1913 0.951 . S
C1937 C1938 1.366 . S
C1937 C1939 1.388 . S
C1938 C1937 1.366 . S
C1938 C1942 1.385 . S
C1939 H1914 0.951 . S
C1939 C1937 1.388 . S
C1939 C1940 1.366 . S
C1940 C1939 1.366 . S
C1940 C1941 1.414 . S
C1940 C1943 1.499 . S
C1941 H1915 0.950 . S
C1941 C1940 1.414 . S
C1941 C1942 1.374 . S
C1942 H1916 0.950 . S
C1942 C1938 1.385 . S
C1942 C1941 1.374 . S
C1943 C1940 1.499 . S
C1943 C1944 1.373 . S
C1943 C1945 1.389 . S
C1944 H1917 0.950 . S
C1944 C1930 1.377 . S
C1944 C1943 1.373 . S
C1945 C1929 1.377 . S
C1945 C1943 1.389 . S
C1945 C1946 1.524 . S
C1946 C1945 1.524 . S
C1946 C1947 1.397 . S
C1946 C1951 1.363 . S
C1947 H1918 0.950 . S
C1947 C1946 1.397 . S
C1947 C1948 1.334 . S
C1948 H1919 0.950 . S
C1948 C1947 1.334 . S
C1948 C1949 1.287 . S
C1949 C1948 1.287 . S
C1949 C1950 1.524 . S
C1949 H1952 0.999 . S
C1950 H1920 0.950 . S
C1950 C1949 1.524 . S
C1950 C1951 1.415 . S
C1951 H1921 0.950 . S
C1951 C1946 1.363 . S
C1951 C1950 1.415 . S
H1952 C1949 0.999 . S
H1953 C1934 0.913 . S
H1954 C1972 0.951 . S
H1955 C1974 0.951 . S
H1956 C1976 0.950 . S
H1957 C1977 0.950 . S
H1958 C1979 0.950 . S
H1959 C1982 0.950 . S
H1960 C1983 0.950 . S
H1961 C1985 0.950 . S
H1962 C1986 0.950 . S
H1963 C1987 0.951 . S
H1964 C1989 0.951 . S
H1965 C1991 0.950 . S
H1966 C1992 0.950 . S
H1967 C1994 0.950 . S
H1968 C1997 0.950 . S
H1969 C1998 0.950 . S
H1970 C2000 0.950 . S
H1971 C2001 0.950 . S
C1972 H1954 0.951 . S
C1972 C1973 1.366 . S
C1972 C1974 1.388 . S
C1973 C1972 1.366 . S
C1973 C1977 1.385 . S
C1974 H1955 0.951 . S
C1974 C1972 1.388 . S
C1974 C1975 1.366 . S
C1975 C1974 1.366 . S
C1975 C1976 1.414 . S
C1975 C1978 1.499 . S
C1976 H1956 0.950 . S
C1976 C1975 1.414 . S
C1976 C1977 1.374 . S
C1977 H1957 0.950 . S
C1977 C1973 1.385 . S
C1977 C1976 1.374 . S
C1978 C1975 1.499 . S
C1978 C1979 1.373 . S
C1978 C1980 1.389 . S
C1979 H1958 0.950 . S
C1979 C1978 1.373 . S
C1979 C1995 1.377 . S
C1980 C1978 1.389 . S
C1980 C1981 1.524 . S
C1980 C1994 1.377 . S
C1981 C1980 1.524 . S
C1981 C1982 1.397 . S
C1981 C1986 1.363 . S
C1982 H1959 0.950 . S
C1982 C1981 1.397 . S
C1982 C1983 1.334 . S
C1983 H1960 0.950 . S
C1983 C1982 1.334 . S
C1983 C1984 1.287 . S
C1984 C1983 1.287 . S
C1984 C1985 1.524 . S
C1984 H2003 0.913 . S
C1985 H1961 0.950 . S
C1985 C1984 1.524 . S
C1985 C1986 1.415 . S
C1986 H1962 0.950 . S
C1986 C1981 1.363 . S
C1986 C1985 1.415 . S
C1987 H1963 0.951 . S
C1987 C1988 1.366 . S
C1987 C1989 1.388 . S
C1988 C1987 1.366 . S
C1988 C1992 1.385 . S
C1989 H1964 0.951 . S
C1989 C1987 1.388 . S
C1989 C1990 1.366 . S
C1990 C1989 1.366 . S
C1990 C1991 1.414 . S
C1990 C1993 1.499 . S
C1991 H1965 0.950 . S
C1991 C1990 1.414 . S
C1991 C1992 1.374 . S
C1992 H1966 0.950 . S
C1992 C1988 1.385 . S
C1992 C1991 1.374 . S
C1993 C1990 1.499 . S
C1993 C1994 1.373 . S
C1993 C1995 1.389 . S
C1994 H1967 0.950 . S
C1994 C1980 1.377 . S
C1994 C1993 1.373 . S
C1995 C1979 1.377 . S
C1995 C1993 1.389 . S
C1995 C1996 1.524 . S
C1996 C1995 1.524 . S
C1996 C1997 1.397 . S
C1996 C2001 1.363 . S
C1997 H1968 0.950 . S
C1997 C1996 1.397 . S
C1997 C1998 1.334 . S
C1998 H1969 0.950 . S
C1998 C1997 1.334 . S
C1998 C1999 1.287 . S
C1999 C1998 1.287 . S
C1999 C2000 1.524 . S
C1999 H2002 0.999 . S
C2000 H1970 0.950 . S
C2000 C1999 1.524 . S
C2000 C2001 1.415 . S
C2001 H1971 0.950 . S
C2001 C1996 1.363 . S
C2001 C2000 1.415 . S
H2002 C1999 0.999 . S
H2003 C1984 0.913 . S
H2004 C2022 0.951 . S
H2005 C2024 0.951 . S
H2006 C2026 0.950 . S
H2007 C2027 0.950 . S
H2008 C2029 0.950 . S
H2009 C2032 0.950 . S
H2010 C2033 0.950 . S
H2011 C2035 0.950 . S
H2012 C2036 0.950 . S
H2013 C2037 0.951 . S
H2014 C2039 0.951 . S
H2015 C2041 0.950 . S
H2016 C2042 0.950 . S
H2017 C2044 0.950 . S
H2018 C2047 0.950 . S
H2019 C2048 0.950 . S
H2020 C2050 0.950 . S
H2021 C2051 0.950 . S
C2022 H2004 0.951 . S
C2022 C2023 1.366 . S
C2022 C2024 1.388 . S
C2023 C2022 1.366 . S
C2023 C2027 1.385 . S
C2024 H2005 0.951 . S
C2024 C2022 1.388 . S
C2024 C2025 1.366 . S
C2025 C2024 1.366 . S
C2025 C2026 1.414 . S
C2025 C2028 1.499 . S
C2026 H2006 0.950 . S
C2026 C2025 1.414 . S
C2026 C2027 1.374 . S
C2027 H2007 0.950 . S
C2027 C2023 1.385 . S
C2027 C2026 1.374 . S
C2028 C2025 1.499 . S
C2028 C2029 1.373 . S
C2028 C2030 1.389 . S
C2029 H2008 0.950 . S
C2029 C2028 1.373 . S
C2029 C2045 1.377 . S
C2030 C2028 1.389 . S
C2030 C2031 1.524 . S
C2030 C2044 1.377 . S
C2031 C2030 1.524 . S
C2031 C2032 1.397 . S
C2031 C2036 1.363 . S
C2032 H2009 0.950 . S
C2032 C2031 1.397 . S
C2032 C2033 1.334 . S
C2033 H2010 0.950 . S
C2033 C2032 1.334 . S
C2033 C2034 1.287 . S
C2034 C2033 1.287 . S
C2034 C2035 1.524 . S
C2034 H2053 0.913 . S
C2035 H2011 0.950 . S
C2035 C2034 1.524 . S
C2035 C2036 1.415 . S
C2036 H2012 0.950 . S
C2036 C2031 1.363 . S
C2036 C2035 1.415 . S
C2037 H2013 0.951 . S
C2037 C2038 1.366 . S
C2037 C2039 1.388 . S
C2038 C2037 1.366 . S
C2038 C2042 1.385 . S
C2039 H2014 0.951 . S
C2039 C2037 1.388 . S
C2039 C2040 1.366 . S
C2040 C2039 1.366 . S
C2040 C2041 1.414 . S
C2040 C2043 1.499 . S
C2041 H2015 0.950 . S
C2041 C2040 1.414 . S
C2041 C2042 1.374 . S
C2042 H2016 0.950 . S
C2042 C2038 1.385 . S
C2042 C2041 1.374 . S
C2043 C2040 1.499 . S
C2043 C2044 1.373 . S
C2043 C2045 1.389 . S
C2044 H2017 0.950 . S
C2044 C2030 1.377 . S
C2044 C2043 1.373 . S
C2045 C2029 1.377 . S
C2045 C2043 1.389 . S
C2045 C2046 1.524 . S
C2046 C2045 1.524 . S
C2046 C2047 1.397 . S
C2046 C2051 1.363 . S
C2047 H2018 0.950 . S
C2047 C2046 1.397 . S
C2047 C2048 1.334 . S
C2048 H2019 0.950 . S
C2048 C2047 1.334 . S
C2048 C2049 1.287 . S
C2049 C2048 1.287 . S
C2049 C2050 1.524 . S
C2049 H2052 0.999 . S
C2050 H2020 0.950 . S
C2050 C2049 1.524 . S
C2050 C2051 1.415 . S
C2051 H2021 0.950 . S
C2051 C2046 1.363 . S
C2051 C2050 1.415 . S
H2052 C2049 0.999 . S
H2053 C2034 0.913 . S
H2054 C2072 0.951 . S
H2055 C2074 0.951 . S
H2056 C2076 0.950 . S
H2057 C2077 0.950 . S
H2058 C2079 0.950 . S
H2059 C2082 0.950 . S
H2060 C2083 0.950 . S
H2061 C2085 0.950 . S
H2062 C2086 0.950 . S
H2063 C2087 0.951 . S
H2064 C2089 0.951 . S
H2065 C2091 0.950 . S
H2066 C2092 0.950 . S
H2067 C2094 0.950 . S
H2068 C2097 0.950 . S
H2069 C2098 0.950 . S
H2070 C2100 0.950 . S
H2071 C2101 0.950 . S
C2072 H2054 0.951 . S
C2072 C2073 1.366 . S
C2072 C2074 1.388 . S
C2073 C2072 1.366 . S
C2073 C2077 1.385 . S
C2074 H2055 0.951 . S
C2074 C2072 1.388 . S
C2074 C2075 1.366 . S
C2075 C2074 1.366 . S
C2075 C2076 1.414 . S
C2075 C2078 1.499 . S
C2076 H2056 0.950 . S
C2076 C2075 1.414 . S
C2076 C2077 1.374 . S
C2077 H2057 0.950 . S
C2077 C2073 1.385 . S
C2077 C2076 1.374 . S
C2078 C2075 1.499 . S
C2078 C2079 1.373 . S
C2078 C2080 1.389 . S
C2079 H2058 0.950 . S
C2079 C2078 1.373 . S
C2079 C2095 1.377 . S
C2080 C2078 1.389 . S
C2080 C2081 1.524 . S
C2080 C2094 1.377 . S
C2081 C2080 1.524 . S
C2081 C2082 1.397 . S
C2081 C2086 1.363 . S
C2082 H2059 0.950 . S
C2082 C2081 1.397 . S
C2082 C2083 1.334 . S
C2083 H2060 0.950 . S
C2083 C2082 1.334 . S
C2083 C2084 1.287 . S
C2084 C2083 1.287 . S
C2084 C2085 1.524 . S
C2084 H2103 0.913 . S
C2085 H2061 0.950 . S
C2085 C2084 1.524 . S
C2085 C2086 1.415 . S
C2086 H2062 0.950 . S
C2086 C2081 1.363 . S
C2086 C2085 1.415 . S
C2087 H2063 0.951 . S
C2087 C2088 1.366 . S
C2087 C2089 1.388 . S
C2088 C2087 1.366 . S
C2088 C2092 1.385 . S
C2089 H2064 0.951 . S
C2089 C2087 1.388 . S
C2089 C2090 1.366 . S
C2090 C2089 1.366 . S
C2090 C2091 1.414 . S
C2090 C2093 1.499 . S
C2091 H2065 0.950 . S
C2091 C2090 1.414 . S
C2091 C2092 1.374 . S
C2092 H2066 0.950 . S
C2092 C2088 1.385 . S
C2092 C2091 1.374 . S
C2093 C2090 1.499 . S
C2093 C2094 1.373 . S
C2093 C2095 1.389 . S
C2094 H2067 0.950 . S
C2094 C2080 1.377 . S
C2094 C2093 1.373 . S
C2095 C2079 1.377 . S
C2095 C2093 1.389 . S
C2095 C2096 1.524 . S
C2096 C2095 1.524 . S
C2096 C2097 1.397 . S
C2096 C2101 1.363 . S
C2097 H2068 0.950 . S
C2097 C2096 1.397 . S
C2097 C2098 1.334 . S
C2098 H2069 0.950 . S
C2098 C2097 1.334 . S
C2098 C2099 1.287 . S
C2099 C2098 1.287 . S
C2099 C2100 1.524 . S
C2099 H2102 0.999 . S
C2100 H2070 0.950 . S
C2100 C2099 1.524 . S
C2100 C2101 1.415 . S
C2101 H2071 0.950 . S
C2101 C2096 1.363 . S
C2101 C2100 1.415 . S
H2102 C2099 0.999 . S
H2103 C2084 0.913 . S
H2104 C2122 0.951 . S
H2105 C2124 0.951 . S
H2106 C2126 0.950 . S
H2107 C2127 0.950 . S
H2108 C2129 0.950 . S
H2109 C2132 0.950 . S
H2110 C2133 0.950 . S
H2111 C2135 0.950 . S
H2112 C2136 0.950 . S
H2113 C2137 0.951 . S
H2114 C2139 0.951 . S
H2115 C2141 0.950 . S
H2116 C2142 0.950 . S
H2117 C2144 0.950 . S
H2118 C2147 0.950 . S
H2119 C2148 0.950 . S
H2120 C2150 0.950 . S
H2121 C2151 0.950 . S
C2122 H2104 0.951 . S
C2122 C2123 1.366 . S
C2122 C2124 1.388 . S
C2123 C2122 1.366 . S
C2123 C2127 1.385 . S
C2124 H2105 0.951 . S
C2124 C2122 1.388 . S
C2124 C2125 1.366 . S
C2125 C2124 1.366 . S
C2125 C2126 1.414 . S
C2125 C2128 1.499 . S
C2126 H2106 0.950 . S
C2126 C2125 1.414 . S
C2126 C2127 1.374 . S
C2127 H2107 0.950 . S
C2127 C2123 1.385 . S
C2127 C2126 1.374 . S
C2128 C2125 1.499 . S
C2128 C2129 1.373 . S
C2128 C2130 1.389 . S
C2129 H2108 0.950 . S
C2129 C2128 1.373 . S
C2129 C2145 1.377 . S
C2130 C2128 1.389 . S
C2130 C2131 1.524 . S
C2130 C2144 1.377 . S
C2131 C2130 1.524 . S
C2131 C2132 1.397 . S
C2131 C2136 1.363 . S
C2132 H2109 0.950 . S
C2132 C2131 1.397 . S
C2132 C2133 1.334 . S
C2133 H2110 0.950 . S
C2133 C2132 1.334 . S
C2133 C2134 1.287 . S
C2134 C2133 1.287 . S
C2134 C2135 1.524 . S
C2134 H2153 0.913 . S
C2135 H2111 0.950 . S
C2135 C2134 1.524 . S
C2135 C2136 1.415 . S
C2136 H2112 0.950 . S
C2136 C2131 1.363 . S
C2136 C2135 1.415 . S
C2137 H2113 0.951 . S
C2137 C2138 1.366 . S
C2137 C2139 1.388 . S
C2138 C2137 1.366 . S
C2138 C2142 1.385 . S
C2139 H2114 0.951 . S
C2139 C2137 1.388 . S
C2139 C2140 1.366 . S
C2140 C2139 1.366 . S
C2140 C2141 1.414 . S
C2140 C2143 1.499 . S
C2141 H2115 0.950 . S
C2141 C2140 1.414 . S
C2141 C2142 1.374 . S
C2142 H2116 0.950 . S
C2142 C2138 1.385 . S
C2142 C2141 1.374 . S
C2143 C2140 1.499 . S
C2143 C2144 1.373 . S
C2143 C2145 1.389 . S
C2144 H2117 0.950 . S
C2144 C2130 1.377 . S
C2144 C2143 1.373 . S
C2145 C2129 1.377 . S
C2145 C2143 1.389 . S
C2145 C2146 1.524 . S
C2146 C2145 1.524 . S
C2146 C2147 1.397 . S
C2146 C2151 1.363 . S
C2147 H2118 0.950 . S
C2147 C2146 1.397 . S
C2147 C2148 1.334 . S
C2148 H2119 0.950 . S
C2148 C2147 1.334 . S
C2148 C2149 1.287 . S
C2149 C2148 1.287 . S
C2149 C2150 1.524 . S
C2149 H2152 0.999 . S
C2150 H2120 0.950 . S
C2150 C2149 1.524 . S
C2150 C2151 1.415 . S
C2151 H2121 0.950 . S
C2151 C2146 1.363 . S
C2151 C2150 1.415 . S
H2152 C2149 0.999 . S
H2153 C2134 0.913 . S
H2154 C2172 0.951 . S
H2155 C2174 0.951 . S
H2156 C2176 0.950 . S
H2157 C2177 0.950 . S
H2158 C2179 0.950 . S
H2159 C2182 0.950 . S
H2160 C2183 0.950 . S
H2161 C2185 0.950 1_554 S
H2162 C2186 0.950 . S
H2163 C2187 0.951 . S
H2164 C2189 0.951 1_556 S
H2165 C2191 0.950 . S
H2166 C2192 0.950 . S
H2167 C2194 0.950 . S
H2168 C2197 0.950 . S
H2169 C2198 0.950 . S
H2170 C2200 0.950 . S
H2171 C2201 0.950 . S
C2172 H2154 0.951 . S
C2172 C2173 1.366 . S
C2172 C2174 1.388 . S
C2173 C2172 1.366 . S
C2173 C2177 1.385 . S
C2174 H2155 0.951 . S
C2174 C2172 1.388 . S
C2174 C2175 1.366 . S
C2175 C2174 1.366 . S
C2175 C2176 1.414 . S
C2175 C2178 1.499 . S
C2176 H2156 0.950 . S
C2176 C2175 1.414 . S
C2176 C2177 1.374 . S
C2177 H2157 0.950 . S
C2177 C2173 1.385 . S
C2177 C2176 1.374 . S
C2178 C2175 1.499 . S
C2178 C2179 1.373 . S
C2178 C2180 1.389 . S
C2179 H2158 0.950 . S
C2179 C2178 1.373 . S
C2179 C2195 1.377 . S
C2180 C2178 1.389 . S
C2180 C2181 1.524 . S
C2180 C2194 1.377 . S
C2181 C2180 1.524 . S
C2181 C2182 1.397 . S
C2181 C2186 1.363 . S
C2182 H2159 0.950 . S
C2182 C2181 1.397 . S
C2182 C2183 1.334 . S
C2183 H2160 0.950 . S
C2183 C2182 1.334 . S
C2183 C2184 1.287 . S
C2184 C2183 1.287 . S
C2184 C2185 1.524 . S
C2184 H2203 0.913 . S
C2185 H2161 0.950 1_556 S
C2185 C2184 1.524 . S
C2185 C2186 1.415 . S
C2186 H2162 0.950 . S
C2186 C2181 1.363 . S
C2186 C2185 1.415 . S
C2187 H2163 0.951 . S
C2187 C2188 1.366 . S
C2187 C2189 1.388 . S
C2188 C2187 1.366 . S
C2188 C2192 1.385 . S
C2189 H2164 0.951 1_554 S
C2189 C2187 1.388 . S
C2189 C2190 1.366 1_554 S
C2190 C2189 1.366 1_556 S
C2190 C2191 1.414 1_556 S
C2190 C2193 1.499 . S
C2191 H2165 0.950 . S
C2191 C2190 1.414 1_554 S
C2191 C2192 1.374 . S
C2192 H2166 0.950 . S
C2192 C2188 1.385 . S
C2192 C2191 1.374 . S
C2193 C2190 1.499 . S
C2193 C2194 1.373 . S
C2193 C2195 1.389 . S
C2194 H2167 0.950 . S
C2194 C2180 1.377 . S
C2194 C2193 1.373 . S
C2195 C2179 1.377 . S
C2195 C2193 1.389 . S
C2195 C2196 1.524 . S
C2196 C2195 1.524 . S
C2196 C2197 1.397 . S
C2196 C2201 1.363 . S
C2197 H2168 0.950 . S
C2197 C2196 1.397 . S
C2197 C2198 1.334 . S
C2198 H2169 0.950 . S
C2198 C2197 1.334 . S
C2198 C2199 1.287 . S
C2199 C2198 1.287 . S
C2199 C2200 1.524 . S
C2199 H2202 0.999 . S
C2200 H2170 0.950 . S
C2200 C2199 1.524 . S
C2200 C2201 1.415 . S
C2201 H2171 0.950 . S
C2201 C2196 1.363 . S
C2201 C2200 1.415 . S
H2202 C2199 0.999 . S
H2203 C2184 0.913 . S
H2204 C2222 0.951 . S
H2205 C2224 0.951 . S
H2206 C2226 0.950 . S
H2207 C2227 0.950 . S
H2208 C2229 0.950 . S
H2209 C2232 0.957 . S
H2210 C2233 0.950 . S
H2211 C2235 0.950 . S
H2212 C2236 0.950 . S
H2213 C2237 0.951 . S
H2214 C2239 0.951 . S
H2215 C2241 0.950 . S
H2216 C2242 0.950 . S
H2217 C2244 0.950 . S
H2218 C2247 0.950 . S
H2219 C2248 0.950 . S
H2220 C2250 0.950 . S
H2221 C2251 0.950 . S
C2222 H2204 0.951 . S
C2222 C2223 1.366 . S
C2222 C2224 1.388 . S
C2223 C2222 1.366 . S
C2223 C2227 1.385 . S
C2224 H2205 0.951 . S
C2224 C2222 1.388 . S
C2224 C2225 1.369 . S
C2225 C2224 1.369 . S
C2225 C2226 1.413 1_554 S
C2225 C2228 1.495 1_554 S
C2226 H2206 0.950 . S
C2226 C2225 1.413 1_556 S
C2226 C2227 1.374 1_556 S
C2227 H2207 0.950 . S
C2227 C2223 1.385 . S
C2227 C2226 1.374 1_554 S
C2228 C2225 1.495 1_556 S
C2228 C2229 1.373 . S
C2228 C2230 1.389 . S
C2229 H2208 0.950 . S
C2229 C2228 1.373 . S
C2229 C2245 1.377 . S
C2230 C2228 1.389 . S
C2230 C2231 1.524 1_556 S
C2230 C2244 1.377 . S
C2231 C2230 1.524 1_554 S
C2231 C2232 1.397 . S
C2231 C2236 1.363 . S
C2232 H2209 0.957 . S
C2232 C2231 1.397 . S
C2232 C2233 1.334 . S
C2233 H2210 0.950 . S
C2233 C2232 1.334 . S
C2233 C2234 1.287 . S
C2234 C2233 1.287 . S
C2234 C2235 1.524 . S
C2234 H2253 0.913 . S
C2235 H2211 0.950 . S
C2235 C2234 1.524 . S
C2235 C2236 1.415 . S
C2236 H2212 0.950 . S
C2236 C2231 1.363 . S
C2236 C2235 1.415 . S
C2237 H2213 0.951 . S
C2237 C2238 1.366 . S
C2237 C2239 1.388 . S
C2238 C2237 1.366 . S
C2238 C2242 1.385 . S
C2239 H2214 0.951 . S
C2239 C2237 1.388 . S
C2239 C2240 1.366 . S
C2240 C2239 1.366 . S
C2240 C2241 1.414 . S
C2240 C2243 1.499 . S
C2241 H2215 0.950 . S
C2241 C2240 1.414 . S
C2241 C2242 1.374 . S
C2242 H2216 0.950 . S
C2242 C2238 1.385 . S
C2242 C2241 1.374 . S
C2243 C2240 1.499 . S
C2243 C2244 1.373 . S
C2243 C2245 1.389 . S
C2244 H2217 0.950 . S
C2244 C2230 1.377 . S
C2244 C2243 1.373 . S
C2245 C2229 1.377 . S
C2245 C2243 1.389 . S
C2245 C2246 1.524 . S
C2246 C2245 1.524 . S
C2246 C2247 1.397 . S
C2246 C2251 1.363 . S
C2247 H2218 0.950 . S
C2247 C2246 1.397 . S
C2247 C2248 1.334 . S
C2248 H2219 0.950 . S
C2248 C2247 1.334 . S
C2248 C2249 1.287 . S
C2249 C2248 1.287 . S
C2249 C2250 1.524 . S
C2249 H2252 0.999 . S
C2250 H2220 0.950 . S
C2250 C2249 1.524 . S
C2250 C2251 1.415 . S
C2251 H2221 0.950 . S
C2251 C2246 1.363 . S
C2251 C2250 1.415 . S
H2252 C2249 0.999 . S
H2253 C2234 0.913 . S
H2254 C2272 0.951 . S
H2255 C2274 0.951 . S
H2256 C2276 0.950 . S
H2257 C2277 0.950 . S
H2258 C2279 0.950 . S
H2259 C2282 0.950 . S
H2260 C2283 0.950 . S
H2261 C2285 0.950 1_554 S
H2262 C2286 0.950 . S
H2263 C2287 0.951 . S
H2264 C2289 0.951 . S
H2265 C2291 0.950 . S
H2266 C2292 0.950 . S
H2267 C2294 0.950 . S
H2268 C2297 0.950 . S
H2269 C2298 0.950 . S
H2270 C2300 0.950 . S
H2271 C2301 0.950 . S
C2272 H2254 0.951 . S
C2272 C2273 1.366 . S
C2272 C2274 1.388 . S
C2273 C2272 1.366 . S
C2273 C2277 1.385 . S
C2274 H2255 0.951 . S
C2274 C2272 1.388 . S
C2274 C2275 1.366 . S
C2275 C2274 1.366 . S
C2275 C2276 1.414 . S
C2275 C2278 1.499 . S
C2276 H2256 0.950 . S
C2276 C2275 1.414 . S
C2276 C2277 1.374 . S
C2277 H2257 0.950 . S
C2277 C2273 1.385 . S
C2277 C2276 1.374 . S
C2278 C2275 1.499 . S
C2278 C2279 1.373 . S
C2278 C2280 1.389 . S
C2279 H2258 0.950 . S
C2279 C2278 1.373 . S
C2279 C2295 1.377 . S
C2280 C2278 1.389 . S
C2280 C2281 1.524 . S
C2280 C2294 1.377 . S
C2281 C2280 1.524 . S
C2281 C2282 1.397 . S
C2281 C2286 1.363 . S
C2282 H2259 0.950 . S
C2282 C2281 1.397 . S
C2282 C2283 1.334 . S
C2283 H2260 0.950 . S
C2283 C2282 1.334 . S
C2283 C2284 1.287 . S
C2284 C2283 1.287 . S
C2284 C2285 1.524 . S
C2284 H2303 0.913 . S
C2285 H2261 0.950 1_556 S
C2285 C2284 1.524 . S
C2285 C2286 1.415 . S
C2286 H2262 0.950 . S
C2286 C2281 1.363 . S
C2286 C2285 1.415 . S
C2287 H2263 0.951 . S
C2287 C2288 1.366 . S
C2287 C2289 1.388 1_554 S
C2288 C2287 1.366 . S
C2288 C2292 1.385 . S
C2289 H2264 0.951 . S
C2289 C2287 1.388 1_556 S
C2289 C2290 1.367 . S
C2290 C2289 1.367 . S
C2290 C2291 1.394 1_556 S
C2290 C2293 1.516 . S
C2291 H2265 0.950 . S
C2291 C2290 1.394 1_554 S
C2291 C2292 1.374 . S
C2292 H2266 0.950 . S
C2292 C2288 1.385 . S
C2292 C2291 1.374 . S
C2293 C2290 1.516 . S
C2293 C2294 1.373 . S
C2293 C2295 1.389 . S
C2294 H2267 0.950 . S
C2294 C2280 1.377 . S
C2294 C2293 1.373 . S
C2295 C2279 1.377 . S
C2295 C2293 1.389 . S
C2295 C2296 1.524 . S
C2296 C2295 1.524 . S
C2296 C2297 1.397 . S
C2296 C2301 1.363 . S
C2297 H2268 0.950 . S
C2297 C2296 1.397 . S
C2297 C2298 1.334 . S
C2298 H2269 0.950 . S
C2298 C2297 1.334 . S
C2298 C2299 1.287 . S
C2299 C2298 1.287 . S
C2299 C2300 1.524 . S
C2299 H2302 0.999 . S
C2300 H2270 0.950 . S
C2300 C2299 1.524 . S
C2300 C2301 1.415 . S
C2301 H2271 0.950 . S
C2301 C2296 1.363 . S
C2301 C2300 1.415 . S
H2302 C2299 0.999 . S
H2303 C2284 0.913 . S
H2304 C2322 0.951 . S
H2305 C2324 0.951 . S
H2306 C2326 0.950 . S
H2307 C2327 0.950 . S
H2308 C2329 0.950 . S
H2309 C2332 0.950 . S
H2310 C2333 0.950 . S
H2311 C2335 0.950 . S
H2312 C2336 0.950 . S
H2313 C2337 0.951 . S
H2314 C2339 0.951 . S
H2315 C2341 0.950 . S
H2316 C2342 0.950 . S
H2317 C2344 0.950 . S
H2318 C2347 0.950 . S
H2319 C2348 0.950 . S
H2320 C2350 0.950 . S
H2321 C2351 0.950 . S
C2322 H2304 0.951 . S
C2322 C2323 1.366 . S
C2322 C2324 1.388 . S
C2323 C2322 1.366 . S
C2323 C2327 1.385 . S
C2324 H2305 0.951 . S
C2324 C2322 1.388 . S
C2324 C2325 1.366 . S
C2325 C2324 1.366 . S
C2325 C2326 1.414 . S
C2325 C2328 1.499 . S
C2326 H2306 0.950 . S
C2326 C2325 1.414 . S
C2326 C2327 1.374 . S
C2327 H2307 0.950 . S
C2327 C2323 1.385 . S
C2327 C2326 1.374 . S
C2328 C2325 1.499 . S
C2328 C2329 1.373 . S
C2328 C2330 1.389 . S
C2329 H2308 0.950 . S
C2329 C2328 1.373 . S
C2329 C2345 1.377 . S
C2330 C2328 1.389 . S
C2330 C2331 1.524 . S
C2330 C2344 1.377 . S
C2331 C2330 1.524 . S
C2331 C2332 1.397 . S
C2331 C2336 1.363 . S
C2332 H2309 0.950 . S
C2332 C2331 1.397 . S
C2332 C2333 1.334 . S
C2333 H2310 0.950 . S
C2333 C2332 1.334 . S
C2333 C2334 1.287 . S
C2334 C2333 1.287 . S
C2334 C2335 1.524 . S
C2334 H2353 0.913 . S
C2335 H2311 0.950 . S
C2335 C2334 1.524 . S
C2335 C2336 1.415 . S
C2336 H2312 0.950 . S
C2336 C2331 1.363 . S
C2336 C2335 1.415 . S
C2337 H2313 0.951 . S
C2337 C2338 1.366 . S
C2337 C2339 1.388 . S
C2338 C2337 1.366 . S
C2338 C2342 1.385 . S
C2339 H2314 0.951 . S
C2339 C2337 1.388 . S
C2339 C2340 1.366 . S
C2340 C2339 1.366 . S
C2340 C2341 1.414 . S
C2340 C2343 1.499 . S
C2341 H2315 0.950 . S
C2341 C2340 1.414 . S
C2341 C2342 1.374 . S
C2342 H2316 0.950 . S
C2342 C2338 1.385 . S
C2342 C2341 1.374 . S
C2343 C2340 1.499 . S
C2343 C2344 1.373 . S
C2343 C2345 1.389 . S
C2344 H2317 0.950 . S
C2344 C2330 1.377 . S
C2344 C2343 1.373 . S
C2345 C2329 1.377 . S
C2345 C2343 1.389 . S
C2345 C2346 1.524 . S
C2346 C2345 1.524 . S
C2346 C2347 1.397 . S
C2346 C2351 1.363 . S
C2347 H2318 0.950 . S
C2347 C2346 1.397 . S
C2347 C2348 1.334 . S
C2348 H2319 0.950 . S
C2348 C2347 1.334 . S
C2348 C2349 1.287 . S
C2349 C2348 1.287 . S
C2349 C2350 1.524 . S
C2349 H2352 0.999 . S
C2350 H2320 0.950 . S
C2350 C2349 1.524 . S
C2350 C2351 1.415 . S
C2351 H2321 0.950 . S
C2351 C2346 1.363 . S
C2351 C2350 1.415 . S
H2352 C2349 0.999 . S
H2353 C2334 0.913 . S
H2354 C2372 0.951 . S
H2355 C2374 0.951 . S
H2356 C2376 0.950 . S
H2357 C2377 0.950 . S
H2358 C2379 0.950 . S
H2359 C2382 0.950 . S
H2360 C2383 0.950 . S
H2361 C2385 0.950 . S
H2362 C2386 0.950 . S
H2363 C2387 0.951 . S
H2364 C2389 0.951 . S
H2365 C2391 0.950 . S
H2366 C2392 0.950 . S
H2367 C2394 0.950 . S
H2368 C2397 0.950 . S
H2369 C2398 0.950 . S
H2370 C2400 0.950 . S
H2371 C2401 0.950 . S
C2372 H2354 0.951 . S
C2372 C2373 1.366 . S
C2372 C2374 1.388 . S
C2373 C2372 1.366 . S
C2373 C2377 1.385 . S
C2374 H2355 0.951 . S
C2374 C2372 1.388 . S
C2374 C2375 1.366 . S
C2375 C2374 1.366 . S
C2375 C2376 1.414 . S
C2375 C2378 1.499 . S
C2376 H2356 0.950 . S
C2376 C2375 1.414 . S
C2376 C2377 1.374 . S
C2377 H2357 0.950 . S
C2377 C2373 1.385 . S
C2377 C2376 1.374 . S
C2378 C2375 1.499 . S
C2378 C2379 1.373 . S
C2378 C2380 1.389 . S
C2379 H2358 0.950 . S
C2379 C2378 1.373 . S
C2379 C2395 1.377 . S
C2380 C2378 1.389 . S
C2380 C2381 1.524 . S
C2380 C2394 1.377 . S
C2381 C2380 1.524 . S
C2381 C2382 1.397 . S
C2381 C2386 1.363 . S
C2382 H2359 0.950 . S
C2382 C2381 1.397 . S
C2382 C2383 1.334 . S
C2383 H2360 0.950 . S
C2383 C2382 1.334 . S
C2383 C2384 1.287 . S
C2384 C2383 1.287 . S
C2384 C2385 1.524 . S
C2384 H2403 0.913 . S
C2385 H2361 0.950 . S
C2385 C2384 1.524 . S
C2385 C2386 1.415 . S
C2386 H2362 0.950 . S
C2386 C2381 1.363 . S
C2386 C2385 1.415 . S
C2387 H2363 0.951 . S
C2387 C2388 1.366 . S
C2387 C2389 1.388 . S
C2388 C2387 1.366 . S
C2388 C2392 1.385 . S
C2389 H2364 0.951 . S
C2389 C2387 1.388 . S
C2389 C2390 1.366 . S
C2390 C2389 1.366 . S
C2390 C2391 1.414 . S
C2390 C2393 1.499 . S
C2391 H2365 0.950 . S
C2391 C2390 1.414 . S
C2391 C2392 1.374 . S
C2392 H2366 0.950 . S
C2392 C2388 1.385 . S
C2392 C2391 1.374 . S
C2393 C2390 1.499 . S
C2393 C2394 1.373 . S
C2393 C2395 1.389 . S
C2394 H2367 0.950 . S
C2394 C2380 1.377 . S
C2394 C2393 1.373 . S
C2395 C2379 1.377 . S
C2395 C2393 1.389 . S
C2395 C2396 1.524 . S
C2396 C2395 1.524 . S
C2396 C2397 1.397 . S
C2396 C2401 1.363 . S
C2397 H2368 0.950 . S
C2397 C2396 1.397 . S
C2397 C2398 1.334 . S
C2398 H2369 0.950 . S
C2398 C2397 1.334 . S
C2398 C2399 1.287 . S
C2399 C2398 1.287 . S
C2399 C2400 1.524 . S
C2399 H2402 0.999 . S
C2400 H2370 0.950 . S
C2400 C2399 1.524 . S
C2400 C2401 1.415 . S
C2401 H2371 0.950 . S
C2401 C2396 1.363 . S
C2401 C2400 1.415 . S
H2402 C2399 0.999 . S
H2403 C2384 0.913 . S
H2404 C2422 0.951 . S
H2405 C2424 0.951 . S
H2406 C2426 0.950 . S
H2407 C2427 0.950 . S
H2408 C2429 0.950 . S
H2409 C2432 0.950 . S
H2410 C2433 0.950 . S
H2411 C2435 0.950 . S
H2412 C2436 0.950 . S
H2413 C2437 0.951 . S
H2414 C2439 0.951 . S
H2415 C2441 0.950 . S
H2416 C2442 0.950 . S
H2417 C2444 0.950 . S
H2418 C2447 0.950 . S
H2419 C2448 0.950 . S
H2420 C2450 0.950 . S
H2421 C2451 0.950 . S
C2422 H2404 0.951 . S
C2422 C2423 1.366 . S
C2422 C2424 1.388 . S
C2423 C2422 1.366 . S
C2423 C2427 1.385 . S
C2424 H2405 0.951 . S
C2424 C2422 1.388 . S
C2424 C2425 1.366 . S
C2425 C2424 1.366 . S
C2425 C2426 1.414 . S
C2425 C2428 1.499 . S
C2426 H2406 0.950 . S
C2426 C2425 1.414 . S
C2426 C2427 1.374 . S
C2427 H2407 0.950 . S
C2427 C2423 1.385 . S
C2427 C2426 1.374 . S
C2428 C2425 1.499 . S
C2428 C2429 1.373 . S
C2428 C2430 1.389 . S
C2429 H2408 0.950 . S
C2429 C2428 1.373 . S
C2429 C2445 1.377 . S
C2430 C2428 1.389 . S
C2430 C2431 1.524 . S
C2430 C2444 1.377 . S
C2431 C2430 1.524 . S
C2431 C2432 1.397 . S
C2431 C2436 1.363 . S
C2432 H2409 0.950 . S
C2432 C2431 1.397 . S
C2432 C2433 1.334 . S
C2433 H2410 0.950 . S
C2433 C2432 1.334 . S
C2433 C2434 1.287 . S
C2434 C2433 1.287 . S
C2434 C2435 1.524 . S
C2434 H2453 0.913 . S
C2435 H2411 0.950 . S
C2435 C2434 1.524 . S
C2435 C2436 1.415 . S
C2436 H2412 0.950 . S
C2436 C2431 1.363 . S
C2436 C2435 1.415 . S
C2437 H2413 0.951 . S
C2437 C2438 1.366 . S
C2437 C2439 1.388 . S
C2438 C2437 1.366 . S
C2438 C2442 1.385 . S
C2439 H2414 0.951 . S
C2439 C2437 1.388 . S
C2439 C2440 1.366 . S
C2440 C2439 1.366 . S
C2440 C2441 1.414 . S
C2440 C2443 1.499 . S
C2441 H2415 0.950 . S
C2441 C2440 1.414 . S
C2441 C2442 1.374 . S
C2442 H2416 0.950 . S
C2442 C2438 1.385 . S
C2442 C2441 1.374 . S
C2443 C2440 1.499 . S
C2443 C2444 1.373 . S
C2443 C2445 1.389 . S
C2444 H2417 0.950 . S
C2444 C2430 1.377 . S
C2444 C2443 1.373 . S
C2445 C2429 1.377 . S
C2445 C2443 1.389 . S
C2445 C2446 1.524 . S
C2446 C2445 1.524 . S
C2446 C2447 1.397 . S
C2446 C2451 1.363 . S
C2447 H2418 0.950 . S
C2447 C2446 1.397 . S
C2447 C2448 1.334 . S
C2448 H2419 0.950 . S
C2448 C2447 1.334 . S
C2448 C2449 1.287 . S
C2449 C2448 1.287 . S
C2449 C2450 1.524 . S
C2449 H2452 0.999 . S
C2450 H2420 0.950 . S
C2450 C2449 1.524 . S
C2450 C2451 1.415 . S
C2451 H2421 0.950 . S
C2451 C2446 1.363 . S
C2451 C2450 1.415 . S
H2452 C2449 0.999 . S
H2453 C2434 0.913 . S
H2454 C2472 0.951 . S
H2455 C2474 0.951 . S
H2456 C2476 0.950 . S
H2457 C2477 0.950 . S
H2458 C2479 0.950 . S
H2459 C2482 0.950 . S
H2460 C2483 0.950 . S
H2461 C2485 0.950 . S
H2462 C2486 0.950 . S
H2463 C2487 0.951 . S
H2464 C2489 0.951 . S
H2465 C2491 0.950 . S
H2466 C2492 0.950 . S
H2467 C2494 0.950 . S
H2468 C2497 0.950 . S
H2469 C2498 0.950 . S
H2470 C2500 0.950 . S
H2471 C2501 0.950 . S
C2472 H2454 0.951 . S
C2472 C2473 1.366 . S
C2472 C2474 1.388 . S
C2473 C2472 1.366 . S
C2473 C2477 1.385 . S
C2474 H2455 0.951 . S
C2474 C2472 1.388 . S
C2474 C2475 1.366 . S
C2475 C2474 1.366 . S
C2475 C2476 1.414 . S
C2475 C2478 1.499 . S
C2476 H2456 0.950 . S
C2476 C2475 1.414 . S
C2476 C2477 1.374 . S
C2477 H2457 0.950 . S
C2477 C2473 1.385 . S
C2477 C2476 1.374 . S
C2478 C2475 1.499 . S
C2478 C2479 1.373 . S
C2478 C2480 1.389 . S
C2479 H2458 0.950 . S
C2479 C2478 1.373 . S
C2479 C2495 1.377 . S
C2480 C2478 1.389 . S
C2480 C2481 1.524 . S
C2480 C2494 1.377 . S
C2481 C2480 1.524 . S
C2481 C2482 1.397 . S
C2481 C2486 1.363 . S
C2482 H2459 0.950 . S
C2482 C2481 1.397 . S
C2482 C2483 1.334 . S
C2483 H2460 0.950 . S
C2483 C2482 1.334 . S
C2483 C2484 1.287 . S
C2484 C2483 1.287 . S
C2484 C2485 1.524 . S
C2484 H2503 0.913 . S
C2485 H2461 0.950 . S
C2485 C2484 1.524 . S
C2485 C2486 1.415 . S
C2486 H2462 0.950 . S
C2486 C2481 1.363 . S
C2486 C2485 1.415 . S
C2487 H2463 0.951 . S
C2487 C2488 1.366 . S
C2487 C2489 1.388 . S
C2488 C2487 1.366 . S
C2488 C2492 1.385 . S
C2489 H2464 0.951 . S
C2489 C2487 1.388 . S
C2489 C2490 1.366 . S
C2490 C2489 1.366 . S
C2490 C2491 1.414 . S
C2490 C2493 1.499 . S
C2491 H2465 0.950 . S
C2491 C2490 1.414 . S
C2491 C2492 1.374 . S
C2492 H2466 0.950 . S
C2492 C2488 1.385 . S
C2492 C2491 1.374 . S
C2493 C2490 1.499 . S
C2493 C2494 1.373 . S
C2493 C2495 1.389 . S
C2494 H2467 0.950 . S
C2494 C2480 1.377 . S
C2494 C2493 1.373 . S
C2495 C2479 1.377 . S
C2495 C2493 1.389 . S
C2495 C2496 1.524 . S
C2496 C2495 1.524 . S
C2496 C2497 1.397 . S
C2496 C2501 1.363 . S
C2497 H2468 0.950 . S
C2497 C2496 1.397 . S
C2497 C2498 1.334 . S
C2498 H2469 0.950 . S
C2498 C2497 1.334 . S
C2498 C2499 1.287 . S
C2499 C2498 1.287 . S
C2499 C2500 1.524 . S
C2499 H2502 0.999 . S
C2500 H2470 0.950 . S
C2500 C2499 1.524 . S
C2500 C2501 1.415 . S
C2501 H2471 0.950 . S
C2501 C2496 1.363 . S
C2501 C2500 1.415 . S
H2502 C2499 0.999 . S
H2503 C2484 0.913 . S
H2504 C2522 0.951 . S
H2505 C2524 0.951 . S
H2506 C2526 0.950 . S
H2507 C2527 0.950 . S
H2508 C2529 0.950 . S
H2509 C2532 0.950 . S
H2510 C2533 0.950 . S
H2511 C2535 0.950 . S
H2512 C2536 0.950 . S
H2513 C2537 0.951 . S
H2514 C2539 0.951 . S
H2515 C2541 0.950 . S
H2516 C2542 0.950 . S
H2517 C2544 0.950 . S
H2518 C2547 0.950 . S
H2519 C2548 0.950 . S
H2520 C2550 0.950 . S
H2521 C2551 0.950 . S
C2522 H2504 0.951 . S
C2522 C2523 1.366 . S
C2522 C2524 1.388 . S
C2523 C2522 1.366 . S
C2523 C2527 1.385 . S
C2524 H2505 0.951 . S
C2524 C2522 1.388 . S
C2524 C2525 1.366 . S
C2525 C2524 1.366 . S
C2525 C2526 1.414 . S
C2525 C2528 1.499 . S
C2526 H2506 0.950 . S
C2526 C2525 1.414 . S
C2526 C2527 1.374 . S
C2527 H2507 0.950 . S
C2527 C2523 1.385 . S
C2527 C2526 1.374 . S
C2528 C2525 1.499 . S
C2528 C2529 1.373 . S
C2528 C2530 1.389 . S
C2529 H2508 0.950 . S
C2529 C2528 1.373 . S
C2529 C2545 1.377 . S
C2530 C2528 1.389 . S
C2530 C2531 1.524 . S
C2530 C2544 1.377 . S
C2531 C2530 1.524 . S
C2531 C2532 1.397 . S
C2531 C2536 1.363 . S
C2532 H2509 0.950 . S
C2532 C2531 1.397 . S
C2532 C2533 1.334 . S
C2533 H2510 0.950 . S
C2533 C2532 1.334 . S
C2533 C2534 1.287 . S
C2534 C2533 1.287 . S
C2534 C2535 1.524 . S
C2534 H2553 0.913 . S
C2535 H2511 0.950 . S
C2535 C2534 1.524 . S
C2535 C2536 1.415 . S
C2536 H2512 0.950 . S
C2536 C2531 1.363 . S
C2536 C2535 1.415 . S
C2537 H2513 0.951 . S
C2537 C2538 1.366 . S
C2537 C2539 1.388 . S
C2538 C2537 1.366 . S
C2538 C2542 1.385 . S
C2539 H2514 0.951 . S
C2539 C2537 1.388 . S
C2539 C2540 1.366 . S
C2540 C2539 1.366 . S
C2540 C2541 1.414 . S
C2540 C2543 1.499 . S
C2541 H2515 0.950 . S
C2541 C2540 1.414 . S
C2541 C2542 1.374 . S
C2542 H2516 0.950 . S
C2542 C2538 1.385 . S
C2542 C2541 1.374 . S
C2543 C2540 1.499 . S
C2543 C2544 1.373 . S
C2543 C2545 1.389 . S
C2544 H2517 0.950 . S
C2544 C2530 1.377 . S
C2544 C2543 1.373 . S
C2545 C2529 1.377 . S
C2545 C2543 1.389 . S
C2545 C2546 1.524 . S
C2546 C2545 1.524 . S
C2546 C2547 1.397 . S
C2546 C2551 1.363 . S
C2547 H2518 0.950 . S
C2547 C2546 1.397 . S
C2547 C2548 1.334 . S
C2548 H2519 0.950 . S
C2548 C2547 1.334 . S
C2548 C2549 1.287 . S
C2549 C2548 1.287 . S
C2549 C2550 1.524 . S
C2549 H2552 0.999 . S
C2550 H2520 0.950 . S
C2550 C2549 1.524 . S
C2550 C2551 1.415 . S
C2551 H2521 0.950 . S
C2551 C2546 1.363 . S
C2551 C2550 1.415 . S
H2552 C2549 0.999 . S
H2553 C2534 0.913 . S
H2554 C2572 0.951 . S
H2555 C2574 0.951 . S
H2556 C2576 0.950 . S
H2557 C2577 0.950 . S
H2558 C2579 0.950 . S
H2559 C2582 0.950 . S
H2560 C2583 0.950 . S
H2561 C2585 0.950 . S
H2562 C2586 0.950 . S
H2563 C2587 0.951 . S
H2564 C2589 0.951 . S
H2565 C2591 0.950 . S
H2566 C2592 0.950 . S
H2567 C2594 0.950 . S
H2568 C2597 0.950 . S
H2569 C2598 0.950 . S
H2570 C2600 0.950 . S
H2571 C2601 0.950 . S
C2572 H2554 0.951 . S
C2572 C2573 1.366 . S
C2572 C2574 1.388 . S
C2573 C2572 1.366 . S
C2573 C2577 1.385 . S
C2574 H2555 0.951 . S
C2574 C2572 1.388 . S
C2574 C2575 1.366 . S
C2575 C2574 1.366 . S
C2575 C2576 1.414 . S
C2575 C2578 1.499 . S
C2576 H2556 0.950 . S
C2576 C2575 1.414 . S
C2576 C2577 1.374 . S
C2577 H2557 0.950 . S
C2577 C2573 1.385 . S
C2577 C2576 1.374 . S
C2578 C2575 1.499 . S
C2578 C2579 1.373 . S
C2578 C2580 1.389 . S
C2579 H2558 0.950 . S
C2579 C2578 1.373 . S
C2579 C2595 1.377 . S
C2580 C2578 1.389 . S
C2580 C2581 1.524 . S
C2580 C2594 1.377 . S
C2581 C2580 1.524 . S
C2581 C2582 1.397 . S
C2581 C2586 1.363 . S
C2582 H2559 0.950 . S
C2582 C2581 1.397 . S
C2582 C2583 1.334 . S
C2583 H2560 0.950 . S
C2583 C2582 1.334 . S
C2583 C2584 1.287 . S
C2584 C2583 1.287 . S
C2584 C2585 1.524 . S
C2584 H2603 0.913 . S
C2585 H2561 0.950 . S
C2585 C2584 1.524 . S
C2585 C2586 1.415 . S
C2586 H2562 0.950 . S
C2586 C2581 1.363 . S
C2586 C2585 1.415 . S
C2587 H2563 0.951 . S
C2587 C2588 1.366 . S
C2587 C2589 1.388 . S
C2588 C2587 1.366 . S
C2588 C2592 1.385 . S
C2589 H2564 0.951 . S
C2589 C2587 1.388 . S
C2589 C2590 1.366 . S
C2590 C2589 1.366 . S
C2590 C2591 1.414 . S
C2590 C2593 1.499 . S
C2591 H2565 0.950 . S
C2591 C2590 1.414 . S
C2591 C2592 1.374 . S
C2592 H2566 0.950 . S
C2592 C2588 1.385 . S
C2592 C2591 1.374 . S
C2593 C2590 1.499 . S
C2593 C2594 1.373 . S
C2593 C2595 1.389 . S
C2594 H2567 0.950 . S
C2594 C2580 1.377 . S
C2594 C2593 1.373 . S
C2595 C2579 1.377 . S
C2595 C2593 1.389 . S
C2595 C2596 1.524 . S
C2596 C2595 1.524 . S
C2596 C2597 1.397 . S
C2596 C2601 1.363 . S
C2597 H2568 0.950 . S
C2597 C2596 1.397 . S
C2597 C2598 1.334 . S
C2598 H2569 0.950 . S
C2598 C2597 1.334 . S
C2598 C2599 1.287 . S
C2599 C2598 1.287 . S
C2599 C2600 1.524 . S
C2599 H2602 0.999 . S
C2600 H2570 0.950 . S
C2600 C2599 1.524 . S
C2600 C2601 1.415 . S
C2601 H2571 0.950 . S
C2601 C2596 1.363 . S
C2601 C2600 1.415 . S
H2602 C2599 0.999 . S
H2603 C2584 0.913 . S
H2604 C2622 0.951 . S
H2605 C2624 0.951 . S
H2606 C2626 0.950 . S
H2607 C2627 0.950 . S
H2608 C2629 0.950 . S
H2609 C2632 0.950 . S
H2610 C2633 0.950 . S
H2611 C2635 0.950 . S
H2612 C2636 0.950 . S
H2613 C2637 0.951 . S
H2614 C2639 0.951 . S
H2615 C2641 0.950 . S
H2616 C2642 0.950 . S
H2617 C2644 0.950 . S
H2618 C2647 0.950 . S
H2619 C2648 0.950 . S
H2620 C2650 0.950 . S
H2621 C2651 0.950 . S
C2622 H2604 0.951 . S
C2622 C2623 1.366 . S
C2622 C2624 1.388 . S
C2623 C2622 1.366 . S
C2623 C2627 1.385 . S
C2624 H2605 0.951 . S
C2624 C2622 1.388 . S
C2624 C2625 1.366 . S
C2625 C2624 1.366 . S
C2625 C2626 1.414 . S
C2625 C2628 1.499 . S
C2626 H2606 0.950 . S
C2626 C2625 1.414 . S
C2626 C2627 1.374 . S
C2627 H2607 0.950 . S
C2627 C2623 1.385 . S
C2627 C2626 1.374 . S
C2628 C2625 1.499 . S
C2628 C2629 1.373 . S
C2628 C2630 1.389 . S
C2629 H2608 0.950 . S
C2629 C2628 1.373 . S
C2629 C2645 1.377 . S
C2630 C2628 1.389 . S
C2630 C2631 1.524 . S
C2630 C2644 1.377 . S
C2631 C2630 1.524 . S
C2631 C2632 1.397 . S
C2631 C2636 1.363 . S
C2632 H2609 0.950 . S
C2632 C2631 1.397 . S
C2632 C2633 1.334 . S
C2633 H2610 0.950 . S
C2633 C2632 1.334 . S
C2633 C2634 1.287 . S
C2634 C2633 1.287 . S
C2634 C2635 1.524 . S
C2634 H2653 0.913 . S
C2635 H2611 0.950 . S
C2635 C2634 1.524 . S
C2635 C2636 1.415 . S
C2636 H2612 0.950 . S
C2636 C2631 1.363 . S
C2636 C2635 1.415 . S
C2637 H2613 0.951 . S
C2637 C2638 1.366 . S
C2637 C2639 1.388 . S
C2638 C2637 1.366 . S
C2638 C2642 1.385 . S
C2639 H2614 0.951 . S
C2639 C2637 1.388 . S
C2639 C2640 1.366 . S
C2640 C2639 1.366 . S
C2640 C2641 1.414 . S
C2640 C2643 1.499 . S
C2641 H2615 0.950 . S
C2641 C2640 1.414 . S
C2641 C2642 1.374 . S
C2642 H2616 0.950 . S
C2642 C2638 1.385 . S
C2642 C2641 1.374 . S
C2643 C2640 1.499 . S
C2643 C2644 1.373 . S
C2643 C2645 1.389 . S
C2644 H2617 0.950 . S
C2644 C2630 1.377 . S
C2644 C2643 1.373 . S
C2645 C2629 1.377 . S
C2645 C2643 1.389 . S
C2645 C2646 1.524 . S
C2646 C2645 1.524 . S
C2646 C2647 1.397 . S
C2646 C2651 1.363 . S
C2647 H2618 0.950 . S
C2647 C2646 1.397 . S
C2647 C2648 1.334 . S
C2648 H2619 0.950 . S
C2648 C2647 1.334 . S
C2648 C2649 1.287 . S
C2649 C2648 1.287 . S
C2649 C2650 1.524 . S
C2649 H2652 0.999 . S
C2650 H2620 0.950 . S
C2650 C2649 1.524 . S
C2650 C2651 1.415 . S
C2651 H2621 0.950 . S
C2651 C2646 1.363 . S
C2651 C2650 1.415 . S
H2652 C2649 0.999 . S
H2653 C2634 0.913 . S
H2654 C2672 0.951 . S
H2655 C2674 0.951 . S
H2656 C2676 0.950 . S
H2657 C2677 0.950 . S
H2658 C2679 0.950 . S
H2659 C2682 0.950 . S
H2660 C2683 0.950 . S
H2661 C2685 0.950 . S
H2662 C2686 0.950 . S
H2663 C2687 0.951 . S
H2664 C2689 0.951 . S
H2665 C2691 0.950 . S
H2666 C2692 0.950 . S
H2667 C2694 0.950 . S
H2668 C2697 0.950 . S
H2669 C2698 0.950 . S
H2670 C2700 0.950 . S
H2671 C2701 0.950 . S
C2672 H2654 0.951 . S
C2672 C2673 1.366 . S
C2672 C2674 1.388 . S
C2673 C2672 1.366 . S
C2673 C2677 1.385 . S
C2674 H2655 0.951 . S
C2674 C2672 1.388 . S
C2674 C2675 1.366 . S
C2675 C2674 1.366 . S
C2675 C2676 1.414 . S
C2675 C2678 1.499 . S
C2676 H2656 0.950 . S
C2676 C2675 1.414 . S
C2676 C2677 1.374 . S
C2677 H2657 0.950 . S
C2677 C2673 1.385 . S
C2677 C2676 1.374 . S
C2678 C2675 1.499 . S
C2678 C2679 1.373 . S
C2678 C2680 1.389 . S
C2679 H2658 0.950 . S
C2679 C2678 1.373 . S
C2679 C2695 1.377 . S
C2680 C2678 1.389 . S
C2680 C2681 1.524 . S
C2680 C2694 1.377 . S
C2681 C2680 1.524 . S
C2681 C2682 1.397 . S
C2681 C2686 1.363 . S
C2682 H2659 0.950 . S
C2682 C2681 1.397 . S
C2682 C2683 1.334 . S
C2683 H2660 0.950 . S
C2683 C2682 1.334 . S
C2683 C2684 1.287 . S
C2684 C2683 1.287 . S
C2684 C2685 1.524 . S
C2684 H2703 0.913 . S
C2685 H2661 0.950 . S
C2685 C2684 1.524 . S
C2685 C2686 1.415 . S
C2686 H2662 0.950 . S
C2686 C2681 1.363 . S
C2686 C2685 1.415 . S
C2687 H2663 0.951 . S
C2687 C2688 1.366 . S
C2687 C2689 1.388 . S
C2688 C2687 1.366 . S
C2688 C2692 1.385 . S
C2689 H2664 0.951 . S
C2689 C2687 1.388 . S
C2689 C2690 1.366 . S
C2690 C2689 1.366 . S
C2690 C2691 1.414 . S
C2690 C2693 1.499 . S
C2691 H2665 0.950 . S
C2691 C2690 1.414 . S
C2691 C2692 1.374 . S
C2692 H2666 0.950 . S
C2692 C2688 1.385 . S
C2692 C2691 1.374 . S
C2693 C2690 1.499 . S
C2693 C2694 1.373 . S
C2693 C2695 1.389 . S
C2694 H2667 0.950 . S
C2694 C2680 1.377 . S
C2694 C2693 1.373 . S
C2695 C2679 1.377 . S
C2695 C2693 1.389 . S
C2695 C2696 1.524 . S
C2696 C2695 1.524 . S
C2696 C2697 1.397 . S
C2696 C2701 1.363 . S
C2697 H2668 0.950 . S
C2697 C2696 1.397 . S
C2697 C2698 1.334 . S
C2698 H2669 0.950 . S
C2698 C2697 1.334 . S
C2698 C2699 1.287 . S
C2699 C2698 1.287 . S
C2699 C2700 1.524 . S
C2699 H2702 0.999 . S
C2700 H2670 0.950 . S
C2700 C2699 1.524 . S
C2700 C2701 1.415 . S
C2701 H2671 0.950 . S
C2701 C2696 1.363 . S
C2701 C2700 1.415 . S
H2702 C2699 0.999 . S
H2703 C2684 0.913 . S
H2704 C2722 0.951 . S
H2705 C2724 0.951 . S
H2706 C2726 0.950 . S
H2707 C2727 0.950 . S
H2708 C2729 0.950 . S
H2709 C2732 0.950 . S
H2710 C2733 0.950 . S
H2711 C2735 0.950 . S
H2712 C2736 0.950 . S
H2713 C2737 0.951 . S
H2714 C2739 0.951 . S
H2715 C2741 0.950 . S
H2716 C2742 0.950 . S
H2717 C2744 0.950 . S
H2718 C2747 0.950 . S
H2719 C2748 0.950 . S
H2720 C2750 0.950 . S
H2721 C2751 0.950 . S
C2722 H2704 0.951 . S
C2722 C2723 1.366 . S
C2722 C2724 1.388 . S
C2723 C2722 1.366 . S
C2723 C2727 1.385 . S
C2724 H2705 0.951 . S
C2724 C2722 1.388 . S
C2724 C2725 1.366 . S
C2725 C2724 1.366 . S
C2725 C2726 1.414 . S
C2725 C2728 1.499 . S
C2726 H2706 0.950 . S
C2726 C2725 1.414 . S
C2726 C2727 1.374 . S
C2727 H2707 0.950 . S
C2727 C2723 1.385 . S
C2727 C2726 1.374 . S
C2728 C2725 1.499 . S
C2728 C2729 1.373 . S
C2728 C2730 1.389 . S
C2729 H2708 0.950 . S
C2729 C2728 1.373 . S
C2729 C2745 1.377 . S
C2730 C2728 1.389 . S
C2730 C2731 1.524 . S
C2730 C2744 1.377 . S
C2731 C2730 1.524 . S
C2731 C2732 1.397 . S
C2731 C2736 1.363 . S
C2732 H2709 0.950 . S
C2732 C2731 1.397 . S
C2732 C2733 1.334 . S
C2733 H2710 0.950 . S
C2733 C2732 1.334 . S
C2733 C2734 1.287 . S
C2734 C2733 1.287 . S
C2734 C2735 1.524 . S
C2734 H2753 0.913 . S
C2735 H2711 0.950 . S
C2735 C2734 1.524 . S
C2735 C2736 1.415 . S
C2736 H2712 0.950 . S
C2736 C2731 1.363 . S
C2736 C2735 1.415 . S
C2737 H2713 0.951 . S
C2737 C2738 1.366 . S
C2737 C2739 1.388 . S
C2738 C2737 1.366 . S
C2738 C2742 1.385 . S
C2739 H2714 0.951 . S
C2739 C2737 1.388 . S
C2739 C2740 1.366 . S
C2740 C2739 1.366 . S
C2740 C2741 1.414 . S
C2740 C2743 1.499 . S
C2741 H2715 0.950 . S
C2741 C2740 1.414 . S
C2741 C2742 1.374 . S
C2742 H2716 0.950 . S
C2742 C2738 1.385 . S
C2742 C2741 1.374 . S
C2743 C2740 1.499 . S
C2743 C2744 1.373 . S
C2743 C2745 1.389 . S
C2744 H2717 0.950 . S
C2744 C2730 1.377 . S
C2744 C2743 1.373 . S
C2745 C2729 1.377 . S
C2745 C2743 1.389 . S
C2745 C2746 1.524 . S
C2746 C2745 1.524 . S
C2746 C2747 1.397 . S
C2746 C2751 1.363 . S
C2747 H2718 0.950 . S
C2747 C2746 1.397 . S
C2747 C2748 1.334 . S
C2748 H2719 0.950 . S
C2748 C2747 1.334 . S
C2748 C2749 1.287 . S
C2749 C2748 1.287 . S
C2749 C2750 1.524 . S
C2749 H2752 0.999 . S
C2750 H2720 0.950 . S
C2750 C2749 1.524 . S
C2750 C2751 1.415 . S
C2751 H2721 0.950 . S
C2751 C2746 1.363 . S
C2751 C2750 1.415 . S
H2752 C2749 0.999 . S
H2753 C2734 0.913 . S
H2754 C2772 0.951 . S
H2755 C2774 0.951 . S
H2756 C2776 0.950 . S
H2757 C2777 0.950 . S
H2758 C2779 0.950 . S
H2759 C2782 0.950 . S
H2760 C2783 0.950 . S
H2761 C2785 0.950 . S
H2762 C2786 0.950 . S
H2763 C2787 0.951 . S
H2764 C2789 0.951 . S
H2765 C2791 0.950 . S
H2766 C2792 0.950 . S
H2767 C2794 0.950 . S
H2768 C2797 0.950 . S
H2769 C2798 0.950 . S
H2770 C2800 0.950 . S
H2771 C2801 0.950 . S
C2772 H2754 0.951 . S
C2772 C2773 1.366 . S
C2772 C2774 1.388 . S
C2773 C2772 1.366 . S
C2773 C2777 1.385 . S
C2774 H2755 0.951 . S
C2774 C2772 1.388 . S
C2774 C2775 1.366 . S
C2775 C2774 1.366 . S
C2775 C2776 1.414 . S
C2775 C2778 1.499 . S
C2776 H2756 0.950 . S
C2776 C2775 1.414 . S
C2776 C2777 1.374 . S
C2777 H2757 0.950 . S
C2777 C2773 1.385 . S
C2777 C2776 1.374 . S
C2778 C2775 1.499 . S
C2778 C2779 1.373 . S
C2778 C2780 1.389 . S
C2779 H2758 0.950 . S
C2779 C2778 1.373 . S
C2779 C2795 1.377 . S
C2780 C2778 1.389 . S
C2780 C2781 1.524 . S
C2780 C2794 1.377 . S
C2781 C2780 1.524 . S
C2781 C2782 1.397 . S
C2781 C2786 1.363 . S
C2782 H2759 0.950 . S
C2782 C2781 1.397 . S
C2782 C2783 1.334 . S
C2783 H2760 0.950 . S
C2783 C2782 1.334 . S
C2783 C2784 1.287 . S
C2784 C2783 1.287 . S
C2784 C2785 1.524 . S
C2784 H2803 0.913 . S
C2785 H2761 0.950 . S
C2785 C2784 1.524 . S
C2785 C2786 1.415 . S
C2786 H2762 0.950 . S
C2786 C2781 1.363 . S
C2786 C2785 1.415 . S
C2787 H2763 0.951 . S
C2787 C2788 1.366 . S
C2787 C2789 1.388 . S
C2788 C2787 1.366 . S
C2788 C2792 1.385 . S
C2789 H2764 0.951 . S
C2789 C2787 1.388 . S
C2789 C2790 1.366 . S
C2790 C2789 1.366 . S
C2790 C2791 1.414 . S
C2790 C2793 1.499 . S
C2791 H2765 0.950 . S
C2791 C2790 1.414 . S
C2791 C2792 1.374 . S
C2792 H2766 0.950 . S
C2792 C2788 1.385 . S
C2792 C2791 1.374 . S
C2793 C2790 1.499 . S
C2793 C2794 1.373 . S
C2793 C2795 1.389 . S
C2794 H2767 0.950 . S
C2794 C2780 1.377 . S
C2794 C2793 1.373 . S
C2795 C2779 1.377 . S
C2795 C2793 1.389 . S
C2795 C2796 1.524 . S
C2796 C2795 1.524 . S
C2796 C2797 1.397 . S
C2796 C2801 1.363 . S
C2797 H2768 0.950 . S
C2797 C2796 1.397 . S
C2797 C2798 1.334 . S
C2798 H2769 0.950 . S
C2798 C2797 1.334 . S
C2798 C2799 1.287 . S
C2799 C2798 1.287 . S
C2799 C2800 1.524 . S
C2799 H2802 0.999 . S
C2800 H2770 0.950 . S
C2800 C2799 1.524 . S
C2800 C2801 1.415 . S
C2801 H2771 0.950 . S
C2801 C2796 1.363 . S
C2801 C2800 1.415 . S
H2802 C2799 0.999 . S
H2803 C2784 0.913 . S
H2804 C2822 0.951 . S
H2805 C2824 0.951 . S
H2806 C2826 0.950 . S
H2807 C2827 0.950 . S
H2808 C2829 0.950 . S
H2809 C2832 0.950 . S
H2810 C2833 0.950 . S
H2811 C2835 0.950 . S
H2812 C2836 0.950 . S
H2813 C2837 0.951 . S
H2814 C2839 0.951 . S
H2815 C2841 0.950 . S
H2816 C2842 0.950 . S
H2817 C2844 0.950 . S
H2818 C2847 0.950 . S
H2819 C2848 0.950 . S
H2820 C2850 0.950 . S
H2821 C2851 0.950 . S
C2822 H2804 0.951 . S
C2822 C2823 1.366 . S
C2822 C2824 1.388 . S
C2823 C2822 1.366 . S
C2823 C2827 1.385 . S
C2824 H2805 0.951 . S
C2824 C2822 1.388 . S
C2824 C2825 1.366 . S
C2825 C2824 1.366 . S
C2825 C2826 1.414 . S
C2825 C2828 1.499 . S
C2826 H2806 0.950 . S
C2826 C2825 1.414 . S
C2826 C2827 1.374 . S
C2827 H2807 0.950 . S
C2827 C2823 1.385 . S
C2827 C2826 1.374 . S
C2828 C2825 1.499 . S
C2828 C2829 1.373 . S
C2828 C2830 1.389 . S
C2829 H2808 0.950 . S
C2829 C2828 1.373 . S
C2829 C2845 1.377 . S
C2830 C2828 1.389 . S
C2830 C2831 1.524 . S
C2830 C2844 1.377 . S
C2831 C2830 1.524 . S
C2831 C2832 1.397 . S
C2831 C2836 1.363 . S
C2832 H2809 0.950 . S
C2832 C2831 1.397 . S
C2832 C2833 1.334 . S
C2833 H2810 0.950 . S
C2833 C2832 1.334 . S
C2833 C2834 1.287 . S
C2834 C2833 1.287 . S
C2834 C2835 1.524 . S
C2834 H2853 0.913 . S
C2835 H2811 0.950 . S
C2835 C2834 1.524 . S
C2835 C2836 1.415 . S
C2836 H2812 0.950 . S
C2836 C2831 1.363 . S
C2836 C2835 1.415 . S
C2837 H2813 0.951 . S
C2837 C2838 1.366 . S
C2837 C2839 1.388 . S
C2838 C2837 1.366 . S
C2838 C2842 1.385 . S
C2839 H2814 0.951 . S
C2839 C2837 1.388 . S
C2839 C2840 1.366 . S
C2840 C2839 1.366 . S
C2840 C2841 1.414 . S
C2840 C2843 1.499 . S
C2841 H2815 0.950 . S
C2841 C2840 1.414 . S
C2841 C2842 1.374 . S
C2842 H2816 0.950 . S
C2842 C2838 1.385 . S
C2842 C2841 1.374 . S
C2843 C2840 1.499 . S
C2843 C2844 1.373 . S
C2843 C2845 1.389 . S
C2844 H2817 0.950 . S
C2844 C2830 1.377 . S
C2844 C2843 1.373 . S
C2845 C2829 1.377 . S
C2845 C2843 1.389 . S
C2845 C2846 1.524 . S
C2846 C2845 1.524 . S
C2846 C2847 1.397 . S
C2846 C2851 1.363 . S
C2847 H2818 0.950 . S
C2847 C2846 1.397 . S
C2847 C2848 1.334 . S
C2848 H2819 0.950 . S
C2848 C2847 1.334 . S
C2848 C2849 1.287 . S
C2849 C2848 1.287 . S
C2849 C2850 1.524 . S
C2849 H2852 0.999 . S
C2850 H2820 0.950 . S
C2850 C2849 1.524 . S
C2850 C2851 1.415 . S
C2851 H2821 0.950 . S
C2851 C2846 1.363 . S
C2851 C2850 1.415 . S
H2852 C2849 0.999 . S
H2853 C2834 0.913 . S
H2854 C2872 0.951 . S
H2855 C2874 0.951 . S
H2856 C2876 0.950 . S
H2857 C2877 0.950 . S
H2858 C2879 0.950 . S
H2859 C2882 0.950 . S
H2860 C2883 0.950 . S
H2861 C2885 0.950 . S
H2862 C2886 0.950 . S
H2863 C2887 0.951 . S
H2864 C2889 0.951 . S
H2865 C2891 0.950 . S
H2866 C2892 0.950 . S
H2867 C2894 0.950 . S
H2868 C2897 0.950 . S
H2869 C2898 0.950 . S
H2870 C2900 0.950 . S
H2871 C2901 0.950 . S
C2872 H2854 0.951 . S
C2872 C2873 1.366 . S
C2872 C2874 1.388 . S
C2873 C2872 1.366 . S
C2873 C2877 1.385 . S
C2874 H2855 0.951 . S
C2874 C2872 1.388 . S
C2874 C2875 1.366 . S
C2875 C2874 1.366 . S
C2875 C2876 1.414 . S
C2875 C2878 1.499 . S
C2876 H2856 0.950 . S
C2876 C2875 1.414 . S
C2876 C2877 1.374 . S
C2877 H2857 0.950 . S
C2877 C2873 1.385 . S
C2877 C2876 1.374 . S
C2878 C2875 1.499 . S
C2878 C2879 1.373 . S
C2878 C2880 1.389 . S
C2879 H2858 0.950 . S
C2879 C2878 1.373 . S
C2879 C2895 1.377 . S
C2880 C2878 1.389 . S
C2880 C2881 1.524 . S
C2880 C2894 1.377 . S
C2881 C2880 1.524 . S
C2881 C2882 1.397 . S
C2881 C2886 1.363 . S
C2882 H2859 0.950 . S
C2882 C2881 1.397 . S
C2882 C2883 1.334 . S
C2883 H2860 0.950 . S
C2883 C2882 1.334 . S
C2883 C2884 1.287 . S
C2884 C2883 1.287 . S
C2884 C2885 1.524 . S
C2884 H2903 0.913 . S
C2885 H2861 0.950 . S
C2885 C2884 1.524 . S
C2885 C2886 1.415 . S
C2886 H2862 0.950 . S
C2886 C2881 1.363 . S
C2886 C2885 1.415 . S
C2887 H2863 0.951 . S
C2887 C2888 1.366 . S
C2887 C2889 1.388 . S
C2888 C2887 1.366 . S
C2888 C2892 1.385 . S
C2889 H2864 0.951 . S
C2889 C2887 1.388 . S
C2889 C2890 1.366 . S
C2890 C2889 1.366 . S
C2890 C2891 1.414 . S
C2890 C2893 1.499 . S
C2891 H2865 0.950 . S
C2891 C2890 1.414 . S
C2891 C2892 1.374 . S
C2892 H2866 0.950 . S
C2892 C2888 1.385 . S
C2892 C2891 1.374 . S
C2893 C2890 1.499 . S
C2893 C2894 1.373 . S
C2893 C2895 1.389 . S
C2894 H2867 0.950 . S
C2894 C2880 1.377 . S
C2894 C2893 1.373 . S
C2895 C2879 1.377 . S
C2895 C2893 1.389 . S
C2895 C2896 1.524 . S
C2896 C2895 1.524 . S
C2896 C2897 1.397 . S
C2896 C2901 1.363 . S
C2897 H2868 0.950 . S
C2897 C2896 1.397 . S
C2897 C2898 1.334 . S
C2898 H2869 0.950 . S
C2898 C2897 1.334 . S
C2898 C2899 1.287 . S
C2899 C2898 1.287 . S
C2899 C2900 1.524 . S
C2899 H2902 0.999 . S
C2900 H2870 0.950 . S
C2900 C2899 1.524 . S
C2900 C2901 1.415 . S
C2901 H2871 0.950 . S
C2901 C2896 1.363 . S
C2901 C2900 1.415 . S
H2902 C2899 0.999 . S
H2903 C2884 0.913 . S
H2904 C2922 0.951 . S
H2905 C2924 0.951 . S
H2906 C2926 0.950 . S
H2907 C2927 0.950 . S
H2908 C2929 0.950 . S
H2909 C2932 0.950 . S
H2910 C2933 0.950 . S
H2911 C2935 0.950 . S
H2912 C2936 0.950 . S
H2913 C2937 0.951 . S
H2914 C2939 0.951 . S
H2915 C2941 0.950 . S
H2916 C2942 0.950 . S
H2917 C2944 0.950 . S
H2918 C2947 0.950 . S
H2919 C2948 0.950 . S
H2920 C2950 0.950 . S
H2921 C2951 0.950 . S
C2922 H2904 0.951 . S
C2922 C2923 1.366 . S
C2922 C2924 1.388 . S
C2923 C2922 1.366 . S
C2923 C2927 1.385 . S
C2924 H2905 0.951 . S
C2924 C2922 1.388 . S
C2924 C2925 1.366 . S
C2925 C2924 1.366 . S
C2925 C2926 1.414 . S
C2925 C2928 1.499 . S
C2926 H2906 0.950 . S
C2926 C2925 1.414 . S
C2926 C2927 1.374 . S
C2927 H2907 0.950 . S
C2927 C2923 1.385 . S
C2927 C2926 1.374 . S
C2928 C2925 1.499 . S
C2928 C2929 1.373 . S
C2928 C2930 1.389 . S
C2929 H2908 0.950 . S
C2929 C2928 1.373 . S
C2929 C2945 1.377 . S
C2930 C2928 1.389 . S
C2930 C2931 1.524 . S
C2930 C2944 1.377 . S
C2931 C2930 1.524 . S
C2931 C2932 1.397 . S
C2931 C2936 1.363 . S
C2932 H2909 0.950 . S
C2932 C2931 1.397 . S
C2932 C2933 1.334 . S
C2933 H2910 0.950 . S
C2933 C2932 1.334 . S
C2933 C2934 1.287 . S
C2934 C2933 1.287 . S
C2934 C2935 1.524 . S
C2934 H2953 0.913 . S
C2935 H2911 0.950 . S
C2935 C2934 1.524 . S
C2935 C2936 1.415 . S
C2936 H2912 0.950 . S
C2936 C2931 1.363 . S
C2936 C2935 1.415 . S
C2937 H2913 0.951 . S
C2937 C2938 1.366 . S
C2937 C2939 1.388 . S
C2938 C2937 1.366 . S
C2938 C2942 1.385 . S
C2939 H2914 0.951 . S
C2939 C2937 1.388 . S
C2939 C2940 1.366 . S
C2940 C2939 1.366 . S
C2940 C2941 1.414 . S
C2940 C2943 1.499 . S
C2941 H2915 0.950 . S
C2941 C2940 1.414 . S
C2941 C2942 1.374 . S
C2942 H2916 0.950 . S
C2942 C2938 1.385 . S
C2942 C2941 1.374 . S
C2943 C2940 1.499 . S
C2943 C2944 1.373 . S
C2943 C2945 1.389 . S
C2944 H2917 0.950 . S
C2944 C2930 1.377 . S
C2944 C2943 1.373 . S
C2945 C2929 1.377 . S
C2945 C2943 1.389 . S
C2945 C2946 1.524 . S
C2946 C2945 1.524 . S
C2946 C2947 1.397 . S
C2946 C2951 1.363 . S
C2947 H2918 0.950 . S
C2947 C2946 1.397 . S
C2947 C2948 1.334 . S
C2948 H2919 0.950 . S
C2948 C2947 1.334 . S
C2948 C2949 1.287 . S
C2949 C2948 1.287 . S
C2949 C2950 1.524 . S
C2949 H2952 0.999 . S
C2950 H2920 0.950 . S
C2950 C2949 1.524 . S
C2950 C2951 1.415 . S
C2951 H2921 0.950 . S
C2951 C2946 1.363 . S
C2951 C2950 1.415 . S
H2952 C2949 0.999 . S
H2953 C2934 0.913 . S
H2954 C2972 0.951 . S
H2955 C2974 0.951 . S
H2956 C2976 0.950 . S
H2957 C2977 0.950 . S
H2958 C2979 0.950 . S
H2959 C2982 0.950 . S
H2960 C2983 0.950 . S
H2961 C2985 0.950 . S
H2962 C2986 0.950 . S
H2963 C2987 0.951 . S
H2964 C2989 0.951 . S
H2965 C2991 0.950 . S
H2966 C2992 0.950 . S
H2967 C2994 0.950 . S
H2968 C2997 0.950 . S
H2969 C2998 0.950 . S
H2970 C3000 0.950 . S
H2971 C3001 0.950 . S
C2972 H2954 0.951 . S
C2972 C2973 1.366 . S
C2972 C2974 1.388 . S
C2973 C2972 1.366 . S
C2973 C2977 1.385 . S
C2974 H2955 0.951 . S
C2974 C2972 1.388 . S
C2974 C2975 1.366 . S
C2975 C2974 1.366 . S
C2975 C2976 1.414 . S
C2975 C2978 1.499 . S
C2976 H2956 0.950 . S
C2976 C2975 1.414 . S
C2976 C2977 1.374 . S
C2977 H2957 0.950 . S
C2977 C2973 1.385 . S
C2977 C2976 1.374 . S
C2978 C2975 1.499 . S
C2978 C2979 1.373 . S
C2978 C2980 1.389 . S
C2979 H2958 0.950 . S
C2979 C2978 1.373 . S
C2979 C2995 1.377 . S
C2980 C2978 1.389 . S
C2980 C2981 1.524 . S
C2980 C2994 1.377 . S
C2981 C2980 1.524 . S
C2981 C2982 1.397 . S
C2981 C2986 1.363 . S
C2982 H2959 0.950 . S
C2982 C2981 1.397 . S
C2982 C2983 1.334 . S
C2983 H2960 0.950 . S
C2983 C2982 1.334 . S
C2983 C2984 1.287 . S
C2984 C2983 1.287 . S
C2984 C2985 1.524 . S
C2984 H3003 0.913 . S
C2985 H2961 0.950 . S
C2985 C2984 1.524 . S
C2985 C2986 1.415 . S
C2986 H2962 0.950 . S
C2986 C2981 1.363 . S
C2986 C2985 1.415 . S
C2987 H2963 0.951 . S
C2987 C2988 1.366 . S
C2987 C2989 1.388 . S
C2988 C2987 1.366 . S
C2988 C2992 1.385 . S
C2989 H2964 0.951 . S
C2989 C2987 1.388 . S
C2989 C2990 1.366 . S
C2990 C2989 1.366 . S
C2990 C2991 1.414 . S
C2990 C2993 1.499 . S
C2991 H2965 0.950 . S
C2991 C2990 1.414 . S
C2991 C2992 1.374 . S
C2992 H2966 0.950 . S
C2992 C2988 1.385 . S
C2992 C2991 1.374 . S
C2993 C2990 1.499 . S
C2993 C2994 1.373 . S
C2993 C2995 1.389 . S
C2994 H2967 0.950 . S
C2994 C2980 1.377 . S
C2994 C2993 1.373 . S
C2995 C2979 1.377 . S
C2995 C2993 1.389 . S
C2995 C2996 1.524 . S
C2996 C2995 1.524 . S
C2996 C2997 1.397 . S
C2996 C3001 1.363 . S
C2997 H2968 0.950 . S
C2997 C2996 1.397 . S
C2997 C2998 1.334 . S
C2998 H2969 0.950 . S
C2998 C2997 1.334 . S
C2998 C2999 1.287 . S
C2999 C2998 1.287 . S
C2999 C3000 1.524 . S
C2999 H3002 0.999 . S
C3000 H2970 0.950 . S
C3000 C2999 1.524 . S
C3000 C3001 1.415 . S
C3001 H2971 0.950 . S
C3001 C2996 1.363 . S
C3001 C3000 1.415 . S
H3002 C2999 0.999 . S
H3003 C2984 0.913 . S
H3004 C3022 0.951 . S
H3005 C3024 0.951 . S
H3006 C3026 0.950 . S
H3007 C3027 0.950 . S
H3008 C3029 0.950 . S
H3009 C3032 0.950 . S
H3010 C3033 0.950 . S
H3011 C3035 0.950 . S
H3012 C3036 0.950 . S
H3013 C3037 0.951 . S
H3014 C3039 0.951 . S
H3015 C3041 0.950 . S
H3016 C3042 0.950 . S
H3017 C3044 0.950 . S
H3018 C3047 0.950 . S
H3019 C3048 0.950 . S
H3020 C3050 0.950 . S
H3021 C3051 0.950 . S
C3022 H3004 0.951 . S
C3022 C3023 1.366 . S
C3022 C3024 1.388 . S
C3023 C3022 1.366 . S
C3023 C3027 1.385 . S
C3024 H3005 0.951 . S
C3024 C3022 1.388 . S
C3024 C3025 1.366 . S
C3025 C3024 1.366 . S
C3025 C3026 1.414 . S
C3025 C3028 1.499 . S
C3026 H3006 0.950 . S
C3026 C3025 1.414 . S
C3026 C3027 1.374 . S
C3027 H3007 0.950 . S
C3027 C3023 1.385 . S
C3027 C3026 1.374 . S
C3028 C3025 1.499 . S
C3028 C3029 1.373 . S
C3028 C3030 1.389 . S
C3029 H3008 0.950 . S
C3029 C3028 1.373 . S
C3029 C3045 1.377 . S
C3030 C3028 1.389 . S
C3030 C3031 1.524 . S
C3030 C3044 1.377 . S
C3031 C3030 1.524 . S
C3031 C3032 1.397 . S
C3031 C3036 1.363 . S
C3032 H3009 0.950 . S
C3032 C3031 1.397 . S
C3032 C3033 1.334 . S
C3033 H3010 0.950 . S
C3033 C3032 1.334 . S
C3033 C3034 1.287 . S
C3034 C3033 1.287 . S
C3034 C3035 1.524 . S
C3034 H3053 0.913 . S
C3035 H3011 0.950 . S
C3035 C3034 1.524 . S
C3035 C3036 1.415 . S
C3036 H3012 0.950 . S
C3036 C3031 1.363 . S
C3036 C3035 1.415 . S
C3037 H3013 0.951 . S
C3037 C3038 1.366 . S
C3037 C3039 1.388 . S
C3038 C3037 1.366 . S
C3038 C3042 1.385 . S
C3039 H3014 0.951 . S
C3039 C3037 1.388 . S
C3039 C3040 1.366 . S
C3040 C3039 1.366 . S
C3040 C3041 1.414 . S
C3040 C3043 1.499 . S
C3041 H3015 0.950 . S
C3041 C3040 1.414 . S
C3041 C3042 1.374 . S
C3042 H3016 0.950 . S
C3042 C3038 1.385 . S
C3042 C3041 1.374 . S
C3043 C3040 1.499 . S
C3043 C3044 1.373 . S
C3043 C3045 1.389 . S
C3044 H3017 0.950 . S
C3044 C3030 1.377 . S
C3044 C3043 1.373 . S
C3045 C3029 1.377 . S
C3045 C3043 1.389 . S
C3045 C3046 1.524 . S
C3046 C3045 1.524 . S
C3046 C3047 1.397 . S
C3046 C3051 1.363 . S
C3047 H3018 0.950 . S
C3047 C3046 1.397 . S
C3047 C3048 1.334 . S
C3048 H3019 0.950 . S
C3048 C3047 1.334 . S
C3048 C3049 1.287 . S
C3049 C3048 1.287 . S
C3049 C3050 1.524 . S
C3049 H3052 0.999 . S
C3050 H3020 0.950 . S
C3050 C3049 1.524 . S
C3050 C3051 1.415 . S
C3051 H3021 0.950 . S
C3051 C3046 1.363 . S
C3051 C3050 1.415 . S
H3052 C3049 0.999 . S
H3053 C3034 0.913 . S
H3054 C3072 0.951 . S
H3055 C3074 0.951 . S
H3056 C3076 0.950 . S
H3057 C3077 0.950 . S
H3058 C3079 0.950 . S
H3059 C3082 0.950 . S
H3060 C3083 0.950 1_556 S
H3061 C3085 0.950 . S
H3062 C3086 0.950 . S
H3063 C3087 0.951 . S
H3064 C3089 0.951 . S
H3065 C3091 0.950 . S
H3066 C3092 0.950 . S
H3067 C3094 0.950 . S
H3068 C3097 0.950 . S
H3069 C3098 0.950 . S
H3070 C3100 0.950 . S
H3071 C3101 0.950 . S
C3072 H3054 0.951 . S
C3072 C3073 1.366 . S
C3072 C3074 1.388 . S
C3073 C3072 1.366 . S
C3073 C3077 1.385 . S
C3074 H3055 0.951 . S
C3074 C3072 1.388 . S
C3074 C3075 1.348 1_556 S
C3075 C3074 1.348 1_554 S
C3075 C3076 1.416 . S
C3075 C3078 1.514 . S
C3076 H3056 0.950 . S
C3076 C3075 1.416 . S
C3076 C3077 1.374 1_554 S
C3077 H3057 0.950 . S
C3077 C3073 1.385 . S
C3077 C3076 1.374 1_556 S
C3078 C3075 1.514 . S
C3078 C3079 1.373 . S
C3078 C3080 1.389 . S
C3079 H3058 0.950 . S
C3079 C3078 1.373 . S
C3079 C3095 1.377 . S
C3080 C3078 1.389 . S
C3080 C3081 1.524 . S
C3080 C3094 1.377 . S
C3081 C3080 1.524 . S
C3081 C3082 1.397 . S
C3081 C3086 1.363 . S
C3082 H3059 0.950 . S
C3082 C3081 1.397 . S
C3082 C3083 1.336 . S
C3083 H3060 0.950 1_554 S
C3083 C3082 1.336 . S
C3083 C3084 1.285 1_554 S
C3084 C3083 1.285 1_556 S
C3084 C3085 1.524 . S
C3084 H3103 0.913 . S
C3085 H3061 0.950 . S
C3085 C3084 1.524 . S
C3085 C3086 1.415 1_556 S
C3086 H3062 0.950 . S
C3086 C3081 1.363 . S
C3086 C3085 1.415 1_554 S
C3087 H3063 0.951 . S
C3087 C3088 1.366 . S
C3087 C3089 1.388 . S
C3088 C3087 1.366 . S
C3088 C3092 1.385 . S
C3089 H3064 0.951 . S
C3089 C3087 1.388 . S
C3089 C3090 1.366 . S
C3090 C3089 1.366 . S
C3090 C3091 1.414 . S
C3090 C3093 1.499 . S
C3091 H3065 0.950 . S
C3091 C3090 1.414 . S
C3091 C3092 1.374 . S
C3092 H3066 0.950 . S
C3092 C3088 1.385 . S
C3092 C3091 1.374 . S
C3093 C3090 1.499 . S
C3093 C3094 1.373 . S
C3093 C3095 1.389 . S
C3094 H3067 0.950 . S
C3094 C3080 1.377 . S
C3094 C3093 1.373 . S
C3095 C3079 1.377 . S
C3095 C3093 1.389 . S
C3095 C3096 1.524 . S
C3096 C3095 1.524 . S
C3096 C3097 1.397 . S
C3096 C3101 1.363 . S
C3097 H3068 0.950 . S
C3097 C3096 1.397 . S
C3097 C3098 1.334 . S
C3098 H3069 0.950 . S
C3098 C3097 1.334 . S
C3098 C3099 1.287 . S
C3099 C3098 1.287 . S
C3099 C3100 1.524 . S
C3099 H3102 0.999 . S
C3100 H3070 0.950 . S
C3100 C3099 1.524 . S
C3100 C3101 1.415 . S
C3101 H3071 0.950 . S
C3101 C3096 1.363 . S
C3101 C3100 1.415 . S
H3102 C3099 0.999 . S
H3103 C3084 0.913 . S
H3104 C3122 0.951 . S
H3105 C3124 0.951 . S
H3106 C3126 0.943 1_554 S
H3107 C3127 0.950 . S
H3108 C3129 0.950 . S
H3109 C3132 0.950 . S
H3110 C3133 0.950 . S
H3111 C3135 0.950 . S
H3112 C3136 0.950 1_554 S
H3113 C3137 0.951 . S
H3114 C3139 0.951 . S
H3115 C3141 0.950 . S
H3116 C3142 0.950 . S
H3117 C3144 0.950 . S
H3118 C3147 0.950 . S
H3119 C3148 0.950 . S
H3120 C3150 0.950 . S
H3121 C3151 0.950 . S
C3122 H3104 0.951 . S
C3122 C3123 1.366 . S
C3122 C3124 1.388 . S
C3123 C3122 1.366 . S
C3123 C3127 1.385 . S
C3124 H3105 0.951 . S
C3124 C3122 1.388 . S
C3124 C3125 1.366 . S
C3125 C3124 1.366 . S
C3125 C3126 1.414 . S
C3125 C3128 1.499 1_556 S
C3126 H3106 0.943 1_556 S
C3126 C3125 1.414 . S
C3126 C3127 1.374 . S
C3127 H3107 0.950 . S
C3127 C3123 1.385 . S
C3127 C3126 1.374 . S
C3128 C3125 1.499 1_554 S
C3128 C3129 1.373 . S
C3128 C3130 1.389 . S
C3129 H3108 0.950 . S
C3129 C3128 1.373 . S
C3129 C3145 1.377 . S
C3130 C3128 1.389 . S
C3130 C3131 1.524 1_554 S
C3130 C3144 1.377 . S
C3131 C3130 1.524 1_556 S
C3131 C3132 1.397 . S
C3131 C3136 1.363 . S
C3132 H3109 0.950 . S
C3132 C3131 1.397 . S
C3132 C3133 1.334 . S
C3133 H3110 0.950 . S
C3133 C3132 1.334 . S
C3133 C3134 1.287 . S
C3134 C3133 1.287 . S
C3134 C3135 1.524 . S
C3134 H3153 0.913 . S
C3135 H3111 0.950 . S
C3135 C3134 1.524 . S
C3135 C3136 1.415 . S
C3136 H3112 0.950 1_556 S
C3136 C3131 1.363 . S
C3136 C3135 1.415 . S
C3137 H3113 0.951 . S
C3137 C3138 1.366 . S
C3137 C3139 1.388 . S
C3138 C3137 1.366 . S
C3138 C3142 1.385 . S
C3139 H3114 0.951 . S
C3139 C3137 1.388 . S
C3139 C3140 1.366 . S
C3140 C3139 1.366 . S
C3140 C3141 1.414 . S
C3140 C3143 1.499 . S
C3141 H3115 0.950 . S
C3141 C3140 1.414 . S
C3141 C3142 1.374 . S
C3142 H3116 0.950 . S
C3142 C3138 1.385 . S
C3142 C3141 1.374 . S
C3143 C3140 1.499 . S
C3143 C3144 1.373 . S
C3143 C3145 1.389 . S
C3144 H3117 0.950 . S
C3144 C3130 1.377 . S
C3144 C3143 1.373 . S
C3145 C3129 1.377 . S
C3145 C3143 1.389 . S
C3145 C3146 1.524 . S
C3146 C3145 1.524 . S
C3146 C3147 1.397 . S
C3146 C3151 1.363 . S
C3147 H3118 0.950 . S
C3147 C3146 1.397 . S
C3147 C3148 1.334 . S
C3148 H3119 0.950 . S
C3148 C3147 1.334 . S
C3148 C3149 1.287 . S
C3149 C3148 1.287 . S
C3149 C3150 1.524 . S
C3149 H3152 0.999 . S
C3150 H3120 0.950 . S
C3150 C3149 1.524 . S
C3150 C3151 1.415 . S
C3151 H3121 0.950 . S
C3151 C3146 1.363 . S
C3151 C3150 1.415 . S
H3152 C3149 0.999 . S
H3153 C3134 0.913 . S
H3154 C3172 0.951 . S
H3155 C3174 0.951 . S
H3156 C3176 0.950 . S
H3157 C3177 0.950 . S
H3158 C3179 0.950 . S
H3159 C3182 0.950 . S
H3160 C3183 0.950 . S
H3161 C3185 0.950 . S
H3162 C3186 0.950 . S
H3163 C3187 0.951 . S
H3164 C3189 0.951 . S
H3165 C3191 0.950 . S
H3166 C3192 0.950 . S
H3167 C3194 0.950 . S
H3168 C3197 0.950 . S
H3169 C3198 0.950 . S
H3170 C3200 0.950 . S
H3171 C3201 0.950 . S
C3172 H3154 0.951 . S
C3172 C3173 1.366 . S
C3172 C3174 1.388 1_556 S
C3173 C3172 1.366 . S
C3173 C3177 1.385 . S
C3174 H3155 0.951 . S
C3174 C3172 1.388 1_554 S
C3174 C3175 1.367 . S
C3175 C3174 1.367 . S
C3175 C3176 1.402 1_554 S
C3175 C3178 1.509 . S
C3176 H3156 0.950 . S
C3176 C3175 1.402 1_556 S
C3176 C3177 1.374 . S
C3177 H3157 0.950 . S
C3177 C3173 1.385 . S
C3177 C3176 1.374 . S
C3178 C3175 1.509 . S
C3178 C3179 1.373 . S
C3178 C3180 1.389 . S
C3179 H3158 0.950 . S
C3179 C3178 1.373 . S
C3179 C3195 1.377 . S
C3180 C3178 1.389 . S
C3180 C3181 1.524 . S
C3180 C3194 1.377 . S
C3181 C3180 1.524 . S
C3181 C3182 1.397 . S
C3181 C3186 1.363 . S
C3182 H3159 0.950 . S
C3182 C3181 1.397 . S
C3182 C3183 1.334 . S
C3183 H3160 0.950 . S
C3183 C3182 1.334 . S
C3183 C3184 1.287 . S
C3184 C3183 1.287 . S
C3184 C3185 1.524 . S
C3184 H3203 0.913 . S
C3185 H3161 0.950 . S
C3185 C3184 1.524 . S
C3185 C3186 1.415 . S
C3186 H3162 0.950 . S
C3186 C3181 1.363 . S
C3186 C3185 1.415 . S
C3187 H3163 0.951 . S
C3187 C3188 1.366 . S
C3187 C3189 1.388 . S
C3188 C3187 1.366 . S
C3188 C3192 1.385 . S
C3189 H3164 0.951 . S
C3189 C3187 1.388 . S
C3189 C3190 1.366 . S
C3190 C3189 1.366 . S
C3190 C3191 1.414 . S
C3190 C3193 1.499 . S
C3191 H3165 0.950 . S
C3191 C3190 1.414 . S
C3191 C3192 1.374 . S
C3192 H3166 0.950 . S
C3192 C3188 1.385 . S
C3192 C3191 1.374 . S
C3193 C3190 1.499 . S
C3193 C3194 1.373 . S
C3193 C3195 1.389 . S
C3194 H3167 0.950 . S
C3194 C3180 1.377 . S
C3194 C3193 1.373 . S
C3195 C3179 1.377 . S
C3195 C3193 1.389 . S
C3195 C3196 1.524 . S
C3196 C3195 1.524 . S
C3196 C3197 1.397 . S
C3196 C3201 1.363 . S
C3197 H3168 0.950 . S
C3197 C3196 1.397 . S
C3197 C3198 1.334 . S
C3198 H3169 0.950 . S
C3198 C3197 1.334 . S
C3198 C3199 1.287 . S
C3199 C3198 1.287 . S
C3199 C3200 1.524 . S
C3199 H3202 0.999 . S
C3200 H3170 0.950 . S
C3200 C3199 1.524 . S
C3200 C3201 1.415 . S
C3201 H3171 0.950 . S
C3201 C3196 1.363 . S
C3201 C3200 1.415 . S
H3202 C3199 0.999 . S
H3203 C3184 0.913 . S
H3204 C3222 0.951 . S
H3205 C3224 0.951 . S
H3206 C3226 0.950 . S
H3207 C3227 0.950 . S
H3208 C3229 0.950 . S
H3209 C3232 0.950 . S
H3210 C3233 0.950 . S
H3211 C3235 0.950 . S
H3212 C3236 0.950 . S
H3213 C3237 0.951 . S
H3214 C3239 0.951 . S
H3215 C3241 0.950 . S
H3216 C3242 0.950 . S
H3217 C3244 0.950 . S
H3218 C3247 0.950 . S
H3219 C3248 0.950 . S
H3220 C3250 0.950 . S
H3221 C3251 0.950 . S
C3222 H3204 0.951 . S
C3222 C3223 1.366 . S
C3222 C3224 1.388 . S
C3223 C3222 1.366 . S
C3223 C3227 1.385 . S
C3224 H3205 0.951 . S
C3224 C3222 1.388 . S
C3224 C3225 1.366 . S
C3225 C3224 1.366 . S
C3225 C3226 1.414 . S
C3225 C3228 1.499 . S
C3226 H3206 0.950 . S
C3226 C3225 1.414 . S
C3226 C3227 1.374 . S
C3227 H3207 0.950 . S
C3227 C3223 1.385 . S
C3227 C3226 1.374 . S
C3228 C3225 1.499 . S
C3228 C3229 1.373 . S
C3228 C3230 1.389 . S
C3229 H3208 0.950 . S
C3229 C3228 1.373 . S
C3229 C3245 1.377 . S
C3230 C3228 1.389 . S
C3230 C3231 1.524 . S
C3230 C3244 1.377 . S
C3231 C3230 1.524 . S
C3231 C3232 1.397 . S
C3231 C3236 1.363 . S
C3232 H3209 0.950 . S
C3232 C3231 1.397 . S
C3232 C3233 1.334 . S
C3233 H3210 0.950 . S
C3233 C3232 1.334 . S
C3233 C3234 1.287 . S
C3234 C3233 1.287 . S
C3234 C3235 1.524 . S
C3234 H3253 0.913 . S
C3235 H3211 0.950 . S
C3235 C3234 1.524 . S
C3235 C3236 1.415 . S
C3236 H3212 0.950 . S
C3236 C3231 1.363 . S
C3236 C3235 1.415 . S
C3237 H3213 0.951 . S
C3237 C3238 1.366 . S
C3237 C3239 1.388 . S
C3238 C3237 1.366 . S
C3238 C3242 1.385 . S
C3239 H3214 0.951 . S
C3239 C3237 1.388 . S
C3239 C3240 1.366 . S
C3240 C3239 1.366 . S
C3240 C3241 1.414 . S
C3240 C3243 1.499 . S
C3241 H3215 0.950 . S
C3241 C3240 1.414 . S
C3241 C3242 1.374 . S
C3242 H3216 0.950 . S
C3242 C3238 1.385 . S
C3242 C3241 1.374 . S
C3243 C3240 1.499 . S
C3243 C3244 1.373 . S
C3243 C3245 1.389 . S
C3244 H3217 0.950 . S
C3244 C3230 1.377 . S
C3244 C3243 1.373 . S
C3245 C3229 1.377 . S
C3245 C3243 1.389 . S
C3245 C3246 1.524 . S
C3246 C3245 1.524 . S
C3246 C3247 1.397 . S
C3246 C3251 1.363 . S
C3247 H3218 0.950 . S
C3247 C3246 1.397 . S
C3247 C3248 1.334 1_554 S
C3248 H3219 0.950 . S
C3248 C3247 1.334 1_556 S
C3248 C3249 1.287 . S
C3249 C3248 1.287 . S
C3249 C3250 1.524 . S
C3249 H3252 0.999 . S
C3250 H3220 0.950 . S
C3250 C3249 1.524 . S
C3250 C3251 1.415 1_556 S
C3251 H3221 0.950 . S
C3251 C3246 1.363 . S
C3251 C3250 1.415 1_554 S
H3252 C3249 0.999 . S
H3253 C3234 0.913 . S
H3254 C3272 0.951 . S
H3255 C3274 0.951 . S
H3256 C3276 0.950 . S
H3257 C3277 0.950 . S
H3258 C3279 0.950 . S
H3259 C3282 0.950 . S
H3260 C3283 0.950 . S
H3261 C3285 0.950 . S
H3262 C3286 0.950 . S
H3263 C3287 0.951 1_556 S
H3264 C3289 0.951 1_556 S
H3265 C3291 0.950 . S
H3266 C3292 0.950 . S
H3267 C3294 0.950 . S
H3268 C3297 0.950 . S
H3269 C3298 0.950 1_554 S
H3270 C3300 0.950 . S
H3271 C3301 0.950 . S
C3272 H3254 0.951 . S
C3272 C3273 1.366 . S
C3272 C3274 1.388 . S
C3273 C3272 1.366 . S
C3273 C3277 1.385 . S
C3274 H3255 0.951 . S
C3274 C3272 1.388 . S
C3274 C3275 1.366 . S
C3275 C3274 1.366 . S
C3275 C3276 1.414 . S
C3275 C3278 1.499 . S
C3276 H3256 0.950 . S
C3276 C3275 1.414 . S
C3276 C3277 1.374 . S
C3277 H3257 0.950 . S
C3277 C3273 1.385 . S
C3277 C3276 1.374 . S
C3278 C3275 1.499 . S
C3278 C3279 1.373 . S
C3278 C3280 1.389 . S
C3279 H3258 0.950 . S
C3279 C3278 1.373 . S
C3279 C3295 1.377 . S
C3280 C3278 1.389 . S
C3280 C3281 1.524 . S
C3280 C3294 1.377 . S
C3281 C3280 1.524 . S
C3281 C3282 1.397 . S
C3281 C3286 1.363 . S
C3282 H3259 0.950 . S
C3282 C3281 1.397 . S
C3282 C3283 1.334 . S
C3283 H3260 0.950 . S
C3283 C3282 1.334 . S
C3283 C3284 1.287 . S
C3284 C3283 1.287 . S
C3284 C3285 1.524 . S
C3284 H3303 0.913 . S
C3285 H3261 0.950 . S
C3285 C3284 1.524 . S
C3285 C3286 1.415 . S
C3286 H3262 0.950 . S
C3286 C3281 1.363 . S
C3286 C3285 1.415 . S
C3287 H3263 0.951 1_554 S
C3287 C3288 1.366 . S
C3287 C3289 1.388 . S
C3288 C3287 1.366 . S
C3288 C3292 1.385 . S
C3289 H3264 0.951 1_554 S
C3289 C3287 1.388 . S
C3289 C3290 1.366 . S
C3290 C3289 1.366 . S
C3290 C3291 1.414 . S
C3290 C3293 1.499 . S
C3291 H3265 0.950 . S
C3291 C3290 1.414 . S
C3291 C3292 1.374 . S
C3292 H3266 0.950 . S
C3292 C3288 1.385 . S
C3292 C3291 1.374 . S
C3293 C3290 1.499 . S
C3293 C3294 1.373 . S
C3293 C3295 1.389 . S
C3294 H3267 0.950 . S
C3294 C3280 1.377 . S
C3294 C3293 1.373 . S
C3295 C3279 1.377 . S
C3295 C3293 1.389 . S
C3295 C3296 1.524 . S
C3296 C3295 1.524 . S
C3296 C3297 1.397 . S
C3296 C3301 1.363 1_554 S
C3297 H3268 0.950 . S
C3297 C3296 1.397 . S
C3297 C3298 1.334 1_554 S
C3298 H3269 0.950 1_556 S
C3298 C3297 1.334 1_556 S
C3298 C3299 1.287 . S
C3299 C3298 1.287 . S
C3299 C3300 1.524 . S
C3299 H3302 0.999 . S
C3300 H3270 0.950 . S
C3300 C3299 1.524 . S
C3300 C3301 1.415 . S
C3301 H3271 0.950 . S
C3301 C3296 1.363 1_556 S
C3301 C3300 1.415 . S
H3302 C3299 0.999 . S
H3303 C3284 0.913 . S
H3304 C3322 0.951 . S
H3305 C3324 0.951 . S
H3306 C3326 0.950 . S
H3307 C3327 0.950 1_556 S
H3308 C3329 0.950 . S
H3309 C3332 0.950 . S
H3310 C3333 0.950 . S
H3311 C3335 0.950 . S
H3312 C3336 0.950 . S
H3313 C3337 0.951 . S
H3314 C3339 0.951 . S
H3315 C3341 0.950 . S
H3316 C3342 0.950 . S
H3317 C3344 0.950 . S
H3318 C3347 0.950 . S
H3319 C3348 0.950 . S
H3320 C3350 0.950 . S
H3321 C3351 0.950 . S
C3322 H3304 0.951 . S
C3322 C3323 1.366 . S
C3322 C3324 1.388 . S
C3323 C3322 1.366 . S
C3323 C3327 1.385 . S
C3324 H3305 0.951 . S
C3324 C3322 1.388 . S
C3324 C3325 1.366 . S
C3325 C3324 1.366 . S
C3325 C3326 1.414 . S
C3325 C3328 1.499 . S
C3326 H3306 0.950 . S
C3326 C3325 1.414 . S
C3326 C3327 1.374 . S
C3327 H3307 0.950 1_554 S
C3327 C3323 1.385 . S
C3327 C3326 1.374 . S
C3328 C3325 1.499 . S
C3328 C3329 1.373 . S
C3328 C3330 1.389 . S
C3329 H3308 0.950 . S
C3329 C3328 1.373 . S
C3329 C3345 1.377 . S
C3330 C3328 1.389 . S
C3330 C3331 1.524 . S
C3330 C3344 1.377 . S
C3331 C3330 1.524 . S
C3331 C3332 1.397 . S
C3331 C3336 1.363 . S
C3332 H3309 0.950 . S
C3332 C3331 1.397 . S
C3332 C3333 1.334 . S
C3333 H3310 0.950 . S
C3333 C3332 1.334 . S
C3333 C3334 1.287 . S
C3334 C3333 1.287 . S
C3334 C3335 1.524 . S
C3334 H3353 0.913 . S
C3335 H3311 0.950 . S
C3335 C3334 1.524 . S
C3335 C3336 1.415 . S
C3336 H3312 0.950 . S
C3336 C3331 1.363 . S
C3336 C3335 1.415 . S
C3337 H3313 0.951 . S
C3337 C3338 1.366 . S
C3337 C3339 1.388 . S
C3338 C3337 1.366 . S
C3338 C3342 1.385 . S
C3339 H3314 0.951 . S
C3339 C3337 1.388 . S
C3339 C3340 1.366 . S
C3340 C3339 1.366 . S
C3340 C3341 1.414 . S
C3340 C3343 1.499 . S
C3341 H3315 0.950 . S
C3341 C3340 1.414 . S
C3341 C3342 1.374 . S
C3342 H3316 0.950 . S
C3342 C3338 1.385 . S
C3342 C3341 1.374 . S
C3343 C3340 1.499 . S
C3343 C3344 1.373 . S
C3343 C3345 1.389 . S
C3344 H3317 0.950 . S
C3344 C3330 1.377 . S
C3344 C3343 1.373 . S
C3345 C3329 1.377 . S
C3345 C3343 1.389 . S
C3345 C3346 1.524 . S
C3346 C3345 1.524 . S
C3346 C3347 1.397 . S
C3346 C3351 1.363 1_554 S
C3347 H3318 0.950 . S
C3347 C3346 1.397 . S
C3347 C3348 1.334 1_554 S
C3348 H3319 0.950 . S
C3348 C3347 1.334 1_556 S
C3348 C3349 1.287 . S
C3349 C3348 1.287 . S
C3349 C3350 1.524 . S
C3349 H3352 0.999 . S
C3350 H3320 0.950 . S
C3350 C3349 1.524 . S
C3350 C3351 1.415 . S
C3351 H3321 0.950 . S
C3351 C3346 1.363 1_556 S
C3351 C3350 1.415 . S
H3352 C3349 0.999 . S
H3353 C3334 0.913 . S
H3354 C3372 0.951 . S
H3355 C3374 0.951 . S
H3356 C3376 0.950 . S
H3357 C3377 0.950 . S
H3358 C3379 0.950 . S
H3359 C3382 0.950 . S
H3360 C3383 0.950 . S
H3361 C3385 0.950 . S
H3362 C3386 0.950 . S
H3363 C3387 0.951 . S
H3364 C3389 0.951 . S
H3365 C3391 0.950 . S
H3366 C3392 0.950 . S
H3367 C3394 0.950 . S
H3368 C3397 0.950 . S
H3369 C3398 0.950 . S
H3370 C3400 0.950 . S
H3371 C3401 0.950 . S
C3372 H3354 0.951 . S
C3372 C3373 1.366 . S
C3372 C3374 1.388 . S
C3373 C3372 1.366 . S
C3373 C3377 1.385 . S
C3374 H3355 0.951 . S
C3374 C3372 1.388 . S
C3374 C3375 1.366 . S
C3375 C3374 1.366 . S
C3375 C3376 1.414 . S
C3375 C3378 1.499 . S
C3376 H3356 0.950 . S
C3376 C3375 1.414 . S
C3376 C3377 1.374 . S
C3377 H3357 0.950 . S
C3377 C3373 1.385 . S
C3377 C3376 1.374 . S
C3378 C3375 1.499 . S
C3378 C3379 1.373 . S
C3378 C3380 1.389 . S
C3379 H3358 0.950 . S
C3379 C3378 1.373 . S
C3379 C3395 1.377 . S
C3380 C3378 1.389 . S
C3380 C3381 1.524 . S
C3380 C3394 1.377 . S
C3381 C3380 1.524 . S
C3381 C3382 1.397 . S
C3381 C3386 1.363 . S
C3382 H3359 0.950 . S
C3382 C3381 1.397 . S
C3382 C3383 1.334 . S
C3383 H3360 0.950 . S
C3383 C3382 1.334 . S
C3383 C3384 1.287 . S
C3384 C3383 1.287 . S
C3384 C3385 1.524 . S
C3384 H3403 0.913 . S
C3385 H3361 0.950 . S
C3385 C3384 1.524 . S
C3385 C3386 1.415 . S
C3386 H3362 0.950 . S
C3386 C3381 1.363 . S
C3386 C3385 1.415 . S
C3387 H3363 0.951 . S
C3387 C3388 1.366 . S
C3387 C3389 1.388 . S
C3388 C3387 1.366 . S
C3388 C3392 1.385 . S
C3389 H3364 0.951 . S
C3389 C3387 1.388 . S
C3389 C3390 1.366 . S
C3390 C3389 1.366 . S
C3390 C3391 1.414 . S
C3390 C3393 1.499 . S
C3391 H3365 0.950 . S
C3391 C3390 1.414 . S
C3391 C3392 1.374 . S
C3392 H3366 0.950 . S
C3392 C3388 1.385 . S
C3392 C3391 1.374 . S
C3393 C3390 1.499 . S
C3393 C3394 1.373 . S
C3393 C3395 1.389 . S
C3394 H3367 0.950 . S
C3394 C3380 1.377 . S
C3394 C3393 1.373 . S
C3395 C3379 1.377 . S
C3395 C3393 1.389 . S
C3395 C3396 1.524 . S
C3396 C3395 1.524 . S
C3396 C3397 1.397 . S
C3396 C3401 1.363 . S
C3397 H3368 0.950 . S
C3397 C3396 1.397 . S
C3397 C3398 1.334 . S
C3398 H3369 0.950 . S
C3398 C3397 1.334 . S
C3398 C3399 1.287 . S
C3399 C3398 1.287 . S
C3399 C3400 1.524 . S
C3399 H3402 0.999 . S
C3400 H3370 0.950 . S
C3400 C3399 1.524 . S
C3400 C3401 1.415 . S
C3401 H3371 0.950 . S
C3401 C3396 1.363 . S
C3401 C3400 1.415 . S
H3402 C3399 0.999 . S
H3403 C3384 0.913 . S
H3404 C3422 0.951 . S
H3405 C3424 0.951 . S
H3406 C3426 0.950 . S
H3407 C3427 0.950 . S
H3408 C3429 0.950 . S
H3409 C3432 0.950 . S
H3410 C3433 0.950 . S
H3411 C3435 0.950 . S
H3412 C3436 0.950 . S
H3413 C3437 0.951 . S
H3414 C3439 0.951 . S
H3415 C3441 0.950 . S
H3416 C3442 0.950 . S
H3417 C3444 0.950 . S
H3418 C3447 0.950 . S
H3419 C3448 0.950 . S
H3420 C3450 0.950 . S
H3421 C3451 0.950 . S
C3422 H3404 0.951 . S
C3422 C3423 1.366 . S
C3422 C3424 1.388 . S
C3423 C3422 1.366 . S
C3423 C3427 1.385 . S
C3424 H3405 0.951 . S
C3424 C3422 1.388 . S
C3424 C3425 1.366 . S
C3425 C3424 1.366 . S
C3425 C3426 1.414 . S
C3425 C3428 1.499 . S
C3426 H3406 0.950 . S
C3426 C3425 1.414 . S
C3426 C3427 1.374 . S
C3427 H3407 0.950 . S
C3427 C3423 1.385 . S
C3427 C3426 1.374 . S
C3428 C3425 1.499 . S
C3428 C3429 1.373 . S
C3428 C3430 1.389 . S
C3429 H3408 0.950 . S
C3429 C3428 1.373 . S
C3429 C3445 1.377 . S
C3430 C3428 1.389 . S
C3430 C3431 1.524 . S
C3430 C3444 1.377 . S
C3431 C3430 1.524 . S
C3431 C3432 1.397 . S
C3431 C3436 1.363 . S
C3432 H3409 0.950 . S
C3432 C3431 1.397 . S
C3432 C3433 1.334 . S
C3433 H3410 0.950 . S
C3433 C3432 1.334 . S
C3433 C3434 1.287 . S
C3434 C3433 1.287 . S
C3434 C3435 1.524 . S
C3434 H3453 0.913 . S
C3435 H3411 0.950 . S
C3435 C3434 1.524 . S
C3435 C3436 1.415 . S
C3436 H3412 0.950 . S
C3436 C3431 1.363 . S
C3436 C3435 1.415 . S
C3437 H3413 0.951 . S
C3437 C3438 1.366 . S
C3437 C3439 1.388 . S
C3438 C3437 1.366 . S
C3438 C3442 1.385 . S
C3439 H3414 0.951 . S
C3439 C3437 1.388 . S
C3439 C3440 1.366 . S
C3440 C3439 1.366 . S
C3440 C3441 1.414 . S
C3440 C3443 1.499 . S
C3441 H3415 0.950 . S
C3441 C3440 1.414 . S
C3441 C3442 1.374 . S
C3442 H3416 0.950 . S
C3442 C3438 1.385 . S
C3442 C3441 1.374 . S
C3443 C3440 1.499 . S
C3443 C3444 1.373 . S
C3443 C3445 1.389 . S
C3444 H3417 0.950 . S
C3444 C3430 1.377 . S
C3444 C3443 1.373 . S
C3445 C3429 1.377 . S
C3445 C3443 1.389 . S
C3445 C3446 1.524 . S
C3446 C3445 1.524 . S
C3446 C3447 1.397 . S
C3446 C3451 1.363 . S
C3447 H3418 0.950 . S
C3447 C3446 1.397 . S
C3447 C3448 1.334 . S
C3448 H3419 0.950 . S
C3448 C3447 1.334 . S
C3448 C3449 1.287 . S
C3449 C3448 1.287 . S
C3449 C3450 1.524 . S
C3449 H3452 0.999 . S
C3450 H3420 0.950 . S
C3450 C3449 1.524 . S
C3450 C3451 1.415 . S
C3451 H3421 0.950 . S
C3451 C3446 1.363 . S
C3451 C3450 1.415 . S
H3452 C3449 0.999 . S
H3453 C3434 0.913 . S
H3454 C3472 0.951 . S
H3455 C3474 0.951 . S
H3456 C3476 0.950 . S
H3457 C3477 0.950 . S
H3458 C3479 0.950 . S
H3459 C3482 0.950 . S
H3460 C3483 0.950 . S
H3461 C3485 0.950 . S
H3462 C3486 0.950 . S
H3463 C3487 0.951 . S
H3464 C3489 0.951 . S
H3465 C3491 0.950 . S
H3466 C3492 0.950 . S
H3467 C3494 0.950 . S
H3468 C3497 0.950 . S
H3469 C3498 0.950 . S
H3470 C3500 0.950 . S
H3471 C3501 0.950 . S
C3472 H3454 0.951 . S
C3472 C3473 1.366 . S
C3472 C3474 1.388 . S
C3473 C3472 1.366 . S
C3473 C3477 1.385 . S
C3474 H3455 0.951 . S
C3474 C3472 1.388 . S
C3474 C3475 1.366 . S
C3475 C3474 1.366 . S
C3475 C3476 1.414 . S
C3475 C3478 1.499 . S
C3476 H3456 0.950 . S
C3476 C3475 1.414 . S
C3476 C3477 1.374 . S
C3477 H3457 0.950 . S
C3477 C3473 1.385 . S
C3477 C3476 1.374 . S
C3478 C3475 1.499 . S
C3478 C3479 1.373 . S
C3478 C3480 1.389 . S
C3479 H3458 0.950 . S
C3479 C3478 1.373 . S
C3479 C3495 1.377 . S
C3480 C3478 1.389 . S
C3480 C3481 1.524 . S
C3480 C3494 1.377 . S
C3481 C3480 1.524 . S
C3481 C3482 1.397 . S
C3481 C3486 1.363 . S
C3482 H3459 0.950 . S
C3482 C3481 1.397 . S
C3482 C3483 1.334 . S
C3483 H3460 0.950 . S
C3483 C3482 1.334 . S
C3483 C3484 1.287 . S
C3484 C3483 1.287 . S
C3484 C3485 1.524 . S
C3484 H3503 0.913 . S
C3485 H3461 0.950 . S
C3485 C3484 1.524 . S
C3485 C3486 1.415 . S
C3486 H3462 0.950 . S
C3486 C3481 1.363 . S
C3486 C3485 1.415 . S
C3487 H3463 0.951 . S
C3487 C3488 1.366 . S
C3487 C3489 1.388 . S
C3488 C3487 1.366 . S
C3488 C3492 1.385 . S
C3489 H3464 0.951 . S
C3489 C3487 1.388 . S
C3489 C3490 1.366 . S
C3490 C3489 1.366 . S
C3490 C3491 1.414 . S
C3490 C3493 1.499 . S
C3491 H3465 0.950 . S
C3491 C3490 1.414 . S
C3491 C3492 1.374 . S
C3492 H3466 0.950 . S
C3492 C3488 1.385 . S
C3492 C3491 1.374 . S
C3493 C3490 1.499 . S
C3493 C3494 1.373 . S
C3493 C3495 1.389 . S
C3494 H3467 0.950 . S
C3494 C3480 1.377 . S
C3494 C3493 1.373 . S
C3495 C3479 1.377 . S
C3495 C3493 1.389 . S
C3495 C3496 1.524 . S
C3496 C3495 1.524 . S
C3496 C3497 1.397 . S
C3496 C3501 1.363 . S
C3497 H3468 0.950 . S
C3497 C3496 1.397 . S
C3497 C3498 1.334 . S
C3498 H3469 0.950 . S
C3498 C3497 1.334 . S
C3498 C3499 1.287 . S
C3499 C3498 1.287 . S
C3499 C3500 1.524 . S
C3499 H3502 0.999 . S
C3500 H3470 0.950 . S
C3500 C3499 1.524 . S
C3500 C3501 1.415 . S
C3501 H3471 0.950 . S
C3501 C3496 1.363 . S
C3501 C3500 1.415 . S
H3502 C3499 0.999 . S
H3503 C3484 0.913 . S
H3504 C3522 0.951 . S
H3505 C3524 0.951 . S
H3506 C3526 0.950 . S
H3507 C3527 0.950 . S
H3508 C3529 0.950 . S
H3509 C3532 0.950 . S
H3510 C3533 0.950 . S
H3511 C3535 0.950 . S
H3512 C3536 0.950 . S
H3513 C3537 0.951 . S
H3514 C3539 0.951 . S
H3515 C3541 0.950 . S
H3516 C3542 0.950 . S
H3517 C3544 0.950 . S
H3518 C3547 0.950 . S
H3519 C3548 0.950 . S
H3520 C3550 0.950 . S
H3521 C3551 0.950 . S
C3522 H3504 0.951 . S
C3522 C3523 1.366 . S
C3522 C3524 1.388 . S
C3523 C3522 1.366 . S
C3523 C3527 1.385 . S
C3524 H3505 0.951 . S
C3524 C3522 1.388 . S
C3524 C3525 1.366 . S
C3525 C3524 1.366 . S
C3525 C3526 1.414 . S
C3525 C3528 1.499 . S
C3526 H3506 0.950 . S
C3526 C3525 1.414 . S
C3526 C3527 1.374 . S
C3527 H3507 0.950 . S
C3527 C3523 1.385 . S
C3527 C3526 1.374 . S
C3528 C3525 1.499 . S
C3528 C3529 1.373 . S
C3528 C3530 1.389 . S
C3529 H3508 0.950 . S
C3529 C3528 1.373 . S
C3529 C3545 1.377 . S
C3530 C3528 1.389 . S
C3530 C3531 1.524 . S
C3530 C3544 1.377 . S
C3531 C3530 1.524 . S
C3531 C3532 1.397 . S
C3531 C3536 1.363 1_556 S
C3532 H3509 0.950 . S
C3532 C3531 1.397 . S
C3532 C3533 1.334 1_556 S
C3533 H3510 0.950 . S
C3533 C3532 1.334 1_554 S
C3533 C3534 1.287 . S
C3534 C3533 1.287 . S
C3534 C3535 1.524 . S
C3534 H3553 0.913 . S
C3535 H3511 0.950 . S
C3535 C3534 1.524 . S
C3535 C3536 1.415 . S
C3536 H3512 0.950 . S
C3536 C3531 1.363 1_554 S
C3536 C3535 1.415 . S
C3537 H3513 0.951 . S
C3537 C3538 1.366 . S
C3537 C3539 1.388 . S
C3538 C3537 1.366 . S
C3538 C3542 1.385 . S
C3539 H3514 0.951 . S
C3539 C3537 1.388 . S
C3539 C3540 1.366 . S
C3540 C3539 1.366 . S
C3540 C3541 1.414 . S
C3540 C3543 1.499 . S
C3541 H3515 0.950 . S
C3541 C3540 1.414 . S
C3541 C3542 1.374 . S
C3542 H3516 0.950 . S
C3542 C3538 1.385 . S
C3542 C3541 1.374 . S
C3543 C3540 1.499 . S
C3543 C3544 1.373 . S
C3543 C3545 1.389 . S
C3544 H3517 0.950 . S
C3544 C3530 1.377 . S
C3544 C3543 1.373 . S
C3545 C3529 1.377 . S
C3545 C3543 1.389 . S
C3545 C3546 1.524 . S
C3546 C3545 1.524 . S
C3546 C3547 1.397 . S
C3546 C3551 1.363 . S
C3547 H3518 0.950 . S
C3547 C3546 1.397 . S
C3547 C3548 1.334 . S
C3548 H3519 0.950 . S
C3548 C3547 1.334 . S
C3548 C3549 1.287 . S
C3549 C3548 1.287 . S
C3549 C3550 1.524 . S
C3549 H3552 0.999 . S
C3550 H3520 0.950 . S
C3550 C3549 1.524 . S
C3550 C3551 1.415 . S
C3551 H3521 0.950 . S
C3551 C3546 1.363 . S
C3551 C3550 1.415 . S
H3552 C3549 0.999 . S
H3553 C3534 0.913 . S
H3554 C3572 0.951 . S
H3555 C3574 0.951 . S
H3556 C3576 0.950 . S
H3557 C3577 0.950 . S
H3558 C3579 0.950 . S
H3559 C3582 0.950 . S
H3560 C3583 0.950 . S
H3561 C3585 0.950 . S
H3562 C3586 0.950 . S
H3563 C3587 0.951 . S
H3564 C3589 0.951 . S
H3565 C3591 0.950 . S
H3566 C3592 0.950 . S
H3567 C3594 0.950 . S
H3568 C3597 0.950 . S
H3569 C3598 0.950 . S
H3570 C3600 0.950 . S
H3571 C3601 0.950 . S
C3572 H3554 0.951 . S
C3572 C3573 1.366 . S
C3572 C3574 1.388 . S
C3573 C3572 1.366 . S
C3573 C3577 1.385 . S
C3574 H3555 0.951 . S
C3574 C3572 1.388 . S
C3574 C3575 1.366 . S
C3575 C3574 1.366 . S
C3575 C3576 1.414 . S
C3575 C3578 1.499 . S
C3576 H3556 0.950 . S
C3576 C3575 1.414 . S
C3576 C3577 1.374 . S
C3577 H3557 0.950 . S
C3577 C3573 1.385 . S
C3577 C3576 1.374 . S
C3578 C3575 1.499 . S
C3578 C3579 1.373 . S
C3578 C3580 1.389 . S
C3579 H3558 0.950 . S
C3579 C3578 1.373 . S
C3579 C3595 1.377 . S
C3580 C3578 1.389 . S
C3580 C3581 1.524 . S
C3580 C3594 1.377 . S
C3581 C3580 1.524 . S
C3581 C3582 1.397 1_556 S
C3581 C3586 1.363 . S
C3582 H3559 0.950 . S
C3582 C3581 1.397 1_554 S
C3582 C3583 1.334 . S
C3583 H3560 0.950 . S
C3583 C3582 1.334 . S
C3583 C3584 1.287 . S
C3584 C3583 1.287 . S
C3584 C3585 1.524 . S
C3584 H3603 0.913 . S
C3585 H3561 0.950 . S
C3585 C3584 1.524 . S
C3585 C3586 1.415 1_554 S
C3586 H3562 0.950 . S
C3586 C3581 1.363 . S
C3586 C3585 1.415 1_556 S
C3587 H3563 0.951 . S
C3587 C3588 1.366 . S
C3587 C3589 1.388 . S
C3588 C3587 1.366 . S
C3588 C3592 1.385 . S
C3589 H3564 0.951 . S
C3589 C3587 1.388 . S
C3589 C3590 1.366 . S
C3590 C3589 1.366 . S
C3590 C3591 1.414 . S
C3590 C3593 1.499 . S
C3591 H3565 0.950 . S
C3591 C3590 1.414 . S
C3591 C3592 1.374 . S
C3592 H3566 0.950 . S
C3592 C3588 1.385 . S
C3592 C3591 1.374 . S
C3593 C3590 1.499 . S
C3593 C3594 1.373 . S
C3593 C3595 1.389 . S
C3594 H3567 0.950 . S
C3594 C3580 1.377 . S
C3594 C3593 1.373 . S
C3595 C3579 1.377 . S
C3595 C3593 1.389 . S
C3595 C3596 1.524 . S
C3596 C3595 1.524 . S
C3596 C3597 1.397 . S
C3596 C3601 1.363 . S
C3597 H3568 0.950 . S
C3597 C3596 1.397 . S
C3597 C3598 1.334 . S
C3598 H3569 0.950 . S
C3598 C3597 1.334 . S
C3598 C3599 1.287 . S
C3599 C3598 1.287 . S
C3599 C3600 1.524 . S
C3599 H3602 0.999 . S
C3600 H3570 0.950 . S
C3600 C3599 1.524 . S
C3600 C3601 1.415 . S
C3601 H3571 0.950 . S
C3601 C3596 1.363 . S
C3601 C3600 1.415 . S
H3602 C3599 0.999 . S
H3603 C3584 0.913 . S
H3604 C3622 0.951 . S
H3605 C3624 0.951 . S
H3606 C3626 0.950 . S
H3607 C3627 0.950 . S
H3608 C3629 0.950 . S
H3609 C3632 0.946 1_556 S
H3610 C3633 0.950 . S
H3611 C3635 0.950 . S
H3612 C3636 0.950 . S
H3613 C3637 0.951 . S
H3614 C3639 0.951 . S
H3615 C3641 0.950 . S
H3616 C3642 0.950 . S
H3617 C3644 0.950 . S
H3618 C3647 0.950 . S
H3619 C3648 0.950 . S
H3620 C3650 0.950 . S
H3621 C3651 0.950 . S
C3622 H3604 0.951 . S
C3622 C3623 1.366 . S
C3622 C3624 1.388 . S
C3623 C3622 1.366 . S
C3623 C3627 1.385 . S
C3624 H3605 0.951 . S
C3624 C3622 1.388 . S
C3624 C3625 1.366 . S
C3625 C3624 1.366 . S
C3625 C3626 1.414 . S
C3625 C3628 1.499 . S
C3626 H3606 0.950 . S
C3626 C3625 1.414 . S
C3626 C3627 1.374 . S
C3627 H3607 0.950 . S
C3627 C3623 1.385 . S
C3627 C3626 1.374 . S
C3628 C3625 1.499 . S
C3628 C3629 1.373 . S
C3628 C3630 1.389 . S
C3629 H3608 0.950 . S
C3629 C3628 1.373 . S
C3629 C3645 1.377 . S
C3630 C3628 1.389 . S
C3630 C3631 1.524 . S
C3630 C3644 1.377 . S
C3631 C3630 1.524 . S
C3631 C3632 1.389 1_556 S
C3631 C3636 1.363 . S
C3632 H3609 0.946 1_554 S
C3632 C3631 1.389 1_554 S
C3632 C3633 1.346 . S
C3633 H3610 0.950 . S
C3633 C3632 1.346 . S
C3633 C3634 1.287 . S
C3634 C3633 1.287 . S
C3634 C3635 1.524 . S
C3634 H3653 0.913 . S
C3635 H3611 0.950 . S
C3635 C3634 1.524 . S
C3635 C3636 1.415 1_554 S
C3636 H3612 0.950 . S
C3636 C3631 1.363 . S
C3636 C3635 1.415 1_556 S
C3637 H3613 0.951 . S
C3637 C3638 1.366 . S
C3637 C3639 1.388 . S
C3638 C3637 1.366 . S
C3638 C3642 1.385 . S
C3639 H3614 0.951 . S
C3639 C3637 1.388 . S
C3639 C3640 1.366 . S
C3640 C3639 1.366 . S
C3640 C3641 1.414 . S
C3640 C3643 1.499 . S
C3641 H3615 0.950 . S
C3641 C3640 1.414 . S
C3641 C3642 1.374 . S
C3642 H3616 0.950 . S
C3642 C3638 1.385 . S
C3642 C3641 1.374 . S
C3643 C3640 1.499 . S
C3643 C3644 1.373 . S
C3643 C3645 1.389 . S
C3644 H3617 0.950 . S
C3644 C3630 1.377 . S
C3644 C3643 1.373 . S
C3645 C3629 1.377 . S
C3645 C3643 1.389 . S
C3645 C3646 1.524 . S
C3646 C3645 1.524 . S
C3646 C3647 1.397 . S
C3646 C3651 1.363 . S
C3647 H3618 0.950 . S
C3647 C3646 1.397 . S
C3647 C3648 1.334 . S
C3648 H3619 0.950 . S
C3648 C3647 1.334 . S
C3648 C3649 1.287 . S
C3649 C3648 1.287 . S
C3649 C3650 1.524 . S
C3649 H3652 0.999 . S
C3650 H3620 0.950 . S
C3650 C3649 1.524 . S
C3650 C3651 1.415 . S
C3651 H3621 0.950 . S
C3651 C3646 1.363 . S
C3651 C3650 1.415 . S
H3652 C3649 0.999 . S
H3653 C3634 0.913 . S
H3654 C3672 0.951 . S
H3655 C3674 0.951 . S
H3656 C3676 0.950 . S
H3657 C3677 0.950 . S
H3658 C3679 0.950 . S
H3659 C3682 0.950 . S
H3660 C3683 0.950 . S
H3661 C3685 0.950 . S
H3662 C3686 0.950 . S
H3663 C3687 0.951 . S
H3664 C3689 0.951 . S
H3665 C3691 0.950 . S
H3666 C3692 0.950 . S
H3667 C3694 0.950 . S
H3668 C3697 0.950 . S
H3669 C3698 0.950 . S
H3670 C3700 0.950 . S
H3671 C3701 0.950 . S
C3672 H3654 0.951 . S
C3672 C3673 1.366 . S
C3672 C3674 1.388 . S
C3673 C3672 1.366 . S
C3673 C3677 1.385 . S
C3674 H3655 0.951 . S
C3674 C3672 1.388 . S
C3674 C3675 1.366 . S
C3675 C3674 1.366 . S
C3675 C3676 1.414 . S
C3675 C3678 1.499 . S
C3676 H3656 0.950 . S
C3676 C3675 1.414 . S
C3676 C3677 1.374 . S
C3677 H3657 0.950 . S
C3677 C3673 1.385 . S
C3677 C3676 1.374 . S
C3678 C3675 1.499 . S
C3678 C3679 1.373 . S
C3678 C3680 1.389 . S
C3679 H3658 0.950 . S
C3679 C3678 1.373 . S
C3679 C3695 1.377 . S
C3680 C3678 1.389 . S
C3680 C3681 1.524 . S
C3680 C3694 1.377 . S
C3681 C3680 1.524 . S
C3681 C3682 1.397 . S
C3681 C3686 1.363 . S
C3682 H3659 0.950 . S
C3682 C3681 1.397 . S
C3682 C3683 1.334 . S
C3683 H3660 0.950 . S
C3683 C3682 1.334 . S
C3683 C3684 1.287 . S
C3684 C3683 1.287 . S
C3684 C3685 1.524 . S
C3684 H3703 0.913 . S
C3685 H3661 0.950 . S
C3685 C3684 1.524 . S
C3685 C3686 1.415 . S
C3686 H3662 0.950 . S
C3686 C3681 1.363 . S
C3686 C3685 1.415 . S
C3687 H3663 0.951 . S
C3687 C3688 1.366 . S
C3687 C3689 1.388 . S
C3688 C3687 1.366 . S
C3688 C3692 1.385 . S
C3689 H3664 0.951 . S
C3689 C3687 1.388 . S
C3689 C3690 1.366 . S
C3690 C3689 1.366 . S
C3690 C3691 1.414 . S
C3690 C3693 1.499 . S
C3691 H3665 0.950 . S
C3691 C3690 1.414 . S
C3691 C3692 1.374 . S
C3692 H3666 0.950 . S
C3692 C3688 1.385 . S
C3692 C3691 1.374 . S
C3693 C3690 1.499 . S
C3693 C3694 1.373 . S
C3693 C3695 1.389 . S
C3694 H3667 0.950 . S
C3694 C3680 1.377 . S
C3694 C3693 1.373 . S
C3695 C3679 1.377 . S
C3695 C3693 1.389 . S
C3695 C3696 1.524 . S
C3696 C3695 1.524 . S
C3696 C3697 1.397 . S
C3696 C3701 1.363 . S
C3697 H3668 0.950 . S
C3697 C3696 1.397 . S
C3697 C3698 1.334 . S
C3698 H3669 0.950 . S
C3698 C3697 1.334 . S
C3698 C3699 1.287 . S
C3699 C3698 1.287 . S
C3699 C3700 1.524 . S
C3699 H3702 0.999 . S
C3700 H3670 0.950 . S
C3700 C3699 1.524 . S
C3700 C3701 1.415 . S
C3701 H3671 0.950 . S
C3701 C3696 1.363 . S
C3701 C3700 1.415 . S
H3702 C3699 0.999 . S
H3703 C3684 0.913 . S
H3704 C3722 0.951 . S
H3705 C3724 0.951 . S
H3706 C3726 0.950 . S
H3707 C3727 0.950 . S
H3708 C3729 0.950 . S
H3709 C3732 0.950 . S
H3710 C3733 0.950 . S
H3711 C3735 0.950 . S
H3712 C3736 0.950 . S
H3713 C3737 0.951 . S
H3714 C3739 0.951 . S
H3715 C3741 0.950 . S
H3716 C3742 0.950 . S
H3717 C3744 0.950 . S
H3718 C3747 0.950 . S
H3719 C3748 0.950 . S
H3720 C3750 0.950 . S
H3721 C3751 0.950 . S
C3722 H3704 0.951 . S
C3722 C3723 1.366 . S
C3722 C3724 1.388 . S
C3723 C3722 1.366 . S
C3723 C3727 1.385 . S
C3724 H3705 0.951 . S
C3724 C3722 1.388 . S
C3724 C3725 1.366 . S
C3725 C3724 1.366 . S
C3725 C3726 1.414 . S
C3725 C3728 1.499 . S
C3726 H3706 0.950 . S
C3726 C3725 1.414 . S
C3726 C3727 1.374 . S
C3727 H3707 0.950 . S
C3727 C3723 1.385 . S
C3727 C3726 1.374 . S
C3728 C3725 1.499 . S
C3728 C3729 1.373 . S
C3728 C3730 1.389 . S
C3729 H3708 0.950 . S
C3729 C3728 1.373 . S
C3729 C3745 1.377 . S
C3730 C3728 1.389 . S
C3730 C3731 1.524 . S
C3730 C3744 1.377 . S
C3731 C3730 1.524 . S
C3731 C3732 1.397 . S
C3731 C3736 1.363 . S
C3732 H3709 0.950 . S
C3732 C3731 1.397 . S
C3732 C3733 1.334 . S
C3733 H3710 0.950 . S
C3733 C3732 1.334 . S
C3733 C3734 1.287 . S
C3734 C3733 1.287 . S
C3734 C3735 1.524 . S
C3734 H3753 0.913 . S
C3735 H3711 0.950 . S
C3735 C3734 1.524 . S
C3735 C3736 1.415 . S
C3736 H3712 0.950 . S
C3736 C3731 1.363 . S
C3736 C3735 1.415 . S
C3737 H3713 0.951 . S
C3737 C3738 1.366 . S
C3737 C3739 1.388 . S
C3738 C3737 1.366 . S
C3738 C3742 1.385 . S
C3739 H3714 0.951 . S
C3739 C3737 1.388 . S
C3739 C3740 1.366 . S
C3740 C3739 1.366 . S
C3740 C3741 1.414 . S
C3740 C3743 1.499 . S
C3741 H3715 0.950 . S
C3741 C3740 1.414 . S
C3741 C3742 1.374 . S
C3742 H3716 0.950 . S
C3742 C3738 1.385 . S
C3742 C3741 1.374 . S
C3743 C3740 1.499 . S
C3743 C3744 1.373 . S
C3743 C3745 1.389 . S
C3744 H3717 0.950 . S
C3744 C3730 1.377 . S
C3744 C3743 1.373 . S
C3745 C3729 1.377 . S
C3745 C3743 1.389 . S
C3745 C3746 1.524 . S
C3746 C3745 1.524 . S
C3746 C3747 1.397 . S
C3746 C3751 1.363 . S
C3747 H3718 0.950 . S
C3747 C3746 1.397 . S
C3747 C3748 1.334 . S
C3748 H3719 0.950 . S
C3748 C3747 1.334 . S
C3748 C3749 1.287 . S
C3749 C3748 1.287 . S
C3749 C3750 1.524 . S
C3749 H3752 0.999 . S
C3750 H3720 0.950 . S
C3750 C3749 1.524 . S
C3750 C3751 1.415 . S
C3751 H3721 0.950 . S
C3751 C3746 1.363 . S
C3751 C3750 1.415 . S
H3752 C3749 0.999 . S
H3753 C3734 0.913 . S
H3754 C3772 0.951 . S
H3755 C3774 0.951 . S
H3756 C3776 0.950 . S
H3757 C3777 0.950 . S
H3758 C3779 0.950 . S
H3759 C3782 0.950 . S
H3760 C3783 0.950 . S
H3761 C3785 0.950 . S
H3762 C3786 0.950 . S
H3763 C3787 0.951 . S
H3764 C3789 0.951 . S
H3765 C3791 0.950 . S
H3766 C3792 0.950 . S
H3767 C3794 0.950 . S
H3768 C3797 0.950 . S
H3769 C3798 0.950 . S
H3770 C3800 0.950 . S
H3771 C3801 0.950 . S
C3772 H3754 0.951 . S
C3772 C3773 1.366 . S
C3772 C3774 1.388 . S
C3773 C3772 1.366 . S
C3773 C3777 1.385 . S
C3774 H3755 0.951 . S
C3774 C3772 1.388 . S
C3774 C3775 1.366 . S
C3775 C3774 1.366 . S
C3775 C3776 1.414 . S
C3775 C3778 1.499 . S
C3776 H3756 0.950 . S
C3776 C3775 1.414 . S
C3776 C3777 1.374 . S
C3777 H3757 0.950 . S
C3777 C3773 1.385 . S
C3777 C3776 1.374 . S
C3778 C3775 1.499 . S
C3778 C3779 1.373 . S
C3778 C3780 1.389 . S
C3779 H3758 0.950 . S
C3779 C3778 1.373 . S
C3779 C3795 1.377 . S
C3780 C3778 1.389 . S
C3780 C3781 1.524 . S
C3780 C3794 1.377 . S
C3781 C3780 1.524 . S
C3781 C3782 1.397 . S
C3781 C3786 1.363 . S
C3782 H3759 0.950 . S
C3782 C3781 1.397 . S
C3782 C3783 1.334 . S
C3783 H3760 0.950 . S
C3783 C3782 1.334 . S
C3783 C3784 1.287 . S
C3784 C3783 1.287 . S
C3784 C3785 1.524 . S
C3784 H3803 0.913 . S
C3785 H3761 0.950 . S
C3785 C3784 1.524 . S
C3785 C3786 1.415 . S
C3786 H3762 0.950 . S
C3786 C3781 1.363 . S
C3786 C3785 1.415 . S
C3787 H3763 0.951 . S
C3787 C3788 1.366 . S
C3787 C3789 1.388 . S
C3788 C3787 1.366 . S
C3788 C3792 1.385 . S
C3789 H3764 0.951 . S
C3789 C3787 1.388 . S
C3789 C3790 1.366 . S
C3790 C3789 1.366 . S
C3790 C3791 1.414 . S
C3790 C3793 1.499 . S
C3791 H3765 0.950 . S
C3791 C3790 1.414 . S
C3791 C3792 1.374 . S
C3792 H3766 0.950 . S
C3792 C3788 1.385 . S
C3792 C3791 1.374 . S
C3793 C3790 1.499 . S
C3793 C3794 1.373 . S
C3793 C3795 1.389 . S
C3794 H3767 0.950 . S
C3794 C3780 1.377 . S
C3794 C3793 1.373 . S
C3795 C3779 1.377 . S
C3795 C3793 1.389 . S
C3795 C3796 1.524 . S
C3796 C3795 1.524 . S
C3796 C3797 1.397 . S
C3796 C3801 1.363 . S
C3797 H3768 0.950 . S
C3797 C3796 1.397 . S
C3797 C3798 1.334 . S
C3798 H3769 0.950 . S
C3798 C3797 1.334 . S
C3798 C3799 1.287 . S
C3799 C3798 1.287 . S
C3799 C3800 1.524 . S
C3799 H3802 0.999 . S
C3800 H3770 0.950 . S
C3800 C3799 1.524 . S
C3800 C3801 1.415 . S
C3801 H3771 0.950 . S
C3801 C3796 1.363 . S
C3801 C3800 1.415 . S
H3802 C3799 0.999 . S
H3803 C3784 0.913 . S
H3804 C3822 0.951 . S
H3805 C3824 0.951 . S
H3806 C3826 0.950 . S
H3807 C3827 0.950 . S
H3808 C3829 0.950 . S
H3809 C3832 0.950 . S
H3810 C3833 0.950 . S
H3811 C3835 0.950 . S
H3812 C3836 0.950 . S
H3813 C3837 0.951 . S
H3814 C3839 0.951 . S
H3815 C3841 0.950 . S
H3816 C3842 0.950 . S
H3817 C3844 0.950 . S
H3818 C3847 0.950 . S
H3819 C3848 0.950 . S
H3820 C3850 0.950 . S
H3821 C3851 0.950 . S
C3822 H3804 0.951 . S
C3822 C3823 1.366 . S
C3822 C3824 1.388 . S
C3823 C3822 1.366 . S
C3823 C3827 1.385 . S
C3824 H3805 0.951 . S
C3824 C3822 1.388 . S
C3824 C3825 1.366 . S
C3825 C3824 1.366 . S
C3825 C3826 1.414 . S
C3825 C3828 1.499 . S
C3826 H3806 0.950 . S
C3826 C3825 1.414 . S
C3826 C3827 1.374 . S
C3827 H3807 0.950 . S
C3827 C3823 1.385 . S
C3827 C3826 1.374 . S
C3828 C3825 1.499 . S
C3828 C3829 1.373 . S
C3828 C3830 1.389 . S
C3829 H3808 0.950 . S
C3829 C3828 1.373 . S
C3829 C3845 1.377 1_455 S
C3830 C3828 1.389 . S
C3830 C3831 1.524 . S
C3830 C3844 1.377 1_455 S
C3831 C3830 1.524 . S
C3831 C3832 1.397 . S
C3831 C3836 1.363 . S
C3832 H3809 0.950 . S
C3832 C3831 1.397 . S
C3832 C3833 1.334 . S
C3833 H3810 0.950 . S
C3833 C3832 1.334 . S
C3833 C3834 1.287 . S
C3834 C3833 1.287 . S
C3834 C3835 1.524 . S
C3834 H3853 0.913 . S
C3835 H3811 0.950 . S
C3835 C3834 1.524 . S
C3835 C3836 1.415 . S
C3836 H3812 0.950 . S
C3836 C3831 1.363 . S
C3836 C3835 1.415 . S
C3837 H3813 0.951 . S
C3837 C3838 1.366 . S
C3837 C3839 1.388 . S
C3838 C3837 1.366 . S
C3838 C3842 1.385 . S
C3839 H3814 0.951 . S
C3839 C3837 1.388 . S
C3839 C3840 1.366 . S
C3840 C3839 1.366 . S
C3840 C3841 1.414 . S
C3840 C3843 1.499 . S
C3841 H3815 0.950 . S
C3841 C3840 1.414 . S
C3841 C3842 1.374 . S
C3842 H3816 0.950 . S
C3842 C3838 1.385 . S
C3842 C3841 1.374 . S
C3843 C3840 1.499 . S
C3843 C3844 1.373 . S
C3843 C3845 1.389 . S
C3844 H3817 0.950 . S
C3844 C3830 1.377 1_655 S
C3844 C3843 1.373 . S
C3845 C3829 1.377 1_655 S
C3845 C3843 1.389 . S
C3845 C3846 1.524 . S
C3846 C3845 1.524 . S
C3846 C3847 1.397 . S
C3846 C3851 1.363 . S
C3847 H3818 0.950 . S
C3847 C3846 1.397 . S
C3847 C3848 1.334 . S
C3848 H3819 0.950 . S
C3848 C3847 1.334 . S
C3848 C3849 1.287 . S
C3849 C3848 1.287 . S
C3849 C3850 1.524 . S
C3849 H3852 0.999 . S
C3850 H3820 0.950 . S
C3850 C3849 1.524 . S
C3850 C3851 1.415 . S
C3851 H3821 0.950 . S
C3851 C3846 1.363 . S
C3851 C3850 1.415 . S
H3852 C3849 0.999 . S
H3853 C3834 0.913 . S
H3854 C3872 0.951 . S
H3855 C3874 0.951 . S
H3856 C3876 0.950 . S
H3857 C3877 0.950 . S
H3858 C3879 0.950 . S
H3859 C3882 0.950 . S
H3860 C3883 0.950 . S
H3861 C3885 0.950 . S
H3862 C3886 0.950 . S
H3863 C3887 0.951 . S
H3864 C3889 0.951 . S
H3865 C3891 0.950 . S
H3866 C3892 0.950 . S
H3867 C3894 0.950 . S
H3868 C3897 0.950 . S
H3869 C3898 0.950 . S
H3870 C3900 0.950 . S
H3871 C3901 0.950 . S
C3872 H3854 0.951 . S
C3872 C3873 1.366 . S
C3872 C3874 1.388 . S
C3873 C3872 1.366 . S
C3873 C3877 1.385 . S
C3874 H3855 0.951 . S
C3874 C3872 1.388 . S
C3874 C3875 1.366 . S
C3875 C3874 1.366 . S
C3875 C3876 1.414 . S
C3875 C3878 1.499 . S
C3876 H3856 0.950 . S
C3876 C3875 1.414 . S
C3876 C3877 1.374 . S
C3877 H3857 0.950 . S
C3877 C3873 1.385 . S
C3877 C3876 1.374 . S
C3878 C3875 1.499 . S
C3878 C3879 1.373 . S
C3878 C3880 1.389 . S
C3879 H3858 0.950 . S
C3879 C3878 1.373 . S
C3879 C3895 1.377 . S
C3880 C3878 1.389 . S
C3880 C3881 1.524 . S
C3880 C3894 1.377 . S
C3881 C3880 1.524 . S
C3881 C3882 1.397 . S
C3881 C3886 1.363 . S
C3882 H3859 0.950 . S
C3882 C3881 1.397 . S
C3882 C3883 1.334 . S
C3883 H3860 0.950 . S
C3883 C3882 1.334 . S
C3883 C3884 1.287 . S
C3884 C3883 1.287 . S
C3884 C3885 1.524 . S
C3884 H3903 0.913 . S
C3885 H3861 0.950 . S
C3885 C3884 1.524 . S
C3885 C3886 1.415 . S
C3886 H3862 0.950 . S
C3886 C3881 1.363 . S
C3886 C3885 1.415 . S
C3887 H3863 0.951 . S
C3887 C3888 1.366 . S
C3887 C3889 1.388 . S
C3888 C3887 1.366 . S
C3888 C3892 1.385 . S
C3889 H3864 0.951 . S
C3889 C3887 1.388 . S
C3889 C3890 1.366 . S
C3890 C3889 1.366 . S
C3890 C3891 1.414 . S
C3890 C3893 1.499 . S
C3891 H3865 0.950 . S
C3891 C3890 1.414 . S
C3891 C3892 1.374 . S
C3892 H3866 0.950 . S
C3892 C3888 1.385 . S
C3892 C3891 1.374 . S
C3893 C3890 1.499 . S
C3893 C3894 1.373 . S
C3893 C3895 1.389 . S
C3894 H3867 0.950 . S
C3894 C3880 1.377 . S
C3894 C3893 1.373 . S
C3895 C3879 1.377 . S
C3895 C3893 1.389 . S
C3895 C3896 1.524 . S
C3896 C3895 1.524 . S
C3896 C3897 1.397 . S
C3896 C3901 1.363 . S
C3897 H3868 0.950 . S
C3897 C3896 1.397 . S
C3897 C3898 1.334 . S
C3898 H3869 0.950 . S
C3898 C3897 1.334 . S
C3898 C3899 1.287 . S
C3899 C3898 1.287 . S
C3899 C3900 1.524 . S
C3899 H3902 0.999 . S
C3900 H3870 0.950 . S
C3900 C3899 1.524 . S
C3900 C3901 1.415 . S
C3901 H3871 0.950 . S
C3901 C3896 1.363 . S
C3901 C3900 1.415 . S
H3902 C3899 0.999 . S
H3903 C3884 0.913 . S
H3904 C3922 0.951 . S
H3905 C3924 0.951 . S
H3906 C3926 0.950 . S
H3907 C3927 0.950 . S
H3908 C3929 0.950 . S
H3909 C3932 0.950 . S
H3910 C3933 0.950 . S
H3911 C3935 0.952 . S
H3912 C3936 0.950 1_545 S
H3913 C3937 0.951 . S
H3914 C3939 0.951 . S
H3915 C3941 0.950 . S
H3916 C3942 0.950 . S
H3917 C3944 0.950 . S
H3918 C3947 0.950 . S
H3919 C3948 0.950 . S
H3920 C3950 0.952 . S
H3921 C3951 0.950 1_565 S
C3922 H3904 0.951 . S
C3922 C3923 1.366 . S
C3922 C3924 1.388 . S
C3923 C3922 1.366 . S
C3923 C3927 1.385 . S
C3924 H3905 0.951 . S
C3924 C3922 1.388 . S
C3924 C3925 1.366 . S
C3925 C3924 1.366 . S
C3925 C3926 1.414 . S
C3925 C3928 1.499 . S
C3926 H3906 0.950 . S
C3926 C3925 1.414 . S
C3926 C3927 1.374 . S
C3927 H3907 0.950 . S
C3927 C3923 1.385 . S
C3927 C3926 1.374 . S
C3928 C3925 1.499 . S
C3928 C3929 1.373 . S
C3928 C3930 1.389 . S
C3929 H3908 0.950 . S
C3929 C3928 1.373 . S
C3929 C3945 1.377 1_565 S
C3930 C3928 1.389 . S
C3930 C3931 1.524 . S
C3930 C3944 1.377 1_565 S
C3931 C3930 1.524 . S
C3931 C3932 1.397 . S
C3931 C3936 1.363 . S
C3932 H3909 0.950 . S
C3932 C3931 1.397 . S
C3932 C3933 1.334 . S
C3933 H3910 0.950 . S
C3933 C3932 1.334 . S
C3933 C3934 1.287 . S
C3934 C3933 1.287 . S
C3934 C3935 1.524 . S
C3934 H3953 0.913 . S
C3935 H3911 0.952 . S
C3935 C3934 1.524 . S
C3935 C3936 1.415 . S
C3936 H3912 0.950 1_565 S
C3936 C3931 1.363 . S
C3936 C3935 1.415 . S
C3937 H3913 0.951 . S
C3937 C3938 1.366 . S
C3937 C3939 1.388 . S
C3938 C3937 1.366 . S
C3938 C3942 1.385 . S
C3939 H3914 0.951 . S
C3939 C3937 1.388 . S
C3939 C3940 1.366 . S
C3940 C3939 1.366 . S
C3940 C3941 1.414 . S
C3940 C3943 1.499 . S
C3941 H3915 0.950 . S
C3941 C3940 1.414 . S
C3941 C3942 1.374 . S
C3942 H3916 0.950 . S
C3942 C3938 1.385 . S
C3942 C3941 1.374 . S
C3943 C3940 1.499 . S
C3943 C3944 1.373 . S
C3943 C3945 1.389 . S
C3944 H3917 0.950 . S
C3944 C3930 1.377 1_545 S
C3944 C3943 1.373 . S
C3945 C3929 1.377 1_545 S
C3945 C3943 1.389 . S
C3945 C3946 1.524 . S
C3946 C3945 1.524 . S
C3946 C3947 1.397 . S
C3946 C3951 1.363 . S
C3947 H3918 0.950 . S
C3947 C3946 1.397 . S
C3947 C3948 1.334 . S
C3948 H3919 0.950 . S
C3948 C3947 1.334 . S
C3948 C3949 1.287 . S
C3949 C3948 1.287 . S
C3949 C3950 1.524 . S
C3949 H3952 0.999 . S
C3950 H3920 0.952 . S
C3950 C3949 1.524 . S
C3950 C3951 1.415 . S
C3951 H3921 0.950 1_545 S
C3951 C3946 1.363 . S
C3951 C3950 1.415 . S
H3952 C3949 0.999 . S
H3953 C3934 0.913 . S
H3954 C3972 0.951 . S
H3955 C3974 0.951 . S
H3956 C3976 0.950 . S
H3957 C3977 0.950 . S
H3958 C3979 0.950 . S
H3959 C3982 0.950 . S
H3960 C3983 0.950 . S
H3961 C3985 0.950 . S
H3962 C3986 0.950 1_565 S
H3963 C3987 0.951 . S
H3964 C3989 0.951 . S
H3965 C3991 0.950 . S
H3966 C3992 0.950 . S
H3967 C3994 0.950 . S
H3968 C3997 0.950 . S
H3969 C3998 0.950 . S
H3970 C4000 0.950 . S
H3971 C4001 0.950 1_545 S
C3972 H3954 0.951 . S
C3972 C3973 1.366 . S
C3972 C3974 1.388 . S
C3973 C3972 1.366 . S
C3973 C3977 1.385 . S
C3974 H3955 0.951 . S
C3974 C3972 1.388 . S
C3974 C3975 1.366 . S
C3975 C3974 1.366 . S
C3975 C3976 1.414 . S
C3975 C3978 1.499 . S
C3976 H3956 0.950 . S
C3976 C3975 1.414 . S
C3976 C3977 1.374 . S
C3977 H3957 0.950 . S
C3977 C3973 1.385 . S
C3977 C3976 1.374 . S
C3978 C3975 1.499 . S
C3978 C3979 1.373 . S
C3978 C3980 1.389 . S
C3979 H3958 0.950 . S
C3979 C3978 1.373 . S
C3979 C3995 1.377 1_545 S
C3980 C3978 1.389 . S
C3980 C3981 1.524 . S
C3980 C3994 1.377 1_545 S
C3981 C3980 1.524 . S
C3981 C3982 1.397 . S
C3981 C3986 1.363 . S
C3982 H3959 0.950 . S
C3982 C3981 1.397 . S
C3982 C3983 1.334 . S
C3983 H3960 0.950 . S
C3983 C3982 1.334 . S
C3983 C3984 1.287 . S
C3984 C3983 1.287 . S
C3984 C3985 1.524 . S
C3984 H4003 0.913 . S
C3985 H3961 0.950 . S
C3985 C3984 1.524 . S
C3985 C3986 1.415 . S
C3986 H3962 0.950 1_545 S
C3986 C3981 1.363 . S
C3986 C3985 1.415 . S
C3987 H3963 0.951 . S
C3987 C3988 1.366 . S
C3987 C3989 1.388 . S
C3988 C3987 1.366 . S
C3988 C3992 1.385 . S
C3989 H3964 0.951 . S
C3989 C3987 1.388 . S
C3989 C3990 1.366 . S
C3990 C3989 1.366 . S
C3990 C3991 1.414 . S
C3990 C3993 1.499 . S
C3991 H3965 0.950 . S
C3991 C3990 1.414 . S
C3991 C3992 1.374 . S
C3992 H3966 0.950 . S
C3992 C3988 1.385 . S
C3992 C3991 1.374 . S
C3993 C3990 1.499 . S
C3993 C3994 1.373 . S
C3993 C3995 1.389 . S
C3994 H3967 0.950 . S
C3994 C3980 1.377 1_565 S
C3994 C3993 1.373 . S
C3995 C3979 1.377 1_565 S
C3995 C3993 1.389 . S
C3995 C3996 1.524 . S
C3996 C3995 1.524 . S
C3996 C3997 1.397 . S
C3996 C4001 1.363 . S
C3997 H3968 0.950 . S
C3997 C3996 1.397 . S
C3997 C3998 1.334 . S
C3998 H3969 0.950 . S
C3998 C3997 1.334 . S
C3998 C3999 1.287 . S
C3999 C3998 1.287 . S
C3999 C4000 1.524 . S
C3999 H4002 0.999 . S
C4000 H3970 0.950 . S
C4000 C3999 1.524 . S
C4000 C4001 1.415 . S
C4001 H3971 0.950 1_565 S
C4001 C3996 1.363 . S
C4001 C4000 1.415 . S
H4002 C3999 0.999 . S
H4003 C3984 0.913 . S
H4004 C4022 0.951 . S
H4005 C4024 0.951 . S
H4006 C4026 0.950 . S
H4007 C4027 0.950 . S
H4008 C4029 0.950 . S
H4009 C4032 0.950 . S
H4010 C4033 0.950 . S
H4011 C4035 0.950 . S
H4012 C4036 0.950 1_655 S
H4013 C4037 0.951 . S
H4014 C4039 0.951 . S
H4015 C4041 0.950 . S
H4016 C4042 0.950 . S
H4017 C4044 0.950 . S
H4018 C4047 0.950 . S
H4019 C4048 0.950 . S
H4020 C4050 0.950 . S
H4021 C4051 0.950 1_455 S
C4022 H4004 0.951 . S
C4022 C4023 1.366 . S
C4022 C4024 1.388 . S
C4023 C4022 1.366 . S
C4023 C4027 1.385 . S
C4024 H4005 0.951 . S
C4024 C4022 1.388 . S
C4024 C4025 1.366 . S
C4025 C4024 1.366 . S
C4025 C4026 1.414 . S
C4025 C4028 1.499 . S
C4026 H4006 0.950 . S
C4026 C4025 1.414 . S
C4026 C4027 1.374 . S
C4027 H4007 0.950 . S
C4027 C4023 1.385 . S
C4027 C4026 1.374 . S
C4028 C4025 1.499 . S
C4028 C4029 1.373 . S
C4028 C4030 1.389 . S
C4029 H4008 0.950 . S
C4029 C4028 1.373 . S
C4029 C4045 1.377 1_455 S
C4030 C4028 1.389 . S
C4030 C4031 1.524 . S
C4030 C4044 1.377 1_455 S
C4031 C4030 1.524 . S
C4031 C4032 1.397 . S
C4031 C4036 1.363 . S
C4032 H4009 0.950 . S
C4032 C4031 1.397 . S
C4032 C4033 1.334 . S
C4033 H4010 0.950 . S
C4033 C4032 1.334 . S
C4033 C4034 1.287 . S
C4034 C4033 1.287 . S
C4034 C4035 1.524 . S
C4034 H4053 0.913 . S
C4035 H4011 0.950 . S
C4035 C4034 1.524 . S
C4035 C4036 1.415 . S
C4036 H4012 0.950 1_455 S
C4036 C4031 1.363 . S
C4036 C4035 1.415 . S
C4037 H4013 0.951 . S
C4037 C4038 1.366 . S
C4037 C4039 1.388 . S
C4038 C4037 1.366 . S
C4038 C4042 1.385 . S
C4039 H4014 0.951 . S
C4039 C4037 1.388 . S
C4039 C4040 1.366 . S
C4040 C4039 1.366 . S
C4040 C4041 1.414 . S
C4040 C4043 1.499 . S
C4041 H4015 0.950 . S
C4041 C4040 1.414 . S
C4041 C4042 1.374 . S
C4042 H4016 0.950 . S
C4042 C4038 1.385 . S
C4042 C4041 1.374 . S
C4043 C4040 1.499 . S
C4043 C4044 1.373 . S
C4043 C4045 1.389 . S
C4044 H4017 0.950 . S
C4044 C4030 1.377 1_655 S
C4044 C4043 1.373 . S
C4045 C4029 1.377 1_655 S
C4045 C4043 1.389 . S
C4045 C4046 1.524 . S
C4046 C4045 1.524 . S
C4046 C4047 1.397 . S
C4046 C4051 1.363 . S
C4047 H4018 0.950 . S
C4047 C4046 1.397 . S
C4047 C4048 1.334 . S
C4048 H4019 0.950 . S
C4048 C4047 1.334 . S
C4048 C4049 1.287 . S
C4049 C4048 1.287 . S
C4049 C4050 1.524 . S
C4049 H4052 0.999 . S
C4050 H4020 0.950 . S
C4050 C4049 1.524 . S
C4050 C4051 1.415 . S
C4051 H4021 0.950 1_655 S
C4051 C4046 1.363 . S
C4051 C4050 1.415 . S
H4052 C4049 0.999 . S
H4053 C4034 0.913 . S
H4054 C4072 0.951 . S
H4055 C4074 0.951 . S
H4056 C4076 0.950 . S
H4057 C4077 0.950 . S
H4058 C4079 0.950 . S
H4059 C4082 0.950 . S
H4060 C4083 0.950 . S
H4061 C4085 0.950 . S
H4062 C4086 0.950 . S
H4063 C4087 0.951 . S
H4064 C4089 0.951 . S
H4065 C4091 0.950 . S
H4066 C4092 0.950 . S
H4067 C4094 0.950 . S
H4068 C4097 0.950 . S
H4069 C4098 0.950 . S
H4070 C4100 0.950 . S
H4071 C4101 0.950 . S
C4072 H4054 0.951 . S
C4072 C4073 1.366 . S
C4072 C4074 1.388 . S
C4073 C4072 1.366 . S
C4073 C4077 1.385 . S
C4074 H4055 0.951 . S
C4074 C4072 1.388 . S
C4074 C4075 1.366 . S
C4075 C4074 1.366 . S
C4075 C4076 1.414 . S
C4075 C4078 1.499 . S
C4076 H4056 0.950 . S
C4076 C4075 1.414 . S
C4076 C4077 1.374 . S
C4077 H4057 0.950 . S
C4077 C4073 1.385 . S
C4077 C4076 1.374 . S
C4078 C4075 1.499 . S
C4078 C4079 1.373 . S
C4078 C4080 1.389 . S
C4079 H4058 0.950 . S
C4079 C4078 1.373 . S
C4079 C4095 1.377 . S
C4080 C4078 1.389 . S
C4080 C4081 1.524 . S
C4080 C4094 1.377 . S
C4081 C4080 1.524 . S
C4081 C4082 1.397 . S
C4081 C4086 1.363 . S
C4082 H4059 0.950 . S
C4082 C4081 1.397 . S
C4082 C4083 1.334 . S
C4083 H4060 0.950 . S
C4083 C4082 1.334 . S
C4083 C4084 1.287 . S
C4084 C4083 1.287 . S
C4084 C4085 1.524 . S
C4084 H4103 0.913 . S
C4085 H4061 0.950 . S
C4085 C4084 1.524 . S
C4085 C4086 1.415 . S
C4086 H4062 0.950 . S
C4086 C4081 1.363 . S
C4086 C4085 1.415 . S
C4087 H4063 0.951 . S
C4087 C4088 1.366 . S
C4087 C4089 1.388 . S
C4088 C4087 1.366 . S
C4088 C4092 1.385 . S
C4089 H4064 0.951 . S
C4089 C4087 1.388 . S
C4089 C4090 1.366 . S
C4090 C4089 1.366 . S
C4090 C4091 1.414 . S
C4090 C4093 1.499 . S
C4091 H4065 0.950 . S
C4091 C4090 1.414 . S
C4091 C4092 1.374 . S
C4092 H4066 0.950 . S
C4092 C4088 1.385 . S
C4092 C4091 1.374 . S
C4093 C4090 1.499 . S
C4093 C4094 1.373 . S
C4093 C4095 1.389 . S
C4094 H4067 0.950 . S
C4094 C4080 1.377 . S
C4094 C4093 1.373 . S
C4095 C4079 1.377 . S
C4095 C4093 1.389 . S
C4095 C4096 1.524 . S
C4096 C4095 1.524 . S
C4096 C4097 1.397 . S
C4096 C4101 1.363 . S
C4097 H4068 0.950 . S
C4097 C4096 1.397 . S
C4097 C4098 1.334 . S
C4098 H4069 0.950 . S
C4098 C4097 1.334 . S
C4098 C4099 1.287 . S
C4099 C4098 1.287 . S
C4099 C4100 1.524 . S
C4099 H4102 0.999 . S
C4100 H4070 0.950 . S
C4100 C4099 1.524 . S
C4100 C4101 1.415 . S
C4101 H4071 0.950 . S
C4101 C4096 1.363 . S
C4101 C4100 1.415 . S
H4102 C4099 0.999 . S
H4103 C4084 0.913 . S
C523 C53 1.000 . S
C538 C11 1.001 . S
C573 C67 1.000 . S
C588 C25 1.000 . S
C623 C81 1.000 . S
C638 C39 1.001 . S
C673 C95 1.000 . S
C688 C137 1.001 . S
C723 C109 1.001 . S
C738 C151 1.000 . S
C773 C165 1.000 . S
C788 C123 1.001 . S
C823 C179 0.994 . S
C838 C221 0.994 . S
C873 C193 0.993 . S
C888 C235 0.994 . S
C923 C207 0.993 . S
C938 C249 0.994 . S
C973 C263 0.992 . S
C988 C305 0.991 . S
C1023 C319 0.992 . S
C1038 C277 0.991 . S
C1073 C291 0.992 . S
C1088 C333 0.991 . S
C1123 C347 0.992 . S
C1138 C389 0.991 . S
C1173 C361 0.992 . S
C1188 C403 0.991 . S
C1223 C417 0.992 . S
C1238 C375 0.991 . S
C1273 C473 0.993 . S
C1288 C431 0.994 . S
C1323 C487 0.994 . S
C1338 C445 0.993 . S
C1373 C501 0.994 . S
C1388 C459 0.994 . S
C1423 C163 1.533 . S
C1438 C5 1.528 . S
C1473 C19 1.528 . S
C1488 C135 1.533 . S
C1523 C33 1.529 . S
C1538 C149 1.533 . S
C1573 C107 1.541 . S
C1588 C47 1.537 . S
C1623 C61 1.537 . S
C1638 C121 1.541 . S
C1673 C93 1.541 . S
C1688 C75 1.537 . S
C1723 C89 1.528 . S
C1738 C79 1.533 . S
C1773 C103 1.529 . S
C1788 C51 1.533 . S
C1823 C65 1.533 . S
C1838 C117 1.528 . S
C1873 C23 1.541 . S
C1888 C131 1.536 . S
C1923 C37 1.541 . S
C1938 C145 1.537 . S
C1973 C159 1.537 . S
C1988 C9 1.541 . S
C2023 C173 1.508 . S
C2038 C331 1.510 . S
C2073 C303 1.512 . S
C2088 C187 1.506 . S
C2123 C317 1.512 . S
C2138 C201 1.505 . S
C2173 C215 1.530 . S
C2188 C275 1.533 . S
C2223 C289 1.533 . S
C2238 C229 1.530 . S
C2273 C243 1.530 . S
C2288 C261 1.533 . S
C2323 C257 1.527 . S
C2338 C247 1.530 . S
C2373 C271 1.526 . S
C2388 C219 1.530 . S
C2423 C233 1.530 . S
C2438 C285 1.527 . S
C2473 C191 1.552 . S
C2488 C299 1.550 . S
C2523 C205 1.552 . S
C2538 C313 1.550 . S
C2573 C327 1.548 . S
C2588 C177 1.554 . S
C2623 C499 1.530 . S
C2638 C341 1.527 . S
C2673 C355 1.526 . S
C2688 C471 1.530 . S
C2723 C369 1.527 . S
C2738 C485 1.530 . S
C2773 C383 1.548 . S
C2788 C443 1.554 . S
C2823 C457 1.552 . S
C2838 C397 1.551 . S
C2873 C411 1.548 . S
C2888 C429 1.554 . S
C2923 C415 1.512 . S
C2938 C425 1.506 . S
C2973 C387 1.512 . S
C2988 C439 1.506 . S
C3023 C401 1.512 . S
C3038 C453 1.506 . S
C3073 C359 1.533 . S
C3088 C467 1.529 . S
C3123 C373 1.533 . S
C3138 C481 1.530 . S
C3173 C345 1.533 . S
C3188 C495 1.530 . S
C3223 C406 1.283 . S
C3238 C0 1.283 . S
C3273 C14 1.283 . S
C3288 C378 1.283 . S
C3323 C392 1.282 . S
C3338 C28 1.283 . S
C3373 C42 1.283 . S
C3388 C182 1.284 . S
C3423 C196 1.284 . S
C3438 C56 1.283 . S
C3473 C70 1.283 . S
C3488 C168 1.284 . S
C3523 C84 1.283 . S
C3538 C322 1.283 . S
C3573 C294 1.283 . S
C3588 C98 1.283 . S
C3623 C112 1.282 . S
C3638 C308 1.283 . S
C3673 C126 1.283 . S
C3688 C434 1.283 . S
C3723 C140 1.284 . S
C3738 C448 1.283 . S
C3773 C420 1.283 . S
C3788 C154 1.284 . S
C3823 C350 1.284 . S
C3838 C210 1.283 . S
C3873 C364 1.284 . S
C3888 C224 1.283 . S
C3923 C336 1.284 . S
C3938 C238 1.283 . S
C3973 C252 1.283 . S
C3988 C490 1.284 . S
C4023 C462 1.283 . S
C4038 C266 1.284 . S
C4073 C280 1.284 . S
C4088 C476 1.283 . S
