# Generated by pormake.
# Topology umw, (4)-cn, num edge types: 1
# Building blocks:
#     Node 0, Type 0, BuildingBlock: QUQFOY_clean_sbu_3, # of connection points: 4
#     Node 1, Type 0, BuildingBlock: QUQFOY_clean_sbu_3, # of connection points: 4
#     Node 2, Type 0, BuildingBlock: QUQFOY_clean_sbu_3, # of connection points: 4
#     Node 3, Type 0, BuildingBlock: QUQFOY_clean_sbu_3, # of connection points: 4
#     Node 4, Type 0, BuildingBlock: QUQFOY_clean_sbu_3, # of connection points: 4
#     Node 5, Type 0, BuildingBlock: QUQFOY_clean_sbu_3, # of connection points: 4
#     Node 6, Type 0, BuildingBlock: QUQFOY_clean_sbu_3, # of connection points: 4
#     Node 7, Type 0, BuildingBlock: QUQFOY_clean_sbu_3, # of connection points: 4
#     Edge 8, Type (0, 0), BuildingBlock: FUNLAD_clean_linker_1, # of connection points: 2
#     Edge 9, Type (0, 0), BuildingBlock: FUNLAD_clean_linker_1, # of connection points: 2
#     Edge 10, Type (0, 0), BuildingBlock: FUNLAD_clean_linker_1, # of connection points: 2
#     Edge 11, Type (0, 0), BuildingBlock: FUNLAD_clean_linker_1, # of connection points: 2
#     Edge 12, Type (0, 0), BuildingBlock: FUNLAD_clean_linker_1, # of connection points: 2
#     Edge 13, Type (0, 0), BuildingBlock: FUNLAD_clean_linker_1, # of connection points: 2
#     Edge 14, Type (0, 0), BuildingBlock: FUNLAD_clean_linker_1, # of connection points: 2
#     Edge 15, Type (0, 0), BuildingBlock: FUNLAD_clean_linker_1, # of connection points: 2
#     Edge 16, Type (0, 0), BuildingBlock: FUNLAD_clean_linker_1, # of connection points: 2
#     Edge 17, Type (0, 0), BuildingBlock: FUNLAD_clean_linker_1, # of connection points: 2
#     Edge 18, Type (0, 0), BuildingBlock: FUNLAD_clean_linker_1, # of connection points: 2
#     Edge 19, Type (0, 0), BuildingBlock: FUNLAD_clean_linker_1, # of connection points: 2
#     Edge 20, Type (0, 0), BuildingBlock: FUNLAD_clean_linker_1, # of connection points: 2
#     Edge 21, Type (0, 0), BuildingBlock: FUNLAD_clean_linker_1, # of connection points: 2
#     Edge 22, Type (0, 0), BuildingBlock: FUNLAD_clean_linker_1, # of connection points: 2
#     Edge 23, Type (0, 0), BuildingBlock: FUNLAD_clean_linker_1, # of connection points: 2
# Relax obj value: 0.126
# Max RMSD: 0.103
# Mean RMSD: 0.103
data_MOF--net-umw--node1-QUQFOY_clean_sbu_3--edge1-FUNLAD_clean_linker_1
_symmetry_space_group_name_H-M    P1
_symmetry_Int_Tables_number       1
_symmetry_cell_setting            triclinic
loop_
_symmetry_equiv_pos_as_xyz
'x, y, z'
_cell_length_a     44.459041
_cell_length_b     44.150936
_cell_length_c     27.356564
_cell_angle_alpha  89.919923
_cell_angle_beta   90.250975
_cell_angle_gamma 89.883631
loop_
_atom_site_label
_atom_site_type_symbol
_atom_site_fract_x
_atom_site_fract_y
_atom_site_fract_z
_atom_type_partial_charge
C0 C 0.44418 0.19896 0.22283 0.0
O1 O 0.46603 0.19443 0.25207 0.0
Cd2 Cd 0.46367 0.18196 0.33697 0.0
O3 O 0.41702 0.19806 0.23757 0.0
Cd4 Cd 0.39089 0.18936 0.31669 0.0
C5 C 0.41972 0.11819 0.32561 0.0
O6 O 0.42663 0.21455 0.36943 0.0
O7 O 0.39324 0.1878 0.40621 0.0
O8 O 0.35455 0.22998 0.30654 0.0
C9 C 0.41558 0.2054 0.40933 0.0
O10 O 0.44471 0.13013 0.33768 0.0
C11 C 0.33162 0.21325 0.31249 0.0
O12 O 0.39709 0.13434 0.3134 0.0
O13 O 0.33613 0.18495 0.31636 0.0
C14 C 0.77604 0.45326 0.4285 0.0
O15 O 0.78897 0.4771 0.44383 0.0
Cd16 Cd 0.8099 0.4898 0.52053 0.0
O17 O 0.77371 0.42976 0.45546 0.0
Cd18 Cd 0.79222 0.41734 0.5398 0.0
C19 C 0.8663 0.4369 0.52571 0.0
O20 O 0.77566 0.46504 0.57216 0.0
O21 O 0.79999 0.43716 0.62315 0.0
O22 O 0.75194 0.38391 0.56667 0.0
C23 C 0.78586 0.46159 0.61479 0.0
O24 O 0.85847 0.4646 0.52404 0.0
C25 C 0.76865 0.36065 0.57071 0.0
O26 O 0.8469 0.41577 0.5285 0.0
O27 O 0.79582 0.36327 0.55756 0.0
C28 C 0.5378 0.78858 0.74163 0.0
O29 O 0.51725 0.79487 0.77212 0.0
Cd30 Cd 0.52405 0.81145 0.85408 0.0
O31 O 0.56552 0.78949 0.75388 0.0
Cd32 Cd 0.59443 0.79951 0.83081 0.0
C33 C 0.57081 0.87223 0.83178 0.0
O34 O 0.55931 0.77701 0.88751 0.0
O35 O 0.5938 0.80456 0.9201 0.0
O36 O 0.62699 0.75608 0.81746 0.0
C37 C 0.57175 0.7869 0.92593 0.0
O38 O 0.54571 0.86203 0.84673 0.0
C39 C 0.65108 0.76993 0.82833 0.0
O40 O 0.59229 0.8545 0.82023 0.0
O41 O 0.6492 0.7983 0.83549 0.0
C42 C 0.21814 0.51994 0.98086 0.0
O43 O 0.20659 0.50402 0.01448 0.0
Cd44 Cd 0.1916 0.51987 0.0939 0.0
O45 O 0.22145 0.5485 0.98569 0.0
Cd46 Cd 0.20623 0.58421 0.05159 0.0
C47 C 0.13343 0.56384 0.05498 0.0
O48 O 0.22671 0.55675 0.12077 0.0
O49 O 0.19272 0.58975 0.13782 0.0
O50 O 0.24764 0.61965 0.04678 0.0
C51 C 0.21291 0.57171 0.15301 0.0
O52 O 0.14181 0.54221 0.08276 0.0
C53 C 0.23101 0.64295 0.04277 0.0
O54 O 0.15251 0.58062 0.03353 0.0
O55 O 0.20306 0.63859 0.03668 0.0
C56 C 0.43911 0.80276 0.39931 0.0
O57 O 0.46089 0.8137 0.37519 0.0
Cd58 Cd 0.459 0.83216 0.29363 0.0
O59 O 0.41299 0.80033 0.38025 0.0
Cd60 Cd 0.39089 0.81135 0.29796 0.0
C61 C 0.40374 0.88617 0.30608 0.0
O62 O 0.43331 0.79369 0.24989 0.0
O63 O 0.39972 0.81938 0.21064 0.0
O64 O 0.36205 0.76461 0.30022 0.0
C65 C 0.423 0.80291 0.20935 0.0
O66 O 0.43099 0.8797 0.29628 0.0
C67 C 0.33822 0.77638 0.28291 0.0
O68 O 0.3843 0.86546 0.31252 0.0
O69 O 0.33791 0.80495 0.27753 0.0
C70 C 0.18422 0.44683 0.64368 0.0
O71 O 0.16637 0.46823 0.63252 0.0
Cd72 Cd 0.13944 0.47236 0.55796 0.0
O73 O 0.18743 0.42408 0.61557 0.0
Cd74 Cd 0.16384 0.40853 0.53641 0.0
C75 C 0.09105 0.41287 0.56674 0.0
O76 O 0.17398 0.45678 0.49637 0.0
O77 O 0.14464 0.42647 0.45713 0.0
O78 O 0.21105 0.38211 0.52043 0.0
C79 C 0.16047 0.45022 0.45708 0.0
O80 O 0.09468 0.4413 0.5621 0.0
C81 C 0.19897 0.35908 0.50102 0.0
O82 O 0.11336 0.39487 0.56456 0.0
O83 O 0.17046 0.3582 0.50018 0.0
C84 C 0.54114 0.18164 0.8793 0.0
O85 O 0.52102 0.17012 0.85203 0.0
Cd86 Cd 0.52852 0.1528 0.77069 0.0
O87 O 0.56787 0.18556 0.86382 0.0
Cd88 Cd 0.59477 0.17784 0.78481 0.0
C89 C 0.58647 0.10219 0.79007 0.0
O90 O 0.55365 0.19366 0.73189 0.0
O91 O 0.59075 0.1717 0.69579 0.0
O92 O 0.61907 0.22665 0.79617 0.0
C93 C 0.56634 0.18633 0.69233 0.0
O94 O 0.55931 0.10709 0.77727 0.0
C95 C 0.6448 0.21771 0.78249 0.0
O96 O 0.60438 0.124 0.79866 0.0
O97 O 0.64794 0.18962 0.77393 0.0
C98 C 0.8103 0.52655 0.09884 0.0
O99 O 0.8255 0.50927 0.07135 0.0
Cd100 Cd 0.84503 0.52204 -0.0067 0.0
O101 O 0.80685 0.55464 0.08919 0.0
Cd102 Cd 0.82682 0.5886 0.0242 0.0
C103 C 0.90027 0.56908 0.03244 0.0
O104 O 0.80875 0.55595 0.96057 0.0
O105 O 0.83713 0.5924 0.93587 0.0
O106 O 0.783 0.62122 0.02781 0.0
C107 C 0.81909 0.57118 0.92547 0.0
O108 O 0.8933 0.54568 0.00783 0.0
C109 C 0.79767 0.64585 0.02756 0.0
O110 O 0.88015 0.58707 0.04823 0.0
O111 O 0.82605 0.64394 0.03117 0.0
H112 H 0.42189 0.19843 0.48825 0.0
C113 C 0.43211 0.20796 0.45563 0.0
H114 H 0.4713 0.22754 0.42536 0.0
H115 H 0.52352 0.26153 0.63561 0.0
H116 H 0.51205 0.31155 0.60361 0.0
H117 H 0.48497 0.31767 0.52528 0.0
H118 H 0.4694 0.27375 0.47825 0.0
C119 C 0.46058 0.21793 0.45744 0.0
C120 C 0.47865 0.21435 0.50275 0.0
C121 C 0.48746 0.24022 0.52968 0.0
C122 C 0.50272 0.23666 0.57506 0.0
C123 C 0.51155 0.2629 0.60115 0.0
C124 C 0.50515 0.29175 0.58317 0.0
C125 C 0.48993 0.2952 0.53905 0.0
C126 C 0.48111 0.26981 0.51245 0.0
H127 H 0.56322 0.18352 0.61202 0.0
C128 C 0.55174 0.19125 0.64475 0.0
H129 H 0.51292 0.21226 0.67357 0.0
H130 H 0.47011 0.1602 0.45543 0.0
H131 H 0.47988 0.11014 0.48836 0.0
H132 H 0.50141 0.10377 0.57102 0.0
H133 H 0.51403 0.14738 0.62051 0.0
C134 C 0.52428 0.20374 0.64126 0.0
C135 C 0.5089 0.20724 0.59337 0.0
C136 C 0.50018 0.18131 0.56622 0.0
C137 C 0.48601 0.18492 0.52 0.0
C138 C 0.47949 0.15876 0.49191 0.0
C139 C 0.4852 0.12986 0.5102 0.0
C140 C 0.49745 0.12628 0.55661 0.0
C141 C 0.50485 0.15159 0.58449 0.0
H142 H 0.77958 0.50941 0.6345 0.0
C143 C 0.78782 0.48766 0.64767 0.0
H144 H 0.8103 0.46426 0.70418 0.0
H145 H 0.87912 0.56944 0.80288 0.0
H146 H 0.92005 0.54142 0.76516 0.0
H147 H 0.90956 0.50076 0.70567 0.0
H148 H 0.85821 0.4876 0.68404 0.0
C149 C 0.80089 0.48567 0.69166 0.0
C150 C 0.80682 0.51308 0.72132 0.0
C151 C 0.83704 0.52108 0.732 0.0
C152 C 0.84316 0.54476 0.76557 0.0
C153 C 0.87339 0.55159 0.77746 0.0
C154 C 0.89703 0.53579 0.75593 0.0
C155 C 0.89112 0.51289 0.72245 0.0
C156 C 0.86153 0.50551 0.71049 0.0
H157 H 0.79962 0.54094 0.87129 0.0
C158 C 0.81318 0.56128 0.87552 0.0
H159 H 0.83863 0.5948 0.83882 0.0
H160 H 0.74577 0.50456 0.70813 0.0
H161 H 0.70593 0.53648 0.73939 0.0
H162 H 0.71753 0.58075 0.79114 0.0
H163 H 0.76943 0.59271 0.81282 0.0
C164 C 0.82419 0.57506 0.8358 0.0
C165 C 0.81908 0.5603 0.7879 0.0
C166 C 0.7892 0.55518 0.77205 0.0
C167 C 0.78279 0.53073 0.74017 0.0
C168 C 0.75228 0.52388 0.72987 0.0
C169 C 0.72909 0.54188 0.74805 0.0
C170 C 0.73559 0.56673 0.77733 0.0
C171 C 0.7653 0.57329 0.7896 0.0
H172 H 0.42938 0.80701 0.12994 0.0
C173 C 0.43931 0.7983 0.16354 0.0
H174 H 0.47647 0.77575 0.19573 0.0
H175 H 0.52226 0.71778 -0.0014 0.0
H176 H 0.50713 0.6731 0.04402 0.0
H177 H 0.4806 0.67787 0.12267 0.0
H178 H 0.46929 0.72732 0.15662 0.0
C179 C 0.46652 0.78511 0.16263 0.0
C180 C 0.48338 0.78232 0.11624 0.0
C181 C 0.48957 0.75322 0.09691 0.0
C182 C 0.50444 0.75046 0.05129 0.0
C183 C 0.51075 0.72115 0.03294 0.0
C184 C 0.5022 0.69532 0.05863 0.0
C185 C 0.48728 0.69801 0.10293 0.0
C186 C 0.48095 0.72655 0.12202 0.0
H187 H 0.56861 0.79429 0.0052 0.0
C188 C 0.55723 0.78445 0.97374 0.0
H189 H 0.51742 0.76385 0.94733 0.0
H190 H 0.47977 0.84148 0.14702 0.0
H191 H 0.49204 0.88608 0.09951 0.0
H192 H 0.51205 0.88132 0.01587 0.0
H193 H 0.52076 0.83197 0.98009 0.0
C194 C 0.52912 0.77389 0.97827 0.0
C195 C 0.51277 0.77679 0.0251 0.0
C196 C 0.50594 0.80594 0.04393 0.0
C197 C 0.49239 0.8087 0.09054 0.0
C198 C 0.48833 0.83803 0.11052 0.0
C199 C 0.49555 0.86387 0.08381 0.0
C200 C 0.50696 0.86119 0.03687 0.0
C201 C 0.51212 0.83265 0.01695 0.0
H202 H 0.1464 0.46556 0.38397 0.0
C203 C 0.16202 0.46977 0.41389 0.0
H204 H 0.19892 0.49549 0.43928 0.0
H205 H 0.18599 0.50883 0.1949 0.0
H206 H 0.19382 0.45458 0.19182 0.0
H207 H 0.20105 0.42502 0.26762 0.0
H208 H 0.19907 0.44947 0.34676 0.0
C209 C 0.18334 0.49107 0.40941 0.0
C210 C 0.18591 0.50947 0.36418 0.0
C211 C 0.19004 0.49508 0.31833 0.0
C212 C 0.18882 0.51245 0.27476 0.0
C213 C 0.18915 0.49709 0.22925 0.0
C214 C 0.19329 0.46586 0.22693 0.0
C215 C 0.19715 0.4492 0.26956 0.0
C216 C 0.1956 0.46351 0.31482 0.0
H217 H 0.23267 0.54737 0.21526 0.0
C218 C 0.21361 0.56116 0.20372 0.0
H219 H 0.16968 0.57611 0.22098 0.0
H220 H 0.17799 0.54421 0.44625 0.0
H221 H 0.17436 0.59899 0.44929 0.0
H222 H 0.17714 0.62955 0.37386 0.0
H223 H 0.18312 0.60543 0.2948 0.0
C224 C 0.18919 0.5629 0.23217 0.0
C225 C 0.18713 0.54453 0.27743 0.0
C226 C 0.18418 0.55904 0.32326 0.0
C227 C 0.18322 0.54144 0.36675 0.0
C228 C 0.17936 0.55645 0.41205 0.0
C229 C 0.17719 0.5879 0.41433 0.0
C230 C 0.17873 0.60511 0.37187 0.0
C231 C 0.18216 0.59098 0.32674 0.0
H232 H 0.28312 0.21079 0.32887 0.0
C233 C 0.3018 0.22621 0.32303 0.0
H234 H 0.3176 0.27106 0.33086 0.0
H235 H 0.19128 0.33336 0.36042 0.0
H236 H 0.19634 0.34239 0.27335 0.0
H237 H 0.23585 0.3166 0.2258 0.0
H238 H 0.27071 0.28171 0.26525 0.0
C239 C 0.29892 0.25549 0.33538 0.0
C240 C 0.27224 0.2669 0.36216 0.0
C241 C 0.25165 0.28656 0.33845 0.0
C242 C 0.22869 0.30114 0.3658 0.0
C243 C 0.20899 0.32146 0.34141 0.0
C244 C 0.21165 0.32685 0.29141 0.0
C245 C 0.23392 0.31235 0.26465 0.0
C246 C 0.25379 0.29245 0.28771 0.0
H247 H 0.24185 0.33723 0.4823 0.0
C248 C 0.2176 0.33578 0.4775 0.0
H249 H 0.18203 0.31452 0.43931 0.0
H250 H 0.30798 0.23018 0.41954 0.0
H251 H 0.30106 0.21905 0.50538 0.0
H252 H 0.25914 0.24188 0.55136 0.0
H253 H 0.22421 0.27648 0.51163 0.0
C254 C 0.20606 0.31514 0.44667 0.0
C255 C 0.22645 0.29594 0.41683 0.0
C256 C 0.24567 0.27457 0.43984 0.0
C257 C 0.26903 0.2605 0.41277 0.0
C258 C 0.28918 0.24081 0.43764 0.0
C259 C 0.28556 0.2343 0.48711 0.0
C260 C 0.26202 0.24722 0.51303 0.0
C261 C 0.24226 0.26716 0.48988 0.0
H262 H 0.77182 0.31223 0.59041 0.0
C263 C 0.75795 0.33245 0.59336 0.0
H264 H 0.72052 0.35272 0.62761 0.0
H265 H 0.67722 0.21195 0.65529 0.0
H266 H 0.66838 0.21266 0.56797 0.0
H267 H 0.68548 0.25556 0.51747 0.0
H268 H 0.71149 0.29809 0.55421 0.0
C269 C 0.73343 0.33212 0.62172 0.0
C270 C 0.72548 0.30504 0.6511 0.0
C271 C 0.7108 0.28014 0.6289 0.0
C272 C 0.701 0.25542 0.65809 0.0
C273 C 0.68551 0.23124 0.63509 0.0
C274 C 0.68018 0.23136 0.58487 0.0
C275 C 0.68981 0.25551 0.55644 0.0
C276 C 0.70482 0.27974 0.57801 0.0
H277 H 0.66259 0.26376 0.77442 0.0
C278 C 0.66786 0.23995 0.76874 0.0
H279 H 0.69579 0.20866 0.73248 0.0
H280 H 0.75509 0.34829 0.70427 0.0
H281 H 0.7657 0.34685 0.79138 0.0
H282 H 0.74979 0.30334 0.84168 0.0
H283 H 0.72297 0.26108 0.80515 0.0
C284 C 0.69126 0.23234 0.74035 0.0
C285 C 0.70586 0.25579 0.70946 0.0
C286 C 0.72206 0.27993 0.73114 0.0
C287 C 0.7316 0.30475 0.702 0.0
C288 C 0.74729 0.32885 0.72472 0.0
C289 C 0.7536 0.32828 0.77465 0.0
C290 C 0.74462 0.3038 0.80298 0.0
C291 C 0.72908 0.2798 0.78166 0.0
H292 H 0.79657 0.69532 0.01529 0.0
C293 C 0.78322 0.67474 0.01407 0.0
H294 H 0.74412 0.65381 0.98627 0.0
H295 H 0.68982 0.78891 0.95216 0.0
H296 H 0.68537 0.79142 0.04015 0.0
H297 H 0.70917 0.75276 0.09287 0.0
H298 H 0.7375 0.71117 0.05755 0.0
C299 C 0.75657 0.67479 0.99079 0.0
C300 C 0.74671 0.70084 0.96037 0.0
C301 C 0.73107 0.72542 0.98155 0.0
C302 C 0.71759 0.74779 0.95102 0.0
C303 C 0.70091 0.77142 0.97324 0.0
C304 C 0.69811 0.77313 0.02387 0.0
C305 C 0.71149 0.75136 0.05356 0.0
C306 C 0.7277 0.72764 0.03284 0.0
H307 H 0.67701 0.72809 0.8381 0.0
C308 C 0.67823 0.7526 0.84155 0.0
H309 H 0.70135 0.78939 0.87299 0.0
H310 H 0.77816 0.65823 0.90863 0.0
H311 H 0.78515 0.65703 0.82074 0.0
H312 H 0.76356 0.69704 0.76804 0.0
H313 H 0.73443 0.73826 0.80303 0.0
C314 C 0.70072 0.76503 0.86765 0.0
C315 C 0.71999 0.74546 0.89934 0.0
C316 C 0.73793 0.72228 0.87856 0.0
C317 C 0.75092 0.69967 0.90906 0.0
C318 C 0.76782 0.67609 0.88719 0.0
C319 C 0.77211 0.67517 0.83679 0.0
C320 C 0.75991 0.69767 0.80712 0.0
C321 C 0.74307 0.72105 0.82758 0.0
H322 H 0.22703 0.69243 0.05164 0.0
C323 C 0.24202 0.67318 0.05657 0.0
H324 H 0.27969 0.65591 0.09466 0.0
H325 H 0.31682 0.79337 0.14984 0.0
H326 H 0.33363 0.79733 0.06607 0.0
H327 H 0.32083 0.75794 0.00564 0.0
H328 H 0.29118 0.7141 0.02902 0.0
C329 C 0.26591 0.67566 0.08645 0.0
C330 C 0.26921 0.70185 0.11986 0.0
C331 C 0.28563 0.72768 0.10534 0.0
C332 C 0.29266 0.7505 0.14018 0.0
C333 C 0.31035 0.77547 0.12506 0.0
C334 C 0.32024 0.77803 0.07696 0.0
C335 C 0.31306 0.75584 0.04294 0.0
C336 C 0.29605 0.73083 0.0568 0.0
H337 H 0.31802 0.73262 0.26436 0.0
C338 C 0.31502 0.75698 0.26082 0.0
H339 H 0.2934 0.79219 0.22211 0.0
H340 H 0.23449 0.65641 0.15818 0.0
H341 H 0.21508 0.65363 0.24079 0.0
H342 H 0.22552 0.69429 0.30028 0.0
H343 H 0.25582 0.73784 0.27751 0.0
C344 C 0.29548 0.76789 0.22749 0.0
C345 C 0.28298 0.74735 0.18941 0.0
C346 C 0.26435 0.72272 0.20272 0.0
C347 C 0.25781 0.69969 0.1681 0.0
C348 C 0.24005 0.6747 0.18289 0.0
C349 C 0.2287 0.67284 0.23019 0.0
C350 C 0.23461 0.6957 0.2637 0.0
C351 C 0.25218 0.72044 0.25031 0.0
H352 H 0.37144 0.92326 0.32053 0.0
C353 C 0.39445 0.91814 0.31003 0.0
H354 H 0.43641 0.93605 0.28849 0.0
H355 H 0.38953 0.06259 0.21767 0.0
H356 H 0.39419 0.03712 0.13947 0.0
H357 H 0.40313 0.982 0.13546 0.0
H358 H 0.40761 0.95203 0.20965 0.0
C359 C 0.41368 0.94081 0.30077 0.0
C360 C 0.40442 0.97306 0.30356 0.0
C361 C 0.4013 0.99009 0.25988 0.0
C362 C 0.39589 0.02177 0.26217 0.0
C363 C 0.39352 0.0384 0.218 0.0
C364 C 0.39612 0.02407 0.17288 0.0
C365 C 0.40118 0.99304 0.17062 0.0
C366 C 0.40377 0.97613 0.21347 0.0
H367 H 0.43744 0.07223 0.33728 0.0
C368 C 0.41771 0.08494 0.3255 0.0
H369 H 0.37352 0.08193 0.29676 0.0
H370 H 0.4087 0.94693 0.39445 0.0
H371 H 0.40183 0.9721 0.47232 0.0
H372 H 0.39019 0.02672 0.47598 0.0
H373 H 0.38571 0.05655 0.40161 0.0
C374 C 0.39316 0.06989 0.3105 0.0
C375 C 0.39376 0.03629 0.30815 0.0
C376 C 0.39503 0.01897 0.35178 0.0
C377 C 0.40081 0.98734 0.34956 0.0
C378 C 0.40357 0.97088 0.39384 0.0
C379 C 0.39979 0.98507 0.43886 0.0
C380 C 0.39331 0.01584 0.44093 0.0
C381 C 0.39095 0.03271 0.39802 0.0
H382 H 0.9141 0.44834 0.51875 0.0
C383 C 0.89863 0.42987 0.52637 0.0
H384 H 0.89485 0.38441 0.55033 0.0
H385 H 0.03592 0.4114 0.47355 0.0
H386 H 0.01438 0.40854 0.39191 0.0
H387 H 0.95991 0.40043 0.38008 0.0
H388 H 0.92663 0.39534 0.44996 0.0
C389 C 0.90972 0.40277 0.53975 0.0
C390 C 0.94272 0.39914 0.54621 0.0
C391 C 0.96191 0.40095 0.50514 0.0
C392 C 0.99328 0.4052 0.51199 0.0
C393 C 0.01188 0.4081 0.47036 0.0
C394 C -0.00018 0.40642 0.42334 0.0
C395 C 0.96915 0.40188 0.41667 0.0
C396 C 0.9503 0.39916 0.45699 0.0
H397 H 0.05728 0.37608 0.5712 0.0
C398 C 0.06031 0.40049 0.57005 0.0
H399 H 0.03904 0.4432 0.56425 0.0
H400 H 0.91266 0.39104 0.63231 0.0
H401 H 0.9346 0.39111 0.71386 0.0
H402 H 0.9892 0.39816 0.72567 0.0
H403 H 0.02224 0.40524 0.65593 0.0
C404 C 0.03625 0.41881 0.56681 0.0
C405 C 0.00533 0.40712 0.5599 0.0
C406 C 0.98661 0.40218 0.60082 0.0
C407 C 0.95517 0.39806 0.59396 0.0
C408 C 0.93671 0.39422 0.63552 0.0
C409 C 0.94902 0.39418 0.68246 0.0
C410 C 0.97977 0.39817 0.68912 0.0
C411 C -0.00154 0.40224 0.64889 0.0
H412 H 0.55509 0.91922 0.83811 0.0
C413 C 0.5742 0.90527 0.82761 0.0
H414 H 0.61824 0.9054 0.79852 0.0
H415 H 0.58887 0.03285 0.69755 0.0
H416 H 0.59513 0.00027 0.62684 0.0
H417 H 0.60371 0.94537 0.63695 0.0
H418 H 0.60622 0.92274 0.7178 0.0
C419 C 0.59918 0.91874 0.81089 0.0
C420 C 0.5998 0.95223 0.8051 0.0
C421 C 0.59895 0.96508 0.75766 0.0
C422 C 0.59372 0.99665 0.75183 0.0
C423 C 0.59248 0.00892 0.704 0.0
C424 C 0.59612 0.9905 0.66313 0.0
C425 C 0.60097 0.9596 0.66883 0.0
C426 C 0.60233 0.94689 0.71544 0.0
H427 H 0.62009 0.06695 0.80904 0.0
C428 C 0.59725 0.07077 0.79604 0.0
H429 H 0.55675 0.0505 0.77221 0.0
H430 H 0.60661 0.93558 0.90078 0.0
H431 H 0.60068 0.96805 0.97174 0.0
H432 H 0.5888 0.02234 0.96191 0.0
H433 H 0.58325 0.04457 0.88134 0.0
C434 C 0.57929 0.04702 0.78674 0.0
C435 C 0.58945 0.01523 0.79344 0.0
C436 C 0.5922 0.00267 0.84101 0.0
C437 C 0.59794 0.97119 0.84677 0.0
C438 C 0.60129 0.95921 0.89452 0.0
C439 C 0.59812 0.97761 0.93549 0.0
C440 C 0.59152 0.00819 0.92994 0.0
C441 C 0.5885 0.02069 0.88338 0.0
H442 H 0.9374 0.58865 0.07611 0.0
C443 C 0.93208 0.57444 0.04485 0.0
H444 H 0.94868 0.54687 0.98822 0.0
H445 H 0.07062 0.6172 0.07774 0.0
H446 H 0.04624 0.66463 0.05648 0.0
H447 H 0.99471 0.66527 0.02266 0.0
H448 H 0.96697 0.6186 0.01142 0.0
C449 C 0.95422 0.56112 0.01936 0.0
C450 C 0.98609 0.56135 0.03605 0.0
C451 C 0.00252 0.58879 0.03956 0.0
C452 C 0.03296 0.58827 0.05581 0.0
C453 C 0.04808 0.61614 0.06286 0.0
C454 C 0.03425 0.64356 0.05121 0.0
C455 C 0.00519 0.64393 0.03242 0.0
C456 C 0.98941 0.61695 0.02652 0.0
H457 H 0.09449 0.58078 0.01278 0.0
C458 C 0.10117 0.56888 0.04592 0.0
H459 H 0.08692 0.54705 0.1103 0.0
H460 H 0.96046 0.5048 0.03671 0.0
H461 H 0.98566 0.4573 0.0538 0.0
H462 H 0.03962 0.45604 0.07491 0.0
H463 H 0.06854 0.50227 0.07978 0.0
C464 C 0.08016 0.55885 0.07711 0.0
C465 C 0.04754 0.56016 0.06486 0.0
C466 C 0.03112 0.53275 0.06119 0.0
C467 C 0.00027 0.53339 0.04748 0.0
C468 C 0.98417 0.5057 0.04563 0.0
C469 C -0.00169 0.4782 0.05557 0.0
C470 C 0.02866 0.47749 0.06756 0.0
C471 C 0.04498 0.50432 0.07036 0.0
H472 H 0.55187 0.19555 0.95503 0.0
C473 C 0.53369 0.18974 0.93008 0.0
H474 H 0.48695 0.18276 0.92171 0.0
H475 H 0.46502 0.14544 0.14039 0.0
H476 H 0.45817 0.09757 0.09878 0.0
H477 H 0.4694 0.09256 0.01094 0.0
H478 H 0.48764 0.13538 0.96432 0.0
C479 C 0.50518 0.18909 0.94623 0.0
C480 C 0.49789 0.19281 -0.00123 0.0
C481 C 0.48676 0.1676 0.02526 0.0
C482 C 0.48007 0.17054 0.07575 0.0
C483 C 0.46992 0.14473 0.10173 0.0
C484 C 0.46602 0.11701 0.07835 0.0
C485 C 0.47235 0.11418 0.02892 0.0
C486 C 0.48272 0.13904 0.00255 0.0
H487 H 0.4312 0.20322 0.14504 0.0
C488 C 0.45019 0.20243 0.17019 0.0
H489 H 0.49765 0.20093 0.17702 0.0
H490 H 0.51608 0.24634 0.95756 0.0
H491 H 0.52306 0.29423 -0.00057 0.0
H492 H 0.51254 0.29895 0.08758 0.0
H493 H 0.4947 0.25579 0.13432 0.0
C494 C 0.47834 0.20149 0.15255 0.0
C495 C 0.48418 0.1988 0.09942 0.0
C496 C 0.4951 0.22403 0.07295 0.0
C497 C 0.50169 0.22114 0.02235 0.0
C498 C 0.51152 0.24702 -0.00366 0.0
C499 C 0.51544 0.27471 0.01987 0.0
C500 C 0.50948 0.27738 0.06949 0.0
C501 C 0.49933 0.25243 0.09589 0.0
H502 H 0.81226 0.49872 0.16472 0.0
C503 C 0.79769 0.51352 0.14334 0.0
H504 H 0.75396 0.53126 0.13387 0.0
H505 H 0.77782 0.42097 0.3031 0.0
H506 H 0.78774 0.3878 0.23455 0.0
H507 H 0.78177 0.4061 0.14973 0.0
H508 H 0.76674 0.45834 0.13336 0.0
C509 C 0.7687 0.51696 0.15575 0.0
C510 C 0.75741 0.50239 0.20121 0.0
C511 C 0.76339 0.47129 0.2101 0.0
C512 C 0.76526 0.46041 0.25886 0.0
C513 C 0.77491 0.43024 0.26691 0.0
C514 C 0.78075 0.41094 0.22776 0.0
C515 C 0.77746 0.42125 0.18 0.0
C516 C 0.76899 0.45114 0.17106 0.0
H517 H 0.74675 0.43671 0.36809 0.0
C518 C 0.7633 0.45357 0.37863 0.0
H519 H 0.78816 0.49219 0.35879 0.0
H520 H 0.73493 0.56008 0.19431 0.0
H521 H 0.71727 0.59114 0.26167 0.0
H522 H 0.71746 0.57135 0.34613 0.0
H523 H 0.73568 0.52035 0.36369 0.0
C524 C 0.77191 0.47526 0.34717 0.0
C525 C 0.75888 0.48038 0.29795 0.0
C526 C 0.74661 0.5094 0.28794 0.0
C527 C 0.7461 0.52062 0.23934 0.0
C528 C 0.73569 0.55045 0.23065 0.0
C529 C 0.72541 0.56845 0.26895 0.0
C530 C 0.72553 0.55731 0.31652 0.0
C531 C 0.7361 0.52816 0.32615 0.0
H532 H 0.54709 0.78313 0.66283 0.0
C533 C 0.52948 0.78284 0.69027 0.0
H534 H 0.48279 0.78048 0.70369 0.0
H535 H 0.44823 0.84415 0.50528 0.0
H536 H 0.43473 0.88243 0.56449 0.0
H537 H 0.44682 0.87564 0.65189 0.0
H538 H 0.47262 0.83061 0.68044 0.0
C539 C 0.50053 0.78019 0.67648 0.0
C540 C 0.49142 0.78268 0.62436 0.0
C541 C 0.47557 0.80886 0.60853 0.0
C542 C 0.4683 0.81263 0.55827 0.0
C543 C 0.45371 0.83967 0.54313 0.0
C544 C 0.44595 0.86198 0.57674 0.0
C545 C 0.45277 0.85817 0.62592 0.0
C546 C 0.46753 0.83209 0.64182 0.0
H547 H 0.42457 0.78815 0.47296 0.0
C548 C 0.44392 0.79407 0.4508 0.0
H549 H 0.49113 0.80005 0.44912 0.0
H550 H 0.51878 0.72832 0.64365 0.0
H551 H 0.532 0.6897 0.58434 0.0
H552 H 0.51998 0.69655 0.49687 0.0
H553 H 0.49449 0.74198 0.46821 0.0
C554 C 0.47148 0.79504 0.47116 0.0
C555 C 0.47649 0.78994 0.52416 0.0
C556 C 0.49163 0.76343 0.54016 0.0
C557 C 0.49892 0.75967 0.59045 0.0
C558 C 0.51337 0.73263 0.60568 0.0
C559 C 0.52091 0.71022 0.57207 0.0
C560 C 0.51412 0.71406 0.52282 0.0
C561 C 0.49958 0.74027 0.50684 0.0
H562 H 0.20957 0.48567 0.92549 0.0
C563 C 0.22354 0.50522 0.93371 0.0
H564 H 0.25672 0.53513 0.90854 0.0
H565 H 0.20959 0.41747 0.76666 0.0
H566 H 0.22923 0.38414 0.82954 0.0
H567 H 0.25704 0.40468 0.90039 0.0
H568 H 0.26417 0.45918 0.90941 0.0
C569 C 0.2429 0.51559 0.90009 0.0
C570 C 0.24181 0.50305 0.84942 0.0
C571 C 0.24054 0.47127 0.84206 0.0
C572 C 0.22642 0.4594 0.79953 0.0
C573 C 0.2217 0.42776 0.79657 0.0
C574 C 0.2327 0.40832 0.83271 0.0
C575 C 0.24825 0.41988 0.8727 0.0
C576 C 0.25208 0.45103 0.8776 0.0
H577 H 0.2244 0.43762 0.68953 0.0
C578 C 0.20324 0.44993 0.68764 0.0
H579 H 0.17461 0.4821 0.71978 0.0
H580 H 0.25031 0.56465 0.84539 0.0
H581 H 0.23861 0.59756 0.77703 0.0
H582 H 0.2178 0.5768 0.70037 0.0
H583 H 0.20817 0.52293 0.69206 0.0
C584 C 0.19564 0.46959 0.72292 0.0
C585 C 0.21642 0.47954 0.76241 0.0
C586 C 0.22327 0.51085 0.76588 0.0
C587 C 0.23577 0.52273 0.80968 0.0
C588 C 0.24082 0.55432 0.81309 0.0
C589 C 0.23435 0.5735 0.77394 0.0
C590 C 0.22262 0.56183 0.73079 0.0
C591 C 0.21706 0.53091 0.7266 0.0
loop_
_geom_bond_atom_site_label_1
_geom_bond_atom_site_label_2
_geom_bond_distance
_geom_bond_site_symmetry_2
_ccdc_geom_bond_type
C0 O1 1.306 . S
C0 O3 1.160 . S
O1 C0 1.306 . S
O1 Cd2 2.228 . S
Cd2 O1 2.228 . S
Cd2 O6 2.273 . S
Cd2 O10 2.277 . S
O3 C0 1.160 . S
O3 Cd4 2.203 . S
Cd4 O3 2.203 . S
Cd4 O6 2.411 . S
Cd4 O7 2.333 . S
Cd4 O8 2.352 . S
Cd4 O12 2.277 . S
Cd4 O13 2.356 . S
C5 O10 1.209 . S
C5 O12 1.226 . S
O6 Cd2 2.273 . S
O6 Cd4 2.411 . S
O6 C9 1.320 . S
O7 Cd4 2.333 . S
O7 C9 1.214 . S
O8 Cd4 2.352 . S
O8 C11 1.258 . S
C9 O6 1.320 . S
C9 O7 1.214 . S
O10 Cd2 2.277 . S
O10 C5 1.209 . S
C11 O8 1.258 . S
C11 O13 1.282 . S
O12 Cd4 2.277 . S
O12 C5 1.226 . S
O13 Cd4 2.356 . S
O13 C11 1.282 . S
C14 O15 1.306 . S
C14 O17 1.160 . S
O15 C14 1.306 . S
O15 Cd16 2.228 . S
Cd16 O15 2.228 . S
Cd16 O20 2.273 . S
Cd16 O24 2.277 . S
O17 C14 1.160 . S
O17 Cd18 2.203 . S
Cd18 O17 2.203 . S
Cd18 O20 2.411 . S
Cd18 O21 2.333 . S
Cd18 O22 2.352 . S
Cd18 O26 2.277 . S
Cd18 O27 2.356 . S
C19 O24 1.209 . S
C19 O26 1.226 . S
O20 Cd16 2.273 . S
O20 Cd18 2.411 . S
O20 C23 1.320 . S
O21 Cd18 2.333 . S
O21 C23 1.214 . S
O22 Cd18 2.352 . S
O22 C25 1.258 . S
C23 O20 1.320 . S
C23 O21 1.214 . S
O24 Cd16 2.277 . S
O24 C19 1.209 . S
C25 O22 1.258 . S
C25 O27 1.282 . S
O26 Cd18 2.277 . S
O26 C19 1.226 . S
O27 Cd18 2.356 . S
O27 C25 1.282 . S
C28 O29 1.306 . S
C28 O31 1.160 . S
O29 C28 1.306 . S
O29 Cd30 2.228 . S
Cd30 O29 2.228 . S
Cd30 O34 2.273 . S
Cd30 O38 2.277 . S
O31 C28 1.160 . S
O31 Cd32 2.203 . S
Cd32 O31 2.203 . S
Cd32 O34 2.411 . S
Cd32 O35 2.333 . S
Cd32 O36 2.352 . S
Cd32 O40 2.277 . S
Cd32 O41 2.356 . S
C33 O38 1.209 . S
C33 O40 1.226 . S
O34 Cd30 2.273 . S
O34 Cd32 2.411 . S
O34 C37 1.320 . S
O35 Cd32 2.333 . S
O35 C37 1.214 . S
O36 Cd32 2.352 . S
O36 C39 1.258 . S
C37 O34 1.320 . S
C37 O35 1.214 . S
O38 Cd30 2.277 . S
O38 C33 1.209 . S
C39 O36 1.258 . S
C39 O41 1.282 . S
O40 Cd32 2.277 . S
O40 C33 1.226 . S
O41 Cd32 2.356 . S
O41 C39 1.282 . S
C42 O43 1.306 1_556 S
C42 O45 1.160 . S
O43 C42 1.306 1_554 S
O43 Cd44 2.228 . S
Cd44 O43 2.228 . S
Cd44 O48 2.273 . S
Cd44 O52 2.277 . S
O45 C42 1.160 . S
O45 Cd46 2.203 1_556 S
Cd46 O45 2.203 1_554 S
Cd46 O48 2.411 . S
Cd46 O49 2.333 . S
Cd46 O50 2.352 . S
Cd46 O54 2.277 . S
Cd46 O55 2.356 . S
C47 O52 1.209 . S
C47 O54 1.226 . S
O48 Cd44 2.273 . S
O48 Cd46 2.411 . S
O48 C51 1.320 . S
O49 Cd46 2.333 . S
O49 C51 1.214 . S
O50 Cd46 2.352 . S
O50 C53 1.258 . S
C51 O48 1.320 . S
C51 O49 1.214 . S
O52 Cd44 2.277 . S
O52 C47 1.209 . S
C53 O50 1.258 . S
C53 O55 1.282 . S
O54 Cd46 2.277 . S
O54 C47 1.226 . S
O55 Cd46 2.356 . S
O55 C53 1.282 . S
C56 O57 1.306 . S
C56 O59 1.160 . S
O57 C56 1.306 . S
O57 Cd58 2.228 . S
Cd58 O57 2.228 . S
Cd58 O62 2.273 . S
Cd58 O66 2.277 . S
O59 C56 1.160 . S
O59 Cd60 2.203 . S
Cd60 O59 2.203 . S
Cd60 O62 2.411 . S
Cd60 O63 2.333 . S
Cd60 O64 2.352 . S
Cd60 O68 2.277 . S
Cd60 O69 2.356 . S
C61 O66 1.209 . S
C61 O68 1.226 . S
O62 Cd58 2.273 . S
O62 Cd60 2.411 . S
O62 C65 1.320 . S
O63 Cd60 2.333 . S
O63 C65 1.214 . S
O64 Cd60 2.352 . S
O64 C67 1.258 . S
C65 O62 1.320 . S
C65 O63 1.214 . S
O66 Cd58 2.277 . S
O66 C61 1.209 . S
C67 O64 1.258 . S
C67 O69 1.282 . S
O68 Cd60 2.277 . S
O68 C61 1.226 . S
O69 Cd60 2.356 . S
O69 C67 1.282 . S
C70 O71 1.306 . S
C70 O73 1.160 . S
O71 C70 1.306 . S
O71 Cd72 2.228 . S
Cd72 O71 2.228 . S
Cd72 O76 2.273 . S
Cd72 O80 2.277 . S
O73 C70 1.160 . S
O73 Cd74 2.203 . S
Cd74 O73 2.203 . S
Cd74 O76 2.411 . S
Cd74 O77 2.333 . S
Cd74 O78 2.352 . S
Cd74 O82 2.277 . S
Cd74 O83 2.356 . S
C75 O80 1.209 . S
C75 O82 1.226 . S
O76 Cd72 2.273 . S
O76 Cd74 2.411 . S
O76 C79 1.320 . S
O77 Cd74 2.333 . S
O77 C79 1.214 . S
O78 Cd74 2.352 . S
O78 C81 1.258 . S
C79 O76 1.320 . S
C79 O77 1.214 . S
O80 Cd72 2.277 . S
O80 C75 1.209 . S
C81 O78 1.258 . S
C81 O83 1.282 . S
O82 Cd74 2.277 . S
O82 C75 1.226 . S
O83 Cd74 2.356 . S
O83 C81 1.282 . S
C84 O85 1.306 . S
C84 O87 1.160 . S
O85 C84 1.306 . S
O85 Cd86 2.228 . S
Cd86 O85 2.228 . S
Cd86 O90 2.273 . S
Cd86 O94 2.277 . S
O87 C84 1.160 . S
O87 Cd88 2.203 . S
Cd88 O87 2.203 . S
Cd88 O90 2.411 . S
Cd88 O91 2.333 . S
Cd88 O92 2.352 . S
Cd88 O96 2.277 . S
Cd88 O97 2.356 . S
C89 O94 1.209 . S
C89 O96 1.226 . S
O90 Cd86 2.273 . S
O90 Cd88 2.411 . S
O90 C93 1.320 . S
O91 Cd88 2.333 . S
O91 C93 1.214 . S
O92 Cd88 2.352 . S
O92 C95 1.258 . S
C93 O90 1.320 . S
C93 O91 1.214 . S
O94 Cd86 2.277 . S
O94 C89 1.209 . S
C95 O92 1.258 . S
C95 O97 1.282 . S
O96 Cd88 2.277 . S
O96 C89 1.226 . S
O97 Cd88 2.356 . S
O97 C95 1.282 . S
C98 O99 1.306 . S
C98 O101 1.160 . S
O99 C98 1.306 . S
O99 Cd100 2.228 . S
Cd100 O99 2.228 . S
Cd100 O104 2.273 1_554 S
Cd100 O108 2.277 . S
O101 C98 1.160 . S
O101 Cd102 2.203 . S
Cd102 O101 2.203 . S
Cd102 O104 2.411 1_554 S
Cd102 O105 2.333 1_554 S
Cd102 O106 2.352 . S
Cd102 O110 2.277 . S
Cd102 O111 2.356 . S
C103 O108 1.209 . S
C103 O110 1.226 . S
O104 Cd100 2.273 1_556 S
O104 Cd102 2.411 1_556 S
O104 C107 1.320 . S
O105 Cd102 2.333 1_556 S
O105 C107 1.214 . S
O106 Cd102 2.352 . S
O106 C109 1.258 . S
C107 O104 1.320 . S
C107 O105 1.214 . S
O108 Cd100 2.277 . S
O108 C103 1.209 . S
C109 O106 1.258 . S
C109 O111 1.282 . S
O110 Cd102 2.277 . S
O110 C103 1.226 . S
O111 Cd102 2.356 . S
O111 C109 1.282 . S
H112 C113 0.951 . S
C113 H112 0.951 . S
C113 C119 1.265 . S
H114 C119 0.950 . S
H115 C123 0.949 . S
H116 C124 0.950 . S
H117 C125 0.951 . S
H118 C126 0.951 . S
C119 C113 1.265 . S
C119 H114 0.950 . S
C119 C120 1.478 . S
C120 C119 1.478 . S
C120 C121 1.397 . S
C120 C137 1.394 . S
C121 C120 1.397 . S
C121 C122 1.438 . S
C121 C126 1.429 . S
C122 C121 1.438 . S
C122 C123 1.428 . S
C122 C135 1.394 . S
C123 H115 0.949 . S
C123 C122 1.428 . S
C123 C124 1.345 . S
C124 H116 0.950 . S
C124 C123 1.345 . S
C124 C125 1.424 . S
C125 H117 0.951 . S
C125 C124 1.424 . S
C125 C126 1.347 . S
C126 H118 0.951 . S
C126 C121 1.429 . S
C126 C125 1.347 . S
H127 C128 0.951 . S
C128 H127 0.951 . S
C128 C134 1.265 . S
H129 C134 0.950 . S
H130 C138 0.949 . S
H131 C139 0.950 . S
H132 C140 0.951 . S
H133 C141 0.951 . S
C134 C128 1.265 . S
C134 H129 0.950 . S
C134 C135 1.478 . S
C135 C122 1.394 . S
C135 C134 1.478 . S
C135 C136 1.397 . S
C136 C135 1.397 . S
C136 C137 1.438 . S
C136 C141 1.429 . S
C137 C120 1.394 . S
C137 C136 1.438 . S
C137 C138 1.428 . S
C138 H130 0.949 . S
C138 C137 1.428 . S
C138 C139 1.345 . S
C139 H131 0.950 . S
C139 C138 1.345 . S
C139 C140 1.424 . S
C140 H132 0.951 . S
C140 C139 1.424 . S
C140 C141 1.347 . S
C141 H133 0.951 . S
C141 C136 1.429 . S
C141 C140 1.347 . S
H142 C143 0.951 . S
C143 H142 0.951 . S
C143 C149 1.265 . S
H144 C149 0.950 . S
H145 C153 0.949 . S
H146 C154 0.950 . S
H147 C155 0.951 . S
H148 C156 0.951 . S
C149 C143 1.265 . S
C149 H144 0.950 . S
C149 C150 1.478 . S
C150 C149 1.478 . S
C150 C151 1.397 . S
C150 C167 1.394 . S
C151 C150 1.397 . S
C151 C152 1.438 . S
C151 C156 1.429 . S
C152 C151 1.438 . S
C152 C153 1.428 . S
C152 C165 1.394 . S
C153 H145 0.949 . S
C153 C152 1.428 . S
C153 C154 1.345 . S
C154 H146 0.950 . S
C154 C153 1.345 . S
C154 C155 1.424 . S
C155 H147 0.951 . S
C155 C154 1.424 . S
C155 C156 1.347 . S
C156 H148 0.951 . S
C156 C151 1.429 . S
C156 C155 1.347 . S
H157 C158 0.951 . S
C158 H157 0.951 . S
C158 C164 1.265 . S
H159 C164 0.950 . S
H160 C168 0.949 . S
H161 C169 0.950 . S
H162 C170 0.951 . S
H163 C171 0.951 . S
C164 C158 1.265 . S
C164 H159 0.950 . S
C164 C165 1.478 . S
C165 C152 1.394 . S
C165 C164 1.478 . S
C165 C166 1.397 . S
C166 C165 1.397 . S
C166 C167 1.438 . S
C166 C171 1.429 . S
C167 C150 1.394 . S
C167 C166 1.438 . S
C167 C168 1.428 . S
C168 H160 0.949 . S
C168 C167 1.428 . S
C168 C169 1.345 . S
C169 H161 0.950 . S
C169 C168 1.345 . S
C169 C170 1.424 . S
C170 H162 0.951 . S
C170 C169 1.424 . S
C170 C171 1.347 . S
C171 H163 0.951 . S
C171 C166 1.429 . S
C171 C170 1.347 . S
H172 C173 0.951 . S
C173 H172 0.951 . S
C173 C179 1.265 . S
H174 C179 0.950 . S
H175 C183 0.949 1_556 S
H176 C184 0.950 . S
H177 C185 0.951 . S
H178 C186 0.951 . S
C179 C173 1.265 . S
C179 H174 0.950 . S
C179 C180 1.478 . S
C180 C179 1.478 . S
C180 C181 1.397 . S
C180 C197 1.394 . S
C181 C180 1.397 . S
C181 C182 1.438 . S
C181 C186 1.429 . S
C182 C181 1.438 . S
C182 C183 1.428 . S
C182 C195 1.394 . S
C183 H175 0.949 1_554 S
C183 C182 1.428 . S
C183 C184 1.345 . S
C184 H176 0.950 . S
C184 C183 1.345 . S
C184 C185 1.424 . S
C185 H177 0.951 . S
C185 C184 1.424 . S
C185 C186 1.347 . S
C186 H178 0.951 . S
C186 C181 1.429 . S
C186 C185 1.347 . S
H187 C188 0.951 . S
C188 H187 0.951 . S
C188 C194 1.265 . S
H189 C194 0.950 . S
H190 C198 0.949 . S
H191 C199 0.950 . S
H192 C200 0.951 . S
H193 C201 0.951 1_556 S
C194 C188 1.265 . S
C194 H189 0.950 . S
C194 C195 1.478 1_556 S
C195 C182 1.394 . S
C195 C194 1.478 1_554 S
C195 C196 1.397 . S
C196 C195 1.397 . S
C196 C197 1.438 . S
C196 C201 1.429 . S
C197 C180 1.394 . S
C197 C196 1.438 . S
C197 C198 1.428 . S
C198 H190 0.949 . S
C198 C197 1.428 . S
C198 C199 1.345 . S
C199 H191 0.950 . S
C199 C198 1.345 . S
C199 C200 1.424 . S
C200 H192 0.951 . S
C200 C199 1.424 . S
C200 C201 1.347 . S
C201 H193 0.951 1_554 S
C201 C196 1.429 . S
C201 C200 1.347 . S
H202 C203 0.951 . S
C203 H202 0.951 . S
C203 C209 1.265 . S
H204 C209 0.950 . S
H205 C213 0.949 . S
H206 C214 0.950 . S
H207 C215 0.951 . S
H208 C216 0.951 . S
C209 C203 1.265 . S
C209 H204 0.950 . S
C209 C210 1.478 . S
C210 C209 1.478 . S
C210 C211 1.397 . S
C210 C227 1.394 . S
C211 C210 1.397 . S
C211 C212 1.438 . S
C211 C216 1.429 . S
C212 C211 1.438 . S
C212 C213 1.428 . S
C212 C225 1.394 . S
C213 H205 0.949 . S
C213 C212 1.428 . S
C213 C214 1.345 . S
C214 H206 0.950 . S
C214 C213 1.345 . S
C214 C215 1.424 . S
C215 H207 0.951 . S
C215 C214 1.424 . S
C215 C216 1.347 . S
C216 H208 0.951 . S
C216 C211 1.429 . S
C216 C215 1.347 . S
H217 C218 0.951 . S
C218 H217 0.951 . S
C218 C224 1.265 . S
H219 C224 0.950 . S
H220 C228 0.949 . S
H221 C229 0.950 . S
H222 C230 0.951 . S
H223 C231 0.951 . S
C224 C218 1.265 . S
C224 H219 0.950 . S
C224 C225 1.478 . S
C225 C212 1.394 . S
C225 C224 1.478 . S
C225 C226 1.397 . S
C226 C225 1.397 . S
C226 C227 1.438 . S
C226 C231 1.429 . S
C227 C210 1.394 . S
C227 C226 1.438 . S
C227 C228 1.428 . S
C228 H220 0.949 . S
C228 C227 1.428 . S
C228 C229 1.345 . S
C229 H221 0.950 . S
C229 C228 1.345 . S
C229 C230 1.424 . S
C230 H222 0.951 . S
C230 C229 1.424 . S
C230 C231 1.347 . S
C231 H223 0.951 . S
C231 C226 1.429 . S
C231 C230 1.347 . S
H232 C233 0.951 . S
C233 H232 0.951 . S
C233 C239 1.265 . S
H234 C239 0.950 . S
H235 C243 0.949 . S
H236 C244 0.950 . S
H237 C245 0.951 . S
H238 C246 0.951 . S
C239 C233 1.265 . S
C239 H234 0.950 . S
C239 C240 1.478 . S
C240 C239 1.478 . S
C240 C241 1.397 . S
C240 C257 1.394 . S
C241 C240 1.397 . S
C241 C242 1.438 . S
C241 C246 1.429 . S
C242 C241 1.438 . S
C242 C243 1.428 . S
C242 C255 1.394 . S
C243 H235 0.949 . S
C243 C242 1.428 . S
C243 C244 1.345 . S
C244 H236 0.950 . S
C244 C243 1.345 . S
C244 C245 1.424 . S
C245 H237 0.951 . S
C245 C244 1.424 . S
C245 C246 1.347 . S
C246 H238 0.951 . S
C246 C241 1.429 . S
C246 C245 1.347 . S
H247 C248 0.951 . S
C248 H247 0.951 . S
C248 C254 1.265 . S
H249 C254 0.950 . S
H250 C258 0.949 . S
H251 C259 0.950 . S
H252 C260 0.951 . S
H253 C261 0.951 . S
C254 C248 1.265 . S
C254 H249 0.950 . S
C254 C255 1.478 . S
C255 C242 1.394 . S
C255 C254 1.478 . S
C255 C256 1.397 . S
C256 C255 1.397 . S
C256 C257 1.438 . S
C256 C261 1.429 . S
C257 C240 1.394 . S
C257 C256 1.438 . S
C257 C258 1.428 . S
C258 H250 0.949 . S
C258 C257 1.428 . S
C258 C259 1.345 . S
C259 H251 0.950 . S
C259 C258 1.345 . S
C259 C260 1.424 . S
C260 H252 0.951 . S
C260 C259 1.424 . S
C260 C261 1.347 . S
C261 H253 0.951 . S
C261 C256 1.429 . S
C261 C260 1.347 . S
H262 C263 0.951 . S
C263 H262 0.951 . S
C263 C269 1.265 . S
H264 C269 0.950 . S
H265 C273 0.949 . S
H266 C274 0.950 . S
H267 C275 0.951 . S
H268 C276 0.951 . S
C269 C263 1.265 . S
C269 H264 0.950 . S
C269 C270 1.478 . S
C270 C269 1.478 . S
C270 C271 1.397 . S
C270 C287 1.394 . S
C271 C270 1.397 . S
C271 C272 1.438 . S
C271 C276 1.429 . S
C272 C271 1.438 . S
C272 C273 1.428 . S
C272 C285 1.394 . S
C273 H265 0.949 . S
C273 C272 1.428 . S
C273 C274 1.345 . S
C274 H266 0.950 . S
C274 C273 1.345 . S
C274 C275 1.424 . S
C275 H267 0.951 . S
C275 C274 1.424 . S
C275 C276 1.347 . S
C276 H268 0.951 . S
C276 C271 1.429 . S
C276 C275 1.347 . S
H277 C278 0.951 . S
C278 H277 0.951 . S
C278 C284 1.265 . S
H279 C284 0.950 . S
H280 C288 0.949 . S
H281 C289 0.950 . S
H282 C290 0.951 . S
H283 C291 0.951 . S
C284 C278 1.265 . S
C284 H279 0.950 . S
C284 C285 1.478 . S
C285 C272 1.394 . S
C285 C284 1.478 . S
C285 C286 1.397 . S
C286 C285 1.397 . S
C286 C287 1.438 . S
C286 C291 1.429 . S
C287 C270 1.394 . S
C287 C286 1.438 . S
C287 C288 1.428 . S
C288 H280 0.949 . S
C288 C287 1.428 . S
C288 C289 1.345 . S
C289 H281 0.950 . S
C289 C288 1.345 . S
C289 C290 1.424 . S
C290 H282 0.951 . S
C290 C289 1.424 . S
C290 C291 1.347 . S
C291 H283 0.951 . S
C291 C286 1.429 . S
C291 C290 1.347 . S
H292 C293 0.951 . S
C293 H292 0.951 . S
C293 C299 1.265 1_556 S
H294 C299 0.950 . S
H295 C303 0.949 . S
H296 C304 0.950 1_554 S
H297 C305 0.951 . S
H298 C306 0.951 . S
C299 C293 1.265 1_554 S
C299 H294 0.950 . S
C299 C300 1.478 1_554 S
C300 C299 1.478 1_556 S
C300 C301 1.397 . S
C300 C317 1.394 . S
C301 C300 1.397 . S
C301 C302 1.438 . S
C301 C306 1.429 1_556 S
C302 C301 1.438 . S
C302 C303 1.428 . S
C302 C315 1.394 . S
C303 H295 0.949 . S
C303 C302 1.428 . S
C303 C304 1.345 . S
C304 H296 0.950 1_556 S
C304 C303 1.345 . S
C304 C305 1.424 1_556 S
C305 H297 0.951 . S
C305 C304 1.424 1_554 S
C305 C306 1.347 . S
C306 H298 0.951 . S
C306 C301 1.429 1_554 S
C306 C305 1.347 . S
H307 C308 0.951 . S
C308 H307 0.951 . S
C308 C314 1.265 . S
H309 C314 0.950 . S
H310 C318 0.949 . S
H311 C319 0.950 . S
H312 C320 0.951 . S
H313 C321 0.951 . S
C314 C308 1.265 . S
C314 H309 0.950 . S
C314 C315 1.478 . S
C315 C302 1.394 . S
C315 C314 1.478 . S
C315 C316 1.397 . S
C316 C315 1.397 . S
C316 C317 1.438 . S
C316 C321 1.429 . S
C317 C300 1.394 . S
C317 C316 1.438 . S
C317 C318 1.428 . S
C318 H310 0.949 . S
C318 C317 1.428 . S
C318 C319 1.345 . S
C319 H311 0.950 . S
C319 C318 1.345 . S
C319 C320 1.424 . S
C320 H312 0.951 . S
C320 C319 1.424 . S
C320 C321 1.347 . S
C321 H313 0.951 . S
C321 C316 1.429 . S
C321 C320 1.347 . S
H322 C323 0.951 . S
C323 H322 0.951 . S
C323 C329 1.265 . S
H324 C329 0.950 . S
H325 C333 0.949 . S
H326 C334 0.950 . S
H327 C335 0.951 . S
H328 C336 0.951 . S
C329 C323 1.265 . S
C329 H324 0.950 . S
C329 C330 1.478 . S
C330 C329 1.478 . S
C330 C331 1.397 . S
C330 C347 1.394 . S
C331 C330 1.397 . S
C331 C332 1.438 . S
C331 C336 1.429 . S
C332 C331 1.438 . S
C332 C333 1.428 . S
C332 C345 1.394 . S
C333 H325 0.949 . S
C333 C332 1.428 . S
C333 C334 1.345 . S
C334 H326 0.950 . S
C334 C333 1.345 . S
C334 C335 1.424 . S
C335 H327 0.951 . S
C335 C334 1.424 . S
C335 C336 1.347 . S
C336 H328 0.951 . S
C336 C331 1.429 . S
C336 C335 1.347 . S
H337 C338 0.951 . S
C338 H337 0.951 . S
C338 C344 1.265 . S
H339 C344 0.950 . S
H340 C348 0.949 . S
H341 C349 0.950 . S
H342 C350 0.951 . S
H343 C351 0.951 . S
C344 C338 1.265 . S
C344 H339 0.950 . S
C344 C345 1.478 . S
C345 C332 1.394 . S
C345 C344 1.478 . S
C345 C346 1.397 . S
C346 C345 1.397 . S
C346 C347 1.438 . S
C346 C351 1.429 . S
C347 C330 1.394 . S
C347 C346 1.438 . S
C347 C348 1.428 . S
C348 H340 0.949 . S
C348 C347 1.428 . S
C348 C349 1.345 . S
C349 H341 0.950 . S
C349 C348 1.345 . S
C349 C350 1.424 . S
C350 H342 0.951 . S
C350 C349 1.424 . S
C350 C351 1.347 . S
C351 H343 0.951 . S
C351 C346 1.429 . S
C351 C350 1.347 . S
H352 C353 0.951 . S
C353 H352 0.951 . S
C353 C359 1.265 . S
H354 C359 0.950 . S
H355 C363 0.949 . S
H356 C364 0.950 . S
H357 C365 0.951 . S
H358 C366 0.951 . S
C359 C353 1.265 . S
C359 H354 0.950 . S
C359 C360 1.478 . S
C360 C359 1.478 . S
C360 C361 1.397 . S
C360 C377 1.394 . S
C361 C360 1.397 . S
C361 C362 1.438 1_565 S
C361 C366 1.429 . S
C362 C361 1.438 1_545 S
C362 C363 1.428 . S
C362 C375 1.394 . S
C363 H355 0.949 . S
C363 C362 1.428 . S
C363 C364 1.345 . S
C364 H356 0.950 . S
C364 C363 1.345 . S
C364 C365 1.424 1_545 S
C365 H357 0.951 . S
C365 C364 1.424 1_565 S
C365 C366 1.347 . S
C366 H358 0.951 . S
C366 C361 1.429 . S
C366 C365 1.347 . S
H367 C368 0.951 . S
C368 H367 0.951 . S
C368 C374 1.265 . S
H369 C374 0.950 . S
H370 C378 0.949 . S
H371 C379 0.950 . S
H372 C380 0.951 . S
H373 C381 0.951 . S
C374 C368 1.265 . S
C374 H369 0.950 . S
C374 C375 1.478 . S
C375 C362 1.394 . S
C375 C374 1.478 . S
C375 C376 1.397 . S
C376 C375 1.397 . S
C376 C377 1.438 1_545 S
C376 C381 1.429 . S
C377 C360 1.394 . S
C377 C376 1.438 1_565 S
C377 C378 1.428 . S
C378 H370 0.949 . S
C378 C377 1.428 . S
C378 C379 1.345 . S
C379 H371 0.950 . S
C379 C378 1.345 . S
C379 C380 1.424 1_565 S
C380 H372 0.951 . S
C380 C379 1.424 1_545 S
C380 C381 1.347 . S
C381 H373 0.951 . S
C381 C376 1.429 . S
C381 C380 1.347 . S
H382 C383 0.951 . S
C383 H382 0.951 . S
C383 C389 1.265 . S
H384 C389 0.950 . S
H385 C393 0.949 . S
H386 C394 0.950 . S
H387 C395 0.951 . S
H388 C396 0.951 . S
C389 C383 1.265 . S
C389 H384 0.950 . S
C389 C390 1.478 . S
C390 C389 1.478 . S
C390 C391 1.397 . S
C390 C407 1.394 . S
C391 C390 1.397 . S
C391 C392 1.438 1_655 S
C391 C396 1.429 . S
C392 C391 1.438 1_455 S
C392 C393 1.428 . S
C392 C405 1.394 . S
C393 H385 0.949 . S
C393 C392 1.428 . S
C393 C394 1.345 . S
C394 H386 0.950 . S
C394 C393 1.345 . S
C394 C395 1.424 1_455 S
C395 H387 0.951 . S
C395 C394 1.424 1_655 S
C395 C396 1.347 . S
C396 H388 0.951 . S
C396 C391 1.429 . S
C396 C395 1.347 . S
H397 C398 0.951 . S
C398 H397 0.951 . S
C398 C404 1.265 . S
H399 C404 0.950 . S
H400 C408 0.949 . S
H401 C409 0.950 . S
H402 C410 0.951 . S
H403 C411 0.951 . S
C404 C398 1.265 . S
C404 H399 0.950 . S
C404 C405 1.478 . S
C405 C392 1.394 . S
C405 C404 1.478 . S
C405 C406 1.397 . S
C406 C405 1.397 . S
C406 C407 1.438 1_455 S
C406 C411 1.429 . S
C407 C390 1.394 . S
C407 C406 1.438 1_655 S
C407 C408 1.428 . S
C408 H400 0.949 . S
C408 C407 1.428 . S
C408 C409 1.345 . S
C409 H401 0.950 . S
C409 C408 1.345 . S
C409 C410 1.424 1_655 S
C410 H402 0.951 . S
C410 C409 1.424 1_455 S
C410 C411 1.347 . S
C411 H403 0.951 . S
C411 C406 1.429 . S
C411 C410 1.347 . S
H412 C413 0.951 . S
C413 H412 0.951 . S
C413 C419 1.265 . S
H414 C419 0.950 . S
H415 C423 0.949 . S
H416 C424 0.950 . S
H417 C425 0.951 . S
H418 C426 0.951 . S
C419 C413 1.265 . S
C419 H414 0.950 . S
C419 C420 1.478 . S
C420 C419 1.478 . S
C420 C421 1.397 . S
C420 C437 1.394 . S
C421 C420 1.397 . S
C421 C422 1.438 1_565 S
C421 C426 1.429 . S
C422 C421 1.438 1_545 S
C422 C423 1.428 . S
C422 C435 1.394 . S
C423 H415 0.949 . S
C423 C422 1.428 . S
C423 C424 1.345 . S
C424 H416 0.950 . S
C424 C423 1.345 . S
C424 C425 1.424 1_545 S
C425 H417 0.951 . S
C425 C424 1.424 1_565 S
C425 C426 1.347 . S
C426 H418 0.951 . S
C426 C421 1.429 . S
C426 C425 1.347 . S
H427 C428 0.951 . S
C428 H427 0.951 . S
C428 C434 1.265 . S
H429 C434 0.950 . S
H430 C438 0.949 . S
H431 C439 0.950 . S
H432 C440 0.951 . S
H433 C441 0.951 . S
C434 C428 1.265 . S
C434 H429 0.950 . S
C434 C435 1.478 . S
C435 C422 1.394 . S
C435 C434 1.478 . S
C435 C436 1.397 . S
C436 C435 1.397 . S
C436 C437 1.438 1_545 S
C436 C441 1.429 . S
C437 C420 1.394 . S
C437 C436 1.438 1_565 S
C437 C438 1.428 . S
C438 H430 0.949 . S
C438 C437 1.428 . S
C438 C439 1.345 . S
C439 H431 0.950 . S
C439 C438 1.345 . S
C439 C440 1.424 1_565 S
C440 H432 0.951 . S
C440 C439 1.424 1_545 S
C440 C441 1.347 . S
C441 H433 0.951 . S
C441 C436 1.429 . S
C441 C440 1.347 . S
H442 C443 0.951 . S
C443 H442 0.951 . S
C443 C449 1.265 . S
H444 C449 0.950 1_556 S
H445 C453 0.949 . S
H446 C454 0.950 . S
H447 C455 0.951 . S
H448 C456 0.951 . S
C449 C443 1.265 . S
C449 H444 0.950 1_554 S
C449 C450 1.478 . S
C450 C449 1.478 . S
C450 C451 1.397 . S
C450 C467 1.394 . S
C451 C450 1.397 . S
C451 C452 1.438 1_655 S
C451 C456 1.429 . S
C452 C451 1.438 1_455 S
C452 C453 1.428 . S
C452 C465 1.394 . S
C453 H445 0.949 . S
C453 C452 1.428 . S
C453 C454 1.345 . S
C454 H446 0.950 . S
C454 C453 1.345 . S
C454 C455 1.424 1_455 S
C455 H447 0.951 . S
C455 C454 1.424 1_655 S
C455 C456 1.347 . S
C456 H448 0.951 . S
C456 C451 1.429 . S
C456 C455 1.347 . S
H457 C458 0.951 . S
C458 H457 0.951 . S
C458 C464 1.265 . S
H459 C464 0.950 . S
H460 C468 0.949 . S
H461 C469 0.950 . S
H462 C470 0.951 . S
H463 C471 0.951 . S
C464 C458 1.265 . S
C464 H459 0.950 . S
C464 C465 1.478 . S
C465 C452 1.394 . S
C465 C464 1.478 . S
C465 C466 1.397 . S
C466 C465 1.397 . S
C466 C467 1.438 1_455 S
C466 C471 1.429 . S
C467 C450 1.394 . S
C467 C466 1.438 1_655 S
C467 C468 1.428 . S
C468 H460 0.949 . S
C468 C467 1.428 . S
C468 C469 1.345 . S
C469 H461 0.950 . S
C469 C468 1.345 . S
C469 C470 1.424 1_655 S
C470 H462 0.951 . S
C470 C469 1.424 1_455 S
C470 C471 1.347 . S
C471 H463 0.951 . S
C471 C466 1.429 . S
C471 C470 1.347 . S
H472 C473 0.951 . S
C473 H472 0.951 . S
C473 C479 1.265 . S
H474 C479 0.950 . S
H475 C483 0.949 . S
H476 C484 0.950 . S
H477 C485 0.951 . S
H478 C486 0.942 1_556 S
C479 C473 1.265 . S
C479 H474 0.950 . S
C479 C480 1.478 1_556 S
C480 C479 1.478 1_554 S
C480 C481 1.397 . S
C480 C497 1.394 . S
C481 C480 1.397 . S
C481 C482 1.438 . S
C481 C486 1.434 . S
C482 C481 1.438 . S
C482 C483 1.428 . S
C482 C495 1.394 . S
C483 H475 0.949 . S
C483 C482 1.428 . S
C483 C484 1.345 . S
C484 H476 0.950 . S
C484 C483 1.345 . S
C484 C485 1.424 . S
C485 H477 0.951 . S
C485 C484 1.424 . S
C485 C486 1.351 . S
C486 H478 0.942 1_554 S
C486 C481 1.434 . S
C486 C485 1.351 . S
H487 C488 0.951 . S
C488 H487 0.951 . S
C488 C494 1.265 . S
H489 C494 0.950 . S
H490 C498 0.949 1_556 S
H491 C499 0.950 . S
H492 C500 0.951 . S
H493 C501 0.951 . S
C494 C488 1.265 . S
C494 H489 0.950 . S
C494 C495 1.478 . S
C495 C482 1.394 . S
C495 C494 1.478 . S
C495 C496 1.397 . S
C496 C495 1.397 . S
C496 C497 1.438 . S
C496 C501 1.429 . S
C497 C480 1.394 . S
C497 C496 1.438 . S
C497 C498 1.428 . S
C498 H490 0.949 1_554 S
C498 C497 1.428 . S
C498 C499 1.345 . S
C499 H491 0.950 . S
C499 C498 1.345 . S
C499 C500 1.424 . S
C500 H492 0.951 . S
C500 C499 1.424 . S
C500 C501 1.347 . S
C501 H493 0.951 . S
C501 C496 1.429 . S
C501 C500 1.347 . S
H502 C503 0.951 . S
C503 H502 0.951 . S
C503 C509 1.265 . S
H504 C509 0.950 . S
H505 C513 0.949 . S
H506 C514 0.950 . S
H507 C515 0.951 . S
H508 C516 0.951 . S
C509 C503 1.265 . S
C509 H504 0.950 . S
C509 C510 1.478 . S
C510 C509 1.478 . S
C510 C511 1.397 . S
C510 C527 1.394 . S
C511 C510 1.397 . S
C511 C512 1.438 . S
C511 C516 1.429 . S
C512 C511 1.438 . S
C512 C513 1.428 . S
C512 C525 1.394 . S
C513 H505 0.949 . S
C513 C512 1.428 . S
C513 C514 1.345 . S
C514 H506 0.950 . S
C514 C513 1.345 . S
C514 C515 1.424 . S
C515 H507 0.951 . S
C515 C514 1.424 . S
C515 C516 1.347 . S
C516 H508 0.951 . S
C516 C511 1.429 . S
C516 C515 1.347 . S
H517 C518 0.951 . S
C518 H517 0.951 . S
C518 C524 1.265 . S
H519 C524 0.950 . S
H520 C528 0.949 . S
H521 C529 0.950 . S
H522 C530 0.951 . S
H523 C531 0.951 . S
C524 C518 1.265 . S
C524 H519 0.950 . S
C524 C525 1.478 . S
C525 C512 1.394 . S
C525 C524 1.478 . S
C525 C526 1.397 . S
C526 C525 1.397 . S
C526 C527 1.438 . S
C526 C531 1.429 . S
C527 C510 1.394 . S
C527 C526 1.438 . S
C527 C528 1.428 . S
C528 H520 0.949 . S
C528 C527 1.428 . S
C528 C529 1.345 . S
C529 H521 0.950 . S
C529 C528 1.345 . S
C529 C530 1.424 . S
C530 H522 0.951 . S
C530 C529 1.424 . S
C530 C531 1.347 . S
C531 H523 0.951 . S
C531 C526 1.429 . S
C531 C530 1.347 . S
H532 C533 0.951 . S
C533 H532 0.951 . S
C533 C539 1.265 . S
H534 C539 0.950 . S
H535 C543 0.949 . S
H536 C544 0.950 . S
H537 C545 0.951 . S
H538 C546 0.951 . S
C539 C533 1.265 . S
C539 H534 0.950 . S
C539 C540 1.478 . S
C540 C539 1.478 . S
C540 C541 1.397 . S
C540 C557 1.394 . S
C541 C540 1.397 . S
C541 C542 1.438 . S
C541 C546 1.429 . S
C542 C541 1.438 . S
C542 C543 1.428 . S
C542 C555 1.394 . S
C543 H535 0.949 . S
C543 C542 1.428 . S
C543 C544 1.345 . S
C544 H536 0.950 . S
C544 C543 1.345 . S
C544 C545 1.424 . S
C545 H537 0.951 . S
C545 C544 1.424 . S
C545 C546 1.347 . S
C546 H538 0.951 . S
C546 C541 1.429 . S
C546 C545 1.347 . S
H547 C548 0.951 . S
C548 H547 0.951 . S
C548 C554 1.265 . S
H549 C554 0.950 . S
H550 C558 0.949 . S
H551 C559 0.950 . S
H552 C560 0.951 . S
H553 C561 0.951 . S
C554 C548 1.265 . S
C554 H549 0.950 . S
C554 C555 1.478 . S
C555 C542 1.394 . S
C555 C554 1.478 . S
C555 C556 1.397 . S
C556 C555 1.397 . S
C556 C557 1.438 . S
C556 C561 1.429 . S
C557 C540 1.394 . S
C557 C556 1.438 . S
C557 C558 1.428 . S
C558 H550 0.949 . S
C558 C557 1.428 . S
C558 C559 1.345 . S
C559 H551 0.950 . S
C559 C558 1.345 . S
C559 C560 1.424 . S
C560 H552 0.951 . S
C560 C559 1.424 . S
C560 C561 1.347 . S
C561 H553 0.951 . S
C561 C556 1.429 . S
C561 C560 1.347 . S
H562 C563 0.951 . S
C563 H562 0.951 . S
C563 C569 1.265 . S
H564 C569 0.950 . S
H565 C573 0.949 . S
H566 C574 0.950 . S
H567 C575 0.951 . S
H568 C576 0.951 . S
C569 C563 1.265 . S
C569 H564 0.950 . S
C569 C570 1.478 . S
C570 C569 1.478 . S
C570 C571 1.397 . S
C570 C587 1.394 . S
C571 C570 1.397 . S
C571 C572 1.438 . S
C571 C576 1.429 . S
C572 C571 1.438 . S
C572 C573 1.428 . S
C572 C585 1.394 . S
C573 H565 0.949 . S
C573 C572 1.428 . S
C573 C574 1.345 . S
C574 H566 0.950 . S
C574 C573 1.345 . S
C574 C575 1.424 . S
C575 H567 0.951 . S
C575 C574 1.424 . S
C575 C576 1.347 . S
C576 H568 0.951 . S
C576 C571 1.429 . S
C576 C575 1.347 . S
H577 C578 0.951 . S
C578 H577 0.951 . S
C578 C584 1.265 . S
H579 C584 0.950 . S
H580 C588 0.949 . S
H581 C589 0.950 . S
H582 C590 0.951 . S
H583 C591 0.951 . S
C584 C578 1.265 . S
C584 H579 0.950 . S
C584 C585 1.478 . S
C585 C572 1.394 . S
C585 C584 1.478 . S
C585 C586 1.397 . S
C586 C585 1.397 . S
C586 C587 1.438 . S
C586 C591 1.429 . S
C587 C570 1.394 . S
C587 C586 1.438 . S
C587 C588 1.428 . S
C588 H580 0.949 . S
C588 C587 1.428 . S
C588 C589 1.345 . S
C589 H581 0.950 . S
C589 C588 1.345 . S
C589 C590 1.424 . S
C590 H582 0.951 . S
C590 C589 1.424 . S
C590 C591 1.347 . S
C591 H583 0.951 . S
C591 C586 1.429 . S
C591 C590 1.347 . S
C113 C9 0.643 . S
C128 C93 0.644 . S
C143 C23 0.733 . S
C158 C107 0.735 . S
C173 C65 0.643 . S
C188 C37 0.644 . S
C203 C79 0.697 . S
C218 C51 0.702 . S
C233 C11 1.516 . S
C248 C81 1.530 . S
C263 C25 1.478 . S
C278 C95 1.496 . S
C293 C109 1.460 1_556 S
C308 C39 1.468 . S
C323 C53 1.476 . S
C338 C67 1.493 . S
C353 C61 1.502 . S
C368 C5 1.482 . S
C383 C19 1.489 . S
C398 C75 1.489 . S
C413 C33 1.482 . S
C428 C89 1.502 . S
C443 C103 1.493 . S
C458 C47 1.497 . S
C473 C84 1.517 . S
C488 C0 1.512 . S
C503 C98 1.461 . S
C518 C14 1.516 . S
C533 C28 1.494 . S
C548 C56 1.526 . S
C563 C42 1.469 . S
C578 C70 1.522 . S
