# Generated by pormake.
# Topology fcu, (12)-cn, num edge types: 1
# Building blocks:
#     Node 0, Type 0, BuildingBlock: ZALLEG_clean_sbu_0, # of connection points: 12
#     Node 1, Type 0, BuildingBlock: ZALLEG_clean_sbu_0, # of connection points: 12
#     Node 2, Type 0, BuildingBlock: ZALLEG_clean_sbu_0, # of connection points: 12
#     Node 3, Type 0, BuildingBlock: ZALLEG_clean_sbu_0, # of connection points: 12
#     Edge 4, Type (0, 0), BuildingBlock: XUDNAN_clean_linker_2, # of connection points: 2
#     Edge 5, Type (0, 0), BuildingBlock: XUDNAN_clean_linker_2, # of connection points: 2
#     Edge 6, Type (0, 0), BuildingBlock: XUDNAN_clean_linker_2, # of connection points: 2
#     Edge 7, Type (0, 0), BuildingBlock: XUDNAN_clean_linker_2, # of connection points: 2
#     Edge 8, Type (0, 0), BuildingBlock: XUDNAN_clean_linker_2, # of connection points: 2
#     Edge 9, Type (0, 0), BuildingBlock: XUDNAN_clean_linker_2, # of connection points: 2
#     Edge 10, Type (0, 0), BuildingBlock: XUDNAN_clean_linker_2, # of connection points: 2
#     Edge 11, Type (0, 0), BuildingBlock: XUDNAN_clean_linker_2, # of connection points: 2
#     Edge 12, Type (0, 0), BuildingBlock: XUDNAN_clean_linker_2, # of connection points: 2
#     Edge 13, Type (0, 0), BuildingBlock: XUDNAN_clean_linker_2, # of connection points: 2
#     Edge 14, Type (0, 0), BuildingBlock: XUDNAN_clean_linker_2, # of connection points: 2
#     Edge 15, Type (0, 0), BuildingBlock: XUDNAN_clean_linker_2, # of connection points: 2
#     Edge 16, Type (0, 0), BuildingBlock: XUDNAN_clean_linker_2, # of connection points: 2
#     Edge 17, Type (0, 0), BuildingBlock: XUDNAN_clean_linker_2, # of connection points: 2
#     Edge 18, Type (0, 0), BuildingBlock: XUDNAN_clean_linker_2, # of connection points: 2
#     Edge 19, Type (0, 0), BuildingBlock: XUDNAN_clean_linker_2, # of connection points: 2
#     Edge 20, Type (0, 0), BuildingBlock: XUDNAN_clean_linker_2, # of connection points: 2
#     Edge 21, Type (0, 0), BuildingBlock: XUDNAN_clean_linker_2, # of connection points: 2
#     Edge 22, Type (0, 0), BuildingBlock: XUDNAN_clean_linker_2, # of connection points: 2
#     Edge 23, Type (0, 0), BuildingBlock: XUDNAN_clean_linker_2, # of connection points: 2
#     Edge 24, Type (0, 0), BuildingBlock: XUDNAN_clean_linker_2, # of connection points: 2
#     Edge 25, Type (0, 0), BuildingBlock: XUDNAN_clean_linker_2, # of connection points: 2
#     Edge 26, Type (0, 0), BuildingBlock: XUDNAN_clean_linker_2, # of connection points: 2
#     Edge 27, Type (0, 0), BuildingBlock: XUDNAN_clean_linker_2, # of connection points: 2
# Relax obj value: 0.000
# Max RMSD: 0.000
# Mean RMSD: 0.000
data_MOF--net-fcu--node1-ZALLEG_clean_sbu_0--edge1-XUDNAN_clean_linker_2
_symmetry_space_group_name_H-M    P1
_symmetry_Int_Tables_number       1
_symmetry_cell_setting            triclinic
loop_
_symmetry_equiv_pos_as_xyz
'x, y, z'
_cell_length_a     26.422722
_cell_length_b     26.456996
_cell_length_c     26.420858
_cell_angle_alpha  89.932971
_cell_angle_beta   89.983132
_cell_angle_gamma 89.960816
loop_
_atom_site_label
_atom_site_type_symbol
_atom_site_fract_x
_atom_site_fract_y
_atom_site_fract_z
_atom_type_partial_charge
H0 H 0.94079 0.93632 0.96362 0.0
O1 O 0.96379 0.96023 0.98076 0.0
Tb2 Tb 0.9234 1.01175 0.02605 0.0
Tb3 Tb 0.01558 0.92187 0.0273 0.0
Tb4 Tb 1.00515 1.00114 0.92685 0.0
O5 O 0.97339 0.97121 0.07259 0.0
O6 O 0.96292 0.05275 0.97012 0.0
O7 O 0.97328 0.06215 0.06199 0.0
O8 O 0.06704 0.96982 0.06427 0.0
O9 O 0.05656 0.05132 0.96123 0.0
O10 O 0.05678 0.96073 0.97194 0.0
H11 H 0.95366 0.95219 0.09796 0.0
H12 H 0.9394 0.07234 0.94862 0.0
Tb13 Tb 0.02436 0.0214 0.1073 0.0
Tb14 Tb 1.01457 0.10109 1.00628 0.0
H15 H 0.95389 0.08587 0.08329 0.0
H16 H 0.09023 0.95016 0.0861 0.0
Tb17 Tb 0.10678 1.01081 1.00828 0.0
H18 H 0.07574 0.07038 0.93544 0.0
H19 H 0.0761 0.93684 0.95076 0.0
O20 O 0.06595 0.0624 0.05316 0.0
H21 H 0.08902 0.0865 0.06994 0.0
O22 O 0.88044 0.94054 0.03703 0.0
O23 O 0.1497 0.08171 0.99666 0.0
O24 O 0.15009 0.93938 1.00997 0.0
O25 O 0.88004 0.08316 0.02431 0.0
O26 O 1.01029 0.8706 0.96237 0.0
O27 O 0.02041 0.15218 0.07128 0.0
O28 O 1.00833 0.13732 0.93116 0.0
O29 O 0.01919 0.88612 0.10219 0.0
O30 O 0.92982 0.99698 0.89041 0.0
O31 O 0.09894 0.02753 0.14306 0.0
O32 O 0.95826 0.02679 0.15686 0.0
O33 O 0.07122 0.99565 0.87719 0.0
O34 O 0.94585 0.87855 0.03815 0.0
O35 O 0.08452 0.14401 0.99384 0.0
O36 O 0.94441 0.14492 1.0108 0.0
O37 O 0.08561 0.87784 0.02363 0.0
O38 O 0.8876 0.019 0.10132 0.0
O39 O 0.14208 1.00311 0.93271 0.0
O40 O 0.15718 0.018 0.07466 0.0
O41 O 0.87336 1.00435 0.96032 0.0
O42 O 0.02578 0.95549 0.15923 0.0
O43 O 1.00189 0.06669 0.87598 0.0
O44 O 1.00327 0.92555 0.89138 0.0
O45 O 0.02612 0.0973 0.14251 0.0
C46 C 0.89721 0.8927 0.04085 0.0
C47 C 0.13309 0.12945 0.99154 0.0
C48 C 0.13371 0.8917 0.01556 0.0
C49 C 0.89634 0.1309 0.01884 0.0
C50 C 1.00645 0.87948 0.91254 0.0
C51 C 0.0237 0.14338 0.12116 0.0
C52 C 1.00421 0.1165 0.88504 0.0
C53 C 0.02198 0.90598 0.14875 0.0
C54 C 0.88326 0.99883 0.91086 0.0
C55 C 0.14574 0.02513 0.12364 0.0
C56 C 0.90848 0.0247 0.14734 0.0
C57 C 0.12103 0.99723 0.88673 0.0
H58 H 0.93869 0.45082 0.44915 0.0
O59 O 0.96237 0.47042 0.47034 0.0
Tb60 Tb 0.92386 0.51079 0.52668 0.0
Tb61 Tb 1.01447 0.42249 0.50614 0.0
Tb62 Tb 1.00262 0.52221 0.42587 0.0
O63 O 0.97346 0.46064 0.56278 0.0
O64 O 0.96222 0.56318 0.4805 0.0
O65 O 0.97411 0.55319 0.57148 0.0
O66 O 0.06607 0.46177 0.55169 0.0
O67 O 0.05432 0.56399 0.46907 0.0
O68 O 0.05454 0.47194 0.45916 0.0
H69 H 0.95391 0.4372 0.58437 0.0
H70 H 0.93807 0.58627 0.46376 0.0
Tb71 Tb 0.02509 0.50273 0.60625 0.0
Tb72 Tb 1.01425 0.60406 0.52509 0.0
H73 H 0.95525 0.57261 0.59717 0.0
H74 H 0.0898 0.43812 0.5683 0.0
Tb75 Tb 0.10438 0.51312 0.50462 0.0
H76 H 0.07289 0.58744 0.4467 0.0
H77 H 0.07361 0.45289 0.43331 0.0
O78 O 0.06583 0.55458 0.56087 0.0
H79 H 0.09002 0.57425 0.58145 0.0
O80 O 0.88027 0.43899 0.52391 0.0
O81 O 0.14715 0.58342 0.50429 0.0
O82 O 0.14862 0.44301 0.49313 0.0
O83 O 0.88069 0.58032 0.53868 0.0
O84 O 1.0075 0.38597 0.43117 0.0
O85 O 0.02193 0.63963 0.60053 0.0
O86 O 1.00652 0.65475 0.45884 0.0
O87 O 0.02133 0.37178 0.57139 0.0
O88 O 0.92671 0.52472 0.39103 0.0
O89 O 0.10128 0.49926 0.64061 0.0
O90 O 0.95937 0.50078 0.65844 0.0
O91 O 0.06764 0.52749 0.37441 0.0
O92 O 0.94518 0.37854 0.5089 0.0
O93 O 0.08557 0.64775 0.51861 0.0
O94 O 0.94236 0.6461 0.53702 0.0
O95 O 0.08437 0.38004 0.49328 0.0
O96 O 0.88914 0.50648 0.60202 0.0
O97 O 0.13917 0.51984 0.4287 0.0
O98 O 0.15591 0.50708 0.56931 0.0
O99 O 0.87207 0.51751 0.46227 0.0
O100 O 0.02785 0.42699 0.64216 0.0
O101 O 0.9961 0.59702 0.39029 0.0
O102 O 0.99865 0.45635 0.37566 0.0
O103 O 0.03013 0.56883 0.65585 0.0
C104 C 0.89678 0.39161 0.51561 0.0
C105 C 0.13293 0.63172 0.50916 0.0
C106 C 0.13263 0.39501 0.48941 0.0
C107 C 0.89461 0.62896 0.54152 0.0
C108 C 1.00181 0.4066 0.38502 0.0
C109 C 0.02748 0.61862 0.64658 0.0
C110 C 0.99927 0.64368 0.40979 0.0
C111 C 0.02541 0.38077 0.62116 0.0
C112 C 0.88072 0.52236 0.41251 0.0
C113 C 0.14727 0.50176 0.61903 0.0
C114 C 0.90962 0.50366 0.64835 0.0
C115 C 0.11765 0.52523 0.38292 0.0
H116 H 0.45207 0.94485 0.43879 0.0
O117 O 0.47134 0.96564 0.46311 0.0
Tb118 Tb 0.42287 1.01187 0.50581 0.0
Tb119 Tb 0.51232 0.92083 0.51415 0.0
Tb120 Tb 0.52314 1.01155 0.42444 0.0
O121 O 0.46136 0.96452 0.55616 0.0
O122 O 0.47293 0.05801 0.46541 0.0
O123 O 0.46184 0.05829 0.5576 0.0
O124 O 0.5534 0.96386 0.56629 0.0
O125 O 0.56406 0.0576 0.47482 0.0
O126 O 0.56448 0.96447 0.47345 0.0
H127 H 0.43738 0.94262 0.57462 0.0
H128 H 0.45324 0.07974 0.44235 0.0
Tb129 Tb 0.5028 1.0101 0.60608 0.0
Tb130 Tb 0.51351 0.1034 0.51656 0.0
H131 H 0.43836 0.07969 0.57733 0.0
H132 H 0.57209 0.94176 0.5899 0.0
Tb133 Tb 0.60334 1.0099 0.52566 0.0
H134 H 0.58738 0.07917 0.45514 0.0
H135 H 0.58835 0.94283 0.45449 0.0
O136 O 0.55439 0.05674 0.56703 0.0
H137 H 0.57474 0.0773 0.59063 0.0
O138 O 0.37843 0.94167 0.49945 0.0
O139 O 0.64666 0.07998 0.52944 0.0
O140 O 0.64658 0.93824 0.5307 0.0
O141 O 0.37998 0.08223 0.50177 0.0
O142 O 0.52095 0.8778 0.44422 0.0
O143 O 0.51022 0.14565 0.58887 0.0
O144 O 0.51716 0.14705 0.44485 0.0
O145 O 0.50318 0.87659 0.58347 0.0
O146 O 0.45719 1.01403 0.37309 0.0
O147 O 0.5684 1.00751 0.65693 0.0
O148 O 0.42747 1.00952 0.64191 0.0
O149 O 0.59898 1.0127 0.38923 0.0
O150 O 0.44216 0.87809 0.50415 0.0
O151 O 0.58559 0.14587 0.52086 0.0
O152 O 0.44189 0.1472 0.5094 0.0
O153 O 0.58159 0.87639 0.52353 0.0
O154 O 0.37184 1.00993 0.57109 0.0
O155 O 0.65423 1.01087 0.4604 0.0
O156 O 0.63928 1.0083 0.6013 0.0
O157 O 0.38755 0.01608 0.43061 0.0
O158 O 0.49811 0.93833 0.64889 0.0
O159 O 0.52526 0.08254 0.3822 0.0
O160 O 0.52687 0.94073 0.38001 0.0
O161 O 0.50165 0.07989 0.65011 0.0
C162 C 0.39412 0.89348 0.4992 0.0
C163 C 0.63324 0.12866 0.52536 0.0
C164 C 0.62993 0.89028 0.52988 0.0
C165 C 0.39409 0.13081 0.50295 0.0
C166 C 0.52589 0.89255 0.39599 0.0
C167 C 0.50666 0.12846 0.63664 0.0
C168 C 0.52046 0.13083 0.39671 0.0
C169 C 0.49857 0.89047 0.632 0.0
C170 C 0.40767 0.01671 0.38399 0.0
C171 C 0.6183 1.00683 0.64762 0.0
C172 C 0.38127 1.0087 0.62089 0.0
C173 C 0.64512 1.01248 0.41055 0.0
H174 H 0.45679 0.44222 0.93918 0.0
O175 O 0.47512 0.46386 0.96344 0.0
Tb176 Tb 0.42512 0.51094 1.00331 0.0
Tb177 Tb 0.51479 0.4192 0.0157 0.0
Tb178 Tb 0.52694 0.50982 0.92506 0.0
O179 O 0.46232 0.46405 0.05541 0.0
O180 O 0.47536 0.55698 0.96306 0.0
O181 O 0.46303 0.55821 0.05489 0.0
O182 O 0.5548 0.4644 0.06726 0.0
O183 O 0.56704 0.55771 0.97441 0.0
O184 O 0.56733 0.46349 0.97517 0.0
H185 H 0.43768 0.44292 0.07396 0.0
H186 H 0.45589 0.57764 0.93878 0.0
Tb187 Tb 0.50267 0.51082 0.10508 0.0
Tb188 Tb 0.51515 0.60326 1.01443 0.0
H189 H 0.43918 0.57999 0.0737 0.0
H190 H 0.57321 0.44308 0.09184 0.0
Tb191 Tb 0.60504 0.51078 0.02636 0.0
H192 H 0.59088 0.57947 0.95553 0.0
H193 H 0.5919 0.44227 0.95665 0.0
O194 O 0.5545 0.55711 0.06614 0.0
H195 H 0.57373 0.57821 0.09012 0.0
O196 O 0.38181 0.44078 0.99659 0.0
O197 O 0.64795 0.581 0.0329 0.0
O198 O 0.64779 0.44055 0.03355 0.0
O199 O 0.38229 0.58124 0.99631 0.0
O200 O 0.52515 0.37581 0.94617 0.0
O201 O 0.50938 0.64651 0.08608 0.0
O202 O 0.52069 0.64559 0.94208 0.0
O203 O 0.50424 0.37661 0.08586 0.0
O204 O 0.46242 0.50855 0.87288 0.0
O205 O 0.56733 0.5112 0.15701 0.0
O206 O 0.42665 0.51246 0.13962 0.0
O207 O 0.60233 0.51239 0.89056 0.0
O208 O 0.44366 0.3757 1.00521 0.0
O209 O 0.58666 0.64646 0.02349 0.0
O210 O 0.44378 0.6464 1.00624 0.0
O211 O 0.5857 0.37567 0.02593 0.0
O212 O 0.37255 0.5123 0.06772 0.0
O213 O 0.65813 0.51129 0.96136 0.0
O214 O 0.63924 0.51162 0.10268 0.0
O215 O 0.39063 0.50991 0.92723 0.0
O216 O 0.49722 0.4401 0.14942 0.0
O217 O 0.52941 0.57967 0.88115 0.0
O218 O 0.53281 0.4385 0.88176 0.0
O219 O 0.50003 0.58138 0.14794 0.0
C220 C 0.39604 0.39216 0.99772 0.0
C221 C 0.6341 0.6297 0.03139 0.0
C222 C 0.63335 0.39205 0.03271 0.0
C223 C 0.39633 0.62982 0.99857 0.0
C224 C 0.5315 0.39041 0.89804 0.0
C225 C 0.50486 0.62986 0.13398 0.0
C226 C 0.52483 0.62832 0.89439 0.0
C227 C 0.49817 0.39184 0.13381 0.0
C228 C 0.41239 0.50866 0.88133 0.0
C229 C 0.61736 0.51188 0.14858 0.0
C230 C 0.3808 0.51313 0.11781 0.0
C231 C 0.64848 0.51256 0.91148 0.0
H232 H 0.03192 0.14854 0.22614 0.0
H233 H 1.00964 0.24135 0.0919 0.0
H234 H 0.99976 0.31621 0.14523 0.0
H235 H 0.94261 0.2133 0.30567 0.0
H236 H 0.98067 0.20963 0.36216 0.0
H237 H 0.98666 0.16189 0.31394 0.0
H238 H 0.08295 0.17938 0.30783 0.0
H239 H 0.07731 0.22696 0.35627 0.0
H240 H 0.10473 0.24283 0.29585 0.0
H241 H 0.98955 0.38079 0.21098 0.0
H242 H 0.98559 0.43394 0.28669 0.0
H243 H 0.01674 0.30258 0.38093 0.0
C244 C 0.02527 0.18464 0.20796 0.0
C245 C 0.02141 0.18857 0.15454 0.0
C246 C 1.01277 0.23677 0.1325 0.0
C247 C 1.00693 0.2798 0.16252 0.0
C248 C 1.01027 0.27455 0.21474 0.0
C249 C 0.01978 0.22851 0.23752 0.0
C250 C 0.02217 0.23425 0.29477 0.0
C251 C 0.98055 0.2029 0.32065 0.0
C252 C 0.07493 0.22001 0.31486 0.0
C253 C 1.01222 0.29061 0.30022 0.0
C254 C 1.00525 0.31275 0.25339 0.0
C255 C 0.99523 0.36405 0.24794 0.0
C256 C 0.99303 0.39396 0.29144 0.0
C257 C 1.00103 0.37275 0.34014 0.0
C258 C 1.01034 0.3201 0.34443 0.0
H259 H 0.80447 1.01145 0.15164 0.0
H260 H 0.93605 0.04486 0.24476 0.0
H261 H 0.88247 0.04554 0.32035 0.0
H262 H 0.71601 0.09033 0.22276 0.0
H263 H 0.66405 0.04673 0.21609 0.0
H264 H 0.71235 0.04988 0.16802 0.0
H265 H 0.7286 0.95381 0.1781 0.0
H266 H 0.68058 0.95041 0.22639 0.0
H267 H 0.74386 0.92863 0.23967 0.0
H268 H 0.81765 0.03846 0.3862 0.0
H269 H 0.74262 0.02934 0.43973 0.0
H270 H 0.65012 1.00348 0.30607 0.0
C271 C 0.82193 0.01933 0.18785 0.0
C272 C 0.87469 0.02782 0.19198 0.0
C273 C 0.89593 0.03786 0.24025 0.0
C274 C 0.8658 0.03841 0.28364 0.0
C275 C 0.81433 0.02915 0.27837 0.0
C276 C 0.79225 0.02022 0.23188 0.0
C277 C 0.73576 1.01114 0.2375 0.0
C278 C 0.70525 0.05196 0.20943 0.0
C279 C 0.72137 0.95783 0.21934 0.0
C280 C 0.72996 0.01605 0.29446 0.0
C281 C 0.77598 0.02623 0.317 0.0
C282 C 0.78122 0.03099 0.36908 0.0
C283 C 0.73814 0.02565 0.3992 0.0
C284 C 0.69009 0.01614 0.37726 0.0
C285 C 0.68612 1.01118 0.32404 0.0
H286 H 0.07509 0.88246 0.23742 0.0
H287 H 0.93789 0.85112 0.1534 0.0
H288 H 0.91464 0.78508 0.21474 0.0
H289 H 0.10387 0.75618 0.26992 0.0
H290 H 0.12569 0.76894 0.33327 0.0
H291 H 0.13029 0.81709 0.28528 0.0
H292 H 0.07922 0.87861 0.34186 0.0
H293 H 0.07465 0.83054 0.39008 0.0
H294 H 0.01807 0.85969 0.36549 0.0
H295 H 0.91021 0.7172 0.27768 0.0
H296 H 0.92231 0.65241 0.34377 0.0
H297 H 0.05934 0.72769 0.39329 0.0
C298 C 0.03985 0.86213 0.23276 0.0
C299 C 1.00852 0.87095 0.19019 0.0
C300 C 0.96284 0.8437 0.185 0.0
C301 C 0.94908 0.80655 0.21995 0.0
C302 C 0.98115 0.7974 0.26063 0.0
C303 C 0.0253 0.82458 0.26787 0.0
C304 C 0.05349 0.80499 0.31422 0.0
C305 C 0.10647 0.78565 0.29978 0.0
C306 C 0.05653 0.8459 0.35535 0.0
C307 C 0.01901 0.76181 0.33051 0.0
C308 C 0.97746 0.75854 0.29894 0.0
C309 C 0.94199 0.71987 0.30336 0.0
C310 C 0.94921 0.68319 0.34084 0.0
C311 C 0.99119 0.68564 0.37387 0.0
C312 C 0.02626 0.72583 0.36917 0.0
H313 H 0.38857 0.96407 0.29515 0.0
H314 H 0.34774 0.0978 0.3804 0.0
H315 H 0.28125 0.11794 0.31826 0.0
H316 H 0.36314 0.02 0.16702 0.0
H317 H 0.33762 0.96184 0.14239 0.0
H318 H 0.38586 0.96017 0.19063 0.0
H319 H 0.32769 0.90537 0.24709 0.0
H320 H 0.27929 0.90698 0.1992 0.0
H321 H 0.26512 0.92782 0.26259 0.0
H322 H 0.21401 0.11875 0.2548 0.0
H323 H 0.14986 0.10245 0.18919 0.0
H324 H 0.23351 0.97029 0.13972 0.0
C325 C 0.36613 0.99801 0.29983 0.0
C326 C 0.3724 0.02924 0.34276 0.0
C327 C 0.34238 0.07306 0.34828 0.0
C328 C 0.30499 0.08503 0.31293 0.0
C329 C 0.29838 0.05293 0.27181 0.0
C330 C 0.32822 1.01056 0.26452 0.0
C331 C 0.31061 0.98123 0.21825 0.0
C332 C 0.35177 0.98081 0.17713 0.0
C333 C 0.29472 0.92716 0.23268 0.0
C334 C 0.26531 1.0129 0.20204 0.0
C335 C 0.25949 0.05423 0.2335 0.0
C336 C 0.2186 0.08715 0.22923 0.0
C337 C 0.18229 0.07749 0.19207 0.0
C338 C 0.18722 0.03556 0.15932 0.0
C339 C 0.22965 1.00322 0.16374 0.0
H340 H 1.00064 0.87554 0.80752 0.0
H341 H 0.01863 0.78104 0.94122 0.0
H342 H 0.02852 0.70656 0.88724 0.0
H343 H 0.92785 0.78407 0.73529 0.0
H344 H 0.95693 0.80004 0.67567 0.0
H345 H 0.95141 0.84712 0.72458 0.0
H346 H 0.04822 0.86231 0.72072 0.0
H347 H 0.05405 0.81503 0.67201 0.0
H348 H 0.09081 0.80973 0.72923 0.0
H349 H 0.03857 0.64255 0.82093 0.0
H350 H 0.04217 0.59009 0.74482 0.0
H351 H 0.01537 0.72303 0.65142 0.0
C352 C 1.00634 0.83916 0.82546 0.0
C353 C 1.00893 0.83456 0.87889 0.0
C354 C 0.01648 0.78606 0.9006 0.0
C355 C 0.02231 0.74327 0.87021 0.0
C356 C 0.02018 0.74917 0.81799 0.0
C357 C 1.01189 0.7956 0.79554 0.0
C358 C 1.01054 0.79061 0.7382 0.0
C359 C 0.95859 0.80639 0.71721 0.0
C360 C 0.05346 0.82124 0.7136 0.0
C361 C 0.01928 0.7341 0.7323 0.0
C362 C 0.0251 0.71134 0.77899 0.0
C363 C 0.03381 0.65979 0.78407 0.0
C364 C 0.0358 0.63028 0.74031 0.0
C365 C 0.02881 0.65212 0.69171 0.0
C366 C 0.02093 0.70502 0.68782 0.0
H367 H 0.22353 0.01777 0.88009 0.0
H368 H 0.09464 0.96571 0.79211 0.0
H369 H 0.14793 0.96182 0.71622 0.0
H370 H 0.2764 0.09668 0.78485 0.0
H371 H 0.34138 0.08161 0.79916 0.0
H372 H 0.29408 0.07824 0.84814 0.0
H373 H 0.31861 0.9851 0.86611 0.0
H374 H 0.36622 0.98825 0.81736 0.0
H375 H 0.31819 0.93996 0.81505 0.0
H376 H 0.21237 0.96713 0.64913 0.0
H377 H 0.28646 0.97831 0.59418 0.0
H378 H 0.37561 0.02585 0.72396 0.0
C379 C 0.20668 1.00505 0.845 0.0
C380 C 0.15472 0.99237 0.84222 0.0
C381 C 0.13413 0.97616 0.79538 0.0
C382 C 0.16413 0.97362 0.75192 0.0
C383 C 0.21478 0.98719 0.75572 0.0
C384 C 0.23618 1.00225 0.80095 0.0
C385 C 0.2916 0.01565 0.7939 0.0
C386 C 0.30142 0.07136 0.8073 0.0
C387 C 0.32566 0.98011 0.82495 0.0
C388 C 0.29753 1.00636 0.73754 0.0
C389 C 0.25263 0.98991 0.7165 0.0
C390 C 0.24786 0.97984 0.66508 0.0
C391 C 0.29021 0.98664 0.63413 0.0
C392 C 0.33692 1.00322 0.65463 0.0
C393 C 0.34053 1.01301 0.70716 0.0
H394 H 0.03054 0.37582 0.72653 0.0
H395 H 0.01643 0.2823 0.59188 0.0
H396 H 1.00825 0.20706 0.64503 0.0
H397 H 0.10469 0.28424 0.79932 0.0
H398 H 0.07436 0.29894 0.8586 0.0
H399 H 0.07994 0.34678 0.81031 0.0
H400 H 0.98286 0.36054 0.81265 0.0
H401 H 0.97693 0.31255 0.86073 0.0
H402 H 0.94125 0.30749 0.80282 0.0
H403 H 0.99849 0.142 0.71048 0.0
H404 H 0.99342 0.08865 0.78614 0.0
H405 H 0.01571 0.221 0.88114 0.0
C406 C 0.02613 0.33949 0.70823 0.0
C407 C 0.02409 0.3355 0.65471 0.0
C408 C 0.01817 0.28699 0.63255 0.0
C409 C 1.01334 0.24369 0.66247 0.0
C410 C 1.01479 0.24898 0.71474 0.0
C411 C 0.02154 0.29536 0.73771 0.0
C412 C 0.02196 0.28962 0.79504 0.0
C413 C 0.07329 0.30586 0.81711 0.0
C414 C 0.97814 0.31931 0.81922 0.0
C415 C 1.01408 0.23288 0.80028 0.0
C416 C 1.00986 0.21054 0.75328 0.0
C417 C 1.00203 0.1589 0.74759 0.0
C418 C 0.99914 0.12887 0.79106 0.0
C419 C 1.00428 0.15031 0.83999 0.0
C420 C 1.01151 0.20327 0.84446 0.0
H421 H 0.72278 0.01804 0.65266 0.0
H422 H 0.59037 0.98463 0.74459 0.0
H423 H 0.64442 0.97611 0.81952 0.0
H424 H 0.80857 0.93153 0.71729 0.0
H425 H 0.8622 0.97342 0.71346 0.0
H426 H 0.81361 0.97585 0.66566 0.0
H427 H 0.80093 0.0714 0.68287 0.0
H428 H 0.84954 0.06928 0.73062 0.0
H429 H 0.78731 0.09243 0.74632 0.0
H430 H 0.71082 0.97244 0.88494 0.0
H431 H 0.78661 0.97584 0.93846 0.0
H432 H 0.87827 1.01196 0.80663 0.0
C433 C 0.70519 1.0088 0.68851 0.0
C434 C 0.65207 1.00224 0.69242 0.0
C435 C 0.63073 0.99032 0.74026 0.0
C436 C 0.66118 0.98512 0.78324 0.0
C437 C 0.71311 0.99198 0.77815 0.0
C438 C 0.73516 1.00365 0.7322 0.0
C439 C 0.79207 1.01009 0.738 0.0
C440 C 0.8208 0.97035 0.70674 0.0
C441 C 0.80841 0.06401 0.7236 0.0
C442 C 0.7982 1.00064 0.79445 0.0
C443 C 0.75203 0.99002 0.81655 0.0
C444 C 0.74725 0.98075 0.86815 0.0
C445 C 0.79068 0.98297 0.89829 0.0
C446 C 0.83861 0.99444 0.87697 0.0
C447 C 0.84234 1.00284 0.8241 0.0
H448 H 0.38693 0.2925 0.03056 0.0
H449 H 0.31289 0.40817 0.94014 0.0
H450 H 0.24165 0.35091 0.92446 0.0
H451 H 0.34351 0.18328 0.95413 0.0
H452 H 0.33371 0.14342 1.00863 0.0
H453 H 0.38174 0.19177 1.00999 0.0
H454 H 0.3413 0.22963 0.0908 0.0
H455 H 0.29316 0.18149 0.08963 0.0
H456 H 0.27537 0.24727 0.09013 0.0
H457 H 0.17585 0.28554 0.92291 0.0
H458 H 0.11799 0.21385 0.93547 0.0
H459 H 0.23189 0.13736 0.02601 0.0
C460 C 0.35604 0.3053 1.00686 0.0
C461 C 0.35549 0.35498 0.9868 0.0
C462 C 0.31405 0.3706 0.95647 0.0
C463 C 0.27341 0.3382 0.947 0.0
C464 C 0.27448 0.29002 0.96801 0.0
C465 C 0.31456 0.27328 0.9972 0.0
C466 C 0.30425 0.22028 0.01715 0.0
C467 C 0.34312 0.18245 0.99622 0.0
C468 C 0.30347 0.21965 0.07538 0.0
C469 C 0.25184 0.21059 0.99534 0.0
C470 C 0.23582 0.25142 0.96687 0.0
C471 C 0.18806 0.2531 0.94473 0.0
C472 C 0.15536 0.21225 0.95228 0.0
C473 C 0.17043 0.17 0.9816 0.0
C474 C 0.21968 0.16885 1.0028 0.0
H475 H 0.39073 0.7294 0.03165 0.0
H476 H 0.30839 0.61395 0.9486 0.0
H477 H 0.23543 0.67059 0.94142 0.0
H478 H 0.28692 0.77414 0.10311 0.0
H479 H 0.30362 0.84014 0.10026 0.0
H480 H 0.35222 0.79258 0.09606 0.0
H481 H 0.38259 0.83039 1.01087 0.0
H482 H 0.33424 0.87833 1.01502 0.0
H483 H 0.338 0.83847 0.95985 0.0
H484 H 0.16927 0.73383 0.94903 0.0
H485 H 0.1127 0.80523 0.96664 0.0
H486 H 0.23518 0.88425 0.04232 0.0
C487 C 0.35764 0.71656 1.01122 0.0
C488 C 0.35521 0.66703 0.99105 0.0
C489 C 0.31105 0.65137 0.96499 0.0
C490 C 0.26936 0.68337 0.96044 0.0
C491 C 0.27228 0.73121 0.9818 0.0
C492 C 0.3152 0.7483 1.00625 0.0
C493 C 0.30677 0.80123 0.02715 0.0
C494 C 0.31273 0.80204 0.08508 0.0
C495 C 0.34253 0.83936 1.00169 0.0
C496 C 0.2521 0.81028 1.01154 0.0
C497 C 0.23338 0.76914 0.98536 0.0
C498 C 0.18348 0.76656 0.969 0.0
C499 C 0.15154 0.80716 0.97958 0.0
C500 C 0.16953 0.85006 1.00598 0.0
C501 C 0.22068 0.85198 0.02173 0.0
H502 H 0.63933 0.29246 1.00018 0.0
H503 H 0.7202 0.40806 0.08437 0.0
H504 H 0.79313 0.35146 0.09285 0.0
H505 H 0.69124 0.18318 0.0726 0.0
H506 H 0.69585 0.1436 0.01731 0.0
H507 H 0.64732 0.19138 0.02103 0.0
H508 H 0.67871 0.22974 0.93646 0.0
H509 H 0.72754 0.18237 0.93265 0.0
H510 H 0.74404 0.24844 0.93041 0.0
H511 H 0.85965 0.28833 0.08589 0.0
H512 H 0.91667 0.21718 0.06843 0.0
H513 H 0.79521 0.13814 0.99124 0.0
C514 C 0.67205 0.30529 0.02121 0.0
C515 C 0.67417 0.35483 0.04128 0.0
C516 C 0.71786 0.37057 0.06806 0.0
C517 C 0.7595 0.33861 0.07336 0.0
C518 C 0.75694 0.29074 0.05201 0.0
C519 C 0.71441 0.2736 0.02692 0.0
C520 C 0.72326 0.22083 1.00592 0.0
C521 C 0.68727 0.18247 0.03071 0.0
C522 C 0.71808 0.22034 0.94792 0.0
C523 C 0.77773 0.21187 0.02222 0.0
C524 C 0.79601 0.25294 0.04881 0.0
C525 C 0.84575 0.25562 0.06565 0.0
C526 C 0.87795 0.21519 0.05517 0.0
C527 C 0.86035 0.17237 0.02839 0.0
C528 C 0.80938 0.17034 1.01215 0.0
H529 H 0.79491 0.88871 1.01522 0.0
H530 H 0.91683 0.80127 0.08276 0.0
H531 H 0.85973 0.72956 0.09385 0.0
H532 H 0.69016 0.83376 0.09174 0.0
H533 H 0.64681 0.83159 0.03913 0.0
H534 H 0.69501 0.87974 0.04157 0.0
H535 H 0.72763 0.85196 0.95348 0.0
H536 H 0.67965 0.80371 0.95078 0.0
H537 H 0.74537 0.78692 0.94344 0.0
H538 H 0.79401 0.66599 0.09424 0.0
H539 H 0.72217 0.60988 0.07985 0.0
H540 H 0.63974 0.73266 1.00746 0.0
C541 C 0.8091 0.85478 0.03329 0.0
C542 C 0.86028 0.85125 0.04914 0.0
C543 C 0.87779 0.80559 0.07113 0.0
C544 C 0.84558 0.76439 0.07764 0.0
C545 C 0.79582 0.76873 0.06128 0.0
C546 C 0.77737 0.81237 0.03923 0.0
C547 C 0.72307 0.80451 0.02141 0.0
C548 C 0.6866 0.83949 0.05018 0.0
C549 C 0.7187 0.81223 0.96386 0.0
C550 C 0.71477 0.7494 0.03601 0.0
C551 C 0.7573 0.73025 0.05964 0.0
C552 C 0.76039 0.6804 0.0758 0.0
C553 C 0.71924 0.64869 0.06703 0.0
C554 C 0.67525 0.66647 0.04187 0.0
C555 C 0.6727 0.71792 0.02685 0.0
H556 H 0.73323 0.45334 0.89208 0.0
H557 H 0.65689 0.59221 0.84975 0.0
H558 H 0.72092 0.60773 0.78374 0.0
H559 H 0.86523 0.49736 0.86522 0.0
H560 H 0.88444 0.43743 0.83909 0.0
H561 H 0.8366 0.43972 0.88772 0.0
H562 H 0.77506 0.3907 0.82948 0.0
H563 H 0.82264 0.38847 0.78074 0.0
H564 H 0.76126 0.41506 0.76722 0.0
H565 H 0.78693 0.60602 0.71907 0.0
H566 H 0.85229 0.58609 0.6558 0.0
H567 H 0.88786 0.44693 0.73496 0.0
C568 C 0.73106 0.48751 0.86959 0.0
C569 C 0.69069 0.52211 0.87621 0.0
C570 C 0.68784 0.56565 0.84533 0.0
C571 C 0.72406 0.57482 0.80789 0.0
C572 C 0.7629 0.53983 0.80144 0.0
C573 C 0.76691 0.49697 0.83117 0.0
C574 C 0.81041 0.46379 0.81286 0.0
C575 C 0.85162 0.45932 0.85366 0.0
C576 C 0.79117 0.41141 0.7966 0.0
C577 C 0.82913 0.49424 0.76762 0.0
C578 C 0.80127 0.53824 0.7625 0.0
C579 C 0.80922 0.57189 0.72282 0.0
C580 C 0.84611 0.56009 0.68687 0.0
C581 C 0.87459 0.51499 0.69037 0.0
C582 C 0.86677 0.4819 0.73179 0.0
H583 H 0.15232 0.50568 0.72385 0.0
H584 H 0.24559 0.49148 0.58892 0.0
H585 H 0.3219 0.49061 0.64167 0.0
H586 H 0.23483 0.5882 0.7914 0.0
H587 H 0.22406 0.55967 0.85244 0.0
H588 H 0.17551 0.55725 0.80466 0.0
H589 H 0.17285 0.45959 0.81193 0.0
H590 H 0.22128 0.46169 0.8599 0.0
H591 H 0.23039 0.42381 0.80399 0.0
H592 H 0.38833 0.49436 0.70703 0.0
H593 H 0.44195 0.5 0.78255 0.0
H594 H 0.30758 0.51099 0.87711 0.0
C595 C 0.18874 0.50197 0.70542 0.0
C596 C 0.19266 0.49892 0.65202 0.0
C597 C 0.24123 0.4943 0.62957 0.0
C598 C 0.28502 0.49362 0.65924 0.0
C599 C 0.27991 0.49741 0.71146 0.0
C600 C 0.23317 0.50119 0.7346 0.0
C601 C 0.2389 0.50538 0.79166 0.0
C602 C 0.21703 0.55561 0.81117 0.0
C603 C 0.2144 0.45991 0.81844 0.0
C604 C 0.29615 0.50407 0.79661 0.0
C605 C 0.31882 0.4993 0.74977 0.0
C606 C 0.37111 0.49789 0.74403 0.0
C607 C 0.40127 0.50127 0.78736 0.0
C608 C 0.37921 0.50599 0.8361 0.0
C609 C 0.32577 0.50737 0.84056 0.0
H610 H 0.22212 0.51487 0.37768 0.0
H611 H 0.08865 0.54027 0.28473 0.0
H612 H 0.14166 0.54027 0.20856 0.0
H613 H 0.30725 0.59379 0.30322 0.0
H614 H 0.36071 0.55215 0.311 0.0
H615 H 0.31258 0.55521 0.35924 0.0
H616 H 0.29956 0.4584 0.35244 0.0
H617 H 0.34744 0.45509 0.30401 0.0
H618 H 0.2849 0.43085 0.29182 0.0
H619 H 0.20718 0.53517 0.14202 0.0
H620 H 0.2827 0.52792 0.08842 0.0
H621 H 0.3757 0.5064 0.22253 0.0
C622 C 0.20405 0.52078 0.34138 0.0
C623 C 0.15095 0.52749 0.33758 0.0
C624 C 0.12904 0.53492 0.2891 0.0
C625 C 0.15887 0.535 0.24535 0.0
C626 C 0.21075 0.52774 0.25036 0.0
C627 C 0.23339 0.521 0.297 0.0
C628 C 0.29014 0.51359 0.29121 0.0
C629 C 0.31939 0.55623 0.31774 0.0
C630 C 0.30645 0.46137 0.31105 0.0
C631 C 0.29555 0.51694 0.23404 0.0
C632 C 0.24913 0.52508 0.21145 0.0
C633 C 0.24383 0.52893 0.1592 0.0
C634 C 0.28715 0.52458 0.12903 0.0
C635 C 0.33547 0.51651 0.151 0.0
C636 C 0.33949 0.51266 0.20439 0.0
H637 H 0.72224 0.51165 0.15328 0.0
H638 H 0.58719 0.51753 0.24735 0.0
H639 H 0.64021 0.52316 0.32319 0.0
H640 H 0.79596 0.43461 0.23856 0.0
H641 H 0.85468 0.46684 0.22585 0.0
H642 H 0.80632 0.46408 0.17789 0.0
H643 H 0.80687 0.56186 0.17134 0.0
H644 H 0.85515 0.5649 0.2194 0.0
H645 H 0.79673 0.59916 0.22749 0.0
H646 H 0.70597 0.52789 0.38893 0.0
H647 H 0.78193 0.529 0.44216 0.0
H648 H 0.87641 0.5193 0.30765 0.0
C649 C 0.70379 0.51412 0.18979 0.0
C650 C 0.65033 0.51422 0.19399 0.0
C651 C 0.62791 0.51739 0.24269 0.0
C652 C 0.65772 0.5207 0.28624 0.0
C653 C 0.71003 0.52069 0.28078 0.0
C654 C 0.73309 0.5173 0.23399 0.0
C655 C 0.79034 0.51733 0.23935 0.0
C656 C 0.81316 0.46777 0.21922 0.0
C657 C 0.81364 0.56356 0.21282 0.0
C658 C 0.79556 0.52108 0.29648 0.0
C659 C 0.7486 0.52315 0.31935 0.0
C660 C 0.74303 0.52627 0.37157 0.0
C661 C 0.78663 0.52681 0.40151 0.0
C662 C 0.83545 0.52411 0.37931 0.0
C663 C 0.83979 0.5216 0.3259 0.0
H664 H 0.29618 0.8866 0.5352 0.0
H665 H 0.40839 0.80995 0.44287 0.0
H666 H 0.34982 0.73892 0.43039 0.0
H667 H 0.25428 0.77798 0.59957 0.0
H668 H 0.18827 0.79512 0.60175 0.0
H669 H 0.23593 0.84364 0.59888 0.0
H670 H 0.19378 0.881 0.51866 0.0
H671 H 0.14574 0.8327 0.52144 0.0
H672 H 0.18271 0.84086 0.46468 0.0
H673 H 0.28458 0.67466 0.43229 0.0
H674 H 0.21461 0.61683 0.4496 0.0
H675 H 0.1418 0.73109 0.54285 0.0
C676 C 0.30772 0.85521 0.51157 0.0
C677 C 0.35662 0.85356 0.48982 0.0
C678 C 0.37115 0.81165 0.46 0.0
C679 C 0.33807 0.77132 0.45243 0.0
C680 C 0.29061 0.77337 0.47509 0.0
C681 C 0.27513 0.81397 0.50408 0.0
C682 C 0.22328 0.8041 0.5271 0.0
C683 C 0.22561 0.80527 0.58527 0.0
C684 C 0.18406 0.84192 0.50674 0.0
C685 C 0.21303 0.75107 0.50755 0.0
C686 C 0.25233 0.73481 0.47709 0.0
C687 C 0.2534 0.68689 0.45587 0.0
C688 C 0.21351 0.65416 0.4664 0.0
C689 C 0.17293 0.66916 0.49817 0.0
C690 C 0.17223 0.71868 0.51837 0.0
H691 H 0.23419 0.39064 0.51702 0.0
H692 H 0.11502 0.30695 0.44087 0.0
H693 H 0.17161 0.23406 0.4322 0.0
H694 H 0.34095 0.33538 0.44134 0.0
H695 H 0.38301 0.33289 0.49498 0.0
H696 H 0.33522 0.38145 0.49123 0.0
H697 H 0.30058 0.35398 0.57867 0.0
H698 H 0.3479 0.30512 0.58255 0.0
H699 H 0.28184 0.28917 0.58841 0.0
H700 H 0.23415 0.16783 0.44028 0.0
H701 H 0.30409 0.11063 0.4584 0.0
H702 H 0.38905 0.23414 0.52593 0.0
C703 C 0.22061 0.35731 0.49755 0.0
C704 C 0.17001 0.35441 0.47987 0.0
C705 C 0.15331 0.30994 0.45524 0.0
C706 C 0.18527 0.26831 0.44988 0.0
C707 C 0.23415 0.2716 0.46902 0.0
C708 C 0.25234 0.31488 0.49182 0.0
C709 C 0.30614 0.3065 0.51094 0.0
C710 C 0.34355 0.34112 0.48295 0.0
C711 C 0.30927 0.31414 0.56856 0.0
C712 C 0.31431 0.25132 0.49666 0.0
C713 C 0.27202 0.23253 0.47238 0.0
C714 C 0.26797 0.18221 0.4583 0.0
C715 C 0.30821 0.14991 0.46902 0.0
C716 C 0.35281 0.16775 0.493 0.0
C717 C 0.35596 0.21946 0.5068 0.0
H718 H 0.89058 0.73203 0.51948 0.0
H719 H 0.80257 0.60781 0.58168 0.0
H720 H 0.72942 0.6636 0.59075 0.0
H721 H 0.83123 0.83334 0.5979 0.0
H722 H 0.83102 0.87854 0.54681 0.0
H723 H 0.87958 0.83071 0.54982 0.0
H724 H 0.85611 0.80134 0.45935 0.0
H725 H 0.80738 0.84884 0.45616 0.0
H726 H 0.79174 0.78338 0.4457 0.0
H727 H 0.66388 0.72781 0.58709 0.0
H728 H 0.6076 0.79981 0.57189 0.0
H729 H 0.73378 0.88617 0.51133 0.0
C730 C 0.85621 0.71701 0.53598 0.0
C731 C 0.85275 0.66542 0.55024 0.0
C732 C 0.80665 0.64702 0.57065 0.0
C733 C 0.76464 0.67849 0.57609 0.0
C734 C 0.76883 0.72856 0.56084 0.0
C735 C 0.81322 0.74812 0.54135 0.0
C736 C 0.80557 0.80288 0.52515 0.0
C737 C 0.83883 0.83848 0.55682 0.0
C738 C 0.81581 0.80947 0.46821 0.0
C739 C 0.74972 0.81014 0.53744 0.0
C740 C 0.72982 0.76662 0.5584 0.0
C741 C 0.67897 0.76232 0.57108 0.0
C742 C 0.6472 0.80346 0.56189 0.0
C743 C 0.6661 0.84865 0.54013 0.0
C744 C 0.71833 0.85227 0.52835 0.0
H745 H 0.63766 0.23191 0.54785 0.0
H746 H 0.72551 0.10603 0.48876 0.0
H747 H 0.7983 0.1613 0.47723 0.0
H748 H 0.69329 0.3289 0.46485 0.0
H749 H 0.69525 0.37698 0.51308 0.0
H750 H 0.64722 0.32865 0.51519 0.0
H751 H 0.67508 0.30442 0.60595 0.0
H752 H 0.72314 0.35267 0.60421 0.0
H753 H 0.74029 0.2881 0.61775 0.0
H754 H 0.86126 0.22577 0.47227 0.0
H755 H 0.91667 0.29872 0.47761 0.0
H756 H 0.79409 0.38786 0.54244 0.0
C757 C 0.67223 0.21633 0.53232 0.0
C758 C 0.67584 0.1644 0.51956 0.0
C759 C 0.72176 0.1453 0.49951 0.0
C760 C 0.76344 0.17652 0.4924 0.0
C761 C 0.75904 0.22703 0.50566 0.0
C762 C 0.71509 0.24723 0.52542 0.0
C763 C 0.72264 0.30294 0.53802 0.0
C764 C 0.6875 0.33634 0.50586 0.0
C765 C 0.71483 0.31258 0.59487 0.0
C766 C 0.77783 0.31003 0.52282 0.0
C767 C 0.79723 0.26548 0.50376 0.0
C768 C 0.84679 0.26098 0.48727 0.0
C769 C 0.8781 0.30298 0.49082 0.0
C770 C 0.86021 0.34933 0.51116 0.0
C771 C 0.80898 0.35307 0.52684 0.0
H772 H 0.50288 0.38715 0.7971 0.0
H773 H 0.57528 0.30003 0.91634 0.0
H774 H 0.57966 0.22638 0.86021 0.0
H775 H 0.42575 0.2891 0.75103 0.0
H776 H 0.43171 0.30464 0.68485 0.0
H777 H 0.43832 0.35334 0.73195 0.0
H778 H 0.52665 0.37651 0.69641 0.0
H779 H 0.52009 0.32819 0.6488 0.0
H780 H 0.57424 0.32802 0.69028 0.0
H781 H 0.56946 0.16071 0.79711 0.0
H782 H 0.55047 0.10505 0.72579 0.0
H783 H 0.48577 0.23163 0.64294 0.0
C784 C 0.52061 0.35283 0.81077 0.0
C785 C 0.53856 0.34917 0.86114 0.0
C786 C 0.56083 0.30351 0.87812 0.0
C787 C 0.5637 0.26148 0.84646 0.0
C788 C 0.54432 0.26561 0.79773 0.0
C789 C 0.52368 0.31001 0.77943 0.0
C790 C 0.5037 0.30263 0.72591 0.0
C791 C 0.44647 0.31304 0.72331 0.0
C792 C 0.53293 0.33581 0.68811 0.0
C793 C 0.51528 0.24688 0.71789 0.0
C794 C 0.53884 0.22677 0.76005 0.0
C795 C 0.55145 0.17596 0.76362 0.0
C796 C 0.53995 0.14454 0.72294 0.0
C797 C 0.51616 0.16384 0.67886 0.0
C798 C 0.50406 0.21592 0.67608 0.0
H799 H 0.52637 0.88755 0.73337 0.0
H800 H 0.4589 0.79843 0.61289 0.0
H801 H 0.45651 0.72452 0.66874 0.0
H802 H 0.606 0.79116 0.78122 0.0
H803 H 0.5981 0.80652 0.84721 0.0
H804 H 0.59126 0.85505 0.79982 0.0
H805 H 0.50159 0.87595 0.83331 0.0
H806 H 0.50829 0.82776 0.88115 0.0
H807 H 0.45517 0.82629 0.83839 0.0
H808 H 0.46679 0.65938 0.73194 0.0
H809 H 0.48449 0.60425 0.80389 0.0
H810 H 0.54429 0.73201 0.88834 0.0
C811 C 0.51022 0.85268 0.7193 0.0
C812 C 0.49302 0.84868 0.66866 0.0
C813 C 0.47278 0.80231 0.65128 0.0
C814 C 0.47104 0.76006 0.68277 0.0
C815 C 0.48947 0.76466 0.73178 0.0
C816 C 0.50824 0.80961 0.7505 0.0
C817 C 0.52716 0.80268 0.80451 0.0
C818 C 0.58401 0.81456 0.80839 0.0
C819 C 0.49619 0.8351 0.84153 0.0
C820 C 0.51691 0.74662 0.81238 0.0
C821 C 0.49509 0.72598 0.76962 0.0
C822 C 0.48355 0.67499 0.76586 0.0
C823 C 0.49431 0.64387 0.80699 0.0
C824 C 0.51634 0.6636 0.85175 0.0
C825 C 0.52743 0.71591 0.85467 0.0
H826 H 0.48128 0.73279 0.14017 0.0
H827 H 0.54899 0.6078 0.22302 0.0
H828 H 0.56609 0.66362 0.29453 0.0
H829 H 0.5671 0.83112 0.188 0.0
H830 H 0.51838 0.87847 0.19392 0.0
H831 H 0.513 0.82987 0.14646 0.0
H832 H 0.42536 0.80435 0.18216 0.0
H833 H 0.4304 0.85304 0.22948 0.0
H834 H 0.41948 0.78844 0.24828 0.0
H835 H 0.57461 0.72893 0.35759 0.0
H836 H 0.56998 0.80242 0.4137 0.0
H837 H 0.49575 0.88893 0.29506 0.0
C838 C 0.49982 0.7175 0.17337 0.0
C839 C 0.51331 0.66571 0.17608 0.0
C840 C 0.53742 0.64698 0.22021 0.0
C841 C 0.54781 0.67852 0.26104 0.0
C842 C 0.53379 0.72896 0.25761 0.0
C843 C 0.51003 0.74868 0.21538 0.0
C844 C 0.49718 0.80421 0.22369 0.0
C845 C 0.52562 0.83791 0.18575 0.0
C846 C 0.43969 0.81301 0.22074 0.0
C847 C 0.51692 0.81183 0.27731 0.0
C848 C 0.53832 0.76774 0.29544 0.0
C849 C 0.55806 0.76381 0.344 0.0
C850 C 0.55505 0.8058 0.37565 0.0
C851 C 0.53232 0.85131 0.35888 0.0
C852 C 0.51378 0.85474 0.30865 0.0
H853 H 0.54489 0.23323 0.3892 0.0
H854 H 0.47061 0.10959 0.31057 0.0
H855 H 0.45123 0.16564 0.23951 0.0
H856 H 0.45868 0.33385 0.34376 0.0
H857 H 0.5085 0.37969 0.33583 0.0
H858 H 0.51397 0.33131 0.38364 0.0
H859 H 0.59973 0.30299 0.34555 0.0
H860 H 0.59461 0.35135 0.29781 0.0
H861 H 0.60312 0.28629 0.27949 0.0
H862 H 0.44349 0.23068 0.17523 0.0
H863 H 0.45033 0.30329 0.11769 0.0
H864 H 0.52943 0.3882 0.23391 0.0
C865 C 0.5243 0.21833 0.35709 0.0
C866 C 0.50989 0.16684 0.35522 0.0
C867 C 0.48304 0.14856 0.31255 0.0
C868 C 0.47129 0.18023 0.27207 0.0
C869 C 0.48656 0.23035 0.27449 0.0
C870 C 0.51258 0.24963 0.31555 0.0
C871 C 0.5267 0.30461 0.30626 0.0
C872 C 0.50038 0.33942 0.34466 0.0
C873 C 0.58447 0.31171 0.30733 0.0
C874 C 0.50553 0.31236 0.25324 0.0
C875 C 0.48205 0.26893 0.23629 0.0
C876 C 0.46145 0.26512 0.18803 0.0
C877 C 0.46575 0.3065 0.15556 0.0
C878 C 0.49045 0.35124 0.17134 0.0
C879 C 0.50978 0.35463 0.2212 0.0
loop_
_geom_bond_atom_site_label_1
_geom_bond_atom_site_label_2
_geom_bond_distance
_geom_bond_site_symmetry_2
_ccdc_geom_bond_type
H0 O1 0.850 . S
O1 H0 0.850 . S
O1 Tb2 2.341 1_566 S
O1 Tb3 2.341 1_656 S
O1 Tb4 2.341 1_665 S
Tb2 O1 2.341 1_544 S
Tb2 O5 2.341 1_545 S
Tb2 O6 2.341 1_554 S
Tb2 O7 2.341 . S
Tb2 O22 2.344 1_545 S
Tb2 O25 2.344 . S
Tb2 O38 2.344 . S
Tb2 O41 2.344 1_554 S
Tb3 O1 2.341 1_454 S
Tb3 O5 2.341 1_455 S
Tb3 O8 2.341 . S
Tb3 O10 2.341 1_554 S
Tb3 O26 2.344 1_554 S
Tb3 O29 2.344 . S
Tb3 O34 2.344 1_455 S
Tb3 O37 2.344 . S
Tb4 O1 2.341 1_445 S
Tb4 O6 2.341 1_455 S
Tb4 O9 2.341 . S
Tb4 O10 2.341 1_545 S
Tb4 O30 2.344 1_455 S
Tb4 O33 2.344 . S
Tb4 O43 2.344 . S
Tb4 O44 2.344 1_545 S
O5 Tb2 2.341 1_565 S
O5 Tb3 2.341 1_655 S
O5 H11 0.850 . S
O5 Tb13 2.341 1_665 S
O6 Tb2 2.341 1_556 S
O6 Tb4 2.341 1_655 S
O6 H12 0.850 . S
O6 Tb14 2.341 1_656 S
O7 Tb2 2.341 . S
O7 Tb13 2.341 1_655 S
O7 Tb14 2.341 1_655 S
O7 H15 0.850 . S
O8 Tb3 2.341 . S
O8 Tb13 2.341 1_565 S
O8 H16 0.850 . S
O8 Tb17 2.341 1_565 S
O9 Tb4 2.341 . S
O9 Tb14 2.341 1_556 S
O9 Tb17 2.341 1_556 S
O9 H18 0.850 . S
O10 Tb3 2.341 1_556 S
O10 Tb4 2.341 1_565 S
O10 Tb17 2.341 1_566 S
O10 H19 0.850 . S
H11 O5 0.850 . S
H12 O6 0.850 . S
Tb13 O5 2.341 1_445 S
Tb13 O7 2.341 1_455 S
Tb13 O8 2.341 1_545 S
Tb13 O20 2.341 . S
Tb13 O31 2.344 . S
Tb13 O32 2.344 1_455 S
Tb13 O42 2.344 1_545 S
Tb13 O45 2.344 . S
Tb14 O6 2.341 1_454 S
Tb14 O7 2.341 1_455 S
Tb14 O9 2.341 1_554 S
Tb14 O20 2.341 . S
Tb14 O27 2.344 . S
Tb14 O28 2.344 1_554 S
Tb14 O35 2.344 . S
Tb14 O36 2.344 1_455 S
H15 O7 0.850 . S
H16 O8 0.850 . S
Tb17 O8 2.341 1_545 S
Tb17 O9 2.341 1_554 S
Tb17 O10 2.341 1_544 S
Tb17 O20 2.341 . S
Tb17 O23 2.344 . S
Tb17 O24 2.344 1_545 S
Tb17 O39 2.344 1_554 S
Tb17 O40 2.344 . S
H18 O9 0.850 . S
H19 O10 0.850 . S
O20 Tb13 2.341 . S
O20 Tb14 2.341 . S
O20 Tb17 2.341 . S
O20 H21 0.850 . S
H21 O20 0.850 . S
O22 Tb2 2.344 1_565 S
O22 C46 1.272 . S
O23 Tb17 2.344 . S
O23 C47 1.272 . S
O24 Tb17 2.344 1_565 S
O24 C48 1.272 . S
O25 Tb2 2.344 . S
O25 C49 1.272 . S
O26 Tb3 2.344 1_556 S
O26 C50 1.272 . S
O27 Tb14 2.344 . S
O27 C51 1.272 . S
O28 Tb14 2.344 1_556 S
O28 C52 1.272 . S
O29 Tb3 2.344 . S
O29 C53 1.272 . S
O30 Tb4 2.344 1_655 S
O30 C54 1.272 . S
O31 Tb13 2.344 . S
O31 C55 1.272 . S
O32 Tb13 2.344 1_655 S
O32 C56 1.272 . S
O33 Tb4 2.344 . S
O33 C57 1.272 . S
O34 Tb3 2.344 1_655 S
O34 C46 1.272 . S
O35 Tb14 2.344 . S
O35 C47 1.272 . S
O36 Tb14 2.344 1_655 S
O36 C49 1.272 . S
O37 Tb3 2.344 . S
O37 C48 1.272 . S
O38 Tb2 2.344 . S
O38 C56 1.272 . S
O39 Tb17 2.344 1_556 S
O39 C57 1.272 . S
O40 Tb17 2.344 . S
O40 C55 1.272 . S
O41 Tb2 2.344 1_556 S
O41 C54 1.272 . S
O42 Tb13 2.344 1_565 S
O42 C53 1.272 . S
O43 Tb4 2.344 . S
O43 C52 1.272 . S
O44 Tb4 2.344 1_565 S
O44 C50 1.272 . S
O45 Tb13 2.344 . S
O45 C51 1.272 . S
C46 O22 1.272 . S
C46 O34 1.272 . S
C47 O23 1.272 . S
C47 O35 1.272 . S
C48 O24 1.272 . S
C48 O37 1.272 . S
C49 O25 1.272 . S
C49 O36 1.272 . S
C50 O26 1.272 . S
C50 O44 1.272 . S
C51 O27 1.272 . S
C51 O45 1.272 . S
C52 O28 1.272 . S
C52 O43 1.272 . S
C53 O29 1.272 . S
C53 O42 1.272 . S
C54 O30 1.272 . S
C54 O41 1.272 . S
C55 O31 1.272 . S
C55 O40 1.272 . S
C56 O32 1.272 . S
C56 O38 1.272 . S
C57 O33 1.272 . S
C57 O39 1.272 . S
H58 O59 0.850 . S
O59 H58 0.850 . S
O59 Tb60 2.341 . S
O59 Tb61 2.341 1_655 S
O59 Tb62 2.341 1_655 S
Tb60 O59 2.341 . S
Tb60 O63 2.341 . S
Tb60 O64 2.341 . S
Tb60 O65 2.341 . S
Tb60 O80 2.344 . S
Tb60 O83 2.344 . S
Tb60 O96 2.344 . S
Tb60 O99 2.344 . S
Tb61 O59 2.341 1_455 S
Tb61 O63 2.341 1_455 S
Tb61 O66 2.341 . S
Tb61 O68 2.341 . S
Tb61 O84 2.344 . S
Tb61 O87 2.344 . S
Tb61 O92 2.344 1_455 S
Tb61 O95 2.344 . S
Tb62 O59 2.341 1_455 S
Tb62 O64 2.341 1_455 S
Tb62 O67 2.341 . S
Tb62 O68 2.341 . S
Tb62 O88 2.344 1_455 S
Tb62 O91 2.344 . S
Tb62 O101 2.344 . S
Tb62 O102 2.344 . S
O63 Tb60 2.341 . S
O63 Tb61 2.341 1_655 S
O63 H69 0.850 . S
O63 Tb71 2.341 1_655 S
O64 Tb60 2.341 . S
O64 Tb62 2.341 1_655 S
O64 H70 0.850 . S
O64 Tb72 2.341 1_655 S
O65 Tb60 2.341 . S
O65 Tb71 2.341 1_655 S
O65 Tb72 2.341 1_655 S
O65 H73 0.850 . S
O66 Tb61 2.341 . S
O66 Tb71 2.341 . S
O66 H74 0.850 . S
O66 Tb75 2.341 . S
O67 Tb62 2.341 . S
O67 Tb72 2.341 . S
O67 Tb75 2.341 . S
O67 H76 0.850 . S
O68 Tb61 2.341 . S
O68 Tb62 2.341 . S
O68 Tb75 2.341 . S
O68 H77 0.850 . S
H69 O63 0.850 . S
H70 O64 0.850 . S
Tb71 O63 2.341 1_455 S
Tb71 O65 2.341 1_455 S
Tb71 O66 2.341 . S
Tb71 O78 2.341 . S
Tb71 O89 2.344 . S
Tb71 O90 2.344 1_455 S
Tb71 O100 2.344 . S
Tb71 O103 2.344 . S
Tb72 O64 2.341 1_455 S
Tb72 O65 2.341 1_455 S
Tb72 O67 2.341 . S
Tb72 O78 2.341 . S
Tb72 O85 2.344 . S
Tb72 O86 2.344 . S
Tb72 O93 2.344 . S
Tb72 O94 2.344 1_455 S
H73 O65 0.850 . S
H74 O66 0.850 . S
Tb75 O66 2.341 . S
Tb75 O67 2.341 . S
Tb75 O68 2.341 . S
Tb75 O78 2.341 . S
Tb75 O81 2.344 . S
Tb75 O82 2.344 . S
Tb75 O97 2.344 . S
Tb75 O98 2.344 . S
H76 O67 0.850 . S
H77 O68 0.850 . S
O78 Tb71 2.341 . S
O78 Tb72 2.341 . S
O78 Tb75 2.341 . S
O78 H79 0.850 . S
H79 O78 0.850 . S
O80 Tb60 2.344 . S
O80 C104 1.272 . S
O81 Tb75 2.344 . S
O81 C105 1.272 . S
O82 Tb75 2.344 . S
O82 C106 1.272 . S
O83 Tb60 2.344 . S
O83 C107 1.272 . S
O84 Tb61 2.344 . S
O84 C108 1.272 . S
O85 Tb72 2.344 . S
O85 C109 1.272 . S
O86 Tb72 2.344 . S
O86 C110 1.272 . S
O87 Tb61 2.344 . S
O87 C111 1.272 . S
O88 Tb62 2.344 1_655 S
O88 C112 1.272 . S
O89 Tb71 2.344 . S
O89 C113 1.272 . S
O90 Tb71 2.344 1_655 S
O90 C114 1.272 . S
O91 Tb62 2.344 . S
O91 C115 1.272 . S
O92 Tb61 2.344 1_655 S
O92 C104 1.272 . S
O93 Tb72 2.344 . S
O93 C105 1.272 . S
O94 Tb72 2.344 1_655 S
O94 C107 1.272 . S
O95 Tb61 2.344 . S
O95 C106 1.272 . S
O96 Tb60 2.344 . S
O96 C114 1.272 . S
O97 Tb75 2.344 . S
O97 C115 1.272 . S
O98 Tb75 2.344 . S
O98 C113 1.272 . S
O99 Tb60 2.344 . S
O99 C112 1.272 . S
O100 Tb71 2.344 . S
O100 C111 1.272 . S
O101 Tb62 2.344 . S
O101 C110 1.272 . S
O102 Tb62 2.344 . S
O102 C108 1.272 . S
O103 Tb71 2.344 . S
O103 C109 1.272 . S
C104 O80 1.272 . S
C104 O92 1.272 . S
C105 O81 1.272 . S
C105 O93 1.272 . S
C106 O82 1.272 . S
C106 O95 1.272 . S
C107 O83 1.272 . S
C107 O94 1.272 . S
C108 O84 1.272 . S
C108 O102 1.272 . S
C109 O85 1.272 . S
C109 O103 1.272 . S
C110 O86 1.272 . S
C110 O101 1.272 . S
C111 O87 1.272 . S
C111 O100 1.272 . S
C112 O88 1.272 . S
C112 O99 1.272 . S
C113 O89 1.272 . S
C113 O98 1.272 . S
C114 O90 1.272 . S
C114 O96 1.272 . S
C115 O91 1.272 . S
C115 O97 1.272 . S
H116 O117 0.850 . S
O117 H116 0.850 . S
O117 Tb118 2.341 1_565 S
O117 Tb119 2.341 . S
O117 Tb120 2.341 1_565 S
Tb118 O117 2.341 1_545 S
Tb118 O121 2.341 1_545 S
Tb118 O122 2.341 . S
Tb118 O123 2.341 . S
Tb118 O138 2.344 1_545 S
Tb118 O141 2.344 . S
Tb118 O154 2.344 . S
Tb118 O157 2.344 . S
Tb119 O117 2.341 . S
Tb119 O121 2.341 . S
Tb119 O124 2.341 . S
Tb119 O126 2.341 . S
Tb119 O142 2.344 . S
Tb119 O145 2.344 . S
Tb119 O150 2.344 . S
Tb119 O153 2.344 . S
Tb120 O117 2.341 1_545 S
Tb120 O122 2.341 . S
Tb120 O125 2.341 . S
Tb120 O126 2.341 1_545 S
Tb120 O146 2.344 . S
Tb120 O149 2.344 . S
Tb120 O159 2.344 . S
Tb120 O160 2.344 1_545 S
O121 Tb118 2.341 1_565 S
O121 Tb119 2.341 . S
O121 H127 0.850 . S
O121 Tb129 2.341 1_565 S
O122 Tb118 2.341 . S
O122 Tb120 2.341 . S
O122 H128 0.850 . S
O122 Tb130 2.341 . S
O123 Tb118 2.341 . S
O123 Tb129 2.341 . S
O123 Tb130 2.341 . S
O123 H131 0.850 . S
O124 Tb119 2.341 . S
O124 Tb129 2.341 1_565 S
O124 H132 0.850 . S
O124 Tb133 2.341 1_565 S
O125 Tb120 2.341 . S
O125 Tb130 2.341 . S
O125 Tb133 2.341 . S
O125 H134 0.850 . S
O126 Tb119 2.341 . S
O126 Tb120 2.341 1_565 S
O126 Tb133 2.341 1_565 S
O126 H135 0.850 . S
H127 O121 0.850 . S
H128 O122 0.850 . S
Tb129 O121 2.341 1_545 S
Tb129 O123 2.341 . S
Tb129 O124 2.341 1_545 S
Tb129 O136 2.341 . S
Tb129 O147 2.344 . S
Tb129 O148 2.344 . S
Tb129 O158 2.344 1_545 S
Tb129 O161 2.344 . S
Tb130 O122 2.341 . S
Tb130 O123 2.341 . S
Tb130 O125 2.341 . S
Tb130 O136 2.341 . S
Tb130 O143 2.344 . S
Tb130 O144 2.344 . S
Tb130 O151 2.344 . S
Tb130 O152 2.344 . S
H131 O123 0.850 . S
H132 O124 0.850 . S
Tb133 O124 2.341 1_545 S
Tb133 O125 2.341 . S
Tb133 O126 2.341 1_545 S
Tb133 O136 2.341 . S
Tb133 O139 2.344 . S
Tb133 O140 2.344 1_545 S
Tb133 O155 2.344 . S
Tb133 O156 2.344 . S
H134 O125 0.850 . S
H135 O126 0.850 . S
O136 Tb129 2.341 . S
O136 Tb130 2.341 . S
O136 Tb133 2.341 . S
O136 H137 0.850 . S
H137 O136 0.850 . S
O138 Tb118 2.344 1_565 S
O138 C162 1.272 . S
O139 Tb133 2.344 . S
O139 C163 1.272 . S
O140 Tb133 2.344 1_565 S
O140 C164 1.272 . S
O141 Tb118 2.344 . S
O141 C165 1.272 . S
O142 Tb119 2.344 . S
O142 C166 1.272 . S
O143 Tb130 2.344 . S
O143 C167 1.272 . S
O144 Tb130 2.344 . S
O144 C168 1.272 . S
O145 Tb119 2.344 . S
O145 C169 1.272 . S
O146 Tb120 2.344 . S
O146 C170 1.272 . S
O147 Tb129 2.344 . S
O147 C171 1.272 . S
O148 Tb129 2.344 . S
O148 C172 1.272 . S
O149 Tb120 2.344 . S
O149 C173 1.272 . S
O150 Tb119 2.344 . S
O150 C162 1.272 . S
O151 Tb130 2.344 . S
O151 C163 1.272 . S
O152 Tb130 2.344 . S
O152 C165 1.272 . S
O153 Tb119 2.344 . S
O153 C164 1.272 . S
O154 Tb118 2.344 . S
O154 C172 1.272 . S
O155 Tb133 2.344 . S
O155 C173 1.272 . S
O156 Tb133 2.344 . S
O156 C171 1.272 . S
O157 Tb118 2.344 . S
O157 C170 1.272 . S
O158 Tb129 2.344 1_565 S
O158 C169 1.272 . S
O159 Tb120 2.344 . S
O159 C168 1.272 . S
O160 Tb120 2.344 1_565 S
O160 C166 1.272 . S
O161 Tb129 2.344 . S
O161 C167 1.272 . S
C162 O138 1.272 . S
C162 O150 1.272 . S
C163 O139 1.272 . S
C163 O151 1.272 . S
C164 O140 1.272 . S
C164 O153 1.272 . S
C165 O141 1.272 . S
C165 O152 1.272 . S
C166 O142 1.272 . S
C166 O160 1.272 . S
C167 O143 1.272 . S
C167 O161 1.272 . S
C168 O144 1.272 . S
C168 O159 1.272 . S
C169 O145 1.272 . S
C169 O158 1.272 . S
C170 O146 1.272 . S
C170 O157 1.272 . S
C171 O147 1.272 . S
C171 O156 1.272 . S
C172 O148 1.272 . S
C172 O154 1.272 . S
C173 O149 1.272 . S
C173 O155 1.272 . S
H174 O175 0.850 . S
O175 H174 0.850 . S
O175 Tb176 2.341 1_556 S
O175 Tb177 2.341 1_556 S
O175 Tb178 2.341 . S
Tb176 O175 2.341 1_554 S
Tb176 O179 2.341 . S
Tb176 O180 2.341 1_554 S
Tb176 O181 2.341 . S
Tb176 O196 2.344 . S
Tb176 O199 2.344 . S
Tb176 O212 2.344 . S
Tb176 O215 2.344 1_554 S
Tb177 O175 2.341 1_554 S
Tb177 O179 2.341 . S
Tb177 O182 2.341 . S
Tb177 O184 2.341 1_554 S
Tb177 O200 2.344 1_554 S
Tb177 O203 2.344 . S
Tb177 O208 2.344 . S
Tb177 O211 2.344 . S
Tb178 O175 2.341 . S
Tb178 O180 2.341 . S
Tb178 O183 2.341 . S
Tb178 O184 2.341 . S
Tb178 O204 2.344 . S
Tb178 O207 2.344 . S
Tb178 O217 2.344 . S
Tb178 O218 2.344 . S
O179 Tb176 2.341 . S
O179 Tb177 2.341 . S
O179 H185 0.850 . S
O179 Tb187 2.341 . S
O180 Tb176 2.341 1_556 S
O180 Tb178 2.341 . S
O180 H186 0.850 . S
O180 Tb188 2.341 1_556 S
O181 Tb176 2.341 . S
O181 Tb187 2.341 . S
O181 Tb188 2.341 . S
O181 H189 0.850 . S
O182 Tb177 2.341 . S
O182 Tb187 2.341 . S
O182 H190 0.850 . S
O182 Tb191 2.341 . S
O183 Tb178 2.341 . S
O183 Tb188 2.341 1_556 S
O183 Tb191 2.341 1_556 S
O183 H192 0.850 . S
O184 Tb177 2.341 1_556 S
O184 Tb178 2.341 . S
O184 Tb191 2.341 1_556 S
O184 H193 0.850 . S
H185 O179 0.850 . S
H186 O180 0.850 . S
Tb187 O179 2.341 . S
Tb187 O181 2.341 . S
Tb187 O182 2.341 . S
Tb187 O194 2.341 . S
Tb187 O205 2.344 . S
Tb187 O206 2.344 . S
Tb187 O216 2.344 . S
Tb187 O219 2.344 . S
Tb188 O180 2.341 1_554 S
Tb188 O181 2.341 . S
Tb188 O183 2.341 1_554 S
Tb188 O194 2.341 . S
Tb188 O201 2.344 . S
Tb188 O202 2.344 1_554 S
Tb188 O209 2.344 . S
Tb188 O210 2.344 . S
H189 O181 0.850 . S
H190 O182 0.850 . S
Tb191 O182 2.341 . S
Tb191 O183 2.341 1_554 S
Tb191 O184 2.341 1_554 S
Tb191 O194 2.341 . S
Tb191 O197 2.344 . S
Tb191 O198 2.344 . S
Tb191 O213 2.344 1_554 S
Tb191 O214 2.344 . S
H192 O183 0.850 . S
H193 O184 0.850 . S
O194 Tb187 2.341 . S
O194 Tb188 2.341 . S
O194 Tb191 2.341 . S
O194 H195 0.850 . S
H195 O194 0.850 . S
O196 Tb176 2.344 . S
O196 C220 1.272 . S
O197 Tb191 2.344 . S
O197 C221 1.272 . S
O198 Tb191 2.344 . S
O198 C222 1.272 . S
O199 Tb176 2.344 . S
O199 C223 1.272 . S
O200 Tb177 2.344 1_556 S
O200 C224 1.272 . S
O201 Tb188 2.344 . S
O201 C225 1.272 . S
O202 Tb188 2.344 1_556 S
O202 C226 1.272 . S
O203 Tb177 2.344 . S
O203 C227 1.272 . S
O204 Tb178 2.344 . S
O204 C228 1.272 . S
O205 Tb187 2.344 . S
O205 C229 1.272 . S
O206 Tb187 2.344 . S
O206 C230 1.272 . S
O207 Tb178 2.344 . S
O207 C231 1.272 . S
O208 Tb177 2.344 . S
O208 C220 1.272 . S
O209 Tb188 2.344 . S
O209 C221 1.272 . S
O210 Tb188 2.344 . S
O210 C223 1.272 . S
O211 Tb177 2.344 . S
O211 C222 1.272 . S
O212 Tb176 2.344 . S
O212 C230 1.272 . S
O213 Tb191 2.344 1_556 S
O213 C231 1.272 . S
O214 Tb191 2.344 . S
O214 C229 1.272 . S
O215 Tb176 2.344 1_556 S
O215 C228 1.272 . S
O216 Tb187 2.344 . S
O216 C227 1.272 . S
O217 Tb178 2.344 . S
O217 C226 1.272 . S
O218 Tb178 2.344 . S
O218 C224 1.272 . S
O219 Tb187 2.344 . S
O219 C225 1.272 . S
C220 O196 1.272 . S
C220 O208 1.272 . S
C221 O197 1.272 . S
C221 O209 1.272 . S
C222 O198 1.272 . S
C222 O211 1.272 . S
C223 O199 1.272 . S
C223 O210 1.272 . S
C224 O200 1.272 . S
C224 O218 1.272 . S
C225 O201 1.272 . S
C225 O219 1.272 . S
C226 O202 1.272 . S
C226 O217 1.272 . S
C227 O203 1.272 . S
C227 O216 1.272 . S
C228 O204 1.272 . S
C228 O215 1.272 . S
C229 O205 1.272 . S
C229 O214 1.272 . S
C230 O206 1.272 . S
C230 O212 1.272 . S
C231 O207 1.272 . S
C231 O213 1.272 . S
H232 C244 0.930 . S
H233 C246 0.930 . S
H234 C247 0.930 . S
H235 C251 0.959 . S
H236 C251 0.959 . S
H237 C251 0.961 . S
H238 C252 0.960 . S
H239 C252 0.961 . S
H240 C252 0.959 . S
H241 C255 0.929 . S
H242 C256 0.931 . S
H243 C258 0.930 . S
C244 H232 0.930 . S
C244 C245 1.399 1_455 S
C244 C249 1.399 . S
C245 C244 1.399 1_655 S
C245 C246 1.376 . S
C246 H233 0.930 . S
C246 C245 1.376 . S
C246 C247 1.388 . S
C247 H234 0.930 . S
C247 C246 1.388 . S
C247 C248 1.390 . S
C248 C247 1.390 . S
C248 C249 1.394 1_655 S
C248 C254 1.465 . S
C249 C244 1.399 . S
C249 C248 1.394 1_455 S
C249 C250 1.516 . S
C250 C249 1.516 . S
C250 C251 1.502 . S
C250 C252 1.561 . S
C250 C253 1.526 . S
C251 H235 0.959 . S
C251 H236 0.959 . S
C251 H237 0.961 . S
C251 C250 1.502 . S
C252 H238 0.960 . S
C252 H239 0.961 . S
C252 H240 0.959 . S
C252 C250 1.561 . S
C253 C250 1.526 . S
C253 C254 1.396 1_455 S
C253 C258 1.390 . S
C254 C248 1.465 . S
C254 C253 1.396 1_655 S
C254 C255 1.399 . S
C255 H241 0.929 . S
C255 C254 1.399 . S
C255 C256 1.385 . S
C256 H242 0.931 . S
C256 C255 1.385 . S
C256 C257 1.389 . S
C257 C256 1.389 . S
C257 C258 1.387 1_655 S
C258 H243 0.930 . S
C258 C253 1.390 . S
C258 C257 1.387 1_455 S
H259 C271 0.930 . S
H260 C273 0.930 . S
H261 C274 0.930 . S
H262 C278 0.959 . S
H263 C278 0.959 . S
H264 C278 0.961 . S
H265 C279 0.960 . S
H266 C279 0.961 . S
H267 C279 0.959 . S
H268 C282 0.929 . S
H269 C283 0.931 . S
H270 C285 0.930 . S
C271 H259 0.930 . S
C271 C272 1.399 1_565 S
C271 C276 1.399 . S
C272 C271 1.399 1_545 S
C272 C273 1.376 . S
C273 H260 0.930 . S
C273 C272 1.376 . S
C273 C274 1.388 . S
C274 H261 0.930 . S
C274 C273 1.388 . S
C274 C275 1.390 . S
C275 C274 1.390 . S
C275 C276 1.394 1_545 S
C275 C281 1.465 . S
C276 C271 1.399 . S
C276 C275 1.394 1_565 S
C276 C277 1.516 . S
C277 C276 1.516 . S
C277 C278 1.502 . S
C277 C279 1.561 . S
C277 C280 1.526 . S
C278 H262 0.959 . S
C278 H263 0.959 . S
C278 H264 0.961 . S
C278 C277 1.502 . S
C279 H265 0.960 . S
C279 H266 0.961 . S
C279 H267 0.959 . S
C279 C277 1.561 . S
C280 C277 1.526 . S
C280 C281 1.396 1_565 S
C280 C285 1.390 . S
C281 C275 1.465 . S
C281 C280 1.396 1_545 S
C281 C282 1.399 . S
C282 H268 0.929 . S
C282 C281 1.399 . S
C282 C283 1.385 . S
C283 H269 0.931 . S
C283 C282 1.385 . S
C283 C284 1.389 . S
C284 C283 1.389 . S
C284 C285 1.387 1_545 S
C285 H270 0.930 . S
C285 C280 1.390 . S
C285 C284 1.387 1_565 S
H286 C298 0.930 . S
H287 C300 0.930 . S
H288 C301 0.930 . S
H289 C305 0.959 . S
H290 C305 0.959 . S
H291 C305 0.961 . S
H292 C306 0.960 . S
H293 C306 0.961 . S
H294 C306 0.959 . S
H295 C309 0.929 . S
H296 C310 0.931 . S
H297 C312 0.930 . S
C298 H286 0.930 . S
C298 C299 1.399 1_455 S
C298 C303 1.401 . S
C299 C298 1.399 1_655 S
C299 C300 1.376 . S
C300 H287 0.930 . S
C300 C299 1.376 . S
C300 C301 1.388 . S
C301 H288 0.930 . S
C301 C300 1.388 . S
C301 C302 1.390 . S
C302 C301 1.390 . S
C302 C303 1.389 1_655 S
C302 C308 1.465 . S
C303 C298 1.401 . S
C303 C302 1.389 1_455 S
C303 C304 1.518 . S
C304 C303 1.518 . S
C304 C305 1.502 . S
C304 C306 1.561 1_455 S
C304 C307 1.528 . S
C305 H289 0.959 . S
C305 H290 0.959 . S
C305 H291 0.961 . S
C305 C304 1.502 . S
C306 H292 0.960 . S
C306 H293 0.961 . S
C306 H294 0.959 . S
C306 C304 1.561 1_655 S
C307 C304 1.528 . S
C307 C308 1.391 1_455 S
C307 C312 1.392 . S
C308 C302 1.465 . S
C308 C307 1.391 1_655 S
C308 C309 1.399 . S
C309 H295 0.929 . S
C309 C308 1.399 . S
C309 C310 1.385 . S
C310 H296 0.931 . S
C310 C309 1.385 . S
C310 C311 1.389 . S
C311 C310 1.389 . S
C311 C312 1.387 1_655 S
C312 H297 0.930 . S
C312 C307 1.392 . S
C312 C311 1.387 1_455 S
H313 C325 0.930 . S
H314 C327 0.930 . S
H315 C328 0.930 . S
H316 C332 0.959 . S
H317 C332 0.959 . S
H318 C332 0.961 . S
H319 C333 0.960 . S
H320 C333 0.961 . S
H321 C333 0.959 . S
H322 C336 0.929 . S
H323 C337 0.931 . S
H324 C339 0.930 . S
C325 H313 0.930 . S
C325 C326 1.399 1_565 S
C325 C330 1.399 . S
C326 C325 1.399 1_545 S
C326 C327 1.376 . S
C327 H314 0.930 . S
C327 C326 1.376 . S
C327 C328 1.388 . S
C328 H315 0.930 . S
C328 C327 1.388 . S
C328 C329 1.390 . S
C329 C328 1.390 . S
C329 C330 1.394 1_545 S
C329 C335 1.465 . S
C330 C325 1.399 . S
C330 C329 1.394 1_565 S
C330 C331 1.516 . S
C331 C330 1.516 . S
C331 C332 1.502 . S
C331 C333 1.561 . S
C331 C334 1.526 . S
C332 H316 0.959 . S
C332 H317 0.959 . S
C332 H318 0.961 . S
C332 C331 1.502 . S
C333 H319 0.960 . S
C333 H320 0.961 . S
C333 H321 0.959 . S
C333 C331 1.561 . S
C334 C331 1.526 . S
C334 C335 1.396 1_565 S
C334 C339 1.390 . S
C335 C329 1.465 . S
C335 C334 1.396 1_545 S
C335 C336 1.399 . S
C336 H322 0.929 . S
C336 C335 1.399 . S
C336 C337 1.385 . S
C337 H323 0.931 . S
C337 C336 1.385 . S
C337 C338 1.389 . S
C338 C337 1.389 . S
C338 C339 1.387 1_545 S
C339 H324 0.930 . S
C339 C334 1.390 . S
C339 C338 1.387 1_565 S
H340 C352 0.930 . S
H341 C354 0.930 . S
H342 C355 0.930 . S
H343 C359 0.959 . S
H344 C359 0.959 . S
H345 C359 0.961 . S
H346 C360 0.960 . S
H347 C360 0.967 . S
H348 C360 0.959 . S
H349 C363 0.929 . S
H350 C364 0.931 . S
H351 C366 0.930 . S
C352 H340 0.930 . S
C352 C353 1.399 1_655 S
C352 C357 1.399 . S
C353 C352 1.399 1_455 S
C353 C354 1.376 . S
C354 H341 0.930 . S
C354 C353 1.376 . S
C354 C355 1.388 . S
C355 H342 0.930 . S
C355 C354 1.388 . S
C355 C356 1.390 . S
C356 C355 1.390 . S
C356 C357 1.394 1_455 S
C356 C362 1.465 . S
C357 C352 1.399 . S
C357 C356 1.394 1_655 S
C357 C358 1.516 . S
C358 C357 1.516 . S
C358 C359 1.502 . S
C358 C360 1.561 1_655 S
C358 C361 1.526 . S
C359 H343 0.959 . S
C359 H344 0.959 . S
C359 H345 0.961 . S
C359 C358 1.502 . S
C360 H346 0.960 . S
C360 H347 0.967 . S
C360 H348 0.959 . S
C360 C358 1.561 1_455 S
C361 C358 1.526 . S
C361 C362 1.396 1_655 S
C361 C366 1.390 . S
C362 C356 1.465 . S
C362 C361 1.396 1_455 S
C362 C363 1.399 . S
C363 H349 0.929 . S
C363 C362 1.399 . S
C363 C364 1.385 . S
C364 H350 0.931 . S
C364 C363 1.385 . S
C364 C365 1.389 . S
C365 C364 1.389 . S
C365 C366 1.387 1_455 S
C366 H351 0.930 . S
C366 C361 1.390 . S
C366 C365 1.387 1_655 S
H367 C379 0.930 . S
H368 C381 0.930 . S
H369 C382 0.930 . S
H370 C386 0.959 . S
H371 C386 0.959 . S
H372 C386 0.961 . S
H373 C387 0.963 . S
H374 C387 0.966 . S
H375 C387 0.944 1_565 S
H376 C390 0.929 . S
H377 C391 0.931 . S
H378 C393 0.930 . S
C379 H367 0.930 . S
C379 C380 1.399 1_545 S
C379 C384 1.399 . S
C380 C379 1.399 1_565 S
C380 C381 1.376 . S
C381 H368 0.930 . S
C381 C380 1.376 . S
C381 C382 1.388 . S
C382 H369 0.930 . S
C382 C381 1.388 . S
C382 C383 1.390 . S
C383 C382 1.390 . S
C383 C384 1.394 1_565 S
C383 C389 1.465 . S
C384 C379 1.399 . S
C384 C383 1.394 1_545 S
C384 C385 1.516 . S
C385 C384 1.516 . S
C385 C386 1.502 . S
C385 C387 1.568 . S
C385 C388 1.526 . S
C386 H370 0.959 . S
C386 H371 0.959 . S
C386 H372 0.961 . S
C386 C385 1.502 . S
C387 H373 0.963 . S
C387 H374 0.966 . S
C387 H375 0.944 1_545 S
C387 C385 1.568 . S
C388 C385 1.526 . S
C388 C389 1.396 1_545 S
C388 C393 1.390 . S
C389 C383 1.465 . S
C389 C388 1.396 1_565 S
C389 C390 1.399 . S
C390 H376 0.929 . S
C390 C389 1.399 . S
C390 C391 1.385 . S
C391 H377 0.931 . S
C391 C390 1.385 . S
C391 C392 1.389 . S
C392 C391 1.389 . S
C392 C393 1.387 1_565 S
C393 H378 0.930 . S
C393 C388 1.390 . S
C393 C392 1.387 1_545 S
H394 C406 0.930 . S
H395 C408 0.930 . S
H396 C409 0.930 . S
H397 C413 0.959 . S
H398 C413 0.959 . S
H399 C413 0.961 . S
H400 C414 0.960 . S
H401 C414 0.961 . S
H402 C414 0.959 . S
H403 C417 0.929 . S
H404 C418 0.931 . S
H405 C420 0.932 . S
C406 H394 0.930 . S
C406 C407 1.399 1_455 S
C406 C411 1.399 1_455 S
C407 C406 1.399 1_655 S
C407 C408 1.376 . S
C408 H395 0.930 . S
C408 C407 1.376 . S
C408 C409 1.388 . S
C409 H396 0.930 . S
C409 C408 1.388 . S
C409 C410 1.390 . S
C410 C409 1.390 . S
C410 C411 1.394 . S
C410 C416 1.465 . S
C411 C406 1.399 1_655 S
C411 C410 1.394 . S
C411 C412 1.516 . S
C412 C411 1.516 . S
C412 C413 1.502 1_655 S
C412 C414 1.561 . S
C412 C415 1.526 . S
C413 H397 0.959 . S
C413 H398 0.959 . S
C413 H399 0.961 . S
C413 C412 1.502 1_455 S
C414 H400 0.960 . S
C414 H401 0.961 . S
C414 H402 0.959 . S
C414 C412 1.561 . S
C415 C412 1.526 . S
C415 C416 1.396 . S
C415 C420 1.389 1_655 S
C416 C410 1.465 . S
C416 C415 1.396 . S
C416 C417 1.399 . S
C417 H403 0.929 . S
C417 C416 1.399 . S
C417 C418 1.385 . S
C418 H404 0.931 . S
C418 C417 1.385 . S
C418 C419 1.389 . S
C419 C418 1.389 . S
C419 C420 1.386 1_655 S
C420 H405 0.932 . S
C420 C415 1.389 1_455 S
C420 C419 1.386 1_455 S
H421 C433 0.930 . S
H422 C435 0.930 . S
H423 C436 0.930 . S
H424 C440 0.959 . S
H425 C440 0.959 . S
H426 C440 0.961 . S
H427 C441 0.960 . S
H428 C441 0.961 . S
H429 C441 0.959 . S
H430 C444 0.929 . S
H431 C445 0.931 . S
H432 C447 0.930 . S
C433 H421 0.930 . S
C433 C434 1.399 1_545 S
C433 C438 1.399 . S
C434 C433 1.399 1_565 S
C434 C435 1.376 . S
C435 H422 0.930 . S
C435 C434 1.376 . S
C435 C436 1.388 . S
C436 H423 0.930 . S
C436 C435 1.388 . S
C436 C437 1.390 . S
C437 C436 1.390 . S
C437 C438 1.394 1_565 S
C437 C443 1.465 . S
C438 C433 1.399 . S
C438 C437 1.394 1_545 S
C438 C439 1.516 . S
C439 C438 1.516 . S
C439 C440 1.502 . S
C439 C441 1.561 . S
C439 C442 1.526 . S
C440 H424 0.959 . S
C440 H425 0.959 . S
C440 H426 0.961 . S
C440 C439 1.502 . S
C441 H427 0.960 . S
C441 H428 0.961 . S
C441 H429 0.959 . S
C441 C439 1.561 . S
C442 C439 1.526 . S
C442 C443 1.396 1_545 S
C442 C447 1.390 . S
C443 C437 1.465 . S
C443 C442 1.396 1_565 S
C443 C444 1.399 . S
C444 H430 0.929 . S
C444 C443 1.399 . S
C444 C445 1.385 . S
C445 H431 0.931 . S
C445 C444 1.385 . S
C445 C446 1.389 . S
C446 C445 1.389 . S
C446 C447 1.387 1_565 S
C447 H432 0.930 . S
C447 C442 1.390 . S
C447 C446 1.387 1_545 S
H448 C460 0.930 . S
H449 C462 0.930 . S
H450 C463 0.930 . S
H451 C467 0.959 . S
H452 C467 0.959 . S
H453 C467 0.961 . S
H454 C468 0.960 . S
H455 C468 0.961 . S
H456 C468 0.959 . S
H457 C471 0.929 . S
H458 C472 0.931 . S
H459 C474 0.930 . S
C460 H448 0.930 . S
C460 C461 1.399 1_554 S
C460 C465 1.399 . S
C461 C460 1.399 1_556 S
C461 C462 1.376 . S
C462 H449 0.930 . S
C462 C461 1.376 . S
C462 C463 1.388 . S
C463 H450 0.930 . S
C463 C462 1.388 . S
C463 C464 1.390 . S
C464 C463 1.390 . S
C464 C465 1.394 1_556 S
C464 C470 1.465 . S
C465 C460 1.399 . S
C465 C464 1.394 1_554 S
C465 C466 1.516 . S
C466 C465 1.516 . S
C466 C467 1.502 . S
C466 C468 1.561 . S
C466 C469 1.526 . S
C467 H451 0.959 . S
C467 H452 0.959 . S
C467 H453 0.961 . S
C467 C466 1.502 . S
C468 H454 0.960 . S
C468 H455 0.961 . S
C468 H456 0.959 . S
C468 C466 1.561 . S
C469 C466 1.526 . S
C469 C470 1.396 1_554 S
C469 C474 1.390 . S
C470 C464 1.465 . S
C470 C469 1.396 1_556 S
C470 C471 1.399 . S
C471 H457 0.929 . S
C471 C470 1.399 . S
C471 C472 1.385 . S
C472 H458 0.931 . S
C472 C471 1.385 . S
C472 C473 1.389 . S
C473 C472 1.389 . S
C473 C474 1.387 1_556 S
C474 H459 0.930 . S
C474 C469 1.390 . S
C474 C473 1.387 1_554 S
H475 C487 0.930 . S
H476 C489 0.930 . S
H477 C490 0.930 . S
H478 C494 0.959 . S
H479 C494 0.959 . S
H480 C494 0.961 . S
H481 C495 0.960 . S
H482 C495 0.961 . S
H483 C495 0.959 . S
H484 C498 0.929 . S
H485 C499 0.931 . S
H486 C501 0.930 . S
C487 H475 0.930 . S
C487 C488 1.399 1_554 S
C487 C492 1.399 . S
C488 C487 1.399 1_556 S
C488 C489 1.376 . S
C489 H476 0.930 . S
C489 C488 1.376 . S
C489 C490 1.388 . S
C490 H477 0.930 . S
C490 C489 1.388 . S
C490 C491 1.390 . S
C491 C490 1.390 . S
C491 C492 1.394 1_556 S
C491 C497 1.465 . S
C492 C487 1.399 . S
C492 C491 1.394 1_554 S
C492 C493 1.516 . S
C493 C492 1.516 . S
C493 C494 1.502 . S
C493 C495 1.561 . S
C493 C496 1.526 . S
C494 H478 0.959 . S
C494 H479 0.959 . S
C494 H480 0.961 . S
C494 C493 1.502 . S
C495 H481 0.960 . S
C495 H482 0.961 . S
C495 H483 0.959 . S
C495 C493 1.561 . S
C496 C493 1.526 . S
C496 C497 1.396 1_554 S
C496 C501 1.390 . S
C497 C491 1.465 . S
C497 C496 1.396 1_556 S
C497 C498 1.399 . S
C498 H484 0.929 . S
C498 C497 1.399 . S
C498 C499 1.385 . S
C499 H485 0.931 . S
C499 C498 1.385 . S
C499 C500 1.389 . S
C500 C499 1.389 . S
C500 C501 1.387 1_556 S
C501 H486 0.930 . S
C501 C496 1.390 . S
C501 C500 1.387 1_554 S
H502 C514 0.930 . S
H503 C516 0.930 . S
H504 C517 0.930 . S
H505 C521 0.959 . S
H506 C521 0.959 . S
H507 C521 0.961 . S
H508 C522 0.960 . S
H509 C522 0.961 . S
H510 C522 0.959 . S
H511 C525 0.929 . S
H512 C526 0.931 . S
H513 C528 0.930 . S
C514 H502 0.930 . S
C514 C515 1.399 1_556 S
C514 C519 1.399 . S
C515 C514 1.399 1_554 S
C515 C516 1.376 . S
C516 H503 0.930 . S
C516 C515 1.376 . S
C516 C517 1.388 . S
C517 H504 0.930 . S
C517 C516 1.388 . S
C517 C518 1.390 . S
C518 C517 1.390 . S
C518 C519 1.394 1_554 S
C518 C524 1.465 . S
C519 C514 1.399 . S
C519 C518 1.394 1_556 S
C519 C520 1.516 . S
C520 C519 1.516 . S
C520 C521 1.502 . S
C520 C522 1.561 . S
C520 C523 1.526 . S
C521 H505 0.959 . S
C521 H506 0.959 . S
C521 H507 0.961 . S
C521 C520 1.502 . S
C522 H508 0.960 . S
C522 H509 0.961 . S
C522 H510 0.959 . S
C522 C520 1.561 . S
C523 C520 1.526 . S
C523 C524 1.396 1_556 S
C523 C528 1.390 . S
C524 C518 1.465 . S
C524 C523 1.396 1_554 S
C524 C525 1.399 . S
C525 H511 0.929 . S
C525 C524 1.399 . S
C525 C526 1.385 . S
C526 H512 0.931 . S
C526 C525 1.385 . S
C526 C527 1.389 . S
C527 C526 1.389 . S
C527 C528 1.387 1_554 S
C528 H513 0.930 . S
C528 C523 1.390 . S
C528 C527 1.387 1_556 S
H529 C541 0.930 . S
H530 C543 0.930 . S
H531 C544 0.930 . S
H532 C548 0.959 . S
H533 C548 0.959 . S
H534 C548 0.961 . S
H535 C549 0.960 . S
H536 C549 0.961 . S
H537 C549 0.959 . S
H538 C552 0.929 . S
H539 C553 0.931 . S
H540 C555 0.930 . S
C541 H529 0.930 . S
C541 C542 1.399 1_556 S
C541 C546 1.399 . S
C542 C541 1.399 1_554 S
C542 C543 1.376 . S
C543 H530 0.930 . S
C543 C542 1.376 . S
C543 C544 1.388 . S
C544 H531 0.930 . S
C544 C543 1.388 . S
C544 C545 1.390 . S
C545 C544 1.390 . S
C545 C546 1.394 1_554 S
C545 C551 1.465 . S
C546 C541 1.399 . S
C546 C545 1.394 1_556 S
C546 C547 1.516 . S
C547 C546 1.516 . S
C547 C548 1.502 . S
C547 C549 1.561 . S
C547 C550 1.526 . S
C548 H532 0.959 . S
C548 H533 0.959 . S
C548 H534 0.961 . S
C548 C547 1.502 . S
C549 H535 0.960 . S
C549 H536 0.961 . S
C549 H537 0.959 . S
C549 C547 1.561 . S
C550 C547 1.526 . S
C550 C551 1.396 1_556 S
C550 C555 1.390 . S
C551 C545 1.465 . S
C551 C550 1.396 1_554 S
C551 C552 1.399 . S
C552 H538 0.929 . S
C552 C551 1.399 . S
C552 C553 1.385 . S
C553 H539 0.931 . S
C553 C552 1.385 . S
C553 C554 1.389 . S
C554 C553 1.389 . S
C554 C555 1.387 1_554 S
C555 H540 0.930 . S
C555 C550 1.390 . S
C555 C554 1.387 1_556 S
H556 C568 0.930 . S
H557 C570 0.930 . S
H558 C571 0.930 . S
H559 C575 0.959 . S
H560 C575 0.959 . S
H561 C575 0.961 . S
H562 C576 0.960 . S
H563 C576 0.961 . S
H564 C576 0.959 . S
H565 C579 0.929 . S
H566 C580 0.931 . S
H567 C582 0.930 . S
C568 H556 0.930 . S
C568 C569 1.399 . S
C568 C573 1.399 . S
C569 C568 1.399 . S
C569 C570 1.376 . S
C570 H557 0.930 . S
C570 C569 1.376 . S
C570 C571 1.388 . S
C571 H558 0.930 . S
C571 C570 1.388 . S
C571 C572 1.390 . S
C572 C571 1.390 . S
C572 C573 1.394 . S
C572 C578 1.465 . S
C573 C568 1.399 . S
C573 C572 1.394 . S
C573 C574 1.516 . S
C574 C573 1.516 . S
C574 C575 1.502 . S
C574 C576 1.561 . S
C574 C577 1.526 . S
C575 H559 0.959 . S
C575 H560 0.959 . S
C575 H561 0.961 . S
C575 C574 1.502 . S
C576 H562 0.960 . S
C576 H563 0.961 . S
C576 H564 0.959 . S
C576 C574 1.561 . S
C577 C574 1.526 . S
C577 C578 1.396 . S
C577 C582 1.390 . S
C578 C572 1.465 . S
C578 C577 1.396 . S
C578 C579 1.399 . S
C579 H565 0.929 . S
C579 C578 1.399 . S
C579 C580 1.385 . S
C580 H566 0.931 . S
C580 C579 1.385 . S
C580 C581 1.389 . S
C581 C580 1.389 . S
C581 C582 1.387 . S
C582 H567 0.930 . S
C582 C577 1.390 . S
C582 C581 1.387 . S
H583 C595 0.930 . S
H584 C597 0.930 . S
H585 C598 0.930 . S
H586 C602 0.959 . S
H587 C602 0.959 . S
H588 C602 0.961 . S
H589 C603 0.960 . S
H590 C603 0.961 . S
H591 C603 0.959 . S
H592 C606 0.929 . S
H593 C607 0.931 . S
H594 C609 0.930 . S
C595 H583 0.930 . S
C595 C596 1.399 . S
C595 C600 1.399 . S
C596 C595 1.399 . S
C596 C597 1.376 . S
C597 H584 0.930 . S
C597 C596 1.376 . S
C597 C598 1.388 . S
C598 H585 0.930 . S
C598 C597 1.388 . S
C598 C599 1.390 . S
C599 C598 1.390 . S
C599 C600 1.394 . S
C599 C605 1.465 . S
C600 C595 1.399 . S
C600 C599 1.394 . S
C600 C601 1.516 . S
C601 C600 1.516 . S
C601 C602 1.502 . S
C601 C603 1.561 . S
C601 C604 1.526 . S
C602 H586 0.959 . S
C602 H587 0.959 . S
C602 H588 0.961 . S
C602 C601 1.502 . S
C603 H589 0.960 . S
C603 H590 0.961 . S
C603 H591 0.959 . S
C603 C601 1.561 . S
C604 C601 1.526 . S
C604 C605 1.396 . S
C604 C609 1.390 . S
C605 C599 1.465 . S
C605 C604 1.396 . S
C605 C606 1.399 . S
C606 H592 0.929 . S
C606 C605 1.399 . S
C606 C607 1.385 . S
C607 H593 0.931 . S
C607 C606 1.385 . S
C607 C608 1.389 . S
C608 C607 1.389 . S
C608 C609 1.387 . S
C609 H594 0.930 . S
C609 C604 1.390 . S
C609 C608 1.387 . S
H610 C622 0.930 . S
H611 C624 0.930 . S
H612 C625 0.930 . S
H613 C629 0.959 . S
H614 C629 0.959 . S
H615 C629 0.961 . S
H616 C630 0.960 . S
H617 C630 0.961 . S
H618 C630 0.959 . S
H619 C633 0.929 . S
H620 C634 0.931 . S
H621 C636 0.930 . S
C622 H610 0.930 . S
C622 C623 1.399 . S
C622 C627 1.399 . S
C623 C622 1.399 . S
C623 C624 1.376 . S
C624 H611 0.930 . S
C624 C623 1.376 . S
C624 C625 1.388 . S
C625 H612 0.930 . S
C625 C624 1.388 . S
C625 C626 1.390 . S
C626 C625 1.390 . S
C626 C627 1.394 . S
C626 C632 1.465 . S
C627 C622 1.399 . S
C627 C626 1.394 . S
C627 C628 1.516 . S
C628 C627 1.516 . S
C628 C629 1.502 . S
C628 C630 1.561 . S
C628 C631 1.526 . S
C629 H613 0.959 . S
C629 H614 0.959 . S
C629 H615 0.961 . S
C629 C628 1.502 . S
C630 H616 0.960 . S
C630 H617 0.961 . S
C630 H618 0.959 . S
C630 C628 1.561 . S
C631 C628 1.526 . S
C631 C632 1.396 . S
C631 C636 1.390 . S
C632 C626 1.465 . S
C632 C631 1.396 . S
C632 C633 1.399 . S
C633 H619 0.929 . S
C633 C632 1.399 . S
C633 C634 1.385 . S
C634 H620 0.931 . S
C634 C633 1.385 . S
C634 C635 1.389 . S
C635 C634 1.389 . S
C635 C636 1.387 . S
C636 H621 0.930 . S
C636 C631 1.390 . S
C636 C635 1.387 . S
H637 C649 0.930 . S
H638 C651 0.930 . S
H639 C652 0.930 . S
H640 C656 0.959 . S
H641 C656 0.959 . S
H642 C656 0.961 . S
H643 C657 0.960 . S
H644 C657 0.961 . S
H645 C657 0.959 . S
H646 C660 0.929 . S
H647 C661 0.931 . S
H648 C663 0.930 . S
C649 H637 0.930 . S
C649 C650 1.399 . S
C649 C654 1.399 . S
C650 C649 1.399 . S
C650 C651 1.376 . S
C651 H638 0.930 . S
C651 C650 1.376 . S
C651 C652 1.388 . S
C652 H639 0.930 . S
C652 C651 1.388 . S
C652 C653 1.390 . S
C653 C652 1.390 . S
C653 C654 1.394 . S
C653 C659 1.465 . S
C654 C649 1.399 . S
C654 C653 1.394 . S
C654 C655 1.516 . S
C655 C654 1.516 . S
C655 C656 1.502 . S
C655 C657 1.561 . S
C655 C658 1.526 . S
C656 H640 0.959 . S
C656 H641 0.959 . S
C656 H642 0.961 . S
C656 C655 1.502 . S
C657 H643 0.960 . S
C657 H644 0.961 . S
C657 H645 0.959 . S
C657 C655 1.561 . S
C658 C655 1.526 . S
C658 C659 1.396 . S
C658 C663 1.390 . S
C659 C653 1.465 . S
C659 C658 1.396 . S
C659 C660 1.399 . S
C660 H646 0.929 . S
C660 C659 1.399 . S
C660 C661 1.385 . S
C661 H647 0.931 . S
C661 C660 1.385 . S
C661 C662 1.389 . S
C662 C661 1.389 . S
C662 C663 1.387 . S
C663 H648 0.930 . S
C663 C658 1.390 . S
C663 C662 1.387 . S
H664 C676 0.930 . S
H665 C678 0.930 . S
H666 C679 0.930 . S
H667 C683 0.959 . S
H668 C683 0.959 . S
H669 C683 0.961 . S
H670 C684 0.960 . S
H671 C684 0.961 . S
H672 C684 0.959 . S
H673 C687 0.929 . S
H674 C688 0.931 . S
H675 C690 0.930 . S
C676 H664 0.930 . S
C676 C677 1.399 . S
C676 C681 1.399 . S
C677 C676 1.399 . S
C677 C678 1.376 . S
C678 H665 0.930 . S
C678 C677 1.376 . S
C678 C679 1.388 . S
C679 H666 0.930 . S
C679 C678 1.388 . S
C679 C680 1.390 . S
C680 C679 1.390 . S
C680 C681 1.394 . S
C680 C686 1.465 . S
C681 C676 1.399 . S
C681 C680 1.394 . S
C681 C682 1.516 . S
C682 C681 1.516 . S
C682 C683 1.502 . S
C682 C684 1.561 . S
C682 C685 1.526 . S
C683 H667 0.959 . S
C683 H668 0.959 . S
C683 H669 0.961 . S
C683 C682 1.502 . S
C684 H670 0.960 . S
C684 H671 0.961 . S
C684 H672 0.959 . S
C684 C682 1.561 . S
C685 C682 1.526 . S
C685 C686 1.396 . S
C685 C690 1.390 . S
C686 C680 1.465 . S
C686 C685 1.396 . S
C686 C687 1.399 . S
C687 H673 0.929 . S
C687 C686 1.399 . S
C687 C688 1.385 . S
C688 H674 0.931 . S
C688 C687 1.385 . S
C688 C689 1.389 . S
C689 C688 1.389 . S
C689 C690 1.387 . S
C690 H675 0.930 . S
C690 C685 1.390 . S
C690 C689 1.387 . S
H691 C703 0.930 . S
H692 C705 0.930 . S
H693 C706 0.930 . S
H694 C710 0.959 . S
H695 C710 0.959 . S
H696 C710 0.961 . S
H697 C711 0.960 . S
H698 C711 0.961 . S
H699 C711 0.959 . S
H700 C714 0.929 . S
H701 C715 0.931 . S
H702 C717 0.930 . S
C703 H691 0.930 . S
C703 C704 1.399 . S
C703 C708 1.399 . S
C704 C703 1.399 . S
C704 C705 1.376 . S
C705 H692 0.930 . S
C705 C704 1.376 . S
C705 C706 1.388 . S
C706 H693 0.930 . S
C706 C705 1.388 . S
C706 C707 1.390 . S
C707 C706 1.390 . S
C707 C708 1.394 . S
C707 C713 1.465 . S
C708 C703 1.399 . S
C708 C707 1.394 . S
C708 C709 1.516 . S
C709 C708 1.516 . S
C709 C710 1.502 . S
C709 C711 1.561 . S
C709 C712 1.526 . S
C710 H694 0.959 . S
C710 H695 0.959 . S
C710 H696 0.961 . S
C710 C709 1.502 . S
C711 H697 0.960 . S
C711 H698 0.961 . S
C711 H699 0.959 . S
C711 C709 1.561 . S
C712 C709 1.526 . S
C712 C713 1.396 . S
C712 C717 1.390 . S
C713 C707 1.465 . S
C713 C712 1.396 . S
C713 C714 1.399 . S
C714 H700 0.929 . S
C714 C713 1.399 . S
C714 C715 1.385 . S
C715 H701 0.931 . S
C715 C714 1.385 . S
C715 C716 1.389 . S
C716 C715 1.389 . S
C716 C717 1.387 . S
C717 H702 0.930 . S
C717 C712 1.390 . S
C717 C716 1.387 . S
H718 C730 0.930 . S
H719 C732 0.930 . S
H720 C733 0.930 . S
H721 C737 0.959 . S
H722 C737 0.959 . S
H723 C737 0.961 . S
H724 C738 0.960 . S
H725 C738 0.961 . S
H726 C738 0.959 . S
H727 C741 0.929 . S
H728 C742 0.931 . S
H729 C744 0.930 . S
C730 H718 0.930 . S
C730 C731 1.399 . S
C730 C735 1.399 . S
C731 C730 1.399 . S
C731 C732 1.376 . S
C732 H719 0.930 . S
C732 C731 1.376 . S
C732 C733 1.388 . S
C733 H720 0.930 . S
C733 C732 1.388 . S
C733 C734 1.390 . S
C734 C733 1.390 . S
C734 C735 1.394 . S
C734 C740 1.465 . S
C735 C730 1.399 . S
C735 C734 1.394 . S
C735 C736 1.516 . S
C736 C735 1.516 . S
C736 C737 1.502 . S
C736 C738 1.561 . S
C736 C739 1.526 . S
C737 H721 0.959 . S
C737 H722 0.959 . S
C737 H723 0.961 . S
C737 C736 1.502 . S
C738 H724 0.960 . S
C738 H725 0.961 . S
C738 H726 0.959 . S
C738 C736 1.561 . S
C739 C736 1.526 . S
C739 C740 1.396 . S
C739 C744 1.390 . S
C740 C734 1.465 . S
C740 C739 1.396 . S
C740 C741 1.399 . S
C741 H727 0.929 . S
C741 C740 1.399 . S
C741 C742 1.385 . S
C742 H728 0.931 . S
C742 C741 1.385 . S
C742 C743 1.389 . S
C743 C742 1.389 . S
C743 C744 1.387 . S
C744 H729 0.930 . S
C744 C739 1.390 . S
C744 C743 1.387 . S
H745 C757 0.930 . S
H746 C759 0.930 . S
H747 C760 0.930 . S
H748 C764 0.959 . S
H749 C764 0.959 . S
H750 C764 0.961 . S
H751 C765 0.960 . S
H752 C765 0.961 . S
H753 C765 0.959 . S
H754 C768 0.929 . S
H755 C769 0.931 . S
H756 C771 0.930 . S
C757 H745 0.930 . S
C757 C758 1.399 . S
C757 C762 1.399 . S
C758 C757 1.399 . S
C758 C759 1.376 . S
C759 H746 0.930 . S
C759 C758 1.376 . S
C759 C760 1.388 . S
C760 H747 0.930 . S
C760 C759 1.388 . S
C760 C761 1.390 . S
C761 C760 1.390 . S
C761 C762 1.394 . S
C761 C767 1.465 . S
C762 C757 1.399 . S
C762 C761 1.394 . S
C762 C763 1.516 . S
C763 C762 1.516 . S
C763 C764 1.502 . S
C763 C765 1.561 . S
C763 C766 1.526 . S
C764 H748 0.959 . S
C764 H749 0.959 . S
C764 H750 0.961 . S
C764 C763 1.502 . S
C765 H751 0.960 . S
C765 H752 0.961 . S
C765 H753 0.959 . S
C765 C763 1.561 . S
C766 C763 1.526 . S
C766 C767 1.396 . S
C766 C771 1.390 . S
C767 C761 1.465 . S
C767 C766 1.396 . S
C767 C768 1.399 . S
C768 H754 0.929 . S
C768 C767 1.399 . S
C768 C769 1.385 . S
C769 H755 0.931 . S
C769 C768 1.385 . S
C769 C770 1.389 . S
C770 C769 1.389 . S
C770 C771 1.387 . S
C771 H756 0.930 . S
C771 C766 1.390 . S
C771 C770 1.387 . S
H772 C784 0.930 . S
H773 C786 0.930 . S
H774 C787 0.930 . S
H775 C791 0.959 . S
H776 C791 0.959 . S
H777 C791 0.961 . S
H778 C792 0.960 . S
H779 C792 0.961 . S
H780 C792 0.959 . S
H781 C795 0.929 . S
H782 C796 0.931 . S
H783 C798 0.930 . S
C784 H772 0.930 . S
C784 C785 1.399 . S
C784 C789 1.399 . S
C785 C784 1.399 . S
C785 C786 1.376 . S
C786 H773 0.930 . S
C786 C785 1.376 . S
C786 C787 1.388 . S
C787 H774 0.930 . S
C787 C786 1.388 . S
C787 C788 1.390 . S
C788 C787 1.390 . S
C788 C789 1.394 . S
C788 C794 1.465 . S
C789 C784 1.399 . S
C789 C788 1.394 . S
C789 C790 1.516 . S
C790 C789 1.516 . S
C790 C791 1.502 . S
C790 C792 1.561 . S
C790 C793 1.526 . S
C791 H775 0.959 . S
C791 H776 0.959 . S
C791 H777 0.961 . S
C791 C790 1.502 . S
C792 H778 0.960 . S
C792 H779 0.961 . S
C792 H780 0.959 . S
C792 C790 1.561 . S
C793 C790 1.526 . S
C793 C794 1.396 . S
C793 C798 1.390 . S
C794 C788 1.465 . S
C794 C793 1.396 . S
C794 C795 1.399 . S
C795 H781 0.929 . S
C795 C794 1.399 . S
C795 C796 1.385 . S
C796 H782 0.931 . S
C796 C795 1.385 . S
C796 C797 1.389 . S
C797 C796 1.389 . S
C797 C798 1.387 . S
C798 H783 0.930 . S
C798 C793 1.390 . S
C798 C797 1.387 . S
H799 C811 0.930 . S
H800 C813 0.930 . S
H801 C814 0.930 . S
H802 C818 0.959 . S
H803 C818 0.959 . S
H804 C818 0.961 . S
H805 C819 0.960 . S
H806 C819 0.961 . S
H807 C819 0.959 . S
H808 C822 0.929 . S
H809 C823 0.931 . S
H810 C825 0.930 . S
C811 H799 0.930 . S
C811 C812 1.399 . S
C811 C816 1.399 . S
C812 C811 1.399 . S
C812 C813 1.376 . S
C813 H800 0.930 . S
C813 C812 1.376 . S
C813 C814 1.388 . S
C814 H801 0.930 . S
C814 C813 1.388 . S
C814 C815 1.390 . S
C815 C814 1.390 . S
C815 C816 1.394 . S
C815 C821 1.465 . S
C816 C811 1.399 . S
C816 C815 1.394 . S
C816 C817 1.516 . S
C817 C816 1.516 . S
C817 C818 1.502 . S
C817 C819 1.561 . S
C817 C820 1.526 . S
C818 H802 0.959 . S
C818 H803 0.959 . S
C818 H804 0.961 . S
C818 C817 1.502 . S
C819 H805 0.960 . S
C819 H806 0.961 . S
C819 H807 0.959 . S
C819 C817 1.561 . S
C820 C817 1.526 . S
C820 C821 1.396 . S
C820 C825 1.390 . S
C821 C815 1.465 . S
C821 C820 1.396 . S
C821 C822 1.399 . S
C822 H808 0.929 . S
C822 C821 1.399 . S
C822 C823 1.385 . S
C823 H809 0.931 . S
C823 C822 1.385 . S
C823 C824 1.389 . S
C824 C823 1.389 . S
C824 C825 1.387 . S
C825 H810 0.930 . S
C825 C820 1.390 . S
C825 C824 1.387 . S
H826 C838 0.930 . S
H827 C840 0.930 . S
H828 C841 0.930 . S
H829 C845 0.959 . S
H830 C845 0.959 . S
H831 C845 0.961 . S
H832 C846 0.960 . S
H833 C846 0.961 . S
H834 C846 0.959 . S
H835 C849 0.929 . S
H836 C850 0.931 . S
H837 C852 0.930 . S
C838 H826 0.930 . S
C838 C839 1.399 . S
C838 C843 1.399 . S
C839 C838 1.399 . S
C839 C840 1.376 . S
C840 H827 0.930 . S
C840 C839 1.376 . S
C840 C841 1.388 . S
C841 H828 0.930 . S
C841 C840 1.388 . S
C841 C842 1.390 . S
C842 C841 1.390 . S
C842 C843 1.394 . S
C842 C848 1.465 . S
C843 C838 1.399 . S
C843 C842 1.394 . S
C843 C844 1.516 . S
C844 C843 1.516 . S
C844 C845 1.502 . S
C844 C846 1.561 . S
C844 C847 1.526 . S
C845 H829 0.959 . S
C845 H830 0.959 . S
C845 H831 0.961 . S
C845 C844 1.502 . S
C846 H832 0.960 . S
C846 H833 0.961 . S
C846 H834 0.959 . S
C846 C844 1.561 . S
C847 C844 1.526 . S
C847 C848 1.396 . S
C847 C852 1.390 . S
C848 C842 1.465 . S
C848 C847 1.396 . S
C848 C849 1.399 . S
C849 H835 0.929 . S
C849 C848 1.399 . S
C849 C850 1.385 . S
C850 H836 0.931 . S
C850 C849 1.385 . S
C850 C851 1.389 . S
C851 C850 1.389 . S
C851 C852 1.387 . S
C852 H837 0.930 . S
C852 C847 1.390 . S
C852 C851 1.387 . S
H853 C865 0.930 . S
H854 C867 0.930 . S
H855 C868 0.930 . S
H856 C872 0.959 . S
H857 C872 0.959 . S
H858 C872 0.961 . S
H859 C873 0.960 . S
H860 C873 0.961 . S
H861 C873 0.959 . S
H862 C876 0.929 . S
H863 C877 0.931 . S
H864 C879 0.930 . S
C865 H853 0.930 . S
C865 C866 1.399 . S
C865 C870 1.399 . S
C866 C865 1.399 . S
C866 C867 1.376 . S
C867 H854 0.930 . S
C867 C866 1.376 . S
C867 C868 1.388 . S
C868 H855 0.930 . S
C868 C867 1.388 . S
C868 C869 1.390 . S
C869 C868 1.390 . S
C869 C870 1.394 . S
C869 C875 1.465 . S
C870 C865 1.399 . S
C870 C869 1.394 . S
C870 C871 1.516 . S
C871 C870 1.516 . S
C871 C872 1.502 . S
C871 C873 1.561 . S
C871 C874 1.526 . S
C872 H856 0.959 . S
C872 H857 0.959 . S
C872 H858 0.961 . S
C872 C871 1.502 . S
C873 H859 0.960 . S
C873 H860 0.961 . S
C873 H861 0.959 . S
C873 C871 1.561 . S
C874 C871 1.526 . S
C874 C875 1.396 . S
C874 C879 1.390 . S
C875 C869 1.465 . S
C875 C874 1.396 . S
C875 C876 1.399 . S
C876 H862 0.929 . S
C876 C875 1.399 . S
C876 C877 1.385 . S
C877 H863 0.931 . S
C877 C876 1.385 . S
C877 C878 1.389 . S
C878 C877 1.389 . S
C878 C879 1.387 . S
C879 H864 0.930 . S
C879 C874 1.390 . S
C879 C878 1.387 . S
C245 C51 1.493 1_655 S
C257 C108 1.489 1_655 S
C272 C56 1.493 . S
C284 C173 1.493 . S
C299 C53 1.493 1_655 S
C311 C110 1.493 1_655 S
C326 C170 1.493 . S
C338 C55 1.489 . S
C353 C50 1.493 . S
C365 C109 1.497 . S
C380 C57 1.493 1_565 S
C392 C172 1.493 1_565 S
C407 C111 1.493 1_655 S
C419 C52 1.493 1_655 S
C434 C171 1.493 1_565 S
C446 C54 1.497 1_565 S
C461 C220 1.493 1_556 S
C473 C47 1.489 1_556 S
C488 C223 1.493 1_556 S
C500 C48 1.493 1_556 S
C515 C222 1.493 . S
C527 C49 1.493 . S
C542 C46 1.493 . S
C554 C221 1.497 . S
C569 C231 1.493 . S
C581 C114 1.497 . S
C596 C113 1.493 . S
C608 C228 1.493 . S
C623 C115 1.493 . S
C635 C230 1.489 . S
C650 C229 1.493 . S
C662 C112 1.493 . S
C677 C162 1.493 . S
C689 C105 1.493 . S
C704 C106 1.493 . S
C716 C165 1.489 . S
C731 C107 1.493 . S
C743 C164 1.497 . S
C758 C163 1.493 . S
C770 C104 1.493 . S
C785 C224 1.493 . S
C797 C167 1.493 . S
C812 C169 1.493 . S
C824 C226 1.497 . S
C839 C225 1.493 . S
C851 C166 1.493 . S
C866 C168 1.493 . S
C878 C227 1.489 . S
