# Generated by pormake.
# Topology ecn, (8)-cn, num edge types: 1
# Building blocks:
#     Node 0, Type 0, BuildingBlock: AJUNOK_clean_sbu_0, # of connection points: 8
#     Node 1, Type 0, BuildingBlock: AJUNOK_clean_sbu_0, # of connection points: 8
#     Node 2, Type 0, BuildingBlock: AJUNOK_clean_sbu_0, # of connection points: 8
#     Node 3, Type 0, BuildingBlock: AJUNOK_clean_sbu_0, # of connection points: 8
#     Node 4, Type 0, BuildingBlock: AJUNOK_clean_sbu_0, # of connection points: 8
#     Node 5, Type 0, BuildingBlock: AJUNOK_clean_sbu_0, # of connection points: 8
#     Node 6, Type 0, BuildingBlock: AJUNOK_clean_sbu_0, # of connection points: 8
#     Node 7, Type 0, BuildingBlock: AJUNOK_clean_sbu_0, # of connection points: 8
#     Node 8, Type 0, BuildingBlock: AJUNOK_clean_sbu_0, # of connection points: 8
#     Edge 9, Type (0, 0), BuildingBlock: XIVTED_clean_linker_0, # of connection points: 2
#     Edge 10, Type (0, 0), BuildingBlock: XIVTED_clean_linker_0, # of connection points: 2
#     Edge 11, Type (0, 0), BuildingBlock: XIVTED_clean_linker_0, # of connection points: 2
#     Edge 12, Type (0, 0), BuildingBlock: XIVTED_clean_linker_0, # of connection points: 2
#     Edge 13, Type (0, 0), BuildingBlock: XIVTED_clean_linker_0, # of connection points: 2
#     Edge 14, Type (0, 0), BuildingBlock: XIVTED_clean_linker_0, # of connection points: 2
#     Edge 15, Type (0, 0), BuildingBlock: XIVTED_clean_linker_0, # of connection points: 2
#     Edge 16, Type (0, 0), BuildingBlock: XIVTED_clean_linker_0, # of connection points: 2
#     Edge 17, Type (0, 0), BuildingBlock: XIVTED_clean_linker_0, # of connection points: 2
#     Edge 18, Type (0, 0), BuildingBlock: XIVTED_clean_linker_0, # of connection points: 2
#     Edge 19, Type (0, 0), BuildingBlock: XIVTED_clean_linker_0, # of connection points: 2
#     Edge 20, Type (0, 0), BuildingBlock: XIVTED_clean_linker_0, # of connection points: 2
#     Edge 21, Type (0, 0), BuildingBlock: XIVTED_clean_linker_0, # of connection points: 2
#     Edge 22, Type (0, 0), BuildingBlock: XIVTED_clean_linker_0, # of connection points: 2
#     Edge 23, Type (0, 0), BuildingBlock: XIVTED_clean_linker_0, # of connection points: 2
#     Edge 24, Type (0, 0), BuildingBlock: XIVTED_clean_linker_0, # of connection points: 2
#     Edge 25, Type (0, 0), BuildingBlock: XIVTED_clean_linker_0, # of connection points: 2
#     Edge 26, Type (0, 0), BuildingBlock: XIVTED_clean_linker_0, # of connection points: 2
#     Edge 27, Type (0, 0), BuildingBlock: XIVTED_clean_linker_0, # of connection points: 2
#     Edge 28, Type (0, 0), BuildingBlock: XIVTED_clean_linker_0, # of connection points: 2
#     Edge 29, Type (0, 0), BuildingBlock: XIVTED_clean_linker_0, # of connection points: 2
#     Edge 30, Type (0, 0), BuildingBlock: XIVTED_clean_linker_0, # of connection points: 2
#     Edge 31, Type (0, 0), BuildingBlock: XIVTED_clean_linker_0, # of connection points: 2
#     Edge 32, Type (0, 0), BuildingBlock: XIVTED_clean_linker_0, # of connection points: 2
#     Edge 33, Type (0, 0), BuildingBlock: XIVTED_clean_linker_0, # of connection points: 2
#     Edge 34, Type (0, 0), BuildingBlock: XIVTED_clean_linker_0, # of connection points: 2
#     Edge 35, Type (0, 0), BuildingBlock: XIVTED_clean_linker_0, # of connection points: 2
#     Edge 36, Type (0, 0), BuildingBlock: XIVTED_clean_linker_0, # of connection points: 2
#     Edge 37, Type (0, 0), BuildingBlock: XIVTED_clean_linker_0, # of connection points: 2
#     Edge 38, Type (0, 0), BuildingBlock: XIVTED_clean_linker_0, # of connection points: 2
#     Edge 39, Type (0, 0), BuildingBlock: XIVTED_clean_linker_0, # of connection points: 2
#     Edge 40, Type (0, 0), BuildingBlock: XIVTED_clean_linker_0, # of connection points: 2
#     Edge 41, Type (0, 0), BuildingBlock: XIVTED_clean_linker_0, # of connection points: 2
#     Edge 42, Type (0, 0), BuildingBlock: XIVTED_clean_linker_0, # of connection points: 2
#     Edge 43, Type (0, 0), BuildingBlock: XIVTED_clean_linker_0, # of connection points: 2
#     Edge 44, Type (0, 0), BuildingBlock: XIVTED_clean_linker_0, # of connection points: 2
# Relax obj value: 0.189
# Max RMSD: 0.205
# Mean RMSD: 0.205
data_MOF--net-ecn--node1-AJUNOK_clean_sbu_0--edge1-XIVTED_clean_linker_0
_symmetry_space_group_name_H-M    P1
_symmetry_Int_Tables_number       1
_symmetry_cell_setting            triclinic
loop_
_symmetry_equiv_pos_as_xyz
'x, y, z'
_cell_length_a     59.663286
_cell_length_b     59.710288
_cell_length_c     14.068756
_cell_angle_alpha  90.414615
_cell_angle_beta   89.485394
_cell_angle_gamma 119.81921
loop_
_atom_site_label
_atom_site_type_symbol
_atom_site_fract_x
_atom_site_fract_y
_atom_site_fract_z
_atom_type_partial_charge
Cd0 Cd 0.11351 0.18607 -0.01856 0.0
Cd1 Cd 0.11718 0.2653 0.87875 0.0
C2 C 0.05244 0.15951 -0.03399 0.0
N3 N 0.07058 0.16499 0.03361 0.0
C4 C 0.03782 0.13974 0.14775 0.0
C5 C 0.01867 0.13287 0.07831 0.0
C6 C 0.0263 0.1435 -0.01314 0.0
C7 C 0.06379 0.15559 0.12343 0.0
H8 H 0.05839 0.16672 0.89457 0.0
H9 H 0.07846 0.15933 0.1754 0.0
C10 C 0.11604 0.24364 0.08187 0.0
C11 C 0.17747 0.29029 0.91834 0.0
C12 C 0.20375 0.30116 0.89724 0.0
C13 C 0.21154 0.29613 0.80867 0.0
C14 C 0.19241 0.2789 0.74597 0.0
C15 C 0.16641 0.2689 0.76925 0.0
N16 N 0.15952 0.27503 0.85356 0.0
H17 H 0.17139 0.29526 -0.016 0.0
H18 H 0.15183 0.25726 0.71809 0.0
C19 C 0.05866 0.22149 0.92705 0.0
N20 N 0.07219 0.24408 0.87915 0.0
C21 C 0.0337 0.24603 0.85308 0.0
C22 C 0.01933 0.22329 0.90591 0.0
C23 C 0.03205 0.21059 0.94085 0.0
C24 C 0.06022 0.25615 0.84069 0.0
H25 H 0.06871 0.21253 0.95806 0.0
H26 H 0.07141 0.27432 0.80432 0.0
C27 C 0.10762 0.20552 0.7768 0.0
C28 C 0.12366 0.1457 0.02382 0.0
N29 N 0.15637 0.21617 0.01182 0.0
C30 C 0.1721 0.22806 0.9363 0.0
C31 C 0.19868 0.24376 0.94924 0.0
C32 C 0.2091 0.24738 0.04095 0.0
C33 C 0.19217 0.23519 0.11773 0.0
C34 C 0.16584 0.21936 0.10134 0.0
C35 C 0.12587 0.31164 0.79128 0.0
O36 O 0.11589 0.2279 0.02007 0.0
O37 O 0.11776 0.26451 0.05233 0.0
O38 O 0.1111 0.2229 0.83657 0.0
O39 O 0.10725 0.18543 0.80787 0.0
O40 O 0.11777 0.15669 0.08949 0.0
O41 O 0.12488 0.15369 0.93928 0.0
O42 O 0.11889 0.29124 0.74222 0.0
O43 O 0.12857 0.31022 0.88022 0.0
H44 H 0.16409 0.22449 0.86553 0.0
H45 H 0.15325 0.20864 0.15958 0.0
H46 H 0.03293 0.13223 0.21936 0.0
H47 H 0.01243 0.13843 0.93018 0.0
H48 H 0.21766 0.31459 0.94745 0.0
H49 H 0.19741 0.27409 0.67763 0.0
H50 H 0.02491 0.25679 0.82625 0.0
H51 H 0.02174 0.1929 -0.0188 0.0
H52 H 0.21098 0.25236 0.8878 0.0
H53 H 0.19929 0.23646 0.18921 0.0
Cd54 Cd 0.81058 0.9224 0.00344 0.0
Cd55 Cd 0.73169 0.8476 0.90376 0.0
C56 C 0.8382 0.88874 -0.01915 0.0
N57 N 0.83132 0.90004 0.05053 0.0
C58 C 0.85473 0.8907 0.16569 0.0
C59 C 0.86295 0.87972 0.09448 0.0
C60 C 0.85399 0.87834 0.00131 0.0
C61 C 0.83905 0.90103 0.14185 0.0
H62 H 0.83222 0.88868 0.90849 0.0
H63 H 0.83408 0.91084 0.19558 0.0
C64 C 0.7539 0.8674 0.10637 0.0
C65 C 0.71581 0.88942 -0.02752 0.0
C66 C 0.70571 0.90597 -0.03547 0.0
C67 C 0.70168 0.91324 0.87399 0.0
C68 C 0.70914 0.90419 0.79365 0.0
C69 C 0.71941 0.88791 0.80505 0.0
N70 N 0.72212 0.88057 0.89325 0.0
H71 H 0.71782 0.883 0.04184 0.0
H72 H 0.72402 0.88003 0.74332 0.0
C73 C 0.77625 0.83321 0.93948 0.0
N74 N 0.75307 0.824 0.89589 0.0
C75 C 0.75142 0.78394 0.86252 0.0
C76 C 0.77484 0.79247 0.91078 0.0
C77 C 0.78765 0.81778 0.94722 0.0
C78 C 0.74082 0.80008 0.85601 0.0
H79 H 0.78535 0.85214 -0.02839 0.0
H80 H 0.72222 0.79305 0.82297 0.0
C81 C 0.79124 0.89755 0.80047 0.0
C82 C 0.8508 0.97206 0.0547 0.0
N83 N 0.78128 0.93703 0.0116 0.0
C84 C 0.77439 0.94287 0.92765 0.0
C85 C 0.7607 0.95616 0.92626 0.0
C86 C 0.75406 0.96362 0.01229 0.0
C87 C 0.76083 0.95653 0.09807 0.0
C88 C 0.77461 0.9433 0.09604 0.0
C89 C 0.68471 0.81104 0.81677 0.0
O90 O 0.76942 0.88312 0.04506 0.0
O91 O 0.73325 0.84802 0.07664 0.0
O92 O 0.774 0.88383 0.86071 0.0
O93 O 0.81177 0.91681 0.83118 0.0
O94 O 0.83808 0.9555 0.11898 0.0
O95 O 0.84477 0.96518 -0.03134 0.0
O96 O 0.70485 0.82458 0.76666 0.0
O97 O 0.68675 0.81443 0.9063 0.0
H98 H 0.78037 0.93807 0.86152 0.0
H99 H 0.78116 0.93931 0.16171 0.0
H100 H 0.86101 0.89208 0.23852 0.0
H101 H 0.86016 0.87054 0.94356 0.0
H102 H 0.70097 0.91274 0.029 0.0
H103 H 0.70588 0.90837 0.7221 0.0
H104 H 0.74058 0.76447 0.83479 0.0
H105 H 0.80584 0.82528 -0.01583 0.0
H106 H 0.75564 0.9607 0.85824 0.0
H107 H 0.75695 0.96243 0.16628 0.0
Cd108 Cd 0.07278 0.87853 0.03221 0.0
Cd109 Cd 0.15291 0.88471 0.92618 0.0
C110 C 0.10715 0.93891 -0.01156 0.0
N111 N 0.09486 0.92285 0.06256 0.0
C112 C 0.10299 0.95868 0.1621 0.0
C113 C 0.11434 0.97569 0.08518 0.0
C114 C 0.11698 0.96546 -0.00198 0.0
C115 C 0.0929 0.93222 0.14868 0.0
H116 H 0.10819 0.93098 0.92033 0.0
H117 H 0.0825 0.91914 0.2061 0.0
C118 C 0.1317 0.8833 0.135 0.0
C119 C 0.108 0.82636 0.96023 0.0
C120 C 0.092 0.80004 0.94314 0.0
C121 C 0.09193 0.78969 0.85294 0.0
C122 C 0.10752 0.80675 0.78093 0.0
C123 C 0.12306 0.83295 0.80102 0.0
N124 N 0.12325 0.84212 0.88979 0.0
H125 H 0.10894 0.83408 0.03065 0.0
H126 H 0.13579 0.84577 0.74669 0.0
C127 C 0.16742 0.94157 -0.01069 0.0
N128 N 0.16884 0.92893 0.91089 0.0
C129 C 0.1961 0.96894 0.8327 0.0
C130 C 0.19691 0.98249 0.91605 0.0
C131 C 0.18135 0.96841 -0.00642 0.0
C132 C 0.18213 0.94199 0.83208 0.0
H133 H 0.1568 0.93084 0.05111 0.0
H134 H 0.18311 0.93159 0.77049 0.0
C135 C 0.09685 0.88191 0.83136 0.0
C136 C 0.02302 0.86988 0.08153 0.0
N137 N 0.06074 0.8359 0.06611 0.0
C138 C 0.04507 0.8178 0.00228 0.0
C139 C 0.03371 0.79159 0.02394 0.0
C140 C 0.03881 0.784 0.11188 0.0
C141 C 0.0563 0.80319 0.17373 0.0
C142 C 0.06663 0.82909 0.15015 0.0
C143 C 0.19543 0.88177 0.84802 0.0
O144 O 0.11454 0.88172 0.07791 0.0
O145 O 0.15177 0.88401 0.09998 0.0
O146 O 0.11186 0.88261 0.8957 0.0
O147 O 0.07557 0.8799 0.85769 0.0
O148 O 0.04011 0.87602 0.14556 0.0
O149 O 0.02939 0.86797 -0.00333 0.0
O150 O 0.18093 0.88636 0.7956 0.0
O151 O 0.19025 0.87891 0.93652 0.0
H152 H 0.0404 0.82378 0.93648 0.0
H153 H 0.07849 0.84361 0.20073 0.0
H154 H 0.10098 0.96551 0.23135 0.0
H155 H 0.1252 0.97749 0.93593 0.0
H156 H 0.08047 0.7879 0.00111 0.0
H157 H 0.10895 0.7999 0.71098 0.0
H158 H 0.20725 0.97892 0.77028 0.0
H159 H 0.18137 0.97773 0.05988 0.0
H160 H 0.02005 0.77759 -0.02552 0.0
H161 H 0.06108 0.79832 0.24172 0.0
Cd162 Cd 0.78528 0.52307 0.3226 0.0
Cd163 Cd 0.78122 0.59781 0.22607 0.0
C164 C 0.7252 0.49838 0.28271 0.0
N165 N 0.74112 0.50004 0.35409 0.0
C166 C 0.70527 0.46877 0.44499 0.0
C167 C 0.68847 0.46575 0.37033 0.0
C168 C 0.69866 0.48166 0.29006 0.0
C169 C 0.73168 0.48616 0.43538 0.0
H170 H 0.73318 0.5095 0.21865 0.0
H171 H 0.7447 0.48755 0.49089 0.0
C172 C 0.77749 0.57457 0.42629 0.0
C173 C 0.83695 0.61662 0.32177 0.0
C174 C 0.86369 0.62755 0.32565 0.0
C175 C 0.8782 0.63319 0.24096 0.0
C176 C 0.86483 0.62624 0.15403 0.0
C177 C 0.83798 0.61489 0.15364 0.0
N178 N 0.82473 0.61074 0.23661 0.0
H179 H 0.82619 0.61365 0.3869 0.0
H180 H 0.82773 0.6104 0.08691 0.0
C181 C 0.72266 0.55503 0.279 0.0
N182 N 0.73624 0.57635 0.22446 0.0
C183 C 0.69818 0.5789 0.19553 0.0
C184 C 0.68392 0.55779 0.25624 0.0
C185 C 0.6963 0.54518 0.29506 0.0
C186 C 0.72446 0.58791 0.18065 0.0
H187 H 0.73257 0.54659 0.31464 0.0
H188 H 0.73575 0.60512 0.13895 0.0
C189 C 0.78055 0.54212 0.11872 0.0
C190 C 0.79545 0.48376 0.38088 0.0
N191 N 0.82799 0.55436 0.34455 0.0
C192 C 0.84373 0.56241 0.26696 0.0
C193 C 0.87047 0.57706 0.27781 0.0
C194 C 0.88112 0.58349 0.36953 0.0
C195 C 0.86412 0.57564 0.44807 0.0
C196 C 0.83754 0.56094 0.43387 0.0
C197 C 0.7907 0.64443 0.13854 0.0
O198 O 0.78072 0.56085 0.36425 0.0
O199 O 0.77668 0.59432 0.39792 0.0
O200 O 0.78125 0.55831 0.179 0.0
O201 O 0.78212 0.523 0.14931 0.0
O202 O 0.79003 0.49616 0.4423 0.0
O203 O 0.79612 0.48985 0.29405 0.0
O204 O 0.78556 0.62469 0.0879 0.0
O205 O 0.7913 0.64212 0.22808 0.0
H206 H 0.83557 0.5565 0.19678 0.0
H207 H 0.82467 0.55353 0.49436 0.0
H208 H 0.69842 0.45676 0.50775 0.0
H209 H 0.68643 0.4805 0.23166 0.0
H210 H 0.87278 0.6318 0.39466 0.0
H211 H 0.8749 0.63061 0.08649 0.0
H212 H 0.68965 0.5895 0.16505 0.0
H213 H 0.68604 0.52863 0.34118 0.0
H214 H 0.88261 0.58292 0.2149 0.0
H215 H 0.8712 0.57934 0.52028 0.0
Cd216 Cd 0.47388 0.2531 0.34217 0.0
Cd217 Cd 0.39285 0.17934 0.24567 0.0
C218 C 0.48472 0.20587 0.3484 0.0
N219 N 0.4905 0.22773 0.39757 0.0
C220 C 0.5236 0.22528 0.48283 0.0
C221 C 0.51957 0.20386 0.42766 0.0
C222 C 0.49895 0.1934 0.36297 0.0
C223 C 0.50878 0.23699 0.46642 0.0
H224 H 0.47022 0.19911 0.29344 0.0
H225 H 0.51308 0.25447 0.50429 0.0
C226 C 0.41476 0.20222 0.44259 0.0
C227 C 0.37905 0.22397 0.29753 0.0
C228 C 0.36887 0.24029 0.28408 0.0
C229 C 0.36194 0.24379 0.19234 0.0
C230 C 0.36671 0.23141 0.11565 0.0
C231 C 0.37709 0.21541 0.13233 0.0
N232 N 0.38263 0.2117 0.22221 0.0
H233 H 0.38328 0.22053 0.36859 0.0
H234 H 0.37943 0.20486 0.07402 0.0
C235 C 0.4171 0.14834 0.34803 0.0
N236 N 0.41585 0.15723 0.26067 0.0
C237 C 0.43929 0.13814 0.19198 0.0
C238 C 0.44071 0.12868 0.28154 0.0
C239 C 0.42967 0.13422 0.36023 0.0
C240 C 0.42678 0.15259 0.1832 0.0
H241 H 0.40781 0.15159 0.40839 0.0
H242 H 0.42538 0.1597 0.11434 0.0
C243 C 0.45188 0.22865 0.1373 0.0
C244 C 0.51842 0.30218 0.35758 0.0
N245 N 0.44787 0.27062 0.37814 0.0
C246 C 0.43688 0.27602 0.30416 0.0
C247 C 0.42356 0.28944 0.31953 0.0
C248 C 0.42136 0.29718 0.41213 0.0
C249 C 0.43267 0.29092 0.48723 0.0
C250 C 0.44608 0.27778 0.46842 0.0
C251 C 0.34817 0.14058 0.15276 0.0
O252 O 0.43069 0.21582 0.37799 0.0
O253 O 0.39302 0.1836 0.41696 0.0
O254 O 0.43476 0.21468 0.19728 0.0
O255 O 0.47259 0.24746 0.16861 0.0
O256 O 0.50633 0.29018 0.43247 0.0
O257 O 0.50972 0.29101 0.27816 0.0
O258 O 0.36944 0.15346 0.10834 0.0
O259 O 0.34795 0.14534 0.24089 0.0
H260 H 0.43902 0.27042 0.23283 0.0
H261 H 0.45599 0.27431 0.52532 0.0
H262 H 0.53938 0.23427 0.53276 0.0
H263 H 0.49485 0.17669 0.31995 0.0
H264 H 0.36613 0.24967 0.34558 0.0
H265 H 0.36109 0.23265 0.04387 0.0
H266 H 0.44755 0.13422 0.12955 0.0
H267 H 0.42982 0.12681 0.43015 0.0
H268 H 0.41516 0.29373 0.25936 0.0
H269 H 0.4324 0.29726 0.55929 0.0
Cd270 Cd 0.73781 0.2182 0.33394 0.0
Cd271 Cd 0.81538 0.21616 0.22329 0.0
C272 C 0.77272 0.27878 0.32095 0.0
N273 N 0.75903 0.2607 0.38785 0.0
C274 C 0.76645 0.29352 0.5019 0.0
C275 C 0.77996 0.31267 0.43313 0.0
C276 C 0.78343 0.30495 0.34207 0.0
C277 C 0.75584 0.2675 0.4773 0.0
H278 H 0.7745 0.27279 0.24988 0.0
H279 H 0.74425 0.25279 0.52866 0.0
C280 C 0.79292 0.21552 0.42714 0.0
C281 C 0.78328 0.15544 0.25661 0.0
C282 C 0.76848 0.12923 0.23468 0.0
C283 C 0.75487 0.12157 0.14848 0.0
C284 C 0.75576 0.14066 0.08829 0.0
C285 C 0.77119 0.16661 0.11224 0.0
N286 N 0.78469 0.17345 0.19475 0.0
H287 H 0.79469 0.1615 0.32076 0.0
H288 H 0.77315 0.18123 0.06314 0.0
C289 C 0.82878 0.27373 0.28031 0.0
N290 N 0.83745 0.26112 0.22344 0.0
C291 C 0.8768 0.30034 0.19333 0.0
C292 C 0.86904 0.31361 0.25637 0.0
C293 C 0.84425 0.30015 0.29735 0.0
C294 C 0.86063 0.27395 0.17798 0.0
H295 H 0.81046 0.26305 0.31652 0.0
H296 H 0.86731 0.26348 0.13419 0.0
C297 C 0.76396 0.22407 0.12562 0.0
C298 C 0.68603 0.2064 0.36371 0.0
N299 N 0.72642 0.17672 0.38159 0.0
C300 C 0.728 0.16071 0.31632 0.0
C301 C 0.71853 0.13473 0.33768 0.0
C302 C 0.7071 0.12506 0.42686 0.0
C303 C 0.70624 0.14235 0.4934 0.0
C304 C 0.71591 0.16813 0.46899 0.0
C305 C 0.85524 0.20985 0.13915 0.0
O306 O 0.77749 0.21583 0.36592 0.0
O307 O 0.81241 0.21426 0.39672 0.0
O308 O 0.77842 0.22118 0.18354 0.0
O309 O 0.74401 0.22386 0.15911 0.0
O310 O 0.70194 0.21374 0.43239 0.0
O311 O 0.69449 0.20495 0.28183 0.0
O312 O 0.84047 0.21442 0.08789 0.0
O313 O 0.85138 0.2085 0.22854 0.0
H314 H 0.73571 0.16797 0.24641 0.0
H315 H 0.71399 0.181 0.51855 0.0
H316 H 0.76342 0.2985 0.57314 0.0
H317 H 0.79315 0.31883 0.28586 0.0
H318 H 0.76877 0.11525 0.28247 0.0
H319 H 0.7455 0.13565 0.02144 0.0
H320 H 0.89585 0.30976 0.16115 0.0
H321 H 0.83734 0.30965 0.34549 0.0
H322 H 0.71935 0.1222 0.28368 0.0
H323 H 0.69684 0.13587 0.56183 0.0
Cd324 Cd 0.45729 0.85973 0.65466 0.0
Cd325 Cd 0.45498 0.93612 0.56013 0.0
C326 C 0.39705 0.83545 0.61863 0.0
N327 N 0.41316 0.83677 0.68875 0.0
C328 C 0.3775 0.80493 0.77899 0.0
C329 C 0.36049 0.80229 0.70559 0.0
C330 C 0.37053 0.81865 0.62634 0.0
C331 C 0.4039 0.8224 0.76908 0.0
H332 H 0.40491 0.84686 0.55506 0.0
H333 H 0.41706 0.82343 0.8234 0.0
C334 C 0.45239 0.91285 0.75954 0.0
C335 C 0.51192 0.95652 0.64592 0.0
C336 C 0.53873 0.96767 0.64503 0.0
C337 C 0.55192 0.97131 0.55808 0.0
C338 C 0.53729 0.96235 0.47426 0.0
C339 C 0.51048 0.9511 0.47863 0.0
N340 N 0.49848 0.94883 0.56332 0.0
H341 H 0.502 0.95486 0.7123 0.0
H342 H 0.49928 0.9452 0.41399 0.0
C343 C 0.39699 0.89269 0.61613 0.0
N344 N 0.41 0.91378 0.55995 0.0
C345 C 0.37114 0.91465 0.52917 0.0
C346 C 0.35746 0.89378 0.59138 0.0
C347 C 0.37054 0.88215 0.63218 0.0
C348 C 0.39755 0.92441 0.51451 0.0
H349 H 0.40735 0.8849 0.6527 0.0
H350 H 0.40837 0.94142 0.47135 0.0
C351 C 0.45297 0.87999 0.4523 0.0
C352 C 0.46757 0.81993 0.70587 0.0
N353 N 0.49977 0.89089 0.68218 0.0
C354 C 0.51603 0.90037 0.60636 0.0
C355 C 0.54261 0.91566 0.62018 0.0
C356 C 0.55255 0.92138 0.71307 0.0
C357 C 0.53497 0.91189 0.7898 0.0
C358 C 0.50862 0.89651 0.77265 0.0
C359 C 0.46299 0.98244 0.47335 0.0
O360 O 0.45464 0.89871 0.69658 0.0
O361 O 0.45205 0.93294 0.73228 0.0
O362 O 0.4541 0.89613 0.5136 0.0
O363 O 0.45412 0.86052 0.48144 0.0
O364 O 0.46219 0.83187 0.76941 0.0
O365 O 0.46827 0.82677 0.61997 0.0
O366 O 0.4582 0.96281 0.42264 0.0
O367 O 0.46405 0.98026 0.56279 0.0
H368 H 0.50843 0.89522 0.53511 0.0
H369 H 0.49541 0.88791 0.8316 0.0
H370 H 0.37081 0.79257 0.84087 0.0
H371 H 0.35817 0.8178 0.5689 0.0
H372 H 0.54898 0.97369 0.71177 0.0
H373 H 0.54643 0.96515 0.4052 0.0
H374 H 0.362 0.9245 0.49712 0.0
H375 H 0.36073 0.86581 0.67954 0.0
H376 H 0.55517 0.92261 0.55852 0.0
H377 H 0.54147 0.91484 0.86273 0.0
Cd378 Cd 0.1452 0.58991 0.69248 0.0
Cd379 Cd 0.06478 0.51395 0.59391 0.0
C380 C 0.16497 0.54937 0.70306 0.0
N381 N 0.16327 0.56704 0.75934 0.0
C382 C 0.19048 0.56381 0.87547 0.0
C383 C 0.19434 0.54704 0.81554 0.0
C384 C 0.18049 0.5391 0.72971 0.0
C385 C 0.1752 0.574 0.84505 0.0
H386 H 0.15559 0.54453 0.63454 0.0
H387 H 0.17398 0.58847 0.88783 0.0
C388 C 0.08681 0.53702 0.79429 0.0
C389 C 0.04995 0.55799 0.63965 0.0
C390 C 0.03955 0.57406 0.62425 0.0
C391 C 0.03286 0.57728 0.53164 0.0
C392 C 0.03792 0.5647 0.45633 0.0
C393 C 0.04844 0.54894 0.47497 0.0
N394 N 0.05385 0.5456 0.56551 0.0
H395 H 0.05417 0.55482 0.7112 0.0
H396 H 0.05108 0.53834 0.41758 0.0
C397 C 0.10097 0.49209 0.66675 0.0
N398 N 0.08932 0.49338 0.58607 0.0
C399 C 0.10122 0.46544 0.50524 0.0
C400 C 0.11205 0.4625 0.58938 0.0
C401 C 0.11249 0.47675 0.67003 0.0
C402 C 0.08974 0.48093 0.50537 0.0
H403 H 0.1003 0.50197 0.73023 0.0
H404 H 0.08025 0.48212 0.44212 0.0
C405 C 0.12392 0.56332 0.49002 0.0
C406 C 0.18931 0.63943 0.7083 0.0
N407 N 0.1177 0.60644 0.71333 0.0
C408 C 0.10854 0.61148 0.63301 0.0
C409 C 0.09426 0.62417 0.6384 0.0
C410 C 0.08912 0.63146 0.72755 0.0
C411 C 0.09844 0.62545 0.8094 0.0
C412 C 0.11296 0.6131 0.80055 0.0
C413 C 0.01886 0.4731 0.51482 0.0
O414 O 0.10274 0.55159 0.73132 0.0
O415 O 0.06588 0.51764 0.76641 0.0
O416 O 0.10693 0.54972 0.55101 0.0
O417 O 0.14462 0.58242 0.52006 0.0
O418 O 0.17637 0.62796 0.7826 0.0
O419 O 0.1815 0.62766 0.62931 0.0
O420 O 0.03776 0.48812 0.46193 0.0
O421 O 0.02158 0.47705 0.60402 0.0
H422 H 0.11292 0.60621 0.56448 0.0
H423 H 0.12131 0.60984 0.863 0.0
H424 H 0.20015 0.57006 0.94322 0.0
H425 H 0.18293 0.52653 0.68012 0.0
H426 H 0.03655 0.58354 0.68482 0.0
H427 H 0.03248 0.56566 0.38399 0.0
H428 H 0.10079 0.45521 0.44085 0.0
H429 H 0.12022 0.47493 0.73702 0.0
H430 H 0.0874 0.62826 0.57343 0.0
H431 H 0.09577 0.63145 0.8794 0.0
Cd432 Cd 0.40485 0.55155 0.69453 0.0
Cd433 Cd 0.48162 0.5533 0.59599 0.0
C434 C 0.44208 0.61181 0.65301 0.0
N435 N 0.43008 0.59561 0.72703 0.0
C436 C 0.44267 0.63143 0.83246 0.0
C437 C 0.45378 0.64868 0.75605 0.0
C438 C 0.45403 0.63848 0.66584 0.0
C439 C 0.43062 0.60485 0.81607 0.0
H440 H 0.44134 0.60409 0.58278 0.0
H441 H 0.42076 0.59164 0.87378 0.0
C442 C 0.45963 0.55071 0.7979 0.0
C443 C 0.44274 0.49429 0.65595 0.0
C444 C 0.42829 0.46753 0.64621 0.0
C445 C 0.42399 0.45617 0.55531 0.0
C446 C 0.43371 0.47265 0.47594 0.0
C447 C 0.44783 0.49934 0.48903 0.0
N448 N 0.45238 0.50954 0.57799 0.0
H449 H 0.44682 0.50271 0.72613 0.0
H450 H 0.45624 0.51186 0.42836 0.0
C451 C 0.50182 0.6104 0.67905 0.0
N452 N 0.49973 0.59814 0.59507 0.0
C453 C 0.52572 0.63856 0.51716 0.0
C454 C 0.52982 0.65162 0.60455 0.0
C455 C 0.51678 0.63716 0.68546 0.0
C456 C 0.51068 0.61164 0.51419 0.0
H457 H 0.49315 0.59943 0.74264 0.0
H458 H 0.50885 0.60148 0.44825 0.0
C459 C 0.42822 0.55677 0.4925 0.0
C460 C 0.35619 0.54259 0.7624 0.0
N461 N 0.39237 0.50803 0.69735 0.0
C462 C 0.38784 0.4954 0.61282 0.0
C463 C 0.37601 0.46856 0.61022 0.0
C464 C 0.36853 0.45448 0.69551 0.0
C465 C 0.37441 0.46823 0.78194 0.0
C466 C 0.38628 0.49511 0.78115 0.0
C467 C 0.5236 0.55075 0.50971 0.0
O468 O 0.44443 0.55078 0.73564 0.0
O469 O 0.48005 0.55107 0.76909 0.0
O470 O 0.44291 0.55541 0.55388 0.0
O471 O 0.40794 0.55651 0.52215 0.0
O472 O 0.37438 0.54795 0.82085 0.0
O473 O 0.36104 0.54191 0.67467 0.0
O474 O 0.50746 0.55332 0.45906 0.0
O475 O 0.52025 0.54981 0.59925 0.0
H476 H 0.39246 0.50603 0.54707 0.0
H477 H 0.38931 0.50551 0.84725 0.0
H478 H 0.44243 0.63827 0.9037 0.0
H479 H 0.46197 0.65075 0.60416 0.0
H480 H 0.42082 0.456 0.7098 0.0
H481 H 0.43174 0.46517 0.40441 0.0
H482 H 0.53492 0.64887 0.45246 0.0
H483 H 0.51945 0.64607 0.7548 0.0
H484 H 0.37236 0.45897 0.54186 0.0
H485 H 0.36849 0.45836 0.84953 0.0
H486 H 0.23703 0.27784 0.19189 0.0
H487 H 0.32847 0.2483 0.31715 0.0
H488 H 0.24627 0.24726 0.92445 0.0
H489 H 0.36056 0.2704 0.03388 0.0
H490 H 0.29775 0.2621 0.28111 0.0
H491 H 0.28114 0.28913 0.23391 0.0
C492 C 0.24839 0.27381 0.14141 0.0
C493 C 0.23749 0.26063 0.05605 0.0
C494 C 0.31204 0.26474 0.2277 0.0
C495 C 0.28784 0.27358 0.10364 0.0
C496 C 0.32979 0.2568 0.24823 0.0
C497 C 0.34701 0.25747 0.17781 0.0
C498 C 0.311 0.27295 0.1355 0.0
C499 C 0.34705 0.26841 0.08944 0.0
C500 C 0.27354 0.2803 0.1655 0.0
C501 C 0.25357 0.257 -0.00834 0.0
N502 N 0.32877 0.27494 0.0698 0.0
N503 N 0.27779 0.263 0.01757 0.0
H504 H 0.72704 0.07717 0.25354 0.0
H505 H 0.76133 0.00073 0.88158 0.0
H506 H 0.75567 0.1038 -0.03018 0.0
H507 H 0.72075 0.96642 0.14387 0.0
H508 H 0.75025 0.03428 0.89953 0.0
H509 H 0.71639 0.0335 0.20529 0.0
C510 C 0.73068 0.07376 0.18076 0.0
C511 C 0.74285 0.09432 0.11631 0.0
C512 C 0.7434 0.01924 0.95272 0.0
C513 C 0.73068 0.04452 0.06068 0.0
C514 C 0.74958 -0.00024 0.94212 0.0
C515 C 0.74274 0.98094 0.01292 0.0
C516 C 0.73085 0.02044 0.03585 0.0
C517 C 0.72753 0.98115 0.08959 0.0
C518 C 0.72444 0.04881 0.15308 0.0
C519 C 0.74644 0.08868 0.02225 0.0
N520 N 0.72267 0.00099 0.10034 0.0
N521 N 0.74084 0.06445 -0.00211 0.0
H522 H 0.0215 0.73906 0.00745 0.0
H523 H 0.90952 0.66893 0.37411 0.0
H524 H 0.02017 0.76684 0.29069 0.0
H525 H 0.91341 0.63238 0.11271 0.0
H526 H 0.95492 0.69942 0.35962 0.0
H527 H 0.9874 0.69603 0.05534 0.0
C528 C 0.01441 0.73605 0.08004 0.0
C529 C 0.02324 0.75684 0.14422 0.0
C530 C 0.94601 0.68455 0.30577 0.0
C531 C 0.98448 0.70773 0.19954 0.0
C532 C 0.91983 0.66677 0.31439 0.0
C533 C 0.907 0.64835 0.24263 0.0
C534 C 0.95948 0.68461 0.22342 0.0
C535 C 0.92201 0.64702 0.16736 0.0
C536 C 0.99509 0.71144 0.10754 0.0
C537 C 0.01399 0.75161 0.2382 0.0
N538 N 0.94729 0.66539 0.15822 0.0
N539 N 0.99481 0.72774 0.26232 0.0
H540 H 0.77352 0.75413 0.79645 0.0
H541 H 0.80812 0.69075 0.22743 0.0
H542 H 0.79688 0.7885 0.07505 0.0
H543 H 0.7819 0.65338 0.955 0.0
H544 H 0.81022 0.72952 0.16354 0.0
H545 H 0.78243 0.72 0.84409 0.0
C546 C 0.78075 0.75467 0.86725 0.0
C547 C 0.78411 0.7741 0.93215 0.0
C548 C 0.8042 0.71296 0.11727 0.0
C549 C 0.79447 0.73517 -0.01315 0.0
C550 C 0.80297 0.69077 0.1538 0.0
C551 C 0.7945 0.66869 0.09675 0.0
C552 C 0.79668 0.71309 0.02308 0.0
C553 C 0.78837 0.66994 0.00158 0.0
C554 C 0.78592 0.73523 0.89423 0.0
C555 C 0.79409 0.7741 0.02219 0.0
N556 N 0.78929 0.69169 -0.03207 0.0
N557 N 0.79862 0.7548 0.04708 0.0
H558 H 0.19364 0.01987 0.02249 0.0
H559 H 0.34456 0.1207 -0.02567 0.0
H560 H 0.2458 0.00856 0.83947 0.0
H561 H 0.29855 0.11579 0.22028 0.0
H562 H 0.30587 0.08611 0.89889 0.0
H563 H 0.22953 0.06193 0.06856 0.0
C564 C 0.21244 0.02628 -0.00928 0.0
C565 C 0.21662 0.01024 0.92809 0.0
C566 C 0.30426 0.09279 -0.03096 0.0
C567 C 0.25766 0.05853 -0.02013 0.0
C568 C 0.32629 0.11247 0.01216 0.0
C569 C 0.32479 0.1208 0.10426 0.0
C570 C 0.28056 0.08158 0.01804 0.0
C571 C 0.3006 0.10965 0.14972 0.0
C572 C 0.23289 0.05033 0.01709 0.0
C573 C 0.24138 0.02007 0.88756 0.0
N574 N 0.27942 0.0905 0.10629 0.0
N575 N 0.26099 0.04342 0.915 0.0
H576 H 0.99528 0.20358 0.07657 0.0
H577 H 0.8714 0.21586 0.95306 0.0
H578 H 0.9813 0.22391 0.79806 0.0
H579 H 0.88771 0.19756 0.23114 0.0
H580 H 0.90878 0.21397 0.88944 0.0
H581 H 0.95284 0.19547 0.12762 0.0
C582 C 0.98313 0.20587 0.02537 0.0
C583 C 0.99209 0.21471 0.93294 0.0
C584 C 0.90404 0.21017 -0.03578 0.0
C585 C 0.94351 0.20608 -0.00784 0.0
C586 C 0.88272 0.21127 0.00056 0.0
C587 C 0.8766 0.20713 0.09772 0.0
C588 C 0.91929 0.2049 0.02556 0.0
C589 C 0.89185 0.20113 0.15594 0.0
C590 C 0.95892 0.20147 0.05501 0.0
C591 C 0.97546 0.21765 0.87057 0.0
N592 N 0.91255 0.20035 0.11909 0.0
N593 N 0.95209 0.21361 0.90159 0.0
H594 H 0.91102 0.61675 0.5124 0.0
H595 H 0.99948 0.58307 0.65352 0.0
H596 H 0.91658 0.57792 0.26032 0.0
H597 H 0.03194 0.60308 0.36997 0.0
H598 H 0.96907 0.59707 0.61291 0.0
H599 H 0.95459 0.6265 0.55638 0.0
C600 C 0.92138 0.61051 0.46565 0.0
C601 C 0.90951 0.59549 0.38441 0.0
C602 C 0.98336 0.59911 0.56047 0.0
C603 C 0.9595 0.60726 0.43326 0.0
C604 C 0.00092 0.59107 0.58354 0.0
C605 C 0.01812 0.59106 0.5144 0.0
C606 C 0.9825 0.60668 0.46708 0.0
C607 C 0.01838 0.6015 0.42465 0.0
C608 C 0.94628 0.61625 0.49068 0.0
C609 C 0.92454 0.58921 0.32422 0.0
N610 N 0.00026 0.60805 0.40259 0.0
N611 N 0.9486 0.5948 0.35064 0.0
H612 H 0.42399 0.42092 0.6813 0.0
H613 H 0.39329 0.29781 0.56778 0.0
H614 H 0.39639 0.42542 0.40259 0.0
H615 H 0.42288 0.33492 0.29674 0.0
H616 H 0.38327 0.33174 0.60956 0.0
H617 H 0.41177 0.37652 0.6498 0.0
C618 C 0.41469 0.4126 0.61439 0.0
C619 C 0.41191 0.42759 0.54373 0.0
C620 C 0.39162 0.33212 0.5405 0.0
C621 C 0.39837 0.37631 0.50666 0.0
C622 C 0.39747 0.31288 0.51662 0.0
C623 C 0.40983 0.31393 0.42985 0.0
C624 C 0.39802 0.35243 0.47688 0.0
C625 C 0.41364 0.33331 0.36481 0.0
C626 C 0.40769 0.38699 0.59654 0.0
C627 C 0.40005 0.41522 0.458 0.0
N628 N 0.4081 0.35201 0.39026 0.0
N629 N 0.39448 0.39055 0.44071 0.0
H630 H 0.58509 0.96596 0.43333 0.0
H631 H 0.68102 0.08486 0.30077 0.0
H632 H 0.58484 0.01171 0.67248 0.0
H633 H 0.70076 0.10028 0.59815 0.0
H634 H 0.64986 0.04064 0.34009 0.0
H635 H 0.6304 0.99799 0.40351 0.0
C636 C 0.59451 0.98251 0.48019 0.0
C637 C 0.58064 0.98659 0.55319 0.0
C638 C 0.66162 0.05341 0.39647 0.0
C639 C 0.63249 0.02286 0.52045 0.0
C640 C 0.67956 0.0789 0.37407 0.0
C641 C 0.69314 0.09681 0.4466 0.0
C642 C 0.65684 0.04587 0.49212 0.0
C643 C 0.68997 0.08755 0.5402 0.0
C644 C 0.6204 0.00067 0.46329 0.0
C645 C 0.59437 0.00771 0.61454 0.0
N646 N 0.67153 0.06296 0.56067 0.0
N647 N 0.6194 0.02523 0.59582 0.0
H648 H 0.47331 0.13036 0.42033 0.0
H649 H 0.45185 0.99032 0.2918 0.0
H650 H 0.43271 0.08745 0.17079 0.0
H651 H 0.48052 0.02906 0.56053 0.0
H652 H 0.45249 0.02907 0.23135 0.0
H653 H 0.48437 0.09706 0.45617 0.0
C654 C 0.467 0.11405 0.37245 0.0
C655 C 0.45171 0.11141 0.29337 0.0
C656 C 0.4589 0.02914 0.30317 0.0
C657 C 0.46413 0.07313 0.33419 0.0
C658 C 0.45858 0.00707 0.33762 0.0
C659 C 0.46584 0.00638 0.4317 0.0
C660 C 0.46667 0.05066 0.36315 0.0
C661 C 0.47445 0.02863 0.48793 0.0
C662 C 0.47331 0.09505 0.3929 0.0
C663 C 0.44449 0.09019 0.23259 0.0
N664 N 0.47446 0.04976 0.45301 0.0
N665 N 0.45044 0.07164 0.25502 0.0
H666 H 0.97501 0.43921 0.61035 0.0
H667 H 0.90595 0.35392 0.15019 0.0
H668 H 0.00798 0.45852 0.32812 0.0
H669 H 0.8757 0.33376 0.43597 0.0
H670 H 0.94094 0.39491 0.21035 0.0
H671 H 0.93614 0.40296 0.54416 0.0
C672 C 0.97404 0.43587 0.53434 0.0
C673 C 0.99485 0.45176 0.47475 0.0
C674 C 0.92645 0.38162 0.25961 0.0
C675 C 0.95035 0.41025 0.39833 0.0
C676 C 0.90649 0.35819 0.22536 0.0
C677 C 0.88792 0.3402 0.28812 0.0
C678 C 0.92791 0.38707 0.35737 0.0
C679 C 0.88937 0.34702 0.38457 0.0
C680 C 0.9518 0.41518 0.49651 0.0
C681 C 0.99243 0.44663 0.37671 0.0
N682 N 0.90914 0.36976 0.41624 0.0
N683 N 0.97064 0.4262 0.34158 0.0
H684 H 0.53767 0.55449 0.32149 0.0
H685 H 0.66303 0.54364 0.43453 0.0
H686 H 0.55892 0.54252 0.60121 0.0
H687 H 0.64486 0.5579 0.15276 0.0
H688 H 0.62227 0.5385 0.49215 0.0
H689 H 0.5746 0.55221 0.25473 0.0
C690 C 0.55005 0.55131 0.36878 0.0
C691 C 0.54534 0.54888 0.46715 0.0
C692 C 0.62704 0.54253 0.41749 0.0
C693 C 0.58743 0.54613 0.39138 0.0
C694 C 0.65027 0.54519 0.38409 0.0
C695 C 0.65755 0.5513 0.28841 0.0
C696 C 0.61088 0.54617 0.35521 0.0
C697 C 0.64028 0.55361 0.22736 0.0
C698 C 0.57108 0.54997 0.33063 0.0
C699 C 0.5619 0.54468 0.52506 0.0
N700 N 0.61784 0.55124 0.26194 0.0
N701 N 0.58221 0.54352 0.48636 0.0
H702 H 0.5803 0.95278 0.86358 0.0
H703 H 0.6657 0.91488 -0.00514 0.0
H704 H 0.59019 0.9198 0.6028 0.0
H705 H 0.70503 0.94555 0.727 0.0
H706 H 0.63644 0.93056 0.95856 0.0
H707 H 0.62366 0.96283 0.91162 0.0
C708 C 0.59157 0.94793 0.81569 0.0
C709 C 0.5809 0.93425 0.7308 0.0
C710 C 0.65196 0.93452 0.90898 0.0
C711 C 0.63074 0.94662 0.78419 0.0
C712 C 0.66888 0.92551 0.92956 0.0
C713 C 0.68761 0.92793 0.86254 0.0
C714 C 0.65324 0.94544 0.81984 0.0
C715 C 0.69013 0.94188 0.77896 0.0
C716 C 0.61637 0.95392 0.84303 0.0
C717 C 0.59713 0.92991 0.66956 0.0
N718 N 0.67252 0.94923 0.75834 0.0
N719 N 0.62108 0.93568 0.69824 0.0
H720 H 0.0554 0.63018 0.86526 0.0
H721 H 0.08192 0.75129 -0.01749 0.0
H722 H 0.09431 0.66978 0.60735 0.0
H723 H 0.07108 0.7624 0.68651 0.0
H724 H 0.06875 0.70679 0.94846 0.0
H725 H 0.04397 0.66367 0.89612 0.0
C726 C 0.06131 0.64572 0.8146 0.0
C727 C 0.07669 0.64765 0.7354 0.0
C728 C 0.06842 0.71868 0.89137 0.0
C729 C 0.06362 0.68583 0.77023 0.0
C730 C 0.07603 0.74438 0.91074 0.0
C731 C 0.0784 0.7612 0.83688 0.0
C732 C 0.0636 0.70973 0.7972 0.0
C733 C 0.07068 0.75062 0.74528 0.0
C734 C 0.05474 0.66477 0.83228 0.0
C735 C 0.08275 0.66758 0.67001 0.0
N736 N 0.06442 0.72579 0.72748 0.0
N737 N 0.07658 0.68614 0.68976 0.0
H738 H 0.22985 0.31454 0.63024 0.0
H739 H 0.36714 0.41888 0.82376 0.0
H740 H 0.256 0.31318 0.9145 0.0
H741 H 0.33177 0.4244 0.56484 0.0
H742 H 0.33288 0.37381 0.83885 0.0
H743 H 0.27341 0.34693 0.58676 0.0
C744 C 0.24481 0.32048 0.68323 0.0
C745 C 0.23895 0.31145 0.77715 0.0
C746 C 0.33304 0.38483 0.77779 0.0
C747 C 0.28903 0.34956 0.72796 0.0
C748 C 0.35247 0.41062 0.76938 0.0
C749 C 0.352 0.42587 0.69449 0.0
C750 C 0.31317 0.37421 0.71043 0.0
C751 C 0.33308 0.41372 0.62423 0.0
C752 C 0.26977 0.33928 0.65832 0.0
C753 C 0.2594 0.32024 0.84218 0.0
N754 N 0.31425 0.3888 0.63482 0.0
N755 N 0.28346 0.33925 0.81695 0.0
H756 H 0.15006 0.36008 0.86797 0.0
H757 H 0.09011 0.41479 0.50384 0.0
H758 H 0.10952 0.3178 0.6172 0.0
H759 H 0.15176 0.46422 0.69416 0.0
H760 H 0.09848 0.37976 0.53815 0.0
H761 H 0.15202 0.39883 0.80284 0.0
C762 C 0.14176 0.35902 0.79878 0.0
C763 C 0.12937 0.33565 0.74827 0.0
C764 C 0.11045 0.39839 0.57129 0.0
C765 C 0.13135 0.37985 0.6737 0.0
C766 C 0.10583 0.41857 0.55118 0.0
C767 C 0.12001 0.44256 0.5971 0.0
C768 C 0.1291 0.40201 0.63895 0.0
C769 C 0.13983 0.44591 0.65898 0.0
C770 C 0.143 0.38118 0.76143 0.0
C771 C 0.11915 0.33541 0.65861 0.0
N772 N 0.14349 0.42575 0.67929 0.0
N773 N 0.12003 0.3571 0.62475 0.0
H774 H 0.6369 0.7871 0.89905 0.0
H775 H 0.57605 0.67812 0.50842 0.0
H776 H 0.67669 0.79039 0.63733 0.0
H777 H 0.53035 0.68838 0.72615 0.0
H778 H 0.61206 0.72053 0.54677 0.0
H779 H 0.59709 0.75209 0.8327 0.0
C780 C 0.6372 0.78055 0.82728 0.0
C781 C 0.66017 0.79144 0.77393 0.0
C782 C 0.594 0.71369 0.58502 0.0
C783 C 0.6147 0.75125 0.6977 0.0
C784 C 0.57323 0.68945 0.56261 0.0
C785 C 0.55 0.6793 0.61475 0.0
C786 C 0.59175 0.72779 0.66104 0.0
C787 C 0.54796 0.695 0.68531 0.0
C788 C 0.61443 0.76065 0.78923 0.0
C789 C 0.65941 0.78241 0.681 0.0
N790 N 0.56868 0.71824 0.70739 0.0
N791 N 0.6371 0.76256 0.64625 0.0
H792 H 0.31761 0.89107 0.48489 0.0
H793 H 0.22912 0.87154 0.94242 0.0
H794 H 0.33678 0.88053 0.77023 0.0
H795 H 0.21178 0.88777 0.66257 0.0
H796 H 0.26629 0.87004 0.87629 0.0
H797 H 0.27629 0.885 0.54436 0.0
C798 C 0.31307 0.88726 0.55979 0.0
C799 C 0.33083 0.88647 0.62261 0.0
C800 C 0.25432 0.87384 0.82916 0.0
C801 C 0.28358 0.87948 0.69105 0.0
C802 C 0.2331 0.87473 0.86695 0.0
C803 C 0.21747 0.88001 0.80805 0.0
C804 C 0.26002 0.87831 0.7317 0.0
C805 C 0.22344 0.88381 0.71065 0.0
C806 C 0.28945 0.88375 0.59364 0.0
C807 C 0.32368 0.88104 0.71872 0.0
N808 N 0.24434 0.88302 0.67556 0.0
N809 N 0.30074 0.87797 0.74998 0.0
H810 H 0.09038 0.99609 0.19519 0.0
H811 H 0.14637 0.12552 0.9089 0.0
H812 H 0.15239 0.01845 -0.00936 0.0
H813 H 0.10986 0.11575 0.18346 0.0
H814 H 0.1489 0.08643 0.93631 0.0
H815 H 0.09757 0.03976 0.1932 0.0
C816 C 0.10594 0.01017 0.15132 0.0
C817 C 0.12075 0.00321 0.09272 0.0
C818 C 0.14065 0.09303 -0.00894 0.0
C819 C 0.12834 0.05343 0.08786 0.0
C820 C 0.13909 0.11526 -0.02469 0.0
C821 C 0.12766 0.12371 0.04368 0.0
C822 C 0.13025 0.07891 0.07496 0.0
C823 C 0.11873 0.10983 0.12876 0.0
C824 C 0.10986 0.0352 0.14981 0.0
C825 C 0.14009 0.02255 0.03569 0.0
N826 N 0.11986 0.08787 0.14142 0.0
N827 N 0.14307 0.04665 0.03365 0.0
H828 H 0.97403 0.12957 0.0093 0.0
H829 H 0.88161 0.98763 0.21255 0.0
H830 H 0.0009 0.08966 0.19007 0.0
H831 H 0.8689 0.01536 0.94749 0.0
H832 H 0.92057 0.02983 0.23719 0.0
H833 H 0.93039 0.09236 0.01933 0.0
C834 C 0.9708 0.11316 0.0518 0.0
C835 C 0.99141 0.11266 0.09734 0.0
C836 C 0.90898 0.0267 0.1744 0.0
C837 C 0.94139 0.07031 0.11057 0.0
C838 C 0.88678 0.00273 0.16049 0.0
C839 C 0.87231 0.998 0.07731 0.0
C840 C 0.91633 0.04605 0.10542 0.0
C841 C 0.87979 0.01816 0.01194 0.0
C842 C 0.94585 0.09201 0.05782 0.0
C843 C 0.98576 0.09111 0.1539 0.0
N844 N 0.90133 0.04128 0.02721 0.0
N845 N 0.96134 0.0707 0.15814 0.0
H846 H 0.86686 0.83901 0.0204 0.0
H847 H 0.0075 0.88753 0.23495 0.0
H848 H 0.90478 0.90378 0.21287 0.0
H849 H 0.97964 0.8436 -0.02466 0.0
H850 H 0.96542 0.88506 0.25649 0.0
H851 H 0.90374 0.83198 0.0331 0.0
C852 C 0.88278 0.85161 0.06602 0.0
C853 C 0.88285 0.87232 0.11425 0.0
C854 C 0.96849 0.87571 0.19555 0.0
C855 C 0.92492 0.86411 0.13 0.0
C856 C 0.99241 0.87704 0.18342 0.0
C857 C 0.99709 0.86604 0.10264 0.0
C858 C 0.94914 0.86299 0.12705 0.0
C859 C 0.97692 0.85266 0.03794 0.0
C860 C 0.90376 0.8475 0.07347 0.0
C861 C 0.90374 0.88752 0.17449 0.0
N862 N 0.95387 0.85161 0.05131 0.0
N863 N 0.92405 0.88329 0.17985 0.0
H864 H 0.7548 0.33201 0.54126 0.0
H865 H 0.82198 0.46503 0.2819 0.0
H866 H 0.823 0.35634 0.36698 0.0
H867 H 0.77767 0.45327 0.53922 0.0
H868 H 0.82371 0.42584 0.31528 0.0
H869 H 0.76402 0.37654 0.54859 0.0
C870 C 0.77207 0.34671 0.50629 0.0
C871 C 0.7879 0.34019 0.45197 0.0
C872 C 0.81397 0.43202 0.36535 0.0
C873 C 0.79806 0.39124 0.45803 0.0
C874 C 0.81287 0.45431 0.34608 0.0
C875 C 0.79944 0.46218 0.40747 0.0
C876 C 0.801 0.41716 0.4454 0.0
C877 C 0.78816 0.44777 0.49003 0.0
C878 C 0.77722 0.37219 0.51015 0.0
C879 C 0.80979 0.36025 0.40731 0.0
N880 N 0.78876 0.42562 0.50575 0.0
N881 N 0.81395 0.38478 0.40985 0.0
H882 H 0.65439 0.44587 0.522 0.0
H883 H 0.54613 0.33182 0.20788 0.0
H884 H 0.66061 0.43579 0.22031 0.0
H885 H 0.5438 0.33128 0.51473 0.0
H886 H 0.58548 0.37347 0.21215 0.0
H887 H 0.61141 0.40724 0.52144 0.0
C888 C 0.64673 0.43572 0.45563 0.0
C889 C 0.66127 0.44421 0.37106 0.0
C890 C 0.57641 0.36434 0.27874 0.0
C891 C 0.61212 0.40023 0.37003 0.0
C892 C 0.55388 0.3405 0.27637 0.0
C893 C 0.54178 0.32793 0.36115 0.0
C894 C 0.58707 0.37583 0.36655 0.0
C895 C 0.55263 0.34026 0.44772 0.0
C896 C 0.62218 0.41373 0.45542 0.0
C897 C 0.65012 0.43043 0.28704 0.0
N898 N 0.57481 0.36355 0.44828 0.0
N899 N 0.62634 0.40916 0.28887 0.0
H900 H 0.54723 0.20061 0.57805 0.0
H901 H 0.64781 0.1891 0.23105 0.0
H902 H 0.53758 0.18875 0.27457 0.0
H903 H 0.66255 0.20952 0.52795 0.0
H904 H 0.60399 0.18156 0.25226 0.0
H905 H 0.58578 0.19615 0.56743 0.0
C906 C 0.55295 0.19671 0.50943 0.0
C907 C 0.53927 0.19549 0.4269 0.0
C908 C 0.61672 0.18752 0.31302 0.0
C909 C 0.58336 0.19032 0.4144 0.0
C910 C 0.64179 0.19188 0.3009 0.0
C911 C 0.65898 0.20028 0.37758 0.0
C912 C 0.60873 0.19167 0.40243 0.0
C913 C 0.65 0.2033 0.46668 0.0
C914 C 0.57496 0.19414 0.50348 0.0
C915 C 0.54731 0.18977 0.34034 0.0
N916 N 0.62555 0.19921 0.4765 0.0
N917 N 0.56897 0.18775 0.33627 0.0
H918 H 0.45377 0.79124 0.86908 0.0
H919 H 0.49304 0.69033 0.66161 0.0
H920 H 0.49006 0.79877 0.59539 0.0
H921 H 0.43369 0.6712 0.87492 0.0
H922 H 0.50148 0.73474 0.66268 0.0
H923 H 0.4558 0.75178 0.89714 0.0
C924 C 0.46252 0.78481 0.81561 0.0
C925 C 0.47146 0.79805 0.72929 0.0
C926 C 0.48688 0.72082 0.71015 0.0
C927 C 0.47397 0.75322 0.76108 0.0
C928 C 0.48197 0.6954 0.70953 0.0
C929 C 0.46235 0.67666 0.76738 0.0
C930 C 0.47221 0.72769 0.76941 0.0
C931 C 0.44912 0.68478 0.82943 0.0
C932 C 0.4636 0.76229 0.83152 0.0
C933 C 0.48263 0.78892 0.66241 0.0
N934 N 0.45412 0.70959 0.8281 0.0
N935 N 0.48345 0.76699 0.67949 0.0
H936 H 0.21378 0.6692 0.86545 0.0
H937 H 0.33201 0.77327 0.55466 0.0
H938 H 0.21824 0.66831 0.55911 0.0
H939 H 0.32685 0.78147 0.85824 0.0
H940 H 0.28908 0.73592 0.55688 0.0
H941 H 0.25406 0.711 0.86675 0.0
C942 C 0.22313 0.67784 0.7986 0.0
C943 C 0.21275 0.66517 0.71209 0.0
C944 C 0.29716 0.74595 0.62312 0.0
C945 C 0.25862 0.71276 0.71304 0.0
C946 C 0.32172 0.76758 0.62182 0.0
C947 C 0.33323 0.78078 0.70641 0.0
C948 C 0.28388 0.73703 0.70976 0.0
C949 C 0.31896 0.77176 0.7914 0.0
C950 C 0.24607 0.70167 0.79938 0.0
C951 C 0.22559 0.67724 0.62757 0.0
N952 N 0.29508 0.75032 0.79104 0.0
N953 N 0.24784 0.70023 0.63029 0.0
H954 H 0.34389 0.56166 0.92 0.0
H955 H 0.19622 0.5029 0.76864 0.0
H956 H 0.31036 0.51313 0.67383 0.0
H957 H 0.24054 0.57703 0.9071 0.0
H958 H 0.23412 0.49734 0.77444 0.0
H959 H 0.30176 0.558 0.95604 0.0
C960 C 0.32756 0.54987 0.87472 0.0
C961 C 0.33057 0.53798 0.79316 0.0
C962 C 0.23524 0.51457 0.80497 0.0
C963 C 0.28264 0.53342 0.83447 0.0
C964 C 0.21368 0.51788 0.80123 0.0
C965 C 0.21512 0.54074 0.83558 0.0
C966 C 0.25828 0.53402 0.8447 0.0
C967 C 0.23818 0.559 0.87996 0.0
C968 C 0.30364 0.54785 0.8951 0.0
C969 C 0.30887 0.52291 0.73663 0.0
N970 N 0.25888 0.55535 0.88239 0.0
N971 N 0.28582 0.52113 0.75812 0.0
H972 H 0.11041 0.17685 0.6298 0.0
H973 H 0.1145 0.27304 0.22953 0.0
H974 H 0.10039 0.24227 0.69026 0.0
H975 H 0.11165 0.20095 0.16759 0.0
H976 H 0.11001 0.26259 0.3988 0.0
H977 H 0.11087 0.18531 0.46006 0.0
C978 C 0.10814 0.19292 0.6073 0.0
C979 C 0.10575 0.20915 0.67414 0.0
C980 C 0.11029 0.24899 0.34817 0.0
C981 C 0.10645 0.21906 0.48006 0.0
C982 C 0.11295 0.25497 0.25154 0.0
C983 C 0.11358 0.23777 0.18447 0.0
C984 C 0.10838 0.22569 0.37793 0.0
C985 C 0.11134 0.21466 0.21706 0.0
C986 C 0.10846 0.19777 0.51037 0.0
C987 C 0.10273 0.22959 0.64099 0.0
N988 N 0.10895 0.2093 0.31143 0.0
N989 N 0.1034 0.23412 0.54623 0.0
H990 H 0.72694 0.83438 0.25096 0.0
H991 H 0.82087 0.92805 0.65472 0.0
H992 H 0.79375 0.90863 0.1943 0.0
H993 H 0.75268 0.85498 0.71332 0.0
H994 H 0.81248 0.92019 0.48496 0.0
H995 H 0.73687 0.84074 0.42023 0.0
C996 C 0.74373 0.85206 0.27417 0.0
C997 C 0.75964 0.87106 0.20862 0.0
C998 C 0.79934 0.90583 0.53486 0.0
C999 C 0.77113 0.87842 0.40195 0.0
C1000 C 0.80417 0.91027 0.63176 0.0
C1001 C 0.78723 0.89221 0.69798 0.0
C1002 C 0.77744 0.88316 0.50405 0.0
C1003 C 0.76594 0.86951 0.66446 0.0
C1004 C 0.74942 0.85564 0.37078 0.0
C1005 C 0.78111 0.8935 0.24253 0.0
N1006 N 0.76157 0.86565 0.56966 0.0
N1007 N 0.78625 0.8966 0.33695 0.0
H1008 H 0.14289 0.89217 0.75549 0.0
H1009 H 0.16051 0.87819 0.27401 0.0
H1010 H 0.06646 0.87514 0.67684 0.0
H1011 H 0.09587 0.89024 0.23194 0.0
H1012 H 0.15429 0.87845 0.44503 0.0
H1013 H 0.15458 0.89452 0.58849 0.0
C1014 C 0.12855 0.88871 0.7027 0.0
C1015 C 0.10374 0.88323 0.73001 0.0
C1016 C 0.14182 0.88176 0.39897 0.0
C1017 C 0.11644 0.88511 0.53775 0.0
C1018 C 0.14526 0.88138 0.30096 0.0
C1019 C 0.12874 0.88444 0.23878 0.0
C1020 C 0.12186 0.8855 0.43496 0.0
C1021 C 0.10923 0.88831 0.27753 0.0
C1022 C 0.13508 0.88977 0.60701 0.0
C1023 C 0.08582 0.87924 0.65888 0.0
N1024 N 0.10618 0.88854 0.37312 0.0
N1025 N 0.09253 0.88024 0.56586 0.0
H1026 H 0.77217 0.60153 0.57331 0.0
H1027 H 0.78341 0.51337 -0.02771 0.0
H1028 H 0.77784 0.53367 0.5106 0.0
H1029 H 0.77196 0.57792 0.03324 0.0
H1030 H 0.78033 0.51973 0.80274 0.0
H1031 H 0.77084 0.59241 0.7423 0.0
C1032 C 0.77303 0.58462 0.59513 0.0
C1033 C 0.77534 0.5684 0.52803 0.0
C1034 C 0.77846 0.53249 0.8532 0.0
C1035 C 0.77391 0.5579 0.72124 0.0
C1036 C 0.78023 0.5289 0.94991 0.0
C1037 C 0.77824 0.5454 0.01658 0.0
C1038 C 0.77469 0.55274 0.82321 0.0
C1039 C 0.77402 0.56508 -0.01605 0.0
C1040 C 0.77227 0.57942 0.69166 0.0
C1041 C 0.77622 0.54671 0.56017 0.0
N1042 N 0.77248 0.56829 0.8894 0.0
N1043 N 0.77567 0.54214 0.65473 0.0
H1044 H 0.41073 0.18915 0.05067 0.0
H1045 H 0.46109 0.2365 0.52283 0.0
H1046 H 0.48329 0.25756 -0.00944 0.0
H1047 H 0.38301 0.17842 0.59328 0.0
H1048 H 0.47136 0.2427 0.69224 0.0
H1049 H 0.40202 0.18256 0.88108 0.0
C1050 C 0.42479 0.20273 0.00154 0.0
C1051 C 0.44749 0.22395 0.03461 0.0
C1052 C 0.45197 0.22866 0.67045 0.0
C1053 C 0.43797 0.21672 0.84017 0.0
C1054 C 0.44612 0.22513 0.57388 0.0
C1055 C 0.42118 0.20706 0.54405 0.0
C1056 C 0.43274 0.21375 0.73725 0.0
C1057 C 0.40249 0.19267 0.6131 0.0
C1058 C 0.41987 0.19904 0.90473 0.0
C1059 C 0.46541 0.24095 -0.03205 0.0
N1060 N 0.40867 0.19632 0.70648 0.0
N1061 N 0.46024 0.237 0.87355 0.0
H1062 H 0.82348 0.21653 0.57289 0.0
H1063 H 0.73156 0.21999 -0.01814 0.0
H1064 H 0.75432 0.21972 0.51588 0.0
H1065 H 0.80801 0.23224 0.03406 0.0
H1066 H 0.73906 0.2192 0.8111 0.0
H1067 H 0.81746 0.22087 0.74258 0.0
C1068 C 0.80694 0.21807 0.59606 0.0
C1069 C 0.78918 0.21759 0.53015 0.0
C1070 C 0.75425 0.22219 0.85986 0.0
C1071 C 0.78223 0.22265 0.7244 0.0
C1072 C 0.75 0.2227 0.95735 0.0
C1073 C 0.76908 0.22582 0.02223 0.0
C1074 C 0.7777 0.22472 0.82705 0.0
C1075 C 0.79266 0.22939 -0.01353 0.0
C1076 C 0.80358 0.22066 0.69299 0.0
C1077 C 0.76827 0.21982 0.56436 0.0
N1078 N 0.79622 0.2285 0.8913 0.0
N1079 N 0.76527 0.22215 0.65911 0.0
H1080 H 0.44458 0.9163 0.37058 0.0
H1081 H 0.44876 0.86974 0.84026 0.0
H1082 H 0.45565 0.85184 0.30334 0.0
H1083 H 0.45074 0.94122 0.90916 0.0
H1084 H 0.44664 0.86019 0.0097 0.0
H1085 H 0.44234 0.9233 0.20106 0.0
C1086 C 0.44667 0.90374 0.31997 0.0
C1087 C 0.45072 0.88379 0.35063 0.0
C1088 C 0.44748 0.87794 -0.01232 0.0
C1089 C 0.4478 0.89131 0.15714 0.0
C1090 C 0.44866 0.88335 0.8911 0.0
C1091 C 0.45018 0.90636 0.86091 0.0
C1092 C 0.44767 0.89566 0.05423 0.0
C1093 C 0.44979 0.92331 0.92948 0.0
C1094 C 0.44527 0.90763 0.22336 0.0
C1095 C 0.45268 0.86759 0.28248 0.0
N1096 N 0.44866 0.91766 0.02311 0.0
N1097 N 0.45129 0.87177 0.18866 0.0
H1098 H 0.08281 0.52294 0.40469 0.0
H1099 H 0.1296 0.57599 0.87804 0.0
H1100 H 0.15463 0.59211 0.34233 0.0
H1101 H 0.05736 0.50758 0.94275 0.0
H1102 H 0.13983 0.58185 0.04739 0.0
H1103 H 0.07387 0.5161 0.23492 0.0
C1104 C 0.09674 0.53657 0.35509 0.0
C1105 C 0.11934 0.5581 0.38754 0.0
C1106 C 0.12173 0.56555 0.02459 0.0
C1107 C 0.10937 0.55064 0.19314 0.0
C1108 C 0.11594 0.56225 0.92801 0.0
C1109 C 0.09273 0.54135 0.89639 0.0
C1110 C 0.10407 0.54773 0.09002 0.0
C1111 C 0.07552 0.52405 -0.03601 0.0
C1112 C 0.09165 0.53274 0.25819 0.0
C1113 C 0.13689 0.57523 0.32032 0.0
N1114 N 0.08155 0.52762 0.05767 0.0
N1115 N 0.13148 0.57119 0.22616 0.0
H1116 H 0.47077 0.55986 0.40829 0.0
H1117 H 0.41808 0.55031 0.88131 0.0
H1118 H 0.39801 0.5551 0.3449 0.0
H1119 H 0.4899 0.55299 0.94599 0.0
H1120 H 0.41065 0.55292 0.05078 0.0
H1121 H 0.47881 0.55866 0.23858 0.0
C1122 C 0.45658 0.55865 0.35843 0.0
C1123 C 0.43374 0.55744 0.3904 0.0
C1124 C 0.42803 0.55291 0.02797 0.0
C1125 C 0.44257 0.55603 0.19642 0.0
C1126 C 0.43223 0.5514 0.93132 0.0
C1127 C 0.45457 0.55146 0.89982 0.0
C1128 C 0.44637 0.55448 0.09343 0.0
C1129 C 0.47237 0.55288 -0.03264 0.0
C1130 C 0.4611 0.55793 0.26165 0.0
C1131 C 0.41589 0.55602 0.32312 0.0
N1132 N 0.46788 0.55436 0.06117 0.0
N1133 N 0.42065 0.55527 0.22907 0.0
loop_
_geom_bond_atom_site_label_1
_geom_bond_atom_site_label_2
_geom_bond_distance
_geom_bond_site_symmetry_2
_ccdc_geom_bond_type
Cd0 N3 2.334 . S
Cd0 N29 2.304 . S
Cd0 O36 2.276 . S
Cd0 O39 2.263 1_554 S
Cd0 O40 2.423 . S
Cd0 O41 2.327 1_554 S
Cd1 N16 2.304 1_554 S
Cd1 N20 2.334 . S
Cd1 O37 2.273 . S
Cd1 O38 2.268 1_554 S
Cd1 O42 2.417 1_554 S
Cd1 O43 2.330 . S
C2 N3 1.332 1_556 S
C2 C6 1.381 . S
C2 H8 0.931 . S
N3 Cd0 2.334 . S
N3 C2 1.332 1_554 S
N3 C7 1.328 . S
C4 C5 1.396 . S
C4 C7 1.378 . S
C4 H46 0.931 . S
C5 C4 1.396 . S
C5 C6 1.382 1_554 S
C6 C2 1.381 . S
C6 C5 1.382 1_556 S
C6 H47 0.930 . S
C7 N3 1.328 . S
C7 C4 1.378 . S
C7 H9 0.930 . S
H8 C2 0.931 . S
H9 C7 0.930 . S
C10 O36 1.238 . S
C10 O37 1.253 . S
C11 C12 1.379 . S
C11 N16 1.337 1_554 S
C11 H17 0.929 . S
C12 C11 1.379 . S
C12 C13 1.380 1_554 S
C12 H48 0.929 . S
C13 C12 1.380 1_556 S
C13 C14 1.399 . S
C14 C13 1.399 . S
C14 C15 1.376 . S
C14 H49 0.931 . S
C15 C14 1.376 . S
C15 N16 1.338 . S
C15 H18 0.930 . S
N16 Cd1 2.304 1_556 S
N16 C11 1.337 1_556 S
N16 C15 1.338 . S
H17 C11 0.929 . S
H18 C15 0.930 . S
C19 N20 1.332 . S
C19 C23 1.381 . S
C19 H25 0.931 . S
N20 Cd1 2.334 . S
N20 C19 1.332 . S
N20 C24 1.328 1_554 S
C21 C22 1.396 1_556 S
C21 C24 1.378 . S
C21 H50 0.931 . S
C22 C21 1.396 1_554 S
C22 C23 1.382 . S
C23 C19 1.381 . S
C23 C22 1.382 . S
C23 H51 0.930 . S
C24 N20 1.328 1_556 S
C24 C21 1.378 . S
C24 H26 0.930 . S
H25 C19 0.931 . S
H26 C24 0.930 . S
C27 O38 1.238 . S
C27 O39 1.253 . S
C28 O40 1.239 . S
C28 O41 1.230 1_554 S
N29 Cd0 2.304 . S
N29 C30 1.334 1_554 S
N29 C34 1.341 . S
C30 N29 1.334 1_556 S
C30 C31 1.379 . S
C30 H44 0.929 . S
C31 C30 1.379 . S
C31 C32 1.380 . S
C31 H52 0.929 . S
C32 C31 1.380 . S
C32 C33 1.399 1_556 S
C33 C32 1.399 1_554 S
C33 C34 1.376 . S
C33 H53 0.931 . S
C34 N29 1.341 . S
C34 C33 1.376 . S
C34 H45 0.930 . S
C35 O42 1.239 . S
C35 O43 1.230 1_556 S
O36 Cd0 2.276 . S
O36 C10 1.238 . S
O37 Cd1 2.273 . S
O37 C10 1.253 . S
O38 Cd1 2.268 1_556 S
O38 C27 1.238 . S
O39 Cd0 2.263 1_556 S
O39 C27 1.253 . S
O40 Cd0 2.423 . S
O40 C28 1.239 . S
O41 Cd0 2.327 1_556 S
O41 C28 1.230 1_556 S
O42 Cd1 2.417 1_556 S
O42 C35 1.239 . S
O43 Cd1 2.330 . S
O43 C35 1.230 1_554 S
H44 C30 0.929 . S
H45 C34 0.930 . S
H46 C4 0.931 . S
H47 C6 0.930 . S
H48 C12 0.929 . S
H49 C14 0.931 . S
H50 C21 0.931 . S
H51 C23 0.930 . S
H52 C31 0.929 . S
H53 C33 0.931 . S
Cd54 N57 2.334 . S
Cd54 N83 2.304 . S
Cd54 O90 2.275 . S
Cd54 O93 2.263 1_554 S
Cd54 O94 2.423 . S
Cd54 O95 2.328 1_554 S
Cd55 N70 2.304 1_554 S
Cd55 N74 2.334 . S
Cd55 O91 2.273 . S
Cd55 O92 2.268 1_554 S
Cd55 O96 2.417 1_554 S
Cd55 O97 2.330 . S
C56 N57 1.332 1_556 S
C56 C60 1.381 . S
C56 H62 0.931 . S
N57 Cd54 2.334 . S
N57 C56 1.332 1_554 S
N57 C61 1.328 . S
C58 C59 1.396 . S
C58 C61 1.378 . S
C58 H100 0.931 . S
C59 C58 1.396 . S
C59 C60 1.382 1_554 S
C60 C56 1.381 . S
C60 C59 1.382 1_556 S
C60 H101 0.930 . S
C61 N57 1.328 . S
C61 C58 1.378 . S
C61 H63 0.930 . S
H62 C56 0.931 . S
H63 C61 0.930 . S
C64 O90 1.238 . S
C64 O91 1.253 . S
C65 C66 1.379 . S
C65 N70 1.337 1_554 S
C65 H71 0.929 . S
C66 C65 1.379 . S
C66 C67 1.380 1_554 S
C66 H102 0.929 . S
C67 C66 1.380 1_556 S
C67 C68 1.399 . S
C68 C67 1.399 . S
C68 C69 1.376 . S
C68 H103 0.931 . S
C69 C68 1.376 . S
C69 N70 1.338 . S
C69 H72 0.930 . S
N70 Cd55 2.304 1_556 S
N70 C65 1.337 1_556 S
N70 C69 1.338 . S
H71 C65 0.929 . S
H72 C69 0.930 . S
C73 N74 1.332 . S
C73 C77 1.381 . S
C73 H79 0.931 . S
N74 Cd55 2.334 . S
N74 C73 1.332 . S
N74 C78 1.328 1_554 S
C75 C76 1.396 1_556 S
C75 C78 1.378 . S
C75 H104 0.931 . S
C76 C75 1.396 1_554 S
C76 C77 1.382 . S
C77 C73 1.381 . S
C77 C76 1.382 . S
C77 H105 0.930 . S
C78 N74 1.328 1_556 S
C78 C75 1.378 . S
C78 H80 0.930 . S
H79 C73 0.931 . S
H80 C78 0.930 . S
C81 O92 1.238 . S
C81 O93 1.253 . S
C82 O94 1.239 . S
C82 O95 1.230 1_554 S
N83 Cd54 2.304 . S
N83 C84 1.335 1_554 S
N83 C88 1.340 . S
C84 N83 1.335 1_556 S
C84 C85 1.379 . S
C84 H98 0.929 . S
C85 C84 1.379 . S
C85 C86 1.380 . S
C85 H106 0.929 . S
C86 C85 1.380 . S
C86 C87 1.399 1_556 S
C87 C86 1.399 1_554 S
C87 C88 1.376 . S
C87 H107 0.931 . S
C88 N83 1.340 . S
C88 C87 1.376 . S
C88 H99 0.930 . S
C89 O96 1.239 . S
C89 O97 1.230 1_556 S
O90 Cd54 2.275 . S
O90 C64 1.238 . S
O91 Cd55 2.273 . S
O91 C64 1.253 . S
O92 Cd55 2.268 1_556 S
O92 C81 1.238 . S
O93 Cd54 2.263 1_556 S
O93 C81 1.253 . S
O94 Cd54 2.423 . S
O94 C82 1.239 . S
O95 Cd54 2.328 1_556 S
O95 C82 1.230 1_556 S
O96 Cd55 2.417 1_556 S
O96 C89 1.239 . S
O97 Cd55 2.330 . S
O97 C89 1.230 1_554 S
H98 C84 0.929 . S
H99 C88 0.930 . S
H100 C58 0.931 . S
H101 C60 0.930 . S
H102 C66 0.929 . S
H103 C68 0.931 . S
H104 C75 0.931 . S
H105 C77 0.930 . S
H106 C85 0.929 . S
H107 C87 0.931 . S
Cd108 N111 2.334 . S
Cd108 N137 2.304 . S
Cd108 O144 2.273 . S
Cd108 O147 2.266 1_554 S
Cd108 O148 2.421 . S
Cd108 O149 2.328 1_554 S
Cd109 N124 2.304 1_554 S
Cd109 N128 2.334 . S
Cd109 O145 2.273 . S
Cd109 O146 2.268 1_554 S
Cd109 O150 2.417 1_554 S
Cd109 O151 2.330 . S
C110 N111 1.332 1_556 S
C110 C114 1.381 . S
C110 H116 0.931 . S
N111 Cd108 2.334 . S
N111 C110 1.332 1_554 S
N111 C115 1.328 . S
C112 C113 1.396 . S
C112 C115 1.378 . S
C112 H154 0.931 . S
C113 C112 1.396 . S
C113 C114 1.382 1_554 S
C114 C110 1.381 . S
C114 C113 1.382 1_556 S
C114 H155 0.930 . S
C115 N111 1.328 . S
C115 C112 1.378 . S
C115 H117 0.930 . S
H116 C110 0.931 . S
H117 C115 0.930 . S
C118 O144 1.238 . S
C118 O145 1.253 . S
C119 C120 1.379 . S
C119 N124 1.337 1_554 S
C119 H125 0.929 . S
C120 C119 1.379 . S
C120 C121 1.380 1_554 S
C120 H156 0.929 . S
C121 C120 1.380 1_556 S
C121 C122 1.399 . S
C122 C121 1.399 . S
C122 C123 1.376 . S
C122 H157 0.931 . S
C123 C122 1.376 . S
C123 N124 1.338 . S
C123 H126 0.930 . S
N124 Cd109 2.304 1_556 S
N124 C119 1.337 1_556 S
N124 C123 1.338 . S
H125 C119 0.929 . S
H126 C123 0.930 . S
C127 N128 1.332 . S
C127 C131 1.381 . S
C127 H133 0.931 . S
N128 Cd109 2.334 . S
N128 C127 1.332 . S
N128 C132 1.328 1_554 S
C129 C130 1.396 1_556 S
C129 C132 1.378 . S
C129 H158 0.931 . S
C130 C129 1.396 1_554 S
C130 C131 1.382 . S
C131 C127 1.381 . S
C131 C130 1.382 . S
C131 H159 0.930 . S
C132 N128 1.328 1_556 S
C132 C129 1.378 . S
C132 H134 0.930 . S
H133 C127 0.931 . S
H134 C132 0.930 . S
C135 O146 1.238 . S
C135 O147 1.253 . S
C136 O148 1.239 . S
C136 O149 1.230 1_554 S
N137 Cd108 2.304 . S
N137 C138 1.338 1_554 S
N137 C142 1.338 . S
C138 N137 1.338 1_556 S
C138 C139 1.379 . S
C138 H152 0.929 . S
C139 C138 1.379 . S
C139 C140 1.380 . S
C139 H160 0.929 . S
C140 C139 1.380 . S
C140 C141 1.399 1_556 S
C141 C140 1.399 1_554 S
C141 C142 1.376 . S
C141 H161 0.931 . S
C142 N137 1.338 . S
C142 C141 1.376 . S
C142 H153 0.930 . S
C143 O150 1.239 . S
C143 O151 1.230 1_556 S
O144 Cd108 2.273 . S
O144 C118 1.238 . S
O145 Cd109 2.273 . S
O145 C118 1.253 . S
O146 Cd109 2.268 1_556 S
O146 C135 1.238 . S
O147 Cd108 2.266 1_556 S
O147 C135 1.253 . S
O148 Cd108 2.421 . S
O148 C136 1.239 . S
O149 Cd108 2.328 1_556 S
O149 C136 1.230 1_556 S
O150 Cd109 2.417 1_556 S
O150 C143 1.239 . S
O151 Cd109 2.330 . S
O151 C143 1.230 1_554 S
H152 C138 0.929 . S
H153 C142 0.930 . S
H154 C112 0.931 . S
H155 C114 0.930 . S
H156 C120 0.929 . S
H157 C122 0.931 . S
H158 C129 0.931 . S
H159 C131 0.930 . S
H160 C139 0.929 . S
H161 C141 0.931 . S
Cd162 N165 2.334 . S
Cd162 N191 2.304 . S
Cd162 O198 2.268 . S
Cd162 O201 2.273 . S
Cd162 O202 2.417 . S
Cd162 O203 2.330 . S
Cd163 N178 2.304 . S
Cd163 N182 2.334 . S
Cd163 O199 2.273 . S
Cd163 O200 2.268 . S
Cd163 O204 2.417 . S
Cd163 O205 2.330 . S
C164 N165 1.332 . S
C164 C168 1.381 . S
C164 H170 0.931 . S
N165 Cd162 2.334 . S
N165 C164 1.332 . S
N165 C169 1.328 . S
C166 C167 1.396 . S
C166 C169 1.378 . S
C166 H208 0.931 . S
C167 C166 1.396 . S
C167 C168 1.382 . S
C168 C164 1.381 . S
C168 C167 1.382 . S
C168 H209 0.930 . S
C169 N165 1.328 . S
C169 C166 1.378 . S
C169 H171 0.930 . S
H170 C164 0.931 . S
H171 C169 0.930 . S
C172 O198 1.238 . S
C172 O199 1.253 . S
C173 C174 1.379 . S
C173 N178 1.337 . S
C173 H179 0.929 . S
C174 C173 1.379 . S
C174 C175 1.380 . S
C174 H210 0.929 . S
C175 C174 1.380 . S
C175 C176 1.399 . S
C176 C175 1.399 . S
C176 C177 1.376 . S
C176 H211 0.931 . S
C177 C176 1.376 . S
C177 N178 1.338 . S
C177 H180 0.930 . S
N178 Cd163 2.304 . S
N178 C173 1.337 . S
N178 C177 1.338 . S
H179 C173 0.929 . S
H180 C177 0.930 . S
C181 N182 1.332 . S
C181 C185 1.381 . S
C181 H187 0.931 . S
N182 Cd163 2.334 . S
N182 C181 1.332 . S
N182 C186 1.328 . S
C183 C184 1.396 . S
C183 C186 1.378 . S
C183 H212 0.931 . S
C184 C183 1.396 . S
C184 C185 1.382 . S
C185 C181 1.381 . S
C185 C184 1.382 . S
C185 H213 0.930 . S
C186 N182 1.328 . S
C186 C183 1.378 . S
C186 H188 0.930 . S
H187 C181 0.931 . S
H188 C186 0.930 . S
C189 O200 1.238 . S
C189 O201 1.253 . S
C190 O202 1.239 . S
C190 O203 1.230 . S
N191 Cd162 2.304 . S
N191 C192 1.337 . S
N191 C196 1.338 . S
C192 N191 1.337 . S
C192 C193 1.379 . S
C192 H206 0.929 . S
C193 C192 1.379 . S
C193 C194 1.380 . S
C193 H214 0.929 . S
C194 C193 1.380 . S
C194 C195 1.399 . S
C195 C194 1.399 . S
C195 C196 1.376 . S
C195 H215 0.931 . S
C196 N191 1.338 . S
C196 C195 1.376 . S
C196 H207 0.930 . S
C197 O204 1.239 . S
C197 O205 1.230 . S
O198 Cd162 2.268 . S
O198 C172 1.238 . S
O199 Cd163 2.273 . S
O199 C172 1.253 . S
O200 Cd163 2.268 . S
O200 C189 1.238 . S
O201 Cd162 2.273 . S
O201 C189 1.253 . S
O202 Cd162 2.417 . S
O202 C190 1.239 . S
O203 Cd162 2.330 . S
O203 C190 1.230 . S
O204 Cd163 2.417 . S
O204 C197 1.239 . S
O205 Cd163 2.330 . S
O205 C197 1.230 . S
H206 C192 0.929 . S
H207 C196 0.930 . S
H208 C166 0.931 . S
H209 C168 0.930 . S
H210 C174 0.929 . S
H211 C176 0.931 . S
H212 C183 0.931 . S
H213 C185 0.930 . S
H214 C193 0.929 . S
H215 C195 0.931 . S
Cd216 N219 2.334 . S
Cd216 N245 2.304 . S
Cd216 O252 2.268 . S
Cd216 O255 2.273 . S
Cd216 O256 2.417 . S
Cd216 O257 2.330 . S
Cd217 N232 2.304 . S
Cd217 N236 2.334 . S
Cd217 O253 2.273 . S
Cd217 O254 2.268 . S
Cd217 O258 2.417 . S
Cd217 O259 2.330 . S
C218 N219 1.332 . S
C218 C222 1.381 . S
C218 H224 0.931 . S
N219 Cd216 2.334 . S
N219 C218 1.332 . S
N219 C223 1.328 . S
C220 C221 1.396 . S
C220 C223 1.378 . S
C220 H262 0.931 . S
C221 C220 1.396 . S
C221 C222 1.382 . S
C222 C218 1.381 . S
C222 C221 1.382 . S
C222 H263 0.930 . S
C223 N219 1.328 . S
C223 C220 1.378 . S
C223 H225 0.930 . S
H224 C218 0.931 . S
H225 C223 0.930 . S
C226 O252 1.238 . S
C226 O253 1.253 . S
C227 C228 1.379 . S
C227 N232 1.337 . S
C227 H233 0.929 . S
C228 C227 1.379 . S
C228 C229 1.380 . S
C228 H264 0.929 . S
C229 C228 1.380 . S
C229 C230 1.399 . S
C230 C229 1.399 . S
C230 C231 1.376 . S
C230 H265 0.931 . S
C231 C230 1.376 . S
C231 N232 1.338 . S
C231 H234 0.930 . S
N232 Cd217 2.304 . S
N232 C227 1.337 . S
N232 C231 1.338 . S
H233 C227 0.929 . S
H234 C231 0.930 . S
C235 N236 1.332 . S
C235 C239 1.381 . S
C235 H241 0.931 . S
N236 Cd217 2.334 . S
N236 C235 1.332 . S
N236 C240 1.328 . S
C237 C238 1.396 . S
C237 C240 1.378 . S
C237 H266 0.931 . S
C238 C237 1.396 . S
C238 C239 1.382 . S
C239 C235 1.381 . S
C239 C238 1.382 . S
C239 H267 0.930 . S
C240 N236 1.328 . S
C240 C237 1.378 . S
C240 H242 0.930 . S
H241 C235 0.931 . S
H242 C240 0.930 . S
C243 O254 1.238 . S
C243 O255 1.253 . S
C244 O256 1.239 . S
C244 O257 1.230 . S
N245 Cd216 2.304 . S
N245 C246 1.337 . S
N245 C250 1.338 . S
C246 N245 1.337 . S
C246 C247 1.379 . S
C246 H260 0.929 . S
C247 C246 1.379 . S
C247 C248 1.380 . S
C247 H268 0.929 . S
C248 C247 1.380 . S
C248 C249 1.399 . S
C249 C248 1.399 . S
C249 C250 1.376 . S
C249 H269 0.931 . S
C250 N245 1.338 . S
C250 C249 1.376 . S
C250 H261 0.930 . S
C251 O258 1.239 . S
C251 O259 1.230 . S
O252 Cd216 2.268 . S
O252 C226 1.238 . S
O253 Cd217 2.273 . S
O253 C226 1.253 . S
O254 Cd217 2.268 . S
O254 C243 1.238 . S
O255 Cd216 2.273 . S
O255 C243 1.253 . S
O256 Cd216 2.417 . S
O256 C244 1.239 . S
O257 Cd216 2.330 . S
O257 C244 1.230 . S
O258 Cd217 2.417 . S
O258 C251 1.239 . S
O259 Cd217 2.330 . S
O259 C251 1.230 . S
H260 C246 0.929 . S
H261 C250 0.930 . S
H262 C220 0.931 . S
H263 C222 0.930 . S
H264 C228 0.929 . S
H265 C230 0.931 . S
H266 C237 0.931 . S
H267 C239 0.930 . S
H268 C247 0.929 . S
H269 C249 0.931 . S
Cd270 N273 2.334 . S
Cd270 N299 2.304 . S
Cd270 O306 2.268 . S
Cd270 O309 2.273 . S
Cd270 O310 2.417 . S
Cd270 O311 2.330 . S
Cd271 N286 2.304 . S
Cd271 N290 2.334 . S
Cd271 O307 2.273 . S
Cd271 O308 2.268 . S
Cd271 O312 2.417 . S
Cd271 O313 2.330 . S
C272 N273 1.332 . S
C272 C276 1.381 . S
C272 H278 0.931 . S
N273 Cd270 2.334 . S
N273 C272 1.332 . S
N273 C277 1.328 . S
C274 C275 1.396 . S
C274 C277 1.378 . S
C274 H316 0.931 . S
C275 C274 1.396 . S
C275 C276 1.382 . S
C276 C272 1.381 . S
C276 C275 1.382 . S
C276 H317 0.930 . S
C277 N273 1.328 . S
C277 C274 1.378 . S
C277 H279 0.930 . S
H278 C272 0.931 . S
H279 C277 0.930 . S
C280 O306 1.238 . S
C280 O307 1.253 . S
C281 C282 1.379 . S
C281 N286 1.337 . S
C281 H287 0.929 . S
C282 C281 1.379 . S
C282 C283 1.380 . S
C282 H318 0.929 . S
C283 C282 1.380 . S
C283 C284 1.399 . S
C284 C283 1.399 . S
C284 C285 1.376 . S
C284 H319 0.931 . S
C285 C284 1.376 . S
C285 N286 1.338 . S
C285 H288 0.930 . S
N286 Cd271 2.304 . S
N286 C281 1.337 . S
N286 C285 1.338 . S
H287 C281 0.929 . S
H288 C285 0.930 . S
C289 N290 1.332 . S
C289 C293 1.381 . S
C289 H295 0.931 . S
N290 Cd271 2.334 . S
N290 C289 1.332 . S
N290 C294 1.328 . S
C291 C292 1.396 . S
C291 C294 1.378 . S
C291 H320 0.931 . S
C292 C291 1.396 . S
C292 C293 1.382 . S
C293 C289 1.381 . S
C293 C292 1.382 . S
C293 H321 0.930 . S
C294 N290 1.328 . S
C294 C291 1.378 . S
C294 H296 0.930 . S
H295 C289 0.931 . S
H296 C294 0.930 . S
C297 O308 1.238 . S
C297 O309 1.253 . S
C298 O310 1.239 . S
C298 O311 1.230 . S
N299 Cd270 2.304 . S
N299 C300 1.337 . S
N299 C304 1.338 . S
C300 N299 1.337 . S
C300 C301 1.379 . S
C300 H314 0.929 . S
C301 C300 1.379 . S
C301 C302 1.380 . S
C301 H322 0.929 . S
C302 C301 1.380 . S
C302 C303 1.399 . S
C303 C302 1.399 . S
C303 C304 1.376 . S
C303 H323 0.931 . S
C304 N299 1.338 . S
C304 C303 1.376 . S
C304 H315 0.930 . S
C305 O312 1.239 . S
C305 O313 1.230 . S
O306 Cd270 2.268 . S
O306 C280 1.238 . S
O307 Cd271 2.273 . S
O307 C280 1.253 . S
O308 Cd271 2.268 . S
O308 C297 1.238 . S
O309 Cd270 2.273 . S
O309 C297 1.253 . S
O310 Cd270 2.417 . S
O310 C298 1.239 . S
O311 Cd270 2.330 . S
O311 C298 1.230 . S
O312 Cd271 2.417 . S
O312 C305 1.239 . S
O313 Cd271 2.330 . S
O313 C305 1.230 . S
H314 C300 0.929 . S
H315 C304 0.930 . S
H316 C274 0.931 . S
H317 C276 0.930 . S
H318 C282 0.929 . S
H319 C284 0.931 . S
H320 C291 0.931 . S
H321 C293 0.930 . S
H322 C301 0.929 . S
H323 C303 0.931 . S
Cd324 N327 2.334 . S
Cd324 N353 2.304 . S
Cd324 O360 2.268 . S
Cd324 O363 2.273 . S
Cd324 O364 2.417 . S
Cd324 O365 2.330 . S
Cd325 N340 2.304 . S
Cd325 N344 2.334 . S
Cd325 O361 2.273 . S
Cd325 O362 2.268 . S
Cd325 O366 2.417 . S
Cd325 O367 2.330 . S
C326 N327 1.332 . S
C326 C330 1.381 . S
C326 H332 0.931 . S
N327 Cd324 2.334 . S
N327 C326 1.332 . S
N327 C331 1.328 . S
C328 C329 1.396 . S
C328 C331 1.378 . S
C328 H370 0.931 . S
C329 C328 1.396 . S
C329 C330 1.382 . S
C330 C326 1.381 . S
C330 C329 1.382 . S
C330 H371 0.930 . S
C331 N327 1.328 . S
C331 C328 1.378 . S
C331 H333 0.930 . S
H332 C326 0.931 . S
H333 C331 0.930 . S
C334 O360 1.238 . S
C334 O361 1.253 . S
C335 C336 1.379 . S
C335 N340 1.337 . S
C335 H341 0.929 . S
C336 C335 1.379 . S
C336 C337 1.380 . S
C336 H372 0.929 . S
C337 C336 1.380 . S
C337 C338 1.399 . S
C338 C337 1.399 . S
C338 C339 1.376 . S
C338 H373 0.931 . S
C339 C338 1.376 . S
C339 N340 1.338 . S
C339 H342 0.930 . S
N340 Cd325 2.304 . S
N340 C335 1.337 . S
N340 C339 1.338 . S
H341 C335 0.929 . S
H342 C339 0.930 . S
C343 N344 1.332 . S
C343 C347 1.381 . S
C343 H349 0.931 . S
N344 Cd325 2.334 . S
N344 C343 1.332 . S
N344 C348 1.328 . S
C345 C346 1.396 . S
C345 C348 1.378 . S
C345 H374 0.931 . S
C346 C345 1.396 . S
C346 C347 1.382 . S
C347 C343 1.381 . S
C347 C346 1.382 . S
C347 H375 0.930 . S
C348 N344 1.328 . S
C348 C345 1.378 . S
C348 H350 0.930 . S
H349 C343 0.931 . S
H350 C348 0.930 . S
C351 O362 1.238 . S
C351 O363 1.253 . S
C352 O364 1.239 . S
C352 O365 1.230 . S
N353 Cd324 2.304 . S
N353 C354 1.337 . S
N353 C358 1.338 . S
C354 N353 1.337 . S
C354 C355 1.379 . S
C354 H368 0.929 . S
C355 C354 1.379 . S
C355 C356 1.380 . S
C355 H376 0.929 . S
C356 C355 1.380 . S
C356 C357 1.399 . S
C357 C356 1.399 . S
C357 C358 1.376 . S
C357 H377 0.931 . S
C358 N353 1.338 . S
C358 C357 1.376 . S
C358 H369 0.930 . S
C359 O366 1.239 . S
C359 O367 1.230 . S
O360 Cd324 2.268 . S
O360 C334 1.238 . S
O361 Cd325 2.273 . S
O361 C334 1.253 . S
O362 Cd325 2.268 . S
O362 C351 1.238 . S
O363 Cd324 2.273 . S
O363 C351 1.253 . S
O364 Cd324 2.417 . S
O364 C352 1.239 . S
O365 Cd324 2.330 . S
O365 C352 1.230 . S
O366 Cd325 2.417 . S
O366 C359 1.239 . S
O367 Cd325 2.330 . S
O367 C359 1.230 . S
H368 C354 0.929 . S
H369 C358 0.930 . S
H370 C328 0.931 . S
H371 C330 0.930 . S
H372 C336 0.929 . S
H373 C338 0.931 . S
H374 C345 0.931 . S
H375 C347 0.930 . S
H376 C355 0.929 . S
H377 C357 0.931 . S
Cd378 N381 2.334 . S
Cd378 N407 2.304 . S
Cd378 O414 2.268 . S
Cd378 O417 2.273 . S
Cd378 O418 2.417 . S
Cd378 O419 2.330 . S
Cd379 N394 2.304 . S
Cd379 N398 2.334 . S
Cd379 O415 2.273 . S
Cd379 O416 2.268 . S
Cd379 O420 2.417 . S
Cd379 O421 2.330 . S
C380 N381 1.332 . S
C380 C384 1.381 . S
C380 H386 0.931 . S
N381 Cd378 2.334 . S
N381 C380 1.332 . S
N381 C385 1.328 . S
C382 C383 1.396 . S
C382 C385 1.378 . S
C382 H424 0.931 . S
C383 C382 1.396 . S
C383 C384 1.382 . S
C384 C380 1.381 . S
C384 C383 1.382 . S
C384 H425 0.930 . S
C385 N381 1.328 . S
C385 C382 1.378 . S
C385 H387 0.930 . S
H386 C380 0.931 . S
H387 C385 0.930 . S
C388 O414 1.238 . S
C388 O415 1.253 . S
C389 C390 1.379 . S
C389 N394 1.337 . S
C389 H395 0.929 . S
C390 C389 1.379 . S
C390 C391 1.380 . S
C390 H426 0.929 . S
C391 C390 1.380 . S
C391 C392 1.399 . S
C392 C391 1.399 . S
C392 C393 1.376 . S
C392 H427 0.931 . S
C393 C392 1.376 . S
C393 N394 1.338 . S
C393 H396 0.930 . S
N394 Cd379 2.304 . S
N394 C389 1.337 . S
N394 C393 1.338 . S
H395 C389 0.929 . S
H396 C393 0.930 . S
C397 N398 1.332 . S
C397 C401 1.381 . S
C397 H403 0.931 . S
N398 Cd379 2.334 . S
N398 C397 1.332 . S
N398 C402 1.328 . S
C399 C400 1.396 . S
C399 C402 1.378 . S
C399 H428 0.931 . S
C400 C399 1.396 . S
C400 C401 1.382 . S
C401 C397 1.381 . S
C401 C400 1.382 . S
C401 H429 0.930 . S
C402 N398 1.328 . S
C402 C399 1.378 . S
C402 H404 0.930 . S
H403 C397 0.931 . S
H404 C402 0.930 . S
C405 O416 1.238 . S
C405 O417 1.253 . S
C406 O418 1.239 . S
C406 O419 1.230 . S
N407 Cd378 2.304 . S
N407 C408 1.337 . S
N407 C412 1.338 . S
C408 N407 1.337 . S
C408 C409 1.379 . S
C408 H422 0.929 . S
C409 C408 1.379 . S
C409 C410 1.380 . S
C409 H430 0.929 . S
C410 C409 1.380 . S
C410 C411 1.399 . S
C411 C410 1.399 . S
C411 C412 1.376 . S
C411 H431 0.931 . S
C412 N407 1.338 . S
C412 C411 1.376 . S
C412 H423 0.930 . S
C413 O420 1.239 . S
C413 O421 1.230 . S
O414 Cd378 2.268 . S
O414 C388 1.238 . S
O415 Cd379 2.273 . S
O415 C388 1.253 . S
O416 Cd379 2.268 . S
O416 C405 1.238 . S
O417 Cd378 2.273 . S
O417 C405 1.253 . S
O418 Cd378 2.417 . S
O418 C406 1.239 . S
O419 Cd378 2.330 . S
O419 C406 1.230 . S
O420 Cd379 2.417 . S
O420 C413 1.239 . S
O421 Cd379 2.330 . S
O421 C413 1.230 . S
H422 C408 0.929 . S
H423 C412 0.930 . S
H424 C382 0.931 . S
H425 C384 0.930 . S
H426 C390 0.929 . S
H427 C392 0.931 . S
H428 C399 0.931 . S
H429 C401 0.930 . S
H430 C409 0.929 . S
H431 C411 0.931 . S
Cd432 N435 2.334 . S
Cd432 N461 2.304 . S
Cd432 O468 2.268 . S
Cd432 O471 2.273 . S
Cd432 O472 2.417 . S
Cd432 O473 2.330 . S
Cd433 N448 2.304 . S
Cd433 N452 2.334 . S
Cd433 O469 2.273 . S
Cd433 O470 2.268 . S
Cd433 O474 2.417 . S
Cd433 O475 2.330 . S
C434 N435 1.332 . S
C434 C438 1.381 . S
C434 H440 0.931 . S
N435 Cd432 2.334 . S
N435 C434 1.332 . S
N435 C439 1.328 . S
C436 C437 1.396 . S
C436 C439 1.378 . S
C436 H478 0.931 . S
C437 C436 1.396 . S
C437 C438 1.382 . S
C438 C434 1.381 . S
C438 C437 1.382 . S
C438 H479 0.930 . S
C439 N435 1.328 . S
C439 C436 1.378 . S
C439 H441 0.930 . S
H440 C434 0.931 . S
H441 C439 0.930 . S
C442 O468 1.238 . S
C442 O469 1.253 . S
C443 C444 1.379 . S
C443 N448 1.337 . S
C443 H449 0.929 . S
C444 C443 1.379 . S
C444 C445 1.380 . S
C444 H480 0.929 . S
C445 C444 1.380 . S
C445 C446 1.399 . S
C446 C445 1.399 . S
C446 C447 1.376 . S
C446 H481 0.931 . S
C447 C446 1.376 . S
C447 N448 1.338 . S
C447 H450 0.930 . S
N448 Cd433 2.304 . S
N448 C443 1.337 . S
N448 C447 1.338 . S
H449 C443 0.929 . S
H450 C447 0.930 . S
C451 N452 1.332 . S
C451 C455 1.381 . S
C451 H457 0.931 . S
N452 Cd433 2.334 . S
N452 C451 1.332 . S
N452 C456 1.328 . S
C453 C454 1.396 . S
C453 C456 1.378 . S
C453 H482 0.931 . S
C454 C453 1.396 . S
C454 C455 1.382 . S
C455 C451 1.381 . S
C455 C454 1.382 . S
C455 H483 0.930 . S
C456 N452 1.328 . S
C456 C453 1.378 . S
C456 H458 0.930 . S
H457 C451 0.931 . S
H458 C456 0.930 . S
C459 O470 1.238 . S
C459 O471 1.253 . S
C460 O472 1.239 . S
C460 O473 1.230 . S
N461 Cd432 2.304 . S
N461 C462 1.337 . S
N461 C466 1.338 . S
C462 N461 1.337 . S
C462 C463 1.379 . S
C462 H476 0.929 . S
C463 C462 1.379 . S
C463 C464 1.380 . S
C463 H484 0.929 . S
C464 C463 1.380 . S
C464 C465 1.399 . S
C465 C464 1.399 . S
C465 C466 1.376 . S
C465 H485 0.931 . S
C466 N461 1.338 . S
C466 C465 1.376 . S
C466 H477 0.930 . S
C467 O474 1.239 . S
C467 O475 1.230 . S
O468 Cd432 2.268 . S
O468 C442 1.238 . S
O469 Cd433 2.273 . S
O469 C442 1.253 . S
O470 Cd433 2.268 . S
O470 C459 1.238 . S
O471 Cd432 2.273 . S
O471 C459 1.253 . S
O472 Cd432 2.417 . S
O472 C460 1.239 . S
O473 Cd432 2.330 . S
O473 C460 1.230 . S
O474 Cd433 2.417 . S
O474 C467 1.239 . S
O475 Cd433 2.330 . S
O475 C467 1.230 . S
H476 C462 0.929 . S
H477 C466 0.930 . S
H478 C436 0.931 . S
H479 C438 0.930 . S
H480 C444 0.929 . S
H481 C446 0.931 . S
H482 C453 0.931 . S
H483 C455 0.930 . S
H484 C463 0.929 . S
H485 C465 0.931 . S
H486 C492 0.930 . S
H487 C496 0.930 . S
H488 C501 0.929 . S
H489 C499 0.929 . S
H490 C494 0.929 . S
H491 C500 0.929 . S
C492 H486 0.930 . S
C492 C493 1.367 . S
C492 C500 1.378 . S
C493 C492 1.367 . S
C493 C501 1.433 . S
C494 H490 0.929 . S
C494 C496 1.378 . S
C494 C498 1.350 . S
C495 C498 1.463 . S
C495 C500 1.350 . S
C495 N503 1.427 . S
C496 H487 0.930 . S
C496 C494 1.378 . S
C496 C497 1.367 . S
C497 C496 1.367 . S
C497 C499 1.433 . S
C498 C494 1.350 . S
C498 C495 1.463 . S
C498 N502 1.427 . S
C499 H489 0.929 . S
C499 C497 1.433 . S
C499 N502 1.384 . S
C500 H491 0.929 . S
C500 C492 1.378 . S
C500 C495 1.350 . S
C501 H488 0.929 . S
C501 C493 1.433 . S
C501 N503 1.384 . S
N502 C498 1.427 . S
N502 C499 1.384 . S
N503 C495 1.427 . S
N503 C501 1.384 . S
H504 C510 0.930 . S
H505 C514 0.930 . S
H506 C519 0.929 . S
H507 C517 0.929 . S
H508 C512 0.929 1_556 S
H509 C518 0.929 . S
C510 H504 0.930 . S
C510 C511 1.367 . S
C510 C518 1.378 . S
C511 C510 1.367 . S
C511 C519 1.433 . S
C512 H508 0.929 1_554 S
C512 C514 1.378 1_554 S
C512 C516 1.350 . S
C513 C516 1.463 . S
C513 C518 1.350 . S
C513 N521 1.427 . S
C514 H505 0.930 . S
C514 C512 1.378 1_556 S
C514 C515 1.367 1_546 S
C515 C514 1.367 1_564 S
C515 C517 1.433 . S
C516 C512 1.350 . S
C516 C513 1.463 . S
C516 N520 1.427 . S
C517 H507 0.929 . S
C517 C515 1.433 . S
C517 N520 1.384 1_565 S
C518 H509 0.929 . S
C518 C510 1.378 . S
C518 C513 1.350 . S
C519 H506 0.929 . S
C519 C511 1.433 . S
C519 N521 1.384 . S
N520 C516 1.427 . S
N520 C517 1.384 1_545 S
N521 C513 1.427 . S
N521 C519 1.384 . S
H522 C528 0.930 . S
H523 C532 0.930 . S
H524 C537 0.929 . S
H525 C535 0.929 . S
H526 C530 0.929 . S
H527 C536 0.929 1_556 S
C528 H522 0.930 . S
C528 C529 1.367 1_656 S
C528 C536 1.378 1_556 S
C529 C528 1.367 1_454 S
C529 C537 1.433 . S
C530 H526 0.929 . S
C530 C532 1.378 . S
C530 C534 1.350 . S
C531 C534 1.463 . S
C531 C536 1.350 . S
C531 N539 1.427 . S
C532 H523 0.930 . S
C532 C530 1.378 . S
C532 C533 1.367 . S
C533 C532 1.367 . S
C533 C535 1.433 . S
C534 C530 1.350 . S
C534 C531 1.463 . S
C534 N538 1.427 . S
C535 H525 0.929 . S
C535 C533 1.433 . S
C535 N538 1.384 . S
C536 H527 0.929 1_554 S
C536 C528 1.378 1_554 S
C536 C531 1.350 . S
C537 H524 0.929 . S
C537 C529 1.433 . S
C537 N539 1.384 1_455 S
N538 C534 1.427 . S
N538 C535 1.384 . S
N539 C531 1.427 . S
N539 C537 1.384 1_655 S
H540 C546 0.930 1_556 S
H541 C550 0.930 . S
H542 C555 0.929 . S
H543 C553 0.929 . S
H544 C548 0.929 . S
H545 C554 0.929 . S
C546 H540 0.930 1_554 S
C546 C547 1.367 . S
C546 C554 1.378 . S
C547 C546 1.367 . S
C547 C555 1.433 . S
C548 H544 0.929 . S
C548 C550 1.378 . S
C548 C552 1.350 . S
C549 C552 1.463 . S
C549 C554 1.350 . S
C549 N557 1.427 . S
C550 H541 0.930 . S
C550 C548 1.378 . S
C550 C551 1.367 . S
C551 C550 1.367 . S
C551 C553 1.433 . S
C552 C548 1.350 . S
C552 C549 1.463 . S
C552 N556 1.427 . S
C553 H543 0.929 . S
C553 C551 1.433 . S
C553 N556 1.384 . S
C554 H545 0.929 . S
C554 C546 1.378 . S
C554 C549 1.350 . S
C555 H542 0.929 . S
C555 C547 1.433 . S
C555 N557 1.384 . S
N556 C552 1.427 . S
N556 C553 1.384 . S
N557 C549 1.427 . S
N557 C555 1.384 . S
H558 C564 0.930 . S
H559 C568 0.930 . S
H560 C573 0.929 1_556 S
H561 C571 0.929 . S
H562 C566 0.929 . S
H563 C572 0.929 . S
C564 H558 0.930 . S
C564 C565 1.367 . S
C564 C572 1.378 . S
C565 C564 1.367 . S
C565 C573 1.433 . S
C566 H562 0.929 . S
C566 C568 1.378 . S
C566 C570 1.350 . S
C567 C570 1.463 . S
C567 C572 1.350 . S
C567 N575 1.427 . S
C568 H559 0.930 . S
C568 C566 1.378 . S
C568 C569 1.367 . S
C569 C568 1.367 . S
C569 C571 1.433 . S
C570 C566 1.350 . S
C570 C567 1.463 . S
C570 N574 1.427 . S
C571 H561 0.929 . S
C571 C569 1.433 . S
C571 N574 1.384 . S
C572 H563 0.929 . S
C572 C564 1.378 . S
C572 C567 1.350 . S
C573 H560 0.929 1_554 S
C573 C565 1.433 . S
C573 N575 1.384 . S
N574 C570 1.427 . S
N574 C571 1.384 . S
N575 C567 1.427 . S
N575 C573 1.384 . S
H576 C582 0.930 1_455 S
H577 C586 0.930 . S
H578 C591 0.929 . S
H579 C589 0.929 . S
H580 C584 0.929 . S
H581 C590 0.929 . S
C582 H576 0.930 1_655 S
C582 C583 1.367 . S
C582 C590 1.378 . S
C583 C582 1.367 . S
C583 C591 1.433 . S
C584 H580 0.929 . S
C584 C586 1.378 . S
C584 C588 1.350 . S
C585 C588 1.463 . S
C585 C590 1.350 . S
C585 N593 1.427 . S
C586 H577 0.930 . S
C586 C584 1.378 . S
C586 C587 1.367 . S
C587 C586 1.367 . S
C587 C589 1.433 . S
C588 C584 1.350 . S
C588 C585 1.463 . S
C588 N592 1.427 . S
C589 H579 0.929 . S
C589 C587 1.433 . S
C589 N592 1.384 . S
C590 H581 0.929 . S
C590 C582 1.378 . S
C590 C585 1.350 . S
C591 H578 0.929 . S
C591 C583 1.433 . S
C591 N593 1.384 . S
N592 C588 1.427 . S
N592 C589 1.384 . S
N593 C585 1.427 . S
N593 C591 1.384 . S
H594 C600 0.930 . S
H595 C604 0.930 . S
H596 C609 0.929 . S
H597 C607 0.929 . S
H598 C602 0.929 . S
H599 C608 0.929 . S
C600 H594 0.930 . S
C600 C601 1.367 . S
C600 C608 1.378 . S
C601 C600 1.367 . S
C601 C609 1.433 . S
C602 H598 0.929 . S
C602 C604 1.378 . S
C602 C606 1.350 . S
C603 C606 1.463 . S
C603 C608 1.350 . S
C603 N611 1.427 . S
C604 H595 0.930 . S
C604 C602 1.378 . S
C604 C605 1.367 1_655 S
C605 C604 1.367 1_455 S
C605 C607 1.433 . S
C606 C602 1.350 . S
C606 C603 1.463 . S
C606 N610 1.427 . S
C607 H597 0.929 . S
C607 C605 1.433 . S
C607 N610 1.384 1_455 S
C608 H599 0.929 . S
C608 C600 1.378 . S
C608 C603 1.350 . S
C609 H596 0.929 . S
C609 C601 1.433 . S
C609 N611 1.384 . S
N610 C606 1.427 . S
N610 C607 1.384 1_655 S
N611 C603 1.427 . S
N611 C609 1.384 . S
H612 C618 0.930 . S
H613 C622 0.930 . S
H614 C627 0.929 . S
H615 C625 0.929 . S
H616 C620 0.929 . S
H617 C626 0.929 . S
C618 H612 0.930 . S
C618 C619 1.367 . S
C618 C626 1.378 . S
C619 C618 1.367 . S
C619 C627 1.433 . S
C620 H616 0.929 . S
C620 C622 1.378 . S
C620 C624 1.350 . S
C621 C624 1.463 . S
C621 C626 1.350 . S
C621 N629 1.427 . S
C622 H613 0.930 . S
C622 C620 1.378 . S
C622 C623 1.367 . S
C623 C622 1.367 . S
C623 C625 1.433 . S
C624 C620 1.350 . S
C624 C621 1.463 . S
C624 N628 1.427 . S
C625 H615 0.929 . S
C625 C623 1.433 . S
C625 N628 1.384 . S
C626 H617 0.929 . S
C626 C618 1.378 . S
C626 C621 1.350 . S
C627 H614 0.929 . S
C627 C619 1.433 . S
C627 N629 1.384 . S
N628 C624 1.427 . S
N628 C625 1.384 . S
N629 C621 1.427 . S
N629 C627 1.384 . S
H630 C636 0.930 . S
H631 C640 0.930 . S
H632 C645 0.929 . S
H633 C643 0.929 . S
H634 C638 0.929 . S
H635 C644 0.929 . S
C636 H630 0.930 . S
C636 C637 1.367 . S
C636 C644 1.378 1_565 S
C637 C636 1.367 . S
C637 C645 1.433 1_565 S
C638 H634 0.929 . S
C638 C640 1.378 . S
C638 C642 1.350 . S
C639 C642 1.463 . S
C639 C644 1.350 . S
C639 N647 1.427 . S
C640 H631 0.930 . S
C640 C638 1.378 . S
C640 C641 1.367 . S
C641 C640 1.367 . S
C641 C643 1.433 . S
C642 C638 1.350 . S
C642 C639 1.463 . S
C642 N646 1.427 . S
C643 H633 0.929 . S
C643 C641 1.433 . S
C643 N646 1.384 . S
C644 H635 0.929 . S
C644 C636 1.378 1_545 S
C644 C639 1.350 . S
C645 H632 0.929 . S
C645 C637 1.433 1_545 S
C645 N647 1.384 . S
N646 C642 1.427 . S
N646 C643 1.384 . S
N647 C639 1.427 . S
N647 C645 1.384 . S
H648 C654 0.930 . S
H649 C658 0.930 1_565 S
H650 C663 0.929 . S
H651 C661 0.929 . S
H652 C656 0.929 . S
H653 C662 0.929 . S
C654 H648 0.930 . S
C654 C655 1.367 . S
C654 C662 1.378 . S
C655 C654 1.367 . S
C655 C663 1.433 . S
C656 H652 0.929 . S
C656 C658 1.378 . S
C656 C660 1.350 . S
C657 C660 1.463 . S
C657 C662 1.350 . S
C657 N665 1.427 . S
C658 H649 0.930 1_545 S
C658 C656 1.378 . S
C658 C659 1.367 . S
C659 C658 1.367 . S
C659 C661 1.433 . S
C660 C656 1.350 . S
C660 C657 1.463 . S
C660 N664 1.427 . S
C661 H651 0.929 . S
C661 C659 1.433 . S
C661 N664 1.384 . S
C662 H653 0.929 . S
C662 C654 1.378 . S
C662 C657 1.350 . S
C663 H650 0.929 . S
C663 C655 1.433 . S
C663 N665 1.384 . S
N664 C660 1.427 . S
N664 C661 1.384 . S
N665 C657 1.427 . S
N665 C663 1.384 . S
H666 C672 0.930 1_455 S
H667 C676 0.930 . S
H668 C681 0.929 . S
H669 C679 0.929 . S
H670 C674 0.929 . S
H671 C680 0.929 . S
C672 H666 0.930 1_655 S
C672 C673 1.367 . S
C672 C680 1.378 . S
C673 C672 1.367 . S
C673 C681 1.433 . S
C674 H670 0.929 . S
C674 C676 1.378 . S
C674 C678 1.350 . S
C675 C678 1.463 . S
C675 C680 1.350 . S
C675 N683 1.427 . S
C676 H667 0.930 . S
C676 C674 1.378 . S
C676 C677 1.367 . S
C677 C676 1.367 . S
C677 C679 1.433 . S
C678 C674 1.350 . S
C678 C675 1.463 . S
C678 N682 1.427 . S
C679 H669 0.929 . S
C679 C677 1.433 . S
C679 N682 1.384 . S
C680 H671 0.929 . S
C680 C672 1.378 . S
C680 C675 1.350 . S
C681 H668 0.929 . S
C681 C673 1.433 . S
C681 N683 1.384 . S
N682 C678 1.427 . S
N682 C679 1.384 . S
N683 C675 1.427 . S
N683 C681 1.384 . S
H684 C690 0.930 . S
H685 C694 0.930 . S
H686 C699 0.929 . S
H687 C697 0.929 . S
H688 C692 0.929 . S
H689 C698 0.929 . S
C690 H684 0.930 . S
C690 C691 1.367 . S
C690 C698 1.378 . S
C691 C690 1.367 . S
C691 C699 1.433 . S
C692 H688 0.929 . S
C692 C694 1.378 . S
C692 C696 1.350 . S
C693 C696 1.463 . S
C693 C698 1.350 . S
C693 N701 1.427 . S
C694 H685 0.930 . S
C694 C692 1.378 . S
C694 C695 1.367 . S
C695 C694 1.367 . S
C695 C697 1.433 . S
C696 C692 1.350 . S
C696 C693 1.463 . S
C696 N700 1.427 . S
C697 H687 0.929 . S
C697 C695 1.433 . S
C697 N700 1.384 . S
C698 H689 0.929 . S
C698 C690 1.378 . S
C698 C693 1.350 . S
C699 H686 0.929 . S
C699 C691 1.433 . S
C699 N701 1.384 . S
N700 C696 1.427 . S
N700 C697 1.384 . S
N701 C693 1.427 . S
N701 C699 1.384 . S
H702 C708 0.930 . S
H703 C712 0.930 . S
H704 C717 0.929 . S
H705 C715 0.929 . S
H706 C710 0.929 . S
H707 C716 0.929 . S
C708 H702 0.930 . S
C708 C709 1.367 . S
C708 C716 1.378 . S
C709 C708 1.367 . S
C709 C717 1.433 . S
C710 H706 0.929 . S
C710 C712 1.378 . S
C710 C714 1.350 . S
C711 C714 1.463 . S
C711 C716 1.350 . S
C711 N719 1.427 . S
C712 H703 0.930 . S
C712 C710 1.378 . S
C712 C713 1.367 . S
C713 C712 1.367 . S
C713 C715 1.433 . S
C714 C710 1.350 . S
C714 C711 1.463 . S
C714 N718 1.427 . S
C715 H705 0.929 . S
C715 C713 1.433 . S
C715 N718 1.384 . S
C716 H707 0.929 . S
C716 C708 1.378 . S
C716 C711 1.350 . S
C717 H704 0.929 . S
C717 C709 1.433 . S
C717 N719 1.384 . S
N718 C714 1.427 . S
N718 C715 1.384 . S
N719 C711 1.427 . S
N719 C717 1.384 . S
H720 C726 0.930 . S
H721 C730 0.930 . S
H722 C735 0.929 . S
H723 C733 0.929 . S
H724 C728 0.929 . S
H725 C734 0.929 . S
C726 H720 0.930 . S
C726 C727 1.367 . S
C726 C734 1.378 . S
C727 C726 1.367 . S
C727 C735 1.433 . S
C728 H724 0.929 . S
C728 C730 1.378 . S
C728 C732 1.350 . S
C729 C732 1.463 . S
C729 C734 1.350 . S
C729 N737 1.427 . S
C730 H721 0.930 . S
C730 C728 1.378 . S
C730 C731 1.367 . S
C731 C730 1.367 . S
C731 C733 1.433 . S
C732 C728 1.350 . S
C732 C729 1.463 . S
C732 N736 1.427 . S
C733 H723 0.929 . S
C733 C731 1.433 . S
C733 N736 1.384 . S
C734 H725 0.929 . S
C734 C726 1.378 . S
C734 C729 1.350 . S
C735 H722 0.929 . S
C735 C727 1.433 . S
C735 N737 1.384 . S
N736 C732 1.427 . S
N736 C733 1.384 . S
N737 C729 1.427 . S
N737 C735 1.384 . S
H738 C744 0.930 . S
H739 C748 0.930 . S
H740 C753 0.929 1_554 S
H741 C751 0.929 . S
H742 C746 0.929 . S
H743 C752 0.929 . S
C744 H738 0.930 . S
C744 C745 1.367 . S
C744 C752 1.378 . S
C745 C744 1.367 . S
C745 C753 1.433 . S
C746 H742 0.929 . S
C746 C748 1.378 . S
C746 C750 1.350 . S
C747 C750 1.463 . S
C747 C752 1.350 . S
C747 N755 1.427 . S
C748 H739 0.930 . S
C748 C746 1.378 . S
C748 C749 1.367 . S
C749 C748 1.367 . S
C749 C751 1.433 . S
C750 C746 1.350 . S
C750 C747 1.463 . S
C750 N754 1.427 . S
C751 H741 0.929 . S
C751 C749 1.433 . S
C751 N754 1.384 . S
C752 H743 0.929 . S
C752 C744 1.378 . S
C752 C747 1.350 . S
C753 H740 0.929 1_556 S
C753 C745 1.433 . S
C753 N755 1.384 . S
N754 C750 1.427 . S
N754 C751 1.384 . S
N755 C747 1.427 . S
N755 C753 1.384 . S
H756 C762 0.930 1_554 S
H757 C766 0.930 . S
H758 C771 0.929 . S
H759 C769 0.929 . S
H760 C764 0.929 . S
H761 C770 0.929 . S
C762 H756 0.930 1_556 S
C762 C763 1.367 . S
C762 C770 1.378 . S
C763 C762 1.367 . S
C763 C771 1.433 . S
C764 H760 0.929 . S
C764 C766 1.378 . S
C764 C768 1.350 . S
C765 C768 1.463 . S
C765 C770 1.350 . S
C765 N773 1.427 . S
C766 H757 0.930 . S
C766 C764 1.378 . S
C766 C767 1.367 . S
C767 C766 1.367 . S
C767 C769 1.433 . S
C768 C764 1.350 . S
C768 C765 1.463 . S
C768 N772 1.427 . S
C769 H759 0.929 . S
C769 C767 1.433 . S
C769 N772 1.384 . S
C770 H761 0.929 . S
C770 C762 1.378 . S
C770 C765 1.350 . S
C771 H758 0.929 . S
C771 C763 1.433 . S
C771 N773 1.384 . S
N772 C768 1.427 . S
N772 C769 1.384 . S
N773 C765 1.427 . S
N773 C771 1.384 . S
H774 C780 0.930 1_554 S
H775 C784 0.930 . S
H776 C789 0.929 . S
H777 C787 0.929 . S
H778 C782 0.929 . S
H779 C788 0.929 . S
C780 H774 0.930 1_556 S
C780 C781 1.367 . S
C780 C788 1.378 . S
C781 C780 1.367 . S
C781 C789 1.433 . S
C782 H778 0.929 . S
C782 C784 1.378 . S
C782 C786 1.350 . S
C783 C786 1.463 . S
C783 C788 1.350 . S
C783 N791 1.427 . S
C784 H775 0.930 . S
C784 C782 1.378 . S
C784 C785 1.367 . S
C785 C784 1.367 . S
C785 C787 1.433 . S
C786 C782 1.350 . S
C786 C783 1.463 . S
C786 N790 1.427 . S
C787 H777 0.929 . S
C787 C785 1.433 . S
C787 N790 1.384 . S
C788 H779 0.929 . S
C788 C780 1.378 . S
C788 C783 1.350 . S
C789 H776 0.929 . S
C789 C781 1.433 . S
C789 N791 1.384 . S
N790 C786 1.427 . S
N790 C787 1.384 . S
N791 C783 1.427 . S
N791 C789 1.384 . S
H792 C798 0.930 . S
H793 C802 0.930 1_554 S
H794 C807 0.929 . S
H795 C805 0.929 . S
H796 C800 0.929 . S
H797 C806 0.929 . S
C798 H792 0.930 . S
C798 C799 1.367 . S
C798 C806 1.378 . S
C799 C798 1.367 . S
C799 C807 1.433 . S
C800 H796 0.929 . S
C800 C802 1.378 . S
C800 C804 1.350 . S
C801 C804 1.463 . S
C801 C806 1.350 . S
C801 N809 1.427 . S
C802 H793 0.930 1_556 S
C802 C800 1.378 . S
C802 C803 1.367 . S
C803 C802 1.367 . S
C803 C805 1.433 . S
C804 C800 1.350 . S
C804 C801 1.463 . S
C804 N808 1.427 . S
C805 H795 0.929 . S
C805 C803 1.433 . S
C805 N808 1.384 . S
C806 H797 0.929 . S
C806 C798 1.378 . S
C806 C801 1.350 . S
C807 H794 0.929 . S
C807 C799 1.433 . S
C807 N809 1.384 . S
N808 C804 1.427 . S
N808 C805 1.384 . S
N809 C801 1.427 . S
N809 C807 1.384 . S
H810 C816 0.930 . S
H811 C820 0.930 . S
H812 C825 0.929 . S
H813 C823 0.929 . S
H814 C818 0.929 . S
H815 C824 0.929 . S
C816 H810 0.930 . S
C816 C817 1.367 . S
C816 C824 1.378 . S
C817 C816 1.367 . S
C817 C825 1.433 1_554 S
C818 H814 0.929 . S
C818 C820 1.378 . S
C818 C822 1.350 1_556 S
C819 C822 1.463 . S
C819 C824 1.350 . S
C819 N827 1.427 1_554 S
C820 H811 0.930 . S
C820 C818 1.378 . S
C820 C821 1.367 1_556 S
C821 C820 1.367 1_554 S
C821 C823 1.433 . S
C822 C818 1.350 1_554 S
C822 C819 1.463 . S
C822 N826 1.427 . S
C823 H813 0.929 . S
C823 C821 1.433 . S
C823 N826 1.384 . S
C824 H815 0.929 . S
C824 C816 1.378 . S
C824 C819 1.350 . S
C825 H812 0.929 . S
C825 C817 1.433 1_556 S
C825 N827 1.384 . S
N826 C822 1.427 . S
N826 C823 1.384 . S
N827 C819 1.427 1_556 S
N827 C825 1.384 . S
H828 C834 0.930 . S
H829 C838 0.930 1_565 S
H830 C843 0.929 1_455 S
H831 C841 0.929 1_556 S
H832 C836 0.929 . S
H833 C842 0.929 . S
C834 H828 0.930 . S
C834 C835 1.367 1_556 S
C834 C842 1.378 . S
C835 C834 1.367 1_554 S
C835 C843 1.433 . S
C836 H832 0.929 . S
C836 C838 1.378 . S
C836 C840 1.350 . S
C837 C840 1.463 . S
C837 C842 1.350 1_554 S
C837 N845 1.427 . S
C838 H829 0.930 1_545 S
C838 C836 1.378 . S
C838 C839 1.360 . S
C839 C838 1.360 . S
C839 C841 1.452 . S
C840 C836 1.350 . S
C840 C837 1.463 . S
C840 N844 1.427 . S
C841 H831 0.929 1_554 S
C841 C839 1.452 . S
C841 N844 1.384 . S
C842 H833 0.929 . S
C842 C834 1.378 . S
C842 C837 1.350 1_556 S
C843 H830 0.929 1_655 S
C843 C835 1.433 . S
C843 N845 1.384 . S
N844 C840 1.427 . S
N844 C841 1.384 . S
N845 C837 1.427 . S
N845 C843 1.384 . S
H846 C852 0.930 . S
H847 C856 0.930 . S
H848 C861 0.929 . S
H849 C859 0.929 . S
H850 C854 0.929 . S
H851 C860 0.929 . S
C852 H846 0.930 . S
C852 C853 1.367 1_556 S
C852 C860 1.378 . S
C853 C852 1.367 1_554 S
C853 C861 1.433 . S
C854 H850 0.929 . S
C854 C856 1.378 . S
C854 C858 1.350 . S
C855 C858 1.463 . S
C855 C860 1.350 1_554 S
C855 N863 1.427 . S
C856 H847 0.930 . S
C856 C854 1.378 . S
C856 C857 1.385 . S
C857 C856 1.385 . S
C857 C859 1.446 1_554 S
C858 C854 1.350 . S
C858 C855 1.463 . S
C858 N862 1.427 1_554 S
C859 H849 0.929 . S
C859 C857 1.446 1_556 S
C859 N862 1.384 . S
C860 H851 0.929 . S
C860 C852 1.378 . S
C860 C855 1.350 1_556 S
C861 H848 0.929 . S
C861 C853 1.433 . S
C861 N863 1.384 . S
N862 C858 1.427 1_556 S
N862 C859 1.384 . S
N863 C855 1.427 . S
N863 C861 1.384 . S
H864 C870 0.930 . S
H865 C874 0.930 . S
H866 C879 0.929 . S
H867 C877 0.929 . S
H868 C872 0.929 . S
H869 C878 0.929 . S
C870 H864 0.930 . S
C870 C871 1.367 . S
C870 C878 1.378 . S
C871 C870 1.367 . S
C871 C879 1.433 . S
C872 H868 0.929 . S
C872 C874 1.378 . S
C872 C876 1.350 . S
C873 C876 1.463 . S
C873 C878 1.350 . S
C873 N881 1.427 . S
C874 H865 0.930 . S
C874 C872 1.378 . S
C874 C875 1.367 . S
C875 C874 1.367 . S
C875 C877 1.433 . S
C876 C872 1.350 . S
C876 C873 1.463 . S
C876 N880 1.427 . S
C877 H867 0.929 . S
C877 C875 1.433 . S
C877 N880 1.384 . S
C878 H869 0.929 . S
C878 C870 1.378 . S
C878 C873 1.350 . S
C879 H866 0.929 . S
C879 C871 1.433 . S
C879 N881 1.384 . S
N880 C876 1.427 . S
N880 C877 1.384 . S
N881 C873 1.427 . S
N881 C879 1.384 . S
H882 C888 0.930 . S
H883 C892 0.930 . S
H884 C897 0.929 . S
H885 C895 0.929 . S
H886 C890 0.929 . S
H887 C896 0.929 . S
C888 H882 0.930 . S
C888 C889 1.367 . S
C888 C896 1.378 . S
C889 C888 1.367 . S
C889 C897 1.433 . S
C890 H886 0.929 . S
C890 C892 1.378 . S
C890 C894 1.350 . S
C891 C894 1.463 . S
C891 C896 1.350 . S
C891 N899 1.427 . S
C892 H883 0.930 . S
C892 C890 1.378 . S
C892 C893 1.367 . S
C893 C892 1.367 . S
C893 C895 1.433 . S
C894 C890 1.350 . S
C894 C891 1.463 . S
C894 N898 1.427 . S
C895 H885 0.929 . S
C895 C893 1.433 . S
C895 N898 1.384 . S
C896 H887 0.929 . S
C896 C888 1.378 . S
C896 C891 1.350 . S
C897 H884 0.929 . S
C897 C889 1.433 . S
C897 N899 1.384 . S
N898 C894 1.427 . S
N898 C895 1.384 . S
N899 C891 1.427 . S
N899 C897 1.384 . S
H900 C906 0.930 . S
H901 C910 0.930 . S
H902 C915 0.929 . S
H903 C913 0.929 . S
H904 C908 0.929 . S
H905 C914 0.929 . S
C906 H900 0.930 . S
C906 C907 1.367 . S
C906 C914 1.378 . S
C907 C906 1.367 . S
C907 C915 1.433 . S
C908 H904 0.929 . S
C908 C910 1.378 . S
C908 C912 1.350 . S
C909 C912 1.463 . S
C909 C914 1.350 . S
C909 N917 1.427 . S
C910 H901 0.930 . S
C910 C908 1.378 . S
C910 C911 1.367 . S
C911 C910 1.367 . S
C911 C913 1.433 . S
C912 C908 1.350 . S
C912 C909 1.463 . S
C912 N916 1.427 . S
C913 H903 0.929 . S
C913 C911 1.433 . S
C913 N916 1.384 . S
C914 H905 0.929 . S
C914 C906 1.378 . S
C914 C909 1.350 . S
C915 H902 0.929 . S
C915 C907 1.433 . S
C915 N917 1.384 . S
N916 C912 1.427 . S
N916 C913 1.384 . S
N917 C909 1.427 . S
N917 C915 1.384 . S
H918 C924 0.930 . S
H919 C928 0.930 . S
H920 C933 0.929 . S
H921 C931 0.929 . S
H922 C926 0.929 . S
H923 C932 0.929 . S
C924 H918 0.930 . S
C924 C925 1.367 . S
C924 C932 1.378 . S
C925 C924 1.367 . S
C925 C933 1.433 . S
C926 H922 0.929 . S
C926 C928 1.378 . S
C926 C930 1.350 . S
C927 C930 1.463 . S
C927 C932 1.350 . S
C927 N935 1.427 . S
C928 H919 0.930 . S
C928 C926 1.378 . S
C928 C929 1.367 . S
C929 C928 1.367 . S
C929 C931 1.433 . S
C930 C926 1.350 . S
C930 C927 1.463 . S
C930 N934 1.427 . S
C931 H921 0.929 . S
C931 C929 1.433 . S
C931 N934 1.384 . S
C932 H923 0.929 . S
C932 C924 1.378 . S
C932 C927 1.350 . S
C933 H920 0.929 . S
C933 C925 1.433 . S
C933 N935 1.384 . S
N934 C930 1.427 . S
N934 C931 1.384 . S
N935 C927 1.427 . S
N935 C933 1.384 . S
H936 C942 0.930 . S
H937 C946 0.930 . S
H938 C951 0.929 . S
H939 C949 0.929 . S
H940 C944 0.929 . S
H941 C950 0.929 . S
C942 H936 0.930 . S
C942 C943 1.367 . S
C942 C950 1.378 . S
C943 C942 1.367 . S
C943 C951 1.433 . S
C944 H940 0.929 . S
C944 C946 1.378 . S
C944 C948 1.350 . S
C945 C948 1.463 . S
C945 C950 1.350 . S
C945 N953 1.427 . S
C946 H937 0.930 . S
C946 C944 1.378 . S
C946 C947 1.367 . S
C947 C946 1.367 . S
C947 C949 1.433 . S
C948 C944 1.350 . S
C948 C945 1.463 . S
C948 N952 1.427 . S
C949 H939 0.929 . S
C949 C947 1.433 . S
C949 N952 1.384 . S
C950 H941 0.929 . S
C950 C942 1.378 . S
C950 C945 1.350 . S
C951 H938 0.929 . S
C951 C943 1.433 . S
C951 N953 1.384 . S
N952 C948 1.427 . S
N952 C949 1.384 . S
N953 C945 1.427 . S
N953 C951 1.384 . S
H954 C960 0.930 . S
H955 C964 0.930 . S
H956 C969 0.929 . S
H957 C967 0.929 . S
H958 C962 0.929 . S
H959 C968 0.929 . S
C960 H954 0.930 . S
C960 C961 1.367 . S
C960 C968 1.378 . S
C961 C960 1.367 . S
C961 C969 1.433 . S
C962 H958 0.929 . S
C962 C964 1.378 . S
C962 C966 1.350 . S
C963 C966 1.463 . S
C963 C968 1.350 . S
C963 N971 1.427 . S
C964 H955 0.930 . S
C964 C962 1.378 . S
C964 C965 1.367 . S
C965 C964 1.367 . S
C965 C967 1.433 . S
C966 C962 1.350 . S
C966 C963 1.463 . S
C966 N970 1.427 . S
C967 H957 0.929 . S
C967 C965 1.433 . S
C967 N970 1.384 . S
C968 H959 0.929 . S
C968 C960 1.378 . S
C968 C963 1.350 . S
C969 H956 0.929 . S
C969 C961 1.433 . S
C969 N971 1.384 . S
N970 C966 1.427 . S
N970 C967 1.384 . S
N971 C963 1.427 . S
N971 C969 1.384 . S
H972 C978 0.930 . S
H973 C982 0.930 . S
H974 C987 0.929 . S
H975 C985 0.929 . S
H976 C980 0.929 . S
H977 C986 0.929 . S
C978 H972 0.930 . S
C978 C979 1.367 . S
C978 C986 1.378 . S
C979 C978 1.367 . S
C979 C987 1.433 . S
C980 H976 0.929 . S
C980 C982 1.378 . S
C980 C984 1.350 . S
C981 C984 1.463 . S
C981 C986 1.350 . S
C981 N989 1.427 . S
C982 H973 0.930 . S
C982 C980 1.378 . S
C982 C983 1.367 . S
C983 C982 1.367 . S
C983 C985 1.433 . S
C984 C980 1.350 . S
C984 C981 1.463 . S
C984 N988 1.427 . S
C985 H975 0.929 . S
C985 C983 1.433 . S
C985 N988 1.384 . S
C986 H977 0.929 . S
C986 C978 1.378 . S
C986 C981 1.350 . S
C987 H974 0.929 . S
C987 C979 1.433 . S
C987 N989 1.384 . S
N988 C984 1.427 . S
N988 C985 1.384 . S
N989 C981 1.427 . S
N989 C987 1.384 . S
H990 C996 0.930 . S
H991 C1000 0.930 . S
H992 C1005 0.929 . S
H993 C1003 0.929 . S
H994 C998 0.929 . S
H995 C1004 0.929 . S
C996 H990 0.930 . S
C996 C997 1.367 . S
C996 C1004 1.378 . S
C997 C996 1.367 . S
C997 C1005 1.433 . S
C998 H994 0.929 . S
C998 C1000 1.378 . S
C998 C1002 1.350 . S
C999 C1002 1.463 . S
C999 C1004 1.350 . S
C999 N1007 1.427 . S
C1000 H991 0.930 . S
C1000 C998 1.378 . S
C1000 C1001 1.367 . S
C1001 C1000 1.367 . S
C1001 C1003 1.433 . S
C1002 C998 1.350 . S
C1002 C999 1.463 . S
C1002 N1006 1.427 . S
C1003 H993 0.929 . S
C1003 C1001 1.433 . S
C1003 N1006 1.384 . S
C1004 H995 0.929 . S
C1004 C996 1.378 . S
C1004 C999 1.350 . S
C1005 H992 0.929 . S
C1005 C997 1.433 . S
C1005 N1007 1.384 . S
N1006 C1002 1.427 . S
N1006 C1003 1.384 . S
N1007 C999 1.427 . S
N1007 C1005 1.384 . S
H1008 C1014 0.930 . S
H1009 C1018 0.930 . S
H1010 C1023 0.929 . S
H1011 C1021 0.929 . S
H1012 C1016 0.929 . S
H1013 C1022 0.929 . S
C1014 H1008 0.930 . S
C1014 C1015 1.367 . S
C1014 C1022 1.378 . S
C1015 C1014 1.367 . S
C1015 C1023 1.433 . S
C1016 H1012 0.929 . S
C1016 C1018 1.378 . S
C1016 C1020 1.350 . S
C1017 C1020 1.463 . S
C1017 C1022 1.350 . S
C1017 N1025 1.427 . S
C1018 H1009 0.930 . S
C1018 C1016 1.378 . S
C1018 C1019 1.367 . S
C1019 C1018 1.367 . S
C1019 C1021 1.433 . S
C1020 C1016 1.350 . S
C1020 C1017 1.463 . S
C1020 N1024 1.427 . S
C1021 H1011 0.929 . S
C1021 C1019 1.433 . S
C1021 N1024 1.384 . S
C1022 H1013 0.929 . S
C1022 C1014 1.378 . S
C1022 C1017 1.350 . S
C1023 H1010 0.929 . S
C1023 C1015 1.433 . S
C1023 N1025 1.384 . S
N1024 C1020 1.427 . S
N1024 C1021 1.384 . S
N1025 C1017 1.427 . S
N1025 C1023 1.384 . S
H1026 C1032 0.930 . S
H1027 C1036 0.930 . S
H1028 C1041 0.929 . S
H1029 C1039 0.929 . S
H1030 C1034 0.929 . S
H1031 C1040 0.929 . S
C1032 H1026 0.930 . S
C1032 C1033 1.367 . S
C1032 C1040 1.378 . S
C1033 C1032 1.367 . S
C1033 C1041 1.433 . S
C1034 H1030 0.929 . S
C1034 C1036 1.378 1_556 S
C1034 C1038 1.350 . S
C1035 C1038 1.463 . S
C1035 C1040 1.350 . S
C1035 N1043 1.427 . S
C1036 H1027 0.930 . S
C1036 C1034 1.378 1_554 S
C1036 C1037 1.367 . S
C1037 C1036 1.367 . S
C1037 C1039 1.433 . S
C1038 C1034 1.350 . S
C1038 C1035 1.463 . S
C1038 N1042 1.427 . S
C1039 H1029 0.929 . S
C1039 C1037 1.433 . S
C1039 N1042 1.384 1_554 S
C1040 H1031 0.929 . S
C1040 C1032 1.378 . S
C1040 C1035 1.350 . S
C1041 H1028 0.929 . S
C1041 C1033 1.433 . S
C1041 N1043 1.384 . S
N1042 C1038 1.427 . S
N1042 C1039 1.384 1_556 S
N1043 C1035 1.427 . S
N1043 C1041 1.384 . S
H1044 C1050 0.930 . S
H1045 C1054 0.930 . S
H1046 C1059 0.929 . S
H1047 C1057 0.929 . S
H1048 C1052 0.929 . S
H1049 C1058 0.929 . S
C1050 H1044 0.930 . S
C1050 C1051 1.367 . S
C1050 C1058 1.378 1_554 S
C1051 C1050 1.367 . S
C1051 C1059 1.433 . S
C1052 H1048 0.929 . S
C1052 C1054 1.378 . S
C1052 C1056 1.350 . S
C1053 C1056 1.463 . S
C1053 C1058 1.350 . S
C1053 N1061 1.427 . S
C1054 H1045 0.930 . S
C1054 C1052 1.378 . S
C1054 C1055 1.367 . S
C1055 C1054 1.367 . S
C1055 C1057 1.433 . S
C1056 C1052 1.350 . S
C1056 C1053 1.463 . S
C1056 N1060 1.427 . S
C1057 H1047 0.929 . S
C1057 C1055 1.433 . S
C1057 N1060 1.384 . S
C1058 H1049 0.929 . S
C1058 C1050 1.378 1_556 S
C1058 C1053 1.350 . S
C1059 H1046 0.929 . S
C1059 C1051 1.433 . S
C1059 N1061 1.384 1_554 S
N1060 C1056 1.427 . S
N1060 C1057 1.384 . S
N1061 C1053 1.427 . S
N1061 C1059 1.384 1_556 S
H1062 C1068 0.930 . S
H1063 C1072 0.930 . S
H1064 C1077 0.929 . S
H1065 C1075 0.929 . S
H1066 C1070 0.929 . S
H1067 C1076 0.929 . S
C1068 H1062 0.930 . S
C1068 C1069 1.367 . S
C1068 C1076 1.378 . S
C1069 C1068 1.367 . S
C1069 C1077 1.433 . S
C1070 H1066 0.929 . S
C1070 C1072 1.378 1_556 S
C1070 C1074 1.350 . S
C1071 C1074 1.463 . S
C1071 C1076 1.350 . S
C1071 N1079 1.427 . S
C1072 H1063 0.930 . S
C1072 C1070 1.378 1_554 S
C1072 C1073 1.367 . S
C1073 C1072 1.367 . S
C1073 C1075 1.433 . S
C1074 C1070 1.350 . S
C1074 C1071 1.463 . S
C1074 N1078 1.427 . S
C1075 H1065 0.929 . S
C1075 C1073 1.433 . S
C1075 N1078 1.384 1_554 S
C1076 H1067 0.929 . S
C1076 C1068 1.378 . S
C1076 C1071 1.350 . S
C1077 H1064 0.929 . S
C1077 C1069 1.433 . S
C1077 N1079 1.384 . S
N1078 C1074 1.427 . S
N1078 C1075 1.384 1_556 S
N1079 C1071 1.427 . S
N1079 C1077 1.384 . S
H1080 C1086 0.930 . S
H1081 C1090 0.930 . S
H1082 C1095 0.929 . S
H1083 C1093 0.929 . S
H1084 C1088 0.929 . S
H1085 C1094 0.929 . S
C1086 H1080 0.930 . S
C1086 C1087 1.367 . S
C1086 C1094 1.378 . S
C1087 C1086 1.367 . S
C1087 C1095 1.433 . S
C1088 H1084 0.929 . S
C1088 C1090 1.378 1_554 S
C1088 C1092 1.350 . S
C1089 C1092 1.463 . S
C1089 C1094 1.350 . S
C1089 N1097 1.427 . S
C1090 H1081 0.930 . S
C1090 C1088 1.378 1_556 S
C1090 C1091 1.367 . S
C1091 C1090 1.367 . S
C1091 C1093 1.433 . S
C1092 C1088 1.350 . S
C1092 C1089 1.463 . S
C1092 N1096 1.427 . S
C1093 H1083 0.929 . S
C1093 C1091 1.433 . S
C1093 N1096 1.384 1_556 S
C1094 H1085 0.929 . S
C1094 C1086 1.378 . S
C1094 C1089 1.350 . S
C1095 H1082 0.929 . S
C1095 C1087 1.433 . S
C1095 N1097 1.384 . S
N1096 C1092 1.427 . S
N1096 C1093 1.384 1_554 S
N1097 C1089 1.427 . S
N1097 C1095 1.384 . S
H1098 C1104 0.930 . S
H1099 C1108 0.930 . S
H1100 C1113 0.929 . S
H1101 C1111 0.929 . S
H1102 C1106 0.929 . S
H1103 C1112 0.929 . S
C1104 H1098 0.930 . S
C1104 C1105 1.367 . S
C1104 C1112 1.378 . S
C1105 C1104 1.367 . S
C1105 C1113 1.433 . S
C1106 H1102 0.929 . S
C1106 C1108 1.378 1_554 S
C1106 C1110 1.350 . S
C1107 C1110 1.463 . S
C1107 C1112 1.350 . S
C1107 N1115 1.427 . S
C1108 H1099 0.930 . S
C1108 C1106 1.378 1_556 S
C1108 C1109 1.367 . S
C1109 C1108 1.367 . S
C1109 C1111 1.433 . S
C1110 C1106 1.350 . S
C1110 C1107 1.463 . S
C1110 N1114 1.427 . S
C1111 H1101 0.929 . S
C1111 C1109 1.433 . S
C1111 N1114 1.384 1_556 S
C1112 H1103 0.929 . S
C1112 C1104 1.378 . S
C1112 C1107 1.350 . S
C1113 H1100 0.929 . S
C1113 C1105 1.433 . S
C1113 N1115 1.384 . S
N1114 C1110 1.427 . S
N1114 C1111 1.384 1_554 S
N1115 C1107 1.427 . S
N1115 C1113 1.384 . S
H1116 C1122 0.930 . S
H1117 C1126 0.930 . S
H1118 C1131 0.929 . S
H1119 C1129 0.929 . S
H1120 C1124 0.929 . S
H1121 C1130 0.929 . S
C1122 H1116 0.930 . S
C1122 C1123 1.367 . S
C1122 C1130 1.378 . S
C1123 C1122 1.367 . S
C1123 C1131 1.433 . S
C1124 H1120 0.929 . S
C1124 C1126 1.378 1_554 S
C1124 C1128 1.350 . S
C1125 C1128 1.463 . S
C1125 C1130 1.350 . S
C1125 N1133 1.427 . S
C1126 H1117 0.930 . S
C1126 C1124 1.378 1_556 S
C1126 C1127 1.367 . S
C1127 C1126 1.367 . S
C1127 C1129 1.433 . S
C1128 C1124 1.350 . S
C1128 C1125 1.463 . S
C1128 N1132 1.427 . S
C1129 H1119 0.929 . S
C1129 C1127 1.433 . S
C1129 N1132 1.384 1_556 S
C1130 H1121 0.929 . S
C1130 C1122 1.378 . S
C1130 C1125 1.350 . S
C1131 H1118 0.929 . S
C1131 C1123 1.433 . S
C1131 N1133 1.384 . S
N1132 C1128 1.427 . S
N1132 C1129 1.384 1_554 S
N1133 C1125 1.427 . S
N1133 C1131 1.384 . S
C493 C32 1.473 1_554 S
C497 C229 1.480 . S
C511 C283 1.496 . S
C515 C86 1.470 1_554 S
C529 C140 1.477 1_554 S
C533 C175 1.492 . S
C547 C76 1.925 . S
C551 C197 2.022 . S
C565 C130 1.920 1_545 S
C569 C251 2.019 . S
C583 C22 1.912 1_655 S
C587 C305 2.018 . S
C601 C194 1.471 . S
C605 C391 1.478 . S
C619 C445 1.482 . S
C623 C248 1.476 . S
C637 C337 1.497 . S
C641 C302 1.463 . S
C655 C238 1.919 . S
C659 C359 2.018 1_545 S
C673 C413 2.021 1_655 S
C677 C292 1.926 . S
C691 C467 2.017 . S
C695 C184 1.913 . S
C709 C356 1.472 . S
C713 C67 1.479 . S
C727 C410 1.473 . S
C731 C121 1.479 . S
C745 C13 1.479 . S
C749 C464 1.470 . S
C763 C35 2.021 . S
C767 C400 1.918 . S
C781 C89 2.021 . S
C785 C454 1.917 . S
C799 C346 1.924 . S
C803 C143 2.021 . S
C817 C113 1.703 1_545 S
C821 C28 1.775 . S
C835 C5 1.711 1_655 S
C839 C82 1.769 1_545 S
C853 C59 1.705 . S
C857 C136 1.749 1_655 S
C871 C275 1.703 . S
C875 C190 1.775 . S
C889 C167 1.708 . S
C893 C244 1.777 . S
C907 C221 1.709 . S
C911 C298 1.777 . S
C925 C352 1.781 . S
C929 C437 1.708 . S
C943 C406 1.778 . S
C947 C329 1.697 . S
C961 C460 1.780 . S
C965 C383 1.703 . S
C979 C27 0.538 . S
C983 C10 0.538 . S
C997 C64 0.537 . S
C1001 C81 0.537 . S
C1015 C135 0.548 . S
C1019 C118 0.548 . S
C1033 C172 0.540 . S
C1037 C189 0.540 . S
C1051 C243 0.551 . S
C1055 C226 0.551 . S
C1069 C280 0.543 . S
C1073 C297 0.543 . S
C1087 C351 0.545 . S
C1091 C334 0.545 . S
C1105 C405 0.554 . S
C1109 C388 0.554 . S
C1123 C459 0.554 . S
C1127 C442 0.554 . S
