# Generated by pormake.
# Topology uoz, (4)-cn, num edge types: 1
# Building blocks:
#     Node 0, Type 0, BuildingBlock: NAHDIM_clean_sbu_0, # of connection points: 4
#     Node 1, Type 0, BuildingBlock: NAHDIM_clean_sbu_0, # of connection points: 4
#     Node 2, Type 0, BuildingBlock: NAHDIM_clean_sbu_0, # of connection points: 4
#     Node 3, Type 0, BuildingBlock: NAHDIM_clean_sbu_0, # of connection points: 4
#     Node 4, Type 0, BuildingBlock: NAHDIM_clean_sbu_0, # of connection points: 4
#     Node 5, Type 0, BuildingBlock: NAHDIM_clean_sbu_0, # of connection points: 4
#     Node 6, Type 0, BuildingBlock: NAHDIM_clean_sbu_0, # of connection points: 4
#     Node 7, Type 0, BuildingBlock: NAHDIM_clean_sbu_0, # of connection points: 4
#     Node 8, Type 0, BuildingBlock: NAHDIM_clean_sbu_0, # of connection points: 4
#     Node 9, Type 0, BuildingBlock: NAHDIM_clean_sbu_0, # of connection points: 4
#     Node 10, Type 0, BuildingBlock: NAHDIM_clean_sbu_0, # of connection points: 4
#     Node 11, Type 0, BuildingBlock: NAHDIM_clean_sbu_0, # of connection points: 4
#     Node 12, Type 0, BuildingBlock: NAHDIM_clean_sbu_0, # of connection points: 4
#     Node 13, Type 0, BuildingBlock: NAHDIM_clean_sbu_0, # of connection points: 4
#     Node 14, Type 0, BuildingBlock: NAHDIM_clean_sbu_0, # of connection points: 4
#     Node 15, Type 0, BuildingBlock: NAHDIM_clean_sbu_0, # of connection points: 4
#     Edge 16, Type (0, 0), BuildingBlock: ZUJKAS_clean_linker_0, # of connection points: 2
#     Edge 17, Type (0, 0), BuildingBlock: ZUJKAS_clean_linker_0, # of connection points: 2
#     Edge 18, Type (0, 0), BuildingBlock: ZUJKAS_clean_linker_0, # of connection points: 2
#     Edge 19, Type (0, 0), BuildingBlock: ZUJKAS_clean_linker_0, # of connection points: 2
#     Edge 20, Type (0, 0), BuildingBlock: ZUJKAS_clean_linker_0, # of connection points: 2
#     Edge 21, Type (0, 0), BuildingBlock: ZUJKAS_clean_linker_0, # of connection points: 2
#     Edge 22, Type (0, 0), BuildingBlock: ZUJKAS_clean_linker_0, # of connection points: 2
#     Edge 23, Type (0, 0), BuildingBlock: ZUJKAS_clean_linker_0, # of connection points: 2
#     Edge 24, Type (0, 0), BuildingBlock: ZUJKAS_clean_linker_0, # of connection points: 2
#     Edge 25, Type (0, 0), BuildingBlock: ZUJKAS_clean_linker_0, # of connection points: 2
#     Edge 26, Type (0, 0), BuildingBlock: ZUJKAS_clean_linker_0, # of connection points: 2
#     Edge 27, Type (0, 0), BuildingBlock: ZUJKAS_clean_linker_0, # of connection points: 2
#     Edge 28, Type (0, 0), BuildingBlock: ZUJKAS_clean_linker_0, # of connection points: 2
#     Edge 29, Type (0, 0), BuildingBlock: ZUJKAS_clean_linker_0, # of connection points: 2
#     Edge 30, Type (0, 0), BuildingBlock: ZUJKAS_clean_linker_0, # of connection points: 2
#     Edge 31, Type (0, 0), BuildingBlock: ZUJKAS_clean_linker_0, # of connection points: 2
#     Edge 32, Type (0, 0), BuildingBlock: ZUJKAS_clean_linker_0, # of connection points: 2
#     Edge 33, Type (0, 0), BuildingBlock: ZUJKAS_clean_linker_0, # of connection points: 2
#     Edge 34, Type (0, 0), BuildingBlock: ZUJKAS_clean_linker_0, # of connection points: 2
#     Edge 35, Type (0, 0), BuildingBlock: ZUJKAS_clean_linker_0, # of connection points: 2
#     Edge 36, Type (0, 0), BuildingBlock: ZUJKAS_clean_linker_0, # of connection points: 2
#     Edge 37, Type (0, 0), BuildingBlock: ZUJKAS_clean_linker_0, # of connection points: 2
#     Edge 38, Type (0, 0), BuildingBlock: ZUJKAS_clean_linker_0, # of connection points: 2
#     Edge 39, Type (0, 0), BuildingBlock: ZUJKAS_clean_linker_0, # of connection points: 2
#     Edge 40, Type (0, 0), BuildingBlock: ZUJKAS_clean_linker_0, # of connection points: 2
#     Edge 41, Type (0, 0), BuildingBlock: ZUJKAS_clean_linker_0, # of connection points: 2
#     Edge 42, Type (0, 0), BuildingBlock: ZUJKAS_clean_linker_0, # of connection points: 2
#     Edge 43, Type (0, 0), BuildingBlock: ZUJKAS_clean_linker_0, # of connection points: 2
#     Edge 44, Type (0, 0), BuildingBlock: ZUJKAS_clean_linker_0, # of connection points: 2
#     Edge 45, Type (0, 0), BuildingBlock: ZUJKAS_clean_linker_0, # of connection points: 2
#     Edge 46, Type (0, 0), BuildingBlock: ZUJKAS_clean_linker_0, # of connection points: 2
#     Edge 47, Type (0, 0), BuildingBlock: ZUJKAS_clean_linker_0, # of connection points: 2
# Relax obj value: 0.113
# Max RMSD: 0.096
# Mean RMSD: 0.096
data_MOF--net-uoz--node1-NAHDIM_clean_sbu_0--edge1-ZUJKAS_clean_linker_0
_symmetry_space_group_name_H-M    P1
_symmetry_Int_Tables_number       1
_symmetry_cell_setting            triclinic
loop_
_symmetry_equiv_pos_as_xyz
'x, y, z'
_cell_length_a     77.012439
_cell_length_b     77.035061
_cell_length_c     29.184655
_cell_angle_alpha  89.979724
_cell_angle_beta   90.008021
_cell_angle_gamma 90.032424
loop_
_atom_site_label
_atom_site_type_symbol
_atom_site_fract_x
_atom_site_fract_y
_atom_site_fract_z
_atom_type_partial_charge
C0 C 0.04456 0.5582 0.37798 0.0
O1 O 0.05561 0.55563 0.34436 0.0
O2 O 0.05515 0.59239 0.29634 0.0
Zn3 Zn 0.03223 0.58088 0.3109 0.0
O4 O 0.02749 0.56206 0.26517 0.0
C5 C 0.01184 0.6045 0.26317 0.0
O6 O 0.02232 0.5985 0.23138 0.0
O7 O 0.03277 0.56959 0.37295 0.0
C8 C 0.0122 0.55679 0.2566 0.0
O9 O -0.00097 0.56361 0.27883 0.0
C10 C 0.0641 0.58799 0.26161 0.0
O11 O 0.05877 0.57506 0.23587 0.0
O12 O 0.01343 0.59884 0.30392 0.0
C13 C 0.72351 0.75815 0.62344 0.0
O14 O 0.72755 0.76665 0.58588 0.0
O15 O 0.68299 0.77202 0.55646 0.0
Zn16 Zn 0.696 0.7496 0.56517 0.0
O17 O 0.71298 0.74648 0.51375 0.0
C18 C 0.67228 0.72956 0.51873 0.0
O19 O 0.67701 0.74142 0.48884 0.0
O20 O 0.70945 0.74948 0.62441 0.0
C21 C 0.71939 0.73161 0.50566 0.0
O22 O 0.71505 0.71844 0.53192 0.0
C23 C 0.68829 0.78387 0.52955 0.0
O24 O 0.70333 0.78204 0.50889 0.0
O25 O 0.67871 0.73012 0.55888 0.0
C26 C 0.51001 0.43568 0.88303 0.0
O27 O 0.4982 0.43814 0.85117 0.0
O28 O 0.49854 0.40248 0.79992 0.0
Zn29 Zn 0.52152 0.4142 0.81275 0.0
O30 O 0.52518 0.43365 0.76825 0.0
C31 C 0.54215 0.39284 0.75893 0.0
O32 O 0.5319 0.40037 0.72893 0.0
O33 O 0.52201 0.4247 0.8757 0.0
C34 C 0.54009 0.44039 0.76278 0.0
O35 O 0.5531 0.435 0.78818 0.0
C36 C 0.49012 0.4057 0.76337 0.0
O37 O 0.49602 0.41755 0.73499 0.0
O38 O 0.54042 0.39663 0.80113 0.0
C39 C 0.84109 0.23452 0.14508 0.0
O40 O 0.84046 0.22122 0.11694 0.0
O41 O 0.87347 0.22401 0.06098 0.0
Zn42 Zn 0.8605 0.24652 0.07079 0.0
O43 O 0.84042 0.24778 0.02719 0.0
C44 C 0.88174 0.26698 0.01506 0.0
O45 O 0.87585 0.25534 0.98606 0.0
O46 O 0.85016 0.24765 0.13394 0.0
C47 C 0.8339 0.26201 0.0136 0.0
O48 O 0.84041 0.27674 0.0284 0.0
C49 C 0.86976 0.21404 0.02762 0.0
O50 O 0.85682 0.21815 0.00039 0.0
O51 O 0.87687 0.26621 0.05666 0.0
C52 C 0.04178 0.43817 0.75474 0.0
O53 O 0.05317 0.44003 0.78793 0.0
O54 O 0.05122 0.40383 0.83589 0.0
Zn55 Zn 0.02861 0.41609 0.82208 0.0
O56 O 0.0248 0.43497 0.86822 0.0
C57 C 0.0068 0.39394 0.87066 0.0
O58 O 0.01698 0.40022 0.90277 0.0
O59 O 0.02937 0.42747 0.76015 0.0
C60 C 0.00989 0.44138 0.87598 0.0
O61 O 0.9965 0.43595 0.85203 0.0
C62 C 0.05951 0.40686 0.87276 0.0
O63 O 0.05358 0.41862 0.9013 0.0
O64 O 0.00915 0.3988 0.82945 0.0
C65 C 0.83813 0.76154 0.01195 0.0
O66 O 0.83327 0.77072 0.04766 0.0
O67 O 0.87301 0.77489 0.09293 0.0
Zn68 Zn 0.86198 0.75174 0.07856 0.0
O69 O 0.84254 0.74715 0.12259 0.0
C70 C 0.88458 0.73107 0.12936 0.0
O71 O 0.8777 0.74113 0.16083 0.0
O72 O 0.85148 0.75191 0.01549 0.0
C73 C 0.8368 0.73194 0.12989 0.0
O74 O 0.84366 0.71875 0.10785 0.0
C75 C 0.86956 0.78298 0.12983 0.0
O76 O 0.85808 0.77644 0.1583 0.0
O77 O 0.87994 0.73306 0.08785 0.0
C78 C 0.51504 0.55654 0.25739 0.0
O79 O 0.50387 0.55449 0.29101 0.0
O80 O 0.50482 0.59178 0.33601 0.0
Zn81 Zn 0.52742 0.57937 0.3235 0.0
O82 O 0.53098 0.56068 0.37035 0.0
C83 C 0.54806 0.60204 0.37288 0.0
O84 O 0.53708 0.59612 0.40362 0.0
O85 O 0.52707 0.56772 0.26191 0.0
C86 C 0.54598 0.55492 0.38012 0.0
O87 O 0.55958 0.56102 0.35824 0.0
C88 C 0.49496 0.58735 0.36897 0.0
O89 O 0.49906 0.57378 0.39396 0.0
O90 O 0.54673 0.59672 0.33176 0.0
C91 C 0.70891 0.23368 0.49035 0.0
O92 O 0.70346 0.2184 0.50418 0.0
O93 O 0.6804 0.22189 0.58176 0.0
Zn94 Zn 0.69119 0.24553 0.57214 0.0
O95 O 0.70821 0.2499 0.62278 0.0
C96 C 0.65885 0.26061 0.59947 0.0
O97 O 0.65635 0.24476 0.61466 0.0
O98 O 0.70452 0.24713 0.51276 0.0
C99 C 0.70363 0.2488 0.66449 0.0
O100 O 0.68754 0.24459 0.67439 0.0
C101 C 0.68835 0.20958 0.60178 0.0
O102 O 0.70468 0.21169 0.61359 0.0
O103 O 0.67273 0.26406 0.57763 0.0
C104 C 0.3435 0.25731 0.49669 0.0
O105 O 0.34686 0.27194 0.51798 0.0
O106 O 0.3744 0.26671 0.5839 0.0
Zn107 Zn 0.36264 0.24364 0.5726 0.0
O108 O 0.34539 0.23936 0.62255 0.0
C109 C 0.39654 0.22793 0.57916 0.0
O110 O 0.40176 0.24384 0.57052 0.0
O111 O 0.34965 0.24323 0.51262 0.0
C112 C 0.35049 0.23864 0.66389 0.0
O113 O 0.36703 0.241 0.67316 0.0
C114 C 0.36793 0.27863 0.60873 0.0
O115 O 0.35233 0.27656 0.62607 0.0
O116 O 0.38038 0.22456 0.57835 0.0
C117 C 0.22372 0.7393 0.01678 0.0
O118 O 0.228 0.73062 0.05387 0.0
O119 O 0.18462 0.72284 0.0818 0.0
Zn120 Zn 0.19588 0.74637 0.07516 0.0
O121 O 0.21246 0.75026 0.1271 0.0
C122 C 0.16713 0.7623 0.11462 0.0
O123 O 0.16903 0.7483 0.13987 0.0
O124 O 0.20946 0.74762 0.01633 0.0
C125 C 0.21647 0.76545 0.14033 0.0
O126 O 0.20958 0.77893 0.11962 0.0
C127 C 0.18992 0.71173 0.11084 0.0
O128 O 0.20378 0.71518 0.13543 0.0
O129 O 0.17735 0.76469 0.08097 0.0
C130 C 0.21355 0.2639 0.14511 0.0
O131 O 0.21388 0.27758 0.11821 0.0
O132 O 0.18147 0.27392 0.05809 0.0
Zn133 Zn 0.19449 0.2516 0.06967 0.0
O134 O 0.21443 0.24969 0.02586 0.0
C135 C 0.17351 0.23053 0.01515 0.0
O136 O 0.17956 0.24182 0.98537 0.0
O137 O 0.20482 0.25071 0.13277 0.0
C138 C 0.22119 0.23511 0.01623 0.0
O139 O 0.21505 0.22097 0.03549 0.0
C140 C 0.18657 0.28481 0.0282 0.0
O141 O 0.20123 0.282 0.00643 0.0
O142 O 0.17812 0.23183 0.05685 0.0
C143 C 0.33743 0.73709 0.62623 0.0
O144 O 0.33263 0.72823 0.58988 0.0
O145 O 0.37576 0.72378 0.55172 0.0
Zn146 Zn 0.36326 0.7464 0.56314 0.0
O147 O 0.34523 0.75007 0.51463 0.0
C148 C 0.38702 0.76716 0.51697 0.0
O149 O 0.38268 0.75563 0.48581 0.0
O150 O 0.35118 0.74619 0.62418 0.0
C151 C 0.33799 0.76471 0.50891 0.0
O152 O 0.34221 0.7777 0.53588 0.0
C153 C 0.37121 0.71361 0.51954 0.0
O154 O 0.35759 0.71753 0.49452 0.0
O155 O 0.38037 0.76597 0.55673 0.0
C156 C 0.53866 0.05254 0.8667 0.0
O157 O 0.54395 0.04741 0.82613 0.0
O158 O 0.55679 0.09511 0.80684 0.0
Zn159 Zn 0.53359 0.08348 0.81557 0.0
O160 O 0.5291 0.06882 0.76016 0.0
C161 C 0.51768 0.11733 0.80972 0.0
O162 O 0.53391 0.12256 0.80984 0.0
O163 O 0.53349 0.06812 0.87168 0.0
C164 C 0.52715 0.07588 0.72116 0.0
O165 O 0.52815 0.09286 0.71765 0.0
C166 C 0.56915 0.08766 0.78576 0.0
O167 O 0.56717 0.07153 0.7721 0.0
O168 O 0.51441 0.1013 0.81559 0.0
C169 C 0.02038 0.94561 0.36508 0.0
O170 O 0.01242 0.94987 0.32688 0.0
O171 O 0.00322 0.90488 0.30506 0.0
Zn172 Zn 0.02668 0.91633 0.31042 0.0
O173 O 0.03047 0.93171 0.25596 0.0
C174 C 0.0425 0.88681 0.27493 0.0
O175 O 0.02829 0.88804 0.25023 0.0
O176 O 0.02793 0.93095 0.36752 0.0
C177 C 0.04568 0.93605 0.24357 0.0
O178 O 0.05909 0.93046 0.26714 0.0
C179 C 0.99156 0.91066 0.27827 0.0
O180 O 0.99435 0.92519 0.25591 0.0
O181 O 0.04508 0.89778 0.30678 0.0
C182 C 0.54316 0.93863 0.25577 0.0
O183 O 0.55406 0.9427 0.28871 0.0
O184 O 0.55306 0.9049 0.3427 0.0
Zn185 Zn 0.53121 0.9182 0.32819 0.0
O186 O 0.53002 0.93907 0.36905 0.0
C187 C 0.50455 0.9023 0.38125 0.0
O188 O 0.51147 0.91239 0.41258 0.0
O189 O 0.53168 0.92713 0.2635 0.0
C190 C 0.51871 0.95086 0.36343 0.0
O191 O 0.50737 0.9494 0.33 0.0
C192 C 0.55871 0.90492 0.38365 0.0
O193 O 0.55033 0.91386 0.41494 0.0
O194 O 0.51062 0.90267 0.34071 0.0
C195 C 0.01545 0.0586 0.75615 0.0
O196 O 0.00637 0.05339 0.79173 0.0
O197 O 0.00346 0.09405 0.83956 0.0
Zn198 Zn 0.02595 0.08205 0.82365 0.0
O199 O 0.03016 0.06238 0.86726 0.0
C200 C 0.04755 0.1041 0.87327 0.0
O201 O 0.03735 0.0977 0.9052 0.0
O202 O 0.02513 0.07188 0.76032 0.0
C203 C 0.04515 0.05588 0.87297 0.0
O204 O 0.05834 0.06211 0.84965 0.0
C205 C 0.99437 0.08946 0.87387 0.0
O206 O -0.00079 0.07595 0.89817 0.0
O207 O 0.0453 0.0993 0.832 0.0
H208 H 0.19452 0.68822 0.17995 0.0
H209 H 0.17491 0.66478 0.20233 0.0
H210 H 0.14178 0.67654 0.08727 0.0
H211 H 0.16111 0.70027 0.06517 0.0
H212 H 0.12404 0.67531 0.16699 0.0
H213 H 0.16541 0.61677 0.15135 0.0
H214 H 0.17502 0.63348 0.18589 0.0
H215 H 0.17122 0.63734 0.12592 0.0
C216 C 0.18322 0.68564 0.1589 0.0
C217 C 0.17933 0.69616 0.12088 0.0
C218 C 0.17208 0.67215 0.17162 0.0
C219 C 0.15698 0.66879 0.1462 0.0
C220 C 0.1534 0.67888 0.10728 0.0
H221 H 0.0836 0.58445 0.18396 0.0
H222 H 0.10672 0.60362 0.15684 0.0
C223 C 0.16447 0.69243 0.09469 0.0
C224 C 0.14411 0.65591 0.16257 0.0
H225 H 0.13884 0.61341 0.19283 0.0
C226 C 0.12725 0.66175 0.17235 0.0
C227 C 0.14829 0.63821 0.16923 0.0
C228 C 0.16592 0.63102 0.15713 0.0
C229 C 0.11452 0.65043 0.18922 0.0
C230 C 0.11888 0.63288 0.19758 0.0
C231 C 0.13563 0.62694 0.18703 0.0
C232 C 0.106 0.62046 0.2161 0.0
C233 C 0.09643 0.65734 0.19724 0.0
C234 C 0.09832 0.62329 0.25905 0.0
C235 C 0.08503 0.61243 0.27457 0.0
C236 C 0.07931 0.59844 0.24754 0.0
C237 C 0.08764 0.59515 0.20553 0.0
C238 C 0.10087 0.60608 0.18997 0.0
H239 H 0.0941 0.6696 0.17815 0.0
H240 H 0.08646 0.6477 0.18677 0.0
H241 H 0.0947 0.66008 0.23428 0.0
H242 H 0.10237 0.63412 0.28017 0.0
H243 H 0.079 0.61522 0.30728 0.0
H244 H 0.57321 0.9016 0.46853 0.0
H245 H 0.59732 0.88291 0.4911 0.0
H246 H 0.60298 0.86572 0.35128 0.0
H247 H 0.57866 0.88425 0.32835 0.0
H248 H 0.60142 0.8388 0.41347 0.0
H249 H 0.64947 0.88802 0.4696 0.0
H250 H 0.62856 0.89051 0.49601 0.0
H251 H 0.63075 0.89343 0.43514 0.0
C252 C 0.57968 0.89399 0.44242 0.0
C253 C 0.57401 0.8944 0.39662 0.0
C254 C 0.59355 0.8834 0.45537 0.0
C255 C 0.6021 0.87314 0.42275 0.0
C256 C 0.59661 0.87365 0.37691 0.0
H257 H 0.69457 0.8103 0.46904 0.0
H258 H 0.67411 0.83251 0.44298 0.0
C259 C 0.58272 0.88424 0.36389 0.0
C260 C 0.61592 0.86096 0.43716 0.0
H261 H 0.65509 0.85865 0.49172 0.0
C262 C 0.61322 0.84314 0.43024 0.0
C263 C 0.63136 0.86669 0.45865 0.0
C264 C 0.63533 0.88572 0.46493 0.0
C265 C 0.62534 0.83084 0.44536 0.0
C266 C 0.64042 0.83652 0.46864 0.0
C267 C 0.64339 0.85436 0.47439 0.0
C268 C 0.6532 0.82404 0.48714 0.0
C269 C 0.62196 0.81186 0.43611 0.0
C270 C 0.64835 0.81231 0.52159 0.0
C271 C 0.65998 0.79962 0.53657 0.0
C272 C 0.6767 0.79848 0.51742 0.0
C273 C 0.68177 0.81077 0.48434 0.0
C274 C 0.67011 0.82347 0.4694 0.0
H275 H 0.61224 0.81001 0.4084 0.0
H276 H 0.63412 0.80506 0.42635 0.0
H277 H 0.61683 0.80567 0.46767 0.0
H278 H 0.63544 0.81276 0.53627 0.0
H279 H 0.65569 0.79044 0.56231 0.0
H280 H 0.47369 0.38085 0.81469 0.0
H281 H 0.45071 0.36106 0.78962 0.0
H282 H 0.44987 0.38591 0.6572 0.0
H283 H 0.4725 0.406 0.68221 0.0
H284 H 0.41705 0.37799 0.68848 0.0
H285 H 0.461 0.32111 0.7025 0.0
H286 H 0.45857 0.33308 0.75486 0.0
H287 H 0.46876 0.34316 0.70619 0.0
C288 C 0.46849 0.38222 0.78038 0.0
C289 C 0.47506 0.39487 0.75027 0.0
C290 C 0.45543 0.37084 0.76605 0.0
C291 C 0.44888 0.37179 0.72124 0.0
C292 C 0.45483 0.3849 0.69184 0.0
H293 H 0.39946 0.28806 0.57388 0.0
H294 H 0.41814 0.31181 0.59935 0.0
C295 C 0.46779 0.39636 0.70622 0.0
C296 C 0.43638 0.35869 0.70416 0.0
H297 H 0.43167 0.31531 0.68419 0.0
C298 C 0.42021 0.36427 0.68753 0.0
C299 C 0.44069 0.34085 0.70221 0.0
C300 C 0.45825 0.33417 0.71696 0.0
C301 C 0.40815 0.35245 0.66933 0.0
C302 C 0.41229 0.33457 0.66861 0.0
C303 C 0.42849 0.32902 0.68501 0.0
C304 C 0.40017 0.32128 0.65058 0.0
C305 C 0.39129 0.35927 0.6501 0.0
C306 C 0.38378 0.31883 0.67062 0.0
C307 C 0.37301 0.30533 0.65587 0.0
C308 C 0.37854 0.29391 0.62125 0.0
C309 C 0.39482 0.29661 0.60066 0.0
C310 C 0.40552 0.31017 0.6152 0.0
H311 H 0.39219 0.3733 0.64155 0.0
H312 H 0.38745 0.35203 0.61881 0.0
H313 H 0.38089 0.35765 0.67605 0.0
H314 H 0.37955 0.327 0.69864 0.0
H315 H 0.36059 0.30352 0.67265 0.0
H316 H 0.8671 0.19219 0.95437 0.0
H317 H 0.88686 0.16884 0.93287 0.0
H318 H 0.91705 0.178 0.05498 0.0
H319 H 0.89751 0.20169 0.0764 0.0
H320 H 0.93694 0.17706 0.97841 0.0
H321 H 0.89324 0.11995 0.98132 0.0
H322 H 0.88497 0.13737 0.94685 0.0
H323 H 0.88753 0.14038 0.00763 0.0
C324 C 0.8778 0.1891 0.97705 0.0
C325 C 0.88076 0.19883 0.01706 0.0
C326 C 0.88901 0.17565 0.96483 0.0
C327 C 0.90328 0.17152 0.99264 0.0
C328 C 0.90605 0.18093 0.03317 0.0
H329 H 0.97418 0.08498 0.95003 0.0
H330 H 0.95173 0.10449 0.97925 0.0
C331 C 0.89487 0.19445 0.04535 0.0
C332 C 0.9161 0.15841 0.9774 0.0
H333 H 0.92036 0.11635 0.94219 0.0
C334 C 0.93335 0.16375 0.97088 0.0
C335 C 0.91142 0.14101 0.968 0.0
C336 C 0.89332 0.13427 0.97674 0.0
C337 C 0.94596 0.15229 0.95411 0.0
C338 C 0.94109 0.13512 0.94263 0.0
C339 C 0.92397 0.12961 0.95036 0.0
C340 C 0.95372 0.1227 0.92306 0.0
C341 C 0.96442 0.15863 0.94921 0.0
C342 C 0.96188 0.12623 0.8811 0.0
C343 C 0.97475 0.11515 0.86434 0.0
C344 C 0.97959 0.10027 0.88915 0.0
C345 C 0.97082 0.09637 0.93018 0.0
C346 C 0.95798 0.10749 0.94695 0.0
H347 H 0.96689 0.17031 0.97055 0.0
H348 H 0.97382 0.14836 0.95911 0.0
H349 H 0.96686 0.16216 0.91292 0.0
H350 H 0.95849 0.13772 0.86167 0.0
H351 H 0.98114 0.11845 0.83245 0.0
H352 H 0.07796 0.40795 0.95257 0.0
H353 H 0.10158 0.38886 0.9762 0.0
H354 H 0.09948 0.36282 0.8455 0.0
H355 H 0.07554 0.38167 0.82181 0.0
H356 H 0.09888 0.34029 0.9169 0.0
H357 H 0.15245 0.38744 0.9408 0.0
H358 H 0.1332 0.39323 0.97186 0.0
H359 H 0.13277 0.39277 0.91023 0.0
C360 C 0.08265 0.39832 0.92855 0.0
C361 C 0.07484 0.39631 0.88531 0.0
C362 C 0.09625 0.38749 0.94204 0.0
C363 C 0.10245 0.37459 0.91238 0.0
C364 C 0.09494 0.37277 0.86882 0.0
H365 H 0.19216 0.30842 0.95984 0.0
H366 H 0.17206 0.33058 0.93193 0.0
C367 C 0.08127 0.38356 0.85534 0.0
C368 C 0.11581 0.36213 0.92821 0.0
H369 H 0.15659 0.35925 0.97359 0.0
C370 C 0.11155 0.34442 0.92896 0.0
C371 C 0.13239 0.36754 0.94352 0.0
C372 C 0.13807 0.38626 0.94118 0.0
C373 C 0.12325 0.33199 0.94557 0.0
C374 C 0.13952 0.33748 0.96281 0.0
C375 C 0.14399 0.35513 0.961 0.0
C376 C 0.15215 0.32498 0.98209 0.0
C377 C 0.11816 0.31308 0.94399 0.0
C378 C 0.14781 0.31487 0.02042 0.0
C379 C 0.15922 0.30215 0.03638 0.0
C380 C 0.17525 0.29942 0.01447 0.0
C381 C 0.17988 0.31013 0.97738 0.0
C382 C 0.16843 0.32281 0.96137 0.0
H383 H 0.1075 0.31071 0.91912 0.0
H384 H 0.12941 0.3048 0.93453 0.0
H385 H 0.11354 0.30899 0.97836 0.0
H386 H 0.13545 0.31662 0.0375 0.0
H387 H 0.15532 0.29422 0.06526 0.0
H388 H 0.98196 0.87993 0.31783 0.0
H389 H 0.95883 0.86034 0.29302 0.0
H390 H 0.94357 0.89699 0.18885 0.0
H391 H 0.9665 0.91684 0.21385 0.0
H392 H 0.91528 0.88083 0.23336 0.0
H393 H 0.96416 0.83313 0.17273 0.0
H394 H 0.96649 0.83904 0.23192 0.0
H395 H 0.96977 0.85512 0.18808 0.0
C396 C 0.97356 0.88395 0.29002 0.0
C397 C 0.97621 0.89986 0.26743 0.0
C398 C 0.9604 0.8727 0.27577 0.0
C399 C 0.94977 0.87708 0.23849 0.0
C400 C 0.95174 0.89334 0.2175 0.0
H401 H 0.89354 0.80049 0.07832 0.0
H402 H 0.91169 0.82491 0.10231 0.0
C403 C 0.96486 0.90465 0.23183 0.0
C404 C 0.93725 0.86434 0.21987 0.0
H405 H 0.93476 0.82401 0.17211 0.0
C406 C 0.9195 0.86842 0.21981 0.0
C407 C 0.94287 0.84833 0.20139 0.0
C408 C 0.96187 0.84366 0.19803 0.0
C409 C 0.90713 0.85667 0.20275 0.0
C410 C 0.91271 0.84036 0.18602 0.0
C411 C 0.9305 0.83648 0.18519 0.0
C412 C 0.9004 0.82688 0.17001 0.0
C413 C 0.88826 0.8619 0.2023 0.0
C414 C 0.88794 0.81999 0.19999 0.0
C415 C 0.87749 0.8061 0.18632 0.0
C416 C 0.87947 0.7987 0.14259 0.0
C417 C 0.8917 0.80588 0.11226 0.0
C418 C 0.90208 0.81983 0.1259 0.0
H419 H 0.88675 0.87625 0.20314 0.0
H420 H 0.88153 0.8568 0.17146 0.0
H421 H 0.88175 0.85652 0.2331 0.0
H422 H 0.88668 0.82496 0.23454 0.0
H423 H 0.86825 0.80083 0.2106 0.0
H424 H 0.36771 0.69209 0.44575 0.0
H425 H 0.38716 0.66874 0.42219 0.0
H426 H 0.41857 0.67726 0.54249 0.0
H427 H 0.39938 0.70095 0.56585 0.0
H428 H 0.43778 0.67635 0.46514 0.0
H429 H 0.39346 0.61967 0.469 0.0
H430 H 0.38531 0.63729 0.43501 0.0
H431 H 0.38811 0.64011 0.49577 0.0
C432 C 0.37861 0.68886 0.46758 0.0
C433 C 0.38202 0.69841 0.50766 0.0
C434 C 0.38966 0.67541 0.45417 0.0
C435 C 0.40418 0.6711 0.48089 0.0
C436 C 0.40738 0.68034 0.52147 0.0
H437 H 0.47373 0.5837 0.44336 0.0
H438 H 0.45122 0.60372 0.46955 0.0
C439 C 0.39641 0.69386 0.53478 0.0
C440 C 0.41675 0.6579 0.46474 0.0
H441 H 0.42056 0.61569 0.43055 0.0
C442 C 0.43403 0.66306 0.45785 0.0
C443 C 0.41187 0.64054 0.45561 0.0
C444 C 0.39372 0.634 0.46465 0.0
C445 C 0.44653 0.6514 0.44144 0.0
C446 C 0.44151 0.63422 0.4306 0.0
C447 C 0.4243 0.62895 0.43826 0.0
C448 C 0.45411 0.62144 0.41253 0.0
C449 C 0.46507 0.65752 0.43661 0.0
C450 C 0.46281 0.62451 0.37106 0.0
C451 C 0.47575 0.61315 0.35609 0.0
C452 C 0.4801 0.59843 0.38216 0.0
C453 C 0.47076 0.59496 0.42257 0.0
C454 C 0.45788 0.60638 0.4376 0.0
H455 H 0.4676 0.66935 0.45735 0.0
H456 H 0.47434 0.64725 0.44727 0.0
H457 H 0.46766 0.66075 0.40019 0.0
H458 H 0.45981 0.63588 0.3507 0.0
H459 H 0.48259 0.61611 0.3246 0.0
H460 H 0.70067 0.18169 0.65003 0.0
H461 H 0.68394 0.15716 0.68005 0.0
H462 H 0.63755 0.17774 0.61758 0.0
H463 H 0.65414 0.2021 0.58695 0.0
H464 H 0.65673 0.1594 0.74025 0.0
H465 H 0.63539 0.12693 0.58083 0.0
H466 H 0.65277 0.14267 0.58182 0.0
H467 H 0.63048 0.14969 0.58067 0.0
C468 C 0.68696 0.18084 0.64201 0.0
C469 C 0.67874 0.19384 0.61605 0.0
C470 C 0.67743 0.16683 0.65927 0.0
C471 C 0.65955 0.16552 0.65057 0.0
C472 C 0.6514 0.17828 0.62386 0.0
H473 H 0.57583 0.12199 0.8014 0.0
H474 H 0.59986 0.13921 0.77142 0.0
C475 C 0.6609 0.19227 0.60659 0.0
C476 C 0.64908 0.15163 0.67224 0.0
H477 H 0.61897 0.12038 0.64882 0.0
C478 C 0.64866 0.15067 0.72027 0.0
C479 C 0.63878 0.14009 0.64616 0.0
C480 C 0.63949 0.13975 0.59451 0.0
C481 C 0.63754 0.13908 0.74294 0.0
C482 C 0.62634 0.1284 0.71684 0.0
C483 C 0.62742 0.12872 0.66882 0.0
C484 C 0.61269 0.11757 0.73839 0.0
C485 C 0.63777 0.1385 0.79461 0.0
C486 C 0.61182 0.09969 0.72947 0.0
C487 C 0.59798 0.08981 0.74628 0.0
C488 C 0.58472 0.09767 0.77208 0.0
C489 C 0.58587 0.1155 0.78189 0.0
C490 C 0.59968 0.12536 0.76499 0.0
H491 H 0.65047 0.14293 0.80842 0.0
H492 H 0.6276 0.14733 0.80809 0.0
H493 H 0.63512 0.1252 0.80752 0.0
H494 H 0.62169 0.09345 0.70879 0.0
H495 H 0.59747 0.07611 0.73805 0.0
H496 H 0.98608 0.37479 0.81311 0.0
H497 H 0.96347 0.35388 0.83504 0.0
H498 H 0.97353 0.36435 0.9777 0.0
H499 H 0.99605 0.38511 0.95637 0.0
H500 H 0.96891 0.32362 0.89566 0.0
H501 H 0.91978 0.3701 0.96185 0.0
H502 H 0.93692 0.3765 0.92304 0.0
H503 H 0.94153 0.3732 0.98272 0.0
C504 C 0.9834 0.3727 0.84912 0.0
C505 C 0.99285 0.3816 0.883 0.0
C506 C 0.97051 0.36077 0.86155 0.0
C507 C 0.96674 0.35778 0.90794 0.0
C508 C 0.97609 0.36669 0.94172 0.0
H509 H 0.89885 0.29139 0.06648 0.0
H510 H 0.91947 0.31334 0.03925 0.0
C511 C 0.98903 0.37848 0.9294 0.0
C512 C 0.95357 0.3448 0.92147 0.0
H513 H 0.9149 0.34024 0.97732 0.0
C514 C 0.95701 0.32722 0.91312 0.0
C515 C 0.93819 0.3496 0.94461 0.0
C516 C 0.93374 0.36838 0.95337 0.0
C517 C 0.94563 0.31421 0.92838 0.0
C518 C 0.93022 0.31899 0.95162 0.0
C519 C 0.92673 0.33662 0.95958 0.0
C520 C 0.91757 0.30589 0.96793 0.0
C521 C 0.9505 0.29545 0.92077 0.0
C522 C 0.90946 0.29466 0.93676 0.0
C523 C 0.8978 0.28208 0.95219 0.0
C524 C 0.89385 0.28061 -0.00091 0.0
C525 C 0.90167 0.29215 0.03018 0.0
C526 C 0.91343 0.3047 0.01468 0.0
H527 H 0.96463 0.29393 0.91418 0.0
H528 H 0.94694 0.28735 0.9508 0.0
H529 H 0.94342 0.29043 0.89042 0.0
H530 H 0.91214 0.29563 0.90042 0.0
H531 H 0.89187 0.27351 0.92726 0.0
H532 H 0.48333 0.10982 0.79507 0.0
H533 H 0.46187 0.12813 0.75648 0.0
H534 H 0.49918 0.16977 0.74886 0.0
H535 H 0.52076 0.15161 0.78717 0.0
H536 H 0.4486 0.16279 0.7768 0.0
H537 H 0.48544 0.15922 0.61334 0.0
H538 H 0.48926 0.14451 0.66045 0.0
H539 H 0.49781 0.1662 0.66222 0.0
C540 C 0.4869 0.12297 0.78587 0.0
C541 C 0.50383 0.12919 0.79374 0.0
C542 C 0.47463 0.13338 0.76376 0.0
C543 C 0.4791 0.15012 0.74904 0.0
C544 C 0.49562 0.15674 0.75923 0.0
H545 H 0.43133 0.23206 0.5938 0.0
H546 H 0.45088 0.21221 0.63376 0.0
C547 C 0.50789 0.14636 0.78137 0.0
C548 C 0.46679 0.16042 0.72124 0.0
H549 H 0.46137 0.17835 0.61521 0.0
C550 C 0.4513 0.16613 0.7414 0.0
C551 C 0.4704 0.16466 0.67505 0.0
C552 C 0.48655 0.15823 0.65121 0.0
C553 C 0.4395 0.17648 0.71691 0.0
C554 C 0.44319 0.18087 0.6708 0.0
C555 C 0.45859 0.17494 0.65053 0.0
C556 C 0.43155 0.19217 0.64359 0.0
C557 C 0.42348 0.18307 0.74105 0.0
C558 C 0.41437 0.18719 0.63444 0.0
C559 C 0.40313 0.19852 0.61162 0.0
C560 C 0.40894 0.21497 0.59732 0.0
C561 C 0.42641 0.21952 0.60448 0.0
C562 C 0.43761 0.2082 0.62739 0.0
H563 H 0.42465 0.182 0.77889 0.0
H564 H 0.42092 0.19684 0.73205 0.0
H565 H 0.4121 0.17525 0.73017 0.0
H566 H 0.40956 0.17468 0.6457 0.0
H567 H 0.38978 0.19457 0.6064 0.0
H568 H 0.55667 0.61178 0.45959 0.0
H569 H 0.57871 0.63274 0.48316 0.0
H570 H 0.59246 0.64142 0.34182 0.0
H571 H 0.57038 0.62032 0.31765 0.0
H572 H 0.61668 0.6324 0.45856 0.0
H573 H 0.57981 0.6905 0.39997 0.0
H574 H 0.5694 0.66991 0.41121 0.0
H575 H 0.58203 0.67279 0.36015 0.0
C576 C 0.56436 0.61811 0.4334 0.0
C577 C 0.56171 0.61447 0.38668 0.0
C578 C 0.57698 0.63004 0.44701 0.0
C579 C 0.58706 0.63866 0.4142 0.0
C580 C 0.58466 0.63495 0.36756 0.0
H581 H 0.66096 0.72251 0.43253 0.0
H582 H 0.64099 0.69978 0.40823 0.0
C583 C 0.57209 0.62289 0.35386 0.0
C584 C 0.5999 0.65173 0.42906 0.0
H585 H 0.60751 0.69531 0.43156 0.0
C586 C 0.61475 0.64617 0.45268 0.0
C587 C 0.59723 0.66962 0.4213 0.0
C588 C 0.58122 0.67619 0.39704 0.0
C589 C 0.62723 0.65809 0.46821 0.0
C590 C 0.62448 0.67604 0.46088 0.0
C591 C 0.60958 0.68155 0.43723 0.0
C592 C 0.63705 0.68939 0.47632 0.0
C593 C 0.6434 0.65132 0.49128 0.0
C594 C 0.64142 0.69116 0.52283 0.0
C595 C 0.653 0.70413 0.5369 0.0
C596 C 0.66016 0.71566 0.50471 0.0
C597 C 0.65564 0.71388 0.45826 0.0
C598 C 0.64422 0.70088 0.44425 0.0
H599 H 0.64573 0.63744 0.483 0.0
H600 H 0.655 0.65895 0.48097 0.0
H601 H 0.64188 0.65242 0.52897 0.0
H602 H 0.63572 0.68268 0.54832 0.0
H603 H 0.65617 0.70524 0.57294 0.0
H604 H 0.13958 0.75795 0.1716 0.0
H605 H 0.11904 0.7799 0.19781 0.0
H606 H 0.14517 0.81853 0.11585 0.0
H607 H 0.16551 0.79642 0.08827 0.0
H608 H 0.12543 0.80862 0.24647 0.0
H609 H 0.09527 0.82657 0.08034 0.0
H610 H 0.10894 0.80772 0.08679 0.0
H611 H 0.11845 0.82895 0.08123 0.0
C612 C 0.14085 0.77107 0.15871 0.0
C613 C 0.1541 0.77545 0.12771 0.0
C614 C 0.12913 0.78362 0.17384 0.0
C615 C 0.13046 0.80083 0.15851 0.0
C616 C 0.14365 0.80526 0.12736 0.0
H617 H 0.07699 0.8864 0.29819 0.0
H618 H 0.09916 0.866 0.27123 0.0
C619 C 0.15529 0.79263 0.11173 0.0
C620 C 0.11832 0.8141 0.17655 0.0
H621 H 0.08753 0.84356 0.14475 0.0
C622 C 0.11713 0.81627 0.22424 0.0
C623 C 0.10741 0.82396 0.14751 0.0
C624 C 0.10742 0.82161 0.09616 0.0
C625 C 0.10519 0.82787 0.24376 0.0
C626 C 0.09448 0.83792 0.21469 0.0
C627 C 0.09582 0.83591 0.16698 0.0
C628 C 0.08117 0.85001 0.23283 0.0
C629 C 0.10377 0.82877 0.29529 0.0
C630 C 0.06376 0.84794 0.21976 0.0
C631 C 0.05118 0.85969 0.2345 0.0
C632 C 0.05572 0.87371 0.26287 0.0
C633 C 0.07309 0.8756 0.27679 0.0
C634 C 0.08575 0.86392 0.26152 0.0
H635 H 0.10938 0.81709 0.31197 0.0
H636 H 0.11104 0.84027 0.30781 0.0
H637 H 0.09002 0.83008 0.30625 0.0
H638 H 0.05992 0.83729 0.19772 0.0
H639 H 0.03789 0.85787 0.22326 0.0
H640 H 0.00365 0.61633 0.17792 0.0
H641 H 0.98147 0.63752 0.15703 0.0
H642 H 0.96708 0.64282 0.29909 0.0
H643 H 0.98935 0.62155 0.32055 0.0
H644 H 0.94438 0.63566 0.17701 0.0
H645 H 0.9771 0.69335 0.25275 0.0
H646 H 0.98856 0.67345 0.24025 0.0
H647 H 0.97467 0.67475 0.28949 0.0
C648 C 0.99582 0.622 0.20485 0.0
C649 C 0.99832 0.61732 0.25097 0.0
C650 C 0.98313 0.63408 0.19277 0.0
C651 C 0.97279 0.64181 0.22655 0.0
C652 C 0.97511 0.63711 0.27262 0.0
H653 H 0.89405 0.72176 0.21585 0.0
H654 H 0.91486 0.69954 0.23873 0.0
C655 C 0.98778 0.62494 0.28477 0.0
C656 C 0.95953 0.65472 0.21322 0.0
H657 H 0.94942 0.69774 0.22023 0.0
C658 C 0.94543 0.64924 0.18641 0.0
C659 C 0.96101 0.67238 0.22564 0.0
C660 C 0.97619 0.67895 0.25335 0.0
C661 C 0.93259 0.66098 0.17208 0.0
C662 C 0.93418 0.67871 0.18403 0.0
C663 C 0.94826 0.68414 0.21103 0.0
C664 C 0.92126 0.69186 0.16948 0.0
C665 C 0.91729 0.65421 0.14517 0.0
C666 C 0.91803 0.69501 0.12284 0.0
C667 C 0.90602 0.70767 0.10955 0.0
C668 C 0.89722 0.71753 0.14274 0.0
C669 C 0.90062 0.71442 0.18938 0.0
C670 C 0.91251 0.70172 0.20257 0.0
H671 H 0.91558 0.64 0.14978 0.0
H672 H 0.9051 0.66083 0.15551 0.0
H673 H 0.91947 0.65672 0.10817 0.0
H674 H 0.92494 0.68782 0.0967 0.0
H675 H 0.90377 0.70985 0.07337 0.0
H676 H 0.057 0.1144 0.95901 0.0
H677 H 0.07945 0.1353 0.98014 0.0
H678 H 0.09193 0.14292 0.83753 0.0
H679 H 0.06939 0.12197 0.81584 0.0
H680 H 0.11632 0.13418 0.95654 0.0
H681 H 0.08198 0.19256 0.89 0.0
H682 H 0.0709 0.17234 0.90141 0.0
H683 H 0.08416 0.17455 0.85119 0.0
C684 C 0.06448 0.12051 0.93203 0.0
C685 C 0.06135 0.11659 0.88569 0.0
C686 C 0.07733 0.13241 0.94423 0.0
C687 C 0.08719 0.14073 0.91038 0.0
C688 C 0.08427 0.13675 0.86409 0.0
H689 H 0.16426 0.22259 0.9275 0.0
H690 H 0.14421 0.20006 0.90183 0.0
C691 C 0.07145 0.12476 0.8518 0.0
C692 C 0.10049 0.15358 0.92384 0.0
H693 H 0.10986 0.19685 0.92127 0.0
C694 C 0.11497 0.14789 0.94882 0.0
C695 C 0.09862 0.17141 0.91357 0.0
C696 C 0.08304 0.1782 0.88785 0.0
C697 C 0.12777 0.15959 0.9636 0.0
C698 C 0.12577 0.17748 0.95401 0.0
C699 C 0.11134 0.18313 0.92864 0.0
C700 C 0.13844 0.19064 0.96999 0.0
C701 C 0.14345 0.15264 0.9886 0.0
C702 C 0.14179 0.19287 0.01692 0.0
C703 C 0.15335 0.2057 0.03176 0.0
C704 C 0.16157 0.21665 -0.0001 0.0
C705 C 0.15813 0.21439 0.95295 0.0
C706 C 0.14667 0.20152 0.93818 0.0
H707 H 0.14545 0.1386 0.98164 0.0
H708 H 0.15539 0.1598 0.97872 0.0
H709 H 0.1415 0.15422 0.02604 0.0
H710 H 0.13526 0.18488 0.04213 0.0
H711 H 0.15565 0.20719 0.06816 0.0
H712 H 0.66081 0.29533 0.57893 0.0
H713 H 0.64136 0.31842 0.60532 0.0
H714 H 0.60999 0.28053 0.67601 0.0
H715 H 0.62908 0.25741 0.64925 0.0
H716 H 0.5905 0.3041 0.62811 0.0
H717 H 0.63963 0.33748 0.73606 0.0
H718 H 0.6459 0.33477 0.67722 0.0
H719 H 0.64297 0.316 0.71301 0.0
C720 C 0.64971 0.29191 0.59985 0.0
C721 C 0.64654 0.27454 0.61218 0.0
C722 C 0.6387 0.30513 0.61522 0.0
C723 C 0.62445 0.3012 0.64338 0.0
C724 C 0.621 0.28384 0.65458 0.0
H725 H 0.5625 0.37121 0.81104 0.0
H726 H 0.58274 0.34896 0.78329 0.0
C727 C 0.63193 0.27064 0.63919 0.0
C728 C 0.61298 0.31508 0.66106 0.0
H729 H 0.61235 0.35147 0.72789 0.0
C730 C 0.59527 0.31446 0.64994 0.0
C731 C 0.6192 0.3284 0.69017 0.0
C732 C 0.63793 0.32918 0.70525 0.0
C733 C 0.58362 0.32691 0.66666 0.0
C734 C 0.58993 0.34056 0.69452 0.0
C735 C 0.6076 0.34107 0.70621 0.0
C736 C 0.57835 0.35447 0.71149 0.0
C737 C 0.5646 0.32516 0.65498 0.0
C738 C 0.56956 0.36516 0.68033 0.0
C739 C 0.55798 0.37773 0.69598 0.0
C740 C 0.55511 0.38002 0.74318 0.0
C741 C 0.56439 0.36971 0.77448 0.0
C742 C 0.57595 0.35702 0.7587 0.0
H743 H 0.56126 0.3117 0.6445 0.0
H744 H 0.5563 0.32885 0.68453 0.0
H745 H 0.56148 0.33391 0.62593 0.0
H746 H 0.57156 0.36368 0.6438 0.0
H747 H 0.55121 0.3856 0.67094 0.0
H748 H 0.40291 0.77288 0.43494 0.0
H749 H 0.422 0.79689 0.41392 0.0
H750 H 0.41683 0.81828 0.54976 0.0
H751 H 0.39779 0.79413 0.5714 0.0
H752 H 0.41439 0.83275 0.41564 0.0
H753 H 0.46975 0.81599 0.52971 0.0
H754 H 0.45262 0.80078 0.51648 0.0
H755 H 0.44901 0.81777 0.55752 0.0
C756 C 0.40588 0.78262 0.46052 0.0
C757 C 0.39889 0.78155 0.50495 0.0
C758 C 0.41676 0.79635 0.44836 0.0
C759 C 0.42095 0.80924 0.4804 0.0
C760 C 0.41397 0.80829 0.52477 0.0
H761 H 0.48833 0.89936 0.46394 0.0
H762 H 0.46693 0.87769 0.48723 0.0
C763 C 0.40306 0.79452 0.53701 0.0
C764 C 0.43241 0.82378 0.46684 0.0
H765 H 0.47192 0.84217 0.48798 0.0
C766 C 0.42697 0.83484 0.43142 0.0
C767 C 0.44879 0.82643 0.48759 0.0
C768 C 0.45552 0.81456 0.52469 0.0
C769 C 0.43746 0.84861 0.41632 0.0
C770 C 0.45392 0.85115 0.43671 0.0
C771 C 0.45927 0.84018 0.47245 0.0
C772 C 0.46595 0.86495 0.42124 0.0
C773 C 0.43072 0.86046 0.37919 0.0
C774 C 0.47245 0.86501 0.37629 0.0
C775 C 0.48467 0.87743 0.36276 0.0
C776 C 0.49071 0.8899 0.39413 0.0
C777 C 0.48397 0.88993 0.43892 0.0
C778 C 0.47175 0.87755 0.45235 0.0
H779 H 0.41635 0.85974 0.37616 0.0
H780 H 0.43449 0.87415 0.3858 0.0
H781 H 0.43637 0.85649 0.34583 0.0
H782 H 0.4684 0.85518 0.352 0.0
H783 H 0.48967 0.877 0.32809 0.0
H784 H 0.98121 0.54576 0.2208 0.0
H785 H 0.97685 0.52488 0.15841 0.0
H786 H 0.03224 0.5177 0.14816 0.0
H787 H 0.03675 0.53841 0.21021 0.0
H788 H 0.99135 0.52766 0.06716 0.0
H789 H 0.01228 0.46779 0.15696 0.0
H790 H 0.00585 0.48724 0.18707 0.0
H791 H 0.02724 0.48555 0.16279 0.0
C792 C 0.99245 0.53961 0.20552 0.0
C793 C 0.00933 0.5437 0.22048 0.0
C794 C 0.98992 0.52773 0.16991 0.0
C795 C 0.00422 0.51964 0.14924 0.0
C796 C 0.02104 0.52361 0.16429 0.0
H797 H 0.0351 0.45552 0.92977 0.0
H798 H 0.03134 0.47463 0.99561 0.0
C799 C 0.02358 0.53551 0.19959 0.0
C800 C 0.00183 0.5076 0.11044 0.0
H801 H 0.01161 0.4666 0.07502 0.0
C802 C 0.99547 0.51421 0.0689 0.0
C803 C 0.00719 0.4901 0.11313 0.0
C804 C 0.01338 0.48217 0.1575 0.0
C805 C 0.9953 0.504 0.02909 0.0
C806 C 0.00143 0.48672 0.03137 0.0
C807 C 0.00703 0.47991 0.07343 0.0
C808 C 0.00336 0.47584 0.99006 0.0
C809 C 0.98944 0.51198 0.98449 0.0
C810 C 0.98883 0.4703 0.96502 0.0
C811 C 0.99093 0.45939 0.92713 0.0
C812 C 0.00758 0.4538 0.91402 0.0
C813 C 0.02209 0.45958 0.93895 0.0
C814 C 0.01998 0.47047 0.97664 0.0
H815 H 0.98801 0.5263 0.98705 0.0
H816 H -0.0012 0.50897 0.95666 0.0
H817 H 0.97667 0.50642 0.9747 0.0
H818 H 0.97587 0.47413 0.97531 0.0
H819 H 0.9795 0.45508 0.90874 0.0
H820 H 0.8252 0.70109 0.16515 0.0
H821 H 0.80334 0.69697 0.22535 0.0
H822 H 0.7958 0.75236 0.23275 0.0
H823 H 0.8175 0.75663 0.17294 0.0
H824 H 0.80525 0.7123 0.31608 0.0
H825 H 0.74599 0.73195 0.22144 0.0
H826 H 0.76573 0.72529 0.19294 0.0
H827 H 0.76377 0.74689 0.21567 0.0
C828 C 0.81874 0.71237 0.17929 0.0
C829 C 0.82305 0.72919 0.16433 0.0
C830 C 0.8063 0.70998 0.21362 0.0
C831 C 0.79786 0.72435 0.23289 0.0
C832 C 0.80199 0.7411 0.21765 0.0
H833 H 0.73184 0.7564 0.44766 0.0
H834 H 0.75063 0.75228 0.38125 0.0
C835 C 0.81446 0.74351 0.18368 0.0
C836 C 0.78546 0.72214 0.27097 0.0
H837 H 0.74407 0.73185 0.3033 0.0
C838 C 0.79178 0.71626 0.31328 0.0
C839 C 0.76795 0.72733 0.26689 0.0
C840 C 0.76038 0.73307 0.22168 0.0
C841 C 0.78124 0.71639 0.35249 0.0
C842 C 0.76391 0.72229 0.34879 0.0
C843 C 0.7574 0.72743 0.30598 0.0
C844 C 0.75268 0.72444 0.38939 0.0
C845 C 0.78898 0.71112 0.39791 0.0
C846 C 0.74759 0.71011 0.41582 0.0
C847 C 0.7369 0.71242 0.45403 0.0
C848 C 0.73105 0.7291 0.46608 0.0
C849 C 0.73614 0.74339 0.43933 0.0
C850 C 0.74684 0.74107 0.40132 0.0
H851 H 0.80337 0.71018 0.39637 0.0
H852 H 0.78539 0.72054 0.4251 0.0
H853 H 0.7838 0.69822 0.4079 0.0
H854 H 0.75175 0.69714 0.40665 0.0
H855 H 0.7331 0.70114 0.47379 0.0
H856 H 0.52035 0.53806 0.4266 0.0
H857 H 0.52355 0.51804 0.49086 0.0
H858 H 0.57925 0.52297 0.48311 0.0
H859 H 0.57622 0.54313 0.41852 0.0
H860 H 0.54409 0.48556 0.4921 0.0
H861 H 0.56526 0.53522 0.61946 0.0
H862 H 0.55402 0.54105 0.56735 0.0
H863 H 0.57631 0.5344 0.56512 0.0
C864 C 0.53331 0.53488 0.4384 0.0
C865 C 0.54804 0.54222 0.41759 0.0
C866 C 0.53509 0.52344 0.47507 0.0
C867 C 0.55161 0.51922 0.49181 0.0
C868 C 0.56639 0.52627 0.47082 0.0
H869 H 0.57082 0.45505 0.73547 0.0
H870 H 0.57563 0.47388 0.66889 0.0
C871 C 0.56463 0.53769 0.43387 0.0
C872 C 0.55312 0.50742 0.53137 0.0
H873 H 0.56074 0.50681 0.64654 0.0
C874 C 0.54792 0.49012 0.5258 0.0
C875 C 0.55823 0.51348 0.57504 0.0
C876 C 0.56371 0.53206 0.58254 0.0
C877 C 0.54721 0.47876 0.56321 0.0
C878 C 0.55146 0.48503 0.60733 0.0
C879 C 0.55741 0.50213 0.61261 0.0
C880 C 0.54862 0.47435 0.64865 0.0
C881 C 0.5417 0.4602 0.55529 0.0
C882 C 0.53179 0.46888 0.65983 0.0
C883 C 0.52899 0.4582 0.69764 0.0
C884 C 0.54299 0.45287 0.72514 0.0
C885 C 0.55979 0.45889 0.71483 0.0
C886 C 0.56257 0.46961 0.67685 0.0
H887 H 0.54386 0.45619 0.51917 0.0
H888 H 0.54886 0.45118 0.57818 0.0
H889 H 0.52762 0.45892 0.56269 0.0
H890 H 0.52081 0.47276 0.63898 0.0
H891 H 0.51587 0.45391 0.70483 0.0
H892 H 0.82079 0.28933 0.96464 0.0
H893 H 0.79785 0.28844 0.90662 0.0
H894 H 0.79137 0.23351 0.93002 0.0
H895 H 0.81453 0.23419 0.98703 0.0
H896 H 0.7941 0.2411 0.8402 0.0
H897 H 0.74566 0.28448 0.92199 0.0
H898 H 0.76671 0.29416 0.91517 0.0
H899 H 0.76407 0.27582 0.95267 0.0
C900 C 0.81436 0.27711 0.95769 0.0
C901 C 0.81946 0.26183 0.98035 0.0
C902 C 0.80119 0.27664 0.92475 0.0
C903 C 0.79276 0.26096 0.91451 0.0
C904 C 0.7977 0.24576 0.93752 0.0
H905 H 0.69927 0.24374 0.75646 0.0
H906 H 0.72102 0.24723 0.81686 0.0
C907 C 0.81094 0.24617 0.97008 0.0
C908 C 0.77942 0.26007 0.8781 0.0
H909 H 0.73997 0.27593 0.84514 0.0
C910 C 0.78224 0.24869 0.84132 0.0
C911 C 0.76391 0.26986 0.87995 0.0
C912 C 0.75978 0.28165 0.91976 0.0
C913 C 0.76999 0.24684 0.80619 0.0
C914 C 0.75471 0.25699 0.80733 0.0
C915 C 0.75181 0.26831 0.84421 0.0
C916 C 0.7414 0.2557 0.77098 0.0
C917 C 0.77336 0.23374 0.76876 0.0
C918 C 0.74561 0.25965 0.7254 0.0
C919 C 0.73328 0.25754 0.69081 0.0
C920 C 0.71646 0.25165 0.70132 0.0
C921 C 0.71213 0.24824 0.74724 0.0
C922 C 0.72451 0.25025 0.78179 0.0
H923 H 0.78317 0.22394 0.77932 0.0
H924 H 0.76124 0.22687 0.759 0.0
H925 H 0.77842 0.24055 0.73803 0.0
H926 H 0.75847 0.26423 0.71654 0.0
H927 H 0.73696 0.26045 0.65583 0.0
H928 H 0.24022 0.26187 0.9814 0.0
H929 H 0.26274 0.26046 0.92268 0.0
H930 H 0.25642 0.2049 0.91457 0.0
H931 H 0.23415 0.20613 0.97438 0.0
H932 H 0.29051 0.21451 0.91321 0.0
H933 H 0.253 0.25334 0.78782 0.0
H934 H 0.25605 0.26448 0.84119 0.0
H935 H 0.24343 0.2448 0.83955 0.0
C936 C 0.24363 0.24934 0.9672 0.0
C937 C 0.23531 0.23412 0.98218 0.0
C938 C 0.25644 0.24857 0.93349 0.0
C939 C 0.26094 0.23263 0.91357 0.0
C940 C 0.25302 0.21735 0.92933 0.0
H941 H 0.31705 0.22743 0.65611 0.0
H942 H 0.29568 0.22404 0.71727 0.0
C943 C 0.24031 0.21807 0.96345 0.0
C944 C 0.27383 0.23198 0.87606 0.0
H945 H 0.28286 0.24865 0.77049 0.0
C946 C 0.28882 0.22186 0.88182 0.0
C947 C 0.2714 0.24133 0.83483 0.0
C948 C 0.25502 0.25145 0.82519 0.0
C949 C 0.3017 0.22121 0.84787 0.0
C950 C 0.29968 0.23129 0.80769 0.0
C951 C 0.28448 0.24106 0.80152 0.0
C952 C 0.31312 0.23205 0.77149 0.0
C953 C 0.3172 0.20955 0.85514 0.0
C954 C 0.33003 0.23764 0.78168 0.0
C955 C 0.34234 0.23941 0.74683 0.0
C956 C 0.33782 0.23593 0.7011 0.0
C957 C 0.3209 0.23027 0.69101 0.0
C958 C 0.30868 0.22831 0.72591 0.0
H959 H 0.31422 0.19892 0.87967 0.0
H960 H 0.32164 0.20372 0.82238 0.0
H961 H 0.32803 0.2173 0.86969 0.0
H962 H 0.33361 0.24106 0.81641 0.0
H963 H 0.35524 0.24394 0.75558 0.0
H964 H 0.32655 0.7403 0.44847 0.0
H965 H 0.3063 0.74425 0.38513 0.0
H966 H 0.30073 0.79835 0.42012 0.0
H967 H 0.32093 0.7945 0.48427 0.0
H968 H 0.26903 0.78104 0.40275 0.0
H969 H 0.31682 0.76936 0.26432 0.0
H970 H 0.31671 0.75249 0.30673 0.0
H971 H 0.3232 0.77412 0.32253 0.0
C972 C 0.32106 0.75307 0.44277 0.0
C973 C 0.32542 0.76713 0.47124 0.0
C974 C 0.30958 0.75531 0.40637 0.0
C975 C 0.30233 0.77166 0.39749 0.0
C976 C 0.30635 0.78567 0.42628 0.0
H977 H 0.22615 0.79584 0.18181 0.0
H978 H 0.24704 0.79948 0.24451 0.0
C979 C 0.31787 0.78344 0.46285 0.0
C980 C 0.29024 0.77384 0.35862 0.0
H981 H 0.28677 0.76711 0.24347 0.0
C982 C 0.27293 0.7783 0.36778 0.0
C983 C 0.29546 0.77035 0.31309 0.0
C984 C 0.3141 0.76649 0.30093 0.0
C985 C 0.26043 0.7784 0.33277 0.0
C986 C 0.26551 0.77405 0.28771 0.0
C987 C 0.28295 0.77032 0.27825 0.0
C988 C 0.25274 0.77209 0.25044 0.0
C989 C 0.24176 0.78233 0.34438 0.0
C990 C 0.24925 0.75551 0.23301 0.0
C991 C 0.23738 0.75336 0.19741 0.0
C992 C 0.22889 0.76782 0.17835 0.0
C993 C 0.23248 0.78446 0.19581 0.0
C994 C 0.24433 0.78657 0.23167 0.0
H995 H 0.23962 0.78338 0.38193 0.0
H996 H 0.23795 0.79481 0.32825 0.0
H997 H 0.23311 0.77206 0.3305 0.0
H998 H 0.25569 0.7442 0.24711 0.0
H999 H 0.23494 0.74038 0.18469 0.0
H1000 H 0.54071 0.95763 0.4343 0.0
H1001 H 0.53962 0.98188 0.48785 0.0
H1002 H 0.49486 0.00244 0.4176 0.0
H1003 H 0.49572 0.97803 0.36373 0.0
H1004 H 0.54103 0.01829 0.46869 0.0
H1005 H 0.47954 0.99795 0.55378 0.0
H1006 H 0.49201 0.9834 0.51824 0.0
H1007 H 0.47911 0.00014 0.49242 0.0
C1008 C 0.53062 0.96729 0.43009 0.0
C1009 C 0.51823 0.96585 0.39491 0.0
C1010 C 0.53006 0.98116 0.46067 0.0
C1011 C 0.51708 0.99382 0.45682 0.0
C1012 C 0.50484 0.99265 0.42137 0.0
H1013 H 0.5228 0.08658 0.63241 0.0
H1014 H 0.5188 0.06828 0.56457 0.0
C1015 C 0.5054 0.97874 0.39061 0.0
C1016 C 0.51642 0.00802 0.49071 0.0
H1017 H 0.49366 0.02258 0.58332 0.0
C1018 C 0.53059 0.01943 0.49344 0.0
C1019 C 0.50279 0.00929 0.52298 0.0
C1020 C 0.48752 0.99701 0.52217 0.0
C1021 C 0.53178 0.03177 0.52859 0.0
C1022 C 0.51832 0.0328 0.56141 0.0
C1023 C 0.50389 0.02176 0.55785 0.0
C1024 C 0.51978 0.04408 0.60211 0.0
C1025 C 0.54779 0.04301 0.53169 0.0
C1026 C 0.52125 0.0365 0.6456 0.0
C1027 C 0.52348 0.04686 0.68431 0.0
C1028 C 0.52422 0.06502 0.6802 0.0
C1029 C 0.52238 0.07262 0.63664 0.0
C1030 C 0.52014 0.06221 0.59786 0.0
H1031 H 0.55825 0.03853 0.5083 0.0
H1032 H 0.54438 0.05654 0.52226 0.0
H1033 H 0.55291 0.04315 0.56727 0.0
H1034 H 0.52099 0.02251 0.64948 0.0
H1035 H 0.5248 0.04059 0.71736 0.0
H1036 H 0.07582 0.04184 0.90278 0.0
H1037 H 0.07968 0.01918 0.96095 0.0
H1038 H 0.02415 0.01569 0.97744 0.0
H1039 H 0.02013 0.03819 0.91961 0.0
H1040 H 0.06712 0.02098 0.05389 0.0
H1041 H 0.03999 0.96474 0.95944 0.0
H1042 H 0.0473 0.98428 0.93108 0.0
H1043 H 0.02634 0.98362 0.95813 0.0
C1044 C 0.06443 0.03612 0.91851 0.0
C1045 C 0.04766 0.04178 0.90659 0.0
C1046 C 0.06667 0.02321 0.95168 0.0
C1047 C 0.05219 0.01564 0.97286 0.0
C1048 C 0.03547 0.02117 0.96079 0.0
H1049 H 0.02057 0.95065 0.19016 0.0
H1050 H 0.02452 0.9693 0.12341 0.0
C1051 C 0.03321 0.03411 0.92795 0.0
C1052 C 0.05436 0.00265 0.00958 0.0
H1053 H 0.04209 0.96181 0.04097 0.0
C1054 C 0.06196 0.00792 0.05097 0.0
C1055 C 0.0476 0.98567 0.00537 0.0
C1056 C 0.03999 0.97915 0.96096 0.0
C1057 C 0.06205 0.99694 0.08935 0.0
C1058 C 0.0546 0.98021 0.08569 0.0
C1059 C 0.04771 0.97469 0.04364 0.0
C1060 C 0.05259 0.96874 0.1259 0.0
C1061 C 0.06925 0.00365 0.13407 0.0
C1062 C 0.06711 0.96216 0.14914 0.0
C1063 C 0.06491 0.95153 0.18754 0.0
C1064 C 0.04814 0.94724 0.203 0.0
C1065 C 0.03366 0.95372 0.17921 0.0
C1066 C 0.03588 0.96435 0.141 0.0
H1067 H 0.07146 0.0179 0.13325 0.0
H1068 H 0.0603 0.00059 0.16281 0.0
H1069 H 0.08186 0.99723 0.14115 0.0
H1070 H 0.08011 0.96519 0.1375 0.0
H1071 H 0.07632 0.94664 0.20497 0.0
H1072 H 0.01813 0.44106 0.68493 0.0
H1073 H 0.01893 0.46139 0.62045 0.0
H1074 H 0.0683 0.48099 0.66736 0.0
H1075 H 0.06749 0.46097 0.73219 0.0
H1076 H 0.0449 0.50697 0.64809 0.0
H1077 H 0.04854 0.45985 0.50455 0.0
H1078 H 0.0307 0.45623 0.54301 0.0
H1079 H 0.05261 0.45375 0.5633 0.0
C1080 C 0.02925 0.44956 0.68123 0.0
C1081 C 0.04275 0.44939 0.71367 0.0
C1082 C 0.02971 0.46113 0.64427 0.0
C1083 C 0.04376 0.47257 0.6389 0.0
C1084 C 0.05735 0.47225 0.67087 0.0
H1085 H 0.0689 0.53385 0.39961 0.0
H1086 H 0.0688 0.51382 0.46445 0.0
C1087 C 0.05687 0.46076 0.70785 0.0
C1088 C 0.04402 0.48543 0.60113 0.0
H1089 H 0.04385 0.48937 0.48467 0.0
C1090 C 0.04471 0.50314 0.61233 0.0
C1091 C 0.04395 0.48036 0.55457 0.0
C1092 C 0.04407 0.46152 0.54048 0.0
C1093 C 0.04519 0.51596 0.57818 0.0
C1094 C 0.04466 0.51092 0.53163 0.0
C1095 C 0.04412 0.4932 0.52043 0.0
C1096 C 0.04502 0.52376 0.49386 0.0
C1097 C 0.04663 0.53476 0.59224 0.0
C1098 C 0.03171 0.53608 0.48903 0.0
C1099 C 0.03177 0.54764 0.45207 0.0
C1100 C 0.04506 0.54696 0.41908 0.0
C1101 C 0.05846 0.53473 0.42438 0.0
C1102 C 0.05842 0.52323 0.46136 0.0
H1103 H 0.0514 0.53612 0.62799 0.0
H1104 H 0.05553 0.54196 0.56908 0.0
H1105 H 0.03363 0.5409 0.59022 0.0
H1106 H 0.02108 0.5365 0.51328 0.0
H1107 H 0.0212 0.55683 0.44878 0.0
H1108 H 0.84468 0.74507 0.93038 0.0
H1109 H 0.82629 0.74478 0.8618 0.0
H1110 H 0.78898 0.77744 0.93036 0.0
H1111 H 0.80735 0.77814 -0.0017 0.0
H1112 H 0.79305 0.73285 0.85224 0.0
H1113 H 0.79576 0.80293 0.81054 0.0
H1114 H 0.81044 0.79291 0.85084 0.0
H1115 H 0.78886 0.79897 0.8683 0.0
C1116 C 0.83265 0.75233 0.93063 0.0
C1117 C 0.82754 0.76172 0.96968 0.0
C1118 C 0.82214 0.75212 0.8915 0.0
C1119 C 0.8064 0.76132 0.89075 0.0
C1120 C 0.80127 0.77061 0.92976 0.0
H1121 H 0.71823 0.74488 0.70963 0.0
H1122 H 0.73856 0.74525 0.77421 0.0
C1123 C 0.81177 0.77091 0.9687 0.0
C1124 C 0.79499 0.76073 0.84991 0.0
H1125 H 0.77363 0.78645 0.7732 0.0
C1126 C 0.7889 0.74455 0.83468 0.0
C1127 C 0.78975 0.77599 0.82675 0.0
C1128 C 0.79668 0.79366 0.83962 0.0
C1129 C 0.7774 0.74324 0.7975 0.0
C1130 C 0.77154 0.75857 0.77572 0.0
C1131 C 0.77794 0.77472 0.79034 0.0
C1132 C 0.75913 0.75821 0.73689 0.0
C1133 C 0.77187 0.72545 0.78152 0.0
C1134 C 0.76374 0.76582 0.69497 0.0
C1135 C 0.75209 0.76586 0.65836 0.0
C1136 C 0.73557 0.75826 0.66288 0.0
C1137 C 0.7309 0.75073 0.70499 0.0
C1138 C 0.74255 0.75081 0.74181 0.0
H1139 H 0.78111 0.71526 0.79292 0.0
H1140 H 0.75896 0.72234 0.79626 0.0
H1141 H 0.77082 0.72494 0.7436 0.0
H1142 H 0.77643 0.77166 0.69047 0.0
H1143 H 0.75612 0.77176 0.62639 0.0
H1144 H 0.53835 0.55412 0.1866 0.0
H1145 H 0.53782 0.53344 0.12286 0.0
H1146 H 0.4896 0.51225 0.17312 0.0
H1147 H 0.49013 0.53262 0.23712 0.0
H1148 H 0.51403 0.48704 0.15293 0.0
H1149 H 0.50679 0.5337 0.00902 0.0
H1150 H 0.52482 0.53801 0.04639 0.0
H1151 H 0.50303 0.53972 0.06796 0.0
C1152 C 0.52755 0.54518 0.1838 0.0
C1153 C 0.51427 0.54502 0.21689 0.0
C1154 C 0.52724 0.53341 0.14729 0.0
C1155 C 0.51359 0.52142 0.14308 0.0
C1156 C 0.50025 0.5214 0.17575 0.0
H1157 H 0.48548 0.45915 0.9092 0.0
H1158 H 0.48661 0.47915 0.97397 0.0
C1159 C 0.50056 0.53309 0.21225 0.0
C1160 C 0.51341 0.50848 0.10558 0.0
H1161 H 0.51163 0.50427 0.98929 0.0
C1162 C 0.51351 0.49078 0.11712 0.0
C1163 C 0.51256 0.51344 0.05899 0.0
C1164 C 0.51163 0.53224 0.04469 0.0
C1165 C 0.51282 0.47787 0.08325 0.0
C1166 C 0.51229 0.48283 0.03663 0.0
C1167 C 0.51216 0.50053 0.0251 0.0
C1168 C 0.51135 0.4699 -0.00084 0.0
C1169 C 0.51223 0.45907 0.09769 0.0
C1170 C 0.52484 0.45796 0.99207 0.0
C1171 C 0.5242 0.4464 0.95513 0.0
C1172 C 0.51012 0.44674 0.92445 0.0
C1173 C 0.49652 0.45855 0.93215 0.0
C1174 C 0.49715 0.47003 0.96908 0.0
H1175 H 0.50843 0.45762 0.13422 0.0
H1176 H 0.50294 0.45162 0.07621 0.0
H1177 H 0.5253 0.45325 0.09332 0.0
H1178 H 0.53606 0.45785 0.01445 0.0
H1179 H 0.53494 0.43755 0.94996 0.0
H1180 H 0.83383 0.26216 0.20108 0.0
H1181 H 0.81246 0.2632 0.2633 0.0
H1182 H 0.80098 0.20898 0.24253 0.0
H1183 H 0.82227 0.20777 0.18069 0.0
H1184 H 0.77643 0.25509 0.25223 0.0
H1185 H 0.80783 0.21298 0.38235 0.0
H1186 H 0.81971 0.22273 0.33558 0.0
H1187 H 0.80681 0.20362 0.32605 0.0
C1188 C 0.82697 0.25039 0.2103 0.0
C1189 C 0.82974 0.23488 0.18595 0.0
C1190 C 0.81474 0.25103 0.24572 0.0
C1191 C 0.80528 0.23613 0.2577 0.0
C1192 C 0.80835 0.22055 0.23428 0.0
H1193 H 0.72092 0.20756 0.43561 0.0
H1194 H 0.74389 0.20921 0.37801 0.0
C1195 C 0.82048 0.21991 0.19879 0.0
C1196 C 0.79134 0.23704 0.29251 0.0
H1197 H 0.7779 0.21943 0.39376 0.0
C1198 C 0.77679 0.24746 0.28347 0.0
C1199 C 0.79187 0.22698 0.333 0.0
C1200 C 0.80745 0.21606 0.34516 0.0
C1201 C 0.76246 0.24765 0.31318 0.0
C1202 C 0.76288 0.23739 0.35337 0.0
C1203 C 0.77758 0.22722 0.36278 0.0
C1204 C 0.74815 0.23681 0.386 0.0
C1205 C 0.74677 0.25835 0.30051 0.0
C1206 C 0.74283 0.25182 0.4093 0.0
C1207 C 0.72962 0.25095 0.44208 0.0
C1208 C 0.72163 0.235 0.45247 0.0
C1209 C 0.72679 0.22005 0.42844 0.0
C1210 C 0.73995 0.22095 0.39559 0.0
H1211 H 0.74674 0.26184 0.26357 0.0
H1212 H 0.73457 0.25129 0.30852 0.0
H1213 H 0.74688 0.27058 0.3206 0.0
H1214 H 0.74921 0.26413 0.40303 0.0
H1215 H 0.72604 0.26268 0.46018 0.0
H1216 H 0.33023 0.28515 0.45075 0.0
H1217 H 0.30795 0.28503 0.39107 0.0
H1218 H 0.30644 0.22911 0.39508 0.0
H1219 H 0.32878 0.22905 0.45489 0.0
H1220 H 0.30842 0.2667 0.30204 0.0
H1221 H 0.25512 0.24599 0.41885 0.0
H1222 H 0.27515 0.25528 0.43976 0.0
H1223 H 0.27472 0.23328 0.41971 0.0
C1224 C 0.32527 0.27281 0.43877 0.0
C1225 C 0.33121 0.25711 0.45774 0.0
C1226 C 0.31254 0.27277 0.4047 0.0
C1227 C 0.30543 0.25708 0.38929 0.0
C1228 C 0.31165 0.24136 0.40709 0.0
H1229 H 0.22169 0.23546 0.1972 0.0
H1230 H 0.24384 0.23355 0.25718 0.0
C1231 C 0.32447 0.24136 0.44102 0.0
C1232 C 0.29136 0.25727 0.35484 0.0
H1233 H 0.24798 0.24984 0.34093 0.0
C1234 C 0.2952 0.263 0.31041 0.0
C1235 C 0.2742 0.25236 0.36606 0.0
C1236 C 0.26941 0.24647 0.41373 0.0
C1237 C 0.28228 0.26388 0.27661 0.0
C1238 C 0.265 0.25934 0.28804 0.0
C1239 C 0.26122 0.25339 0.33238 0.0
C1240 C 0.25068 0.26078 0.25436 0.0
C1241 C 0.28735 0.26938 0.2288 0.0
C1242 C 0.24675 0.27684 0.23419 0.0
C1243 C 0.23419 0.27796 0.19983 0.0
C1244 C 0.22516 0.26307 0.18542 0.0
C1245 C 0.22844 0.24716 0.20747 0.0
C1246 C 0.24111 0.24604 0.24167 0.0
H1247 H 0.30147 0.2676 0.22258 0.0
H1248 H 0.28003 0.26192 0.20258 0.0
H1249 H 0.28434 0.28336 0.22424 0.0
H1250 H 0.25365 0.28847 0.24442 0.0
H1251 H 0.23184 0.29044 0.18388 0.0
H1252 H 0.34395 0.75276 0.70879 0.0
H1253 H 0.3253 0.75295 0.77679 0.0
H1254 H 0.28734 0.72198 0.70516 0.0
H1255 H 0.30597 0.7214 0.63761 0.0
H1256 H 0.29215 0.76559 0.78627 0.0
H1257 H 0.29357 0.69505 0.82349 0.0
H1258 H 0.30855 0.70523 0.78424 0.0
H1259 H 0.28689 0.69985 0.76597 0.0
C1260 C 0.3317 0.74587 0.70767 0.0
C1261 C 0.3265 0.73698 0.6679 0.0
C1262 C 0.32105 0.74602 0.74649 0.0
C1263 C 0.30506 0.73725 0.74622 0.0
C1264 C 0.2998 0.72849 0.70647 0.0
H1265 H 0.21794 0.75317 0.93151 0.0
H1266 H 0.23779 0.75309 0.86592 0.0
C1267 C 0.31045 0.72825 0.66779 0.0
C1268 C 0.29362 0.73767 0.787 0.0
H1269 H 0.27224 0.71168 0.86308 0.0
C1270 C 0.28786 0.75382 0.80328 0.0
C1271 C 0.28822 0.7223 0.80941 0.0
C1272 C 0.29475 0.70464 0.79521 0.0
C1273 C 0.27659 0.755 0.84094 0.0
C1274 C 0.27064 0.73959 0.86219 0.0
C1275 C 0.27665 0.72347 0.84638 0.0
C1276 C 0.25856 0.73985 0.9017 0.0
C1277 C 0.2714 0.77274 0.85807 0.0
C1278 C 0.26347 0.73205 0.94313 0.0
C1279 C 0.2521 0.73187 0.98035 0.0
C1280 C 0.23557 0.73951 0.97692 0.0
C1281 C 0.23063 0.74728 0.93532 0.0
C1282 C 0.242 0.74735 0.89792 0.0
H1283 H 0.28062 0.78293 0.84648 0.0
H1284 H 0.25837 0.77604 0.84442 0.0
H1285 H 0.27074 0.773 0.89607 0.0
H1286 H 0.27616 0.72613 0.94674 0.0
H1287 H 0.25634 0.72579 0.0119 0.0
H1288 H 0.52215 0.9342 0.18076 0.0
H1289 H 0.52148 0.95191 0.11102 0.0
H1290 H 0.56333 0.98335 0.16361 0.0
H1291 H 0.56435 0.9656 0.23271 0.0
H1292 H 0.51478 0.9867 0.10425 0.0
H1293 H 0.58023 0.97237 0.03543 0.0
H1294 H 0.57033 0.95953 0.08009 0.0
H1295 H 0.58081 0.97977 0.09369 0.0
C1296 C 0.53137 0.94474 0.17718 0.0
C1297 C 0.54335 0.94845 0.2122 0.0
C1298 C 0.53094 0.95486 0.13739 0.0
C1299 C 0.54252 0.96879 0.13188 0.0
C1300 C 0.55455 0.97242 0.16666 0.0
H1301 H 0.53156 0.05919 0.95712 0.0
H1302 H 0.53193 0.03852 0.02087 0.0
C1303 C 0.55504 0.9623 0.20629 0.0
C1304 C 0.54149 0.98012 0.09094 0.0
H1305 H 0.56569 0.99701 0.00371 0.0
C1306 C 0.52586 0.98885 0.08199 0.0
C1307 C 0.55589 0.98275 0.06168 0.0
C1308 C 0.57271 0.97297 0.06788 0.0
C1309 C 0.52437 0.0005 0.0452 0.0
C1310 C 0.53903 0.00375 0.01728 0.0
C1311 C 0.55452 0.99468 0.02554 0.0
C1312 C 0.53856 0.01633 0.97885 0.0
C1313 C 0.50707 0.00904 0.0363 0.0
C1314 C 0.54261 0.01081 0.93434 0.0
C1315 C 0.54262 0.02261 0.89804 0.0
C1316 C 0.53859 0.04019 0.90552 0.0
C1317 C 0.5346 0.04572 0.95019 0.0
C1318 C 0.53469 0.0339 0.9866 0.0
H1319 H 0.49622 0.00161 0.05201 0.0
H1320 H 0.50709 0.02222 0.05161 0.0
H1321 H 0.50456 0.01032 -0.00101 0.0
H1322 H 0.54571 0.99733 0.92764 0.0
H1323 H 0.54575 0.0179 0.86407 0.0
H1324 H 0.03232 0.06562 0.67549 0.0
H1325 H 0.0329 0.04769 0.60616 0.0
H1326 H -0.00063 0.01025 0.67142 0.0
H1327 H 0.99842 0.02816 0.74022 0.0
H1328 H 0.04471 0.0143 0.5968 0.0
H1329 H 0.97511 0.01792 0.54984 0.0
H1330 H 0.98487 0.03236 0.59118 0.0
H1331 H 0.97846 0.01078 0.60768 0.0
C1332 C 0.02492 0.05366 0.67486 0.0
C1333 C 0.01525 0.04836 0.71328 0.0
C1334 C 0.0253 0.04343 0.63529 0.0
C1335 C 0.01598 0.02777 0.63343 0.0
C1336 C 0.00633 0.02248 0.67171 0.0
H1337 H 0.03268 0.94005 0.45208 0.0
H1338 H 0.03215 0.96034 0.51664 0.0
C1339 C 0.00588 0.03271 0.71113 0.0
C1340 C 0.01689 0.01657 0.59226 0.0
H1341 H 0.99183 0.99599 0.51259 0.0
C1342 C 0.03318 0.01039 0.57812 0.0
C1343 C 0.00184 0.01165 0.56768 0.0
C1344 C 0.9841 0.01866 0.57955 0.0
C1345 C 0.03478 -0.0009 0.54063 0.0
C1346 C 0.01964 0.99357 0.51734 0.0
C1347 C 0.00341 7e-05 0.53086 0.0
C1348 C 0.02032 0.9813 0.4783 0.0
C1349 C 0.05267 0.99338 0.52598 0.0
C1350 C 0.01347 0.98619 0.43569 0.0
C1351 C 0.01356 0.97459 0.39901 0.0
C1352 C 0.0205 0.95782 0.40419 0.0
C1353 C 0.02735 0.95291 0.44692 0.0
C1354 C 0.02716 0.96453 0.48375 0.0
H1355 H 0.06287 0.00237 0.5387 0.0
H1356 H 0.05537 0.98032 0.54038 0.0
H1357 H 0.05365 0.99257 0.48808 0.0
H1358 H 0.00807 -0.00095 0.4308 0.0
H1359 H 0.00819 0.9788 0.36656 0.0
loop_
_geom_bond_atom_site_label_1
_geom_bond_atom_site_label_2
_geom_bond_distance
_geom_bond_site_symmetry_2
_ccdc_geom_bond_type
C0 O1 1.160 . S
C0 O7 1.185 . S
O1 C0 1.160 . S
O2 Zn3 1.899 . S
O2 C10 1.284 . S
Zn3 O2 1.899 . S
Zn3 O4 2.032 . S
Zn3 O7 2.086 . S
Zn3 O12 1.977 . S
O4 Zn3 2.032 . S
O4 C8 1.278 . S
C5 O6 1.203 . S
C5 O12 1.267 . S
O6 C5 1.203 . S
O7 C0 1.185 . S
O7 Zn3 2.086 . S
C8 O4 1.278 . S
C8 O9 1.211 . S
O9 C8 1.211 . S
C10 O2 1.284 . S
C10 O11 1.273 . S
O11 C10 1.273 . S
O12 Zn3 1.977 . S
O12 C5 1.267 . S
C13 O14 1.160 . S
C13 O20 1.185 . S
O14 C13 1.160 . S
O15 Zn16 1.899 . S
O15 C23 1.284 . S
Zn16 O15 1.899 . S
Zn16 O17 2.032 . S
Zn16 O20 2.086 . S
Zn16 O25 1.977 . S
O17 Zn16 2.032 . S
O17 C21 1.278 . S
C18 O19 1.203 . S
C18 O25 1.267 . S
O19 C18 1.203 . S
O20 C13 1.185 . S
O20 Zn16 2.086 . S
C21 O17 1.278 . S
C21 O22 1.211 . S
O22 C21 1.211 . S
C23 O15 1.284 . S
C23 O24 1.273 . S
O24 C23 1.273 . S
O25 Zn16 1.977 . S
O25 C18 1.267 . S
C26 O27 1.160 . S
C26 O33 1.185 . S
O27 C26 1.160 . S
O28 Zn29 1.899 . S
O28 C36 1.284 . S
Zn29 O28 1.899 . S
Zn29 O30 2.032 . S
Zn29 O33 2.086 . S
Zn29 O38 1.977 . S
O30 Zn29 2.032 . S
O30 C34 1.278 . S
C31 O32 1.203 . S
C31 O38 1.267 . S
O32 C31 1.203 . S
O33 C26 1.185 . S
O33 Zn29 2.086 . S
C34 O30 1.278 . S
C34 O35 1.211 . S
O35 C34 1.211 . S
C36 O28 1.284 . S
C36 O37 1.273 . S
O37 C36 1.273 . S
O38 Zn29 1.977 . S
O38 C31 1.267 . S
C39 O40 1.160 . S
C39 O46 1.185 . S
O40 C39 1.160 . S
O41 Zn42 1.899 . S
O41 C49 1.284 . S
Zn42 O41 1.899 . S
Zn42 O43 2.032 1_554 S
Zn42 O46 2.086 . S
Zn42 O51 1.977 . S
O43 Zn42 2.032 1_556 S
O43 C47 1.278 . S
C44 O45 1.204 1_554 S
C44 O51 1.266 . S
O45 C44 1.204 1_556 S
O46 C39 1.185 . S
O46 Zn42 2.086 . S
C47 O43 1.278 . S
C47 O48 1.211 . S
O48 C47 1.211 . S
C49 O41 1.284 . S
C49 O50 1.273 1_554 S
O50 C49 1.273 1_556 S
O51 Zn42 1.977 . S
O51 C44 1.266 . S
C52 O53 1.160 . S
C52 O59 1.185 . S
O53 C52 1.160 . S
O54 Zn55 1.899 . S
O54 C62 1.284 . S
Zn55 O54 1.899 . S
Zn55 O56 2.032 . S
Zn55 O59 2.086 . S
Zn55 O64 1.977 . S
O56 Zn55 2.032 . S
O56 C60 1.278 . S
C57 O58 1.203 . S
C57 O64 1.267 . S
O58 C57 1.203 . S
O59 C52 1.185 . S
O59 Zn55 2.086 . S
C60 O56 1.278 . S
C60 O61 1.211 . S
O61 C60 1.211 . S
C62 O54 1.284 . S
C62 O63 1.273 . S
O63 C62 1.273 . S
O64 Zn55 1.977 . S
O64 C57 1.267 . S
C65 O66 1.160 . S
C65 O72 1.185 . S
O66 C65 1.160 . S
O67 Zn68 1.899 . S
O67 C75 1.284 . S
Zn68 O67 1.899 . S
Zn68 O69 2.032 . S
Zn68 O72 2.086 . S
Zn68 O77 1.977 . S
O69 Zn68 2.032 . S
O69 C73 1.278 . S
C70 O71 1.203 . S
C70 O77 1.267 . S
O71 C70 1.203 . S
O72 C65 1.185 . S
O72 Zn68 2.086 . S
C73 O69 1.278 . S
C73 O74 1.211 . S
O74 C73 1.211 . S
C75 O67 1.284 . S
C75 O76 1.273 . S
O76 C75 1.273 . S
O77 Zn68 1.977 . S
O77 C70 1.267 . S
C78 O79 1.160 . S
C78 O85 1.185 . S
O79 C78 1.160 . S
O80 Zn81 1.899 . S
O80 C88 1.284 . S
Zn81 O80 1.899 . S
Zn81 O82 2.032 . S
Zn81 O85 2.086 . S
Zn81 O90 1.977 . S
O82 Zn81 2.032 . S
O82 C86 1.278 . S
C83 O84 1.203 . S
C83 O90 1.267 . S
O84 C83 1.203 . S
O85 C78 1.185 . S
O85 Zn81 2.086 . S
C86 O82 1.278 . S
C86 O87 1.211 . S
O87 C86 1.211 . S
C88 O80 1.284 . S
C88 O89 1.273 . S
O89 C88 1.273 . S
O90 Zn81 1.977 . S
O90 C83 1.267 . S
C91 O92 1.160 . S
C91 O98 1.185 . S
O92 C91 1.160 . S
O93 Zn94 1.899 . S
O93 C101 1.284 . S
Zn94 O93 1.899 . S
Zn94 O95 2.032 . S
Zn94 O98 2.086 . S
Zn94 O103 1.977 . S
O95 Zn94 2.032 . S
O95 C99 1.278 . S
C96 O97 1.203 . S
C96 O103 1.267 . S
O97 C96 1.203 . S
O98 C91 1.185 . S
O98 Zn94 2.086 . S
C99 O95 1.278 . S
C99 O100 1.211 . S
O100 C99 1.211 . S
C101 O93 1.284 . S
C101 O102 1.273 . S
O102 C101 1.273 . S
O103 Zn94 1.977 . S
O103 C96 1.267 . S
C104 O105 1.160 . S
C104 O111 1.185 . S
O105 C104 1.160 . S
O106 Zn107 1.899 . S
O106 C114 1.284 . S
Zn107 O106 1.899 . S
Zn107 O108 2.032 . S
Zn107 O111 2.086 . S
Zn107 O116 1.977 . S
O108 Zn107 2.032 . S
O108 C112 1.278 . S
C109 O110 1.203 . S
C109 O116 1.267 . S
O110 C109 1.203 . S
O111 C104 1.185 . S
O111 Zn107 2.086 . S
C112 O108 1.278 . S
C112 O113 1.211 . S
O113 C112 1.211 . S
C114 O106 1.284 . S
C114 O115 1.273 . S
O115 C114 1.273 . S
O116 Zn107 1.977 . S
O116 C109 1.267 . S
C117 O118 1.160 . S
C117 O124 1.185 . S
O118 C117 1.160 . S
O119 Zn120 1.899 . S
O119 C127 1.284 . S
Zn120 O119 1.899 . S
Zn120 O121 2.032 . S
Zn120 O124 2.086 . S
Zn120 O129 1.977 . S
O121 Zn120 2.032 . S
O121 C125 1.278 . S
C122 O123 1.203 . S
C122 O129 1.267 . S
O123 C122 1.203 . S
O124 C117 1.185 . S
O124 Zn120 2.086 . S
C125 O121 1.278 . S
C125 O126 1.211 . S
O126 C125 1.211 . S
C127 O119 1.284 . S
C127 O128 1.273 . S
O128 C127 1.273 . S
O129 Zn120 1.977 . S
O129 C122 1.267 . S
C130 O131 1.160 . S
C130 O137 1.185 . S
O131 C130 1.160 . S
O132 Zn133 1.899 . S
O132 C140 1.284 . S
Zn133 O132 1.899 . S
Zn133 O134 2.032 1_554 S
Zn133 O137 2.086 . S
Zn133 O142 1.977 . S
O134 Zn133 2.032 1_556 S
O134 C138 1.278 . S
C135 O136 1.204 1_554 S
C135 O142 1.266 . S
O136 C135 1.204 1_556 S
O137 C130 1.185 . S
O137 Zn133 2.086 . S
C138 O134 1.278 . S
C138 O139 1.211 . S
O139 C138 1.211 . S
C140 O132 1.284 . S
C140 O141 1.273 1_554 S
O141 C140 1.273 1_556 S
O142 Zn133 1.977 . S
O142 C135 1.266 . S
C143 O144 1.160 . S
C143 O150 1.185 . S
O144 C143 1.160 . S
O145 Zn146 1.899 . S
O145 C153 1.284 . S
Zn146 O145 1.899 . S
Zn146 O147 2.032 . S
Zn146 O150 2.086 . S
Zn146 O155 1.977 . S
O147 Zn146 2.032 . S
O147 C151 1.278 . S
C148 O149 1.203 . S
C148 O155 1.267 . S
O149 C148 1.203 . S
O150 C143 1.185 . S
O150 Zn146 2.086 . S
C151 O147 1.278 . S
C151 O152 1.211 . S
O152 C151 1.211 . S
C153 O145 1.284 . S
C153 O154 1.273 . S
O154 C153 1.273 . S
O155 Zn146 1.977 . S
O155 C148 1.267 . S
C156 O157 1.160 . S
C156 O163 1.185 . S
O157 C156 1.160 . S
O158 Zn159 1.899 . S
O158 C166 1.284 . S
Zn159 O158 1.899 . S
Zn159 O160 2.032 . S
Zn159 O163 2.086 . S
Zn159 O168 1.977 . S
O160 Zn159 2.032 . S
O160 C164 1.278 . S
C161 O162 1.203 . S
C161 O168 1.267 . S
O162 C161 1.203 . S
O163 C156 1.185 . S
O163 Zn159 2.086 . S
C164 O160 1.278 . S
C164 O165 1.211 . S
O165 C164 1.211 . S
C166 O158 1.284 . S
C166 O167 1.273 . S
O167 C166 1.273 . S
O168 Zn159 1.977 . S
O168 C161 1.267 . S
C169 O170 1.160 . S
C169 O176 1.185 . S
O170 C169 1.160 . S
O171 Zn172 1.899 . S
O171 C179 1.283 . S
Zn172 O171 1.899 . S
Zn172 O173 2.032 . S
Zn172 O176 2.086 . S
Zn172 O181 1.977 . S
O173 Zn172 2.032 . S
O173 C177 1.278 . S
C174 O175 1.203 . S
C174 O181 1.267 . S
O175 C174 1.203 . S
O176 C169 1.185 . S
O176 Zn172 2.086 . S
C177 O173 1.278 . S
C177 O178 1.211 . S
O178 C177 1.211 . S
C179 O171 1.283 . S
C179 O180 1.273 . S
O180 C179 1.273 . S
O181 Zn172 1.977 . S
O181 C174 1.267 . S
C182 O183 1.160 . S
C182 O189 1.185 . S
O183 C182 1.160 . S
O184 Zn185 1.899 . S
O184 C192 1.284 . S
Zn185 O184 1.899 . S
Zn185 O186 2.032 . S
Zn185 O189 2.086 . S
Zn185 O194 1.977 . S
O186 Zn185 2.032 . S
O186 C190 1.278 . S
C187 O188 1.203 . S
C187 O194 1.267 . S
O188 C187 1.203 . S
O189 C182 1.185 . S
O189 Zn185 2.086 . S
C190 O186 1.278 . S
C190 O191 1.211 . S
O191 C190 1.211 . S
C192 O184 1.284 . S
C192 O193 1.273 . S
O193 C192 1.273 . S
O194 Zn185 1.977 . S
O194 C187 1.267 . S
C195 O196 1.160 . S
C195 O202 1.185 . S
O196 C195 1.160 . S
O197 Zn198 1.899 . S
O197 C205 1.282 . S
Zn198 O197 1.899 . S
Zn198 O199 2.032 . S
Zn198 O202 2.086 . S
Zn198 O207 1.977 . S
O199 Zn198 2.032 . S
O199 C203 1.278 . S
C200 O201 1.203 . S
C200 O207 1.267 . S
O201 C200 1.203 . S
O202 C195 1.185 . S
O202 Zn198 2.086 . S
C203 O199 1.278 . S
C203 O204 1.211 . S
O204 C203 1.211 . S
C205 O197 1.282 . S
C205 O206 1.272 . S
O206 C205 1.272 . S
O207 Zn198 1.977 . S
O207 C200 1.267 . S
H208 C216 0.929 . S
H209 C218 0.930 . S
H210 C220 0.930 . S
H211 C223 0.929 . S
H212 C226 0.930 . S
H213 C228 0.960 . S
H214 C228 0.960 . S
H215 C228 0.960 . S
C216 H208 0.929 . S
C216 C217 1.377 . S
C216 C218 1.384 . S
C217 C216 1.377 . S
C217 C223 1.390 . S
C218 H209 0.930 . S
C218 C216 1.384 . S
C218 C219 1.372 . S
C219 C218 1.372 . S
C219 C220 1.400 . S
C219 C224 1.490 . S
C220 H210 0.930 . S
C220 C219 1.400 . S
C220 C223 1.386 . S
H221 C237 0.930 . S
H222 C238 0.931 . S
C223 H211 0.929 . S
C223 C217 1.390 . S
C223 C220 1.386 . S
C224 C219 1.490 . S
C224 C226 1.395 . S
C224 C227 1.403 . S
H225 C231 0.930 . S
C226 H212 0.930 . S
C226 C224 1.395 . S
C226 C229 1.403 . S
C227 C224 1.403 . S
C227 C228 1.524 . S
C227 C231 1.400 . S
C228 H213 0.960 . S
C228 H214 0.960 . S
C228 H215 0.960 . S
C228 C227 1.524 . S
C229 C226 1.403 . S
C229 C230 1.392 . S
C229 C233 1.495 . S
C230 C229 1.392 . S
C230 C231 1.385 . S
C230 C232 1.478 . S
C231 H225 0.930 . S
C231 C227 1.400 . S
C231 C230 1.385 . S
C232 C230 1.478 . S
C232 C234 1.381 . S
C232 C238 1.383 . S
C233 C229 1.495 . S
C233 H239 0.959 . S
C233 H240 0.961 . S
C233 H241 0.960 . S
C234 C232 1.381 . S
C234 C235 1.394 . S
C234 H242 0.930 . S
C235 C234 1.394 . S
C235 C236 1.383 . S
C235 H243 0.929 . S
C236 C235 1.383 . S
C236 C237 1.377 . S
C237 H221 0.930 . S
C237 C236 1.377 . S
C237 C238 1.379 . S
C238 H222 0.931 . S
C238 C232 1.383 . S
C238 C237 1.379 . S
H239 C233 0.959 . S
H240 C233 0.961 . S
H241 C233 0.960 . S
H242 C234 0.930 . S
H243 C235 0.929 . S
H244 C252 0.929 . S
H245 C254 0.930 . S
H246 C256 0.930 . S
H247 C259 0.929 . S
H248 C262 0.930 . S
H249 C264 0.960 . S
H250 C264 0.960 . S
H251 C264 0.960 . S
C252 H244 0.929 . S
C252 C253 1.377 . S
C252 C254 1.384 . S
C253 C252 1.377 . S
C253 C259 1.390 . S
C254 H245 0.930 . S
C254 C252 1.384 . S
C254 C255 1.372 . S
C255 C254 1.372 . S
C255 C256 1.400 . S
C255 C260 1.490 . S
C256 H246 0.930 . S
C256 C255 1.400 . S
C256 C259 1.386 . S
H257 C273 0.930 . S
H258 C274 0.931 . S
C259 H247 0.929 . S
C259 C253 1.390 . S
C259 C256 1.386 . S
C260 C255 1.490 . S
C260 C262 1.395 . S
C260 C263 1.403 . S
H261 C267 0.930 . S
C262 H248 0.930 . S
C262 C260 1.395 . S
C262 C265 1.403 . S
C263 C260 1.403 . S
C263 C264 1.524 . S
C263 C267 1.400 . S
C264 H249 0.960 . S
C264 H250 0.960 . S
C264 H251 0.960 . S
C264 C263 1.524 . S
C265 C262 1.403 . S
C265 C266 1.392 . S
C265 C269 1.495 . S
C266 C265 1.392 . S
C266 C267 1.385 . S
C266 C268 1.478 . S
C267 H261 0.930 . S
C267 C263 1.400 . S
C267 C266 1.385 . S
C268 C266 1.478 . S
C268 C270 1.381 . S
C268 C274 1.383 . S
C269 C265 1.495 . S
C269 H275 0.959 . S
C269 H276 0.961 . S
C269 H277 0.960 . S
C270 C268 1.381 . S
C270 C271 1.394 . S
C270 H278 0.930 . S
C271 C270 1.394 . S
C271 C272 1.383 . S
C271 H279 0.929 . S
C272 C271 1.383 . S
C272 C273 1.377 . S
C273 H257 0.930 . S
C273 C272 1.377 . S
C273 C274 1.379 . S
C274 H258 0.931 . S
C274 C268 1.383 . S
C274 C273 1.379 . S
H275 C269 0.959 . S
H276 C269 0.961 . S
H277 C269 0.960 . S
H278 C270 0.930 . S
H279 C271 0.929 . S
H280 C288 0.929 . S
H281 C290 0.930 . S
H282 C292 0.930 . S
H283 C295 0.929 . S
H284 C298 0.930 . S
H285 C300 0.960 . S
H286 C300 0.960 . S
H287 C300 0.960 . S
C288 H280 0.929 . S
C288 C289 1.377 . S
C288 C290 1.384 . S
C289 C288 1.377 . S
C289 C295 1.390 . S
C290 H281 0.930 . S
C290 C288 1.384 . S
C290 C291 1.372 . S
C291 C290 1.372 . S
C291 C292 1.400 . S
C291 C296 1.490 . S
C292 H282 0.930 . S
C292 C291 1.400 . S
C292 C295 1.386 . S
H293 C309 0.930 . S
H294 C310 0.931 . S
C295 H283 0.929 . S
C295 C289 1.390 . S
C295 C292 1.386 . S
C296 C291 1.490 . S
C296 C298 1.395 . S
C296 C299 1.403 . S
H297 C303 0.930 . S
C298 H284 0.930 . S
C298 C296 1.395 . S
C298 C301 1.403 . S
C299 C296 1.403 . S
C299 C300 1.524 . S
C299 C303 1.400 . S
C300 H285 0.960 . S
C300 H286 0.960 . S
C300 H287 0.960 . S
C300 C299 1.524 . S
C301 C298 1.403 . S
C301 C302 1.392 . S
C301 C305 1.495 . S
C302 C301 1.392 . S
C302 C303 1.385 . S
C302 C304 1.478 . S
C303 H297 0.930 . S
C303 C299 1.400 . S
C303 C302 1.385 . S
C304 C302 1.478 . S
C304 C306 1.381 . S
C304 C310 1.383 . S
C305 C301 1.495 . S
C305 H311 0.959 . S
C305 H312 0.961 . S
C305 H313 0.960 . S
C306 C304 1.381 . S
C306 C307 1.394 . S
C306 H314 0.930 . S
C307 C306 1.394 . S
C307 C308 1.383 . S
C307 H315 0.929 . S
C308 C307 1.383 . S
C308 C309 1.377 . S
C309 H293 0.930 . S
C309 C308 1.377 . S
C309 C310 1.379 . S
C310 H294 0.931 . S
C310 C304 1.383 . S
C310 C309 1.379 . S
H311 C305 0.959 . S
H312 C305 0.961 . S
H313 C305 0.960 . S
H314 C306 0.930 . S
H315 C307 0.929 . S
H316 C324 0.929 . S
H317 C326 0.930 . S
H318 C328 0.930 . S
H319 C331 0.929 . S
H320 C334 0.930 . S
H321 C336 0.960 . S
H322 C336 0.960 . S
H323 C336 0.960 . S
C324 H316 0.929 . S
C324 C325 1.377 1_556 S
C324 C326 1.384 . S
C325 C324 1.377 1_554 S
C325 C331 1.390 . S
C326 H317 0.930 . S
C326 C324 1.384 . S
C326 C327 1.372 . S
C327 C326 1.372 . S
C327 C328 1.400 1_556 S
C327 C332 1.490 . S
C328 H318 0.930 . S
C328 C327 1.400 1_554 S
C328 C331 1.386 . S
H329 C345 0.930 . S
H330 C346 0.931 . S
C331 H319 0.929 . S
C331 C325 1.390 . S
C331 C328 1.386 . S
C332 C327 1.490 . S
C332 C334 1.395 . S
C332 C335 1.403 . S
H333 C339 0.930 . S
C334 H320 0.930 . S
C334 C332 1.395 . S
C334 C337 1.403 . S
C335 C332 1.403 . S
C335 C336 1.524 . S
C335 C339 1.400 . S
C336 H321 0.960 . S
C336 H322 0.960 . S
C336 H323 0.960 . S
C336 C335 1.524 . S
C337 C334 1.403 . S
C337 C338 1.392 . S
C337 C341 1.495 . S
C338 C337 1.392 . S
C338 C339 1.385 . S
C338 C340 1.478 . S
C339 H333 0.930 . S
C339 C335 1.400 . S
C339 C338 1.385 . S
C340 C338 1.478 . S
C340 C342 1.381 . S
C340 C346 1.383 . S
C341 C337 1.495 . S
C341 H347 0.959 . S
C341 H348 0.961 . S
C341 H349 0.960 . S
C342 C340 1.381 . S
C342 C343 1.394 . S
C342 H350 0.930 . S
C343 C342 1.394 . S
C343 C344 1.383 . S
C343 H351 0.929 . S
C344 C343 1.383 . S
C344 C345 1.377 . S
C345 H329 0.930 . S
C345 C344 1.377 . S
C345 C346 1.379 . S
C346 H330 0.931 . S
C346 C340 1.383 . S
C346 C345 1.379 . S
H347 C341 0.959 . S
H348 C341 0.961 . S
H349 C341 0.960 . S
H350 C342 0.930 . S
H351 C343 0.929 . S
H352 C360 0.929 . S
H353 C362 0.930 . S
H354 C364 0.930 . S
H355 C367 0.929 . S
H356 C370 0.930 . S
H357 C372 0.960 . S
H358 C372 0.960 . S
H359 C372 0.960 . S
C360 H352 0.929 . S
C360 C361 1.377 . S
C360 C362 1.384 . S
C361 C360 1.377 . S
C361 C367 1.390 . S
C362 H353 0.930 . S
C362 C360 1.384 . S
C362 C363 1.372 . S
C363 C362 1.372 . S
C363 C364 1.400 . S
C363 C368 1.490 . S
C364 H354 0.930 . S
C364 C363 1.400 . S
C364 C367 1.386 . S
H365 C381 0.930 . S
H366 C382 0.931 . S
C367 H355 0.929 . S
C367 C361 1.390 . S
C367 C364 1.386 . S
C368 C363 1.490 . S
C368 C370 1.395 . S
C368 C371 1.403 . S
H369 C375 0.930 . S
C370 H356 0.930 . S
C370 C368 1.395 . S
C370 C373 1.403 . S
C371 C368 1.403 . S
C371 C372 1.524 . S
C371 C375 1.400 . S
C372 H357 0.960 . S
C372 H358 0.960 . S
C372 H359 0.960 . S
C372 C371 1.524 . S
C373 C370 1.403 . S
C373 C374 1.392 . S
C373 C377 1.495 . S
C374 C373 1.392 . S
C374 C375 1.385 . S
C374 C376 1.478 . S
C375 H369 0.930 . S
C375 C371 1.400 . S
C375 C374 1.385 . S
C376 C374 1.478 . S
C376 C378 1.381 1_556 S
C376 C382 1.383 . S
C377 C373 1.495 . S
C377 H383 0.959 . S
C377 H384 0.961 . S
C377 H385 0.960 . S
C378 C376 1.381 1_554 S
C378 C379 1.394 . S
C378 H386 0.930 . S
C379 C378 1.394 . S
C379 C380 1.383 . S
C379 H387 0.929 . S
C380 C379 1.383 . S
C380 C381 1.377 1_554 S
C381 H365 0.930 . S
C381 C380 1.377 1_556 S
C381 C382 1.379 . S
C382 H366 0.931 . S
C382 C376 1.383 . S
C382 C381 1.379 . S
H383 C377 0.959 . S
H384 C377 0.961 . S
H385 C377 0.960 . S
H386 C378 0.930 . S
H387 C379 0.929 . S
H388 C396 0.929 . S
H389 C398 0.930 . S
H390 C400 0.930 . S
H391 C403 0.929 . S
H392 C406 0.930 . S
H393 C408 0.960 . S
H394 C408 0.960 . S
H395 C408 0.960 . S
C396 H388 0.929 . S
C396 C397 1.377 . S
C396 C398 1.384 . S
C397 C396 1.377 . S
C397 C403 1.390 . S
C398 H389 0.930 . S
C398 C396 1.384 . S
C398 C399 1.372 . S
C399 C398 1.372 . S
C399 C400 1.400 . S
C399 C404 1.490 . S
C400 H390 0.930 . S
C400 C399 1.400 . S
C400 C403 1.386 . S
H401 C417 0.930 . S
H402 C418 0.931 . S
C403 H391 0.929 . S
C403 C397 1.390 . S
C403 C400 1.386 . S
C404 C399 1.490 . S
C404 C406 1.395 . S
C404 C407 1.403 . S
H405 C411 0.930 . S
C406 H392 0.930 . S
C406 C404 1.395 . S
C406 C409 1.403 . S
C407 C404 1.403 . S
C407 C408 1.524 . S
C407 C411 1.400 . S
C408 H393 0.960 . S
C408 H394 0.960 . S
C408 H395 0.960 . S
C408 C407 1.524 . S
C409 C406 1.403 . S
C409 C410 1.392 . S
C409 C413 1.495 . S
C410 C409 1.392 . S
C410 C411 1.385 . S
C410 C412 1.478 . S
C411 H405 0.930 . S
C411 C407 1.400 . S
C411 C410 1.385 . S
C412 C410 1.478 . S
C412 C414 1.381 . S
C412 C418 1.383 . S
C413 C409 1.495 . S
C413 H419 0.959 . S
C413 H420 0.961 . S
C413 H421 0.960 . S
C414 C412 1.381 . S
C414 C415 1.394 . S
C414 H422 0.930 . S
C415 C414 1.394 . S
C415 C416 1.383 . S
C415 H423 0.929 . S
C416 C415 1.383 . S
C416 C417 1.377 . S
C417 H401 0.930 . S
C417 C416 1.377 . S
C417 C418 1.379 . S
C418 H402 0.931 . S
C418 C412 1.383 . S
C418 C417 1.379 . S
H419 C413 0.959 . S
H420 C413 0.961 . S
H421 C413 0.960 . S
H422 C414 0.930 . S
H423 C415 0.929 . S
H424 C432 0.929 . S
H425 C434 0.930 . S
H426 C436 0.930 . S
H427 C439 0.929 . S
H428 C442 0.930 . S
H429 C444 0.960 . S
H430 C444 0.960 . S
H431 C444 0.960 . S
C432 H424 0.929 . S
C432 C433 1.377 . S
C432 C434 1.384 . S
C433 C432 1.377 . S
C433 C439 1.390 . S
C434 H425 0.930 . S
C434 C432 1.384 . S
C434 C435 1.372 . S
C435 C434 1.372 . S
C435 C436 1.400 . S
C435 C440 1.490 . S
C436 H426 0.930 . S
C436 C435 1.400 . S
C436 C439 1.386 . S
H437 C453 0.930 . S
H438 C454 0.931 . S
C439 H427 0.929 . S
C439 C433 1.390 . S
C439 C436 1.386 . S
C440 C435 1.490 . S
C440 C442 1.395 . S
C440 C443 1.403 . S
H441 C447 0.930 . S
C442 H428 0.930 . S
C442 C440 1.395 . S
C442 C445 1.403 . S
C443 C440 1.403 . S
C443 C444 1.524 . S
C443 C447 1.400 . S
C444 H429 0.960 . S
C444 H430 0.960 . S
C444 H431 0.960 . S
C444 C443 1.524 . S
C445 C442 1.403 . S
C445 C446 1.392 . S
C445 C449 1.495 . S
C446 C445 1.392 . S
C446 C447 1.385 . S
C446 C448 1.478 . S
C447 H441 0.930 . S
C447 C443 1.400 . S
C447 C446 1.385 . S
C448 C446 1.478 . S
C448 C450 1.381 . S
C448 C454 1.383 . S
C449 C445 1.495 . S
C449 H455 0.959 . S
C449 H456 0.961 . S
C449 H457 0.960 . S
C450 C448 1.381 . S
C450 C451 1.394 . S
C450 H458 0.930 . S
C451 C450 1.394 . S
C451 C452 1.383 . S
C451 H459 0.929 . S
C452 C451 1.383 . S
C452 C453 1.377 . S
C453 H437 0.930 . S
C453 C452 1.377 . S
C453 C454 1.379 . S
C454 H438 0.931 . S
C454 C448 1.383 . S
C454 C453 1.379 . S
H455 C449 0.959 . S
H456 C449 0.961 . S
H457 C449 0.960 . S
H458 C450 0.930 . S
H459 C451 0.929 . S
H460 C468 0.929 . S
H461 C470 0.930 . S
H462 C472 0.930 . S
H463 C475 0.929 . S
H464 C478 0.930 . S
H465 C480 0.960 . S
H466 C480 0.960 . S
H467 C480 0.960 . S
C468 H460 0.929 . S
C468 C469 1.377 . S
C468 C470 1.384 . S
C469 C468 1.377 . S
C469 C475 1.390 . S
C470 H461 0.930 . S
C470 C468 1.384 . S
C470 C471 1.372 . S
C471 C470 1.372 . S
C471 C472 1.400 . S
C471 C476 1.490 . S
C472 H462 0.930 . S
C472 C471 1.400 . S
C472 C475 1.386 . S
H473 C489 0.930 . S
H474 C490 0.931 . S
C475 H463 0.929 . S
C475 C469 1.390 . S
C475 C472 1.386 . S
C476 C471 1.490 . S
C476 C478 1.395 . S
C476 C479 1.403 . S
H477 C483 0.930 . S
C478 H464 0.930 . S
C478 C476 1.395 . S
C478 C481 1.403 . S
C479 C476 1.403 . S
C479 C480 1.524 . S
C479 C483 1.400 . S
C480 H465 0.960 . S
C480 H466 0.960 . S
C480 H467 0.960 . S
C480 C479 1.524 . S
C481 C478 1.403 . S
C481 C482 1.392 . S
C481 C485 1.495 . S
C482 C481 1.392 . S
C482 C483 1.385 . S
C482 C484 1.478 . S
C483 H477 0.930 . S
C483 C479 1.400 . S
C483 C482 1.385 . S
C484 C482 1.478 . S
C484 C486 1.381 . S
C484 C490 1.383 . S
C485 C481 1.495 . S
C485 H491 0.959 . S
C485 H492 0.961 . S
C485 H493 0.960 . S
C486 C484 1.381 . S
C486 C487 1.394 . S
C486 H494 0.930 . S
C487 C486 1.394 . S
C487 C488 1.383 . S
C487 H495 0.929 . S
C488 C487 1.383 . S
C488 C489 1.377 . S
C489 H473 0.930 . S
C489 C488 1.377 . S
C489 C490 1.379 . S
C490 H474 0.931 . S
C490 C484 1.383 . S
C490 C489 1.379 . S
H491 C485 0.959 . S
H492 C485 0.961 . S
H493 C485 0.960 . S
H494 C486 0.930 . S
H495 C487 0.929 . S
H496 C504 0.929 . S
H497 C506 0.930 . S
H498 C508 0.930 . S
H499 C511 0.929 . S
H500 C514 0.930 . S
H501 C516 0.960 . S
H502 C516 0.960 . S
H503 C516 0.960 . S
C504 H496 0.929 . S
C504 C505 1.377 . S
C504 C506 1.384 . S
C505 C504 1.377 . S
C505 C511 1.390 . S
C506 H497 0.930 . S
C506 C504 1.384 . S
C506 C507 1.372 . S
C507 C506 1.372 . S
C507 C508 1.400 . S
C507 C512 1.490 . S
C508 H498 0.930 . S
C508 C507 1.400 . S
C508 C511 1.386 . S
H509 C525 0.930 . S
H510 C526 0.931 . S
C511 H499 0.929 . S
C511 C505 1.390 . S
C511 C508 1.386 . S
C512 C507 1.490 . S
C512 C514 1.395 . S
C512 C515 1.403 . S
H513 C519 0.930 . S
C514 H500 0.930 . S
C514 C512 1.395 . S
C514 C517 1.403 . S
C515 C512 1.403 . S
C515 C516 1.524 . S
C515 C519 1.400 . S
C516 H501 0.960 . S
C516 H502 0.960 . S
C516 H503 0.960 . S
C516 C515 1.524 . S
C517 C514 1.403 . S
C517 C518 1.392 . S
C517 C521 1.495 . S
C518 C517 1.392 . S
C518 C519 1.385 . S
C518 C520 1.478 . S
C519 H513 0.930 . S
C519 C515 1.400 . S
C519 C518 1.385 . S
C520 C518 1.478 . S
C520 C522 1.381 . S
C520 C526 1.383 1_556 S
C521 C517 1.495 . S
C521 H527 0.959 . S
C521 H528 0.961 . S
C521 H529 0.960 . S
C522 C520 1.381 . S
C522 C523 1.394 . S
C522 H530 0.930 . S
C523 C522 1.394 . S
C523 C524 1.383 . S
C523 H531 0.929 . S
C524 C523 1.383 . S
C524 C525 1.377 1_556 S
C525 H509 0.930 . S
C525 C524 1.377 1_554 S
C525 C526 1.379 . S
C526 H510 0.931 . S
C526 C520 1.383 1_554 S
C526 C525 1.379 . S
H527 C521 0.959 . S
H528 C521 0.961 . S
H529 C521 0.960 . S
H530 C522 0.930 . S
H531 C523 0.929 . S
H532 C540 0.929 . S
H533 C542 0.930 . S
H534 C544 0.930 . S
H535 C547 0.929 . S
H536 C550 0.930 . S
H537 C552 0.960 . S
H538 C552 0.960 . S
H539 C552 0.960 . S
C540 H532 0.929 . S
C540 C541 1.377 . S
C540 C542 1.384 . S
C541 C540 1.377 . S
C541 C547 1.390 . S
C542 H533 0.930 . S
C542 C540 1.384 . S
C542 C543 1.372 . S
C543 C542 1.372 . S
C543 C544 1.400 . S
C543 C548 1.490 . S
C544 H534 0.930 . S
C544 C543 1.400 . S
C544 C547 1.386 . S
H545 C561 0.930 . S
H546 C562 0.931 . S
C547 H535 0.929 . S
C547 C541 1.390 . S
C547 C544 1.386 . S
C548 C543 1.490 . S
C548 C550 1.395 . S
C548 C551 1.403 . S
H549 C555 0.930 . S
C550 H536 0.930 . S
C550 C548 1.395 . S
C550 C553 1.403 . S
C551 C548 1.403 . S
C551 C552 1.524 . S
C551 C555 1.400 . S
C552 H537 0.960 . S
C552 H538 0.960 . S
C552 H539 0.960 . S
C552 C551 1.524 . S
C553 C550 1.403 . S
C553 C554 1.392 . S
C553 C557 1.495 . S
C554 C553 1.392 . S
C554 C555 1.385 . S
C554 C556 1.478 . S
C555 H549 0.930 . S
C555 C551 1.400 . S
C555 C554 1.385 . S
C556 C554 1.478 . S
C556 C558 1.381 . S
C556 C562 1.383 . S
C557 C553 1.495 . S
C557 H563 0.959 . S
C557 H564 0.961 . S
C557 H565 0.960 . S
C558 C556 1.381 . S
C558 C559 1.394 . S
C558 H566 0.930 . S
C559 C558 1.394 . S
C559 C560 1.383 . S
C559 H567 0.929 . S
C560 C559 1.383 . S
C560 C561 1.377 . S
C561 H545 0.930 . S
C561 C560 1.377 . S
C561 C562 1.379 . S
C562 H546 0.931 . S
C562 C556 1.383 . S
C562 C561 1.379 . S
H563 C557 0.959 . S
H564 C557 0.961 . S
H565 C557 0.960 . S
H566 C558 0.930 . S
H567 C559 0.929 . S
H568 C576 0.929 . S
H569 C578 0.930 . S
H570 C580 0.930 . S
H571 C583 0.929 . S
H572 C586 0.930 . S
H573 C588 0.960 . S
H574 C588 0.960 . S
H575 C588 0.960 . S
C576 H568 0.929 . S
C576 C577 1.377 . S
C576 C578 1.384 . S
C577 C576 1.377 . S
C577 C583 1.390 . S
C578 H569 0.930 . S
C578 C576 1.384 . S
C578 C579 1.372 . S
C579 C578 1.372 . S
C579 C580 1.400 . S
C579 C584 1.490 . S
C580 H570 0.930 . S
C580 C579 1.400 . S
C580 C583 1.386 . S
H581 C597 0.930 . S
H582 C598 0.931 . S
C583 H571 0.929 . S
C583 C577 1.390 . S
C583 C580 1.386 . S
C584 C579 1.490 . S
C584 C586 1.395 . S
C584 C587 1.403 . S
H585 C591 0.930 . S
C586 H572 0.930 . S
C586 C584 1.395 . S
C586 C589 1.403 . S
C587 C584 1.403 . S
C587 C588 1.524 . S
C587 C591 1.400 . S
C588 H573 0.960 . S
C588 H574 0.960 . S
C588 H575 0.960 . S
C588 C587 1.524 . S
C589 C586 1.403 . S
C589 C590 1.392 . S
C589 C593 1.495 . S
C590 C589 1.392 . S
C590 C591 1.385 . S
C590 C592 1.478 . S
C591 H585 0.930 . S
C591 C587 1.400 . S
C591 C590 1.385 . S
C592 C590 1.478 . S
C592 C594 1.381 . S
C592 C598 1.383 . S
C593 C589 1.495 . S
C593 H599 0.959 . S
C593 H600 0.961 . S
C593 H601 0.960 . S
C594 C592 1.381 . S
C594 C595 1.394 . S
C594 H602 0.930 . S
C595 C594 1.394 . S
C595 C596 1.383 . S
C595 H603 0.929 . S
C596 C595 1.383 . S
C596 C597 1.377 . S
C597 H581 0.930 . S
C597 C596 1.377 . S
C597 C598 1.379 . S
C598 H582 0.931 . S
C598 C592 1.383 . S
C598 C597 1.379 . S
H599 C593 0.959 . S
H600 C593 0.961 . S
H601 C593 0.960 . S
H602 C594 0.930 . S
H603 C595 0.929 . S
H604 C612 0.929 . S
H605 C614 0.930 . S
H606 C616 0.930 . S
H607 C619 0.929 . S
H608 C622 0.930 . S
H609 C624 0.960 . S
H610 C624 0.960 . S
H611 C624 0.960 . S
C612 H604 0.929 . S
C612 C613 1.377 . S
C612 C614 1.384 . S
C613 C612 1.377 . S
C613 C619 1.390 . S
C614 H605 0.930 . S
C614 C612 1.384 . S
C614 C615 1.372 . S
C615 C614 1.372 . S
C615 C616 1.400 . S
C615 C620 1.490 . S
C616 H606 0.930 . S
C616 C615 1.400 . S
C616 C619 1.386 . S
H617 C633 0.930 . S
H618 C634 0.931 . S
C619 H607 0.929 . S
C619 C613 1.390 . S
C619 C616 1.386 . S
C620 C615 1.490 . S
C620 C622 1.395 . S
C620 C623 1.403 . S
H621 C627 0.930 . S
C622 H608 0.930 . S
C622 C620 1.395 . S
C622 C625 1.403 . S
C623 C620 1.403 . S
C623 C624 1.524 . S
C623 C627 1.400 . S
C624 H609 0.960 . S
C624 H610 0.960 . S
C624 H611 0.960 . S
C624 C623 1.524 . S
C625 C622 1.403 . S
C625 C626 1.392 . S
C625 C629 1.495 . S
C626 C625 1.392 . S
C626 C627 1.385 . S
C626 C628 1.478 . S
C627 H621 0.930 . S
C627 C623 1.400 . S
C627 C626 1.385 . S
C628 C626 1.478 . S
C628 C630 1.381 . S
C628 C634 1.383 . S
C629 C625 1.495 . S
C629 H635 0.959 . S
C629 H636 0.961 . S
C629 H637 0.960 . S
C630 C628 1.381 . S
C630 C631 1.394 . S
C630 H638 0.930 . S
C631 C630 1.394 . S
C631 C632 1.383 . S
C631 H639 0.929 . S
C632 C631 1.383 . S
C632 C633 1.377 . S
C633 H617 0.930 . S
C633 C632 1.377 . S
C633 C634 1.379 . S
C634 H618 0.931 . S
C634 C628 1.383 . S
C634 C633 1.379 . S
H635 C629 0.959 . S
H636 C629 0.961 . S
H637 C629 0.960 . S
H638 C630 0.930 . S
H639 C631 0.929 . S
H640 C648 0.929 . S
H641 C650 0.930 . S
H642 C652 0.930 . S
H643 C655 0.929 . S
H644 C658 0.930 . S
H645 C660 0.960 . S
H646 C660 0.960 . S
H647 C660 0.960 . S
C648 H640 0.929 . S
C648 C649 1.377 . S
C648 C650 1.384 . S
C649 C648 1.377 . S
C649 C655 1.390 . S
C650 H641 0.930 . S
C650 C648 1.384 . S
C650 C651 1.372 . S
C651 C650 1.372 . S
C651 C652 1.400 . S
C651 C656 1.490 . S
C652 H642 0.930 . S
C652 C651 1.400 . S
C652 C655 1.386 . S
H653 C669 0.930 . S
H654 C670 0.931 . S
C655 H643 0.929 . S
C655 C649 1.390 . S
C655 C652 1.386 . S
C656 C651 1.490 . S
C656 C658 1.395 . S
C656 C659 1.403 . S
H657 C663 0.930 . S
C658 H644 0.930 . S
C658 C656 1.395 . S
C658 C661 1.403 . S
C659 C656 1.403 . S
C659 C660 1.524 . S
C659 C663 1.400 . S
C660 H645 0.960 . S
C660 H646 0.960 . S
C660 H647 0.960 . S
C660 C659 1.524 . S
C661 C658 1.403 . S
C661 C662 1.392 . S
C661 C665 1.495 . S
C662 C661 1.392 . S
C662 C663 1.385 . S
C662 C664 1.478 . S
C663 H657 0.930 . S
C663 C659 1.400 . S
C663 C662 1.385 . S
C664 C662 1.478 . S
C664 C666 1.381 . S
C664 C670 1.383 . S
C665 C661 1.495 . S
C665 H671 0.959 . S
C665 H672 0.961 . S
C665 H673 0.960 . S
C666 C664 1.381 . S
C666 C667 1.394 . S
C666 H674 0.930 . S
C667 C666 1.394 . S
C667 C668 1.383 . S
C667 H675 0.929 . S
C668 C667 1.383 . S
C668 C669 1.377 . S
C669 H653 0.930 . S
C669 C668 1.377 . S
C669 C670 1.379 . S
C670 H654 0.931 . S
C670 C664 1.383 . S
C670 C669 1.379 . S
H671 C665 0.959 . S
H672 C665 0.961 . S
H673 C665 0.960 . S
H674 C666 0.930 . S
H675 C667 0.929 . S
H676 C684 0.929 . S
H677 C686 0.930 . S
H678 C688 0.930 . S
H679 C691 0.929 . S
H680 C694 0.930 . S
H681 C696 0.960 . S
H682 C696 0.960 . S
H683 C696 0.960 . S
C684 H676 0.929 . S
C684 C685 1.377 . S
C684 C686 1.384 . S
C685 C684 1.377 . S
C685 C691 1.390 . S
C686 H677 0.930 . S
C686 C684 1.384 . S
C686 C687 1.372 . S
C687 C686 1.372 . S
C687 C688 1.400 . S
C687 C692 1.490 . S
C688 H678 0.930 . S
C688 C687 1.400 . S
C688 C691 1.386 . S
H689 C705 0.930 . S
H690 C706 0.931 . S
C691 H679 0.929 . S
C691 C685 1.390 . S
C691 C688 1.386 . S
C692 C687 1.490 . S
C692 C694 1.395 . S
C692 C695 1.403 . S
H693 C699 0.930 . S
C694 H680 0.930 . S
C694 C692 1.395 . S
C694 C697 1.403 . S
C695 C692 1.403 . S
C695 C696 1.524 . S
C695 C699 1.400 . S
C696 H681 0.960 . S
C696 H682 0.960 . S
C696 H683 0.960 . S
C696 C695 1.524 . S
C697 C694 1.403 . S
C697 C698 1.392 . S
C697 C701 1.495 1_556 S
C698 C697 1.392 . S
C698 C699 1.385 . S
C698 C700 1.478 . S
C699 H693 0.930 . S
C699 C695 1.400 . S
C699 C698 1.385 . S
C700 C698 1.478 . S
C700 C702 1.381 1_556 S
C700 C706 1.383 . S
C701 C697 1.495 1_554 S
C701 H707 0.959 . S
C701 H708 0.961 1_554 S
C701 H709 0.960 . S
C702 C700 1.381 1_554 S
C702 C703 1.394 . S
C702 H710 0.930 . S
C703 C702 1.394 . S
C703 C704 1.383 1_554 S
C703 H711 0.929 . S
C704 C703 1.383 1_556 S
C704 C705 1.377 . S
C705 H689 0.930 . S
C705 C704 1.377 . S
C705 C706 1.379 . S
C706 H690 0.931 . S
C706 C700 1.383 . S
C706 C705 1.379 . S
H707 C701 0.959 . S
H708 C701 0.961 1_556 S
H709 C701 0.960 . S
H710 C702 0.930 . S
H711 C703 0.929 . S
H712 C720 0.929 . S
H713 C722 0.930 . S
H714 C724 0.930 . S
H715 C727 0.929 . S
H716 C730 0.930 . S
H717 C732 0.960 . S
H718 C732 0.960 . S
H719 C732 0.960 . S
C720 H712 0.929 . S
C720 C721 1.377 . S
C720 C722 1.384 . S
C721 C720 1.377 . S
C721 C727 1.390 . S
C722 H713 0.930 . S
C722 C720 1.384 . S
C722 C723 1.372 . S
C723 C722 1.372 . S
C723 C724 1.400 . S
C723 C728 1.490 . S
C724 H714 0.930 . S
C724 C723 1.400 . S
C724 C727 1.386 . S
H725 C741 0.930 . S
H726 C742 0.931 . S
C727 H715 0.929 . S
C727 C721 1.390 . S
C727 C724 1.386 . S
C728 C723 1.490 . S
C728 C730 1.395 . S
C728 C731 1.403 . S
H729 C735 0.930 . S
C730 H716 0.930 . S
C730 C728 1.395 . S
C730 C733 1.403 . S
C731 C728 1.403 . S
C731 C732 1.524 . S
C731 C735 1.400 . S
C732 H717 0.960 . S
C732 H718 0.960 . S
C732 H719 0.960 . S
C732 C731 1.524 . S
C733 C730 1.403 . S
C733 C734 1.392 . S
C733 C737 1.495 . S
C734 C733 1.392 . S
C734 C735 1.385 . S
C734 C736 1.478 . S
C735 H729 0.930 . S
C735 C731 1.400 . S
C735 C734 1.385 . S
C736 C734 1.478 . S
C736 C738 1.381 . S
C736 C742 1.383 . S
C737 C733 1.495 . S
C737 H743 0.959 . S
C737 H744 0.961 . S
C737 H745 0.960 . S
C738 C736 1.381 . S
C738 C739 1.394 . S
C738 H746 0.930 . S
C739 C738 1.394 . S
C739 C740 1.383 . S
C739 H747 0.929 . S
C740 C739 1.383 . S
C740 C741 1.377 . S
C741 H725 0.930 . S
C741 C740 1.377 . S
C741 C742 1.379 . S
C742 H726 0.931 . S
C742 C736 1.383 . S
C742 C741 1.379 . S
H743 C737 0.959 . S
H744 C737 0.961 . S
H745 C737 0.960 . S
H746 C738 0.930 . S
H747 C739 0.929 . S
H748 C756 0.929 . S
H749 C758 0.930 . S
H750 C760 0.930 . S
H751 C763 0.929 . S
H752 C766 0.930 . S
H753 C768 0.960 . S
H754 C768 0.960 . S
H755 C768 0.960 . S
C756 H748 0.929 . S
C756 C757 1.377 . S
C756 C758 1.384 . S
C757 C756 1.377 . S
C757 C763 1.390 . S
C758 H749 0.930 . S
C758 C756 1.384 . S
C758 C759 1.372 . S
C759 C758 1.372 . S
C759 C760 1.400 . S
C759 C764 1.490 . S
C760 H750 0.930 . S
C760 C759 1.400 . S
C760 C763 1.386 . S
H761 C777 0.930 . S
H762 C778 0.931 . S
C763 H751 0.929 . S
C763 C757 1.390 . S
C763 C760 1.386 . S
C764 C759 1.490 . S
C764 C766 1.395 . S
C764 C767 1.403 . S
H765 C771 0.930 . S
C766 H752 0.930 . S
C766 C764 1.395 . S
C766 C769 1.403 . S
C767 C764 1.403 . S
C767 C768 1.524 . S
C767 C771 1.400 . S
C768 H753 0.960 . S
C768 H754 0.960 . S
C768 H755 0.960 . S
C768 C767 1.524 . S
C769 C766 1.403 . S
C769 C770 1.392 . S
C769 C773 1.495 . S
C770 C769 1.392 . S
C770 C771 1.385 . S
C770 C772 1.478 . S
C771 H765 0.930 . S
C771 C767 1.400 . S
C771 C770 1.385 . S
C772 C770 1.478 . S
C772 C774 1.381 . S
C772 C778 1.383 . S
C773 C769 1.495 . S
C773 H779 0.959 . S
C773 H780 0.961 . S
C773 H781 0.960 . S
C774 C772 1.381 . S
C774 C775 1.394 . S
C774 H782 0.930 . S
C775 C774 1.394 . S
C775 C776 1.383 . S
C775 H783 0.929 . S
C776 C775 1.383 . S
C776 C777 1.377 . S
C777 H761 0.930 . S
C777 C776 1.377 . S
C777 C778 1.379 . S
C778 H762 0.931 . S
C778 C772 1.383 . S
C778 C777 1.379 . S
H779 C773 0.959 . S
H780 C773 0.961 . S
H781 C773 0.960 . S
H782 C774 0.930 . S
H783 C775 0.929 . S
H784 C792 0.929 . S
H785 C794 0.930 . S
H786 C796 0.930 . S
H787 C799 0.929 . S
H788 C802 0.930 . S
H789 C804 0.960 . S
H790 C804 0.960 . S
H791 C804 0.960 . S
C792 H784 0.929 . S
C792 C793 1.377 . S
C792 C794 1.384 . S
C793 C792 1.377 . S
C793 C799 1.390 . S
C794 H785 0.930 . S
C794 C792 1.384 . S
C794 C795 1.372 . S
C795 C794 1.372 . S
C795 C796 1.400 . S
C795 C800 1.490 . S
C796 H786 0.930 . S
C796 C795 1.400 . S
C796 C799 1.386 . S
H797 C813 0.930 . S
H798 C814 0.931 . S
C799 H787 0.929 . S
C799 C793 1.390 . S
C799 C796 1.386 . S
C800 C795 1.490 . S
C800 C802 1.395 . S
C800 C803 1.403 . S
H801 C807 0.930 . S
C802 H788 0.930 . S
C802 C800 1.395 . S
C802 C805 1.403 . S
C803 C800 1.403 . S
C803 C804 1.524 . S
C803 C807 1.400 . S
C804 H789 0.960 . S
C804 H790 0.960 . S
C804 H791 0.960 . S
C804 C803 1.524 . S
C805 C802 1.403 . S
C805 C806 1.392 . S
C805 C809 1.495 1_554 S
C806 C805 1.392 . S
C806 C807 1.385 . S
C806 C808 1.478 1_554 S
C807 H801 0.930 . S
C807 C803 1.400 . S
C807 C806 1.385 . S
C808 C806 1.478 1_556 S
C808 C810 1.381 . S
C808 C814 1.383 . S
C809 C805 1.495 1_556 S
C809 H815 0.959 . S
C809 H816 0.961 . S
C809 H817 0.960 . S
C810 C808 1.381 . S
C810 C811 1.394 . S
C810 H818 0.930 . S
C811 C810 1.394 . S
C811 C812 1.383 . S
C811 H819 0.929 . S
C812 C811 1.383 . S
C812 C813 1.377 . S
C813 H797 0.930 . S
C813 C812 1.377 . S
C813 C814 1.379 . S
C814 H798 0.931 . S
C814 C808 1.383 . S
C814 C813 1.379 . S
H815 C809 0.959 . S
H816 C809 0.961 . S
H817 C809 0.960 . S
H818 C810 0.930 . S
H819 C811 0.929 . S
H820 C828 0.929 . S
H821 C830 0.930 . S
H822 C832 0.930 . S
H823 C835 0.929 . S
H824 C838 0.930 . S
H825 C840 0.960 . S
H826 C840 0.960 . S
H827 C840 0.960 . S
C828 H820 0.929 . S
C828 C829 1.377 . S
C828 C830 1.384 . S
C829 C828 1.377 . S
C829 C835 1.390 . S
C830 H821 0.930 . S
C830 C828 1.384 . S
C830 C831 1.372 . S
C831 C830 1.372 . S
C831 C832 1.400 . S
C831 C836 1.490 . S
C832 H822 0.930 . S
C832 C831 1.400 . S
C832 C835 1.386 . S
H833 C849 0.930 . S
H834 C850 0.931 . S
C835 H823 0.929 . S
C835 C829 1.390 . S
C835 C832 1.386 . S
C836 C831 1.490 . S
C836 C838 1.395 . S
C836 C839 1.403 . S
H837 C843 0.930 . S
C838 H824 0.930 . S
C838 C836 1.395 . S
C838 C841 1.403 . S
C839 C836 1.403 . S
C839 C840 1.524 . S
C839 C843 1.400 . S
C840 H825 0.960 . S
C840 H826 0.960 . S
C840 H827 0.960 . S
C840 C839 1.524 . S
C841 C838 1.403 . S
C841 C842 1.392 . S
C841 C845 1.495 . S
C842 C841 1.392 . S
C842 C843 1.385 . S
C842 C844 1.478 . S
C843 H837 0.930 . S
C843 C839 1.400 . S
C843 C842 1.385 . S
C844 C842 1.478 . S
C844 C846 1.381 . S
C844 C850 1.383 . S
C845 C841 1.495 . S
C845 H851 0.959 . S
C845 H852 0.961 . S
C845 H853 0.960 . S
C846 C844 1.381 . S
C846 C847 1.394 . S
C846 H854 0.930 . S
C847 C846 1.394 . S
C847 C848 1.383 . S
C847 H855 0.929 . S
C848 C847 1.383 . S
C848 C849 1.377 . S
C849 H833 0.930 . S
C849 C848 1.377 . S
C849 C850 1.379 . S
C850 H834 0.931 . S
C850 C844 1.383 . S
C850 C849 1.379 . S
H851 C845 0.959 . S
H852 C845 0.961 . S
H853 C845 0.960 . S
H854 C846 0.930 . S
H855 C847 0.929 . S
H856 C864 0.929 . S
H857 C866 0.930 . S
H858 C868 0.930 . S
H859 C871 0.929 . S
H860 C874 0.930 . S
H861 C876 0.960 . S
H862 C876 0.960 . S
H863 C876 0.960 . S
C864 H856 0.929 . S
C864 C865 1.377 . S
C864 C866 1.384 . S
C865 C864 1.377 . S
C865 C871 1.390 . S
C866 H857 0.930 . S
C866 C864 1.384 . S
C866 C867 1.372 . S
C867 C866 1.372 . S
C867 C868 1.400 . S
C867 C872 1.490 . S
C868 H858 0.930 . S
C868 C867 1.400 . S
C868 C871 1.386 . S
H869 C885 0.930 . S
H870 C886 0.931 . S
C871 H859 0.929 . S
C871 C865 1.390 . S
C871 C868 1.386 . S
C872 C867 1.490 . S
C872 C874 1.395 . S
C872 C875 1.403 . S
H873 C879 0.930 . S
C874 H860 0.930 . S
C874 C872 1.395 . S
C874 C877 1.403 . S
C875 C872 1.403 . S
C875 C876 1.524 . S
C875 C879 1.400 . S
C876 H861 0.960 . S
C876 H862 0.960 . S
C876 H863 0.960 . S
C876 C875 1.524 . S
C877 C874 1.403 . S
C877 C878 1.392 . S
C877 C881 1.495 . S
C878 C877 1.392 . S
C878 C879 1.385 . S
C878 C880 1.478 . S
C879 H873 0.930 . S
C879 C875 1.400 . S
C879 C878 1.385 . S
C880 C878 1.478 . S
C880 C882 1.381 . S
C880 C886 1.383 . S
C881 C877 1.495 . S
C881 H887 0.959 . S
C881 H888 0.961 . S
C881 H889 0.960 . S
C882 C880 1.381 . S
C882 C883 1.394 . S
C882 H890 0.930 . S
C883 C882 1.394 . S
C883 C884 1.383 . S
C883 H891 0.929 . S
C884 C883 1.383 . S
C884 C885 1.377 . S
C885 H869 0.930 . S
C885 C884 1.377 . S
C885 C886 1.379 . S
C886 H870 0.931 . S
C886 C880 1.383 . S
C886 C885 1.379 . S
H887 C881 0.959 . S
H888 C881 0.961 . S
H889 C881 0.960 . S
H890 C882 0.930 . S
H891 C883 0.929 . S
H892 C900 0.929 . S
H893 C902 0.930 . S
H894 C904 0.930 . S
H895 C907 0.920 1_554 S
H896 C910 0.930 . S
H897 C912 0.960 . S
H898 C912 0.960 . S
H899 C912 0.960 . S
C900 H892 0.929 . S
C900 C901 1.377 . S
C900 C902 1.384 . S
C901 C900 1.377 . S
C901 C907 1.390 . S
C902 H893 0.930 . S
C902 C900 1.384 . S
C902 C903 1.372 . S
C903 C902 1.372 . S
C903 C904 1.400 . S
C903 C908 1.490 . S
C904 H894 0.930 . S
C904 C903 1.400 . S
C904 C907 1.386 . S
H905 C921 0.930 . S
H906 C922 0.931 . S
C907 H895 0.920 1_556 S
C907 C901 1.390 . S
C907 C904 1.386 . S
C908 C903 1.490 . S
C908 C910 1.395 . S
C908 C911 1.403 . S
H909 C915 0.930 . S
C910 H896 0.930 . S
C910 C908 1.395 . S
C910 C913 1.403 . S
C911 C908 1.403 . S
C911 C912 1.524 . S
C911 C915 1.400 . S
C912 H897 0.960 . S
C912 H898 0.960 . S
C912 H899 0.960 . S
C912 C911 1.524 . S
C913 C910 1.403 . S
C913 C914 1.392 . S
C913 C917 1.495 . S
C914 C913 1.392 . S
C914 C915 1.385 . S
C914 C916 1.478 . S
C915 H909 0.930 . S
C915 C911 1.400 . S
C915 C914 1.385 . S
C916 C914 1.478 . S
C916 C918 1.381 . S
C916 C922 1.383 . S
C917 C913 1.495 . S
C917 H923 0.959 . S
C917 H924 0.961 . S
C917 H925 0.960 . S
C918 C916 1.381 . S
C918 C919 1.394 . S
C918 H926 0.930 . S
C919 C918 1.394 . S
C919 C920 1.383 . S
C919 H927 0.929 . S
C920 C919 1.383 . S
C920 C921 1.377 . S
C921 H905 0.930 . S
C921 C920 1.377 . S
C921 C922 1.379 . S
C922 H906 0.931 . S
C922 C916 1.383 . S
C922 C921 1.379 . S
H923 C917 0.959 . S
H924 C917 0.961 . S
H925 C917 0.960 . S
H926 C918 0.930 . S
H927 C919 0.929 . S
H928 C936 0.929 1_554 S
H929 C938 0.930 . S
H930 C940 0.930 . S
H931 C943 0.929 . S
H932 C946 0.930 . S
H933 C948 0.960 . S
H934 C948 0.960 . S
H935 C948 0.960 . S
C936 H928 0.929 1_556 S
C936 C937 1.377 . S
C936 C938 1.384 . S
C937 C936 1.377 . S
C937 C943 1.390 . S
C938 H929 0.930 . S
C938 C936 1.384 . S
C938 C939 1.372 . S
C939 C938 1.372 . S
C939 C940 1.400 . S
C939 C944 1.490 . S
C940 H930 0.930 . S
C940 C939 1.400 . S
C940 C943 1.386 . S
H941 C957 0.930 . S
H942 C958 0.931 . S
C943 H931 0.929 . S
C943 C937 1.390 . S
C943 C940 1.386 . S
C944 C939 1.490 . S
C944 C946 1.395 . S
C944 C947 1.403 . S
H945 C951 0.930 . S
C946 H932 0.930 . S
C946 C944 1.395 . S
C946 C949 1.403 . S
C947 C944 1.403 . S
C947 C948 1.524 . S
C947 C951 1.400 . S
C948 H933 0.960 . S
C948 H934 0.960 . S
C948 H935 0.960 . S
C948 C947 1.524 . S
C949 C946 1.403 . S
C949 C950 1.392 . S
C949 C953 1.495 . S
C950 C949 1.392 . S
C950 C951 1.385 . S
C950 C952 1.478 . S
C951 H945 0.930 . S
C951 C947 1.400 . S
C951 C950 1.385 . S
C952 C950 1.478 . S
C952 C954 1.381 . S
C952 C958 1.383 . S
C953 C949 1.495 . S
C953 H959 0.959 . S
C953 H960 0.961 . S
C953 H961 0.960 . S
C954 C952 1.381 . S
C954 C955 1.394 . S
C954 H962 0.930 . S
C955 C954 1.394 . S
C955 C956 1.383 . S
C955 H963 0.929 . S
C956 C955 1.383 . S
C956 C957 1.377 . S
C957 H941 0.930 . S
C957 C956 1.377 . S
C957 C958 1.379 . S
C958 H942 0.931 . S
C958 C952 1.383 . S
C958 C957 1.379 . S
H959 C953 0.959 . S
H960 C953 0.961 . S
H961 C953 0.960 . S
H962 C954 0.930 . S
H963 C955 0.929 . S
H964 C972 0.929 . S
H965 C974 0.930 . S
H966 C976 0.930 . S
H967 C979 0.929 . S
H968 C982 0.930 . S
H969 C984 0.960 . S
H970 C984 0.960 . S
H971 C984 0.960 . S
C972 H964 0.929 . S
C972 C973 1.377 . S
C972 C974 1.384 . S
C973 C972 1.377 . S
C973 C979 1.390 . S
C974 H965 0.930 . S
C974 C972 1.384 . S
C974 C975 1.372 . S
C975 C974 1.372 . S
C975 C976 1.400 . S
C975 C980 1.490 . S
C976 H966 0.930 . S
C976 C975 1.400 . S
C976 C979 1.386 . S
H977 C993 0.930 . S
H978 C994 0.931 . S
C979 H967 0.929 . S
C979 C973 1.390 . S
C979 C976 1.386 . S
C980 C975 1.490 . S
C980 C982 1.395 . S
C980 C983 1.403 . S
H981 C987 0.930 . S
C982 H968 0.930 . S
C982 C980 1.395 . S
C982 C985 1.403 . S
C983 C980 1.403 . S
C983 C984 1.524 . S
C983 C987 1.400 . S
C984 H969 0.960 . S
C984 H970 0.960 . S
C984 H971 0.960 . S
C984 C983 1.524 . S
C985 C982 1.403 . S
C985 C986 1.392 . S
C985 C989 1.495 . S
C986 C985 1.392 . S
C986 C987 1.385 . S
C986 C988 1.478 . S
C987 H981 0.930 . S
C987 C983 1.400 . S
C987 C986 1.385 . S
C988 C986 1.478 . S
C988 C990 1.381 . S
C988 C994 1.383 . S
C989 C985 1.495 . S
C989 H995 0.959 . S
C989 H996 0.961 . S
C989 H997 0.960 . S
C990 C988 1.381 . S
C990 C991 1.394 . S
C990 H998 0.930 . S
C991 C990 1.394 . S
C991 C992 1.383 . S
C991 H999 0.929 . S
C992 C991 1.383 . S
C992 C993 1.377 . S
C993 H977 0.930 . S
C993 C992 1.377 . S
C993 C994 1.379 . S
C994 H978 0.931 . S
C994 C988 1.383 . S
C994 C993 1.379 . S
H995 C989 0.959 . S
H996 C989 0.961 . S
H997 C989 0.960 . S
H998 C990 0.930 . S
H999 C991 0.929 . S
H1000 C1008 0.929 . S
H1001 C1010 0.930 . S
H1002 C1012 0.930 . S
H1003 C1015 0.929 . S
H1004 C1018 0.930 . S
H1005 C1020 0.960 . S
H1006 C1020 0.960 . S
H1007 C1020 0.960 . S
C1008 H1000 0.929 . S
C1008 C1009 1.377 . S
C1008 C1010 1.384 . S
C1009 C1008 1.377 . S
C1009 C1015 1.390 . S
C1010 H1001 0.930 . S
C1010 C1008 1.384 . S
C1010 C1011 1.372 . S
C1011 C1010 1.372 . S
C1011 C1012 1.400 . S
C1011 C1016 1.490 . S
C1012 H1002 0.930 . S
C1012 C1011 1.400 . S
C1012 C1015 1.386 . S
H1013 C1029 0.930 . S
H1014 C1030 0.931 . S
C1015 H1003 0.929 . S
C1015 C1009 1.390 . S
C1015 C1012 1.386 . S
C1016 C1011 1.490 . S
C1016 C1018 1.395 1_565 S
C1016 C1019 1.403 . S
H1017 C1023 0.930 1_565 S
C1018 H1004 0.930 . S
C1018 C1016 1.395 1_545 S
C1018 C1021 1.403 . S
C1019 C1016 1.403 . S
C1019 C1020 1.524 . S
C1019 C1023 1.399 1_565 S
C1020 H1005 0.960 . S
C1020 H1006 0.960 . S
C1020 H1007 0.960 . S
C1020 C1019 1.524 . S
C1021 C1018 1.403 . S
C1021 C1022 1.392 . S
C1021 C1025 1.495 . S
C1022 C1021 1.392 . S
C1022 C1023 1.386 . S
C1022 C1024 1.478 . S
C1023 H1017 0.930 1_545 S
C1023 C1019 1.399 1_545 S
C1023 C1022 1.386 . S
C1024 C1022 1.478 . S
C1024 C1026 1.381 . S
C1024 C1030 1.383 . S
C1025 C1021 1.495 . S
C1025 H1031 0.959 . S
C1025 H1032 0.961 . S
C1025 H1033 0.960 . S
C1026 C1024 1.381 . S
C1026 C1027 1.394 . S
C1026 H1034 0.930 . S
C1027 C1026 1.394 . S
C1027 C1028 1.383 . S
C1027 H1035 0.929 . S
C1028 C1027 1.383 . S
C1028 C1029 1.377 . S
C1029 H1013 0.930 . S
C1029 C1028 1.377 . S
C1029 C1030 1.379 . S
C1030 H1014 0.931 . S
C1030 C1024 1.383 . S
C1030 C1029 1.379 . S
H1031 C1025 0.959 . S
H1032 C1025 0.961 . S
H1033 C1025 0.960 . S
H1034 C1026 0.930 . S
H1035 C1027 0.929 . S
H1036 C1044 0.929 . S
H1037 C1046 0.930 . S
H1038 C1048 0.930 . S
H1039 C1051 0.929 . S
H1040 C1054 0.930 . S
H1041 C1056 0.960 . S
H1042 C1056 0.960 . S
H1043 C1056 1.000 . S
C1044 H1036 0.929 . S
C1044 C1045 1.377 . S
C1044 C1046 1.384 . S
C1045 C1044 1.377 . S
C1045 C1051 1.390 . S
C1046 H1037 0.930 . S
C1046 C1044 1.384 . S
C1046 C1047 1.372 . S
C1047 C1046 1.372 . S
C1047 C1048 1.400 . S
C1047 C1052 1.490 1_556 S
C1048 H1038 0.930 . S
C1048 C1047 1.400 . S
C1048 C1051 1.386 . S
H1049 C1065 0.930 . S
H1050 C1066 0.931 . S
C1051 H1039 0.929 . S
C1051 C1045 1.390 . S
C1051 C1048 1.386 . S
C1052 C1047 1.490 1_554 S
C1052 C1054 1.395 . S
C1052 C1055 1.403 1_545 S
H1053 C1059 0.930 . S
C1054 H1040 0.930 . S
C1054 C1052 1.395 . S
C1054 C1057 1.403 . S
C1055 C1052 1.403 1_565 S
C1055 C1056 1.524 1_554 S
C1055 C1059 1.400 . S
C1056 H1041 0.960 . S
C1056 H1042 0.960 . S
C1056 H1043 1.000 . S
C1056 C1055 1.524 1_556 S
C1057 C1054 1.403 . S
C1057 C1058 1.392 1_545 S
C1057 C1061 1.495 . S
C1058 C1057 1.392 1_565 S
C1058 C1059 1.385 . S
C1058 C1060 1.478 . S
C1059 H1053 0.930 . S
C1059 C1055 1.400 . S
C1059 C1058 1.385 . S
C1060 C1058 1.478 . S
C1060 C1062 1.381 . S
C1060 C1066 1.383 . S
C1061 C1057 1.495 . S
C1061 H1067 0.959 . S
C1061 H1068 0.961 . S
C1061 H1069 0.960 . S
C1062 C1060 1.381 . S
C1062 C1063 1.394 . S
C1062 H1070 0.930 . S
C1063 C1062 1.394 . S
C1063 C1064 1.383 . S
C1063 H1071 0.929 . S
C1064 C1063 1.383 . S
C1064 C1065 1.377 . S
C1065 H1049 0.930 . S
C1065 C1064 1.377 . S
C1065 C1066 1.379 . S
C1066 H1050 0.931 . S
C1066 C1060 1.383 . S
C1066 C1065 1.379 . S
H1067 C1061 0.959 . S
H1068 C1061 0.961 . S
H1069 C1061 0.960 . S
H1070 C1062 0.930 . S
H1071 C1063 0.929 . S
H1072 C1080 0.929 . S
H1073 C1082 0.930 . S
H1074 C1084 0.930 . S
H1075 C1087 0.929 . S
H1076 C1090 0.930 . S
H1077 C1092 0.960 . S
H1078 C1092 0.960 . S
H1079 C1092 0.960 . S
C1080 H1072 0.929 . S
C1080 C1081 1.377 . S
C1080 C1082 1.384 . S
C1081 C1080 1.377 . S
C1081 C1087 1.390 . S
C1082 H1073 0.930 . S
C1082 C1080 1.384 . S
C1082 C1083 1.372 . S
C1083 C1082 1.372 . S
C1083 C1084 1.400 . S
C1083 C1088 1.490 . S
C1084 H1074 0.930 . S
C1084 C1083 1.400 . S
C1084 C1087 1.386 . S
H1085 C1101 0.930 . S
H1086 C1102 0.931 . S
C1087 H1075 0.929 . S
C1087 C1081 1.390 . S
C1087 C1084 1.386 . S
C1088 C1083 1.490 . S
C1088 C1090 1.395 . S
C1088 C1091 1.403 . S
H1089 C1095 0.930 . S
C1090 H1076 0.930 . S
C1090 C1088 1.395 . S
C1090 C1093 1.403 . S
C1091 C1088 1.403 . S
C1091 C1092 1.524 . S
C1091 C1095 1.400 . S
C1092 H1077 0.960 . S
C1092 H1078 0.960 . S
C1092 H1079 0.960 . S
C1092 C1091 1.524 . S
C1093 C1090 1.403 . S
C1093 C1094 1.392 . S
C1093 C1097 1.495 . S
C1094 C1093 1.392 . S
C1094 C1095 1.385 . S
C1094 C1096 1.478 . S
C1095 H1089 0.930 . S
C1095 C1091 1.400 . S
C1095 C1094 1.385 . S
C1096 C1094 1.478 . S
C1096 C1098 1.381 . S
C1096 C1102 1.383 . S
C1097 C1093 1.495 . S
C1097 H1103 0.959 . S
C1097 H1104 0.961 . S
C1097 H1105 0.960 . S
C1098 C1096 1.381 . S
C1098 C1099 1.394 . S
C1098 H1106 0.930 . S
C1099 C1098 1.394 . S
C1099 C1100 1.383 . S
C1099 H1107 0.929 . S
C1100 C1099 1.383 . S
C1100 C1101 1.377 . S
C1101 H1085 0.930 . S
C1101 C1100 1.377 . S
C1101 C1102 1.379 . S
C1102 H1086 0.931 . S
C1102 C1096 1.383 . S
C1102 C1101 1.379 . S
H1103 C1097 0.959 . S
H1104 C1097 0.961 . S
H1105 C1097 0.960 . S
H1106 C1098 0.930 . S
H1107 C1099 0.929 . S
H1108 C1116 0.929 . S
H1109 C1118 0.930 . S
H1110 C1120 0.930 . S
H1111 C1123 0.929 1_554 S
H1112 C1126 0.930 . S
H1113 C1128 0.960 . S
H1114 C1128 0.960 . S
H1115 C1128 0.960 . S
C1116 H1108 0.929 . S
C1116 C1117 1.377 . S
C1116 C1118 1.384 . S
C1117 C1116 1.377 . S
C1117 C1123 1.390 . S
C1118 H1109 0.930 . S
C1118 C1116 1.384 . S
C1118 C1119 1.372 . S
C1119 C1118 1.372 . S
C1119 C1120 1.400 . S
C1119 C1124 1.490 . S
C1120 H1110 0.930 . S
C1120 C1119 1.400 . S
C1120 C1123 1.386 . S
H1121 C1137 0.930 . S
H1122 C1138 0.931 . S
C1123 H1111 0.929 1_556 S
C1123 C1117 1.390 . S
C1123 C1120 1.386 . S
C1124 C1119 1.490 . S
C1124 C1126 1.395 . S
C1124 C1127 1.403 . S
H1125 C1131 0.930 . S
C1126 H1112 0.930 . S
C1126 C1124 1.395 . S
C1126 C1129 1.403 . S
C1127 C1124 1.403 . S
C1127 C1128 1.524 . S
C1127 C1131 1.400 . S
C1128 H1113 0.960 . S
C1128 H1114 0.960 . S
C1128 H1115 0.960 . S
C1128 C1127 1.524 . S
C1129 C1126 1.403 . S
C1129 C1130 1.392 . S
C1129 C1133 1.495 . S
C1130 C1129 1.392 . S
C1130 C1131 1.385 . S
C1130 C1132 1.478 . S
C1131 H1125 0.930 . S
C1131 C1127 1.400 . S
C1131 C1130 1.385 . S
C1132 C1130 1.478 . S
C1132 C1134 1.381 . S
C1132 C1138 1.383 . S
C1133 C1129 1.495 . S
C1133 H1139 0.959 . S
C1133 H1140 0.961 . S
C1133 H1141 0.960 . S
C1134 C1132 1.381 . S
C1134 C1135 1.394 . S
C1134 H1142 0.930 . S
C1135 C1134 1.394 . S
C1135 C1136 1.383 . S
C1135 H1143 0.929 . S
C1136 C1135 1.383 . S
C1136 C1137 1.377 . S
C1137 H1121 0.930 . S
C1137 C1136 1.377 . S
C1137 C1138 1.379 . S
C1138 H1122 0.931 . S
C1138 C1132 1.383 . S
C1138 C1137 1.379 . S
H1139 C1133 0.959 . S
H1140 C1133 0.961 . S
H1141 C1133 0.960 . S
H1142 C1134 0.930 . S
H1143 C1135 0.929 . S
H1144 C1152 0.929 . S
H1145 C1154 0.930 . S
H1146 C1156 0.930 . S
H1147 C1159 0.929 . S
H1148 C1162 0.930 . S
H1149 C1164 0.960 . S
H1150 C1164 0.960 . S
H1151 C1164 0.960 . S
C1152 H1144 0.929 . S
C1152 C1153 1.377 . S
C1152 C1154 1.384 . S
C1153 C1152 1.377 . S
C1153 C1159 1.390 . S
C1154 H1145 0.930 . S
C1154 C1152 1.384 . S
C1154 C1155 1.372 . S
C1155 C1154 1.372 . S
C1155 C1156 1.400 . S
C1155 C1160 1.490 . S
C1156 H1146 0.930 . S
C1156 C1155 1.400 . S
C1156 C1159 1.386 . S
H1157 C1173 0.930 . S
H1158 C1174 0.931 . S
C1159 H1147 0.929 . S
C1159 C1153 1.390 . S
C1159 C1156 1.386 . S
C1160 C1155 1.490 . S
C1160 C1162 1.395 . S
C1160 C1163 1.403 . S
H1161 C1167 0.930 1_556 S
C1162 H1148 0.930 . S
C1162 C1160 1.395 . S
C1162 C1165 1.403 . S
C1163 C1160 1.403 . S
C1163 C1164 1.524 . S
C1163 C1167 1.400 . S
C1164 H1149 0.960 . S
C1164 H1150 0.960 . S
C1164 H1151 0.960 . S
C1164 C1163 1.524 . S
C1165 C1162 1.403 . S
C1165 C1166 1.392 . S
C1165 C1169 1.495 . S
C1166 C1165 1.392 . S
C1166 C1167 1.385 . S
C1166 C1168 1.478 1_554 S
C1167 H1161 0.930 1_554 S
C1167 C1163 1.400 . S
C1167 C1166 1.385 . S
C1168 C1166 1.478 1_556 S
C1168 C1170 1.381 . S
C1168 C1174 1.383 . S
C1169 C1165 1.495 . S
C1169 H1175 0.959 . S
C1169 H1176 0.961 . S
C1169 H1177 0.960 . S
C1170 C1168 1.381 . S
C1170 C1171 1.394 . S
C1170 H1178 0.930 1_556 S
C1171 C1170 1.394 . S
C1171 C1172 1.383 . S
C1171 H1179 0.929 . S
C1172 C1171 1.383 . S
C1172 C1173 1.377 . S
C1173 H1157 0.930 . S
C1173 C1172 1.377 . S
C1173 C1174 1.379 . S
C1174 H1158 0.931 . S
C1174 C1168 1.383 . S
C1174 C1173 1.379 . S
H1175 C1169 0.959 . S
H1176 C1169 0.961 . S
H1177 C1169 0.960 . S
H1178 C1170 0.930 1_554 S
H1179 C1171 0.929 . S
H1180 C1188 0.929 . S
H1181 C1190 0.930 . S
H1182 C1192 0.930 . S
H1183 C1195 0.929 . S
H1184 C1198 0.930 . S
H1185 C1200 0.960 . S
H1186 C1200 0.960 . S
H1187 C1200 0.960 . S
C1188 H1180 0.929 . S
C1188 C1189 1.377 . S
C1188 C1190 1.384 . S
C1189 C1188 1.377 . S
C1189 C1195 1.390 . S
C1190 H1181 0.930 . S
C1190 C1188 1.384 . S
C1190 C1191 1.372 . S
C1191 C1190 1.372 . S
C1191 C1192 1.400 . S
C1191 C1196 1.490 . S
C1192 H1182 0.930 . S
C1192 C1191 1.400 . S
C1192 C1195 1.386 . S
H1193 C1209 0.930 . S
H1194 C1210 0.931 . S
C1195 H1183 0.929 . S
C1195 C1189 1.390 . S
C1195 C1192 1.386 . S
C1196 C1191 1.490 . S
C1196 C1198 1.395 . S
C1196 C1199 1.403 . S
H1197 C1203 0.930 . S
C1198 H1184 0.930 . S
C1198 C1196 1.395 . S
C1198 C1201 1.403 . S
C1199 C1196 1.403 . S
C1199 C1200 1.524 . S
C1199 C1203 1.400 . S
C1200 H1185 0.960 . S
C1200 H1186 0.960 . S
C1200 H1187 0.960 . S
C1200 C1199 1.524 . S
C1201 C1198 1.403 . S
C1201 C1202 1.392 . S
C1201 C1205 1.495 . S
C1202 C1201 1.392 . S
C1202 C1203 1.385 . S
C1202 C1204 1.478 . S
C1203 H1197 0.930 . S
C1203 C1199 1.400 . S
C1203 C1202 1.385 . S
C1204 C1202 1.478 . S
C1204 C1206 1.381 . S
C1204 C1210 1.383 . S
C1205 C1201 1.495 . S
C1205 H1211 0.959 . S
C1205 H1212 0.961 . S
C1205 H1213 0.960 . S
C1206 C1204 1.381 . S
C1206 C1207 1.394 . S
C1206 H1214 0.930 . S
C1207 C1206 1.394 . S
C1207 C1208 1.383 . S
C1207 H1215 0.929 . S
C1208 C1207 1.383 . S
C1208 C1209 1.377 . S
C1209 H1193 0.930 . S
C1209 C1208 1.377 . S
C1209 C1210 1.379 . S
C1210 H1194 0.931 . S
C1210 C1204 1.383 . S
C1210 C1209 1.379 . S
H1211 C1205 0.959 . S
H1212 C1205 0.961 . S
H1213 C1205 0.960 . S
H1214 C1206 0.930 . S
H1215 C1207 0.929 . S
H1216 C1224 0.929 . S
H1217 C1226 0.930 . S
H1218 C1228 0.930 . S
H1219 C1231 0.929 . S
H1220 C1234 0.930 . S
H1221 C1236 0.960 . S
H1222 C1236 0.960 . S
H1223 C1236 0.960 . S
C1224 H1216 0.929 . S
C1224 C1225 1.377 . S
C1224 C1226 1.384 . S
C1225 C1224 1.377 . S
C1225 C1231 1.390 . S
C1226 H1217 0.930 . S
C1226 C1224 1.384 . S
C1226 C1227 1.372 . S
C1227 C1226 1.372 . S
C1227 C1228 1.400 . S
C1227 C1232 1.490 . S
C1228 H1218 0.930 . S
C1228 C1227 1.400 . S
C1228 C1231 1.386 . S
H1229 C1245 0.930 . S
H1230 C1246 0.931 . S
C1231 H1219 0.929 . S
C1231 C1225 1.390 . S
C1231 C1228 1.386 . S
C1232 C1227 1.490 . S
C1232 C1234 1.395 . S
C1232 C1235 1.403 . S
H1233 C1239 0.930 . S
C1234 H1220 0.930 . S
C1234 C1232 1.395 . S
C1234 C1237 1.403 . S
C1235 C1232 1.403 . S
C1235 C1236 1.524 . S
C1235 C1239 1.400 . S
C1236 H1221 0.960 . S
C1236 H1222 0.960 . S
C1236 H1223 0.960 . S
C1236 C1235 1.524 . S
C1237 C1234 1.403 . S
C1237 C1238 1.392 . S
C1237 C1241 1.495 . S
C1238 C1237 1.392 . S
C1238 C1239 1.385 . S
C1238 C1240 1.478 . S
C1239 H1233 0.930 . S
C1239 C1235 1.400 . S
C1239 C1238 1.385 . S
C1240 C1238 1.478 . S
C1240 C1242 1.381 . S
C1240 C1246 1.383 . S
C1241 C1237 1.495 . S
C1241 H1247 0.959 . S
C1241 H1248 0.961 . S
C1241 H1249 0.960 . S
C1242 C1240 1.381 . S
C1242 C1243 1.394 . S
C1242 H1250 0.930 . S
C1243 C1242 1.394 . S
C1243 C1244 1.383 . S
C1243 H1251 0.929 . S
C1244 C1243 1.383 . S
C1244 C1245 1.377 . S
C1245 H1229 0.930 . S
C1245 C1244 1.377 . S
C1245 C1246 1.379 . S
C1246 H1230 0.931 . S
C1246 C1240 1.383 . S
C1246 C1245 1.379 . S
H1247 C1241 0.959 . S
H1248 C1241 0.961 . S
H1249 C1241 0.960 . S
H1250 C1242 0.930 . S
H1251 C1243 0.929 . S
H1252 C1260 0.929 . S
H1253 C1262 0.930 . S
H1254 C1264 0.930 . S
H1255 C1267 0.929 . S
H1256 C1270 0.930 . S
H1257 C1272 0.960 . S
H1258 C1272 0.960 . S
H1259 C1272 0.960 . S
C1260 H1252 0.929 . S
C1260 C1261 1.377 . S
C1260 C1262 1.384 . S
C1261 C1260 1.377 . S
C1261 C1267 1.390 . S
C1262 H1253 0.930 . S
C1262 C1260 1.384 . S
C1262 C1263 1.372 . S
C1263 C1262 1.372 . S
C1263 C1264 1.400 . S
C1263 C1268 1.490 . S
C1264 H1254 0.930 . S
C1264 C1263 1.400 . S
C1264 C1267 1.386 . S
H1265 C1281 0.930 . S
H1266 C1282 0.931 . S
C1267 H1255 0.929 . S
C1267 C1261 1.390 . S
C1267 C1264 1.386 . S
C1268 C1263 1.490 . S
C1268 C1270 1.395 . S
C1268 C1271 1.403 . S
H1269 C1275 0.930 . S
C1270 H1256 0.930 . S
C1270 C1268 1.395 . S
C1270 C1273 1.403 . S
C1271 C1268 1.403 . S
C1271 C1272 1.524 . S
C1271 C1275 1.400 . S
C1272 H1257 0.960 . S
C1272 H1258 0.960 . S
C1272 H1259 0.960 . S
C1272 C1271 1.524 . S
C1273 C1270 1.403 . S
C1273 C1274 1.392 . S
C1273 C1277 1.495 . S
C1274 C1273 1.392 . S
C1274 C1275 1.385 . S
C1274 C1276 1.478 . S
C1275 H1269 0.930 . S
C1275 C1271 1.400 . S
C1275 C1274 1.385 . S
C1276 C1274 1.478 . S
C1276 C1278 1.381 . S
C1276 C1282 1.383 . S
C1277 C1273 1.495 . S
C1277 H1283 0.959 . S
C1277 H1284 0.961 . S
C1277 H1285 0.960 . S
C1278 C1276 1.381 . S
C1278 C1279 1.394 . S
C1278 H1286 0.930 . S
C1279 C1278 1.394 . S
C1279 C1280 1.383 . S
C1279 H1287 0.929 1_556 S
C1280 C1279 1.383 . S
C1280 C1281 1.377 . S
C1281 H1265 0.930 . S
C1281 C1280 1.377 . S
C1281 C1282 1.379 . S
C1282 H1266 0.931 . S
C1282 C1276 1.383 . S
C1282 C1281 1.379 . S
H1283 C1277 0.959 . S
H1284 C1277 0.961 . S
H1285 C1277 0.960 . S
H1286 C1278 0.930 . S
H1287 C1279 0.929 1_554 S
H1288 C1296 0.929 . S
H1289 C1298 0.930 . S
H1290 C1300 0.930 . S
H1291 C1303 0.929 . S
H1292 C1306 0.930 . S
H1293 C1308 0.960 . S
H1294 C1308 0.960 . S
H1295 C1308 0.960 . S
C1296 H1288 0.929 . S
C1296 C1297 1.377 . S
C1296 C1298 1.384 . S
C1297 C1296 1.377 . S
C1297 C1303 1.390 . S
C1298 H1289 0.930 . S
C1298 C1296 1.384 . S
C1298 C1299 1.372 . S
C1299 C1298 1.372 . S
C1299 C1300 1.400 . S
C1299 C1304 1.490 . S
C1300 H1290 0.930 . S
C1300 C1299 1.400 . S
C1300 C1303 1.386 . S
H1301 C1317 0.930 . S
H1302 C1318 0.931 1_554 S
C1303 H1291 0.929 . S
C1303 C1297 1.390 . S
C1303 C1300 1.386 . S
C1304 C1299 1.490 . S
C1304 C1306 1.395 . S
C1304 C1307 1.403 . S
H1305 C1311 0.930 . S
C1306 H1292 0.930 . S
C1306 C1304 1.395 . S
C1306 C1309 1.403 1_565 S
C1307 C1304 1.403 . S
C1307 C1308 1.524 . S
C1307 C1311 1.400 1_565 S
C1308 H1293 0.960 . S
C1308 H1294 0.960 . S
C1308 H1295 0.960 . S
C1308 C1307 1.524 . S
C1309 C1306 1.403 1_545 S
C1309 C1310 1.392 . S
C1309 C1313 1.495 . S
C1310 C1309 1.392 . S
C1310 C1311 1.385 . S
C1310 C1312 1.478 1_554 S
C1311 H1305 0.930 . S
C1311 C1307 1.400 1_545 S
C1311 C1310 1.385 . S
C1312 C1310 1.478 1_556 S
C1312 C1314 1.381 . S
C1312 C1318 1.383 . S
C1313 C1309 1.495 . S
C1313 H1319 0.961 . S
C1313 H1320 0.961 . S
C1313 H1321 0.960 1_554 S
C1314 C1312 1.381 . S
C1314 C1315 1.394 . S
C1314 H1322 0.930 . S
C1315 C1314 1.394 . S
C1315 C1316 1.383 . S
C1315 H1323 0.929 . S
C1316 C1315 1.383 . S
C1316 C1317 1.377 . S
C1317 H1301 0.930 . S
C1317 C1316 1.377 . S
C1317 C1318 1.379 . S
C1318 H1302 0.931 1_556 S
C1318 C1312 1.383 . S
C1318 C1317 1.379 . S
H1319 C1313 0.961 . S
H1320 C1313 0.961 . S
H1321 C1313 0.960 1_556 S
H1322 C1314 0.930 . S
H1323 C1315 0.929 . S
H1324 C1332 0.929 . S
H1325 C1334 0.930 . S
H1326 C1336 0.930 . S
H1327 C1339 0.929 . S
H1328 C1342 0.930 . S
H1329 C1344 0.960 1_565 S
H1330 C1344 0.960 . S
H1331 C1344 0.962 . S
C1332 H1324 0.929 . S
C1332 C1333 1.377 . S
C1332 C1334 1.384 . S
C1333 C1332 1.377 . S
C1333 C1339 1.390 . S
C1334 H1325 0.930 . S
C1334 C1332 1.384 . S
C1334 C1335 1.372 . S
C1335 C1334 1.372 . S
C1335 C1336 1.400 . S
C1335 C1340 1.490 . S
C1336 H1326 0.930 . S
C1336 C1335 1.400 . S
C1336 C1339 1.386 . S
H1337 C1353 0.930 . S
H1338 C1354 0.931 . S
C1339 H1327 0.929 . S
C1339 C1333 1.390 . S
C1339 C1336 1.386 . S
C1340 C1335 1.490 . S
C1340 C1342 1.395 . S
C1340 C1343 1.403 . S
H1341 C1347 0.930 . S
C1342 H1328 0.930 . S
C1342 C1340 1.395 . S
C1342 C1345 1.397 1_545 S
C1343 C1340 1.403 . S
C1343 C1344 1.524 1_455 S
C1343 C1347 1.400 1_545 S
C1344 H1329 0.960 1_545 S
C1344 H1330 0.960 . S
C1344 H1331 0.962 . S
C1344 C1343 1.524 1_655 S
C1345 C1342 1.397 1_565 S
C1345 C1346 1.399 . S
C1345 C1349 1.496 . S
C1346 C1345 1.399 . S
C1346 C1347 1.385 . S
C1346 C1348 1.478 . S
C1347 H1341 0.930 . S
C1347 C1343 1.400 1_565 S
C1347 C1346 1.385 . S
C1348 C1346 1.478 . S
C1348 C1350 1.381 . S
C1348 C1354 1.383 . S
C1349 C1345 1.496 . S
C1349 H1355 0.959 1_565 S
C1349 H1356 0.961 . S
C1349 H1357 0.960 1_565 S
C1350 C1348 1.381 . S
C1350 C1351 1.394 . S
C1350 H1358 0.930 . S
C1351 C1350 1.394 . S
C1351 C1352 1.383 . S
C1351 H1359 0.929 . S
C1352 C1351 1.383 . S
C1352 C1353 1.377 . S
C1353 H1337 0.930 . S
C1353 C1352 1.377 . S
C1353 C1354 1.379 . S
C1354 H1338 0.931 . S
C1354 C1348 1.383 . S
C1354 C1353 1.379 . S
H1355 C1349 0.959 1_545 S
H1356 C1349 0.961 . S
H1357 C1349 0.960 1_545 S
H1358 C1350 0.930 . S
H1359 C1351 0.929 . S
C217 C127 1.381 . S
C236 C10 1.385 . S
C253 C192 1.380 . S
C272 C23 1.374 . S
C289 C36 1.389 . S
C308 C114 1.388 . S
C325 C49 1.381 . S
C344 C205 1.385 1_655 S
C361 C62 1.381 . S
C380 C140 1.380 . S
C397 C179 1.387 1_655 S
C416 C75 1.366 . S
C433 C153 1.381 . S
C452 C88 1.381 . S
C469 C101 1.385 . S
C488 C166 1.401 . S
C505 C57 1.414 1_655 S
C524 C44 1.382 1_556 S
C541 C161 1.406 . S
C560 C109 1.413 . S
C577 C83 1.403 . S
C596 C18 1.430 . S
C613 C122 1.407 . S
C632 C174 1.423 . S
C649 C5 1.404 1_655 S
C668 C70 1.432 . S
C685 C200 1.403 . S
C704 C135 1.432 1_556 S
C721 C96 1.415 . S
C740 C31 1.379 . S
C757 C148 1.404 . S
C776 C187 1.432 . S
C793 C8 0.304 . S
C812 C60 0.339 . S
C829 C73 0.294 . S
C848 C21 0.374 . S
C865 C86 0.295 . S
C884 C34 0.262 . S
C901 C47 0.276 . S
C920 C99 0.380 . S
C937 C138 0.315 . S
C956 C112 0.198 . S
C973 C151 0.302 . S
C992 C125 0.228 . S
C1009 C190 0.288 . S
C1028 C164 0.293 . S
C1045 C203 0.303 . S
C1064 C177 0.343 . S
C1081 C52 1.758 . S
C1100 C0 1.746 . S
C1117 C65 1.753 1_556 S
C1136 C13 1.764 . S
C1153 C78 1.758 . S
C1172 C26 1.748 . S
C1189 C39 1.755 . S
C1208 C91 1.759 . S
C1225 C104 1.754 . S
C1244 C130 1.748 . S
C1261 C143 1.754 . S
C1280 C117 1.763 1_556 S
C1297 C182 1.754 . S
C1316 C156 1.764 . S
C1333 C195 1.753 . S
C1352 C169 1.764 . S
