# Generated by pormake.
# Topology upc, (4)-cn, num edge types: 1
# Building blocks:
#     Node 0, Type 0, BuildingBlock: NAWXER_clean_sbu_0, # of connection points: 4
#     Node 1, Type 0, BuildingBlock: NAWXER_clean_sbu_0, # of connection points: 4
#     Node 2, Type 0, BuildingBlock: NAWXER_clean_sbu_0, # of connection points: 4
#     Node 3, Type 0, BuildingBlock: NAWXER_clean_sbu_0, # of connection points: 4
#     Node 4, Type 0, BuildingBlock: NAWXER_clean_sbu_0, # of connection points: 4
#     Node 5, Type 0, BuildingBlock: NAWXER_clean_sbu_0, # of connection points: 4
#     Node 6, Type 0, BuildingBlock: NAWXER_clean_sbu_0, # of connection points: 4
#     Node 7, Type 0, BuildingBlock: NAWXER_clean_sbu_0, # of connection points: 4
#     Node 8, Type 0, BuildingBlock: NAWXER_clean_sbu_0, # of connection points: 4
#     Node 9, Type 0, BuildingBlock: NAWXER_clean_sbu_0, # of connection points: 4
#     Node 10, Type 0, BuildingBlock: NAWXER_clean_sbu_0, # of connection points: 4
#     Node 11, Type 0, BuildingBlock: NAWXER_clean_sbu_0, # of connection points: 4
#     Node 12, Type 0, BuildingBlock: NAWXER_clean_sbu_0, # of connection points: 4
#     Node 13, Type 0, BuildingBlock: NAWXER_clean_sbu_0, # of connection points: 4
#     Node 14, Type 0, BuildingBlock: NAWXER_clean_sbu_0, # of connection points: 4
#     Node 15, Type 0, BuildingBlock: NAWXER_clean_sbu_0, # of connection points: 4
#     Edge 16, Type (0, 0), BuildingBlock: XUDNAN_clean_linker_2, # of connection points: 2
#     Edge 17, Type (0, 0), BuildingBlock: XUDNAN_clean_linker_2, # of connection points: 2
#     Edge 18, Type (0, 0), BuildingBlock: XUDNAN_clean_linker_2, # of connection points: 2
#     Edge 19, Type (0, 0), BuildingBlock: XUDNAN_clean_linker_2, # of connection points: 2
#     Edge 20, Type (0, 0), BuildingBlock: XUDNAN_clean_linker_2, # of connection points: 2
#     Edge 21, Type (0, 0), BuildingBlock: XUDNAN_clean_linker_2, # of connection points: 2
#     Edge 22, Type (0, 0), BuildingBlock: XUDNAN_clean_linker_2, # of connection points: 2
#     Edge 23, Type (0, 0), BuildingBlock: XUDNAN_clean_linker_2, # of connection points: 2
#     Edge 24, Type (0, 0), BuildingBlock: XUDNAN_clean_linker_2, # of connection points: 2
#     Edge 25, Type (0, 0), BuildingBlock: XUDNAN_clean_linker_2, # of connection points: 2
#     Edge 26, Type (0, 0), BuildingBlock: XUDNAN_clean_linker_2, # of connection points: 2
#     Edge 27, Type (0, 0), BuildingBlock: XUDNAN_clean_linker_2, # of connection points: 2
#     Edge 28, Type (0, 0), BuildingBlock: XUDNAN_clean_linker_2, # of connection points: 2
#     Edge 29, Type (0, 0), BuildingBlock: XUDNAN_clean_linker_2, # of connection points: 2
#     Edge 30, Type (0, 0), BuildingBlock: XUDNAN_clean_linker_2, # of connection points: 2
#     Edge 31, Type (0, 0), BuildingBlock: XUDNAN_clean_linker_2, # of connection points: 2
#     Edge 32, Type (0, 0), BuildingBlock: XUDNAN_clean_linker_2, # of connection points: 2
#     Edge 33, Type (0, 0), BuildingBlock: XUDNAN_clean_linker_2, # of connection points: 2
#     Edge 34, Type (0, 0), BuildingBlock: XUDNAN_clean_linker_2, # of connection points: 2
#     Edge 35, Type (0, 0), BuildingBlock: XUDNAN_clean_linker_2, # of connection points: 2
#     Edge 36, Type (0, 0), BuildingBlock: XUDNAN_clean_linker_2, # of connection points: 2
#     Edge 37, Type (0, 0), BuildingBlock: XUDNAN_clean_linker_2, # of connection points: 2
#     Edge 38, Type (0, 0), BuildingBlock: XUDNAN_clean_linker_2, # of connection points: 2
#     Edge 39, Type (0, 0), BuildingBlock: XUDNAN_clean_linker_2, # of connection points: 2
#     Edge 40, Type (0, 0), BuildingBlock: XUDNAN_clean_linker_2, # of connection points: 2
#     Edge 41, Type (0, 0), BuildingBlock: XUDNAN_clean_linker_2, # of connection points: 2
#     Edge 42, Type (0, 0), BuildingBlock: XUDNAN_clean_linker_2, # of connection points: 2
#     Edge 43, Type (0, 0), BuildingBlock: XUDNAN_clean_linker_2, # of connection points: 2
#     Edge 44, Type (0, 0), BuildingBlock: XUDNAN_clean_linker_2, # of connection points: 2
#     Edge 45, Type (0, 0), BuildingBlock: XUDNAN_clean_linker_2, # of connection points: 2
#     Edge 46, Type (0, 0), BuildingBlock: XUDNAN_clean_linker_2, # of connection points: 2
#     Edge 47, Type (0, 0), BuildingBlock: XUDNAN_clean_linker_2, # of connection points: 2
# Relax obj value: 0.229
# Max RMSD: 0.220
# Mean RMSD: 0.220
data_MOF--net-upc--node1-NAWXER_clean_sbu_0--edge1-XUDNAN_clean_linker_2
_symmetry_space_group_name_H-M    P1
_symmetry_Int_Tables_number       1
_symmetry_cell_setting            triclinic
loop_
_symmetry_equiv_pos_as_xyz
'x, y, z'
_cell_length_a     35.057112
_cell_length_b     35.427198
_cell_length_c     41.619993
_cell_angle_alpha  90.182158
_cell_angle_beta   90.531316
_cell_angle_gamma 89.783067
loop_
_atom_site_label
_atom_site_type_symbol
_atom_site_fract_x
_atom_site_fract_y
_atom_site_fract_z
_atom_type_partial_charge
C0 C 0.10401 0.59788 0.15303 0.0
C1 C 0.19402 0.66299 0.08453 0.0
O2 O 0.08624 0.61842 0.13226 0.0
Zn3 Zn 0.10308 0.65351 0.09127 0.0
O4 O 0.14001 0.59439 0.15114 0.0
Zn5 Zn 0.14762 0.62583 0.11459 0.0
O6 O 0.13 0.68026 0.13412 0.0
O7 O 0.08145 0.70041 0.10416 0.0
O8 O 0.1998 0.63457 0.1024 0.0
O9 O 0.15963 0.67306 0.07793 0.0
O10 O 0.07974 0.63062 0.05424 0.0
O11 O 0.12203 0.59307 0.07694 0.0
C12 C 0.10456 0.70534 0.1275 0.0
C13 C 0.09602 0.59871 0.05565 0.0
C14 C 0.93703 0.02732 0.09327 0.0
C15 C 0.86336 0.08729 0.1784 0.0
O16 O 0.95013 0.0601 0.10055 0.0
Zn17 Zn 0.9356 0.10508 0.13339 0.0
O18 O 0.90735 0.01549 0.1072 0.0
Zn19 Zn 0.8991 0.05749 0.13587 0.0
O20 O 0.87768 0.10274 0.10627 0.0
O21 O 0.92029 0.14831 0.10704 0.0
O22 O 0.85817 0.05448 0.16662 0.0
O23 O 0.89081 0.10776 0.16832 0.0
O24 O 0.9806 0.1081 0.16128 0.0
O25 O 0.94744 0.05603 0.16798 0.0
C26 C 0.8878 0.13608 0.09806 0.0
C27 C 0.97596 0.07684 0.17569 0.0
C28 C 0.4644 0.86474 0.17004 0.0
C29 C 0.47487 0.92918 0.06992 0.0
O30 O 0.43316 0.88274 0.16426 0.0
Zn31 Zn 0.41266 0.91948 0.12539 0.0
O32 O 0.49133 0.86521 0.14997 0.0
Zn33 Zn 0.4664 0.89575 0.11972 0.0
O34 O 0.46523 0.94881 0.14628 0.0
O35 O 0.40495 0.96669 0.1478 0.0
O36 O 0.49621 0.9047 0.08297 0.0
O37 O 0.44292 0.93784 0.08294 0.0
O38 O 0.36759 0.89325 0.1097 0.0
O39 O 0.42012 0.86008 0.1033 0.0
C40 C 0.43965 0.97251 0.15532 0.0
C41 C 0.38368 0.8628 0.10095 0.0
C42 C 0.64414 0.4351 0.06541 0.0
C43 C 0.71425 0.38388 0.1576 0.0
O44 O 0.62892 0.40442 0.07532 0.0
Zn45 Zn 0.64108 0.36365 0.11265 0.0
O46 O 0.6744 0.44675 0.07904 0.0
Zn47 Zn 0.67931 0.40882 0.1121 0.0
O48 O 0.69999 0.35825 0.08889 0.0
O49 O 0.65341 0.31682 0.09016 0.0
O50 O 0.72023 0.41438 0.14242 0.0
O51 O 0.68555 0.36319 0.14987 0.0
O52 O 0.59497 0.36608 0.13785 0.0
O53 O 0.62988 0.41749 0.1423 0.0
C54 C 0.68756 0.32496 0.08293 0.0
C55 C 0.5999 0.39882 0.14974 0.0
C56 C 0.11195 0.94509 0.34999 0.0
C57 C 0.18883 0.84091 0.39304 0.0
O58 O 0.0919 0.91606 0.35712 0.0
Zn59 Zn 0.10148 0.86056 0.37865 0.0
O60 O 0.14695 0.94614 0.35843 0.0
Zn61 Zn 0.14839 0.89591 0.37695 0.0
O62 O 0.13434 0.86419 0.33294 0.0
O63 O 0.08187 0.83207 0.34416 0.0
O64 O 0.19752 0.87553 0.3908 0.0
O65 O 0.15399 0.83112 0.38884 0.0
O66 O 0.07096 0.85885 0.41612 0.0
O67 O 0.11383 0.90383 0.41937 0.0
C68 C 0.10704 0.84218 0.32423 0.0
C69 C 0.08484 0.8868 0.43104 0.0
C70 C 0.55683 0.15086 0.40425 0.0
C71 C 0.65939 0.15556 0.32699 0.0
O72 O 0.55092 0.17721 0.38362 0.0
Zn73 Zn 0.58175 0.2009 0.34351 0.0
O74 O 0.58826 0.13309 0.40382 0.0
Zn75 Zn 0.60981 0.15606 0.36627 0.0
O76 O 0.63057 0.21175 0.38032 0.0
O77 O 0.59484 0.25272 0.35397 0.0
O78 O 0.65561 0.13321 0.35056 0.0
O79 O 0.63452 0.18159 0.32179 0.0
O80 O 0.54586 0.193 0.30866 0.0
O81 O 0.5709 0.14018 0.32742 0.0
C82 C 0.62262 0.24612 0.37293 0.0
C83 C 0.54861 0.15724 0.30751 0.0
C84 C 0.46137 0.55593 0.39703 0.0
C85 C 0.4651 0.65783 0.32161 0.0
O86 O 0.4325 0.55367 0.37788 0.0
Zn87 Zn 0.40981 0.58814 0.33904 0.0
O88 O 0.48328 0.58412 0.39534 0.0
Zn89 Zn 0.4606 0.60771 0.35922 0.0
O90 O 0.41012 0.63623 0.37654 0.0
O91 O 0.36099 0.60849 0.35344 0.0
O92 O 0.48865 0.64898 0.34367 0.0
O93 O 0.43502 0.63783 0.3169 0.0
O94 O 0.40953 0.55227 0.30384 0.0
O95 O 0.4675 0.56719 0.32028 0.0
C96 C 0.37395 0.63414 0.37188 0.0
C97 C 0.44545 0.54839 0.30137 0.0
C98 C 0.93471 0.46486 0.40856 0.0
C99 C 0.89767 0.38308 0.31845 0.0
O100 O 0.94579 0.43113 0.40351 0.0
Zn101 Zn 0.91601 0.42109 0.3648 0.0
O102 O 0.90957 0.4797 0.3898 0.0
Zn103 Zn 0.87852 0.46523 0.34686 0.0
O104 O 0.82422 0.46212 0.3584 0.0
O105 O 0.85833 0.41625 0.38013 0.0
O106 O 0.88191 0.41563 0.31886 0.0
O107 O 0.92032 0.37314 0.34103 0.0
O108 O 0.94097 0.45997 0.33191 0.0
O109 O 0.89825 0.50181 0.31555 0.0
C110 C 0.82597 0.43228 0.37536 0.0
C111 C 0.9322 0.48882 0.31481 0.0
C112 C 0.9297 0.3484 0.81967 0.0
C113 C 0.96118 0.42221 0.91312 0.0
O114 O 0.95209 0.34 0.84275 0.0
Zn115 Zn 0.94179 0.38386 0.86708 0.0
O116 O 0.91003 0.37906 0.82022 0.0
Zn117 Zn 0.90283 0.4263 0.85349 0.0
O118 O 0.91708 0.46752 0.8248 0.0
O119 O 0.96339 0.4267 0.83493 0.0
O120 O 0.93616 0.43959 0.89592 0.0
O121 O 0.97062 0.38881 0.90574 0.0
O122 O 0.88489 0.37112 0.88001 0.0
O123 O 0.84955 0.42029 0.86718 0.0
C124 C 0.95121 0.45633 0.8203 0.0
C125 C 0.85219 0.38707 0.87846 0.0
C126 C 0.08199 0.89363 0.8454 0.0
C127 C 0.18592 0.82253 0.89603 0.0
O128 O 0.08651 0.85804 0.84697 0.0
Zn129 Zn 0.13021 0.85915 0.87525 0.0
O130 O 0.10418 0.91538 0.86178 0.0
Zn131 Zn 0.15401 0.90743 0.89414 0.0
O132 O 0.18761 0.94028 0.87308 0.0
O133 O 0.16981 0.89057 0.84421 0.0
O134 O 0.19037 0.858 0.90112 0.0
O135 O 0.15476 0.81111 0.88392 0.0
O136 O 0.10299 0.87782 0.91905 0.0
O137 O 0.13757 0.92581 0.93526 0.0
C138 C 0.18827 0.92181 0.84689 0.0
C139 C 0.10921 0.90446 0.93936 0.0
C140 C 0.54388 0.23004 0.85513 0.0
C141 C 0.5643 0.12139 0.92125 0.0
O142 O 0.52719 0.2223 0.88123 0.0
Zn143 Zn 0.5572 0.178 0.88842 0.0
O144 O 0.57073 0.20893 0.8442 0.0
Zn145 Zn 0.60049 0.15732 0.85843 0.0
O146 O 0.58947 0.12573 0.82094 0.0
O147 O 0.53831 0.14403 0.84747 0.0
O148 O 0.58709 0.12002 0.89734 0.0
O149 O 0.54406 0.15055 0.92557 0.0
O150 O 0.61165 0.20406 0.89688 0.0
O151 O 0.65258 0.17568 0.86515 0.0
C152 C 0.55334 0.1265 0.8236 0.0
C153 C 0.64554 0.20114 0.88585 0.0
C154 C 0.38166 0.56369 0.81821 0.0
C155 C 0.47758 0.55692 0.90326 0.0
O156 O 0.38527 0.53876 0.83995 0.0
Zn157 Zn 0.42781 0.56213 0.86117 0.0
O158 O 0.40412 0.59225 0.81789 0.0
Zn159 Zn 0.45162 0.61359 0.84664 0.0
O160 O 0.49089 0.61525 0.81389 0.0
O161 O 0.47009 0.55772 0.82347 0.0
O162 O 0.48156 0.58713 0.88661 0.0
O163 O 0.44961 0.53543 0.89718 0.0
O164 O 0.39918 0.6113 0.8801 0.0
O165 O 0.42963 0.6612 0.86264 0.0
C166 C 0.4915 0.58009 0.8075 0.0
C167 C 0.40204 0.64733 0.87824 0.0
C168 C 0.9486 0.04232 0.5879 0.0
C169 C 0.93471 0.14187 0.6655 0.0
O170 O 0.96623 0.07316 0.59128 0.0
Zn171 Zn 0.939 0.09274 0.62714 0.0
O172 O 0.91978 0.03559 0.60575 0.0
Zn173 Zn 0.89108 0.06551 0.64386 0.0
O174 O 0.84094 0.07854 0.62713 0.0
O175 O 0.88557 0.11608 0.60895 0.0
O176 O 0.90803 0.11744 0.66894 0.0
O177 O 0.95991 0.13742 0.64412 0.0
O178 O 0.94949 0.05261 0.66649 0.0
O179 O 0.89302 0.02911 0.67778 0.0
C180 C 0.85018 0.10767 0.61139 0.0
C181 C 0.9287 0.03033 0.68322 0.0
C182 C 0.41272 1.006 0.64351 0.0
C183 C 0.33414 0.91546 0.58137 0.0
O184 O 0.42187 0.97178 0.63781 0.0
Zn185 Zn 0.37938 0.96147 0.60734 0.0
O186 O 0.38396 0.02044 0.62874 0.0
Zn187 Zn 0.33928 1.00426 0.59592 0.0
O188 O 0.29694 0.01743 0.62256 0.0
O189 O 0.33243 0.96984 0.64043 0.0
O190 O 0.32169 0.94948 0.58041 0.0
O191 O 0.3674 0.90936 0.59279 0.0
O192 O 0.39505 0.99566 0.56592 0.0
O193 O 0.34655 0.03438 0.5587 0.0
C194 C 0.30361 0.99199 0.64341 0.0
C195 C 0.37925 0.02294 0.55031 0.0
C196 C 0.58426 0.33404 0.65683 0.0
C197 C 0.57613 0.37854 0.54895 0.0
O198 O 0.56058 0.3248 0.63495 0.0
Zn199 Zn 0.58526 0.35116 0.60179 0.0
O200 O 0.61457 0.35241 0.64979 0.0
Zn201 Zn 0.63726 0.37911 0.60687 0.0
O202 O 0.64173 0.42964 0.62512 0.0
O203 O 0.58277 0.40779 0.62307 0.0
O204 O 0.60693 0.39093 0.56218 0.0
O205 O 0.55677 0.35371 0.56313 0.0
O206 O 0.63262 0.31516 0.59257 0.0
O207 O 0.68395 0.34995 0.59739 0.0
C208 C 0.60648 0.43359 0.63166 0.0
C209 C 0.66897 0.31799 0.59183 0.0
C210 C 0.19684 0.60566 0.6452 0.0
C211 C 0.10284 0.60238 0.55915 0.0
O212 O 0.19931 0.58825 0.61855 0.0
Zn213 Zn 0.15374 0.60947 0.60023 0.0
O214 O 0.1696 0.62928 0.65005 0.0
Zn215 Zn 0.11956 0.64966 0.62361 0.0
O216 O 0.08108 0.63641 0.65537 0.0
O217 O 0.11289 0.58806 0.63506 0.0
O218 O 0.09349 0.62634 0.58089 0.0
O219 O 0.13586 0.58769 0.56009 0.0
O220 O 0.17254 0.66637 0.59154 0.0
O221 O 0.13008 0.70277 0.61494 0.0
C222 C 0.08778 0.60103 0.65457 0.0
C223 C 0.16043 0.69946 0.59878 0.0
H224 H 0.19411 0.73989 0.08369 0.0
H225 H 0.26732 0.64231 0.07068 0.0
H226 H 0.32341 0.68429 0.0671 0.0
H227 H 0.24828 0.80807 0.03344 0.0
H228 H 0.24024 0.84618 0.06139 0.0
H229 H 0.20537 0.80922 0.05697 0.0
H230 H 0.20932 0.79639 0.11818 0.0
H231 H 0.24434 0.83302 0.12279 0.0
H232 H 0.25495 0.78586 0.13642 0.0
H233 H 0.37204 0.73611 0.07066 0.0
H234 H 0.40982 0.79306 0.08276 0.0
H235 H 0.30528 0.85697 0.09647 0.0
C236 C 0.22177 0.72753 0.07877 0.0
C237 C 0.22635 0.68792 0.07657 0.0
C238 C 0.2632 0.67261 0.0718 0.0
C239 C 0.29517 0.69625 0.06976 0.0
C240 C 0.28987 0.73514 0.07298 0.0
C241 C 0.25407 0.7507 0.07742 0.0
C242 C 0.2566 0.79278 0.08405 0.0
C243 C 0.23643 0.81539 0.05737 0.0
C244 C 0.24035 0.80256 0.11732 0.0
C245 C 0.29947 0.79838 0.08322 0.0
C246 C 0.31807 0.76489 0.07632 0.0
C247 C 0.35775 0.76257 0.07571 0.0
C248 C 0.37899 0.79516 0.08266 0.0
C249 C 0.36064 0.82968 0.09046 0.0
C250 C 0.32026 0.83122 0.09029 0.0
H251 H 0.88325 0.2136 0.10175 0.0
H252 H 0.8251 0.11549 0.06294 0.0
H253 H 0.76985 0.15536 0.04817 0.0
H254 H 0.80485 0.25231 0.1386 0.0
H255 H 0.81604 0.30103 0.1308 0.0
H256 H 0.85369 0.26654 0.13315 0.0
H257 H 0.87651 0.28526 0.07637 0.0
H258 H 0.839 0.32012 0.07396 0.0
H259 H 0.84319 0.28456 0.04311 0.0
H260 H 0.7169 0.20347 0.04579 0.0
H261 H 0.67203 0.25676 0.05389 0.0
H262 H 0.76466 0.32415 0.09282 0.0
C263 C 0.85956 0.20081 0.08893 0.0
C264 C 0.85883 0.16144 0.08305 0.0
C265 C 0.82656 0.1456 0.06737 0.0
C266 C 0.79496 0.16806 0.0589 0.0
C267 C 0.79592 0.20648 0.06615 0.0
C268 C 0.82758 0.22287 0.0805 0.0
C269 C 0.8199 0.26404 0.08851 0.0
C270 C 0.82384 0.27138 0.12491 0.0
C271 C 0.84621 0.29003 0.06933 0.0
C272 C 0.77874 0.26786 0.07729 0.0
C273 C 0.76546 0.23443 0.06429 0.0
C274 C 0.72725 0.23008 0.05518 0.0
C275 C 0.70192 0.26047 0.05988 0.0
C276 C 0.7149 0.29491 0.07331 0.0
C277 C 0.75403 0.29865 0.0815 0.0
H278 H 0.18919 0.76751 0.37181 0.0
H279 H 0.25718 0.84931 0.4245 0.0
H280 H 0.30927 0.80235 0.42979 0.0
H281 H 0.22222 0.68207 0.41428 0.0
H282 H 0.22319 0.65405 0.37807 0.0
H283 H 0.18955 0.69239 0.38175 0.0
H284 H 0.21511 0.72191 0.32933 0.0
H285 H 0.2487 0.68367 0.32546 0.0
H286 H 0.26534 0.73174 0.32604 0.0
H287 H 0.35529 0.7479 0.42666 0.0
H288 H 0.39377 0.69219 0.41211 0.0
H289 H 0.29722 0.64617 0.35915 0.0
C290 C 0.21472 0.77521 0.3851 0.0
C291 C 0.21894 0.81191 0.39821 0.0
C292 C 0.25325 0.82132 0.4145 0.0
C293 C 0.28291 0.79477 0.41771 0.0
C294 C 0.27806 0.75899 0.40417 0.0
C295 C 0.24492 0.74925 0.38798 0.0
C296 C 0.24833 0.71016 0.37313 0.0
C297 C 0.21908 0.68306 0.38769 0.0
C298 C 0.24413 0.712 0.33632 0.0
C299 C 0.28872 0.69959 0.38317 0.0
C300 C 0.30511 0.72797 0.40146 0.0
C301 C 0.34264 0.72541 0.41255 0.0
C302 C 0.36429 0.69352 0.40416 0.0
C303 C 0.34862 0.66451 0.38458 0.0
C304 C 0.31 0.66747 0.3745 0.0
H305 H 0.75896 0.42195 0.34161 0.0
H306 H 0.81663 0.39327 0.4308 0.0
H307 H 0.76607 0.34726 0.44295 0.0
H308 H 0.65832 0.40783 0.36968 0.0
H309 H 0.644 0.38687 0.33196 0.0
H310 H 0.6809 0.42217 0.33295 0.0
H311 H 0.72659 0.37589 0.30394 0.0
H312 H 0.69009 0.34036 0.30314 0.0
H313 H 0.73588 0.33016 0.32121 0.0
H314 H 0.71526 0.29764 0.44156 0.0
H315 H 0.66615 0.25015 0.42776 0.0
H316 H 0.64006 0.31068 0.33985 0.0
C317 C 0.7599 0.40724 0.36437 0.0
C318 C 0.79122 0.41196 0.38572 0.0
C319 C 0.79252 0.39069 0.41447 0.0
C320 C 0.76397 0.36437 0.42151 0.0
C321 C 0.7342 0.35933 0.39948 0.0
C322 C 0.73173 0.38039 0.37159 0.0
C323 C 0.69902 0.36663 0.35041 0.0
C324 C 0.66876 0.39773 0.346 0.0
C325 C 0.71378 0.35242 0.31777 0.0
C326 C 0.68389 0.33431 0.37054 0.0
C327 C 0.70459 0.33063 0.39877 0.0
C328 C 0.69827 0.30079 0.41988 0.0
C329 C 0.67034 0.27389 0.41186 0.0
C330 C 0.64865 0.2771 0.38314 0.0
C331 C 0.65529 0.30811 0.3625 0.0
H332 H 0.84265 0.31179 0.86881 0.0
H333 H 0.78395 0.41158 0.9036 0.0
H334 H 0.7266 0.37282 0.91432 0.0
H335 H 0.76332 0.27484 0.8263 0.0
H336 H 0.7749 0.22615 0.83439 0.0
H337 H 0.81224 0.26079 0.83301 0.0
H338 H 0.83436 0.24162 0.89019 0.0
H339 H 0.79696 0.20695 0.89187 0.0
H340 H 0.80073 0.24263 0.9227 0.0
H341 H 0.67566 0.32292 0.9205 0.0
H342 H 0.63216 0.26879 0.91532 0.0
H343 H 0.72272 0.20244 0.87218 0.0
C344 C 0.81794 0.32538 0.87927 0.0
C345 C 0.81789 0.36457 0.88603 0.0
C346 C 0.78463 0.38157 0.89859 0.0
C347 C 0.75208 0.35972 0.90484 0.0
C348 C 0.7531 0.3211 0.89785 0.0
C349 C 0.78503 0.30422 0.88488 0.0
C350 C 0.77777 0.26306 0.87671 0.0
C351 C 0.78231 0.25581 0.84046 0.0
C352 C 0.80402 0.23703 0.89656 0.0
C353 C 0.73654 0.25933 0.8869 0.0
C354 C 0.72315 0.29292 0.89965 0.0
C355 C 0.68589 0.29653 0.91057 0.0
C356 C 0.66142 0.26542 0.90766 0.0
C357 C 0.67392 0.23114 0.8934 0.0
C358 C 0.71227 0.22807 0.88334 0.0
H359 H 0.38882 0.72387 0.86817 0.0
H360 H 0.34249 0.62536 0.91554 0.0
H361 H 0.28496 0.66161 0.9295 0.0
H362 H 0.34802 0.79515 0.92527 0.0
H363 H 0.33837 0.82859 0.89364 0.0
H364 H 0.37809 0.79636 0.89038 0.0
H365 H 0.35168 0.77272 0.83564 0.0
H366 H 0.31183 0.80464 0.83881 0.0
H367 H 0.30365 0.75485 0.83317 0.0
H368 H 0.22866 0.70496 0.93166 0.0
H369 H 0.17933 0.75453 0.92535 0.0
H370 H 0.2618 0.82719 0.87974 0.0
C371 C 0.36707 0.71024 0.88227 0.0
C372 C 0.37053 0.67161 0.89083 0.0
C373 C 0.34086 0.65481 0.90873 0.0
C374 C 0.30791 0.67522 0.91681 0.0
C375 C 0.30488 0.71275 0.90721 0.0
C376 C 0.33384 0.73038 0.89075 0.0
C377 C 0.32226 0.77051 0.88187 0.0
C378 C 0.34823 0.79936 0.89881 0.0
C379 C 0.32236 0.77598 0.8452 0.0
C380 C 0.28193 0.77218 0.89504 0.0
C381 C 0.27259 0.73848 0.90959 0.0
C382 C 0.23595 0.73178 0.92102 0.0
C383 C 0.20808 0.76005 0.9173 0.0
C384 C 0.21696 0.79493 0.90276 0.0
C385 C 0.25457 0.80122 0.89189 0.0
H386 H 0.74732 0.30877 0.59924 0.0
H387 H 0.64379 0.2482 0.57401 0.0
H388 H 0.68025 0.18885 0.57128 0.0
H389 H 0.81252 0.25123 0.54849 0.0
H390 H 0.85064 0.25274 0.57783 0.0
H391 H 0.81728 0.29145 0.57485 0.0
H392 H 0.80167 0.28444 0.63524 0.0
H393 H 0.8349 0.24576 0.63835 0.0
H394 H 0.786 0.23941 0.65015 0.0
H395 H 0.72571 0.13485 0.5776 0.0
H396 H 0.7783 0.09041 0.59023 0.0
H397 H 0.85367 0.18492 0.60879 0.0
C398 C 0.73249 0.28317 0.59245 0.0
C399 C 0.69256 0.28338 0.58676 0.0
C400 C 0.67426 0.24901 0.57846 0.0
C401 C 0.69477 0.21502 0.57678 0.0
C402 C 0.7338 0.21559 0.58319 0.0
C403 C 0.75266 0.24877 0.59056 0.0
C404 C 0.7945 0.24102 0.59801 0.0
C405 C 0.82026 0.26026 0.57332 0.0
C406 C 0.80485 0.25339 0.63248 0.0
C407 C 0.79586 0.19832 0.59446 0.0
C408 C 0.7605 0.18427 0.58583 0.0
C409 C 0.75374 0.14554 0.5837 0.0
C410 C 0.78374 0.12048 0.59092 0.0
C411 C 0.82022 0.13415 0.59979 0.0
C412 C 0.82639 0.17364 0.60107 0.0
H413 H 0.23753 0.71205 0.60519 0.0
H414 H 0.13221 0.76414 0.57235 0.0
H415 H 0.1676 0.822 0.55817 0.0
H416 H 0.27283 0.79482 0.64368 0.0
H417 H 0.32219 0.78602 0.63439 0.0
H418 H 0.28967 0.74712 0.63807 0.0
H419 H 0.30763 0.72427 0.58099 0.0
H420 H 0.34005 0.76333 0.57706 0.0
H421 H 0.30281 0.75619 0.54753 0.0
H422 H 0.2136 0.87456 0.54899 0.0
H423 H 0.26463 0.92179 0.5521 0.0
H424 H 0.34055 0.83861 0.59513 0.0
C425 C 0.22217 0.73546 0.59442 0.0
C426 C 0.1822 0.73346 0.58924 0.0
C427 C 0.1628 0.76502 0.57619 0.0
C428 C 0.18273 0.79789 0.56793 0.0
C429 C 0.22206 0.79912 0.57345 0.0
C430 C 0.24155 0.769 0.58687 0.0
C431 C 0.28306 0.77927 0.59343 0.0
C432 C 0.29248 0.77666 0.62953 0.0
C433 C 0.30998 0.75428 0.57356 0.0
C434 C 0.28377 0.81998 0.58185 0.0
C435 C 0.24839 0.83042 0.56982 0.0
C436 C 0.2414 0.86667 0.55835 0.0
C437 C 0.27078 0.89336 0.56018 0.0
C438 C 0.30689 0.88418 0.57384 0.0
C439 C 0.3136 0.84656 0.58414 0.0
H440 H 0.92491 0.53494 0.26079 0.0
H441 H 1.00836 0.48051 0.32322 0.0
H442 H 0.06005 0.50307 0.28903 0.0
H443 H 0.97226 0.51367 0.18702 0.0
H444 H 0.9613 0.55805 0.16792 0.0
H445 H 0.92995 0.53954 0.19805 0.0
H446 H 0.93656 0.60138 0.23095 0.0
H447 H 0.96774 0.62017 0.2008 0.0
H448 H 0.98339 0.61802 0.24213 0.0
H449 H 0.10279 0.52819 0.24788 0.0
H450 H 0.13525 0.55737 0.20225 0.0
H451 H 0.02609 0.59689 0.16486 0.0
C452 C 0.9541 0.5283 0.26743 0.0
C453 C 0.96245 0.50585 0.29476 0.0
C454 C 1.00106 0.49741 0.30239 0.0
C455 C 0.03076 0.51015 0.28312 0.0
C456 C 0.02168 0.53145 0.25612 0.0
C457 C 0.98445 0.54077 0.24821 0.0
C458 C 0.98311 0.56341 0.21719 0.0
C459 C 0.9603 0.54241 0.19099 0.0
C460 C 0.96673 0.6031 0.22313 0.0
C461 C 0.02533 0.56502 0.20904 0.0
C462 C 0.04686 0.54631 0.23196 0.0
C463 C 0.08632 0.54313 0.22981 0.0
C464 C 0.10451 0.55977 0.20366 0.0
C465 C 0.08338 0.57952 0.17983 0.0
C466 C 0.04312 0.58206 0.18263 0.0
H467 H 0.96877 0.01443 0.21348 0.0
H468 H 0.04163 0.11137 0.19817 0.0
H469 H 0.08329 0.09046 0.24325 0.0
H470 H 0.97439 0.0144 0.29953 0.0
H471 H 0.97456 0.96363 0.30235 0.0
H472 H 0.95089 0.98642 0.26903 0.0
H473 H 0.99156 0.94743 0.22902 0.0
H474 H 1.01509 0.9243 0.26219 0.0
H475 H 0.04285 0.94844 0.23245 0.0
H476 H 0.1182 0.05667 0.28974 0.0
H477 H 0.14279 1.0134 0.3319 0.0
H478 H 0.04469 0.94094 0.31673 0.0
C479 C 0.99349 0.03139 0.21946 0.0
C480 C 1.00193 0.06457 0.20215 0.0
C481 C 0.03457 0.08583 0.21101 0.0
C482 C 0.05834 0.0742 0.23664 0.0
C483 C 0.04896 0.04139 0.25328 0.0
C484 C 1.01724 0.02036 0.24492 0.0
C485 C 1.01328 0.98604 0.26615 0.0
C486 C 0.97607 0.98775 0.2854 0.0
C487 C 1.01586 0.9494 0.24627 0.0
C488 C 0.0478 0.99081 0.2878 0.0
C489 C 0.0682 0.02279 0.2801 0.0
C490 C 0.10218 0.03178 0.2961 0.0
C491 C 0.11589 1.00711 0.3201 0.0
C492 C 0.09551 0.97397 0.328 0.0
C493 C 0.06072 0.96632 0.31183 0.0
H494 H 0.5644 0.08621 0.28471 0.0
H495 H 0.48384 0.17882 0.27496 0.0
H496 H 0.44729 0.14198 0.23461 0.0
H497 H 0.56511 0.06116 0.2005 0.0
H498 H 0.56938 1.01123 0.20798 0.0
H499 H 0.58862 0.04459 0.23652 0.0
H500 H 0.54853 0.01444 0.28163 0.0
H501 H 0.5292 0.98098 0.25325 0.0
H502 H 0.49759 1.01037 0.27645 0.0
H503 H 0.41797 0.09354 0.19694 0.0
H504 H 0.4006 0.03914 0.16239 0.0
H505 H 0.50269 0.98004 0.19423 0.0
C506 C 0.53898 0.09869 0.27418 0.0
C507 C 0.52678 0.13531 0.28316 0.0
C508 C 0.4937 0.15083 0.26846 0.0
C509 C 0.47273 0.13009 0.24556 0.0
C510 C 0.48553 0.09406 0.23726 0.0
C511 C 0.51812 0.07866 0.25089 0.0
C512 C 0.52633 0.03977 0.23723 0.0
C513 C 0.56463 0.03918 0.2195 0.0
C514 C 0.52534 1.00961 0.26372 0.0
C515 C 0.49304 0.0355 0.21402 0.0
C516 C 0.46965 0.06699 0.21456 0.0
C517 C 0.43629 0.06891 0.19609 0.0
C518 C 0.42661 0.03787 0.1766 0.0
C519 C 0.45045 1.00554 0.17537 0.0
C520 C 0.48418 1.0046 0.19426 0.0
H521 H 0.60894 0.45889 0.19112 0.0
H522 H 0.52558 0.37718 0.15758 0.0
H523 H 0.47693 0.40668 0.19231 0.0
H524 H 0.57698 0.46098 0.27369 0.0
H525 H 0.58604 0.51071 0.27869 0.0
H526 H 0.61409 0.48334 0.25097 0.0
H527 H 0.59576 0.52948 0.20513 0.0
H528 H 0.56755 0.55691 0.23268 0.0
H529 H 0.54609 0.5385 0.19638 0.0
H530 H 0.43653 0.44697 0.22924 0.0
H531 H 0.40887 0.49181 0.26834 0.0
H532 H 0.51936 0.54527 0.27982 0.0
C533 C 0.58045 0.44718 0.19107 0.0
C534 C 0.57105 0.41578 0.17146 0.0
C535 C 0.53351 0.40113 0.17239 0.0
C536 C 0.50563 0.41779 0.19199 0.0
C537 C 0.51579 0.44883 0.21087 0.0
C538 C 0.55242 0.46311 0.21085 0.0
C539 C 0.55617 0.49618 0.2339 0.0
C540 C 0.58503 0.48725 0.26091 0.0
C541 C 0.56703 0.53241 0.21594 0.0
C542 C 0.51584 0.49854 0.24665 0.0
C543 C 0.49292 0.47114 0.2329 0.0
C544 C 0.45431 0.46836 0.24031 0.0
C545 C 0.43881 0.49405 0.26248 0.0
C546 C 0.46191 0.52199 0.2773 0.0
C547 C 0.50096 0.52409 0.26915 0.0
H548 H 0.0235 0.61147 0.69276 0.0
H549 H 0.11298 0.53084 0.6697 0.0
H550 H 0.08829 0.48727 0.71005 0.0
H551 H 0.02094 0.59351 0.77799 0.0
H552 H 0.96978 0.5967 0.78109 0.0
H553 H 0.99417 0.62271 0.75039 0.0
H554 H 0.95195 0.59119 0.70663 0.0
H555 H 0.92727 0.56526 0.73723 0.0
H556 H 0.94955 0.54041 0.70448 0.0
H557 H 0.05695 0.45327 0.75362 0.0
H558 H 1.01615 0.42704 0.79543 0.0
H559 H 0.94311 0.5263 0.7902 0.0
C560 C 0.03771 0.58457 0.69616 0.0
C561 C 0.07029 0.57472 0.67793 0.0
C562 C 0.08794 0.53914 0.68307 0.0
C563 C 0.07424 0.51414 0.70612 0.0
C564 C 0.04245 0.52468 0.72377 0.0
C565 C 0.02392 0.5587 0.71891 0.0
C566 C 0.98954 0.56204 0.74087 0.0
C567 C 0.99388 0.59575 0.76395 0.0
C568 C 0.95237 0.56489 0.72112 0.0
C569 C 0.99204 0.52472 0.75884 0.0
C570 C 0.02312 0.504 0.74863 0.0
C571 C 0.03235 0.46906 0.76173 0.0
C572 C 1.00898 0.45449 0.78567 0.0
C573 C 0.97629 0.4745 0.79626 0.0
C574 C 0.9678 0.51025 0.78262 0.0
H575 H 0.08512 0.96056 0.81246 0.0
H576 H 1.01376 0.86262 0.82776 0.0
H577 H 0.96625 0.88795 0.78909 0.0
H578 H 1.00933 0.03001 0.80177 0.0
H579 H 0.03358 0.05475 0.77022 0.0
H580 H 0.06073 0.03026 0.8007 0.0
H581 H 0.09565 0.99206 0.75663 0.0
H582 H 0.06855 0.01633 0.72602 0.0
H583 H 0.06814 0.9655 0.72764 0.0
H584 H 0.92642 0.92395 0.74916 0.0
H585 H 0.89855 0.96597 0.70798 0.0
H586 H 0.99764 0.0387 0.71521 0.0
C587 C 0.05918 0.94478 0.80801 0.0
C588 C 0.05278 0.90986 0.82344 0.0
C589 C 1.01906 0.8895 0.81635 0.0
C590 C 0.99193 0.90371 0.79446 0.0
C591 C 0.99921 0.93803 0.77943 0.0
C592 C 0.03215 0.95818 0.78566 0.0
C593 C 0.03397 0.99325 0.76482 0.0
C594 C 0.03442 0.02919 0.78562 0.0
C595 C 0.06863 0.99167 0.74245 0.0
C596 C 0.99682 0.98974 0.74602 0.0
C597 C 0.97707 0.95788 0.75514 0.0
C598 C 0.94169 0.94889 0.74174 0.0
C599 C 0.92605 0.97301 0.71839 0.0
C600 C 0.94593 1.00556 0.70822 0.0
C601 C 0.98189 1.01388 0.72225 0.0
H602 H 0.56624 0.06725 0.78066 0.0
H603 H 0.48337 0.15285 0.80759 0.0
H604 H 0.44095 0.13211 0.76374 0.0
H605 H 0.55052 0.07182 0.69449 0.0
H606 H 0.55427 0.02162 0.68797 0.0
H607 H 0.57956 0.04338 0.72103 0.0
H608 H 0.54701 0.99793 0.76079 0.0
H609 H 0.52177 0.97591 0.72785 0.0
H610 H 0.49568 0.99506 0.76131 0.0
H611 H 0.40831 0.10483 0.71706 0.0
H612 H 0.38295 0.06796 0.67201 0.0
H613 H 0.48313 0.99526 0.67504 0.0
C614 C 0.53911 0.08147 0.77725 0.0
C615 C 0.5281 0.1117 0.79766 0.0
C616 C 0.49231 0.12947 0.79257 0.0
C617 C 0.46806 0.11804 0.76755 0.0
C618 C 0.47958 0.08832 0.74794 0.0
C619 C 0.51389 0.06977 0.75259 0.0
C620 C 0.51807 0.03761 0.72841 0.0
C621 C 0.55267 0.044 0.70669 0.0
C622 C 0.52079 0.99936 0.74562 0.0
C623 C 0.48079 0.04127 0.70953 0.0
C624 C 0.45953 0.07115 0.72118 0.0
C625 C 0.42456 0.08123 0.70777 0.0
C626 C 0.4105 0.06005 0.68195 0.0
C627 C 0.43095 0.02856 0.66971 0.0
C628 C 0.46675 0.01907 0.68379 0.0
H629 H 0.5454 0.4309 0.67136 0.0
H630 H 0.63925 0.50306 0.64404 0.0
H631 H 0.61971 0.54963 0.68556 0.0
H632 H 0.47633 0.50408 0.69027 0.0
H633 H 0.45788 0.47853 0.72409 0.0
H634 H 0.47765 0.4532 0.69051 0.0
H635 H 0.52411 0.41858 0.7291 0.0
H636 H 0.50522 0.44415 0.76286 0.0
H637 H 0.55559 0.44561 0.75469 0.0
H638 H 0.58896 0.58821 0.73114 0.0
H639 H 0.55227 0.61342 0.77719 0.0
H640 H 0.48218 0.51278 0.7761 0.0
C641 C 0.5614 0.4569 0.6735 0.0
C642 C 0.59341 0.46374 0.65393 0.0
C643 C 0.61434 0.49749 0.65844 0.0
C644 C 0.60346 0.52402 0.68201 0.0
C645 C 0.57199 0.51605 0.7012 0.0
C646 C 0.55145 0.48312 0.69721 0.0
C647 C 0.52028 0.4798 0.72198 0.0
C648 C 0.4807 0.47886 0.70574 0.0
C649 C 0.52671 0.44498 0.74343 0.0
C650 C 0.52622 0.51611 0.74059 0.0
C651 C 0.55589 0.53692 0.72815 0.0
C652 C 0.56583 0.57198 0.7411 0.0
C653 C 0.54485 0.5861 0.76726 0.0
C654 C 0.51459 0.56496 0.78052 0.0
C655 C 0.50547 0.52946 0.76691 0.0
H656 H 0.15968 0.73527 0.16585 0.0
H657 H 0.04121 0.7488 0.13702 0.0
H658 H 0.0322 0.7956 0.18032 0.0
H659 H 0.14654 0.73233 0.24421 0.0
H660 H 0.18782 0.75881 0.25698 0.0
H661 H 0.18821 0.73432 0.21918 0.0
H662 H 0.20386 0.79632 0.18941 0.0
H663 H 0.2043 0.82119 0.22729 0.0
H664 H 0.17393 0.83727 0.1949 0.0
H665 H 0.0317 0.82646 0.23325 0.0
H666 H 0.04167 0.84593 0.2897 0.0
H667 H 0.16126 0.81575 0.28347 0.0
C668 C 0.13222 0.74911 0.16803 0.0
C669 C 0.10104 0.73847 0.14843 0.0
C670 C 0.06545 0.75685 0.1518 0.0
C671 C 0.06013 0.78348 0.17625 0.0
C672 C 0.09095 0.79189 0.19639 0.0
C673 C 0.12661 0.77598 0.19205 0.0
C674 C 0.15375 0.78627 0.21913 0.0
C675 C 0.16998 0.75083 0.23585 0.0
C676 C 0.18585 0.8118 0.20696 0.0
C677 C 0.12688 0.80778 0.24073 0.0
C678 C 0.09096 0.81122 0.22689 0.0
C679 C 0.05993 0.82512 0.24395 0.0
C680 C 0.0657 0.83558 0.27601 0.0
C681 C 0.10221 0.83224 0.29042 0.0
C682 C 0.13333 0.8191 0.27247 0.0
H683 H 0.81318 0.05037 0.21808 0.0
H684 H 0.85252 0.16176 0.19067 0.0
H685 H 0.80588 0.19092 0.22694 0.0
H686 H 0.71461 0.07334 0.22388 0.0
H687 H 0.70619 0.0446 0.25874 0.0
H688 H 0.74343 0.03193 0.23117 0.0
H689 H 0.79282 0.03236 0.2779 0.0
H690 H 0.75568 0.04493 0.30565 0.0
H691 H 0.79761 0.07396 0.30265 0.0
H692 H 0.75224 0.20838 0.2623 0.0
H693 H 0.69735 0.213 0.29892 0.0
H694 H 0.69511 0.09095 0.30694 0.0
C695 C 0.81208 0.08085 0.21994 0.0
C696 C 0.83647 0.10378 0.20162 0.0
C697 C 0.83432 0.1436 0.20468 0.0
C698 C 0.80784 0.16049 0.22513 0.0
C699 C 0.78408 0.1372 0.24271 0.0
C700 C 0.78616 0.09828 0.24073 0.0
C701 C 0.75717 0.07998 0.26245 0.0
C702 C 0.72867 0.05606 0.24289 0.0
C703 C 0.77701 0.05642 0.28873 0.0
C704 C 0.73817 0.11475 0.27645 0.0
C705 C 0.754 0.14742 0.26449 0.0
C706 C 0.7399 0.18307 0.27224 0.0
C707 C 0.70871 0.18541 0.29288 0.0
C708 C 0.6925 0.15236 0.30584 0.0
C709 C 0.70758 0.11662 0.29773 0.0
H710 H 0.41321 0.69508 0.28379 0.0
H711 H 0.53089 0.69828 0.3173 0.0
H712 H 0.54105 0.75675 0.28664 0.0
H713 H 0.43007 0.72536 0.205 0.0
H714 H 0.3873 0.75355 0.2018 0.0
H715 H 0.38866 0.71348 0.2282 0.0
H716 H 0.36912 0.75653 0.27585 0.0
H717 H 0.36807 0.79687 0.24956 0.0
H718 H 0.39734 0.79756 0.2854 0.0
H719 H 0.54036 0.8104 0.24894 0.0
H720 H 0.52897 0.85629 0.20537 0.0
H721 H 0.41097 0.8207 0.19836 0.0
C722 C 0.44109 0.70814 0.28473 0.0
C723 C 0.47133 0.69218 0.30276 0.0
C724 C 0.50734 0.71013 0.3036 0.0
C725 C 0.51333 0.74341 0.28644 0.0
C726 C 0.48287 0.75851 0.26902 0.0
C727 C 0.44744 0.74159 0.26806 0.0
C728 C 0.42006 0.76273 0.24626 0.0
C729 C 0.40571 0.73726 0.21868 0.0
C730 C 0.38668 0.77941 0.26542 0.0
C731 C 0.44611 0.7934 0.23421 0.0
C732 C 0.48212 0.79059 0.24791 0.0
C733 C 0.51215 0.81346 0.23848 0.0
C734 C 0.50547 0.83929 0.21376 0.0
C735 C 0.46903 0.84209 0.19909 0.0
C736 C 0.43875 0.81965 0.20996 0.0
H737 H 0.78866 0.40465 0.16382 0.0
H738 H 0.70317 0.33203 0.2055 0.0
H739 H 0.75061 0.30963 0.24561 0.0
H740 H 0.87161 0.33933 0.17824 0.0
H741 H 0.90305 0.37831 0.18681 0.0
H742 H 0.86412 0.38404 0.15859 0.0
H743 H 0.83816 0.44109 0.19128 0.0
H744 H 0.87766 0.43622 0.2186 0.0
H745 H 0.8296 0.43549 0.23366 0.0
H746 H 0.80382 0.30376 0.28613 0.0
H747 H 0.85397 0.32076 0.32556 0.0
H748 H 0.90631 0.3932 0.25546 0.0
C749 C 0.78001 0.38374 0.18119 0.0
C750 C 0.74221 0.37032 0.18178 0.0
C751 C 0.73203 0.34275 0.2047 0.0
C752 C 0.7589 0.32956 0.22733 0.0
C753 C 0.79607 0.34344 0.2261 0.0
C754 C 0.80657 0.36986 0.20348 0.0
C755 C 0.84695 0.38331 0.20904 0.0
C756 C 0.87297 0.37047 0.18154 0.0
C757 C 0.84812 0.42655 0.21344 0.0
C758 C 0.85665 0.36262 0.23984 0.0
C759 C 0.82743 0.33877 0.24883 0.0
C760 C 0.82745 0.32125 0.27886 0.0
C761 C 0.85643 0.33055 0.30103 0.0
C762 C 0.88445 0.35743 0.29307 0.0
C763 C 0.88607 0.37133 0.26144 0.0
H764 H 0.92136 0.15085 0.7295 0.0
H765 H 0.9454 0.21184 0.64187 0.0
H766 H 0.94146 0.27232 0.67141 0.0
H767 H 0.85678 0.21972 0.76536 0.0
H768 H 0.87552 0.21304 0.80541 0.0
H769 H 0.87652 0.17465 0.77691 0.0
H770 H 0.94964 0.16781 0.78531 0.0
H771 H 0.9488 0.20597 0.81395 0.0
H772 H 0.97979 0.20834 0.77969 0.0
H773 H 0.93428 0.32566 0.70999 0.0
H774 H 0.93327 0.3686 0.75709 0.0
H775 H 0.92052 0.27251 0.82028 0.0
C776 C 0.92553 0.17706 0.71668 0.0
C777 C 0.93357 0.17715 0.68363 0.0
C778 C 0.93946 0.21159 0.66737 0.0
C779 C 0.93693 0.24594 0.68381 0.0
C780 C 0.92909 0.24505 0.7165 0.0
C781 C 0.9241 0.21155 0.73292 0.0
C782 C 0.9193 0.21836 0.76852 0.0
C783 C 0.87967 0.20569 0.7797 0.0
C784 C 0.9513 0.19898 0.788 0.0
C785 C 0.92292 0.26084 0.76953 0.0
C786 C 0.92752 0.27575 0.73917 0.0
C787 C 0.93086 0.31441 0.73393 0.0
C788 C 0.93015 0.33848 0.76063 0.0
C789 C 0.92713 0.32344 0.79188 0.0
C790 C 0.92321 0.28433 0.79643 0.0
H791 H 0.28528 0.92765 0.67479 0.0
H792 H 0.27032 0.0492 0.67707 0.0
H793 H 0.23899 0.0442 0.72997 0.0
H794 H 0.19328 0.90563 0.71272 0.0
H795 H 0.21291 0.8657 0.734 0.0
H796 H 0.2322 0.87908 0.69573 0.0
H797 H 0.29946 0.8836 0.72176 0.0
H798 H 0.28034 0.87095 0.76023 0.0
H799 H 0.30681 0.91414 0.75598 0.0
H800 H 0.21662 0.02648 0.78472 0.0
H801 H 0.19442 0.99664 0.83459 0.0
H802 H 0.21946 0.88598 0.79484 0.0
C803 C 0.2748 0.9531 0.68626 0.0
C804 C 0.2801 0.98883 0.67218 0.0
C805 C 0.26608 0.02161 0.68756 0.0
C806 C 0.24856 0.01903 0.7176 0.0
C807 C 0.24472 0.98341 0.73131 0.0
C808 C 0.25655 0.95093 0.71582 0.0
C809 C 0.24885 0.91611 0.73567 0.0
C810 C 0.22009 0.89011 0.71851 0.0
C811 C 0.28609 0.89498 0.74389 0.0
C812 C 0.23174 0.93417 0.76519 0.0
C813 C 0.23001 0.97303 0.76229 0.0
C814 C 0.21726 0.99607 0.78711 0.0
C815 C 0.20512 0.97888 0.81542 0.0
C816 C 0.20531 0.93907 0.81841 0.0
C817 C 0.21888 0.91647 0.79301 0.0
H818 H 0.5001 0.22721 0.80286 0.0
H819 H 0.56714 0.30204 0.86263 0.0
H820 H 0.573 0.34647 0.81748 0.0
H821 H 0.55445 0.22638 0.74423 0.0
H822 H 0.52158 0.22596 0.71067 0.0
H823 H 0.50661 0.20874 0.74891 0.0
H824 H 0.45019 0.2558 0.75042 0.0
H825 H 0.4635 0.27225 0.71113 0.0
H826 H 0.45847 0.30536 0.74381 0.0
H827 H 0.59091 0.36896 0.76445 0.0
H828 H 0.61084 0.37443 0.70808 0.0
H829 H 0.53355 0.28403 0.68134 0.0
C830 C 0.5133 0.25446 0.80683 0.0
C831 C 0.5323 0.26218 0.83591 0.0
C832 C 0.55141 0.29669 0.84055 0.0
C833 C 0.55502 0.32186 0.81496 0.0
C834 C 0.53914 0.31179 0.7853 0.0
C835 C 0.51749 0.2794 0.78131 0.0
C836 C 0.51042 0.27068 0.74614 0.0
C837 C 0.52412 0.23061 0.73701 0.0
C838 C 0.46813 0.27639 0.73736 0.0
C839 C 0.53482 0.30066 0.73108 0.0
C840 C 0.55028 0.32471 0.75394 0.0
C841 C 0.57797 0.35119 0.74622 0.0
C842 C 0.58968 0.35354 0.71428 0.0
C843 C 0.57386 0.32935 0.69058 0.0
C844 C 0.54581 0.303 0.69906 0.0
H845 H 0.38139 0.59231 0.75745 0.0
H846 H 0.31232 0.53007 0.82496 0.0
H847 H 0.25808 0.53193 0.78656 0.0
H848 H 0.31063 0.65346 0.72871 0.0
H849 H 0.32572 0.65265 0.68743 0.0
H850 H 0.35989 0.64436 0.71919 0.0
H851 H 0.37868 0.58037 0.69336 0.0
H852 H 0.34481 0.58861 0.66127 0.0
H853 H 0.34221 0.54599 0.68467 0.0
H854 H 0.20978 0.54732 0.7441 0.0
H855 H 0.17199 0.56859 0.697 0.0
H856 H 0.27353 0.61634 0.65496 0.0
C857 C 0.35496 0.57866 0.76393 0.0
C858 C 0.3508 0.56116 0.79412 0.0
C859 C 0.31601 0.54341 0.80182 0.0
C860 C 0.2851 0.54445 0.78024 0.0
C861 C 0.28988 0.56262 0.75091 0.0
C862 C 0.32414 0.57874 0.74242 0.0
C863 C 0.32165 0.59675 0.70949 0.0
C864 C 0.32996 0.63933 0.71134 0.0
C865 C 0.34842 0.57672 0.68579 0.0
C866 C 0.28022 0.58933 0.70121 0.0
C867 C 0.26242 0.56974 0.72555 0.0
C868 C 0.22354 0.56194 0.7246 0.0
C869 C 0.20234 0.57423 0.69795 0.0
C870 C 0.22022 0.59354 0.67257 0.0
C871 C 0.2596 0.60103 0.67401 0.0
H872 H 0.04062 0.60109 0.00871 0.0
H873 H 0.11945 0.52493 0.05725 0.0
H874 H 0.09151 0.47118 0.02757 0.0
H875 H 0.96022 0.54026 0.00903 0.0
H876 H 0.94327 0.55385 0.9697 0.0
H877 H 0.97014 0.58678 -0.00613 0.0
H878 H 1.01906 0.59466 0.94807 0.0
H879 H 0.992 0.56223 0.92357 0.0
H880 H 0.04189 0.55343 0.93141 0.0
H881 H 0.05374 0.42563 -0.00581 0.0
H882 H 1.01251 0.39171 0.95558 0.0
H883 H 0.95824 0.49759 0.92873 0.0
C884 C 0.05234 0.57318 0.01287 0.0
C885 C 0.08226 0.56723 0.0353 0.0
C886 C 0.09665 0.53023 0.04009 0.0
C887 C 0.08083 0.49948 0.02349 0.0
C888 C 0.05076 0.50626 0.00214 0.0
C889 C 0.03695 0.54221 -0.00351 0.0
C890 C 1.00453 0.5418 0.97218 0.0
C891 C 0.96735 0.55654 0.9871 0.0
C892 C 1.01501 0.56436 0.94202 0.0
C893 C 1.00224 0.49994 0.96509 0.0
C894 C 0.02903 0.47996 0.98277 0.0
C895 C 0.0327 0.44095 0.98014 0.0
C896 C 1.00904 0.42195 0.95821 0.0
C897 C 0.9821 0.44198 0.93914 0.0
C898 C 0.9783 0.48142 0.94313 0.0
H899 H 0.10856 0.96613 0.97925 0.0
H900 H 0.04545 0.86426 0.95616 0.0
H901 H 0.99491 0.88386 -0.0061 0.0
H902 H 0.0833 0.9715 0.06428 0.0
H903 H 0.07974 0.02226 0.06369 0.0
H904 H 0.1121 0.99839 0.03701 0.0
H905 H 0.07993 0.03166 0.98841 0.0
H906 H 0.04716 0.05525 0.01486 0.0
H907 H 0.02923 0.02686 0.98207 0.0
H908 H 0.94955 0.91668 0.03226 0.0
H909 H 0.91419 0.95878 0.06901 0.0
H910 H 1.00665 0.0398 0.06547 0.0
C911 C 0.08452 0.94747 0.98254 0.0
C912 C 0.08119 0.91343 0.96486 0.0
C913 C 0.04884 0.89029 0.96957 0.0
C914 C 0.01993 0.90126 0.9909 0.0
C915 C 0.02373 0.93548 0.0073 0.0
C916 C 0.05536 0.95811 0.00348 0.0
C917 C 0.05193 0.9943 0.02277 0.0
C918 C 0.08365 0.99673 0.04847 0.0
C919 C 0.05207 0.02906 0.0007 0.0
C920 C 1.01324 0.98874 0.03786 0.0
C921 C 0.99748 0.95458 0.0288 0.0
C922 C 0.96174 0.94341 0.03959 0.0
C923 C 0.94181 0.9676 0.06041 0.0
C924 C 0.95752 1.00271 0.07011 0.0
C925 C 0.99368 1.01329 0.05845 0.0
H926 H 0.45418 0.99998 0.05069 0.0
H927 H 0.52942 0.90639 0.02769 0.0
H928 H 0.56075 0.94524 0.98651 0.0
H929 H 0.44479 0.03804 0.96892 0.0
H930 H 0.44525 0.08618 0.98307 0.0
H931 H 0.42641 0.04943 0.0081 0.0
H932 H 0.47324 0.06919 0.05367 0.0
H933 H 0.49276 0.10546 0.02857 0.0
H934 H 0.52374 0.07011 0.0459 0.0
H935 H 0.58637 0.9957 0.95013 0.0
H936 H 0.60202 0.05321 0.91939 0.0
H937 H 0.51155 0.11376 0.96845 0.0
C938 C 0.47652 0.98734 0.03637 0.0
C939 C 0.4892 0.95016 0.0421 0.0
C940 C 0.51921 0.93486 0.0235 0.0
C941 C 0.53722 0.95668 0.00013 0.0
C942 C 0.52494 0.99374 -0.00415 0.0
C943 C 0.49511 1.00886 0.01328 0.0
C944 C 0.48878 0.05 0.00536 0.0
C945 C 0.44895 0.05627 0.99047 0.0
C946 C 0.49502 0.07515 0.03515 0.0
C947 C 0.51985 0.0557 0.98093 0.0
C948 C 0.54034 0.02296 0.97563 0.0
C949 C 0.57045 0.02152 0.95399 0.0
C950 C 0.57927 0.05433 0.9368 0.0
C951 C 0.55814 0.08799 0.9416 0.0
C952 C 0.52845 0.08859 0.96431 0.0
H953 H 0.47811 0.49359 0.94144 0.0
H954 H 0.54304 0.59458 0.92061 0.0
H955 H 0.59298 0.57401 0.95911 0.0
H956 H 0.50077 0.48985 0.02651 0.0
H957 H 0.50366 0.43905 0.02724 0.0
H958 H 0.4728 0.46222 -0.00144 0.0
H959 H 0.50658 0.42684 0.95219 0.0
H960 H 0.53774 0.40378 0.9807 0.0
H961 H 0.55758 0.43063 0.9482 0.0
H962 H 0.63668 0.54154 -0.00083 0.0
H963 H 0.66939 0.50128 0.0392 0.0
H964 H 0.57596 0.42133 0.03389 0.0
C965 C 0.50267 0.5116 0.94509 0.0
C966 C 0.50651 0.54584 0.92793 0.0
C967 C 0.53928 0.56834 0.93346 0.0
C968 C 0.56788 0.55682 0.95525 0.0
C969 C 0.56338 0.52271 0.97141 0.0
C970 C 0.53147 0.50053 0.96674 0.0
C971 C 0.53359 0.46505 0.98704 0.0
C972 C 0.50076 0.464 0.01127 0.0
C973 C 0.5339 0.42948 0.96576 0.0
C974 C 0.57174 0.47065 0.00382 0.0
C975 C 0.58848 0.50405 -0.00557 0.0
C976 C 0.62377 0.51536 0.00671 0.0
C977 C 0.6422 0.49219 0.02942 0.0
C978 C 0.6254 0.458 0.03975 0.0
C979 C 0.58975 0.44714 0.02647 0.0
H980 H 0.09177 0.95705 0.45848 0.0
H981 H 0.03076 0.85113 0.46648 0.0
H982 H 0.98953 0.87917 0.50794 0.0
H983 H 0.08684 0.9836 0.54415 0.0
H984 H 0.0802 0.03292 0.53507 0.0
H985 H 0.10711 1.00324 0.50826 0.0
H986 H 0.06249 0.02304 0.46121 0.0
H987 H 0.03503 0.05223 0.48795 0.0
H988 H 1.01179 0.01593 0.46457 0.0
H989 H 0.95161 0.92008 0.54534 0.0
H990 H 0.92302 0.96982 0.57934 0.0
H991 H 1.00841 0.04901 0.54647 0.0
C992 C 0.0704 0.93947 0.46955 0.0
C993 C 0.0646 0.90186 0.45935 0.0
C994 C 0.03578 0.88 0.47397 0.0
C995 C 1.01215 0.89568 0.4975 0.0
C996 C 1.01771 0.93323 0.50619 0.0
C997 C 0.0464 0.95473 0.49298 0.0
C998 C 0.04529 0.99484 0.50558 0.0
C999 C 0.08204 1.00419 0.52439 0.0
C1000 C 0.03822 0.02317 0.47819 0.0
C1001 C 1.01125 0.99259 0.52761 0.0
C1002 C 0.99574 0.95684 0.52765 0.0
C1003 C 0.96368 0.94815 0.54572 0.0
C1004 C 0.94749 0.97663 0.56479 0.0
C1005 C 0.96342 1.01331 0.56559 0.0
C1006 C 0.99551 0.02128 0.54644 0.0
H1007 H 0.55934 0.09446 0.4498 0.0
H1008 H 0.48372 0.17817 0.40711 0.0
H1009 H 0.43028 0.15307 0.43861 0.0
H1010 H 0.49286 0.01874 0.45055 0.0
H1011 H 0.50844 1.00011 0.48875 0.0
H1012 H 0.54147 0.0253 0.46388 0.0
H1013 H 0.5559 0.07177 0.51056 0.0
H1014 H 0.52332 0.04642 0.53572 0.0
H1015 H 0.51708 0.09642 0.52961 0.0
H1016 H 0.38449 0.11746 0.4727 0.0
H1017 H 0.35012 0.07738 0.51082 0.0
H1018 H 0.45505 0.01657 0.53242 0.0
C1019 C 0.53166 0.10787 0.44735 0.0
C1020 C 0.52584 0.13844 0.42593 0.0
C1021 C 0.48905 0.15492 0.42339 0.0
C1022 C 0.45842 0.14071 0.44109 0.0
C1023 C 0.46497 0.11008 0.46137 0.0
C1024 C 0.50073 0.09409 0.46493 0.0
C1025 C 0.49995 0.06138 0.48844 0.0
C1026 C 0.51135 0.02419 0.47191 0.0
C1027 C 0.52558 0.0695 0.51783 0.0
C1028 C 0.45808 0.06136 0.49743 0.0
C1029 C 0.43849 0.08961 0.48136 0.0
C1030 C 0.39957 0.09537 0.48553 0.0
C1031 C 0.38027 0.07228 0.50723 0.0
C1032 C 0.39977 0.04369 0.52473 0.0
C1033 C 0.43919 0.03793 0.51932 0.0
H1034 H 0.59179 0.44866 0.52512 0.0
H1035 H 0.52187 0.34952 0.50864 0.0
H1036 H 0.485 0.38391 0.46724 0.0
H1037 H 0.5182 0.514 0.52051 0.0
H1038 H 0.54481 0.5501 0.50022 0.0
H1039 H 0.56927 0.51657 0.52551 0.0
H1040 H 0.61292 0.49692 0.47834 0.0
H1041 H 0.58922 0.53108 0.45307 0.0
H1042 H 0.59172 0.48233 0.44069 0.0
H1043 H 0.45158 0.43101 0.43168 0.0
H1044 H 0.42832 0.48586 0.4004 0.0
H1045 H 0.51947 0.55411 0.44116 0.0
C1046 C 0.56957 0.43381 0.51205 0.0
C1047 C 0.55982 0.3964 0.51993 0.0
C1048 C 0.52989 0.37819 0.50287 0.0
C1049 C 0.5087 0.3975 0.47939 0.0
C1050 C 0.51786 0.43494 0.47324 0.0
C1051 C 0.54795 0.45275 0.4887 0.0
C1052 C 0.55055 0.49374 0.47894 0.0
C1053 C 0.54539 0.52014 0.50803 0.0
C1054 C 0.58834 0.50146 0.46172 0.0
C1055 C 0.51689 0.49629 0.45603 0.0
C1056 C 0.49841 0.46211 0.45299 0.0
C1057 C 0.46603 0.45787 0.43361 0.0
C1058 C 0.45283 0.48923 0.41617 0.0
C1059 C 0.47202 0.52426 0.41834 0.0
C1060 C 0.50412 0.52774 0.43893 0.0
H1061 H 1.00479 0.45477 0.43802 0.0
H1062 H 0.90658 0.52967 0.43506 0.0
H1063 H 0.93928 0.57338 0.47238 0.0
H1064 H 0.0301 0.47025 0.5224 0.0
H1065 H 0.08067 0.46897 0.51498 0.0
H1066 H 0.04853 0.44254 0.48957 0.0
H1067 H 0.07554 0.47641 0.43966 0.0
H1068 H 0.10738 0.50333 0.46496 0.0
H1069 H 0.07484 0.52726 0.43806 0.0
H1070 H 0.98305 0.60976 0.50919 0.0
H1071 H 0.03419 0.63527 0.54413 0.0
H1072 H 0.10518 0.53823 0.52166 0.0
C1073 C 0.98989 0.48001 0.44571 0.0
C1074 C 0.95293 0.4886 0.43381 0.0
C1075 C 0.93479 0.52237 0.44394 0.0
C1076 C 0.95318 0.54745 0.46509 0.0
C1077 C 0.9899 0.5386 0.47579 0.0
C1078 C 1.00805 0.50565 0.46657 0.0
C1079 C 0.048 0.5035 0.48084 0.0
C1080 C 0.05205 0.46929 0.50328 0.0
C1081 C 0.07822 0.50258 0.45429 0.0
C1082 C 0.04941 0.54034 0.49951 0.0
C1083 C 1.01555 0.5601 0.49632 0.0
C1084 C 1.00973 0.59457 0.51181 0.0
C1085 C 0.03901 0.60891 0.53154 0.0
C1086 C 0.07387 0.589 0.53548 0.0
C1087 C 0.07914 0.55446 0.51883 0.0
loop_
_geom_bond_atom_site_label_1
_geom_bond_atom_site_label_2
_geom_bond_distance
_geom_bond_site_symmetry_2
_ccdc_geom_bond_type
C0 O2 1.247 . S
C0 O4 1.258 . S
C1 O8 1.247 . S
C1 O9 1.258 . S
O2 C0 1.247 . S
O2 Zn3 2.028 . S
Zn3 O2 2.028 . S
Zn3 O7 2.035 . S
Zn3 O9 2.035 . S
Zn3 O10 2.028 . S
O4 C0 1.258 . S
O4 Zn5 2.035 . S
Zn5 O4 2.035 . S
Zn5 O6 2.028 . S
Zn5 O8 2.028 . S
Zn5 O11 2.035 . S
O6 Zn5 2.028 . S
O6 C12 1.247 . S
O7 Zn3 2.035 . S
O7 C12 1.258 . S
O8 C1 1.247 . S
O8 Zn5 2.028 . S
O9 C1 1.258 . S
O9 Zn3 2.035 . S
O10 Zn3 2.028 . S
O10 C13 1.247 . S
O11 Zn5 2.035 . S
O11 C13 1.258 . S
C12 O6 1.247 . S
C12 O7 1.258 . S
C13 O10 1.247 . S
C13 O11 1.258 . S
C14 O16 1.247 . S
C14 O18 1.258 . S
C15 O22 1.247 . S
C15 O23 1.258 . S
O16 C14 1.247 . S
O16 Zn17 2.028 . S
Zn17 O16 2.028 . S
Zn17 O21 2.035 . S
Zn17 O23 2.035 . S
Zn17 O24 2.028 . S
O18 C14 1.258 . S
O18 Zn19 2.035 . S
Zn19 O18 2.035 . S
Zn19 O20 2.028 . S
Zn19 O22 2.028 . S
Zn19 O25 2.035 . S
O20 Zn19 2.028 . S
O20 C26 1.247 . S
O21 Zn17 2.035 . S
O21 C26 1.258 . S
O22 C15 1.247 . S
O22 Zn19 2.028 . S
O23 C15 1.258 . S
O23 Zn17 2.035 . S
O24 Zn17 2.028 . S
O24 C27 1.247 . S
O25 Zn19 2.035 . S
O25 C27 1.258 . S
C26 O20 1.247 . S
C26 O21 1.258 . S
C27 O24 1.247 . S
C27 O25 1.258 . S
C28 O30 1.247 . S
C28 O32 1.258 . S
C29 O36 1.247 . S
C29 O37 1.258 . S
O30 C28 1.247 . S
O30 Zn31 2.028 . S
Zn31 O30 2.028 . S
Zn31 O35 2.035 . S
Zn31 O37 2.035 . S
Zn31 O38 2.028 . S
O32 C28 1.258 . S
O32 Zn33 2.035 . S
Zn33 O32 2.035 . S
Zn33 O34 2.028 . S
Zn33 O36 2.028 . S
Zn33 O39 2.035 . S
O34 Zn33 2.028 . S
O34 C40 1.247 . S
O35 Zn31 2.035 . S
O35 C40 1.258 . S
O36 C29 1.247 . S
O36 Zn33 2.028 . S
O37 C29 1.258 . S
O37 Zn31 2.035 . S
O38 Zn31 2.028 . S
O38 C41 1.247 . S
O39 Zn33 2.035 . S
O39 C41 1.258 . S
C40 O34 1.247 . S
C40 O35 1.258 . S
C41 O38 1.247 . S
C41 O39 1.258 . S
C42 O44 1.247 . S
C42 O46 1.258 . S
C43 O50 1.247 . S
C43 O51 1.258 . S
O44 C42 1.247 . S
O44 Zn45 2.028 . S
Zn45 O44 2.028 . S
Zn45 O49 2.035 . S
Zn45 O51 2.035 . S
Zn45 O52 2.028 . S
O46 C42 1.258 . S
O46 Zn47 2.035 . S
Zn47 O46 2.035 . S
Zn47 O48 2.028 . S
Zn47 O50 2.028 . S
Zn47 O53 2.035 . S
O48 Zn47 2.028 . S
O48 C54 1.247 . S
O49 Zn45 2.035 . S
O49 C54 1.258 . S
O50 C43 1.247 . S
O50 Zn47 2.028 . S
O51 C43 1.258 . S
O51 Zn45 2.035 . S
O52 Zn45 2.028 . S
O52 C55 1.247 . S
O53 Zn47 2.035 . S
O53 C55 1.258 . S
C54 O48 1.247 . S
C54 O49 1.258 . S
C55 O52 1.247 . S
C55 O53 1.258 . S
C56 O58 1.247 . S
C56 O60 1.258 . S
C57 O64 1.247 . S
C57 O65 1.258 . S
O58 C56 1.247 . S
O58 Zn59 2.028 . S
Zn59 O58 2.028 . S
Zn59 O63 2.035 . S
Zn59 O65 2.035 . S
Zn59 O66 2.028 . S
O60 C56 1.258 . S
O60 Zn61 2.035 . S
Zn61 O60 2.035 . S
Zn61 O62 2.028 . S
Zn61 O64 2.028 . S
Zn61 O67 2.035 . S
O62 Zn61 2.028 . S
O62 C68 1.247 . S
O63 Zn59 2.035 . S
O63 C68 1.258 . S
O64 C57 1.247 . S
O64 Zn61 2.028 . S
O65 C57 1.258 . S
O65 Zn59 2.035 . S
O66 Zn59 2.028 . S
O66 C69 1.247 . S
O67 Zn61 2.035 . S
O67 C69 1.258 . S
C68 O62 1.247 . S
C68 O63 1.258 . S
C69 O66 1.247 . S
C69 O67 1.258 . S
C70 O72 1.247 . S
C70 O74 1.258 . S
C71 O78 1.247 . S
C71 O79 1.258 . S
O72 C70 1.247 . S
O72 Zn73 2.028 . S
Zn73 O72 2.028 . S
Zn73 O77 2.035 . S
Zn73 O79 2.035 . S
Zn73 O80 2.028 . S
O74 C70 1.258 . S
O74 Zn75 2.035 . S
Zn75 O74 2.035 . S
Zn75 O76 2.028 . S
Zn75 O78 2.028 . S
Zn75 O81 2.035 . S
O76 Zn75 2.028 . S
O76 C82 1.247 . S
O77 Zn73 2.035 . S
O77 C82 1.258 . S
O78 C71 1.247 . S
O78 Zn75 2.028 . S
O79 C71 1.258 . S
O79 Zn73 2.035 . S
O80 Zn73 2.028 . S
O80 C83 1.247 . S
O81 Zn75 2.035 . S
O81 C83 1.258 . S
C82 O76 1.247 . S
C82 O77 1.258 . S
C83 O80 1.247 . S
C83 O81 1.258 . S
C84 O86 1.247 . S
C84 O88 1.258 . S
C85 O92 1.247 . S
C85 O93 1.258 . S
O86 C84 1.247 . S
O86 Zn87 2.028 . S
Zn87 O86 2.028 . S
Zn87 O91 2.035 . S
Zn87 O93 2.035 . S
Zn87 O94 2.028 . S
O88 C84 1.258 . S
O88 Zn89 2.035 . S
Zn89 O88 2.035 . S
Zn89 O90 2.028 . S
Zn89 O92 2.028 . S
Zn89 O95 2.035 . S
O90 Zn89 2.028 . S
O90 C96 1.247 . S
O91 Zn87 2.035 . S
O91 C96 1.258 . S
O92 C85 1.247 . S
O92 Zn89 2.028 . S
O93 C85 1.258 . S
O93 Zn87 2.035 . S
O94 Zn87 2.028 . S
O94 C97 1.247 . S
O95 Zn89 2.035 . S
O95 C97 1.258 . S
C96 O90 1.247 . S
C96 O91 1.258 . S
C97 O94 1.247 . S
C97 O95 1.258 . S
C98 O100 1.247 . S
C98 O102 1.258 . S
C99 O106 1.247 . S
C99 O107 1.258 . S
O100 C98 1.247 . S
O100 Zn101 2.028 . S
Zn101 O100 2.028 . S
Zn101 O105 2.035 . S
Zn101 O107 2.035 . S
Zn101 O108 2.028 . S
O102 C98 1.258 . S
O102 Zn103 2.035 . S
Zn103 O102 2.035 . S
Zn103 O104 2.028 . S
Zn103 O106 2.028 . S
Zn103 O109 2.035 . S
O104 Zn103 2.028 . S
O104 C110 1.247 . S
O105 Zn101 2.035 . S
O105 C110 1.258 . S
O106 C99 1.247 . S
O106 Zn103 2.028 . S
O107 C99 1.258 . S
O107 Zn101 2.035 . S
O108 Zn101 2.028 . S
O108 C111 1.247 . S
O109 Zn103 2.035 . S
O109 C111 1.258 . S
C110 O104 1.247 . S
C110 O105 1.258 . S
C111 O108 1.247 . S
C111 O109 1.258 . S
C112 O114 1.247 . S
C112 O116 1.258 . S
C113 O120 1.247 . S
C113 O121 1.258 . S
O114 C112 1.247 . S
O114 Zn115 2.028 . S
Zn115 O114 2.028 . S
Zn115 O119 2.035 . S
Zn115 O121 2.035 . S
Zn115 O122 2.028 . S
O116 C112 1.258 . S
O116 Zn117 2.035 . S
Zn117 O116 2.035 . S
Zn117 O118 2.028 . S
Zn117 O120 2.028 . S
Zn117 O123 2.035 . S
O118 Zn117 2.028 . S
O118 C124 1.247 . S
O119 Zn115 2.035 . S
O119 C124 1.258 . S
O120 C113 1.247 . S
O120 Zn117 2.028 . S
O121 C113 1.258 . S
O121 Zn115 2.035 . S
O122 Zn115 2.028 . S
O122 C125 1.247 . S
O123 Zn117 2.035 . S
O123 C125 1.258 . S
C124 O118 1.247 . S
C124 O119 1.258 . S
C125 O122 1.247 . S
C125 O123 1.258 . S
C126 O128 1.247 . S
C126 O130 1.258 . S
C127 O134 1.247 . S
C127 O135 1.258 . S
O128 C126 1.247 . S
O128 Zn129 2.028 . S
Zn129 O128 2.028 . S
Zn129 O133 2.035 . S
Zn129 O135 2.035 . S
Zn129 O136 2.028 . S
O130 C126 1.258 . S
O130 Zn131 2.035 . S
Zn131 O130 2.035 . S
Zn131 O132 2.028 . S
Zn131 O134 2.028 . S
Zn131 O137 2.035 . S
O132 Zn131 2.028 . S
O132 C138 1.247 . S
O133 Zn129 2.035 . S
O133 C138 1.258 . S
O134 C127 1.247 . S
O134 Zn131 2.028 . S
O135 C127 1.258 . S
O135 Zn129 2.035 . S
O136 Zn129 2.028 . S
O136 C139 1.247 . S
O137 Zn131 2.035 . S
O137 C139 1.258 . S
C138 O132 1.247 . S
C138 O133 1.258 . S
C139 O136 1.247 . S
C139 O137 1.258 . S
C140 O142 1.247 . S
C140 O144 1.258 . S
C141 O148 1.247 . S
C141 O149 1.258 . S
O142 C140 1.247 . S
O142 Zn143 2.028 . S
Zn143 O142 2.028 . S
Zn143 O147 2.035 . S
Zn143 O149 2.035 . S
Zn143 O150 2.028 . S
O144 C140 1.258 . S
O144 Zn145 2.035 . S
Zn145 O144 2.035 . S
Zn145 O146 2.028 . S
Zn145 O148 2.028 . S
Zn145 O151 2.035 . S
O146 Zn145 2.028 . S
O146 C152 1.247 . S
O147 Zn143 2.035 . S
O147 C152 1.258 . S
O148 C141 1.247 . S
O148 Zn145 2.028 . S
O149 C141 1.258 . S
O149 Zn143 2.035 . S
O150 Zn143 2.028 . S
O150 C153 1.247 . S
O151 Zn145 2.035 . S
O151 C153 1.258 . S
C152 O146 1.247 . S
C152 O147 1.258 . S
C153 O150 1.247 . S
C153 O151 1.258 . S
C154 O156 1.247 . S
C154 O158 1.258 . S
C155 O162 1.247 . S
C155 O163 1.258 . S
O156 C154 1.247 . S
O156 Zn157 2.028 . S
Zn157 O156 2.028 . S
Zn157 O161 2.035 . S
Zn157 O163 2.035 . S
Zn157 O164 2.028 . S
O158 C154 1.258 . S
O158 Zn159 2.035 . S
Zn159 O158 2.035 . S
Zn159 O160 2.028 . S
Zn159 O162 2.028 . S
Zn159 O165 2.035 . S
O160 Zn159 2.028 . S
O160 C166 1.247 . S
O161 Zn157 2.035 . S
O161 C166 1.258 . S
O162 C155 1.247 . S
O162 Zn159 2.028 . S
O163 C155 1.258 . S
O163 Zn157 2.035 . S
O164 Zn157 2.028 . S
O164 C167 1.247 . S
O165 Zn159 2.035 . S
O165 C167 1.258 . S
C166 O160 1.247 . S
C166 O161 1.258 . S
C167 O164 1.247 . S
C167 O165 1.258 . S
C168 O170 1.247 . S
C168 O172 1.258 . S
C169 O176 1.247 . S
C169 O177 1.258 . S
O170 C168 1.247 . S
O170 Zn171 2.028 . S
Zn171 O170 2.028 . S
Zn171 O175 2.035 . S
Zn171 O177 2.035 . S
Zn171 O178 2.028 . S
O172 C168 1.258 . S
O172 Zn173 2.035 . S
Zn173 O172 2.035 . S
Zn173 O174 2.028 . S
Zn173 O176 2.028 . S
Zn173 O179 2.035 . S
O174 Zn173 2.028 . S
O174 C180 1.247 . S
O175 Zn171 2.035 . S
O175 C180 1.258 . S
O176 C169 1.247 . S
O176 Zn173 2.028 . S
O177 C169 1.258 . S
O177 Zn171 2.035 . S
O178 Zn171 2.028 . S
O178 C181 1.247 . S
O179 Zn173 2.035 . S
O179 C181 1.258 . S
C180 O174 1.247 . S
C180 O175 1.258 . S
C181 O178 1.247 . S
C181 O179 1.258 . S
C182 O184 1.247 . S
C182 O186 1.258 . S
C183 O190 1.247 . S
C183 O191 1.258 . S
O184 C182 1.247 . S
O184 Zn185 2.028 . S
Zn185 O184 2.028 . S
Zn185 O189 2.035 . S
Zn185 O191 2.035 . S
Zn185 O192 2.028 . S
O186 C182 1.258 . S
O186 Zn187 2.035 . S
Zn187 O186 2.035 . S
Zn187 O188 2.028 . S
Zn187 O190 2.028 . S
Zn187 O193 2.035 . S
O188 Zn187 2.028 . S
O188 C194 1.247 . S
O189 Zn185 2.035 . S
O189 C194 1.258 . S
O190 C183 1.247 . S
O190 Zn187 2.028 . S
O191 C183 1.258 . S
O191 Zn185 2.035 . S
O192 Zn185 2.028 . S
O192 C195 1.247 . S
O193 Zn187 2.035 . S
O193 C195 1.258 . S
C194 O188 1.247 . S
C194 O189 1.258 . S
C195 O192 1.247 . S
C195 O193 1.258 . S
C196 O198 1.247 . S
C196 O200 1.258 . S
C197 O204 1.247 . S
C197 O205 1.258 . S
O198 C196 1.247 . S
O198 Zn199 2.028 . S
Zn199 O198 2.028 . S
Zn199 O203 2.035 . S
Zn199 O205 2.035 . S
Zn199 O206 2.028 . S
O200 C196 1.258 . S
O200 Zn201 2.035 . S
Zn201 O200 2.035 . S
Zn201 O202 2.028 . S
Zn201 O204 2.028 . S
Zn201 O207 2.035 . S
O202 Zn201 2.028 . S
O202 C208 1.247 . S
O203 Zn199 2.035 . S
O203 C208 1.258 . S
O204 C197 1.247 . S
O204 Zn201 2.028 . S
O205 C197 1.258 . S
O205 Zn199 2.035 . S
O206 Zn199 2.028 . S
O206 C209 1.247 . S
O207 Zn201 2.035 . S
O207 C209 1.258 . S
C208 O202 1.247 . S
C208 O203 1.258 . S
C209 O206 1.247 . S
C209 O207 1.258 . S
C210 O212 1.247 . S
C210 O214 1.258 . S
C211 O218 1.247 . S
C211 O219 1.258 . S
O212 C210 1.247 . S
O212 Zn213 2.028 . S
Zn213 O212 2.028 . S
Zn213 O217 2.035 . S
Zn213 O219 2.035 . S
Zn213 O220 2.028 . S
O214 C210 1.258 . S
O214 Zn215 2.035 . S
Zn215 O214 2.035 . S
Zn215 O216 2.028 . S
Zn215 O218 2.028 . S
Zn215 O221 2.035 . S
O216 Zn215 2.028 . S
O216 C222 1.247 . S
O217 Zn213 2.035 . S
O217 C222 1.258 . S
O218 C211 1.247 . S
O218 Zn215 2.028 . S
O219 C211 1.258 . S
O219 Zn213 2.035 . S
O220 Zn213 2.028 . S
O220 C223 1.247 . S
O221 Zn215 2.035 . S
O221 C223 1.258 . S
C222 O216 1.247 . S
C222 O217 1.258 . S
C223 O220 1.247 . S
C223 O221 1.258 . S
H224 C236 0.930 . S
H225 C238 0.930 . S
H226 C239 0.930 . S
H227 C243 0.959 . S
H228 C243 0.959 . S
H229 C243 0.961 . S
H230 C244 0.960 . S
H231 C244 0.961 . S
H232 C244 0.959 . S
H233 C247 0.929 . S
H234 C248 0.931 . S
H235 C250 0.930 . S
C236 H224 0.930 . S
C236 C237 1.399 . S
C236 C241 1.399 . S
C237 C236 1.399 . S
C237 C238 1.376 . S
C238 H225 0.930 . S
C238 C237 1.376 . S
C238 C239 1.388 . S
C239 H226 0.930 . S
C239 C238 1.388 . S
C239 C240 1.390 . S
C240 C239 1.390 . S
C240 C241 1.394 . S
C240 C246 1.465 . S
C241 C236 1.399 . S
C241 C240 1.394 . S
C241 C242 1.516 . S
C242 C241 1.516 . S
C242 C243 1.502 . S
C242 C244 1.561 . S
C242 C245 1.526 . S
C243 H227 0.959 . S
C243 H228 0.959 . S
C243 H229 0.961 . S
C243 C242 1.502 . S
C244 H230 0.960 . S
C244 H231 0.961 . S
C244 H232 0.959 . S
C244 C242 1.561 . S
C245 C242 1.526 . S
C245 C246 1.396 . S
C245 C250 1.390 . S
C246 C240 1.465 . S
C246 C245 1.396 . S
C246 C247 1.399 . S
C247 H233 0.929 . S
C247 C246 1.399 . S
C247 C248 1.385 . S
C248 H234 0.931 . S
C248 C247 1.385 . S
C248 C249 1.389 . S
C249 C248 1.389 . S
C249 C250 1.387 . S
C250 H235 0.930 . S
C250 C245 1.390 . S
C250 C249 1.387 . S
H251 C263 0.930 . S
H252 C265 0.930 . S
H253 C266 0.930 . S
H254 C270 0.959 . S
H255 C270 0.959 . S
H256 C270 0.961 . S
H257 C271 0.960 . S
H258 C271 0.961 . S
H259 C271 0.959 . S
H260 C274 0.929 . S
H261 C275 0.931 . S
H262 C277 0.930 . S
C263 H251 0.930 . S
C263 C264 1.399 . S
C263 C268 1.399 . S
C264 C263 1.399 . S
C264 C265 1.376 . S
C265 H252 0.930 . S
C265 C264 1.376 . S
C265 C266 1.388 . S
C266 H253 0.930 . S
C266 C265 1.388 . S
C266 C267 1.390 . S
C267 C266 1.390 . S
C267 C268 1.394 . S
C267 C273 1.465 . S
C268 C263 1.399 . S
C268 C267 1.394 . S
C268 C269 1.516 . S
C269 C268 1.516 . S
C269 C270 1.502 . S
C269 C271 1.561 . S
C269 C272 1.526 . S
C270 H254 0.959 . S
C270 H255 0.959 . S
C270 H256 0.961 . S
C270 C269 1.502 . S
C271 H257 0.960 . S
C271 H258 0.961 . S
C271 H259 0.959 . S
C271 C269 1.561 . S
C272 C269 1.526 . S
C272 C273 1.396 . S
C272 C277 1.390 . S
C273 C267 1.465 . S
C273 C272 1.396 . S
C273 C274 1.399 . S
C274 H260 0.929 . S
C274 C273 1.399 . S
C274 C275 1.385 . S
C275 H261 0.931 . S
C275 C274 1.385 . S
C275 C276 1.389 . S
C276 C275 1.389 . S
C276 C277 1.387 . S
C277 H262 0.930 . S
C277 C272 1.390 . S
C277 C276 1.387 . S
H278 C290 0.930 . S
H279 C292 0.930 . S
H280 C293 0.930 . S
H281 C297 0.959 . S
H282 C297 0.959 . S
H283 C297 0.961 . S
H284 C298 0.960 . S
H285 C298 0.961 . S
H286 C298 0.959 . S
H287 C301 0.929 . S
H288 C302 0.931 . S
H289 C304 0.930 . S
C290 H278 0.930 . S
C290 C291 1.399 . S
C290 C295 1.399 . S
C291 C290 1.399 . S
C291 C292 1.376 . S
C292 H279 0.930 . S
C292 C291 1.376 . S
C292 C293 1.388 . S
C293 H280 0.930 . S
C293 C292 1.388 . S
C293 C294 1.390 . S
C294 C293 1.390 . S
C294 C295 1.394 . S
C294 C300 1.465 . S
C295 C290 1.399 . S
C295 C294 1.394 . S
C295 C296 1.516 . S
C296 C295 1.516 . S
C296 C297 1.502 . S
C296 C298 1.561 . S
C296 C299 1.526 . S
C297 H281 0.959 . S
C297 H282 0.959 . S
C297 H283 0.961 . S
C297 C296 1.502 . S
C298 H284 0.960 . S
C298 H285 0.961 . S
C298 H286 0.959 . S
C298 C296 1.561 . S
C299 C296 1.526 . S
C299 C300 1.396 . S
C299 C304 1.390 . S
C300 C294 1.465 . S
C300 C299 1.396 . S
C300 C301 1.399 . S
C301 H287 0.929 . S
C301 C300 1.399 . S
C301 C302 1.385 . S
C302 H288 0.931 . S
C302 C301 1.385 . S
C302 C303 1.389 . S
C303 C302 1.389 . S
C303 C304 1.387 . S
C304 H289 0.930 . S
C304 C299 1.390 . S
C304 C303 1.387 . S
H305 C317 0.930 . S
H306 C319 0.930 . S
H307 C320 0.930 . S
H308 C324 0.959 . S
H309 C324 0.959 . S
H310 C324 0.961 . S
H311 C325 0.960 . S
H312 C325 0.961 . S
H313 C325 0.959 . S
H314 C328 0.929 . S
H315 C329 0.931 . S
H316 C331 0.930 . S
C317 H305 0.930 . S
C317 C318 1.399 . S
C317 C322 1.399 . S
C318 C317 1.399 . S
C318 C319 1.376 . S
C319 H306 0.930 . S
C319 C318 1.376 . S
C319 C320 1.388 . S
C320 H307 0.930 . S
C320 C319 1.388 . S
C320 C321 1.390 . S
C321 C320 1.390 . S
C321 C322 1.394 . S
C321 C327 1.465 . S
C322 C317 1.399 . S
C322 C321 1.394 . S
C322 C323 1.516 . S
C323 C322 1.516 . S
C323 C324 1.502 . S
C323 C325 1.561 . S
C323 C326 1.526 . S
C324 H308 0.959 . S
C324 H309 0.959 . S
C324 H310 0.961 . S
C324 C323 1.502 . S
C325 H311 0.960 . S
C325 H312 0.961 . S
C325 H313 0.959 . S
C325 C323 1.561 . S
C326 C323 1.526 . S
C326 C327 1.396 . S
C326 C331 1.390 . S
C327 C321 1.465 . S
C327 C326 1.396 . S
C327 C328 1.399 . S
C328 H314 0.929 . S
C328 C327 1.399 . S
C328 C329 1.385 . S
C329 H315 0.931 . S
C329 C328 1.385 . S
C329 C330 1.389 . S
C330 C329 1.389 . S
C330 C331 1.387 . S
C331 H316 0.930 . S
C331 C326 1.390 . S
C331 C330 1.387 . S
H332 C344 0.930 . S
H333 C346 0.930 . S
H334 C347 0.930 . S
H335 C351 0.959 . S
H336 C351 0.959 . S
H337 C351 0.961 . S
H338 C352 0.960 . S
H339 C352 0.961 . S
H340 C352 0.959 . S
H341 C355 0.929 . S
H342 C356 0.931 . S
H343 C358 0.930 . S
C344 H332 0.930 . S
C344 C345 1.399 . S
C344 C349 1.399 . S
C345 C344 1.399 . S
C345 C346 1.376 . S
C346 H333 0.930 . S
C346 C345 1.376 . S
C346 C347 1.388 . S
C347 H334 0.930 . S
C347 C346 1.388 . S
C347 C348 1.390 . S
C348 C347 1.390 . S
C348 C349 1.394 . S
C348 C354 1.465 . S
C349 C344 1.399 . S
C349 C348 1.394 . S
C349 C350 1.516 . S
C350 C349 1.516 . S
C350 C351 1.502 . S
C350 C352 1.561 . S
C350 C353 1.526 . S
C351 H335 0.959 . S
C351 H336 0.959 . S
C351 H337 0.961 . S
C351 C350 1.502 . S
C352 H338 0.960 . S
C352 H339 0.961 . S
C352 H340 0.959 . S
C352 C350 1.561 . S
C353 C350 1.526 . S
C353 C354 1.396 . S
C353 C358 1.390 . S
C354 C348 1.465 . S
C354 C353 1.396 . S
C354 C355 1.399 . S
C355 H341 0.929 . S
C355 C354 1.399 . S
C355 C356 1.385 . S
C356 H342 0.931 . S
C356 C355 1.385 . S
C356 C357 1.389 . S
C357 C356 1.389 . S
C357 C358 1.387 . S
C358 H343 0.930 . S
C358 C353 1.390 . S
C358 C357 1.387 . S
H359 C371 0.930 . S
H360 C373 0.930 . S
H361 C374 0.930 . S
H362 C378 0.959 . S
H363 C378 0.959 . S
H364 C378 0.961 . S
H365 C379 0.960 . S
H366 C379 0.961 . S
H367 C379 0.959 . S
H368 C382 0.929 . S
H369 C383 0.931 . S
H370 C385 0.930 . S
C371 H359 0.930 . S
C371 C372 1.399 . S
C371 C376 1.399 . S
C372 C371 1.399 . S
C372 C373 1.376 . S
C373 H360 0.930 . S
C373 C372 1.376 . S
C373 C374 1.388 . S
C374 H361 0.930 . S
C374 C373 1.388 . S
C374 C375 1.390 . S
C375 C374 1.390 . S
C375 C376 1.394 . S
C375 C381 1.465 . S
C376 C371 1.399 . S
C376 C375 1.394 . S
C376 C377 1.516 . S
C377 C376 1.516 . S
C377 C378 1.502 . S
C377 C379 1.561 . S
C377 C380 1.526 . S
C378 H362 0.959 . S
C378 H363 0.959 . S
C378 H364 0.961 . S
C378 C377 1.502 . S
C379 H365 0.960 . S
C379 H366 0.961 . S
C379 H367 0.959 . S
C379 C377 1.561 . S
C380 C377 1.526 . S
C380 C381 1.396 . S
C380 C385 1.390 . S
C381 C375 1.465 . S
C381 C380 1.396 . S
C381 C382 1.399 . S
C382 H368 0.929 . S
C382 C381 1.399 . S
C382 C383 1.385 . S
C383 H369 0.931 . S
C383 C382 1.385 . S
C383 C384 1.389 . S
C384 C383 1.389 . S
C384 C385 1.387 . S
C385 H370 0.930 . S
C385 C380 1.390 . S
C385 C384 1.387 . S
H386 C398 0.930 . S
H387 C400 0.930 . S
H388 C401 0.930 . S
H389 C405 0.959 . S
H390 C405 0.959 . S
H391 C405 0.961 . S
H392 C406 0.960 . S
H393 C406 0.961 . S
H394 C406 0.959 . S
H395 C409 0.929 . S
H396 C410 0.931 . S
H397 C412 0.930 . S
C398 H386 0.930 . S
C398 C399 1.399 . S
C398 C403 1.399 . S
C399 C398 1.399 . S
C399 C400 1.376 . S
C400 H387 0.930 . S
C400 C399 1.376 . S
C400 C401 1.388 . S
C401 H388 0.930 . S
C401 C400 1.388 . S
C401 C402 1.390 . S
C402 C401 1.390 . S
C402 C403 1.394 . S
C402 C408 1.465 . S
C403 C398 1.399 . S
C403 C402 1.394 . S
C403 C404 1.516 . S
C404 C403 1.516 . S
C404 C405 1.502 . S
C404 C406 1.561 . S
C404 C407 1.526 . S
C405 H389 0.959 . S
C405 H390 0.959 . S
C405 H391 0.961 . S
C405 C404 1.502 . S
C406 H392 0.960 . S
C406 H393 0.961 . S
C406 H394 0.959 . S
C406 C404 1.561 . S
C407 C404 1.526 . S
C407 C408 1.396 . S
C407 C412 1.390 . S
C408 C402 1.465 . S
C408 C407 1.396 . S
C408 C409 1.399 . S
C409 H395 0.929 . S
C409 C408 1.399 . S
C409 C410 1.385 . S
C410 H396 0.931 . S
C410 C409 1.385 . S
C410 C411 1.389 . S
C411 C410 1.389 . S
C411 C412 1.387 . S
C412 H397 0.930 . S
C412 C407 1.390 . S
C412 C411 1.387 . S
H413 C425 0.930 . S
H414 C427 0.930 . S
H415 C428 0.930 . S
H416 C432 0.959 . S
H417 C432 0.959 . S
H418 C432 0.961 . S
H419 C433 0.960 . S
H420 C433 0.961 . S
H421 C433 0.959 . S
H422 C436 0.929 . S
H423 C437 0.931 . S
H424 C439 0.930 . S
C425 H413 0.930 . S
C425 C426 1.399 . S
C425 C430 1.399 . S
C426 C425 1.399 . S
C426 C427 1.376 . S
C427 H414 0.930 . S
C427 C426 1.376 . S
C427 C428 1.388 . S
C428 H415 0.930 . S
C428 C427 1.388 . S
C428 C429 1.390 . S
C429 C428 1.390 . S
C429 C430 1.394 . S
C429 C435 1.465 . S
C430 C425 1.399 . S
C430 C429 1.394 . S
C430 C431 1.516 . S
C431 C430 1.516 . S
C431 C432 1.502 . S
C431 C433 1.561 . S
C431 C434 1.526 . S
C432 H416 0.959 . S
C432 H417 0.959 . S
C432 H418 0.961 . S
C432 C431 1.502 . S
C433 H419 0.960 . S
C433 H420 0.961 . S
C433 H421 0.959 . S
C433 C431 1.561 . S
C434 C431 1.526 . S
C434 C435 1.396 . S
C434 C439 1.390 . S
C435 C429 1.465 . S
C435 C434 1.396 . S
C435 C436 1.399 . S
C436 H422 0.929 . S
C436 C435 1.399 . S
C436 C437 1.385 . S
C437 H423 0.931 . S
C437 C436 1.385 . S
C437 C438 1.389 . S
C438 C437 1.389 . S
C438 C439 1.387 . S
C439 H424 0.930 . S
C439 C434 1.390 . S
C439 C438 1.387 . S
H440 C452 0.930 . S
H441 C454 0.930 . S
H442 C455 0.930 . S
H443 C459 0.959 . S
H444 C459 0.959 . S
H445 C459 0.961 . S
H446 C460 0.960 . S
H447 C460 0.961 . S
H448 C460 0.959 1_455 S
H449 C463 0.929 . S
H450 C464 0.922 1_455 S
H451 C466 0.930 . S
C452 H440 0.930 . S
C452 C453 1.399 . S
C452 C457 1.399 . S
C453 C452 1.399 . S
C453 C454 1.376 . S
C454 H441 0.930 . S
C454 C453 1.376 . S
C454 C455 1.388 . S
C455 H442 0.930 . S
C455 C454 1.388 . S
C455 C456 1.390 . S
C456 C455 1.390 . S
C456 C457 1.394 . S
C456 C462 1.465 . S
C457 C452 1.399 . S
C457 C456 1.394 . S
C457 C458 1.516 . S
C458 C457 1.516 . S
C458 C459 1.502 . S
C458 C460 1.561 . S
C458 C461 1.526 . S
C459 H443 0.959 . S
C459 H444 0.959 . S
C459 H445 0.961 . S
C459 C458 1.502 . S
C460 H446 0.960 . S
C460 H447 0.961 . S
C460 H448 0.959 1_655 S
C460 C458 1.561 . S
C461 C458 1.526 . S
C461 C462 1.396 . S
C461 C466 1.390 . S
C462 C456 1.465 . S
C462 C461 1.396 . S
C462 C463 1.399 . S
C463 H449 0.929 . S
C463 C462 1.399 . S
C463 C464 1.392 . S
C464 H450 0.922 1_655 S
C464 C463 1.392 . S
C464 C465 1.392 . S
C465 C464 1.392 . S
C465 C466 1.387 . S
C466 H451 0.930 . S
C466 C461 1.390 . S
C466 C465 1.387 . S
H467 C479 0.930 . S
H468 C481 0.930 . S
H469 C482 0.930 . S
H470 C486 0.959 . S
H471 C486 0.959 . S
H472 C486 0.961 . S
H473 C487 0.960 . S
H474 C487 0.961 . S
H475 C487 0.959 . S
H476 C490 0.928 1_545 S
H477 C491 0.931 . S
H478 C493 0.930 . S
C479 H467 0.930 . S
C479 C480 1.399 . S
C479 C484 1.399 . S
C480 C479 1.399 . S
C480 C481 1.376 1_565 S
C481 H468 0.930 . S
C481 C480 1.376 1_545 S
C481 C482 1.388 . S
C482 H469 0.930 . S
C482 C481 1.388 . S
C482 C483 1.390 1_545 S
C483 C482 1.390 1_565 S
C483 C484 1.394 . S
C483 C489 1.465 . S
C484 C479 1.399 . S
C484 C483 1.394 . S
C484 C485 1.516 . S
C485 C484 1.516 . S
C485 C486 1.502 . S
C485 C487 1.561 . S
C485 C488 1.526 . S
C486 H470 0.959 . S
C486 H471 0.959 . S
C486 H472 0.961 . S
C486 C485 1.502 . S
C487 H473 0.960 . S
C487 H474 0.961 . S
C487 H475 0.959 . S
C487 C485 1.561 . S
C488 C485 1.526 . S
C488 C489 1.396 . S
C488 C493 1.390 . S
C489 C483 1.465 . S
C489 C488 1.396 . S
C489 C490 1.400 1_655 S
C490 H476 0.928 1_565 S
C490 C489 1.400 1_455 S
C490 C491 1.384 . S
C491 H477 0.931 . S
C491 C490 1.384 . S
C491 C492 1.389 1_455 S
C492 C491 1.389 1_655 S
C492 C493 1.387 . S
C493 H478 0.930 . S
C493 C488 1.390 . S
C493 C492 1.387 . S
H494 C506 0.930 . S
H495 C508 0.930 . S
H496 C509 0.930 . S
H497 C513 0.959 . S
H498 C513 0.959 . S
H499 C513 0.961 . S
H500 C514 0.960 . S
H501 C514 0.961 . S
H502 C514 0.959 . S
H503 C517 0.929 1_545 S
H504 C518 0.931 . S
H505 C520 0.930 . S
C506 H494 0.930 . S
C506 C507 1.399 . S
C506 C511 1.399 . S
C507 C506 1.399 . S
C507 C508 1.376 1_565 S
C508 H495 0.930 . S
C508 C507 1.376 1_545 S
C508 C509 1.388 . S
C509 H496 0.930 . S
C509 C508 1.388 . S
C509 C510 1.390 1_545 S
C510 C509 1.390 1_565 S
C510 C511 1.394 . S
C510 C516 1.465 . S
C511 C506 1.399 . S
C511 C510 1.394 . S
C511 C512 1.516 . S
C512 C511 1.516 . S
C512 C513 1.502 . S
C512 C514 1.561 . S
C512 C515 1.526 . S
C513 H497 0.959 . S
C513 H498 0.959 . S
C513 H499 0.961 . S
C513 C512 1.502 . S
C514 H500 0.960 . S
C514 H501 0.961 . S
C514 H502 0.959 . S
C514 C512 1.561 . S
C515 C512 1.526 . S
C515 C516 1.396 . S
C515 C520 1.390 . S
C516 C510 1.465 . S
C516 C515 1.396 . S
C516 C517 1.399 . S
C517 H503 0.929 1_565 S
C517 C516 1.399 . S
C517 C518 1.385 . S
C518 H504 0.931 . S
C518 C517 1.385 . S
C518 C519 1.389 . S
C519 C518 1.389 . S
C519 C520 1.387 . S
C520 H505 0.930 . S
C520 C515 1.390 . S
C520 C519 1.387 . S
H521 C533 0.930 . S
H522 C535 0.930 . S
H523 C536 0.930 . S
H524 C540 0.959 . S
H525 C540 0.959 . S
H526 C540 0.961 . S
H527 C541 0.960 . S
H528 C541 0.961 . S
H529 C541 0.959 . S
H530 C544 0.929 . S
H531 C545 0.931 . S
H532 C547 0.930 . S
C533 H521 0.930 . S
C533 C534 1.399 . S
C533 C538 1.399 . S
C534 C533 1.399 . S
C534 C535 1.376 . S
C535 H522 0.930 . S
C535 C534 1.376 . S
C535 C536 1.388 . S
C536 H523 0.930 . S
C536 C535 1.388 . S
C536 C537 1.390 . S
C537 C536 1.390 . S
C537 C538 1.394 . S
C537 C543 1.465 . S
C538 C533 1.399 . S
C538 C537 1.394 . S
C538 C539 1.516 . S
C539 C538 1.516 . S
C539 C540 1.502 . S
C539 C541 1.561 . S
C539 C542 1.526 . S
C540 H524 0.959 . S
C540 H525 0.959 . S
C540 H526 0.961 . S
C540 C539 1.502 . S
C541 H527 0.960 . S
C541 H528 0.961 . S
C541 H529 0.959 . S
C541 C539 1.561 . S
C542 C539 1.526 . S
C542 C543 1.396 . S
C542 C547 1.390 . S
C543 C537 1.465 . S
C543 C542 1.396 . S
C543 C544 1.399 . S
C544 H530 0.929 . S
C544 C543 1.399 . S
C544 C545 1.385 . S
C545 H531 0.931 . S
C545 C544 1.385 . S
C545 C546 1.389 . S
C546 C545 1.389 . S
C546 C547 1.387 . S
C547 H532 0.930 . S
C547 C542 1.390 . S
C547 C546 1.387 . S
H548 C560 0.930 . S
H549 C562 0.930 . S
H550 C563 0.930 . S
H551 C567 0.959 1_455 S
H552 C567 0.959 . S
H553 C567 0.961 . S
H554 C568 0.960 . S
H555 C568 0.961 . S
H556 C568 0.959 . S
H557 C571 0.929 . S
H558 C572 0.931 . S
H559 C574 0.930 . S
C560 H548 0.930 . S
C560 C561 1.399 . S
C560 C565 1.399 . S
C561 C560 1.399 . S
C561 C562 1.376 . S
C562 H549 0.930 . S
C562 C561 1.376 . S
C562 C563 1.388 . S
C563 H550 0.930 . S
C563 C562 1.388 . S
C563 C564 1.390 . S
C564 C563 1.390 . S
C564 C565 1.394 . S
C564 C570 1.465 . S
C565 C560 1.399 . S
C565 C564 1.394 . S
C565 C566 1.516 . S
C566 C565 1.516 . S
C566 C567 1.502 1_455 S
C566 C568 1.561 1_455 S
C566 C569 1.526 . S
C567 H551 0.959 1_655 S
C567 H552 0.959 . S
C567 H553 0.961 . S
C567 C566 1.502 1_655 S
C568 H554 0.960 . S
C568 H555 0.961 . S
C568 H556 0.959 . S
C568 C566 1.561 1_655 S
C569 C566 1.526 . S
C569 C570 1.396 . S
C569 C574 1.390 1_455 S
C570 C564 1.465 . S
C570 C569 1.396 . S
C570 C571 1.399 . S
C571 H557 0.929 . S
C571 C570 1.399 . S
C571 C572 1.385 . S
C572 H558 0.931 . S
C572 C571 1.385 . S
C572 C573 1.389 . S
C573 C572 1.389 . S
C573 C574 1.387 1_455 S
C574 H559 0.930 . S
C574 C569 1.390 1_655 S
C574 C573 1.387 1_655 S
H575 C587 0.930 . S
H576 C589 0.930 . S
H577 C590 0.936 . S
H578 C594 0.959 . S
H579 C594 0.959 . S
H580 C594 0.961 . S
H581 C595 0.960 . S
H582 C595 0.961 . S
H583 C595 0.959 . S
H584 C598 0.929 . S
H585 C599 0.931 . S
H586 C601 0.930 1_655 S
C587 H575 0.930 . S
C587 C588 1.399 . S
C587 C592 1.399 . S
C588 C587 1.399 . S
C588 C589 1.376 1_545 S
C589 H576 0.930 . S
C589 C588 1.376 1_565 S
C589 C590 1.392 . S
C590 H577 0.936 . S
C590 C589 1.392 . S
C590 C591 1.380 1_565 S
C591 C590 1.380 1_545 S
C591 C592 1.394 . S
C591 C597 1.465 . S
C592 C587 1.399 . S
C592 C591 1.394 . S
C592 C593 1.516 . S
C593 C592 1.516 . S
C593 C594 1.502 1_455 S
C593 C595 1.561 . S
C593 C596 1.526 . S
C594 H578 0.959 . S
C594 H579 0.959 . S
C594 H580 0.961 . S
C594 C593 1.502 1_655 S
C595 H581 0.960 . S
C595 H582 0.961 . S
C595 H583 0.959 . S
C595 C593 1.561 . S
C596 C593 1.526 . S
C596 C597 1.396 . S
C596 C601 1.390 . S
C597 C591 1.465 . S
C597 C596 1.396 . S
C597 C598 1.399 . S
C598 H584 0.929 . S
C598 C597 1.399 . S
C598 C599 1.385 . S
C599 H585 0.931 . S
C599 C598 1.385 . S
C599 C600 1.389 . S
C600 C599 1.389 . S
C600 C601 1.387 . S
C601 H586 0.930 1_455 S
C601 C596 1.390 . S
C601 C600 1.387 . S
H602 C614 0.930 . S
H603 C616 0.930 . S
H604 C617 0.930 . S
H605 C621 0.959 . S
H606 C621 0.959 1_565 S
H607 C621 0.961 . S
H608 C622 0.960 . S
H609 C622 0.961 . S
H610 C622 0.959 . S
H611 C625 0.929 . S
H612 C626 0.931 . S
H613 C628 0.930 . S
C614 H602 0.930 . S
C614 C615 1.399 . S
C614 C619 1.399 . S
C615 C614 1.399 . S
C615 C616 1.376 . S
C616 H603 0.930 . S
C616 C615 1.376 . S
C616 C617 1.388 . S
C617 H604 0.930 . S
C617 C616 1.388 . S
C617 C618 1.390 . S
C618 C617 1.390 . S
C618 C619 1.394 . S
C618 C624 1.465 . S
C619 C614 1.399 . S
C619 C618 1.394 . S
C619 C620 1.516 . S
C620 C619 1.516 . S
C620 C621 1.502 . S
C620 C622 1.561 1_545 S
C620 C623 1.526 . S
C621 H605 0.959 . S
C621 H606 0.959 1_545 S
C621 H607 0.961 . S
C621 C620 1.502 . S
C622 H608 0.960 . S
C622 H609 0.961 . S
C622 H610 0.959 . S
C622 C620 1.561 1_565 S
C623 C620 1.526 . S
C623 C624 1.396 . S
C623 C628 1.390 1_545 S
C624 C618 1.465 . S
C624 C623 1.396 . S
C624 C625 1.399 . S
C625 H611 0.929 . S
C625 C624 1.399 . S
C625 C626 1.385 . S
C626 H612 0.931 . S
C626 C625 1.385 . S
C626 C627 1.389 . S
C627 C626 1.389 . S
C627 C628 1.387 1_545 S
C628 H613 0.930 . S
C628 C623 1.390 1_565 S
C628 C627 1.387 1_565 S
H629 C641 0.930 . S
H630 C643 0.930 . S
H631 C644 0.930 . S
H632 C648 0.959 . S
H633 C648 0.959 . S
H634 C648 0.961 . S
H635 C649 0.960 . S
H636 C649 0.961 . S
H637 C649 0.959 . S
H638 C652 0.929 . S
H639 C653 0.931 . S
H640 C655 0.930 . S
C641 H629 0.930 . S
C641 C642 1.399 . S
C641 C646 1.399 . S
C642 C641 1.399 . S
C642 C643 1.376 . S
C643 H630 0.930 . S
C643 C642 1.376 . S
C643 C644 1.388 . S
C644 H631 0.930 . S
C644 C643 1.388 . S
C644 C645 1.390 . S
C645 C644 1.390 . S
C645 C646 1.394 . S
C645 C651 1.465 . S
C646 C641 1.399 . S
C646 C645 1.394 . S
C646 C647 1.516 . S
C647 C646 1.516 . S
C647 C648 1.502 . S
C647 C649 1.561 . S
C647 C650 1.526 . S
C648 H632 0.959 . S
C648 H633 0.959 . S
C648 H634 0.961 . S
C648 C647 1.502 . S
C649 H635 0.960 . S
C649 H636 0.961 . S
C649 H637 0.959 . S
C649 C647 1.561 . S
C650 C647 1.526 . S
C650 C651 1.396 . S
C650 C655 1.390 . S
C651 C645 1.465 . S
C651 C650 1.396 . S
C651 C652 1.399 . S
C652 H638 0.929 . S
C652 C651 1.399 . S
C652 C653 1.385 . S
C653 H639 0.931 . S
C653 C652 1.385 . S
C653 C654 1.389 . S
C654 C653 1.389 . S
C654 C655 1.387 . S
C655 H640 0.930 . S
C655 C650 1.390 . S
C655 C654 1.387 . S
H656 C668 0.930 . S
H657 C670 0.930 . S
H658 C671 0.930 . S
H659 C675 0.959 . S
H660 C675 0.959 . S
H661 C675 0.961 . S
H662 C676 0.960 . S
H663 C676 0.961 . S
H664 C676 0.959 . S
H665 C679 0.929 . S
H666 C680 0.931 . S
H667 C682 0.930 . S
C668 H656 0.930 . S
C668 C669 1.399 . S
C668 C673 1.399 . S
C669 C668 1.399 . S
C669 C670 1.376 . S
C670 H657 0.930 . S
C670 C669 1.376 . S
C670 C671 1.388 . S
C671 H658 0.930 . S
C671 C670 1.388 . S
C671 C672 1.390 . S
C672 C671 1.390 . S
C672 C673 1.394 . S
C672 C678 1.465 . S
C673 C668 1.399 . S
C673 C672 1.394 . S
C673 C674 1.516 . S
C674 C673 1.516 . S
C674 C675 1.502 . S
C674 C676 1.561 . S
C674 C677 1.526 . S
C675 H659 0.959 . S
C675 H660 0.959 . S
C675 H661 0.961 . S
C675 C674 1.502 . S
C676 H662 0.960 . S
C676 H663 0.961 . S
C676 H664 0.959 . S
C676 C674 1.561 . S
C677 C674 1.526 . S
C677 C678 1.396 . S
C677 C682 1.390 . S
C678 C672 1.465 . S
C678 C677 1.396 . S
C678 C679 1.399 . S
C679 H665 0.929 . S
C679 C678 1.399 . S
C679 C680 1.385 . S
C680 H666 0.931 . S
C680 C679 1.385 . S
C680 C681 1.389 . S
C681 C680 1.389 . S
C681 C682 1.387 . S
C682 H667 0.930 . S
C682 C677 1.390 . S
C682 C681 1.387 . S
H683 C695 0.930 . S
H684 C697 0.930 . S
H685 C698 0.930 . S
H686 C702 0.959 . S
H687 C702 0.959 . S
H688 C702 0.961 . S
H689 C703 0.960 1_565 S
H690 C703 0.961 1_565 S
H691 C703 0.959 . S
H692 C706 0.929 . S
H693 C707 0.931 . S
H694 C709 0.930 . S
C695 H683 0.930 . S
C695 C696 1.399 . S
C695 C700 1.399 . S
C696 C695 1.399 . S
C696 C697 1.376 . S
C697 H684 0.930 . S
C697 C696 1.376 . S
C697 C698 1.388 . S
C698 H685 0.930 . S
C698 C697 1.388 . S
C698 C699 1.390 . S
C699 C698 1.390 . S
C699 C700 1.394 . S
C699 C705 1.465 . S
C700 C695 1.399 . S
C700 C699 1.394 . S
C700 C701 1.516 . S
C701 C700 1.516 . S
C701 C702 1.502 . S
C701 C703 1.561 . S
C701 C704 1.526 . S
C702 H686 0.959 . S
C702 H687 0.959 . S
C702 H688 0.961 . S
C702 C701 1.502 . S
C703 H689 0.960 1_545 S
C703 H690 0.961 1_545 S
C703 H691 0.959 . S
C703 C701 1.561 . S
C704 C701 1.526 . S
C704 C705 1.396 . S
C704 C709 1.390 . S
C705 C699 1.465 . S
C705 C704 1.396 . S
C705 C706 1.399 . S
C706 H692 0.929 . S
C706 C705 1.399 . S
C706 C707 1.385 . S
C707 H693 0.931 . S
C707 C706 1.385 . S
C707 C708 1.389 . S
C708 C707 1.389 . S
C708 C709 1.387 . S
C709 H694 0.930 . S
C709 C704 1.390 . S
C709 C708 1.387 . S
H710 C722 0.930 . S
H711 C724 0.930 . S
H712 C725 0.930 . S
H713 C729 0.959 . S
H714 C729 0.959 . S
H715 C729 0.961 . S
H716 C730 0.960 . S
H717 C730 0.961 . S
H718 C730 0.959 . S
H719 C733 0.929 . S
H720 C734 0.931 . S
H721 C736 0.930 . S
C722 H710 0.930 . S
C722 C723 1.399 . S
C722 C727 1.399 . S
C723 C722 1.399 . S
C723 C724 1.376 . S
C724 H711 0.930 . S
C724 C723 1.376 . S
C724 C725 1.388 . S
C725 H712 0.930 . S
C725 C724 1.388 . S
C725 C726 1.390 . S
C726 C725 1.390 . S
C726 C727 1.394 . S
C726 C732 1.465 . S
C727 C722 1.399 . S
C727 C726 1.394 . S
C727 C728 1.516 . S
C728 C727 1.516 . S
C728 C729 1.502 . S
C728 C730 1.561 . S
C728 C731 1.526 . S
C729 H713 0.959 . S
C729 H714 0.959 . S
C729 H715 0.961 . S
C729 C728 1.502 . S
C730 H716 0.960 . S
C730 H717 0.961 . S
C730 H718 0.959 . S
C730 C728 1.561 . S
C731 C728 1.526 . S
C731 C732 1.396 . S
C731 C736 1.390 . S
C732 C726 1.465 . S
C732 C731 1.396 . S
C732 C733 1.399 . S
C733 H719 0.929 . S
C733 C732 1.399 . S
C733 C734 1.385 . S
C734 H720 0.931 . S
C734 C733 1.385 . S
C734 C735 1.389 . S
C735 C734 1.389 . S
C735 C736 1.387 . S
C736 H721 0.930 . S
C736 C731 1.390 . S
C736 C735 1.387 . S
H737 C749 0.930 . S
H738 C751 0.930 . S
H739 C752 0.930 . S
H740 C756 0.959 . S
H741 C756 0.959 . S
H742 C756 0.961 . S
H743 C757 0.960 . S
H744 C757 0.961 . S
H745 C757 0.959 . S
H746 C760 0.929 . S
H747 C761 0.931 . S
H748 C763 0.930 . S
C749 H737 0.930 . S
C749 C750 1.399 . S
C749 C754 1.399 . S
C750 C749 1.399 . S
C750 C751 1.376 . S
C751 H738 0.930 . S
C751 C750 1.376 . S
C751 C752 1.388 . S
C752 H739 0.930 . S
C752 C751 1.388 . S
C752 C753 1.390 . S
C753 C752 1.390 . S
C753 C754 1.394 . S
C753 C759 1.465 . S
C754 C749 1.399 . S
C754 C753 1.394 . S
C754 C755 1.516 . S
C755 C754 1.516 . S
C755 C756 1.502 . S
C755 C757 1.561 . S
C755 C758 1.526 . S
C756 H740 0.959 . S
C756 H741 0.959 . S
C756 H742 0.961 . S
C756 C755 1.502 . S
C757 H743 0.960 . S
C757 H744 0.961 . S
C757 H745 0.959 . S
C757 C755 1.561 . S
C758 C755 1.526 . S
C758 C759 1.396 . S
C758 C763 1.390 . S
C759 C753 1.465 . S
C759 C758 1.396 . S
C759 C760 1.399 . S
C760 H746 0.929 . S
C760 C759 1.399 . S
C760 C761 1.385 . S
C761 H747 0.931 . S
C761 C760 1.385 . S
C761 C762 1.389 . S
C762 C761 1.389 . S
C762 C763 1.387 . S
C763 H748 0.930 . S
C763 C758 1.390 . S
C763 C762 1.387 . S
H764 C776 0.930 . S
H765 C778 0.930 . S
H766 C779 0.930 . S
H767 C783 0.959 . S
H768 C783 0.959 1_455 S
H769 C783 0.961 1_455 S
H770 C784 0.960 . S
H771 C784 0.961 . S
H772 C784 0.959 . S
H773 C787 0.929 . S
H774 C788 0.931 . S
H775 C790 0.930 . S
C776 H764 0.930 . S
C776 C777 1.399 . S
C776 C781 1.399 . S
C777 C776 1.399 . S
C777 C778 1.376 . S
C778 H765 0.930 . S
C778 C777 1.376 . S
C778 C779 1.388 . S
C779 H766 0.930 . S
C779 C778 1.388 . S
C779 C780 1.390 . S
C780 C779 1.390 . S
C780 C781 1.394 . S
C780 C786 1.465 . S
C781 C776 1.399 . S
C781 C780 1.394 . S
C781 C782 1.516 . S
C782 C781 1.516 . S
C782 C783 1.502 . S
C782 C784 1.561 . S
C782 C785 1.526 . S
C783 H767 0.959 . S
C783 H768 0.959 1_655 S
C783 H769 0.961 1_655 S
C783 C782 1.502 . S
C784 H770 0.960 . S
C784 H771 0.961 . S
C784 H772 0.959 . S
C784 C782 1.561 . S
C785 C782 1.526 . S
C785 C786 1.396 . S
C785 C790 1.390 . S
C786 C780 1.465 . S
C786 C785 1.396 . S
C786 C787 1.399 . S
C787 H773 0.929 . S
C787 C786 1.399 . S
C787 C788 1.385 . S
C788 H774 0.931 . S
C788 C787 1.385 . S
C788 C789 1.389 . S
C789 C788 1.389 . S
C789 C790 1.387 . S
C790 H775 0.930 . S
C790 C785 1.390 . S
C790 C789 1.387 . S
H791 C803 0.930 . S
H792 C805 0.930 . S
H793 C806 0.930 . S
H794 C810 0.959 . S
H795 C810 0.959 . S
H796 C810 0.961 . S
H797 C811 0.960 . S
H798 C811 0.961 . S
H799 C811 0.959 . S
H800 C814 0.929 . S
H801 C815 0.931 . S
H802 C817 0.930 . S
C803 H791 0.930 . S
C803 C804 1.399 . S
C803 C808 1.399 . S
C804 C803 1.399 . S
C804 C805 1.376 . S
C805 H792 0.930 . S
C805 C804 1.376 . S
C805 C806 1.388 . S
C806 H793 0.930 . S
C806 C805 1.388 . S
C806 C807 1.390 . S
C807 C806 1.390 . S
C807 C808 1.394 . S
C807 C813 1.465 . S
C808 C803 1.399 . S
C808 C807 1.394 . S
C808 C809 1.516 . S
C809 C808 1.516 . S
C809 C810 1.502 . S
C809 C811 1.561 . S
C809 C812 1.526 . S
C810 H794 0.959 . S
C810 H795 0.959 . S
C810 H796 0.961 . S
C810 C809 1.502 . S
C811 H797 0.960 . S
C811 H798 0.961 . S
C811 H799 0.959 . S
C811 C809 1.561 . S
C812 C809 1.526 . S
C812 C813 1.396 . S
C812 C817 1.390 . S
C813 C807 1.465 . S
C813 C812 1.396 . S
C813 C814 1.399 . S
C814 H800 0.929 . S
C814 C813 1.399 . S
C814 C815 1.385 . S
C815 H801 0.931 . S
C815 C814 1.385 . S
C815 C816 1.389 . S
C816 C815 1.389 . S
C816 C817 1.387 . S
C817 H802 0.930 . S
C817 C812 1.390 . S
C817 C816 1.387 . S
H818 C830 0.930 . S
H819 C832 0.930 . S
H820 C833 0.930 . S
H821 C837 0.959 . S
H822 C837 0.959 . S
H823 C837 0.961 . S
H824 C838 0.960 . S
H825 C838 0.961 . S
H826 C838 0.959 . S
H827 C841 0.929 . S
H828 C842 0.931 . S
H829 C844 0.930 . S
C830 H818 0.930 . S
C830 C831 1.399 . S
C830 C835 1.399 . S
C831 C830 1.399 . S
C831 C832 1.376 . S
C832 H819 0.930 . S
C832 C831 1.376 . S
C832 C833 1.388 . S
C833 H820 0.930 . S
C833 C832 1.388 . S
C833 C834 1.390 . S
C834 C833 1.390 . S
C834 C835 1.394 . S
C834 C840 1.465 . S
C835 C830 1.399 . S
C835 C834 1.394 . S
C835 C836 1.516 . S
C836 C835 1.516 . S
C836 C837 1.502 . S
C836 C838 1.561 . S
C836 C839 1.526 . S
C837 H821 0.959 . S
C837 H822 0.959 . S
C837 H823 0.961 . S
C837 C836 1.502 . S
C838 H824 0.960 . S
C838 H825 0.961 . S
C838 H826 0.959 . S
C838 C836 1.561 . S
C839 C836 1.526 . S
C839 C840 1.396 . S
C839 C844 1.390 . S
C840 C834 1.465 . S
C840 C839 1.396 . S
C840 C841 1.399 . S
C841 H827 0.929 . S
C841 C840 1.399 . S
C841 C842 1.385 . S
C842 H828 0.931 . S
C842 C841 1.385 . S
C842 C843 1.389 . S
C843 C842 1.389 . S
C843 C844 1.387 . S
C844 H829 0.930 . S
C844 C839 1.390 . S
C844 C843 1.387 . S
H845 C857 0.930 . S
H846 C859 0.930 . S
H847 C860 0.930 . S
H848 C864 0.959 . S
H849 C864 0.959 . S
H850 C864 0.961 . S
H851 C865 0.960 . S
H852 C865 0.961 . S
H853 C865 0.959 . S
H854 C868 0.929 . S
H855 C869 0.931 . S
H856 C871 0.930 . S
C857 H845 0.930 . S
C857 C858 1.399 . S
C857 C862 1.399 . S
C858 C857 1.399 . S
C858 C859 1.376 . S
C859 H846 0.930 . S
C859 C858 1.376 . S
C859 C860 1.388 . S
C860 H847 0.930 . S
C860 C859 1.388 . S
C860 C861 1.390 . S
C861 C860 1.390 . S
C861 C862 1.394 . S
C861 C867 1.465 . S
C862 C857 1.399 . S
C862 C861 1.394 . S
C862 C863 1.516 . S
C863 C862 1.516 . S
C863 C864 1.502 . S
C863 C865 1.561 . S
C863 C866 1.526 . S
C864 H848 0.959 . S
C864 H849 0.959 . S
C864 H850 0.961 . S
C864 C863 1.502 . S
C865 H851 0.960 . S
C865 H852 0.961 . S
C865 H853 0.959 . S
C865 C863 1.561 . S
C866 C863 1.526 . S
C866 C867 1.396 . S
C866 C871 1.390 . S
C867 C861 1.465 . S
C867 C866 1.396 . S
C867 C868 1.399 . S
C868 H854 0.929 . S
C868 C867 1.399 . S
C868 C869 1.385 . S
C869 H855 0.931 . S
C869 C868 1.385 . S
C869 C870 1.389 . S
C870 C869 1.389 . S
C870 C871 1.387 . S
C871 H856 0.930 . S
C871 C866 1.390 . S
C871 C870 1.387 . S
H872 C884 0.930 . S
H873 C886 0.930 . S
H874 C887 0.942 . S
H875 C891 0.932 1_655 S
H876 C891 0.957 1_655 S
H877 C891 0.978 . S
H878 C892 0.960 . S
H879 C892 0.961 . S
H880 C892 0.959 . S
H881 C895 0.929 . S
H882 C896 0.931 . S
H883 C898 0.930 . S
C884 H872 0.930 . S
C884 C885 1.399 . S
C884 C889 1.399 . S
C885 C884 1.399 . S
C885 C886 1.376 . S
C886 H873 0.930 . S
C886 C885 1.376 . S
C886 C887 1.388 . S
C887 H874 0.942 . S
C887 C886 1.388 . S
C887 C888 1.390 . S
C888 C887 1.390 . S
C888 C889 1.394 . S
C888 C894 1.465 1_455 S
C889 C884 1.399 . S
C889 C888 1.394 . S
C889 C890 1.516 1_554 S
C890 C889 1.516 1_556 S
C890 C891 1.514 . S
C890 C892 1.561 . S
C890 C893 1.526 1_455 S
C891 H875 0.932 1_455 S
C891 H876 0.957 1_455 S
C891 H877 0.978 . S
C891 C890 1.514 . S
C892 H878 0.960 . S
C892 H879 0.961 . S
C892 H880 0.959 . S
C892 C890 1.561 . S
C893 C890 1.526 1_655 S
C893 C894 1.396 1_556 S
C893 C898 1.390 . S
C894 C888 1.465 1_655 S
C894 C893 1.396 1_554 S
C894 C895 1.399 . S
C895 H881 0.929 . S
C895 C894 1.399 . S
C895 C896 1.385 1_554 S
C896 H882 0.931 . S
C896 C895 1.385 1_556 S
C896 C897 1.389 . S
C897 C896 1.389 . S
C897 C898 1.387 . S
C898 H883 0.930 . S
C898 C893 1.390 . S
C898 C897 1.387 . S
H899 C911 0.930 . S
H900 C913 0.930 . S
H901 C914 0.930 . S
H902 C918 0.959 . S
H903 C918 0.959 1_655 S
H904 C918 0.961 . S
H905 C919 0.960 . S
H906 C919 0.961 . S
H907 C919 0.959 . S
H908 C922 0.929 . S
H909 C923 0.931 . S
H910 C925 0.930 . S
C911 H899 0.930 . S
C911 C912 1.399 . S
C911 C916 1.399 . S
C912 C911 1.399 . S
C912 C913 1.376 . S
C913 H900 0.930 . S
C913 C912 1.376 . S
C913 C914 1.388 1_556 S
C914 H901 0.930 . S
C914 C913 1.388 1_554 S
C914 C915 1.386 1_554 S
C915 C914 1.386 1_556 S
C915 C916 1.422 . S
C915 C921 1.445 1_456 S
C916 C911 1.399 . S
C916 C915 1.422 . S
C916 C917 1.516 1_465 S
C917 C916 1.516 1_645 S
C917 C918 1.502 1_655 S
C917 C919 1.561 . S
C917 C920 1.526 1_556 S
C918 H902 0.959 . S
C918 H903 0.959 1_455 S
C918 H904 0.961 . S
C918 C917 1.502 1_455 S
C919 H905 0.960 . S
C919 H906 0.961 . S
C919 H907 0.959 . S
C919 C917 1.561 . S
C920 C917 1.526 1_554 S
C920 C921 1.396 1_545 S
C920 C925 1.390 . S
C921 C915 1.445 1_654 S
C921 C920 1.396 1_565 S
C921 C922 1.399 . S
C922 H908 0.929 . S
C922 C921 1.399 . S
C922 C923 1.385 1_565 S
C923 H909 0.931 . S
C923 C922 1.385 1_545 S
C923 C924 1.389 . S
C924 C923 1.389 . S
C924 C925 1.387 . S
C925 H910 0.930 . S
C925 C920 1.390 . S
C925 C924 1.387 . S
H926 C938 0.930 . S
H927 C940 0.930 . S
H928 C941 0.930 1_556 S
H929 C945 0.959 . S
H930 C945 0.959 . S
H931 C945 0.961 . S
H932 C946 0.960 . S
H933 C946 0.961 . S
H934 C946 0.959 . S
H935 C949 0.929 . S
H936 C950 0.931 . S
H937 C952 0.930 . S
C938 H926 0.930 . S
C938 C939 1.399 . S
C938 C943 1.399 . S
C939 C938 1.399 . S
C939 C940 1.376 . S
C940 H927 0.930 . S
C940 C939 1.376 . S
C940 C941 1.388 . S
C941 H928 0.930 1_554 S
C941 C940 1.388 . S
C941 C942 1.390 . S
C942 C941 1.390 . S
C942 C943 1.394 . S
C942 C948 1.465 1_554 S
C943 C938 1.399 . S
C943 C942 1.394 . S
C943 C944 1.516 1_565 S
C944 C943 1.516 1_545 S
C944 C945 1.502 . S
C944 C946 1.561 . S
C944 C947 1.526 1_554 S
C945 H929 0.959 . S
C945 H930 0.959 . S
C945 H931 0.961 . S
C945 C944 1.502 . S
C946 H932 0.960 . S
C946 H933 0.961 . S
C946 H934 0.959 . S
C946 C944 1.561 . S
C947 C944 1.526 1_556 S
C947 C948 1.396 1_545 S
C947 C952 1.390 . S
C948 C942 1.465 1_556 S
C948 C947 1.396 1_565 S
C948 C949 1.399 . S
C949 H935 0.929 . S
C949 C948 1.399 . S
C949 C950 1.385 1_565 S
C950 H936 0.931 . S
C950 C949 1.385 1_545 S
C950 C951 1.389 . S
C951 C950 1.389 . S
C951 C952 1.387 . S
C952 H937 0.930 . S
C952 C947 1.390 . S
C952 C951 1.387 . S
H953 C965 0.930 . S
H954 C967 0.930 . S
H955 C968 0.930 . S
H956 C972 0.959 . S
H957 C972 0.959 . S
H958 C972 0.961 . S
H959 C973 0.960 . S
H960 C973 0.961 . S
H961 C973 0.959 . S
H962 C976 0.929 . S
H963 C977 0.931 . S
H964 C979 0.930 . S
C965 H953 0.930 . S
C965 C966 1.399 . S
C965 C970 1.399 . S
C966 C965 1.399 . S
C966 C967 1.376 . S
C967 H954 0.930 . S
C967 C966 1.376 . S
C967 C968 1.388 . S
C968 H955 0.930 . S
C968 C967 1.388 . S
C968 C969 1.390 . S
C969 C968 1.390 . S
C969 C970 1.394 . S
C969 C975 1.465 1_556 S
C970 C965 1.399 . S
C970 C969 1.394 . S
C970 C971 1.516 . S
C971 C970 1.516 . S
C971 C972 1.502 1_556 S
C971 C973 1.561 . S
C971 C974 1.526 1_556 S
C972 H956 0.959 . S
C972 H957 0.959 . S
C972 H958 0.961 . S
C972 C971 1.502 1_554 S
C973 H959 0.960 . S
C973 H960 0.961 . S
C973 H961 0.959 . S
C973 C971 1.561 . S
C974 C971 1.526 1_554 S
C974 C975 1.396 . S
C974 C979 1.390 . S
C975 C969 1.465 1_554 S
C975 C974 1.396 . S
C975 C976 1.399 . S
C976 H962 0.929 . S
C976 C975 1.399 . S
C976 C977 1.385 . S
C977 H963 0.931 . S
C977 C976 1.385 . S
C977 C978 1.389 . S
C978 C977 1.389 . S
C978 C979 1.387 . S
C979 H964 0.930 . S
C979 C974 1.390 . S
C979 C978 1.387 . S
H980 C992 0.930 . S
H981 C994 0.930 . S
H982 C995 0.916 1_655 S
H983 C999 0.959 . S
H984 C999 0.959 . S
H985 C999 0.961 . S
H986 C1000 0.960 1_455 S
H987 C1000 0.961 . S
H988 C1000 0.959 . S
H989 C1003 0.929 . S
H990 C1004 0.931 . S
H991 C1006 0.930 . S
C992 H980 0.930 . S
C992 C993 1.399 . S
C992 C997 1.399 . S
C993 C992 1.399 . S
C993 C994 1.376 . S
C994 H981 0.930 . S
C994 C993 1.376 . S
C994 C995 1.404 . S
C995 H982 0.916 1_455 S
C995 C994 1.404 . S
C995 C996 1.389 1_455 S
C996 C995 1.389 1_655 S
C996 C997 1.387 1_655 S
C996 C1002 1.471 . S
C997 C992 1.399 . S
C997 C996 1.387 1_455 S
C997 C998 1.516 1_565 S
C998 C997 1.516 1_545 S
C998 C999 1.502 . S
C998 C1000 1.561 1_455 S
C998 C1001 1.526 1_455 S
C999 H983 0.959 . S
C999 H984 0.959 . S
C999 H985 0.961 . S
C999 C998 1.502 . S
C1000 H986 0.960 1_655 S
C1000 H987 0.961 . S
C1000 H988 0.959 . S
C1000 C998 1.561 1_655 S
C1001 C998 1.526 1_655 S
C1001 C1002 1.396 1_545 S
C1001 C1006 1.390 . S
C1002 C996 1.471 . S
C1002 C1001 1.396 1_565 S
C1002 C1003 1.399 . S
C1003 H989 0.929 . S
C1003 C1002 1.399 . S
C1003 C1004 1.385 1_565 S
C1004 H990 0.931 . S
C1004 C1003 1.385 1_545 S
C1004 C1005 1.389 . S
C1005 C1004 1.389 . S
C1005 C1006 1.387 . S
C1006 H991 0.930 . S
C1006 C1001 1.390 . S
C1006 C1005 1.387 . S
H1007 C1019 0.930 . S
H1008 C1021 0.930 . S
H1009 C1022 0.930 . S
H1010 C1026 0.959 . S
H1011 C1026 0.959 . S
H1012 C1026 0.961 . S
H1013 C1027 0.960 . S
H1014 C1027 0.961 . S
H1015 C1027 0.959 . S
H1016 C1030 0.929 . S
H1017 C1031 0.931 . S
H1018 C1033 0.930 . S
C1019 H1007 0.930 . S
C1019 C1020 1.399 . S
C1019 C1024 1.399 . S
C1020 C1019 1.399 . S
C1020 C1021 1.376 . S
C1021 H1008 0.930 . S
C1021 C1020 1.376 . S
C1021 C1022 1.388 . S
C1022 H1009 0.930 . S
C1022 C1021 1.388 . S
C1022 C1023 1.390 . S
C1023 C1022 1.390 . S
C1023 C1024 1.394 . S
C1023 C1029 1.465 . S
C1024 C1019 1.399 . S
C1024 C1023 1.394 . S
C1024 C1025 1.516 1_545 S
C1025 C1024 1.516 1_565 S
C1025 C1026 1.502 . S
C1025 C1027 1.561 . S
C1025 C1028 1.526 . S
C1026 H1010 0.959 . S
C1026 H1011 0.959 . S
C1026 H1012 0.961 . S
C1026 C1025 1.502 . S
C1027 H1013 0.960 . S
C1027 H1014 0.961 . S
C1027 H1015 0.959 . S
C1027 C1025 1.561 . S
C1028 C1025 1.526 . S
C1028 C1029 1.396 1_565 S
C1028 C1033 1.390 . S
C1029 C1023 1.465 . S
C1029 C1028 1.396 1_545 S
C1029 C1030 1.399 . S
C1030 H1016 0.929 . S
C1030 C1029 1.399 . S
C1030 C1031 1.385 1_545 S
C1031 H1017 0.931 . S
C1031 C1030 1.385 1_565 S
C1031 C1032 1.389 . S
C1032 C1031 1.389 . S
C1032 C1033 1.387 . S
C1033 H1018 0.930 . S
C1033 C1028 1.390 . S
C1033 C1032 1.387 . S
H1034 C1046 0.930 . S
H1035 C1048 0.930 . S
H1036 C1049 0.930 . S
H1037 C1053 0.959 . S
H1038 C1053 0.959 . S
H1039 C1053 0.961 . S
H1040 C1054 0.960 . S
H1041 C1054 0.961 . S
H1042 C1054 0.959 . S
H1043 C1057 0.929 . S
H1044 C1058 0.931 . S
H1045 C1060 0.930 . S
C1046 H1034 0.930 . S
C1046 C1047 1.399 . S
C1046 C1051 1.399 . S
C1047 C1046 1.399 . S
C1047 C1048 1.376 . S
C1048 H1035 0.930 . S
C1048 C1047 1.376 . S
C1048 C1049 1.388 . S
C1049 H1036 0.930 . S
C1049 C1048 1.388 . S
C1049 C1050 1.390 . S
C1050 C1049 1.390 . S
C1050 C1051 1.394 . S
C1050 C1056 1.465 . S
C1051 C1046 1.399 . S
C1051 C1050 1.394 . S
C1051 C1052 1.516 . S
C1052 C1051 1.516 . S
C1052 C1053 1.502 . S
C1052 C1054 1.561 . S
C1052 C1055 1.526 . S
C1053 H1037 0.959 . S
C1053 H1038 0.959 . S
C1053 H1039 0.961 . S
C1053 C1052 1.502 . S
C1054 H1040 0.960 . S
C1054 H1041 0.961 . S
C1054 H1042 0.959 . S
C1054 C1052 1.561 . S
C1055 C1052 1.526 . S
C1055 C1056 1.396 . S
C1055 C1060 1.390 . S
C1056 C1050 1.465 . S
C1056 C1055 1.396 . S
C1056 C1057 1.399 . S
C1057 H1043 0.929 . S
C1057 C1056 1.399 . S
C1057 C1058 1.385 . S
C1058 H1044 0.931 . S
C1058 C1057 1.385 . S
C1058 C1059 1.389 . S
C1059 C1058 1.389 . S
C1059 C1060 1.387 . S
C1060 H1045 0.930 . S
C1060 C1055 1.390 . S
C1060 C1059 1.387 . S
H1061 C1073 0.930 . S
H1062 C1075 0.930 . S
H1063 C1076 0.930 . S
H1064 C1080 0.959 . S
H1065 C1080 0.959 . S
H1066 C1080 0.961 . S
H1067 C1081 0.960 . S
H1068 C1081 0.961 . S
H1069 C1081 0.959 . S
H1070 C1084 0.929 . S
H1071 C1085 0.931 . S
H1072 C1087 0.930 . S
C1073 H1061 0.930 . S
C1073 C1074 1.399 . S
C1073 C1078 1.399 . S
C1074 C1073 1.399 . S
C1074 C1075 1.376 . S
C1075 H1062 0.930 . S
C1075 C1074 1.376 . S
C1075 C1076 1.388 . S
C1076 H1063 0.930 . S
C1076 C1075 1.388 . S
C1076 C1077 1.390 . S
C1077 C1076 1.390 . S
C1077 C1078 1.394 . S
C1077 C1083 1.465 . S
C1078 C1073 1.399 . S
C1078 C1077 1.394 . S
C1078 C1079 1.516 1_655 S
C1079 C1078 1.516 1_455 S
C1079 C1080 1.502 . S
C1079 C1081 1.561 . S
C1079 C1082 1.526 . S
C1080 H1064 0.959 . S
C1080 H1065 0.959 . S
C1080 H1066 0.961 . S
C1080 C1079 1.502 . S
C1081 H1067 0.960 . S
C1081 H1068 0.961 . S
C1081 H1069 0.959 . S
C1081 C1079 1.561 . S
C1082 C1079 1.526 . S
C1082 C1083 1.396 1_455 S
C1082 C1087 1.390 . S
C1083 C1077 1.465 . S
C1083 C1082 1.396 1_655 S
C1083 C1084 1.399 . S
C1084 H1070 0.929 . S
C1084 C1083 1.399 . S
C1084 C1085 1.385 1_655 S
C1085 H1071 0.931 . S
C1085 C1084 1.385 1_455 S
C1085 C1086 1.389 . S
C1086 C1085 1.389 . S
C1086 C1087 1.387 . S
C1087 H1072 0.930 . S
C1087 C1082 1.390 . S
C1087 C1086 1.387 . S
C237 C1 1.949 . S
C249 C41 1.965 . S
C264 C26 1.938 . S
C276 C54 1.924 . S
C291 C57 1.946 . S
C303 C96 1.966 . S
C318 C110 1.951 . S
C330 C82 1.966 . S
C345 C125 1.927 . S
C357 C153 1.938 . S
C372 C167 1.964 . S
C384 C127 1.956 . S
C399 C209 1.924 . S
C411 C180 1.929 . S
C426 C223 1.925 . S
C438 C183 1.934 . S
C453 C111 1.640 . S
C465 C0 1.670 1_655 S
C480 C27 1.652 1_565 S
C492 C56 1.659 1_655 S
C507 C83 1.654 1_565 S
C519 C40 1.657 . S
C534 C55 1.628 . S
C546 C97 1.680 . S
C561 C222 1.668 . S
C573 C124 1.668 1_455 S
C588 C126 1.621 1_545 S
C600 C181 1.695 1_455 S
C615 C152 1.680 . S
C627 C182 1.654 1_545 S
C642 C208 1.635 . S
C654 C166 1.649 . S
C669 C12 0.486 . S
C681 C68 0.533 . S
C696 C15 0.543 . S
C708 C71 0.584 . S
C723 C85 0.484 . S
C735 C28 0.541 . S
C750 C43 0.551 . S
C762 C99 0.582 . S
C777 C169 0.571 . S
C789 C112 0.583 . S
C804 C194 0.562 . S
C816 C138 0.585 . S
C831 C140 0.531 . S
C843 C196 0.490 . S
C858 C154 0.584 . S
C870 C210 0.551 . S
C885 C13 1.791 . S
C897 C113 1.800 . S
C912 C139 1.812 . S
C924 C14 1.776 . S
C939 C29 1.780 . S
C951 C141 1.799 . S
C966 C155 1.802 . S
C978 C42 1.780 . S
C993 C69 1.779 . S
C1005 C168 1.800 . S
C1020 C70 1.804 . S
C1032 C195 1.778 . S
C1047 C197 1.811 . S
C1059 C84 1.777 . S
C1074 C98 1.779 . S
C1086 C211 1.803 . S
