# Generated by pormake.
# Topology sod, (4)-cn, num edge types: 1
# Building blocks:
#     Node 0, Type 0, BuildingBlock: TATPOV_clean_sbu_0, # of connection points: 4
#     Node 1, Type 0, BuildingBlock: TATPOV_clean_sbu_0, # of connection points: 4
#     Node 2, Type 0, BuildingBlock: TATPOV_clean_sbu_0, # of connection points: 4
#     Node 3, Type 0, BuildingBlock: TATPOV_clean_sbu_0, # of connection points: 4
#     Node 4, Type 0, BuildingBlock: TATPOV_clean_sbu_0, # of connection points: 4
#     Node 5, Type 0, BuildingBlock: TATPOV_clean_sbu_0, # of connection points: 4
#     Node 6, Type 0, BuildingBlock: TATPOV_clean_sbu_0, # of connection points: 4
#     Node 7, Type 0, BuildingBlock: TATPOV_clean_sbu_0, # of connection points: 4
#     Node 8, Type 0, BuildingBlock: TATPOV_clean_sbu_0, # of connection points: 4
#     Node 9, Type 0, BuildingBlock: TATPOV_clean_sbu_0, # of connection points: 4
#     Node 10, Type 0, BuildingBlock: TATPOV_clean_sbu_0, # of connection points: 4
#     Node 11, Type 0, BuildingBlock: TATPOV_clean_sbu_0, # of connection points: 4
#     Edge 12, Type (0, 0), BuildingBlock: TEMPAE_clean_linker_10, # of connection points: 2
#     Edge 13, Type (0, 0), BuildingBlock: TEMPAE_clean_linker_10, # of connection points: 2
#     Edge 14, Type (0, 0), BuildingBlock: TEMPAE_clean_linker_10, # of connection points: 2
#     Edge 15, Type (0, 0), BuildingBlock: TEMPAE_clean_linker_10, # of connection points: 2
#     Edge 16, Type (0, 0), BuildingBlock: TEMPAE_clean_linker_10, # of connection points: 2
#     Edge 17, Type (0, 0), BuildingBlock: TEMPAE_clean_linker_10, # of connection points: 2
#     Edge 18, Type (0, 0), BuildingBlock: TEMPAE_clean_linker_10, # of connection points: 2
#     Edge 19, Type (0, 0), BuildingBlock: TEMPAE_clean_linker_10, # of connection points: 2
#     Edge 20, Type (0, 0), BuildingBlock: TEMPAE_clean_linker_10, # of connection points: 2
#     Edge 21, Type (0, 0), BuildingBlock: TEMPAE_clean_linker_10, # of connection points: 2
#     Edge 22, Type (0, 0), BuildingBlock: TEMPAE_clean_linker_10, # of connection points: 2
#     Edge 23, Type (0, 0), BuildingBlock: TEMPAE_clean_linker_10, # of connection points: 2
#     Edge 24, Type (0, 0), BuildingBlock: TEMPAE_clean_linker_10, # of connection points: 2
#     Edge 25, Type (0, 0), BuildingBlock: TEMPAE_clean_linker_10, # of connection points: 2
#     Edge 26, Type (0, 0), BuildingBlock: TEMPAE_clean_linker_10, # of connection points: 2
#     Edge 27, Type (0, 0), BuildingBlock: TEMPAE_clean_linker_10, # of connection points: 2
#     Edge 28, Type (0, 0), BuildingBlock: TEMPAE_clean_linker_10, # of connection points: 2
#     Edge 29, Type (0, 0), BuildingBlock: TEMPAE_clean_linker_10, # of connection points: 2
#     Edge 30, Type (0, 0), BuildingBlock: TEMPAE_clean_linker_10, # of connection points: 2
#     Edge 31, Type (0, 0), BuildingBlock: TEMPAE_clean_linker_10, # of connection points: 2
#     Edge 32, Type (0, 0), BuildingBlock: TEMPAE_clean_linker_10, # of connection points: 2
#     Edge 33, Type (0, 0), BuildingBlock: TEMPAE_clean_linker_10, # of connection points: 2
#     Edge 34, Type (0, 0), BuildingBlock: TEMPAE_clean_linker_10, # of connection points: 2
#     Edge 35, Type (0, 0), BuildingBlock: TEMPAE_clean_linker_10, # of connection points: 2
# Relax obj value: 0.090
# Max RMSD: 0.145
# Mean RMSD: 0.126
data_MOF--net-sod--node1-TATPOV_clean_sbu_0--edge1-TEMPAE_clean_linker_10
_symmetry_space_group_name_H-M    P1
_symmetry_Int_Tables_number       1
_symmetry_cell_setting            triclinic
loop_
_symmetry_equiv_pos_as_xyz
'x, y, z'
_cell_length_a     41.730551
_cell_length_b     42.351472
_cell_length_c     43.567446
_cell_angle_alpha  90.511257
_cell_angle_beta   90.661206
_cell_angle_gamma 92.065509
loop_
_atom_site_label
_atom_site_type_symbol
_atom_site_fract_x
_atom_site_fract_y
_atom_site_fract_z
_atom_type_partial_charge
Zn0 Zn 0.04926 0.22067 0.44055 0.0
Zn1 Zn 0.06296 0.24835 0.49447 0.0
O2 O 0.09818 0.21498 0.49252 0.0
O3 O 0.08284 0.18957 0.45016 0.0
O4 O 0.06864 0.27141 0.53587 0.0
O5 O 0.06019 0.25942 0.41715 0.0
O6 O 0.06615 0.28389 0.4617 0.0
C7 C 0.10139 0.19238 0.47331 0.0
C8 C 0.99686 0.21529 0.48023 0.0
O9 O 0.01764 0.22745 0.49896 0.0
O10 O 0.00358 0.21155 0.45225 0.0
C11 C 0.07812 0.30024 0.53866 0.0
O12 O 0.08714 0.31577 0.51409 0.0
C13 C 0.06539 0.28464 0.4324 0.0
Zn14 Zn 0.77726 0.05183 0.59436 0.0
Zn15 Zn 0.75072 0.0381 0.53769 0.0
O16 O 0.7695 0.99604 0.54963 0.0
O17 O 0.79393 0.00717 0.59382 0.0
O18 O 0.72737 0.02956 0.49724 0.0
O19 O 0.7337 0.0605 0.61119 0.0
O20 O 0.71365 0.05085 0.56497 0.0
C21 C 0.78654 0.98768 0.5724 0.0
C22 C 0.80306 0.09055 0.54601 0.0
O23 O 0.78528 0.07269 0.52873 0.0
O24 O 0.80288 0.08739 0.57488 0.0
C25 C 0.73968 0.02711 0.47078 0.0
O26 O 0.77097 0.02981 0.46805 0.0
C27 C 0.70987 0.05869 0.59295 0.0
Zn28 Zn 0.92506 0.75385 0.47363 0.0
Zn29 Zn 0.95095 0.74251 0.52832 0.0
O30 O 0.91673 0.77478 0.53952 0.0
O31 O 0.89949 0.78736 0.49333 0.0
O32 O 0.97076 0.72751 0.56787 0.0
O33 O 0.90786 0.70921 0.46823 0.0
O34 O 0.93704 0.69986 0.50908 0.0
C35 C 0.89947 0.79149 0.52213 0.0
C36 C 0.99266 0.76904 0.47675 0.0
O37 O 0.98869 0.76253 0.50501 0.0
O38 O 0.9694 0.76575 0.45791 0.0
C39 C 0.95622 0.72532 0.59328 0.0
O40 O 0.92734 0.73646 0.59547 0.0
C41 C 0.92001 0.6897 0.48641 0.0
Zn42 Zn 0.20679 0.93126 0.51695 0.0
Zn43 Zn 0.24552 0.93673 0.4713 0.0
O44 O 0.23218 0.9828 0.47997 0.0
O45 O 0.20609 0.97803 0.52331 0.0
O46 O 0.27931 0.94193 0.43878 0.0
O47 O 0.23613 0.90508 0.54186 0.0
O48 O 0.27137 0.91681 0.50633 0.0
C49 C 0.21759 0.99535 0.50234 0.0
C50 C 0.18153 0.90162 0.46243 0.0
O51 O 0.20949 0.90762 0.45201 0.0
O52 O 0.17412 0.9108 0.48902 0.0
C53 C 0.27453 0.95265 0.41202 0.0
O54 O 0.24543 0.96026 0.40383 0.0
C55 C 0.26449 0.90432 0.53207 0.0
Zn56 Zn 0.52025 0.0717 0.28315 0.0
Zn57 Zn 0.52705 0.01778 0.25187 0.0
O58 O 0.48469 0.00905 0.27515 0.0
O59 O 0.479 0.05359 0.30059 0.0
O60 O 0.5306 0.9791 0.22406 0.0
O61 O 0.51957 0.09783 0.24503 0.0
O62 O 0.52468 0.05337 0.21937 0.0
C63 C 0.46886 0.02585 0.29367 0.0
C64 C 0.57752 0.04002 0.30058 0.0
O65 O 0.56722 0.01921 0.28107 0.0
O66 O 0.562 0.06477 0.30496 0.0
C67 C 0.55493 0.9621 0.22098 0.0
O68 O 0.58066 0.96835 0.23792 0.0
C69 C 0.52178 0.08328 0.21971 0.0
Zn70 Zn 0.02532 0.59577 0.26045 0.0
Zn71 Zn 0.0403 0.53707 0.27846 0.0
O72 O 0.0803 0.55392 0.25654 0.0
O73 O 0.06934 0.60215 0.24239 0.0
O74 O 0.0532 0.49616 0.29663 0.0
O75 O 0.01566 0.60837 0.30411 0.0
O76 O 0.0246 0.55933 0.31676 0.0
C77 C 0.08839 0.57956 0.24313 0.0
C78 C 0.98644 0.54348 0.23281 0.0
O79 O 0.00418 0.52568 0.24845 0.0
O80 O 0.9905 0.57329 0.23448 0.0
C81 C 0.03175 0.48095 0.31147 0.0
O82 O 0.00254 0.49154 0.31193 0.0
C83 C 0.01596 0.58681 0.32404 0.0
Zn84 Zn 0.42814 0.04375 0.70492 0.0
Zn85 Zn 0.45726 0.99531 0.73409 0.0
O86 O 0.49224 0.01544 0.70823 0.0
O87 O 0.47112 0.05632 0.68585 0.0
O88 O 0.48079 0.96427 0.75929 0.0
O89 O 0.41569 0.06231 0.74578 0.0
O90 O 0.44042 0.02339 0.7678 0.0
C91 C 0.49494 0.03925 0.69075 0.0
C92 C 0.4031 0.97954 0.6899 0.0
O93 O 0.42418 0.96988 0.70858 0.0
O94 O 0.40043 0.00886 0.68524 0.0
C95 C 0.50433 0.97537 0.77533 0.0
O96 O 0.51248 0.00553 0.77327 0.0
C97 C 0.4247 0.04845 0.76984 0.0
Zn98 Zn 0.96164 0.4742 0.7356 0.0
Zn99 Zn 0.01602 0.48693 0.76398 0.0
O100 O 0.01036 0.52853 0.7397 0.0
O101 O 0.96521 0.51635 0.71503 0.0
O102 O 0.05711 0.49437 0.78924 0.0
O103 O 0.9364 0.47 0.77412 0.0
O104 O 0.98194 0.48063 0.79852 0.0
C105 C 0.98834 0.53577 0.72071 0.0
C106 C 0.00811 0.43143 0.71649 0.0
O107 O 0.02573 0.44856 0.73477 0.0
O108 O 0.97857 0.43672 0.71387 0.0
C109 C 0.06108 0.51929 0.80563 0.0
O110 O 0.03887 0.5405 0.80492 0.0
C111 C 0.95172 0.4746 0.79906 0.0
Zn112 Zn 0.3206 0.55021 0.06294 0.0
Zn113 Zn 0.27703 0.54941 0.01823 0.0
O114 O 0.29602 0.5047 0.01674 0.0
O115 O 0.32948 0.50491 0.05618 0.0
O116 O 0.24176 0.54644 0.98537 0.0
O117 O 0.28923 0.56315 0.09423 0.0
O118 O 0.25216 0.55941 0.05788 0.0
C119 C 0.31616 0.49061 0.03358 0.0
C120 C 0.33603 0.59477 0.01613 0.0
O121 O 0.30891 0.58563 0.00469 0.0
O122 O 0.34649 0.58254 0.04047 0.0
C123 C 0.24672 0.54922 0.95672 0.0
O124 O 0.2761 0.55517 0.94728 0.0
C125 C 0.26024 0.56476 0.08586 0.0
Zn126 Zn 0.48368 0.28057 0.92602 0.0
Zn127 Zn 0.47936 0.25211 0.98111 0.0
O128 O 0.44309 0.28362 0.98419 0.0
O129 O 0.44601 0.30593 0.93871 0.0
O130 O 0.47993 0.22827 0.02111 0.0
O131 O 0.47689 0.23866 0.90497 0.0
O132 O 0.46978 0.21641 0.95001 0.0
C133 C 0.43298 0.30342 0.96475 0.0
C134 C 0.54035 0.29084 0.96139 0.0
O135 O 0.52453 0.27379 0.98032 0.0
O136 O 0.52809 0.29748 0.93566 0.0
C137 C 0.50406 0.21141 0.0261 0.0
O138 O 0.52689 0.21093 0.0056 0.0
C139 C 0.47035 0.21447 0.92087 0.0
Zn140 Zn 0.73362 0.48534 0.0854 0.0
Zn141 Zn 0.77033 0.48259 0.03465 0.0
O142 O 0.75039 0.52646 0.03079 0.0
O143 O 0.72074 0.52861 0.07229 0.0
O144 O 0.79942 0.47824 0.99802 0.0
O145 O 0.77248 0.48026 0.11228 0.0
O146 O 0.8019 0.47957 0.07072 0.0
C147 C 0.73108 0.54113 0.04786 0.0
C148 C 0.71427 0.43443 0.04515 0.0
O149 O 0.73772 0.44502 0.02926 0.0
O150 O 0.70758 0.44758 0.07035 0.0
C151 C 0.81673 0.50107 0.98783 0.0
O152 O 0.81508 0.5291 0.00076 0.0
C153 C 0.79963 0.47869 0.09982 0.0
Zn154 Zn 0.57072 0.75374 0.92926 0.0
Zn155 Zn 0.56977 0.78281 0.98299 0.0
O156 O 0.6057 0.75016 0.98864 0.0
O157 O 0.60373 0.7247 0.94433 0.0
O158 O 0.57065 0.80914 0.02234 0.0
O159 O 0.58346 0.79269 0.90651 0.0
O160 O 0.57617 0.81759 0.95023 0.0
C161 C 0.61539 0.72818 0.97112 0.0
C162 C 0.50973 0.74652 0.9589 0.0
O163 O 0.52446 0.76148 0.98071 0.0
O164 O 0.52399 0.74133 0.93394 0.0
C165 C 0.55779 0.80112 0.04759 0.0
O166 O 0.54316 0.77323 0.04957 0.0
C167 C 0.58207 0.81822 0.92158 0.0
C168 C 0.0675 0.34395 0.43154 0.0
C169 C 0.06762 0.31495 0.41577 0.0
C170 C 0.06507 0.37242 0.41549 0.0
C171 C 0.06254 0.37169 0.38303 0.0
C172 C 0.06439 0.34267 0.36699 0.0
C173 C 0.06706 0.31471 0.38354 0.0
C174 C 0.06363 0.40305 0.4333 0.0
C175 C 0.06171 0.34087 0.33239 0.0
C176 C 0.01541 0.43413 0.34263 0.0
C177 C 0.03987 0.45302 0.32968 0.0
C178 C 0.02256 0.40792 0.36052 0.0
C179 C 0.05499 0.40062 0.36583 0.0
C180 C 0.07984 0.41984 0.35319 0.0
C181 C 0.07197 0.44575 0.33507 0.0
C182 C 0.99537 0.38771 0.37329 0.0
C183 C 0.11467 0.41289 0.35863 0.0
H184 H 0.06806 0.34437 0.45641 0.0
H185 H 0.06747 0.29246 0.37109 0.0
H186 H 0.08026 0.42121 0.42345 0.0
H187 H 0.03907 0.41214 0.43159 0.0
H188 H 0.06979 0.40011 0.45796 0.0
H189 H 0.06608 0.31683 0.32333 0.0
H190 H 0.03733 0.34751 0.32502 0.0
H191 H 0.07906 0.35784 0.3218 0.0
H192 H 0.99055 0.43964 0.33858 0.0
H193 H 0.09101 0.46046 0.32536 0.0
H194 H -0.00217 0.38617 0.3986 0.0
H195 H 0.9963 0.36332 0.36389 0.0
H196 H 0.9715 0.39708 0.36767 0.0
H197 H 0.11978 0.41147 0.38361 0.0
H198 H 0.13112 0.43113 0.34859 0.0
H199 H 0.11997 0.38961 0.34838 0.0
C200 C 0.73119 0.02483 0.41352 0.0
C201 C 0.7185 0.02336 0.4432 0.0
C202 C 0.71096 0.02413 0.38742 0.0
C203 C 0.67727 0.02191 0.39109 0.0
C204 C 0.66445 0.01891 0.42093 0.0
C205 C 0.68517 0.01969 0.44655 0.0
C206 C 0.72559 0.02728 0.35602 0.0
C207 C 0.6287 0.0164 0.42594 0.0
C208 C 0.62099 0.06113 0.33558 0.0
C209 C 0.60639 0.03516 0.31999 0.0
C210 C 0.64522 0.05716 0.35759 0.0
C211 C 0.65519 0.0264 0.36441 0.0
C212 C 0.64187 0.00018 0.34758 0.0
C213 C 0.61763 0.00487 0.32545 0.0
C214 C 0.65892 0.08586 0.37471 0.0
C215 C 0.652 0.96703 0.35406 0.0
H216 H 0.7569 0.02749 0.41064 0.0
H217 H 0.67509 0.01823 0.46934 0.0
H218 H 0.71477 0.00929 0.33999 0.0
H219 H 0.72051 0.05084 0.34657 0.0
H220 H 0.75199 0.02471 0.3567 0.0
H221 H 0.62267 0.01141 0.45023 0.0
H222 H 0.61776 0.03889 0.41935 0.0
H223 H 0.61759 -0.00257 0.41119 0.0
H224 H 0.61277 0.08469 0.33125 0.0
H225 H 0.60648 0.98469 0.31351 0.0
H226 H 0.6855 0.08634 0.37418 0.0
H227 H 0.65176 0.0847 0.39914 0.0
H228 H 0.65049 0.10829 0.36498 0.0
H229 H 0.67853 0.96612 0.35504 0.0
H230 H 0.64264 0.94983 0.33645 0.0
H231 H 0.64288 0.95959 0.3768 0.0
C232 C 0.00168 0.6236 0.36603 0.0
C233 C 0.003 0.59267 0.35481 0.0
C234 C 0.9857 0.63013 0.39327 0.0
C235 C 0.97012 0.60509 0.40941 0.0
C236 C 0.97264 0.57358 0.39898 0.0
C237 C 0.98926 0.56771 0.37179 0.0
C238 C 0.98438 0.66412 0.40399 0.0
C239 C 0.95634 0.54619 0.4152 0.0
C240 C 0.9502 0.64035 0.48491 0.0
C241 C 0.92314 0.65679 0.47567 0.0
C242 C 0.96388 0.61864 0.46492 0.0
C243 C 0.94957 0.61309 0.43572 0.0
C244 C 0.91857 0.62413 0.42956 0.0
C245 C 0.90564 0.64614 0.4497 0.0
C246 C 0.99621 0.606 0.47298 0.0
C247 C 0.90152 0.61693 0.39947 0.0
H248 H 0.01256 0.64285 0.3531 0.0
H249 H 0.99008 0.5437 0.36307 0.0
H250 H 0.95932 0.67196 0.40261 0.0
H251 H 0.99244 0.66639 0.42829 0.0
H252 H -0.00038 0.68036 0.38998 0.0
H253 H 0.96905 0.52395 0.41113 0.0
H254 H 0.95485 0.55042 0.44029 0.0
H255 H 0.93155 0.54276 0.40599 0.0
H256 H 0.96333 0.64759 0.50557 0.0
H257 H 0.884 0.65788 0.44305 0.0
H258 H 0.01524 0.62155 0.46291 0.0
H259 H -0.00125 0.58185 0.46347 0.0
H260 H 0.00014 0.60553 0.49823 0.0
H261 H 0.91183 0.63246 0.38142 0.0
H262 H 0.87546 0.62116 0.40093 0.0
H263 H 0.90477 0.59206 0.39231 0.0
C264 C 0.29753 0.97238 0.36246 0.0
C265 C 0.30209 0.95889 0.39141 0.0
C266 C 0.32378 0.98092 0.34397 0.0
C267 C 0.35534 0.97594 0.35475 0.0
C268 C 0.36001 0.96116 0.38338 0.0
C269 C 0.33337 0.95277 0.40132 0.0
C270 C 0.31781 0.99646 0.31349 0.0
C271 C 0.39325 0.95548 0.39576 0.0
C272 C 0.42692 0.98243 0.30128 0.0
C273 C 0.43901 0.01311 0.30799 0.0
C274 C 0.39928 0.97012 0.31582 0.0
C275 C 0.38351 0.9889 0.33763 0.0
C276 C 0.39533 0.02 0.34411 0.0
C277 C 0.42281 0.03171 0.32921 0.0
C278 C 0.38726 0.9369 0.30823 0.0
C279 C 0.37931 0.0408 0.36728 0.0
H280 H 0.27347 0.97704 0.3545 0.0
H281 H 0.33719 0.9422 0.42357 0.0
H282 H 0.32644 0.02153 0.31466 0.0
H283 H 0.33139 0.98478 0.29511 0.0
H284 H 0.29197 0.9957 0.30698 0.0
H285 H 0.39275 0.94145 0.41718 0.0
H286 H 0.40744 0.94291 0.37842 0.0
H287 H 0.40594 0.97848 0.40067 0.0
H288 H 0.43919 0.96789 0.28489 0.0
H289 H 0.43183 0.05545 0.33458 0.0
H290 H 0.36167 0.9369 0.30103 0.0
H291 H 0.38875 0.92198 0.32896 0.0
H292 H 0.40124 0.92594 0.28965 0.0
H293 H 0.35373 0.04337 0.36088 0.0
H294 H 0.39103 0.06473 0.36911 0.0
H295 H 0.37995 0.02968 0.39023 0.0
C296 C 0.96909 0.57028 0.67895 0.0
C297 C 0.98909 0.56655 0.70468 0.0
C298 C 0.96797 0.59912 0.66365 0.0
C299 C 0.98716 0.62525 0.67438 0.0
C300 C 0.00775 0.62172 0.70014 0.0
C301 C 0.00861 0.59228 0.71495 0.0
C302 C 0.94594 0.60161 0.63604 0.0
C303 C 0.02839 0.64912 0.7123 0.0
C304 C 0.99559 0.68642 0.61211 0.0
C305 C 0.96888 0.70479 0.61771 0.0
C306 C 0.00375 0.66201 0.63201 0.0
C307 C 0.98493 0.656 0.65828 0.0
C308 C 0.95996 0.67646 0.66564 0.0
C309 C 0.95213 0.70053 0.64519 0.0
C310 C 0.03057 0.64083 0.62326 0.0
C311 C 0.93964 0.67122 0.6937 0.0
H312 H 0.95413 0.5505 0.67061 0.0
H313 H 0.02405 0.5896 0.73486 0.0
H314 H 0.92782 0.61958 0.64046 0.0
H315 H 0.95987 0.60941 0.61576 0.0
H316 H 0.93316 0.57883 0.63025 0.0
H317 H 0.04408 0.64221 0.73169 0.0
H318 H 0.04362 0.65902 0.69377 0.0
H319 H 0.01293 0.66826 0.72025 0.0
H320 H 0.00895 0.68969 0.59111 0.0
H321 H 0.93176 0.71489 0.64998 0.0
H322 H 0.02019 0.61822 0.61383 0.0
H323 H 0.04541 0.63515 0.64361 0.0
H324 H 0.04634 0.65174 0.6056 0.0
H325 H 0.92289 0.65062 0.68961 0.0
H326 H 0.9253 0.6921 0.69914 0.0
H327 H 0.9548 0.66585 0.71393 0.0
C328 C 0.39235 0.92586 0.66637 0.0
C329 C 0.38298 0.95694 0.67155 0.0
C330 C 0.37575 0.90615 0.64494 0.0
C331 C 0.34946 0.91806 0.62843 0.0
C332 C 0.33877 0.94873 0.63517 0.0
C333 C 0.35563 0.96768 0.65666 0.0
C334 C 0.38761 0.87346 0.63897 0.0
C335 C 0.31044 0.96235 0.61857 0.0
C336 C 0.32204 0.90508 0.54788 0.0
C337 C 0.29026 0.89503 0.55331 0.0
C338 C 0.34424 0.90794 0.57219 0.0
C339 C 0.33417 0.90045 0.60226 0.0
C340 C 0.30425 0.88454 0.60659 0.0
C341 C 0.28239 0.88217 0.58196 0.0
C342 C 0.37663 0.9236 0.56643 0.0
C343 C 0.29349 0.87441 0.63803 0.0
H344 H 0.41348 0.9174 0.67793 0.0
H345 H 0.34797 0.99148 0.66101 0.0
H346 H 0.36801 0.85679 0.63115 0.0
H347 H 0.406 0.87471 0.62079 0.0
H348 H 0.39904 0.86386 0.6599 0.0
H349 H 0.30484 0.98625 0.62725 0.0
H350 H 0.31546 0.9641 0.59368 0.0
H351 H 0.28881 0.94666 0.62122 0.0
H352 H 0.32865 0.91409 0.52552 0.0
H353 H 0.25817 0.87315 0.58604 0.0
H354 H 0.39549 0.91252 0.58038 0.0
H355 H 0.37611 0.9489 0.57324 0.0
H356 H 0.38317 0.92222 0.54182 0.0
H357 H 0.31386 0.86571 0.65178 0.0
H358 H 0.27426 0.8556 0.63653 0.0
H359 H 0.28384 0.89499 0.65036 0.0
C360 C 0.06863 0.301 0.59567 0.0
C361 C 0.07495 0.31737 0.56839 0.0
C362 C 0.06203 0.3173 0.62307 0.0
C363 C 0.06104 0.35072 0.62306 0.0
C364 C 0.06887 0.36736 0.59594 0.0
C365 C 0.076 0.35053 0.56909 0.0
C366 C 0.05461 0.29867 0.65164 0.0
C367 C 0.06767 0.40293 0.59466 0.0
C368 C 0.00185 0.39162 0.67396 0.0
C369 C 0.02195 0.4075 0.69563 0.0
C370 C 0.01426 0.37232 0.65101 0.0
C371 C 0.0477 0.3681 0.64978 0.0
C372 C 0.06805 0.3825 0.67259 0.0
C373 C 0.05498 0.40227 0.69512 0.0
C374 C 0.99159 0.35775 0.62709 0.0
C375 C 0.10373 0.37796 0.67251 0.0
H376 H 0.06809 0.27539 0.59546 0.0
H377 H 0.08089 0.36347 0.5482 0.0
H378 H 0.06738 0.30944 0.67185 0.0
H379 H 0.02854 0.29908 0.65624 0.0
H380 H 0.0614 0.27364 0.64935 0.0
H381 H 0.0769 0.41249 0.57266 0.0
H382 H 0.04252 0.4101 0.5973 0.0
H383 H 0.0819 0.41395 0.61382 0.0
H384 H 0.97627 0.39523 0.67409 0.0
H385 H 0.07073 0.41427 0.71177 0.0
H386 H 0.99437 0.33183 0.62581 0.0
H387 H -0.00253 0.36746 0.60417 0.0
H388 H 0.9661 0.36235 0.63195 0.0
H389 H 0.10883 0.35259 0.66956 0.0
H390 H 0.11557 0.38691 0.69401 0.0
H391 H 0.11458 0.39076 0.65287 0.0
C392 C 0.53145 0.07455 0.65979 0.0
C393 C 0.52592 0.04625 0.67571 0.0
C394 C 0.5608 0.08088 0.64522 0.0
C395 C 0.58487 0.05821 0.64639 0.0
C396 C 0.57941 0.02967 0.66246 0.0
C397 C 0.5501 0.02414 0.67704 0.0
C398 C 0.56608 0.11171 0.62859 0.0
C399 C 0.60443 0.00478 0.66403 0.0
C400 C 0.65033 0.05266 0.58758 0.0
C401 C 0.67731 0.06322 0.60478 0.0
C402 C 0.61962 0.05261 0.60026 0.0
C403 C 0.61585 0.06375 0.63068 0.0
C404 C 0.64266 0.07652 0.64734 0.0
C405 C 0.67315 0.07592 0.63424 0.0
C406 C 0.5916 0.03862 0.58186 0.0
C407 C 0.63946 0.08906 0.67967 0.0
H408 H 0.5129 0.09179 0.65879 0.0
H409 H 0.54601 0.00217 0.68921 0.0
H410 H 0.58764 0.12463 0.63807 0.0
H411 H 0.57057 0.10707 0.60395 0.0
H412 H 0.54522 0.12717 0.63045 0.0
H413 H 0.59624 0.98377 0.67729 0.0
H414 H 0.61054 -0.00306 0.64051 0.0
H415 H 0.62674 0.01483 0.67491 0.0
H416 H 0.65334 0.04292 0.56474 0.0
H417 H 0.69386 0.08452 0.6475 0.0
H418 H 0.57099 0.05442 0.58263 0.0
H419 H 0.58365 0.01577 0.59204 0.0
H420 H 0.59783 0.03437 0.55748 0.0
H421 H 0.619 0.10499 0.68117 0.0
H422 H 0.66157 0.10211 0.68779 0.0
H423 H 0.63455 0.06909 0.69545 0.0
C424 C 0.40516 0.3536 0.95623 0.0
C425 C 0.40802 0.32578 0.97313 0.0
C426 C 0.38503 0.37737 0.96585 0.0
C427 C 0.36665 0.37294 0.99265 0.0
C428 C 0.36745 0.34389 0.00846 0.0
C429 C 0.38856 0.32075 0.99877 0.0
C430 C 0.38547 0.40822 0.94864 0.0
C431 C 0.34732 0.33791 0.0365 0.0
C432 C 0.35624 0.44881 0.0368 0.0
C433 C 0.32663 0.45863 0.02553 0.0
C434 C 0.36881 0.42026 0.02723 0.0
C435 C 0.35097 0.40051 0.00643 0.0
C436 C 0.32013 0.40925 0.99643 0.0
C437 C 0.30849 0.43856 0.00571 0.0
C438 C 0.40211 0.41225 0.03796 0.0
C439 C 0.29999 0.38825 0.97507 0.0
H440 H 0.42004 0.35767 0.93632 0.0
H441 H 0.39031 0.29909 0.01166 0.0
H442 H 0.36071 0.41509 0.94305 0.0
H443 H 0.39661 0.42723 0.96335 0.0
H444 H 0.39917 0.40698 0.92698 0.0
H445 H 0.34581 0.31244 0.04241 0.0
H446 H 0.35804 0.35118 0.05638 0.0
H447 H 0.3227 0.34636 0.03289 0.0
H448 H 0.37046 0.46419 0.05208 0.0
H449 H 0.28543 0.4459 0.99722 0.0
H450 H 0.4184 0.41168 0.01801 0.0
H451 H 0.40177 0.38848 0.04842 0.0
H452 H 0.41227 0.42961 0.05503 0.0
H453 H 0.3099 0.38946 0.95158 0.0
H454 H 0.27467 0.39546 0.97402 0.0
H455 H 0.30053 0.36326 0.98246 0.0
C456 C 0.34401 0.64682 0.9896 0.0
C457 C 0.35655 0.61914 0.00144 0.0
C458 C 0.36465 0.67185 0.9801 0.0
C459 C 0.39831 0.66861 0.98213 0.0
C460 C 0.41081 0.63998 0.99266 0.0
C461 C 0.38979 0.61578 0.00238 0.0
C462 C 0.35051 0.70212 0.96924 0.0
C463 C 0.4465 0.63514 0.99455 0.0
C464 C 0.46197 0.71491 0.93928 0.0
C465 C 0.47715 0.73226 0.9633 0.0
C466 C 0.43418 0.6962 0.94437 0.0
C467 C 0.42114 0.69494 0.97415 0.0
C468 C 0.43448 0.7148 0.99772 0.0
C469 C 0.46245 0.73318 0.99205 0.0
C470 C 0.42069 0.67552 0.91856 0.0
C471 C 0.42088 0.71457 0.02967 0.0
H472 H 0.31827 0.64948 0.98918 0.0
H473 H 0.39945 0.59423 0.01134 0.0
H474 H 0.35512 0.72091 0.98681 0.0
H475 H 0.36204 0.71022 0.94775 0.0
H476 H 0.32421 0.69946 0.96522 0.0
H477 H 0.45215 0.61087 0.00185 0.0
H478 H 0.45762 0.63957 0.97191 0.0
H479 H 0.45783 0.65221 0.01122 0.0
H480 H 0.47278 0.71445 0.91678 0.0
H481 H 0.4737 0.74687 0.01063 0.0
H482 H 0.39412 0.67545 0.91812 0.0
H483 H 0.42784 0.65083 0.92223 0.0
H484 H 0.42968 0.68329 0.89584 0.0
H485 H 0.39432 0.71497 0.02875 0.0
H486 H 0.4302 0.73501 0.04369 0.0
H487 H 0.42747 0.69252 0.04138 0.0
C488 C 0.589 0.29454 0.99569 0.0
C489 C 0.57163 0.30572 0.97054 0.0
C490 C 0.61652 0.31119 0.00679 0.0
C491 C 0.62618 0.34007 0.99294 0.0
C492 C 0.60972 0.35049 0.96654 0.0
C493 C 0.58288 0.33297 0.95545 0.0
C494 C 0.63412 0.29883 0.03438 0.0
C495 C 0.61879 0.38147 0.95143 0.0
C496 C 0.66121 0.40599 0.0433 0.0
C497 C 0.69302 0.40834 0.03335 0.0
C498 C 0.63952 0.38328 0.03085 0.0
C499 C 0.6501 0.36176 0.00843 0.0
C500 C 0.68259 0.36296 0.99931 0.0
C501 C 0.70363 0.38665 0.01154 0.0
C502 C 0.60491 0.38331 0.04072 0.0
C503 C 0.69488 0.33976 0.97615 0.0
H504 H 0.58064 0.27324 0.00718 0.0
H505 H 0.5696 0.34175 0.93597 0.0
H506 H 0.66044 0.3011 0.03116 0.0
H507 H 0.62829 0.31299 0.05498 0.0
H508 H 0.62741 0.27368 0.03888 0.0
H509 H 0.60539 0.3848 0.92958 0.0
H510 H 0.61362 0.4013 0.96723 0.0
H511 H 0.64483 0.38292 0.94662 0.0
H512 H 0.65282 0.42281 0.06003 0.0
H513 H 0.7283 0.38824 0.00402 0.0
H514 H 0.59736 0.35978 0.04961 0.0
H515 H 0.58926 0.38817 0.02066 0.0
H516 H 0.60076 0.40132 0.0588 0.0
H517 H 0.68716 0.31527 0.98223 0.0
H518 H 0.72145 0.34115 0.97461 0.0
H519 H 0.68462 0.34462 0.95315 0.0
C520 C 0.73604 0.59185 0.01849 0.0
C521 C 0.71896 0.57211 0.03868 0.0
C522 C 0.72355 0.62063 0.00895 0.0
C523 C 0.6929 0.62924 0.0191 0.0
C524 C 0.67598 0.6097 0.04005 0.0
C525 C 0.68939 0.58163 0.04985 0.0
C526 C 0.74267 0.64131 0.98728 0.0
C527 C 0.64285 0.61747 0.05081 0.0
C528 C 0.65696 0.7099 0.0088 0.0
C529 C 0.63801 0.70457 0.98234 0.0
C530 C 0.67665 0.68621 0.02014 0.0
C531 C 0.67654 0.65635 0.00514 0.0
C532 C 0.65805 0.65123 0.97804 0.0
C533 C 0.63939 0.67546 0.96682 0.0
C534 C 0.6968 0.69279 0.04861 0.0
C535 C 0.65655 0.61955 0.96171 0.0
H536 H 0.75908 0.58476 0.0101 0.0
H537 H 0.676 0.56644 0.0654 0.0
H538 H 0.73124 0.64037 0.96416 0.0
H539 H 0.743 0.66629 0.99522 0.0
H540 H 0.76777 0.63374 0.98515 0.0
H541 H 0.63362 0.60064 0.06831 0.0
H542 H 0.64299 0.64168 0.06072 0.0
H543 H 0.62593 0.61685 0.03095 0.0
H544 H 0.65621 0.73241 0.02074 0.0
H545 H 0.62475 0.671 0.94642 0.0
H546 H 0.7216 0.68493 0.04518 0.0
H547 H 0.68665 0.67925 0.06812 0.0
H548 H 0.69777 0.71827 0.05495 0.0
H549 H 0.681 0.61227 0.95584 0.0
H550 H 0.64187 0.61982 0.94028 0.0
H551 H 0.64603 0.6013 0.97711 0.0
C552 C 0.59484 0.84963 0.87505 0.0
C553 C 0.58183 0.84816 0.90455 0.0
C554 C 0.58742 0.87415 0.85511 0.0
C555 C 0.56615 0.89738 0.86484 0.0
C556 C 0.55554 0.89774 0.8956 0.0
C557 C 0.56374 0.87315 0.91525 0.0
C558 C 0.59989 0.87337 0.82272 0.0
C559 C 0.53286 0.92216 0.90688 0.0
C560 C 0.54876 0.96653 0.81301 0.0
C561 C 0.52092 0.95523 0.7975 0.0
C562 C 0.564 0.94798 0.83496 0.0
C563 C 0.55084 0.91764 0.84169 0.0
C564 C 0.52279 0.90611 0.82605 0.0
C565 C 0.50829 0.92497 0.80403 0.0
C566 C 0.59408 0.96081 0.85094 0.0
C567 C 0.5079 0.87388 0.83272 0.0
H568 H 0.60923 0.83055 0.86686 0.0
H569 H 0.55367 0.87214 0.93806 0.0
H570 H 0.58044 0.86465 0.8069 0.0
H571 H 0.60756 0.89741 0.81521 0.0
H572 H 0.62041 0.85755 0.82048 0.0
H573 H 0.53123 0.92243 0.93231 0.0
H574 H 0.54046 0.9461 0.89909 0.0
H575 H 0.50855 0.91675 0.89716 0.0
H576 H 0.55868 0.9899 0.80801 0.0
H577 H 0.48672 0.91615 0.79226 0.0
H578 H 0.61401 0.94463 0.84714 0.0
H579 H 0.59023 0.96214 0.87605 0.0
H580 H 0.60152 0.9847 0.84271 0.0
H581 H 0.52526 0.85534 0.82773 0.0
H582 H 0.48573 0.86871 0.81894 0.0
H583 H 0.50188 0.87222 0.85742 0.0
C584 C 0.18933 0.53417 0.94355 0.0
C585 C 0.2198 0.54506 0.93413 0.0
C586 C 0.16387 0.52962 0.92233 0.0
C587 C 0.16882 0.53636 0.8909 0.0
C588 C 0.19947 0.54749 0.88127 0.0
C589 C 0.22458 0.55157 0.90293 0.0
C590 C 0.13165 0.51751 0.93356 0.0
C591 C 0.2057 0.55525 0.84806 0.0
C592 C 0.11045 0.49926 0.83164 0.0
C593 C 0.08946 0.52387 0.82643 0.0
C594 C 0.13643 0.50301 0.85242 0.0
C595 C 0.14179 0.53217 0.86821 0.0
C596 C 0.12102 0.55726 0.86263 0.0
C597 C 0.0951 0.55278 0.84195 0.0
C598 C 0.15788 0.47561 0.85784 0.0
C599 C 0.12601 0.58882 0.87871 0.0
H600 H 0.18537 0.52894 0.96754 0.0
H601 H 0.24797 0.56004 0.89538 0.0
H602 H 0.11315 0.53498 0.92854 0.0
H603 H 0.12437 0.49532 0.92121 0.0
H604 H 0.13182 0.51287 0.95861 0.0
H605 H 0.23084 0.5637 0.84426 0.0
H606 H 0.20061 0.53406 0.83342 0.0
H607 H 0.18938 0.57378 0.84033 0.0
H608 H 0.10628 0.47681 0.81986 0.0
H609 H 0.07914 0.572 0.83805 0.0
H610 H 0.15709 0.46877 0.88235 0.0
H611 H 0.1831 0.48266 0.85272 0.0
H612 H 0.15077 0.45463 0.8435 0.0
H613 H 0.12402 0.58577 0.90388 0.0
H614 H 0.1083 0.60622 0.8712 0.0
H615 H 0.15048 0.59869 0.87421 0.0
C616 C 0.40251 0.09038 0.80307 0.0
C617 C 0.42165 0.06407 0.8 0.0
C618 C 0.40599 0.11046 0.82869 0.0
C619 C 0.42952 0.10421 0.85128 0.0
C620 C 0.44597 0.07563 0.85013 0.0
C621 C 0.44166 0.05569 0.82449 0.0
C622 C 0.38715 0.1402 0.82973 0.0
C623 C 0.47097 0.06794 0.87397 0.0
C624 C 0.47523 0.17854 0.87625 0.0
C625 C 0.46228 0.18437 0.90512 0.0
C626 C 0.46566 0.15169 0.85923 0.0
C627 C 0.44204 0.13046 0.87116 0.0
C628 C 0.42965 0.13558 0.90081 0.0
C629 C 0.44016 0.16251 0.91764 0.0
C630 C 0.48009 0.1467 0.82795 0.0
C631 C 0.4042 0.11367 0.91411 0.0
H632 H 0.3864 0.09652 0.78453 0.0
H633 H 0.45618 0.03506 0.82251 0.0
H634 H 0.37915 0.14519 0.85341 0.0
H635 H 0.40271 0.16051 0.82242 0.0
H636 H 0.36582 0.13856 0.81422 0.0
H637 H 0.47645 0.04246 0.8735 0.0
H638 H 0.49342 0.08183 0.86931 0.0
H639 H 0.46308 0.0744 0.89734 0.0
H640 H 0.49262 0.1953 0.86676 0.0
H641 H 0.43002 0.16717 0.93996 0.0
H642 H 0.46129 0.14859 0.80991 0.0
H643 H 0.48974 0.12269 0.82621 0.0
H644 H 0.49975 0.16426 0.82308 0.0
H645 H 0.38075 0.11833 0.90311 0.0
H646 H 0.40191 0.1172 0.93928 0.0
H647 H 0.40939 0.08859 0.90945 0.0
C648 C 0.94964 0.47861 0.85678 0.0
C649 C 0.93373 0.47535 0.82831 0.0
C650 C 0.93231 0.48148 0.88416 0.0
C651 C 0.89835 0.48156 0.88296 0.0
C652 C 0.88223 0.4778 0.85435 0.0
C653 C 0.90005 0.47452 0.8275 0.0
C654 C 0.95033 0.48493 0.91431 0.0
C655 C 0.84608 0.47809 0.85195 0.0
C656 C 0.84646 0.46543 0.95274 0.0
C657 C 0.83865 0.49607 0.96178 0.0
C658 C 0.86691 0.46039 0.92789 0.0
C659 C 0.87942 0.48658 0.91132 0.0
C660 C 0.87194 0.51758 0.92059 0.0
C661 C 0.85187 0.52196 0.94584 0.0
C662 C 0.87466 0.427 0.91902 0.0
C663 C 0.88435 0.54613 0.90325 0.0
H664 H 0.97562 0.47922 0.85766 0.0
H665 H 0.88743 0.47213 0.80568 0.0
H666 H 0.94611 0.50842 0.92466 0.0
H667 H 0.94136 0.46686 0.9307 0.0
H668 H 0.97656 0.4825 0.91158 0.0
H669 H 0.83719 0.47444 0.828 0.0
H670 H 0.83517 0.45932 0.86649 0.0
H671 H 0.83759 0.50103 0.86056 0.0
H672 H 0.83662 0.4453 0.96513 0.0
H673 H 0.84595 0.5457 0.95265 0.0
H674 H 0.901 0.42474 0.91748 0.0
H675 H 0.86428 0.42117 0.89602 0.0
H676 H 0.86512 0.4094 0.93566 0.0
H677 H 0.91087 0.5461 0.9019 0.0
H678 H 0.87739 0.56867 0.9141 0.0
H679 H 0.87479 0.5452 0.87937 0.0
C680 C 0.51353 0.0858 0.16261 0.0
C681 C 0.52022 0.10124 0.1907 0.0
C682 C 0.51049 0.103 0.13534 0.0
C683 C 0.51472 0.13635 0.13613 0.0
C684 C 0.52203 0.15197 0.16432 0.0
C685 C 0.52446 0.13427 0.19126 0.0
C686 C 0.50235 0.08555 0.10574 0.0
C687 C 0.52726 0.18743 0.16607 0.0
C688 C 0.53591 0.17942 0.06256 0.0
C689 C 0.50654 0.19225 0.05426 0.0
C690 C 0.53886 0.16108 0.08904 0.0
C691 C 0.51168 0.15503 0.1075 0.0
C692 C 0.48186 0.16763 0.0991 0.0
C693 C 0.4797 0.1863 0.0727 0.0
C694 C 0.57119 0.14852 0.09748 0.0
C695 C 0.45226 0.16141 0.11804 0.0
H696 H 0.51005 0.06032 0.16203 0.0
H697 H 0.52983 0.1464 0.21283 0.0
H698 H 0.47965 0.09417 0.09593 0.0
H699 H 0.52136 0.09028 0.08863 0.0
H700 H 0.49963 0.05961 0.10901 0.0
H701 H 0.53346 0.19588 0.18968 0.0
H702 H 0.54686 0.19501 0.15049 0.0
H703 H 0.50528 0.19915 0.15831 0.0
H704 H 0.5568 0.18401 0.04851 0.0
H705 H 0.45689 0.19597 0.06632 0.0
H706 H 0.5695 0.12239 0.09903 0.0
H707 H 0.57893 0.15777 0.1204 0.0
H708 H 0.58991 0.15518 0.08057 0.0
H709 H 0.44762 0.13559 0.12036 0.0
H710 H 0.43066 0.17194 0.10779 0.0
H711 H 0.45607 0.17132 0.14151 0.0
C712 C 0.95683 0.49669 0.20905 0.0
C713 C 0.96081 0.52957 0.21268 0.0
C714 C 0.93218 0.48348 0.19028 0.0
C715 C 0.91106 0.50367 0.17504 0.0
C716 C 0.91518 0.53684 0.17839 0.0
C717 C 0.94003 0.54937 0.1971 0.0
C718 C 0.92851 0.44801 0.18701 0.0
C719 C 0.893 0.55916 0.16256 0.0
C720 C 0.85932 0.48131 0.10601 0.0
C721 C 0.82887 0.47903 0.11929 0.0
C722 C 0.88687 0.487 0.12422 0.0
C723 C 0.88376 0.49057 0.15635 0.0
C724 C 0.85343 0.48587 0.17008 0.0
C725 C 0.82633 0.48009 0.15136 0.0
C726 C 0.91893 0.4915 0.10883 0.0
C727 C 0.84919 0.48937 0.20431 0.0
H728 H 0.97288 0.48124 0.22093 0.0
H729 H 0.94293 0.57479 0.19974 0.0
H730 H 0.90507 0.43974 0.1963 0.0
H731 H 0.9287 0.44106 0.16241 0.0
H732 H 0.94785 0.43566 0.19925 0.0
H733 H 0.89987 0.58436 0.16715 0.0
H734 H 0.89311 0.55498 0.13739 0.0
H735 H 0.86806 0.55471 0.17041 0.0
H736 H 0.86154 0.48016 0.08126 0.0
H737 H 0.80294 0.47795 0.16187 0.0
H738 H 0.9377 0.47875 0.1214 0.0
H739 H 0.92619 0.51696 0.10915 0.0
H740 H 0.91812 0.48312 0.08459 0.0
H741 H 0.86746 0.47607 0.21698 0.0
H742 H 0.82499 0.48095 0.2117 0.0
H743 H 0.85257 0.51463 0.21097 0.0
C744 C 0.57198 0.85416 0.07128 0.0
C745 C 0.55828 0.82357 0.0741 0.0
C746 C 0.57169 0.87601 0.09576 0.0
C747 C 0.55745 0.86711 0.12389 0.0
C748 C 0.54394 0.83616 0.12706 0.0
C749 C 0.54447 0.81481 0.10215 0.0
C750 C 0.58628 0.90878 0.09136 0.0
C751 C 0.52866 0.82568 0.1567 0.0
C752 C 0.58078 0.91662 0.19475 0.0
C753 C 0.55487 0.93671 0.19713 0.0
C754 C 0.58167 0.89349 0.17141 0.0
C755 C 0.55615 0.89046 0.14974 0.0
C756 C 0.52974 0.91038 0.15226 0.0
C757 C 0.52936 0.93313 0.17594 0.0
C758 C 0.61016 0.87258 0.16969 0.0
C759 C 0.5021 0.90805 0.12957 0.0
H760 H 0.58271 0.86124 0.04975 0.0
H761 H 0.53385 0.79125 0.10464 0.0
H762 H 0.56772 0.9266 0.09453 0.0
H763 H 0.6053 0.91378 0.10892 0.0
H764 H 0.59684 0.91187 0.06824 0.0
H765 H 0.52001 0.80057 0.15578 0.0
H766 H 0.54612 0.82879 0.17598 0.0
H767 H 0.50806 0.84061 0.16188 0.0
H768 H 0.60057 0.91908 0.21103 0.0
H769 H 0.50924 0.94853 0.17748 0.0
H770 H 0.62286 0.8766 0.14776 0.0
H771 H 0.60201 0.84736 0.16999 0.0
H772 H 0.62743 0.87705 0.18897 0.0
H773 H 0.51089 0.91319 0.10614 0.0
H774 H 0.483 0.92472 0.13511 0.0
H775 H 0.49144 0.88367 0.12912 0.0
C776 C 0.24574 0.58207 0.1386 0.0
C777 C 0.23594 0.57159 0.10917 0.0
C778 C 0.22343 0.58625 0.16191 0.0
C779 C 0.19057 0.57957 0.1557 0.0
C780 C 0.18036 0.56996 0.12582 0.0
C781 C 0.20321 0.5662 0.10282 0.0
C782 C 0.23513 0.59688 0.19341 0.0
C783 C 0.14543 0.56259 0.11843 0.0
C784 C 0.13565 0.55415 0.22016 0.0
C785 C 0.11784 0.58125 0.22458 0.0
C786 C 0.16007 0.55362 0.1984 0.0
C787 C 0.167 0.58092 0.18084 0.0
C788 C 0.15046 0.60892 0.18644 0.0
C789 C 0.12599 0.60874 0.20823 0.0
C790 C 0.17738 0.52335 0.19315 0.0
C791 C 0.15759 0.63861 0.16844 0.0
H792 H 0.271 0.58659 0.14362 0.0
H793 H 0.1955 0.55812 0.08015 0.0
H794 H 0.2217 0.61751 0.20133 0.0
H795 H 0.23067 0.57764 0.21011 0.0
H796 H 0.26116 0.6034 0.19383 0.0
H797 H 0.14129 0.55683 0.09374 0.0
H798 H 0.13672 0.54221 0.13225 0.0
H799 H 0.13079 0.583 0.12464 0.0
H800 H 0.12958 0.53282 0.23271 0.0
H801 H 0.11247 0.62985 0.2116 0.0
H802 H 0.20369 0.52784 0.19487 0.0
H803 H 0.17197 0.5142 0.16964 0.0
H804 H 0.17036 0.50476 0.20987 0.0
H805 H 0.1837 0.64455 0.16891 0.0
H806 H 0.14467 0.65914 0.17749 0.0
H807 H 0.15039 0.63469 0.14407 0.0
C808 C 0.78363 0.9307 0.55713 0.0
C809 C 0.79964 0.95577 0.57275 0.0
C810 C 0.79774 0.90129 0.55412 0.0
C811 C 0.829 0.89729 0.56614 0.0
C812 C 0.84446 0.92199 0.58344 0.0
C813 C 0.82937 0.95086 0.58687 0.0
C814 C 0.78009 0.87523 0.53626 0.0
C815 C 0.87807 0.91899 0.59601 0.0
C816 C 0.86661 0.8166 0.56306 0.0
C817 C 0.88176 0.81813 0.53456 0.0
C818 C 0.84895 0.8421 0.57378 0.0
C819 C 0.8475 0.86987 0.55594 0.0
C820 C 0.86363 0.87166 0.52759 0.0
C821 C 0.88012 0.84564 0.5171 0.0
C822 C 0.83133 0.83914 0.60371 0.0
C823 C 0.86349 0.9011 0.5082 0.0
H824 H 0.7604 0.93431 0.5466 0.0
H825 H 0.84181 0.97023 0.59897 0.0
H826 H 0.79075 0.87303 0.51316 0.0
H827 H 0.78241 0.85222 0.54793 0.0
H828 H 0.75423 0.87995 0.53333 0.0
H829 H 0.88485 0.93833 0.6125 0.0
H830 H 0.88063 0.89602 0.60762 0.0
H831 H 0.89527 0.91984 0.57676 0.0
H832 H 0.86785 0.79524 0.57649 0.0
H833 H 0.89225 0.84701 0.49524 0.0
H834 H 0.8052 0.84098 0.59945 0.0
H835 H 0.83884 0.85876 0.61953 0.0
H836 H 0.83557 0.81634 0.61523 0.0
H837 H 0.83868 0.90559 0.50043 0.0
H838 H 0.8788 0.8992 0.48762 0.0
H839 H 0.87215 0.92192 0.52199 0.0
C840 C 0.93789 0.20683 0.47358 0.0
C841 C 0.96572 0.20294 0.49122 0.0
C842 C 0.90868 0.19201 0.48182 0.0
C843 C 0.90777 0.17177 0.50749 0.0
C844 C 0.93577 0.16831 0.52571 0.0
C845 C 0.96433 0.18447 0.51765 0.0
C846 C 0.87905 0.19733 0.46262 0.0
C847 C 0.936 0.14626 0.55277 0.0
C848 C 0.83141 0.14317 0.54626 0.0
C849 C 0.82635 0.11325 0.53274 0.0
C850 C 0.8567 0.1634 0.53685 0.0
C851 C 0.87816 0.15277 0.5144 0.0
C852 C 0.87254 0.12286 0.50007 0.0
C853 C 0.84625 0.10366 0.50905 0.0
C854 C 0.86111 0.19562 0.55172 0.0
C855 C 0.89537 0.1103 0.47666 0.0
H856 H 0.93909 0.22126 0.45316 0.0
H857 H 0.98603 0.18123 0.53101 0.0
H858 H 0.87197 0.17538 0.44983 0.0
H859 H 0.85871 0.20324 0.47756 0.0
H860 H 0.88292 0.21664 0.44581 0.0
H861 H 0.9597 0.14644 0.56467 0.0
H862 H 0.91762 0.15292 0.56958 0.0
H863 H 0.92984 0.12178 0.54488 0.0
H864 H 0.81585 0.1505 0.56457 0.0
H865 H 0.84247 0.08031 0.49894 0.0
H866 H 0.86533 0.21395 0.53403 0.0
H867 H 0.88248 0.19607 0.56711 0.0
H868 H 0.83998 0.20195 0.56547 0.0
H869 H 0.89839 0.12716 0.45749 0.0
H870 H 0.88704 0.087 0.46705 0.0
H871 H 0.91934 0.10773 0.48748 0.0
C872 C 0.02937 0.78748 0.43484 0.0
C873 C 0.02388 0.78232 0.46619 0.0
C874 C 0.05744 0.80345 0.42501 0.0
C875 C 0.08015 0.81494 0.4471 0.0
C876 C 0.07564 0.808 0.47857 0.0
C877 C 0.04766 0.79162 0.48768 0.0
C878 C 0.06173 0.80954 0.39121 0.0
C879 C 0.09932 0.81974 0.50298 0.0
C880 C 0.16353 0.85048 0.43866 0.0
C881 C 0.15751 0.88204 0.44554 0.0
C882 C 0.13793 0.82819 0.43505 0.0
C883 C 0.10609 0.83805 0.43865 0.0
C884 C 0.10013 0.87065 0.44116 0.0
C885 C 0.12603 0.89228 0.44468 0.0
C886 C 0.14515 0.79378 0.43111 0.0
C887 C 0.06657 0.88235 0.44449 0.0
H888 H 0.01133 0.77988 0.41798 0.0
H889 H 0.04379 0.78743 0.51189 0.0
H890 H 0.05319 0.83336 0.38573 0.0
H891 H 0.08734 0.80887 0.38472 0.0
H892 H 0.04766 0.792 0.37694 0.0
H893 H 0.09334 0.81051 0.52608 0.0
H894 H 0.12387 0.81264 0.49721 0.0
H895 H 0.09963 0.84594 0.50407 0.0
H896 H 0.18797 0.84262 0.43942 0.0
H897 H 0.12157 0.91683 0.44989 0.0
H898 H 0.12679 0.78141 0.41629 0.0
H899 H 0.14482 0.78222 0.45386 0.0
H900 H 0.16919 0.79084 0.421 0.0
H901 H 0.05008 0.87082 0.42732 0.0
H902 H 0.06579 0.90837 0.44174 0.0
H903 H 0.0575 0.87628 0.46763 0.0
C904 C 0.15215 0.17278 0.49736 0.0
C905 C 0.12498 0.16763 0.47847 0.0
C906 C 0.17372 0.14846 0.50241 0.0
C907 C 0.16727 0.11822 0.48905 0.0
C908 C 0.14007 0.11318 0.46969 0.0
C909 C 0.11958 0.13797 0.4644 0.0
C910 C 0.20297 0.15493 0.52247 0.0
C911 C 0.1318 0.08117 0.45544 0.0
C912 C 0.22185 0.04958 0.47928 0.0
C913 C 0.21056 0.02944 0.50248 0.0
C914 C 0.21048 0.0803 0.47651 0.0
C915 C 0.18682 0.0907 0.49697 0.0
C916 C 0.17743 0.07143 0.52189 0.0
C917 C 0.18965 0.04121 0.52449 0.0
C918 C 0.22194 0.10064 0.45029 0.0
C919 C 0.15199 0.08133 0.54405 0.0
H920 H 0.15657 0.19575 0.50806 0.0
H921 H 0.09856 0.1337 0.44989 0.0
H922 H 0.19958 0.14331 0.54497 0.0
H923 H 0.22449 0.14498 0.51185 0.0
H924 H 0.20753 0.18063 0.52662 0.0
H925 H 0.10989 0.08135 0.44072 0.0
H926 H 0.15194 0.07326 0.44125 0.0
H927 H 0.12787 0.06344 0.47375 0.0
H928 H 0.23843 0.04091 0.46247 0.0
H929 H 0.18107 0.02605 0.54279 0.0
H930 H 0.22538 0.12565 0.45779 0.0
H931 H 0.20361 0.09977 0.43162 0.0
H932 H 0.2448 0.09239 0.44078 0.0
H933 H 0.15686 0.10589 0.55227 0.0
H934 H 0.15035 0.06557 0.56426 0.0
H935 H 0.12833 0.08065 0.5321 0.0
loop_
_geom_bond_atom_site_label_1
_geom_bond_atom_site_label_2
_geom_bond_distance
_geom_bond_site_symmetry_2
_ccdc_geom_bond_type
Zn0 O3 2.031 . S
Zn0 O5 2.049 . S
Zn0 O10 2.067 1_455 S
Zn1 O2 1.962 . S
Zn1 O4 1.986 . S
Zn1 O6 1.996 . S
Zn1 O9 1.943 1_455 S
O2 Zn1 1.962 . S
O2 C7 1.254 . S
O3 Zn0 2.031 . S
O3 C7 1.269 . S
O4 Zn1 1.986 . S
O4 C11 1.262 . S
O5 Zn0 2.049 . S
O5 C13 1.260 . S
O6 Zn1 1.996 . S
O6 C13 1.257 . S
C7 O2 1.254 . S
C7 O3 1.269 . S
C8 O9 1.249 . S
C8 O10 1.270 . S
O9 Zn1 1.943 1_655 S
O9 C8 1.249 . S
O10 Zn0 2.067 1_655 S
O10 C8 1.270 . S
C11 O4 1.262 . S
C11 O12 1.232 . S
O12 C11 1.232 . S
C13 O5 1.260 . S
C13 O6 1.257 . S
Zn14 O17 2.031 1_545 S
Zn14 O19 2.049 . S
Zn14 O24 2.067 . S
Zn15 O16 1.962 1_545 S
Zn15 O18 1.986 . S
Zn15 O20 1.996 . S
Zn15 O23 1.943 . S
O16 Zn15 1.962 1_565 S
O16 C21 1.254 . S
O17 Zn14 2.031 1_565 S
O17 C21 1.269 . S
O18 Zn15 1.986 . S
O18 C25 1.262 . S
O19 Zn14 2.049 . S
O19 C27 1.260 . S
O20 Zn15 1.996 . S
O20 C27 1.257 . S
C21 O16 1.254 . S
C21 O17 1.269 . S
C22 O23 1.249 . S
C22 O24 1.270 . S
O23 Zn15 1.943 . S
O23 C22 1.249 . S
O24 Zn14 2.067 . S
O24 C22 1.270 . S
C25 O18 1.262 . S
C25 O26 1.232 . S
O26 C25 1.232 . S
C27 O19 1.260 . S
C27 O20 1.257 . S
Zn28 O31 2.031 1_455 S
Zn28 O33 2.049 . S
Zn28 O38 2.067 . S
Zn29 O30 1.962 1_455 S
Zn29 O32 1.986 . S
Zn29 O34 1.996 . S
Zn29 O37 1.943 . S
O30 Zn29 1.962 1_655 S
O30 C35 1.254 . S
O31 Zn28 2.031 1_655 S
O31 C35 1.269 . S
O32 Zn29 1.986 . S
O32 C39 1.262 . S
O33 Zn28 2.049 . S
O33 C41 1.260 . S
O34 Zn29 1.996 . S
O34 C41 1.257 . S
C35 O30 1.254 . S
C35 O31 1.269 . S
C36 O37 1.249 . S
C36 O38 1.270 . S
O37 Zn29 1.943 . S
O37 C36 1.249 . S
O38 Zn28 2.067 . S
O38 C36 1.270 . S
C39 O32 1.262 . S
C39 O40 1.232 . S
O40 C39 1.232 . S
C41 O33 1.260 . S
C41 O34 1.257 . S
Zn42 O45 2.031 . S
Zn42 O47 2.049 . S
Zn42 O52 2.067 1_545 S
Zn43 O44 1.962 . S
Zn43 O46 1.986 . S
Zn43 O48 1.996 . S
Zn43 O51 1.943 1_545 S
O44 Zn43 1.962 . S
O44 C49 1.254 . S
O45 Zn42 2.031 . S
O45 C49 1.269 . S
O46 Zn43 1.986 . S
O46 C53 1.262 . S
O47 Zn42 2.049 . S
O47 C55 1.260 . S
O48 Zn43 1.996 . S
O48 C55 1.257 . S
C49 O44 1.254 . S
C49 O45 1.269 . S
C50 O51 1.249 . S
C50 O52 1.270 . S
O51 Zn43 1.943 1_565 S
O51 C50 1.249 . S
O52 Zn42 2.067 1_565 S
O52 C50 1.270 . S
C53 O46 1.262 . S
C53 O54 1.232 . S
O54 C53 1.232 . S
C55 O47 1.260 . S
C55 O48 1.257 . S
Zn56 O59 2.031 . S
Zn56 O61 2.049 . S
Zn56 O66 2.067 . S
Zn57 O58 1.962 1_545 S
Zn57 O60 1.986 1_545 S
Zn57 O62 1.996 . S
Zn57 O65 1.943 . S
O58 Zn57 1.962 1_565 S
O58 C63 1.255 1_565 S
O59 Zn56 2.031 . S
O59 C63 1.269 . S
O60 Zn57 1.986 1_565 S
O60 C67 1.262 . S
O61 Zn56 2.049 . S
O61 C69 1.260 . S
O62 Zn57 1.996 . S
O62 C69 1.257 . S
C63 O58 1.255 1_545 S
C63 O59 1.269 . S
C64 O65 1.249 . S
C64 O66 1.270 . S
O65 Zn57 1.943 . S
O65 C64 1.249 . S
O66 Zn56 2.067 . S
O66 C64 1.270 . S
C67 O60 1.262 . S
C67 O68 1.232 . S
O68 C67 1.232 . S
C69 O61 1.260 . S
C69 O62 1.257 . S
Zn70 O73 2.031 . S
Zn70 O75 2.049 . S
Zn70 O80 2.067 1_455 S
Zn71 O72 1.962 . S
Zn71 O74 1.986 . S
Zn71 O76 1.996 . S
Zn71 O79 1.943 1_455 S
O72 Zn71 1.962 . S
O72 C77 1.254 . S
O73 Zn70 2.031 . S
O73 C77 1.269 . S
O74 Zn71 1.986 . S
O74 C81 1.262 . S
O75 Zn70 2.049 . S
O75 C83 1.260 . S
O76 Zn71 1.996 . S
O76 C83 1.257 . S
C77 O72 1.254 . S
C77 O73 1.269 . S
C78 O79 1.249 . S
C78 O80 1.270 . S
O79 Zn71 1.943 1_655 S
O79 C78 1.249 . S
O80 Zn70 2.067 1_655 S
O80 C78 1.270 . S
C81 O74 1.262 . S
C81 O82 1.232 . S
O82 C81 1.232 . S
C83 O75 1.260 . S
C83 O76 1.257 . S
Zn84 O87 2.031 . S
Zn84 O89 2.049 . S
Zn84 O94 2.067 . S
Zn85 O86 1.963 . S
Zn85 O88 1.999 . S
Zn85 O90 1.970 1_565 S
Zn85 O93 1.943 . S
O86 Zn85 1.963 . S
O86 C91 1.254 1_565 S
O87 Zn84 2.031 . S
O87 C91 1.269 . S
O88 Zn85 1.999 . S
O88 C95 1.262 . S
O89 Zn84 2.049 . S
O89 C97 1.260 . S
O90 Zn85 1.970 1_545 S
O90 C97 1.257 . S
C91 O86 1.254 1_545 S
C91 O87 1.269 . S
C92 O93 1.249 1_545 S
C92 O94 1.270 . S
O93 Zn85 1.943 . S
O93 C92 1.249 1_565 S
O94 Zn84 2.067 . S
O94 C92 1.270 . S
C95 O88 1.262 . S
C95 O96 1.232 . S
O96 C95 1.232 . S
C97 O89 1.260 . S
C97 O90 1.257 . S
Zn98 O101 2.031 . S
Zn98 O103 2.049 . S
Zn98 O108 2.067 . S
Zn99 O100 1.962 . S
Zn99 O102 1.986 . S
Zn99 O104 1.996 1_455 S
Zn99 O107 1.943 . S
O100 Zn99 1.962 . S
O100 C105 1.254 . S
O101 Zn98 2.031 . S
O101 C105 1.269 1_655 S
O102 Zn99 1.986 . S
O102 C109 1.262 . S
O103 Zn98 2.049 . S
O103 C111 1.260 . S
O104 Zn99 1.996 1_655 S
O104 C111 1.257 . S
C105 O100 1.254 . S
C105 O101 1.269 1_455 S
C106 O107 1.249 . S
C106 O108 1.270 1_455 S
O107 Zn99 1.943 . S
O107 C106 1.249 . S
O108 Zn98 2.067 . S
O108 C106 1.270 1_655 S
C109 O102 1.262 . S
C109 O110 1.232 . S
O110 C109 1.232 . S
C111 O103 1.260 . S
C111 O104 1.257 . S
Zn112 O115 2.031 . S
Zn112 O117 2.049 . S
Zn112 O122 2.067 . S
Zn113 O114 1.962 . S
Zn113 O116 1.986 . S
Zn113 O118 1.996 1_556 S
Zn113 O121 1.943 . S
O114 Zn113 1.962 . S
O114 C119 1.254 1_556 S
O115 Zn112 2.031 . S
O115 C119 1.269 . S
O116 Zn113 1.986 . S
O116 C123 1.262 . S
O117 Zn112 2.049 . S
O117 C125 1.260 . S
O118 Zn113 1.996 1_554 S
O118 C125 1.257 . S
C119 O114 1.254 1_554 S
C119 O115 1.269 . S
C120 O121 1.249 1_554 S
C120 O122 1.270 . S
O121 Zn113 1.943 . S
O121 C120 1.249 1_556 S
O122 Zn112 2.067 . S
O122 C120 1.270 . S
C123 O116 1.262 . S
C123 O124 1.232 . S
O124 C123 1.232 . S
C125 O117 1.260 . S
C125 O118 1.257 . S
Zn126 O129 2.031 . S
Zn126 O131 2.049 . S
Zn126 O136 2.067 . S
Zn127 O128 1.962 . S
Zn127 O130 1.986 . S
Zn127 O132 1.996 1_554 S
Zn127 O135 1.943 . S
O128 Zn127 1.962 . S
O128 C133 1.254 . S
O129 Zn126 2.031 . S
O129 C133 1.269 1_556 S
O130 Zn127 1.986 . S
O130 C137 1.262 . S
O131 Zn126 2.049 . S
O131 C139 1.260 . S
O132 Zn127 1.996 1_556 S
O132 C139 1.257 . S
C133 O128 1.254 . S
C133 O129 1.269 1_554 S
C134 O135 1.249 1_556 S
C134 O136 1.270 . S
O135 Zn127 1.943 . S
O135 C134 1.249 1_554 S
O136 Zn126 2.067 . S
O136 C134 1.270 . S
C137 O130 1.262 . S
C137 O138 1.232 . S
O138 C137 1.232 . S
C139 O131 1.260 . S
C139 O132 1.257 . S
Zn140 O143 2.031 . S
Zn140 O145 2.049 . S
Zn140 O150 2.067 . S
Zn141 O142 1.962 . S
Zn141 O144 1.986 . S
Zn141 O146 1.996 1_556 S
Zn141 O149 1.943 . S
O142 Zn141 1.962 . S
O142 C147 1.254 1_556 S
O143 Zn140 2.031 . S
O143 C147 1.269 . S
O144 Zn141 1.986 . S
O144 C151 1.262 . S
O145 Zn140 2.049 . S
O145 C153 1.260 . S
O146 Zn141 1.996 1_554 S
O146 C153 1.257 . S
C147 O142 1.254 1_554 S
C147 O143 1.269 . S
C148 O149 1.249 1_554 S
C148 O150 1.270 . S
O149 Zn141 1.943 . S
O149 C148 1.249 1_556 S
O150 Zn140 2.067 . S
O150 C148 1.270 . S
C151 O144 1.262 . S
C151 O152 1.232 . S
O152 C151 1.232 . S
C153 O145 1.260 . S
C153 O146 1.257 . S
Zn154 O157 2.031 . S
Zn154 O159 2.049 . S
Zn154 O164 2.067 . S
Zn155 O156 1.962 . S
Zn155 O158 1.986 . S
Zn155 O160 1.996 1_554 S
Zn155 O163 1.943 . S
O156 Zn155 1.962 . S
O156 C161 1.254 . S
O157 Zn154 2.031 . S
O157 C161 1.269 1_556 S
O158 Zn155 1.986 . S
O158 C165 1.262 . S
O159 Zn154 2.049 . S
O159 C167 1.260 . S
O160 Zn155 1.996 1_556 S
O160 C167 1.257 . S
C161 O156 1.254 . S
C161 O157 1.269 1_554 S
C162 O163 1.249 1_556 S
C162 O164 1.270 . S
O163 Zn155 1.943 . S
O163 C162 1.249 1_554 S
O164 Zn154 2.067 . S
O164 C162 1.270 . S
C165 O158 1.262 . S
C165 O166 1.232 . S
O166 C165 1.232 . S
C167 O159 1.260 . S
C167 O160 1.257 . S
C168 C169 1.391 . S
C168 C170 1.394 . S
C168 H184 0.931 1_455 S
C169 C168 1.391 . S
C169 C173 1.376 . S
C170 C168 1.394 . S
C170 C171 1.369 . S
C170 C174 1.531 1_455 S
C171 C170 1.369 . S
C171 C172 1.410 . S
C171 C179 1.503 . S
C172 C171 1.410 . S
C172 C173 1.392 . S
C172 C175 1.511 . S
C173 C169 1.376 . S
C173 C172 1.392 . S
C173 H185 0.929 . S
C174 C170 1.531 1_655 S
C174 H186 0.960 1_655 S
C174 H187 0.962 . S
C174 H188 0.960 . S
C175 C172 1.511 . S
C175 H189 0.961 . S
C175 H190 0.961 . S
C175 H191 0.961 . S
C176 C177 1.370 1_655 S
C176 C178 1.363 . S
C176 H192 0.931 . S
C177 C176 1.370 1_455 S
C177 C181 1.408 . S
C178 C176 1.363 . S
C178 C179 1.370 1_655 S
C178 C182 1.524 . S
C179 C171 1.503 . S
C179 C178 1.370 1_455 S
C179 C180 1.403 . S
C180 C179 1.403 . S
C180 C181 1.404 . S
C180 C183 1.539 . S
C181 C177 1.408 . S
C181 C180 1.404 . S
C181 H193 0.930 . S
C182 C178 1.524 . S
C182 H194 0.956 . S
C182 H195 0.961 . S
C182 H196 0.961 . S
C183 C180 1.539 . S
C183 H197 0.958 . S
C183 H198 0.961 . S
C183 H199 0.960 . S
H184 C168 0.931 1_655 S
H185 C173 0.929 . S
H186 C174 0.960 1_455 S
H187 C174 0.962 . S
H188 C174 0.960 . S
H189 C175 0.961 . S
H190 C175 0.961 . S
H191 C175 0.961 . S
H192 C176 0.931 . S
H193 C181 0.930 . S
H194 C182 0.956 . S
H195 C182 0.961 . S
H196 C182 0.961 . S
H197 C183 0.958 . S
H198 C183 0.961 . S
H199 C183 0.960 . S
C200 C201 1.391 . S
C200 C202 1.394 1_545 S
C200 H216 0.931 1_545 S
C201 C200 1.391 . S
C201 C205 1.376 . S
C202 C200 1.394 1_565 S
C202 C203 1.369 1_565 S
C202 C206 1.531 . S
C203 C202 1.369 1_545 S
C203 C204 1.410 . S
C203 C211 1.503 . S
C204 C203 1.410 . S
C204 C205 1.392 . S
C204 C207 1.511 . S
C205 C201 1.376 . S
C205 C204 1.392 . S
C205 H217 0.929 . S
C206 C202 1.531 . S
C206 H218 0.960 . S
C206 H219 0.962 1_565 S
C206 H220 0.960 . S
C207 C204 1.511 . S
C207 H221 0.961 . S
C207 H222 0.961 . S
C207 H223 0.961 . S
C208 C209 1.370 . S
C208 C210 1.363 . S
C208 H224 0.931 . S
C209 C208 1.370 . S
C209 C213 1.408 1_545 S
C210 C208 1.363 . S
C210 C211 1.370 . S
C210 C214 1.524 . S
C211 C203 1.503 . S
C211 C210 1.370 . S
C211 C212 1.403 1_545 S
C212 C211 1.403 1_565 S
C212 C213 1.404 . S
C212 C215 1.539 . S
C213 C209 1.408 1_565 S
C213 C212 1.404 . S
C213 H225 0.930 . S
C214 C210 1.524 . S
C214 H226 0.956 . S
C214 H227 0.961 . S
C214 H228 0.961 . S
C215 C212 1.539 . S
C215 H229 0.958 . S
C215 H230 0.961 . S
C215 H231 0.960 . S
H216 C200 0.931 1_565 S
H217 C205 0.929 . S
H218 C206 0.960 . S
H219 C206 0.962 1_545 S
H220 C206 0.960 . S
H221 C207 0.961 . S
H222 C207 0.961 . S
H223 C207 0.961 . S
H224 C208 0.931 . S
H225 C213 0.930 . S
H226 C214 0.956 . S
H227 C214 0.961 . S
H228 C214 0.961 . S
H229 C215 0.958 . S
H230 C215 0.961 . S
H231 C215 0.960 . S
C232 C233 1.391 . S
C232 C234 1.394 . S
C232 H248 0.931 . S
C233 C232 1.391 . S
C233 C237 1.376 1_455 S
C234 C232 1.394 . S
C234 C235 1.369 . S
C234 C238 1.531 . S
C235 C234 1.369 . S
C235 C236 1.410 1_455 S
C235 C243 1.503 . S
C236 C235 1.410 1_655 S
C236 C237 1.392 . S
C236 C239 1.511 . S
C237 C233 1.376 1_655 S
C237 C236 1.392 . S
C237 H249 0.929 . S
C238 C234 1.531 . S
C238 H250 0.960 . S
C238 H251 0.962 . S
C238 H252 0.960 . S
C239 C236 1.511 . S
C239 H253 0.961 . S
C239 H254 0.961 . S
C239 H255 0.961 . S
C240 C241 1.370 . S
C240 C242 1.363 . S
C240 H256 0.931 . S
C241 C240 1.370 . S
C241 C245 1.408 . S
C242 C240 1.363 . S
C242 C243 1.370 . S
C242 C246 1.524 . S
C243 C235 1.503 . S
C243 C242 1.370 . S
C243 C244 1.408 . S
C244 C243 1.408 . S
C244 C245 1.404 . S
C244 C247 1.532 1_455 S
C245 C241 1.408 . S
C245 C244 1.404 . S
C245 H257 0.930 1_455 S
C246 C242 1.524 . S
C246 H258 0.956 . S
C246 H259 0.961 . S
C246 H260 0.961 . S
C247 C244 1.532 1_655 S
C247 H261 0.958 . S
C247 H262 0.961 . S
C247 H263 0.960 . S
H248 C232 0.931 . S
H249 C237 0.929 . S
H250 C238 0.960 . S
H251 C238 0.962 . S
H252 C238 0.960 . S
H253 C239 0.961 . S
H254 C239 0.961 . S
H255 C239 0.961 . S
H256 C240 0.931 . S
H257 C245 0.930 1_655 S
H258 C246 0.956 . S
H259 C246 0.961 . S
H260 C246 0.961 . S
H261 C247 0.958 . S
H262 C247 0.961 . S
H263 C247 0.960 . S
C264 C265 1.391 . S
C264 C266 1.394 . S
C264 H280 0.931 . S
C265 C264 1.391 . S
C265 C269 1.376 1_545 S
C266 C264 1.394 . S
C266 C267 1.369 . S
C266 C270 1.531 . S
C267 C266 1.369 . S
C267 C268 1.410 1_545 S
C267 C275 1.503 . S
C268 C267 1.410 1_565 S
C268 C269 1.392 . S
C268 C271 1.511 . S
C269 C265 1.376 1_565 S
C269 C268 1.392 . S
C269 H281 0.929 . S
C270 C266 1.531 . S
C270 H282 0.960 . S
C270 H283 0.962 . S
C270 H284 0.960 . S
C271 C268 1.511 . S
C271 H285 0.961 . S
C271 H286 0.961 . S
C271 H287 0.961 . S
C272 C273 1.370 1_565 S
C272 C274 1.363 . S
C272 H288 0.931 . S
C273 C272 1.370 1_545 S
C273 C277 1.408 . S
C274 C272 1.363 . S
C274 C275 1.370 1_565 S
C274 C278 1.524 . S
C275 C267 1.503 . S
C275 C274 1.370 1_545 S
C275 C276 1.403 . S
C276 C275 1.403 . S
C276 C277 1.404 . S
C276 C279 1.539 . S
C277 C273 1.408 . S
C277 C276 1.404 . S
C277 H289 0.930 . S
C278 C274 1.524 . S
C278 H290 0.956 . S
C278 H291 0.961 . S
C278 H292 0.961 . S
C279 C276 1.539 . S
C279 H293 0.958 . S
C279 H294 0.961 . S
C279 H295 0.960 . S
H280 C264 0.931 . S
H281 C269 0.929 . S
H282 C270 0.960 . S
H283 C270 0.962 . S
H284 C270 0.960 . S
H285 C271 0.961 . S
H286 C271 0.961 . S
H287 C271 0.961 . S
H288 C272 0.931 . S
H289 C277 0.930 . S
H290 C278 0.956 . S
H291 C278 0.961 . S
H292 C278 0.961 . S
H293 C279 0.958 . S
H294 C279 0.961 . S
H295 C279 0.960 . S
C296 C297 1.391 1_655 S
C296 C298 1.394 . S
C296 H312 0.931 . S
C297 C296 1.391 1_455 S
C297 C301 1.376 . S
C298 C296 1.394 . S
C298 C299 1.369 1_655 S
C298 C302 1.531 . S
C299 C298 1.369 1_455 S
C299 C300 1.410 . S
C299 C307 1.503 . S
C300 C299 1.410 . S
C300 C301 1.392 . S
C300 C303 1.511 . S
C301 C297 1.376 . S
C301 C300 1.392 . S
C301 H313 0.929 . S
C302 C298 1.531 . S
C302 H314 0.960 . S
C302 H315 0.962 . S
C302 H316 0.960 . S
C303 C300 1.511 . S
C303 H317 0.961 . S
C303 H318 0.961 . S
C303 H319 0.961 . S
C304 C305 1.370 . S
C304 C306 1.363 . S
C304 H320 0.931 . S
C305 C304 1.370 . S
C305 C309 1.408 . S
C306 C304 1.363 . S
C306 C307 1.370 . S
C306 C310 1.524 . S
C307 C299 1.503 . S
C307 C306 1.370 . S
C307 C308 1.403 . S
C308 C307 1.403 . S
C308 C309 1.404 . S
C308 C311 1.539 1_455 S
C309 C305 1.408 . S
C309 C308 1.404 . S
C309 H321 0.930 1_455 S
C310 C306 1.524 . S
C310 H322 0.956 . S
C310 H323 0.961 . S
C310 H324 0.961 . S
C311 C308 1.539 1_655 S
C311 H325 0.958 . S
C311 H326 0.962 . S
C311 H327 0.960 1_655 S
H312 C296 0.931 . S
H313 C301 0.929 . S
H314 C302 0.960 . S
H315 C302 0.962 . S
H316 C302 0.960 . S
H317 C303 0.961 . S
H318 C303 0.961 . S
H319 C303 0.961 . S
H320 C304 0.931 . S
H321 C309 0.930 1_655 S
H322 C310 0.956 . S
H323 C310 0.961 . S
H324 C310 0.961 . S
H325 C311 0.958 . S
H326 C311 0.962 . S
H327 C311 0.960 1_455 S
C328 C329 1.391 1_565 S
C328 C330 1.394 . S
C328 H344 0.931 . S
C329 C328 1.391 1_545 S
C329 C333 1.376 . S
C330 C328 1.394 . S
C330 C331 1.369 1_565 S
C330 C334 1.531 . S
C331 C330 1.369 1_545 S
C331 C332 1.410 . S
C331 C339 1.503 . S
C332 C331 1.410 . S
C332 C333 1.392 . S
C332 C335 1.511 . S
C333 C329 1.376 . S
C333 C332 1.392 . S
C333 H345 0.929 . S
C334 C330 1.531 . S
C334 H346 0.960 . S
C334 H347 0.962 . S
C334 H348 0.960 . S
C335 C332 1.511 . S
C335 H349 0.961 . S
C335 H350 0.961 . S
C335 H351 0.961 . S
C336 C337 1.370 . S
C336 C338 1.363 . S
C336 H352 0.931 . S
C337 C336 1.370 . S
C337 C341 1.408 1_545 S
C338 C336 1.363 . S
C338 C339 1.370 . S
C338 C342 1.524 . S
C339 C331 1.503 . S
C339 C338 1.370 . S
C339 C340 1.403 1_545 S
C340 C339 1.403 1_565 S
C340 C341 1.404 . S
C340 C343 1.539 . S
C341 C337 1.408 1_565 S
C341 C340 1.404 . S
C341 H353 0.930 . S
C342 C338 1.524 . S
C342 H354 0.956 . S
C342 H355 0.961 . S
C342 H356 0.961 . S
C343 C340 1.539 . S
C343 H357 0.958 . S
C343 H358 0.961 . S
C343 H359 0.960 . S
H344 C328 0.931 . S
H345 C333 0.929 . S
H346 C334 0.960 . S
H347 C334 0.962 . S
H348 C334 0.960 . S
H349 C335 0.961 . S
H350 C335 0.961 . S
H351 C335 0.961 . S
H352 C336 0.931 . S
H353 C341 0.930 . S
H354 C342 0.956 . S
H355 C342 0.961 . S
H356 C342 0.961 . S
H357 C343 0.958 . S
H358 C343 0.961 . S
H359 C343 0.960 . S
C360 C361 1.391 1_655 S
C360 C362 1.394 . S
C360 H376 0.931 . S
C361 C360 1.391 1_455 S
C361 C365 1.376 . S
C362 C360 1.394 . S
C362 C363 1.369 1_655 S
C362 C366 1.531 . S
C363 C362 1.369 1_455 S
C363 C364 1.410 . S
C363 C371 1.503 . S
C364 C363 1.410 . S
C364 C365 1.392 . S
C364 C367 1.511 . S
C365 C361 1.376 . S
C365 C364 1.392 . S
C365 H377 0.929 . S
C366 C362 1.531 . S
C366 H378 0.960 . S
C366 H379 0.962 . S
C366 H380 0.960 . S
C367 C364 1.511 . S
C367 H381 0.961 . S
C367 H382 0.961 . S
C367 H383 0.961 . S
C368 C369 1.370 . S
C368 C370 1.363 . S
C368 H384 0.931 . S
C369 C368 1.370 . S
C369 C373 1.408 . S
C370 C368 1.363 . S
C370 C371 1.370 . S
C370 C374 1.524 . S
C371 C363 1.503 . S
C371 C370 1.370 . S
C371 C372 1.403 . S
C372 C371 1.403 . S
C372 C373 1.404 . S
C372 C375 1.539 . S
C373 C369 1.408 . S
C373 C372 1.404 . S
C373 H385 0.930 . S
C374 C370 1.524 . S
C374 H386 0.956 1_455 S
C374 H387 0.961 . S
C374 H388 0.961 . S
C375 C372 1.539 . S
C375 H389 0.958 1_455 S
C375 H390 0.961 . S
C375 H391 0.960 . S
H376 C360 0.931 . S
H377 C365 0.929 . S
H378 C366 0.960 . S
H379 C366 0.962 . S
H380 C366 0.960 . S
H381 C367 0.961 . S
H382 C367 0.961 . S
H383 C367 0.961 . S
H384 C368 0.931 . S
H385 C373 0.930 . S
H386 C374 0.956 1_655 S
H387 C374 0.961 . S
H388 C374 0.961 . S
H389 C375 0.958 1_655 S
H390 C375 0.961 . S
H391 C375 0.960 . S
C392 C393 1.391 . S
C392 C394 1.394 . S
C392 H408 0.931 . S
C393 C392 1.391 . S
C393 C397 1.376 . S
C394 C392 1.394 . S
C394 C395 1.369 . S
C394 C398 1.531 . S
C395 C394 1.369 . S
C395 C396 1.410 . S
C395 C403 1.503 . S
C396 C395 1.410 . S
C396 C397 1.392 . S
C396 C399 1.511 . S
C397 C393 1.376 . S
C397 C396 1.392 . S
C397 H409 0.929 . S
C398 C394 1.531 . S
C398 H410 0.960 . S
C398 H411 0.962 . S
C398 H412 0.960 . S
C399 C396 1.511 . S
C399 H413 0.961 . S
C399 H414 0.961 . S
C399 H415 0.961 . S
C400 C401 1.370 1_565 S
C400 C402 1.363 . S
C400 H416 0.931 . S
C401 C400 1.370 1_545 S
C401 C405 1.408 . S
C402 C400 1.363 . S
C402 C403 1.370 1_565 S
C402 C406 1.524 . S
C403 C395 1.503 . S
C403 C402 1.370 1_545 S
C403 C404 1.403 . S
C404 C403 1.403 . S
C404 C405 1.404 . S
C404 C407 1.539 . S
C405 C401 1.408 . S
C405 C404 1.404 . S
C405 H417 0.930 . S
C406 C402 1.524 . S
C406 H418 0.956 . S
C406 H419 0.961 . S
C406 H420 0.961 . S
C407 C404 1.539 . S
C407 H421 0.958 . S
C407 H422 0.961 . S
C407 H423 0.960 . S
H408 C392 0.931 . S
H409 C397 0.929 . S
H410 C398 0.960 . S
H411 C398 0.962 . S
H412 C398 0.960 . S
H413 C399 0.961 . S
H414 C399 0.961 . S
H415 C399 0.961 . S
H416 C400 0.931 . S
H417 C405 0.930 . S
H418 C406 0.956 . S
H419 C406 0.961 . S
H420 C406 0.961 . S
H421 C407 0.958 . S
H422 C407 0.961 . S
H423 C407 0.960 . S
C424 C425 1.391 1_556 S
C424 C426 1.394 . S
C424 H440 0.931 . S
C425 C424 1.391 1_554 S
C425 C429 1.376 . S
C426 C424 1.394 . S
C426 C427 1.369 1_556 S
C426 C430 1.531 . S
C427 C426 1.369 1_554 S
C427 C428 1.410 . S
C427 C435 1.503 . S
C428 C427 1.410 . S
C428 C429 1.392 . S
C428 C431 1.511 . S
C429 C425 1.376 . S
C429 C428 1.392 . S
C429 H441 0.929 . S
C430 C426 1.531 . S
C430 H442 0.960 . S
C430 H443 0.962 . S
C430 H444 0.960 . S
C431 C428 1.511 . S
C431 H445 0.961 . S
C431 H446 0.961 . S
C431 H447 0.961 . S
C432 C433 1.370 . S
C432 C434 1.363 . S
C432 H448 0.931 . S
C433 C432 1.370 . S
C433 C437 1.408 1_554 S
C434 C432 1.363 . S
C434 C435 1.370 . S
C434 C438 1.524 . S
C435 C427 1.503 . S
C435 C434 1.370 . S
C435 C436 1.403 1_554 S
C436 C435 1.403 1_556 S
C436 C437 1.404 . S
C436 C439 1.539 . S
C437 C433 1.408 1_556 S
C437 C436 1.404 . S
C437 H449 0.930 . S
C438 C434 1.524 . S
C438 H450 0.956 . S
C438 H451 0.961 . S
C438 H452 0.961 . S
C439 C436 1.539 . S
C439 H453 0.958 . S
C439 H454 0.961 . S
C439 H455 0.960 . S
H440 C424 0.931 . S
H441 C429 0.929 . S
H442 C430 0.960 . S
H443 C430 0.962 . S
H444 C430 0.960 . S
H445 C431 0.961 . S
H446 C431 0.961 . S
H447 C431 0.961 . S
H448 C432 0.931 . S
H449 C437 0.930 . S
H450 C438 0.956 . S
H451 C438 0.961 . S
H452 C438 0.961 . S
H453 C439 0.958 . S
H454 C439 0.961 . S
H455 C439 0.960 . S
C456 C457 1.391 . S
C456 C458 1.394 . S
C456 H472 0.931 . S
C457 C456 1.391 . S
C457 C461 1.376 . S
C458 C456 1.394 . S
C458 C459 1.369 . S
C458 C462 1.531 . S
C459 C458 1.369 . S
C459 C460 1.410 . S
C459 C467 1.503 . S
C460 C459 1.410 . S
C460 C461 1.392 . S
C460 C463 1.510 . S
C461 C457 1.376 . S
C461 C460 1.392 . S
C461 H473 0.936 . S
C462 C458 1.531 . S
C462 H474 0.960 . S
C462 H475 0.962 . S
C462 H476 0.960 . S
C463 C460 1.510 . S
C463 H477 0.963 1_554 S
C463 H478 0.963 1_554 S
C463 H479 0.957 . S
C464 C465 1.370 1_556 S
C464 C466 1.363 . S
C464 H480 0.931 . S
C465 C464 1.370 1_554 S
C465 C469 1.408 . S
C466 C464 1.363 . S
C466 C467 1.370 1_556 S
C466 C470 1.524 . S
C467 C459 1.503 . S
C467 C466 1.370 1_554 S
C467 C468 1.403 . S
C468 C467 1.403 . S
C468 C469 1.404 . S
C468 C471 1.539 . S
C469 C465 1.408 . S
C469 C468 1.404 . S
C469 H481 0.930 . S
C470 C466 1.524 . S
C470 H482 0.956 . S
C470 H483 0.961 . S
C470 H484 0.961 . S
C471 C468 1.539 . S
C471 H485 0.958 . S
C471 H486 0.961 . S
C471 H487 0.960 . S
H472 C456 0.931 . S
H473 C461 0.936 . S
H474 C462 0.960 . S
H475 C462 0.962 . S
H476 C462 0.960 . S
H477 C463 0.963 1_556 S
H478 C463 0.963 1_556 S
H479 C463 0.957 . S
H480 C464 0.931 . S
H481 C469 0.930 . S
H482 C470 0.956 . S
H483 C470 0.961 . S
H484 C470 0.961 . S
H485 C471 0.958 . S
H486 C471 0.961 . S
H487 C471 0.960 . S
C488 C489 1.391 . S
C488 C490 1.394 . S
C488 H504 0.931 . S
C489 C488 1.391 . S
C489 C493 1.376 1_554 S
C490 C488 1.394 . S
C490 C491 1.369 . S
C490 C494 1.531 . S
C491 C490 1.369 . S
C491 C492 1.410 1_554 S
C491 C499 1.503 . S
C492 C491 1.410 1_556 S
C492 C493 1.392 . S
C492 C495 1.511 . S
C493 C489 1.376 1_556 S
C493 C492 1.392 . S
C493 H505 0.929 . S
C494 C490 1.531 . S
C494 H506 0.960 . S
C494 H507 0.962 . S
C494 H508 0.960 . S
C495 C492 1.511 . S
C495 H509 0.961 . S
C495 H510 0.961 . S
C495 H511 0.961 . S
C496 C497 1.370 . S
C496 C498 1.363 . S
C496 H512 0.931 . S
C497 C496 1.370 . S
C497 C501 1.408 . S
C498 C496 1.363 . S
C498 C499 1.370 . S
C498 C502 1.524 . S
C499 C491 1.503 . S
C499 C498 1.370 . S
C499 C500 1.403 . S
C500 C499 1.403 . S
C500 C501 1.404 . S
C500 C503 1.539 . S
C501 C497 1.408 . S
C501 C500 1.404 . S
C501 H513 0.930 . S
C502 C498 1.524 . S
C502 H514 0.956 . S
C502 H515 0.961 1_554 S
C502 H516 0.957 1_554 S
C503 C500 1.539 . S
C503 H517 0.958 . S
C503 H518 0.961 . S
C503 H519 0.972 . S
H504 C488 0.931 . S
H505 C493 0.929 . S
H506 C494 0.960 . S
H507 C494 0.962 . S
H508 C494 0.960 . S
H509 C495 0.961 . S
H510 C495 0.961 . S
H511 C495 0.961 . S
H512 C496 0.931 . S
H513 C501 0.930 . S
H514 C502 0.956 . S
H515 C502 0.961 1_556 S
H516 C502 0.957 1_556 S
H517 C503 0.958 . S
H518 C503 0.961 . S
H519 C503 0.972 . S
C520 C521 1.391 1_556 S
C520 C522 1.394 . S
C520 H536 0.931 . S
C521 C520 1.391 1_554 S
C521 C525 1.376 . S
C522 C520 1.394 . S
C522 C523 1.352 1_556 S
C522 C526 1.531 . S
C523 C522 1.352 1_554 S
C523 C524 1.428 . S
C523 C531 1.506 . S
C524 C523 1.428 . S
C524 C525 1.392 . S
C524 C527 1.511 . S
C525 C521 1.376 . S
C525 C524 1.392 . S
C525 H537 0.929 . S
C526 C522 1.531 . S
C526 H538 0.960 . S
C526 H539 0.962 . S
C526 H540 0.960 . S
C527 C524 1.511 . S
C527 H541 0.961 . S
C527 H542 0.961 . S
C527 H543 0.961 . S
C528 C529 1.370 . S
C528 C530 1.363 . S
C528 H544 0.931 . S
C529 C528 1.370 . S
C529 C533 1.408 1_554 S
C530 C528 1.363 . S
C530 C531 1.370 . S
C530 C534 1.524 . S
C531 C523 1.506 . S
C531 C530 1.370 . S
C531 C532 1.403 1_554 S
C532 C531 1.403 1_556 S
C532 C533 1.404 . S
C532 C535 1.539 . S
C533 C529 1.408 1_556 S
C533 C532 1.404 . S
C533 H545 0.930 . S
C534 C530 1.524 . S
C534 H546 0.956 . S
C534 H547 0.961 . S
C534 H548 0.961 . S
C535 C532 1.539 . S
C535 H549 0.958 . S
C535 H550 0.961 . S
C535 H551 0.960 . S
H536 C520 0.931 . S
H537 C525 0.929 . S
H538 C526 0.960 . S
H539 C526 0.962 . S
H540 C526 0.960 . S
H541 C527 0.961 . S
H542 C527 0.961 . S
H543 C527 0.961 . S
H544 C528 0.931 . S
H545 C533 0.930 . S
H546 C534 0.956 . S
H547 C534 0.961 . S
H548 C534 0.961 . S
H549 C535 0.958 . S
H550 C535 0.961 . S
H551 C535 0.960 . S
C552 C553 1.391 . S
C552 C554 1.394 . S
C552 H568 0.931 . S
C553 C552 1.391 . S
C553 C557 1.376 . S
C554 C552 1.394 . S
C554 C555 1.369 . S
C554 C558 1.531 . S
C555 C554 1.369 . S
C555 C556 1.410 . S
C555 C563 1.503 . S
C556 C555 1.410 . S
C556 C557 1.392 . S
C556 C559 1.511 . S
C557 C553 1.376 . S
C557 C556 1.392 . S
C557 H569 0.929 . S
C558 C554 1.531 . S
C558 H570 0.960 . S
C558 H571 0.962 . S
C558 H572 0.960 . S
C559 C556 1.511 . S
C559 H573 0.961 . S
C559 H574 0.961 . S
C559 H575 0.961 . S
C560 C561 1.370 . S
C560 C562 1.363 . S
C560 H576 0.931 . S
C561 C560 1.370 . S
C561 C565 1.408 . S
C562 C560 1.363 . S
C562 C563 1.370 . S
C562 C566 1.524 . S
C563 C555 1.503 . S
C563 C562 1.370 . S
C563 C564 1.403 . S
C564 C563 1.403 . S
C564 C565 1.404 . S
C564 C567 1.539 . S
C565 C561 1.408 . S
C565 C564 1.404 . S
C565 H577 0.930 . S
C566 C562 1.524 . S
C566 H578 0.956 . S
C566 H579 0.961 . S
C566 H580 0.961 . S
C567 C564 1.539 . S
C567 H581 0.958 . S
C567 H582 0.961 . S
C567 H583 0.960 . S
H568 C552 0.931 . S
H569 C557 0.929 . S
H570 C558 0.960 . S
H571 C558 0.962 . S
H572 C558 0.960 . S
H573 C559 0.961 . S
H574 C559 0.961 . S
H575 C559 0.961 . S
H576 C560 0.931 . S
H577 C565 0.930 . S
H578 C566 0.956 . S
H579 C566 0.961 . S
H580 C566 0.961 . S
H581 C567 0.958 . S
H582 C567 0.961 . S
H583 C567 0.960 . S
C584 C585 1.391 . S
C584 C586 1.394 . S
C584 H600 0.931 . S
C585 C584 1.391 . S
C585 C589 1.376 . S
C586 C584 1.394 . S
C586 C587 1.369 . S
C586 C590 1.531 . S
C587 C586 1.369 . S
C587 C588 1.410 . S
C587 C595 1.503 . S
C588 C587 1.410 . S
C588 C589 1.392 . S
C588 C591 1.511 . S
C589 C585 1.376 . S
C589 C588 1.392 . S
C589 H601 0.929 . S
C590 C586 1.531 . S
C590 H602 0.960 . S
C590 H603 0.962 . S
C590 H604 0.960 . S
C591 C588 1.511 . S
C591 H605 0.961 . S
C591 H606 0.961 . S
C591 H607 0.961 . S
C592 C593 1.370 . S
C592 C594 1.363 . S
C592 H608 0.931 . S
C593 C592 1.370 . S
C593 C597 1.408 . S
C594 C592 1.363 . S
C594 C595 1.370 . S
C594 C598 1.524 . S
C595 C587 1.503 . S
C595 C594 1.370 . S
C595 C596 1.403 . S
C596 C595 1.403 . S
C596 C597 1.404 . S
C596 C599 1.539 . S
C597 C593 1.408 . S
C597 C596 1.404 . S
C597 H609 0.930 . S
C598 C594 1.524 . S
C598 H610 0.956 . S
C598 H611 0.961 . S
C598 H612 0.961 . S
C599 C596 1.539 . S
C599 H613 0.958 . S
C599 H614 0.961 . S
C599 H615 0.960 . S
H600 C584 0.931 . S
H601 C589 0.929 . S
H602 C590 0.960 . S
H603 C590 0.962 . S
H604 C590 0.960 . S
H605 C591 0.961 . S
H606 C591 0.961 . S
H607 C591 0.961 . S
H608 C592 0.931 . S
H609 C597 0.930 . S
H610 C598 0.956 . S
H611 C598 0.961 . S
H612 C598 0.961 . S
H613 C599 0.958 . S
H614 C599 0.961 . S
H615 C599 0.960 . S
C616 C617 1.391 . S
C616 C618 1.394 . S
C616 H632 0.931 . S
C617 C616 1.391 . S
C617 C621 1.376 . S
C618 C616 1.394 . S
C618 C619 1.369 . S
C618 C622 1.531 . S
C619 C618 1.369 . S
C619 C620 1.410 . S
C619 C627 1.503 . S
C620 C619 1.410 . S
C620 C621 1.392 . S
C620 C623 1.511 . S
C621 C617 1.376 . S
C621 C620 1.392 . S
C621 H633 0.929 . S
C622 C618 1.531 . S
C622 H634 0.960 . S
C622 H635 0.962 . S
C622 H636 0.960 . S
C623 C620 1.511 . S
C623 H637 0.961 . S
C623 H638 0.961 . S
C623 H639 0.961 . S
C624 C625 1.370 . S
C624 C626 1.363 . S
C624 H640 0.931 . S
C625 C624 1.370 . S
C625 C629 1.408 . S
C626 C624 1.363 . S
C626 C627 1.370 . S
C626 C630 1.524 . S
C627 C619 1.503 . S
C627 C626 1.370 . S
C627 C628 1.403 . S
C628 C627 1.403 . S
C628 C629 1.404 . S
C628 C631 1.539 . S
C629 C625 1.408 . S
C629 C628 1.404 . S
C629 H641 0.930 . S
C630 C626 1.524 . S
C630 H642 0.956 . S
C630 H643 0.961 . S
C630 H644 0.961 . S
C631 C628 1.539 . S
C631 H645 0.958 . S
C631 H646 0.961 . S
C631 H647 0.960 . S
H632 C616 0.931 . S
H633 C621 0.929 . S
H634 C622 0.960 . S
H635 C622 0.962 . S
H636 C622 0.960 . S
H637 C623 0.961 . S
H638 C623 0.961 . S
H639 C623 0.961 . S
H640 C624 0.931 . S
H641 C629 0.930 . S
H642 C630 0.956 . S
H643 C630 0.961 . S
H644 C630 0.961 . S
H645 C631 0.958 . S
H646 C631 0.961 . S
H647 C631 0.960 . S
C648 C649 1.391 . S
C648 C650 1.394 . S
C648 H664 0.931 . S
C649 C648 1.391 . S
C649 C653 1.376 . S
C650 C648 1.394 . S
C650 C651 1.369 . S
C650 C654 1.531 . S
C651 C650 1.369 . S
C651 C652 1.410 . S
C651 C659 1.503 . S
C652 C651 1.410 . S
C652 C653 1.392 . S
C652 C655 1.511 . S
C653 C649 1.376 . S
C653 C652 1.392 . S
C653 H665 0.929 . S
C654 C650 1.531 . S
C654 H666 0.960 . S
C654 H667 0.962 . S
C654 H668 0.960 . S
C655 C652 1.511 . S
C655 H669 0.961 . S
C655 H670 0.961 . S
C655 H671 0.961 . S
C656 C657 1.370 . S
C656 C658 1.363 . S
C656 H672 0.931 . S
C657 C656 1.370 . S
C657 C661 1.408 . S
C658 C656 1.363 . S
C658 C659 1.370 . S
C658 C662 1.524 . S
C659 C651 1.503 . S
C659 C658 1.370 . S
C659 C660 1.403 . S
C660 C659 1.403 . S
C660 C661 1.404 . S
C660 C663 1.539 . S
C661 C657 1.408 . S
C661 C660 1.404 . S
C661 H673 0.930 . S
C662 C658 1.524 . S
C662 H674 0.956 . S
C662 H675 0.961 . S
C662 H676 0.961 . S
C663 C660 1.539 . S
C663 H677 0.958 . S
C663 H678 0.961 . S
C663 H679 0.960 . S
H664 C648 0.931 . S
H665 C653 0.929 . S
H666 C654 0.960 . S
H667 C654 0.962 . S
H668 C654 0.960 . S
H669 C655 0.961 . S
H670 C655 0.961 . S
H671 C655 0.961 . S
H672 C656 0.931 . S
H673 C661 0.930 . S
H674 C662 0.956 . S
H675 C662 0.961 . S
H676 C662 0.961 . S
H677 C663 0.958 . S
H678 C663 0.961 . S
H679 C663 0.960 . S
C680 C681 1.391 . S
C680 C682 1.394 . S
C680 H696 0.931 . S
C681 C680 1.391 . S
C681 C685 1.376 . S
C682 C680 1.394 . S
C682 C683 1.369 . S
C682 C686 1.531 . S
C683 C682 1.369 . S
C683 C684 1.410 . S
C683 C691 1.503 . S
C684 C683 1.410 . S
C684 C685 1.392 . S
C684 C687 1.511 . S
C685 C681 1.376 . S
C685 C684 1.392 . S
C685 H697 0.929 . S
C686 C682 1.531 . S
C686 H698 0.960 . S
C686 H699 0.962 . S
C686 H700 0.960 . S
C687 C684 1.511 . S
C687 H701 0.961 . S
C687 H702 0.961 . S
C687 H703 0.961 . S
C688 C689 1.370 . S
C688 C690 1.363 . S
C688 H704 0.931 . S
C689 C688 1.370 . S
C689 C693 1.408 . S
C690 C688 1.363 . S
C690 C691 1.370 . S
C690 C694 1.524 . S
C691 C683 1.503 . S
C691 C690 1.370 . S
C691 C692 1.403 . S
C692 C691 1.403 . S
C692 C693 1.404 . S
C692 C695 1.539 . S
C693 C689 1.408 . S
C693 C692 1.404 . S
C693 H705 0.930 . S
C694 C690 1.524 . S
C694 H706 0.956 . S
C694 H707 0.961 . S
C694 H708 0.961 . S
C695 C692 1.539 . S
C695 H709 0.958 . S
C695 H710 0.961 . S
C695 H711 0.960 . S
H696 C680 0.931 . S
H697 C685 0.929 . S
H698 C686 0.960 . S
H699 C686 0.962 . S
H700 C686 0.960 . S
H701 C687 0.961 . S
H702 C687 0.961 . S
H703 C687 0.961 . S
H704 C688 0.931 . S
H705 C693 0.930 . S
H706 C694 0.956 . S
H707 C694 0.961 . S
H708 C694 0.961 . S
H709 C695 0.958 . S
H710 C695 0.961 . S
H711 C695 0.960 . S
C712 C713 1.391 . S
C712 C714 1.394 . S
C712 H728 0.931 . S
C713 C712 1.391 . S
C713 C717 1.376 . S
C714 C712 1.394 . S
C714 C715 1.369 . S
C714 C718 1.531 . S
C715 C714 1.369 . S
C715 C716 1.410 . S
C715 C723 1.503 . S
C716 C715 1.410 . S
C716 C717 1.392 . S
C716 C719 1.511 . S
C717 C713 1.376 . S
C717 C716 1.392 . S
C717 H729 0.929 . S
C718 C714 1.531 . S
C718 H730 0.960 . S
C718 H731 0.962 . S
C718 H732 0.960 . S
C719 C716 1.511 . S
C719 H733 0.961 . S
C719 H734 0.961 . S
C719 H735 0.961 . S
C720 C721 1.370 . S
C720 C722 1.363 . S
C720 H736 0.931 . S
C721 C720 1.370 . S
C721 C725 1.408 . S
C722 C720 1.363 . S
C722 C723 1.370 . S
C722 C726 1.524 . S
C723 C715 1.503 . S
C723 C722 1.370 . S
C723 C724 1.403 . S
C724 C723 1.403 . S
C724 C725 1.404 . S
C724 C727 1.539 . S
C725 C721 1.408 . S
C725 C724 1.404 . S
C725 H737 0.930 . S
C726 C722 1.524 . S
C726 H738 0.956 . S
C726 H739 0.961 . S
C726 H740 0.961 . S
C727 C724 1.539 . S
C727 H741 0.958 . S
C727 H742 0.961 . S
C727 H743 0.960 . S
H728 C712 0.931 . S
H729 C717 0.929 . S
H730 C718 0.960 . S
H731 C718 0.962 . S
H732 C718 0.960 . S
H733 C719 0.961 . S
H734 C719 0.961 . S
H735 C719 0.961 . S
H736 C720 0.931 . S
H737 C725 0.930 . S
H738 C726 0.956 . S
H739 C726 0.961 . S
H740 C726 0.961 . S
H741 C727 0.958 . S
H742 C727 0.961 . S
H743 C727 0.960 . S
C744 C745 1.391 . S
C744 C746 1.394 . S
C744 H760 0.931 . S
C745 C744 1.391 . S
C745 C749 1.376 . S
C746 C744 1.394 . S
C746 C747 1.369 . S
C746 C750 1.531 . S
C747 C746 1.369 . S
C747 C748 1.410 . S
C747 C755 1.503 . S
C748 C747 1.410 . S
C748 C749 1.392 . S
C748 C751 1.511 . S
C749 C745 1.376 . S
C749 C748 1.392 . S
C749 H761 0.929 . S
C750 C746 1.531 . S
C750 H762 0.960 . S
C750 H763 0.962 . S
C750 H764 0.960 . S
C751 C748 1.511 . S
C751 H765 0.961 . S
C751 H766 0.961 . S
C751 H767 0.961 . S
C752 C753 1.370 . S
C752 C754 1.363 . S
C752 H768 0.931 . S
C753 C752 1.370 . S
C753 C757 1.408 . S
C754 C752 1.363 . S
C754 C755 1.370 . S
C754 C758 1.524 . S
C755 C747 1.503 . S
C755 C754 1.370 . S
C755 C756 1.403 . S
C756 C755 1.403 . S
C756 C757 1.404 . S
C756 C759 1.539 . S
C757 C753 1.408 . S
C757 C756 1.404 . S
C757 H769 0.930 . S
C758 C754 1.524 . S
C758 H770 0.956 . S
C758 H771 0.961 . S
C758 H772 0.961 . S
C759 C756 1.539 . S
C759 H773 0.958 . S
C759 H774 0.961 . S
C759 H775 0.960 . S
H760 C744 0.931 . S
H761 C749 0.929 . S
H762 C750 0.960 . S
H763 C750 0.962 . S
H764 C750 0.960 . S
H765 C751 0.961 . S
H766 C751 0.961 . S
H767 C751 0.961 . S
H768 C752 0.931 . S
H769 C757 0.930 . S
H770 C758 0.956 . S
H771 C758 0.961 . S
H772 C758 0.961 . S
H773 C759 0.958 . S
H774 C759 0.961 . S
H775 C759 0.960 . S
C776 C777 1.391 . S
C776 C778 1.394 . S
C776 H792 0.931 . S
C777 C776 1.391 . S
C777 C781 1.376 . S
C778 C776 1.394 . S
C778 C779 1.369 . S
C778 C782 1.531 . S
C779 C778 1.369 . S
C779 C780 1.410 . S
C779 C787 1.503 . S
C780 C779 1.410 . S
C780 C781 1.392 . S
C780 C783 1.511 . S
C781 C777 1.376 . S
C781 C780 1.392 . S
C781 H793 0.929 . S
C782 C778 1.531 . S
C782 H794 0.960 . S
C782 H795 0.962 . S
C782 H796 0.960 . S
C783 C780 1.511 . S
C783 H797 0.961 . S
C783 H798 0.961 . S
C783 H799 0.961 . S
C784 C785 1.370 . S
C784 C786 1.363 . S
C784 H800 0.931 . S
C785 C784 1.370 . S
C785 C789 1.408 . S
C786 C784 1.363 . S
C786 C787 1.370 . S
C786 C790 1.524 . S
C787 C779 1.503 . S
C787 C786 1.370 . S
C787 C788 1.403 . S
C788 C787 1.403 . S
C788 C789 1.404 . S
C788 C791 1.539 . S
C789 C785 1.408 . S
C789 C788 1.404 . S
C789 H801 0.930 . S
C790 C786 1.524 . S
C790 H802 0.956 . S
C790 H803 0.961 . S
C790 H804 0.961 . S
C791 C788 1.539 . S
C791 H805 0.958 . S
C791 H806 0.961 . S
C791 H807 0.960 . S
H792 C776 0.931 . S
H793 C781 0.929 . S
H794 C782 0.960 . S
H795 C782 0.962 . S
H796 C782 0.960 . S
H797 C783 0.961 . S
H798 C783 0.961 . S
H799 C783 0.961 . S
H800 C784 0.931 . S
H801 C789 0.930 . S
H802 C790 0.956 . S
H803 C790 0.961 . S
H804 C790 0.961 . S
H805 C791 0.958 . S
H806 C791 0.961 . S
H807 C791 0.960 . S
C808 C809 1.391 . S
C808 C810 1.394 . S
C808 H824 0.931 . S
C809 C808 1.391 . S
C809 C813 1.376 . S
C810 C808 1.394 . S
C810 C811 1.369 . S
C810 C814 1.531 . S
C811 C810 1.369 . S
C811 C812 1.410 . S
C811 C819 1.503 . S
C812 C811 1.410 . S
C812 C813 1.392 . S
C812 C815 1.511 . S
C813 C809 1.376 . S
C813 C812 1.392 . S
C813 H825 0.929 . S
C814 C810 1.531 . S
C814 H826 0.960 . S
C814 H827 0.962 . S
C814 H828 0.960 . S
C815 C812 1.511 . S
C815 H829 0.961 . S
C815 H830 0.961 . S
C815 H831 0.961 . S
C816 C817 1.370 . S
C816 C818 1.363 . S
C816 H832 0.931 . S
C817 C816 1.370 . S
C817 C821 1.408 . S
C818 C816 1.363 . S
C818 C819 1.370 . S
C818 C822 1.524 . S
C819 C811 1.503 . S
C819 C818 1.370 . S
C819 C820 1.403 . S
C820 C819 1.403 . S
C820 C821 1.404 . S
C820 C823 1.539 . S
C821 C817 1.408 . S
C821 C820 1.404 . S
C821 H833 0.930 . S
C822 C818 1.524 . S
C822 H834 0.956 . S
C822 H835 0.961 . S
C822 H836 0.961 . S
C823 C820 1.539 . S
C823 H837 0.958 . S
C823 H838 0.961 . S
C823 H839 0.960 . S
H824 C808 0.931 . S
H825 C813 0.929 . S
H826 C814 0.960 . S
H827 C814 0.962 . S
H828 C814 0.960 . S
H829 C815 0.961 . S
H830 C815 0.961 . S
H831 C815 0.961 . S
H832 C816 0.931 . S
H833 C821 0.930 . S
H834 C822 0.956 . S
H835 C822 0.961 . S
H836 C822 0.961 . S
H837 C823 0.958 . S
H838 C823 0.961 . S
H839 C823 0.960 . S
C840 C841 1.391 . S
C840 C842 1.394 . S
C840 H856 0.931 . S
C841 C840 1.391 . S
C841 C845 1.376 . S
C842 C840 1.394 . S
C842 C843 1.369 . S
C842 C846 1.531 . S
C843 C842 1.369 . S
C843 C844 1.410 . S
C843 C851 1.503 . S
C844 C843 1.410 . S
C844 C845 1.392 . S
C844 C847 1.511 . S
C845 C841 1.376 . S
C845 C844 1.392 . S
C845 H857 0.929 . S
C846 C842 1.531 . S
C846 H858 0.960 . S
C846 H859 0.962 . S
C846 H860 0.960 . S
C847 C844 1.511 . S
C847 H861 0.961 . S
C847 H862 0.961 . S
C847 H863 0.961 . S
C848 C849 1.370 . S
C848 C850 1.363 . S
C848 H864 0.931 . S
C849 C848 1.370 . S
C849 C853 1.408 . S
C850 C848 1.363 . S
C850 C851 1.370 . S
C850 C854 1.524 . S
C851 C843 1.503 . S
C851 C850 1.370 . S
C851 C852 1.403 . S
C852 C851 1.403 . S
C852 C853 1.404 . S
C852 C855 1.539 . S
C853 C849 1.408 . S
C853 C852 1.404 . S
C853 H865 0.930 . S
C854 C850 1.524 . S
C854 H866 0.956 . S
C854 H867 0.961 . S
C854 H868 0.961 . S
C855 C852 1.539 . S
C855 H869 0.958 . S
C855 H870 0.961 . S
C855 H871 0.960 . S
H856 C840 0.931 . S
H857 C845 0.929 . S
H858 C846 0.960 . S
H859 C846 0.962 . S
H860 C846 0.960 . S
H861 C847 0.961 . S
H862 C847 0.961 . S
H863 C847 0.961 . S
H864 C848 0.931 . S
H865 C853 0.930 . S
H866 C854 0.956 . S
H867 C854 0.961 . S
H868 C854 0.961 . S
H869 C855 0.958 . S
H870 C855 0.961 . S
H871 C855 0.960 . S
C872 C873 1.391 . S
C872 C874 1.394 . S
C872 H888 0.931 . S
C873 C872 1.391 . S
C873 C877 1.376 . S
C874 C872 1.394 . S
C874 C875 1.369 . S
C874 C878 1.531 . S
C875 C874 1.369 . S
C875 C876 1.410 . S
C875 C883 1.503 . S
C876 C875 1.410 . S
C876 C877 1.392 . S
C876 C879 1.511 . S
C877 C873 1.376 . S
C877 C876 1.392 . S
C877 H889 0.929 . S
C878 C874 1.531 . S
C878 H890 0.960 . S
C878 H891 0.962 . S
C878 H892 0.960 . S
C879 C876 1.511 . S
C879 H893 0.961 . S
C879 H894 0.961 . S
C879 H895 0.961 . S
C880 C881 1.370 . S
C880 C882 1.363 . S
C880 H896 0.931 . S
C881 C880 1.370 . S
C881 C885 1.408 . S
C882 C880 1.363 . S
C882 C883 1.370 . S
C882 C886 1.524 . S
C883 C875 1.503 . S
C883 C882 1.370 . S
C883 C884 1.403 . S
C884 C883 1.403 . S
C884 C885 1.404 . S
C884 C887 1.539 . S
C885 C881 1.408 . S
C885 C884 1.404 . S
C885 H897 0.930 . S
C886 C882 1.524 . S
C886 H898 0.956 . S
C886 H899 0.961 . S
C886 H900 0.961 . S
C887 C884 1.539 . S
C887 H901 0.958 . S
C887 H902 0.961 . S
C887 H903 0.960 . S
H888 C872 0.931 . S
H889 C877 0.929 . S
H890 C878 0.960 . S
H891 C878 0.962 . S
H892 C878 0.960 . S
H893 C879 0.961 . S
H894 C879 0.961 . S
H895 C879 0.961 . S
H896 C880 0.931 . S
H897 C885 0.930 . S
H898 C886 0.956 . S
H899 C886 0.961 . S
H900 C886 0.961 . S
H901 C887 0.958 . S
H902 C887 0.961 . S
H903 C887 0.960 . S
C904 C905 1.391 . S
C904 C906 1.394 . S
C904 H920 0.931 . S
C905 C904 1.391 . S
C905 C909 1.376 . S
C906 C904 1.394 . S
C906 C907 1.369 . S
C906 C910 1.531 . S
C907 C906 1.369 . S
C907 C908 1.410 . S
C907 C915 1.503 . S
C908 C907 1.410 . S
C908 C909 1.392 . S
C908 C911 1.511 . S
C909 C905 1.376 . S
C909 C908 1.392 . S
C909 H921 0.929 . S
C910 C906 1.531 . S
C910 H922 0.960 . S
C910 H923 0.962 . S
C910 H924 0.960 . S
C911 C908 1.511 . S
C911 H925 0.961 . S
C911 H926 0.961 . S
C911 H927 0.961 . S
C912 C913 1.370 . S
C912 C914 1.363 . S
C912 H928 0.931 . S
C913 C912 1.370 . S
C913 C917 1.408 . S
C914 C912 1.363 . S
C914 C915 1.370 . S
C914 C918 1.524 . S
C915 C907 1.503 . S
C915 C914 1.370 . S
C915 C916 1.403 . S
C916 C915 1.403 . S
C916 C917 1.404 . S
C916 C919 1.539 . S
C917 C913 1.408 . S
C917 C916 1.404 . S
C917 H929 0.930 . S
C918 C914 1.524 . S
C918 H930 0.956 . S
C918 H931 0.961 . S
C918 H932 0.961 . S
C919 C916 1.539 . S
C919 H933 0.958 . S
C919 H934 0.961 . S
C919 H935 0.960 . S
H920 C904 0.931 . S
H921 C909 0.929 . S
H922 C910 0.960 . S
H923 C910 0.962 . S
H924 C910 0.960 . S
H925 C911 0.961 . S
H926 C911 0.961 . S
H927 C911 0.961 . S
H928 C912 0.931 . S
H929 C917 0.930 . S
H930 C918 0.956 . S
H931 C918 0.961 . S
H932 C918 0.961 . S
H933 C919 0.958 . S
H934 C919 0.961 . S
H935 C919 0.960 . S
C169 C13 1.309 . S
C177 C81 1.369 . S
C201 C25 1.267 . S
C209 C64 1.270 . S
C233 C83 1.290 . S
C241 C41 1.298 . S
C265 C53 1.309 . S
C273 C63 1.298 . S
C297 C105 1.378 . S
C305 C39 1.395 . S
C329 C92 1.437 . S
C337 C55 1.380 . S
C361 C11 1.374 . S
C369 C106 1.356 . S
C393 C91 1.407 . S
C401 C27 1.377 . S
C425 C133 1.294 . S
C433 C119 1.303 . S
C457 C120 1.169 . S
C465 C162 1.205 1_554 S
C489 C134 1.254 1_554 S
C497 C148 1.256 . S
C521 C147 1.312 . S
C529 C161 1.298 . S
C553 C167 1.362 . S
C561 C95 1.385 . S
C585 C123 1.140 . S
C593 C109 1.135 . S
C617 C97 1.356 . S
C625 C139 1.365 . S
C649 C111 1.149 . S
C657 C151 1.227 . S
C681 C69 1.283 . S
C689 C137 1.302 . S
C713 C78 1.509 . S
C721 C153 1.449 . S
C745 C165 1.225 . S
C753 C67 1.227 . S
C777 C125 1.407 . S
C785 C77 1.435 . S
C809 C21 1.423 . S
C817 C35 1.406 . S
C841 C8 1.296 . S
C849 C22 1.319 . S
C873 C36 1.396 . S
C881 C50 1.378 . S
C905 C7 1.429 . S
C913 C49 1.413 . S
