# Generated by pormake.
# Topology qtz-x, (6)-cn, num edge types: 1
# Building blocks:
#     Node 0, Type 0, BuildingBlock: KUMBOL_clean_sbu_0, # of connection points: 6
#     Node 1, Type 0, BuildingBlock: KUMBOL_clean_sbu_0, # of connection points: 6
#     Node 2, Type 0, BuildingBlock: KUMBOL_clean_sbu_0, # of connection points: 6
#     Edge 3, Type (0, 0), BuildingBlock: FUNLAD_clean_linker_1, # of connection points: 2
#     Edge 4, Type (0, 0), BuildingBlock: FUNLAD_clean_linker_1, # of connection points: 2
#     Edge 5, Type (0, 0), BuildingBlock: FUNLAD_clean_linker_1, # of connection points: 2
#     Edge 6, Type (0, 0), BuildingBlock: FUNLAD_clean_linker_1, # of connection points: 2
#     Edge 7, Type (0, 0), BuildingBlock: FUNLAD_clean_linker_1, # of connection points: 2
#     Edge 8, Type (0, 0), BuildingBlock: FUNLAD_clean_linker_1, # of connection points: 2
#     Edge 9, Type (0, 0), BuildingBlock: FUNLAD_clean_linker_1, # of connection points: 2
#     Edge 10, Type (0, 0), BuildingBlock: FUNLAD_clean_linker_1, # of connection points: 2
#     Edge 11, Type (0, 0), BuildingBlock: FUNLAD_clean_linker_1, # of connection points: 2
# Relax obj value: 0.166
# Max RMSD: 0.280
# Mean RMSD: 0.280
data_MOF--net-qtz-x--node1-KUMBOL_clean_sbu_0--edge1-FUNLAD_clean_linker_1
_symmetry_space_group_name_H-M    P1
_symmetry_Int_Tables_number       1
_symmetry_cell_setting            triclinic
loop_
_symmetry_equiv_pos_as_xyz
'x, y, z'
_cell_length_a     15.712969
_cell_length_b     15.713339
_cell_length_c     51.503684
_cell_angle_alpha  89.645079
_cell_angle_beta   90.532848
_cell_angle_gamma 119.72834
loop_
_atom_site_label
_atom_site_type_symbol
_atom_site_fract_x
_atom_site_fract_y
_atom_site_fract_z
_atom_type_partial_charge
Gd0 Gd 0.99246 0.36372 0.17046 0.0
Gd1 Gd 0.22931 0.50889 0.20561 0.0
C2 C 0.53006 0.65645 0.16726 0.0
C3 C 0.60637 0.56982 0.18704 0.0
C4 C 0.43927 0.52588 0.19808 0.0
C5 C 0.44339 0.59639 0.18115 0.0
C6 C 0.52133 0.51299 0.2016 0.0
C7 C 0.61064 0.64124 0.16985 0.0
C8 C 0.53483 0.73299 0.15216 0.0
C9 C 0.45584 0.75017 0.15192 0.0
N10 N 0.36527 0.611 0.17969 0.0
C11 C 0.37139 0.68851 0.16595 0.0
H12 H 0.31124 0.70319 0.16563 0.0
C13 C 0.35372 0.41176 0.23146 0.0
N14 N 0.3571 0.47412 0.21234 0.0
C15 C 0.43266 0.39547 0.23543 0.0
C16 C 0.5167 0.44594 0.22034 0.0
H17 H 0.28921 0.37338 0.24336 0.0
H18 H 0.67765 0.68637 0.15926 0.0
H19 H 0.91321 0.17474 0.21237 0.0
H20 H 0.60029 0.78124 0.14136 0.0
H21 H 0.46035 0.81159 0.14114 0.0
H22 H 0.67014 0.56101 0.18948 0.0
H23 H 0.9315 0.49721 0.13207 0.0
H24 H 0.62593 0.1004 0.23738 0.0
H25 H 0.76786 0.07295 0.2389 0.0
H26 H 0.55102 0.3107 0.18613 0.0
H27 H 0.42902 0.34477 0.25028 0.0
H28 H 0.57843 0.43448 0.22376 0.0
H29 H 0.54555 0.18962 0.21759 0.0
H30 H 0.7912 0.52452 0.12479 0.0
N31 N 0.85708 0.26319 0.1968 0.0
C32 C 0.69017 0.14627 0.22587 0.0
C33 C 0.77002 0.13039 0.22673 0.0
C34 C 0.69292 0.21902 0.20951 0.0
C35 C 0.77855 0.27701 0.19502 0.0
C36 C 0.85253 0.18857 0.21162 0.0
N37 N 0.86403 0.39728 0.16329 0.0
C38 C 0.7819 0.34582 0.1776 0.0
C39 C 0.78781 0.47446 0.13981 0.0
C40 C 0.70381 0.42426 0.15493 0.0
C41 C 0.86712 0.45891 0.144 0.0
C42 C 0.69961 0.35822 0.17392 0.0
H43 H 0.64196 0.43546 0.15141 0.0
O44 O 0.97265 0.3325 0.12919 0.0
O45 O 0.15444 0.45052 0.16795 0.0
O46 O 0.16532 0.60271 0.19083 0.0
O47 O -0.00393 0.50051 0.18476 0.0
O48 O 0.07654 0.47166 0.13869 0.0
O49 O 0.92752 0.21356 0.1569 0.0
O50 O 0.25143 0.53698 0.24705 0.0
O51 O 0.06816 0.42294 0.20765 0.0
O52 O 0.05562 0.26991 0.18558 0.0
O53 O 0.22478 0.37164 0.19137 0.0
O54 O 0.14282 0.40291 0.23774 0.0
O55 O 0.29126 0.6575 0.22016 0.0
C56 C 0.16329 0.49563 0.14697 0.0
C57 C 0.61503 0.3024 0.18873 0.0
C58 C 0.61187 0.23331 0.2066 0.0
C59 C 0.92591 0.23795 0.1327 0.0
C60 C 0.83269 0.18385 0.11833 0.0
C61 C 0.74265 0.13148 0.13123 0.0
C62 C 0.83359 0.19163 0.09115 0.0
C63 C 0.74535 0.15088 0.07693 0.0
C64 C 0.65485 0.08956 0.11711 0.0
C65 C 0.65607 0.10072 0.09015 0.0
C66 C 0.07467 0.5878 0.18805 0.0
C67 C 0.05688 0.37988 0.22899 0.0
C68 C 0.29267 0.63158 0.24422 0.0
C69 C 0.38342 0.68988 0.25926 0.0
C70 C 0.47571 0.72957 0.24761 0.0
C71 C 0.37719 0.70346 0.28597 0.0
C72 C 0.46222 0.75655 0.3012 0.0
C73 C 0.56062 0.78197 0.26252 0.0
C74 C 0.55439 0.79519 0.28911 0.0
C75 C 0.14603 0.28445 0.18829 0.0
H76 H 0.73984 0.1248 0.15219 0.0
H77 H 0.90295 0.2344 0.0813 0.0
H78 H 0.5856 0.05041 0.12714 0.0
H79 H 0.58728 0.07107 0.0796 0.0
H80 H 0.48222 0.7196 0.2271 0.0
H81 H 0.30564 0.6722 0.29493 0.0
H82 H 0.63172 0.81181 0.25348 0.0
H83 H 0.62214 0.83423 0.29996 0.0
Gd84 Gd 0.7555 0.18007 0.50357 0.0
Gd85 Gd 0.62852 0.95001 0.54147 0.0
C86 C 0.47184 0.63731 0.50946 0.0
C87 C 0.3117 0.56943 0.52937 0.0
C88 C 0.43325 0.74132 0.53546 0.0
C89 C 0.49867 0.72983 0.52024 0.0
C90 C 0.33929 0.66104 0.54044 0.0
C91 C 0.37758 0.55775 0.51376 0.0
C92 C 0.54173 0.6264 0.49554 0.0
C93 C 0.63603 0.70597 0.493 0.0
N94 N 0.59045 0.80731 0.51735 0.0
C95 C 0.65972 0.79554 0.50445 0.0
H96 H 0.73394 0.85468 0.50268 0.0
C97 C 0.4045 0.84185 0.56379 0.0
N98 N 0.46361 0.82943 0.54676 0.0
C99 C 0.30991 0.76534 0.56885 0.0
C100 C 0.27723 0.67434 0.55719 0.0
H101 H 0.43102 0.91116 0.57363 0.0
H102 H 0.35581 0.48625 0.50567 0.0
H103 H 0.66594 0.28663 0.54315 0.0
H104 H 0.52416 0.55654 0.48709 0.0
H105 H 0.69116 0.698 0.48257 0.0
H106 H 0.24037 0.50665 0.53321 0.0
H107 H 0.94272 0.20625 0.46816 0.0
H108 H 0.89227 0.57943 0.55846 0.0
H109 H 0.72125 0.44624 0.56364 0.0
H110 H 0.15968 0.6118 0.50749 0.0
H111 H 0.26313 0.776 0.58216 0.0
H112 H 0.20497 0.61433 0.56172 0.0
H113 H 0.05523 0.64096 0.53714 0.0
H114 H 0.11176 0.33418 0.45785 0.0
N115 N 0.80581 0.32526 0.52751 0.0
C116 C 0.869 0.50854 0.54976 0.0
C117 C 0.77245 0.43357 0.55272 0.0
C118 C 0.93318 0.4924 0.53469 0.0
C119 C 0.89916 0.39864 0.52377 0.0
C120 C 0.74155 0.3426 0.54109 0.0
N121 N 0.92133 0.29299 0.49604 0.0
C122 C 0.9586 0.3821 0.5074 0.0
C123 C 0.06969 0.34858 0.47191 0.0
C124 C 0.10966 0.44031 0.48369 0.0
C125 C 0.97416 0.2761 0.47792 0.0
C126 C 0.05352 0.45859 0.50137 0.0
H127 H 0.18294 0.49706 0.47859 0.0
O128 O 0.75573 0.19874 0.46173 0.0
O129 O 0.65547 0.01826 0.50233 0.0
O130 O 0.78281 0.98885 0.53046 0.0
O131 O 0.87504 0.15639 0.52041 0.0
O132 O 0.76719 0.07708 0.47555 0.0
O133 O 0.68418 0.25509 0.48652 0.0
O134 O 0.60539 0.9084 0.58243 0.0
O135 O 0.72357 0.11051 0.5422 0.0
O136 O 0.60396 0.14648 0.51528 0.0
O137 O 0.51063 0.98014 0.52628 0.0
O138 O 0.61974 0.05238 0.57067 0.0
O139 O 0.72228 0.90569 0.56112 0.0
C140 C 0.69143 -0.00223 0.4832 0.0
C141 C 0.08786 0.55166 0.51232 0.0
C142 C 0.02819 0.56833 0.52913 0.0
C143 C 0.71477 0.25314 0.4632 0.0
C144 C 0.76395 0.34657 0.44891 0.0
C145 C 0.80308 0.43728 0.46169 0.0
C146 C 0.77647 0.34463 0.42207 0.0
C147 C 0.82909 0.43222 0.40798 0.0
C148 C 0.85551 0.52454 0.44777 0.0
C149 C 0.86945 0.52213 0.42108 0.0
C150 C 0.86692 0.07072 0.52672 0.0
C151 C 0.69338 0.13215 0.56221 0.0
C152 C 0.67374 0.88441 0.58279 0.0
C153 C 0.65026 0.7902 0.59489 0.0
C154 C 0.63952 0.71117 0.57977 0.0
C155 C 0.64565 0.78144 0.62207 0.0
C156 C 0.63508 0.69635 0.63407 0.0
C157 C 0.62738 0.62587 0.59169 0.0
C158 C 0.62629 0.61875 0.61873 0.0
C159 C 0.51976 0.06615 0.51987 0.0
H160 H 0.79456 0.44096 0.48241 0.0
H161 H 0.74884 0.27458 0.41243 0.0
H162 H 0.88654 0.59416 0.45775 0.0
H163 H 0.91186 0.59043 0.41066 0.0
H164 H 0.64245 0.71596 0.55879 0.0
H165 H 0.65366 0.84192 0.63389 0.0
H166 H 0.61999 0.5656 0.57996 0.0
H167 H 0.6176 0.55235 0.62769 0.0
Gd168 Gd 0.79246 0.4226 0.84431 0.0
Gd169 Gd 0.68864 0.55023 0.88139 0.0
C170 C 0.59464 0.76114 0.84882 0.0
C171 C 0.69127 0.90597 0.87516 0.0
C172 C 0.71534 0.76507 0.87919 0.0
C173 C 0.64357 0.71574 0.86054 0.0
C174 C 0.74027 0.86096 0.88663 0.0
C175 C 0.6196 0.85679 0.85604 0.0
C176 C 0.51801 0.707 0.83135 0.0
C177 C 0.48885 0.60878 0.82686 0.0
N178 N 0.61602 0.62083 0.85543 0.0
C179 C 0.53738 0.5661 0.8396 0.0
H180 H 0.51107 0.48897 0.83687 0.0
C181 C 0.82212 0.76022 0.91111 0.0
N182 N 0.75619 0.717 0.89127 0.0
C183 C 0.85192 0.85655 0.91847 0.0
C184 C 0.81077 0.90721 0.90619 0.0
H185 H 0.8516 0.71993 0.92122 0.0
H186 H 0.58188 0.89227 0.84753 0.0
H187 H 0.97195 0.47759 0.889 0.0
H188 H 0.47888 0.73933 0.82189 0.0
H189 H 0.42775 0.56535 0.81398 0.0
H190 H 0.70724 0.97834 0.88123 0.0
H191 H 0.62034 0.25079 0.80598 0.0
H192 H 0.03142 0.24076 0.89215 0.0
H193 H 0.0662 0.40455 0.90678 0.0
H194 H 0.80828 0.01396 0.82956 0.0
H195 H 0.90499 0.89091 0.93398 0.0
H196 H 0.83231 0.98109 0.91231 0.0
H197 H 0.93713 0.09698 0.86264 0.0
H198 H 0.57851 0.08919 0.78844 0.0
N199 N 0.8772 0.35339 0.86587 0.0
C200 C 0.98765 0.27146 0.88472 0.0
C201 C 0.00758 0.36392 0.89297 0.0
C202 C 0.91296 0.22072 0.8665 0.0
C203 C 0.85732 0.26346 0.85764 0.0
C204 C 0.95311 0.40493 0.88284 0.0
N205 N 0.73216 0.25925 0.83134 0.0
C206 C 0.78311 0.21534 0.83962 0.0
C207 C 0.63606 0.1237 0.80289 0.0
C208 C 0.68839 0.078 0.81108 0.0
C209 C 0.65976 0.21526 0.81303 0.0
C210 C 0.76352 0.12409 0.82948 0.0
H211 H 0.67085 0.00772 0.80292 0.0
O212 O 0.82055 0.44618 0.80306 0.0
O213 O 0.73914 0.53055 0.843 0.0
O214 O 0.57241 0.40243 0.86509 0.0
O215 O 0.64571 0.30526 0.85928 0.0
O216 O 0.6864 0.42371 0.81493 0.0
O217 O 0.94205 0.49299 0.83007 0.0
O218 O 0.64915 0.55548 0.92156 0.0
O219 O 0.74495 0.44748 0.88205 0.0
O220 O 0.90911 0.56096 0.86398 0.0
O221 O 0.84257 0.66354 0.86967 0.0
O222 O 0.76965 0.52771 0.91523 0.0
O223 O 0.53598 0.47724 0.89248 0.0
C224 C 0.68766 0.50218 0.82263 0.0
C225 C 0.82087 0.08296 0.83754 0.0
C226 C 0.89439 0.13034 0.85632 0.0
C227 C 0.91447 0.48116 0.80576 0.0
C228 C 0.95921 0.44202 0.78778 0.0
C229 C 0.03303 0.42185 0.79589 0.0
C230 C 0.92825 0.42634 0.76171 0.0
C231 C 0.96963 0.39079 0.74379 0.0
C232 C 0.07467 0.38638 0.77815 0.0
C233 C 0.04328 0.37065 0.75224 0.0
C234 C 0.56781 0.31603 0.86271 0.0
C235 C 0.78079 0.46011 0.90446 0.0
C236 C 0.5555 0.51103 0.9162 0.0
C237 C 0.50023 0.55772 0.92587 0.0
C238 C 0.46113 0.59907 0.90855 0.0
C239 C 0.48501 0.55978 0.95269 0.0
C240 C 0.43105 0.60298 0.96215 0.0
C241 C 0.4093 0.64311 0.91777 0.0
C242 C 0.39424 0.64503 0.94432 0.0
C243 C 0.9181 0.64856 0.86724 0.0
H244 H 0.05842 0.43314 0.81587 0.0
H245 H 0.87147 0.44201 0.75529 0.0
H246 H 0.131 0.37027 0.78455 0.0
H247 H 0.0751 0.34059 0.73917 0.0
H248 H 0.46946 0.59661 0.88785 0.0
H249 H 0.51429 0.52643 0.96576 0.0
H250 H 0.37975 0.67498 0.90424 0.0
H251 H 0.35254 0.67868 0.95092 0.0
H252 H 0.98935 0.66304 0.18132 0.0
C253 C 0.06056 0.67376 0.18729 0.0
H254 H 0.20458 0.77556 0.19935 0.0
H255 H 0.21433 0.14284 0.14677 0.0
H256 H 0.33302 0.12471 0.12128 0.0
H257 H 0.35634 0.98174 0.12737 0.0
H258 H 0.26026 0.85565 0.15879 0.0
C259 C 0.13274 0.76388 0.19373 0.0
C260 C 0.12057 0.85167 0.19114 0.0
C261 C 0.17901 0.92595 0.17304 0.0
C262 C 0.1672 0.00955 0.16995 0.0
C263 C 0.22291 0.07987 0.15074 0.0
C264 C 0.29075 0.06989 0.13574 0.0
C265 C 0.30375 0.98934 0.13913 0.0
C266 C 0.24827 0.91763 0.15737 0.0
H267 H 0.23097 0.20876 0.19498 0.0
C268 C 0.15967 0.1982 0.18917 0.0
H269 H 0.01505 0.09652 0.17752 0.0
H270 H 0.00382 0.7279 0.22952 0.0
H271 H 0.88538 0.74613 0.25511 0.0
H272 H 0.86288 0.8897 0.24925 0.0
H273 H 0.9594 0.01616 0.21794 0.0
C274 C 0.08696 0.108 0.18297 0.0
C275 C 0.09882 0.02 0.18551 0.0
C276 C 0.04032 0.94567 0.20359 0.0
C277 C 0.05193 0.86192 0.20663 0.0
C278 C -0.00426 0.79123 0.2257 0.0
C279 C 0.92796 0.80121 0.24073 0.0
C280 C 0.91541 0.88209 0.23746 0.0
C281 C 0.97115 0.95401 0.21929 0.0
H282 H 0.44076 0.1397 0.50611 0.0
C283 C 0.433 0.07763 0.51746 0.0
H284 H 0.33954 0.96043 0.5419 0.0
H285 H 0.17245 0.27979 0.53642 0.0
H286 H 0.32345 0.39246 0.55861 0.0
H287 H 0.44907 0.34602 0.56835 0.0
H288 H 0.42473 0.18704 0.55575 0.0
C289 C 0.34967 0.02259 0.53035 0.0
C290 C 0.26844 0.04505 0.52828 0.0
C291 C 0.28249 0.13723 0.53668 0.0
C292 C 0.20892 0.16292 0.53179 0.0
C293 C 0.22554 0.25609 0.53985 0.0
C294 C 0.3119 0.32155 0.55263 0.0
C295 C 0.38271 0.29549 0.55806 0.0
C296 C 0.36825 0.2043 0.55043 0.0
H297 H 0.94649 -0.00151 0.54102 0.0
C298 C 0.95451 0.06098 0.52982 0.0
H299 H 0.04912 0.18001 0.50606 0.0
H300 H 0.21599 0.86014 0.51144 0.0
H301 H 0.06534 0.74769 0.48907 0.0
H302 H 0.94025 0.7946 0.47903 0.0
H303 H 0.96457 0.95355 0.49161 0.0
C304 C 0.0387 0.11733 0.51741 0.0
C305 C 0.12002 0.09495 0.51951 0.0
C306 C 0.10615 0.0029 0.51102 0.0
C307 C 0.1796 0.97713 0.51598 0.0
C308 C 0.16301 0.88395 0.50792 0.0
C309 C 0.07688 0.81864 0.49503 0.0
C310 C 0.00635 0.84493 0.48945 0.0
C311 C 0.02076 0.9361 0.49709 0.0
H312 H 0.07824 0.71413 0.8678 0.0
C313 C 0.01934 0.73157 0.8681 0.0
H314 H 0.98552 0.84611 0.86826 0.0
H315 H 0.41032 0.1511 0.9121 0.0
H316 H 0.31088 0.12716 0.95011 0.0
H317 H 0.13548 0.00185 0.95038 0.0
H318 H 0.05891 0.89911 0.9127 0.0
C319 C 0.04241 0.82601 0.86758 0.0
C320 C 0.14717 0.90527 0.86673 0.0
C321 C 0.19054 0.96608 0.88868 0.0
C322 C 0.29133 0.03953 0.88835 0.0
C323 C 0.33347 0.09641 0.91097 0.0
C324 C 0.27738 0.08287 0.93301 0.0
C325 C 0.1787 0.01223 0.93318 0.0
C326 C 0.13554 0.95397 0.91139 0.0
H327 H 0.40734 0.24271 0.86489 0.0
C328 C 0.46887 0.2294 0.86375 0.0
H329 H 0.51074 0.12067 0.86271 0.0
H330 H 0.08631 0.80563 0.82058 0.0
H331 H 0.18691 0.82722 0.78305 0.0
H332 H 0.36232 0.95241 0.78289 0.0
H333 H 0.43768 0.05707 0.82029 0.0
C334 C 0.45114 0.13659 0.86434 0.0
C335 C 0.34825 0.05359 0.8658 0.0
C336 C 0.30544 0.99153 0.84405 0.0
C337 C 0.20463 0.91815 0.84435 0.0
C338 C 0.16308 0.86032 0.82182 0.0
C339 C 0.21986 0.8725 0.80002 0.0
C340 C 0.31854 0.94306 0.79991 0.0
C341 C 0.361 0.00251 0.82153 0.0
H342 H 0.35958 0.63279 0.99477 0.0
C343 C 0.40758 0.60359 0.99008 0.0
H344 H 0.48371 0.53583 1.00665 0.0
H345 H 0.35779 0.73738 0.10278 0.0
H346 H 0.4876 0.89255 0.08652 0.0
H347 H 0.58063 0.89909 0.04741 0.0
H348 H 0.5431 0.74965 0.0243 0.0
C349 C 0.43797 0.56839 1.0098 0.0
C350 C 0.39939 0.56374 0.03639 0.0
C351 C 0.42485 0.65117 0.05015 0.0
C352 C 0.37353 0.64748 0.07308 0.0
C353 C 0.39659 0.73614 0.08568 0.0
C354 C 0.47064 0.82572 0.07645 0.0
C355 C 0.52275 0.82927 0.05442 0.0
C356 C 0.50024 0.7432 0.04129 0.0
H357 H 0.30227 0.50781 0.13325 0.0
C358 C 0.24404 0.52369 0.12851 0.0
H359 H 0.17854 0.56914 0.0997 0.0
H360 H 0.3396 0.38201 1.01603 0.0
H361 H 0.21162 0.22671 0.03283 0.0
H362 H 0.1222 0.22023 0.07259 0.0
H363 H 0.16054 0.36851 0.09587 0.0
C364 C 0.23699 0.55359 0.10449 0.0
C365 C 0.29964 0.55626 0.08276 0.0
C366 C 0.27768 0.46823 0.06976 0.0
C367 C 0.32835 0.47201 0.04665 0.0
C368 C 0.30334 0.38335 0.03365 0.0
C369 C 0.22998 0.29369 0.04307 0.0
C370 C 0.17971 0.29002 0.06547 0.0
C371 C 0.20281 0.37592 0.07871 0.0
H372 H 0.92225 0.48592 0.37325 0.0
C373 C 0.85062 0.43054 0.38016 0.0
H374 H 0.71491 0.30725 0.37021 0.0
H375 H 0.00787 0.52124 0.26639 0.0
H376 H 0.9911 0.66252 0.27566 0.0
H377 H 0.88874 0.66065 0.31192 0.0
H378 H 0.80631 0.51779 0.33995 0.0
C379 C 0.78732 0.36169 0.36365 0.0
C380 C 0.81938 0.35099 0.33735 0.0
C381 C 0.85929 0.43111 0.31978 0.0
C382 C 0.91178 0.42904 0.29769 0.0
C383 C 0.96157 0.51527 0.28244 0.0
C384 C 0.95324 0.59772 0.28766 0.0
C385 C 0.89614 0.59691 0.30817 0.0
C386 C 0.84983 0.51488 0.32418 0.0
H387 H 0.9158 0.36875 0.23998 0.0
C388 C 0.97596 0.35882 0.24676 0.0
H389 H 0.04386 0.33304 0.27893 0.0
H390 H 0.74351 0.18054 0.36577 0.0
H391 H 0.74091 0.0309 0.35357 0.0
H392 H 0.81282 0.01975 0.31219 0.0
H393 H 0.89211 0.16071 0.2834 0.0
C394 C 0.98415 0.34374 0.27208 0.0
C395 C 0.91586 0.3427 0.29198 0.0
C396 C 0.86472 0.25827 0.30773 0.0
C397 C 0.81867 0.26307 0.33085 0.0
C398 C 0.77594 0.18009 0.34742 0.0
C399 C 0.77423 0.09355 0.34067 0.0
C400 C 0.81523 0.08749 0.31747 0.0
C401 C 0.86069 0.1689 0.30119 0.0
H402 H 0.75082 0.64338 0.80179 0.0
C403 C 0.68836 0.56962 0.80254 0.0
H404 H 0.5661 0.45751 0.78361 0.0
H405 H 0.71706 0.82939 0.69858 0.0
H406 H 0.70079 0.92642 0.7326 0.0
H407 H 0.65889 0.8622 0.77731 0.0
H408 H 0.6358 0.70202 0.78832 0.0
C409 C 0.62657 0.53243 0.78223 0.0
C410 C 0.65326 0.575 0.75562 0.0
C411 C 0.66277 0.6673 0.74929 0.0
C412 C 0.68216 0.70224 0.7232 0.0
C413 C 0.69752 0.79726 0.71775 0.0
C414 C 0.68923 0.8541 0.73715 0.0
C415 C 0.66597 0.81813 0.76234 0.0
C416 C 0.65291 0.72595 0.76843 0.0
H417 H 0.5734 0.68912 0.67299 0.0
C418 C 0.63264 0.68774 0.66264 0.0
H419 H 0.758 0.67274 0.66466 0.0
H420 H 0.65807 0.40338 0.76174 0.0
H421 H 0.67225 0.30588 0.72779 0.0
H422 H 0.68797 0.35785 0.68198 0.0
H423 H 0.69137 0.5085 0.67007 0.0
C424 C 0.69925 0.67341 0.67549 0.0
C425 C 0.68674 0.64245 0.70328 0.0
C426 C 0.67972 0.55128 0.70979 0.0
C427 C 0.66563 0.51889 0.73601 0.0
C428 C 0.66458 0.43008 0.74206 0.0
C429 C 0.67325 0.37336 0.72274 0.0
C430 C 0.68247 0.40277 0.69699 0.0
C431 C 0.68517 0.49018 0.69047 0.0
H432 H 0.77988 0.31966 0.91024 0.0
C433 C 0.79566 0.38814 0.91933 0.0
H434 H 0.83402 0.47118 0.95366 0.0
H435 H 0.65346 0.03948 1.00899 0.0
H436 H 0.50502 0.98535 0.98314 0.0
H437 H 0.49777 0.09067 0.94845 0.0
H438 H 0.63866 0.24781 0.93874 0.0
C439 C 0.81697 0.40184 0.94477 0.0
C440 C 0.82159 0.32797 0.96205 0.0
C441 C 0.73585 0.23805 0.96802 0.0
C442 C 0.73743 0.18025 0.98918 0.0
C443 C 0.6537 0.08798 0.99393 0.0
C444 C 0.56859 0.05594 0.97916 0.0
C445 C 0.56469 0.11506 0.95956 0.0
C446 C 0.64684 0.20529 0.95406 0.0
H447 H 0.68873 0.18669 0.0418 0.0
C448 C 0.74496 0.17097 0.04885 0.0
H449 H 0.86805 0.15807 0.03921 0.0
H450 H 0.00334 0.48088 0.95124 0.0
H451 H 0.15266 0.5309 0.97632 0.0
H452 H 0.15136 0.43879 1.01538 0.0
H453 H 0.0024 0.29509 0.02928 0.0
C454 C 0.81306 0.17558 0.03231 0.0
C455 C 0.82118 0.21635 1.00559 0.0
C456 C 0.90972 0.30002 0.99785 0.0
C457 C 0.90996 0.355 0.97579 0.0
C458 C -0.00098 0.43815 0.96826 0.0
C459 C 0.08513 0.46732 0.98238 0.0
C460 C 0.08446 0.41525 1.00435 0.0
C461 C -0.00195 0.33276 1.01214 0.0
H462 H 0.37927 0.72223 0.33811 0.0
C463 C 0.45123 0.76722 0.32959 0.0
H464 H 0.59551 0.88146 0.3372 0.0
H465 H 0.54266 0.06077 0.43783 0.0
H466 H 0.55207 0.18 0.4063 0.0
H467 H 0.53989 0.14491 0.35938 0.0
H468 H 0.52018 0.99075 0.34371 0.0
C469 C 0.52458 0.8303 0.34514 0.0
C470 C 0.51045 0.84118 0.37328 0.0
C471 C 0.51924 0.93039 0.38221 0.0
C472 C 0.52393 0.9496 0.40931 0.0
C473 C 0.53718 0.04133 0.41755 0.0
C474 C 0.54258 0.11059 0.39963 0.0
C475 C 0.53571 0.09084 0.37322 0.0
C476 C 0.52476 0.00222 0.36449 0.0
H477 H 0.67592 0.90015 0.45138 0.0
C478 C 0.63453 0.92263 0.46361 0.0
H479 H 0.50929 0.93805 0.466 0.0
H480 H 0.48691 0.65924 0.36312 0.0
H481 H 0.46064 0.5339 0.39479 0.0
H482 H 0.45557 0.56314 0.44159 0.0
H483 H 0.47984 0.72009 0.45702 0.0
C484 C 0.54723 0.90804 0.4551 0.0
C485 C 0.51843 0.87874 0.42747 0.0
C486 C 0.49925 0.78574 0.41857 0.0
C487 C 0.49752 0.76748 0.39147 0.0
C488 C 0.4855 0.67621 0.38335 0.0
C489 C 0.47078 0.60365 0.40136 0.0
C490 C 0.4684 0.62027 0.42774 0.0
C491 C 0.48291 0.7104 0.43635 0.0
H492 H 0.85493 0.35678 0.71414 0.0
C493 C 0.9292 0.36999 0.71697 0.0
H494 H 0.05281 0.37988 0.69795 0.0
H495 H 0.77305 0.07249 0.61335 0.0
H496 H 0.83712 0.98 0.63581 0.0
H497 H 0.94266 0.04747 0.67457 0.0
H498 H 0.98575 0.20844 0.69091 0.0
C499 C 0.97827 0.3664 0.69617 0.0
C500 C 0.92703 0.33304 0.67071 0.0
C501 C 0.90436 0.23971 0.66115 0.0
C502 C 0.84306 0.20062 0.63891 0.0
C503 C 0.81948 0.10603 0.63012 0.0
C504 C 0.85559 0.05193 0.64286 0.0
C505 C 0.91513 0.08999 0.66467 0.0
C506 C 0.93931 0.18258 0.67383 0.0
H507 H 0.83641 0.25394 0.57523 0.0
C508 C 0.75991 0.20842 0.58052 0.0
H509 H 0.6563 0.16081 0.6107 0.0
H510 H 0.97062 0.5209 0.68134 0.0
H511 H 0.90868 0.61482 0.6583 0.0
H512 H 0.79657 0.5439 0.62078 0.0
H513 H 0.7464 0.37874 0.60601 0.0
C514 C 0.73196 0.20873 0.60504 0.0
C515 C 0.80498 0.25523 0.62626 0.0
C516 C 0.83138 0.35032 0.63507 0.0
C517 C 0.89381 0.39004 0.65711 0.0
C518 C 0.92148 0.48645 0.66507 0.0
C519 C 0.88702 0.54128 0.65191 0.0
C520 C 0.82399 0.50141 0.63076 0.0
C521 C 0.79592 0.40684 0.62243 0.0
loop_
_geom_bond_atom_site_label_1
_geom_bond_atom_site_label_2
_geom_bond_distance
_geom_bond_site_symmetry_2
_ccdc_geom_bond_type
Gd0 N31 2.661 . S
Gd0 N37 2.601 . S
Gd0 O44 2.545 . S
Gd0 O45 2.606 1_655 S
Gd0 O47 2.429 . S
Gd0 O48 2.545 . S
Gd0 O49 2.412 . S
Gd0 O51 2.362 . S
Gd0 O52 2.324 . S
Gd0 C59 2.828 . S
Gd1 N10 2.661 . S
Gd1 N14 2.601 . S
Gd1 O45 2.362 . S
Gd1 O46 2.324 . S
Gd1 O50 2.545 . S
Gd1 O51 2.606 1_455 S
Gd1 O53 2.429 . S
Gd1 O54 2.545 . S
Gd1 O55 2.412 . S
Gd1 C68 2.828 . S
C2 C5 1.417 . S
C2 C7 1.431 . S
C2 C8 1.412 . S
C3 C6 1.437 . S
C3 C7 1.317 . S
C3 H22 0.929 . S
C4 C5 1.426 . S
C4 C6 1.413 . S
C4 N14 1.359 . S
C5 C2 1.417 . S
C5 C4 1.426 . S
C5 N10 1.350 . S
C6 C3 1.437 . S
C6 C4 1.413 . S
C6 C16 1.391 . S
C7 C2 1.431 . S
C7 C3 1.317 . S
C7 H18 0.930 . S
C8 C2 1.412 . S
C8 C9 1.355 . S
C8 H20 0.930 . S
C9 C8 1.355 . S
C9 C11 1.402 . S
C9 H21 0.930 . S
N10 Gd1 2.661 . S
N10 C5 1.350 . S
N10 C11 1.307 . S
C11 C9 1.402 . S
C11 N10 1.307 . S
C11 H12 0.930 . S
H12 C11 0.930 . S
C13 N14 1.334 . S
C13 C15 1.394 . S
C13 H17 0.930 . S
N14 Gd1 2.601 . S
N14 C4 1.359 . S
N14 C13 1.334 . S
C15 C13 1.394 . S
C15 C16 1.359 . S
C15 H27 0.930 . S
C16 C6 1.391 . S
C16 C15 1.359 . S
C16 H28 0.929 . S
H17 C13 0.930 . S
H18 C7 0.930 . S
H19 C36 0.930 . S
H20 C8 0.930 . S
H21 C9 0.930 . S
H22 C3 0.929 . S
H23 C41 0.930 . S
H24 C32 0.930 . S
H25 C33 0.930 . S
H26 C57 0.929 . S
H27 C15 0.930 . S
H28 C16 0.929 . S
H29 C58 0.930 . S
H30 C39 0.930 . S
N31 Gd0 2.661 . S
N31 C35 1.350 . S
N31 C36 1.307 . S
C32 H24 0.930 . S
C32 C33 1.355 . S
C32 C34 1.412 . S
C33 H25 0.930 . S
C33 C32 1.355 . S
C33 C36 1.402 . S
C34 C32 1.412 . S
C34 C35 1.417 . S
C34 C58 1.431 . S
C35 N31 1.350 . S
C35 C34 1.417 . S
C35 C38 1.426 . S
C36 H19 0.930 . S
C36 N31 1.307 . S
C36 C33 1.402 . S
N37 Gd0 2.601 . S
N37 C38 1.359 . S
N37 C41 1.334 . S
C38 C35 1.426 . S
C38 N37 1.359 . S
C38 C42 1.413 . S
C39 H30 0.930 . S
C39 C40 1.359 . S
C39 C41 1.394 . S
C40 C39 1.359 . S
C40 C42 1.391 . S
C40 H43 0.929 . S
C41 H23 0.930 . S
C41 N37 1.334 . S
C41 C39 1.394 . S
C42 C38 1.413 . S
C42 C40 1.391 . S
C42 C57 1.437 . S
H43 C40 0.929 . S
O44 Gd0 2.545 . S
O44 C59 1.258 . S
O45 Gd0 2.606 1_455 S
O45 Gd1 2.362 . S
O45 C56 1.284 . S
O46 Gd1 2.324 . S
O46 C66 1.254 . S
O47 Gd0 2.429 . S
O47 C66 1.268 1_655 S
O48 Gd0 2.545 . S
O48 C56 1.250 1_655 S
O49 Gd0 2.412 . S
O49 C59 1.252 . S
O50 Gd1 2.545 . S
O50 C68 1.258 . S
O51 Gd0 2.362 . S
O51 Gd1 2.606 1_655 S
O51 C67 1.284 . S
O52 Gd0 2.324 . S
O52 C75 1.254 . S
O53 Gd1 2.429 . S
O53 C75 1.268 1_455 S
O54 Gd1 2.545 . S
O54 C67 1.250 1_455 S
O55 Gd1 2.412 . S
O55 C68 1.252 . S
C56 O45 1.284 . S
C56 O48 1.250 1_455 S
C57 H26 0.929 . S
C57 C42 1.437 . S
C57 C58 1.317 . S
C58 H29 0.930 . S
C58 C34 1.431 . S
C58 C57 1.317 . S
C59 Gd0 2.828 . S
C59 O44 1.258 . S
C59 O49 1.252 . S
C59 C60 1.497 . S
C60 C59 1.497 . S
C60 C61 1.395 . S
C60 C62 1.380 . S
C61 C60 1.395 . S
C61 C64 1.398 . S
C61 H76 0.930 . S
C62 C60 1.380 . S
C62 C63 1.391 . S
C62 H77 0.930 . S
C63 C62 1.391 . S
C63 C65 1.387 . S
C64 C61 1.398 . S
C64 C65 1.380 . S
C64 H78 0.930 . S
C65 C63 1.387 . S
C65 C64 1.380 . S
C65 H79 0.930 . S
C66 O46 1.254 . S
C66 O47 1.268 1_455 S
C67 O51 1.284 . S
C67 O54 1.250 1_655 S
C68 Gd1 2.828 . S
C68 O50 1.258 . S
C68 O55 1.252 . S
C68 C69 1.497 . S
C69 C68 1.497 . S
C69 C70 1.395 . S
C69 C71 1.380 . S
C70 C69 1.395 . S
C70 C73 1.398 . S
C70 H80 0.930 . S
C71 C69 1.380 . S
C71 C72 1.391 . S
C71 H81 0.930 . S
C72 C71 1.391 . S
C72 C74 1.387 . S
C73 C70 1.398 . S
C73 C74 1.380 . S
C73 H82 0.930 . S
C74 C72 1.387 . S
C74 C73 1.380 . S
C74 H83 0.930 . S
C75 O52 1.254 . S
C75 O53 1.268 1_655 S
H76 C61 0.930 . S
H77 C62 0.930 . S
H78 C64 0.930 . S
H79 C65 0.930 . S
H80 C70 0.930 . S
H81 C71 0.930 . S
H82 C73 0.930 . S
H83 C74 0.930 . S
Gd84 N115 2.661 . S
Gd84 N121 2.601 1_655 S
Gd84 O128 2.545 . S
Gd84 O129 2.606 . S
Gd84 O131 2.429 . S
Gd84 O132 2.545 . S
Gd84 O133 2.412 . S
Gd84 O135 2.362 . S
Gd84 O136 2.324 . S
Gd84 C143 2.828 . S
Gd85 N94 2.661 1_545 S
Gd85 N98 2.601 1_545 S
Gd85 O129 2.362 . S
Gd85 O130 2.324 . S
Gd85 O134 2.545 1_545 S
Gd85 O135 2.606 . S
Gd85 O137 2.429 . S
Gd85 O138 2.545 . S
Gd85 O139 2.412 1_545 S
Gd85 C152 2.828 1_545 S
C86 C89 1.417 . S
C86 C91 1.431 . S
C86 C92 1.412 . S
C87 C90 1.437 . S
C87 C91 1.317 . S
C87 H106 0.929 . S
C88 C89 1.426 . S
C88 C90 1.413 . S
C88 N98 1.359 . S
C89 C86 1.417 . S
C89 C88 1.426 . S
C89 N94 1.350 . S
C90 C87 1.437 . S
C90 C88 1.413 . S
C90 C100 1.391 . S
C91 C86 1.431 . S
C91 C87 1.317 . S
C91 H102 0.930 . S
C92 C86 1.412 . S
C92 C93 1.355 . S
C92 H104 0.930 . S
C93 C92 1.355 . S
C93 C95 1.402 . S
C93 H105 0.930 . S
N94 Gd85 2.661 1_565 S
N94 C89 1.350 . S
N94 C95 1.307 . S
C95 C93 1.402 . S
C95 N94 1.307 . S
C95 H96 0.930 . S
H96 C95 0.930 . S
C97 N98 1.334 . S
C97 C99 1.394 . S
C97 H101 0.930 . S
N98 Gd85 2.601 1_565 S
N98 C88 1.359 . S
N98 C97 1.334 . S
C99 C97 1.394 . S
C99 C100 1.359 . S
C99 H111 0.930 . S
C100 C90 1.391 . S
C100 C99 1.359 . S
C100 H112 0.929 . S
H101 C97 0.930 . S
H102 C91 0.930 . S
H103 C120 0.930 . S
H104 C92 0.930 . S
H105 C93 0.930 . S
H106 C87 0.929 . S
H107 C125 0.930 . S
H108 C116 0.930 . S
H109 C117 0.930 . S
H110 C141 0.929 . S
H111 C99 0.930 . S
H112 C100 0.929 . S
H113 C142 0.930 . S
H114 C123 0.930 . S
N115 Gd84 2.661 . S
N115 C119 1.350 . S
N115 C120 1.307 . S
C116 H108 0.930 . S
C116 C117 1.355 . S
C116 C118 1.412 . S
C117 H109 0.930 . S
C117 C116 1.355 . S
C117 C120 1.402 . S
C118 C116 1.412 . S
C118 C119 1.417 . S
C118 C142 1.431 1_655 S
C119 N115 1.350 . S
C119 C118 1.417 . S
C119 C122 1.426 1_655 S
C120 H103 0.930 . S
C120 N115 1.307 . S
C120 C117 1.402 . S
N121 Gd84 2.601 1_455 S
N121 C122 1.359 . S
N121 C125 1.334 . S
C122 C119 1.426 1_455 S
C122 N121 1.359 . S
C122 C126 1.413 . S
C123 H114 0.930 . S
C123 C124 1.359 . S
C123 C125 1.394 . S
C124 C123 1.359 . S
C124 C126 1.391 . S
C124 H127 0.929 . S
C125 H107 0.930 . S
C125 N121 1.334 . S
C125 C123 1.394 . S
C126 C122 1.413 . S
C126 C124 1.391 . S
C126 C141 1.437 . S
H127 C124 0.929 . S
O128 Gd84 2.545 . S
O128 C143 1.258 . S
O129 Gd84 2.606 . S
O129 Gd85 2.362 . S
O129 C140 1.284 . S
O130 Gd85 2.324 . S
O130 C150 1.254 . S
O131 Gd84 2.429 . S
O131 C150 1.268 . S
O132 Gd84 2.545 . S
O132 C140 1.250 . S
O133 Gd84 2.412 . S
O133 C143 1.252 . S
O134 Gd85 2.545 1_565 S
O134 C152 1.258 . S
O135 Gd84 2.362 . S
O135 Gd85 2.606 . S
O135 C151 1.284 . S
O136 Gd84 2.324 . S
O136 C159 1.254 . S
O137 Gd85 2.429 . S
O137 C159 1.268 . S
O138 Gd85 2.545 . S
O138 C151 1.250 . S
O139 Gd85 2.412 1_565 S
O139 C152 1.252 . S
C140 O129 1.284 . S
C140 O132 1.250 . S
C141 H110 0.929 . S
C141 C126 1.437 . S
C141 C142 1.317 . S
C142 H113 0.930 . S
C142 C118 1.431 1_455 S
C142 C141 1.317 . S
C143 Gd84 2.828 . S
C143 O128 1.258 . S
C143 O133 1.252 . S
C143 C144 1.497 . S
C144 C143 1.497 . S
C144 C145 1.395 1_655 S
C144 C146 1.380 . S
C145 C144 1.395 1_455 S
C145 C148 1.398 . S
C145 H160 0.930 . S
C146 C144 1.380 . S
C146 C147 1.391 . S
C146 H161 0.930 . S
C147 C146 1.391 . S
C147 C149 1.387 . S
C148 C145 1.398 . S
C148 C149 1.380 1_455 S
C148 H162 0.930 . S
C149 C147 1.387 . S
C149 C148 1.380 1_655 S
C149 H163 0.930 . S
C150 O130 1.254 . S
C150 O131 1.268 . S
C151 O135 1.284 . S
C151 O138 1.250 . S
C152 Gd85 2.828 1_565 S
C152 O134 1.258 . S
C152 O139 1.252 . S
C152 C153 1.497 . S
C153 C152 1.497 . S
C153 C154 1.395 . S
C153 C155 1.380 . S
C154 C153 1.395 . S
C154 C157 1.398 . S
C154 H164 0.930 . S
C155 C153 1.380 . S
C155 C156 1.391 . S
C155 H165 0.930 . S
C156 C155 1.391 . S
C156 C158 1.387 . S
C157 C154 1.398 . S
C157 C158 1.380 . S
C157 H166 0.930 . S
C158 C156 1.387 . S
C158 C157 1.380 . S
C158 H167 0.930 . S
C159 O136 1.254 . S
C159 O137 1.268 . S
H160 C145 0.930 . S
H161 C146 0.930 . S
H162 C148 0.930 . S
H163 C149 0.930 . S
H164 C154 0.930 . S
H165 C155 0.930 . S
H166 C157 0.930 . S
H167 C158 0.930 . S
Gd168 N199 2.661 . S
Gd168 N205 2.601 . S
Gd168 O212 2.545 . S
Gd168 O213 2.606 . S
Gd168 O215 2.429 . S
Gd168 O216 2.545 . S
Gd168 O217 2.412 . S
Gd168 O219 2.362 . S
Gd168 O220 2.324 . S
Gd168 C227 2.828 . S
Gd169 N178 2.661 . S
Gd169 N182 2.601 . S
Gd169 O213 2.362 . S
Gd169 O214 2.324 . S
Gd169 O218 2.545 . S
Gd169 O219 2.606 . S
Gd169 O221 2.429 . S
Gd169 O222 2.545 . S
Gd169 O223 2.412 . S
Gd169 C236 2.828 . S
C170 C173 1.417 . S
C170 C175 1.431 . S
C170 C176 1.412 . S
C171 C174 1.437 . S
C171 C175 1.317 . S
C171 H190 0.929 . S
C172 C173 1.426 . S
C172 C174 1.413 . S
C172 N182 1.359 . S
C173 C170 1.417 . S
C173 C172 1.426 . S
C173 N178 1.350 . S
C174 C171 1.437 . S
C174 C172 1.413 . S
C174 C184 1.391 . S
C175 C170 1.431 . S
C175 C171 1.317 . S
C175 H186 0.930 . S
C176 C170 1.412 . S
C176 C177 1.355 . S
C176 H188 0.930 . S
C177 C176 1.355 . S
C177 C179 1.402 . S
C177 H189 0.930 . S
N178 Gd169 2.661 . S
N178 C173 1.350 . S
N178 C179 1.307 . S
C179 C177 1.402 . S
C179 N178 1.307 . S
C179 H180 0.930 . S
H180 C179 0.930 . S
C181 N182 1.334 . S
C181 C183 1.394 . S
C181 H185 0.930 . S
N182 Gd169 2.601 . S
N182 C172 1.359 . S
N182 C181 1.334 . S
C183 C181 1.394 . S
C183 C184 1.359 . S
C183 H195 0.930 . S
C184 C174 1.391 . S
C184 C183 1.359 . S
C184 H196 0.929 . S
H185 C181 0.930 . S
H186 C175 0.930 . S
H187 C204 0.930 . S
H188 C176 0.930 . S
H189 C177 0.930 . S
H190 C171 0.929 . S
H191 C209 0.930 . S
H192 C200 0.930 . S
H193 C201 0.930 . S
H194 C225 0.929 1_565 S
H195 C183 0.930 . S
H196 C184 0.929 . S
H197 C226 0.930 1_455 S
H198 C207 0.930 . S
N199 Gd168 2.661 . S
N199 C203 1.350 . S
N199 C204 1.307 1_655 S
C200 H192 0.930 . S
C200 C201 1.355 . S
C200 C202 1.412 . S
C201 H193 0.930 . S
C201 C200 1.355 . S
C201 C204 1.402 . S
C202 C200 1.412 . S
C202 C203 1.417 1_455 S
C202 C226 1.431 1_455 S
C203 N199 1.350 . S
C203 C202 1.417 1_655 S
C203 C206 1.426 . S
C204 H187 0.930 . S
C204 N199 1.307 1_455 S
C204 C201 1.402 . S
N205 Gd168 2.601 . S
N205 C206 1.359 . S
N205 C209 1.334 . S
C206 C203 1.426 . S
C206 N205 1.359 . S
C206 C210 1.413 . S
C207 H198 0.930 . S
C207 C208 1.359 . S
C207 C209 1.394 1_565 S
C208 C207 1.359 . S
C208 C210 1.391 1_565 S
C208 H211 0.929 . S
C209 H191 0.930 . S
C209 N205 1.334 . S
C209 C207 1.394 1_545 S
C210 C206 1.413 . S
C210 C208 1.391 1_545 S
C210 C225 1.437 . S
H211 C208 0.929 . S
O212 Gd168 2.545 . S
O212 C227 1.258 . S
O213 Gd168 2.606 . S
O213 Gd169 2.362 . S
O213 C224 1.284 . S
O214 Gd169 2.324 . S
O214 C234 1.254 . S
O215 Gd168 2.429 . S
O215 C234 1.268 . S
O216 Gd168 2.545 . S
O216 C224 1.250 . S
O217 Gd168 2.412 . S
O217 C227 1.252 . S
O218 Gd169 2.545 . S
O218 C236 1.258 . S
O219 Gd168 2.362 . S
O219 Gd169 2.606 . S
O219 C235 1.284 . S
O220 Gd168 2.324 . S
O220 C243 1.254 . S
O221 Gd169 2.429 . S
O221 C243 1.268 . S
O222 Gd169 2.545 . S
O222 C235 1.250 . S
O223 Gd169 2.412 . S
O223 C236 1.252 . S
C224 O213 1.284 . S
C224 O216 1.250 . S
C225 H194 0.929 1_545 S
C225 C210 1.437 . S
C225 C226 1.317 . S
C226 H197 0.930 1_655 S
C226 C202 1.431 1_655 S
C226 C225 1.317 . S
C227 Gd168 2.828 . S
C227 O212 1.258 . S
C227 O217 1.252 . S
C227 C228 1.497 . S
C228 C227 1.497 . S
C228 C229 1.395 . S
C228 C230 1.380 1_655 S
C229 C228 1.395 . S
C229 C232 1.398 . S
C229 H244 0.930 . S
C230 C228 1.380 1_455 S
C230 C231 1.391 . S
C230 H245 0.930 . S
C231 C230 1.391 . S
C231 C233 1.387 . S
C232 C229 1.398 . S
C232 C233 1.380 1_655 S
C232 H246 0.930 . S
C233 C231 1.387 . S
C233 C232 1.380 1_455 S
C233 H247 0.930 . S
C234 O214 1.254 . S
C234 O215 1.268 . S
C235 O219 1.284 . S
C235 O222 1.250 . S
C236 Gd169 2.828 . S
C236 O218 1.258 . S
C236 O223 1.252 . S
C236 C237 1.497 . S
C237 C236 1.497 . S
C237 C238 1.395 . S
C237 C239 1.380 . S
C238 C237 1.395 . S
C238 C241 1.398 . S
C238 H248 0.930 . S
C239 C237 1.380 . S
C239 C240 1.391 . S
C239 H249 0.930 . S
C240 C239 1.391 . S
C240 C242 1.387 . S
C241 C238 1.398 . S
C241 C242 1.380 . S
C241 H250 0.930 . S
C242 C240 1.387 . S
C242 C241 1.380 . S
C242 H251 0.930 . S
C243 O220 1.254 . S
C243 O221 1.268 . S
H244 C229 0.930 . S
H245 C230 0.930 . S
H246 C232 0.930 . S
H247 C233 0.930 . S
H248 C238 0.930 . S
H249 C239 0.930 . S
H250 C241 0.930 . S
H251 C242 0.930 . S
H252 C253 0.951 . S
C253 H252 0.951 . S
C253 C259 1.265 1_655 S
H254 C259 0.950 . S
H255 C263 0.949 . S
H256 C264 0.950 1_545 S
H257 C265 0.951 . S
H258 C266 0.951 . S
C259 C253 1.265 1_455 S
C259 H254 0.950 . S
C259 C260 1.478 . S
C260 C259 1.478 . S
C260 C261 1.397 . S
C260 C277 1.394 1_455 S
C261 C260 1.397 . S
C261 C262 1.438 . S
C261 C266 1.429 . S
C262 C261 1.438 . S
C262 C263 1.428 1_565 S
C262 C275 1.394 1_455 S
C263 H255 0.949 . S
C263 C262 1.428 1_545 S
C263 C264 1.345 1_545 S
C264 H256 0.950 1_565 S
C264 C263 1.345 1_565 S
C264 C265 1.424 . S
C265 H257 0.951 . S
C265 C264 1.424 . S
C265 C266 1.347 . S
C266 H258 0.951 . S
C266 C261 1.429 . S
C266 C265 1.347 . S
H267 C268 0.951 . S
C268 H267 0.951 . S
C268 C274 1.265 1_455 S
H269 C274 0.950 . S
H270 C278 0.949 . S
H271 C279 0.950 . S
H272 C280 0.951 . S
H273 C281 0.951 1_545 S
C274 C268 1.265 1_655 S
C274 H269 0.950 . S
C274 C275 1.478 1_545 S
C275 C262 1.394 1_655 S
C275 C274 1.478 1_565 S
C275 C276 1.397 . S
C276 C275 1.397 . S
C276 C277 1.438 . S
C276 C281 1.429 . S
C277 C260 1.394 1_655 S
C277 C276 1.438 . S
C277 C278 1.428 . S
C278 H270 0.949 . S
C278 C277 1.428 . S
C278 C279 1.345 . S
C279 H271 0.950 . S
C279 C278 1.345 . S
C279 C280 1.424 . S
C280 H272 0.951 . S
C280 C279 1.424 . S
C280 C281 1.347 . S
C281 H273 0.951 1_565 S
C281 C276 1.429 . S
C281 C280 1.347 . S
H282 C283 0.951 . S
C283 H282 0.951 . S
C283 C289 1.265 . S
H284 C289 0.950 . S
H285 C293 0.949 . S
H286 C294 0.950 . S
H287 C295 0.951 . S
H288 C296 0.951 . S
C289 C283 1.265 . S
C289 H284 0.950 . S
C289 C290 1.478 . S
C290 C289 1.478 . S
C290 C291 1.397 . S
C290 C307 1.394 . S
C291 C290 1.397 . S
C291 C292 1.438 . S
C291 C296 1.429 . S
C292 C291 1.438 . S
C292 C293 1.428 . S
C292 C305 1.394 . S
C293 H285 0.949 . S
C293 C292 1.428 . S
C293 C294 1.345 . S
C294 H286 0.950 . S
C294 C293 1.345 . S
C294 C295 1.424 . S
C295 H287 0.951 . S
C295 C294 1.424 . S
C295 C296 1.347 . S
C296 H288 0.951 . S
C296 C291 1.429 . S
C296 C295 1.347 . S
H297 C298 0.951 . S
C298 H297 0.951 . S
C298 C304 1.265 . S
H299 C304 0.950 . S
H300 C308 0.949 . S
H301 C309 0.950 . S
H302 C310 0.951 . S
H303 C311 0.951 . S
C304 C298 1.265 . S
C304 H299 0.950 . S
C304 C305 1.478 . S
C305 C292 1.394 . S
C305 C304 1.478 . S
C305 C306 1.397 . S
C306 C305 1.397 . S
C306 C307 1.438 . S
C306 C311 1.429 . S
C307 C290 1.394 . S
C307 C306 1.438 . S
C307 C308 1.428 . S
C308 H300 0.949 . S
C308 C307 1.428 . S
C308 C309 1.345 1_545 S
C309 H301 0.950 . S
C309 C308 1.345 1_565 S
C309 C310 1.424 . S
C310 H302 0.951 . S
C310 C309 1.424 . S
C310 C311 1.347 1_565 S
C311 H303 0.951 . S
C311 C306 1.429 . S
C311 C310 1.347 1_545 S
H312 C313 0.951 . S
C313 H312 0.951 . S
C313 C319 1.265 . S
H314 C319 0.950 . S
H315 C323 0.949 . S
H316 C324 0.950 . S
H317 C325 0.951 . S
H318 C326 0.951 . S
C319 C313 1.265 . S
C319 H314 0.950 . S
C319 C320 1.478 . S
C320 C319 1.478 . S
C320 C321 1.397 . S
C320 C337 1.394 . S
C321 C320 1.397 . S
C321 C322 1.438 . S
C321 C326 1.429 . S
C322 C321 1.438 . S
C322 C323 1.428 1_565 S
C322 C335 1.394 . S
C323 H315 0.949 . S
C323 C322 1.428 1_545 S
C323 C324 1.345 . S
C324 H316 0.950 . S
C324 C323 1.345 . S
C324 C325 1.424 1_545 S
C325 H317 0.951 . S
C325 C324 1.424 1_565 S
C325 C326 1.347 . S
C326 H318 0.951 . S
C326 C321 1.429 . S
C326 C325 1.347 . S
H327 C328 0.951 . S
C328 H327 0.951 . S
C328 C334 1.265 . S
H329 C334 0.950 . S
H330 C338 0.949 . S
H331 C339 0.950 . S
H332 C340 0.951 . S
H333 C341 0.951 . S
C334 C328 1.265 . S
C334 H329 0.950 . S
C334 C335 1.478 1_545 S
C335 C322 1.394 . S
C335 C334 1.478 1_565 S
C335 C336 1.397 . S
C336 C335 1.397 . S
C336 C337 1.438 . S
C336 C341 1.429 . S
C337 C320 1.394 . S
C337 C336 1.438 . S
C337 C338 1.428 . S
C338 H330 0.949 . S
C338 C337 1.428 . S
C338 C339 1.345 . S
C339 H331 0.950 . S
C339 C338 1.345 . S
C339 C340 1.424 . S
C340 H332 0.951 . S
C340 C339 1.424 . S
C340 C341 1.347 . S
C341 H333 0.951 . S
C341 C336 1.429 . S
C341 C340 1.347 . S
H342 C343 0.951 . S
C343 H342 0.951 . S
C343 C349 1.265 1_556 S
H344 C349 0.950 . S
H345 C353 0.949 . S
H346 C354 0.950 . S
H347 C355 0.951 . S
H348 C356 0.951 . S
C349 C343 1.265 1_554 S
C349 H344 0.950 . S
C349 C350 1.478 . S
C350 C349 1.478 . S
C350 C351 1.397 . S
C350 C367 1.394 . S
C351 C350 1.397 . S
C351 C352 1.438 . S
C351 C356 1.429 . S
C352 C351 1.438 . S
C352 C353 1.428 . S
C352 C365 1.394 . S
C353 H345 0.949 . S
C353 C352 1.428 . S
C353 C354 1.345 . S
C354 H346 0.950 . S
C354 C353 1.345 . S
C354 C355 1.424 . S
C355 H347 0.951 . S
C355 C354 1.424 . S
C355 C356 1.347 . S
C356 H348 0.951 . S
C356 C351 1.429 . S
C356 C355 1.347 . S
H357 C358 0.951 . S
C358 H357 0.951 . S
C358 C364 1.265 . S
H359 C364 0.950 . S
H360 C368 0.949 1_556 S
H361 C369 0.950 . S
H362 C370 0.951 . S
H363 C371 0.951 . S
C364 C358 1.265 . S
C364 H359 0.950 . S
C364 C365 1.478 . S
C365 C352 1.394 . S
C365 C364 1.478 . S
C365 C366 1.397 . S
C366 C365 1.397 . S
C366 C367 1.438 . S
C366 C371 1.429 . S
C367 C350 1.394 . S
C367 C366 1.438 . S
C367 C368 1.428 . S
C368 H360 0.949 1_554 S
C368 C367 1.428 . S
C368 C369 1.345 . S
C369 H361 0.950 . S
C369 C368 1.345 . S
C369 C370 1.424 . S
C370 H362 0.951 . S
C370 C369 1.424 . S
C370 C371 1.347 . S
C371 H363 0.951 . S
C371 C366 1.429 . S
C371 C370 1.347 . S
H372 C373 0.951 . S
C373 H372 0.951 . S
C373 C379 1.265 . S
H374 C379 0.950 . S
H375 C383 0.949 . S
H376 C384 0.950 . S
H377 C385 0.951 . S
H378 C386 0.951 . S
C379 C373 1.265 . S
C379 H374 0.950 . S
C379 C380 1.478 . S
C380 C379 1.478 . S
C380 C381 1.397 . S
C380 C397 1.394 . S
C381 C380 1.397 . S
C381 C382 1.438 . S
C381 C386 1.429 . S
C382 C381 1.438 . S
C382 C383 1.428 . S
C382 C395 1.394 . S
C383 H375 0.949 . S
C383 C382 1.428 . S
C383 C384 1.345 . S
C384 H376 0.950 . S
C384 C383 1.345 . S
C384 C385 1.424 . S
C385 H377 0.951 . S
C385 C384 1.424 . S
C385 C386 1.347 . S
C386 H378 0.951 . S
C386 C381 1.429 . S
C386 C385 1.347 . S
H387 C388 0.951 . S
C388 H387 0.951 . S
C388 C394 1.265 . S
H389 C394 0.950 . S
H390 C398 0.949 . S
H391 C399 0.950 . S
H392 C400 0.951 . S
H393 C401 0.951 . S
C394 C388 1.265 . S
C394 H389 0.950 . S
C394 C395 1.478 . S
C395 C382 1.394 . S
C395 C394 1.478 . S
C395 C396 1.397 . S
C396 C395 1.397 . S
C396 C397 1.438 . S
C396 C401 1.429 . S
C397 C380 1.394 . S
C397 C396 1.438 . S
C397 C398 1.428 . S
C398 H390 0.949 . S
C398 C397 1.428 . S
C398 C399 1.345 . S
C399 H391 0.950 . S
C399 C398 1.345 . S
C399 C400 1.424 . S
C400 H392 0.951 . S
C400 C399 1.424 . S
C400 C401 1.347 . S
C401 H393 0.951 . S
C401 C396 1.429 . S
C401 C400 1.347 . S
H402 C403 0.951 . S
C403 H402 0.951 . S
C403 C409 1.265 . S
H404 C409 0.950 . S
H405 C413 0.949 . S
H406 C414 0.950 1_545 S
H407 C415 0.951 . S
H408 C416 0.951 . S
C409 C403 1.265 . S
C409 H404 0.950 . S
C409 C410 1.478 . S
C410 C409 1.478 . S
C410 C411 1.397 . S
C410 C427 1.394 . S
C411 C410 1.397 . S
C411 C412 1.438 . S
C411 C416 1.429 . S
C412 C411 1.438 . S
C412 C413 1.428 . S
C412 C425 1.394 . S
C413 H405 0.949 . S
C413 C412 1.428 . S
C413 C414 1.345 . S
C414 H406 0.950 1_565 S
C414 C413 1.345 . S
C414 C415 1.424 . S
C415 H407 0.951 . S
C415 C414 1.424 . S
C415 C416 1.347 . S
C416 H408 0.951 . S
C416 C411 1.429 . S
C416 C415 1.347 . S
H417 C418 0.951 . S
C418 H417 0.951 . S
C418 C424 1.265 . S
H419 C424 0.950 . S
H420 C428 0.949 . S
H421 C429 0.950 . S
H422 C430 0.951 . S
H423 C431 0.951 . S
C424 C418 1.265 . S
C424 H419 0.950 . S
C424 C425 1.478 . S
C425 C412 1.394 . S
C425 C424 1.478 . S
C425 C426 1.397 . S
C426 C425 1.397 . S
C426 C427 1.438 . S
C426 C431 1.429 . S
C427 C410 1.394 . S
C427 C426 1.438 . S
C427 C428 1.428 . S
C428 H420 0.949 . S
C428 C427 1.428 . S
C428 C429 1.345 . S
C429 H421 0.950 . S
C429 C428 1.345 . S
C429 C430 1.424 . S
C430 H422 0.951 . S
C430 C429 1.424 . S
C430 C431 1.347 . S
C431 H423 0.951 . S
C431 C426 1.429 . S
C431 C430 1.347 . S
H432 C433 0.951 . S
C433 H432 0.951 . S
C433 C439 1.265 . S
H434 C439 0.950 . S
H435 C443 0.949 . S
H436 C444 0.950 . S
H437 C445 0.951 1_565 S
H438 C446 0.951 . S
C439 C433 1.265 . S
C439 H434 0.950 . S
C439 C440 1.478 . S
C440 C439 1.478 . S
C440 C441 1.397 . S
C440 C457 1.394 . S
C441 C440 1.397 . S
C441 C442 1.438 . S
C441 C446 1.429 . S
C442 C441 1.438 . S
C442 C443 1.428 . S
C442 C455 1.394 . S
C443 H435 0.949 . S
C443 C442 1.428 . S
C443 C444 1.345 1_545 S
C444 H436 0.950 . S
C444 C443 1.345 1_565 S
C444 C445 1.424 1_565 S
C445 H437 0.951 1_545 S
C445 C444 1.424 1_545 S
C445 C446 1.347 . S
C446 H438 0.951 . S
C446 C441 1.429 . S
C446 C445 1.347 . S
H447 C448 0.951 . S
C448 H447 0.951 . S
C448 C454 1.265 . S
H449 C454 0.950 . S
H450 C458 0.949 . S
H451 C459 0.950 1_455 S
H452 C460 0.951 1_455 S
H453 C461 0.951 1_554 S
C454 C448 1.265 . S
C454 H449 0.950 . S
C454 C455 1.478 1_554 S
C455 C442 1.394 . S
C455 C454 1.478 1_556 S
C455 C456 1.397 . S
C456 C455 1.397 . S
C456 C457 1.438 . S
C456 C461 1.429 . S
C457 C440 1.394 . S
C457 C456 1.438 . S
C457 C458 1.428 . S
C458 H450 0.949 . S
C458 C457 1.428 . S
C458 C459 1.345 . S
C459 H451 0.950 1_655 S
C459 C458 1.345 . S
C459 C460 1.424 . S
C460 H452 0.951 1_655 S
C460 C459 1.424 . S
C460 C461 1.347 . S
C461 H453 0.951 1_556 S
C461 C456 1.429 . S
C461 C460 1.347 . S
H462 C463 0.951 . S
C463 H462 0.951 . S
C463 C469 1.265 . S
H464 C469 0.950 . S
H465 C473 0.949 . S
H466 C474 0.950 . S
H467 C475 0.951 . S
H468 C476 0.951 1_565 S
C469 C463 1.265 . S
C469 H464 0.950 . S
C469 C470 1.478 . S
C470 C469 1.478 . S
C470 C471 1.397 . S
C470 C487 1.394 . S
C471 C470 1.397 . S
C471 C472 1.438 . S
C471 C476 1.429 1_565 S
C472 C471 1.438 . S
C472 C473 1.428 1_565 S
C472 C485 1.394 . S
C473 H465 0.949 . S
C473 C472 1.428 1_545 S
C473 C474 1.345 . S
C474 H466 0.950 . S
C474 C473 1.345 . S
C474 C475 1.424 . S
C475 H467 0.951 . S
C475 C474 1.424 . S
C475 C476 1.347 . S
C476 H468 0.951 1_545 S
C476 C471 1.429 1_545 S
C476 C475 1.347 . S
H477 C478 0.951 . S
C478 H477 0.951 . S
C478 C484 1.265 1_545 S
H479 C484 0.950 . S
H480 C488 0.949 . S
H481 C489 0.950 . S
H482 C490 0.951 . S
H483 C491 0.951 . S
C484 C478 1.265 1_565 S
C484 H479 0.950 . S
C484 C485 1.478 . S
C485 C472 1.394 . S
C485 C484 1.478 . S
C485 C486 1.397 . S
C486 C485 1.397 . S
C486 C487 1.438 . S
C486 C491 1.429 . S
C487 C470 1.394 . S
C487 C486 1.438 . S
C487 C488 1.428 . S
C488 H480 0.949 . S
C488 C487 1.428 . S
C488 C489 1.345 . S
C489 H481 0.950 . S
C489 C488 1.345 . S
C489 C490 1.424 . S
C490 H482 0.951 . S
C490 C489 1.424 . S
C490 C491 1.347 . S
C491 H483 0.951 . S
C491 C486 1.429 . S
C491 C490 1.347 . S
H492 C493 0.951 . S
C493 H492 0.951 . S
C493 C499 1.265 . S
H494 C499 0.950 . S
H495 C503 0.949 . S
H496 C504 0.950 . S
H497 C505 0.951 . S
H498 C506 0.951 . S
C499 C493 1.265 . S
C499 H494 0.950 . S
C499 C500 1.478 . S
C500 C499 1.478 . S
C500 C501 1.397 1_455 S
C500 C517 1.394 . S
C501 C500 1.397 1_655 S
C501 C502 1.438 . S
C501 C506 1.429 . S
C502 C501 1.438 . S
C502 C503 1.428 . S
C502 C515 1.394 . S
C503 H495 0.949 . S
C503 C502 1.428 . S
C503 C504 1.345 . S
C504 H496 0.950 . S
C504 C503 1.345 . S
C504 C505 1.424 . S
C505 H497 0.951 . S
C505 C504 1.424 . S
C505 C506 1.347 . S
C506 H498 0.951 . S
C506 C501 1.429 . S
C506 C505 1.347 . S
H507 C508 0.951 . S
C508 H507 0.951 . S
C508 C514 1.265 . S
H509 C514 0.950 . S
H510 C518 0.949 . S
H511 C519 0.950 . S
H512 C520 0.951 . S
H513 C521 0.951 . S
C514 C508 1.265 . S
C514 H509 0.950 . S
C514 C515 1.478 . S
C515 C502 1.394 . S
C515 C514 1.478 . S
C515 C516 1.397 . S
C516 C515 1.397 . S
C516 C517 1.438 1_655 S
C516 C521 1.429 . S
C517 C500 1.394 . S
C517 C516 1.438 1_455 S
C517 C518 1.428 . S
C518 H510 0.949 . S
C518 C517 1.428 . S
C518 C519 1.345 . S
C519 H511 0.950 . S
C519 C518 1.345 . S
C519 C520 1.424 . S
C520 H512 0.951 . S
C520 C519 1.424 . S
C520 C521 1.347 1_455 S
C521 H513 0.951 . S
C521 C516 1.429 . S
C521 C520 1.347 1_655 S
C253 C66 1.431 1_655 S
C268 C75 1.431 1_455 S
C283 C159 1.475 . S
C298 C150 1.475 1_455 S
C313 C243 1.393 1_455 S
C328 C234 1.393 . S
C343 C240 1.787 . S
C358 C56 1.970 . S
C373 C147 0.933 . S
C388 C67 1.252 . S
C403 C224 1.903 . S
C418 C156 1.755 . S
C433 C235 1.251 . S
C448 C63 0.968 . S
C463 C72 1.833 . S
C478 C140 1.921 . S
C493 C231 1.026 . S
C508 C151 1.173 . S
