# Generated by pormake.
# Topology uoh, (4)-cn, num edge types: 1
# Building blocks:
#     Node 0, Type 0, BuildingBlock: QUQFOY_clean_sbu_1, # of connection points: 4
#     Node 1, Type 0, BuildingBlock: QUQFOY_clean_sbu_1, # of connection points: 4
#     Node 2, Type 0, BuildingBlock: QUQFOY_clean_sbu_1, # of connection points: 4
#     Node 3, Type 0, BuildingBlock: QUQFOY_clean_sbu_1, # of connection points: 4
#     Node 4, Type 0, BuildingBlock: QUQFOY_clean_sbu_1, # of connection points: 4
#     Node 5, Type 0, BuildingBlock: QUQFOY_clean_sbu_1, # of connection points: 4
#     Node 6, Type 0, BuildingBlock: QUQFOY_clean_sbu_1, # of connection points: 4
#     Node 7, Type 0, BuildingBlock: QUQFOY_clean_sbu_1, # of connection points: 4
#     Node 8, Type 0, BuildingBlock: QUQFOY_clean_sbu_1, # of connection points: 4
#     Node 9, Type 0, BuildingBlock: QUQFOY_clean_sbu_1, # of connection points: 4
#     Node 10, Type 0, BuildingBlock: QUQFOY_clean_sbu_1, # of connection points: 4
#     Node 11, Type 0, BuildingBlock: QUQFOY_clean_sbu_1, # of connection points: 4
#     Node 12, Type 0, BuildingBlock: QUQFOY_clean_sbu_1, # of connection points: 4
#     Node 13, Type 0, BuildingBlock: QUQFOY_clean_sbu_1, # of connection points: 4
#     Node 14, Type 0, BuildingBlock: QUQFOY_clean_sbu_1, # of connection points: 4
#     Node 15, Type 0, BuildingBlock: QUQFOY_clean_sbu_1, # of connection points: 4
#     Node 16, Type 0, BuildingBlock: QUQFOY_clean_sbu_1, # of connection points: 4
#     Node 17, Type 0, BuildingBlock: QUQFOY_clean_sbu_1, # of connection points: 4
#     Node 18, Type 0, BuildingBlock: QUQFOY_clean_sbu_1, # of connection points: 4
#     Node 19, Type 0, BuildingBlock: QUQFOY_clean_sbu_1, # of connection points: 4
#     Node 20, Type 0, BuildingBlock: QUQFOY_clean_sbu_1, # of connection points: 4
#     Node 21, Type 0, BuildingBlock: QUQFOY_clean_sbu_1, # of connection points: 4
#     Node 22, Type 0, BuildingBlock: QUQFOY_clean_sbu_1, # of connection points: 4
#     Node 23, Type 0, BuildingBlock: QUQFOY_clean_sbu_1, # of connection points: 4
#     Node 24, Type 0, BuildingBlock: QUQFOY_clean_sbu_1, # of connection points: 4
#     Node 25, Type 0, BuildingBlock: QUQFOY_clean_sbu_1, # of connection points: 4
#     Node 26, Type 0, BuildingBlock: QUQFOY_clean_sbu_1, # of connection points: 4
#     Node 27, Type 0, BuildingBlock: QUQFOY_clean_sbu_1, # of connection points: 4
#     Node 28, Type 0, BuildingBlock: QUQFOY_clean_sbu_1, # of connection points: 4
#     Node 29, Type 0, BuildingBlock: QUQFOY_clean_sbu_1, # of connection points: 4
#     Node 30, Type 0, BuildingBlock: QUQFOY_clean_sbu_1, # of connection points: 4
#     Node 31, Type 0, BuildingBlock: QUQFOY_clean_sbu_1, # of connection points: 4
#     Node 32, Type 0, BuildingBlock: QUQFOY_clean_sbu_1, # of connection points: 4
#     Node 33, Type 0, BuildingBlock: QUQFOY_clean_sbu_1, # of connection points: 4
#     Node 34, Type 0, BuildingBlock: QUQFOY_clean_sbu_1, # of connection points: 4
#     Node 35, Type 0, BuildingBlock: QUQFOY_clean_sbu_1, # of connection points: 4
#     Edge 36, Type (0, 0), BuildingBlock: XIVTED_clean_linker_0, # of connection points: 2
#     Edge 37, Type (0, 0), BuildingBlock: XIVTED_clean_linker_0, # of connection points: 2
#     Edge 38, Type (0, 0), BuildingBlock: XIVTED_clean_linker_0, # of connection points: 2
#     Edge 39, Type (0, 0), BuildingBlock: XIVTED_clean_linker_0, # of connection points: 2
#     Edge 40, Type (0, 0), BuildingBlock: XIVTED_clean_linker_0, # of connection points: 2
#     Edge 41, Type (0, 0), BuildingBlock: XIVTED_clean_linker_0, # of connection points: 2
#     Edge 42, Type (0, 0), BuildingBlock: XIVTED_clean_linker_0, # of connection points: 2
#     Edge 43, Type (0, 0), BuildingBlock: XIVTED_clean_linker_0, # of connection points: 2
#     Edge 44, Type (0, 0), BuildingBlock: XIVTED_clean_linker_0, # of connection points: 2
#     Edge 45, Type (0, 0), BuildingBlock: XIVTED_clean_linker_0, # of connection points: 2
#     Edge 46, Type (0, 0), BuildingBlock: XIVTED_clean_linker_0, # of connection points: 2
#     Edge 47, Type (0, 0), BuildingBlock: XIVTED_clean_linker_0, # of connection points: 2
#     Edge 48, Type (0, 0), BuildingBlock: XIVTED_clean_linker_0, # of connection points: 2
#     Edge 49, Type (0, 0), BuildingBlock: XIVTED_clean_linker_0, # of connection points: 2
#     Edge 50, Type (0, 0), BuildingBlock: XIVTED_clean_linker_0, # of connection points: 2
#     Edge 51, Type (0, 0), BuildingBlock: XIVTED_clean_linker_0, # of connection points: 2
#     Edge 52, Type (0, 0), BuildingBlock: XIVTED_clean_linker_0, # of connection points: 2
#     Edge 53, Type (0, 0), BuildingBlock: XIVTED_clean_linker_0, # of connection points: 2
#     Edge 54, Type (0, 0), BuildingBlock: XIVTED_clean_linker_0, # of connection points: 2
#     Edge 55, Type (0, 0), BuildingBlock: XIVTED_clean_linker_0, # of connection points: 2
#     Edge 56, Type (0, 0), BuildingBlock: XIVTED_clean_linker_0, # of connection points: 2
#     Edge 57, Type (0, 0), BuildingBlock: XIVTED_clean_linker_0, # of connection points: 2
#     Edge 58, Type (0, 0), BuildingBlock: XIVTED_clean_linker_0, # of connection points: 2
#     Edge 59, Type (0, 0), BuildingBlock: XIVTED_clean_linker_0, # of connection points: 2
#     Edge 60, Type (0, 0), BuildingBlock: XIVTED_clean_linker_0, # of connection points: 2
#     Edge 61, Type (0, 0), BuildingBlock: XIVTED_clean_linker_0, # of connection points: 2
#     Edge 62, Type (0, 0), BuildingBlock: XIVTED_clean_linker_0, # of connection points: 2
#     Edge 63, Type (0, 0), BuildingBlock: XIVTED_clean_linker_0, # of connection points: 2
#     Edge 64, Type (0, 0), BuildingBlock: XIVTED_clean_linker_0, # of connection points: 2
#     Edge 65, Type (0, 0), BuildingBlock: XIVTED_clean_linker_0, # of connection points: 2
#     Edge 66, Type (0, 0), BuildingBlock: XIVTED_clean_linker_0, # of connection points: 2
#     Edge 67, Type (0, 0), BuildingBlock: XIVTED_clean_linker_0, # of connection points: 2
#     Edge 68, Type (0, 0), BuildingBlock: XIVTED_clean_linker_0, # of connection points: 2
#     Edge 69, Type (0, 0), BuildingBlock: XIVTED_clean_linker_0, # of connection points: 2
#     Edge 70, Type (0, 0), BuildingBlock: XIVTED_clean_linker_0, # of connection points: 2
#     Edge 71, Type (0, 0), BuildingBlock: XIVTED_clean_linker_0, # of connection points: 2
#     Edge 72, Type (0, 0), BuildingBlock: XIVTED_clean_linker_0, # of connection points: 2
#     Edge 73, Type (0, 0), BuildingBlock: XIVTED_clean_linker_0, # of connection points: 2
#     Edge 74, Type (0, 0), BuildingBlock: XIVTED_clean_linker_0, # of connection points: 2
#     Edge 75, Type (0, 0), BuildingBlock: XIVTED_clean_linker_0, # of connection points: 2
#     Edge 76, Type (0, 0), BuildingBlock: XIVTED_clean_linker_0, # of connection points: 2
#     Edge 77, Type (0, 0), BuildingBlock: XIVTED_clean_linker_0, # of connection points: 2
#     Edge 78, Type (0, 0), BuildingBlock: XIVTED_clean_linker_0, # of connection points: 2
#     Edge 79, Type (0, 0), BuildingBlock: XIVTED_clean_linker_0, # of connection points: 2
#     Edge 80, Type (0, 0), BuildingBlock: XIVTED_clean_linker_0, # of connection points: 2
#     Edge 81, Type (0, 0), BuildingBlock: XIVTED_clean_linker_0, # of connection points: 2
#     Edge 82, Type (0, 0), BuildingBlock: XIVTED_clean_linker_0, # of connection points: 2
#     Edge 83, Type (0, 0), BuildingBlock: XIVTED_clean_linker_0, # of connection points: 2
#     Edge 84, Type (0, 0), BuildingBlock: XIVTED_clean_linker_0, # of connection points: 2
#     Edge 85, Type (0, 0), BuildingBlock: XIVTED_clean_linker_0, # of connection points: 2
#     Edge 86, Type (0, 0), BuildingBlock: XIVTED_clean_linker_0, # of connection points: 2
#     Edge 87, Type (0, 0), BuildingBlock: XIVTED_clean_linker_0, # of connection points: 2
#     Edge 88, Type (0, 0), BuildingBlock: XIVTED_clean_linker_0, # of connection points: 2
#     Edge 89, Type (0, 0), BuildingBlock: XIVTED_clean_linker_0, # of connection points: 2
#     Edge 90, Type (0, 0), BuildingBlock: XIVTED_clean_linker_0, # of connection points: 2
#     Edge 91, Type (0, 0), BuildingBlock: XIVTED_clean_linker_0, # of connection points: 2
#     Edge 92, Type (0, 0), BuildingBlock: XIVTED_clean_linker_0, # of connection points: 2
#     Edge 93, Type (0, 0), BuildingBlock: XIVTED_clean_linker_0, # of connection points: 2
#     Edge 94, Type (0, 0), BuildingBlock: XIVTED_clean_linker_0, # of connection points: 2
#     Edge 95, Type (0, 0), BuildingBlock: XIVTED_clean_linker_0, # of connection points: 2
#     Edge 96, Type (0, 0), BuildingBlock: XIVTED_clean_linker_0, # of connection points: 2
#     Edge 97, Type (0, 0), BuildingBlock: XIVTED_clean_linker_0, # of connection points: 2
#     Edge 98, Type (0, 0), BuildingBlock: XIVTED_clean_linker_0, # of connection points: 2
#     Edge 99, Type (0, 0), BuildingBlock: XIVTED_clean_linker_0, # of connection points: 2
#     Edge 100, Type (0, 0), BuildingBlock: XIVTED_clean_linker_0, # of connection points: 2
#     Edge 101, Type (0, 0), BuildingBlock: XIVTED_clean_linker_0, # of connection points: 2
#     Edge 102, Type (0, 0), BuildingBlock: XIVTED_clean_linker_0, # of connection points: 2
#     Edge 103, Type (0, 0), BuildingBlock: XIVTED_clean_linker_0, # of connection points: 2
#     Edge 104, Type (0, 0), BuildingBlock: XIVTED_clean_linker_0, # of connection points: 2
#     Edge 105, Type (0, 0), BuildingBlock: XIVTED_clean_linker_0, # of connection points: 2
#     Edge 106, Type (0, 0), BuildingBlock: XIVTED_clean_linker_0, # of connection points: 2
#     Edge 107, Type (0, 0), BuildingBlock: XIVTED_clean_linker_0, # of connection points: 2
# Relax obj value: 0.082
# Max RMSD: 0.126
# Mean RMSD: 0.126
data_MOF--net-uoh--node1-QUQFOY_clean_sbu_1--edge1-XIVTED_clean_linker_0
_symmetry_space_group_name_H-M    P1
_symmetry_Int_Tables_number       1
_symmetry_cell_setting            triclinic
loop_
_symmetry_equiv_pos_as_xyz
'x, y, z'
_cell_length_a     93.398099
_cell_length_b     93.382346
_cell_length_c     28.682194
_cell_angle_alpha  90.004791
_cell_angle_beta   89.99929
_cell_angle_gamma 120.00405
loop_
_atom_site_label
_atom_site_type_symbol
_atom_site_fract_x
_atom_site_fract_y
_atom_site_fract_z
_atom_type_partial_charge
O0 O 0.24437 0.15414 0.10482 0.0
Cd1 Cd 0.25643 0.16743 0.16391 0.0
Cd2 Cd 0.24776 0.13681 0.19409 0.0
O3 O 0.23526 0.12888 0.13147 0.0
O4 O 0.25585 0.18857 0.15946 0.0
O5 O 0.24351 0.17028 0.21583 0.0
C6 C 0.24665 0.18401 0.19623 0.0
C7 C 0.23584 0.12526 0.26604 0.0
C8 C 0.23639 0.13856 0.09867 0.0
C9 C 0.28428 0.16105 0.18236 0.0
O10 O 0.27294 0.14631 0.1907 0.0
O11 O 0.28057 0.17215 0.173 0.0
O12 O 0.23964 0.11731 0.2364 0.0
O13 O 0.23802 0.13953 0.25374 0.0
O14 O 0.85972 0.09304 0.10287 0.0
Cd15 Cd 0.84756 0.09149 0.16459 0.0
Cd16 Cd 0.87841 0.11341 0.19233 0.0
O17 O 0.88529 0.10831 0.12867 0.0
O18 O 0.82613 0.06984 0.16563 0.0
O19 O 0.84705 0.07568 0.21297 0.0
C20 C 0.83241 0.06517 0.19829 0.0
C21 C 0.89009 0.11255 0.26363 0.0
C22 C 0.87526 0.10027 0.09591 0.0
C23 C 0.85431 0.12581 0.18488 0.0
O24 O 0.86925 0.12938 0.1901 0.0
O25 O 0.84308 0.11088 0.17768 0.0
O26 O 0.8982 0.12428 0.23403 0.0
O27 O 0.87562 0.10078 0.25158 0.0
O28 O 0.92295 0.77166 0.10996 0.0
Cd29 Cd 0.92409 0.75951 0.16889 0.0
Cd30 Cd 0.90188 0.76783 0.19876 0.0
O31 O 0.90634 0.78028 0.13609 0.0
O32 O 0.94576 0.76 0.16383 0.0
O33 O 0.93999 0.77228 0.22077 0.0
C34 C 0.9505 0.76913 0.20072 0.0
C35 C 0.90256 0.77994 0.27065 0.0
C36 C 0.91512 0.7794 0.10357 0.0
C37 C 0.88985 0.73142 0.18654 0.0
O38 O 0.88629 0.74263 0.19524 0.0
O39 O 0.90472 0.7353 0.1773 0.0
O40 O 0.89071 0.7761 0.24134 0.0
O41 O 0.91453 0.7776 0.25816 0.0
O42 O 0.15785 0.24056 0.39714 0.0
Cd43 Cd 0.17116 0.2528 0.33832 0.0
Cd44 Cd 0.14056 0.2441 0.30803 0.0
O45 O 0.13259 0.23166 0.37078 0.0
O46 O 0.19235 0.25229 0.3428 0.0
O47 O 0.17415 0.24005 0.28617 0.0
C48 C 0.18785 0.24316 0.30588 0.0
C49 C 0.12944 0.23198 0.23589 0.0
C50 C 0.14228 0.23268 0.40341 0.0
C51 C 0.16464 0.28062 0.32041 0.0
O52 O 0.14995 0.26927 0.31146 0.0
O53 O 0.17574 0.27694 0.32995 0.0
O54 O 0.12123 0.23569 0.26488 0.0
O55 O 0.14373 0.23441 0.24891 0.0
O56 O 0.77269 0.91943 0.40257 0.0
Cd57 Cd 0.7623 0.92069 0.3401 0.0
Cd58 Cd 0.77174 0.89902 0.31398 0.0
O59 O 0.7833 0.90426 0.3783 0.0
O60 O 0.76195 0.94204 0.33866 0.0
O61 O 0.77769 0.93679 0.29228 0.0
C62 C 0.77311 0.947 0.30654 0.0
C63 C 0.78474 0.90012 0.24339 0.0
C64 C 0.78105 0.91231 0.41049 0.0
C65 C 0.73516 0.88616 0.31937 0.0
O66 O 0.74667 0.88275 0.31499 0.0
O67 O 0.73864 0.90104 0.32635 0.0
O68 O 0.78122 0.88847 0.27319 0.0
O69 O 0.78171 0.91171 0.25492 0.0
O70 O 0.095 0.85748 0.40703 0.0
Cd71 Cd 0.09406 0.84411 0.34845 0.0
Cd72 Cd 0.11646 0.87466 0.31886 0.0
O73 O 0.11155 0.8827 0.38077 0.0
O74 O 0.07235 0.823 0.35322 0.0
O75 O 0.07836 0.84101 0.29603 0.0
C76 C 0.06774 0.8274 0.31608 0.0
C77 C 0.11666 0.88629 0.24654 0.0
C78 C 0.10268 0.87305 0.4132 0.0
C79 C 0.12832 0.85017 0.33262 0.0
O80 O 0.13193 0.86495 0.324 0.0
O81 O 0.11339 0.83915 0.34104 0.0
O82 O 0.12824 0.89415 0.27673 0.0
O83 O 0.10444 0.87204 0.25838 0.0
O84 O 0.77477 0.8579 0.90567 0.0
Cd85 Cd 0.76228 0.8443 0.84744 0.0
Cd86 Cd 0.77042 0.87472 0.81681 0.0
O87 O 0.78347 0.88302 0.87849 0.0
O88 O 0.76295 0.82323 0.85257 0.0
O89 O 0.77482 0.84111 0.79502 0.0
C90 C 0.77188 0.82755 0.81529 0.0
C91 C 0.78178 0.886 0.74413 0.0
C92 C 0.7827 0.8735 0.91132 0.0
C93 C 0.73407 0.85031 0.83125 0.0
O94 O 0.74525 0.86505 0.82216 0.0
O95 O 0.73799 0.83932 0.84007 0.0
O96 O 0.77807 0.89401 0.77386 0.0
O97 O 0.77976 0.87181 0.75663 0.0
O98 O 0.15879 0.91904 0.90542 0.0
Cd99 Cd 0.17078 0.92057 0.84338 0.0
Cd100 Cd 0.13978 0.89901 0.81578 0.0
O101 O 0.13314 0.90403 0.87994 0.0
O102 O 0.19237 0.94206 0.84233 0.0
O103 O 0.17142 0.9366 0.79551 0.0
C104 C 0.18614 0.94693 0.81003 0.0
C105 C 0.12812 0.90028 0.74488 0.0
C106 C 0.14327 0.91192 0.91265 0.0
C107 C 0.16351 0.88614 0.82187 0.0
O108 O 0.14863 0.88278 0.81688 0.0
O109 O 0.17488 0.90099 0.8295 0.0
O110 O 0.11992 0.8885 0.77428 0.0
O111 O 0.14267 0.91188 0.75697 0.0
O112 O 0.0957 0.24058 0.89717 0.0
Cd113 Cd 0.09466 0.25287 0.83845 0.0
Cd114 Cd 0.11663 0.24427 0.80809 0.0
O115 O 0.11217 0.23181 0.8708 0.0
O116 O 0.07296 0.25237 0.84297 0.0
O117 O 0.07895 0.24021 0.78618 0.0
C118 C 0.06836 0.24331 0.80593 0.0
C119 C 0.11564 0.23216 0.73594 0.0
C120 C 0.10344 0.23275 0.90341 0.0
C121 C 0.12898 0.28076 0.82063 0.0
O122 O 0.13236 0.26945 0.81156 0.0
O123 O 0.11418 0.27702 0.83025 0.0
O124 O 0.12757 0.2359 0.76491 0.0
O125 O 0.10377 0.23456 0.74897 0.0
O126 O 0.8609 0.77155 0.6094 0.0
Cd127 Cd 0.84741 0.7594 0.66808 0.0
Cd128 Cd 0.87783 0.76776 0.69894 0.0
O129 O 0.88604 0.78027 0.63643 0.0
O130 O 0.82628 0.75999 0.66278 0.0
O131 O 0.84427 0.77217 0.7199 0.0
C132 C 0.83065 0.76908 0.69974 0.0
C133 C 0.88893 0.77981 0.77113 0.0
C134 C 0.87649 0.77934 0.6035 0.0
C135 C 0.85352 0.73133 0.68628 0.0
O136 O 0.86825 0.74255 0.69535 0.0
O137 O 0.84255 0.73519 0.67664 0.0
O138 O 0.89707 0.77598 0.74227 0.0
O139 O 0.87469 0.7775 0.75801 0.0
O140 O 0.24624 0.09233 0.60599 0.0
Cd141 Cd 0.25713 0.09129 0.6677 0.0
Cd142 Cd 0.24782 0.11298 0.69471 0.0
O143 O 0.23574 0.10751 0.63114 0.0
O144 O 0.25733 0.06987 0.66923 0.0
O145 O 0.24206 0.07548 0.7165 0.0
C146 C 0.24641 0.06511 0.70197 0.0
C147 C 0.23528 0.11226 0.7659 0.0
C148 C 0.23777 0.09937 0.59874 0.0
C149 C 0.2844 0.12588 0.68667 0.0
O150 O 0.27289 0.12923 0.69202 0.0
O151 O 0.28092 0.11099 0.67983 0.0
O152 O 0.2387 0.12381 0.73581 0.0
O153 O 0.2382 0.10059 0.75444 0.0
O154 O 0.92346 0.15523 0.60235 0.0
Cd155 Cd 0.92438 0.1683 0.66161 0.0
Cd156 Cd 0.90231 0.13757 0.69068 0.0
O157 O 0.90722 0.12987 0.62817 0.0
O158 O 0.9461 0.18947 0.65788 0.0
O159 O 0.93997 0.17102 0.71392 0.0
C160 C 0.95062 0.1848 0.69467 0.0
C161 C 0.90231 0.12576 0.76254 0.0
C162 C 0.91592 0.13968 0.59578 0.0
C163 C 0.89007 0.16183 0.67874 0.0
O164 O 0.88664 0.14706 0.68671 0.0
O165 O 0.90492 0.173 0.67016 0.0
O166 O 0.89073 0.11791 0.73235 0.0
O167 O 0.91443 0.1401 0.75089 0.0
O168 O 0.91059 0.48788 0.43927 0.0
Cd169 Cd 0.9228 0.50123 0.4981 0.0
Cd170 Cd 0.91444 0.47068 0.5281 0.0
O171 O 0.90167 0.46266 0.46595 0.0
O172 O 0.92224 0.52236 0.4931 0.0
O173 O 0.91001 0.5043 0.55005 0.0
C174 C 0.91311 0.51795 0.52999 0.0
C175 C 0.90276 0.45896 0.60008 0.0
C176 C 0.90263 0.4723 0.43324 0.0
C177 C 0.95086 0.49507 0.5154 0.0
O178 O 0.93962 0.48029 0.52382 0.0
O179 O 0.94702 0.50611 0.50652 0.0
O180 O 0.90655 0.45112 0.57002 0.0
O181 O 0.90485 0.47324 0.58828 0.0
O182 O 0.5264 0.42681 0.43952 0.0
Cd183 Cd 0.51438 0.42539 0.50138 0.0
Cd184 Cd 0.54528 0.4472 0.52881 0.0
O185 O 0.55201 0.442 0.46509 0.0
O186 O 0.49287 0.40383 0.50246 0.0
O187 O 0.51378 0.40948 0.54962 0.0
C188 C 0.49911 0.39906 0.53495 0.0
C189 C 0.55716 0.44636 0.59972 0.0
C190 C 0.54193 0.43396 0.43244 0.0
C191 C 0.52134 0.45979 0.5217 0.0
O192 O 0.53626 0.46331 0.52682 0.0
O193 O 0.51006 0.44488 0.51451 0.0
O194 O 0.56521 0.45803 0.56989 0.0
O195 O 0.5426 0.43465 0.58815 0.0
O196 O 0.58979 0.10345 0.44002 0.0
Cd197 Cd 0.59101 0.09283 0.50209 0.0
Cd198 Cd 0.56931 0.1022 0.5288 0.0
O199 O 0.57467 0.11405 0.46489 0.0
O200 O 0.61254 0.09283 0.50386 0.0
O201 O 0.60681 0.10816 0.55052 0.0
C202 C 0.61725 0.10388 0.53626 0.0
C203 C 0.57003 0.11489 0.59972 0.0
C204 C 0.58273 0.11188 0.43252 0.0
C205 C 0.55649 0.06559 0.52195 0.0
O206 O 0.55312 0.07711 0.52679 0.0
O207 O 0.57138 0.06907 0.51509 0.0
O208 O 0.55847 0.11138 0.56961 0.0
O209 O 0.58173 0.112 0.58839 0.0
O210 O 0.82436 0.57444 0.73444 0.0
Cd211 Cd 0.83778 0.58652 0.6756 0.0
Cd212 Cd 0.80734 0.57815 0.64496 0.0
O213 O 0.7992 0.56566 0.7075 0.0
O214 O 0.85889 0.5859 0.68088 0.0
O215 O 0.84085 0.57365 0.62389 0.0
C216 C 0.85448 0.57674 0.64404 0.0
C217 C 0.79589 0.56605 0.57309 0.0
C218 C 0.80877 0.56663 0.7404 0.0
C219 C 0.83168 0.61458 0.65738 0.0
O220 O 0.81694 0.60336 0.6485 0.0
O221 O 0.84266 0.61072 0.6669 0.0
O222 O 0.78791 0.56993 0.60238 0.0
O223 O 0.81018 0.56836 0.58555 0.0
O224 O 0.43972 0.2532 0.736 0.0
Cd225 Cd 0.42876 0.25438 0.67458 0.0
Cd226 Cd 0.43806 0.2328 0.64663 0.0
O227 O 0.4503 0.23822 0.70991 0.0
O228 O 0.42851 0.27578 0.67379 0.0
O229 O 0.44376 0.27034 0.62592 0.0
C230 C 0.4394 0.28064 0.64094 0.0
C231 C 0.45051 0.23348 0.57531 0.0
C232 C 0.44827 0.24622 0.7427 0.0
C233 C 0.40148 0.21984 0.65535 0.0
O234 O 0.413 0.21651 0.64964 0.0
O235 O 0.40496 0.23471 0.66245 0.0
O236 O 0.44709 0.22194 0.60539 0.0
O237 O 0.44762 0.24517 0.58681 0.0
O238 O 0.76305 0.18996 0.73962 0.0
Cd239 Cd 0.76183 0.17826 0.67724 0.0
Cd240 Cd 0.7835 0.2094 0.6512 0.0
O241 O 0.77805 0.21575 0.71521 0.0
O242 O 0.74048 0.15656 0.67586 0.0
O243 O 0.74574 0.17752 0.62933 0.0
C244 C 0.73552 0.16274 0.64369 0.0
C245 C 0.78279 0.2213 0.58021 0.0
C246 C 0.77003 0.20543 0.74741 0.0
C247 C 0.79638 0.18568 0.65686 0.0
O248 O 0.79975 0.20059 0.65279 0.0
O249 O 0.78149 0.17424 0.66351 0.0
O250 O 0.79433 0.2294 0.61035 0.0
O251 O 0.77104 0.20674 0.59169 0.0
O252 O 0.44166 0.19172 0.23616 0.0
Cd253 Cd 0.42967 0.17857 0.17681 0.0
Cd254 Cd 0.43833 0.20923 0.1471 0.0
O255 O 0.45077 0.21701 0.20982 0.0
O256 O 0.43035 0.15746 0.18047 0.0
O257 O 0.44267 0.17599 0.12462 0.0
C258 C 0.43957 0.1622 0.14373 0.0
C259 C 0.45035 0.22116 0.07557 0.0
C260 C 0.44961 0.20729 0.2425 0.0
C261 C 0.40181 0.18494 0.15848 0.0
O262 O 0.41314 0.19969 0.15032 0.0
O263 O 0.40552 0.17383 0.16771 0.0
O264 O 0.44647 0.22894 0.10561 0.0
O265 O 0.44817 0.20684 0.08721 0.0
O266 O 0.82652 0.2537 0.2406 0.0
Cd267 Cd 0.83856 0.25477 0.17901 0.0
Cd268 Cd 0.80762 0.2327 0.15234 0.0
O269 O 0.80088 0.23829 0.21549 0.0
O270 O 0.86014 0.27624 0.17783 0.0
O271 O 0.83938 0.27059 0.13006 0.0
C272 C 0.85404 0.28098 0.14487 0.0
C273 C 0.79587 0.233 0.08067 0.0
C274 C 0.811 0.24658 0.24781 0.0
C275 C 0.83167 0.22028 0.16077 0.0
O276 O 0.81672 0.2167 0.15577 0.0
O277 O 0.84295 0.23525 0.16709 0.0
O278 O 0.78779 0.2215 0.11094 0.0
O279 O 0.81033 0.24489 0.09227 0.0
O280 O 0.76245 0.57431 0.23446 0.0
Cd281 Cd 0.7611 0.5864 0.17567 0.0
Cd282 Cd 0.78324 0.57813 0.14502 0.0
O283 O 0.77891 0.56562 0.20752 0.0
O284 O 0.73936 0.58575 0.18094 0.0
O285 O 0.74519 0.57355 0.12388 0.0
C286 C 0.73464 0.57662 0.14403 0.0
C287 C 0.78264 0.56607 0.07311 0.0
C288 C 0.77027 0.56654 0.24041 0.0
C289 C 0.79524 0.61454 0.15757 0.0
O290 O 0.7988 0.60335 0.14863 0.0
O291 O 0.78039 0.61063 0.16708 0.0
O292 O 0.7945 0.56997 0.10242 0.0
O293 O 0.77062 0.56833 0.08559 0.0
O294 O 0.52777 0.10547 0.93811 0.0
Cd295 Cd 0.51442 0.09328 0.99698 0.0
Cd296 Cd 0.54499 0.10182 0.02726 0.0
O297 O 0.553 0.11454 0.96497 0.0
O298 O 0.49338 0.09409 0.99308 0.0
O299 O 0.51176 0.10614 0.04944 0.0
C300 C 0.49806 0.10318 0.03007 0.0
C301 C 0.55651 0.11347 0.0995 0.0
C302 C 0.54336 0.11348 0.93214 0.0
C303 C 0.52069 0.06533 0.01444 0.0
O304 O 0.53542 0.07664 0.023 0.0
O305 O 0.50959 0.06907 0.0054 0.0
O306 O 0.56445 0.10972 0.06968 0.0
O307 O 0.54228 0.11139 0.08727 0.0
O308 O 0.91278 0.42673 0.94066 0.0
Cd309 Cd 0.92341 0.42539 1.00257 0.0
Cd310 Cd 0.91398 0.44695 0.03011 0.0
O311 O 0.90213 0.44171 0.96625 0.0
O312 O 0.92346 0.40388 1.00404 0.0
O313 O 0.90811 0.40953 0.05087 0.0
C314 C 0.91242 0.39913 0.03646 0.0
C315 C 0.90116 0.44603 0.10091 0.0
C316 C 0.9043 0.43376 0.93358 0.0
C317 C 0.95059 0.45989 0.0232 0.0
O318 O 0.93906 0.46322 0.02841 0.0
O319 O 0.94713 0.44504 0.01578 0.0
O320 O 0.9047 0.45766 0.07103 0.0
O321 O 0.90411 0.43438 0.08943 0.0
O322 O 0.58976 0.48807 0.93826 0.0
Cd323 Cd 0.59092 0.50139 0.99718 0.0
Cd324 Cd 0.56869 0.47085 0.02703 0.0
O325 O 0.57342 0.46285 0.96483 0.0
O326 O 0.61264 0.5225 0.99233 0.0
O327 O 0.60674 0.50438 0.04916 0.0
C328 C 0.61731 0.51804 0.02921 0.0
C329 C 0.56868 0.45913 0.09899 0.0
C330 C 0.58211 0.47249 0.93215 0.0
C331 C 0.55673 0.4953 0.01445 0.0
O332 O 0.55315 0.4805 0.02281 0.0
O333 O 0.57161 0.50631 0.00561 0.0
O334 O 0.55704 0.4513 0.06897 0.0
O335 O 0.58086 0.47341 0.08715 0.0
O336 O 0.5795 0.82343 0.77465 0.0
Cd337 Cd 0.58991 0.83533 0.83685 0.0
Cd338 Cd 0.58068 0.80438 0.86392 0.0
O339 O 0.56893 0.79776 0.79992 0.0
O340 O 0.5901 0.85696 0.83768 0.0
O341 O 0.57452 0.83608 0.88462 0.0
C342 C 0.57899 0.85081 0.86995 0.0
C343 C 0.56781 0.79243 0.93462 0.0
C344 C 0.57112 0.80791 0.76732 0.0
C345 C 0.61723 0.82823 0.85773 0.0
O346 O 0.60578 0.8133 0.86246 0.0
O347 O 0.61365 0.83955 0.85058 0.0
O348 O 0.57141 0.78438 0.90478 0.0
O349 O 0.57072 0.80702 0.92314 0.0
O350 O 0.1942 0.75902 0.77409 0.0
Cd351 Cd 0.18092 0.75817 0.83278 0.0
Cd352 Cd 0.21153 0.78035 0.86247 0.0
O353 O 0.21946 0.77543 0.80034 0.0
O354 O 0.15978 0.73643 0.82884 0.0
O355 O 0.17802 0.74267 0.88553 0.0
C356 C 0.16432 0.73198 0.86601 0.0
C357 C 0.22324 0.78051 0.93466 0.0
C358 C 0.20977 0.76663 0.76787 0.0
C359 C 0.18724 0.79249 0.84898 0.0
O360 O 0.20197 0.79594 0.85769 0.0
O361 O 0.17614 0.77761 0.84028 0.0
O362 O 0.2311 0.79207 0.90442 0.0
O363 O 0.20895 0.76833 0.92292 0.0
O364 O 0.25602 0.43804 0.77608 0.0
Cd365 Cd 0.25713 0.4258 0.83483 0.0
Cd366 Cd 0.23515 0.43438 0.86518 0.0
O367 O 0.23957 0.44682 0.80248 0.0
O368 O 0.27885 0.42636 0.83016 0.0
O369 O 0.27289 0.43855 0.88693 0.0
C370 C 0.28348 0.43547 0.8671 0.0
C371 C 0.23618 0.44649 0.93733 0.0
C372 C 0.24827 0.44586 0.76985 0.0
C373 C 0.22284 0.39789 0.8528 0.0
O374 O 0.21945 0.40919 0.86179 0.0
O375 O 0.23765 0.40164 0.8432 0.0
O376 O 0.22423 0.44274 0.90844 0.0
O377 O 0.24805 0.44409 0.92422 0.0
O378 O 0.4926 0.91011 0.0738 0.0
Cd379 Cd 0.50427 0.92063 0.01144 0.0
Cd380 Cd 0.47309 0.91118 0.98552 0.0
O381 O 0.4668 0.89937 0.0495 0.0
O382 O 0.52584 0.92069 0.00939 0.0
O383 O 0.50468 0.9052 0.96321 0.0
C384 C 0.51945 0.90956 0.97722 0.0
C385 C 0.46113 0.89856 0.91459 0.0
C386 C 0.47713 0.90162 0.08164 0.0
C387 C 0.49689 0.94779 0.99128 0.0
O388 O 0.48197 0.93626 0.98716 0.0
O389 O 0.50832 0.94434 0.9979 0.0
O390 O 0.45307 0.90204 0.94474 0.0
O391 O 0.47569 0.90136 0.92601 0.0
O392 O 0.10809 0.58695 0.06974 0.0
Cd393 Cd 0.09575 0.58807 0.0112 0.0
Cd394 Cd 0.10423 0.56604 0.98051 0.0
O395 O 0.11682 0.5705 0.04299 0.0
O396 O 0.09642 0.60985 0.01564 0.0
O397 O 0.1084 0.60368 0.95875 0.0
C398 C 0.10542 0.61435 0.97848 0.0
C399 C 0.11611 0.5668 0.9081 0.0
C400 C 0.11592 0.5792 0.07575 0.0
C401 C 0.06778 0.5538 0.99378 0.0
O402 O 0.07906 0.55039 0.98455 0.0
O403 O 0.07155 0.56862 1.00327 0.0
O404 O 0.11238 0.55491 0.93723 0.0
O405 O 0.11383 0.57875 0.92109 0.0
O406 O 0.42914 0.52459 0.06741 0.0
Cd407 Cd 0.42791 0.51146 0.00798 0.0
Cd408 Cd 0.45007 0.5421 0.97855 0.0
O409 O 0.44566 0.5499 0.04164 0.0
O410 O 0.4062 0.49029 0.01252 0.0
O411 O 0.41206 0.5086 0.95627 0.0
C412 C 0.40152 0.49486 0.97587 0.0
C413 C 0.44935 0.55368 0.90698 0.0
C414 C 0.43696 0.54014 0.07411 0.0
C415 C 0.46212 0.51769 0.98948 0.0
O416 O 0.46566 0.53248 0.98133 0.0
O417 O 0.44726 0.50666 0.99871 0.0
O418 O 0.46121 0.56165 0.93632 0.0
O419 O 0.43739 0.53935 0.91931 0.0
O420 O 0.10771 0.52423 0.5689 0.0
Cd421 Cd 0.09574 0.51094 0.50974 0.0
Cd422 Cd 0.10425 0.54153 0.47975 0.0
O423 O 0.11651 0.5495 0.54274 0.0
O424 O 0.09611 0.48971 0.51528 0.0
O425 O 0.10864 0.50771 0.45841 0.0
C426 C 0.10535 0.49404 0.47862 0.0
C427 C 0.11651 0.55274 0.40783 0.0
C428 C 0.11547 0.5398 0.57537 0.0
C429 C 0.06779 0.51721 0.49094 0.0
O430 O 0.07906 0.53198 0.48257 0.0
O431 O 0.0716 0.50619 0.50041 0.0
O432 O 0.11267 0.56087 0.43672 0.0
O433 O 0.11412 0.53846 0.42083 0.0
O434 O 0.49139 0.58724 0.56884 0.0
Cd435 Cd 0.505 0.58856 0.51043 0.0
Cd436 Cd 0.47466 0.56631 0.47937 0.0
O437 O 0.46631 0.57068 0.54157 0.0
O438 O 0.52596 0.61047 0.51496 0.0
O439 O 0.50783 0.6041 0.45791 0.0
C440 C 0.52142 0.61488 0.47769 0.0
C441 C 0.4635 0.5669 0.40689 0.0
C442 C 0.47579 0.57938 0.57454 0.0
C443 C 0.49915 0.55445 0.49321 0.0
O444 O 0.48442 0.55086 0.48383 0.0
O445 O 0.51006 0.56933 0.50264 0.0
O446 O 0.45544 0.55499 0.436 0.0
O447 O 0.47768 0.57895 0.41988 0.0
O448 O 0.42906 0.90987 0.57482 0.0
Cd449 Cd 0.42811 0.92086 0.51319 0.0
Cd450 Cd 0.44996 0.91165 0.48657 0.0
O451 O 0.44423 0.89934 0.54979 0.0
O452 O 0.40655 0.9208 0.51109 0.0
O453 O 0.41255 0.90577 0.464 0.0
C454 C 0.40201 0.90992 0.47828 0.0
C455 C 0.44963 0.89954 0.41496 0.0
C456 C 0.43602 0.90132 0.58208 0.0
C457 C 0.46269 0.94823 0.49495 0.0
O458 O 0.46609 0.93673 0.48993 0.0
O459 O 0.44777 0.94471 0.5013 0.0
O460 O 0.46109 0.90289 0.44531 0.0
O461 O 0.4378 0.90221 0.42646 0.0
O462 O 0.19396 0.43758 0.27611 0.0
Cd463 Cd 0.18064 0.4253 0.33488 0.0
Cd464 Cd 0.21124 0.43407 0.36518 0.0
O465 O 0.21922 0.44654 0.30252 0.0
O466 O 0.15937 0.4256 0.32968 0.0
O467 O 0.17737 0.438 0.38666 0.0
C468 C 0.1637 0.43476 0.3665 0.0
C469 C 0.22225 0.44624 0.43733 0.0
C470 C 0.20953 0.44551 0.26988 0.0
C471 C 0.18727 0.39754 0.35284 0.0
O472 O 0.20195 0.40891 0.36176 0.0
O473 O 0.17614 0.40119 0.34332 0.0
O474 O 0.23052 0.44257 0.40847 0.0
O475 O 0.20794 0.44371 0.4242 0.0
O476 O 0.57714 0.75961 0.27237 0.0
Cd477 Cd 0.58956 0.75859 0.33085 0.0
Cd478 Cd 0.58127 0.78078 0.36128 0.0
O479 O 0.56833 0.77596 0.29939 0.0
O480 O 0.58879 0.73677 0.32679 0.0
O481 O 0.57695 0.74313 0.38367 0.0
C482 C 0.57986 0.73238 0.36408 0.0
C483 C 0.56984 0.78107 0.43355 0.0
C484 C 0.56918 0.76725 0.2666 0.0
C485 C 0.61767 0.7928 0.34719 0.0
O486 O 0.60645 0.7963 0.35622 0.0
O487 O 0.61382 0.77792 0.33827 0.0
O488 O 0.5736 0.79263 0.40329 0.0
O489 O 0.57183 0.76882 0.42182 0.0
O490 O 0.25585 0.82295 0.2756 0.0
Cd491 Cd 0.25738 0.83499 0.33758 0.0
Cd492 Cd 0.23567 0.80406 0.36507 0.0
O493 O 0.24072 0.79732 0.30112 0.0
O494 O 0.27878 0.85666 0.33799 0.0
O495 O 0.27361 0.83592 0.38532 0.0
C496 C 0.28381 0.85063 0.37038 0.0
C497 C 0.23688 0.79246 0.43612 0.0
C498 C 0.24868 0.80743 0.26843 0.0
C499 C 0.22297 0.82791 0.35861 0.0
O500 O 0.21949 0.81299 0.36354 0.0
O501 O 0.23787 0.83921 0.35127 0.0
O502 O 0.22511 0.78426 0.4067 0.0
O503 O 0.2485 0.807 0.42399 0.0
H504 H 0.22884 0.13574 0.80073 0.0
H505 H 0.22625 0.10737 0.06502 0.0
H506 H 0.22965 0.09155 0.84022 0.0
H507 H 0.23315 0.15487 0.02376 0.0
H508 H 0.22143 0.09862 0.9833 0.0
H509 H 0.22437 0.13999 0.88219 0.0
C510 C 0.22783 0.12677 0.82642 0.0
C511 C 0.22985 0.11338 0.81365 0.0
C512 C 0.22376 0.11087 0.99226 0.0
C513 C 0.22487 0.11827 0.90727 0.0
C514 C 0.22642 0.11585 0.03897 0.0
C515 C 0.23034 0.13197 0.05126 0.0
C516 C 0.22495 0.12206 0.95764 0.0
C517 C 0.23039 0.1424 0.01591 0.0
C518 C 0.22532 0.12924 0.87301 0.0
C519 C 0.22831 0.10213 0.84851 0.0
N520 N 0.22792 0.13733 0.97075 0.0
N521 N 0.22611 0.10493 0.8938 0.0
H522 H 0.87794 0.0963 0.79715 0.0
H523 H 0.90662 0.12044 0.06207 0.0
H524 H 0.92295 0.14035 0.83741 0.0
H525 H 0.8581 0.08185 0.02009 0.0
H526 H 0.91525 0.12448 0.98028 0.0
H527 H 0.87316 0.08757 0.87854 0.0
C528 C 0.88696 0.10404 0.823 0.0
C529 C 0.90077 0.1192 0.81044 0.0
C530 C 0.90279 0.11498 0.98908 0.0
C531 C 0.89528 0.10929 0.904 0.0
C532 C 0.89786 0.1126 0.03582 0.0
C533 C 0.88153 0.10092 0.04799 0.0
C534 C 0.89133 0.10555 0.95428 0.0
C535 C 0.87075 0.09114 0.01237 0.0
C536 C 0.88419 0.09906 0.86956 0.0
C537 C 0.91207 0.12863 0.84553 0.0
N538 N 0.8758 0.09377 0.96718 0.0
N539 N 0.90898 0.12361 0.89079 0.0
H540 H 0.93577 0.78416 0.03029 0.0
H541 H 0.8735 0.78584 0.84385 0.0
H542 H 0.89298 0.78782 0.06814 0.0
H543 H 0.91834 0.78571 0.80831 0.0
H544 H 0.88222 0.79043 0.92561 0.0
H545 H 0.9316 0.78877 0.94899 0.0
C546 C 0.92564 0.7862 0.02161 0.0
C547 C 0.91459 0.78539 0.05609 0.0
C548 C 0.89026 0.78964 0.89981 0.0
C549 C 0.90955 0.7904 0.96262 0.0
C550 C 0.8853 0.78704 0.85308 0.0
C551 C 0.8951 0.78517 0.81922 0.0
C552 C 0.90509 0.79029 0.91278 0.0
C553 C 0.91028 0.78689 0.83323 0.0
C554 C 0.92324 0.78881 0.97507 0.0
C555 C 0.90177 0.78826 0.04273 0.0
N556 N 0.9147 0.78915 0.87893 0.0
N557 N 0.89944 0.79037 0.99695 0.0
H558 H 0.15821 0.22799 0.4767 0.0
H559 H 0.09421 0.22618 0.66318 0.0
H560 H 0.1117 0.22417 0.43883 0.0
H561 H 0.13915 0.22625 0.69873 0.0
H562 H 0.09836 0.22164 0.58141 0.0
H563 H 0.14944 0.22337 0.55801 0.0
C564 C 0.14602 0.22591 0.48538 0.0
C565 C 0.13576 0.22668 0.45089 0.0
C566 C 0.10719 0.2224 0.60721 0.0
C567 C 0.12572 0.22165 0.54438 0.0
C568 C 0.10481 0.22498 0.65395 0.0
C569 C 0.11646 0.22681 0.68783 0.0
C570 C 0.12136 0.22175 0.59423 0.0
C571 C 0.12993 0.22509 0.67381 0.0
C572 C 0.14102 0.2233 0.53193 0.0
C573 C 0.12005 0.22375 0.46425 0.0
N574 N 0.1321 0.22286 0.62809 0.0
N575 N 0.11562 0.22165 0.51004 0.0
H576 H 0.78241 0.93133 0.48484 0.0
H577 H 0.78858 0.87139 0.67079 0.0
H578 H 0.79144 0.89182 0.44675 0.0
H579 H 0.78582 0.91479 0.70729 0.0
H580 H 0.79259 0.88018 0.5891 0.0
H581 H 0.78666 0.92718 0.5665 0.0
C582 C 0.78552 0.92193 0.49356 0.0
C583 C 0.78639 0.91179 0.45884 0.0
C584 C 0.79133 0.8879 0.61509 0.0
C585 C 0.79103 0.90678 0.55266 0.0
C586 C 0.78906 0.88289 0.66177 0.0
C587 C 0.78667 0.89227 0.69591 0.0
C588 C 0.79109 0.90232 0.60242 0.0
C589 C 0.78746 0.90708 0.68216 0.0
C590 C 0.78794 0.91954 0.5403 0.0
C591 C 0.79058 0.89988 0.47231 0.0
N592 N 0.78941 0.91153 0.63649 0.0
N593 N 0.79249 0.89753 0.51821 0.0
H594 H 0.14329 0.92179 0.67222 0.0
H595 H 0.08187 0.8571 0.48617 0.0
H596 H 0.09861 0.87672 0.70814 0.0
H597 H 0.12429 0.90383 0.44832 0.0
H598 H 0.08563 0.86609 0.56728 0.0
H599 H 0.13456 0.91752 0.59053 0.0
C600 C 0.13151 0.91115 0.66309 0.0
C601 C 0.12177 0.89948 0.69704 0.0
C602 C 0.09399 0.8745 0.54122 0.0
C603 C 0.11179 0.89442 0.60349 0.0
C604 C 0.09183 0.86938 0.49479 0.0
C605 C 0.10292 0.87964 0.4604 0.0
C606 C 0.10748 0.88993 0.55364 0.0
C607 C 0.1155 0.89547 0.47367 0.0
C608 C 0.12655 0.9087 0.61638 0.0
C609 C 0.1066 0.88596 0.68314 0.0
N610 N 0.11761 0.90002 0.51936 0.0
N611 N 0.1022 0.88369 0.63742 0.0
H612 H 0.79166 0.87698 0.20856 0.0
H613 H 0.7928 0.90475 0.94448 0.0
H614 H 0.79025 0.92087 0.16926 0.0
H615 H 0.7868 0.85761 0.98583 0.0
H616 H 0.79808 0.91374 0.02595 0.0
H617 H 0.79611 0.87279 0.12703 0.0
C618 C 0.79255 0.8859 0.1829 0.0
C619 C 0.79034 0.89917 0.19573 0.0
C620 C 0.79586 0.90152 0.01705 0.0
C621 C 0.79528 0.89434 0.10205 0.0
C622 C 0.79293 0.8964 0.97048 0.0
C623 C 0.7891 0.8803 0.95833 0.0
C624 C 0.79503 0.89048 0.05167 0.0
C625 C 0.78946 0.87005 0.9936 0.0
C626 C 0.79505 0.88347 0.13627 0.0
C627 C 0.79173 0.91038 0.16092 0.0
N628 N 0.79217 0.87524 0.03864 0.0
N629 N 0.7939 0.9076 0.11558 0.0
H630 H 0.1412 0.9156 0.21167 0.0
H631 H 0.11196 0.89182 0.94693 0.0
H632 H 0.09595 0.87175 0.17174 0.0
H633 H 0.16068 0.93012 0.98846 0.0
H634 H 0.10352 0.8877 0.0289 0.0
H635 H 0.14593 0.92432 0.13027 0.0
C636 C 0.13212 0.9079 0.18588 0.0
C637 C 0.11825 0.89281 0.19855 0.0
C638 C 0.11599 0.89715 0.01996 0.0
C639 C 0.12368 0.9027 0.10497 0.0
C640 C 0.12081 0.89958 0.97313 0.0
C641 C 0.13713 0.91121 0.96077 0.0
C642 C 0.12754 0.90647 0.05466 0.0
C643 C 0.14803 0.92089 0.99633 0.0
C644 C 0.13487 0.91288 0.13932 0.0
C645 C 0.10688 0.88341 0.16354 0.0
N646 N 0.14308 0.9182 0.0416 0.0
N647 N 0.10994 0.88843 0.11827 0.0
H648 H 0.08278 0.22794 0.97666 0.0
H649 H 0.14493 0.22606 0.16311 0.0
H650 H 0.12554 0.22425 0.93878 0.0
H651 H 0.10002 0.22605 0.19867 0.0
H652 H 0.13626 0.22157 0.08131 0.0
H653 H 0.08689 0.22325 0.05793 0.0
C654 C 0.09289 0.22588 0.98532 0.0
C655 C 0.10394 0.2267 0.95085 0.0
C656 C 0.12819 0.2223 0.10712 0.0
C657 C 0.10893 0.22159 0.04429 0.0
C658 C 0.13312 0.22485 0.15388 0.0
C659 C 0.12328 0.22665 0.18777 0.0
C660 C 0.11336 0.22164 0.09414 0.0
C661 C 0.10809 0.22491 0.17374 0.0
C662 C 0.09526 0.22322 0.03185 0.0
C663 C 0.11675 0.22379 0.96419 0.0
N664 N 0.10371 0.22271 0.12801 0.0
N665 N 0.11905 0.22164 0.00996 0.0
H666 H 0.87934 0.78664 0.30582 0.0
H667 H 0.90754 0.78874 0.56998 0.0
H668 H 0.92326 0.78525 0.34489 0.0
H669 H 0.86059 0.7832 0.52863 0.0
H670 H 0.91631 0.79336 0.48826 0.0
H671 H 0.87527 0.79124 0.38725 0.0
C672 C 0.88828 0.78753 0.33143 0.0
C673 C 0.90155 0.78533 0.31853 0.0
C674 C 0.90419 0.79138 0.49721 0.0
C675 C 0.89685 0.79046 0.41218 0.0
C676 C 0.8992 0.78884 0.54391 0.0
C677 C 0.88321 0.78535 0.55617 0.0
C678 C 0.89313 0.7905 0.46257 0.0
C679 C 0.87295 0.78562 0.52081 0.0
C680 C 0.88592 0.79013 0.37801 0.0
C681 C 0.91278 0.78675 0.35329 0.0
N682 N 0.87802 0.78796 0.47566 0.0
N683 N 0.91007 0.78902 0.39862 0.0
H684 H 0.23569 0.08002 0.52448 0.0
H685 H 0.22912 0.13989 0.33946 0.0
H686 H 0.22717 0.11981 0.56326 0.0
H687 H 0.23138 0.09626 0.30249 0.0
H688 H 0.22518 0.1311 0.42112 0.0
H689 H 0.23088 0.08394 0.44311 0.0
C690 C 0.23257 0.08943 0.51598 0.0
C691 C 0.23203 0.09972 0.55077 0.0
C692 C 0.2263 0.12333 0.39504 0.0
C693 C 0.22675 0.10447 0.45729 0.0
C694 C 0.22852 0.12833 0.34836 0.0
C695 C 0.23078 0.11891 0.31411 0.0
C696 C 0.22646 0.10886 0.40757 0.0
C697 C 0.22985 0.10402 0.32771 0.0
C698 C 0.22983 0.09168 0.46941 0.0
C699 C 0.2278 0.11163 0.53762 0.0
N700 N 0.22798 0.09957 0.37338 0.0
N701 N 0.22557 0.11385 0.49185 0.0
H702 H 0.93633 0.15606 0.52244 0.0
H703 H 0.8752 0.09101 0.33644 0.0
H704 H 0.89457 0.10886 0.56034 0.0
H705 H 0.91941 0.13651 0.30032 0.0
H706 H 0.88401 0.0954 0.41806 0.0
H707 H 0.93245 0.14726 0.44115 0.0
C708 C 0.92649 0.14373 0.51378 0.0
C709 C 0.91563 0.13327 0.54827 0.0
C710 C 0.8919 0.1043 0.39218 0.0
C711 C 0.91093 0.12318 0.45483 0.0
C712 C 0.88689 0.10179 0.34551 0.0
C713 C 0.89648 0.11352 0.31151 0.0
C714 C 0.90655 0.11871 0.405 0.0
C715 C 0.91153 0.12721 0.32534 0.0
C716 C 0.92426 0.13871 0.46725 0.0
C717 C 0.90319 0.11738 0.53493 0.0
N718 N 0.91599 0.12952 0.37103 0.0
N719 N 0.90101 0.11292 0.48917 0.0
H720 H 0.89451 0.46936 0.13571 0.0
H721 H 0.89236 0.44106 0.39973 0.0
H722 H 0.89542 0.4252 0.175 0.0
H723 H 0.89907 0.4885 0.35861 0.0
H724 H 0.88728 0.43224 0.31811 0.0
H725 H 0.88997 0.47353 0.21717 0.0
C726 C 0.8935 0.46038 0.16135 0.0
C727 C 0.89558 0.44703 0.14854 0.0
C728 C 0.88962 0.44448 0.32709 0.0
C729 C 0.89054 0.45184 0.24215 0.0
C730 C 0.89243 0.44951 0.37374 0.0
C731 C 0.89639 0.46565 0.38601 0.0
C732 C 0.89069 0.45564 0.29252 0.0
C733 C 0.89629 0.47603 0.35075 0.0
C734 C 0.89095 0.4628 0.20794 0.0
C735 C 0.89403 0.43575 0.18332 0.0
N736 N 0.89368 0.47092 0.30564 0.0
N737 N 0.89181 0.43852 0.22863 0.0
H738 H 0.5443 0.42973 0.13378 0.0
H739 H 0.57328 0.45396 0.39841 0.0
H740 H 0.58942 0.47372 0.17366 0.0
H741 H 0.52464 0.41552 0.35681 0.0
H742 H 0.58185 0.45788 0.31657 0.0
H743 H 0.53959 0.42103 0.2152 0.0
C744 C 0.55336 0.43746 0.15956 0.0
C745 C 0.56718 0.45259 0.1469 0.0
C746 C 0.56937 0.44844 0.32547 0.0
C747 C 0.56177 0.44273 0.24047 0.0
C748 C 0.56448 0.44613 0.37223 0.0
C749 C 0.54813 0.43453 0.38451 0.0
C750 C 0.55786 0.43903 0.29077 0.0
C751 C 0.5373 0.42475 0.34899 0.0
C752 C 0.55063 0.4325 0.20613 0.0
C753 C 0.57854 0.46202 0.18187 0.0
N754 N 0.54231 0.42732 0.30378 0.0
N755 N 0.57549 0.45703 0.22716 0.0
H756 H 0.60183 0.11354 0.35806 0.0
H757 H 0.542 0.12029 0.17305 0.0
H758 H 0.56231 0.12247 0.39685 0.0
H759 H 0.58538 0.11759 0.13596 0.0
H760 H 0.55082 0.12417 0.2547 0.0
H761 H 0.59777 0.11812 0.27659 0.0
C762 C 0.59244 0.1167 0.34953 0.0
C763 C 0.58228 0.11744 0.38438 0.0
C764 C 0.55853 0.12297 0.22859 0.0
C765 C 0.57737 0.12246 0.29078 0.0
C766 C 0.55351 0.12077 0.18193 0.0
C767 C 0.56286 0.11842 0.14763 0.0
C768 C 0.57294 0.12269 0.24108 0.0
C769 C 0.57768 0.1192 0.1612 0.0
C770 C 0.59012 0.11931 0.30291 0.0
C771 C 0.5704 0.12171 0.37118 0.0
N772 N 0.58215 0.12106 0.20686 0.0
N773 N 0.56811 0.12381 0.32537 0.0
H774 H 0.77769 0.55709 0.77387 0.0
H775 H 0.80594 0.55947 0.03808 0.0
H776 H 0.82475 0.56291 0.81534 0.0
H777 H 0.76192 0.56064 0.99885 0.0
H778 H 0.81004 0.55484 0.9567 0.0
H779 H 0.76892 0.55247 0.85558 0.0
C780 C 0.78606 0.55706 0.79996 0.0
C781 C 0.80208 0.56062 0.78774 0.0
C782 C 0.79937 0.55592 0.96589 0.0
C783 C 0.79215 0.55547 0.88133 0.0
C784 C 0.79699 0.55853 0.01244 0.0
C785 C 0.78368 0.56067 0.02527 0.0
C786 C 0.78841 0.55551 0.93169 0.0
C787 C 0.77243 0.55919 0.99049 0.0
C788 C 0.78107 0.55452 0.84666 0.0
C789 C 0.81237 0.56043 0.82313 0.0
N790 N 0.77516 0.5569 0.94519 0.0
N791 N 0.80729 0.55809 0.86827 0.0
H792 H 0.45992 0.22641 0.77629 0.0
H793 H 0.4555 0.25065 0.04109 0.0
H794 H 0.44962 0.26475 0.81833 0.0
H795 H 0.45661 0.20667 1.00086 0.0
H796 H 0.4595 0.25941 0.95971 0.0
H797 H 0.46483 0.2226 0.858 0.0
C798 C 0.45899 0.23425 0.80253 0.0
C799 C 0.45413 0.24578 0.79043 0.0
C800 C 0.45907 0.24794 0.96871 0.0
C801 C 0.45966 0.2414 0.88402 0.0
C802 C 0.45683 0.24294 0.01525 0.0
C803 C 0.45549 0.22778 0.02779 0.0
C804 C 0.45995 0.23772 0.93428 0.0
C805 C 0.45743 0.21838 0.99274 0.0
C806 C 0.46172 0.232 0.84922 0.0
C807 C 0.45314 0.25557 0.82602 0.0
N808 N 0.45937 0.22341 0.94748 0.0
N809 N 0.45572 0.25306 0.87116 0.0
H810 H 0.75103 0.18771 0.82174 0.0
H811 H 0.81026 0.25439 0.00726 0.0
H812 H 0.7901 0.23646 0.78348 0.0
H813 H 0.76699 0.2082 0.04422 0.0
H814 H 0.80148 0.24945 0.92563 0.0
H815 H 0.75491 0.19624 0.90331 0.0
C816 C 0.76028 0.20029 0.8304 0.0
C817 C 0.77038 0.21131 0.79567 0.0
C818 C 0.79378 0.24051 0.95169 0.0
C819 C 0.77507 0.22113 0.88938 0.0
C820 C 0.79878 0.24334 0.99836 0.0
C821 C 0.78945 0.2316 0.03263 0.0
C822 C 0.77942 0.22577 0.93913 0.0
C823 C 0.77465 0.21753 0.019 0.0
C824 C 0.7625 0.20517 0.87708 0.0
C825 C 0.78207 0.22751 0.80905 0.0
N826 N 0.77022 0.21492 0.97332 0.0
N827 N 0.78427 0.23185 0.8549 0.0
H828 H 0.45692 0.20998 0.54053 0.0
H829 H 0.45985 0.23849 0.27625 0.0
H830 H 0.45616 0.2542 0.50097 0.0
H831 H 0.45265 0.19087 0.31748 0.0
H832 H 0.46459 0.24718 0.358 0.0
H833 H 0.46142 0.20574 0.45911 0.0
C834 C 0.45794 0.21895 0.51484 0.0
C835 C 0.45594 0.23235 0.52757 0.0
C836 C 0.46221 0.23492 0.34902 0.0
C837 C 0.46096 0.22746 0.434 0.0
C838 C 0.45959 0.22996 0.3023 0.0
C839 C 0.45562 0.21383 0.28999 0.0
C840 C 0.46092 0.22368 0.38364 0.0
C841 C 0.45546 0.20335 0.32535 0.0
C842 C 0.46048 0.21648 0.46827 0.0
C843 C 0.4575 0.24361 0.49271 0.0
N844 N 0.45789 0.2084 0.37053 0.0
N845 N 0.45973 0.24081 0.44743 0.0
H846 H 0.76147 0.20672 0.50678 0.0
H847 H 0.82824 0.26608 0.32193 0.0
H848 H 0.80727 0.25042 0.54398 0.0
H849 H 0.77991 0.22635 0.28315 0.0
H850 H 0.81939 0.26243 0.40319 0.0
H851 H 0.76643 0.21544 0.42512 0.0
C852 C 0.77243 0.21829 0.49793 0.0
C853 C 0.78407 0.22775 0.53227 0.0
C854 C 0.81062 0.25465 0.37689 0.0
C855 C 0.78993 0.2377 0.43873 0.0
C856 C 0.81568 0.25673 0.33039 0.0
C857 C 0.80488 0.24638 0.29564 0.0
C858 C 0.79469 0.24195 0.389 0.0
C859 C 0.78869 0.23457 0.30875 0.0
C860 C 0.77527 0.22325 0.45123 0.0
C861 C 0.79802 0.24265 0.5187 0.0
N862 N 0.78418 0.2325 0.35445 0.0
N863 N 0.80066 0.24704 0.47299 0.0
H864 H 0.76596 0.55935 0.53807 0.0
H865 H 0.79187 0.55708 0.27386 0.0
H866 H 0.81121 0.56066 0.49882 0.0
H867 H 0.75055 0.56274 0.31534 0.0
H868 H 0.79604 0.55247 0.35556 0.0
H869 H 0.75723 0.55471 0.4567 0.0
C870 C 0.77398 0.55844 0.51243 0.0
C871 C 0.78945 0.56063 0.52525 0.0
C872 C 0.78592 0.55447 0.34665 0.0
C873 C 0.77956 0.55544 0.43168 0.0
C874 C 0.78346 0.55701 0.29995 0.0
C875 C 0.77097 0.56053 0.28774 0.0
C876 C 0.77577 0.55539 0.38132 0.0
C877 C 0.76047 0.56029 0.32313 0.0
C878 C 0.76899 0.55581 0.46588 0.0
C879 C 0.79924 0.55918 0.49047 0.0
N880 N 0.76321 0.55796 0.36827 0.0
N881 N 0.79422 0.55688 0.44517 0.0
H882 H 0.54649 0.12128 0.63431 0.0
H883 H 0.57461 0.12375 0.89878 0.0
H884 H 0.59073 0.12065 0.67413 0.0
H885 H 0.52714 0.11682 0.85716 0.0
H886 H 0.58346 0.12869 0.81716 0.0
H887 H 0.54216 0.12572 0.71573 0.0
C888 C 0.55545 0.12233 0.66006 0.0
C889 C 0.56888 0.12036 0.6474 0.0
C890 C 0.5712 0.12633 0.82603 0.0
C891 C 0.56389 0.1253 0.74097 0.0
C892 C 0.56616 0.1236 0.87268 0.0
C893 C 0.55001 0.11963 0.88483 0.0
C894 C 0.56004 0.12516 0.79132 0.0
C895 C 0.53962 0.11962 0.84942 0.0
C896 C 0.55293 0.12482 0.70663 0.0
C897 C 0.58013 0.12195 0.68233 0.0
N898 N 0.54475 0.12215 0.80431 0.0
N899 N 0.57727 0.12412 0.72761 0.0
H900 H 0.89781 0.42957 0.63485 0.0
H901 H 0.89279 0.45363 0.89951 0.0
H902 H 0.89655 0.4735 0.67478 0.0
H903 H 0.90334 0.41543 0.8579 0.0
H904 H 0.88818 0.45755 0.81764 0.0
H905 H 0.89382 0.42086 0.71626 0.0
C906 C 0.89646 0.43729 0.66064 0.0
C907 C 0.89773 0.45241 0.64799 0.0
C908 C 0.89128 0.44816 0.82655 0.0
C909 C 0.89328 0.44253 0.74155 0.0
C910 C 0.89384 0.44585 0.87332 0.0
C911 C 0.89867 0.43431 0.88561 0.0
C912 C 0.89348 0.43882 0.79184 0.0
C913 C 0.89983 0.4246 0.85007 0.0
C914 C 0.89422 0.43232 0.7072 0.0
C915 C 0.89577 0.46182 0.68298 0.0
N916 N 0.89741 0.42717 0.80485 0.0
N917 N 0.89382 0.45681 0.72826 0.0
H918 H 0.58711 0.46975 0.63455 0.0
H919 H 0.5611 0.44129 0.89853 0.0
H920 H 0.54211 0.42551 0.67378 0.0
H921 H 0.60185 0.48872 0.85751 0.0
H922 H 0.5573 0.43251 0.81686 0.0
H923 H 0.59584 0.47389 0.71598 0.0
C924 C 0.57916 0.46075 0.66017 0.0
C925 C 0.56374 0.44738 0.64736 0.0
C926 C 0.56723 0.44475 0.82587 0.0
C927 C 0.57362 0.45216 0.74093 0.0
C928 C 0.56947 0.44975 0.87255 0.0
C929 C 0.58167 0.46587 0.88487 0.0
C930 C 0.5773 0.45593 0.79131 0.0
C931 C 0.59214 0.47627 0.84962 0.0
C932 C 0.58415 0.46316 0.70675 0.0
C933 C 0.55404 0.43608 0.68212 0.0
N934 N 0.5896 0.47118 0.80447 0.0
N935 N 0.55904 0.43883 0.72741 0.0
H936 H 0.55968 0.77656 0.73309 0.0
H937 H 0.56526 0.80575 0.46829 0.0
H938 H 0.57046 0.82539 0.69147 0.0
H939 H 0.56354 0.76037 0.5084 0.0
H940 H 0.56134 0.81057 0.54968 0.0
H941 H 0.55527 0.76809 0.65116 0.0
C942 C 0.56083 0.78543 0.70687 0.0
C943 C 0.56565 0.80179 0.71921 0.0
C944 C 0.56163 0.79946 0.54066 0.0
C945 C 0.5607 0.79216 0.62535 0.0
C946 C 0.56383 0.79666 0.49411 0.0
C947 C 0.56494 0.78272 0.48151 0.0
C948 C 0.56055 0.78826 0.57506 0.0
C949 C 0.56289 0.77134 0.51655 0.0
C950 C 0.55839 0.78059 0.66007 0.0
C951 C 0.56694 0.81271 0.68363 0.0
N952 N 0.56097 0.77445 0.56181 0.0
N953 N 0.56463 0.80774 0.63837 0.0
H954 H 0.25836 0.80762 0.50889 0.0
H955 H 0.19373 0.74597 0.69469 0.0
H956 H 0.21332 0.76293 0.47274 0.0
H957 H 0.24054 0.78824 0.73274 0.0
H958 H 0.20266 0.74986 0.61351 0.0
H959 H 0.25409 0.79881 0.59052 0.0
C960 C 0.24772 0.79582 0.51796 0.0
C961 C 0.23606 0.7861 0.48396 0.0
C962 C 0.2111 0.75816 0.63962 0.0
C963 C 0.23101 0.77603 0.57744 0.0
C964 C 0.20601 0.75592 0.68609 0.0
C965 C 0.21631 0.76692 0.72057 0.0
C966 C 0.22654 0.77164 0.62726 0.0
C967 C 0.23215 0.7795 0.70733 0.0
C968 C 0.24527 0.79081 0.56463 0.0
C969 C 0.22255 0.77091 0.49777 0.0
N970 N 0.23667 0.78169 0.66162 0.0
N971 N 0.22029 0.76646 0.54345 0.0
H972 H 0.20661 0.45202 0.50997 0.0
H973 H 0.269 0.45079 0.69669 0.0
H974 H 0.25175 0.45246 0.47464 0.0
H975 H 0.22606 0.45418 0.73439 0.0
H976 H 0.26486 0.45541 0.61539 0.0
H977 H 0.21527 0.45664 0.59178 0.0
C978 C 0.21846 0.45335 0.51926 0.0
C979 C 0.22837 0.45164 0.48544 0.0
C980 C 0.25645 0.45539 0.64143 0.0
C981 C 0.23829 0.45678 0.57906 0.0
C982 C 0.25884 0.45277 0.68797 0.0
C983 C 0.24775 0.45188 0.7224 0.0
C984 C 0.24273 0.45691 0.62893 0.0
C985 C 0.23488 0.45469 0.70901 0.0
C986 C 0.22339 0.45597 0.56602 0.0
C987 C 0.24362 0.45352 0.49953 0.0
N988 N 0.23256 0.4568 0.66322 0.0
N989 N 0.248 0.45579 0.54525 0.0
H990 H 0.49489 0.9003 0.15579 0.0
H991 H 0.4282 0.89249 0.34168 0.0
H992 H 0.44611 0.89057 0.11782 0.0
H993 H 0.47446 0.89552 0.37838 0.0
H994 H 0.43312 0.8887 0.26 0.0
H995 H 0.48638 0.89552 0.23736 0.0
C996 C 0.48231 0.89693 0.16451 0.0
C997 C 0.47127 0.89602 0.12986 0.0
C998 C 0.44208 0.88995 0.28601 0.0
C999 C 0.46147 0.89075 0.22357 0.0
C1000 C 0.43926 0.89209 0.33271 0.0
C1001 C 0.45102 0.89451 0.36692 0.0
C1002 C 0.45683 0.89039 0.27336 0.0
C1003 C 0.4651 0.89383 0.35321 0.0
C1004 C 0.47744 0.8942 0.21119 0.0
C1005 C 0.45507 0.89148 0.14332 0.0
N1006 N 0.46771 0.89205 0.30749 0.0
N1007 N 0.45074 0.88926 0.18917 0.0
H1008 H 0.12086 0.59984 0.1492 0.0
H1009 H 0.12241 0.53729 0.33488 0.0
H1010 H 0.12431 0.55698 0.11074 0.0
H1011 H 0.12259 0.58225 0.37093 0.0
H1012 H 0.12698 0.54607 0.25316 0.0
H1013 H 0.12554 0.5956 0.23038 0.0
C1014 C 0.12287 0.58968 0.15772 0.0
C1015 C 0.12199 0.57863 0.1231 0.0
C1016 C 0.12626 0.55412 0.27907 0.0
C1017 C 0.12707 0.5735 0.21645 0.0
C1018 C 0.12368 0.54913 0.32578 0.0
C1019 C 0.1219 0.55895 0.35978 0.0
C1020 C 0.12699 0.569 0.26625 0.0
C1021 C 0.1237 0.57418 0.34591 0.0
C1022 C 0.12552 0.58723 0.20419 0.0
C1023 C 0.12483 0.56577 0.13626 0.0
N1024 N 0.12594 0.57863 0.30024 0.0
N1025 N 0.12697 0.56339 0.18199 0.0
H1026 H 0.41661 0.52397 0.14772 0.0
H1027 H 0.47869 0.58834 0.33397 0.0
H1028 H 0.45896 0.57073 0.10971 0.0
H1029 H 0.43427 0.543 0.36978 0.0
H1030 H 0.46991 0.58405 0.25225 0.0
H1031 H 0.4209 0.53265 0.22912 0.0
C1032 C 0.42667 0.53618 0.15639 0.0
C1033 C 0.43756 0.54655 0.12181 0.0
C1034 C 0.46197 0.57517 0.2781 0.0
C1035 C 0.44273 0.55649 0.21539 0.0
C1036 C 0.46697 0.57762 0.3248 0.0
C1037 C 0.4573 0.56591 0.35874 0.0
C1038 C 0.44724 0.56086 0.26522 0.0
C1039 C 0.44221 0.55228 0.3448 0.0
C1040 C 0.42914 0.54113 0.20299 0.0
C1041 C 0.4503 0.5623 0.13518 0.0
N1042 N 0.43776 0.55004 0.29913 0.0
N1043 N 0.4527 0.56668 0.181 0.0
H1044 H 0.12205 0.58813 0.83509 0.0
H1045 H 0.11989 0.5238 0.64897 0.0
H1046 H 0.12171 0.54307 0.87096 0.0
H1047 H 0.12392 0.57038 0.61077 0.0
H1048 H 0.12441 0.53258 0.73028 0.0
H1049 H 0.12644 0.58382 0.7533 0.0
C1050 C 0.12316 0.57747 0.82592 0.0
C1051 C 0.12131 0.56584 0.85991 0.0
C1052 C 0.12455 0.54101 0.70412 0.0
C1053 C 0.12618 0.56075 0.7663 0.0
C1054 C 0.12199 0.536 0.65757 0.0
C1055 C 0.12133 0.54628 0.62297 0.0
C1056 C 0.12625 0.55634 0.71647 0.0
C1057 C 0.12426 0.56201 0.63626 0.0
C1058 C 0.12564 0.575 0.77917 0.0
C1059 C 0.12289 0.55229 0.84596 0.0
N1060 N 0.12633 0.56646 0.68205 0.0
N1061 N 0.12504 0.55003 0.80024 0.0
H1062 H 0.47256 0.58367 0.87211 0.0
H1063 H 0.4447 0.55767 0.60772 0.0
H1064 H 0.42869 0.53838 0.83261 0.0
H1065 H 0.49153 0.59919 0.64949 0.0
H1066 H 0.43582 0.55349 0.68933 0.0
H1067 H 0.4767 0.59242 0.79074 0.0
C1068 C 0.46365 0.57565 0.84642 0.0
C1069 C 0.45037 0.56016 0.85918 0.0
C1070 C 0.44794 0.56367 0.6805 0.0
C1071 C 0.45515 0.57007 0.7656 0.0
C1072 C 0.45299 0.56613 0.63385 0.0
C1073 C 0.46899 0.57867 0.62175 0.0
C1074 C 0.45892 0.57386 0.71524 0.0
C1075 C 0.47917 0.58923 0.65719 0.0
C1076 C 0.46605 0.58065 0.79987 0.0
C1077 C 0.43917 0.55037 0.82433 0.0
N1078 N 0.47404 0.58647 0.70228 0.0
N1079 N 0.44192 0.55539 0.77903 0.0
H1080 H 0.47556 0.89154 0.84138 0.0
H1081 H 0.41655 0.89925 0.65603 0.0
H1082 H 0.43209 0.89409 0.87825 0.0
H1083 H 0.45604 0.89024 0.61767 0.0
H1084 H 0.4201 0.89406 0.73737 0.0
H1085 H 0.46684 0.8877 0.75973 0.0
C1086 C 0.46404 0.89101 0.83246 0.0
C1087 C 0.45465 0.89335 0.86669 0.0
C1088 C 0.42785 0.89298 0.71115 0.0
C1089 C 0.44469 0.88917 0.77316 0.0
C1090 C 0.42582 0.89594 0.66461 0.0
C1091 C 0.43614 0.89539 0.62995 0.0
C1092 C 0.44046 0.88964 0.7234 0.0
C1093 C 0.44785 0.8909 0.6432 0.0
C1094 C 0.45907 0.88885 0.78577 0.0
C1095 C 0.43981 0.89249 0.85305 0.0
N1096 N 0.44987 0.88846 0.68895 0.0
N1097 N 0.43541 0.8907 0.80733 0.0
H1098 H 0.19359 0.45028 0.19678 0.0
H1099 H 0.25764 0.45244 0.00998 0.0
H1100 H 0.24013 0.45413 0.23443 0.0
H1101 H 0.21269 0.45238 0.97471 0.0
H1102 H 0.2535 0.4569 0.09182 0.0
H1103 H 0.20239 0.45506 0.1155 0.0
C1104 C 0.20579 0.4524 0.18806 0.0
C1105 C 0.21605 0.45159 0.22246 0.0
C1106 C 0.24467 0.45616 0.06607 0.0
C1107 C 0.22613 0.4568 0.12902 0.0
C1108 C 0.24705 0.45363 0.01928 0.0
C1109 C 0.23538 0.45182 0.98547 0.0
C1110 C 0.23049 0.45679 0.07914 0.0
C1111 C 0.22192 0.45353 0.99959 0.0
C1112 C 0.21081 0.4551 0.14153 0.0
C1113 C 0.23178 0.45457 0.20906 0.0
N1114 N 0.21975 0.45571 0.04534 0.0
N1115 N 0.23623 0.45677 0.16328 0.0
H1116 H 0.56102 0.76238 0.96913 0.0
H1117 H 0.55901 0.78833 0.23345 0.0
H1118 H 0.56212 0.8075 0.0089 0.0
H1119 H 0.56541 0.74746 0.19182 0.0
H1120 H 0.55394 0.79219 0.15192 0.0
H1121 H 0.55643 0.75358 0.05051 0.0
C1122 C 0.56004 0.77034 0.99486 0.0
C1123 C 0.5622 0.78581 0.98221 0.0
C1124 C 0.5562 0.78222 0.16077 0.0
C1125 C 0.55708 0.77585 0.07573 0.0
C1126 C 0.55901 0.77994 0.20737 0.0
C1127 C 0.56288 0.76769 0.21947 0.0
C1128 C 0.55721 0.77213 0.12606 0.0
C1129 C 0.5627 0.7572 0.1841 0.0
C1130 C 0.55746 0.76531 0.04141 0.0
C1131 C 0.56068 0.79553 0.0171 0.0
N1132 N 0.56011 0.75978 0.13903 0.0
N1133 N 0.55843 0.79048 0.06236 0.0
H1134 H 0.22862 0.77608 0.23431 0.0
H1135 H 0.25257 0.80505 0.96947 0.0
H1136 H 0.26693 0.82477 0.19259 0.0
H1137 H 0.20868 0.75985 0.00953 0.0
H1138 H 0.26125 0.80985 0.0509 0.0
H1139 H 0.22456 0.76755 0.15242 0.0
C1140 C 0.23639 0.7849 0.20809 0.0
C1141 C 0.24801 0.80124 0.22037 0.0
C1142 C 0.24981 0.79878 0.04187 0.0
C1143 C 0.24335 0.79155 0.12656 0.0
C1144 C 0.24485 0.796 0.99529 0.0
C1145 C 0.22976 0.78212 0.98265 0.0
C1146 C 0.23962 0.78764 0.07626 0.0
C1147 C 0.22035 0.77078 0.0177 0.0
C1148 C 0.234 0.78003 0.1613 0.0
C1149 C 0.25771 0.8121 0.18479 0.0
N1150 N 0.22535 0.77388 0.06299 0.0
N1151 N 0.25506 0.80711 0.13955 0.0
H1152 H 0.18846 0.23224 0.21749 0.0
H1153 H 0.23558 0.18451 0.28452 0.0
H1154 H 0.20922 0.23686 0.35474 0.0
H1155 H 0.24051 0.2055 0.14748 0.0
H1156 H 0.22218 0.19997 0.31128 0.0
H1157 H 0.20381 0.21873 0.19076 0.0
C1158 C 0.19628 0.23047 0.24192 0.0
C1159 C 0.19763 0.23575 0.28834 0.0
C1160 C 0.2263 0.20123 0.27544 0.0
C1161 C 0.21484 0.21999 0.25833 0.0
C1162 C 0.23389 0.1924 0.26014 0.0
C1163 C 0.23923 0.19378 0.21377 0.0
C1164 C 0.22361 0.21113 0.24382 0.0
C1165 C 0.2367 0.20417 0.18361 0.0
C1166 C 0.20505 0.22281 0.22664 0.0
C1167 C 0.20793 0.2331 0.31857 0.0
N1168 N 0.22889 0.21229 0.19897 0.0
N1169 N 0.21598 0.22522 0.30322 0.0
H1170 H 0.76066 0.96809 0.30549 0.0
H1171 H 0.84549 0.04797 0.23998 0.0
H1172 H 0.8038 0.96511 0.2677 0.0
H1173 H 0.79903 0.04322 0.19728 0.0
H1174 H 0.83074 0.01898 0.26511 0.0
H1175 H 0.77482 0.99705 0.27933 0.0
C1176 C 0.77308 0.97351 0.29157 0.0
C1177 C 0.78105 0.96417 0.28857 0.0
C1178 C 0.8238 0.02433 0.25036 0.0
C1179 C 0.79739 0.9973 0.25986 0.0
C1180 C 0.83217 0.04088 0.23633 0.0
C1181 C 0.82347 0.04801 0.21646 0.0
C1182 C 0.80655 0.01493 0.24554 0.0
C1183 C 0.80621 0.03819 0.21228 0.0
C1184 C 0.78111 0.98999 0.27664 0.0
C1185 C 0.79715 0.97182 0.27031 0.0
N1186 N 0.79829 0.02218 0.22702 0.0
N1187 N 0.80487 0.98799 0.25717 0.0
H1188 H 0.97793 0.77506 0.15128 0.0
H1189 H 0.04022 0.80604 0.36535 0.0
H1190 H 0.96235 0.78013 0.2889 0.0
H1191 H 0.056 0.82659 0.22773 0.0
H1192 H 0.01152 0.79114 0.3377 0.0
H1193 H 1.00664 0.78869 0.17881 0.0
C1194 C 0.98052 0.77888 0.18741 0.0
C1195 C 0.96773 0.77647 0.21788 0.0
C1196 C 0.0213 0.79886 0.31359 0.0
C1197 C 1.00049 0.79185 0.24956 0.0
C1198 C 0.03767 0.80728 0.32919 0.0
C1199 C 0.05052 0.81758 0.29876 0.0
C1200 C 0.01777 0.80042 0.26695 0.0
C1201 C 0.04647 0.81882 0.25236 0.0
C1202 C 0.9969 0.78674 0.20294 0.0
C1203 C 0.97184 0.78179 0.26424 0.0
N1204 N 0.03045 0.81025 0.23774 0.0
N1205 N 0.98786 0.78913 0.27878 0.0
H1206 H 0.80918 0.77507 0.65032 0.0
H1207 H 0.77809 0.80623 0.86463 0.0
H1208 H 0.8298 0.78006 0.78793 0.0
H1209 H 0.78268 0.82662 0.72686 0.0
H1210 H 0.79181 0.79126 0.83691 0.0
H1211 H 0.79412 0.78873 0.67791 0.0
C1212 C 0.81041 0.77888 0.68646 0.0
C1213 C 0.82077 0.77644 0.71691 0.0
C1214 C 0.78974 0.79897 0.81279 0.0
C1215 C 0.80343 0.79186 0.74866 0.0
C1216 C 0.78183 0.80742 0.82842 0.0
C1217 C 0.77925 0.8177 0.79797 0.0
C1218 C 0.79475 0.80046 0.76609 0.0
C1219 C 0.78447 0.81888 0.75151 0.0
C1220 C 0.8019 0.78675 0.70202 0.0
C1221 C 0.82199 0.78175 0.76328 0.0
N1222 N 0.79187 0.81027 0.73687 0.0
N1223 N 0.81333 0.78911 0.77786 0.0
H1224 H 0.25846 0.04368 0.70217 0.0
H1225 H 0.17333 0.96454 0.76941 0.0
H1226 H 0.21591 0.04739 0.7422 0.0
H1227 H 0.21962 0.96852 0.81045 0.0
H1228 H 0.18835 0.99355 0.74453 0.0
H1229 H 0.24409 0.01474 0.72846 0.0
C1230 C 0.24613 0.03843 0.71663 0.0
C1231 C 0.23839 0.04797 0.72021 0.0
C1232 C 0.19519 0.98803 0.75888 0.0
C1233 C 0.2218 0.01485 0.74904 0.0
C1234 C 0.18666 0.97146 0.77275 0.0
C1235 C 0.19524 0.96411 0.79207 0.0
C1236 C 0.21247 0.99722 0.76328 0.0
C1237 C 0.21252 0.97373 0.79588 0.0
C1238 C 0.23798 0.02195 0.73163 0.0
C1239 C 0.22239 0.04053 0.73914 0.0
N1240 N 0.2206 0.98976 0.78128 0.0
N1241 N 0.21454 0.02436 0.75231 0.0
H1242 H 0.96198 0.18503 0.78308 0.0
H1243 H 0.05694 0.23261 0.71733 0.0
H1244 H 0.97836 0.2064 0.64654 0.0
H1245 H 0.04066 0.23697 0.85463 0.0
H1246 H 0.02813 0.21927 0.69028 0.0
H1247 H 0.99079 0.20033 0.8103 0.0
C1248 C 0.97162 0.19297 0.75891 0.0
C1249 C 0.96777 0.19451 0.71255 0.0
C1250 C 0.03092 0.22325 0.72625 0.0
C1251 C 1.00068 0.21167 0.7431 0.0
C1252 C 0.04732 0.23081 0.74171 0.0
C1253 C 0.0512 0.23597 0.78824 0.0
C1254 C 0.01828 0.22041 0.75785 0.0
C1255 C 0.03823 0.2333 0.81839 0.0
C1256 C 0.98802 0.20171 0.77447 0.0
C1257 C 0.98077 0.20495 0.68266 0.0
N1258 N 0.02233 0.22552 0.80284 0.0
N1259 N 0.99666 0.21298 0.69827 0.0
H1260 H 0.87582 0.57067 0.69377 0.0
H1261 H 0.90712 0.53937 0.48043 0.0
H1262 H 0.85534 0.56567 0.55596 0.0
H1263 H 0.90202 0.51877 0.61811 0.0
H1264 H 0.89339 0.55438 0.50774 0.0
H1265 H 0.8908 0.55689 0.66654 0.0
C1266 C 0.87461 0.56683 0.65766 0.0
C1267 C 0.86431 0.56931 0.62705 0.0
C1268 C 0.89536 0.54663 0.53193 0.0
C1269 C 0.88156 0.55375 0.59572 0.0
C1270 C 0.90327 0.53814 0.51653 0.0
C1271 C 0.90571 0.5278 0.54707 0.0
C1272 C 0.89021 0.54509 0.5785 0.0
C1273 C 0.90034 0.52657 0.59339 0.0
C1274 C 0.88307 0.55889 0.64231 0.0
C1275 C 0.8631 0.56396 0.58073 0.0
N1276 N 0.89295 0.53521 0.60782 0.0
N1277 N 0.87172 0.55654 0.56635 0.0
H1278 H 0.42718 0.30192 0.6414 0.0
H1279 H 0.51209 0.38158 0.57557 0.0
H1280 H 0.46992 0.29861 0.60097 0.0
H1281 H 0.46568 0.3773 0.53436 0.0
H1282 H 0.49721 0.35251 0.60003 0.0
H1283 H 0.44143 0.33094 0.61579 0.0
C1284 C 0.43952 0.30728 0.62699 0.0
C1285 C 0.44736 0.29783 0.62309 0.0
C1286 C 0.49031 0.35799 0.58575 0.0
C1287 C 0.46381 0.33103 0.59505 0.0
C1288 C 0.49876 0.37458 0.57213 0.0
C1289 C 0.4901 0.38186 0.55287 0.0
C1290 C 0.47305 0.3487 0.58116 0.0
C1291 C 0.47283 0.37215 0.54889 0.0
C1292 C 0.44761 0.32379 0.61238 0.0
C1293 C 0.46337 0.30541 0.60425 0.0
N1294 N 0.46484 0.35609 0.56325 0.0
N1295 N 0.47115 0.32161 0.59146 0.0
H1296 H 0.63456 0.13427 0.57737 0.0
H1297 H 0.71438 0.1292 0.64307 0.0
H1298 H 0.63909 0.09231 0.53587 0.0
H1299 H 0.71741 0.1753 0.60467 0.0
H1300 H 0.68539 0.1144 0.61721 0.0
H1301 H 0.66357 0.1485 0.6023 0.0
C1302 C 0.6416 0.12798 0.57396 0.0
C1303 C 0.6344 0.11208 0.55448 0.0
C1304 C 0.69247 0.12775 0.61431 0.0
C1305 C 0.66751 0.12825 0.5833 0.0
C1306 C 0.70897 0.1362 0.62907 0.0
C1307 C 0.71833 0.1535 0.62581 0.0
C1308 C 0.68517 0.13671 0.59745 0.0
C1309 C 0.71069 0.16195 0.60747 0.0
C1310 C 0.65817 0.13616 0.58786 0.0
C1311 C 0.64417 0.10458 0.55058 0.0
N1312 N 0.6945 0.1535 0.5945 0.0
N1313 N 0.6602 0.11267 0.56518 0.0
H1314 H 0.45059 0.16203 0.05515 0.0
H1315 H 0.49772 0.11399 0.11883 0.0
H1316 H 0.44582 0.1406 0.19149 0.0
H1317 H 0.47674 0.10979 0.9821 0.0
H1318 H 0.48251 0.12753 0.14655 0.0
H1319 H 0.46399 0.14669 0.02741 0.0
C1320 C 0.45232 0.15408 0.07917 0.0
C1321 C 0.44702 0.15253 0.12563 0.0
C1322 C 0.4812 0.12355 0.11056 0.0
C1323 C 0.46264 0.13531 0.09446 0.0
C1324 C 0.48989 0.11587 0.09472 0.0
C1325 C 0.48843 0.11069 0.04816 0.0
C1326 C 0.47137 0.12648 0.07931 0.0
C1327 C 0.47812 0.11347 0.01836 0.0
C1328 C 0.45991 0.14531 0.06331 0.0
C1329 C 0.4496 0.14205 0.15531 0.0
N1330 N 0.47014 0.12135 0.03427 0.0
N1331 N 0.45741 0.134 0.1394 0.0
H1332 H 0.88198 0.38166 0.07711 0.0
H1333 H 0.88752 0.30232 0.14494 0.0
H1334 H 0.92417 0.37743 0.03638 0.0
H1335 H 0.84138 0.29877 0.10436 0.0
H1336 H 0.9022 0.33127 0.11864 0.0
H1337 H 0.86786 0.35265 0.10208 0.0
C1338 C 0.88834 0.37468 0.07387 0.0
C1339 C 0.90427 0.38196 0.05461 0.0
C1340 C 0.88888 0.32408 0.11535 0.0
C1341 C 0.88824 0.34886 0.0835 0.0
C1342 C 0.8805 0.30761 0.13036 0.0
C1343 C 0.86322 0.29812 0.12663 0.0
C1344 C 0.87986 0.33123 0.09778 0.0
C1345 C 0.85472 0.3056 0.10754 0.0
C1346 C 0.88023 0.35812 0.08779 0.0
C1347 C 0.91187 0.37228 0.05092 0.0
N1348 N 0.8631 0.32177 0.09436 0.0
N1349 N 0.90384 0.35625 0.06556 0.0
H1350 H 0.70719 0.5705 0.19366 0.0
H1351 H 0.64478 0.53949 0.97988 0.0
H1352 H 0.72277 0.56564 0.05586 0.0
H1353 H 0.62914 0.51876 0.11737 0.0
H1354 H 0.6735 0.55444 0.00739 0.0
H1355 H 0.67846 0.55677 0.16624 0.0
C1356 C 0.70459 0.5667 0.15752 0.0
C1357 C 0.71739 0.5692 0.12696 0.0
C1358 C 0.66375 0.54667 0.0315 0.0
C1359 C 0.68461 0.5537 0.09541 0.0
C1360 C 0.64737 0.53822 0.01598 0.0
C1361 C 0.63455 0.52785 0.04641 0.0
C1362 C 0.66732 0.54508 0.07808 0.0
C1363 C 0.63865 0.52657 0.09274 0.0
C1364 C 0.6882 0.55878 0.14205 0.0
C1365 C 0.71328 0.5639 0.08058 0.0
N1366 N 0.65467 0.53518 0.10728 0.0
N1367 N 0.69725 0.55651 0.0661 0.0
H1368 H 0.50635 0.87909 0.9366 0.0
H1369 H 0.59126 0.88432 0.86994 0.0
H1370 H 0.55288 0.92123 0.97704 0.0
H1371 H 0.54836 0.83823 0.90925 0.0
H1372 H 0.57703 0.89909 0.8957 0.0
H1373 H 0.52115 0.86488 0.91162 0.0
C1374 C 0.5197 0.88542 0.93977 0.0
C1375 C 0.5284 0.90137 0.95897 0.0
C1376 C 0.5708 0.88575 0.89881 0.0
C1377 C 0.54537 0.88523 0.93008 0.0
C1378 C 0.57888 0.87732 0.88411 0.0
C1379 C 0.571 0.86003 0.88766 0.0
C1380 C 0.55457 0.87678 0.91592 0.0
C1381 C 0.55494 0.85157 0.90622 0.0
C1382 C 0.5281 0.87726 0.92584 0.0
C1383 C 0.54568 0.90893 0.96256 0.0
N1384 N 0.54718 0.86 0.91914 0.0
N1385 N 0.55363 0.90084 0.94794 0.0
H1386 H 0.11614 0.62564 0.88981 0.0
H1387 H 0.1639 0.72073 0.95471 0.0
H1388 H 0.11188 0.64217 0.02687 0.0
H1389 H 0.14279 0.70417 0.81798 0.0
H1390 H 0.14851 0.69195 0.98221 0.0
H1391 H 0.12958 0.65442 0.86246 0.0
C1392 C 0.11798 0.63531 0.91407 0.0
C1393 C 0.11282 0.6315 0.96062 0.0
C1394 C 0.1472 0.69468 0.94628 0.0
C1395 C 0.12849 0.6644 0.92989 0.0
C1396 C 0.15599 0.71106 0.93056 0.0
C1397 C 0.15456 0.71485 0.88405 0.0
C1398 C 0.13729 0.68198 0.91495 0.0
C1399 C 0.14416 0.70182 0.8542 0.0
C1400 C 0.1256 0.65169 0.89844 0.0
C1401 C 0.11555 0.64453 0.99061 0.0
N1402 N 0.13608 0.68594 0.86998 0.0
N1403 N 0.12338 0.66042 0.9749 0.0
H1404 H 0.29507 0.44639 0.95545 0.0
H1405 H 0.38985 0.49435 0.88772 0.0
H1406 H 0.31112 0.44184 0.81801 0.0
H1407 H 0.37396 0.4733 0.02479 0.0
H1408 H 0.36097 0.47883 0.86118 0.0
H1409 H 0.32395 0.45996 0.98197 0.0
C1410 C 0.30465 0.44819 0.93093 0.0
C1411 C 0.30069 0.44291 0.88452 0.0
C1412 C 0.36387 0.47757 0.89698 0.0
C1413 C 0.33369 0.45874 0.91429 0.0
C1414 C 0.3803 0.48644 0.91216 0.0
C1415 C 0.38431 0.48505 0.95847 0.0
C1416 C 0.35132 0.46763 0.92868 0.0
C1417 C 0.37143 0.47463 0.9887 0.0
C1418 C 0.32109 0.45589 0.94609 0.0
C1419 C 0.31361 0.44559 0.85418 0.0
N1420 N 0.35549 0.46648 0.97346 0.0
N1421 N 0.32955 0.4535 0.86942 0.0
H1422 H 0.11107 0.47254 0.52877 0.0
H1423 H 0.14226 0.44063 0.31654 0.0
H1424 H 0.11646 0.49298 0.39075 0.0
H1425 H 0.16275 0.44589 0.45444 0.0
H1426 H 0.12729 0.45446 0.34337 0.0
H1427 H 0.12465 0.45731 0.502 0.0
C1428 C 0.11495 0.47369 0.49271 0.0
C1429 C 0.11265 0.48405 0.46191 0.0
C1430 C 0.13501 0.4525 0.36772 0.0
C1431 C 0.12796 0.46651 0.4311 0.0
C1432 C 0.14347 0.44453 0.3526 0.0
C1433 C 0.15378 0.44211 0.38334 0.0
C1434 C 0.13654 0.45774 0.41421 0.0
C1435 C 0.15498 0.44755 0.42958 0.0
C1436 C 0.12277 0.46508 0.47762 0.0
C1437 C 0.11804 0.48517 0.41566 0.0
N1438 N 0.14636 0.455 0.44373 0.0
N1439 N 0.12534 0.47641 0.40154 0.0
H1440 H 0.5219 0.62603 0.3889 0.0
H1441 H 0.56912 0.72124 0.4529 0.0
H1442 H 0.54267 0.6428 0.52586 0.0
H1443 H 0.57347 0.7045 0.31623 0.0
H1444 H 0.55576 0.6925 0.48068 0.0
H1445 H 0.53712 0.65478 0.36127 0.0
C1446 C 0.52969 0.63575 0.41309 0.0
C1447 C 0.53108 0.63202 0.45969 0.0
C1448 C 0.55974 0.69518 0.4447 0.0
C1449 C 0.54817 0.66488 0.42861 0.0
C1450 C 0.56731 0.71154 0.42881 0.0
C1451 C 0.57247 0.71527 0.38225 0.0
C1452 C 0.55691 0.68243 0.41348 0.0
C1453 C 0.5698 0.7022 0.3525 0.0
C1454 C 0.53839 0.65211 0.39729 0.0
C1455 C 0.54134 0.64511 0.48956 0.0
N1456 N 0.56203 0.68635 0.36844 0.0
N1457 N 0.54934 0.66097 0.47369 0.0
H1458 H 0.38493 0.87963 0.43651 0.0
H1459 H 0.30488 0.88417 0.37032 0.0
H1460 H 0.38005 0.92134 0.47852 0.0
H1461 H 0.30204 0.83823 0.40953 0.0
H1462 H 0.33388 0.89911 0.39608 0.0
H1463 H 0.35596 0.8653 0.41122 0.0
C1464 C 0.37782 0.88585 0.43993 0.0
C1465 C 0.3849 0.9017 0.45969 0.0
C1466 C 0.32684 0.88577 0.39916 0.0
C1467 C 0.35184 0.88543 0.43045 0.0
C1468 C 0.31034 0.87724 0.38445 0.0
C1469 C 0.30103 0.85994 0.38799 0.0
C1470 C 0.3342 0.87688 0.41624 0.0
C1471 C 0.30873 0.85158 0.40651 0.0
C1472 C 0.36128 0.87762 0.42583 0.0
C1473 C 0.37505 0.90911 0.46361 0.0
N1474 N 0.32492 0.8601 0.41942 0.0
N1475 N 0.35905 0.90097 0.44881 0.0
H1476 H 0.29617 0.14035 0.20371 0.0
H1477 H 0.38991 0.20562 0.13712 0.0
H1478 H 0.31223 0.19015 0.15769 0.0
H1479 H 0.37385 0.15581 0.18303 0.0
H1480 H 0.36158 0.20009 0.14384 0.0
H1481 H 0.3245 0.14588 0.19694 0.0
C1482 C 0.30566 0.15251 0.19237 0.0
C1483 C 0.30173 0.16481 0.1812 0.0
C1484 C 0.36421 0.19034 0.15235 0.0
C1485 C 0.33436 0.17118 0.17309 0.0
C1486 C 0.38042 0.19347 0.14842 0.0
C1487 C 0.38435 0.18116 0.15958 0.0
C1488 C 0.35172 0.17479 0.16764 0.0
C1489 C 0.37145 0.16567 0.17397 0.0
C1490 C 0.32187 0.15563 0.18842 0.0
C1491 C 0.31463 0.1803 0.16676 0.0
N1492 N 0.35574 0.16295 0.1777 0.0
N1493 N 0.33034 0.18301 0.16301 0.0
H1494 H 0.8616 0.2222 0.17811 0.0
H1495 H 0.82438 0.12389 0.1677 0.0
H1496 H 0.8105 0.18718 0.14728 0.0
H1497 H 0.87541 0.15887 0.19937 0.0
H1498 H 0.81898 0.1469 0.16088 0.0
H1499 H 0.86699 0.19918 0.18533 0.0
C1500 C 0.85154 0.20971 0.17253 0.0
C1501 C 0.83557 0.20668 0.16209 0.0
C1502 C 0.83135 0.14953 0.16947 0.0
C1503 C 0.84162 0.18021 0.17072 0.0
C1504 C 0.83442 0.13637 0.17356 0.0
C1505 C 0.85038 0.13939 0.18409 0.0
C1506 C 0.84431 0.16586 0.17589 0.0
C1507 C 0.86291 0.15589 0.19114 0.0
C1508 C 0.8546 0.19655 0.17686 0.0
C1509 C 0.82302 0.19017 0.15543 0.0
N1510 N 0.85962 0.16846 0.18679 0.0
N1511 N 0.8263 0.1776 0.15995 0.0
H1512 H 0.79355 0.64216 0.18245 0.0
H1513 H 0.89154 0.70378 0.16186 0.0
H1514 H 0.82804 0.62686 0.13811 0.0
H1515 H 0.85704 0.71912 0.20576 0.0
H1516 H 0.86847 0.67544 0.15374 0.0
H1517 H 0.81662 0.6705 0.19057 0.0
C1518 C 0.80593 0.64475 0.17411 0.0
C1519 C 0.8088 0.63205 0.1596 0.0
C1520 C 0.86596 0.68501 0.16528 0.0
C1521 C 0.83534 0.66449 0.16922 0.0
C1522 C 0.87916 0.7012 0.1701 0.0
C1523 C 0.87628 0.71391 0.18449 0.0
C1524 C 0.84974 0.68148 0.17486 0.0
C1525 C 0.85991 0.70978 0.1945 0.0
C1526 C 0.81912 0.66094 0.17893 0.0
C1527 C 0.82517 0.6362 0.14946 0.0
N1528 N 0.8473 0.69397 0.18941 0.0
N1529 N 0.83778 0.652 0.15456 0.0
H1530 H 0.20799 0.38568 0.37434 0.0
H1531 H 0.14396 0.29252 0.29879 0.0
H1532 H 0.15848 0.36968 0.32583 0.0
H1533 H 0.19344 0.30847 0.34755 0.0
H1534 H 0.14918 0.32068 0.30774 0.0
H1535 H 0.20279 0.35751 0.36541 0.0
C1536 C 0.19596 0.37623 0.36204 0.0
C1537 C 0.18365 0.38013 0.35077 0.0
C1538 C 0.15892 0.31806 0.31638 0.0
C1539 C 0.17767 0.3477 0.34011 0.0
C1540 C 0.15599 0.30195 0.31115 0.0
C1541 C 0.16828 0.29804 0.32248 0.0
C1542 C 0.17428 0.33047 0.33316 0.0
C1543 C 0.18359 0.31086 0.3383 0.0
C1544 C 0.19303 0.36012 0.35683 0.0
C1545 C 0.16833 0.36729 0.33503 0.0
N1546 N 0.18613 0.32647 0.34329 0.0
N1547 N 0.1658 0.35169 0.33004 0.0
H1548 H 0.62972 0.82562 0.3653 0.0
H1549 H 0.72349 0.85332 0.30159 0.0
H1550 H 0.64546 0.7913 0.32259 0.0
H1551 H 0.70699 0.88754 0.33858 0.0
H1552 H 0.6951 0.83053 0.30852 0.0
H1553 H 0.658 0.84829 0.35653 0.0
C1554 C 0.63913 0.8228 0.35427 0.0
C1555 C 0.63513 0.80645 0.34466 0.0
C1556 C 0.69766 0.84302 0.31494 0.0
C1557 C 0.66772 0.83257 0.33424 0.0
C1558 C 0.7139 0.85609 0.31088 0.0
C1559 C 0.71771 0.87244 0.3196 0.0
C1560 C 0.68506 0.84624 0.328 0.0
C1561 C 0.70469 0.87518 0.33146 0.0
C1562 C 0.65531 0.83582 0.34912 0.0
C1563 C 0.64793 0.80367 0.33048 0.0
N1564 N 0.68899 0.86222 0.3355 0.0
N1565 N 0.66363 0.81659 0.32564 0.0
H1566 H 0.22469 0.85769 0.34072 0.0
H1567 H 0.12647 0.82059 0.35539 0.0
H1568 H 0.19001 0.80678 0.37472 0.0
H1569 H 0.16129 0.87096 0.31657 0.0
H1570 H 0.14953 0.81528 0.36369 0.0
H1571 H 0.20161 0.86296 0.33421 0.0
C1572 C 0.21226 0.84765 0.34719 0.0
C1573 C 0.20934 0.83176 0.35821 0.0
C1574 C 0.1521 0.82748 0.35326 0.0
C1575 C 0.18277 0.83767 0.3504 0.0
C1576 C 0.13892 0.8305 0.34835 0.0
C1577 C 0.14189 0.84624 0.33524 0.0
C1578 C 0.16838 0.8403 0.34509 0.0
C1579 C 0.15833 0.85862 0.32676 0.0
C1580 C 0.19905 0.85064 0.34326 0.0
C1581 C 0.1929 0.81923 0.36605 0.0
N1582 N 0.17091 0.85539 0.33191 0.0
N1583 N 0.18027 0.82244 0.36187 0.0
H1584 H 0.70635 0.8208 0.85462 0.0
H1585 H 0.64531 0.85799 0.83978 0.0
H1586 H 0.72191 0.8711 0.81487 0.0
H1587 H 0.62905 0.80709 0.87391 0.0
H1588 H 0.67365 0.86322 0.83319 0.0
H1589 H 0.67801 0.81555 0.86311 0.0
C1590 C 0.70382 0.83071 0.84742 0.0
C1591 C 0.71659 0.84641 0.83399 0.0
C1592 C 0.66388 0.85092 0.84229 0.0
C1593 C 0.68418 0.84053 0.84405 0.0
C1594 C 0.64769 0.84794 0.84626 0.0
C1595 C 0.63471 0.83207 0.85734 0.0
C1596 C 0.66718 0.83794 0.84944 0.0
C1597 C 0.6386 0.81953 0.8652 0.0
C1598 C 0.68764 0.82772 0.85242 0.0
C1599 C 0.71253 0.85879 0.8253 0.0
N1600 N 0.65444 0.82272 0.86097 0.0
N1601 N 0.69674 0.85559 0.83057 0.0
H1602 H 0.2081 0.82527 0.86735 0.0
H1603 H 0.14236 0.85337 0.80316 0.0
H1604 H 0.15802 0.79114 0.82444 0.0
H1605 H 0.19296 0.8874 0.84187 0.0
H1606 H 0.14787 0.83052 0.80995 0.0
H1607 H 0.2026 0.84802 0.85879 0.0
C1608 C 0.19589 0.82251 0.85632 0.0
C1609 C 0.1835 0.80618 0.84659 0.0
C1610 C 0.15779 0.84298 0.81678 0.0
C1611 C 0.17715 0.8324 0.83641 0.0
C1612 C 0.15468 0.85609 0.8128 0.0
C1613 C 0.16721 0.8724 0.82204 0.0
C1614 C 0.17355 0.84612 0.83027 0.0
C1615 C 0.18291 0.87507 0.83434 0.0
C1616 C 0.19278 0.83557 0.8513 0.0
C1617 C 0.16794 0.80348 0.83242 0.0
N1618 N 0.1856 0.86207 0.83828 0.0
N1619 N 0.16523 0.81645 0.82769 0.0
H1620 H 0.19025 0.38585 0.87451 0.0
H1621 H 0.16158 0.29278 0.79905 0.0
H1622 H 0.22395 0.37013 0.82571 0.0
H1623 H 0.12788 0.30852 0.84777 0.0
H1624 H 0.18444 0.321 0.80795 0.0
H1625 H 0.1674 0.35762 0.86566 0.0
C1626 C 0.1929 0.37645 0.86216 0.0
C1627 C 0.20913 0.38045 0.85078 0.0
C1628 C 0.17206 0.31832 0.81658 0.0
C1629 C 0.18281 0.34795 0.84023 0.0
C1630 C 0.15893 0.30218 0.81139 0.0
C1631 C 0.1427 0.29819 0.82272 0.0
C1632 C 0.16903 0.33068 0.83333 0.0
C1633 C 0.14014 0.31098 0.83852 0.0
C1634 C 0.17978 0.36031 0.857 0.0
C1635 C 0.2117 0.36767 0.83499 0.0
N1636 N 0.15316 0.32662 0.84348 0.0
N1637 N 0.19868 0.35202 0.83006 0.0
H1638 H 0.8243 0.70366 0.66103 0.0
H1639 H 0.86092 0.64226 0.68248 0.0
H1640 H 0.87406 0.71909 0.70606 0.0
H1641 H 0.81115 0.62682 0.63761 0.0
H1642 H 0.86609 0.67057 0.69056 0.0
H1643 H 0.81915 0.67536 0.6529 0.0
C1644 C 0.8341 0.7011 0.66952 0.0
C1645 C 0.84964 0.71384 0.68423 0.0
C1646 C 0.85405 0.66098 0.67882 0.0
C1647 C 0.84387 0.68144 0.67459 0.0
C1648 C 0.85112 0.64482 0.67401 0.0
C1649 C 0.83557 0.63208 0.65938 0.0
C1650 C 0.84135 0.66448 0.66896 0.0
C1651 C 0.82333 0.63618 0.64907 0.0
C1652 C 0.83118 0.68494 0.66469 0.0
C1653 C 0.86188 0.70974 0.69456 0.0
N1654 N 0.82646 0.65197 0.65416 0.0
N1655 N 0.85875 0.69395 0.68944 0.0
H1656 H 0.29596 0.15879 0.70258 0.0
H1657 H 0.38992 0.18693 0.63941 0.0
H1658 H 0.31257 0.12459 0.6663 0.0
H1659 H 0.37332 0.2211 0.67597 0.0
H1660 H 0.36169 0.16406 0.64829 0.0
H1661 H 0.3242 0.18165 0.69378 0.0
C1662 C 0.30556 0.15604 0.69305 0.0
C1663 C 0.30181 0.13967 0.68513 0.0
C1664 C 0.36419 0.17655 0.65424 0.0
C1665 C 0.33431 0.16598 0.67458 0.0
C1666 C 0.38033 0.18967 0.64902 0.0
C1667 C 0.38407 0.20604 0.65698 0.0
C1668 C 0.35158 0.17972 0.66763 0.0
C1669 C 0.37106 0.20873 0.66938 0.0
C1670 C 0.32171 0.16916 0.68787 0.0
C1671 C 0.31484 0.13697 0.67285 0.0
N1672 N 0.35543 0.19572 0.67445 0.0
N1673 N 0.33047 0.14998 0.66781 0.0
H1674 H 0.85729 0.1408 0.69673 0.0
H1675 H 0.82917 0.20702 0.63934 0.0
H1676 H 0.89138 0.19122 0.65652 0.0
H1677 H 0.79512 0.1561 0.67486 0.0
H1678 H 0.85202 0.20147 0.64498 0.0
H1679 H 0.83452 0.14635 0.68971 0.0
C1680 C 0.86004 0.15309 0.6866 0.0
C1681 C 0.87636 0.16557 0.67718 0.0
C1682 C 0.83955 0.19149 0.65138 0.0
C1683 C 0.85013 0.17197 0.6688 0.0
C1684 C 0.82645 0.19462 0.64807 0.0
C1685 C 0.81013 0.182 0.65672 0.0
C1686 C 0.8364 0.17562 0.66359 0.0
C1687 C 0.80745 0.1662 0.66784 0.0
C1688 C 0.84697 0.15623 0.68247 0.0
C1689 C 0.87904 0.18123 0.66421 0.0
N1690 N 0.82045 0.16349 0.67112 0.0
N1691 N 0.86607 0.18397 0.66034 0.0
H1692 H 0.03998 0.48782 0.51419 0.0
H1693 H 0.97863 0.52446 0.49172 0.0
H1694 H 0.05566 0.53786 0.4714 0.0
H1695 H 0.963 0.47441 0.53429 0.0
H1696 H 1.00699 0.5297 0.48458 0.0
H1697 H 0.01162 0.48257 0.52094 0.0
C1698 C 0.03747 0.49767 0.50591 0.0
C1699 C 0.05029 0.51331 0.49225 0.0
C1700 C 0.99735 0.51758 0.49559 0.0
C1701 C 0.01782 0.50743 0.50028 0.0
C1702 C 0.98115 0.5146 0.49984 0.0
C1703 C 0.96835 0.49897 0.5136 0.0
C1704 C 1.00081 0.50484 0.50514 0.0
C1705 C 0.97241 0.48666 0.5235 0.0
C1706 C 0.02127 0.49469 0.50994 0.0
C1707 C 0.04624 0.5256 0.48213 0.0
N1708 N 0.98823 0.48985 0.519 0.0
N1709 N 0.03042 0.52242 0.48646 0.0
H1710 H 0.5286 0.55627 0.51743 0.0
H1711 H 0.49163 0.45806 0.50249 0.0
H1712 H 0.47853 0.52152 0.47583 0.0
H1713 H 0.54237 0.49276 0.53808 0.0
H1714 H 0.48639 0.48115 0.49515 0.0
H1715 H 0.53387 0.53321 0.52625 0.0
C1716 C 0.51875 0.54384 0.50986 0.0
C1717 C 0.50309 0.54089 0.49585 0.0
C1718 C 0.49866 0.4837 0.50472 0.0
C1719 C 0.509 0.51438 0.50632 0.0
C1720 C 0.50164 0.4705 0.50914 0.0
C1721 C 0.51748 0.47342 0.52085 0.0
C1722 C 0.5116 0.49999 0.51208 0.0
C1723 C 0.52997 0.48986 0.52888 0.0
C1724 C 0.52174 0.53066 0.51507 0.0
C1725 C 0.4908 0.52446 0.48672 0.0
N1726 N 0.52677 0.50249 0.52424 0.0
N1727 N 0.494 0.51188 0.49222 0.0
H1728 H 0.5236 0.05405 0.53796 0.0
H1729 H 0.49561 0.95978 0.4796 0.0
H1730 H 0.55781 0.03733 0.50312 0.0
H1731 H 0.46134 0.97646 0.51426 0.0
H1732 H 0.51843 0.98807 0.48754 0.0
H1733 H 0.50076 0.02574 0.53042 0.0
C1734 C 0.52636 0.04442 0.529 0.0
C1735 C 0.54273 0.04815 0.52112 0.0
C1736 C 0.50593 0.98558 0.4933 0.0
C1737 C 0.51645 0.01556 0.51203 0.0
C1738 C 0.49284 0.96939 0.48863 0.0
C1739 C 0.47645 0.96566 0.49631 0.0
C1740 C 0.50272 0.99823 0.50583 0.0
C1741 C 0.47373 0.97871 0.50792 0.0
C1742 C 0.51326 0.02823 0.52456 0.0
C1743 C 0.54544 0.03508 0.50961 0.0
N1744 N 0.48672 0.99439 0.51245 0.0
N1745 N 0.53244 0.0194 0.50527 0.0
H1746 H 0.54161 0.0535 0.03309 0.0
H1747 H 0.47561 0.9593 0.97342 0.0
H1748 H 0.49139 0.03731 0.99112 0.0
H1749 H 0.52643 0.9761 0.00991 0.0
H1750 H 0.48113 0.98767 0.97936 0.0
H1751 H 0.53608 0.0252 0.02572 0.0
C1752 C 0.52936 0.04399 0.02251 0.0
C1753 C 0.51694 0.04787 0.01269 0.0
C1754 C 0.4911 0.98519 0.9859 0.0
C1755 C 0.51056 0.01525 1.00391 0.0
C1756 C 0.48798 0.96896 0.98243 0.0
C1757 C 0.50057 0.96523 0.99126 0.0
C1758 C 0.50693 0.99789 0.99847 0.0
C1759 C 0.51634 0.97834 1.00272 0.0
C1760 C 0.52624 0.02779 0.01817 0.0
C1761 C 0.50134 0.03494 0.99914 0.0
N1762 N 0.51904 0.99405 0.00617 0.0
N1763 N 0.49861 0.01923 0.99508 0.0
H1764 H 0.96218 0.49265 0.04192 0.0
H1765 H 0.05583 0.52108 0.97423 0.0
H1766 H 0.97876 0.45874 1.00204 0.0
H1767 H 0.03993 0.55503 0.01945 0.0
H1768 H 0.02762 0.49826 0.98319 0.0
H1769 H 0.99047 0.51556 0.03431 0.0
C1770 C 0.97178 0.48997 0.03185 0.0
C1771 C 0.96801 0.47367 0.02254 0.0
C1772 C 0.03026 0.51069 0.99109 0.0
C1773 C 1.00055 0.50002 0.01335 0.0
C1774 C 0.0464 0.52379 0.98583 0.0
C1775 C 0.05034 0.54008 0.99612 0.0
C1776 C 0.01784 0.51379 0.00678 0.0
C1777 C 0.03751 0.54271 0.01102 0.0
C1778 C 0.98795 0.50312 0.02739 0.0
C1779 C 0.98103 0.47105 0.00966 0.0
N1780 N 0.02186 0.52971 0.01598 0.0
N1781 N 0.99668 0.48409 0.00526 0.0
H1782 H 0.55843 0.52473 0.9909 0.0
H1783 H 0.46044 0.48823 0.01249 0.0
H1784 H 0.5239 0.47467 0.03311 0.0
H1785 H 0.49492 0.53831 0.9703 0.0
H1786 H 0.48351 0.48292 0.01939 0.0
H1787 H 0.53536 0.53004 0.98364 0.0
C1788 C 0.54604 0.51489 0.99892 0.0
C1789 C 0.54315 0.49923 0.01261 0.0
C1790 C 0.48601 0.49506 0.00849 0.0
C1791 C 0.51662 0.50517 1.004 0.0
C1792 C 0.47282 0.49808 1.00437 0.0
C1793 C 0.47569 0.51375 0.99084 0.0
C1794 C 0.50223 0.5078 0.99904 0.0
C1795 C 0.49206 0.52604 0.98093 0.0
C1796 C 0.53285 0.5179 0.9946 0.0
C1797 C 0.52678 0.48694 0.02238 0.0
N1798 N 0.50467 0.52281 0.98533 0.0
N1799 N 0.51417 0.49016 0.0178 0.0
loop_
_geom_bond_atom_site_label_1
_geom_bond_atom_site_label_2
_geom_bond_distance
_geom_bond_site_symmetry_2
_ccdc_geom_bond_type
O0 Cd1 2.223 . S
O0 C8 1.315 . S
Cd1 O0 2.223 . S
Cd1 O4 2.297 . S
Cd1 O5 2.439 . S
Cd1 O11 2.240 . S
Cd2 O3 2.240 . S
Cd2 O10 2.223 . S
Cd2 O12 2.297 . S
Cd2 O13 2.439 . S
O3 Cd2 2.240 . S
O3 C8 1.279 . S
O4 Cd1 2.297 . S
O4 C6 1.247 . S
O5 Cd1 2.439 . S
O5 C6 1.208 . S
C6 O4 1.247 . S
C6 O5 1.208 . S
C7 O12 1.247 . S
C7 O13 1.208 . S
C8 O0 1.315 . S
C8 O3 1.279 . S
C9 O10 1.315 . S
C9 O11 1.279 . S
O10 Cd2 2.223 . S
O10 C9 1.315 . S
O11 Cd1 2.240 . S
O11 C9 1.279 . S
O12 Cd2 2.297 . S
O12 C7 1.247 . S
O13 Cd2 2.439 . S
O13 C7 1.208 . S
O14 Cd15 2.223 . S
O14 C22 1.315 . S
Cd15 O14 2.223 . S
Cd15 O18 2.297 . S
Cd15 O19 2.439 . S
Cd15 O25 2.240 . S
Cd16 O17 2.240 . S
Cd16 O24 2.223 . S
Cd16 O26 2.297 . S
Cd16 O27 2.439 . S
O17 Cd16 2.240 . S
O17 C22 1.279 . S
O18 Cd15 2.297 . S
O18 C20 1.247 . S
O19 Cd15 2.439 . S
O19 C20 1.208 . S
C20 O18 1.247 . S
C20 O19 1.208 . S
C21 O26 1.247 . S
C21 O27 1.208 . S
C22 O14 1.315 . S
C22 O17 1.279 . S
C23 O24 1.315 . S
C23 O25 1.279 . S
O24 Cd16 2.223 . S
O24 C23 1.315 . S
O25 Cd15 2.240 . S
O25 C23 1.279 . S
O26 Cd16 2.297 . S
O26 C21 1.247 . S
O27 Cd16 2.439 . S
O27 C21 1.208 . S
O28 Cd29 2.223 . S
O28 C36 1.315 . S
Cd29 O28 2.223 . S
Cd29 O32 2.297 . S
Cd29 O33 2.439 . S
Cd29 O39 2.240 . S
Cd30 O31 2.240 . S
Cd30 O38 2.223 . S
Cd30 O40 2.297 . S
Cd30 O41 2.439 . S
O31 Cd30 2.240 . S
O31 C36 1.279 . S
O32 Cd29 2.297 . S
O32 C34 1.247 . S
O33 Cd29 2.439 . S
O33 C34 1.208 . S
C34 O32 1.247 . S
C34 O33 1.208 . S
C35 O40 1.247 . S
C35 O41 1.208 . S
C36 O28 1.315 . S
C36 O31 1.279 . S
C37 O38 1.315 . S
C37 O39 1.279 . S
O38 Cd30 2.223 . S
O38 C37 1.315 . S
O39 Cd29 2.240 . S
O39 C37 1.279 . S
O40 Cd30 2.297 . S
O40 C35 1.247 . S
O41 Cd30 2.439 . S
O41 C35 1.208 . S
O42 Cd43 2.223 . S
O42 C50 1.315 . S
Cd43 O42 2.223 . S
Cd43 O46 2.297 . S
Cd43 O47 2.439 . S
Cd43 O53 2.240 . S
Cd44 O45 2.240 . S
Cd44 O52 2.223 . S
Cd44 O54 2.297 . S
Cd44 O55 2.439 . S
O45 Cd44 2.240 . S
O45 C50 1.279 . S
O46 Cd43 2.297 . S
O46 C48 1.247 . S
O47 Cd43 2.439 . S
O47 C48 1.208 . S
C48 O46 1.247 . S
C48 O47 1.208 . S
C49 O54 1.247 . S
C49 O55 1.208 . S
C50 O42 1.315 . S
C50 O45 1.279 . S
C51 O52 1.315 . S
C51 O53 1.279 . S
O52 Cd44 2.223 . S
O52 C51 1.315 . S
O53 Cd43 2.240 . S
O53 C51 1.279 . S
O54 Cd44 2.297 . S
O54 C49 1.247 . S
O55 Cd44 2.439 . S
O55 C49 1.208 . S
O56 Cd57 2.223 . S
O56 C64 1.315 . S
Cd57 O56 2.223 . S
Cd57 O60 2.297 . S
Cd57 O61 2.439 . S
Cd57 O67 2.240 . S
Cd58 O59 2.240 . S
Cd58 O66 2.223 . S
Cd58 O68 2.297 . S
Cd58 O69 2.439 . S
O59 Cd58 2.240 . S
O59 C64 1.279 . S
O60 Cd57 2.297 . S
O60 C62 1.247 . S
O61 Cd57 2.439 . S
O61 C62 1.208 . S
C62 O60 1.247 . S
C62 O61 1.208 . S
C63 O68 1.247 . S
C63 O69 1.208 . S
C64 O56 1.315 . S
C64 O59 1.279 . S
C65 O66 1.315 . S
C65 O67 1.279 . S
O66 Cd58 2.223 . S
O66 C65 1.315 . S
O67 Cd57 2.240 . S
O67 C65 1.279 . S
O68 Cd58 2.297 . S
O68 C63 1.247 . S
O69 Cd58 2.439 . S
O69 C63 1.208 . S
O70 Cd71 2.223 . S
O70 C78 1.315 . S
Cd71 O70 2.223 . S
Cd71 O74 2.297 . S
Cd71 O75 2.439 . S
Cd71 O81 2.240 . S
Cd72 O73 2.240 . S
Cd72 O80 2.223 . S
Cd72 O82 2.297 . S
Cd72 O83 2.439 . S
O73 Cd72 2.240 . S
O73 C78 1.279 . S
O74 Cd71 2.297 . S
O74 C76 1.247 . S
O75 Cd71 2.439 . S
O75 C76 1.208 . S
C76 O74 1.247 . S
C76 O75 1.208 . S
C77 O82 1.247 . S
C77 O83 1.208 . S
C78 O70 1.315 . S
C78 O73 1.279 . S
C79 O80 1.315 . S
C79 O81 1.279 . S
O80 Cd72 2.223 . S
O80 C79 1.315 . S
O81 Cd71 2.240 . S
O81 C79 1.279 . S
O82 Cd72 2.297 . S
O82 C77 1.247 . S
O83 Cd72 2.439 . S
O83 C77 1.208 . S
O84 Cd85 2.223 . S
O84 C92 1.315 . S
Cd85 O84 2.223 . S
Cd85 O88 2.297 . S
Cd85 O89 2.439 . S
Cd85 O95 2.240 . S
Cd86 O87 2.240 . S
Cd86 O94 2.223 . S
Cd86 O96 2.297 . S
Cd86 O97 2.439 . S
O87 Cd86 2.240 . S
O87 C92 1.279 . S
O88 Cd85 2.297 . S
O88 C90 1.247 . S
O89 Cd85 2.439 . S
O89 C90 1.208 . S
C90 O88 1.247 . S
C90 O89 1.208 . S
C91 O96 1.247 . S
C91 O97 1.208 . S
C92 O84 1.315 . S
C92 O87 1.279 . S
C93 O94 1.315 . S
C93 O95 1.279 . S
O94 Cd86 2.223 . S
O94 C93 1.315 . S
O95 Cd85 2.240 . S
O95 C93 1.279 . S
O96 Cd86 2.297 . S
O96 C91 1.247 . S
O97 Cd86 2.439 . S
O97 C91 1.208 . S
O98 Cd99 2.223 . S
O98 C106 1.315 . S
Cd99 O98 2.223 . S
Cd99 O102 2.297 . S
Cd99 O103 2.439 . S
Cd99 O109 2.240 . S
Cd100 O101 2.240 . S
Cd100 O108 2.223 . S
Cd100 O110 2.297 . S
Cd100 O111 2.439 . S
O101 Cd100 2.240 . S
O101 C106 1.279 . S
O102 Cd99 2.297 . S
O102 C104 1.247 . S
O103 Cd99 2.439 . S
O103 C104 1.208 . S
C104 O102 1.247 . S
C104 O103 1.208 . S
C105 O110 1.247 . S
C105 O111 1.208 . S
C106 O98 1.315 . S
C106 O101 1.279 . S
C107 O108 1.315 . S
C107 O109 1.279 . S
O108 Cd100 2.223 . S
O108 C107 1.315 . S
O109 Cd99 2.240 . S
O109 C107 1.279 . S
O110 Cd100 2.297 . S
O110 C105 1.247 . S
O111 Cd100 2.439 . S
O111 C105 1.208 . S
O112 Cd113 2.223 . S
O112 C120 1.315 . S
Cd113 O112 2.223 . S
Cd113 O116 2.297 . S
Cd113 O117 2.439 . S
Cd113 O123 2.240 . S
Cd114 O115 2.240 . S
Cd114 O122 2.223 . S
Cd114 O124 2.297 . S
Cd114 O125 2.439 . S
O115 Cd114 2.240 . S
O115 C120 1.279 . S
O116 Cd113 2.297 . S
O116 C118 1.247 . S
O117 Cd113 2.439 . S
O117 C118 1.208 . S
C118 O116 1.247 . S
C118 O117 1.208 . S
C119 O124 1.247 . S
C119 O125 1.208 . S
C120 O112 1.315 . S
C120 O115 1.279 . S
C121 O122 1.315 . S
C121 O123 1.279 . S
O122 Cd114 2.223 . S
O122 C121 1.315 . S
O123 Cd113 2.240 . S
O123 C121 1.279 . S
O124 Cd114 2.297 . S
O124 C119 1.247 . S
O125 Cd114 2.439 . S
O125 C119 1.208 . S
O126 Cd127 2.223 . S
O126 C134 1.315 . S
Cd127 O126 2.223 . S
Cd127 O130 2.297 . S
Cd127 O131 2.439 . S
Cd127 O137 2.240 . S
Cd128 O129 2.240 . S
Cd128 O136 2.223 . S
Cd128 O138 2.297 . S
Cd128 O139 2.439 . S
O129 Cd128 2.240 . S
O129 C134 1.279 . S
O130 Cd127 2.297 . S
O130 C132 1.247 . S
O131 Cd127 2.439 . S
O131 C132 1.208 . S
C132 O130 1.247 . S
C132 O131 1.208 . S
C133 O138 1.247 . S
C133 O139 1.208 . S
C134 O126 1.315 . S
C134 O129 1.279 . S
C135 O136 1.315 . S
C135 O137 1.279 . S
O136 Cd128 2.223 . S
O136 C135 1.315 . S
O137 Cd127 2.240 . S
O137 C135 1.279 . S
O138 Cd128 2.297 . S
O138 C133 1.247 . S
O139 Cd128 2.439 . S
O139 C133 1.208 . S
O140 Cd141 2.223 . S
O140 C148 1.315 . S
Cd141 O140 2.223 . S
Cd141 O144 2.297 . S
Cd141 O145 2.439 . S
Cd141 O151 2.240 . S
Cd142 O143 2.240 . S
Cd142 O150 2.223 . S
Cd142 O152 2.297 . S
Cd142 O153 2.439 . S
O143 Cd142 2.240 . S
O143 C148 1.279 . S
O144 Cd141 2.297 . S
O144 C146 1.247 . S
O145 Cd141 2.439 . S
O145 C146 1.208 . S
C146 O144 1.247 . S
C146 O145 1.208 . S
C147 O152 1.247 . S
C147 O153 1.208 . S
C148 O140 1.315 . S
C148 O143 1.279 . S
C149 O150 1.315 . S
C149 O151 1.279 . S
O150 Cd142 2.223 . S
O150 C149 1.315 . S
O151 Cd141 2.240 . S
O151 C149 1.279 . S
O152 Cd142 2.297 . S
O152 C147 1.247 . S
O153 Cd142 2.439 . S
O153 C147 1.208 . S
O154 Cd155 2.223 . S
O154 C162 1.315 . S
Cd155 O154 2.223 . S
Cd155 O158 2.297 . S
Cd155 O159 2.439 . S
Cd155 O165 2.240 . S
Cd156 O157 2.240 . S
Cd156 O164 2.223 . S
Cd156 O166 2.297 . S
Cd156 O167 2.439 . S
O157 Cd156 2.240 . S
O157 C162 1.279 . S
O158 Cd155 2.297 . S
O158 C160 1.247 . S
O159 Cd155 2.439 . S
O159 C160 1.208 . S
C160 O158 1.247 . S
C160 O159 1.208 . S
C161 O166 1.247 . S
C161 O167 1.208 . S
C162 O154 1.315 . S
C162 O157 1.279 . S
C163 O164 1.315 . S
C163 O165 1.279 . S
O164 Cd156 2.223 . S
O164 C163 1.315 . S
O165 Cd155 2.240 . S
O165 C163 1.279 . S
O166 Cd156 2.297 . S
O166 C161 1.247 . S
O167 Cd156 2.439 . S
O167 C161 1.208 . S
O168 Cd169 2.223 . S
O168 C176 1.315 . S
Cd169 O168 2.223 . S
Cd169 O172 2.297 . S
Cd169 O173 2.439 . S
Cd169 O179 2.240 . S
Cd170 O171 2.240 . S
Cd170 O178 2.223 . S
Cd170 O180 2.297 . S
Cd170 O181 2.439 . S
O171 Cd170 2.240 . S
O171 C176 1.279 . S
O172 Cd169 2.297 . S
O172 C174 1.247 . S
O173 Cd169 2.439 . S
O173 C174 1.208 . S
C174 O172 1.247 . S
C174 O173 1.208 . S
C175 O180 1.247 . S
C175 O181 1.208 . S
C176 O168 1.315 . S
C176 O171 1.279 . S
C177 O178 1.315 . S
C177 O179 1.279 . S
O178 Cd170 2.223 . S
O178 C177 1.315 . S
O179 Cd169 2.240 . S
O179 C177 1.279 . S
O180 Cd170 2.297 . S
O180 C175 1.247 . S
O181 Cd170 2.439 . S
O181 C175 1.208 . S
O182 Cd183 2.223 . S
O182 C190 1.315 . S
Cd183 O182 2.223 . S
Cd183 O186 2.297 . S
Cd183 O187 2.439 . S
Cd183 O193 2.240 . S
Cd184 O185 2.240 . S
Cd184 O192 2.223 . S
Cd184 O194 2.297 . S
Cd184 O195 2.439 . S
O185 Cd184 2.240 . S
O185 C190 1.279 . S
O186 Cd183 2.297 . S
O186 C188 1.247 . S
O187 Cd183 2.439 . S
O187 C188 1.208 . S
C188 O186 1.247 . S
C188 O187 1.208 . S
C189 O194 1.247 . S
C189 O195 1.208 . S
C190 O182 1.315 . S
C190 O185 1.279 . S
C191 O192 1.315 . S
C191 O193 1.279 . S
O192 Cd184 2.223 . S
O192 C191 1.315 . S
O193 Cd183 2.240 . S
O193 C191 1.279 . S
O194 Cd184 2.297 . S
O194 C189 1.247 . S
O195 Cd184 2.439 . S
O195 C189 1.208 . S
O196 Cd197 2.223 . S
O196 C204 1.315 . S
Cd197 O196 2.223 . S
Cd197 O200 2.297 . S
Cd197 O201 2.439 . S
Cd197 O207 2.240 . S
Cd198 O199 2.240 . S
Cd198 O206 2.223 . S
Cd198 O208 2.297 . S
Cd198 O209 2.439 . S
O199 Cd198 2.240 . S
O199 C204 1.279 . S
O200 Cd197 2.297 . S
O200 C202 1.247 . S
O201 Cd197 2.439 . S
O201 C202 1.208 . S
C202 O200 1.247 . S
C202 O201 1.208 . S
C203 O208 1.247 . S
C203 O209 1.208 . S
C204 O196 1.315 . S
C204 O199 1.279 . S
C205 O206 1.315 . S
C205 O207 1.279 . S
O206 Cd198 2.223 . S
O206 C205 1.315 . S
O207 Cd197 2.240 . S
O207 C205 1.279 . S
O208 Cd198 2.297 . S
O208 C203 1.247 . S
O209 Cd198 2.439 . S
O209 C203 1.208 . S
O210 Cd211 2.223 . S
O210 C218 1.315 . S
Cd211 O210 2.223 . S
Cd211 O214 2.297 . S
Cd211 O215 2.439 . S
Cd211 O221 2.240 . S
Cd212 O213 2.240 . S
Cd212 O220 2.223 . S
Cd212 O222 2.297 . S
Cd212 O223 2.439 . S
O213 Cd212 2.240 . S
O213 C218 1.279 . S
O214 Cd211 2.297 . S
O214 C216 1.247 . S
O215 Cd211 2.439 . S
O215 C216 1.208 . S
C216 O214 1.247 . S
C216 O215 1.208 . S
C217 O222 1.247 . S
C217 O223 1.208 . S
C218 O210 1.315 . S
C218 O213 1.279 . S
C219 O220 1.315 . S
C219 O221 1.279 . S
O220 Cd212 2.223 . S
O220 C219 1.315 . S
O221 Cd211 2.240 . S
O221 C219 1.279 . S
O222 Cd212 2.297 . S
O222 C217 1.247 . S
O223 Cd212 2.439 . S
O223 C217 1.208 . S
O224 Cd225 2.223 . S
O224 C232 1.315 . S
Cd225 O224 2.223 . S
Cd225 O228 2.297 . S
Cd225 O229 2.439 . S
Cd225 O235 2.240 . S
Cd226 O227 2.240 . S
Cd226 O234 2.223 . S
Cd226 O236 2.297 . S
Cd226 O237 2.439 . S
O227 Cd226 2.240 . S
O227 C232 1.279 . S
O228 Cd225 2.297 . S
O228 C230 1.247 . S
O229 Cd225 2.439 . S
O229 C230 1.208 . S
C230 O228 1.247 . S
C230 O229 1.208 . S
C231 O236 1.247 . S
C231 O237 1.208 . S
C232 O224 1.315 . S
C232 O227 1.279 . S
C233 O234 1.315 . S
C233 O235 1.279 . S
O234 Cd226 2.223 . S
O234 C233 1.315 . S
O235 Cd225 2.240 . S
O235 C233 1.279 . S
O236 Cd226 2.297 . S
O236 C231 1.247 . S
O237 Cd226 2.439 . S
O237 C231 1.208 . S
O238 Cd239 2.223 . S
O238 C246 1.315 . S
Cd239 O238 2.223 . S
Cd239 O242 2.297 . S
Cd239 O243 2.439 . S
Cd239 O249 2.240 . S
Cd240 O241 2.240 . S
Cd240 O248 2.223 . S
Cd240 O250 2.297 . S
Cd240 O251 2.439 . S
O241 Cd240 2.240 . S
O241 C246 1.279 . S
O242 Cd239 2.297 . S
O242 C244 1.247 . S
O243 Cd239 2.439 . S
O243 C244 1.208 . S
C244 O242 1.247 . S
C244 O243 1.208 . S
C245 O250 1.247 . S
C245 O251 1.208 . S
C246 O238 1.315 . S
C246 O241 1.279 . S
C247 O248 1.315 . S
C247 O249 1.279 . S
O248 Cd240 2.223 . S
O248 C247 1.315 . S
O249 Cd239 2.240 . S
O249 C247 1.279 . S
O250 Cd240 2.297 . S
O250 C245 1.247 . S
O251 Cd240 2.439 . S
O251 C245 1.208 . S
O252 Cd253 2.223 . S
O252 C260 1.315 . S
Cd253 O252 2.223 . S
Cd253 O256 2.297 . S
Cd253 O257 2.439 . S
Cd253 O263 2.240 . S
Cd254 O255 2.240 . S
Cd254 O262 2.223 . S
Cd254 O264 2.297 . S
Cd254 O265 2.439 . S
O255 Cd254 2.240 . S
O255 C260 1.279 . S
O256 Cd253 2.297 . S
O256 C258 1.247 . S
O257 Cd253 2.439 . S
O257 C258 1.208 . S
C258 O256 1.247 . S
C258 O257 1.208 . S
C259 O264 1.247 1_556 S
C259 O265 1.208 1_556 S
C260 O252 1.315 . S
C260 O255 1.279 . S
C261 O262 1.315 . S
C261 O263 1.279 . S
O262 Cd254 2.223 . S
O262 C261 1.315 . S
O263 Cd253 2.240 . S
O263 C261 1.279 . S
O264 Cd254 2.297 . S
O264 C259 1.247 1_554 S
O265 Cd254 2.439 . S
O265 C259 1.208 1_554 S
O266 Cd267 2.223 . S
O266 C274 1.315 . S
Cd267 O266 2.223 . S
Cd267 O270 2.297 . S
Cd267 O271 2.439 . S
Cd267 O277 2.240 . S
Cd268 O269 2.240 . S
Cd268 O276 2.223 . S
Cd268 O278 2.297 . S
Cd268 O279 2.439 . S
O269 Cd268 2.240 . S
O269 C274 1.279 . S
O270 Cd267 2.297 . S
O270 C272 1.247 . S
O271 Cd267 2.439 . S
O271 C272 1.208 . S
C272 O270 1.247 . S
C272 O271 1.208 . S
C273 O278 1.247 1_556 S
C273 O279 1.208 1_556 S
C274 O266 1.315 . S
C274 O269 1.279 . S
C275 O276 1.315 . S
C275 O277 1.279 . S
O276 Cd268 2.223 . S
O276 C275 1.315 . S
O277 Cd267 2.240 . S
O277 C275 1.279 . S
O278 Cd268 2.297 . S
O278 C273 1.247 1_554 S
O279 Cd268 2.439 . S
O279 C273 1.208 1_554 S
O280 Cd281 2.223 . S
O280 C288 1.315 . S
Cd281 O280 2.223 . S
Cd281 O284 2.297 . S
Cd281 O285 2.439 . S
Cd281 O291 2.240 . S
Cd282 O283 2.240 . S
Cd282 O290 2.223 . S
Cd282 O292 2.297 . S
Cd282 O293 2.439 . S
O283 Cd282 2.240 . S
O283 C288 1.279 . S
O284 Cd281 2.297 . S
O284 C286 1.247 . S
O285 Cd281 2.439 . S
O285 C286 1.208 . S
C286 O284 1.247 . S
C286 O285 1.208 . S
C287 O292 1.247 1_556 S
C287 O293 1.208 1_556 S
C288 O280 1.315 . S
C288 O283 1.279 . S
C289 O290 1.315 . S
C289 O291 1.279 . S
O290 Cd282 2.223 . S
O290 C289 1.315 . S
O291 Cd281 2.240 . S
O291 C289 1.279 . S
O292 Cd282 2.297 . S
O292 C287 1.247 1_554 S
O293 Cd282 2.439 . S
O293 C287 1.208 1_554 S
O294 Cd295 2.223 1_556 S
O294 C302 1.315 . S
Cd295 O294 2.223 1_554 S
Cd295 O298 2.297 . S
Cd295 O299 2.439 . S
Cd295 O305 2.240 . S
Cd296 O297 2.240 . S
Cd296 O304 2.223 . S
Cd296 O306 2.297 . S
Cd296 O307 2.439 . S
O297 Cd296 2.240 . S
O297 C302 1.279 1_554 S
O298 Cd295 2.297 . S
O298 C300 1.247 . S
O299 Cd295 2.439 . S
O299 C300 1.208 . S
C300 O298 1.247 . S
C300 O299 1.208 . S
C301 O306 1.247 . S
C301 O307 1.208 . S
C302 O294 1.315 . S
C302 O297 1.279 1_556 S
C303 O304 1.315 . S
C303 O305 1.279 . S
O304 Cd296 2.223 . S
O304 C303 1.315 . S
O305 Cd295 2.240 . S
O305 C303 1.279 . S
O306 Cd296 2.297 . S
O306 C301 1.247 . S
O307 Cd296 2.439 . S
O307 C301 1.208 . S
O308 Cd309 2.223 1_556 S
O308 C316 1.315 . S
Cd309 O308 2.223 1_554 S
Cd309 O312 2.297 . S
Cd309 O313 2.439 . S
Cd309 O319 2.240 . S
Cd310 O311 2.240 . S
Cd310 O318 2.223 . S
Cd310 O320 2.297 . S
Cd310 O321 2.439 . S
O311 Cd310 2.240 . S
O311 C316 1.279 1_554 S
O312 Cd309 2.297 . S
O312 C314 1.247 . S
O313 Cd309 2.439 . S
O313 C314 1.208 . S
C314 O312 1.247 . S
C314 O313 1.208 . S
C315 O320 1.247 . S
C315 O321 1.208 . S
C316 O308 1.315 . S
C316 O311 1.279 1_556 S
C317 O318 1.315 . S
C317 O319 1.279 . S
O318 Cd310 2.223 . S
O318 C317 1.315 . S
O319 Cd309 2.240 . S
O319 C317 1.279 . S
O320 Cd310 2.297 . S
O320 C315 1.247 . S
O321 Cd310 2.439 . S
O321 C315 1.208 . S
O322 Cd323 2.223 1_556 S
O322 C330 1.315 . S
Cd323 O322 2.223 1_554 S
Cd323 O326 2.297 . S
Cd323 O327 2.439 . S
Cd323 O333 2.240 . S
Cd324 O325 2.240 . S
Cd324 O332 2.223 . S
Cd324 O334 2.297 . S
Cd324 O335 2.439 . S
O325 Cd324 2.240 . S
O325 C330 1.279 1_554 S
O326 Cd323 2.297 . S
O326 C328 1.247 . S
O327 Cd323 2.439 . S
O327 C328 1.208 . S
C328 O326 1.247 . S
C328 O327 1.208 . S
C329 O334 1.247 . S
C329 O335 1.208 . S
C330 O322 1.315 . S
C330 O325 1.279 1_556 S
C331 O332 1.315 . S
C331 O333 1.279 . S
O332 Cd324 2.223 . S
O332 C331 1.315 . S
O333 Cd323 2.240 . S
O333 C331 1.279 . S
O334 Cd324 2.297 . S
O334 C329 1.247 . S
O335 Cd324 2.439 . S
O335 C329 1.208 . S
O336 Cd337 2.223 . S
O336 C344 1.315 . S
Cd337 O336 2.223 . S
Cd337 O340 2.297 . S
Cd337 O341 2.439 . S
Cd337 O347 2.240 . S
Cd338 O339 2.240 . S
Cd338 O346 2.223 . S
Cd338 O348 2.297 . S
Cd338 O349 2.439 . S
O339 Cd338 2.240 . S
O339 C344 1.279 . S
O340 Cd337 2.297 . S
O340 C342 1.247 . S
O341 Cd337 2.439 . S
O341 C342 1.208 . S
C342 O340 1.247 . S
C342 O341 1.208 . S
C343 O348 1.247 1_554 S
C343 O349 1.208 1_554 S
C344 O336 1.315 . S
C344 O339 1.279 . S
C345 O346 1.315 . S
C345 O347 1.279 . S
O346 Cd338 2.223 . S
O346 C345 1.315 . S
O347 Cd337 2.240 . S
O347 C345 1.279 . S
O348 Cd338 2.297 . S
O348 C343 1.247 1_556 S
O349 Cd338 2.439 . S
O349 C343 1.208 1_556 S
O350 Cd351 2.223 . S
O350 C358 1.315 . S
Cd351 O350 2.223 . S
Cd351 O354 2.297 . S
Cd351 O355 2.439 . S
Cd351 O361 2.240 . S
Cd352 O353 2.240 . S
Cd352 O360 2.223 . S
Cd352 O362 2.297 . S
Cd352 O363 2.439 . S
O353 Cd352 2.240 . S
O353 C358 1.279 . S
O354 Cd351 2.297 . S
O354 C356 1.247 . S
O355 Cd351 2.439 . S
O355 C356 1.208 . S
C356 O354 1.247 . S
C356 O355 1.208 . S
C357 O362 1.247 1_554 S
C357 O363 1.208 1_554 S
C358 O350 1.315 . S
C358 O353 1.279 . S
C359 O360 1.315 . S
C359 O361 1.279 . S
O360 Cd352 2.223 . S
O360 C359 1.315 . S
O361 Cd351 2.240 . S
O361 C359 1.279 . S
O362 Cd352 2.297 . S
O362 C357 1.247 1_556 S
O363 Cd352 2.439 . S
O363 C357 1.208 1_556 S
O364 Cd365 2.223 . S
O364 C372 1.315 . S
Cd365 O364 2.223 . S
Cd365 O368 2.297 . S
Cd365 O369 2.439 . S
Cd365 O375 2.240 . S
Cd366 O367 2.240 . S
Cd366 O374 2.223 . S
Cd366 O376 2.297 . S
Cd366 O377 2.439 . S
O367 Cd366 2.240 . S
O367 C372 1.279 . S
O368 Cd365 2.297 . S
O368 C370 1.247 . S
O369 Cd365 2.439 . S
O369 C370 1.208 . S
C370 O368 1.247 . S
C370 O369 1.208 . S
C371 O376 1.247 1_554 S
C371 O377 1.208 1_554 S
C372 O364 1.315 . S
C372 O367 1.279 . S
C373 O374 1.315 . S
C373 O375 1.279 . S
O374 Cd366 2.223 . S
O374 C373 1.315 . S
O375 Cd365 2.240 . S
O375 C373 1.279 . S
O376 Cd366 2.297 . S
O376 C371 1.247 1_556 S
O377 Cd366 2.439 . S
O377 C371 1.208 1_556 S
O378 Cd379 2.223 1_554 S
O378 C386 1.315 . S
Cd379 O378 2.223 1_556 S
Cd379 O382 2.297 . S
Cd379 O383 2.439 . S
Cd379 O389 2.240 . S
Cd380 O381 2.240 . S
Cd380 O388 2.223 . S
Cd380 O390 2.297 . S
Cd380 O391 2.439 . S
O381 Cd380 2.240 . S
O381 C386 1.279 1_556 S
O382 Cd379 2.297 . S
O382 C384 1.247 . S
O383 Cd379 2.439 . S
O383 C384 1.208 . S
C384 O382 1.247 . S
C384 O383 1.208 . S
C385 O390 1.247 . S
C385 O391 1.208 . S
C386 O378 1.315 . S
C386 O381 1.279 1_554 S
C387 O388 1.315 . S
C387 O389 1.279 . S
O388 Cd380 2.223 . S
O388 C387 1.315 . S
O389 Cd379 2.240 . S
O389 C387 1.279 . S
O390 Cd380 2.297 . S
O390 C385 1.247 . S
O391 Cd380 2.439 . S
O391 C385 1.208 . S
O392 Cd393 2.223 1_554 S
O392 C400 1.315 . S
Cd393 O392 2.223 1_556 S
Cd393 O396 2.297 . S
Cd393 O397 2.439 . S
Cd393 O403 2.240 . S
Cd394 O395 2.240 . S
Cd394 O402 2.223 . S
Cd394 O404 2.297 . S
Cd394 O405 2.439 . S
O395 Cd394 2.240 . S
O395 C400 1.279 1_556 S
O396 Cd393 2.297 . S
O396 C398 1.247 . S
O397 Cd393 2.439 . S
O397 C398 1.208 . S
C398 O396 1.247 . S
C398 O397 1.208 . S
C399 O404 1.247 . S
C399 O405 1.208 . S
C400 O392 1.315 . S
C400 O395 1.279 1_554 S
C401 O402 1.315 . S
C401 O403 1.279 . S
O402 Cd394 2.223 . S
O402 C401 1.315 . S
O403 Cd393 2.240 . S
O403 C401 1.279 . S
O404 Cd394 2.297 . S
O404 C399 1.247 . S
O405 Cd394 2.439 . S
O405 C399 1.208 . S
O406 Cd407 2.223 1_554 S
O406 C414 1.315 . S
Cd407 O406 2.223 1_556 S
Cd407 O410 2.297 . S
Cd407 O411 2.439 . S
Cd407 O417 2.240 . S
Cd408 O409 2.240 . S
Cd408 O416 2.223 . S
Cd408 O418 2.297 . S
Cd408 O419 2.439 . S
O409 Cd408 2.240 . S
O409 C414 1.279 1_556 S
O410 Cd407 2.297 . S
O410 C412 1.247 . S
O411 Cd407 2.439 . S
O411 C412 1.208 . S
C412 O410 1.247 . S
C412 O411 1.208 . S
C413 O418 1.247 . S
C413 O419 1.208 . S
C414 O406 1.315 . S
C414 O409 1.279 1_554 S
C415 O416 1.315 . S
C415 O417 1.279 . S
O416 Cd408 2.223 . S
O416 C415 1.315 . S
O417 Cd407 2.240 . S
O417 C415 1.279 . S
O418 Cd408 2.297 . S
O418 C413 1.247 . S
O419 Cd408 2.439 . S
O419 C413 1.208 . S
O420 Cd421 2.223 . S
O420 C428 1.315 . S
Cd421 O420 2.223 . S
Cd421 O424 2.297 . S
Cd421 O425 2.439 . S
Cd421 O431 2.240 . S
Cd422 O423 2.240 . S
Cd422 O430 2.223 . S
Cd422 O432 2.297 . S
Cd422 O433 2.439 . S
O423 Cd422 2.240 . S
O423 C428 1.279 . S
O424 Cd421 2.297 . S
O424 C426 1.247 . S
O425 Cd421 2.439 . S
O425 C426 1.208 . S
C426 O424 1.247 . S
C426 O425 1.208 . S
C427 O432 1.247 . S
C427 O433 1.208 . S
C428 O420 1.315 . S
C428 O423 1.279 . S
C429 O430 1.315 . S
C429 O431 1.279 . S
O430 Cd422 2.223 . S
O430 C429 1.315 . S
O431 Cd421 2.240 . S
O431 C429 1.279 . S
O432 Cd422 2.297 . S
O432 C427 1.247 . S
O433 Cd422 2.439 . S
O433 C427 1.208 . S
O434 Cd435 2.223 . S
O434 C442 1.315 . S
Cd435 O434 2.223 . S
Cd435 O438 2.297 . S
Cd435 O439 2.439 . S
Cd435 O445 2.240 . S
Cd436 O437 2.240 . S
Cd436 O444 2.223 . S
Cd436 O446 2.297 . S
Cd436 O447 2.439 . S
O437 Cd436 2.240 . S
O437 C442 1.279 . S
O438 Cd435 2.297 . S
O438 C440 1.247 . S
O439 Cd435 2.439 . S
O439 C440 1.208 . S
C440 O438 1.247 . S
C440 O439 1.208 . S
C441 O446 1.247 . S
C441 O447 1.208 . S
C442 O434 1.315 . S
C442 O437 1.279 . S
C443 O444 1.315 . S
C443 O445 1.279 . S
O444 Cd436 2.223 . S
O444 C443 1.315 . S
O445 Cd435 2.240 . S
O445 C443 1.279 . S
O446 Cd436 2.297 . S
O446 C441 1.247 . S
O447 Cd436 2.439 . S
O447 C441 1.208 . S
O448 Cd449 2.223 . S
O448 C456 1.315 . S
Cd449 O448 2.223 . S
Cd449 O452 2.297 . S
Cd449 O453 2.439 . S
Cd449 O459 2.240 . S
Cd450 O451 2.240 . S
Cd450 O458 2.223 . S
Cd450 O460 2.297 . S
Cd450 O461 2.439 . S
O451 Cd450 2.240 . S
O451 C456 1.279 . S
O452 Cd449 2.297 . S
O452 C454 1.247 . S
O453 Cd449 2.439 . S
O453 C454 1.208 . S
C454 O452 1.247 . S
C454 O453 1.208 . S
C455 O460 1.247 . S
C455 O461 1.208 . S
C456 O448 1.315 . S
C456 O451 1.279 . S
C457 O458 1.315 . S
C457 O459 1.279 . S
O458 Cd450 2.223 . S
O458 C457 1.315 . S
O459 Cd449 2.240 . S
O459 C457 1.279 . S
O460 Cd450 2.297 . S
O460 C455 1.247 . S
O461 Cd450 2.439 . S
O461 C455 1.208 . S
O462 Cd463 2.223 . S
O462 C470 1.315 . S
Cd463 O462 2.223 . S
Cd463 O466 2.297 . S
Cd463 O467 2.439 . S
Cd463 O473 2.240 . S
Cd464 O465 2.240 . S
Cd464 O472 2.223 . S
Cd464 O474 2.297 . S
Cd464 O475 2.439 . S
O465 Cd464 2.240 . S
O465 C470 1.279 . S
O466 Cd463 2.297 . S
O466 C468 1.247 . S
O467 Cd463 2.439 . S
O467 C468 1.208 . S
C468 O466 1.247 . S
C468 O467 1.208 . S
C469 O474 1.247 . S
C469 O475 1.208 . S
C470 O462 1.315 . S
C470 O465 1.279 . S
C471 O472 1.315 . S
C471 O473 1.279 . S
O472 Cd464 2.223 . S
O472 C471 1.315 . S
O473 Cd463 2.240 . S
O473 C471 1.279 . S
O474 Cd464 2.297 . S
O474 C469 1.247 . S
O475 Cd464 2.439 . S
O475 C469 1.208 . S
O476 Cd477 2.223 . S
O476 C484 1.315 . S
Cd477 O476 2.223 . S
Cd477 O480 2.297 . S
Cd477 O481 2.439 . S
Cd477 O487 2.240 . S
Cd478 O479 2.240 . S
Cd478 O486 2.223 . S
Cd478 O488 2.297 . S
Cd478 O489 2.439 . S
O479 Cd478 2.240 . S
O479 C484 1.279 . S
O480 Cd477 2.297 . S
O480 C482 1.247 . S
O481 Cd477 2.439 . S
O481 C482 1.208 . S
C482 O480 1.247 . S
C482 O481 1.208 . S
C483 O488 1.247 . S
C483 O489 1.208 . S
C484 O476 1.315 . S
C484 O479 1.279 . S
C485 O486 1.315 . S
C485 O487 1.279 . S
O486 Cd478 2.223 . S
O486 C485 1.315 . S
O487 Cd477 2.240 . S
O487 C485 1.279 . S
O488 Cd478 2.297 . S
O488 C483 1.247 . S
O489 Cd478 2.439 . S
O489 C483 1.208 . S
O490 Cd491 2.223 . S
O490 C498 1.315 . S
Cd491 O490 2.223 . S
Cd491 O494 2.297 . S
Cd491 O495 2.439 . S
Cd491 O501 2.240 . S
Cd492 O493 2.240 . S
Cd492 O500 2.223 . S
Cd492 O502 2.297 . S
Cd492 O503 2.439 . S
O493 Cd492 2.240 . S
O493 C498 1.279 . S
O494 Cd491 2.297 . S
O494 C496 1.247 . S
O495 Cd491 2.439 . S
O495 C496 1.208 . S
C496 O494 1.247 . S
C496 O495 1.208 . S
C497 O502 1.247 . S
C497 O503 1.208 . S
C498 O490 1.315 . S
C498 O493 1.279 . S
C499 O500 1.315 . S
C499 O501 1.279 . S
O500 Cd492 2.223 . S
O500 C499 1.315 . S
O501 Cd491 2.240 . S
O501 C499 1.279 . S
O502 Cd492 2.297 . S
O502 C497 1.247 . S
O503 Cd492 2.439 . S
O503 C497 1.208 . S
H504 C510 0.930 . S
H505 C514 0.930 . S
H506 C519 0.929 . S
H507 C517 0.929 . S
H508 C512 0.929 . S
H509 C518 0.929 . S
C510 H504 0.930 . S
C510 C511 1.367 . S
C510 C518 1.378 . S
C511 C510 1.367 . S
C511 C519 1.433 . S
C512 H508 0.929 . S
C512 C514 1.378 . S
C512 C516 1.350 . S
C513 C516 1.463 1_556 S
C513 C518 1.350 . S
C513 N521 1.427 . S
C514 H505 0.930 . S
C514 C512 1.378 . S
C514 C515 1.367 . S
C515 C514 1.367 . S
C515 C517 1.433 . S
C516 C512 1.350 . S
C516 C513 1.463 1_554 S
C516 N520 1.427 . S
C517 H507 0.929 . S
C517 C515 1.433 . S
C517 N520 1.384 . S
C518 H509 0.929 . S
C518 C510 1.378 . S
C518 C513 1.350 . S
C519 H506 0.929 . S
C519 C511 1.433 . S
C519 N521 1.384 . S
N520 C516 1.427 . S
N520 C517 1.384 . S
N521 C513 1.427 . S
N521 C519 1.384 . S
H522 C528 0.930 . S
H523 C532 0.930 . S
H524 C537 0.929 . S
H525 C535 0.929 . S
H526 C530 0.929 . S
H527 C536 0.929 . S
C528 H522 0.930 . S
C528 C529 1.367 . S
C528 C536 1.378 . S
C529 C528 1.367 . S
C529 C537 1.433 . S
C530 H526 0.929 . S
C530 C532 1.378 . S
C530 C534 1.350 . S
C531 C534 1.463 1_556 S
C531 C536 1.350 . S
C531 N539 1.427 . S
C532 H523 0.930 . S
C532 C530 1.378 . S
C532 C533 1.367 . S
C533 C532 1.367 . S
C533 C535 1.433 . S
C534 C530 1.350 . S
C534 C531 1.463 1_554 S
C534 N538 1.427 . S
C535 H525 0.929 . S
C535 C533 1.433 . S
C535 N538 1.384 . S
C536 H527 0.929 . S
C536 C528 1.378 . S
C536 C531 1.350 . S
C537 H524 0.929 . S
C537 C529 1.433 . S
C537 N539 1.384 . S
N538 C534 1.427 . S
N538 C535 1.384 . S
N539 C531 1.427 . S
N539 C537 1.384 . S
H540 C546 0.930 . S
H541 C550 0.930 . S
H542 C555 0.929 . S
H543 C553 0.929 . S
H544 C548 0.929 . S
H545 C554 0.929 . S
C546 H540 0.930 . S
C546 C547 1.367 . S
C546 C554 1.378 . S
C547 C546 1.367 . S
C547 C555 1.433 . S
C548 H544 0.929 . S
C548 C550 1.378 . S
C548 C552 1.350 . S
C549 C552 1.463 1_554 S
C549 C554 1.350 . S
C549 N557 1.427 . S
C550 H541 0.930 . S
C550 C548 1.378 . S
C550 C551 1.367 . S
C551 C550 1.367 . S
C551 C553 1.433 . S
C552 C548 1.350 . S
C552 C549 1.463 1_556 S
C552 N556 1.427 . S
C553 H543 0.929 . S
C553 C551 1.433 . S
C553 N556 1.384 . S
C554 H545 0.929 . S
C554 C546 1.378 . S
C554 C549 1.350 . S
C555 H542 0.929 . S
C555 C547 1.433 . S
C555 N557 1.384 . S
N556 C552 1.427 . S
N556 C553 1.384 . S
N557 C549 1.427 . S
N557 C555 1.384 . S
H558 C564 0.930 . S
H559 C568 0.930 . S
H560 C573 0.929 . S
H561 C571 0.929 . S
H562 C566 0.929 . S
H563 C572 0.929 . S
C564 H558 0.930 . S
C564 C565 1.367 . S
C564 C572 1.378 . S
C565 C564 1.367 . S
C565 C573 1.433 . S
C566 H562 0.929 . S
C566 C568 1.378 . S
C566 C570 1.350 . S
C567 C570 1.463 . S
C567 C572 1.350 . S
C567 N575 1.427 . S
C568 H559 0.930 . S
C568 C566 1.378 . S
C568 C569 1.367 . S
C569 C568 1.367 . S
C569 C571 1.433 . S
C570 C566 1.350 . S
C570 C567 1.463 . S
C570 N574 1.427 . S
C571 H561 0.929 . S
C571 C569 1.433 . S
C571 N574 1.384 . S
C572 H563 0.929 . S
C572 C564 1.378 . S
C572 C567 1.350 . S
C573 H560 0.929 . S
C573 C565 1.433 . S
C573 N575 1.384 . S
N574 C570 1.427 . S
N574 C571 1.384 . S
N575 C567 1.427 . S
N575 C573 1.384 . S
H576 C582 0.930 . S
H577 C586 0.930 . S
H578 C591 0.929 . S
H579 C589 0.929 . S
H580 C584 0.929 . S
H581 C590 0.929 . S
C582 H576 0.930 . S
C582 C583 1.367 . S
C582 C590 1.378 . S
C583 C582 1.367 . S
C583 C591 1.433 . S
C584 H580 0.929 . S
C584 C586 1.378 . S
C584 C588 1.350 . S
C585 C588 1.463 . S
C585 C590 1.350 . S
C585 N593 1.427 . S
C586 H577 0.930 . S
C586 C584 1.378 . S
C586 C587 1.367 . S
C587 C586 1.367 . S
C587 C589 1.433 . S
C588 C584 1.350 . S
C588 C585 1.463 . S
C588 N592 1.427 . S
C589 H579 0.929 . S
C589 C587 1.433 . S
C589 N592 1.384 . S
C590 H581 0.929 . S
C590 C582 1.378 . S
C590 C585 1.350 . S
C591 H578 0.929 . S
C591 C583 1.433 . S
C591 N593 1.384 . S
N592 C588 1.427 . S
N592 C589 1.384 . S
N593 C585 1.427 . S
N593 C591 1.384 . S
H594 C600 0.930 . S
H595 C604 0.930 . S
H596 C609 0.929 . S
H597 C607 0.929 . S
H598 C602 0.929 . S
H599 C608 0.929 . S
C600 H594 0.930 . S
C600 C601 1.367 . S
C600 C608 1.378 . S
C601 C600 1.367 . S
C601 C609 1.433 . S
C602 H598 0.929 . S
C602 C604 1.378 . S
C602 C606 1.350 . S
C603 C606 1.463 . S
C603 C608 1.350 . S
C603 N611 1.427 . S
C604 H595 0.930 . S
C604 C602 1.378 . S
C604 C605 1.367 . S
C605 C604 1.367 . S
C605 C607 1.433 . S
C606 C602 1.350 . S
C606 C603 1.463 . S
C606 N610 1.427 . S
C607 H597 0.929 . S
C607 C605 1.433 . S
C607 N610 1.384 . S
C608 H599 0.929 . S
C608 C600 1.378 . S
C608 C603 1.350 . S
C609 H596 0.929 . S
C609 C601 1.433 . S
C609 N611 1.384 . S
N610 C606 1.427 . S
N610 C607 1.384 . S
N611 C603 1.427 . S
N611 C609 1.384 . S
H612 C618 0.930 . S
H613 C622 0.930 . S
H614 C627 0.929 . S
H615 C625 0.929 . S
H616 C620 0.929 . S
H617 C626 0.929 . S
C618 H612 0.930 . S
C618 C619 1.367 . S
C618 C626 1.378 . S
C619 C618 1.367 . S
C619 C627 1.433 . S
C620 H616 0.929 . S
C620 C622 1.378 . S
C620 C624 1.350 . S
C621 C624 1.463 1_554 S
C621 C626 1.350 . S
C621 N629 1.427 . S
C622 H613 0.930 . S
C622 C620 1.378 . S
C622 C623 1.367 . S
C623 C622 1.367 . S
C623 C625 1.433 . S
C624 C620 1.350 . S
C624 C621 1.463 1_556 S
C624 N628 1.427 . S
C625 H615 0.929 . S
C625 C623 1.433 . S
C625 N628 1.384 . S
C626 H617 0.929 . S
C626 C618 1.378 . S
C626 C621 1.350 . S
C627 H614 0.929 . S
C627 C619 1.433 . S
C627 N629 1.384 . S
N628 C624 1.427 . S
N628 C625 1.384 . S
N629 C621 1.427 . S
N629 C627 1.384 . S
H630 C636 0.930 . S
H631 C640 0.930 . S
H632 C645 0.929 . S
H633 C643 0.929 . S
H634 C638 0.929 . S
H635 C644 0.929 . S
C636 H630 0.930 . S
C636 C637 1.367 . S
C636 C644 1.378 . S
C637 C636 1.367 . S
C637 C645 1.433 . S
C638 H634 0.929 . S
C638 C640 1.378 . S
C638 C642 1.350 . S
C639 C642 1.463 1_554 S
C639 C644 1.350 . S
C639 N647 1.427 . S
C640 H631 0.930 . S
C640 C638 1.378 . S
C640 C641 1.367 . S
C641 C640 1.367 . S
C641 C643 1.433 . S
C642 C638 1.350 . S
C642 C639 1.463 1_556 S
C642 N646 1.427 . S
C643 H633 0.929 . S
C643 C641 1.433 . S
C643 N646 1.384 . S
C644 H635 0.929 . S
C644 C636 1.378 . S
C644 C639 1.350 . S
C645 H632 0.929 . S
C645 C637 1.433 . S
C645 N647 1.384 . S
N646 C642 1.427 . S
N646 C643 1.384 . S
N647 C639 1.427 . S
N647 C645 1.384 . S
H648 C654 0.930 . S
H649 C658 0.930 . S
H650 C663 0.929 . S
H651 C661 0.929 . S
H652 C656 0.929 . S
H653 C662 0.929 . S
C654 H648 0.930 . S
C654 C655 1.367 . S
C654 C662 1.378 . S
C655 C654 1.367 . S
C655 C663 1.433 . S
C656 H652 0.929 . S
C656 C658 1.378 . S
C656 C660 1.350 . S
C657 C660 1.463 1_556 S
C657 C662 1.350 . S
C657 N665 1.427 . S
C658 H649 0.930 . S
C658 C656 1.378 . S
C658 C659 1.367 . S
C659 C658 1.367 . S
C659 C661 1.433 . S
C660 C656 1.350 . S
C660 C657 1.463 1_554 S
C660 N664 1.427 . S
C661 H651 0.929 . S
C661 C659 1.433 . S
C661 N664 1.384 . S
C662 H653 0.929 . S
C662 C654 1.378 . S
C662 C657 1.350 . S
C663 H650 0.929 . S
C663 C655 1.433 . S
C663 N665 1.384 . S
N664 C660 1.427 . S
N664 C661 1.384 . S
N665 C657 1.427 . S
N665 C663 1.384 . S
H666 C672 0.930 . S
H667 C676 0.930 . S
H668 C681 0.929 . S
H669 C679 0.929 . S
H670 C674 0.929 . S
H671 C680 0.929 . S
C672 H666 0.930 . S
C672 C673 1.367 . S
C672 C680 1.378 . S
C673 C672 1.367 . S
C673 C681 1.433 . S
C674 H670 0.929 . S
C674 C676 1.378 . S
C674 C678 1.350 . S
C675 C678 1.463 . S
C675 C680 1.350 . S
C675 N683 1.427 . S
C676 H667 0.930 . S
C676 C674 1.378 . S
C676 C677 1.367 . S
C677 C676 1.367 . S
C677 C679 1.433 . S
C678 C674 1.350 . S
C678 C675 1.463 . S
C678 N682 1.427 . S
C679 H669 0.929 . S
C679 C677 1.433 . S
C679 N682 1.384 . S
C680 H671 0.929 . S
C680 C672 1.378 . S
C680 C675 1.350 . S
C681 H668 0.929 . S
C681 C673 1.433 . S
C681 N683 1.384 . S
N682 C678 1.427 . S
N682 C679 1.384 . S
N683 C675 1.427 . S
N683 C681 1.384 . S
H684 C690 0.930 . S
H685 C694 0.930 . S
H686 C699 0.929 . S
H687 C697 0.929 . S
H688 C692 0.929 . S
H689 C698 0.929 . S
C690 H684 0.930 . S
C690 C691 1.367 . S
C690 C698 1.378 . S
C691 C690 1.367 . S
C691 C699 1.433 . S
C692 H688 0.929 . S
C692 C694 1.378 . S
C692 C696 1.350 . S
C693 C696 1.463 . S
C693 C698 1.350 . S
C693 N701 1.427 . S
C694 H685 0.930 . S
C694 C692 1.378 . S
C694 C695 1.367 . S
C695 C694 1.367 . S
C695 C697 1.433 . S
C696 C692 1.350 . S
C696 C693 1.463 . S
C696 N700 1.427 . S
C697 H687 0.929 . S
C697 C695 1.433 . S
C697 N700 1.384 . S
C698 H689 0.929 . S
C698 C690 1.378 . S
C698 C693 1.350 . S
C699 H686 0.929 . S
C699 C691 1.433 . S
C699 N701 1.384 . S
N700 C696 1.427 . S
N700 C697 1.384 . S
N701 C693 1.427 . S
N701 C699 1.384 . S
H702 C708 0.930 . S
H703 C712 0.930 . S
H704 C717 0.929 . S
H705 C715 0.929 . S
H706 C710 0.929 . S
H707 C716 0.929 . S
C708 H702 0.930 . S
C708 C709 1.367 . S
C708 C716 1.378 . S
C709 C708 1.367 . S
C709 C717 1.433 . S
C710 H706 0.929 . S
C710 C712 1.378 . S
C710 C714 1.350 . S
C711 C714 1.463 . S
C711 C716 1.350 . S
C711 N719 1.427 . S
C712 H703 0.930 . S
C712 C710 1.378 . S
C712 C713 1.367 . S
C713 C712 1.367 . S
C713 C715 1.433 . S
C714 C710 1.350 . S
C714 C711 1.463 . S
C714 N718 1.427 . S
C715 H705 0.929 . S
C715 C713 1.433 . S
C715 N718 1.384 . S
C716 H707 0.929 . S
C716 C708 1.378 . S
C716 C711 1.350 . S
C717 H704 0.929 . S
C717 C709 1.433 . S
C717 N719 1.384 . S
N718 C714 1.427 . S
N718 C715 1.384 . S
N719 C711 1.427 . S
N719 C717 1.384 . S
H720 C726 0.930 . S
H721 C730 0.930 . S
H722 C735 0.929 . S
H723 C733 0.929 . S
H724 C728 0.929 . S
H725 C734 0.929 . S
C726 H720 0.930 . S
C726 C727 1.367 . S
C726 C734 1.378 . S
C727 C726 1.367 . S
C727 C735 1.433 . S
C728 H724 0.929 . S
C728 C730 1.378 . S
C728 C732 1.350 . S
C729 C732 1.463 . S
C729 C734 1.350 . S
C729 N737 1.427 . S
C730 H721 0.930 . S
C730 C728 1.378 . S
C730 C731 1.367 . S
C731 C730 1.367 . S
C731 C733 1.433 . S
C732 C728 1.350 . S
C732 C729 1.463 . S
C732 N736 1.427 . S
C733 H723 0.929 . S
C733 C731 1.433 . S
C733 N736 1.384 . S
C734 H725 0.929 . S
C734 C726 1.378 . S
C734 C729 1.350 . S
C735 H722 0.929 . S
C735 C727 1.433 . S
C735 N737 1.384 . S
N736 C732 1.427 . S
N736 C733 1.384 . S
N737 C729 1.427 . S
N737 C735 1.384 . S
H738 C744 0.930 . S
H739 C748 0.930 . S
H740 C753 0.929 . S
H741 C751 0.929 . S
H742 C746 0.929 . S
H743 C752 0.929 . S
C744 H738 0.930 . S
C744 C745 1.367 . S
C744 C752 1.378 . S
C745 C744 1.367 . S
C745 C753 1.433 . S
C746 H742 0.929 . S
C746 C748 1.378 . S
C746 C750 1.350 . S
C747 C750 1.463 . S
C747 C752 1.350 . S
C747 N755 1.427 . S
C748 H739 0.930 . S
C748 C746 1.378 . S
C748 C749 1.367 . S
C749 C748 1.367 . S
C749 C751 1.433 . S
C750 C746 1.350 . S
C750 C747 1.463 . S
C750 N754 1.427 . S
C751 H741 0.929 . S
C751 C749 1.433 . S
C751 N754 1.384 . S
C752 H743 0.929 . S
C752 C744 1.378 . S
C752 C747 1.350 . S
C753 H740 0.929 . S
C753 C745 1.433 . S
C753 N755 1.384 . S
N754 C750 1.427 . S
N754 C751 1.384 . S
N755 C747 1.427 . S
N755 C753 1.384 . S
H756 C762 0.930 . S
H757 C766 0.930 . S
H758 C771 0.929 . S
H759 C769 0.929 . S
H760 C764 0.929 . S
H761 C770 0.929 . S
C762 H756 0.930 . S
C762 C763 1.367 . S
C762 C770 1.378 . S
C763 C762 1.367 . S
C763 C771 1.433 . S
C764 H760 0.929 . S
C764 C766 1.378 . S
C764 C768 1.350 . S
C765 C768 1.463 . S
C765 C770 1.350 . S
C765 N773 1.427 . S
C766 H757 0.930 . S
C766 C764 1.378 . S
C766 C767 1.367 . S
C767 C766 1.367 . S
C767 C769 1.433 . S
C768 C764 1.350 . S
C768 C765 1.463 . S
C768 N772 1.427 . S
C769 H759 0.929 . S
C769 C767 1.433 . S
C769 N772 1.384 . S
C770 H761 0.929 . S
C770 C762 1.378 . S
C770 C765 1.350 . S
C771 H758 0.929 . S
C771 C763 1.433 . S
C771 N773 1.384 . S
N772 C768 1.427 . S
N772 C769 1.384 . S
N773 C765 1.427 . S
N773 C771 1.384 . S
H774 C780 0.930 . S
H775 C784 0.930 . S
H776 C789 0.929 . S
H777 C787 0.929 . S
H778 C782 0.929 . S
H779 C788 0.929 . S
C780 H774 0.930 . S
C780 C781 1.367 . S
C780 C788 1.378 . S
C781 C780 1.367 . S
C781 C789 1.433 . S
C782 H778 0.929 . S
C782 C784 1.378 . S
C782 C786 1.350 . S
C783 C786 1.463 . S
C783 C788 1.350 . S
C783 N791 1.427 . S
C784 H775 0.930 . S
C784 C782 1.378 . S
C784 C785 1.367 . S
C785 C784 1.367 . S
C785 C787 1.433 . S
C786 C782 1.350 . S
C786 C783 1.463 . S
C786 N790 1.427 . S
C787 H777 0.929 . S
C787 C785 1.433 . S
C787 N790 1.384 . S
C788 H779 0.929 . S
C788 C780 1.378 . S
C788 C783 1.350 . S
C789 H776 0.929 . S
C789 C781 1.433 . S
C789 N791 1.384 . S
N790 C786 1.427 . S
N790 C787 1.384 . S
N791 C783 1.427 . S
N791 C789 1.384 . S
H792 C798 0.930 . S
H793 C802 0.930 . S
H794 C807 0.929 . S
H795 C805 0.929 . S
H796 C800 0.929 . S
H797 C806 0.929 . S
C798 H792 0.930 . S
C798 C799 1.367 . S
C798 C806 1.378 . S
C799 C798 1.367 . S
C799 C807 1.433 . S
C800 H796 0.929 . S
C800 C802 1.378 . S
C800 C804 1.350 . S
C801 C804 1.463 . S
C801 C806 1.350 . S
C801 N809 1.427 . S
C802 H793 0.930 . S
C802 C800 1.378 . S
C802 C803 1.367 . S
C803 C802 1.367 . S
C803 C805 1.433 . S
C804 C800 1.350 . S
C804 C801 1.463 . S
C804 N808 1.427 . S
C805 H795 0.929 . S
C805 C803 1.433 . S
C805 N808 1.384 . S
C806 H797 0.929 . S
C806 C798 1.378 . S
C806 C801 1.350 . S
C807 H794 0.929 . S
C807 C799 1.433 . S
C807 N809 1.384 . S
N808 C804 1.427 . S
N808 C805 1.384 . S
N809 C801 1.427 . S
N809 C807 1.384 . S
H810 C816 0.930 . S
H811 C820 0.930 . S
H812 C825 0.929 . S
H813 C823 0.929 . S
H814 C818 0.929 . S
H815 C824 0.929 . S
C816 H810 0.930 . S
C816 C817 1.367 . S
C816 C824 1.378 . S
C817 C816 1.367 . S
C817 C825 1.433 . S
C818 H814 0.929 . S
C818 C820 1.378 . S
C818 C822 1.350 . S
C819 C822 1.463 . S
C819 C824 1.350 . S
C819 N827 1.427 . S
C820 H811 0.930 . S
C820 C818 1.378 . S
C820 C821 1.367 . S
C821 C820 1.367 . S
C821 C823 1.433 . S
C822 C818 1.350 . S
C822 C819 1.463 . S
C822 N826 1.427 . S
C823 H813 0.929 . S
C823 C821 1.433 . S
C823 N826 1.384 . S
C824 H815 0.929 . S
C824 C816 1.378 . S
C824 C819 1.350 . S
C825 H812 0.929 . S
C825 C817 1.433 . S
C825 N827 1.384 . S
N826 C822 1.427 . S
N826 C823 1.384 . S
N827 C819 1.427 . S
N827 C825 1.384 . S
H828 C834 0.930 . S
H829 C838 0.930 . S
H830 C843 0.929 . S
H831 C841 0.929 . S
H832 C836 0.929 . S
H833 C842 0.929 . S
C834 H828 0.930 . S
C834 C835 1.367 . S
C834 C842 1.378 . S
C835 C834 1.367 . S
C835 C843 1.433 . S
C836 H832 0.929 . S
C836 C838 1.378 . S
C836 C840 1.350 . S
C837 C840 1.463 . S
C837 C842 1.350 . S
C837 N845 1.427 . S
C838 H829 0.930 . S
C838 C836 1.378 . S
C838 C839 1.367 . S
C839 C838 1.367 . S
C839 C841 1.433 . S
C840 C836 1.350 . S
C840 C837 1.463 . S
C840 N844 1.427 . S
C841 H831 0.929 . S
C841 C839 1.433 . S
C841 N844 1.384 . S
C842 H833 0.929 . S
C842 C834 1.378 . S
C842 C837 1.350 . S
C843 H830 0.929 . S
C843 C835 1.433 . S
C843 N845 1.384 . S
N844 C840 1.427 . S
N844 C841 1.384 . S
N845 C837 1.427 . S
N845 C843 1.384 . S
H846 C852 0.930 . S
H847 C856 0.930 . S
H848 C861 0.929 . S
H849 C859 0.929 . S
H850 C854 0.929 . S
H851 C860 0.929 . S
C852 H846 0.930 . S
C852 C853 1.367 . S
C852 C860 1.378 . S
C853 C852 1.367 . S
C853 C861 1.433 . S
C854 H850 0.929 . S
C854 C856 1.378 . S
C854 C858 1.350 . S
C855 C858 1.463 . S
C855 C860 1.350 . S
C855 N863 1.427 . S
C856 H847 0.930 . S
C856 C854 1.378 . S
C856 C857 1.367 . S
C857 C856 1.367 . S
C857 C859 1.433 . S
C858 C854 1.350 . S
C858 C855 1.463 . S
C858 N862 1.427 . S
C859 H849 0.929 . S
C859 C857 1.433 . S
C859 N862 1.384 . S
C860 H851 0.929 . S
C860 C852 1.378 . S
C860 C855 1.350 . S
C861 H848 0.929 . S
C861 C853 1.433 . S
C861 N863 1.384 . S
N862 C858 1.427 . S
N862 C859 1.384 . S
N863 C855 1.427 . S
N863 C861 1.384 . S
H864 C870 0.930 . S
H865 C874 0.930 . S
H866 C879 0.929 . S
H867 C877 0.929 . S
H868 C872 0.929 . S
H869 C878 0.929 . S
C870 H864 0.930 . S
C870 C871 1.367 . S
C870 C878 1.378 . S
C871 C870 1.367 . S
C871 C879 1.433 . S
C872 H868 0.929 . S
C872 C874 1.378 . S
C872 C876 1.350 . S
C873 C876 1.463 . S
C873 C878 1.350 . S
C873 N881 1.427 . S
C874 H865 0.930 . S
C874 C872 1.378 . S
C874 C875 1.367 . S
C875 C874 1.367 . S
C875 C877 1.433 . S
C876 C872 1.350 . S
C876 C873 1.463 . S
C876 N880 1.427 . S
C877 H867 0.929 . S
C877 C875 1.433 . S
C877 N880 1.384 . S
C878 H869 0.929 . S
C878 C870 1.378 . S
C878 C873 1.350 . S
C879 H866 0.929 . S
C879 C871 1.433 . S
C879 N881 1.384 . S
N880 C876 1.427 . S
N880 C877 1.384 . S
N881 C873 1.427 . S
N881 C879 1.384 . S
H882 C888 0.930 . S
H883 C892 0.930 . S
H884 C897 0.929 . S
H885 C895 0.929 . S
H886 C890 0.929 . S
H887 C896 0.929 . S
C888 H882 0.930 . S
C888 C889 1.367 . S
C888 C896 1.378 . S
C889 C888 1.367 . S
C889 C897 1.433 . S
C890 H886 0.929 . S
C890 C892 1.378 . S
C890 C894 1.350 . S
C891 C894 1.463 . S
C891 C896 1.350 . S
C891 N899 1.427 . S
C892 H883 0.930 . S
C892 C890 1.378 . S
C892 C893 1.367 . S
C893 C892 1.367 . S
C893 C895 1.433 . S
C894 C890 1.350 . S
C894 C891 1.463 . S
C894 N898 1.427 . S
C895 H885 0.929 . S
C895 C893 1.433 . S
C895 N898 1.384 . S
C896 H887 0.929 . S
C896 C888 1.378 . S
C896 C891 1.350 . S
C897 H884 0.929 . S
C897 C889 1.433 . S
C897 N899 1.384 . S
N898 C894 1.427 . S
N898 C895 1.384 . S
N899 C891 1.427 . S
N899 C897 1.384 . S
H900 C906 0.930 . S
H901 C910 0.930 . S
H902 C915 0.929 . S
H903 C913 0.929 . S
H904 C908 0.929 . S
H905 C914 0.929 . S
C906 H900 0.930 . S
C906 C907 1.367 . S
C906 C914 1.378 . S
C907 C906 1.367 . S
C907 C915 1.433 . S
C908 H904 0.929 . S
C908 C910 1.378 . S
C908 C912 1.350 . S
C909 C912 1.463 . S
C909 C914 1.350 . S
C909 N917 1.427 . S
C910 H901 0.930 . S
C910 C908 1.378 . S
C910 C911 1.367 . S
C911 C910 1.367 . S
C911 C913 1.433 . S
C912 C908 1.350 . S
C912 C909 1.463 . S
C912 N916 1.427 . S
C913 H903 0.929 . S
C913 C911 1.433 . S
C913 N916 1.384 . S
C914 H905 0.929 . S
C914 C906 1.378 . S
C914 C909 1.350 . S
C915 H902 0.929 . S
C915 C907 1.433 . S
C915 N917 1.384 . S
N916 C912 1.427 . S
N916 C913 1.384 . S
N917 C909 1.427 . S
N917 C915 1.384 . S
H918 C924 0.930 . S
H919 C928 0.930 . S
H920 C933 0.929 . S
H921 C931 0.929 . S
H922 C926 0.929 . S
H923 C932 0.929 . S
C924 H918 0.930 . S
C924 C925 1.367 . S
C924 C932 1.378 . S
C925 C924 1.367 . S
C925 C933 1.433 . S
C926 H922 0.929 . S
C926 C928 1.378 . S
C926 C930 1.350 . S
C927 C930 1.463 . S
C927 C932 1.350 . S
C927 N935 1.427 . S
C928 H919 0.930 . S
C928 C926 1.378 . S
C928 C929 1.367 . S
C929 C928 1.367 . S
C929 C931 1.433 . S
C930 C926 1.350 . S
C930 C927 1.463 . S
C930 N934 1.427 . S
C931 H921 0.929 . S
C931 C929 1.433 . S
C931 N934 1.384 . S
C932 H923 0.929 . S
C932 C924 1.378 . S
C932 C927 1.350 . S
C933 H920 0.929 . S
C933 C925 1.433 . S
C933 N935 1.384 . S
N934 C930 1.427 . S
N934 C931 1.384 . S
N935 C927 1.427 . S
N935 C933 1.384 . S
H936 C942 0.930 . S
H937 C946 0.930 . S
H938 C951 0.929 . S
H939 C949 0.929 . S
H940 C944 0.929 . S
H941 C950 0.929 . S
C942 H936 0.930 . S
C942 C943 1.367 . S
C942 C950 1.378 . S
C943 C942 1.367 . S
C943 C951 1.433 . S
C944 H940 0.929 . S
C944 C946 1.378 . S
C944 C948 1.350 . S
C945 C948 1.463 . S
C945 C950 1.350 . S
C945 N953 1.427 . S
C946 H937 0.930 . S
C946 C944 1.378 . S
C946 C947 1.367 . S
C947 C946 1.367 . S
C947 C949 1.433 . S
C948 C944 1.350 . S
C948 C945 1.463 . S
C948 N952 1.427 . S
C949 H939 0.929 . S
C949 C947 1.433 . S
C949 N952 1.384 . S
C950 H941 0.929 . S
C950 C942 1.378 . S
C950 C945 1.350 . S
C951 H938 0.929 . S
C951 C943 1.433 . S
C951 N953 1.384 . S
N952 C948 1.427 . S
N952 C949 1.384 . S
N953 C945 1.427 . S
N953 C951 1.384 . S
H954 C960 0.930 . S
H955 C964 0.930 . S
H956 C969 0.929 . S
H957 C967 0.929 . S
H958 C962 0.929 . S
H959 C968 0.929 . S
C960 H954 0.930 . S
C960 C961 1.367 . S
C960 C968 1.378 . S
C961 C960 1.367 . S
C961 C969 1.433 . S
C962 H958 0.929 . S
C962 C964 1.378 . S
C962 C966 1.350 . S
C963 C966 1.463 . S
C963 C968 1.350 . S
C963 N971 1.427 . S
C964 H955 0.930 . S
C964 C962 1.378 . S
C964 C965 1.367 . S
C965 C964 1.367 . S
C965 C967 1.433 . S
C966 C962 1.350 . S
C966 C963 1.463 . S
C966 N970 1.427 . S
C967 H957 0.929 . S
C967 C965 1.433 . S
C967 N970 1.384 . S
C968 H959 0.929 . S
C968 C960 1.378 . S
C968 C963 1.350 . S
C969 H956 0.929 . S
C969 C961 1.433 . S
C969 N971 1.384 . S
N970 C966 1.427 . S
N970 C967 1.384 . S
N971 C963 1.427 . S
N971 C969 1.384 . S
H972 C978 0.930 . S
H973 C982 0.930 . S
H974 C987 0.929 . S
H975 C985 0.929 . S
H976 C980 0.929 . S
H977 C986 0.929 . S
C978 H972 0.930 . S
C978 C979 1.367 . S
C978 C986 1.378 . S
C979 C978 1.367 . S
C979 C987 1.433 . S
C980 H976 0.929 . S
C980 C982 1.378 . S
C980 C984 1.350 . S
C981 C984 1.463 . S
C981 C986 1.350 . S
C981 N989 1.427 . S
C982 H973 0.930 . S
C982 C980 1.378 . S
C982 C983 1.367 . S
C983 C982 1.367 . S
C983 C985 1.433 . S
C984 C980 1.350 . S
C984 C981 1.463 . S
C984 N988 1.427 . S
C985 H975 0.929 . S
C985 C983 1.433 . S
C985 N988 1.384 . S
C986 H977 0.929 . S
C986 C978 1.378 . S
C986 C981 1.350 . S
C987 H974 0.929 . S
C987 C979 1.433 . S
C987 N989 1.384 . S
N988 C984 1.427 . S
N988 C985 1.384 . S
N989 C981 1.427 . S
N989 C987 1.384 . S
H990 C996 0.930 . S
H991 C1000 0.930 . S
H992 C1005 0.929 . S
H993 C1003 0.929 . S
H994 C998 0.929 . S
H995 C1004 0.929 . S
C996 H990 0.930 . S
C996 C997 1.367 . S
C996 C1004 1.378 . S
C997 C996 1.367 . S
C997 C1005 1.433 . S
C998 H994 0.929 . S
C998 C1000 1.378 . S
C998 C1002 1.350 . S
C999 C1002 1.463 . S
C999 C1004 1.350 . S
C999 N1007 1.427 . S
C1000 H991 0.930 . S
C1000 C998 1.378 . S
C1000 C1001 1.367 . S
C1001 C1000 1.367 . S
C1001 C1003 1.433 . S
C1002 C998 1.350 . S
C1002 C999 1.463 . S
C1002 N1006 1.427 . S
C1003 H993 0.929 . S
C1003 C1001 1.433 . S
C1003 N1006 1.384 . S
C1004 H995 0.929 . S
C1004 C996 1.378 . S
C1004 C999 1.350 . S
C1005 H992 0.929 . S
C1005 C997 1.433 . S
C1005 N1007 1.384 . S
N1006 C1002 1.427 . S
N1006 C1003 1.384 . S
N1007 C999 1.427 . S
N1007 C1005 1.384 . S
H1008 C1014 0.930 . S
H1009 C1018 0.930 . S
H1010 C1023 0.929 . S
H1011 C1021 0.929 . S
H1012 C1016 0.929 . S
H1013 C1022 0.929 . S
C1014 H1008 0.930 . S
C1014 C1015 1.367 . S
C1014 C1022 1.378 . S
C1015 C1014 1.367 . S
C1015 C1023 1.433 . S
C1016 H1012 0.929 . S
C1016 C1018 1.378 . S
C1016 C1020 1.350 . S
C1017 C1020 1.463 . S
C1017 C1022 1.350 . S
C1017 N1025 1.427 . S
C1018 H1009 0.930 . S
C1018 C1016 1.378 . S
C1018 C1019 1.367 . S
C1019 C1018 1.367 . S
C1019 C1021 1.433 . S
C1020 C1016 1.350 . S
C1020 C1017 1.463 . S
C1020 N1024 1.427 . S
C1021 H1011 0.929 . S
C1021 C1019 1.433 . S
C1021 N1024 1.384 . S
C1022 H1013 0.929 . S
C1022 C1014 1.378 . S
C1022 C1017 1.350 . S
C1023 H1010 0.929 . S
C1023 C1015 1.433 . S
C1023 N1025 1.384 . S
N1024 C1020 1.427 . S
N1024 C1021 1.384 . S
N1025 C1017 1.427 . S
N1025 C1023 1.384 . S
H1026 C1032 0.930 . S
H1027 C1036 0.930 . S
H1028 C1041 0.929 . S
H1029 C1039 0.929 . S
H1030 C1034 0.929 . S
H1031 C1040 0.929 . S
C1032 H1026 0.930 . S
C1032 C1033 1.367 . S
C1032 C1040 1.378 . S
C1033 C1032 1.367 . S
C1033 C1041 1.433 . S
C1034 H1030 0.929 . S
C1034 C1036 1.378 . S
C1034 C1038 1.350 . S
C1035 C1038 1.463 . S
C1035 C1040 1.350 . S
C1035 N1043 1.427 . S
C1036 H1027 0.930 . S
C1036 C1034 1.378 . S
C1036 C1037 1.367 . S
C1037 C1036 1.367 . S
C1037 C1039 1.433 . S
C1038 C1034 1.350 . S
C1038 C1035 1.463 . S
C1038 N1042 1.427 . S
C1039 H1029 0.929 . S
C1039 C1037 1.433 . S
C1039 N1042 1.384 . S
C1040 H1031 0.929 . S
C1040 C1032 1.378 . S
C1040 C1035 1.350 . S
C1041 H1028 0.929 . S
C1041 C1033 1.433 . S
C1041 N1043 1.384 . S
N1042 C1038 1.427 . S
N1042 C1039 1.384 . S
N1043 C1035 1.427 . S
N1043 C1041 1.384 . S
H1044 C1050 0.930 . S
H1045 C1054 0.930 . S
H1046 C1059 0.929 . S
H1047 C1057 0.929 . S
H1048 C1052 0.929 . S
H1049 C1058 0.929 . S
C1050 H1044 0.930 . S
C1050 C1051 1.367 . S
C1050 C1058 1.378 . S
C1051 C1050 1.367 . S
C1051 C1059 1.433 . S
C1052 H1048 0.929 . S
C1052 C1054 1.378 . S
C1052 C1056 1.350 . S
C1053 C1056 1.463 . S
C1053 C1058 1.350 . S
C1053 N1061 1.427 . S
C1054 H1045 0.930 . S
C1054 C1052 1.378 . S
C1054 C1055 1.367 . S
C1055 C1054 1.367 . S
C1055 C1057 1.433 . S
C1056 C1052 1.350 . S
C1056 C1053 1.463 . S
C1056 N1060 1.427 . S
C1057 H1047 0.929 . S
C1057 C1055 1.433 . S
C1057 N1060 1.384 . S
C1058 H1049 0.929 . S
C1058 C1050 1.378 . S
C1058 C1053 1.350 . S
C1059 H1046 0.929 . S
C1059 C1051 1.433 . S
C1059 N1061 1.384 . S
N1060 C1056 1.427 . S
N1060 C1057 1.384 . S
N1061 C1053 1.427 . S
N1061 C1059 1.384 . S
H1062 C1068 0.930 . S
H1063 C1072 0.930 . S
H1064 C1077 0.929 . S
H1065 C1075 0.929 . S
H1066 C1070 0.929 . S
H1067 C1076 0.929 . S
C1068 H1062 0.930 . S
C1068 C1069 1.367 . S
C1068 C1076 1.378 . S
C1069 C1068 1.367 . S
C1069 C1077 1.433 . S
C1070 H1066 0.929 . S
C1070 C1072 1.378 . S
C1070 C1074 1.350 . S
C1071 C1074 1.463 . S
C1071 C1076 1.350 . S
C1071 N1079 1.427 . S
C1072 H1063 0.930 . S
C1072 C1070 1.378 . S
C1072 C1073 1.367 . S
C1073 C1072 1.367 . S
C1073 C1075 1.433 . S
C1074 C1070 1.350 . S
C1074 C1071 1.463 . S
C1074 N1078 1.427 . S
C1075 H1065 0.929 . S
C1075 C1073 1.433 . S
C1075 N1078 1.384 . S
C1076 H1067 0.929 . S
C1076 C1068 1.378 . S
C1076 C1071 1.350 . S
C1077 H1064 0.929 . S
C1077 C1069 1.433 . S
C1077 N1079 1.384 . S
N1078 C1074 1.427 . S
N1078 C1075 1.384 . S
N1079 C1071 1.427 . S
N1079 C1077 1.384 . S
H1080 C1086 0.930 . S
H1081 C1090 0.930 . S
H1082 C1095 0.929 . S
H1083 C1093 0.929 . S
H1084 C1088 0.929 . S
H1085 C1094 0.929 . S
C1086 H1080 0.930 . S
C1086 C1087 1.367 . S
C1086 C1094 1.378 . S
C1087 C1086 1.367 . S
C1087 C1095 1.433 . S
C1088 H1084 0.929 . S
C1088 C1090 1.378 . S
C1088 C1092 1.350 . S
C1089 C1092 1.463 . S
C1089 C1094 1.350 . S
C1089 N1097 1.427 . S
C1090 H1081 0.930 . S
C1090 C1088 1.378 . S
C1090 C1091 1.367 . S
C1091 C1090 1.367 . S
C1091 C1093 1.433 . S
C1092 C1088 1.350 . S
C1092 C1089 1.463 . S
C1092 N1096 1.427 . S
C1093 H1083 0.929 . S
C1093 C1091 1.433 . S
C1093 N1096 1.384 . S
C1094 H1085 0.929 . S
C1094 C1086 1.378 . S
C1094 C1089 1.350 . S
C1095 H1082 0.929 . S
C1095 C1087 1.433 . S
C1095 N1097 1.384 . S
N1096 C1092 1.427 . S
N1096 C1093 1.384 . S
N1097 C1089 1.427 . S
N1097 C1095 1.384 . S
H1098 C1104 0.930 . S
H1099 C1108 0.930 . S
H1100 C1113 0.929 . S
H1101 C1111 0.929 . S
H1102 C1106 0.929 . S
H1103 C1112 0.929 . S
C1104 H1098 0.930 . S
C1104 C1105 1.367 . S
C1104 C1112 1.378 . S
C1105 C1104 1.367 . S
C1105 C1113 1.433 . S
C1106 H1102 0.929 . S
C1106 C1108 1.378 . S
C1106 C1110 1.350 . S
C1107 C1110 1.463 . S
C1107 C1112 1.350 . S
C1107 N1115 1.427 . S
C1108 H1099 0.930 . S
C1108 C1106 1.378 . S
C1108 C1109 1.367 . S
C1109 C1108 1.367 . S
C1109 C1111 1.433 . S
C1110 C1106 1.350 . S
C1110 C1107 1.463 . S
C1110 N1114 1.427 . S
C1111 H1101 0.929 . S
C1111 C1109 1.433 . S
C1111 N1114 1.384 . S
C1112 H1103 0.929 . S
C1112 C1104 1.378 . S
C1112 C1107 1.350 . S
C1113 H1100 0.929 . S
C1113 C1105 1.433 . S
C1113 N1115 1.384 . S
N1114 C1110 1.427 . S
N1114 C1111 1.384 . S
N1115 C1107 1.427 . S
N1115 C1113 1.384 . S
H1116 C1122 0.930 . S
H1117 C1126 0.930 . S
H1118 C1131 0.929 . S
H1119 C1129 0.929 . S
H1120 C1124 0.929 . S
H1121 C1130 0.929 . S
C1122 H1116 0.930 . S
C1122 C1123 1.367 . S
C1122 C1130 1.378 . S
C1123 C1122 1.367 . S
C1123 C1131 1.433 . S
C1124 H1120 0.929 . S
C1124 C1126 1.378 . S
C1124 C1128 1.350 . S
C1125 C1128 1.463 . S
C1125 C1130 1.350 . S
C1125 N1133 1.427 . S
C1126 H1117 0.930 . S
C1126 C1124 1.378 . S
C1126 C1127 1.367 . S
C1127 C1126 1.367 . S
C1127 C1129 1.433 . S
C1128 C1124 1.350 . S
C1128 C1125 1.463 . S
C1128 N1132 1.427 . S
C1129 H1119 0.929 . S
C1129 C1127 1.433 . S
C1129 N1132 1.384 . S
C1130 H1121 0.929 . S
C1130 C1122 1.378 . S
C1130 C1125 1.350 . S
C1131 H1118 0.929 . S
C1131 C1123 1.433 . S
C1131 N1133 1.384 . S
N1132 C1128 1.427 . S
N1132 C1129 1.384 . S
N1133 C1125 1.427 . S
N1133 C1131 1.384 . S
H1134 C1140 0.930 . S
H1135 C1144 0.930 . S
H1136 C1149 0.929 . S
H1137 C1147 0.929 . S
H1138 C1142 0.929 . S
H1139 C1148 0.929 . S
C1140 H1134 0.930 . S
C1140 C1141 1.367 . S
C1140 C1148 1.378 . S
C1141 C1140 1.367 . S
C1141 C1149 1.433 . S
C1142 H1138 0.929 . S
C1142 C1144 1.378 . S
C1142 C1146 1.350 . S
C1143 C1146 1.463 . S
C1143 C1148 1.350 . S
C1143 N1151 1.427 . S
C1144 H1135 0.930 . S
C1144 C1142 1.378 . S
C1144 C1145 1.367 . S
C1145 C1144 1.367 . S
C1145 C1147 1.433 . S
C1146 C1142 1.350 . S
C1146 C1143 1.463 . S
C1146 N1150 1.427 . S
C1147 H1137 0.929 . S
C1147 C1145 1.433 . S
C1147 N1150 1.384 . S
C1148 H1139 0.929 . S
C1148 C1140 1.378 . S
C1148 C1143 1.350 . S
C1149 H1136 0.929 . S
C1149 C1141 1.433 . S
C1149 N1151 1.384 . S
N1150 C1146 1.427 . S
N1150 C1147 1.384 . S
N1151 C1143 1.427 . S
N1151 C1149 1.384 . S
H1152 C1158 0.930 . S
H1153 C1162 0.930 . S
H1154 C1167 0.929 . S
H1155 C1165 0.929 . S
H1156 C1160 0.929 . S
H1157 C1166 0.929 . S
C1158 H1152 0.930 . S
C1158 C1159 1.367 . S
C1158 C1166 1.378 . S
C1159 C1158 1.367 . S
C1159 C1167 1.433 . S
C1160 H1156 0.929 . S
C1160 C1162 1.378 . S
C1160 C1164 1.350 . S
C1161 C1164 1.463 . S
C1161 C1166 1.350 . S
C1161 N1169 1.427 . S
C1162 H1153 0.930 . S
C1162 C1160 1.378 . S
C1162 C1163 1.367 . S
C1163 C1162 1.367 . S
C1163 C1165 1.433 . S
C1164 C1160 1.350 . S
C1164 C1161 1.463 . S
C1164 N1168 1.427 . S
C1165 H1155 0.929 . S
C1165 C1163 1.433 . S
C1165 N1168 1.384 . S
C1166 H1157 0.929 . S
C1166 C1158 1.378 . S
C1166 C1161 1.350 . S
C1167 H1154 0.929 . S
C1167 C1159 1.433 . S
C1167 N1169 1.384 . S
N1168 C1164 1.427 . S
N1168 C1165 1.384 . S
N1169 C1161 1.427 . S
N1169 C1167 1.384 . S
H1170 C1176 0.930 . S
H1171 C1180 0.930 . S
H1172 C1185 0.929 . S
H1173 C1183 0.929 . S
H1174 C1178 0.929 . S
H1175 C1184 0.929 . S
C1176 H1170 0.930 . S
C1176 C1177 1.367 . S
C1176 C1184 1.378 . S
C1177 C1176 1.367 . S
C1177 C1185 1.433 . S
C1178 H1174 0.929 . S
C1178 C1180 1.378 . S
C1178 C1182 1.350 . S
C1179 C1182 1.463 1_565 S
C1179 C1184 1.350 . S
C1179 N1187 1.427 . S
C1180 H1171 0.930 . S
C1180 C1178 1.378 . S
C1180 C1181 1.367 . S
C1181 C1180 1.367 . S
C1181 C1183 1.433 . S
C1182 C1178 1.350 . S
C1182 C1179 1.463 1_545 S
C1182 N1186 1.427 . S
C1183 H1173 0.929 . S
C1183 C1181 1.433 . S
C1183 N1186 1.384 . S
C1184 H1175 0.929 . S
C1184 C1176 1.378 . S
C1184 C1179 1.350 . S
C1185 H1172 0.929 . S
C1185 C1177 1.433 . S
C1185 N1187 1.384 . S
N1186 C1182 1.427 . S
N1186 C1183 1.384 . S
N1187 C1179 1.427 . S
N1187 C1185 1.384 . S
H1188 C1194 0.930 . S
H1189 C1198 0.930 . S
H1190 C1203 0.929 . S
H1191 C1201 0.929 . S
H1192 C1196 0.929 . S
H1193 C1202 0.929 . S
C1194 H1188 0.930 . S
C1194 C1195 1.367 . S
C1194 C1202 1.378 . S
C1195 C1194 1.367 . S
C1195 C1203 1.433 . S
C1196 H1192 0.929 . S
C1196 C1198 1.378 . S
C1196 C1200 1.350 . S
C1197 C1200 1.463 1_655 S
C1197 C1202 1.350 . S
C1197 N1205 1.427 . S
C1198 H1189 0.930 . S
C1198 C1196 1.378 . S
C1198 C1199 1.367 . S
C1199 C1198 1.367 . S
C1199 C1201 1.433 . S
C1200 C1196 1.350 . S
C1200 C1197 1.463 1_455 S
C1200 N1204 1.427 . S
C1201 H1191 0.929 . S
C1201 C1199 1.433 . S
C1201 N1204 1.384 . S
C1202 H1193 0.929 . S
C1202 C1194 1.378 . S
C1202 C1197 1.350 . S
C1203 H1190 0.929 . S
C1203 C1195 1.433 . S
C1203 N1205 1.384 . S
N1204 C1200 1.427 . S
N1204 C1201 1.384 . S
N1205 C1197 1.427 . S
N1205 C1203 1.384 . S
H1206 C1212 0.930 . S
H1207 C1216 0.930 . S
H1208 C1221 0.929 . S
H1209 C1219 0.929 . S
H1210 C1214 0.929 . S
H1211 C1220 0.929 . S
C1212 H1206 0.930 . S
C1212 C1213 1.367 . S
C1212 C1220 1.378 . S
C1213 C1212 1.367 . S
C1213 C1221 1.433 . S
C1214 H1210 0.929 . S
C1214 C1216 1.378 . S
C1214 C1218 1.350 . S
C1215 C1218 1.463 . S
C1215 C1220 1.350 . S
C1215 N1223 1.427 . S
C1216 H1207 0.930 . S
C1216 C1214 1.378 . S
C1216 C1217 1.367 . S
C1217 C1216 1.367 . S
C1217 C1219 1.433 . S
C1218 C1214 1.350 . S
C1218 C1215 1.463 . S
C1218 N1222 1.427 . S
C1219 H1209 0.929 . S
C1219 C1217 1.433 . S
C1219 N1222 1.384 . S
C1220 H1211 0.929 . S
C1220 C1212 1.378 . S
C1220 C1215 1.350 . S
C1221 H1208 0.929 . S
C1221 C1213 1.433 . S
C1221 N1223 1.384 . S
N1222 C1218 1.427 . S
N1222 C1219 1.384 . S
N1223 C1215 1.427 . S
N1223 C1221 1.384 . S
H1224 C1230 0.930 . S
H1225 C1234 0.930 . S
H1226 C1239 0.929 . S
H1227 C1237 0.929 . S
H1228 C1232 0.929 . S
H1229 C1238 0.929 . S
C1230 H1224 0.930 . S
C1230 C1231 1.367 . S
C1230 C1238 1.378 . S
C1231 C1230 1.367 . S
C1231 C1239 1.433 . S
C1232 H1228 0.929 . S
C1232 C1234 1.378 . S
C1232 C1236 1.350 . S
C1233 C1236 1.463 1_545 S
C1233 C1238 1.350 . S
C1233 N1241 1.427 . S
C1234 H1225 0.930 . S
C1234 C1232 1.378 . S
C1234 C1235 1.367 . S
C1235 C1234 1.367 . S
C1235 C1237 1.433 . S
C1236 C1232 1.350 . S
C1236 C1233 1.463 1_565 S
C1236 N1240 1.427 . S
C1237 H1227 0.929 . S
C1237 C1235 1.433 . S
C1237 N1240 1.384 . S
C1238 H1229 0.929 . S
C1238 C1230 1.378 . S
C1238 C1233 1.350 . S
C1239 H1226 0.929 . S
C1239 C1231 1.433 . S
C1239 N1241 1.384 . S
N1240 C1236 1.427 . S
N1240 C1237 1.384 . S
N1241 C1233 1.427 . S
N1241 C1239 1.384 . S
H1242 C1248 0.930 . S
H1243 C1252 0.930 . S
H1244 C1257 0.929 . S
H1245 C1255 0.929 . S
H1246 C1250 0.929 . S
H1247 C1256 0.929 . S
C1248 H1242 0.930 . S
C1248 C1249 1.367 . S
C1248 C1256 1.378 . S
C1249 C1248 1.367 . S
C1249 C1257 1.433 . S
C1250 H1246 0.929 . S
C1250 C1252 1.378 . S
C1250 C1254 1.350 . S
C1251 C1254 1.463 1_655 S
C1251 C1256 1.350 . S
C1251 N1259 1.427 . S
C1252 H1243 0.930 . S
C1252 C1250 1.378 . S
C1252 C1253 1.367 . S
C1253 C1252 1.367 . S
C1253 C1255 1.433 . S
C1254 C1250 1.350 . S
C1254 C1251 1.463 1_455 S
C1254 N1258 1.427 . S
C1255 H1245 0.929 . S
C1255 C1253 1.433 . S
C1255 N1258 1.384 . S
C1256 H1247 0.929 . S
C1256 C1248 1.378 . S
C1256 C1251 1.350 . S
C1257 H1244 0.929 . S
C1257 C1249 1.433 . S
C1257 N1259 1.384 . S
N1258 C1254 1.427 . S
N1258 C1255 1.384 . S
N1259 C1251 1.427 . S
N1259 C1257 1.384 . S
H1260 C1266 0.930 . S
H1261 C1270 0.930 . S
H1262 C1275 0.929 . S
H1263 C1273 0.929 . S
H1264 C1268 0.929 . S
H1265 C1274 0.929 . S
C1266 H1260 0.930 . S
C1266 C1267 1.367 . S
C1266 C1274 1.378 . S
C1267 C1266 1.367 . S
C1267 C1275 1.433 . S
C1268 H1264 0.929 . S
C1268 C1270 1.378 . S
C1268 C1272 1.350 . S
C1269 C1272 1.463 . S
C1269 C1274 1.350 . S
C1269 N1277 1.427 . S
C1270 H1261 0.930 . S
C1270 C1268 1.378 . S
C1270 C1271 1.367 . S
C1271 C1270 1.367 . S
C1271 C1273 1.433 . S
C1272 C1268 1.350 . S
C1272 C1269 1.463 . S
C1272 N1276 1.427 . S
C1273 H1263 0.929 . S
C1273 C1271 1.433 . S
C1273 N1276 1.384 . S
C1274 H1265 0.929 . S
C1274 C1266 1.378 . S
C1274 C1269 1.350 . S
C1275 H1262 0.929 . S
C1275 C1267 1.433 . S
C1275 N1277 1.384 . S
N1276 C1272 1.427 . S
N1276 C1273 1.384 . S
N1277 C1269 1.427 . S
N1277 C1275 1.384 . S
H1278 C1284 0.930 . S
H1279 C1288 0.930 . S
H1280 C1293 0.929 . S
H1281 C1291 0.929 . S
H1282 C1286 0.929 . S
H1283 C1292 0.929 . S
C1284 H1278 0.930 . S
C1284 C1285 1.367 . S
C1284 C1292 1.378 . S
C1285 C1284 1.367 . S
C1285 C1293 1.433 . S
C1286 H1282 0.929 . S
C1286 C1288 1.378 . S
C1286 C1290 1.350 . S
C1287 C1290 1.463 . S
C1287 C1292 1.350 . S
C1287 N1295 1.427 . S
C1288 H1279 0.930 . S
C1288 C1286 1.378 . S
C1288 C1289 1.367 . S
C1289 C1288 1.367 . S
C1289 C1291 1.433 . S
C1290 C1286 1.350 . S
C1290 C1287 1.463 . S
C1290 N1294 1.427 . S
C1291 H1281 0.929 . S
C1291 C1289 1.433 . S
C1291 N1294 1.384 . S
C1292 H1283 0.929 . S
C1292 C1284 1.378 . S
C1292 C1287 1.350 . S
C1293 H1280 0.929 . S
C1293 C1285 1.433 . S
C1293 N1295 1.384 . S
N1294 C1290 1.427 . S
N1294 C1291 1.384 . S
N1295 C1287 1.427 . S
N1295 C1293 1.384 . S
H1296 C1302 0.930 . S
H1297 C1306 0.930 . S
H1298 C1311 0.929 . S
H1299 C1309 0.929 . S
H1300 C1304 0.929 . S
H1301 C1310 0.929 . S
C1302 H1296 0.930 . S
C1302 C1303 1.367 . S
C1302 C1310 1.378 . S
C1303 C1302 1.367 . S
C1303 C1311 1.433 . S
C1304 H1300 0.929 . S
C1304 C1306 1.378 . S
C1304 C1308 1.350 . S
C1305 C1308 1.463 . S
C1305 C1310 1.350 . S
C1305 N1313 1.427 . S
C1306 H1297 0.930 . S
C1306 C1304 1.378 . S
C1306 C1307 1.367 . S
C1307 C1306 1.367 . S
C1307 C1309 1.433 . S
C1308 C1304 1.350 . S
C1308 C1305 1.463 . S
C1308 N1312 1.427 . S
C1309 H1299 0.929 . S
C1309 C1307 1.433 . S
C1309 N1312 1.384 . S
C1310 H1301 0.929 . S
C1310 C1302 1.378 . S
C1310 C1305 1.350 . S
C1311 H1298 0.929 . S
C1311 C1303 1.433 . S
C1311 N1313 1.384 . S
N1312 C1308 1.427 . S
N1312 C1309 1.384 . S
N1313 C1305 1.427 . S
N1313 C1311 1.384 . S
H1314 C1320 0.930 . S
H1315 C1324 0.930 . S
H1316 C1329 0.929 . S
H1317 C1327 0.929 . S
H1318 C1322 0.929 . S
H1319 C1328 0.929 . S
C1320 H1314 0.930 . S
C1320 C1321 1.367 . S
C1320 C1328 1.378 . S
C1321 C1320 1.367 . S
C1321 C1329 1.433 . S
C1322 H1318 0.929 . S
C1322 C1324 1.378 . S
C1322 C1326 1.350 . S
C1323 C1326 1.463 . S
C1323 C1328 1.350 . S
C1323 N1331 1.427 . S
C1324 H1315 0.930 . S
C1324 C1322 1.378 . S
C1324 C1325 1.367 . S
C1325 C1324 1.367 . S
C1325 C1327 1.433 . S
C1326 C1322 1.350 . S
C1326 C1323 1.463 . S
C1326 N1330 1.427 . S
C1327 H1317 0.929 . S
C1327 C1325 1.433 . S
C1327 N1330 1.384 . S
C1328 H1319 0.929 . S
C1328 C1320 1.378 . S
C1328 C1323 1.350 . S
C1329 H1316 0.929 . S
C1329 C1321 1.433 . S
C1329 N1331 1.384 . S
N1330 C1326 1.427 . S
N1330 C1327 1.384 . S
N1331 C1323 1.427 . S
N1331 C1329 1.384 . S
H1332 C1338 0.930 . S
H1333 C1342 0.930 . S
H1334 C1347 0.929 . S
H1335 C1345 0.929 . S
H1336 C1340 0.929 . S
H1337 C1346 0.929 . S
C1338 H1332 0.930 . S
C1338 C1339 1.367 . S
C1338 C1346 1.378 . S
C1339 C1338 1.367 . S
C1339 C1347 1.433 . S
C1340 H1336 0.929 . S
C1340 C1342 1.378 . S
C1340 C1344 1.350 . S
C1341 C1344 1.463 . S
C1341 C1346 1.350 . S
C1341 N1349 1.427 . S
C1342 H1333 0.930 . S
C1342 C1340 1.378 . S
C1342 C1343 1.367 . S
C1343 C1342 1.367 . S
C1343 C1345 1.433 . S
C1344 C1340 1.350 . S
C1344 C1341 1.463 . S
C1344 N1348 1.427 . S
C1345 H1335 0.929 . S
C1345 C1343 1.433 . S
C1345 N1348 1.384 . S
C1346 H1337 0.929 . S
C1346 C1338 1.378 . S
C1346 C1341 1.350 . S
C1347 H1334 0.929 . S
C1347 C1339 1.433 . S
C1347 N1349 1.384 . S
N1348 C1344 1.427 . S
N1348 C1345 1.384 . S
N1349 C1341 1.427 . S
N1349 C1347 1.384 . S
H1350 C1356 0.930 . S
H1351 C1360 0.930 . S
H1352 C1365 0.929 . S
H1353 C1363 0.929 . S
H1354 C1358 0.929 . S
H1355 C1364 0.929 . S
C1356 H1350 0.930 . S
C1356 C1357 1.367 . S
C1356 C1364 1.378 . S
C1357 C1356 1.367 . S
C1357 C1365 1.433 . S
C1358 H1354 0.929 . S
C1358 C1360 1.378 . S
C1358 C1362 1.350 . S
C1359 C1362 1.463 . S
C1359 C1364 1.350 . S
C1359 N1367 1.427 . S
C1360 H1351 0.930 . S
C1360 C1358 1.378 . S
C1360 C1361 1.367 . S
C1361 C1360 1.367 . S
C1361 C1363 1.433 . S
C1362 C1358 1.350 . S
C1362 C1359 1.463 . S
C1362 N1366 1.427 . S
C1363 H1353 0.929 . S
C1363 C1361 1.433 . S
C1363 N1366 1.384 . S
C1364 H1355 0.929 . S
C1364 C1356 1.378 . S
C1364 C1359 1.350 . S
C1365 H1352 0.929 . S
C1365 C1357 1.433 . S
C1365 N1367 1.384 . S
N1366 C1362 1.427 . S
N1366 C1363 1.384 . S
N1367 C1359 1.427 . S
N1367 C1365 1.384 . S
H1368 C1374 0.930 . S
H1369 C1378 0.930 . S
H1370 C1383 0.929 . S
H1371 C1381 0.929 . S
H1372 C1376 0.929 . S
H1373 C1382 0.929 . S
C1374 H1368 0.930 . S
C1374 C1375 1.367 . S
C1374 C1382 1.378 . S
C1375 C1374 1.367 . S
C1375 C1383 1.433 . S
C1376 H1372 0.929 . S
C1376 C1378 1.378 . S
C1376 C1380 1.350 . S
C1377 C1380 1.463 . S
C1377 C1382 1.350 . S
C1377 N1385 1.427 . S
C1378 H1369 0.930 . S
C1378 C1376 1.378 . S
C1378 C1379 1.367 . S
C1379 C1378 1.367 . S
C1379 C1381 1.433 . S
C1380 C1376 1.350 . S
C1380 C1377 1.463 . S
C1380 N1384 1.427 . S
C1381 H1371 0.929 . S
C1381 C1379 1.433 . S
C1381 N1384 1.384 . S
C1382 H1373 0.929 . S
C1382 C1374 1.378 . S
C1382 C1377 1.350 . S
C1383 H1370 0.929 . S
C1383 C1375 1.433 . S
C1383 N1385 1.384 . S
N1384 C1380 1.427 . S
N1384 C1381 1.384 . S
N1385 C1377 1.427 . S
N1385 C1383 1.384 . S
H1386 C1392 0.930 . S
H1387 C1396 0.930 . S
H1388 C1401 0.928 . S
H1389 C1399 0.929 . S
H1390 C1394 0.929 . S
H1391 C1400 0.929 . S
C1392 H1386 0.930 . S
C1392 C1393 1.367 . S
C1392 C1400 1.378 . S
C1393 C1392 1.367 . S
C1393 C1401 1.433 . S
C1394 H1390 0.929 . S
C1394 C1396 1.378 . S
C1394 C1398 1.350 . S
C1395 C1398 1.463 . S
C1395 C1400 1.350 . S
C1395 N1403 1.427 . S
C1396 H1387 0.930 . S
C1396 C1394 1.378 . S
C1396 C1397 1.367 . S
C1397 C1396 1.367 . S
C1397 C1399 1.433 . S
C1398 C1394 1.350 . S
C1398 C1395 1.463 . S
C1398 N1402 1.427 . S
C1399 H1389 0.929 . S
C1399 C1397 1.433 . S
C1399 N1402 1.384 . S
C1400 H1391 0.929 . S
C1400 C1392 1.378 . S
C1400 C1395 1.350 . S
C1401 H1388 0.928 . S
C1401 C1393 1.433 . S
C1401 N1403 1.384 . S
N1402 C1398 1.427 . S
N1402 C1399 1.384 . S
N1403 C1395 1.427 . S
N1403 C1401 1.384 . S
H1404 C1410 0.930 . S
H1405 C1414 0.930 . S
H1406 C1419 0.929 . S
H1407 C1417 0.929 . S
H1408 C1412 0.929 . S
H1409 C1418 0.929 . S
C1410 H1404 0.930 . S
C1410 C1411 1.367 . S
C1410 C1418 1.378 . S
C1411 C1410 1.367 . S
C1411 C1419 1.433 . S
C1412 H1408 0.929 . S
C1412 C1414 1.378 . S
C1412 C1416 1.350 . S
C1413 C1416 1.463 . S
C1413 C1418 1.350 . S
C1413 N1421 1.427 . S
C1414 H1405 0.930 . S
C1414 C1412 1.378 . S
C1414 C1415 1.367 . S
C1415 C1414 1.367 . S
C1415 C1417 1.433 . S
C1416 C1412 1.350 . S
C1416 C1413 1.463 . S
C1416 N1420 1.427 . S
C1417 H1407 0.929 . S
C1417 C1415 1.433 . S
C1417 N1420 1.384 . S
C1418 H1409 0.929 . S
C1418 C1410 1.378 . S
C1418 C1413 1.350 . S
C1419 H1406 0.929 . S
C1419 C1411 1.433 . S
C1419 N1421 1.384 . S
N1420 C1416 1.427 . S
N1420 C1417 1.384 . S
N1421 C1413 1.427 . S
N1421 C1419 1.384 . S
H1422 C1428 0.930 . S
H1423 C1432 0.930 . S
H1424 C1437 0.929 . S
H1425 C1435 0.929 . S
H1426 C1430 0.929 . S
H1427 C1436 0.929 . S
C1428 H1422 0.930 . S
C1428 C1429 1.367 . S
C1428 C1436 1.378 . S
C1429 C1428 1.367 . S
C1429 C1437 1.433 . S
C1430 H1426 0.929 . S
C1430 C1432 1.378 . S
C1430 C1434 1.350 . S
C1431 C1434 1.463 . S
C1431 C1436 1.350 . S
C1431 N1439 1.427 . S
C1432 H1423 0.930 . S
C1432 C1430 1.378 . S
C1432 C1433 1.367 . S
C1433 C1432 1.367 . S
C1433 C1435 1.433 . S
C1434 C1430 1.350 . S
C1434 C1431 1.463 . S
C1434 N1438 1.427 . S
C1435 H1425 0.929 . S
C1435 C1433 1.433 . S
C1435 N1438 1.384 . S
C1436 H1427 0.929 . S
C1436 C1428 1.378 . S
C1436 C1431 1.350 . S
C1437 H1424 0.929 . S
C1437 C1429 1.433 . S
C1437 N1439 1.384 . S
N1438 C1434 1.427 . S
N1438 C1435 1.384 . S
N1439 C1431 1.427 . S
N1439 C1437 1.384 . S
H1440 C1446 0.930 . S
H1441 C1450 0.930 . S
H1442 C1455 0.929 . S
H1443 C1453 0.929 . S
H1444 C1448 0.929 . S
H1445 C1454 0.929 . S
C1446 H1440 0.930 . S
C1446 C1447 1.367 . S
C1446 C1454 1.378 . S
C1447 C1446 1.367 . S
C1447 C1455 1.433 . S
C1448 H1444 0.929 . S
C1448 C1450 1.378 . S
C1448 C1452 1.350 . S
C1449 C1452 1.463 . S
C1449 C1454 1.350 . S
C1449 N1457 1.427 . S
C1450 H1441 0.930 . S
C1450 C1448 1.378 . S
C1450 C1451 1.367 . S
C1451 C1450 1.367 . S
C1451 C1453 1.433 . S
C1452 C1448 1.350 . S
C1452 C1449 1.463 . S
C1452 N1456 1.427 . S
C1453 H1443 0.929 . S
C1453 C1451 1.433 . S
C1453 N1456 1.384 . S
C1454 H1445 0.929 . S
C1454 C1446 1.378 . S
C1454 C1449 1.350 . S
C1455 H1442 0.929 . S
C1455 C1447 1.433 . S
C1455 N1457 1.384 . S
N1456 C1452 1.427 . S
N1456 C1453 1.384 . S
N1457 C1449 1.427 . S
N1457 C1455 1.384 . S
H1458 C1464 0.930 . S
H1459 C1468 0.930 . S
H1460 C1473 0.929 . S
H1461 C1471 0.929 . S
H1462 C1466 0.929 . S
H1463 C1472 0.929 . S
C1464 H1458 0.930 . S
C1464 C1465 1.367 . S
C1464 C1472 1.378 . S
C1465 C1464 1.367 . S
C1465 C1473 1.433 . S
C1466 H1462 0.929 . S
C1466 C1468 1.378 . S
C1466 C1470 1.350 . S
C1467 C1470 1.463 . S
C1467 C1472 1.350 . S
C1467 N1475 1.427 . S
C1468 H1459 0.930 . S
C1468 C1466 1.378 . S
C1468 C1469 1.367 . S
C1469 C1468 1.367 . S
C1469 C1471 1.433 . S
C1470 C1466 1.350 . S
C1470 C1467 1.463 . S
C1470 N1474 1.427 . S
C1471 H1461 0.929 . S
C1471 C1469 1.433 . S
C1471 N1474 1.384 . S
C1472 H1463 0.929 . S
C1472 C1464 1.378 . S
C1472 C1467 1.350 . S
C1473 H1460 0.929 . S
C1473 C1465 1.433 . S
C1473 N1475 1.384 . S
N1474 C1470 1.427 . S
N1474 C1471 1.384 . S
N1475 C1467 1.427 . S
N1475 C1473 1.384 . S
H1476 C1482 0.930 . S
H1477 C1486 0.930 . S
H1478 C1491 0.929 . S
H1479 C1489 0.929 . S
H1480 C1484 0.929 . S
H1481 C1490 0.929 . S
C1482 H1476 0.930 . S
C1482 C1483 1.367 . S
C1482 C1490 1.378 . S
C1483 C1482 1.367 . S
C1483 C1491 1.433 . S
C1484 H1480 0.929 . S
C1484 C1486 1.378 . S
C1484 C1488 1.350 . S
C1485 C1488 1.463 . S
C1485 C1490 1.350 . S
C1485 N1493 1.427 . S
C1486 H1477 0.930 . S
C1486 C1484 1.378 . S
C1486 C1487 1.367 . S
C1487 C1486 1.367 . S
C1487 C1489 1.433 . S
C1488 C1484 1.350 . S
C1488 C1485 1.463 . S
C1488 N1492 1.427 . S
C1489 H1479 0.929 . S
C1489 C1487 1.433 . S
C1489 N1492 1.384 . S
C1490 H1481 0.929 . S
C1490 C1482 1.378 . S
C1490 C1485 1.350 . S
C1491 H1478 0.929 . S
C1491 C1483 1.433 . S
C1491 N1493 1.384 . S
N1492 C1488 1.427 . S
N1492 C1489 1.384 . S
N1493 C1485 1.427 . S
N1493 C1491 1.384 . S
H1494 C1500 0.930 . S
H1495 C1504 0.930 . S
H1496 C1509 0.929 . S
H1497 C1507 0.929 . S
H1498 C1502 0.929 . S
H1499 C1508 0.929 . S
C1500 H1494 0.930 . S
C1500 C1501 1.367 . S
C1500 C1508 1.378 . S
C1501 C1500 1.367 . S
C1501 C1509 1.433 . S
C1502 H1498 0.929 . S
C1502 C1504 1.378 . S
C1502 C1506 1.350 . S
C1503 C1506 1.463 . S
C1503 C1508 1.350 . S
C1503 N1511 1.427 . S
C1504 H1495 0.930 . S
C1504 C1502 1.378 . S
C1504 C1505 1.367 . S
C1505 C1504 1.367 . S
C1505 C1507 1.433 . S
C1506 C1502 1.350 . S
C1506 C1503 1.463 . S
C1506 N1510 1.427 . S
C1507 H1497 0.929 . S
C1507 C1505 1.433 . S
C1507 N1510 1.384 . S
C1508 H1499 0.929 . S
C1508 C1500 1.378 . S
C1508 C1503 1.350 . S
C1509 H1496 0.929 . S
C1509 C1501 1.433 . S
C1509 N1511 1.384 . S
N1510 C1506 1.427 . S
N1510 C1507 1.384 . S
N1511 C1503 1.427 . S
N1511 C1509 1.384 . S
H1512 C1518 0.930 . S
H1513 C1522 0.930 . S
H1514 C1527 0.929 . S
H1515 C1525 0.929 . S
H1516 C1520 0.929 . S
H1517 C1526 0.929 . S
C1518 H1512 0.930 . S
C1518 C1519 1.367 . S
C1518 C1526 1.378 . S
C1519 C1518 1.367 . S
C1519 C1527 1.433 . S
C1520 H1516 0.929 . S
C1520 C1522 1.378 . S
C1520 C1524 1.350 . S
C1521 C1524 1.463 . S
C1521 C1526 1.350 . S
C1521 N1529 1.427 . S
C1522 H1513 0.930 . S
C1522 C1520 1.378 . S
C1522 C1523 1.367 . S
C1523 C1522 1.367 . S
C1523 C1525 1.433 . S
C1524 C1520 1.350 . S
C1524 C1521 1.463 . S
C1524 N1528 1.427 . S
C1525 H1515 0.929 . S
C1525 C1523 1.433 . S
C1525 N1528 1.384 . S
C1526 H1517 0.929 . S
C1526 C1518 1.378 . S
C1526 C1521 1.350 . S
C1527 H1514 0.929 . S
C1527 C1519 1.433 . S
C1527 N1529 1.384 . S
N1528 C1524 1.427 . S
N1528 C1525 1.384 . S
N1529 C1521 1.427 . S
N1529 C1527 1.384 . S
H1530 C1536 0.930 . S
H1531 C1540 0.930 . S
H1532 C1545 0.929 . S
H1533 C1543 0.929 . S
H1534 C1538 0.929 . S
H1535 C1544 0.929 . S
C1536 H1530 0.930 . S
C1536 C1537 1.367 . S
C1536 C1544 1.378 . S
C1537 C1536 1.367 . S
C1537 C1545 1.433 . S
C1538 H1534 0.929 . S
C1538 C1540 1.378 . S
C1538 C1542 1.350 . S
C1539 C1542 1.463 . S
C1539 C1544 1.350 . S
C1539 N1547 1.427 . S
C1540 H1531 0.930 . S
C1540 C1538 1.378 . S
C1540 C1541 1.367 . S
C1541 C1540 1.367 . S
C1541 C1543 1.433 . S
C1542 C1538 1.350 . S
C1542 C1539 1.463 . S
C1542 N1546 1.427 . S
C1543 H1533 0.929 . S
C1543 C1541 1.433 . S
C1543 N1546 1.384 . S
C1544 H1535 0.929 . S
C1544 C1536 1.378 . S
C1544 C1539 1.350 . S
C1545 H1532 0.929 . S
C1545 C1537 1.433 . S
C1545 N1547 1.384 . S
N1546 C1542 1.427 . S
N1546 C1543 1.384 . S
N1547 C1539 1.427 . S
N1547 C1545 1.384 . S
H1548 C1554 0.930 . S
H1549 C1558 0.930 . S
H1550 C1563 0.929 . S
H1551 C1561 0.929 . S
H1552 C1556 0.929 . S
H1553 C1562 0.929 . S
C1554 H1548 0.930 . S
C1554 C1555 1.367 . S
C1554 C1562 1.378 . S
C1555 C1554 1.367 . S
C1555 C1563 1.433 . S
C1556 H1552 0.929 . S
C1556 C1558 1.378 . S
C1556 C1560 1.350 . S
C1557 C1560 1.463 . S
C1557 C1562 1.350 . S
C1557 N1565 1.427 . S
C1558 H1549 0.930 . S
C1558 C1556 1.378 . S
C1558 C1559 1.367 . S
C1559 C1558 1.367 . S
C1559 C1561 1.433 . S
C1560 C1556 1.350 . S
C1560 C1557 1.463 . S
C1560 N1564 1.427 . S
C1561 H1551 0.929 . S
C1561 C1559 1.433 . S
C1561 N1564 1.384 . S
C1562 H1553 0.929 . S
C1562 C1554 1.378 . S
C1562 C1557 1.350 . S
C1563 H1550 0.929 . S
C1563 C1555 1.433 . S
C1563 N1565 1.384 . S
N1564 C1560 1.427 . S
N1564 C1561 1.384 . S
N1565 C1557 1.427 . S
N1565 C1563 1.384 . S
H1566 C1572 0.930 . S
H1567 C1576 0.930 . S
H1568 C1581 0.929 . S
H1569 C1579 0.929 . S
H1570 C1574 0.929 . S
H1571 C1580 0.929 . S
C1572 H1566 0.930 . S
C1572 C1573 1.367 . S
C1572 C1580 1.378 . S
C1573 C1572 1.367 . S
C1573 C1581 1.433 . S
C1574 H1570 0.929 . S
C1574 C1576 1.378 . S
C1574 C1578 1.350 . S
C1575 C1578 1.463 . S
C1575 C1580 1.350 . S
C1575 N1583 1.427 . S
C1576 H1567 0.930 . S
C1576 C1574 1.378 . S
C1576 C1577 1.367 . S
C1577 C1576 1.367 . S
C1577 C1579 1.433 . S
C1578 C1574 1.350 . S
C1578 C1575 1.463 . S
C1578 N1582 1.427 . S
C1579 H1569 0.929 . S
C1579 C1577 1.433 . S
C1579 N1582 1.384 . S
C1580 H1571 0.929 . S
C1580 C1572 1.378 . S
C1580 C1575 1.350 . S
C1581 H1568 0.929 . S
C1581 C1573 1.433 . S
C1581 N1583 1.384 . S
N1582 C1578 1.427 . S
N1582 C1579 1.384 . S
N1583 C1575 1.427 . S
N1583 C1581 1.384 . S
H1584 C1590 0.930 . S
H1585 C1594 0.930 . S
H1586 C1599 0.929 . S
H1587 C1597 0.929 . S
H1588 C1592 0.929 . S
H1589 C1598 0.929 . S
C1590 H1584 0.930 . S
C1590 C1591 1.367 . S
C1590 C1598 1.378 . S
C1591 C1590 1.367 . S
C1591 C1599 1.433 . S
C1592 H1588 0.929 . S
C1592 C1594 1.378 . S
C1592 C1596 1.350 . S
C1593 C1596 1.463 . S
C1593 C1598 1.350 . S
C1593 N1601 1.427 . S
C1594 H1585 0.930 . S
C1594 C1592 1.378 . S
C1594 C1595 1.367 . S
C1595 C1594 1.367 . S
C1595 C1597 1.433 . S
C1596 C1592 1.350 . S
C1596 C1593 1.463 . S
C1596 N1600 1.427 . S
C1597 H1587 0.929 . S
C1597 C1595 1.433 . S
C1597 N1600 1.384 . S
C1598 H1589 0.929 . S
C1598 C1590 1.378 . S
C1598 C1593 1.350 . S
C1599 H1586 0.929 . S
C1599 C1591 1.433 . S
C1599 N1601 1.384 . S
N1600 C1596 1.427 . S
N1600 C1597 1.384 . S
N1601 C1593 1.427 . S
N1601 C1599 1.384 . S
H1602 C1608 0.930 . S
H1603 C1612 0.930 . S
H1604 C1617 0.929 . S
H1605 C1615 0.929 . S
H1606 C1610 0.929 . S
H1607 C1616 0.929 . S
C1608 H1602 0.930 . S
C1608 C1609 1.367 . S
C1608 C1616 1.378 . S
C1609 C1608 1.367 . S
C1609 C1617 1.433 . S
C1610 H1606 0.929 . S
C1610 C1612 1.378 . S
C1610 C1614 1.350 . S
C1611 C1614 1.463 . S
C1611 C1616 1.350 . S
C1611 N1619 1.427 . S
C1612 H1603 0.930 . S
C1612 C1610 1.378 . S
C1612 C1613 1.367 . S
C1613 C1612 1.367 . S
C1613 C1615 1.433 . S
C1614 C1610 1.350 . S
C1614 C1611 1.463 . S
C1614 N1618 1.427 . S
C1615 H1605 0.929 . S
C1615 C1613 1.433 . S
C1615 N1618 1.384 . S
C1616 H1607 0.929 . S
C1616 C1608 1.378 . S
C1616 C1611 1.350 . S
C1617 H1604 0.929 . S
C1617 C1609 1.433 . S
C1617 N1619 1.384 . S
N1618 C1614 1.427 . S
N1618 C1615 1.384 . S
N1619 C1611 1.427 . S
N1619 C1617 1.384 . S
H1620 C1626 0.930 . S
H1621 C1630 0.930 . S
H1622 C1635 0.929 . S
H1623 C1633 0.929 . S
H1624 C1628 0.929 . S
H1625 C1634 0.929 . S
C1626 H1620 0.930 . S
C1626 C1627 1.367 . S
C1626 C1634 1.378 . S
C1627 C1626 1.367 . S
C1627 C1635 1.433 . S
C1628 H1624 0.929 . S
C1628 C1630 1.378 . S
C1628 C1632 1.350 . S
C1629 C1632 1.463 . S
C1629 C1634 1.350 . S
C1629 N1637 1.427 . S
C1630 H1621 0.930 . S
C1630 C1628 1.378 . S
C1630 C1631 1.367 . S
C1631 C1630 1.367 . S
C1631 C1633 1.433 . S
C1632 C1628 1.350 . S
C1632 C1629 1.463 . S
C1632 N1636 1.427 . S
C1633 H1623 0.929 . S
C1633 C1631 1.433 . S
C1633 N1636 1.384 . S
C1634 H1625 0.929 . S
C1634 C1626 1.378 . S
C1634 C1629 1.350 . S
C1635 H1622 0.929 . S
C1635 C1627 1.433 . S
C1635 N1637 1.384 . S
N1636 C1632 1.427 . S
N1636 C1633 1.384 . S
N1637 C1629 1.427 . S
N1637 C1635 1.384 . S
H1638 C1644 0.930 . S
H1639 C1648 0.930 . S
H1640 C1653 0.929 . S
H1641 C1651 0.929 . S
H1642 C1646 0.929 . S
H1643 C1652 0.929 . S
C1644 H1638 0.930 . S
C1644 C1645 1.367 . S
C1644 C1652 1.378 . S
C1645 C1644 1.367 . S
C1645 C1653 1.433 . S
C1646 H1642 0.929 . S
C1646 C1648 1.378 . S
C1646 C1650 1.350 . S
C1647 C1650 1.463 . S
C1647 C1652 1.350 . S
C1647 N1655 1.427 . S
C1648 H1639 0.930 . S
C1648 C1646 1.378 . S
C1648 C1649 1.367 . S
C1649 C1648 1.367 . S
C1649 C1651 1.433 . S
C1650 C1646 1.350 . S
C1650 C1647 1.463 . S
C1650 N1654 1.427 . S
C1651 H1641 0.929 . S
C1651 C1649 1.433 . S
C1651 N1654 1.384 . S
C1652 H1643 0.929 . S
C1652 C1644 1.378 . S
C1652 C1647 1.350 . S
C1653 H1640 0.929 . S
C1653 C1645 1.433 . S
C1653 N1655 1.384 . S
N1654 C1650 1.427 . S
N1654 C1651 1.384 . S
N1655 C1647 1.427 . S
N1655 C1653 1.384 . S
H1656 C1662 0.930 . S
H1657 C1666 0.930 . S
H1658 C1671 0.929 . S
H1659 C1669 0.929 . S
H1660 C1664 0.929 . S
H1661 C1670 0.929 . S
C1662 H1656 0.930 . S
C1662 C1663 1.367 . S
C1662 C1670 1.378 . S
C1663 C1662 1.367 . S
C1663 C1671 1.433 . S
C1664 H1660 0.929 . S
C1664 C1666 1.378 . S
C1664 C1668 1.350 . S
C1665 C1668 1.463 . S
C1665 C1670 1.350 . S
C1665 N1673 1.427 . S
C1666 H1657 0.930 . S
C1666 C1664 1.378 . S
C1666 C1667 1.367 . S
C1667 C1666 1.367 . S
C1667 C1669 1.433 . S
C1668 C1664 1.350 . S
C1668 C1665 1.463 . S
C1668 N1672 1.427 . S
C1669 H1659 0.929 . S
C1669 C1667 1.433 . S
C1669 N1672 1.384 . S
C1670 H1661 0.929 . S
C1670 C1662 1.378 . S
C1670 C1665 1.350 . S
C1671 H1658 0.929 . S
C1671 C1663 1.433 . S
C1671 N1673 1.384 . S
N1672 C1668 1.427 . S
N1672 C1669 1.384 . S
N1673 C1665 1.427 . S
N1673 C1671 1.384 . S
H1674 C1680 0.930 . S
H1675 C1684 0.930 . S
H1676 C1689 0.929 . S
H1677 C1687 0.929 . S
H1678 C1682 0.929 . S
H1679 C1688 0.929 . S
C1680 H1674 0.930 . S
C1680 C1681 1.367 . S
C1680 C1688 1.378 . S
C1681 C1680 1.367 . S
C1681 C1689 1.433 . S
C1682 H1678 0.929 . S
C1682 C1684 1.378 . S
C1682 C1686 1.350 . S
C1683 C1686 1.463 . S
C1683 C1688 1.350 . S
C1683 N1691 1.427 . S
C1684 H1675 0.930 . S
C1684 C1682 1.378 . S
C1684 C1685 1.367 . S
C1685 C1684 1.367 . S
C1685 C1687 1.433 . S
C1686 C1682 1.350 . S
C1686 C1683 1.463 . S
C1686 N1690 1.427 . S
C1687 H1677 0.929 . S
C1687 C1685 1.433 . S
C1687 N1690 1.384 . S
C1688 H1679 0.929 . S
C1688 C1680 1.378 . S
C1688 C1683 1.350 . S
C1689 H1676 0.929 . S
C1689 C1681 1.433 . S
C1689 N1691 1.384 . S
N1690 C1686 1.427 . S
N1690 C1687 1.384 . S
N1691 C1683 1.427 . S
N1691 C1689 1.384 . S
H1692 C1698 0.930 . S
H1693 C1702 0.930 . S
H1694 C1707 0.929 . S
H1695 C1705 0.929 . S
H1696 C1700 0.929 . S
H1697 C1706 0.929 . S
C1698 H1692 0.930 . S
C1698 C1699 1.367 . S
C1698 C1706 1.378 . S
C1699 C1698 1.367 . S
C1699 C1707 1.433 . S
C1700 H1696 0.929 . S
C1700 C1702 1.378 . S
C1700 C1704 1.350 . S
C1701 C1704 1.463 1_455 S
C1701 C1706 1.350 . S
C1701 N1709 1.427 . S
C1702 H1693 0.930 . S
C1702 C1700 1.378 . S
C1702 C1703 1.367 . S
C1703 C1702 1.367 . S
C1703 C1705 1.433 . S
C1704 C1700 1.350 . S
C1704 C1701 1.463 1_655 S
C1704 N1708 1.427 . S
C1705 H1695 0.929 . S
C1705 C1703 1.433 . S
C1705 N1708 1.384 . S
C1706 H1697 0.929 . S
C1706 C1698 1.378 . S
C1706 C1701 1.350 . S
C1707 H1694 0.929 . S
C1707 C1699 1.433 . S
C1707 N1709 1.384 . S
N1708 C1704 1.427 . S
N1708 C1705 1.384 . S
N1709 C1701 1.427 . S
N1709 C1707 1.384 . S
H1710 C1716 0.930 . S
H1711 C1720 0.930 . S
H1712 C1725 0.929 . S
H1713 C1723 0.929 . S
H1714 C1718 0.929 . S
H1715 C1724 0.929 . S
C1716 H1710 0.930 . S
C1716 C1717 1.367 . S
C1716 C1724 1.378 . S
C1717 C1716 1.367 . S
C1717 C1725 1.433 . S
C1718 H1714 0.929 . S
C1718 C1720 1.378 . S
C1718 C1722 1.350 . S
C1719 C1722 1.463 . S
C1719 C1724 1.350 . S
C1719 N1727 1.427 . S
C1720 H1711 0.930 . S
C1720 C1718 1.378 . S
C1720 C1721 1.367 . S
C1721 C1720 1.367 . S
C1721 C1723 1.433 . S
C1722 C1718 1.350 . S
C1722 C1719 1.463 . S
C1722 N1726 1.427 . S
C1723 H1713 0.929 . S
C1723 C1721 1.433 . S
C1723 N1726 1.384 . S
C1724 H1715 0.929 . S
C1724 C1716 1.378 . S
C1724 C1719 1.350 . S
C1725 H1712 0.929 . S
C1725 C1717 1.433 . S
C1725 N1727 1.384 . S
N1726 C1722 1.427 . S
N1726 C1723 1.384 . S
N1727 C1719 1.427 . S
N1727 C1725 1.384 . S
H1728 C1734 0.930 . S
H1729 C1738 0.930 . S
H1730 C1743 0.929 . S
H1731 C1741 0.929 . S
H1732 C1736 0.929 . S
H1733 C1742 0.929 . S
C1734 H1728 0.930 . S
C1734 C1735 1.367 . S
C1734 C1742 1.378 . S
C1735 C1734 1.367 . S
C1735 C1743 1.433 . S
C1736 H1732 0.929 . S
C1736 C1738 1.378 . S
C1736 C1740 1.350 . S
C1737 C1740 1.463 1_545 S
C1737 C1742 1.350 . S
C1737 N1745 1.427 . S
C1738 H1729 0.930 . S
C1738 C1736 1.378 . S
C1738 C1739 1.367 . S
C1739 C1738 1.367 . S
C1739 C1741 1.433 . S
C1740 C1736 1.350 . S
C1740 C1737 1.463 1_565 S
C1740 N1744 1.427 . S
C1741 H1731 0.929 . S
C1741 C1739 1.433 . S
C1741 N1744 1.384 . S
C1742 H1733 0.929 . S
C1742 C1734 1.378 . S
C1742 C1737 1.350 . S
C1743 H1730 0.929 . S
C1743 C1735 1.433 . S
C1743 N1745 1.384 . S
N1744 C1740 1.427 . S
N1744 C1741 1.384 . S
N1745 C1737 1.427 . S
N1745 C1743 1.384 . S
H1746 C1752 0.930 . S
H1747 C1756 0.930 . S
H1748 C1761 0.929 . S
H1749 C1759 0.929 . S
H1750 C1754 0.929 1_554 S
H1751 C1760 0.929 1_556 S
C1752 H1746 0.930 . S
C1752 C1753 1.367 . S
C1752 C1760 1.378 . S
C1753 C1752 1.367 . S
C1753 C1761 1.433 . S
C1754 H1750 0.929 1_556 S
C1754 C1756 1.378 . S
C1754 C1758 1.350 . S
C1755 C1758 1.463 1_544 S
C1755 C1760 1.350 . S
C1755 N1763 1.427 . S
C1756 H1747 0.930 . S
C1756 C1754 1.378 . S
C1756 C1757 1.367 . S
C1757 C1756 1.367 . S
C1757 C1759 1.433 . S
C1758 C1754 1.350 . S
C1758 C1755 1.463 1_566 S
C1758 N1762 1.427 . S
C1759 H1749 0.929 . S
C1759 C1757 1.433 . S
C1759 N1762 1.384 . S
C1760 H1751 0.929 1_554 S
C1760 C1752 1.378 . S
C1760 C1755 1.350 . S
C1761 H1748 0.929 . S
C1761 C1753 1.433 . S
C1761 N1763 1.384 . S
N1762 C1758 1.427 . S
N1762 C1759 1.384 . S
N1763 C1755 1.427 . S
N1763 C1761 1.384 . S
H1764 C1770 0.930 1_556 S
H1765 C1774 0.930 1_554 S
H1766 C1779 0.929 . S
H1767 C1777 0.929 . S
H1768 C1772 0.929 . S
H1769 C1778 0.929 . S
C1770 H1764 0.930 1_554 S
C1770 C1771 1.367 . S
C1770 C1778 1.378 1_554 S
C1771 C1770 1.367 . S
C1771 C1779 1.433 . S
C1772 H1768 0.929 . S
C1772 C1774 1.378 1_554 S
C1772 C1776 1.350 1_554 S
C1773 C1776 1.463 1_654 S
C1773 C1778 1.350 1_554 S
C1773 N1781 1.427 . S
C1774 H1765 0.930 1_556 S
C1774 C1772 1.378 1_556 S
C1774 C1775 1.367 . S
C1775 C1774 1.367 . S
C1775 C1777 1.433 . S
C1776 C1772 1.350 1_556 S
C1776 C1773 1.463 1_456 S
C1776 N1780 1.427 . S
C1777 H1767 0.929 . S
C1777 C1775 1.433 . S
C1777 N1780 1.384 . S
C1778 H1769 0.929 . S
C1778 C1770 1.378 1_556 S
C1778 C1773 1.350 1_556 S
C1779 H1766 0.929 . S
C1779 C1771 1.433 . S
C1779 N1781 1.384 . S
N1780 C1776 1.427 . S
N1780 C1777 1.384 . S
N1781 C1773 1.427 . S
N1781 C1779 1.384 . S
H1782 C1788 0.930 . S
H1783 C1792 0.930 . S
H1784 C1797 0.929 . S
H1785 C1795 0.929 . S
H1786 C1790 0.929 . S
H1787 C1796 0.929 . S
C1788 H1782 0.930 . S
C1788 C1789 1.367 1_556 S
C1788 C1796 1.378 . S
C1789 C1788 1.367 1_554 S
C1789 C1797 1.433 . S
C1790 H1786 0.929 . S
C1790 C1792 1.378 . S
C1790 C1794 1.350 1_554 S
C1791 C1794 1.463 1_554 S
C1791 C1796 1.350 1_554 S
C1791 N1799 1.427 . S
C1792 H1783 0.930 . S
C1792 C1790 1.378 . S
C1792 C1793 1.367 1_554 S
C1793 C1792 1.367 1_556 S
C1793 C1795 1.433 . S
C1794 C1790 1.350 1_556 S
C1794 C1791 1.463 1_556 S
C1794 N1798 1.427 . S
C1795 H1785 0.929 . S
C1795 C1793 1.433 . S
C1795 N1798 1.384 . S
C1796 H1787 0.929 . S
C1796 C1788 1.378 . S
C1796 C1791 1.350 1_556 S
C1797 H1784 0.929 . S
C1797 C1789 1.433 . S
C1797 N1799 1.384 . S
N1798 C1794 1.427 . S
N1798 C1795 1.384 . S
N1799 C1791 1.427 . S
N1799 C1797 1.384 . S
C511 C147 1.236 . S
C515 C8 1.205 . S
C529 C161 1.237 . S
C533 C22 1.198 . S
C547 C36 1.201 . S
C551 C133 1.241 . S
C565 C50 1.197 . S
C569 C119 1.242 . S
C583 C64 1.192 . S
C587 C91 1.242 . S
C601 C105 1.243 . S
C605 C78 1.195 . S
C619 C63 1.236 . S
C623 C92 1.205 . S
C637 C77 1.236 . S
C641 C106 1.208 . S
C655 C120 1.194 . S
C659 C49 1.243 . S
C673 C35 1.237 . S
C677 C134 1.197 . S
C691 C148 1.193 . S
C695 C7 1.238 . S
C709 C162 1.192 . S
C713 C21 1.243 . S
C727 C315 1.237 . S
C731 C176 1.209 . S
C745 C329 1.237 . S
C749 C190 1.198 . S
C763 C204 1.191 . S
C767 C301 1.240 . S
C781 C218 1.209 . S
C785 C287 1.237 . S
C799 C232 1.204 . S
C803 C259 1.235 . S
C817 C246 1.190 . S
C821 C273 1.241 . S
C835 C231 1.238 . S
C839 C260 1.208 . S
C853 C245 1.242 . S
C857 C274 1.190 . S
C871 C217 1.237 . S
C875 C288 1.197 . S
C889 C203 1.236 . S
C893 C302 1.201 . S
C907 C175 1.237 . S
C911 C316 1.209 . S
C925 C189 1.239 . S
C929 C330 1.207 . S
C943 C344 1.209 . S
C947 C483 1.237 . S
C961 C497 1.241 . S
C965 C358 1.204 . S
C979 C469 1.240 . S
C983 C372 1.204 . S
C997 C386 1.193 . S
C1001 C455 1.239 . S
C1015 C400 1.192 . S
C1019 C427 1.242 . S
C1033 C414 1.190 . S
C1037 C441 1.241 . S
C1051 C399 1.240 . S
C1055 C428 1.191 . S
C1069 C413 1.237 . S
C1073 C442 1.209 . S
C1087 C385 1.242 . S
C1091 C456 1.197 . S
C1105 C470 1.191 . S
C1109 C371 1.240 . S
C1123 C343 1.236 . S
C1127 C484 1.200 . S
C1141 C498 1.207 . S
C1145 C357 1.236 . S
C1159 C48 1.520 . S
C1163 C6 1.525 . S
C1177 C62 1.519 . S
C1181 C20 1.526 . S
C1195 C34 1.519 . S
C1199 C76 1.525 . S
C1213 C132 1.519 . S
C1217 C90 1.523 . S
C1231 C146 1.518 . S
C1235 C104 1.525 . S
C1249 C160 1.525 . S
C1253 C118 1.520 . S
C1267 C216 1.524 . S
C1271 C174 1.519 . S
C1285 C230 1.519 . S
C1289 C188 1.526 . S
C1303 C202 1.526 . S
C1307 C244 1.518 . S
C1321 C258 1.525 . S
C1325 C300 1.519 . S
C1339 C314 1.526 . S
C1343 C272 1.519 . S
C1357 C286 1.521 . S
C1361 C328 1.522 . S
C1375 C384 1.525 . S
C1379 C342 1.518 . S
C1393 C398 1.522 . S
C1397 C356 1.523 . S
C1411 C370 1.521 . S
C1415 C412 1.524 . S
C1429 C426 1.522 . S
C1433 C468 1.521 . S
C1447 C440 1.525 . S
C1451 C482 1.520 . S
C1465 C454 1.527 . S
C1469 C496 1.518 . S
C1483 C9 1.521 . S
C1487 C261 1.521 . S
C1501 C275 1.531 . S
C1505 C23 1.531 . S
C1519 C289 1.524 . S
C1523 C37 1.524 . S
C1537 C471 1.522 . S
C1541 C51 1.522 . S
C1555 C485 1.525 . S
C1559 C65 1.525 . S
C1573 C499 1.529 . S
C1577 C79 1.529 . S
C1591 C93 1.531 . S
C1595 C345 1.531 . S
C1609 C359 1.523 . S
C1613 C107 1.523 . S
C1627 C373 1.526 . S
C1631 C121 1.526 . S
C1645 C135 1.524 . S
C1649 C219 1.524 . S
C1663 C149 1.523 . S
C1667 C233 1.523 . S
C1681 C163 1.521 . S
C1685 C247 1.521 . S
C1699 C429 1.526 . S
C1703 C177 1.526 . S
C1717 C443 1.530 . S
C1721 C191 1.530 . S
C1735 C205 1.522 . S
C1739 C457 1.522 . S
C1753 C303 1.521 . S
C1757 C387 1.521 . S
C1771 C317 1.523 . S
C1775 C401 1.523 . S
C1789 C331 1.526 . S
C1793 C415 1.526 . S
