# Generated by pormake.
# Topology sra, (4)-cn, num edge types: 1
# Building blocks:
#     Node 0, Type 0, BuildingBlock: QUQFOY_clean_sbu_1, # of connection points: 4
#     Node 1, Type 0, BuildingBlock: QUQFOY_clean_sbu_1, # of connection points: 4
#     Node 2, Type 0, BuildingBlock: QUQFOY_clean_sbu_1, # of connection points: 4
#     Node 3, Type 0, BuildingBlock: QUQFOY_clean_sbu_1, # of connection points: 4
#     Node 4, Type 0, BuildingBlock: QUQFOY_clean_sbu_1, # of connection points: 4
#     Node 5, Type 0, BuildingBlock: QUQFOY_clean_sbu_1, # of connection points: 4
#     Node 6, Type 0, BuildingBlock: QUQFOY_clean_sbu_1, # of connection points: 4
#     Node 7, Type 0, BuildingBlock: QUQFOY_clean_sbu_1, # of connection points: 4
#     Edge 8, Type (0, 0), BuildingBlock: OJICUG_clean_linker_0, # of connection points: 2
#     Edge 9, Type (0, 0), BuildingBlock: OJICUG_clean_linker_0, # of connection points: 2
#     Edge 10, Type (0, 0), BuildingBlock: OJICUG_clean_linker_0, # of connection points: 2
#     Edge 11, Type (0, 0), BuildingBlock: OJICUG_clean_linker_0, # of connection points: 2
#     Edge 12, Type (0, 0), BuildingBlock: OJICUG_clean_linker_0, # of connection points: 2
#     Edge 13, Type (0, 0), BuildingBlock: OJICUG_clean_linker_0, # of connection points: 2
#     Edge 14, Type (0, 0), BuildingBlock: OJICUG_clean_linker_0, # of connection points: 2
#     Edge 15, Type (0, 0), BuildingBlock: OJICUG_clean_linker_0, # of connection points: 2
#     Edge 16, Type (0, 0), BuildingBlock: OJICUG_clean_linker_0, # of connection points: 2
#     Edge 17, Type (0, 0), BuildingBlock: OJICUG_clean_linker_0, # of connection points: 2
#     Edge 18, Type (0, 0), BuildingBlock: OJICUG_clean_linker_0, # of connection points: 2
#     Edge 19, Type (0, 0), BuildingBlock: OJICUG_clean_linker_0, # of connection points: 2
#     Edge 20, Type (0, 0), BuildingBlock: OJICUG_clean_linker_0, # of connection points: 2
#     Edge 21, Type (0, 0), BuildingBlock: OJICUG_clean_linker_0, # of connection points: 2
#     Edge 22, Type (0, 0), BuildingBlock: OJICUG_clean_linker_0, # of connection points: 2
#     Edge 23, Type (0, 0), BuildingBlock: OJICUG_clean_linker_0, # of connection points: 2
# Relax obj value: 0.050
# Max RMSD: 0.075
# Mean RMSD: 0.075
data_MOF--net-sra--node1-QUQFOY_clean_sbu_1--edge1-OJICUG_clean_linker_0
_symmetry_space_group_name_H-M    P1
_symmetry_Int_Tables_number       1
_symmetry_cell_setting            triclinic
loop_
_symmetry_equiv_pos_as_xyz
'x, y, z'
_cell_length_a     20.632881
_cell_length_b     38.958307
_cell_length_c     26.362724
_cell_angle_alpha  90.000029
_cell_angle_beta   90.00014
_cell_angle_gamma 90.01386
loop_
_atom_site_label
_atom_site_type_symbol
_atom_site_fract_x
_atom_site_fract_y
_atom_site_fract_z
_atom_type_partial_charge
O0 O 0.96184 0.10968 0.14273 0.0
Cd1 Cd 0.04296 0.11955 0.09962 0.0
Cd2 Cd 0.09651 0.12136 0.18953 0.0
O3 O 1.01196 0.0986 0.21454 0.0
O4 O 1.02088 0.09862 0.03318 0.0
O5 O 0.1008 0.07976 0.08208 0.0
C6 C 0.06513 0.07602 0.04221 0.0
C7 C 0.19955 0.1018 0.2118 0.0
C8 C 0.96013 0.09957 0.1885 0.0
C9 C 0.08242 0.18826 0.13198 0.0
O10 O 0.09107 0.17323 0.17429 0.0
O11 O 0.06882 0.17079 0.09258 0.0
O12 O 0.16235 0.11648 0.24459 0.0
O13 O 0.17688 0.09665 0.16677 0.0
O14 O 0.20884 0.41565 0.14276 0.0
Cd15 Cd 0.12772 0.40578 0.09965 0.0
Cd16 Cd 0.07416 0.40397 0.18955 0.0
O17 O 0.15872 0.42672 0.21457 0.0
O18 O 0.14981 0.4267 0.0332 0.0
O19 O 0.06988 0.44557 0.0821 0.0
C20 C 0.10556 0.44931 0.04223 0.0
C21 C 0.97113 0.42353 0.21182 0.0
C22 C 0.21055 0.42575 0.18853 0.0
C23 C 0.08825 0.33707 0.13199 0.0
O24 O 0.0796 0.3521 0.17431 0.0
O25 O 0.10186 0.35454 0.0926 0.0
O26 O 1.00832 0.40885 0.24461 0.0
O27 O 0.99381 0.42869 0.16679 0.0
O28 O 0.96258 0.91568 0.82894 0.0
Cd29 Cd 0.04356 0.90581 0.87219 0.0
Cd30 Cd 0.0973 0.90393 0.78237 0.0
O31 O 1.01284 0.92668 0.75716 0.0
O32 O 1.02121 0.9268 0.93853 0.0
O33 O 0.1014 0.9456 0.88981 0.0
C34 C 0.06553 0.94939 0.92957 0.0
C35 C 0.20039 0.92347 0.76014 0.0
C36 C 0.96097 0.92575 0.78315 0.0
C37 C 0.08289 0.83707 0.84001 0.0
O38 O 0.0917 0.85208 0.79769 0.0
O39 O 0.06924 0.85457 0.87936 0.0
O40 O 0.16323 0.90875 0.72735 0.0
O41 O 0.17767 0.92867 0.80514 0.0
O42 O 0.20809 0.60964 0.82893 0.0
Cd43 Cd 0.12711 0.6195 0.87218 0.0
Cd44 Cd 0.07338 0.62139 0.78236 0.0
O45 O 0.15783 0.59864 0.75715 0.0
O46 O 0.14947 0.59852 0.93852 0.0
O47 O 0.06928 0.57971 0.88981 0.0
C48 C 0.10515 0.57593 0.92956 0.0
C49 C 0.97028 0.60186 0.76013 0.0
C50 C 0.2097 0.59957 0.78314 0.0
C51 C 0.08779 0.68825 0.84001 0.0
O52 O 0.07897 0.67324 0.79769 0.0
O53 O 0.10144 0.67075 0.87936 0.0
O54 O 1.00744 0.61658 0.72735 0.0
O55 O 0.993 0.59665 0.80513 0.0
O56 O 0.46184 0.60968 0.64274 0.0
Cd57 Cd 0.54297 0.61955 0.59964 0.0
Cd58 Cd 0.59652 0.62136 0.68954 0.0
O59 O 0.51196 0.59861 0.71456 0.0
O60 O 0.52088 0.59863 0.53319 0.0
O61 O 0.6008 0.57976 0.58209 0.0
C62 C 0.56513 0.57602 0.54222 0.0
C63 C 0.69955 0.6018 0.71181 0.0
C64 C 0.46013 0.59957 0.68851 0.0
C65 C 0.58243 0.68826 0.63199 0.0
O66 O 0.59107 0.67323 0.67431 0.0
O67 O 0.56882 0.67079 0.5926 0.0
O68 O 0.66236 0.61648 0.7446 0.0
O69 O 0.67688 0.59665 0.66678 0.0
O70 O 0.70883 0.91566 0.64275 0.0
Cd71 Cd 0.62771 0.90578 0.59964 0.0
Cd72 Cd 0.57416 0.90397 0.68954 0.0
O73 O 0.65871 0.92673 0.71457 0.0
O74 O 0.6498 0.9267 0.5332 0.0
O75 O 0.56987 0.94557 0.58209 0.0
C76 C 0.60555 0.94931 0.54222 0.0
C77 C 0.47112 0.92353 0.71181 0.0
C78 C 0.71054 0.92576 0.68852 0.0
C79 C 0.58825 0.83707 0.63199 0.0
O80 O 0.5796 0.8521 0.67431 0.0
O81 O 0.60185 0.85454 0.5926 0.0
O82 O 0.50832 0.90885 0.74461 0.0
O83 O 0.4938 0.92869 0.66679 0.0
O84 O 0.46259 0.41568 0.32895 0.0
Cd85 Cd 0.54357 0.40582 0.3722 0.0
Cd86 Cd 0.59731 0.40394 0.28238 0.0
O87 O 0.51285 0.42668 0.25717 0.0
O88 O 0.52122 0.42681 0.43854 0.0
O89 O 0.60141 0.44561 0.38982 0.0
C90 C 0.56554 0.4494 0.42957 0.0
C91 C 0.7004 0.42347 0.26015 0.0
C92 C 0.46098 0.42575 0.28316 0.0
C93 C 0.5829 0.33707 0.34002 0.0
O94 O 0.59172 0.35208 0.29771 0.0
O95 O 0.56925 0.35457 0.37938 0.0
O96 O 0.66324 0.40875 0.22736 0.0
O97 O 0.67768 0.42867 0.30515 0.0
O98 O 0.70809 0.10964 0.32892 0.0
Cd99 Cd 0.62712 0.11951 0.37218 0.0
Cd100 Cd 0.57338 0.12139 0.28235 0.0
O101 O 0.65783 0.09865 0.25714 0.0
O102 O 0.64947 0.09851 0.43851 0.0
O103 O 0.56928 0.07972 0.3898 0.0
C104 C 0.60515 0.07593 0.42955 0.0
C105 C 0.47028 0.10186 0.26012 0.0
C106 C 0.7097 0.09958 0.28313 0.0
C107 C 0.5878 0.18825 0.34001 0.0
O108 O 0.57898 0.17325 0.29769 0.0
O109 O 0.60145 0.17076 0.37936 0.0
O110 O 0.50744 0.11659 0.22734 0.0
O111 O 0.493 0.09666 0.30512 0.0
C112 C 0.08589 0.2807 0.0843 0.0
C113 C 0.08593 0.29901 0.13034 0.0
H114 H 0.08433 0.23113 0.04839 0.0
C115 C 0.08542 0.28053 0.17611 0.0
H116 H 0.08638 0.2942 0.04839 0.0
C117 C 0.08521 0.2448 0.1761 0.0
C118 C 0.08474 0.22632 0.13034 0.0
H119 H 0.08585 0.29364 0.21234 0.0
H120 H 0.08476 0.23168 0.21234 0.0
C121 C 0.08481 0.24463 0.0843 0.0
C122 C 0.08535 0.78052 0.7959 0.0
C123 C 0.08499 0.79901 0.84166 0.0
H124 H 0.08568 0.73168 0.75966 0.0
C125 C 0.08491 0.7807 0.8877 0.0
H126 H 0.085 0.79364 0.75967 0.0
C127 C 0.08576 0.74462 0.8877 0.0
C128 C 0.08569 0.72631 0.84166 0.0
H129 H 0.08451 0.7942 0.92361 0.0
H130 H 0.08616 0.73112 0.92361 0.0
C131 C 0.08533 0.7448 0.7959 0.0
C132 C 0.5848 0.74463 0.58431 0.0
C133 C 0.58474 0.72632 0.63035 0.0
H134 H 0.58636 0.7942 0.5484 0.0
C135 C 0.58523 0.7448 0.67611 0.0
H136 H 0.58431 0.73113 0.5484 0.0
C137 C 0.58544 0.78053 0.67611 0.0
C138 C 0.58593 0.79901 0.63035 0.0
H139 H 0.58479 0.73169 0.71235 0.0
H140 H 0.58588 0.79365 0.71235 0.0
C141 C 0.58587 0.78071 0.58431 0.0
C142 C 0.58537 0.28053 0.29591 0.0
C143 C 0.585 0.29901 0.34167 0.0
H144 H 0.5857 0.23169 0.25967 0.0
C145 C 0.58493 0.2807 0.38771 0.0
H146 H 0.58502 0.29365 0.25968 0.0
C147 C 0.58577 0.24462 0.38771 0.0
C148 C 0.5857 0.22632 0.34167 0.0
H149 H 0.58452 0.2942 0.42362 0.0
H150 H 0.58617 0.23112 0.42362 0.0
C151 C 0.58534 0.2448 0.29591 0.0
C152 C 0.35502 0.09344 0.28663 0.0
C153 C 0.40162 0.09486 0.24782 0.0
H154 H 0.25405 0.09467 0.30558 0.0
C155 C 0.38092 0.09382 0.19705 0.0
H156 H 0.36949 0.09427 0.32611 0.0
C157 C 0.31481 0.09344 0.1853 0.0
C158 C 0.26822 0.09482 0.2241 0.0
H159 H 0.41578 0.09473 0.16635 0.0
H160 H 0.30035 0.09426 0.14581 0.0
C161 C 0.28891 0.09379 0.27488 0.0
C162 C 0.81566 0.43189 0.28666 0.0
C163 C 0.76907 0.43048 0.24785 0.0
H164 H 0.91663 0.43065 0.3056 0.0
C165 C 0.78976 0.43152 0.19708 0.0
H166 H 0.8012 0.43106 0.32614 0.0
C167 C 0.85587 0.4319 0.18532 0.0
C168 C 0.90247 0.43052 0.22413 0.0
H169 H 0.7549 0.43062 0.16638 0.0
H170 H 0.87033 0.43108 0.14584 0.0
C171 C 0.88177 0.43154 0.2749 0.0
C172 C 0.28975 0.93151 0.69707 0.0
C173 C 0.26906 0.93048 0.74784 0.0
H174 H 0.37032 0.93107 0.64583 0.0
C175 C 0.31565 0.93189 0.78665 0.0
H176 H 0.25489 0.93061 0.66637 0.0
C177 C 0.38176 0.93154 0.77489 0.0
C178 C 0.40246 0.93052 0.72412 0.0
H179 H 0.30119 0.93106 0.82613 0.0
H180 H 0.41662 0.93066 0.80559 0.0
C181 C 0.35586 0.9319 0.68531 0.0
C182 C 0.78891 0.59379 0.77489 0.0
C183 C 0.76822 0.59481 0.72411 0.0
H184 H 0.86948 0.59426 0.82613 0.0
C185 C 0.81481 0.59343 0.68531 0.0
H186 H 0.75405 0.59467 0.80558 0.0
C187 C 0.88092 0.59381 0.69706 0.0
C188 C 0.90162 0.59485 0.74783 0.0
H189 H 0.80035 0.59425 0.64582 0.0
H190 H 0.91578 0.59472 0.66636 0.0
C191 C 0.85502 0.59343 0.78664 0.0
C192 C 0.83077 0.93361 0.68299 0.0
C193 C 0.7741 0.93246 0.71263 0.0
H194 H 0.93449 0.93293 0.68199 0.0
C195 C 0.77973 0.93391 0.76568 0.0
H196 H 0.8281 0.93287 0.64196 0.0
C197 C 0.84079 0.93378 0.78862 0.0
C198 C 0.89746 0.93245 0.75898 0.0
H199 H 0.73708 0.93324 0.78962 0.0
H200 H 0.84346 0.93317 0.82965 0.0
C201 C 0.89184 0.93374 0.70592 0.0
C202 C 0.3399 0.59172 0.68297 0.0
C203 C 0.39657 0.59287 0.71262 0.0
H204 H 0.23619 0.5924 0.68198 0.0
C205 C 0.39094 0.59141 0.76567 0.0
H206 H 0.34257 0.59246 0.64195 0.0
C207 C 0.32988 0.59155 0.78861 0.0
C208 C 0.27321 0.59287 0.75897 0.0
H209 H 0.43359 0.59209 0.78961 0.0
H210 H 0.32721 0.59215 0.82964 0.0
C211 C 0.27883 0.59158 0.70591 0.0
C212 C 0.82988 0.09155 0.28859 0.0
C213 C 0.77321 0.09287 0.25896 0.0
H214 H 0.93359 0.09208 0.2896 0.0
C215 C 0.77883 0.09159 0.2059 0.0
H216 H 0.82721 0.09214 0.32962 0.0
C217 C 0.83989 0.09172 0.18296 0.0
C218 C 0.89657 0.09287 0.21261 0.0
H219 H 0.73618 0.09241 0.18197 0.0
H220 H 0.84257 0.09247 0.14194 0.0
C221 C 0.89094 0.09141 0.26566 0.0
C222 C 0.33079 0.4336 0.18299 0.0
C223 C 0.27411 0.43245 0.21264 0.0
H224 H 0.4345 0.43292 0.182 0.0
C225 C 0.27974 0.4339 0.26569 0.0
H226 H 0.32811 0.43287 0.14197 0.0
C227 C 0.3408 0.43377 0.28863 0.0
C228 C 0.39747 0.43245 0.25899 0.0
H229 H 0.23709 0.43323 0.28962 0.0
H230 H 0.34347 0.43317 0.32965 0.0
C231 C 0.39185 0.43374 0.20593 0.0
C232 C 0.12662 0.02808 -6e-05 0.0
C233 C 0.0677 0.04424 0.01201 0.0
H234 H 0.17247 0.98528 0.96263 0.0
C235 C 1.00921 0.02862 -0.00219 0.0
H236 H 0.17228 0.03962 0.01092 0.0
C237 C 1.00928 0.99719 0.97266 0.0
C238 C 0.06787 0.98123 0.9596 0.0
H239 H 0.96314 0.04033 0.00731 0.0
H240 H 0.96328 0.98572 0.96231 0.0
C241 C 0.12672 0.99708 0.97273 0.0
C242 C 0.1614 0.52813 0.97264 0.0
C243 C 0.10282 0.54409 0.9596 0.0
H244 H 0.20755 0.48499 0.00729 0.0
C245 C 0.04396 0.52825 0.97274 0.0
H246 H 0.2074 0.53959 0.96228 0.0
C247 C 0.04406 0.49725 -4e-05 0.0
C248 C 0.10298 0.48108 0.01202 0.0
H249 H 0.99822 0.54005 0.96266 0.0
H250 H 0.9984 0.48571 0.01096 0.0
C251 C 0.16147 0.4967 -0.0022 0.0
C252 C 0.62673 0.49708 0.47275 0.0
C253 C 0.56787 0.48124 0.4596 0.0
H254 H 0.67229 0.53961 0.51096 0.0
C255 C 0.50929 0.49721 0.47263 0.0
H256 H 0.67247 0.48527 0.46267 0.0
C257 C 0.50922 0.52864 0.49779 0.0
C258 C 0.56771 0.54425 0.51201 0.0
H259 H 0.46329 0.48574 0.46227 0.0
H260 H 0.46314 0.54035 0.50727 0.0
C261 C 0.62663 0.52808 0.49997 0.0
C262 C 0.66146 0.99669 0.49777 0.0
C263 C 0.60297 0.98108 0.51201 0.0
H264 H 0.7074 0.03958 0.46224 0.0
C265 C 0.54406 0.99725 0.49997 0.0
H266 H 0.70754 0.98497 0.50725 0.0
C267 C 0.54396 0.02825 0.47274 0.0
C268 C 0.60281 0.04408 0.45958 0.0
H269 H 0.49839 0.98573 0.51097 0.0
H270 H 0.49822 0.04007 0.46267 0.0
C271 C 0.6614 0.02812 0.47261 0.0
loop_
_geom_bond_atom_site_label_1
_geom_bond_atom_site_label_2
_geom_bond_distance
_geom_bond_site_symmetry_2
_ccdc_geom_bond_type
O0 Cd1 2.223 1_655 S
O0 C8 1.315 . S
Cd1 O0 2.223 1_455 S
Cd1 O4 2.297 1_455 S
Cd1 O5 2.439 . S
Cd1 O11 2.240 . S
Cd2 O3 2.240 1_455 S
Cd2 O10 2.223 . S
Cd2 O12 2.297 . S
Cd2 O13 2.439 . S
O3 Cd2 2.240 1_655 S
O3 C8 1.279 . S
O4 Cd1 2.297 1_655 S
O4 C6 1.247 1_655 S
O5 Cd1 2.439 . S
O5 C6 1.208 . S
C6 O4 1.247 1_455 S
C6 O5 1.208 . S
C7 O12 1.247 . S
C7 O13 1.208 . S
C8 O0 1.315 . S
C8 O3 1.279 . S
C9 O10 1.315 . S
C9 O11 1.279 . S
O10 Cd2 2.223 . S
O10 C9 1.315 . S
O11 Cd1 2.240 . S
O11 C9 1.279 . S
O12 Cd2 2.297 . S
O12 C7 1.247 . S
O13 Cd2 2.439 . S
O13 C7 1.208 . S
O14 Cd15 2.223 . S
O14 C22 1.315 . S
Cd15 O14 2.223 . S
Cd15 O18 2.297 . S
Cd15 O19 2.439 . S
Cd15 O25 2.240 . S
Cd16 O17 2.240 . S
Cd16 O24 2.223 . S
Cd16 O26 2.297 1_455 S
Cd16 O27 2.439 1_455 S
O17 Cd16 2.240 . S
O17 C22 1.279 . S
O18 Cd15 2.297 . S
O18 C20 1.247 . S
O19 Cd15 2.439 . S
O19 C20 1.208 . S
C20 O18 1.247 . S
C20 O19 1.208 . S
C21 O26 1.247 . S
C21 O27 1.208 . S
C22 O14 1.315 . S
C22 O17 1.279 . S
C23 O24 1.315 . S
C23 O25 1.279 . S
O24 Cd16 2.223 . S
O24 C23 1.315 . S
O25 Cd15 2.240 . S
O25 C23 1.279 . S
O26 Cd16 2.297 1_655 S
O26 C21 1.247 . S
O27 Cd16 2.439 1_655 S
O27 C21 1.208 . S
O28 Cd29 2.223 1_655 S
O28 C36 1.315 . S
Cd29 O28 2.223 1_455 S
Cd29 O32 2.297 1_455 S
Cd29 O33 2.439 . S
Cd29 O39 2.240 . S
Cd30 O31 2.240 1_455 S
Cd30 O38 2.223 . S
Cd30 O40 2.297 . S
Cd30 O41 2.439 . S
O31 Cd30 2.240 1_655 S
O31 C36 1.279 . S
O32 Cd29 2.297 1_655 S
O32 C34 1.247 1_655 S
O33 Cd29 2.439 . S
O33 C34 1.208 . S
C34 O32 1.247 1_455 S
C34 O33 1.208 . S
C35 O40 1.247 . S
C35 O41 1.208 . S
C36 O28 1.315 . S
C36 O31 1.279 . S
C37 O38 1.315 . S
C37 O39 1.279 . S
O38 Cd30 2.223 . S
O38 C37 1.315 . S
O39 Cd29 2.240 . S
O39 C37 1.279 . S
O40 Cd30 2.297 . S
O40 C35 1.247 . S
O41 Cd30 2.439 . S
O41 C35 1.208 . S
O42 Cd43 2.223 . S
O42 C50 1.315 . S
Cd43 O42 2.223 . S
Cd43 O46 2.297 . S
Cd43 O47 2.439 . S
Cd43 O53 2.240 . S
Cd44 O45 2.240 . S
Cd44 O52 2.223 . S
Cd44 O54 2.297 1_455 S
Cd44 O55 2.439 1_455 S
O45 Cd44 2.240 . S
O45 C50 1.279 . S
O46 Cd43 2.297 . S
O46 C48 1.247 . S
O47 Cd43 2.439 . S
O47 C48 1.208 . S
C48 O46 1.247 . S
C48 O47 1.208 . S
C49 O54 1.247 . S
C49 O55 1.208 . S
C50 O42 1.315 . S
C50 O45 1.279 . S
C51 O52 1.315 . S
C51 O53 1.279 . S
O52 Cd44 2.223 . S
O52 C51 1.315 . S
O53 Cd43 2.240 . S
O53 C51 1.279 . S
O54 Cd44 2.297 1_655 S
O54 C49 1.247 . S
O55 Cd44 2.439 1_655 S
O55 C49 1.208 . S
O56 Cd57 2.223 . S
O56 C64 1.315 . S
Cd57 O56 2.223 . S
Cd57 O60 2.297 . S
Cd57 O61 2.439 . S
Cd57 O67 2.240 . S
Cd58 O59 2.240 . S
Cd58 O66 2.223 . S
Cd58 O68 2.297 . S
Cd58 O69 2.439 . S
O59 Cd58 2.240 . S
O59 C64 1.279 . S
O60 Cd57 2.297 . S
O60 C62 1.247 . S
O61 Cd57 2.439 . S
O61 C62 1.208 . S
C62 O60 1.247 . S
C62 O61 1.208 . S
C63 O68 1.247 . S
C63 O69 1.208 . S
C64 O56 1.315 . S
C64 O59 1.279 . S
C65 O66 1.315 . S
C65 O67 1.279 . S
O66 Cd58 2.223 . S
O66 C65 1.315 . S
O67 Cd57 2.240 . S
O67 C65 1.279 . S
O68 Cd58 2.297 . S
O68 C63 1.247 . S
O69 Cd58 2.439 . S
O69 C63 1.208 . S
O70 Cd71 2.223 . S
O70 C78 1.315 . S
Cd71 O70 2.223 . S
Cd71 O74 2.297 . S
Cd71 O75 2.439 . S
Cd71 O81 2.240 . S
Cd72 O73 2.240 . S
Cd72 O80 2.223 . S
Cd72 O82 2.297 . S
Cd72 O83 2.439 . S
O73 Cd72 2.240 . S
O73 C78 1.279 . S
O74 Cd71 2.297 . S
O74 C76 1.247 . S
O75 Cd71 2.439 . S
O75 C76 1.208 . S
C76 O74 1.247 . S
C76 O75 1.208 . S
C77 O82 1.247 . S
C77 O83 1.208 . S
C78 O70 1.315 . S
C78 O73 1.279 . S
C79 O80 1.315 . S
C79 O81 1.279 . S
O80 Cd72 2.223 . S
O80 C79 1.315 . S
O81 Cd71 2.240 . S
O81 C79 1.279 . S
O82 Cd72 2.297 . S
O82 C77 1.247 . S
O83 Cd72 2.439 . S
O83 C77 1.208 . S
O84 Cd85 2.223 . S
O84 C92 1.315 . S
Cd85 O84 2.223 . S
Cd85 O88 2.297 . S
Cd85 O89 2.439 . S
Cd85 O95 2.240 . S
Cd86 O87 2.240 . S
Cd86 O94 2.223 . S
Cd86 O96 2.297 . S
Cd86 O97 2.439 . S
O87 Cd86 2.240 . S
O87 C92 1.279 . S
O88 Cd85 2.297 . S
O88 C90 1.247 . S
O89 Cd85 2.439 . S
O89 C90 1.208 . S
C90 O88 1.247 . S
C90 O89 1.208 . S
C91 O96 1.247 . S
C91 O97 1.208 . S
C92 O84 1.315 . S
C92 O87 1.279 . S
C93 O94 1.315 . S
C93 O95 1.279 . S
O94 Cd86 2.223 . S
O94 C93 1.315 . S
O95 Cd85 2.240 . S
O95 C93 1.279 . S
O96 Cd86 2.297 . S
O96 C91 1.247 . S
O97 Cd86 2.439 . S
O97 C91 1.208 . S
O98 Cd99 2.223 . S
O98 C106 1.315 . S
Cd99 O98 2.223 . S
Cd99 O102 2.297 . S
Cd99 O103 2.439 . S
Cd99 O109 2.240 . S
Cd100 O101 2.240 . S
Cd100 O108 2.223 . S
Cd100 O110 2.297 . S
Cd100 O111 2.439 . S
O101 Cd100 2.240 . S
O101 C106 1.279 . S
O102 Cd99 2.297 . S
O102 C104 1.247 . S
O103 Cd99 2.439 . S
O103 C104 1.208 . S
C104 O102 1.247 . S
C104 O103 1.208 . S
C105 O110 1.247 . S
C105 O111 1.208 . S
C106 O98 1.315 . S
C106 O101 1.279 . S
C107 O108 1.315 . S
C107 O109 1.279 . S
O108 Cd100 2.223 . S
O108 C107 1.315 . S
O109 Cd99 2.240 . S
O109 C107 1.279 . S
O110 Cd100 2.297 . S
O110 C105 1.247 . S
O111 Cd100 2.439 . S
O111 C105 1.208 . S
C112 C113 1.387 . S
C112 H116 0.950 . S
C112 C121 1.390 . S
C113 C112 1.387 . S
C113 C115 1.387 . S
H114 C121 0.950 . S
C115 C113 1.387 . S
C115 C117 1.390 . S
C115 H119 0.950 . S
H116 C112 0.950 . S
C117 C115 1.390 . S
C117 C118 1.387 . S
C117 H120 0.950 . S
C118 C117 1.387 . S
C118 C121 1.387 . S
H119 C115 0.950 . S
H120 C117 0.950 . S
C121 C112 1.390 . S
C121 H114 0.950 . S
C121 C118 1.387 . S
C122 C123 1.387 . S
C122 H126 0.950 . S
C122 C131 1.390 . S
C123 C122 1.387 . S
C123 C125 1.387 . S
H124 C131 0.950 . S
C125 C123 1.387 . S
C125 C127 1.390 . S
C125 H129 0.950 . S
H126 C122 0.950 . S
C127 C125 1.390 . S
C127 C128 1.387 . S
C127 H130 0.950 . S
C128 C127 1.387 . S
C128 C131 1.387 . S
H129 C125 0.950 . S
H130 C127 0.950 . S
C131 C122 1.390 . S
C131 H124 0.950 . S
C131 C128 1.387 . S
C132 C133 1.387 . S
C132 H136 0.950 . S
C132 C141 1.390 . S
C133 C132 1.387 . S
C133 C135 1.387 . S
H134 C141 0.950 . S
C135 C133 1.387 . S
C135 C137 1.390 . S
C135 H139 0.950 . S
H136 C132 0.950 . S
C137 C135 1.390 . S
C137 C138 1.387 . S
C137 H140 0.950 . S
C138 C137 1.387 . S
C138 C141 1.387 . S
H139 C135 0.950 . S
H140 C137 0.950 . S
C141 C132 1.390 . S
C141 H134 0.950 . S
C141 C138 1.387 . S
C142 C143 1.387 . S
C142 H146 0.950 . S
C142 C151 1.390 . S
C143 C142 1.387 . S
C143 C145 1.387 . S
H144 C151 0.950 . S
C145 C143 1.387 . S
C145 C147 1.390 . S
C145 H149 0.950 . S
H146 C142 0.950 . S
C147 C145 1.390 . S
C147 C148 1.387 . S
C147 H150 0.950 . S
C148 C147 1.387 . S
C148 C151 1.387 . S
H149 C145 0.950 . S
H150 C147 0.950 . S
C151 C142 1.390 . S
C151 H144 0.950 . S
C151 C148 1.387 . S
C152 C153 1.387 . S
C152 H156 0.950 . S
C152 C161 1.390 . S
C153 C152 1.387 . S
C153 C155 1.387 . S
H154 C161 0.950 . S
C155 C153 1.387 . S
C155 C157 1.390 . S
C155 H159 0.950 . S
H156 C152 0.950 . S
C157 C155 1.390 . S
C157 C158 1.387 . S
C157 H160 0.950 . S
C158 C157 1.387 . S
C158 C161 1.387 . S
H159 C155 0.950 . S
H160 C157 0.950 . S
C161 C152 1.390 . S
C161 H154 0.950 . S
C161 C158 1.387 . S
C162 C163 1.387 . S
C162 H166 0.950 . S
C162 C171 1.390 . S
C163 C162 1.387 . S
C163 C165 1.387 . S
H164 C171 0.950 . S
C165 C163 1.387 . S
C165 C167 1.390 . S
C165 H169 0.950 . S
H166 C162 0.950 . S
C167 C165 1.390 . S
C167 C168 1.387 . S
C167 H170 0.950 . S
C168 C167 1.387 . S
C168 C171 1.387 . S
H169 C165 0.950 . S
H170 C167 0.950 . S
C171 C162 1.390 . S
C171 H164 0.950 . S
C171 C168 1.387 . S
C172 C173 1.387 . S
C172 H176 0.950 . S
C172 C181 1.390 . S
C173 C172 1.387 . S
C173 C175 1.387 . S
H174 C181 0.950 . S
C175 C173 1.387 . S
C175 C177 1.390 . S
C175 H179 0.950 . S
H176 C172 0.950 . S
C177 C175 1.390 . S
C177 C178 1.387 . S
C177 H180 0.950 . S
C178 C177 1.387 . S
C178 C181 1.387 . S
H179 C175 0.950 . S
H180 C177 0.950 . S
C181 C172 1.390 . S
C181 H174 0.950 . S
C181 C178 1.387 . S
C182 C183 1.387 . S
C182 H186 0.950 . S
C182 C191 1.390 . S
C183 C182 1.387 . S
C183 C185 1.387 . S
H184 C191 0.950 . S
C185 C183 1.387 . S
C185 C187 1.390 . S
C185 H189 0.950 . S
H186 C182 0.950 . S
C187 C185 1.390 . S
C187 C188 1.387 . S
C187 H190 0.950 . S
C188 C187 1.387 . S
C188 C191 1.387 . S
H189 C185 0.950 . S
H190 C187 0.950 . S
C191 C182 1.390 . S
C191 H184 0.950 . S
C191 C188 1.387 . S
C192 C193 1.387 . S
C192 H196 0.950 . S
C192 C201 1.390 . S
C193 C192 1.387 . S
C193 C195 1.387 . S
H194 C201 0.950 . S
C195 C193 1.387 . S
C195 C197 1.390 . S
C195 H199 0.950 . S
H196 C192 0.950 . S
C197 C195 1.390 . S
C197 C198 1.387 . S
C197 H200 0.950 . S
C198 C197 1.387 . S
C198 C201 1.387 . S
H199 C195 0.950 . S
H200 C197 0.950 . S
C201 C192 1.390 . S
C201 H194 0.950 . S
C201 C198 1.387 . S
C202 C203 1.387 . S
C202 H206 0.950 . S
C202 C211 1.390 . S
C203 C202 1.387 . S
C203 C205 1.387 . S
H204 C211 0.950 . S
C205 C203 1.387 . S
C205 C207 1.390 . S
C205 H209 0.950 . S
H206 C202 0.950 . S
C207 C205 1.390 . S
C207 C208 1.387 . S
C207 H210 0.950 . S
C208 C207 1.387 . S
C208 C211 1.387 . S
H209 C205 0.950 . S
H210 C207 0.950 . S
C211 C202 1.390 . S
C211 H204 0.950 . S
C211 C208 1.387 . S
C212 C213 1.387 . S
C212 H216 0.950 . S
C212 C221 1.390 . S
C213 C212 1.387 . S
C213 C215 1.387 . S
H214 C221 0.950 . S
C215 C213 1.387 . S
C215 C217 1.390 . S
C215 H219 0.950 . S
H216 C212 0.950 . S
C217 C215 1.390 . S
C217 C218 1.387 . S
C217 H220 0.950 . S
C218 C217 1.387 . S
C218 C221 1.387 . S
H219 C215 0.950 . S
H220 C217 0.950 . S
C221 C212 1.390 . S
C221 H214 0.950 . S
C221 C218 1.387 . S
C222 C223 1.387 . S
C222 H226 0.950 . S
C222 C231 1.390 . S
C223 C222 1.387 . S
C223 C225 1.387 . S
H224 C231 0.950 . S
C225 C223 1.387 . S
C225 C227 1.390 . S
C225 H229 0.950 . S
H226 C222 0.950 . S
C227 C225 1.390 . S
C227 C228 1.387 . S
C227 H230 0.950 . S
C228 C227 1.387 . S
C228 C231 1.387 . S
H229 C225 0.950 . S
H230 C227 0.950 . S
C231 C222 1.390 . S
C231 H224 0.950 . S
C231 C228 1.387 . S
C232 C233 1.387 . S
C232 H236 0.950 . S
C232 C241 1.390 1_544 S
C233 C232 1.387 . S
C233 C235 1.387 1_455 S
H234 C241 0.950 . S
C235 C233 1.387 1_655 S
C235 C237 1.390 1_544 S
C235 H239 0.950 . S
H236 C232 0.950 . S
C237 C235 1.390 1_566 S
C237 C238 1.387 1_655 S
C237 H240 0.950 . S
C238 C237 1.387 1_455 S
C238 C241 1.387 . S
H239 C235 0.950 . S
H240 C237 0.950 . S
C241 C232 1.390 1_566 S
C241 H234 0.950 . S
C241 C238 1.387 . S
C242 C243 1.387 . S
C242 H246 0.950 . S
C242 C251 1.390 1_556 S
C243 C242 1.387 . S
C243 C245 1.387 . S
H244 C251 0.950 . S
C245 C243 1.387 . S
C245 C247 1.390 1_556 S
C245 H249 0.950 . S
H246 C242 0.950 . S
C247 C245 1.390 1_554 S
C247 C248 1.387 . S
C247 H250 0.950 . S
C248 C247 1.387 . S
C248 C251 1.387 . S
H249 C245 0.950 . S
H250 C247 0.950 . S
C251 C242 1.390 1_554 S
C251 H244 0.950 . S
C251 C248 1.387 . S
C252 C253 1.387 . S
C252 H256 0.950 . S
C252 C261 1.390 . S
C253 C252 1.387 . S
C253 C255 1.387 . S
H254 C261 0.950 . S
C255 C253 1.387 . S
C255 C257 1.390 . S
C255 H259 0.950 . S
H256 C252 0.950 . S
C257 C255 1.390 . S
C257 C258 1.387 . S
C257 H260 0.950 . S
C258 C257 1.387 . S
C258 C261 1.387 . S
H259 C255 0.950 . S
H260 C257 0.950 . S
C261 C252 1.390 . S
C261 H254 0.950 . S
C261 C258 1.387 . S
C262 C263 1.387 . S
C262 H266 0.950 . S
C262 C271 1.390 1_565 S
C263 C262 1.387 . S
C263 C265 1.387 . S
H264 C271 0.950 . S
C265 C263 1.387 . S
C265 C267 1.390 1_565 S
C265 H269 0.950 . S
H266 C262 0.950 . S
C267 C265 1.390 1_545 S
C267 C268 1.387 . S
C267 H270 0.950 . S
C268 C267 1.387 . S
C268 C271 1.387 . S
H269 C265 0.950 . S
H270 C267 0.950 . S
C271 C262 1.390 1_545 S
C271 H264 0.950 . S
C271 C268 1.387 . S
C113 C23 1.503 . S
C118 C9 1.503 . S
C123 C37 1.505 . S
C128 C51 1.505 . S
C133 C65 1.502 . S
C138 C79 1.502 . S
C143 C93 1.505 . S
C148 C107 1.505 . S
C153 C105 1.336 . S
C158 C7 1.336 . S
C163 C91 1.336 . S
C168 C21 1.336 . S
C173 C35 1.338 . S
C178 C77 1.338 . S
C183 C63 1.336 . S
C188 C49 1.336 . S
C193 C78 1.682 . S
C198 C36 1.682 . S
C203 C64 1.682 . S
C208 C50 1.682 . S
C213 C106 1.680 . S
C218 C8 1.680 . S
C223 C22 1.682 . S
C228 C92 1.682 . S
C233 C6 1.514 . S
C238 C34 1.514 . S
C243 C48 1.516 . S
C248 C20 1.516 . S
C253 C90 1.514 . S
C258 C62 1.514 . S
C263 C76 1.516 . S
C268 C104 1.516 . S
