# Generated by pormake.
# Topology msp, (4)-cn, num edge types: 1
# Building blocks:
#     Node 0, Type 0, BuildingBlock: KOZSID_clean_sbu_0, # of connection points: 4
#     Node 1, Type 0, BuildingBlock: KOZSID_clean_sbu_0, # of connection points: 4
#     Node 2, Type 0, BuildingBlock: KOZSID_clean_sbu_0, # of connection points: 4
#     Node 3, Type 0, BuildingBlock: KOZSID_clean_sbu_0, # of connection points: 4
#     Node 4, Type 0, BuildingBlock: KOZSID_clean_sbu_0, # of connection points: 4
#     Node 5, Type 0, BuildingBlock: KOZSID_clean_sbu_0, # of connection points: 4
#     Node 6, Type 0, BuildingBlock: KOZSID_clean_sbu_0, # of connection points: 4
#     Node 7, Type 0, BuildingBlock: KOZSID_clean_sbu_0, # of connection points: 4
#     Edge 8, Type (0, 0), BuildingBlock: CIFDUS_clean_linker_0, # of connection points: 2
#     Edge 9, Type (0, 0), BuildingBlock: CIFDUS_clean_linker_0, # of connection points: 2
#     Edge 10, Type (0, 0), BuildingBlock: CIFDUS_clean_linker_0, # of connection points: 2
#     Edge 11, Type (0, 0), BuildingBlock: CIFDUS_clean_linker_0, # of connection points: 2
#     Edge 12, Type (0, 0), BuildingBlock: CIFDUS_clean_linker_0, # of connection points: 2
#     Edge 13, Type (0, 0), BuildingBlock: CIFDUS_clean_linker_0, # of connection points: 2
#     Edge 14, Type (0, 0), BuildingBlock: CIFDUS_clean_linker_0, # of connection points: 2
#     Edge 15, Type (0, 0), BuildingBlock: CIFDUS_clean_linker_0, # of connection points: 2
#     Edge 16, Type (0, 0), BuildingBlock: CIFDUS_clean_linker_0, # of connection points: 2
#     Edge 17, Type (0, 0), BuildingBlock: CIFDUS_clean_linker_0, # of connection points: 2
#     Edge 18, Type (0, 0), BuildingBlock: CIFDUS_clean_linker_0, # of connection points: 2
#     Edge 19, Type (0, 0), BuildingBlock: CIFDUS_clean_linker_0, # of connection points: 2
#     Edge 20, Type (0, 0), BuildingBlock: CIFDUS_clean_linker_0, # of connection points: 2
#     Edge 21, Type (0, 0), BuildingBlock: CIFDUS_clean_linker_0, # of connection points: 2
#     Edge 22, Type (0, 0), BuildingBlock: CIFDUS_clean_linker_0, # of connection points: 2
#     Edge 23, Type (0, 0), BuildingBlock: CIFDUS_clean_linker_0, # of connection points: 2
# Relax obj value: 0.074
# Max RMSD: 0.203
# Mean RMSD: 0.203
data_MOF--net-msp--node1-KOZSID_clean_sbu_0--edge1-CIFDUS_clean_linker_0
_symmetry_space_group_name_H-M    P1
_symmetry_Int_Tables_number       1
_symmetry_cell_setting            triclinic
loop_
_symmetry_equiv_pos_as_xyz
'x, y, z'
_cell_length_a     22.753966
_cell_length_b     10.187557
_cell_length_c     50.556071
_cell_angle_alpha  90.018329
_cell_angle_beta   89.622332
_cell_angle_gamma 90.166016
loop_
_atom_site_label
_atom_site_type_symbol
_atom_site_fract_x
_atom_site_fract_y
_atom_site_fract_z
_atom_type_partial_charge
C0 C 0.99801 0.55416 0.41338 0.0
C1 C 0.98936 0.68479 0.42011 0.0
C2 C 1.00157 0.75703 0.39781 0.0
C3 C 0.01715 0.66766 0.37871 0.0
N4 N 0.01553 0.54382 0.3878 0.0
Co5 Co 0.04305 0.38575 0.36876 0.0
N6 N 0.0902 0.49113 0.34342 0.0
C7 C 0.08403 0.62037 0.33881 0.0
C8 C 0.12282 0.66647 0.32001 0.0
C9 C 0.15476 0.55894 0.31217 0.0
C10 C 0.13358 0.453 0.32668 0.0
N11 N 0.06912 0.22638 0.34991 0.0
C12 C 0.11262 0.21076 0.33184 0.0
C13 C 0.10999 0.08649 0.32066 0.0
C14 C 0.06283 0.02344 0.33201 0.0
C15 C 0.03955 0.11166 0.34964 0.0
N16 N 0.9961 0.28116 0.39402 0.0
C17 C 0.97455 0.16018 0.38992 0.0
C18 C 0.94377 0.11354 0.41152 0.0
C19 C 0.9466 0.21203 0.43017 0.0
C20 C 0.9789 0.31297 0.41878 0.0
N21 N 0.97509 0.39525 0.3451 0.0
C22 C 0.87684 0.35111 0.31317 0.0
C23 C 0.87006 0.38458 0.33991 0.0
C24 C 0.91968 0.40812 0.35543 0.0
C25 C 0.93354 0.35166 0.30226 0.0
C26 C 0.98199 0.37383 0.31853 0.0
N27 N 0.11028 0.3753 0.39262 0.0
C28 C 0.15849 0.25783 0.42759 0.0
C29 C 0.18101 0.37599 0.43768 0.0
C30 C 0.17359 0.49039 0.42268 0.0
C31 C 0.1387 0.4876 0.40007 0.0
C32 C 0.12296 0.25975 0.40507 0.0
H33 H 0.13104 0.57868 0.38985 0.0
H34 H 0.10189 0.16964 0.39902 0.0
H35 H 0.91329 0.42918 0.37618 0.0
H36 H 0.02514 0.36567 0.3098 0.0
C37 C 0.04821 0.69691 0.35539 0.0
C38 C 0.99039 0.44049 0.43112 0.0
C39 C 0.15161 0.31624 0.32244 0.0
C40 C 0.99428 0.08682 0.36809 0.0
H41 H 0.9778 0.72573 0.43912 0.0
H42 H 1.00419 0.86252 0.39658 0.0
H43 H 0.12861 0.76662 0.31334 0.0
H44 H 0.18909 0.55814 0.29727 0.0
H45 H 0.1373 0.04784 0.30501 0.0
H46 H 0.04711 0.9258 0.32763 0.0
H47 H 0.92409 0.01743 0.41397 0.0
H48 H 0.92733 0.21019 0.44979 0.0
H49 H 0.82682 0.38789 0.34899 0.0
H50 H 0.94079 0.32668 0.28166 0.0
H51 H 0.16345 0.16658 0.43831 0.0
H52 H 0.19202 0.58309 0.42912 0.0
C53 C 0.51326 0.54155 0.60434 0.0
C54 C 0.5205 0.67287 0.59765 0.0
C55 C 0.50627 0.74444 0.61978 0.0
C56 C 0.49092 0.65389 0.63872 0.0
N57 N 0.49478 0.53 0.62974 0.0
Co58 Co 0.47078 0.36964 0.64914 0.0
N59 N 0.42024 0.47074 0.67375 0.0
C60 C 0.42318 0.601 0.67795 0.0
C61 C 0.3833 0.64349 0.69654 0.0
C62 C 0.35385 0.53264 0.70469 0.0
C63 C 0.37766 0.4283 0.69055 0.0
N64 N 0.44909 0.20875 0.66884 0.0
C65 C 0.40676 0.18946 0.68737 0.0
C66 C 0.41271 0.06678 0.69899 0.0
C67 C 0.46038 0.00799 0.68724 0.0
C68 C 0.48104 0.09758 0.66916 0.0
N69 N 0.52025 0.26976 0.62413 0.0
C70 C 0.54337 0.15044 0.62814 0.0
C71 C 0.57367 0.10533 0.6063 0.0
C72 C 0.56891 0.20304 0.58758 0.0
C73 C 0.53592 0.30201 0.59912 0.0
N74 N 0.53797 0.39119 0.67302 0.0
C75 C 0.63536 0.36556 0.70628 0.0
C76 C 0.6429 0.3905 0.67919 0.0
C77 C 0.59364 0.40531 0.66299 0.0
C78 C 0.57824 0.36407 0.71666 0.0
C79 C 0.53029 0.37648 0.69975 0.0
N80 N 0.40429 0.3456 0.62513 0.0
C81 C 0.35399 0.20576 0.59421 0.0
C82 C 0.33102 0.31536 0.58094 0.0
C83 C 0.34056 0.43946 0.59243 0.0
C84 C 0.37591 0.45179 0.61485 0.0
C85 C 0.39132 0.22308 0.61578 0.0
H86 H 0.38363 0.54872 0.62269 0.0
H87 H 0.41245 0.13751 0.62383 0.0
H88 H 0.6006 0.42129 0.64209 0.0
H89 H 0.48705 0.36652 0.70827 0.0
C90 C 0.45823 0.68092 0.66166 0.0
C91 C 0.52243 0.42843 0.58665 0.0
C92 C 0.36423 0.28957 0.69587 0.0
C93 C 0.5256 0.0762 0.65021 0.0
H94 H 0.53251 0.71475 0.57879 0.0
H95 H 0.50242 0.84992 0.62101 0.0
H96 H 0.37584 0.74326 0.70305 0.0
H97 H 0.31991 0.52869 0.71978 0.0
H98 H 0.38717 0.02615 0.71506 0.0
H99 H 0.47783 0.9117 0.69147 0.0
H100 H 0.59412 0.01032 0.60376 0.0
H101 H 0.58726 0.20187 0.56778 0.0
H102 H 0.6865 0.39484 0.67049 0.0
H103 H 0.57046 0.34529 0.73749 0.0
H104 H 0.34606 0.10691 0.58726 0.0
H105 H 0.32413 0.52829 0.58347 0.0
C106 C 0.02736 0.71137 0.59864 0.0
C107 C 0.05866 0.81273 0.58687 0.0
C108 C 0.06173 0.91172 0.60538 0.0
C109 C 0.03203 0.86486 0.62726 0.0
N110 N 0.01115 0.74316 0.62354 0.0
Co111 Co 0.96539 0.63814 0.64918 0.0
N112 N 0.93866 0.79747 0.66806 0.0
C113 C 0.96734 0.91347 0.66762 0.0
C114 C 0.94549 0.00136 0.68564 0.0
C115 C 0.90032 0.93708 0.69816 0.0
C116 C 0.89757 0.81184 0.68735 0.0
N117 N 0.91924 0.53135 0.6747 0.0
C118 C 0.87731 0.56807 0.69233 0.0
C119 C 0.85738 0.46075 0.70681 0.0
C120 C 0.88874 0.35418 0.69821 0.0
C121 C 0.92597 0.4019 0.679 0.0
N122 N 0.99383 0.48065 0.63015 0.0
C123 C 0.99345 0.35697 0.6393 0.0
C124 C 0.00894 0.26784 0.62016 0.0
C125 C 0.01975 0.33986 0.59773 0.0
C126 C 0.01038 0.47022 0.60444 0.0
N127 N 0.0337 0.63177 0.67281 0.0
C128 C 0.13113 0.67603 0.70552 0.0
C129 C 0.07398 0.6749 0.71594 0.0
C130 C 0.02622 0.65201 0.69939 0.0
C131 C 0.13864 0.64457 0.67865 0.0
C132 C 0.08943 0.62166 0.66271 0.0
N133 N 0.89757 0.64577 0.62549 0.0
C134 C 0.83064 0.53002 0.59706 0.0
C135 C 0.81807 0.64577 0.58315 0.0
C136 C 0.84272 0.7635 0.59253 0.0
C137 C 0.88252 0.76126 0.61358 0.0
C138 C 0.86958 0.53253 0.6183 0.0
H139 H 0.90349 0.85197 0.61933 0.0
H140 H 0.87973 0.44095 0.62785 0.0
H141 H 0.98309 0.65799 0.70806 0.0
H142 H 0.09634 0.60186 0.64194 0.0
C143 C 0.01202 0.93844 0.64894 0.0
C144 C 0.01589 0.58347 0.58652 0.0
C145 C 0.86216 0.70455 0.69876 0.0
C146 C 0.96243 0.32689 0.6625 0.0
H147 H 0.07703 0.81456 0.56707 0.0
H148 H 0.08072 0.0083 0.60263 0.0
H149 H 0.96162 0.09883 0.68981 0.0
H150 H 0.87515 0.97505 0.71462 0.0
H151 H 0.82504 0.46051 0.72258 0.0
H152 H 0.88434 0.25398 0.705 0.0
H153 H 0.00667 0.16245 0.62143 0.0
H154 H 0.0305 0.2987 0.57866 0.0
H155 H 0.06564 0.69878 0.7365 0.0
H156 H 0.18211 0.64098 0.66983 0.0
H157 H 0.81316 0.43617 0.59082 0.0
H158 H 0.83327 0.85628 0.58306 0.0
C159 C 0.46934 0.69418 0.41877 0.0
C160 C 0.43651 0.79435 0.42995 0.0
C161 C 0.43336 0.89183 0.41114 0.0
C162 C 0.46443 0.84531 0.38965 0.0
N163 N 0.48629 0.72504 0.39386 0.0
Co164 Co 0.53705 0.62331 0.36959 0.0
N165 N 0.56142 0.78357 0.3502 0.0
C166 C 0.53129 0.89747 0.35014 0.0
C167 C 0.55375 0.9875 0.33264 0.0
C168 C 0.60056 0.92647 0.32083 0.0
C169 C 0.60374 0.80105 0.33154 0.0
N170 N 0.58889 0.51952 0.34582 0.0
C171 C 0.63123 0.55957 0.32861 0.0
C172 C 0.65546 0.45276 0.31533 0.0
C173 C 0.62634 0.34322 0.3242 0.0
C174 C 0.58621 0.38858 0.34235 0.0
N175 N 0.51052 0.46439 0.38889 0.0
C176 C 0.51449 0.33988 0.38032 0.0
C177 C 0.49798 0.25078 0.39934 0.0
C178 C 0.48305 0.32386 0.42115 0.0
C179 C 0.49111 0.45456 0.4142 0.0
N180 N 0.47165 0.60369 0.34448 0.0
C181 C 0.37881 0.61758 0.30828 0.0
C182 C 0.4371 0.61821 0.29955 0.0
C183 C 0.48258 0.61245 0.31785 0.0
C184 C 0.36753 0.60317 0.33542 0.0
C185 C 0.41465 0.59373 0.35317 0.0
N186 N 0.60202 0.64478 0.39459 0.0
C187 C 0.66836 0.54719 0.42585 0.0
C188 C 0.67836 0.66959 0.43767 0.0
C189 C 0.6528 0.78064 0.42616 0.0
C190 C 0.61436 0.766 0.40485 0.0
C191 C 0.631 0.53729 0.40406 0.0
H192 H 0.59219 0.85208 0.39761 0.0
H193 H 0.62331 0.44146 0.39573 0.0
H194 H 0.52653 0.62076 0.31023 0.0
H195 H 0.40497 0.58321 0.374 0.0
C196 C 0.48531 0.91981 0.36826 0.0
C197 C 0.4823 0.56872 0.43162 0.0
C198 C 0.64197 0.69691 0.32092 0.0
C199 C 0.54938 0.31097 0.35823 0.0
H200 H 0.41762 0.79685 0.44965 0.0
H201 H 0.41392 0.98799 0.41353 0.0
H202 H 0.53756 0.08501 0.32859 0.0
H203 H 0.62714 0.96737 0.30508 0.0
H204 H 0.68885 0.45416 0.29999 0.0
H205 H 0.6336 0.24267 0.31814 0.0
H206 H 0.50201 0.14527 0.39849 0.0
H207 H 0.47038 0.28324 0.44003 0.0
H208 H 0.44761 0.62955 0.27873 0.0
H209 H 0.32278 0.60077 0.34286 0.0
H210 H 0.68821 0.45919 0.43378 0.0
H211 H 0.65928 0.87716 0.43467 0.0
C212 C 0.49869 0.05215 0.91601 0.0
C213 C 0.49152 0.18261 0.92325 0.0
C214 C 0.50231 0.25609 0.90098 0.0
C215 C 0.51579 0.16759 0.8814 0.0
N216 N 0.51386 0.04305 0.89009 0.0
Co217 Co 0.53973 0.88532 0.87033 0.0
N218 N 0.58683 0.99133 0.84498 0.0
C219 C 0.58186 0.12168 0.84122 0.0
C220 C 0.61942 0.16874 0.82206 0.0
C221 C 0.64903 0.06081 0.81286 0.0
C222 C 0.62778 0.95335 0.82698 0.0
N223 N 0.56395 0.72566 0.8508 0.0
C224 C 0.60432 0.71027 0.83123 0.0
C225 C 0.6002 0.58544 0.82027 0.0
C226 C 0.55512 0.52226 0.83307 0.0
C227 C 0.53445 0.6106 0.85128 0.0
N228 N 0.49295 0.78116 0.89578 0.0
C229 C 0.47088 0.66053 0.8919 0.0
C230 C 0.44149 0.61355 0.91385 0.0
C231 C 0.44597 0.71123 0.93257 0.0
C232 C 0.47787 0.81191 0.92088 0.0
N233 N 0.47113 0.89885 0.84695 0.0
C234 C 0.37243 0.87012 0.81424 0.0
C235 C 0.36596 0.89907 0.8413 0.0
C236 C 0.4158 0.91388 0.85724 0.0
C237 C 0.42942 0.86609 0.80369 0.0
C238 C 0.47782 0.88107 0.82025 0.0
N239 N 0.60785 0.87121 0.89377 0.0
C240 C 0.661 0.74928 0.92673 0.0
C241 C 0.68663 0.86542 0.93643 0.0
C242 C 0.67553 0.98217 0.92258 0.0
C243 C 0.63716 0.98239 0.90115 0.0
C244 C 0.62149 0.75445 0.90554 0.0
H245 H 0.62827 0.07487 0.89171 0.0
H246 H 0.59954 0.66518 0.89961 0.0
H247 H 0.40957 0.93175 0.87813 0.0
H248 H 0.52066 0.87135 0.81143 0.0
C249 C 0.54677 0.19768 0.85816 0.0
C250 C 0.49225 0.93717 0.93352 0.0
C251 C 0.6408 0.81629 0.81999 0.0
C252 C 0.49008 0.58664 0.87015 0.0
H253 H 0.48225 0.22288 0.94254 0.0
H254 H 0.50592 0.36166 0.90005 0.0
H255 H 0.62527 0.26942 0.81572 0.0
H256 H 0.68116 0.06079 0.79696 0.0
H257 H 0.62444 0.54661 0.80362 0.0
H258 H 0.53848 0.42494 0.82903 0.0
H259 H 0.42223 0.51717 0.91652 0.0
H260 H 0.42858 0.70847 0.95254 0.0
H261 H 0.32275 0.90654 0.85026 0.0
H262 H 0.437 0.84384 0.783 0.0
H263 H 0.6693 0.65564 0.93607 0.0
H264 H 0.6936 0.07514 0.929 0.0
C265 C 0.01915 0.04317 0.10759 0.0
C266 C 0.03406 0.17202 0.10191 0.0
C267 C 0.01795 0.24426 0.12369 0.0
C268 C 0.9949 0.15549 0.14142 0.0
N269 N 0.99574 0.0324 0.13205 0.0
Co270 Co 0.9671 0.87364 0.15031 0.0
N271 N 0.91638 0.97811 0.1744 0.0
C272 C 0.92055 0.10858 0.17838 0.0
C273 C 0.88058 0.15444 0.19655 0.0
C274 C 0.85 0.04576 0.20485 0.0
C275 C 0.87324 0.93888 0.19126 0.0
N276 N 0.94098 0.71335 0.16906 0.0
C277 C 0.89854 0.69648 0.18768 0.0
C278 C 0.90146 0.57107 0.1984 0.0
C279 C 0.94835 0.50978 0.18669 0.0
C280 C 0.97098 0.59946 0.16916 0.0
N281 N 0.01665 0.77203 0.12544 0.0
C282 C 0.03802 0.65146 0.1296 0.0
C283 C 0.0684 0.60459 0.10801 0.0
C284 C 0.06525 0.70199 0.08919 0.0
C285 C 0.03303 0.80367 0.10038 0.0
N286 N 0.03269 0.88695 0.17552 0.0
C287 C 0.1254 0.86507 0.21165 0.0
C288 C 0.13681 0.88058 0.18454 0.0
C289 C 0.08981 0.89391 0.16685 0.0
C290 C 0.0671 0.86703 0.22038 0.0
C291 C 0.02167 0.87683 0.20212 0.0
N292 N 0.90205 0.8572 0.12518 0.0
C293 C 0.85103 0.72426 0.09315 0.0
C294 C 0.82442 0.83575 0.08241 0.0
C295 C 0.83443 0.95715 0.09475 0.0
C296 C 0.87296 0.9656 0.11625 0.0
C297 C 0.88959 0.73704 0.11444 0.0
H298 H 0.88146 0.06079 0.12478 0.0
H299 H 0.91178 0.6502 0.12128 0.0
H300 H 0.09965 0.90534 0.14605 0.0
H301 H 0.9776 0.87083 0.20971 0.0
C302 C 0.95943 0.18543 0.16327 0.0
C303 C 0.02252 0.93448 0.08875 0.0
C304 C 0.86097 0.80149 0.19845 0.0
C305 C 0.0171 0.57744 0.15109 0.0
H306 H 0.05157 0.21005 0.08348 0.0
H307 H 0.01818 0.34956 0.12531 0.0
H308 H 0.87456 0.25464 0.20309 0.0
H309 H 0.8164 0.04466 0.2201 0.0
H310 H 0.87488 0.5307 0.21421 0.0
H311 H 0.9647 0.41274 0.19095 0.0
H312 H 0.08796 0.50861 0.10561 0.0
H313 H 0.08511 0.69649 0.06984 0.0
H314 H 0.18157 0.88134 0.17711 0.0
H315 H 0.05649 0.85525 0.24118 0.0
H316 H 0.84471 0.62854 0.08426 0.0
H317 H 0.81415 0.04567 0.0873 0.0
C318 C 0.53514 0.16968 0.10327 0.0
C319 C 0.56833 0.2711 0.0926 0.0
C320 C 0.56998 0.36836 0.11151 0.0
C321 C 0.5376 0.32064 0.13253 0.0
N322 N 0.5163 0.19991 0.12787 0.0
Co323 Co 0.46829 0.09307 0.15232 0.0
N324 N 0.44168 0.25092 0.17164 0.0
C325 C 0.47089 0.36613 0.17237 0.0
C326 C 0.44633 0.45366 0.1898 0.0
C327 C 0.39881 0.38956 0.2006 0.0
C328 C 0.39727 0.26539 0.1893 0.0
N329 N 0.41976 0.98567 0.17675 0.0
C330 C 0.37579 0.02268 0.19331 0.0
C331 C 0.35367 0.91553 0.20715 0.0
C332 C 0.38558 0.80837 0.19909 0.0
C333 C 0.42532 0.85586 0.18082 0.0
N334 N 0.49675 0.93655 0.13295 0.0
C335 C 0.49477 0.81196 0.14163 0.0
C336 C 0.5113 0.72417 0.12239 0.0
C337 C 0.52447 0.79824 0.10043 0.0
C338 C 0.5154 0.92836 0.10747 0.0
N339 N 0.53519 0.08107 0.17654 0.0
C340 C 0.63207 0.12615 0.20922 0.0
C341 C 0.57503 0.12352 0.21976 0.0
C342 C 0.52725 0.10078 0.20311 0.0
C343 C 0.63994 0.09323 0.18251 0.0
C344 C 0.591 0.06931 0.1666 0.0
N345 N 0.40212 0.10627 0.12787 0.0
C346 C 0.34329 -0.00102 0.09486 0.0
C347 C 0.33235 0.11952 0.08229 0.0
C348 C 0.35098 0.23422 0.09542 0.0
C349 C 0.3869 0.2254 0.11768 0.0
C350 C 0.37663 0.99513 0.11799 0.0
H351 H 0.40542 0.31468 0.12557 0.0
H352 H 0.38572 0.90065 0.12659 0.0
H353 H 0.48375 0.10763 0.21153 0.0
H354 H 0.59822 0.04939 0.14587 0.0
C355 C 0.51673 0.39269 0.15432 0.0
C356 C 0.52366 0.04385 0.09021 0.0
C357 C 0.35797 0.15922 0.19807 0.0
C358 C 0.46214 0.78069 0.16442 0.0
H359 H 0.58884 0.27415 0.07323 0.0
H360 H 0.59003 0.46437 0.1096 0.0
H361 H 0.46124 0.55191 0.19425 0.0
H362 H 0.37019 0.42784 0.21582 0.0
H363 H 0.31876 0.91528 0.22178 0.0
H364 H 0.37923 0.7077 0.20531 0.0
H365 H 0.50864 0.61849 0.12331 0.0
H366 H 0.5369 0.75859 0.08144 0.0
H367 H 0.56696 0.14768 0.24033 0.0
H368 H 0.6835 0.09115 0.17373 0.0
H369 H 0.32984 0.90665 0.08625 0.0
H370 H 0.34117 0.33083 0.08782 0.0
C371 C 0.99565 0.20753 0.9243 0.0
C372 C 0.98669 0.31593 0.94046 0.0
C373 C 1.00436 0.42349 0.92632 0.0
C374 C 0.02354 0.37531 0.90247 0.0
N375 N 0.01717 0.2436 0.90022 0.0
Co376 Co 0.04893 0.1284 0.87127 0.0
N377 N 0.09188 0.27905 0.85444 0.0
C378 C 0.08968 0.40688 0.86177 0.0
C379 C 0.12601 0.48645 0.84708 0.0
C380 C 0.15275 0.40452 0.82933 0.0
C381 C 0.13123 0.27949 0.8342 0.0
N382 N 0.08167 0.01156 0.84296 0.0
C383 C 0.11994 0.03894 0.82304 0.0
C384 C 0.12947 0.93053 0.80704 0.0
C385 C 0.09692 0.83012 0.81747 0.0
C386 C 0.0694 0.8829 0.83919 0.0
N387 N 0.00591 0.97847 0.88809 0.0
C388 C 1.00003 0.85505 0.87868 0.0
C389 C 0.97044 0.77262 0.89564 0.0
C390 C 0.95866 0.84698 0.91756 0.0
C391 C 0.98198 0.97048 0.9126 0.0
N392 N 0.97887 0.16714 0.84857 0.0
C393 C 0.88234 0.22909 0.81546 0.0
C394 C 0.90253 0.10005 0.81783 0.0
C395 C 0.95036 0.0716 0.83431 0.0
C396 C 0.91144 0.32578 0.82994 0.0
C397 C 0.95834 0.29299 0.84625 0.0
N398 N 0.11769 0.09204 0.89393 0.0
C399 C 0.17258 0.94291 0.92157 0.0
C400 C 0.19377 0.04812 0.9369 0.0
C401 C 0.18098 0.17507 0.92812 0.0
C402 C 0.14465 0.19424 0.90653 0.0
C403 C 0.13442 0.96696 0.90031 0.0
H404 H 0.13577 0.29359 0.90159 0.0
H405 H 0.11641 0.88379 0.89007 0.0
H406 H 0.96311 0.97155 0.83507 0.0
H407 H 0.97709 0.37261 0.85656 0.0
C408 C 0.05769 0.44644 0.8842 0.0
C409 C 0.9884 0.07089 0.93291 0.0
C410 C 0.14933 0.16467 0.81894 0.0
C411 C 0.03136 0.8149 0.85623 0.0
H412 H 0.9719 0.31807 0.96077 0.0
H413 H 0.00737 0.52354 0.93342 0.0
H414 H 0.13372 0.59057 0.84959 0.0
H415 H 0.18527 0.43207 0.81469 0.0
H416 H 0.15696 0.92533 0.78957 0.0
H417 H 0.09361 0.73071 0.81006 0.0
H418 H 0.96234 0.66859 0.89321 0.0
H419 H 0.93884 0.81246 0.93581 0.0
H420 H 0.88123 0.02072 0.80729 0.0
H421 H 0.89874 0.42793 0.82856 0.0
H422 H 0.18273 0.84238 0.92665 0.0
H423 H 0.19532 0.26145 0.93873 0.0
H424 H 0.93125 0.59121 0.46766 0.0
H425 H 0.06607 0.29808 0.46041 0.0
H426 H 0.08904 0.32013 0.50731 0.0
H427 H 0.07479 0.43376 0.54984 0.0
H428 H 0.93681 0.71954 0.55775 0.0
H429 H 0.91472 0.69921 0.5106 0.0
C430 C 0.96698 0.53561 0.47616 0.0
C431 C 0.99974 0.44936 0.46019 0.0
C432 C 0.97982 0.5491 0.5032 0.0
C433 C 0.04229 0.36947 0.47203 0.0
C434 C 0.05521 0.38171 0.49888 0.0
C435 C 0.0384 0.48777 0.5415 0.0
C436 C 0.00542 0.57318 0.55755 0.0
C437 C 0.02492 0.47284 0.51458 0.0
C438 C 0.96155 0.65034 0.54593 0.0
C439 C 0.9488 0.63851 0.51903 0.0
H440 H 0.42819 0.41503 0.46935 0.0
H441 H 0.55846 0.71854 0.45964 0.0
H442 H 0.58472 0.7004 0.50634 0.0
H443 H 0.57582 0.58537 0.54914 0.0
H444 H 0.4463 0.27996 0.55856 0.0
H445 H 0.41955 0.30039 0.51191 0.0
C446 C 0.46393 0.47347 0.47715 0.0
C447 C 0.49376 0.56277 0.46063 0.0
C448 C 0.47981 0.4599 0.50386 0.0
C449 C 0.53626 0.6461 0.47174 0.0
C450 C 0.55137 0.63546 0.49842 0.0
C451 C 0.5402 0.52676 0.54127 0.0
C452 C 0.5107 0.43623 0.55769 0.0
C453 C 0.52422 0.54089 0.51457 0.0
C454 C 0.46813 0.35334 0.54655 0.0
C455 C 0.45265 0.36529 0.51996 0.0
H456 H 0.5777 0.89094 0.05209 0.0
H457 H 0.45175 0.20183 0.06227 0.0
H458 H 0.43167 0.19909 0.01482 0.0
H459 H 0.44015 0.09103 0.97169 0.0
H460 H 0.56688 0.78243 0.96105 0.0
H461 H 0.58947 0.78806 1.0083 0.0
C462 C 0.54349 0.9532 0.04427 0.0
C463 C 0.5134 0.04053 0.0611 0.0
C464 C 0.53048 0.94835 0.01709 0.0
C465 C 0.47366 0.12989 0.04997 0.0
C466 C 0.46165 0.12776 0.02293 0.0
C467 C 0.47481 0.0295 0.97936 0.0
C468 C 0.50433 0.9418 0.96249 0.0
C469 C 0.48864 0.03539 1.00641 0.0
C470 C 0.54511 0.8541 0.97342 0.0
C471 C 0.55812 0.85731 1.00041 0.0
H472 H 0.07874 0.85577 0.04242 0.0
H473 H 0.93285 0.08554 0.07116 0.0
H474 H 0.91 0.15156 0.02622 0.0
H475 H 0.92835 0.13713 0.9783 0.0
H476 H 0.07091 0.89862 0.94962 0.0
H477 H 0.09246 0.82818 0.99474 0.0
C478 C 0.0398 0.91325 0.03905 0.0
C479 C 0.00629 0.96017 0.06051 0.0
C480 C 0.02545 0.94816 0.01291 0.0
C481 C 0.95901 0.04517 0.0552 0.0
C482 C 0.94576 0.08343 0.02941 0.0
C483 C 0.96552 0.07367 0.982 0.0
C484 C 1.0001 0.02917 0.96072 0.0
C485 C 0.97846 0.03514 1.00806 0.0
C486 C 0.0453 0.93888 0.96574 0.0
C487 C 0.05778 0.89867 0.9915 0.0
H488 H 0.66217 0.05989 0.25976 0.0
H489 H 0.7123 0.31077 0.1947 0.0
H490 H 0.78978 0.40852 0.22135 0.0
H491 H 0.84564 0.42002 0.26295 0.0
H492 H 0.7958 0.16873 0.328 0.0
H493 H 0.7178 0.07203 0.3015 0.0
C494 C 0.69048 0.13517 0.25141 0.0
C495 C 0.68188 0.17682 0.22519 0.0
C496 C 0.73552 0.19059 0.26681 0.0
C497 C 0.71873 0.27498 0.21465 0.0
C498 C 0.76294 0.33165 0.22994 0.0
C499 C 0.81726 0.34486 0.27134 0.0
C500 C 0.82622 0.30244 0.29748 0.0
C501 C 0.77204 0.28989 0.256 0.0
C502 C 0.78915 0.20489 0.3081 0.0
C503 C 0.74464 0.14887 0.29288 0.0
H504 H 0.66359 0.46406 0.75472 0.0
H505 H 0.71893 0.18166 0.69624 0.0
H506 H 0.79731 0.1075 0.72535 0.0
H507 H 0.85298 0.12787 0.76685 0.0
H508 H 0.79694 0.41185 0.82521 0.0
H509 H 0.71915 0.48447 0.7962 0.0
C510 C 0.69336 0.38738 0.74827 0.0
C511 C 0.6859 0.32954 0.72325 0.0
C512 C 0.73908 0.34645 0.76494 0.0
C513 C 0.72445 0.22945 0.71521 0.0
C514 C 0.76915 0.18639 0.73192 0.0
C515 C 0.82308 0.20393 0.77348 0.0
C516 C 0.83161 0.26463 0.79824 0.0
C517 C 0.77718 0.24452 0.75679 0.0
C518 C 0.79257 0.36452 0.80614 0.0
C519 C 0.7473 0.40551 0.78964 0.0
H520 H 0.15209 0.61822 0.75754 0.0
H521 H 0.22239 0.83687 0.69137 0.0
H522 H 0.30055 0.92198 0.71914 0.0
H523 H 0.35124 0.93181 0.76223 0.0
H524 H 0.27801 0.71948 0.82867 0.0
H525 H 0.19852 0.63979 0.80092 0.0
C526 C 0.1847 0.68414 0.74912 0.0
C527 C 0.18149 0.71943 0.72221 0.0
C528 C 0.22974 0.73388 0.76527 0.0
C529 C 0.22436 0.80498 0.71178 0.0
C530 C 0.26913 0.85469 0.72776 0.0
C531 C 0.31809 0.86731 0.77066 0.0
C532 C 0.3211 0.83176 0.7976 0.0
C533 C 0.2726 0.81926 0.7545 0.0
C534 C 0.27695 0.74985 0.80815 0.0
C535 C 0.232 0.70148 0.79217 0.0
H536 H 0.30072 0.8179 0.30772 0.0
H537 H 0.35262 0.47149 0.26486 0.0
H538 H 0.27993 0.51957 0.23051 0.0
H539 H 0.20347 0.66372 0.21208 0.0
H540 H 0.15183 0.01005 0.25508 0.0
H541 H 0.22496 0.96207 0.28923 0.0
C542 C 0.29555 0.75235 0.29098 0.0
C543 C 0.33111 0.64021 0.28894 0.0
C544 C 0.25509 0.78272 0.27095 0.0
C545 C 0.32507 0.55742 0.2669 0.0
C546 C 0.28404 0.58547 0.2472 0.0
C547 C 0.20867 0.72909 0.22885 0.0
C548 C 0.17304 0.84122 0.23097 0.0
C549 C 0.24926 0.69863 0.24885 0.0
C550 C 0.17929 0.92399 0.25299 0.0
C551 C 0.22048 0.896 0.2726 0.0
H552 H 0.3698 0.15862 0.25126 0.0
H553 H 0.24435 0.22701 0.18946 0.0
H554 H 0.16911 0.28411 0.22253 0.0
H555 H 0.1396 0.31543 0.26924 0.0
H556 H 0.26505 0.24712 0.33105 0.0
H557 H 0.34025 0.18974 0.29797 0.0
C558 C 0.32578 0.18545 0.24522 0.0
C559 C 0.312 0.18836 0.21818 0.0
C560 C 0.28323 0.21876 0.26431 0.0
C561 C 0.25536 0.22395 0.21026 0.0
C562 C 0.21262 0.25681 0.22912 0.0
C563 C 0.18359 0.28844 0.27529 0.0
C564 C 0.19738 0.28564 0.30233 0.0
C565 C 0.22615 0.25511 0.25619 0.0
C566 C 0.25401 0.24996 0.31024 0.0
C567 C 0.29675 0.21704 0.29138 0.0
H568 H 0.37708 0.23883 0.74815 0.0
H569 H 0.24696 0.27169 0.68711 0.0
H570 H 0.16839 0.23135 0.71964 0.0
H571 H 0.13684 0.19425 0.76598 0.0
H572 H 0.26708 0.16362 0.82702 0.0
H573 H 0.34581 0.19447 0.79419 0.0
C574 C 0.33147 0.23549 0.74207 0.0
C575 C 0.31739 0.25638 0.71539 0.0
C576 C 0.28683 0.21336 0.76091 0.0
C577 C 0.25841 0.25434 0.70758 0.0
C578 C 0.21368 0.23169 0.72615 0.0
C579 C 0.18258 0.19374 0.77189 0.0
C580 C 0.19666 0.17719 0.79868 0.0
C581 C 0.22733 0.21209 0.75291 0.0
C582 C 0.25571 0.17672 0.80641 0.0
C583 C 0.30051 0.19455 0.78769 0.0
H584 H 0.75914 0.80476 0.81347 0.0
H585 H 0.59613 0.77558 0.7711 0.0
H586 H 0.64977 0.7386 0.72957 0.0
H587 H 0.74372 0.71496 0.70527 0.0
H588 H 0.9067 0.74472 0.74765 0.0
H589 H 0.85306 0.78085 0.7892 0.0
C590 C 0.73574 0.78974 0.79509 0.0
C591 C 0.67415 0.79103 0.79515 0.0
C592 C 0.76691 0.76937 0.77134 0.0
C593 C 0.64374 0.7733 0.77132 0.0
C594 C 0.67432 0.75274 0.74765 0.0
C595 C 0.76711 0.73026 0.72365 0.0
C596 C 0.8287 0.72935 0.72359 0.0
C597 C 0.73593 0.75061 0.7474 0.0
C598 C 0.8591 0.74695 0.74742 0.0
C599 C 0.82851 0.76725 0.7711 0.0
H600 H 0.74263 0.80009 0.20582 0.0
H601 H 0.9064 0.75223 0.24687 0.0
H602 H 0.85357 0.71575 0.28859 0.0
H603 H 0.76021 0.69899 0.31351 0.0
H604 H 0.59639 0.746 0.27247 0.0
H605 H 0.64921 0.78289 0.23074 0.0
C606 C 0.76637 0.78091 0.22395 0.0
C607 C 0.82793 0.77644 0.22341 0.0
C608 C 0.73568 0.76133 0.24785 0.0
C609 C 0.85879 0.75394 0.24695 0.0
C610 C 0.82867 0.73376 0.27076 0.0
C611 C 0.73645 0.71796 0.29538 0.0
C612 C 0.67489 0.72206 0.29593 0.0
C613 C 0.76711 0.73748 0.27148 0.0
C614 C 0.64401 0.74448 0.27238 0.0
C615 C 0.67411 0.76484 0.24858 0.0
H616 H 0.24965 0.47703 0.55697 0.0
H617 H 0.34998 0.12292 0.54333 0.0
H618 H 0.31197 0.10894 0.49885 0.0
H619 H 0.25466 0.20251 0.46234 0.0
H620 H 0.16023 0.56415 0.47496 0.0
H621 H 0.19401 0.57233 0.52053 0.0
C622 C 0.26413 0.3973 0.54437 0.0
C623 C 0.30309 0.30154 0.55417 0.0
C624 C 0.24412 0.3923 0.51809 0.0
C625 C 0.31902 0.19708 0.53721 0.0
C626 C 0.29802 0.18974 0.51133 0.0
C627 C 0.24152 0.28316 0.47505 0.0
C628 C 0.2054 0.38311 0.46499 0.0
C629 C 0.26121 0.28767 0.5014 0.0
C630 C 0.1892 0.48735 0.48182 0.0
C631 C 0.20795 0.49145 0.50807 0.0
H632 H 0.83252 0.79534 0.5384 0.0
H633 H 0.72432 0.48533 0.57107 0.0
H634 H 0.67518 0.45997 0.52871 0.0
H635 H 0.66377 0.52238 0.48201 0.0
H636 H 0.76614 0.84279 0.4502 0.0
H637 H 0.81705 0.86648 0.4925 0.0
C638 C 0.79767 0.72334 0.53651 0.0
C639 C 0.78323 0.64101 0.55808 0.0
C640 C 0.76891 0.70997 0.51206 0.0
C641 C 0.73783 0.54806 0.55484 0.0
C642 C 0.70938 0.53365 0.53057 0.0
C643 C 0.69738 0.59713 0.48433 0.0
C644 C 0.7113 0.6804 0.46295 0.0
C645 C 0.72507 0.61282 0.50894 0.0
C646 C 0.75451 0.7777 0.46636 0.0
C647 C 0.78352 0.79139 0.49056 0.0
H648 H 0.83642 0.988 0.03885 0.0
H649 H 0.73749 0.66017 0.06927 0.0
H650 H 0.68748 0.63701 0.02668 0.0
H651 H 0.67262 0.71022 0.98069 0.0
H652 H 0.77963 0.02621 0.94951 0.0
H653 H 0.82654 0.0517 0.99225 0.0
C654 C 0.80414 0.91145 0.03611 0.0
C655 C 0.79088 0.82626 0.05721 0.0
C656 C 0.77734 0.8958 0.01131 0.0
C657 C 0.74864 0.72711 0.05336 0.0
C658 C 0.72021 0.71359 0.02897 0.0
C659 C 0.70669 0.7837 0.98298 0.0
C660 C 0.72103 0.86817 0.9617 0.0
C661 C 0.73457 0.79684 1.00769 0.0
C662 C 0.76577 0.96224 0.96548 0.0
C663 C 0.79312 0.97666 0.98999 0.0
H664 H 0.26084 0.93966 0.05617 0.0
H665 H 0.35025 0.31144 0.04464 0.0
H666 H 0.32066 0.31381 0.99901 0.0
H667 H 0.27361 0.20978 0.96159 0.0
H668 H 0.18216 0.84132 0.97201 0.0
H669 H 0.21348 0.83368 0.01799 0.0
C670 C 0.27473 0.02094 0.04383 0.0
C671 C 0.30831 0.12499 0.05462 0.0
C672 C 0.25876 0.02094 0.0169 0.0
C673 C 0.32336 0.23075 0.03785 0.0
C674 C 0.30736 0.23149 0.01127 0.0
C675 C 0.25923 0.12844 0.97383 0.0
C676 C 0.22297 0.02924 0.9632 0.0
C677 C 0.27559 0.12681 1.00055 0.0
C678 C 0.2089 0.92093 0.9794 0.0
C679 C 0.22646 0.91688 1.00592 0.0
loop_
_geom_bond_atom_site_label_1
_geom_bond_atom_site_label_2
_geom_bond_distance
_geom_bond_site_symmetry_2
_ccdc_geom_bond_type
C0 C1 1.443 . S
C0 N4 1.376 . S
C0 C38 1.389 1_455 S
C1 C0 1.443 . S
C1 C2 1.340 . S
C1 H41 0.949 1_455 S
C2 C1 1.340 . S
C2 C3 1.439 . S
C2 H42 0.950 . S
C3 C2 1.439 . S
C3 N4 1.374 . S
C3 C37 1.395 . S
N4 C0 1.376 . S
N4 C3 1.374 . S
N4 Co5 2.008 . S
Co5 N4 2.008 . S
Co5 N6 1.995 . S
Co5 N11 2.008 . S
Co5 N16 2.005 . S
Co5 N21 2.282 1_455 S
Co5 N27 2.282 . S
N6 Co5 1.995 . S
N6 C7 1.376 . S
N6 C10 1.383 . S
C7 N6 1.376 . S
C7 C8 1.446 . S
C7 C37 1.391 . S
C8 C7 1.446 . S
C8 C9 1.339 . S
C8 H43 0.949 . S
C9 C8 1.339 . S
C9 C10 1.439 . S
C9 H44 0.950 . S
C10 N6 1.383 . S
C10 C9 1.439 . S
C10 C39 1.392 . S
N11 Co5 2.008 . S
N11 C12 1.376 . S
N11 C15 1.374 1_545 S
C12 N11 1.376 . S
C12 C13 1.443 1_545 S
C12 C39 1.389 . S
C13 C12 1.443 1_565 S
C13 C14 1.340 . S
C13 H45 0.951 . S
C14 C13 1.340 . S
C14 C15 1.439 . S
C14 H46 0.950 . S
C15 N11 1.374 1_565 S
C15 C14 1.439 . S
C15 C40 1.395 . S
N16 Co5 2.005 . S
N16 C17 1.372 1_445 S
N16 C20 1.376 1_455 S
C17 N16 1.372 1_665 S
C17 C18 1.446 . S
C17 C40 1.391 1_655 S
C18 C17 1.446 . S
C18 C19 1.339 1_565 S
C18 H47 0.949 . S
C19 C18 1.339 1_545 S
C19 C20 1.439 . S
C19 H48 0.950 . S
C20 N16 1.376 1_655 S
C20 C19 1.439 . S
C20 C38 1.392 . S
N21 Co5 2.282 1_655 S
N21 C24 1.332 . S
N21 C26 1.332 . S
C22 C23 1.386 . S
C22 C25 1.388 . S
C23 C22 1.386 . S
C23 C24 1.382 . S
C23 H49 0.950 . S
C24 N21 1.332 . S
C24 C23 1.382 . S
C24 H35 0.952 . S
C25 C22 1.388 . S
C25 C26 1.382 . S
C25 H50 0.950 . S
C26 N21 1.332 . S
C26 C25 1.382 . S
C26 H36 0.940 1_655 S
N27 Co5 2.282 . S
N27 C31 1.332 . S
N27 C32 1.332 . S
C28 C29 1.388 . S
C28 C32 1.382 . S
C28 H51 0.950 1_545 S
C29 C28 1.388 . S
C29 C30 1.386 . S
C30 C29 1.386 . S
C30 C31 1.382 . S
C30 H52 0.950 . S
C31 N27 1.332 . S
C31 C30 1.382 . S
C31 H33 0.952 . S
C32 N27 1.332 . S
C32 C28 1.382 . S
C32 H34 0.948 1_545 S
H33 C31 0.952 . S
H34 C32 0.948 1_565 S
H35 C24 0.952 . S
H36 C26 0.940 1_455 S
C37 C3 1.395 . S
C37 C7 1.391 . S
C38 C0 1.389 1_655 S
C38 C20 1.392 . S
C39 C10 1.392 . S
C39 C12 1.389 . S
C40 C15 1.395 . S
C40 C17 1.391 1_455 S
H41 C1 0.949 1_655 S
H42 C2 0.950 . S
H43 C8 0.949 . S
H44 C9 0.950 . S
H45 C13 0.951 . S
H46 C14 0.950 . S
H47 C18 0.949 . S
H48 C19 0.950 . S
H49 C23 0.950 . S
H50 C25 0.950 . S
H51 C28 0.950 1_565 S
H52 C30 0.950 . S
C53 C54 1.443 . S
C53 N57 1.376 . S
C53 C91 1.389 . S
C54 C53 1.443 . S
C54 C55 1.340 . S
C54 H94 0.951 . S
C55 C54 1.340 . S
C55 C56 1.439 . S
C55 H95 0.950 . S
C56 C55 1.439 . S
C56 N57 1.374 . S
C56 C90 1.395 . S
N57 C53 1.376 . S
N57 C56 1.374 . S
N57 Co58 2.008 . S
Co58 N57 2.008 . S
Co58 N59 1.995 . S
Co58 N64 2.008 . S
Co58 N69 1.995 . S
Co58 N74 2.282 . S
Co58 N80 2.282 . S
N59 Co58 1.995 . S
N59 C60 1.376 . S
N59 C63 1.383 . S
C60 N59 1.376 . S
C60 C61 1.446 . S
C60 C90 1.391 . S
C61 C60 1.446 . S
C61 C62 1.339 . S
C61 H96 0.949 . S
C62 C61 1.339 . S
C62 C63 1.439 . S
C62 H97 0.950 . S
C63 N59 1.383 . S
C63 C62 1.439 . S
C63 C92 1.392 . S
N64 Co58 2.008 . S
N64 C65 1.376 . S
N64 C68 1.374 1_545 S
C65 N64 1.376 . S
C65 C66 1.443 1_545 S
C65 C92 1.389 . S
C66 C65 1.443 1_565 S
C66 C67 1.340 . S
C66 H98 0.951 . S
C67 C66 1.340 . S
C67 C68 1.439 . S
C67 H99 0.950 . S
C68 N64 1.374 1_565 S
C68 C67 1.439 . S
C68 C93 1.395 . S
N69 Co58 1.995 . S
N69 C70 1.376 1_545 S
N69 C73 1.383 . S
C70 N69 1.376 1_565 S
C70 C71 1.446 . S
C70 C93 1.391 . S
C71 C70 1.446 . S
C71 C72 1.339 1_565 S
C71 H100 0.949 . S
C72 C71 1.339 1_545 S
C72 C73 1.439 . S
C72 H101 0.950 . S
C73 N69 1.383 . S
C73 C72 1.439 . S
C73 C91 1.392 . S
N74 Co58 2.282 . S
N74 C77 1.332 . S
N74 C79 1.332 . S
C75 C76 1.386 . S
C75 C78 1.388 . S
C76 C75 1.386 . S
C76 C77 1.382 . S
C76 H102 0.950 . S
C77 N74 1.332 . S
C77 C76 1.382 . S
C77 H88 0.952 . S
C78 C75 1.388 . S
C78 C79 1.382 . S
C78 H103 0.950 . S
C79 N74 1.332 . S
C79 C78 1.382 . S
C79 H89 0.948 . S
N80 Co58 2.282 . S
N80 C84 1.332 . S
N80 C85 1.332 . S
C81 C82 1.388 . S
C81 C85 1.382 . S
C81 H104 0.950 1_545 S
C82 C81 1.388 . S
C82 C83 1.386 . S
C83 C82 1.386 . S
C83 C84 1.382 . S
C83 H105 0.950 . S
C84 N80 1.332 . S
C84 C83 1.382 . S
C84 H86 0.952 . S
C85 N80 1.332 . S
C85 C81 1.382 . S
C85 H87 0.948 1_545 S
H86 C84 0.952 . S
H87 C85 0.948 1_565 S
H88 C77 0.952 . S
H89 C79 0.948 . S
C90 C56 1.395 . S
C90 C60 1.391 . S
C91 C53 1.389 . S
C91 C73 1.392 . S
C92 C63 1.392 . S
C92 C65 1.389 . S
C93 C68 1.395 . S
C93 C70 1.391 . S
H94 C54 0.951 . S
H95 C55 0.950 . S
H96 C61 0.949 . S
H97 C62 0.950 . S
H98 C66 0.951 . S
H99 C67 0.950 . S
H100 C71 0.949 . S
H101 C72 0.950 . S
H102 C76 0.950 . S
H103 C78 0.950 . S
H104 C81 0.950 1_565 S
H105 C83 0.950 . S
C106 C107 1.443 . S
C106 N110 1.376 1_455 S
C106 C144 1.389 . S
C107 C106 1.443 . S
C107 C108 1.340 1_565 S
C107 H147 0.951 . S
C108 C107 1.340 1_545 S
C108 C109 1.439 1_455 S
C108 H148 0.950 . S
C109 C108 1.439 1_655 S
C109 N110 1.374 1_545 S
C109 C143 1.395 . S
N110 C106 1.376 1_655 S
N110 C109 1.374 1_565 S
N110 Co111 2.008 . S
Co111 N110 2.008 . S
Co111 N112 1.995 . S
Co111 N117 2.008 . S
Co111 N122 1.995 . S
Co111 N127 2.282 1_655 S
Co111 N133 2.282 . S
N112 Co111 1.995 . S
N112 C113 1.376 1_565 S
N112 C116 1.383 . S
C113 N112 1.376 1_545 S
C113 C114 1.446 . S
C113 C143 1.391 . S
C114 C113 1.446 . S
C114 C115 1.339 . S
C114 H149 0.949 . S
C115 C114 1.339 . S
C115 C116 1.439 1_545 S
C115 H150 0.950 . S
C116 N112 1.383 . S
C116 C115 1.439 1_565 S
C116 C145 1.392 . S
N117 Co111 2.008 . S
N117 C118 1.376 . S
N117 C121 1.374 . S
C118 N117 1.376 . S
C118 C119 1.443 . S
C118 C145 1.389 . S
C119 C118 1.443 . S
C119 C120 1.340 . S
C119 H151 0.951 . S
C120 C119 1.340 . S
C120 C121 1.439 . S
C120 H152 0.950 . S
C121 N117 1.374 . S
C121 C120 1.439 . S
C121 C146 1.395 . S
N122 Co111 1.995 . S
N122 C123 1.376 . S
N122 C126 1.383 1_655 S
C123 N122 1.376 . S
C123 C124 1.446 . S
C123 C146 1.391 . S
C124 C123 1.446 . S
C124 C125 1.339 1_655 S
C124 H153 0.949 . S
C125 C124 1.339 1_455 S
C125 C126 1.439 . S
C125 H154 0.950 . S
C126 N122 1.383 1_455 S
C126 C125 1.439 . S
C126 C144 1.392 . S
N127 Co111 2.282 1_455 S
N127 C130 1.332 . S
N127 C132 1.332 . S
C128 C129 1.386 . S
C128 C131 1.388 . S
C129 C128 1.386 . S
C129 C130 1.382 . S
C129 H155 0.950 . S
C130 N127 1.332 . S
C130 C129 1.382 . S
C130 H141 0.952 . S
C131 C128 1.388 . S
C131 C132 1.382 . S
C131 H156 0.950 . S
C132 N127 1.332 . S
C132 C131 1.382 . S
C132 H142 0.940 1_565 S
N133 Co111 2.282 . S
N133 C137 1.332 . S
N133 C138 1.332 . S
C134 C135 1.388 . S
C134 C138 1.382 . S
C134 H157 0.950 . S
C135 C134 1.388 . S
C135 C136 1.386 . S
C136 C135 1.386 . S
C136 C137 1.382 . S
C136 H158 0.950 1_565 S
C137 N133 1.332 . S
C137 C136 1.382 . S
C137 H139 0.952 1_565 S
C138 N133 1.332 . S
C138 C134 1.382 . S
C138 H140 0.948 . S
H139 C137 0.952 1_545 S
H140 C138 0.948 . S
H141 C130 0.952 . S
H142 C132 0.940 1_545 S
C143 C109 1.395 . S
C143 C113 1.391 . S
C144 C106 1.389 . S
C144 C126 1.392 . S
C145 C116 1.392 . S
C145 C118 1.389 . S
C146 C121 1.395 . S
C146 C123 1.391 . S
H147 C107 0.951 . S
H148 C108 0.950 . S
H149 C114 0.949 . S
H150 C115 0.950 . S
H151 C119 0.951 . S
H152 C120 0.950 . S
H153 C124 0.949 . S
H154 C125 0.950 . S
H155 C129 0.950 . S
H156 C131 0.950 . S
H157 C134 0.950 . S
H158 C136 0.950 1_545 S
C159 C160 1.443 . S
C159 N163 1.376 . S
C159 C197 1.389 . S
C160 C159 1.443 . S
C160 C161 1.340 1_565 S
C160 H200 0.951 . S
C161 C160 1.340 1_545 S
C161 C162 1.439 . S
C161 H201 0.950 . S
C162 C161 1.439 . S
C162 N163 1.374 1_545 S
C162 C196 1.395 . S
N163 C159 1.376 . S
N163 C162 1.374 1_565 S
N163 Co164 2.008 . S
Co164 N163 2.008 . S
Co164 N165 1.995 . S
Co164 N170 2.008 . S
Co164 N175 1.995 . S
Co164 N180 2.282 . S
Co164 N186 2.282 . S
N165 Co164 1.995 . S
N165 C166 1.376 1_565 S
N165 C169 1.383 . S
C166 N165 1.376 1_545 S
C166 C167 1.446 . S
C166 C196 1.391 . S
C167 C166 1.446 . S
C167 C168 1.339 . S
C167 H202 0.949 . S
C168 C167 1.339 . S
C168 C169 1.439 1_545 S
C168 H203 0.950 . S
C169 N165 1.383 . S
C169 C168 1.439 1_565 S
C169 C198 1.392 . S
N170 Co164 2.008 . S
N170 C171 1.376 . S
N170 C174 1.374 . S
C171 N170 1.376 . S
C171 C172 1.443 . S
C171 C198 1.389 . S
C172 C171 1.443 . S
C172 C173 1.340 . S
C172 H204 0.951 . S
C173 C172 1.340 . S
C173 C174 1.439 . S
C173 H205 0.950 . S
C174 N170 1.374 . S
C174 C173 1.439 . S
C174 C199 1.395 . S
N175 Co164 1.995 . S
N175 C176 1.376 . S
N175 C179 1.383 . S
C176 N175 1.376 . S
C176 C177 1.446 . S
C176 C199 1.391 . S
C177 C176 1.446 . S
C177 C178 1.339 . S
C177 H206 0.949 . S
C178 C177 1.339 . S
C178 C179 1.439 . S
C178 H207 0.950 . S
C179 N175 1.383 . S
C179 C178 1.439 . S
C179 C197 1.392 . S
N180 Co164 2.282 . S
N180 C183 1.332 . S
N180 C185 1.332 . S
C181 C182 1.386 . S
C181 C184 1.388 . S
C182 C181 1.386 . S
C182 C183 1.382 . S
C182 H208 0.950 . S
C183 N180 1.332 . S
C183 C182 1.382 . S
C183 H194 0.952 . S
C184 C181 1.388 . S
C184 C185 1.382 . S
C184 H209 0.950 . S
C185 N180 1.332 . S
C185 C184 1.382 . S
C185 H195 0.942 1_565 S
N186 Co164 2.282 . S
N186 C190 1.332 . S
N186 C191 1.332 . S
C187 C188 1.388 . S
C187 C191 1.382 . S
C187 H210 0.950 . S
C188 C187 1.388 . S
C188 C189 1.386 . S
C189 C188 1.386 . S
C189 C190 1.382 . S
C189 H211 0.950 1_565 S
C190 N186 1.332 . S
C190 C189 1.382 . S
C190 H192 0.952 1_565 S
C191 N186 1.332 . S
C191 C187 1.382 . S
C191 H193 0.948 . S
H192 C190 0.952 1_545 S
H193 C191 0.948 . S
H194 C183 0.952 . S
H195 C185 0.942 1_545 S
C196 C162 1.395 . S
C196 C166 1.391 . S
C197 C159 1.389 . S
C197 C179 1.392 . S
C198 C169 1.392 . S
C198 C171 1.389 . S
C199 C174 1.395 . S
C199 C176 1.391 . S
H200 C160 0.951 . S
H201 C161 0.950 . S
H202 C167 0.949 . S
H203 C168 0.950 . S
H204 C172 0.951 . S
H205 C173 0.950 . S
H206 C177 0.949 . S
H207 C178 0.950 . S
H208 C182 0.950 . S
H209 C184 0.950 . S
H210 C187 0.950 . S
H211 C189 0.950 1_545 S
C212 C213 1.443 . S
C212 N216 1.376 . S
C212 C250 1.389 . S
C213 C212 1.443 . S
C213 C214 1.340 1_565 S
C213 H253 0.951 1_565 S
C214 C213 1.340 1_545 S
C214 C215 1.439 1_545 S
C214 H254 0.950 . S
C215 C214 1.439 1_565 S
C215 N216 1.374 . S
C215 C249 1.395 1_565 S
N216 C212 1.376 . S
N216 C215 1.374 . S
N216 Co217 2.008 . S
Co217 N216 2.008 . S
Co217 N218 1.995 . S
Co217 N223 2.008 . S
Co217 N228 1.995 . S
Co217 N233 2.282 . S
Co217 N239 2.282 . S
N218 Co217 1.995 . S
N218 C219 1.376 . S
N218 C222 1.383 . S
C219 N218 1.376 . S
C219 C220 1.446 . S
C219 C249 1.391 1_565 S
C220 C219 1.446 . S
C220 C221 1.339 . S
C220 H255 0.949 1_565 S
C221 C220 1.339 . S
C221 C222 1.439 . S
C221 H256 0.950 . S
C222 N218 1.383 . S
C222 C221 1.439 . S
C222 C251 1.392 . S
N223 Co217 2.008 . S
N223 C224 1.376 . S
N223 C227 1.374 . S
C224 N223 1.376 . S
C224 C225 1.443 . S
C224 C251 1.389 . S
C225 C224 1.443 . S
C225 C226 1.340 . S
C225 H257 0.951 . S
C226 C225 1.340 . S
C226 C227 1.439 . S
C226 H258 0.950 . S
C227 N223 1.374 . S
C227 C226 1.439 . S
C227 C252 1.395 . S
N228 Co217 1.995 . S
N228 C229 1.376 . S
N228 C232 1.383 . S
C229 N228 1.376 . S
C229 C230 1.446 . S
C229 C252 1.391 . S
C230 C229 1.446 . S
C230 C231 1.339 . S
C230 H259 0.949 . S
C231 C230 1.339 . S
C231 C232 1.439 . S
C231 H260 0.950 . S
C232 N228 1.383 . S
C232 C231 1.439 . S
C232 C250 1.392 . S
N233 Co217 2.282 . S
N233 C236 1.332 . S
N233 C238 1.332 . S
C234 C235 1.386 . S
C234 C237 1.388 . S
C235 C234 1.386 . S
C235 C236 1.382 . S
C235 H261 0.950 . S
C236 N233 1.332 . S
C236 C235 1.382 . S
C236 H247 0.952 . S
C237 C234 1.388 . S
C237 C238 1.382 . S
C237 H262 0.950 . S
C238 N233 1.332 . S
C238 C237 1.382 . S
C238 H248 0.948 . S
N239 Co217 2.282 . S
N239 C243 1.332 . S
N239 C244 1.332 . S
C240 C241 1.388 . S
C240 C244 1.382 . S
C240 H263 0.950 . S
C241 C240 1.388 . S
C241 C242 1.386 . S
C242 C241 1.386 . S
C242 C243 1.382 . S
C242 H264 0.950 . S
C243 N239 1.332 . S
C243 C242 1.382 . S
C243 H245 0.952 . S
C244 N239 1.332 . S
C244 C240 1.382 . S
C244 H246 0.948 . S
H245 C243 0.952 . S
H246 C244 0.948 . S
H247 C236 0.952 . S
H248 C238 0.948 . S
C249 C215 1.395 1_545 S
C249 C219 1.391 1_545 S
C250 C212 1.389 . S
C250 C232 1.392 . S
C251 C222 1.392 . S
C251 C224 1.389 . S
C252 C227 1.395 . S
C252 C229 1.391 . S
H253 C213 0.951 1_545 S
H254 C214 0.950 . S
H255 C220 0.949 1_545 S
H256 C221 0.950 . S
H257 C225 0.951 . S
H258 C226 0.950 . S
H259 C230 0.949 . S
H260 C231 0.950 . S
H261 C235 0.950 . S
H262 C237 0.950 . S
H263 C240 0.950 . S
H264 C242 0.950 . S
C265 C266 1.443 . S
C265 N269 1.376 . S
C265 C303 1.389 1_655 S
C266 C265 1.443 . S
C266 C267 1.340 1_565 S
C266 H306 0.949 1_665 S
C267 C266 1.340 1_545 S
C267 C268 1.439 1_545 S
C267 H307 0.950 . S
C268 C267 1.439 1_565 S
C268 N269 1.374 . S
C268 C302 1.395 1_565 S
N269 C265 1.376 . S
N269 C268 1.374 . S
N269 Co270 2.008 . S
Co270 N269 2.008 . S
Co270 N271 1.995 . S
Co270 N276 2.008 . S
Co270 N281 2.003 . S
Co270 N286 2.282 1_655 S
Co270 N292 2.282 . S
N271 Co270 1.995 . S
N271 C272 1.376 . S
N271 C275 1.383 . S
C272 N271 1.376 . S
C272 C273 1.446 . S
C272 C302 1.391 1_565 S
C273 C272 1.446 . S
C273 C274 1.339 . S
C273 H308 0.949 1_565 S
C274 C273 1.339 . S
C274 C275 1.439 . S
C274 H309 0.950 . S
C275 N271 1.383 . S
C275 C274 1.439 . S
C275 C304 1.392 . S
N276 Co270 2.008 . S
N276 C277 1.376 . S
N276 C280 1.374 . S
C277 N276 1.376 . S
C277 C278 1.443 . S
C277 C304 1.389 . S
C278 C277 1.443 . S
C278 C279 1.340 . S
C278 H310 0.951 . S
C279 C278 1.340 . S
C279 C280 1.439 . S
C279 H311 0.950 . S
C280 N276 1.374 . S
C280 C279 1.439 . S
C280 C305 1.395 . S
N281 Co270 2.003 . S
N281 C282 1.373 1_655 S
N281 C285 1.377 1_655 S
C282 N281 1.373 1_455 S
C282 C283 1.446 . S
C282 C305 1.391 1_455 S
C283 C282 1.446 . S
C283 C284 1.339 . S
C283 H312 0.949 . S
C284 C283 1.339 . S
C284 C285 1.439 . S
C284 H313 0.950 . S
C285 N281 1.377 1_455 S
C285 C284 1.439 . S
C285 C303 1.392 . S
N286 Co270 2.282 1_455 S
N286 C289 1.332 . S
N286 C291 1.332 . S
C287 C288 1.386 . S
C287 C290 1.388 . S
C288 C287 1.386 . S
C288 C289 1.382 . S
C288 H314 0.950 . S
C289 N286 1.332 . S
C289 C288 1.382 . S
C289 H300 0.952 . S
C290 C287 1.388 . S
C290 C291 1.382 . S
C290 H315 0.950 . S
C291 N286 1.332 . S
C291 C290 1.382 . S
C291 H301 0.941 1_455 S
N292 Co270 2.282 . S
N292 C296 1.332 . S
N292 C297 1.332 . S
C293 C294 1.388 . S
C293 C297 1.382 . S
C293 H316 0.950 . S
C294 C293 1.388 . S
C294 C295 1.386 . S
C295 C294 1.386 . S
C295 C296 1.382 . S
C295 H317 0.950 . S
C296 N292 1.332 . S
C296 C295 1.382 . S
C296 H298 0.952 . S
C297 N292 1.332 . S
C297 C293 1.382 . S
C297 H299 0.948 . S
H298 C296 0.952 . S
H299 C297 0.948 . S
H300 C289 0.952 . S
H301 C291 0.941 1_655 S
C302 C268 1.395 1_545 S
C302 C272 1.391 1_545 S
C303 C265 1.389 1_455 S
C303 C285 1.392 . S
C304 C275 1.392 . S
C304 C277 1.389 . S
C305 C280 1.395 . S
C305 C282 1.391 1_655 S
H306 C266 0.949 1_445 S
H307 C267 0.950 . S
H308 C273 0.949 1_545 S
H309 C274 0.950 . S
H310 C278 0.951 . S
H311 C279 0.950 . S
H312 C283 0.949 . S
H313 C284 0.950 . S
H314 C288 0.950 . S
H315 C290 0.950 . S
H316 C293 0.950 . S
H317 C295 0.950 . S
C318 C319 1.443 . S
C318 N322 1.376 . S
C318 C356 1.389 . S
C319 C318 1.443 . S
C319 C320 1.340 . S
C319 H359 0.951 . S
C320 C319 1.340 . S
C320 C321 1.439 . S
C320 H360 0.950 . S
C321 C320 1.439 . S
C321 N322 1.374 . S
C321 C355 1.395 . S
N322 C318 1.376 . S
N322 C321 1.374 . S
N322 Co323 2.008 . S
Co323 N322 2.008 . S
Co323 N324 1.995 . S
Co323 N329 2.008 . S
Co323 N334 1.995 . S
Co323 N339 2.282 . S
Co323 N345 2.282 . S
N324 Co323 1.995 . S
N324 C325 1.376 . S
N324 C328 1.383 . S
C325 N324 1.376 . S
C325 C326 1.446 . S
C325 C355 1.391 . S
C326 C325 1.446 . S
C326 C327 1.339 . S
C326 H361 0.949 . S
C327 C326 1.339 . S
C327 C328 1.439 . S
C327 H362 0.950 . S
C328 N324 1.383 . S
C328 C327 1.439 . S
C328 C357 1.392 . S
N329 Co323 2.008 . S
N329 C330 1.376 . S
N329 C333 1.374 . S
C330 N329 1.376 . S
C330 C331 1.443 . S
C330 C357 1.389 . S
C331 C330 1.443 . S
C331 C332 1.340 . S
C331 H363 0.951 . S
C332 C331 1.340 . S
C332 C333 1.439 . S
C332 H364 0.950 1_545 S
C333 N329 1.374 . S
C333 C332 1.439 . S
C333 C358 1.395 1_545 S
N334 Co323 1.995 . S
N334 C335 1.376 . S
N334 C338 1.383 . S
C335 N334 1.376 . S
C335 C336 1.446 1_545 S
C335 C358 1.391 1_545 S
C336 C335 1.446 1_565 S
C336 C337 1.339 1_565 S
C336 H365 0.949 . S
C337 C336 1.339 1_545 S
C337 C338 1.439 . S
C337 H366 0.950 1_545 S
C338 N334 1.383 . S
C338 C337 1.439 . S
C338 C356 1.392 . S
N339 Co323 2.282 . S
N339 C342 1.332 . S
N339 C344 1.332 . S
C340 C341 1.386 . S
C340 C343 1.388 . S
C341 C340 1.386 . S
C341 C342 1.382 . S
C341 H367 0.950 . S
C342 N339 1.332 . S
C342 C341 1.382 . S
C342 H353 0.952 . S
C343 C340 1.388 . S
C343 C344 1.382 . S
C343 H368 0.950 . S
C344 N339 1.332 . S
C344 C343 1.382 . S
C344 H354 0.948 . S
N345 Co323 2.282 . S
N345 C349 1.332 . S
N345 C350 1.332 . S
C346 C347 1.388 . S
C346 C350 1.382 . S
C346 H369 0.950 . S
C347 C346 1.388 . S
C347 C348 1.386 . S
C348 C347 1.386 . S
C348 C349 1.382 . S
C348 H370 0.950 . S
C349 N345 1.332 . S
C349 C348 1.382 . S
C349 H351 0.952 . S
C350 N345 1.332 . S
C350 C346 1.382 . S
C350 H352 0.948 . S
H351 C349 0.952 . S
H352 C350 0.948 . S
H353 C342 0.952 . S
H354 C344 0.948 . S
C355 C321 1.395 . S
C355 C325 1.391 . S
C356 C318 1.389 . S
C356 C338 1.392 . S
C357 C328 1.392 . S
C357 C330 1.389 . S
C358 C333 1.395 1_565 S
C358 C335 1.391 1_565 S
H359 C319 0.951 . S
H360 C320 0.950 . S
H361 C326 0.949 . S
H362 C327 0.950 . S
H363 C331 0.951 . S
H364 C332 0.950 1_565 S
H365 C336 0.949 . S
H366 C337 0.950 1_565 S
H367 C341 0.950 . S
H368 C343 0.950 . S
H369 C346 0.950 . S
H370 C348 0.950 . S
C371 C372 1.443 . S
C371 N375 1.376 1_655 S
C371 C409 1.389 . S
C372 C371 1.443 . S
C372 C373 1.340 . S
C372 H412 0.951 . S
C373 C372 1.340 . S
C373 C374 1.439 1_655 S
C373 H413 0.950 . S
C374 C373 1.439 1_455 S
C374 N375 1.374 . S
C374 C408 1.395 . S
N375 C371 1.376 1_455 S
N375 C374 1.374 . S
N375 Co376 2.008 . S
Co376 N375 2.008 . S
Co376 N377 1.995 . S
Co376 N382 2.008 . S
Co376 N387 1.995 . S
Co376 N392 2.282 1_455 S
Co376 N398 2.282 . S
N377 Co376 1.995 . S
N377 C378 1.376 . S
N377 C381 1.383 . S
C378 N377 1.376 . S
C378 C379 1.446 . S
C378 C408 1.391 . S
C379 C378 1.446 . S
C379 C380 1.339 . S
C379 H414 0.949 . S
C380 C379 1.339 . S
C380 C381 1.439 . S
C380 H415 0.950 . S
C381 N377 1.383 . S
C381 C380 1.439 . S
C381 C410 1.392 . S
N382 Co376 2.008 . S
N382 C383 1.376 . S
N382 C386 1.374 . S
C383 N382 1.376 . S
C383 C384 1.443 . S
C383 C410 1.389 . S
C384 C383 1.443 . S
C384 C385 1.340 . S
C384 H416 0.951 . S
C385 C384 1.340 . S
C385 C386 1.439 . S
C385 H417 0.950 1_545 S
C386 N382 1.374 . S
C386 C385 1.439 . S
C386 C411 1.395 1_545 S
N387 Co376 1.995 . S
N387 C388 1.376 . S
N387 C391 1.383 1_455 S
C388 N387 1.376 . S
C388 C389 1.446 1_545 S
C388 C411 1.391 1_545 S
C389 C388 1.446 1_565 S
C389 C390 1.339 1_465 S
C389 H418 0.949 . S
C390 C389 1.339 1_645 S
C390 C391 1.439 . S
C390 H419 0.950 1_545 S
C391 N387 1.383 1_655 S
C391 C390 1.439 . S
C391 C409 1.392 . S
N392 Co376 2.282 1_655 S
N392 C395 1.332 . S
N392 C397 1.332 . S
C393 C394 1.386 . S
C393 C396 1.388 . S
C394 C393 1.386 . S
C394 C395 1.382 . S
C394 H420 0.950 . S
C395 N392 1.332 . S
C395 C394 1.382 . S
C395 H406 0.952 . S
C396 C393 1.388 . S
C396 C397 1.382 . S
C396 H421 0.950 . S
C397 N392 1.332 . S
C397 C396 1.382 . S
C397 H407 0.948 . S
N398 Co376 2.282 . S
N398 C402 1.332 . S
N398 C403 1.332 . S
C399 C400 1.388 . S
C399 C403 1.382 . S
C399 H422 0.950 . S
C400 C399 1.388 . S
C400 C401 1.386 . S
C401 C400 1.386 . S
C401 C402 1.382 . S
C401 H423 0.950 . S
C402 N398 1.332 . S
C402 C401 1.382 . S
C402 H404 0.952 . S
C403 N398 1.332 . S
C403 C399 1.382 . S
C403 H405 0.948 . S
H404 C402 0.952 . S
H405 C403 0.948 . S
H406 C395 0.952 . S
H407 C397 0.948 . S
C408 C374 1.395 . S
C408 C378 1.391 . S
C409 C371 1.389 . S
C409 C391 1.392 . S
C410 C381 1.392 . S
C410 C383 1.389 . S
C411 C386 1.395 1_565 S
C411 C388 1.391 1_565 S
H412 C372 0.951 . S
H413 C373 0.950 . S
H414 C379 0.949 . S
H415 C380 0.950 . S
H416 C384 0.951 . S
H417 C385 0.950 1_565 S
H418 C389 0.949 . S
H419 C390 0.950 1_565 S
H420 C394 0.950 . S
H421 C396 0.950 . S
H422 C399 0.950 . S
H423 C401 0.950 . S
H424 C430 0.930 . S
H425 C433 0.930 . S
H426 C434 0.930 . S
H427 C435 0.930 . S
H428 C438 0.930 . S
H429 C439 0.930 . S
C430 H424 0.930 . S
C430 C431 1.355 . S
C430 C432 1.415 . S
C431 C430 1.355 . S
C431 C433 1.419 1_655 S
C432 C430 1.415 . S
C432 C437 1.425 1_655 S
C432 C439 1.409 . S
C433 H425 0.930 . S
C433 C431 1.419 1_455 S
C433 C434 1.362 . S
C434 H426 0.930 . S
C434 C433 1.362 . S
C434 C437 1.409 . S
C435 H427 0.930 . S
C435 C436 1.355 . S
C435 C437 1.415 . S
C436 C435 1.355 . S
C436 C438 1.419 1_455 S
C437 C432 1.425 1_455 S
C437 C434 1.409 . S
C437 C435 1.415 . S
C438 H428 0.930 . S
C438 C436 1.419 1_655 S
C438 C439 1.362 . S
C439 H429 0.930 . S
C439 C432 1.409 . S
C439 C438 1.362 . S
H440 C446 0.930 . S
H441 C449 0.930 . S
H442 C450 0.930 . S
H443 C451 0.930 . S
H444 C454 0.930 . S
H445 C455 0.930 . S
C446 H440 0.930 . S
C446 C447 1.355 . S
C446 C448 1.415 . S
C447 C446 1.355 . S
C447 C449 1.419 . S
C448 C446 1.415 . S
C448 C453 1.425 . S
C448 C455 1.409 . S
C449 H441 0.930 . S
C449 C447 1.419 . S
C449 C450 1.362 . S
C450 H442 0.930 . S
C450 C449 1.362 . S
C450 C453 1.409 . S
C451 H443 0.930 . S
C451 C452 1.355 . S
C451 C453 1.415 . S
C452 C451 1.355 . S
C452 C454 1.419 . S
C453 C448 1.425 . S
C453 C450 1.409 . S
C453 C451 1.415 . S
C454 H444 0.930 . S
C454 C452 1.419 . S
C454 C455 1.362 . S
C455 H445 0.930 . S
C455 C448 1.409 . S
C455 C454 1.362 . S
H456 C462 0.930 . S
H457 C465 0.930 . S
H458 C466 0.930 1_556 S
H459 C467 0.930 . S
H460 C470 0.930 . S
H461 C471 0.930 1_554 S
C462 H456 0.930 . S
C462 C463 1.355 . S
C462 C464 1.415 1_545 S
C463 C462 1.355 . S
C463 C465 1.419 . S
C464 C462 1.415 1_565 S
C464 C469 1.425 1_564 S
C464 C471 1.409 1_554 S
C465 H457 0.930 . S
C465 C463 1.419 . S
C465 C466 1.362 . S
C466 H458 0.930 1_554 S
C466 C465 1.362 . S
C466 C469 1.409 1_554 S
C467 H459 0.930 . S
C467 C468 1.355 . S
C467 C469 1.415 1_565 S
C468 C467 1.355 . S
C468 C470 1.419 . S
C469 C464 1.425 1_546 S
C469 C466 1.409 1_556 S
C469 C467 1.415 1_545 S
C470 H460 0.930 . S
C470 C468 1.419 . S
C470 C471 1.362 . S
C471 H461 0.930 1_556 S
C471 C464 1.409 1_556 S
C471 C470 1.362 . S
H472 C478 0.930 . S
H473 C481 0.930 . S
H474 C482 0.930 . S
H475 C483 0.930 . S
H476 C486 0.930 . S
H477 C487 0.930 . S
C478 H472 0.930 . S
C478 C479 1.355 . S
C478 C480 1.415 1_554 S
C479 C478 1.355 . S
C479 C481 1.419 1_455 S
C480 C478 1.415 1_556 S
C480 C485 1.425 1_466 S
C480 C487 1.409 . S
C481 H473 0.930 . S
C481 C479 1.419 1_655 S
C481 C482 1.362 1_565 S
C482 H474 0.930 . S
C482 C481 1.362 1_545 S
C482 C485 1.409 . S
C483 H475 0.930 . S
C483 C484 1.355 . S
C483 C485 1.415 1_556 S
C484 C483 1.355 . S
C484 C486 1.419 1_655 S
C485 C480 1.425 1_644 S
C485 C482 1.409 . S
C485 C483 1.415 1_554 S
C486 H476 0.930 . S
C486 C484 1.419 1_455 S
C486 C487 1.362 1_545 S
C487 H477 0.930 . S
C487 C480 1.409 . S
C487 C486 1.362 1_565 S
H488 C494 0.930 . S
H489 C497 0.930 . S
H490 C498 0.930 . S
H491 C499 0.930 . S
H492 C502 0.930 . S
H493 C503 0.930 . S
C494 H488 0.930 . S
C494 C495 1.355 . S
C494 C496 1.415 . S
C495 C494 1.355 . S
C495 C497 1.419 . S
C496 C494 1.415 . S
C496 C501 1.425 . S
C496 C503 1.409 . S
C497 H489 0.930 . S
C497 C495 1.419 . S
C497 C498 1.362 . S
C498 H490 0.930 . S
C498 C497 1.362 . S
C498 C501 1.409 . S
C499 H491 0.930 . S
C499 C500 1.355 . S
C499 C501 1.415 . S
C500 C499 1.355 . S
C500 C502 1.419 . S
C501 C496 1.425 . S
C501 C498 1.409 . S
C501 C499 1.415 . S
C502 H492 0.930 . S
C502 C500 1.419 . S
C502 C503 1.362 . S
C503 H493 0.930 . S
C503 C496 1.409 . S
C503 C502 1.362 . S
H504 C510 0.930 . S
H505 C513 0.930 . S
H506 C514 0.930 . S
H507 C515 0.930 . S
H508 C518 0.930 . S
H509 C519 0.930 . S
C510 H504 0.930 . S
C510 C511 1.355 . S
C510 C512 1.415 . S
C511 C510 1.355 . S
C511 C513 1.419 . S
C512 C510 1.415 . S
C512 C517 1.425 . S
C512 C519 1.409 . S
C513 H505 0.930 . S
C513 C511 1.419 . S
C513 C514 1.362 . S
C514 H506 0.930 . S
C514 C513 1.362 . S
C514 C517 1.409 . S
C515 H507 0.930 . S
C515 C516 1.355 . S
C515 C517 1.415 . S
C516 C515 1.355 . S
C516 C518 1.419 . S
C517 C512 1.425 . S
C517 C514 1.409 . S
C517 C515 1.415 . S
C518 H508 0.930 . S
C518 C516 1.419 . S
C518 C519 1.362 . S
C519 H509 0.930 . S
C519 C512 1.409 . S
C519 C518 1.362 . S
H520 C526 0.930 . S
H521 C529 0.930 . S
H522 C530 0.930 . S
H523 C531 0.930 . S
H524 C534 0.930 . S
H525 C535 0.930 . S
C526 H520 0.930 . S
C526 C527 1.355 . S
C526 C528 1.415 . S
C527 C526 1.355 . S
C527 C529 1.419 . S
C528 C526 1.415 . S
C528 C533 1.425 . S
C528 C535 1.409 . S
C529 H521 0.930 . S
C529 C527 1.419 . S
C529 C530 1.362 . S
C530 H522 0.930 . S
C530 C529 1.362 . S
C530 C533 1.409 . S
C531 H523 0.930 . S
C531 C532 1.355 . S
C531 C533 1.415 . S
C532 C531 1.355 . S
C532 C534 1.419 . S
C533 C528 1.425 . S
C533 C530 1.409 . S
C533 C531 1.415 . S
C534 H524 0.930 . S
C534 C532 1.419 . S
C534 C535 1.362 . S
C535 H525 0.930 . S
C535 C528 1.409 . S
C535 C534 1.362 . S
H536 C542 0.930 . S
H537 C545 0.930 . S
H538 C546 0.930 . S
H539 C547 0.930 . S
H540 C550 0.930 . S
H541 C551 0.930 . S
C542 H536 0.930 . S
C542 C543 1.355 . S
C542 C544 1.415 . S
C543 C542 1.355 . S
C543 C545 1.419 . S
C544 C542 1.415 . S
C544 C549 1.425 . S
C544 C551 1.409 . S
C545 H537 0.930 . S
C545 C543 1.419 . S
C545 C546 1.362 . S
C546 H538 0.930 . S
C546 C545 1.362 . S
C546 C549 1.409 . S
C547 H539 0.930 . S
C547 C548 1.355 . S
C547 C549 1.415 . S
C548 C547 1.355 . S
C548 C550 1.419 . S
C549 C544 1.425 . S
C549 C546 1.409 . S
C549 C547 1.415 . S
C550 H540 0.930 . S
C550 C548 1.419 . S
C550 C551 1.362 . S
C551 H541 0.930 . S
C551 C544 1.409 . S
C551 C550 1.362 . S
H552 C558 0.930 . S
H553 C561 0.930 . S
H554 C562 0.930 . S
H555 C563 0.930 . S
H556 C566 0.930 . S
H557 C567 0.930 . S
C558 H552 0.930 . S
C558 C559 1.355 . S
C558 C560 1.415 . S
C559 C558 1.355 . S
C559 C561 1.419 . S
C560 C558 1.415 . S
C560 C565 1.425 . S
C560 C567 1.409 . S
C561 H553 0.930 . S
C561 C559 1.419 . S
C561 C562 1.362 . S
C562 H554 0.930 . S
C562 C561 1.362 . S
C562 C565 1.409 . S
C563 H555 0.930 . S
C563 C564 1.355 . S
C563 C565 1.415 . S
C564 C563 1.355 . S
C564 C566 1.419 . S
C565 C560 1.425 . S
C565 C562 1.409 . S
C565 C563 1.415 . S
C566 H556 0.930 . S
C566 C564 1.419 . S
C566 C567 1.362 . S
C567 H557 0.930 . S
C567 C560 1.409 . S
C567 C566 1.362 . S
H568 C574 0.930 . S
H569 C577 0.930 . S
H570 C578 0.930 . S
H571 C579 0.930 . S
H572 C582 0.930 . S
H573 C583 0.930 . S
C574 H568 0.930 . S
C574 C575 1.355 . S
C574 C576 1.415 . S
C575 C574 1.355 . S
C575 C577 1.419 . S
C576 C574 1.415 . S
C576 C581 1.425 . S
C576 C583 1.409 . S
C577 H569 0.930 . S
C577 C575 1.419 . S
C577 C578 1.362 . S
C578 H570 0.930 . S
C578 C577 1.362 . S
C578 C581 1.409 . S
C579 H571 0.930 . S
C579 C580 1.355 . S
C579 C581 1.415 . S
C580 C579 1.355 . S
C580 C582 1.419 . S
C581 C576 1.425 . S
C581 C578 1.409 . S
C581 C579 1.415 . S
C582 H572 0.930 . S
C582 C580 1.419 . S
C582 C583 1.362 . S
C583 H573 0.930 . S
C583 C576 1.409 . S
C583 C582 1.362 . S
H584 C590 0.930 . S
H585 C593 0.930 . S
H586 C594 0.930 . S
H587 C595 0.930 . S
H588 C598 0.930 1_545 S
H589 C599 0.930 . S
C590 H584 0.930 . S
C590 C591 1.355 . S
C590 C592 1.415 . S
C591 C590 1.355 . S
C591 C593 1.419 . S
C592 C590 1.415 . S
C592 C597 1.425 . S
C592 C599 1.409 . S
C593 H585 0.930 . S
C593 C591 1.419 . S
C593 C594 1.362 . S
C594 H586 0.930 . S
C594 C593 1.362 . S
C594 C597 1.409 . S
C595 H587 0.930 . S
C595 C596 1.355 . S
C595 C597 1.415 . S
C596 C595 1.355 . S
C596 C598 1.419 . S
C597 C592 1.425 . S
C597 C594 1.409 . S
C597 C595 1.415 . S
C598 H588 0.930 1_565 S
C598 C596 1.419 . S
C598 C599 1.362 . S
C599 H589 0.930 . S
C599 C592 1.409 . S
C599 C598 1.362 . S
H600 C606 0.930 . S
H601 C609 0.930 . S
H602 C610 0.930 . S
H603 C611 0.930 . S
H604 C614 0.930 . S
H605 C615 0.930 . S
C606 H600 0.930 . S
C606 C607 1.355 . S
C606 C608 1.415 . S
C607 C606 1.355 . S
C607 C609 1.419 . S
C608 C606 1.415 . S
C608 C613 1.425 . S
C608 C615 1.409 . S
C609 H601 0.930 . S
C609 C607 1.419 . S
C609 C610 1.362 . S
C610 H602 0.930 . S
C610 C609 1.362 . S
C610 C613 1.409 . S
C611 H603 0.930 . S
C611 C612 1.355 . S
C611 C613 1.415 . S
C612 C611 1.355 . S
C612 C614 1.419 . S
C613 C608 1.425 . S
C613 C610 1.409 . S
C613 C611 1.415 . S
C614 H604 0.930 . S
C614 C612 1.419 . S
C614 C615 1.362 . S
C615 H605 0.930 . S
C615 C608 1.409 . S
C615 C614 1.362 . S
H616 C622 0.930 . S
H617 C625 0.930 1_565 S
H618 C626 0.930 . S
H619 C627 0.930 1_565 S
H620 C630 0.930 . S
H621 C631 0.930 . S
C622 H616 0.930 . S
C622 C623 1.355 . S
C622 C624 1.415 . S
C623 C622 1.355 . S
C623 C625 1.419 . S
C624 C622 1.415 . S
C624 C629 1.425 . S
C624 C631 1.409 . S
C625 H617 0.930 1_545 S
C625 C623 1.419 . S
C625 C626 1.362 1_545 S
C626 H618 0.930 . S
C626 C625 1.362 1_565 S
C626 C629 1.409 1_565 S
C627 H619 0.930 1_545 S
C627 C628 1.355 . S
C627 C629 1.415 . S
C628 C627 1.355 . S
C628 C630 1.419 . S
C629 C624 1.425 . S
C629 C626 1.409 1_545 S
C629 C627 1.415 . S
C630 H620 0.930 . S
C630 C628 1.419 . S
C630 C631 1.362 . S
C631 H621 0.930 . S
C631 C624 1.409 . S
C631 C630 1.362 . S
H632 C638 0.930 . S
H633 C641 0.930 . S
H634 C642 0.930 . S
H635 C643 0.930 . S
H636 C646 0.930 . S
H637 C647 0.930 1_545 S
C638 H632 0.930 . S
C638 C639 1.355 . S
C638 C640 1.415 . S
C639 C638 1.355 . S
C639 C641 1.419 . S
C640 C638 1.415 . S
C640 C645 1.425 . S
C640 C647 1.409 . S
C641 H633 0.930 . S
C641 C639 1.419 . S
C641 C642 1.362 . S
C642 H634 0.930 . S
C642 C641 1.362 . S
C642 C645 1.409 . S
C643 H635 0.930 . S
C643 C644 1.355 . S
C643 C645 1.415 . S
C644 C643 1.355 . S
C644 C646 1.419 . S
C645 C640 1.425 . S
C645 C642 1.409 . S
C645 C643 1.415 . S
C646 H636 0.930 . S
C646 C644 1.419 . S
C646 C647 1.362 . S
C647 H637 0.930 1_565 S
C647 C640 1.409 . S
C647 C646 1.362 . S
H648 C654 0.930 . S
H649 C657 0.930 . S
H650 C658 0.930 . S
H651 C659 0.930 . S
H652 C662 0.930 . S
H653 C663 0.930 . S
C654 H648 0.930 . S
C654 C655 1.355 . S
C654 C656 1.415 . S
C655 C654 1.355 . S
C655 C657 1.419 . S
C656 C654 1.415 . S
C656 C661 1.425 1_554 S
C656 C663 1.409 1_554 S
C657 H649 0.930 . S
C657 C655 1.419 . S
C657 C658 1.362 . S
C658 H650 0.930 . S
C658 C657 1.362 . S
C658 C661 1.409 1_554 S
C659 H651 0.930 . S
C659 C660 1.355 . S
C659 C661 1.415 . S
C660 C659 1.355 . S
C660 C662 1.419 . S
C661 C656 1.425 1_556 S
C661 C658 1.409 1_556 S
C661 C659 1.415 . S
C662 H652 0.930 . S
C662 C660 1.419 . S
C662 C663 1.362 . S
C663 H653 0.930 . S
C663 C656 1.409 1_556 S
C663 C662 1.362 . S
H664 C670 0.930 . S
H665 C673 0.930 . S
H666 C674 0.930 1_556 S
H667 C675 0.930 . S
H668 C678 0.930 . S
H669 C679 0.930 1_554 S
C670 H664 0.930 . S
C670 C671 1.355 . S
C670 C672 1.415 . S
C671 C670 1.355 . S
C671 C673 1.419 . S
C672 C670 1.415 . S
C672 C677 1.425 1_554 S
C672 C679 1.409 1_554 S
C673 H665 0.930 . S
C673 C671 1.419 . S
C673 C674 1.362 . S
C674 H666 0.930 1_554 S
C674 C673 1.362 . S
C674 C677 1.409 1_554 S
C675 H667 0.930 . S
C675 C676 1.355 . S
C675 C677 1.415 . S
C676 C675 1.355 . S
C676 C678 1.419 . S
C677 C672 1.425 1_556 S
C677 C674 1.409 1_556 S
C677 C675 1.415 . S
C678 H668 0.930 . S
C678 C676 1.419 . S
C678 C679 1.362 . S
C679 H669 0.930 1_556 S
C679 C672 1.409 1_556 S
C679 C678 1.362 . S
C431 C38 1.982 . S
C436 C144 1.995 . S
C447 C197 2.008 . S
C452 C91 1.997 . S
C463 C356 2.008 . S
C468 C250 1.997 . S
C479 C303 1.972 . S
C484 C409 1.987 . S
C495 C340 1.919 . S
C500 C22 1.919 . S
C511 C75 1.921 . S
C516 C393 1.920 . S
C527 C128 1.919 . S
C532 C234 1.919 . S
C543 C181 1.933 . S
C548 C287 1.932 . S
C559 C357 2.177 . S
C564 C39 2.190 . S
C575 C92 2.179 . S
C580 C410 2.165 . S
C591 C251 2.231 . S
C596 C145 2.220 . S
C607 C304 2.226 . S
C612 C198 2.214 . S
C623 C82 0.823 . S
C628 C29 0.813 . S
C639 C135 0.873 . S
C644 C188 0.879 . S
C655 C294 0.878 . S
C660 C241 0.875 . S
C671 C347 0.762 . S
C676 C400 0.759 . S
