# Generated by pormake.
# Topology afw, (4)-cn, num edge types: 1
# Building blocks:
#     Node 0, Type 0, BuildingBlock: QUQFOY_clean_sbu_3, # of connection points: 4
#     Node 1, Type 0, BuildingBlock: QUQFOY_clean_sbu_3, # of connection points: 4
#     Node 2, Type 0, BuildingBlock: QUQFOY_clean_sbu_3, # of connection points: 4
#     Node 3, Type 0, BuildingBlock: QUQFOY_clean_sbu_3, # of connection points: 4
#     Node 4, Type 0, BuildingBlock: QUQFOY_clean_sbu_3, # of connection points: 4
#     Node 5, Type 0, BuildingBlock: QUQFOY_clean_sbu_3, # of connection points: 4
#     Node 6, Type 0, BuildingBlock: QUQFOY_clean_sbu_3, # of connection points: 4
#     Node 7, Type 0, BuildingBlock: QUQFOY_clean_sbu_3, # of connection points: 4
#     Node 8, Type 0, BuildingBlock: QUQFOY_clean_sbu_3, # of connection points: 4
#     Edge 9, Type (0, 0), BuildingBlock: CIFDUS_clean_linker_0, # of connection points: 2
#     Edge 10, Type (0, 0), BuildingBlock: CIFDUS_clean_linker_0, # of connection points: 2
#     Edge 11, Type (0, 0), BuildingBlock: CIFDUS_clean_linker_0, # of connection points: 2
#     Edge 12, Type (0, 0), BuildingBlock: CIFDUS_clean_linker_0, # of connection points: 2
#     Edge 13, Type (0, 0), BuildingBlock: CIFDUS_clean_linker_0, # of connection points: 2
#     Edge 14, Type (0, 0), BuildingBlock: CIFDUS_clean_linker_0, # of connection points: 2
#     Edge 15, Type (0, 0), BuildingBlock: CIFDUS_clean_linker_0, # of connection points: 2
#     Edge 16, Type (0, 0), BuildingBlock: CIFDUS_clean_linker_0, # of connection points: 2
#     Edge 17, Type (0, 0), BuildingBlock: CIFDUS_clean_linker_0, # of connection points: 2
#     Edge 18, Type (0, 0), BuildingBlock: CIFDUS_clean_linker_0, # of connection points: 2
#     Edge 19, Type (0, 0), BuildingBlock: CIFDUS_clean_linker_0, # of connection points: 2
#     Edge 20, Type (0, 0), BuildingBlock: CIFDUS_clean_linker_0, # of connection points: 2
#     Edge 21, Type (0, 0), BuildingBlock: CIFDUS_clean_linker_0, # of connection points: 2
#     Edge 22, Type (0, 0), BuildingBlock: CIFDUS_clean_linker_0, # of connection points: 2
#     Edge 23, Type (0, 0), BuildingBlock: CIFDUS_clean_linker_0, # of connection points: 2
#     Edge 24, Type (0, 0), BuildingBlock: CIFDUS_clean_linker_0, # of connection points: 2
#     Edge 25, Type (0, 0), BuildingBlock: CIFDUS_clean_linker_0, # of connection points: 2
#     Edge 26, Type (0, 0), BuildingBlock: CIFDUS_clean_linker_0, # of connection points: 2
# Relax obj value: 0.196
# Max RMSD: 0.207
# Mean RMSD: 0.200
data_MOF--net-afw--node1-QUQFOY_clean_sbu_3--edge1-CIFDUS_clean_linker_0
_symmetry_space_group_name_H-M    P1
_symmetry_Int_Tables_number       1
_symmetry_cell_setting            triclinic
loop_
_symmetry_equiv_pos_as_xyz
'x, y, z'
_cell_length_a     39.977196
_cell_length_b     40.180063
_cell_length_c     30.207854
_cell_angle_alpha  91.001823
_cell_angle_beta   91.637726
_cell_angle_gamma 120.09284
loop_
_atom_site_label
_atom_site_type_symbol
_atom_site_fract_x
_atom_site_fract_y
_atom_site_fract_z
_atom_type_partial_charge
C0 C 0.052 0.1744 0.05479 0.0
O1 O 0.03977 0.17254 0.09357 0.0
Cd2 Cd -0.01636 0.17418 0.11403 0.0
O3 O 0.03592 0.18095 0.02154 0.0
Cd4 Cd -0.01675 0.19653 0.00709 0.0
C5 C 0.91971 0.10405 0.03677 0.0
O6 O -0.00887 0.22826 0.07743 0.0
O7 O 0.94043 0.21819 0.03924 0.0
O8 O 0.02467 0.25356 0.96573 0.0
C9 C -0.03842 0.2319 0.07444 0.0
O10 O 0.93228 0.11559 0.07658 0.0
C11 C 0.0042 0.24229 0.92984 0.0
O12 O 0.93352 0.12692 0.00477 0.0
O13 O -0.02562 0.20882 0.92894 0.0
C14 C 0.86303 0.81217 0.93556 0.0
O15 O 0.85185 0.81464 0.89659 0.0
Cd16 Cd 0.79202 0.8122 0.87814 0.0
O17 O 0.84073 0.80503 -0.03215 0.0
Cd18 Cd 0.77361 0.79137 -0.01864 0.0
C19 C 0.80394 0.88409 0.95243 0.0
O20 O 0.74294 0.75707 0.91192 0.0
O21 O 0.70856 0.77325 0.95086 0.0
O22 O 0.75743 0.73413 0.02269 0.0
C23 C 0.71092 0.75568 0.91685 0.0
O24 O 0.80231 0.87214 0.91265 0.0
C25 C 0.75002 0.74561 0.05851 0.0
O26 O 0.79609 0.86131 -0.01552 0.0
O27 O 0.75535 0.77961 0.05975 0.0
C28 C 0.08125 0.91647 0.02382 0.0
O29 O 0.09275 0.92809 0.06367 0.0
Cd30 Cd 0.15371 -0.01664 0.08477 0.0
O31 O 0.10387 0.93237 -0.0078 0.0
Cd32 Cd 0.17248 -0.01605 -0.01711 0.0
C33 C 0.14678 0.04755 0.01485 0.0
O34 O 0.20372 -0.02172 0.05095 0.0
O35 O 0.23299 0.0328 0.01955 0.0
O36 O 0.1798 0.94144 0.93007 0.0
C37 C 0.23322 0.01166 0.05002 0.0
O38 O 0.14926 0.03697 0.05379 0.0
C39 C 0.19857 0.96748 0.90284 0.0
O40 O 0.15063 0.03076 -0.01917 0.0
O41 O 0.204 0.00084 0.91196 0.0
C42 C 0.56546 0.422 0.24168 0.0
O43 O 0.58042 0.4342 0.20464 0.0
Cd44 Cd 0.63324 0.49731 0.19307 0.0
O45 O 0.57554 0.445 0.27554 0.0
Cd46 Cd 0.61916 0.51654 0.29149 0.0
C47 C 0.69302 0.49993 0.28002 0.0
O48 O 0.61522 0.54159 0.21936 0.0
O49 O 0.66197 0.58162 0.26336 0.0
O50 O 0.56548 0.51318 0.33226 0.0
C51 C 0.64361 0.57534 0.22643 0.0
O52 O 0.68587 0.49967 0.23859 0.0
C53 C 0.58679 0.53574 0.36395 0.0
O54 O 0.67177 0.50338 0.30828 0.0
O55 O 0.62292 0.54846 0.36267 0.0
C56 C 0.52743 0.12932 0.26633 0.0
O57 O 0.51083 0.12446 0.22839 0.0
Cd58 Cd 0.44937 0.1192 0.21652 0.0
O59 O 0.50945 0.12698 0.30146 0.0
Cd60 Cd 0.44222 0.11012 0.32057 0.0
C61 C 0.46582 0.19789 0.28368 0.0
O62 O 0.40548 0.06724 0.25847 0.0
O63 O 0.37806 0.09525 0.29012 0.0
O64 O 0.43155 0.05575 0.36442 0.0
C65 C 0.37543 0.06972 0.26262 0.0
O66 O 0.46026 0.18144 0.24551 0.0
C67 C 0.42433 0.06751 0.40014 0.0
O68 O 0.46296 0.17947 0.31874 0.0
O69 O 0.42713 0.10049 0.40003 0.0
C70 C 0.81606 0.39935 0.27426 0.0
O71 O 0.81231 0.38372 0.23611 0.0
Cd72 Cd 0.81781 0.32935 0.21606 0.0
O73 O 0.82533 0.38708 0.3086 0.0
Cd74 Cd 0.84353 0.33627 0.32221 0.0
C75 C 0.75294 0.26593 0.28908 0.0
O76 O 0.87656 0.34604 0.25373 0.0
O77 O 0.87052 0.29791 0.28948 0.0
O78 O 0.89108 0.37967 0.37952 0.0
C79 C 0.8832 0.31857 0.25608 0.0
O80 O 0.76284 0.27532 0.24946 0.0
C81 C 0.88532 0.35288 0.40544 0.0
O82 O 0.77579 0.28479 0.32197 0.0
O83 O 0.85905 0.31904 0.39354 0.0
C84 C 0.3872 0.84713 0.71266 0.0
O85 O 0.3776 0.85217 0.75083 0.0
Cd86 Cd 0.31772 0.85076 0.76236 0.0
O87 O 0.36837 0.84761 0.67816 0.0
Cd88 Cd 0.31496 0.8603 0.65847 0.0
C89 C 0.25885 0.77032 0.69439 0.0
O90 O 0.31149 0.89733 0.72106 0.0
O91 O 0.25853 0.86315 0.68138 0.0
O92 O 0.35582 0.9184 0.61939 0.0
C93 C 0.27636 0.88772 0.7129 0.0
O94 O 0.27001 0.7865 0.73287 0.0
C95 C 0.33963 0.90569 0.58129 0.0
O96 O 0.27167 0.78982 0.65963 0.0
O97 O 0.31179 0.871 0.57834 0.0
C98 C 0.1878 0.465 0.63515 0.0
O99 O 0.1776 0.46235 0.59445 0.0
Cd100 Cd 0.11994 0.46395 0.57217 0.0
O101 O 0.16504 0.46313 0.66485 0.0
Cd102 Cd 0.0995 0.45275 0.67467 0.0
C103 C 0.13998 0.54376 0.63854 0.0
O104 O 0.06289 0.41814 0.60726 0.0
O105 O 0.04235 0.4513 0.64289 0.0
O106 O 0.07909 0.39368 0.7135 0.0
C107 C 0.03751 0.42818 0.61089 0.0
O108 O 0.13667 0.52795 0.60045 0.0
C109 C 0.07498 0.40591 0.75078 0.0
O110 O 0.13033 0.52376 0.67327 0.0
O111 O 0.08229 0.44065 0.75332 0.0
C112 C 0.41504 0.58644 0.67257 0.0
O113 O 0.42358 0.59649 0.71333 0.0
Cd114 Cd 0.4845 0.65075 0.73999 0.0
O115 O 0.43994 0.60368 0.64347 0.0
Cd116 Cd 0.50822 0.65493 0.63739 0.0
C117 C 0.48331 0.71975 0.67389 0.0
O118 O 0.53486 0.64531 0.70698 0.0
O119 O 0.57268 0.69561 0.6707 0.0
O120 O 0.50979 0.60843 0.58597 0.0
C121 C 0.5679 0.67507 0.70387 0.0
O122 O 0.48263 0.70637 0.71201 0.0
C123 C 0.52928 0.63264 0.55732 0.0
O124 O 0.48945 0.70502 0.63944 0.0
O125 O 0.53795 0.66734 0.56499 0.0
H126 H 0.15729 0.10218 0.07582 0.0
H127 H 0.11195 0.06004 0.94264 0.0
H128 H 0.08353 0.10164 0.94029 0.0
H129 H 0.06319 0.14206 -0.01923 0.0
H130 H 0.1069 0.18141 0.11515 0.0
H131 H 0.14495 0.14945 0.11202 0.0
C132 C 0.14166 0.10251 0.04601 0.0
C133 C 0.13602 0.07754 0.00983 0.0
C134 C 0.12496 0.1259 0.04521 0.0
C135 C 0.11644 0.07884 -0.02892 0.0
C136 C 0.10004 0.10248 -0.03019 0.0
C137 C 0.08192 0.14453 0.00886 0.0
C138 C 0.08181 0.16355 0.04836 0.0
C139 C 0.10289 0.12505 0.00732 0.0
C140 C 0.10613 0.16648 0.08457 0.0
C141 C 0.12778 0.1481 0.08289 0.0
H142 H 0.81845 0.92282 0.03254 0.0
H143 H 0.82425 0.93992 0.89161 0.0
H144 H 0.85763 0.00935 0.90502 0.0
H145 H 0.89074 0.06562 0.95658 0.0
H146 H 0.88515 0.04842 0.0975 0.0
H147 H 0.84605 -0.02087 0.08408 0.0
C148 C 0.8265 0.94166 0.00473 0.0
C149 C 0.81914 0.92592 0.96117 0.0
C150 C 0.84612 -0.01817 0.01258 0.0
C151 C 0.82971 0.951 0.92559 0.0
C152 C 0.84895 -0.00912 0.93316 0.0
C153 C 0.88054 0.0468 -0.01562 0.0
C154 C 0.89143 0.06245 0.02795 0.0
C155 C 0.85818 0.00668 -0.02348 0.0
C156 C 0.87764 0.0374 0.06352 0.0
C157 C 0.85524 -0.00239 0.05594 0.0
H158 H 0.89983 0.81812 0.01525 0.0
H159 H 0.91877 0.83077 0.87501 0.0
H160 H -0.01173 0.86004 0.88979 0.0
H161 H 0.04405 0.88978 0.94283 0.0
H162 H 0.02506 0.87852 0.08314 0.0
H163 H -0.04457 0.84063 0.06784 0.0
C164 C 0.91904 0.8266 -0.01218 0.0
C165 C 0.904 0.8228 0.94415 0.0
C166 C -0.04084 0.8441 -0.00346 0.0
C167 C 0.92945 0.8337 0.90905 0.0
C168 C -0.03069 0.8506 0.91744 0.0
C169 C 0.02477 0.87848 -0.02992 0.0
C170 C 0.03988 0.88763 0.01407 0.0
C171 C -0.01542 0.85717 0.96113 0.0
C172 C 0.01435 0.87237 0.04891 0.0
C173 C -0.02559 0.85073 0.04023 0.0
H174 H 0.77913 0.41346 0.34039 0.0
H175 H 0.83124 0.45409 0.21501 0.0
H176 H 0.8028 0.49523 0.21 0.0
H177 H 0.75431 0.51045 0.23428 0.0
H178 H 0.69831 0.46745 0.35714 0.0
H179 H 0.73761 0.43727 0.37072 0.0
C180 C 0.78513 0.43224 0.31275 0.0
C181 C 0.80677 0.43045 0.27782 0.0
C182 C 0.76752 0.45497 0.30931 0.0
C183 C 0.81424 0.4547 0.24199 0.0
C184 C 0.79791 0.47814 0.23903 0.0
C185 C 0.75127 0.49517 0.26452 0.0
C186 C 0.72296 0.49054 0.29419 0.0
C187 C 0.77306 0.47707 0.2714 0.0
C188 C 0.71982 0.47127 0.33363 0.0
C189 C 0.74206 0.45372 0.34122 0.0
H190 H 0.4664 0.24212 0.21661 0.0
H191 H 0.4957 0.24825 0.35624 0.0
H192 H 0.52563 0.31847 0.35692 0.0
H193 H 0.54941 0.37867 0.31571 0.0
H194 H 0.52151 0.37083 0.17541 0.0
H195 H 0.48494 0.3009 0.17733 0.0
C196 C 0.47895 0.25865 0.24741 0.0
C197 C 0.47912 0.23979 0.2862 0.0
C198 C 0.49664 0.29892 0.24738 0.0
C199 C 0.49519 0.26188 0.32582 0.0
C200 C 0.51249 0.30212 0.32618 0.0
C201 C 0.53468 0.36164 0.28579 0.0
C202 C 0.53848 0.38005 0.24539 0.0
C203 C 0.51424 0.32106 0.28688 0.0
C204 C 0.51941 0.35749 0.20686 0.0
C205 C 0.49849 0.31743 0.20788 0.0
H206 H 0.57872 0.16576 0.33633 0.0
H207 H 0.57072 0.12481 0.20115 0.0
H208 H 0.64096 0.16017 0.19837 0.0
H209 H 0.70358 0.20989 0.23024 0.0
H210 H 0.71233 0.25272 0.36455 0.0
H211 H 0.64301 0.20907 0.37193 0.0
C212 C 0.59237 0.1638 0.30666 0.0
C213 C 0.56945 0.14319 0.26876 0.0
C214 C 0.63292 0.185 0.30487 0.0
C215 C 0.58764 0.14089 0.2306 0.0
C216 C 0.62784 0.16121 0.22889 0.0
C217 C 0.69045 0.20931 0.26137 0.0
C218 C 0.71292 0.23501 0.29647 0.0
C219 C 0.65061 0.18459 0.26516 0.0
C220 C 0.69563 0.23339 0.33688 0.0
C221 C 0.65594 0.20855 0.34106 0.0
H222 H 0.40367 0.81819 0.63917 0.0
H223 H 0.43552 0.84701 0.77825 0.0
H224 H 0.47246 0.81385 0.7767 0.0
H225 H 0.48793 0.76927 0.73888 0.0
H226 H 0.45503 0.73849 0.60049 0.0
H227 H 0.42682 0.7803 0.59862 0.0
C228 C 0.41938 0.81798 0.66892 0.0
C229 C 0.41623 0.83459 0.70897 0.0
C230 C 0.44001 0.79809 0.66807 0.0
C231 C 0.437 0.83414 0.7471 0.0
C232 C 0.45806 0.81503 0.74631 0.0
C233 C 0.47509 0.77211 0.70809 0.0
C234 C 0.47299 0.75028 0.67007 0.0
C235 C 0.45848 0.79567 0.70746 0.0
C236 C 0.45689 0.75484 0.63027 0.0
C237 C 0.44055 0.77858 0.62927 0.0
H238 H 0.23 0.72407 0.61927 0.0
H239 H 0.22833 0.72092 0.76205 0.0
H240 H 0.18959 0.65099 0.75756 0.0
H241 H 0.15937 0.59016 0.71345 0.0
H242 H 0.16124 0.59343 0.57067 0.0
H243 H 0.19622 0.66343 0.57506 0.0
C244 C 0.22092 0.70815 0.64941 0.0
C245 C 0.23247 0.72794 0.69087 0.0
C246 C 0.19867 0.66771 0.64672 0.0
C247 C 0.22016 0.70664 0.72956 0.0
C248 C 0.19796 0.66651 0.72711 0.0
C249 C 0.16706 0.60614 0.68327 0.0
C250 C 0.15786 0.58632 0.64188 0.0
C251 C 0.18753 0.64666 0.68591 0.0
C252 C 0.16808 0.60771 0.60312 0.0
C253 C 0.18819 0.64789 0.60551 0.0
H254 H 0.2489 0.48766 0.5818 0.0
H255 H 0.21818 0.46982 0.71874 0.0
H256 H 0.28643 0.50251 0.74236 0.0
H257 H 0.35446 0.5436 0.72472 0.0
H258 H 0.38513 0.56301 0.58784 0.0
H259 H 0.31742 0.52206 0.56384 0.0
C260 C 0.25706 0.49013 0.61677 0.0
C261 C 0.22836 0.47675 0.64841 0.0
C262 C 0.29646 0.5098 0.63028 0.0
C263 C 0.23959 0.48014 0.6936 0.0
C264 C 0.27868 0.49903 0.70722 0.0
C265 C 0.34647 0.53848 0.68961 0.0
C266 C 0.37488 0.55697 0.65823 0.0
C267 C 0.30734 0.51523 0.67593 0.0
C268 C 0.36392 0.54954 0.61285 0.0
C269 C 0.32512 0.52612 0.59901 0.0
H270 H 0.04326 0.32035 0.93176 0.0
H271 H -0.01333 0.22097 0.84219 0.0
H272 H 0.00367 0.26293 0.77889 0.0
H273 H 0.03532 0.32789 0.74908 0.0
H274 H 0.08773 0.42731 0.83883 0.0
H275 H 0.07141 0.38537 0.90212 0.0
C276 C 0.03478 0.30792 0.89834 0.0
C277 C 0.01416 0.26762 0.89155 0.0
C278 C 0.04375 0.33224 0.86226 0.0
C279 C 0.00267 0.25188 0.8482 0.0
C280 C 0.0124 0.27587 0.81205 0.0
C281 C 0.04309 0.34037 0.78252 0.0
C282 C 0.06297 0.38067 0.78928 0.0
C283 C 0.03301 0.31607 0.81868 0.0
C284 C 0.07238 0.39641 0.83278 0.0
C285 C 0.06319 0.37243 0.86894 0.0
H286 H 0.71755 0.74642 0.82945 0.0
H287 H 0.63355 0.72426 0.92795 0.0
H288 H 0.58108 0.69381 0.87097 0.0
H289 H 0.55945 0.6755 0.79241 0.0
H290 H 0.64445 0.70435 0.69348 0.0
H291 H 0.69629 0.72986 0.75123 0.0
C292 C 0.68771 0.73471 0.83841 0.0
C293 C 0.67926 0.73731 0.88271 0.0
C294 C 0.65798 0.71839 0.80538 0.0
C295 C 0.64063 0.72261 0.89393 0.0
C296 C 0.61069 0.70514 0.86143 0.0
C297 C 0.58933 0.68696 0.78378 0.0
C298 C 0.59835 0.68773 0.73909 0.0
C299 C 0.61904 0.70306 0.817 0.0
C300 C 0.63706 0.7034 0.72785 0.0
C301 C 0.66662 0.71802 0.76078 0.0
H302 H 0.30185 0.9564 0.75614 0.0
H303 H 0.20347 0.84171 0.7398 0.0
H304 H 0.16997 0.85636 0.79672 0.0
H305 H 0.17022 0.90088 0.854 0.0
H306 H 0.26605 0.01733 0.86582 0.0
H307 H 0.29888 0.0032 0.80756 0.0
C308 C 0.27296 0.93483 0.76492 0.0
C309 C 0.2552 0.89801 0.7443 0.0
C310 C 0.25349 0.94378 0.79682 0.0
C311 C 0.2176 0.87031 0.75531 0.0
C312 C 0.19852 0.87861 0.78792 0.0
C313 C 0.19811 0.92318 0.84343 0.0
C314 C 0.21591 0.95993 0.86428 0.0
C315 C 0.21639 0.91509 0.8093 0.0
C316 C 0.2518 -0.01117 0.85007 0.0
C317 C 0.27066 -0.01928 0.81696 0.0
H318 H 0.35501 0.10738 0.20528 0.0
H319 H 0.3288 -0.00609 0.24157 0.0
H320 H 0.28129 0.9653 0.17906 0.0
H321 H 0.24898 -0.02686 0.11261 0.0
H322 H 0.28024 0.08748 0.07289 0.0
H323 H 0.32433 0.11532 0.13776 0.0
C324 C 0.33833 0.07638 0.19972 0.0
C325 C 0.3444 0.05252 0.2281 0.0
C326 C 0.31251 0.06045 0.16278 0.0
C327 C 0.32385 0.01254 0.2202 0.0
C328 C 0.29698 -0.0037 0.18443 0.0
C329 C 0.26552 0.00413 0.11821 0.0
C330 C 0.26135 0.02819 0.08808 0.0
C331 C 0.29138 0.02002 0.15521 0.0
C332 C 0.28311 0.06832 0.09547 0.0
C333 C 0.30818 0.08429 0.13269 0.0
H334 H 0.9231 0.2714 0.0734 0.0
H335 H -0.02629 0.22366 0.16131 0.0
H336 H 0.95328 0.24559 0.22555 0.0
H337 H 0.92068 0.27818 0.25682 0.0
H338 H 0.87561 0.33139 0.16928 0.0
H339 H 0.89435 0.30783 0.10492 0.0
C340 C 0.9295 0.26581 0.10668 0.0
C341 C 0.94944 0.2457 0.11277 0.0
C342 C 0.91881 0.27963 0.14349 0.0
C343 C -0.04172 0.23909 0.15592 0.0
C344 C 0.94661 0.25158 0.19264 0.0
C345 C 0.91512 0.28464 0.22361 0.0
C346 C 0.89665 0.30619 0.21767 0.0
C347 C 0.92684 0.27186 0.18684 0.0
C348 C 0.88992 0.31487 0.17461 0.0
C349 C 0.90048 0.30131 0.1378 0.0
H350 H 0.69043 0.65334 0.23418 0.0
H351 H 0.63212 0.55918 0.13773 0.0
H352 H 0.66116 0.60342 0.07774 0.0
H353 H 0.70383 0.66854 0.05249 0.0
H354 H 0.75813 0.76404 0.14745 0.0
H355 H 0.73015 0.71976 0.20827 0.0
C356 C 0.68401 0.64263 0.19999 0.0
C357 C 0.65928 0.60301 0.19042 0.0
C358 C 0.70027 0.66844 0.16546 0.0
C359 C 0.65089 0.58953 0.14599 0.0
C360 C 0.66764 0.61479 0.11165 0.0
C361 C 0.70968 0.67962 0.08654 0.0
C362 C 0.73343 0.71938 0.09562 0.0
C363 C 0.69255 0.65421 0.121 0.0
C364 C 0.74008 0.7335 0.13975 0.0
C365 C 0.72408 0.70819 0.17445 0.0
H366 H -0.00267 0.36155 0.56212 0.0
H367 H 0.01139 0.47456 0.58048 0.0
H368 H -0.03484 0.4614 0.51854 0.0
H369 H 0.92241 0.41837 0.45728 0.0
H370 H 0.90405 0.30334 0.44323 0.0
H371 H 0.94989 0.31639 0.50545 0.0
C372 C -0.00996 0.38312 0.55256 0.0
C373 C 0.00782 0.419 0.57538 0.0
C374 C -0.03734 0.37496 0.51775 0.0
C375 C -0.0021 0.44666 0.5633 0.0
C376 C -0.0284 0.43921 0.52786 0.0
C377 C 0.9283 0.39616 0.46815 0.0
C378 C 0.91016 0.36009 0.44565 0.0
C379 C 0.95403 0.40357 0.50459 0.0
C380 C 0.91761 0.33131 0.46023 0.0
C381 C 0.94394 0.3388 0.49564 0.0
H382 H 0.61813 0.60633 0.40379 0.0
H383 H 0.51841 0.49225 0.4032 0.0
H384 H 0.49136 0.51221 0.46301 0.0
H385 H 0.49685 0.56205 0.5163 0.0
H386 H 0.5938 0.6776 0.51205 0.0
H387 H 0.62103 0.6574 0.45289 0.0
C388 C 0.59054 0.5859 0.41697 0.0
C389 C 0.57047 0.54779 0.39981 0.0
C390 C 0.57462 0.59795 0.45015 0.0
C391 C 0.53437 0.52169 0.41623 0.0
C392 C 0.51894 0.5331 0.45032 0.0
C393 C 0.52379 0.58281 0.50214 0.0
C394 C 0.54343 0.62118 0.51858 0.0
C395 C 0.53887 0.57114 0.4676 0.0
C396 C 0.57809 0.64794 0.49974 0.0
C397 C 0.59378 0.63636 0.46614 0.0
H398 H 0.3778 -0.01629 0.58213 0.0
H399 H 0.33054 0.88359 0.49367 0.0
H400 H 0.35398 0.92505 0.43004 0.0
H401 H 0.38802 -0.01026 0.39969 0.0
H402 H 0.43083 0.08979 0.48752 0.0
H403 H 0.40908 0.0484 0.55143 0.0
C404 C 0.37269 0.97098 0.5489 0.0
C405 C 0.35274 0.93062 0.54259 0.0
C406 C 0.38551 -0.00501 0.51249 0.0
C407 C 0.34581 0.91454 0.49935 0.0
C408 C 0.35929 0.93823 0.46301 0.0
C409 C 0.39276 0.00248 0.43287 0.0
C410 C 0.41142 0.04279 0.439 0.0
C411 C 0.37925 -0.02152 0.46921 0.0
C412 C 0.41668 0.05888 0.48203 0.0
C413 C 0.40425 0.03522 0.51852 0.0
loop_
_geom_bond_atom_site_label_1
_geom_bond_atom_site_label_2
_geom_bond_distance
_geom_bond_site_symmetry_2
_ccdc_geom_bond_type
C0 O1 1.306 . S
C0 O3 1.148 1_554 S
O1 C0 1.306 . S
O1 Cd2 2.228 . S
Cd2 O1 2.228 . S
Cd2 O6 2.273 . S
Cd2 O10 2.277 1_455 S
O3 C0 1.148 1_556 S
O3 Cd4 2.201 1_556 S
Cd4 O3 2.201 1_554 S
Cd4 O6 2.411 . S
Cd4 O7 2.333 1_455 S
Cd4 O8 2.352 1_554 S
Cd4 O12 2.277 1_454 S
Cd4 O13 2.356 1_554 S
C5 O10 1.209 . S
C5 O12 1.226 1_554 S
O6 Cd2 2.273 . S
O6 Cd4 2.411 . S
O6 C9 1.320 1_455 S
O7 Cd4 2.333 1_655 S
O7 C9 1.214 . S
O8 Cd4 2.352 1_556 S
O8 C11 1.258 . S
C9 O6 1.320 1_655 S
C9 O7 1.214 . S
O10 Cd2 2.277 1_655 S
O10 C5 1.209 . S
C11 O8 1.258 . S
C11 O13 1.282 . S
O12 Cd4 2.277 1_656 S
O12 C5 1.226 1_556 S
O13 Cd4 2.356 1_556 S
O13 C11 1.282 . S
C14 O15 1.306 1_554 S
C14 O17 1.160 . S
O15 C14 1.306 1_556 S
O15 Cd16 2.228 . S
Cd16 O15 2.228 . S
Cd16 O20 2.273 . S
Cd16 O24 2.277 . S
O17 C14 1.160 . S
O17 Cd18 2.203 . S
Cd18 O17 2.203 . S
Cd18 O20 2.411 1_554 S
Cd18 O21 2.337 . S
Cd18 O22 2.352 . S
Cd18 O26 2.277 . S
Cd18 O27 2.356 . S
C19 O24 1.209 1_554 S
C19 O26 1.226 . S
O20 Cd16 2.273 . S
O20 Cd18 2.411 1_556 S
O20 C23 1.320 . S
O21 Cd18 2.337 . S
O21 C23 1.205 1_554 S
O22 Cd18 2.352 . S
O22 C25 1.258 . S
C23 O20 1.320 . S
C23 O21 1.205 1_556 S
O24 Cd16 2.277 . S
O24 C19 1.209 1_556 S
C25 O22 1.258 . S
C25 O27 1.282 . S
O26 Cd18 2.277 . S
O26 C19 1.226 . S
O27 Cd18 2.356 . S
O27 C25 1.282 . S
C28 O29 1.306 . S
C28 O31 1.160 1_554 S
O29 C28 1.306 . S
O29 Cd30 2.228 1_565 S
Cd30 O29 2.228 1_545 S
Cd30 O34 2.273 . S
Cd30 O38 2.277 . S
O31 C28 1.160 1_556 S
O31 Cd32 2.203 1_566 S
Cd32 O31 2.203 1_544 S
Cd32 O34 2.411 . S
Cd32 O35 2.333 . S
Cd32 O36 2.352 1_544 S
Cd32 O40 2.277 1_554 S
Cd32 O41 2.356 1_554 S
C33 O38 1.209 . S
C33 O40 1.226 1_554 S
O34 Cd30 2.273 . S
O34 Cd32 2.411 . S
O34 C37 1.320 . S
O35 Cd32 2.333 . S
O35 C37 1.214 . S
O36 Cd32 2.352 1_566 S
O36 C39 1.258 . S
C37 O34 1.320 . S
C37 O35 1.214 . S
O38 Cd30 2.277 . S
O38 C33 1.209 . S
C39 O36 1.258 . S
C39 O41 1.282 1_565 S
O40 Cd32 2.277 1_556 S
O40 C33 1.226 1_556 S
O41 Cd32 2.356 1_556 S
O41 C39 1.282 1_545 S
C42 O43 1.306 . S
C42 O45 1.160 . S
O43 C42 1.306 . S
O43 Cd44 2.228 . S
Cd44 O43 2.228 . S
Cd44 O48 2.273 . S
Cd44 O52 2.277 . S
O45 C42 1.160 . S
O45 Cd46 2.203 . S
Cd46 O45 2.203 . S
Cd46 O48 2.411 . S
Cd46 O49 2.333 . S
Cd46 O50 2.352 . S
Cd46 O54 2.277 . S
Cd46 O55 2.356 . S
C47 O52 1.209 . S
C47 O54 1.226 . S
O48 Cd44 2.273 . S
O48 Cd46 2.411 . S
O48 C51 1.320 . S
O49 Cd46 2.333 . S
O49 C51 1.214 . S
O50 Cd46 2.352 . S
O50 C53 1.258 . S
C51 O48 1.320 . S
C51 O49 1.214 . S
O52 Cd44 2.277 . S
O52 C47 1.209 . S
C53 O50 1.258 . S
C53 O55 1.282 . S
O54 Cd46 2.277 . S
O54 C47 1.226 . S
O55 Cd46 2.356 . S
O55 C53 1.282 . S
C56 O57 1.306 . S
C56 O59 1.160 . S
O57 C56 1.306 . S
O57 Cd58 2.228 . S
Cd58 O57 2.228 . S
Cd58 O62 2.273 . S
Cd58 O66 2.277 . S
O59 C56 1.160 . S
O59 Cd60 2.203 . S
Cd60 O59 2.203 . S
Cd60 O62 2.411 . S
Cd60 O63 2.333 . S
Cd60 O64 2.352 . S
Cd60 O68 2.277 . S
Cd60 O69 2.356 . S
C61 O66 1.209 . S
C61 O68 1.226 . S
O62 Cd58 2.273 . S
O62 Cd60 2.411 . S
O62 C65 1.320 . S
O63 Cd60 2.333 . S
O63 C65 1.214 . S
O64 Cd60 2.352 . S
O64 C67 1.258 . S
C65 O62 1.320 . S
C65 O63 1.214 . S
O66 Cd58 2.277 . S
O66 C61 1.209 . S
C67 O64 1.258 . S
C67 O69 1.282 . S
O68 Cd60 2.277 . S
O68 C61 1.226 . S
O69 Cd60 2.356 . S
O69 C67 1.282 . S
C70 O71 1.306 . S
C70 O73 1.160 . S
O71 C70 1.306 . S
O71 Cd72 2.228 . S
Cd72 O71 2.228 . S
Cd72 O76 2.273 . S
Cd72 O80 2.277 . S
O73 C70 1.160 . S
O73 Cd74 2.203 . S
Cd74 O73 2.203 . S
Cd74 O76 2.411 . S
Cd74 O77 2.333 . S
Cd74 O78 2.352 . S
Cd74 O82 2.277 . S
Cd74 O83 2.356 . S
C75 O80 1.209 . S
C75 O82 1.226 . S
O76 Cd72 2.273 . S
O76 Cd74 2.411 . S
O76 C79 1.320 . S
O77 Cd74 2.333 . S
O77 C79 1.214 . S
O78 Cd74 2.352 . S
O78 C81 1.258 . S
C79 O76 1.320 . S
C79 O77 1.214 . S
O80 Cd72 2.277 . S
O80 C75 1.209 . S
C81 O78 1.258 . S
C81 O83 1.282 . S
O82 Cd74 2.277 . S
O82 C75 1.226 . S
O83 Cd74 2.356 . S
O83 C81 1.282 . S
C84 O85 1.306 . S
C84 O87 1.160 . S
O85 C84 1.306 . S
O85 Cd86 2.228 . S
Cd86 O85 2.228 . S
Cd86 O90 2.273 . S
Cd86 O94 2.277 . S
O87 C84 1.160 . S
O87 Cd88 2.203 . S
Cd88 O87 2.203 . S
Cd88 O90 2.411 . S
Cd88 O91 2.333 . S
Cd88 O92 2.352 . S
Cd88 O96 2.277 . S
Cd88 O97 2.356 . S
C89 O94 1.209 . S
C89 O96 1.226 . S
O90 Cd86 2.273 . S
O90 Cd88 2.411 . S
O90 C93 1.320 . S
O91 Cd88 2.333 . S
O91 C93 1.214 . S
O92 Cd88 2.352 . S
O92 C95 1.258 . S
C93 O90 1.320 . S
C93 O91 1.214 . S
O94 Cd86 2.277 . S
O94 C89 1.209 . S
C95 O92 1.258 . S
C95 O97 1.282 . S
O96 Cd88 2.277 . S
O96 C89 1.226 . S
O97 Cd88 2.356 . S
O97 C95 1.282 . S
C98 O99 1.306 . S
C98 O101 1.160 . S
O99 C98 1.306 . S
O99 Cd100 2.228 . S
Cd100 O99 2.228 . S
Cd100 O104 2.273 . S
Cd100 O108 2.277 . S
O101 C98 1.160 . S
O101 Cd102 2.203 . S
Cd102 O101 2.203 . S
Cd102 O104 2.411 . S
Cd102 O105 2.333 . S
Cd102 O106 2.352 . S
Cd102 O110 2.277 . S
Cd102 O111 2.356 . S
C103 O108 1.209 . S
C103 O110 1.226 . S
O104 Cd100 2.273 . S
O104 Cd102 2.411 . S
O104 C107 1.320 . S
O105 Cd102 2.333 . S
O105 C107 1.214 . S
O106 Cd102 2.352 . S
O106 C109 1.258 . S
C107 O104 1.320 . S
C107 O105 1.214 . S
O108 Cd100 2.277 . S
O108 C103 1.209 . S
C109 O106 1.258 . S
C109 O111 1.282 . S
O110 Cd102 2.277 . S
O110 C103 1.226 . S
O111 Cd102 2.356 . S
O111 C109 1.282 . S
C112 O113 1.306 . S
C112 O115 1.160 . S
O113 C112 1.306 . S
O113 Cd114 2.228 . S
Cd114 O113 2.228 . S
Cd114 O118 2.273 . S
Cd114 O122 2.277 . S
O115 C112 1.160 . S
O115 Cd116 2.203 . S
Cd116 O115 2.203 . S
Cd116 O118 2.411 . S
Cd116 O119 2.333 . S
Cd116 O120 2.352 . S
Cd116 O124 2.277 . S
Cd116 O125 2.356 . S
C117 O122 1.209 . S
C117 O124 1.226 . S
O118 Cd114 2.273 . S
O118 Cd116 2.411 . S
O118 C121 1.320 . S
O119 Cd116 2.333 . S
O119 C121 1.214 . S
O120 Cd116 2.352 . S
O120 C123 1.258 . S
C121 O118 1.320 . S
C121 O119 1.214 . S
O122 Cd114 2.277 . S
O122 C117 1.209 . S
C123 O120 1.258 . S
C123 O125 1.282 . S
O124 Cd116 2.277 . S
O124 C117 1.226 . S
O125 Cd116 2.356 . S
O125 C123 1.282 . S
H126 C132 0.930 . S
H127 C135 0.930 . S
H128 C136 0.930 . S
H129 C137 0.930 . S
H130 C140 0.930 . S
H131 C141 0.930 . S
C132 H126 0.930 . S
C132 C133 1.355 . S
C132 C134 1.415 . S
C133 C132 1.355 . S
C133 C135 1.419 1_554 S
C134 C132 1.415 . S
C134 C139 1.424 . S
C134 C141 1.409 . S
C135 H127 0.930 . S
C135 C133 1.419 1_556 S
C135 C136 1.362 . S
C136 H128 0.930 . S
C136 C135 1.362 . S
C136 C139 1.410 1_556 S
C137 H129 0.930 . S
C137 C138 1.355 1_556 S
C137 C139 1.415 1_556 S
C138 C137 1.355 1_554 S
C138 C140 1.419 . S
C139 C134 1.424 . S
C139 C136 1.410 1_554 S
C139 C137 1.415 1_554 S
C140 H130 0.930 . S
C140 C138 1.419 . S
C140 C141 1.362 . S
C141 H131 0.930 . S
C141 C134 1.409 . S
C141 C140 1.362 . S
H142 C148 0.930 . S
H143 C151 0.930 . S
H144 C152 0.930 . S
H145 C153 0.930 1_556 S
H146 C156 0.930 . S
H147 C157 0.930 . S
C148 H142 0.930 . S
C148 C149 1.355 . S
C148 C150 1.415 1_565 S
C149 C148 1.355 . S
C149 C151 1.419 1_554 S
C150 C148 1.415 1_545 S
C150 C155 1.425 . S
C150 C157 1.409 . S
C151 H143 0.930 . S
C151 C149 1.419 1_556 S
C151 C152 1.362 . S
C152 H144 0.930 . S
C152 C151 1.362 . S
C152 C155 1.409 1_566 S
C153 H145 0.930 1_554 S
C153 C154 1.355 . S
C153 C155 1.415 . S
C154 C153 1.355 . S
C154 C156 1.419 . S
C155 C150 1.425 . S
C155 C152 1.409 1_544 S
C155 C153 1.415 . S
C156 H146 0.930 . S
C156 C154 1.419 . S
C156 C157 1.362 . S
C157 H147 0.930 . S
C157 C150 1.409 . S
C157 C156 1.362 . S
H158 C164 0.930 . S
H159 C167 0.930 . S
H160 C168 0.930 1_455 S
H161 C169 0.930 1_556 S
H162 C172 0.930 . S
H163 C173 0.930 . S
C164 H158 0.930 . S
C164 C165 1.355 . S
C164 C166 1.415 1_655 S
C165 C164 1.355 . S
C165 C167 1.419 1_554 S
C166 C164 1.415 1_455 S
C166 C171 1.425 . S
C166 C173 1.409 . S
C167 H159 0.930 . S
C167 C165 1.419 1_556 S
C167 C168 1.362 . S
C168 H160 0.930 1_655 S
C168 C167 1.362 . S
C168 C171 1.409 1_656 S
C169 H161 0.930 1_554 S
C169 C170 1.355 . S
C169 C171 1.415 . S
C170 C169 1.355 . S
C170 C172 1.419 . S
C171 C166 1.425 . S
C171 C168 1.409 1_454 S
C171 C169 1.415 . S
C172 H162 0.930 . S
C172 C170 1.419 . S
C172 C173 1.362 . S
C173 H163 0.930 . S
C173 C166 1.409 . S
C173 C172 1.362 . S
H174 C180 0.930 . S
H175 C183 0.930 . S
H176 C184 0.930 . S
H177 C185 0.930 . S
H178 C188 0.930 . S
H179 C189 0.930 . S
C180 H174 0.930 . S
C180 C181 1.355 . S
C180 C182 1.415 . S
C181 C180 1.355 . S
C181 C183 1.419 . S
C182 C180 1.415 . S
C182 C187 1.425 . S
C182 C189 1.409 . S
C183 H175 0.930 . S
C183 C181 1.419 . S
C183 C184 1.362 . S
C184 H176 0.930 . S
C184 C183 1.362 . S
C184 C187 1.409 . S
C185 H177 0.930 . S
C185 C186 1.355 . S
C185 C187 1.415 . S
C186 C185 1.355 . S
C186 C188 1.419 . S
C187 C182 1.425 . S
C187 C184 1.409 . S
C187 C185 1.415 . S
C188 H178 0.930 . S
C188 C186 1.419 . S
C188 C189 1.362 . S
C189 H179 0.930 . S
C189 C182 1.409 . S
C189 C188 1.362 . S
H190 C196 0.930 . S
H191 C199 0.930 . S
H192 C200 0.930 . S
H193 C201 0.930 . S
H194 C204 0.930 . S
H195 C205 0.930 . S
C196 H190 0.930 . S
C196 C197 1.355 . S
C196 C198 1.415 . S
C197 C196 1.355 . S
C197 C199 1.419 . S
C198 C196 1.415 . S
C198 C203 1.425 . S
C198 C205 1.409 . S
C199 H191 0.930 . S
C199 C197 1.419 . S
C199 C200 1.362 . S
C200 H192 0.930 . S
C200 C199 1.362 . S
C200 C203 1.409 . S
C201 H193 0.930 . S
C201 C202 1.355 . S
C201 C203 1.415 . S
C202 C201 1.355 . S
C202 C204 1.419 . S
C203 C198 1.425 . S
C203 C200 1.409 . S
C203 C201 1.415 . S
C204 H194 0.930 . S
C204 C202 1.419 . S
C204 C205 1.362 . S
C205 H195 0.930 . S
C205 C198 1.409 . S
C205 C204 1.362 . S
H206 C212 0.930 . S
H207 C215 0.930 . S
H208 C216 0.930 . S
H209 C217 0.930 . S
H210 C220 0.930 . S
H211 C221 0.930 . S
C212 H206 0.930 . S
C212 C213 1.355 . S
C212 C214 1.415 . S
C213 C212 1.355 . S
C213 C215 1.419 . S
C214 C212 1.415 . S
C214 C219 1.425 . S
C214 C221 1.409 . S
C215 H207 0.930 . S
C215 C213 1.419 . S
C215 C216 1.362 . S
C216 H208 0.930 . S
C216 C215 1.362 . S
C216 C219 1.409 . S
C217 H209 0.930 . S
C217 C218 1.355 . S
C217 C219 1.415 . S
C218 C217 1.355 . S
C218 C220 1.419 . S
C219 C214 1.425 . S
C219 C216 1.409 . S
C219 C217 1.415 . S
C220 H210 0.930 . S
C220 C218 1.419 . S
C220 C221 1.362 . S
C221 H211 0.930 . S
C221 C214 1.409 . S
C221 C220 1.362 . S
H222 C228 0.930 . S
H223 C231 0.930 . S
H224 C232 0.930 . S
H225 C233 0.930 . S
H226 C236 0.930 . S
H227 C237 0.930 . S
C228 H222 0.930 . S
C228 C229 1.355 . S
C228 C230 1.415 . S
C229 C228 1.355 . S
C229 C231 1.419 . S
C230 C228 1.415 . S
C230 C235 1.425 . S
C230 C237 1.409 . S
C231 H223 0.930 . S
C231 C229 1.419 . S
C231 C232 1.362 . S
C232 H224 0.930 . S
C232 C231 1.362 . S
C232 C235 1.409 . S
C233 H225 0.930 . S
C233 C234 1.355 . S
C233 C235 1.415 . S
C234 C233 1.355 . S
C234 C236 1.419 . S
C235 C230 1.425 . S
C235 C232 1.409 . S
C235 C233 1.415 . S
C236 H226 0.930 . S
C236 C234 1.419 . S
C236 C237 1.362 . S
C237 H227 0.930 . S
C237 C230 1.409 . S
C237 C236 1.362 . S
H238 C244 0.930 . S
H239 C247 0.930 . S
H240 C248 0.930 . S
H241 C249 0.930 . S
H242 C252 0.930 . S
H243 C253 0.930 . S
C244 H238 0.930 . S
C244 C245 1.355 . S
C244 C246 1.415 . S
C245 C244 1.355 . S
C245 C247 1.419 . S
C246 C244 1.415 . S
C246 C251 1.425 . S
C246 C253 1.409 . S
C247 H239 0.930 . S
C247 C245 1.419 . S
C247 C248 1.362 . S
C248 H240 0.930 . S
C248 C247 1.362 . S
C248 C251 1.409 . S
C249 H241 0.930 . S
C249 C250 1.355 . S
C249 C251 1.415 . S
C250 C249 1.355 . S
C250 C252 1.419 . S
C251 C246 1.425 . S
C251 C248 1.409 . S
C251 C249 1.415 . S
C252 H242 0.930 . S
C252 C250 1.419 . S
C252 C253 1.362 . S
C253 H243 0.930 . S
C253 C246 1.409 . S
C253 C252 1.362 . S
H254 C260 0.930 . S
H255 C263 0.930 . S
H256 C264 0.930 . S
H257 C265 0.930 . S
H258 C268 0.930 . S
H259 C269 0.930 . S
C260 H254 0.930 . S
C260 C261 1.355 . S
C260 C262 1.415 . S
C261 C260 1.355 . S
C261 C263 1.419 . S
C262 C260 1.415 . S
C262 C267 1.425 . S
C262 C269 1.409 . S
C263 H255 0.930 . S
C263 C261 1.419 . S
C263 C264 1.362 . S
C264 H256 0.930 . S
C264 C263 1.362 . S
C264 C267 1.409 . S
C265 H257 0.930 . S
C265 C266 1.355 . S
C265 C267 1.415 . S
C266 C265 1.355 . S
C266 C268 1.419 . S
C267 C262 1.425 . S
C267 C264 1.409 . S
C267 C265 1.415 . S
C268 H258 0.930 . S
C268 C266 1.419 . S
C268 C269 1.362 . S
C269 H259 0.930 . S
C269 C262 1.409 . S
C269 C268 1.362 . S
H270 C276 0.930 . S
H271 C279 0.930 . S
H272 C280 0.930 . S
H273 C281 0.930 . S
H274 C284 0.930 . S
H275 C285 0.930 . S
C276 H270 0.930 . S
C276 C277 1.355 . S
C276 C278 1.415 . S
C277 C276 1.355 . S
C277 C279 1.419 . S
C278 C276 1.415 . S
C278 C283 1.425 . S
C278 C285 1.409 . S
C279 H271 0.930 . S
C279 C277 1.419 . S
C279 C280 1.362 . S
C280 H272 0.930 . S
C280 C279 1.362 . S
C280 C283 1.409 . S
C281 H273 0.930 . S
C281 C282 1.355 . S
C281 C283 1.415 . S
C282 C281 1.355 . S
C282 C284 1.419 . S
C283 C278 1.425 . S
C283 C280 1.409 . S
C283 C281 1.415 . S
C284 H274 0.930 . S
C284 C282 1.419 . S
C284 C285 1.362 . S
C285 H275 0.930 . S
C285 C278 1.409 . S
C285 C284 1.362 . S
H286 C292 0.930 . S
H287 C295 0.930 . S
H288 C296 0.930 . S
H289 C297 0.930 . S
H290 C300 0.930 . S
H291 C301 0.930 . S
C292 H286 0.930 . S
C292 C293 1.355 . S
C292 C294 1.415 . S
C293 C292 1.355 . S
C293 C295 1.419 . S
C294 C292 1.415 . S
C294 C299 1.425 . S
C294 C301 1.409 . S
C295 H287 0.930 . S
C295 C293 1.419 . S
C295 C296 1.362 . S
C296 H288 0.930 . S
C296 C295 1.362 . S
C296 C299 1.409 . S
C297 H289 0.930 . S
C297 C298 1.355 . S
C297 C299 1.415 . S
C298 C297 1.355 . S
C298 C300 1.419 . S
C299 C294 1.425 . S
C299 C296 1.409 . S
C299 C297 1.415 . S
C300 H290 0.930 . S
C300 C298 1.419 . S
C300 C301 1.362 . S
C301 H291 0.930 . S
C301 C294 1.409 . S
C301 C300 1.362 . S
H302 C308 0.930 . S
H303 C311 0.930 . S
H304 C312 0.930 . S
H305 C313 0.930 . S
H306 C316 0.930 1_545 S
H307 C317 0.930 1_545 S
C308 H302 0.930 . S
C308 C309 1.355 . S
C308 C310 1.415 . S
C309 C308 1.355 . S
C309 C311 1.419 . S
C310 C308 1.415 . S
C310 C315 1.425 . S
C310 C317 1.409 . S
C311 H303 0.930 . S
C311 C309 1.419 . S
C311 C312 1.362 . S
C312 H304 0.930 . S
C312 C311 1.362 . S
C312 C315 1.409 . S
C313 H305 0.930 . S
C313 C314 1.355 . S
C313 C315 1.415 . S
C314 C313 1.355 . S
C314 C316 1.419 . S
C315 C310 1.425 . S
C315 C312 1.409 . S
C315 C313 1.415 . S
C316 H306 0.930 1_565 S
C316 C314 1.419 . S
C316 C317 1.362 . S
C317 H307 0.930 1_565 S
C317 C310 1.409 . S
C317 C316 1.362 . S
H318 C324 0.930 . S
H319 C327 0.930 . S
H320 C328 0.930 . S
H321 C329 0.930 . S
H322 C332 0.930 . S
H323 C333 0.930 . S
C324 H318 0.930 . S
C324 C325 1.355 . S
C324 C326 1.415 . S
C325 C324 1.355 . S
C325 C327 1.419 . S
C326 C324 1.415 . S
C326 C331 1.425 . S
C326 C333 1.409 . S
C327 H319 0.930 . S
C327 C325 1.419 . S
C327 C328 1.362 . S
C328 H320 0.930 . S
C328 C327 1.362 . S
C328 C331 1.409 . S
C329 H321 0.930 . S
C329 C330 1.355 . S
C329 C331 1.415 . S
C330 C329 1.355 . S
C330 C332 1.419 . S
C331 C326 1.425 . S
C331 C328 1.409 . S
C331 C329 1.415 . S
C332 H322 0.930 . S
C332 C330 1.419 . S
C332 C333 1.362 . S
C333 H323 0.930 . S
C333 C326 1.409 . S
C333 C332 1.362 . S
H334 C340 0.930 . S
H335 C343 0.948 . S
H336 C344 0.930 . S
H337 C345 0.930 . S
H338 C348 0.930 . S
H339 C349 0.930 . S
C340 H334 0.930 . S
C340 C341 1.355 . S
C340 C342 1.415 . S
C341 C340 1.355 . S
C341 C343 1.419 . S
C342 C340 1.415 . S
C342 C347 1.425 . S
C342 C349 1.409 . S
C343 H335 0.948 . S
C343 C341 1.419 . S
C343 C344 1.362 . S
C344 H336 0.930 . S
C344 C343 1.362 . S
C344 C347 1.409 . S
C345 H337 0.930 . S
C345 C346 1.355 . S
C345 C347 1.415 . S
C346 C345 1.355 . S
C346 C348 1.419 . S
C347 C342 1.425 . S
C347 C344 1.409 . S
C347 C345 1.415 . S
C348 H338 0.930 . S
C348 C346 1.419 . S
C348 C349 1.362 . S
C349 H339 0.930 . S
C349 C342 1.409 . S
C349 C348 1.362 . S
H350 C356 0.930 . S
H351 C359 0.930 . S
H352 C360 0.930 . S
H353 C361 0.930 . S
H354 C364 0.930 . S
H355 C365 0.930 . S
C356 H350 0.930 . S
C356 C357 1.355 . S
C356 C358 1.415 . S
C357 C356 1.355 . S
C357 C359 1.419 . S
C358 C356 1.415 . S
C358 C363 1.425 . S
C358 C365 1.409 . S
C359 H351 0.930 . S
C359 C357 1.419 . S
C359 C360 1.362 . S
C360 H352 0.930 . S
C360 C359 1.362 . S
C360 C363 1.409 . S
C361 H353 0.930 . S
C361 C362 1.355 . S
C361 C363 1.415 . S
C362 C361 1.355 . S
C362 C364 1.419 . S
C363 C358 1.425 . S
C363 C360 1.409 . S
C363 C361 1.415 . S
C364 H354 0.930 . S
C364 C362 1.419 . S
C364 C365 1.362 . S
C365 H355 0.930 . S
C365 C358 1.409 . S
C365 C364 1.362 . S
H366 C372 0.930 . S
H367 C375 0.930 . S
H368 C376 0.930 . S
H369 C377 0.930 . S
H370 C380 0.930 . S
H371 C381 0.930 . S
C372 H366 0.930 . S
C372 C373 1.355 . S
C372 C374 1.415 . S
C373 C372 1.355 . S
C373 C375 1.419 . S
C374 C372 1.415 . S
C374 C379 1.425 . S
C374 C381 1.409 . S
C375 H367 0.930 . S
C375 C373 1.419 . S
C375 C376 1.362 . S
C376 H368 0.930 . S
C376 C375 1.362 . S
C376 C379 1.409 . S
C377 H369 0.930 . S
C377 C378 1.355 . S
C377 C379 1.415 1_655 S
C378 C377 1.355 . S
C378 C380 1.419 . S
C379 C374 1.425 . S
C379 C376 1.409 . S
C379 C377 1.415 1_455 S
C380 H370 0.930 . S
C380 C378 1.419 . S
C380 C381 1.362 1_655 S
C381 H371 0.930 . S
C381 C374 1.409 . S
C381 C380 1.362 1_455 S
H382 C388 0.930 . S
H383 C391 0.930 . S
H384 C392 0.930 . S
H385 C393 0.930 . S
H386 C396 0.930 . S
H387 C397 0.930 . S
C388 H382 0.930 . S
C388 C389 1.355 . S
C388 C390 1.415 . S
C389 C388 1.355 . S
C389 C391 1.419 . S
C390 C388 1.415 . S
C390 C395 1.425 . S
C390 C397 1.409 . S
C391 H383 0.930 . S
C391 C389 1.419 . S
C391 C392 1.362 . S
C392 H384 0.930 . S
C392 C391 1.362 . S
C392 C395 1.409 . S
C393 H385 0.930 . S
C393 C394 1.355 . S
C393 C395 1.415 . S
C394 C393 1.355 . S
C394 C396 1.419 . S
C395 C390 1.425 . S
C395 C392 1.409 . S
C395 C393 1.415 . S
C396 H386 0.930 . S
C396 C394 1.419 . S
C396 C397 1.362 . S
C397 H387 0.930 . S
C397 C390 1.409 . S
C397 C396 1.362 . S
H398 C404 0.930 . S
H399 C407 0.930 . S
H400 C408 0.928 . S
H401 C409 0.930 . S
H402 C412 0.930 . S
H403 C413 0.930 . S
C404 H398 0.930 . S
C404 C405 1.355 . S
C404 C406 1.415 1_565 S
C405 C404 1.355 . S
C405 C407 1.419 . S
C406 C404 1.415 1_545 S
C406 C411 1.425 . S
C406 C413 1.409 . S
C407 H399 0.930 . S
C407 C405 1.419 . S
C407 C408 1.359 1_565 S
C408 H400 0.928 . S
C408 C407 1.359 1_545 S
C408 C411 1.414 . S
C409 H401 0.930 . S
C409 C410 1.355 . S
C409 C411 1.415 . S
C410 C409 1.355 . S
C410 C412 1.419 . S
C411 C406 1.425 . S
C411 C408 1.414 . S
C411 C409 1.415 . S
C412 H402 0.930 . S
C412 C410 1.419 . S
C412 C413 1.362 . S
C413 H403 0.930 . S
C413 C406 1.409 . S
C413 C412 1.362 . S
C133 C33 1.116 . S
C138 C0 1.126 . S
C149 C19 1.121 . S
C154 C5 1.147 . S
C165 C14 1.123 . S
C170 C28 1.079 . S
C181 C70 1.117 . S
C186 C47 1.090 . S
C197 C61 1.068 . S
C202 C42 1.096 . S
C213 C56 1.083 . S
C218 C75 1.153 . S
C229 C84 1.109 . S
C234 C117 1.056 . S
C245 C89 1.058 . S
C250 C103 1.093 . S
C261 C98 1.023 . S
C266 C112 1.089 . S
C277 C11 1.388 . S
C282 C109 1.391 . S
C293 C23 1.415 . S
C298 C121 1.416 . S
C309 C93 1.401 . S
C314 C39 1.400 . S
C325 C65 1.385 . S
C330 C37 1.384 . S
C341 C9 1.438 . S
C346 C79 1.437 . S
C357 C51 1.421 . S
C362 C25 1.419 . S
C373 C107 1.408 . S
C378 C81 1.401 . S
C389 C53 1.395 . S
C394 C123 1.386 . S
C405 C95 1.425 . S
C410 C67 1.418 . S
