# Generated by pormake.
# Topology ukn, (4)-cn, num edge types: 1
# Building blocks:
#     Node 0, Type 0, BuildingBlock: CEKHIL_clean_sbu_0, # of connection points: 4
#     Node 1, Type 0, BuildingBlock: CEKHIL_clean_sbu_0, # of connection points: 4
#     Node 2, Type 0, BuildingBlock: CEKHIL_clean_sbu_0, # of connection points: 4
#     Node 3, Type 0, BuildingBlock: CEKHIL_clean_sbu_0, # of connection points: 4
#     Node 4, Type 0, BuildingBlock: CEKHIL_clean_sbu_0, # of connection points: 4
#     Node 5, Type 0, BuildingBlock: CEKHIL_clean_sbu_0, # of connection points: 4
#     Node 6, Type 0, BuildingBlock: CEKHIL_clean_sbu_0, # of connection points: 4
#     Node 7, Type 0, BuildingBlock: CEKHIL_clean_sbu_0, # of connection points: 4
#     Node 8, Type 0, BuildingBlock: CEKHIL_clean_sbu_0, # of connection points: 4
#     Node 9, Type 0, BuildingBlock: CEKHIL_clean_sbu_0, # of connection points: 4
#     Node 10, Type 0, BuildingBlock: CEKHIL_clean_sbu_0, # of connection points: 4
#     Node 11, Type 0, BuildingBlock: CEKHIL_clean_sbu_0, # of connection points: 4
#     Node 12, Type 0, BuildingBlock: CEKHIL_clean_sbu_0, # of connection points: 4
#     Node 13, Type 0, BuildingBlock: CEKHIL_clean_sbu_0, # of connection points: 4
#     Node 14, Type 0, BuildingBlock: CEKHIL_clean_sbu_0, # of connection points: 4
#     Node 15, Type 0, BuildingBlock: CEKHIL_clean_sbu_0, # of connection points: 4
#     Node 16, Type 0, BuildingBlock: CEKHIL_clean_sbu_0, # of connection points: 4
#     Node 17, Type 0, BuildingBlock: CEKHIL_clean_sbu_0, # of connection points: 4
#     Node 18, Type 0, BuildingBlock: CEKHIL_clean_sbu_0, # of connection points: 4
#     Node 19, Type 0, BuildingBlock: CEKHIL_clean_sbu_0, # of connection points: 4
#     Node 20, Type 0, BuildingBlock: CEKHIL_clean_sbu_0, # of connection points: 4
#     Node 21, Type 0, BuildingBlock: CEKHIL_clean_sbu_0, # of connection points: 4
#     Node 22, Type 0, BuildingBlock: CEKHIL_clean_sbu_0, # of connection points: 4
#     Node 23, Type 0, BuildingBlock: CEKHIL_clean_sbu_0, # of connection points: 4
#     Node 24, Type 0, BuildingBlock: CEKHIL_clean_sbu_0, # of connection points: 4
#     Node 25, Type 0, BuildingBlock: CEKHIL_clean_sbu_0, # of connection points: 4
#     Node 26, Type 0, BuildingBlock: CEKHIL_clean_sbu_0, # of connection points: 4
#     Node 27, Type 0, BuildingBlock: CEKHIL_clean_sbu_0, # of connection points: 4
#     Node 28, Type 0, BuildingBlock: CEKHIL_clean_sbu_0, # of connection points: 4
#     Node 29, Type 0, BuildingBlock: CEKHIL_clean_sbu_0, # of connection points: 4
#     Node 30, Type 0, BuildingBlock: CEKHIL_clean_sbu_0, # of connection points: 4
#     Node 31, Type 0, BuildingBlock: CEKHIL_clean_sbu_0, # of connection points: 4
#     Node 32, Type 0, BuildingBlock: CEKHIL_clean_sbu_0, # of connection points: 4
#     Node 33, Type 0, BuildingBlock: CEKHIL_clean_sbu_0, # of connection points: 4
#     Node 34, Type 0, BuildingBlock: CEKHIL_clean_sbu_0, # of connection points: 4
#     Node 35, Type 0, BuildingBlock: CEKHIL_clean_sbu_0, # of connection points: 4
#     Edge 36, Type (0, 0), BuildingBlock: ZUJKAS_clean_linker_0, # of connection points: 2
#     Edge 37, Type (0, 0), BuildingBlock: ZUJKAS_clean_linker_0, # of connection points: 2
#     Edge 38, Type (0, 0), BuildingBlock: ZUJKAS_clean_linker_0, # of connection points: 2
#     Edge 39, Type (0, 0), BuildingBlock: ZUJKAS_clean_linker_0, # of connection points: 2
#     Edge 40, Type (0, 0), BuildingBlock: ZUJKAS_clean_linker_0, # of connection points: 2
#     Edge 41, Type (0, 0), BuildingBlock: ZUJKAS_clean_linker_0, # of connection points: 2
#     Edge 42, Type (0, 0), BuildingBlock: ZUJKAS_clean_linker_0, # of connection points: 2
#     Edge 43, Type (0, 0), BuildingBlock: ZUJKAS_clean_linker_0, # of connection points: 2
#     Edge 44, Type (0, 0), BuildingBlock: ZUJKAS_clean_linker_0, # of connection points: 2
#     Edge 45, Type (0, 0), BuildingBlock: ZUJKAS_clean_linker_0, # of connection points: 2
#     Edge 46, Type (0, 0), BuildingBlock: ZUJKAS_clean_linker_0, # of connection points: 2
#     Edge 47, Type (0, 0), BuildingBlock: ZUJKAS_clean_linker_0, # of connection points: 2
#     Edge 48, Type (0, 0), BuildingBlock: ZUJKAS_clean_linker_0, # of connection points: 2
#     Edge 49, Type (0, 0), BuildingBlock: ZUJKAS_clean_linker_0, # of connection points: 2
#     Edge 50, Type (0, 0), BuildingBlock: ZUJKAS_clean_linker_0, # of connection points: 2
#     Edge 51, Type (0, 0), BuildingBlock: ZUJKAS_clean_linker_0, # of connection points: 2
#     Edge 52, Type (0, 0), BuildingBlock: ZUJKAS_clean_linker_0, # of connection points: 2
#     Edge 53, Type (0, 0), BuildingBlock: ZUJKAS_clean_linker_0, # of connection points: 2
#     Edge 54, Type (0, 0), BuildingBlock: ZUJKAS_clean_linker_0, # of connection points: 2
#     Edge 55, Type (0, 0), BuildingBlock: ZUJKAS_clean_linker_0, # of connection points: 2
#     Edge 56, Type (0, 0), BuildingBlock: ZUJKAS_clean_linker_0, # of connection points: 2
#     Edge 57, Type (0, 0), BuildingBlock: ZUJKAS_clean_linker_0, # of connection points: 2
#     Edge 58, Type (0, 0), BuildingBlock: ZUJKAS_clean_linker_0, # of connection points: 2
#     Edge 59, Type (0, 0), BuildingBlock: ZUJKAS_clean_linker_0, # of connection points: 2
#     Edge 60, Type (0, 0), BuildingBlock: ZUJKAS_clean_linker_0, # of connection points: 2
#     Edge 61, Type (0, 0), BuildingBlock: ZUJKAS_clean_linker_0, # of connection points: 2
#     Edge 62, Type (0, 0), BuildingBlock: ZUJKAS_clean_linker_0, # of connection points: 2
#     Edge 63, Type (0, 0), BuildingBlock: ZUJKAS_clean_linker_0, # of connection points: 2
#     Edge 64, Type (0, 0), BuildingBlock: ZUJKAS_clean_linker_0, # of connection points: 2
#     Edge 65, Type (0, 0), BuildingBlock: ZUJKAS_clean_linker_0, # of connection points: 2
#     Edge 66, Type (0, 0), BuildingBlock: ZUJKAS_clean_linker_0, # of connection points: 2
#     Edge 67, Type (0, 0), BuildingBlock: ZUJKAS_clean_linker_0, # of connection points: 2
#     Edge 68, Type (0, 0), BuildingBlock: ZUJKAS_clean_linker_0, # of connection points: 2
#     Edge 69, Type (0, 0), BuildingBlock: ZUJKAS_clean_linker_0, # of connection points: 2
#     Edge 70, Type (0, 0), BuildingBlock: ZUJKAS_clean_linker_0, # of connection points: 2
#     Edge 71, Type (0, 0), BuildingBlock: ZUJKAS_clean_linker_0, # of connection points: 2
#     Edge 72, Type (0, 0), BuildingBlock: ZUJKAS_clean_linker_0, # of connection points: 2
#     Edge 73, Type (0, 0), BuildingBlock: ZUJKAS_clean_linker_0, # of connection points: 2
#     Edge 74, Type (0, 0), BuildingBlock: ZUJKAS_clean_linker_0, # of connection points: 2
#     Edge 75, Type (0, 0), BuildingBlock: ZUJKAS_clean_linker_0, # of connection points: 2
#     Edge 76, Type (0, 0), BuildingBlock: ZUJKAS_clean_linker_0, # of connection points: 2
#     Edge 77, Type (0, 0), BuildingBlock: ZUJKAS_clean_linker_0, # of connection points: 2
#     Edge 78, Type (0, 0), BuildingBlock: ZUJKAS_clean_linker_0, # of connection points: 2
#     Edge 79, Type (0, 0), BuildingBlock: ZUJKAS_clean_linker_0, # of connection points: 2
#     Edge 80, Type (0, 0), BuildingBlock: ZUJKAS_clean_linker_0, # of connection points: 2
#     Edge 81, Type (0, 0), BuildingBlock: ZUJKAS_clean_linker_0, # of connection points: 2
#     Edge 82, Type (0, 0), BuildingBlock: ZUJKAS_clean_linker_0, # of connection points: 2
#     Edge 83, Type (0, 0), BuildingBlock: ZUJKAS_clean_linker_0, # of connection points: 2
#     Edge 84, Type (0, 0), BuildingBlock: ZUJKAS_clean_linker_0, # of connection points: 2
#     Edge 85, Type (0, 0), BuildingBlock: ZUJKAS_clean_linker_0, # of connection points: 2
#     Edge 86, Type (0, 0), BuildingBlock: ZUJKAS_clean_linker_0, # of connection points: 2
#     Edge 87, Type (0, 0), BuildingBlock: ZUJKAS_clean_linker_0, # of connection points: 2
#     Edge 88, Type (0, 0), BuildingBlock: ZUJKAS_clean_linker_0, # of connection points: 2
#     Edge 89, Type (0, 0), BuildingBlock: ZUJKAS_clean_linker_0, # of connection points: 2
#     Edge 90, Type (0, 0), BuildingBlock: ZUJKAS_clean_linker_0, # of connection points: 2
#     Edge 91, Type (0, 0), BuildingBlock: ZUJKAS_clean_linker_0, # of connection points: 2
#     Edge 92, Type (0, 0), BuildingBlock: ZUJKAS_clean_linker_0, # of connection points: 2
#     Edge 93, Type (0, 0), BuildingBlock: ZUJKAS_clean_linker_0, # of connection points: 2
#     Edge 94, Type (0, 0), BuildingBlock: ZUJKAS_clean_linker_0, # of connection points: 2
#     Edge 95, Type (0, 0), BuildingBlock: ZUJKAS_clean_linker_0, # of connection points: 2
#     Edge 96, Type (0, 0), BuildingBlock: ZUJKAS_clean_linker_0, # of connection points: 2
#     Edge 97, Type (0, 0), BuildingBlock: ZUJKAS_clean_linker_0, # of connection points: 2
#     Edge 98, Type (0, 0), BuildingBlock: ZUJKAS_clean_linker_0, # of connection points: 2
#     Edge 99, Type (0, 0), BuildingBlock: ZUJKAS_clean_linker_0, # of connection points: 2
#     Edge 100, Type (0, 0), BuildingBlock: ZUJKAS_clean_linker_0, # of connection points: 2
#     Edge 101, Type (0, 0), BuildingBlock: ZUJKAS_clean_linker_0, # of connection points: 2
#     Edge 102, Type (0, 0), BuildingBlock: ZUJKAS_clean_linker_0, # of connection points: 2
#     Edge 103, Type (0, 0), BuildingBlock: ZUJKAS_clean_linker_0, # of connection points: 2
#     Edge 104, Type (0, 0), BuildingBlock: ZUJKAS_clean_linker_0, # of connection points: 2
#     Edge 105, Type (0, 0), BuildingBlock: ZUJKAS_clean_linker_0, # of connection points: 2
#     Edge 106, Type (0, 0), BuildingBlock: ZUJKAS_clean_linker_0, # of connection points: 2
#     Edge 107, Type (0, 0), BuildingBlock: ZUJKAS_clean_linker_0, # of connection points: 2
# Relax obj value: 0.077
# Max RMSD: 0.097
# Mean RMSD: 0.097
data_MOF--net-ukn--node1-CEKHIL_clean_sbu_0--edge1-ZUJKAS_clean_linker_0
_symmetry_space_group_name_H-M    P1
_symmetry_Int_Tables_number       1
_symmetry_cell_setting            triclinic
loop_
_symmetry_equiv_pos_as_xyz
'x, y, z'
_cell_length_a     136.47435
_cell_length_b     136.37001
_cell_length_c     34.338105
_cell_angle_alpha  90.000119
_cell_angle_beta   89.969005
_cell_angle_gamma 120.00995
loop_
_atom_site_label
_atom_site_type_symbol
_atom_site_fract_x
_atom_site_fract_y
_atom_site_fract_z
_atom_type_partial_charge
Co0 Co 0.08189 0.30123 0.0845 0.0
O1 O 0.06684 0.29893 0.07895 0.0
O2 O 0.07192 0.2865 0.06158 0.0
C3 C 0.08465 0.30824 0.1456 0.0
O4 O 0.09647 0.3004 0.08694 0.0
Co5 Co 0.10264 0.32528 0.09904 0.0
O6 O 0.11043 0.31671 0.11175 0.0
C7 C 0.09163 0.31913 0.0217 0.0
C8 C 0.06399 0.28913 0.06395 0.0
C9 C 0.10656 0.3065 0.10073 0.0
O10 O 0.08595 0.30859 0.03144 0.0
O11 O 0.09789 0.32702 0.04555 0.0
O12 O 0.07922 0.29733 0.14026 0.0
O13 O 0.08746 0.31427 0.11447 0.0
Co14 Co 0.71083 0.78447 0.08423 0.0
O15 O 0.71207 0.77112 0.07678 0.0
O16 O 0.72547 0.78854 0.06216 0.0
C17 C 0.70338 0.77992 0.14476 0.0
O18 O 0.71285 0.80038 0.08866 0.0
Co19 Co 0.68763 0.78315 0.09888 0.0
O20 O 0.69724 0.79904 0.11597 0.0
C21 C 0.69381 0.77941 0.01968 0.0
C22 C 0.72213 0.77778 0.06301 0.0
C23 C 0.70745 0.80488 0.10445 0.0
O24 O 0.70393 0.78231 0.0307 0.0
O25 O 0.68608 0.77861 0.04281 0.0
O26 O 0.71429 0.78472 0.13999 0.0
O27 O 0.69752 0.77746 0.11328 0.0
Co28 Co 0.2274 0.92874 0.08423 0.0
O29 O 0.24047 0.94359 0.07762 0.0
O30 O 0.22297 0.93914 0.06282 0.0
C31 C 0.2319 0.92563 0.14454 0.0
O32 O 0.21171 0.91449 0.08816 0.0
Co33 Co 0.22984 0.90737 0.09671 0.0
O34 O 0.21374 0.90026 0.11223 0.0
C35 C 0.23387 0.9181 0.019 0.0
C36 C 0.23365 0.94679 0.06402 0.0
C37 C 0.20757 0.90441 0.1023 0.0
O38 O 0.22988 0.92444 0.03031 0.0
O39 O 0.2353 0.91151 0.0419 0.0
O40 O 0.22689 0.93156 0.1403 0.0
O41 O 0.23468 0.92267 0.11275 0.0
Co42 Co 0.30291 0.07949 0.90581 0.0
O43 O 0.30058 0.06439 0.9098 0.0
O44 O 0.28809 0.0693 0.92799 0.0
C45 C 0.31009 0.08288 0.84482 0.0
O46 O 0.30231 0.09425 0.90474 0.0
Co47 Co 0.32741 0.09995 0.89372 0.0
O48 O 0.31935 0.10845 0.88571 0.0
C49 C 0.32055 0.08838 0.96973 0.0
C50 C 0.29075 0.0614 0.92478 0.0
C51 C 0.309 0.10466 0.89477 0.0
O52 O 0.31008 0.08304 0.95926 0.0
O53 O 0.32867 0.09456 0.94652 0.0
O54 O 0.29917 0.07732 0.84985 0.0
O55 O 0.31599 0.08522 0.87609 0.0
Co56 Co 0.93229 0.22628 0.90005 0.0
O57 O 0.94723 0.23907 0.90715 0.0
O58 O 0.94226 0.22143 0.92243 0.0
C59 C 0.92976 0.23102 0.83937 0.0
O60 O 0.91771 0.21087 0.89572 0.0
Co61 Co 0.91169 0.22992 0.88576 0.0
O62 O 0.90398 0.21367 0.87137 0.0
C63 C 0.92276 0.23449 0.96276 0.0
C64 C 0.95011 0.23205 0.92127 0.0
C65 C 0.90771 0.20714 0.88143 0.0
O66 O 0.92789 0.22906 0.95337 0.0
O67 O 0.91694 0.23667 0.93868 0.0
O68 O 0.93529 0.22562 0.84416 0.0
O69 O 0.92683 0.23395 0.87085 0.0
Co70 Co 0.78504 0.70835 0.90176 0.0
O71 O 0.77213 0.71051 0.90382 0.0
O72 O 0.78931 0.72301 0.92412 0.0
C73 C 0.78197 0.70131 0.84061 0.0
O74 O 0.80052 0.70934 0.90325 0.0
Co75 Co 0.78206 0.68426 0.89011 0.0
O76 O 0.79879 0.69259 0.88592 0.0
C77 C 0.7751 0.69033 0.96336 0.0
C78 C 0.77879 0.72029 0.91957 0.0
C79 C 0.80476 0.70301 0.89492 0.0
O80 O 0.78088 0.70094 0.95475 0.0
O81 O 0.77355 0.68244 0.9396 0.0
O82 O 0.78715 0.71223 0.84586 0.0
O83 O 0.77826 0.69531 0.87166 0.0
Co84 Co 0.93239 0.70853 0.8995 0.0
O85 O 0.94762 0.71139 0.90541 0.0
O86 O 0.94179 0.72315 0.9241 0.0
C87 C 0.93023 0.70213 0.83776 0.0
O88 O 0.91743 0.70863 0.89675 0.0
Co89 Co 0.91244 0.68418 0.88194 0.0
O90 O 0.90432 0.69239 0.86879 0.0
C91 C 0.92267 0.69006 0.96056 0.0
C92 C 0.95003 0.72097 0.92128 0.0
C93 C 0.9076 0.70237 0.88128 0.0
O94 O 0.92824 0.70067 0.95173 0.0
O95 O 0.91677 0.68227 0.93587 0.0
O96 O 0.93526 0.71299 0.84423 0.0
O97 O 0.9275 0.69585 0.86824 0.0
Co98 Co 0.30313 0.22583 0.903 0.0
O99 O 0.30055 0.2385 0.90345 0.0
O100 O 0.28856 0.22147 0.92648 0.0
C101 C 0.30972 0.22825 0.84137 0.0
O102 O 0.30264 0.21055 0.90569 0.0
Co103 Co 0.32757 0.22982 0.89142 0.0
O104 O 0.3196 0.21312 0.88715 0.0
C105 C 0.3213 0.23613 0.96528 0.0
C106 C 0.29095 0.23185 0.92028 0.0
C107 C 0.30929 0.20669 0.89693 0.0
O108 O 0.31076 0.2306 0.95565 0.0
O109 O 0.32929 0.23772 0.94201 0.0
O110 O 0.29886 0.22306 0.84756 0.0
O111 O 0.31594 0.23258 0.87167 0.0
Co112 Co 0.78513 0.08022 0.90197 0.0
O113 O 0.77216 0.06545 0.91023 0.0
O114 O 0.78977 0.07005 0.92423 0.0
C115 C 0.78011 0.08259 0.84158 0.0
O116 O 0.80072 0.09454 0.89637 0.0
Co117 Co 0.78225 0.10125 0.88695 0.0
O118 O 0.7983 0.10838 0.87073 0.0
C119 C 0.77846 0.09104 0.96556 0.0
C120 C 0.77908 0.06238 0.92386 0.0
C121 C 0.80465 0.10446 0.88111 0.0
O122 O 0.78287 0.08499 0.95534 0.0
O123 O 0.77667 0.09719 0.9417 0.0
O124 O 0.78535 0.0769 0.84619 0.0
O125 O 0.77754 0.08585 0.87312 0.0
Co126 Co 0.71051 0.93041 0.08696 0.0
O127 O 0.71286 0.94552 0.08255 0.0
O128 O 0.72517 0.94043 0.06364 0.0
C129 C 0.70373 0.92724 0.14844 0.0
O130 O 0.7112 0.91572 0.08823 0.0
Co131 Co 0.68626 0.90983 0.10084 0.0
O132 O 0.69461 0.90169 0.11115 0.0
C133 C 0.69238 0.92169 0.02537 0.0
C134 C 0.72259 0.94839 0.06696 0.0
C135 C 0.70486 0.9055 0.10074 0.0
O136 O 0.70298 0.9266 0.03411 0.0
O137 O 0.68447 0.9157 0.04954 0.0
O138 O 0.71461 0.93285 0.14261 0.0
O139 O 0.69761 0.92472 0.11761 0.0
Co140 Co 0.08114 0.78306 0.08639 0.0
O141 O 0.06595 0.77048 0.08152 0.0
O142 O 0.07132 0.78806 0.06399 0.0
C143 C 0.08399 0.77875 0.14726 0.0
O144 O 0.09586 0.79836 0.08841 0.0
Co145 Co 0.10172 0.77945 0.10024 0.0
O146 O 0.10973 0.79583 0.1129 0.0
C147 C 0.09025 0.77434 0.02365 0.0
C148 C 0.06324 0.77757 0.06687 0.0
C149 C 0.10594 0.80225 0.10208 0.0
O150 O 0.08491 0.77956 0.03312 0.0
O151 O 0.09642 0.77259 0.04751 0.0
O152 O 0.07871 0.7844 0.14231 0.0
O153 O 0.08662 0.77546 0.11593 0.0
Co154 Co 0.22824 0.30166 0.08314 0.0
O155 O 0.24094 0.29914 0.08097 0.0
O156 O 0.22371 0.28701 0.05991 0.0
C157 C 0.23142 0.3085 0.14455 0.0
O158 O 0.21289 0.30102 0.08244 0.0
Co159 Co 0.23173 0.32587 0.09589 0.0
O160 O 0.21527 0.31741 0.1067 0.0
C161 C 0.23767 0.31975 0.02066 0.0
C162 C 0.23414 0.28944 0.06498 0.0
C163 C 0.20892 0.30722 0.0955 0.0
O164 O 0.23246 0.30918 0.03024 0.0
O165 O 0.23913 0.32766 0.04414 0.0
O166 O 0.22611 0.29759 0.13891 0.0
O167 O 0.23525 0.31459 0.1137 0.0
Co168 Co 0.74851 0.63433 0.41713 0.0
O169 O 0.73354 0.63239 0.41435 0.0
O170 O 0.73799 0.61961 0.3954 0.0
C171 C 0.75249 0.64156 0.47802 0.0
O172 O 0.76291 0.63315 0.41669 0.0
Co173 Co 0.76963 0.65845 0.42775 0.0
O174 O 0.77793 0.65006 0.43223 0.0
C175 C 0.7573 0.65194 0.35317 0.0
C176 C 0.73029 0.62251 0.39927 0.0
C177 C 0.77354 0.63958 0.42413 0.0
O178 O 0.75191 0.64146 0.36358 0.0
O179 O 0.76379 0.65999 0.37614 0.0
O180 O 0.74658 0.63064 0.47311 0.0
O181 O 0.75484 0.6475 0.44676 0.0
Co182 Co 0.37662 0.11673 0.4207 0.0
O183 O 0.38011 0.10469 0.42062 0.0
O184 O 0.39137 0.12188 0.39724 0.0
C185 C 0.36992 0.1139 0.48225 0.0
O186 O 0.37607 0.13149 0.41771 0.0
Co187 Co 0.35168 0.11126 0.43254 0.0
O188 O 0.35889 0.12791 0.43787 0.0
C189 C 0.35851 0.10501 0.3597 0.0
C190 C 0.38956 0.11169 0.40371 0.0
C191 C 0.36905 0.1348 0.42754 0.0
O192 O 0.36904 0.11152 0.36821 0.0
O193 O 0.35045 0.10288 0.38341 0.0
O194 O 0.38079 0.11974 0.47628 0.0
O195 O 0.36387 0.10936 0.45179 0.0
Co196 Co 0.89372 0.26296 0.41708 0.0
O197 O 0.90707 0.27748 0.40852 0.0
O198 O 0.88964 0.27348 0.39449 0.0
C199 C 0.89858 0.26044 0.47759 0.0
O200 O 0.87783 0.24911 0.42284 0.0
Co201 Co 0.89524 0.2412 0.43308 0.0
O202 O 0.87923 0.23472 0.44888 0.0
C203 C 0.89936 0.25115 0.35388 0.0
C204 C 0.90041 0.28088 0.39481 0.0
C205 C 0.87336 0.23913 0.43808 0.0
O206 O 0.89567 0.25783 0.36387 0.0
O207 O 0.90064 0.2447 0.37799 0.0
O208 O 0.89374 0.26651 0.47276 0.0
O209 O 0.90084 0.25684 0.44619 0.0
Co210 Co 0.9704 0.4139 0.23775 0.0
O211 O 0.96899 0.39923 0.24484 0.0
O212 O 0.95565 0.40332 0.25935 0.0
C213 C 0.97796 0.41692 0.17742 0.0
O214 O 0.96861 0.42794 0.23318 0.0
Co215 Co 0.99397 0.43551 0.22436 0.0
O216 O 0.98464 0.4421 0.20746 0.0
C217 C 0.98761 0.42481 0.30226 0.0
C218 C 0.9589 0.39583 0.25827 0.0
C219 C 0.97433 0.43788 0.21775 0.0
O220 O 0.97724 0.41847 0.2915 0.0
O221 O 0.99552 0.43136 0.27893 0.0
O222 O 0.96704 0.41085 0.1818 0.0
O223 O 0.98372 0.4201 0.20912 0.0
Co224 Co 0.59787 0.55878 0.2381 0.0
O225 O 0.61253 0.57205 0.24516 0.0
O226 O 0.60844 0.55458 0.25926 0.0
C227 C 0.59467 0.56334 0.17808 0.0
O228 O 0.58388 0.54295 0.23362 0.0
Co229 Co 0.5762 0.56069 0.22606 0.0
O230 O 0.56935 0.54461 0.21056 0.0
C231 C 0.58718 0.56511 0.30326 0.0
C232 C 0.61591 0.56532 0.25847 0.0
C233 C 0.57375 0.53862 0.21985 0.0
O234 O 0.59338 0.56095 0.29209 0.0
O235 O 0.58064 0.56657 0.28028 0.0
O236 O 0.60082 0.55856 0.18201 0.0
O237 O 0.59156 0.56589 0.21 0.0
Co238 Co 0.4528 0.04301 0.23621 0.0
O239 O 0.43974 0.04486 0.24118 0.0
O240 O 0.45711 0.05765 0.25892 0.0
C241 C 0.44881 0.03581 0.17525 0.0
O242 O 0.46849 0.04447 0.2339 0.0
Co243 Co 0.45064 0.01939 0.22223 0.0
O244 O 0.46682 0.02858 0.20782 0.0
C245 C 0.44597 0.02543 0.30017 0.0
C246 C 0.4465 0.05477 0.25588 0.0
C247 C 0.47284 0.03879 0.2192 0.0
O248 O 0.44978 0.03579 0.28959 0.0
O249 O 0.44489 0.01764 0.27679 0.0
O250 O 0.45385 0.04673 0.1803 0.0
O251 O 0.44578 0.02986 0.20656 0.0
Co252 Co 0.59782 0.04204 0.23603 0.0
O253 O 0.61301 0.04452 0.23807 0.0
O254 O 0.60794 0.05665 0.25926 0.0
C255 C 0.594 0.03534 0.17447 0.0
O256 O 0.58312 0.04266 0.23744 0.0
Co257 Co 0.57724 0.0177 0.22377 0.0
O258 O 0.5685 0.02567 0.22023 0.0
C259 C 0.58983 0.02384 0.29756 0.0
C260 C 0.61592 0.05418 0.25437 0.0
C261 C 0.57256 0.03605 0.2294 0.0
O262 O 0.59459 0.03444 0.28879 0.0
O263 O 0.58369 0.01592 0.27367 0.0
O264 O 0.59968 0.04623 0.18041 0.0
O265 O 0.59185 0.02917 0.20506 0.0
Co266 Co 0.96914 0.55934 0.23389 0.0
O267 O 0.96774 0.57253 0.24294 0.0
O268 O 0.9544 0.55494 0.25572 0.0
C269 C 0.97679 0.56451 0.17381 0.0
O270 O 0.96731 0.54354 0.22752 0.0
Co271 Co 0.99255 0.56113 0.21909 0.0
O272 O 0.98312 0.54541 0.20011 0.0
C273 C 0.98586 0.56365 0.29895 0.0
C274 C 0.95765 0.56569 0.25609 0.0
C275 C 0.97288 0.53932 0.21104 0.0
O276 O 0.97584 0.56102 0.28756 0.0
O277 O 0.99371 0.56468 0.276 0.0
O278 O 0.96586 0.55957 0.17821 0.0
O279 O 0.98255 0.56675 0.20546 0.0
Co280 Co 0.45286 0.41338 0.23749 0.0
O281 O 0.43981 0.39845 0.24223 0.0
O282 O 0.45722 0.40301 0.2594 0.0
C283 C 0.44879 0.41675 0.17694 0.0
O284 O 0.46854 0.42764 0.23514 0.0
Co285 Co 0.45059 0.43483 0.22496 0.0
O286 O 0.46675 0.44191 0.21014 0.0
C287 C 0.44561 0.42355 0.30189 0.0
C288 C 0.4466 0.39528 0.25643 0.0
C289 C 0.47281 0.43769 0.2207 0.0
O290 O 0.44986 0.41739 0.29118 0.0
O291 O 0.44438 0.43022 0.27876 0.0
O292 O 0.45385 0.41087 0.18143 0.0
O293 O 0.44579 0.41957 0.20854 0.0
Co294 Co 0.37659 0.26335 0.4188 0.0
O295 O 0.38022 0.27892 0.41818 0.0
O296 O 0.39144 0.27281 0.39582 0.0
C297 C 0.36968 0.25976 0.48014 0.0
O298 O 0.37595 0.24801 0.41656 0.0
Co299 Co 0.35164 0.24391 0.43058 0.0
O300 O 0.35879 0.23444 0.43701 0.0
C301 C 0.35867 0.25666 0.35679 0.0
C302 C 0.38971 0.28125 0.40186 0.0
C303 C 0.36895 0.2377 0.42675 0.0
O304 O 0.36919 0.26092 0.36595 0.0
O305 O 0.35055 0.25068 0.38029 0.0
O306 O 0.38056 0.26458 0.47457 0.0
O307 O 0.36374 0.25815 0.44933 0.0
Co308 Co 0.74785 0.11799 0.4188 0.0
O309 O 0.73314 0.10473 0.4125 0.0
O310 O 0.7374 0.12207 0.39566 0.0
C311 C 0.75074 0.11388 0.47993 0.0
O312 O 0.76194 0.1338 0.42212 0.0
Co313 Co 0.76934 0.11597 0.4343 0.0
O314 O 0.77626 0.13222 0.44782 0.0
C315 C 0.75815 0.11023 0.35729 0.0
C316 C 0.72985 0.11137 0.39772 0.0
C317 C 0.77197 0.13818 0.43673 0.0
O318 O 0.75243 0.11512 0.36594 0.0
O319 O 0.76441 0.10883 0.38178 0.0
O320 O 0.74477 0.1188 0.47451 0.0
O321 O 0.75393 0.11105 0.44883 0.0
Co322 Co 0.89353 0.63393 0.4168 0.0
O323 O 0.90673 0.63236 0.41181 0.0
O324 O 0.88938 0.61916 0.39563 0.0
C325 C 0.89749 0.64152 0.47709 0.0
O326 O 0.87776 0.6323 0.41915 0.0
Co327 Co 0.89572 0.65768 0.42797 0.0
O328 O 0.87944 0.64862 0.44118 0.0
C329 C 0.90155 0.65133 0.35291 0.0
C330 C 0.90007 0.62231 0.39791 0.0
C331 C 0.87343 0.63821 0.43191 0.0
O332 O 0.89645 0.64081 0.36295 0.0
O333 O 0.90306 0.65931 0.37614 0.0
O334 O 0.89264 0.63058 0.47297 0.0
O335 O 0.90045 0.64726 0.44532 0.0
Co336 Co 0.41514 0.96771 0.75273 0.0
O337 O 0.39986 0.96483 0.74821 0.0
O338 O 0.40544 0.95279 0.73058 0.0
C339 C 0.41812 0.97494 0.81358 0.0
O340 O 0.43008 0.96753 0.75445 0.0
Co341 Co 0.43529 0.99229 0.76515 0.0
O342 O 0.44386 0.9844 0.77634 0.0
C343 C 0.42328 0.98543 0.68991 0.0
C344 C 0.39726 0.95506 0.73351 0.0
C345 C 0.44026 0.97412 0.76667 0.0
O346 O 0.41867 0.97489 0.6993 0.0
O347 O 0.42915 0.99353 0.7136 0.0
O348 O 0.41291 0.96401 0.80874 0.0
O349 O 0.42048 0.9808 0.78216 0.0
Co350 Co 0.04516 0.45013 0.75402 0.0
O351 O 0.0482 0.43782 0.75062 0.0
O352 O 0.0599 0.45529 0.73045 0.0
C353 C 0.03835 0.44629 0.81548 0.0
O354 O 0.04513 0.46517 0.75473 0.0
Co355 Co 0.02056 0.44546 0.76814 0.0
O356 O 0.02846 0.46193 0.77913 0.0
C357 C 0.02701 0.44011 0.69244 0.0
C358 C 0.05781 0.44493 0.73484 0.0
C359 C 0.03858 0.46868 0.76812 0.0
O360 O 0.03759 0.44599 0.70122 0.0
O361 O 0.01904 0.438 0.71659 0.0
O362 O 0.04924 0.45208 0.80979 0.0
O363 O 0.03232 0.44251 0.78457 0.0
Co364 Co 0.56169 0.59718 0.75475 0.0
O365 O 0.57411 0.61238 0.74853 0.0
O366 O 0.55657 0.60661 0.72968 0.0
C367 C 0.56589 0.59513 0.81671 0.0
O368 O 0.54658 0.58222 0.75761 0.0
Co369 Co 0.56609 0.57726 0.77309 0.0
O370 O 0.54962 0.56888 0.78406 0.0
C371 C 0.57106 0.58784 0.69507 0.0
C372 C 0.56701 0.61481 0.73227 0.0
C373 C 0.54296 0.57224 0.77198 0.0
O374 O 0.56548 0.59293 0.70282 0.0
O375 O 0.5731 0.5822 0.72036 0.0
O376 O 0.56007 0.60015 0.80997 0.0
O377 O 0.56941 0.59232 0.78638 0.0
Co378 Co 0.63524 0.74642 0.56739 0.0
O379 O 0.63371 0.73171 0.57507 0.0
O380 O 0.62042 0.73595 0.58856 0.0
C381 C 0.64299 0.7492 0.50738 0.0
O382 O 0.63349 0.76046 0.56231 0.0
Co383 Co 0.65867 0.76811 0.55366 0.0
O384 O 0.64935 0.77462 0.53581 0.0
C385 C 0.65196 0.75827 0.63283 0.0
C386 C 0.62359 0.7284 0.58798 0.0
C387 C 0.63909 0.77037 0.54664 0.0
O388 O 0.64189 0.75105 0.62131 0.0
O389 O 0.65983 0.76519 0.61008 0.0
O390 O 0.63205 0.74329 0.51148 0.0
O391 O 0.6487 0.75254 0.53919 0.0
Co392 Co 0.26626 0.89294 0.56869 0.0
O393 O 0.28175 0.90505 0.57043 0.0
O394 O 0.27579 0.88766 0.59176 0.0
C395 C 0.26278 0.89626 0.5072 0.0
O396 O 0.25106 0.87811 0.57033 0.0
Co397 Co 0.24663 0.89814 0.55642 0.0
O398 O 0.23713 0.88145 0.55233 0.0
C399 C 0.25924 0.90395 0.63031 0.0
C400 C 0.28416 0.89792 0.58666 0.0
C401 C 0.24062 0.87467 0.56186 0.0
O402 O 0.26347 0.89764 0.6215 0.0
O403 O 0.25342 0.9062 0.60647 0.0
O404 O 0.26778 0.89039 0.51299 0.0
O405 O 0.26098 0.9005 0.53793 0.0
Co406 Co 0.11943 0.37504 0.568 0.0
O407 O 0.10722 0.37829 0.56783 0.0
O408 O 0.12432 0.38973 0.59143 0.0
C409 C 0.11698 0.36844 0.50639 0.0
O410 O 0.13429 0.37478 0.57152 0.0
Co411 Co 0.11438 0.3502 0.55682 0.0
O412 O 0.13108 0.35747 0.55434 0.0
C413 C 0.10807 0.35691 0.62967 0.0
C414 C 0.11412 0.38779 0.58481 0.0
C415 C 0.13777 0.36775 0.56388 0.0
O416 O 0.11429 0.36744 0.62057 0.0
O417 O 0.10604 0.34882 0.60621 0.0
O418 O 0.12252 0.37931 0.51261 0.0
O419 O 0.11236 0.36226 0.53659 0.0
Co420 Co 0.26623 0.37594 0.56692 0.0
O421 O 0.28177 0.37946 0.56761 0.0
O422 O 0.27576 0.39083 0.58936 0.0
C423 C 0.2625 0.36884 0.50588 0.0
O424 O 0.25103 0.37554 0.56911 0.0
Co425 Co 0.2464 0.35115 0.55564 0.0
O426 O 0.23735 0.35866 0.54703 0.0
C427 C 0.25911 0.35813 0.62964 0.0
C428 C 0.28415 0.38903 0.58349 0.0
C429 C 0.24079 0.36882 0.55778 0.0
O430 O 0.26372 0.36866 0.62004 0.0
O431 O 0.25292 0.35001 0.60645 0.0
O432 O 0.26748 0.37976 0.51102 0.0
O433 O 0.26083 0.36296 0.53691 0.0
Co434 Co 0.63589 0.8925 0.57033 0.0
O435 O 0.63374 0.90532 0.57708 0.0
O436 O 0.62106 0.88769 0.59236 0.0
C437 C 0.64333 0.89733 0.50991 0.0
O438 O 0.63483 0.87699 0.56617 0.0
Co439 Co 0.6598 0.8954 0.55613 0.0
O440 O 0.65104 0.87924 0.54098 0.0
C441 C 0.65332 0.89945 0.63436 0.0
C442 C 0.62379 0.89829 0.59087 0.0
C443 C 0.64079 0.87295 0.55156 0.0
O444 O 0.6429 0.89516 0.62388 0.0
O445 O 0.66126 0.90103 0.61079 0.0
O446 O 0.63239 0.89192 0.5144 0.0
O447 O 0.64914 0.9001 0.5415 0.0
Co448 Co 0.11936 0.74724 0.56913 0.0
O449 O 0.10675 0.73199 0.57076 0.0
O450 O 0.12389 0.73717 0.59273 0.0
C451 C 0.1167 0.75107 0.50736 0.0
O452 O 0.13455 0.76214 0.57101 0.0
Co453 Co 0.11507 0.76748 0.55654 0.0
O454 O 0.13175 0.77633 0.55164 0.0
C455 C 0.10902 0.75516 0.63092 0.0
C456 C 0.11348 0.72912 0.58744 0.0
C457 C 0.13828 0.7726 0.56173 0.0
O458 O 0.11474 0.75032 0.62167 0.0
O459 O 0.1072 0.76132 0.60725 0.0
O460 O 0.12197 0.74549 0.51374 0.0
O461 O 0.11243 0.75307 0.53762 0.0
Co462 Co 0.04529 0.59686 0.75161 0.0
O463 O 0.04674 0.61145 0.74209 0.0
O464 O 0.06011 0.60721 0.72992 0.0
C465 C 0.03762 0.59456 0.81161 0.0
O466 O 0.04697 0.5828 0.75842 0.0
Co467 Co 0.02173 0.57541 0.76666 0.0
O468 O 0.031 0.56894 0.7855 0.0
C469 C 0.02851 0.58457 0.68671 0.0
C470 C 0.05684 0.61469 0.72917 0.0
C471 C 0.04124 0.57299 0.77473 0.0
O472 O 0.03861 0.59178 0.69795 0.0
O473 O 0.02059 0.57793 0.70985 0.0
O474 O 0.04855 0.60045 0.8073 0.0
O475 O 0.03189 0.59102 0.77992 0.0
Co476 Co 0.415 0.45017 0.75371 0.0
O477 O 0.39961 0.43797 0.75044 0.0
O478 O 0.40552 0.45544 0.72998 0.0
C479 C 0.41789 0.44639 0.81529 0.0
O480 O 0.43016 0.4651 0.75407 0.0
Co481 Co 0.43471 0.44519 0.76814 0.0
O482 O 0.4435 0.4617 0.77831 0.0
C483 C 0.4229 0.43983 0.69248 0.0
C484 C 0.39719 0.44512 0.73445 0.0
C485 C 0.44023 0.46852 0.76712 0.0
O486 O 0.41832 0.44584 0.70107 0.0
O487 O 0.42869 0.43766 0.71673 0.0
O488 O 0.41292 0.45229 0.80936 0.0
O489 O 0.42007 0.44247 0.78454 0.0
Co490 Co 0.56135 0.96766 0.75235 0.0
O491 O 0.5739 0.96504 0.7472 0.0
O492 O 0.55633 0.95281 0.7299 0.0
C493 C 0.56572 0.97483 0.81318 0.0
O494 O 0.5461 0.9672 0.75483 0.0
Co495 Co 0.56528 0.99201 0.76587 0.0
O496 O 0.54895 0.98376 0.77905 0.0
C497 C 0.56991 0.9854 0.689 0.0
C498 C 0.56682 0.95523 0.73258 0.0
C499 C 0.54238 0.97354 0.76858 0.0
O500 O 0.56475 0.97487 0.69902 0.0
O501 O 0.5718 0.99343 0.7126 0.0
O502 O 0.56007 0.9639 0.80823 0.0
O503 O 0.56904 0.98075 0.78184 0.0
H504 H 0.10612 0.28948 0.05622 0.0
H505 H 0.1206 0.28377 0.05382 0.0
H506 H 0.13917 0.30762 0.14509 0.0
H507 H 0.1249 0.31335 0.14759 0.0
H508 H 0.14389 0.29894 0.03688 0.0
H509 H 0.13906 0.27876 0.18052 0.0
H510 H 0.12799 0.28051 0.15861 0.0
H511 H 0.13945 0.29208 0.18426 0.0
C512 C 0.11318 0.29333 0.07628 0.0
C513 C 0.11437 0.3019 0.10203 0.0
C514 C 0.12145 0.29008 0.07479 0.0
C515 C 0.13089 0.29517 0.09961 0.0
C516 C 0.13186 0.30343 0.12616 0.0
H517 H 0.19762 0.31484 0.13987 0.0
H518 H 0.1776 0.30898 0.13808 0.0
C519 C 0.12372 0.30676 0.12734 0.0
C520 C 0.14036 0.29281 0.09586 0.0
H521 H 0.15766 0.28699 0.15096 0.0
C522 C 0.14676 0.29601 0.06137 0.0
C523 C 0.14406 0.28894 0.1278 0.0
C524 C 0.13721 0.28476 0.16475 0.0
C525 C 0.15724 0.29639 0.05919 0.0
C526 C 0.16133 0.29335 0.09222 0.0
C527 C 0.15454 0.28936 0.1257 0.0
C528 C 0.17326 0.29595 0.09472 0.0
C529 C 0.16425 0.30085 0.02265 0.0
C530 C 0.17746 0.29038 0.07149 0.0
C531 C 0.189 0.2937 0.07255 0.0
C532 C 0.19651 0.30272 0.09658 0.0
C533 C 0.19213 0.30797 0.12066 0.0
C534 C 0.18066 0.30459 0.11983 0.0
H535 H 0.16033 0.3039 0.00102 0.0
H536 H 0.17283 0.30792 0.02986 0.0
H537 H 0.16525 0.29402 0.00899 0.0
H538 H 0.17185 0.2836 0.05217 0.0
H539 H 0.1921 0.28948 0.05369 0.0
H540 H 0.72216 0.82052 0.05215 0.0
H541 H 0.72727 0.84053 0.04755 0.0
H542 H 0.70929 0.83728 0.15437 0.0
H543 H 0.70396 0.81732 0.15869 0.0
H544 H 0.70633 0.84496 0.05256 0.0
H545 H 0.74214 0.86935 0.15439 0.0
H546 H 0.74021 0.85692 0.12868 0.0
H547 H 0.73138 0.8554 0.16956 0.0
C548 C 0.71959 0.82417 0.07521 0.0
C549 C 0.71262 0.81736 0.1057 0.0
C550 C 0.72248 0.83558 0.07248 0.0
C551 C 0.7187 0.84036 0.10075 0.0
C552 C 0.71239 0.83376 0.1325 0.0
H553 H 0.69596 0.8855 0.13992 0.0
H554 H 0.70156 0.87115 0.13609 0.0
C555 C 0.70932 0.82236 0.13485 0.0
C556 C 0.71977 0.85161 0.09479 0.0
H557 H 0.73154 0.87809 0.13455 0.0
C558 C 0.71205 0.85231 0.06965 0.0
C559 C 0.72719 0.86113 0.11733 0.0
C560 C 0.73578 0.86077 0.14393 0.0
C561 C 0.71109 0.86208 0.06825 0.0
C562 C 0.71803 0.87137 0.09253 0.0
C563 C 0.72624 0.87094 0.11596 0.0
C564 C 0.71571 0.8808 0.09752 0.0
C565 C 0.70219 0.86219 0.04249 0.0
C566 C 0.72201 0.89112 0.07776 0.0
C567 C 0.71882 0.89944 0.07983 0.0
C568 C 0.70924 0.89748 0.10155 0.0
C569 C 0.70329 0.88728 0.12251 0.0
C570 C 0.7065 0.87905 0.12052 0.0
H571 H 0.69892 0.85528 0.02054 0.0
H572 H 0.69499 0.86107 0.06078 0.0
H573 H 0.70566 0.87044 0.02721 0.0
H574 H 0.72915 0.89259 0.0598 0.0
H575 H 0.72358 0.90719 0.06334 0.0
H576 H 0.1244 0.81352 0.14867 0.0
H577 H 0.13849 0.83361 0.14789 0.0
H578 H 0.11974 0.83932 0.05847 0.0
H579 H 0.10542 0.81905 0.05921 0.0
H580 H 0.14342 0.84786 0.042 0.0
H581 H 0.13737 0.86178 0.18682 0.0
H582 H 0.13783 0.84886 0.18884 0.0
H583 H 0.12651 0.84917 0.16308 0.0
C584 C 0.12316 0.81904 0.12914 0.0
C585 C 0.11379 0.81466 0.10391 0.0
C586 C 0.13119 0.83056 0.12895 0.0
C587 C 0.1301 0.838 0.10348 0.0
C588 C 0.12067 0.83374 0.07864 0.0
H589 H 0.1908 0.90534 0.06054 0.0
H590 H 0.17057 0.89094 0.05911 0.0
C591 C 0.1125 0.82217 0.07916 0.0
C592 C 0.13942 0.84994 0.10092 0.0
H593 H 0.15594 0.87284 0.15813 0.0
C594 C 0.14602 0.85349 0.06694 0.0
C595 C 0.14276 0.85725 0.13349 0.0
C596 C 0.13568 0.85413 0.17001 0.0
C597 C 0.15637 0.86375 0.06583 0.0
C598 C 0.16011 0.8707 0.09942 0.0
C599 C 0.1531 0.8675 0.13243 0.0
C600 C 0.17191 0.88026 0.10292 0.0
C601 C 0.16364 0.86666 0.02979 0.0
C602 C 0.17925 0.87926 0.12906 0.0
C603 C 0.19071 0.8874 0.12994 0.0
C604 C 0.19513 0.89682 0.10485 0.0
C605 C 0.18766 0.89818 0.0802 0.0
C606 C 0.17612 0.88993 0.07915 0.0
H607 H 0.16014 0.85967 0.00815 0.0
H608 H 0.16425 0.87428 0.01582 0.0
H609 H 0.17234 0.86864 0.03759 0.0
H610 H 0.17618 0.8719 0.14779 0.0
H611 H 0.19619 0.88615 0.1496 0.0
H612 H 0.28702 0.10074 0.90028 0.0
H613 H 0.28096 0.11502 0.89821 0.0
H614 H 0.31577 0.14148 0.88792 0.0
H615 H 0.32185 0.12757 0.88971 0.0
H616 H 0.28879 0.13579 0.94894 0.0
H617 H 0.29927 0.14599 0.79314 0.0
H618 H 0.29659 0.13273 0.81436 0.0
H619 H 0.31023 0.14527 0.8196 0.0
C620 C 0.29336 0.1096 0.8976 0.0
C621 C 0.30492 0.11295 0.89466 0.0
C622 C 0.28988 0.11774 0.89644 0.0
C623 C 0.29792 0.12929 0.89222 0.0
C624 C 0.30941 0.1326 0.89036 0.0
H625 H 0.32201 0.19646 0.89746 0.0
H626 H 0.31572 0.17638 0.89579 0.0
C627 C 0.31287 0.12458 0.89141 0.0
C628 C 0.2947 0.13818 0.88968 0.0
H629 H 0.30021 0.161 0.83345 0.0
C630 C 0.29089 0.14112 0.92332 0.0
C631 C 0.29737 0.14507 0.85613 0.0
C632 C 0.30099 0.14205 0.81862 0.0
C633 C 0.29079 0.1514 0.92537 0.0
C634 C 0.29459 0.15881 0.89303 0.0
C635 C 0.29736 0.15533 0.85833 0.0
C636 C 0.29787 0.17092 0.89661 0.0
C637 C 0.28755 0.15473 0.96298 0.0
C638 C 0.28989 0.17455 0.89815 0.0
C639 C 0.29349 0.18619 0.89917 0.0
C640 C 0.30511 0.19431 0.89837 0.0
C641 C 0.31299 0.19052 0.89766 0.0
C642 C 0.30942 0.17901 0.89678 0.0
H643 H 0.28465 0.14796 0.98536 0.0
H644 H 0.29491 0.16254 0.97462 0.0
H645 H 0.28066 0.15664 0.95751 0.0
H646 H 0.28092 0.16842 0.89777 0.0
H647 H 0.2872 0.18882 0.89964 0.0
H648 H 0.81562 0.12209 0.83108 0.0
H649 H 0.83537 0.13709 0.83339 0.0
H650 H 0.84162 0.11991 0.92713 0.0
H651 H 0.8217 0.10468 0.92488 0.0
H652 H 0.84367 0.1492 0.90914 0.0
H653 H 0.86997 0.13201 0.84879 0.0
H654 H 0.85539 0.12636 0.83419 0.0
H655 H 0.85859 0.12359 0.88213 0.0
C656 C 0.82122 0.12135 0.85173 0.0
C657 C 0.81705 0.11224 0.8781 0.0
C658 C 0.83252 0.12993 0.85291 0.0
C659 C 0.83995 0.12963 0.88042 0.0
C660 C 0.83604 0.12024 0.90539 0.0
H661 H 0.90706 0.18996 0.92575 0.0
H662 H 0.89156 0.17013 0.92818 0.0
C663 C 0.82466 0.11155 0.90408 0.0
C664 C 0.85121 0.13988 0.88574 0.0
H665 H 0.87933 0.15153 0.8641 0.0
C666 C 0.85149 0.14966 0.89984 0.0
C667 C 0.86139 0.14042 0.87391 0.0
C668 C 0.86144 0.13008 0.85878 0.0
C669 C 0.86158 0.16009 0.90088 0.0
C670 C 0.87167 0.16083 0.88685 0.0
C671 C 0.87156 0.15094 0.87462 0.0
C672 C 0.882 0.17203 0.8815 0.0
C673 C 0.86131 0.17036 0.91585 0.0
C674 C 0.88193 0.17949 0.85355 0.0
C675 C 0.89065 0.19073 0.8523 0.0
C676 C 0.8997 0.19478 0.87878 0.0
C677 C 0.9002 0.18709 0.90496 0.0
C678 C 0.89137 0.17578 0.9064 0.0
H679 H 0.85375 0.16796 0.93433 0.0
H680 H 0.86903 0.17591 0.93301 0.0
H681 H 0.86099 0.17533 0.89076 0.0
H682 H 0.87483 0.17672 0.83384 0.0
H683 H 0.89007 0.19639 0.83143 0.0
H684 H 0.816 0.70172 0.95745 0.0
H685 H 0.83563 0.70573 0.95946 0.0
H686 H 0.84042 0.71769 0.8408 0.0
H687 H 0.82079 0.71381 0.83913 0.0
H688 H 0.84255 0.69457 0.91255 0.0
H689 H 0.87042 0.7407 0.89062 0.0
H690 H 0.8558 0.73451 0.90542 0.0
H691 H 0.85932 0.73428 0.85508 0.0
C692 C 0.8214 0.70557 0.93234 0.0
C693 C 0.81703 0.70762 0.89833 0.0
C694 C 0.83258 0.70783 0.93342 0.0
C695 C 0.83956 0.71212 0.90043 0.0
C696 C 0.83531 0.71463 0.86691 0.0
H697 H 0.88987 0.69564 0.8316 0.0
H698 H 0.87427 0.6995 0.83631 0.0
C699 C 0.8241 0.71239 0.86588 0.0
C700 C 0.85058 0.71237 0.8993 0.0
H701 H 0.87883 0.72909 0.87988 0.0
C702 C 0.85049 0.70216 0.90585 0.0
C703 C 0.86098 0.72228 0.89079 0.0
C704 C 0.8617 0.73359 0.88544 0.0
C705 C 0.86038 0.7015 0.90305 0.0
C706 C 0.87068 0.71126 0.89263 0.0
C707 C 0.8709 0.72158 0.88736 0.0
C708 C 0.8811 0.71062 0.88608 0.0
C709 C 0.85971 0.69029 0.91115 0.0
C710 C 0.89044 0.7161 0.91117 0.0
C711 C 0.89948 0.71399 0.90831 0.0
C712 C 0.89925 0.70631 0.88044 0.0
C713 C 0.89022 0.70145 0.8538 0.0
C714 C 0.88129 0.70364 0.85644 0.0
H715 H 0.85209 0.68459 0.92862 0.0
H716 H 0.85917 0.686 0.88312 0.0
H717 H 0.86734 0.69151 0.92694 0.0
H718 H 0.89047 0.72156 0.93414 0.0
H719 H 0.90632 0.71787 0.92922 0.0
H720 H 0.86171 0.64573 0.47453 0.0
H721 H 0.84155 0.6391 0.4728 0.0
H722 H 0.83648 0.61257 0.39289 0.0
H723 H 0.85689 0.61928 0.39423 0.0
H724 H 0.82732 0.62531 0.36673 0.0
H725 H 0.81353 0.61231 0.51814 0.0
H726 H 0.8261 0.62595 0.51708 0.0
H727 H 0.82654 0.61376 0.49912 0.0
C728 C 0.85633 0.63837 0.45701 0.0
C729 C 0.86095 0.63308 0.43431 0.0
C730 C 0.84474 0.63449 0.45641 0.0
C731 C 0.83744 0.62521 0.43324 0.0
C732 C 0.84194 0.61967 0.41134 0.0
H733 H 0.76869 0.61745 0.43341 0.0
H734 H 0.78227 0.6105 0.43213 0.0
C735 C 0.8536 0.6235 0.41216 0.0
C736 C 0.82549 0.62241 0.42868 0.0
H737 H 0.80322 0.61988 0.48214 0.0
C738 C 0.82189 0.62376 0.39179 0.0
C739 C 0.81828 0.6202 0.46117 0.0
C740 C 0.82127 0.61785 0.50101 0.0
C741 C 0.81185 0.62413 0.3873 0.0
C742 C 0.80532 0.62322 0.42052 0.0
C743 C 0.8083 0.62071 0.45673 0.0
C744 C 0.79678 0.6269 0.41942 0.0
C745 C 0.80865 0.6262 0.34738 0.0
C746 C 0.80048 0.63837 0.41308 0.0
C747 C 0.79287 0.64235 0.41436 0.0
C748 C 0.78131 0.63494 0.42177 0.0
C749 C 0.77753 0.62336 0.42749 0.0
C750 C 0.78526 0.61938 0.4268 0.0
H751 H 0.81232 0.62334 0.32413 0.0
H752 H 0.79931 0.62176 0.34385 0.0
H753 H 0.81198 0.63541 0.34349 0.0
H754 H 0.80935 0.64433 0.40785 0.0
H755 H 0.79608 0.6513 0.40953 0.0
H756 H 0.38971 0.15309 0.40583 0.0
H757 H 0.39508 0.17324 0.40572 0.0
H758 H 0.3618 0.16426 0.44706 0.0
H759 H 0.3564 0.14441 0.44745 0.0
H760 H 0.38348 0.18393 0.36524 0.0
H761 H 0.3839 0.18854 0.52535 0.0
H762 H 0.38524 0.1774 0.50187 0.0
H763 H 0.37152 0.17605 0.5082 0.0
C764 C 0.38356 0.15542 0.41498 0.0
C765 C 0.37263 0.14707 0.42685 0.0
C766 C 0.38664 0.16693 0.41486 0.0
C767 C 0.37888 0.17024 0.42699 0.0
C768 C 0.36799 0.16192 0.4383 0.0
H769 H 0.35641 0.21545 0.44725 0.0
H770 H 0.36186 0.20103 0.44633 0.0
C771 C 0.36491 0.15052 0.43832 0.0
C772 C 0.38178 0.18229 0.42754 0.0
H773 H 0.38033 0.20141 0.48783 0.0
C774 C 0.38314 0.18795 0.39206 0.0
C775 C 0.38141 0.18753 0.46261 0.0
C776 C 0.38055 0.18212 0.50172 0.0
C777 C 0.38308 0.19825 0.39053 0.0
C778 C 0.38171 0.20297 0.42541 0.0
C779 C 0.3813 0.19775 0.46107 0.0
C780 C 0.37884 0.21214 0.42528 0.0
C781 C 0.38363 0.20357 0.35151 0.0
C782 C 0.38661 0.22328 0.41381 0.0
C783 C 0.3835 0.23168 0.41425 0.0
C784 C 0.37257 0.22905 0.42621 0.0
C785 C 0.3649 0.21786 0.4378 0.0
C786 C 0.368 0.20956 0.43737 0.0
H787 H 0.38375 0.19834 0.32692 0.0
H788 H 0.37626 0.20486 0.34793 0.0
H789 H 0.39141 0.21201 0.34996 0.0
H790 H 0.39508 0.22549 0.4048 0.0
H791 H 0.38964 0.24019 0.40525 0.0
H792 H 0.86136 0.22136 0.48687 0.0
H793 H 0.84121 0.20754 0.48457 0.0
H794 H 0.83675 0.22644 0.39242 0.0
H795 H 0.8571 0.2404 0.39443 0.0
H796 H 0.82104 0.20926 0.49115 0.0
H797 H 0.8262 0.19458 0.34493 0.0
H798 H 0.8382 0.20347 0.37532 0.0
H799 H 0.8307 0.20935 0.3509 0.0
C800 C 0.8561 0.22269 0.4664 0.0
C801 C 0.86087 0.23192 0.44051 0.0
C802 C 0.84455 0.21479 0.46523 0.0
C803 C 0.83751 0.21586 0.43797 0.0
C804 C 0.84208 0.22538 0.41339 0.0
H805 H 0.77167 0.15448 0.39028 0.0
H806 H 0.78571 0.17484 0.38937 0.0
C807 C 0.85368 0.23339 0.41476 0.0
C808 C 0.82564 0.20647 0.43394 0.0
H809 H 0.80916 0.18327 0.37776 0.0
C810 C 0.81833 0.2037 0.466 0.0
C811 C 0.82209 0.19924 0.40104 0.0
C812 C 0.82968 0.20171 0.36605 0.0
C813 C 0.80785 0.1936 0.4669 0.0
C814 C 0.80469 0.18597 0.43524 0.0
C815 C 0.81161 0.18912 0.40203 0.0
C816 C 0.79527 0.17408 0.43838 0.0
C817 C 0.80043 0.19097 0.50238 0.0
C818 C 0.79595 0.16694 0.46629 0.0
C819 C 0.78807 0.15537 0.46659 0.0
C820 C 0.77928 0.15066 0.43905 0.0
C821 C 0.7783 0.15788 0.41204 0.0
C822 C 0.78632 0.1695 0.41142 0.0
H823 H 0.80194 0.19885 0.51717 0.0
H824 H 0.79133 0.18586 0.49465 0.0
H825 H 0.80246 0.18605 0.52338 0.0
H826 H 0.80289 0.17022 0.48688 0.0
H827 H 0.78906 0.15006 0.48785 0.0
H828 H 0.95703 0.52284 0.2589 0.0
H829 H 0.9524 0.50294 0.26229 0.0
H830 H 0.97308 0.50797 0.16106 0.0
H831 H 0.97781 0.52774 0.15769 0.0
H832 H 0.94479 0.48323 0.1974 0.0
H833 H 0.98763 0.5012 0.26276 0.0
H834 H 0.97982 0.50868 0.26288 0.0
H835 H 0.98682 0.50813 0.21933 0.0
C836 C 0.9603 0.51959 0.23669 0.0
C837 C 0.9679 0.52688 0.20831 0.0
C838 C 0.95765 0.50824 0.2387 0.0
C839 C 0.96249 0.50405 0.21211 0.0
C840 C 0.9693 0.51107 0.18193 0.0
H841 H 0.97993 0.45474 0.16535 0.0
H842 H 0.9746 0.46933 0.16637 0.0
C843 C 0.97202 0.52237 0.18012 0.0
C844 C 0.96188 0.49301 0.21847 0.0
H845 H 0.97888 0.48214 0.2412 0.0
C846 C 0.95214 0.48291 0.20765 0.0
C847 C 0.97147 0.49265 0.23212 0.0
C848 C 0.98202 0.50322 0.24528 0.0
C849 C 0.95202 0.4725 0.20808 0.0
C850 C 0.96187 0.47231 0.21955 0.0
C851 C 0.97136 0.48233 0.23223 0.0
C852 C 0.96311 0.46217 0.21507 0.0
C853 C 0.94164 0.46189 0.19452 0.0
C854 C 0.95813 0.45308 0.24143 0.0
C855 C 0.96115 0.44463 0.24084 0.0
C856 C 0.9693 0.44528 0.21422 0.0
C857 C 0.97372 0.45405 0.1865 0.0
C858 C 0.97066 0.46238 0.18694 0.0
H859 H 0.9348 0.46352 0.18503 0.0
H860 H 0.94387 0.45807 0.16993 0.0
H861 H 0.93837 0.45559 0.21854 0.0
H862 H 0.95237 0.45284 0.26365 0.0
H863 H 0.95764 0.43801 0.26266 0.0
H864 H 0.55515 0.527 0.1743 0.0
H865 H 0.54148 0.50681 0.17544 0.0
H866 H 0.56188 0.50157 0.25948 0.0
H867 H 0.57571 0.52198 0.25877 0.0
H868 H 0.54327 0.48702 0.16178 0.0
H869 H 0.53086 0.48988 0.31437 0.0
H870 H 0.53924 0.50237 0.28528 0.0
H871 H 0.5455 0.49454 0.3045 0.0
C872 C 0.55683 0.52157 0.19281 0.0
C873 C 0.56646 0.52614 0.21685 0.0
C874 C 0.54901 0.51001 0.19327 0.0
C875 C 0.55057 0.50271 0.21793 0.0
C876 C 0.56045 0.50709 0.2406 0.0
H877 H 0.48937 0.43652 0.26282 0.0
H878 H 0.50978 0.4503 0.26248 0.0
C879 C 0.56837 0.51873 0.23996 0.0
C880 C 0.54133 0.49076 0.22127 0.0
H881 H 0.51891 0.47348 0.27933 0.0
C882 C 0.53809 0.48394 0.18778 0.0
C883 C 0.5346 0.4867 0.25529 0.0
C884 C 0.53763 0.49372 0.29197 0.0
C885 C 0.52793 0.47352 0.18663 0.0
C886 C 0.52074 0.46992 0.21958 0.0
C887 C 0.52442 0.47628 0.25406 0.0
C888 C 0.50875 0.46073 0.21702 0.0
C889 C 0.52475 0.46668 0.14957 0.0
C890 C 0.50143 0.46201 0.19157 0.0
C891 C 0.48985 0.45428 0.19197 0.0
C892 C 0.48527 0.44504 0.21784 0.0
C893 C 0.49265 0.44351 0.24242 0.0
C894 C 0.50429 0.45138 0.2423 0.0
H895 H 0.5324 0.46826 0.13299 0.0
H896 H 0.51953 0.45747 0.15567 0.0
H897 H 0.51977 0.46922 0.13083 0.0
H898 H 0.50462 0.46928 0.17238 0.0
H899 H 0.48442 0.45569 0.17253 0.0
H900 H 0.57714 0.05823 0.2289 0.0
H901 H 0.56331 0.06483 0.23125 0.0
H902 H 0.53612 0.03023 0.23807 0.0
H903 H 0.54965 0.02361 0.23545 0.0
H904 H 0.54368 0.05754 0.1762 0.0
H905 H 0.53079 0.04733 0.33051 0.0
H906 H 0.54424 0.04969 0.31232 0.0
H907 H 0.53162 0.03623 0.30527 0.0
C908 C 0.56822 0.05206 0.23114 0.0
C909 C 0.56452 0.04039 0.23189 0.0
C910 C 0.56035 0.05584 0.23244 0.0
C911 C 0.54872 0.04801 0.23531 0.0
C912 C 0.54506 0.03642 0.23638 0.0
H913 H 0.48487 0.03265 0.17203 0.0
H914 H 0.50491 0.0387 0.1758 0.0
C915 C 0.55284 0.03265 0.23461 0.0
C916 C 0.54011 0.05161 0.23545 0.0
H917 H 0.51703 0.04761 0.28711 0.0
C918 C 0.53801 0.05568 0.20077 0.0
C919 C 0.53283 0.04935 0.26767 0.0
C920 C 0.53503 0.04551 0.30621 0.0
C921 C 0.52824 0.05657 0.1964 0.0
C922 C 0.52034 0.05316 0.22735 0.0
C923 C 0.52301 0.05012 0.26319 0.0
C924 C 0.50863 0.051 0.22152 0.0
C925 C 0.52622 0.06067 0.15812 0.0
C926 C 0.504 0.05591 0.24595 0.0
C927 C 0.49244 0.05244 0.24385 0.0
C928 C 0.48531 0.04383 0.21783 0.0
C929 C 0.4901 0.03926 0.19252 0.0
C930 C 0.50161 0.0428 0.19436 0.0
H931 H 0.53435 0.06663 0.14368 0.0
H932 H 0.52151 0.05333 0.13839 0.0
H933 H 0.52117 0.06495 0.16207 0.0
H934 H 0.50924 0.06216 0.26742 0.0
H935 H 0.489 0.05608 0.26387 0.0
H936 H 0.46008 0.98337 0.80695 0.0
H937 H 0.47444 0.97775 0.80619 0.0
H938 H 0.45361 0.94984 0.73009 0.0
H939 H 0.43906 0.95546 0.73053 0.0
H940 H 0.47283 0.95627 0.82644 0.0
H941 H 0.48445 0.96866 0.67117 0.0
H942 H 0.4764 0.97347 0.69884 0.0
H943 H 0.46984 0.95903 0.68289 0.0
C944 C 0.45848 0.976 0.7901 0.0
C945 C 0.44844 0.96994 0.76846 0.0
C946 C 0.4667 0.97277 0.78987 0.0
C947 C 0.46516 0.96346 0.76778 0.0
C948 C 0.45502 0.95714 0.74701 0.0
H949 H 0.52514 0.95582 0.72825 0.0
H950 H 0.50498 0.95028 0.72809 0.0
C951 C 0.44669 0.96032 0.74746 0.0
C952 C 0.47451 0.96088 0.76583 0.0
H953 H 0.49651 0.96469 0.70791 0.0
C954 C 0.47788 0.95787 0.80031 0.0
C955 C 0.48105 0.9629 0.73166 0.0
C956 C 0.47785 0.96624 0.69395 0.0
C957 C 0.48794 0.95744 0.80207 0.0
C958 C 0.49494 0.96032 0.7687 0.0
C959 C 0.49117 0.96253 0.7335 0.0
C960 C 0.5068 0.96268 0.77112 0.0
C961 C 0.49118 0.95428 0.84005 0.0
C962 C 0.51449 0.97145 0.79531 0.0
C963 C 0.52593 0.97466 0.79526 0.0
C964 C 0.53001 0.96919 0.77095 0.0
C965 C 0.52226 0.96016 0.74748 0.0
C966 C 0.51076 0.95701 0.74728 0.0
H967 H 0.48357 0.94866 0.85766 0.0
H968 H 0.49614 0.94995 0.83512 0.0
H969 H 0.49644 0.96207 0.85726 0.0
H970 H 0.5117 0.97611 0.81336 0.0
H971 H 0.53163 0.98162 0.81381 0.0
H972 H 0.05681 0.57195 0.7265 0.0
H973 H 0.06084 0.55629 0.72247 0.0
H974 H 0.04012 0.54089 0.8238 0.0
H975 H 0.03599 0.55634 0.82788 0.0
H976 H 0.06753 0.54326 0.7907 0.0
H977 H 0.02557 0.52033 0.71772 0.0
H978 H 0.03411 0.5356 0.71757 0.0
H979 H 0.02645 0.52832 0.76059 0.0
C980 C 0.05342 0.56542 0.74864 0.0
C981 C 0.04598 0.56531 0.77727 0.0
C982 C 0.05572 0.55648 0.74625 0.0
C983 C 0.05071 0.54742 0.77271 0.0
C984 C 0.04405 0.5478 0.8031 0.0
H985 H 0.02972 0.47912 0.81114 0.0
H986 H 0.03463 0.49889 0.80934 0.0
C987 C 0.04168 0.55662 0.80531 0.0
C988 C 0.05094 0.53681 0.76599 0.0
H989 H 0.03353 0.50934 0.73898 0.0
C990 C 0.06021 0.53587 0.77875 0.0
C991 C 0.04139 0.52722 0.75027 0.0
C992 C 0.03131 0.52786 0.73545 0.0
C993 C 0.05988 0.52536 0.77808 0.0
C994 C 0.05004 0.51565 0.7642 0.0
C995 C 0.04104 0.51678 0.74973 0.0
C996 C 0.04828 0.50401 0.76793 0.0
C997 C 0.06974 0.52456 0.79398 0.0
C998 C 0.05448 0.50033 0.74574 0.0
C999 C 0.0517 0.48891 0.74677 0.0
C1000 C 0.04258 0.48102 0.76966 0.0
C1001 C 0.03669 0.4849 0.79279 0.0
C1002 C 0.03951 0.49623 0.79191 0.0
H1003 H 0.07615 0.53258 0.80792 0.0
H1004 H 0.06676 0.51759 0.81564 0.0
H1005 H 0.07389 0.52256 0.76988 0.0
H1006 H 0.06119 0.50616 0.72664 0.0
H1007 H 0.05638 0.4862 0.72853 0.0
H1008 H 0.43986 0.48605 0.72795 0.0
H1009 H 0.45527 0.50589 0.72401 0.0
H1010 H 0.47511 0.49851 0.80371 0.0
H1011 H 0.45997 0.47888 0.80781 0.0
H1012 H 0.46905 0.52333 0.79044 0.0
H1013 H 0.49325 0.50984 0.69625 0.0
H1014 H 0.47806 0.50153 0.70179 0.0
H1015 H 0.48719 0.5013 0.73901 0.0
C1016 C 0.44744 0.48871 0.74506 0.0
C1017 C 0.44873 0.48081 0.76773 0.0
C1018 C 0.45622 0.50004 0.74278 0.0
C1019 C 0.46637 0.5036 0.76323 0.0
C1020 C 0.4674 0.49589 0.78739 0.0
H1021 H 0.5322 0.55285 0.81458 0.0
H1022 H 0.51262 0.53766 0.8092 0.0
C1023 C 0.45872 0.48465 0.78957 0.0
C1024 C 0.47632 0.51506 0.75776 0.0
H1025 H 0.50377 0.52788 0.72706 0.0
C1026 C 0.47658 0.52444 0.77579 0.0
C1027 C 0.4861 0.51647 0.73849 0.0
C1028 C 0.48616 0.50678 0.71745 0.0
C1029 C 0.48665 0.53501 0.77719 0.0
C1030 C 0.4966 0.53615 0.76017 0.0
C1031 C 0.49613 0.52696 0.7402 0.0
C1032 C 0.5079 0.54624 0.7667 0.0
C1033 C 0.48682 0.54473 0.79868 0.0
C1034 C 0.51168 0.55624 0.74512 0.0
C1035 C 0.52297 0.56504 0.74811 0.0
C1036 C 0.53064 0.56387 0.77244 0.0
C1037 C 0.5266 0.55402 0.79522 0.0
C1038 C 0.51538 0.54531 0.79231 0.0
H1039 H 0.47836 0.54251 0.81026 0.0
H1040 H 0.49291 0.54735 0.82326 0.0
H1041 H 0.48978 0.55211 0.77885 0.0
H1042 H 0.50603 0.55707 0.72495 0.0
H1043 H 0.52581 0.5725 0.73011 0.0
H1044 H 0.62331 0.85619 0.594 0.0
H1045 H 0.61732 0.83591 0.59485 0.0
H1046 H 0.64156 0.84144 0.50476 0.0
H1047 H 0.6476 0.86157 0.5038 0.0
H1048 H 0.61848 0.8209 0.49687 0.0
H1049 H 0.63966 0.82548 0.64003 0.0
H1050 H 0.63 0.83077 0.63502 0.0
H1051 H 0.64321 0.83756 0.60937 0.0
C1052 C 0.62722 0.85304 0.57395 0.0
C1053 C 0.63601 0.86051 0.54909 0.0
C1054 C 0.62383 0.84148 0.57461 0.0
C1055 C 0.62908 0.83722 0.5501 0.0
C1056 C 0.63742 0.84456 0.52396 0.0
H1057 H 0.6439 0.78699 0.49374 0.0
H1058 H 0.63821 0.80131 0.49556 0.0
C1059 C 0.64089 0.85608 0.52357 0.0
C1060 C 0.62658 0.82533 0.55298 0.0
H1061 H 0.63342 0.80846 0.60623 0.0
C1062 C 0.62153 0.81807 0.52113 0.0
C1063 C 0.63053 0.82166 0.58471 0.0
C1064 C 0.6362 0.82923 0.61929 0.0
C1065 C 0.6208 0.80743 0.5194 0.0
C1066 C 0.62545 0.80408 0.54992 0.0
C1067 C 0.62985 0.81103 0.58287 0.0
C1068 C 0.62733 0.79429 0.54589 0.0
C1069 C 0.61536 0.8 0.48436 0.0
C1070 C 0.62304 0.78548 0.57342 0.0
C1071 C 0.62624 0.77717 0.57226 0.0
C1072 C 0.63399 0.77773 0.5441 0.0
C1073 C 0.63793 0.78633 0.51582 0.0
C1074 C 0.63462 0.79449 0.51666 0.0
H1075 H 0.60904 0.80181 0.47078 0.0
H1076 H 0.62197 0.80171 0.4623 0.0
H1077 H 0.61113 0.79089 0.49228 0.0
H1078 H 0.61749 0.78523 0.59646 0.0
H1079 H 0.62315 0.77072 0.59466 0.0
H1080 H 0.14843 0.79546 0.55254 0.0
H1081 H 0.16837 0.80951 0.55723 0.0
H1082 H 0.1764 0.78329 0.58071 0.0
H1083 H 0.15616 0.76889 0.57621 0.0
H1084 H 0.18374 0.81023 0.63163 0.0
H1085 H 0.19656 0.80647 0.48075 0.0
H1086 H 0.18225 0.80336 0.48968 0.0
H1087 H 0.1869 0.79416 0.50883 0.0
C1088 C 0.15435 0.79256 0.55856 0.0
C1089 C 0.15061 0.78097 0.56396 0.0
C1090 C 0.16578 0.80065 0.56128 0.0
C1091 C 0.17383 0.79743 0.56926 0.0
C1092 C 0.17027 0.78592 0.57449 0.0
H1093 H 0.24404 0.85645 0.57121 0.0
H1094 H 0.22947 0.83629 0.57622 0.0
C1095 C 0.15873 0.77772 0.57193 0.0
C1096 C 0.18584 0.80642 0.57245 0.0
H1097 H 0.20851 0.82343 0.51496 0.0
C1098 C 0.18935 0.81293 0.6066 0.0
C1099 C 0.19308 0.80993 0.53969 0.0
C1100 C 0.1896 0.80314 0.50253 0.0
C1101 C 0.19957 0.82328 0.60787 0.0
C1102 C 0.20636 0.82725 0.57406 0.0
C1103 C 0.20329 0.82034 0.54087 0.0
C1104 C 0.21539 0.83926 0.57065 0.0
C1105 C 0.2027 0.83031 0.64449 0.0
C1106 C 0.21226 0.84751 0.56547 0.0
C1107 C 0.22047 0.85892 0.56231 0.0
C1108 C 0.23206 0.8624 0.56447 0.0
C1109 C 0.2352 0.85408 0.56953 0.0
C1110 C 0.22691 0.84257 0.57235 0.0
H1111 H 0.19809 0.82512 0.67028 0.0
H1112 H 0.21194 0.83443 0.64995 0.0
H1113 H 0.20051 0.83708 0.64096 0.0
H1114 H 0.2034 0.84511 0.56391 0.0
H1115 H 0.21767 0.86502 0.55856 0.0
H1116 H 0.2423 0.38756 0.59436 0.0
H1117 H 0.22755 0.39285 0.59855 0.0
H1118 H 0.20563 0.36423 0.52681 0.0
H1119 H 0.22016 0.35891 0.52237 0.0
H1120 H 0.20659 0.38574 0.50753 0.0
H1121 H 0.19778 0.37334 0.66397 0.0
H1122 H 0.21212 0.38299 0.64913 0.0
H1123 H 0.20531 0.36851 0.63349 0.0
C1124 C 0.23438 0.38246 0.57918 0.0
C1125 C 0.23239 0.37273 0.55835 0.0
C1126 C 0.22595 0.38548 0.58171 0.0
C1127 C 0.21547 0.37888 0.56321 0.0
C1128 C 0.21365 0.36944 0.54131 0.0
H1129 H 0.14728 0.35435 0.56621 0.0
H1130 H 0.16723 0.36003 0.56901 0.0
C1131 C 0.22198 0.36638 0.539 0.0
C1132 C 0.20602 0.38121 0.56786 0.0
H1133 H 0.18462 0.37645 0.63047 0.0
C1134 C 0.20194 0.38404 0.53467 0.0
C1135 C 0.19996 0.37892 0.60328 0.0
C1136 C 0.20393 0.37572 0.63962 0.0
C1137 C 0.19162 0.38399 0.53544 0.0
C1138 C 0.18522 0.38098 0.57019 0.0
C1139 C 0.18962 0.37883 0.60397 0.0
C1140 C 0.17318 0.37799 0.57009 0.0
C1141 C 0.18717 0.38632 0.49848 0.0
C1142 C 0.16991 0.38625 0.57004 0.0
C1143 C 0.15839 0.38302 0.56859 0.0
C1144 C 0.15002 0.37148 0.5668 0.0
C1145 C 0.15344 0.36331 0.56726 0.0
C1146 C 0.16486 0.36652 0.56903 0.0
H1147 H 0.19327 0.38873 0.47397 0.0
H1148 H 0.17913 0.37866 0.49 0.0
H1149 H 0.1853 0.39326 0.50349 0.0
H1150 H 0.17624 0.39516 0.57088 0.0
H1151 H 0.15605 0.38953 0.56827 0.0
H1152 H 0.05481 0.26754 0.03431 0.0
H1153 H 0.0356 0.25561 0.00824 0.0
H1154 H 0.02779 0.28188 0.03399 0.0
H1155 H 0.04679 0.29376 0.06017 0.0
H1156 H 0.01274 0.24961 0.05069 0.0
H1157 H 0.02172 0.27362 0.91195 0.0
H1158 H 0.03269 0.2734 0.94074 0.0
H1159 H 0.02674 0.28193 0.95574 0.0
C1160 C 0.04898 0.27074 0.03455 0.0
C1161 C 0.05235 0.28161 0.04923 0.0
C1162 C 0.03801 0.26391 0.01973 0.0
C1163 C 0.03032 0.26791 0.01901 0.0
C1164 C 0.03363 0.27868 0.03409 0.0
H1165 H 0.96592 0.25378 0.93774 0.0
H1166 H 0.98517 0.26104 0.9611 0.0
C1167 C 0.0445 0.28544 0.04909 0.0
C1168 C 0.01886 0.26105 0.00201 0.0
H1169 H 1.00247 0.2609 0.92677 0.0
C1170 C 0.01047 0.25193 0.02333 0.0
C1171 C 0.01598 0.26415 0.9664 0.0
C1172 C 0.02475 0.27376 0.94209 0.0
C1173 C 0.99911 0.24619 0.01094 0.0
C1174 C 0.99614 0.24952 0.97579 0.0
C1175 C 1.00469 0.25835 0.95374 0.0
C1176 C 0.98419 0.2447 0.96272 0.0
C1177 C 0.99033 0.23703 0.03664 0.0
C1178 C 0.97711 0.23304 0.95583 0.0
C1179 C 0.96594 0.22881 0.94291 0.0
C1180 C 0.96175 0.23621 0.93592 0.0
C1181 C 0.96889 0.24785 0.94263 0.0
C1182 C 0.97993 0.25202 0.95598 0.0
H1183 H 0.99354 0.23739 0.06663 0.0
H1184 H 0.98257 0.23771 0.03838 0.0
H1185 H 0.98799 0.22863 0.02418 0.0
H1186 H 0.98025 0.22723 0.95989 0.0
H1187 H 0.96067 0.21981 0.93771 0.0
H1188 H 0.79064 0.74172 0.95061 0.0
H1189 H 0.78289 0.75334 0.97576 0.0
H1190 H 0.74926 0.72708 0.9451 0.0
H1191 H 0.75686 0.71549 0.91972 0.0
H1192 H 0.76476 0.7583 0.92846 0.0
H1193 H 0.75203 0.73576 0.07077 0.0
H1194 H 0.7638 0.73695 0.04278 0.0
H1195 H 0.74958 0.72742 0.02735 0.0
C1196 C 0.7816 0.73846 0.949 0.0
C1197 C 0.77436 0.72767 0.93321 0.0
C1198 C 0.77721 0.74511 0.96333 0.0
C1199 C 0.76551 0.74102 0.96235 0.0
C1200 C 0.7583 0.73035 0.94614 0.0
H1201 H 0.71575 0.75566 0.05057 0.0
H1202 H 0.72724 0.74788 0.02622 0.0
C1203 C 0.76268 0.72375 0.93163 0.0
C1204 C 0.76065 0.74768 0.97907 0.0
H1205 H 0.7455 0.74847 0.05688 0.0
C1206 C 0.76066 0.75629 0.95672 0.0
C1207 C 0.75528 0.74495 0.01579 0.0
C1208 C 0.75516 0.73581 0.04087 0.0
C1209 C 0.75501 0.76196 0.96956 0.0
C1210 C 0.74943 0.75909 0.00614 0.0
C1211 C 0.74975 0.75068 0.02888 0.0
C1212 C 0.74258 0.7641 0.02042 0.0
C1213 C 0.75463 0.77058 0.94302 0.0
C1214 C 0.74736 0.77585 0.02555 0.0
C1215 C 0.74074 0.78036 0.03914 0.0
C1216 C 0.72926 0.77318 0.04845 0.0
C1217 C 0.72456 0.76143 0.04376 0.0
C1218 C 0.73114 0.75696 0.02984 0.0
H1219 H 0.75681 0.76972 0.9125 0.0
H1220 H 0.74612 0.76977 0.9433 0.0
H1221 H 0.76086 0.77922 0.95322 0.0
H1222 H 0.75624 0.78153 0.01943 0.0
H1223 H 0.74463 0.78944 0.04273 0.0
H1224 H 0.22152 0.95686 0.04005 0.0
H1225 H 0.22907 0.97627 0.01531 0.0
H1226 H 0.26306 0.98252 0.03048 0.0
H1227 H 0.25567 0.96331 0.05545 0.0
H1228 H 0.24877 0.99895 0.05872 0.0
H1229 H 0.25723 0.98915 0.90932 0.0
H1230 H 0.24621 0.97861 0.93994 0.0
H1231 H 0.26074 0.98306 0.94975 0.0
C1232 C 0.2306 0.96239 0.03823 0.0
C1233 C 0.238 0.95853 0.04971 0.0
C1234 C 0.23489 0.97346 0.02416 0.0
C1235 C 0.24661 0.98079 0.02101 0.0
C1236 C 0.25398 0.97698 0.03265 0.0
H1237 H 0.29599 0.04467 0.9303 0.0
H1238 H 0.28417 0.02535 0.95356 0.0
C1239 C 0.24973 0.96599 0.04694 0.0
C1240 C 0.25131 0.9924 0.00507 0.0
H1241 H 0.26486 0.00845 0.92537 0.0
C1242 C 0.25216 1.00106 0.0294 0.0
C1243 C 0.25576 0.99507 0.96694 0.0
C1244 C 0.25493 0.98601 0.93969 0.0
C1245 C 0.25782 0.01244 0.01712 0.0
C1246 C 0.26251 0.01518 0.97913 0.0
C1247 C 0.26127 0.0064 0.95444 0.0
C1248 C 0.26953 0.02709 0.96532 0.0
C1249 C 0.25921 0.02147 0.04563 0.0
C1250 C 0.26527 0.03459 0.96389 0.0
C1251 C 0.27211 0.04578 0.95085 0.0
C1252 C 0.28328 0.04961 0.93848 0.0
C1253 C 0.28743 0.04202 0.93949 0.0
C1254 C 0.28066 0.03094 0.95279 0.0
H1255 H 0.25752 0.01827 0.07606 0.0
H1256 H 0.26789 0.02891 0.04413 0.0
H1257 H 0.25312 0.02434 0.0383 0.0
H1258 H 0.25663 0.03178 0.97253 0.0
H1259 H 0.26864 0.05139 0.95019 0.0
H1260 H 0.96867 0.71881 0.91297 0.0
H1261 H 0.98765 0.73109 0.93845 0.0
H1262 H 0.97683 0.75319 0.98786 0.0
H1263 H 0.95764 0.74082 0.96245 0.0
H1264 H 1.00276 0.7545 0.92468 0.0
H1265 H 0.99084 0.74501 0.08096 0.0
H1266 H 0.98166 0.73638 0.04213 0.0
H1267 H 0.9831 0.74994 0.05248 0.0
C1268 C 0.97029 0.72628 0.92919 0.0
C1269 C 0.96161 0.7288 0.93584 0.0
C1270 C 0.98117 0.73332 0.94366 0.0
C1271 C 0.98364 0.743 0.96534 0.0
C1272 C 0.97507 0.74568 0.97159 0.0
H1273 H 0.05501 0.78993 0.0304 0.0
H1274 H 0.03567 0.78303 0.00655 0.0
C1275 C 0.96413 0.73863 0.95693 0.0
C1276 C 0.9952 0.75006 0.98162 0.0
H1277 H 0.01014 0.7568 0.06674 0.0
C1278 C 1.00439 0.75516 0.95576 0.0
C1279 C 0.99728 0.75079 0.02217 0.0
C1280 C 0.98774 0.7452 0.05122 0.0
C1281 C 0.01562 0.76069 0.96927 0.0
C1282 C 0.01771 0.76124 0.00979 0.0
C1283 C 0.00851 0.75643 0.03571 0.0
C1284 C 0.02931 0.76576 0.02562 0.0
C1285 C 0.02515 0.76541 0.94002 0.0
C1286 C 0.03209 0.75842 0.04502 0.0
C1287 C 0.04307 0.76233 0.05867 0.0
C1288 C 0.05153 0.77369 0.05344 0.0
C1289 C 0.04869 0.78112 0.03474 0.0
C1290 C 0.03767 0.77718 0.02096 0.0
H1291 H 0.02209 0.76254 0.9099 0.0
H1292 H 0.02949 0.7748 0.94054 0.0
H1293 H 0.03148 0.76286 0.94751 0.0
H1294 H 0.02578 0.74958 0.04897 0.0
H1295 H 0.04493 0.75638 0.07305 0.0
H1296 H 0.29018 0.25006 0.89176 0.0
H1297 H 0.27904 0.25829 0.91587 0.0
H1298 H 0.26408 0.23214 0.00333 0.0
H1299 H 0.27484 0.22351 0.97783 0.0
H1300 H 0.24871 0.23675 0.97691 0.0
H1301 H 0.28716 0.27741 0.01071 0.0
H1302 H 0.28655 0.27406 0.96001 0.0
H1303 H 0.28779 0.26507 -0.0042 0.0
C1304 C 0.28445 0.24601 0.91596 0.0
C1305 C 0.28346 0.2362 0.93316 0.0
C1306 C 0.27815 0.25078 0.92996 0.0
C1307 C 0.27097 0.24608 0.96231 0.0
C1308 C 0.26963 0.23601 0.97859 0.0
H1309 H 0.25136 0.28758 0.09659 0.0
H1310 H 0.25923 0.27597 0.074 0.0
C1311 C 0.27578 0.23108 0.96401 0.0
C1312 C 0.2651 0.25182 0.97949 0.0
H1313 H 0.26974 0.27744 0.01227 0.0
C1314 C 0.25332 0.24563 0.98495 0.0
C1315 C 0.2711 0.26335 0.99085 0.0
C1316 C 0.28385 0.27031 0.98946 0.0
C1317 C 0.24736 0.25068 0.00067 0.0
C1318 C 0.2533 0.26239 0.00993 0.0
C1319 C 0.2651 0.26851 0.00492 0.0
C1320 C 0.24762 0.26853 0.0256 0.0
C1321 C 0.23484 0.24331 0.00807 0.0
C1322 C 0.23832 0.26817 0.00649 0.0
C1323 C 0.23359 0.27459 0.02018 0.0
C1324 C 0.23831 0.28179 0.05244 0.0
C1325 C 0.24757 0.28213 0.07157 0.0
C1326 C 0.25209 0.2755 0.05857 0.0
H1327 H 0.23247 0.2343 0.01206 0.0
H1328 H 0.23215 0.24612 0.03428 0.0
H1329 H 0.2301 0.24375 0.98253 0.0
H1330 H 0.2349 0.26319 0.98031 0.0
H1331 H 0.22654 0.27428 0.00458 0.0
H1332 H 0.79113 0.0517 0.94158 0.0
H1333 H 0.7835 0.03201 0.96336 0.0
H1334 H 0.7498 0.02727 0.96239 0.0
H1335 H 0.75726 0.04664 0.93968 0.0
H1336 H 0.77159 0.02063 0.02767 0.0
H1337 H 0.7452 1.00085 0.8975 0.0
H1338 H 0.75586 0.01565 0.89894 0.0
H1339 H 0.74201 0.01088 0.91916 0.0
C1340 C 0.78209 0.04642 0.9459 0.0
C1341 C 0.77478 0.05068 0.93841 0.0
C1342 C 0.77774 0.03518 0.95834 0.0
C1343 C 0.76603 0.02804 0.96355 0.0
C1344 C 0.75881 0.03246 0.95733 0.0
H1345 H 0.718 0.96564 0.06466 0.0
H1346 H 0.72983 0.98474 0.03903 0.0
C1347 C 0.76311 0.04359 0.94456 0.0
C1348 C 0.76122 0.01605 0.97613 0.0
H1349 H 0.74028 0.98912 0.95483 0.0
C1350 C 0.76489 0.01371 0.01139 0.0
C1351 C 0.75254 0.00697 0.95474 0.0
C1352 C 0.74877 0.00869 0.91528 0.0
C1353 C 0.75965 1.00266 0.02679 0.0
C1354 C 0.75055 0.99377 0.00646 0.0
C1355 C 0.74721 0.996 0.9705 0.0
C1356 C 0.74378 0.98227 0.02335 0.0
C1357 C 0.76352 1.00059 0.06547 0.0
C1358 C 0.74772 0.97453 0.023 0.0
C1359 C 0.74092 0.96351 0.03747 0.0
C1360 C 0.73009 0.9601 0.05264 0.0
C1361 C 0.72628 0.96796 0.05329 0.0
C1362 C 0.73303 0.9789 0.03864 0.0
H1363 H 0.77042 0.00849 0.0785 0.0
H1364 H 0.75628 0.99672 0.08611 0.0
H1365 H 0.76659 0.99449 0.06158 0.0
H1366 H 0.75598 0.97696 0.01106 0.0
H1367 H 0.74409 0.95765 0.03654 0.0
H1368 H 0.6263 0.55347 0.28184 0.0
H1369 H 0.64567 0.56127 0.307 0.0
H1370 H 0.65124 0.5951 0.29342 0.0
H1371 H 0.63206 0.58746 0.26803 0.0
H1372 H 0.66807 0.58102 0.2649 0.0
H1373 H 0.65796 0.58948 0.4138 0.0
H1374 H 0.6475 0.57848 0.38298 0.0
H1375 H 0.65196 0.59304 0.37322 0.0
C1376 C 0.63167 0.56257 0.28411 0.0
C1377 C 0.62763 0.56984 0.27296 0.0
C1378 C 0.64272 0.567 0.29842 0.0
C1379 C 0.64983 0.57875 0.30218 0.0
C1380 C 0.64585 0.58601 0.29084 0.0
H1381 H 0.71378 0.6281 0.39424 0.0
H1382 H 0.69445 0.61649 0.37072 0.0
C1383 C 0.63489 0.58161 0.27629 0.0
C1384 C 0.66142 0.58357 0.31827 0.0
H1385 H 0.67729 0.59721 0.39811 0.0
C1386 C 0.67012 0.58444 0.29417 0.0
C1387 C 0.66401 0.58807 0.35634 0.0
C1388 C 0.65489 0.58721 0.38337 0.0
C1389 C 0.68146 0.59014 0.30664 0.0
C1390 C 0.68411 0.59484 0.34462 0.0
C1391 C 0.6753 0.59362 0.36904 0.0
C1392 C 0.69598 0.60172 0.35881 0.0
C1393 C 0.69054 0.59153 0.27834 0.0
C1394 C 0.70333 0.59729 0.36036 0.0
C1395 C 0.7145 0.604 0.37351 0.0
C1396 C 0.71846 0.61519 0.38592 0.0
C1397 C 0.71101 0.61951 0.38499 0.0
C1398 C 0.69993 0.61287 0.37154 0.0
H1399 H 0.68743 0.58997 0.24781 0.0
H1400 H 0.69803 0.60018 0.28019 0.0
H1401 H 0.69329 0.58534 0.28554 0.0
H1402 H 0.70042 0.58864 0.35163 0.0
H1403 H 0.72 0.60041 0.37412 0.0
H1404 H 0.42815 0.05533 0.22825 0.0
H1405 H 0.42032 0.06696 0.25099 0.0
H1406 H 0.44669 0.08209 0.33761 0.0
H1407 H 0.45495 0.07093 0.31306 0.0
H1408 H 0.41118 0.06651 0.31491 0.0
H1409 H 0.44758 0.10994 0.30134 0.0
H1410 H 0.44773 0.09785 0.28074 0.0
H1411 H 0.45096 0.10132 0.33152 0.0
C1412 C 0.43237 0.06127 0.25176 0.0
C1413 C 0.44218 0.06226 0.2688 0.0
C1414 C 0.42789 0.06792 0.26482 0.0
C1415 C 0.43296 0.07557 0.29581 0.0
C1416 C 0.44279 0.07656 0.31289 0.0
H1417 H 0.39225 0.09497 0.43545 0.0
H1418 H 0.40361 0.08706 0.41064 0.0
C1419 C 0.44746 0.0701 0.29909 0.0
C1420 C 0.42741 0.0818 0.31174 0.0
H1421 H 0.43205 0.10784 0.34022 0.0
C1422 C 0.41577 0.07557 0.32005 0.0
C1423 C 0.43328 0.09367 0.31811 0.0
C1424 C 0.44554 0.10109 0.30705 0.0
C1425 C 0.40988 0.08077 0.33466 0.0
C1426 C 0.41587 0.09251 0.34321 0.0
C1427 C 0.42747 0.09881 0.33438 0.0
C1428 C 0.41015 0.09832 0.36097 0.0
C1429 C 0.39722 0.07361 0.33968 0.0
C1430 C 0.41066 0.10785 0.34305 0.0
C1431 C 0.40441 0.11262 0.358 0.0
C1432 C 0.39746 0.10786 0.39082 0.0
C1433 C 0.3974 0.0987 0.40974 0.0
C1434 C 0.40383 0.09411 0.39537 0.0
H1435 H 0.39359 0.06611 0.32016 0.0
H1436 H 0.39529 0.07046 0.37009 0.0
H1437 H 0.39293 0.07854 0.3335 0.0
H1438 H 0.41557 0.11134 0.31671 0.0
H1439 H 0.40461 0.11969 0.34285 0.0
H1440 H 0.92256 0.29679 0.38417 0.0
H1441 H 0.93038 0.31607 0.35947 0.0
H1442 H 0.89672 0.31097 0.34717 0.0
H1443 H 0.88874 0.29151 0.37174 0.0
H1444 H 0.92378 0.32215 0.28221 0.0
H1445 H 0.91623 0.34139 0.4138 0.0
H1446 H 0.91725 0.3287 0.41673 0.0
H1447 H 0.90492 0.32809 0.3959 0.0
C1448 C 0.91679 0.29974 0.37633 0.0
C1449 C 0.90502 0.2926 0.37998 0.0
C1450 C 0.92128 0.31077 0.36218 0.0
C1451 C 0.91414 0.31497 0.35176 0.0
C1452 C 0.90238 0.30791 0.35538 0.0
H1453 H 0.93642 0.38509 0.27913 0.0
H1454 H 0.92453 0.36528 0.29969 0.0
C1455 C 0.89784 0.29679 0.36929 0.0
C1456 C 0.91912 0.32667 0.33632 0.0
H1457 H 0.926 0.3536 0.36164 0.0
C1458 C 0.92419 0.32902 0.2994 0.0
C1459 C 0.91954 0.33557 0.35866 0.0
C1460 C 0.91425 0.33342 0.39859 0.0
C1461 C 0.92985 0.3401 0.28445 0.0
C1462 C 0.93079 0.34913 0.30758 0.0
C1463 C 0.92536 0.3467 0.34399 0.0
C1464 C 0.93791 0.36118 0.29538 0.0
C1465 C 0.93476 0.34197 0.24393 0.0
C1466 C 0.94942 0.36554 0.28692 0.0
C1467 C 0.95616 0.37677 0.27492 0.0
C1468 C 0.95162 0.38399 0.27169 0.0
C1469 C 0.94016 0.37973 0.28118 0.0
C1470 C 0.93336 0.36842 0.29294 0.0
H1471 H 0.93016 0.33422 0.2258 0.0
H1472 H 0.93447 0.34905 0.22905 0.0
H1473 H 0.94372 0.34406 0.24577 0.0
H1474 H 0.95323 0.36026 0.28973 0.0
H1475 H 0.96498 0.3798 0.26834 0.0
H1476 H 0.71957 0.12309 0.37176 0.0
H1477 H 0.69995 0.11518 0.34934 0.0
H1478 H 0.69412 0.08142 0.36835 0.0
H1479 H 0.7135 0.0892 0.39143 0.0
H1480 H 0.68876 0.10094 0.28813 0.0
H1481 H 0.6678 0.08022 0.42648 0.0
H1482 H 0.6827 0.09051 0.42373 0.0
H1483 H 0.67763 0.07598 0.41041 0.0
C1484 C 0.71407 0.11398 0.37133 0.0
C1485 C 0.71807 0.10678 0.38371 0.0
C1486 C 0.70287 0.10948 0.35851 0.0
C1487 C 0.69547 0.0977 0.35794 0.0
C1488 C 0.69954 0.09053 0.36957 0.0
H1489 H 0.63401 0.051 0.24597 0.0
H1490 H 0.65322 0.06283 0.27087 0.0
C1491 C 0.71068 0.09501 0.38255 0.0
C1492 C 0.68359 0.09281 0.34414 0.0
H1493 H 0.65618 0.07404 0.36909 0.0
C1494 C 0.68163 0.09519 0.30604 0.0
C1495 C 0.67424 0.08537 0.3676 0.0
C1496 C 0.67567 0.08295 0.40946 0.0
C1497 C 0.67065 0.0899 0.29026 0.0
C1498 C 0.66144 0.08207 0.31309 0.0
C1499 C 0.6633 0.08002 0.35162 0.0
C1500 C 0.64991 0.07534 0.29661 0.0
C1501 C 0.66892 0.09248 0.24898 0.0
C1502 C 0.6417 0.07851 0.30282 0.0
C1503 C 0.63068 0.07177 0.28847 0.0
C1504 C 0.62769 0.06172 0.26796 0.0
C1505 C 0.63601 0.05868 0.26157 0.0
C1506 C 0.647 0.06543 0.27574 0.0
H1507 H 0.67678 0.09951 0.23614 0.0
H1508 H 0.66608 0.08481 0.23075 0.0
H1509 H 0.66217 0.09477 0.24809 0.0
H1510 H 0.64381 0.08613 0.31899 0.0
H1511 H 0.62447 0.07434 0.29392 0.0
H1512 H 0.9222 0.62819 0.39034 0.0
H1513 H 0.92994 0.61655 0.36724 0.0
H1514 H 0.89615 0.58821 0.35316 0.0
H1515 H 0.8883 0.59999 0.37528 0.0
H1516 H 0.92823 0.59757 0.39689 0.0
H1517 H 0.90968 0.58875 0.24818 0.0
H1518 H 0.90946 0.59923 0.27962 0.0
H1519 H 0.89953 0.58444 0.28697 0.0
C1520 C 0.91639 0.61949 0.38224 0.0
C1521 C 0.90462 0.61503 0.3845 0.0
C1522 C 0.92084 0.61283 0.36904 0.0
C1523 C 0.91365 0.60154 0.35789 0.0
C1524 C 0.90188 0.59698 0.36069 0.0
H1525 H 0.93531 0.55364 0.27824 0.0
H1526 H 0.92364 0.56124 0.30426 0.0
C1527 C 0.8974 0.60369 0.3736 0.0
C1528 C 0.91864 0.59463 0.34405 0.0
H1529 H 0.92054 0.58029 0.26528 0.0
C1530 C 0.92648 0.59375 0.36819 0.0
C1531 C 0.91636 0.5896 0.30658 0.0
C1532 C 0.90838 0.59061 0.27864 0.0
C1533 C 0.93226 0.58822 0.35562 0.0
C1534 C 0.93017 0.58344 0.31795 0.0
C1535 C 0.92207 0.58395 0.29423 0.0
C1536 C 0.93702 0.57873 0.30169 0.0
C1537 C 0.94074 0.58769 0.38242 0.0
C1538 C 0.94833 0.58607 0.2913 0.0
C1539 C 0.95495 0.5818 0.27625 0.0
C1540 C 0.95042 0.57007 0.27144 0.0
C1541 C 0.93905 0.56271 0.2817 0.0
C1542 C 0.93238 0.56703 0.29649 0.0
H1543 H 0.93979 0.58976 0.41298 0.0
H1544 H 0.93983 0.57913 0.38167 0.0
H1545 H 0.94942 0.59386 0.37245 0.0
H1546 H 0.95203 0.59514 0.29487 0.0
H1547 H 0.96367 0.58771 0.26867 0.0
H1548 H 0.45585 0.38728 0.30978 0.0
H1549 H 0.44768 0.36783 0.33397 0.0
H1550 H 0.41969 0.35708 0.25432 0.0
H1551 H 0.42749 0.37655 0.23184 0.0
H1552 H 0.41184 0.34876 0.32064 0.0
H1553 H 0.44686 0.34034 0.29256 0.0
H1554 H 0.45127 0.35249 0.32311 0.0
H1555 H 0.4469 0.3527 0.27374 0.0
C1556 C 0.44801 0.38072 0.29723 0.0
C1557 C 0.44229 0.38343 0.269 0.0
C1558 C 0.44339 0.36957 0.31082 0.0
C1559 C 0.43312 0.36086 0.2956 0.0
C1560 C 0.42759 0.36358 0.26664 0.0
H1561 H 0.4037 0.28815 0.33822 0.0
H1562 H 0.41474 0.30754 0.31273 0.0
C1563 C 0.43207 0.37474 0.25375 0.0
C1564 C 0.42764 0.34911 0.31157 0.0
H1565 H 0.432 0.32714 0.33413 0.0
C1566 C 0.41627 0.34403 0.32324 0.0
C1567 C 0.43329 0.3428 0.31462 0.0
C1568 C 0.44521 0.34732 0.29994 0.0
C1569 C 0.41042 0.33295 0.33789 0.0
C1570 C 0.41623 0.32686 0.343 0.0
C1571 C 0.42757 0.33185 0.33091 0.0
C1572 C 0.41058 0.31526 0.36028 0.0
C1573 C 0.39795 0.32781 0.34656 0.0
C1574 C 0.40495 0.31317 0.39622 0.0
C1575 C 0.39844 0.30212 0.41019 0.0
C1576 C 0.39778 0.29295 0.38931 0.0
C1577 C 0.40409 0.29508 0.35488 0.0
C1578 C 0.41038 0.30615 0.34031 0.0
H1579 H 0.39412 0.33193 0.3293 0.0
H1580 H 0.39324 0.31859 0.34014 0.0
H1581 H 0.39681 0.32906 0.3778 0.0
H1582 H 0.40532 0.32006 0.41302 0.0
H1583 H 0.39379 0.30072 0.43712 0.0
H1584 H 0.29155 0.88617 0.63142 0.0
H1585 H 0.31076 0.89307 0.65669 0.0
H1586 H 0.32224 0.92489 0.59767 0.0
H1587 H 0.30321 0.91809 0.57232 0.0
H1588 H 0.33709 0.9159 0.59027 0.0
H1589 H 0.3249 0.91732 0.74402 0.0
H1590 H 0.31696 0.90404 0.7189 0.0
H1591 H 0.31593 0.91607 0.70348 0.0
C1592 C 0.2982 0.8946 0.62361 0.0
C1593 C 0.29584 0.9016 0.60004 0.0
C1594 C 0.30915 0.89855 0.63822 0.0
C1595 C 0.3179 0.90955 0.6294 0.0
C1596 C 0.31562 0.91639 0.60491 0.0
H1597 H 0.37913 0.95828 0.73593 0.0
H1598 H 0.36008 0.94588 0.71128 0.0
C1599 C 0.30471 0.91249 0.59052 0.0
C1600 C 0.3294 0.91421 0.64641 0.0
H1601 H 0.34412 0.92389 0.73153 0.0
C1602 C 0.33864 0.91752 0.62121 0.0
C1603 C 0.33139 0.9164 0.68675 0.0
C1604 C 0.32181 0.91337 0.715 0.0
C1605 C 0.34984 0.92325 0.6351 0.0
C1606 C 0.35184 0.92562 0.67539 0.0
C1607 C 0.34257 0.92201 0.70071 0.0
C1608 C 0.36344 0.9328 0.69132 0.0
C1609 C 0.35944 0.9272 0.6063 0.0
C1610 C 0.37169 0.92953 0.68879 0.0
C1611 C 0.38269 0.93667 0.70283 0.0
C1612 C 0.38559 0.94717 0.71981 0.0
C1613 C 0.37722 0.95027 0.72297 0.0
C1614 C 0.36629 0.94317 0.70895 0.0
H1615 H 0.35651 0.92662 0.57577 0.0
H1616 H 0.36604 0.9361 0.61231 0.0
H1617 H 0.36338 0.92183 0.60906 0.0
H1618 H 0.36964 0.92148 0.67591 0.0
H1619 H 0.38892 0.934 0.70014 0.0
H1620 H 0.06035 0.42809 0.766 0.0
H1621 H 0.07205 0.42049 0.74212 0.0
H1622 H 0.08412 0.44492 0.64857 0.0
H1623 H 0.07288 0.453 0.67406 0.0
H1624 H 0.06994 0.41008 0.67911 0.0
H1625 H 0.11321 0.44718 0.67773 0.0
H1626 H 0.10157 0.44749 0.70141 0.0
H1627 H 0.1036 0.44966 0.64959 0.0
C1628 C 0.06567 0.43198 0.74076 0.0
C1629 C 0.06573 0.44115 0.72192 0.0
C1630 C 0.07235 0.42761 0.72704 0.0
C1631 C 0.0791 0.43215 0.69362 0.0
C1632 C 0.07928 0.44144 0.675 0.0
H1633 H 0.09647 0.38946 0.55583 0.0
H1634 H 0.08875 0.40101 0.58037 0.0
C1635 C 0.07278 0.44601 0.6894 0.0
C1636 C 0.08508 0.42646 0.67685 0.0
H1637 H 0.11051 0.43088 0.64234 0.0
C1638 C 0.07885 0.41467 0.67142 0.0
C1639 C 0.09674 0.43234 0.66708 0.0
C1640 C 0.10419 0.44484 0.67464 0.0
C1641 C 0.08385 0.40862 0.65656 0.0
C1642 C 0.09535 0.41456 0.64488 0.0
C1643 C 0.10166 0.42633 0.65065 0.0
C1644 C 0.10092 0.40861 0.62711 0.0
C1645 C 0.07677 0.39587 0.65468 0.0
C1646 C 0.11081 0.40957 0.64346 0.0
C1647 C 0.11544 0.40317 0.6287 0.0
C1648 C 0.11019 0.39562 0.59761 0.0
C1649 C 0.10061 0.39507 0.58022 0.0
C1650 C 0.09613 0.40161 0.59443 0.0
H1651 H 0.06967 0.39254 0.6759 0.0
H1652 H 0.07305 0.39331 0.62516 0.0
H1653 H 0.08193 0.39182 0.66071 0.0
H1654 H 0.11473 0.41497 0.66847 0.0
H1655 H 0.12285 0.40378 0.64265 0.0
H1656 H 0.58855 0.63261 0.73108 0.0
H1657 H 0.59535 0.6515 0.70425 0.0
H1658 H 0.56134 0.64224 0.67125 0.0
H1659 H 0.55437 0.62312 0.69808 0.0
H1660 H 0.5873 0.65469 0.61448 0.0
H1661 H 0.57992 0.67473 0.7442 0.0
H1662 H 0.58341 0.66367 0.75056 0.0
H1663 H 0.56997 0.66029 0.73048 0.0
C1664 C 0.58246 0.63455 0.7183 0.0
C1665 C 0.5709 0.62633 0.71673 0.0
C1666 C 0.58638 0.64537 0.70297 0.0
C1667 C 0.57884 0.64824 0.68593 0.0
C1668 C 0.56727 0.64015 0.68444 0.0
H1669 H 0.60119 0.71808 0.6095 0.0
H1670 H 0.58905 0.69837 0.63053 0.0
C1671 C 0.56332 0.62925 0.69973 0.0
C1672 C 0.58331 0.65968 0.66892 0.0
H1673 H 0.59073 0.68683 0.6929 0.0
C1674 C 0.58791 0.66171 0.63132 0.0
C1675 C 0.58402 0.66876 0.69093 0.0
C1676 C 0.57907 0.66686 0.73133 0.0
C1677 C 0.59355 0.67269 0.61555 0.0
C1678 C 0.59488 0.68193 0.63845 0.0
C1679 C 0.5898 0.67979 0.67544 0.0
C1680 C 0.60213 0.69388 0.62552 0.0
C1681 C 0.59811 0.67427 0.57458 0.0
C1682 C 0.61356 0.69798 0.61645 0.0
C1683 C 0.62046 0.70917 0.60425 0.0
C1684 C 0.61615 0.71659 0.60137 0.0
C1685 C 0.60476 0.71256 0.61128 0.0
C1686 C 0.59781 0.70131 0.6233 0.0
H1687 H 0.59325 0.66645 0.55702 0.0
H1688 H 0.59784 0.68135 0.55962 0.0
H1689 H 0.60703 0.67621 0.57558 0.0
H1690 H 0.61719 0.69254 0.61905 0.0
H1691 H 0.62923 0.71201 0.5973 0.0
H1692 H 0.39013 0.45511 0.68027 0.0
H1693 H 0.37096 0.44747 0.65389 0.0
H1694 H 0.35878 0.41918 0.73309 0.0
H1695 H 0.37789 0.4265 0.75814 0.0
H1696 H 0.35181 0.41183 0.66361 0.0
H1697 H 0.3428 0.44651 0.69237 0.0
H1698 H 0.35544 0.45103 0.66429 0.0
H1699 H 0.35474 0.44621 0.71356 0.0
C1700 C 0.38331 0.44735 0.69234 0.0
C1701 C 0.38552 0.44138 0.72113 0.0
C1702 C 0.37233 0.44302 0.67744 0.0
C1703 C 0.36334 0.43278 0.69171 0.0
C1704 C 0.36554 0.42707 0.72145 0.0
H1705 H 0.29104 0.40281 0.6475 0.0
H1706 H 0.31044 0.41406 0.67233 0.0
C1707 C 0.37648 0.43127 0.7358 0.0
C1708 C 0.35183 0.42742 0.67392 0.0
H1709 H 0.32981 0.43161 0.65099 0.0
C1710 C 0.347 0.41617 0.66105 0.0
C1711 C 0.34546 0.43299 0.67088 0.0
C1712 C 0.34982 0.44481 0.68636 0.0
C1713 C 0.33602 0.41031 0.64559 0.0
C1714 C 0.3298 0.41601 0.641 0.0
C1715 C 0.33461 0.42727 0.65392 0.0
C1716 C 0.31819 0.41025 0.62396 0.0
C1717 C 0.33112 0.39793 0.63572 0.0
C1718 C 0.31608 0.40472 0.58781 0.0
C1719 C 0.30501 0.39805 0.57427 0.0
C1720 C 0.29584 0.39715 0.59576 0.0
C1721 C 0.29797 0.40337 0.63039 0.0
C1722 C 0.30906 0.4098 0.64455 0.0
H1723 H 0.33537 0.3941 0.65225 0.0
H1724 H 0.32192 0.39302 0.6421 0.0
H1725 H 0.33242 0.39709 0.60428 0.0
H1726 H 0.32299 0.40529 0.57054 0.0
H1727 H 0.3036 0.39347 0.54715 0.0
H1728 H 0.62706 0.91965 0.58539 0.0
H1729 H 0.61486 0.92667 0.60932 0.0
H1730 H 0.59089 0.89328 0.65106 0.0
H1731 H 0.60314 0.88614 0.62721 0.0
H1732 H 0.59176 0.91933 0.59049 0.0
H1733 H 0.59803 0.91416 0.74776 0.0
H1734 H 0.60722 0.91391 0.7104 0.0
H1735 H 0.59336 0.90188 0.7173 0.0
C1736 C 0.61919 0.91377 0.59962 0.0
C1737 C 0.6161 0.90234 0.60456 0.0
C1738 C 0.61221 0.9178 0.61318 0.0
C1739 C 0.60201 0.91053 0.63227 0.0
C1740 C 0.59879 0.89907 0.63682 0.0
H1741 H 0.55481 0.93505 0.69312 0.0
H1742 H 0.56191 0.92279 0.66888 0.0
C1743 C 0.60577 0.895 0.62305 0.0
C1744 C 0.59496 0.91515 0.64774 0.0
H1745 H 0.58678 0.92221 0.73233 0.0
C1746 C 0.59053 0.91984 0.62148 0.0
C1747 C 0.59346 0.91587 0.68819 0.0
C1748 C 0.59831 0.91127 0.71773 0.0
C1749 C 0.58489 0.92547 0.63461 0.0
C1750 C 0.58356 0.92636 0.67509 0.0
C1751 C 0.58774 0.92143 0.70131 0.0
C1752 C 0.57891 0.93335 0.69084 0.0
C1753 C 0.58085 0.93087 0.60517 0.0
C1754 C 0.58602 0.94321 0.71186 0.0
C1755 C 0.58201 0.95019 0.72564 0.0
C1756 C 0.57075 0.94744 0.71899 0.0
C1757 C 0.56353 0.93742 0.69864 0.0
C1758 C 0.56759 0.93044 0.68464 0.0
H1759 H 0.58413 0.93097 0.57547 0.0
H1760 H 0.57147 0.92606 0.60404 0.0
H1761 H 0.58351 0.93971 0.61379 0.0
H1762 H 0.59478 0.94562 0.71702 0.0
H1763 H 0.5878 0.95782 0.74131 0.0
H1764 H 0.04997 0.62914 0.70398 0.0
H1765 H 0.06155 0.64845 0.68007 0.0
H1766 H 0.09167 0.6462 0.6977 0.0
H1767 H 0.07997 0.62656 0.72013 0.0
H1768 H 0.07679 0.66647 0.71668 0.0
H1769 H 0.09776 0.65915 0.59033 0.0
H1770 H 0.08611 0.64769 0.61585 0.0
H1771 H 0.10016 0.65427 0.63589 0.0
C1772 C 0.05906 0.63271 0.70249 0.0
C1773 C 0.06406 0.62632 0.71388 0.0
C1774 C 0.06569 0.64378 0.68881 0.0
C1775 C 0.07751 0.64881 0.68657 0.0
C1776 C 0.08256 0.64245 0.69811 0.0
H1777 H 0.12524 0.72017 0.6238 0.0
H1778 H 0.11756 0.70081 0.64916 0.0
C1779 C 0.07588 0.63125 0.71121 0.0
C1780 C 0.08439 0.66084 0.67362 0.0
H1781 H 0.10335 0.67821 0.60494 0.0
C1782 C 0.08262 0.669 0.6923 0.0
C1783 C 0.09208 0.66423 0.64191 0.0
C1784 C 0.09409 0.65587 0.61957 0.0
C1785 C 0.08805 0.6803 0.67969 0.0
C1786 C 0.0955 0.68361 0.64754 0.0
C1787 C 0.09764 0.67562 0.62965 0.0
C1788 C 0.10041 0.69513 0.63053 0.0
C1789 C 0.08564 0.68862 0.70045 0.0
C1790 C 0.09335 0.69825 0.61111 0.0
C1791 C 0.09769 0.70922 0.59655 0.0
C1792 C 0.10921 0.71734 0.60112 0.0
C1793 C 0.11634 0.71413 0.61986 0.0
C1794 C 0.11197 0.70308 0.63432 0.0
H1795 H 0.08171 0.68544 0.72946 0.0
H1796 H 0.09353 0.69689 0.70426 0.0
H1797 H 0.0797 0.69008 0.68265 0.0
H1798 H 0.08442 0.69221 0.60759 0.0
H1799 H 0.09195 0.71137 0.58219 0.0
H1800 H 0.11556 0.36977 0.69622 0.0
H1801 H 0.11005 0.36303 0.76337 0.0
H1802 H 0.08512 0.33018 0.72042 0.0
H1803 H 0.09054 0.33673 0.65366 0.0
H1804 H 0.08742 0.35104 0.80449 0.0
H1805 H 0.10853 0.32542 0.78549 0.0
H1806 H 0.11121 0.33702 0.75355 0.0
H1807 H 0.09838 0.32365 0.74881 0.0
C1808 C 0.10875 0.36119 0.7011 0.0
C1809 C 0.10363 0.35372 0.66971 0.0
C1810 C 0.10563 0.35736 0.7394 0.0
C1811 C 0.09733 0.34607 0.74659 0.0
C1812 C 0.09166 0.33887 0.71531 0.0
H1813 H 0.08037 0.30545 0.95914 0.0
H1814 H 0.08014 0.31146 0.89194 0.0
C1815 C 0.09479 0.34264 0.67722 0.0
C1816 C 0.09526 0.34146 0.7865 0.0
H1817 H 0.09916 0.32347 0.84498 0.0
C1818 C 0.08995 0.345 0.81344 0.0
C1819 C 0.09854 0.33354 0.79778 0.0
C1820 C 0.10456 0.32971 0.77008 0.0
C1821 C 0.08783 0.34079 0.85168 0.0
C1822 C 0.0913 0.33303 0.86316 0.0
C1823 C 0.09643 0.32936 0.83594 0.0
C1824 C 0.09063 0.32935 0.90404 0.0
C1825 C 0.08185 0.34465 0.87937 0.0
C1826 C 0.09669 0.33742 0.93277 0.0
C1827 C 0.09688 0.33405 0.97088 0.0
C1828 C 0.09108 0.3225 0.98112 0.0
C1829 C 0.08493 0.31441 0.95227 0.0
C1830 C 0.08476 0.31781 0.91394 0.0
H1831 H 0.0767 0.34759 0.86347 0.0
H1832 H 0.07624 0.33774 0.89961 0.0
H1833 H 0.08823 0.35185 0.89692 0.0
H1834 H 0.10151 0.34634 0.92552 0.0
H1835 H 0.10172 0.34056 0.99219 0.0
H1836 H 0.67853 0.78245 0.97924 0.0
H1837 H 0.67156 0.776 0.91361 0.0
H1838 H 0.69443 0.76295 0.90172 0.0
H1839 H 0.70179 0.76982 0.96749 0.0
H1840 H 0.69371 0.77288 0.83659 0.0
H1841 H 0.64979 0.74407 0.8827 0.0
H1842 H 0.65433 0.75801 0.90085 0.0
H1843 H 0.66133 0.75048 0.91704 0.0
C1844 C 0.68212 0.77824 0.96262 0.0
C1845 C 0.69061 0.77652 0.97854 0.0
C1846 C 0.67804 0.77445 0.92527 0.0
C1847 C 0.68215 0.7686 0.90336 0.0
C1848 C 0.69099 0.76728 0.91845 0.0
H1849 H 0.64481 0.74051 0.68378 0.0
H1850 H 0.65228 0.74117 0.7495 0.0
C1851 C 0.69524 0.77126 0.95583 0.0
C1852 C 0.67735 0.76427 0.86427 0.0
H1853 H 0.65218 0.75085 0.81574 0.0
C1854 C 0.68465 0.76788 0.83206 0.0
C1855 C 0.66555 0.75739 0.85829 0.0
C1856 C 0.65733 0.75216 0.89167 0.0
C1857 C 0.68038 0.76558 0.79398 0.0
C1858 C 0.66852 0.75991 0.78808 0.0
C1859 C 0.66127 0.75547 0.82023 0.0
C1860 C 0.66356 0.75934 0.74922 0.0
C1861 C 0.68866 0.76944 0.76052 0.0
C1862 C 0.66702 0.76936 0.72815 0.0
C1863 C 0.66289 0.76898 0.69081 0.0
C1864 C 0.65497 0.7586 0.67416 0.0
C1865 C 0.65091 0.74862 0.6961 0.0
C1866 C 0.65522 0.74898 0.73342 0.0
H1867 H 0.69655 0.76949 0.76893 0.0
H1868 H 0.685 0.7639 0.73462 0.0
H1869 H 0.69103 0.77822 0.75239 0.0
H1870 H 0.67306 0.7775 0.74038 0.0
H1871 H 0.66603 0.77682 0.67469 0.0
H1872 H 0.23627 0.93331 0.96174 0.0
H1873 H 0.24283 0.934 0.89464 0.0
H1874 H 0.24555 0.90432 0.91653 0.0
H1875 H 0.23916 0.90358 0.98303 0.0
H1876 H 0.26484 0.9223 0.88025 0.0
H1877 H 0.22454 0.91194 0.80567 0.0
H1878 H 0.23022 0.92367 0.83905 0.0
H1879 H 0.22516 0.90959 0.85712 0.0
C1880 C 0.23819 0.92689 0.95212 0.0
C1881 C 0.23719 0.9184 0.9778 0.0
C1882 C 0.24193 0.9273 0.91385 0.0
C1883 C 0.24465 0.91919 0.90076 0.0
C1884 C 0.24356 0.91069 0.9262 0.0
H1885 H 0.26236 0.89514 0.6979 0.0
H1886 H 0.26067 0.90066 0.76441 0.0
C1887 C 0.23987 0.91028 0.96423 0.0
C1888 C 0.2486 0.91936 0.86059 0.0
H1889 H 0.2396 0.9142 0.7664 0.0
C1890 C 0.25939 0.92065 0.85521 0.0
C1891 C 0.24144 0.91719 0.82818 0.0
C1892 C 0.22966 0.91543 0.83255 0.0
C1893 C 0.26314 0.91962 0.8182 0.0
C1894 C 0.25582 0.91707 0.78599 0.0
C1895 C 0.24518 0.91615 0.79123 0.0
C1896 C 0.25873 0.91485 0.74671 0.0
C1897 C 0.27486 0.92124 0.81396 0.0
C1898 C 0.25833 0.92106 0.71488 0.0
C1899 C 0.25914 0.91784 0.67707 0.0
C1900 C 0.26037 0.90834 0.67033 0.0
C1901 C 0.26147 0.90253 0.70226 0.0
C1902 C 0.26055 0.90571 0.74024 0.0
H1903 H 0.28048 0.9264 0.83817 0.0
H1904 H 0.27431 0.91284 0.81465 0.0
H1905 H 0.27878 0.92541 0.7859 0.0
H1906 H 0.25694 0.92814 0.71927 0.0
H1907 H 0.25839 0.92257 0.65302 0.0
H1908 H 0.30666 0.07525 0.02943 0.0
H1909 H 0.31217 0.07462 0.09702 0.0
H1910 H 0.34677 0.09927 0.06952 0.0
H1911 H 0.34149 0.09985 0.00252 0.0
H1912 H 0.34487 0.08145 0.11437 0.0
H1913 H 0.32002 0.1001 0.17574 0.0
H1914 H 0.31216 0.0874 0.14757 0.0
H1915 H 0.32265 0.10015 0.12424 0.0
C1916 C 0.31543 0.08051 0.03782 0.0
C1917 C 0.3236 0.08765 0.01056 0.0
C1918 C 0.31856 0.08016 0.0764 0.0
C1919 C 0.32986 0.08698 0.0882 0.0
C1920 C 0.33801 0.09392 0.06093 0.0
H1921 H 0.371 0.11223 0.29226 0.0
H1922 H 0.36402 0.10598 0.22587 0.0
C1923 C 0.33494 0.09426 0.02259 0.0
C1924 C 0.33333 0.08734 0.12914 0.0
H1925 H 0.33088 0.09626 0.21946 0.0
C1926 C 0.34174 0.08458 0.13751 0.0
C1927 C 0.32927 0.09151 0.15904 0.0
C1928 C 0.3206 0.09505 0.15135 0.0
C1929 C 0.34633 0.08604 0.17501 0.0
C1930 C 0.34245 0.09043 0.2046 0.0
C1931 C 0.33382 0.09288 0.19653 0.0
C1932 C 0.34735 0.0929 0.24411 0.0
C1933 C 0.35532 0.08294 0.18271 0.0
C1934 C 0.34034 0.08749 0.27607 0.0
C1935 C 0.34425 0.09107 0.31373 0.0
C1936 C 0.35524 0.1002 0.32017 0.0
C1937 C 0.36251 0.10518 0.28819 0.0
C1938 C 0.35855 0.10159 0.25031 0.0
H1939 H 0.35546 0.07725 0.15979 0.0
H1940 H 0.36374 0.09076 0.18316 0.0
H1941 H 0.35398 0.07872 0.21146 0.0
H1942 H 0.33169 0.08077 0.27179 0.0
H1943 H 0.33849 0.08694 0.33778 0.0
H1944 H 0.90566 0.23683 0.32214 0.0
H1945 H 0.91147 0.23641 0.25569 0.0
H1946 H 0.90616 0.26408 0.22539 0.0
H1947 H 0.90022 0.26461 0.29255 0.0
H1948 H 0.89639 0.24512 0.17344 0.0
H1949 H 0.94147 0.25935 0.20349 0.0
H1950 H 0.93176 0.24797 0.23427 0.0
H1951 H 0.93259 0.26153 0.23735 0.0
C1952 C 0.90575 0.24291 0.30161 0.0
C1953 C 0.90252 0.25082 0.31286 0.0
C1954 C 0.90916 0.24268 0.26362 0.0
C1955 C 0.9095 0.25038 0.23601 0.0
C1956 C 0.90609 0.25817 0.24661 0.0
H1957 H 0.92091 0.25239 0.98707 0.0
H1958 H 0.91887 0.25728 0.05368 0.0
C1959 C 0.90266 0.25842 0.28487 0.0
C1960 C 0.91288 0.24977 0.19566 0.0
H1961 H 0.93428 0.25054 0.14173 0.0
C1962 C 0.90471 0.24647 0.1663 0.0
C1963 C 0.92373 0.25143 0.18674 0.0
C1964 C 0.93294 0.25537 0.21705 0.0
C1965 C 0.90697 0.24437 0.12835 0.0
C1966 C 0.91777 0.24586 0.11952 0.0
C1967 C 0.92601 0.24937 0.14873 0.0
C1968 C 0.92057 0.24379 0.07995 0.0
C1969 C 0.89764 0.24019 0.09836 0.0
C1970 C 0.92285 0.23498 0.07295 0.0
C1971 C 0.92417 0.23223 0.03476 0.0
C1972 C 0.92313 0.23822 0.00329 0.0
C1973 C 0.92152 0.24747 0.01074 0.0
C1974 C 0.92034 0.25027 0.04873 0.0
H1975 H 0.88919 0.23684 0.11207 0.0
H1976 H 0.8991 0.24733 0.07906 0.0
H1977 H 0.89755 0.23344 0.08003 0.0
H1978 H 0.92315 0.22996 0.09687 0.0
H1979 H 0.92544 0.2251 0.02981 0.0
H1980 H 0.76758 0.67314 0.32186 0.0
H1981 H 0.76691 0.67853 0.25514 0.0
H1982 H 0.74418 0.6436 0.22517 0.0
H1983 H 0.7449 0.63797 0.29256 0.0
H1984 H 0.76251 0.65439 0.17591 0.0
H1985 H 0.74265 0.68086 0.19489 0.0
H1986 H 0.75436 0.68496 0.22731 0.0
H1987 H 0.74201 0.67113 0.23185 0.0
C1988 C 0.76232 0.66654 0.3014 0.0
C1989 C 0.7563 0.65508 0.31269 0.0
C1990 C 0.76187 0.6697 0.26323 0.0
C1991 C 0.7553 0.66151 0.23546 0.0
C1992 C 0.74919 0.65006 0.24643 0.0
H1993 H 0.75708 0.67016 0.98422 0.0
H1994 H 0.75073 0.66302 0.04993 0.0
C1995 C 0.74964 0.64686 0.28486 0.0
C1996 C 0.75582 0.66496 0.19438 0.0
H1997 H 0.75357 0.68404 0.13612 0.0
C1998 C 0.76035 0.66071 0.16698 0.0
C1999 C 0.75306 0.67327 0.18299 0.0
C2000 C 0.74764 0.67773 0.21076 0.0
C2001 C 0.76272 0.66493 0.12887 0.0
C2002 C 0.76032 0.6735 0.11786 0.0
C2003 C 0.75546 0.67753 0.14486 0.0
C2004 C 0.76302 0.67846 0.07843 0.0
C2005 C 0.76822 0.66052 0.10115 0.0
C2006 C 0.77164 0.68972 0.07284 0.0
C2007 C 0.77526 0.69389 0.03516 0.0
C2008 C 0.77033 0.68679 0.00281 0.0
C2009 C 0.76121 0.67576 0.00864 0.0
C2010 C 0.75755 0.67166 0.04611 0.0
H2011 H 0.77168 0.65574 0.11654 0.0
H2012 H 0.76183 0.65471 0.07986 0.0
H2013 H 0.77517 0.66757 0.08468 0.0
H2014 H 0.7759 0.6951 0.09761 0.0
H2015 H 0.78228 0.70244 0.0315 0.0
H2016 H 0.91248 0.66847 0.98865 0.0
H2017 H 0.91127 0.66238 0.05581 0.0
H2018 H 0.93182 0.69713 0.09225 0.0
H2019 H 0.93296 0.70343 0.02467 0.0
H2020 H 0.92767 0.66545 0.11058 0.0
H2021 H 0.90266 0.68555 0.15611 0.0
H2022 H 0.90518 0.68385 0.10565 0.0
H2023 H 0.91612 0.69496 0.13427 0.0
C2024 C 0.91679 0.67488 0.01077 0.0
C2025 C 0.92269 0.68648 0.00125 0.0
C2026 C 0.91613 0.67134 0.04917 0.0
C2027 C 0.92132 0.6793 0.07894 0.0
C2028 C 0.9276 0.69087 0.06962 0.0
H2029 H 0.91729 0.67225 0.32788 0.0
H2030 H 0.92309 0.67852 0.2613 0.0
C2031 C 0.92826 0.69445 0.03102 0.0
C2032 C 0.9196 0.67539 0.11978 0.0
H2033 H 0.90708 0.6762 0.20468 0.0
C2034 C 0.92321 0.66782 0.13129 0.0
C2035 C 0.91366 0.67842 0.14641 0.0
C2036 C 0.90908 0.68606 0.13505 0.0
C2037 C 0.92113 0.66328 0.16906 0.0
C2038 C 0.91519 0.66632 0.19558 0.0
C2039 C 0.91164 0.67392 0.18411 0.0
C2040 C 0.91271 0.66196 0.23584 0.0
C2041 C 0.92537 0.65538 0.18051 0.0
C2042 C 0.90508 0.65049 0.24356 0.0
C2043 C 0.9017 0.64682 0.28188 0.0
C2044 C 0.90581 0.65464 0.31273 0.0
C2045 C 0.9138 0.66603 0.30477 0.0
C2046 C 0.91719 0.66964 0.26675 0.0
H2047 H 0.93169 0.65567 0.15943 0.0
H2048 H 0.92926 0.65753 0.20994 0.0
H2049 H 0.91814 0.64658 0.18152 0.0
H2050 H 0.90142 0.64447 0.2199 0.0
H2051 H 0.89555 0.638 0.28713 0.0
H2052 H 0.34264 0.24818 -0.00511 0.0
H2053 H 0.34819 0.25402 0.06181 0.0
H2054 H 0.3132 0.24037 0.09409 0.0
H2055 H 0.30743 0.23417 0.02675 0.0
H2056 H 0.3452 0.26795 0.1124 0.0
H2057 H 0.32363 0.22339 0.16503 0.0
H2058 H 0.32562 0.22694 0.11397 0.0
H2059 H 0.31461 0.22754 0.14078 0.0
C2060 C 0.33606 0.24642 0.01601 0.0
C2061 C 0.32454 0.24051 0.00547 0.0
C2062 C 0.33929 0.24984 0.0543 0.0
C2063 C 0.33111 0.24747 0.08296 0.0
C2064 C 0.31963 0.24207 0.07242 0.0
H2065 H 0.33828 0.25339 0.33272 0.0
H2066 H 0.33195 0.25292 0.26617 0.0
C2067 C 0.31636 0.23858 0.03395 0.0
C2068 C 0.33471 0.25011 0.12406 0.0
H2069 H 0.33316 0.23766 0.21173 0.0
C2070 C 0.34252 0.26135 0.13425 0.0
C2071 C 0.3313 0.24144 0.15227 0.0
C2072 C 0.32341 0.22913 0.14254 0.0
C2073 C 0.34701 0.26416 0.17203 0.0
C2074 C 0.34362 0.25548 0.20003 0.0
C2075 C 0.3357 0.24428 0.19003 0.0
C2076 C 0.34814 0.25767 0.24008 0.0
C2077 C 0.3553 0.27634 0.18186 0.0
C2078 C 0.35946 0.26078 0.24739 0.0
C2079 C 0.36315 0.26104 0.28563 0.0
C2080 C 0.35551 0.25808 0.31687 0.0
C2081 C 0.34435 0.25556 0.30932 0.0
C2082 C 0.34071 0.25533 0.27132 0.0
H2083 H 0.35533 0.28225 0.15952 0.0
H2084 H 0.35327 0.2786 0.21064 0.0
H2085 H 0.36394 0.27752 0.18359 0.0
H2086 H 0.36527 0.26247 0.22349 0.0
H2087 H 0.37179 0.26301 0.29052 0.0
H2088 H 0.76853 0.10235 -0.00371 0.0
H2089 H 0.76354 0.10299 0.06369 0.0
H2090 H 0.77572 0.08042 0.09608 0.0
H2091 H 0.78093 0.07977 0.02807 0.0
H2092 H 0.74891 0.08537 0.1142 0.0
H2093 H 0.7935 0.10843 0.16656 0.0
H2094 H 0.78992 0.10717 0.11552 0.0
H2095 H 0.78915 0.09535 0.14128 0.0
C2096 C 0.77018 0.09749 0.01754 0.0
C2097 C 0.77525 0.09109 0.00671 0.0
C2098 C 0.76726 0.09784 0.05609 0.0
C2099 C 0.76935 0.09184 0.08477 0.0
C2100 C 0.77418 0.08522 0.07426 0.0
H2101 H 0.76402 0.09482 0.33436 0.0
H2102 H 0.76531 0.08911 0.26837 0.0
C2103 C 0.77713 0.08486 0.03546 0.0
C2104 C 0.76676 0.09293 0.12573 0.0
H2105 H 0.77926 0.10437 0.21272 0.0
C2106 C 0.75551 0.08944 0.13592 0.0
C2107 C 0.77543 0.09833 0.1537 0.0
C2108 C 0.7877 0.10263 0.14385 0.0
C2109 C 0.75271 0.09124 0.17353 0.0
C2110 C 0.76141 0.09681 0.20125 0.0
C2111 C 0.77262 0.10012 0.19124 0.0
C2112 C 0.7592 0.09932 0.24107 0.0
C2113 C 0.74048 0.08713 0.18336 0.0
C2114 C 0.75515 0.10684 0.24757 0.0
C2115 C 0.75437 0.11014 0.28552 0.0
C2116 C 0.75779 0.10608 0.31729 0.0
C2117 C 0.76147 0.09825 0.31052 0.0
C2118 C 0.76217 0.09492 0.27284 0.0
H2119 H 0.73464 0.08067 0.16226 0.0
H2120 H 0.73842 0.08345 0.21311 0.0
H2121 H 0.73896 0.09439 0.1825 0.0
H2122 H 0.75299 0.11046 0.22327 0.0
H2123 H 0.75151 0.11618 0.28984 0.0
H2124 H 0.63998 0.89938 0.69486 0.0
H2125 H 0.64593 0.90547 0.76228 0.0
H2126 H 0.67981 0.91315 0.73371 0.0
H2127 H 0.6741 0.90725 0.667 0.0
H2128 H 0.65546 0.89654 0.81438 0.0
H2129 H 0.68507 0.94212 0.78775 0.0
H2130 H 0.67458 0.93309 0.75256 0.0
H2131 H 0.68771 0.93307 0.75689 0.0
C2132 C 0.6487 0.9024 0.70294 0.0
C2133 C 0.65656 0.90287 0.67539 0.0
C2134 C 0.65209 0.90591 0.74136 0.0
C2135 C 0.66337 0.91001 0.75258 0.0
C2136 C 0.67115 0.91033 0.72533 0.0
H2137 H 0.70433 0.92522 0.95745 0.0
H2138 H 0.697 0.92346 0.89092 0.0
C2139 C 0.66781 0.90685 0.68718 0.0
C2140 C 0.66703 0.91329 0.79329 0.0
H2141 H 0.68713 0.93469 0.84873 0.0
C2142 C 0.66224 0.90492 0.82212 0.0
C2143 C 0.67594 0.92423 0.80305 0.0
C2144 C 0.68105 0.93368 0.77349 0.0
C2145 C 0.66648 0.90705 0.86022 0.0
C2146 C 0.6756 0.9179 0.86975 0.0
C2147 C 0.68018 0.92637 0.84119 0.0
C2148 C 0.68055 0.92047 0.90922 0.0
C2149 C 0.66147 0.89752 0.88953 0.0
C2150 C 0.67387 0.91985 0.94113 0.0
C2151 C 0.67797 0.92074 0.97884 0.0
C2152 C 0.68888 0.92243 0.98534 0.0
C2153 C 0.69588 0.92388 0.95326 0.0
C2154 C 0.6917 0.92286 0.91536 0.0
H2155 H 0.65642 0.88913 0.87531 0.0
H2156 H 0.6682 0.8974 0.90731 0.0
H2157 H 0.65578 0.89876 0.90947 0.0
H2158 H 0.66534 0.91828 0.93688 0.0
H2159 H 0.67246 0.91981 0.00301 0.0
H2160 H 0.09495 0.76238 0.65829 0.0
H2161 H 0.08973 0.76304 0.72552 0.0
H2162 H 0.10783 0.74626 0.76243 0.0
H2163 H 0.11335 0.74574 0.69483 0.0
H2164 H 0.0784 0.74686 0.78334 0.0
H2165 H 0.12341 0.77647 0.8214 0.0
H2166 H 0.11866 0.77289 0.77173 0.0
H2167 H 0.12063 0.76315 0.80138 0.0
C2168 C 0.0978 0.75875 0.68054 0.0
C2169 C 0.10478 0.75421 0.67121 0.0
C2170 C 0.09473 0.75908 0.71898 0.0
C2171 C 0.09857 0.75489 0.74891 0.0
C2172 C 0.10497 0.74973 0.73967 0.0
H2173 H 0.09718 0.75997 -0.00246 0.0
H2174 H 0.0978 0.75438 0.93085 0.0
C2175 C 0.10808 0.7494 0.70106 0.0
C2176 C 0.09651 0.75673 0.78978 0.0
H2177 H 0.11007 0.77109 0.87208 0.0
C2178 C 0.08531 0.75212 0.80287 0.0
C2179 C 0.10556 0.76374 0.81484 0.0
C2180 C 0.11775 0.76945 0.80166 0.0
C2181 C 0.08292 0.75422 0.84074 0.0
C2182 C 0.09198 0.76116 0.86574 0.0
C2183 C 0.10316 0.76575 0.85267 0.0
C2184 C 0.09019 0.76357 0.90618 0.0
C2185 C 0.07079 0.74891 0.85401 0.0
C2186 C 0.08554 0.77049 0.91437 0.0
C2187 C 0.08519 0.77378 0.95277 0.0
C2188 C 0.08958 0.77025 0.98328 0.0
C2189 C 0.09385 0.76299 0.9748 0.0
C2190 C 0.09418 0.75972 0.93669 0.0
H2191 H 0.06488 0.74225 0.83358 0.0
H2192 H 0.06977 0.74514 0.88343 0.0
H2193 H 0.06837 0.75555 0.85593 0.0
H2194 H 0.08256 0.77366 0.89099 0.0
H2195 H 0.08183 0.77936 0.95834 0.0
H2196 H 0.25099 0.34119 0.99328 0.0
H2197 H 0.25681 0.34714 0.92654 0.0
H2198 H 0.24037 0.31224 0.88982 0.0
H2199 H 0.23425 0.30609 0.95701 0.0
H2200 H 0.26953 0.34293 0.87291 0.0
H2201 H 0.22504 0.32593 0.82433 0.0
H2202 H 0.22892 0.32725 0.87506 0.0
H2203 H 0.22795 0.31574 0.84659 0.0
C2204 C 0.2486 0.33471 0.97119 0.0
C2205 C 0.24196 0.32314 0.98046 0.0
C2206 C 0.25201 0.33817 0.93303 0.0
C2207 C 0.24887 0.33015 0.90325 0.0
C2208 C 0.2427 0.31856 0.91244 0.0
H2209 H 0.25502 0.33752 0.65466 0.0
H2210 H 0.25421 0.33126 0.72152 0.0
C2211 C 0.23925 0.31507 0.95081 0.0
C2212 C 0.25154 0.33407 0.8625 0.0
H2213 H 0.23925 0.33447 0.77654 0.0
C2214 C 0.26293 0.34105 0.85173 0.0
C2215 C 0.24288 0.33174 0.83524 0.0
C2216 C 0.2305 0.32484 0.84582 0.0
C2217 C 0.26586 0.34567 0.81413 0.0
C2218 C 0.2572 0.34326 0.78698 0.0
C2219 C 0.24585 0.33625 0.79765 0.0
C2220 C 0.25959 0.34768 0.74686 0.0
C2221 C 0.27816 0.353 0.80341 0.0
C2222 C 0.26315 0.35909 0.7391 0.0
C2223 C 0.26359 0.36275 0.70067 0.0
C2224 C 0.26036 0.35498 0.66975 0.0
C2225 C 0.2574 0.3437 0.6778 0.0
C2226 C 0.25698 0.3401 0.71597 0.0
H2227 H 0.28388 0.35286 0.82613 0.0
H2228 H 0.27994 0.35016 0.77534 0.0
H2229 H 0.28009 0.36187 0.79954 0.0
H2230 H 0.26508 0.36503 0.76279 0.0
H2231 H 0.26591 0.37148 0.6954 0.0
H2232 H 0.03895 0.44881 0.62465 0.0
H2233 H 0.03159 0.44347 0.55805 0.0
H2234 H 1.00005 0.41661 0.60345 0.0
H2235 H 0.00721 0.42194 0.66966 0.0
H2236 H 0.02147 0.42226 0.5146 0.0
H2237 H 0.99124 0.4375 0.54446 0.0
H2238 H 1.00316 0.44089 0.57563 0.0
H2239 H 0.9907 0.42714 0.57801 0.0
C2240 C 0.03053 0.44165 0.62032 0.0
C2241 C 0.02357 0.43593 0.6523 0.0
C2242 C 0.02634 0.43862 0.58237 0.0
C2243 C 0.0152 0.42983 0.5761 0.0
C2244 C 0.00857 0.42359 0.60784 0.0
H2245 H 0.97428 0.41137 0.36253 0.0
H2246 H 0.98029 0.41098 0.4297 0.0
C2247 C 0.01269 0.42665 0.6456 0.0
C2248 C 0.01018 0.42766 0.53676 0.0
H2249 H 0.99011 0.42942 0.48284 0.0
C2250 C 0.01459 0.42378 0.50761 0.0
C2251 C 1.00114 0.42959 0.52798 0.0
C2252 C 0.99631 0.43409 0.55801 0.0
C2253 C 0.01026 0.42187 0.46961 0.0
C2254 C 1.00144 0.42409 0.4606 0.0
C2255 C 0.99682 0.42767 0.49 0.0
C2256 C 0.99772 0.42393 0.42011 0.0
C2257 C 0.01519 0.41754 0.43935 0.0
C2258 C 1.00547 0.43151 0.39305 0.0
C2259 C 1.0021 0.43181 0.35508 0.0
C2260 C 0.99085 0.42456 0.34325 0.0
C2261 C 0.98301 0.41705 0.37064 0.0
C2262 C 0.98642 0.41678 0.40891 0.0
H2263 H 0.0192 0.41303 0.45298 0.0
H2264 H 0.0086 0.41173 0.41859 0.0
H2265 H 0.0218 0.42481 0.42266 0.0
H2266 H 0.01415 0.43731 0.40144 0.0
H2267 H 0.00838 0.43777 0.33502 0.0
H2268 H 0.59956 0.56355 0.36394 0.0
H2269 H 0.59964 0.56917 0.43193 0.0
H2270 H 0.57564 0.57984 0.40325 0.0
H2271 H 0.57554 0.57443 0.33588 0.0
H2272 H 0.59396 0.59545 0.44989 0.0
H2273 H 0.57291 0.55142 0.50804 0.0
H2274 H 0.58559 0.55589 0.48007 0.0
H2275 H 0.57316 0.55441 0.45674 0.0
C2276 C 0.59431 0.56709 0.37214 0.0
C2277 C 0.58748 0.56845 0.34444 0.0
C2278 C 0.59436 0.57028 0.41094 0.0
C2279 C 0.58758 0.57483 0.42247 0.0
C2280 C 0.58093 0.57635 0.39484 0.0
H2281 H 0.56438 0.59351 0.6272 0.0
H2282 H 0.56983 0.59164 0.5607 0.0
C2283 C 0.58086 0.57319 0.3563 0.0
C2284 C 0.58703 0.57778 0.46345 0.0
H2285 H 0.57697 0.56603 0.55257 0.0
C2286 C 0.59034 0.58906 0.47251 0.0
C2287 C 0.58224 0.56937 0.49263 0.0
C2288 C 0.57818 0.55707 0.48405 0.0
C2289 C 0.5889 0.59215 0.51012 0.0
C2290 C 0.58387 0.5837 0.53903 0.0
C2291 C 0.58081 0.57247 0.53018 0.0
C2292 C 0.58155 0.58618 0.57872 0.0
C2293 C 0.59276 0.60441 0.51863 0.0
C2294 C 0.58637 0.58377 0.61062 0.0
C2295 C 0.58321 0.58472 0.64835 0.0
C2296 C 0.57513 0.58807 0.655 0.0
C2297 C 0.57063 0.59093 0.62302 0.0
C2298 C 0.57378 0.58992 0.58507 0.0
H2299 H 0.59896 0.61014 0.49665 0.0
H2300 H 0.58534 0.60568 0.51799 0.0
H2301 H 0.59667 0.60685 0.54797 0.0
H2302 H 0.59237 0.58087 0.60627 0.0
H2303 H 0.58696 0.58258 0.67231 0.0
H2304 H 0.4239 0.00474 0.66691 0.0
H2305 H 0.42491 0.01155 0.6006 0.0
H2306 H 0.4218 0.98056 0.55574 0.0
H2307 H 0.42049 0.97353 0.62241 0.0
H2308 H 0.44194 0.01545 0.55205 0.0
H2309 H 0.40097 0.98529 0.4837 0.0
H2310 H 0.40308 0.98614 0.53579 0.0
H2311 H 0.40784 0.97845 0.50616 0.0
C2312 C 0.42324 0.99928 0.64291 0.0
C2313 C 0.42223 0.98865 0.64976 0.0
C2314 C 0.42379 1.00318 0.60506 0.0
C2315 C 0.4234 0.99656 0.57326 0.0
C2316 C 0.4219 0.98572 0.57987 0.0
H2317 H 0.44104 0.00551 0.33463 0.0
H2318 H 0.43507 0.99954 0.40122 0.0
C2319 C 0.42121 0.98173 0.61793 0.0
C2320 C 0.42585 1.00157 0.53375 0.0
H2321 H 0.41602 0.99732 0.44045 0.0
C2322 C 0.43621 0.01158 0.52772 0.0
C2323 C 0.41834 0.99651 0.50218 0.0
C2324 C 0.40689 0.98606 0.50728 0.0
C2325 C 0.43948 0.01641 0.4906 0.0
C2326 C 0.43213 0.01116 0.45881 0.0
C2327 C 0.42163 1.00133 0.46499 0.0
C2328 C 0.43563 0.01506 0.41838 0.0
C2329 C 0.45099 0.02679 0.48541 0.0
C2330 C 0.43794 0.02583 0.40595 0.0
C2331 C 0.44146 0.02936 0.36761 0.0
C2332 C 0.4426 0.02211 0.34119 0.0
C2333 C 0.44022 0.01132 0.354 0.0
C2334 C 0.43677 0.00786 0.39211 0.0
H2335 H 0.45642 0.02856 0.51154 0.0
H2336 H 0.45542 0.0258 0.45987 0.0
H2337 H 0.44997 0.03426 0.48012 0.0
H2338 H 0.43697 0.03146 0.42578 0.0
H2339 H 0.44315 0.03767 0.35859 0.0
H2340 H 0.5652 0.97149 0.62524 0.0
H2341 H 0.57098 0.97734 0.55757 0.0
H2342 H 0.58896 0.01233 0.59349 0.0
H2343 H 0.58342 0.00666 0.66057 0.0
H2344 H 0.56548 0.9914 0.51537 0.0
H2345 H 0.61202 0.01031 0.52353 0.0
H2346 H 0.60258 1.00094 0.56059 0.0
H2347 H 0.60653 0.01566 0.56017 0.0
C2348 C 0.5705 0.98041 0.61876 0.0
C2349 C 0.57379 0.9886 0.64833 0.0
C2350 C 0.57381 0.98373 0.58016 0.0
C2351 C 0.58055 0.99525 0.57074 0.0
C2352 C 0.58398 1.00339 0.60027 0.0
H2353 H 0.59614 0.03665 0.3645 0.0
H2354 H 0.59495 0.02969 0.43137 0.0
C2355 C 0.58069 1.00011 0.63862 0.0
C2356 C 0.58315 0.99898 0.52979 0.0
H2357 H 0.60486 0.01543 0.4679 0.0
C2358 C 0.57408 0.99651 0.5048 0.0
C2359 C 0.59439 0.00573 0.5163 0.0
C2360 C 0.60444 0.00823 0.54145 0.0
C2361 C 0.57596 1.00091 0.46696 0.0
C2362 C 0.58719 0.00785 0.45378 0.0
C2363 C 0.59628 0.01018 0.47843 0.0
C2364 C 0.5895 0.01247 0.41394 0.0
C2365 C 0.56593 0.99834 0.44153 0.0
C2366 C 0.58721 0.00514 0.38243 0.0
C2367 C 0.58784 0.00904 0.34456 0.0
C2368 C 0.5908 0.02036 0.33747 0.0
C2369 C 0.59379 0.02788 0.36906 0.0
C2370 C 0.59312 0.02394 0.40717 0.0
H2371 H 0.55789 0.99452 0.45831 0.0
H2372 H 0.56717 0.00617 0.42711 0.0
H2373 H 0.56511 0.99229 0.41839 0.0
H2374 H 0.58452 0.9963 0.38725 0.0
H2375 H 0.58566 1.00306 0.32086 0.0
H2376 H 0.99869 0.55745 0.34026 0.0
H2377 H 1.00565 0.56292 0.40661 0.0
H2378 H 0.9874 0.5811 0.4166 0.0
H2379 H 0.97994 0.57512 0.35041 0.0
H2380 H 0.01907 0.5837 0.43252 0.0
H2381 H 0.97898 0.56408 0.51738 0.0
H2382 H 0.97945 0.56074 0.46685 0.0
H2383 H 0.97996 0.57375 0.4801 0.0
C2384 C 0.99599 0.56243 0.35691 0.0
C2385 C 0.98876 0.56584 0.34046 0.0
C2386 C 1.00002 0.56561 0.3947 0.0
C2387 C 0.99705 0.57241 0.41664 0.0
C2388 C 0.98963 0.57567 0.40053 0.0
H2389 H 0.03645 0.60172 0.63289 0.0
H2390 H 0.02934 0.60054 0.56631 0.0
C2391 C 0.98539 0.57227 0.36279 0.0
C2392 C 1.00217 0.57632 0.45566 0.0
H2393 H 0.9959 0.5746 0.55242 0.0
C2394 C 0.01401 0.58176 0.45879 0.0
C2395 C 0.99554 0.57384 0.4898 0.0
C2396 C 0.98278 0.5677 0.48857 0.0
C2397 C 0.0194 0.58422 0.49516 0.0
C2398 C 0.01276 0.5815 0.5293 0.0
C2399 C 1.00096 0.57664 0.52612 0.0
C2400 C 0.01763 0.58247 0.5686 0.0
C2401 C 0.03206 0.58912 0.49663 0.0
C2402 C 0.0134 0.57274 0.59188 0.0
C2403 C 0.01728 0.57343 0.62979 0.0
C2404 C 0.02557 0.58385 0.64515 0.0
C2405 C 0.03014 0.59356 0.62149 0.0
C2406 C 0.02609 0.59289 0.58353 0.0
H2407 H 0.03551 0.58834 0.46822 0.0
H2408 H 0.03617 0.59825 0.50401 0.0
H2409 H 0.03439 0.58484 0.51928 0.0
H2410 H 0.00695 0.56459 0.58086 0.0
H2411 H 0.01366 0.56581 0.64733 0.0
H2412 H 0.44578 0.41026 0.36218 0.0
H2413 H 0.43941 0.40981 0.42943 0.0
H2414 H 0.43079 0.43536 0.40074 0.0
H2415 H 0.43695 0.43585 0.33422 0.0
H2416 H 0.44789 0.42814 0.48137 0.0
H2417 H 0.40221 0.4114 0.4553 0.0
H2418 H 0.41134 0.4102 0.41985 0.0
H2419 H 0.41102 0.42318 0.42442 0.0
C2420 C 0.44247 0.41573 0.37018 0.0
C2421 C 0.44186 0.42306 0.34269 0.0
C2422 C 0.4388 0.41543 0.40851 0.0
C2423 C 0.43439 0.42237 0.41968 0.0
C2424 C 0.43386 0.42971 0.39241 0.0
H2425 H 0.41939 0.44827 0.62457 0.0
H2426 H 0.42102 0.44261 0.55804 0.0
C2427 C 0.4375 0.43003 0.35437 0.0
C2428 C 0.43108 0.42268 0.46043 0.0
H2429 H 0.40959 0.42113 0.51605 0.0
C2430 C 0.43947 0.42641 0.48917 0.0
C2431 C 0.4201 0.4205 0.47031 0.0
C2432 C 0.41062 0.41599 0.44089 0.0
C2433 C 0.43732 0.42851 0.52726 0.0
C2434 C 0.42643 0.42664 0.53687 0.0
C2435 C 0.41794 0.42261 0.50843 0.0
C2436 C 0.42386 0.42903 0.57632 0.0
C2437 C 0.44686 0.43317 0.55651 0.0
C2438 C 0.42444 0.42296 0.60821 0.0
C2439 C 0.42361 0.42621 0.64594 0.0
C2440 C 0.42204 0.43552 0.65246 0.0
C2441 C 0.42063 0.44109 0.62039 0.0
C2442 C 0.42157 0.43788 0.58247 0.0
H2443 H 0.45524 0.43648 0.54229 0.0
H2444 H 0.44694 0.44007 0.57392 0.0
H2445 H 0.44564 0.42632 0.57682 0.0
H2446 H 0.42595 0.41595 0.60393 0.0
H2447 H 0.42451 0.4216 0.67008 0.0
H2448 H 0.08424 0.29878 0.21714 0.0
H2449 H 0.09043 0.30884 0.27996 0.0
H2450 H 0.09874 0.3402 0.22271 0.0
H2451 H 0.09271 0.33039 0.16067 0.0
H2452 H 0.11348 0.32964 0.29574 0.0
H2453 H 0.07698 0.33657 0.31566 0.0
H2454 H 0.0763 0.32543 0.28525 0.0
H2455 H 0.08326 0.33979 0.26795 0.0
C2456 C 0.08734 0.3078 0.21816 0.0
C2457 C 0.08797 0.31379 0.18407 0.0
C2458 C 0.09089 0.31352 0.25388 0.0
C2459 C 0.09494 0.32523 0.25581 0.0
C2460 C 0.09554 0.33116 0.22182 0.0
H2461 H 0.11898 0.37777 0.43385 0.0
H2462 H 0.11481 0.36775 0.37098 0.0
C2463 C 0.09211 0.32551 0.18637 0.0
C2464 C 0.09874 0.3315 0.29293 0.0
H2465 H 0.09288 0.34711 0.35654 0.0
C2466 C 0.10895 0.33338 0.30933 0.0
C2467 C 0.09285 0.33646 0.31012 0.0
C2468 C 0.08168 0.33442 0.29412 0.0
C2469 C 0.11351 0.34028 0.34234 0.0
C2470 C 0.10765 0.3453 0.35937 0.0
C2471 C 0.09742 0.34337 0.34302 0.0
C2472 C 0.11145 0.3518 0.39608 0.0
C2473 C 0.12466 0.34231 0.35845 0.0
C2474 C 0.111 0.34615 0.43062 0.0
C2475 C 0.11323 0.35176 0.46619 0.0
C2476 C 0.11602 0.36317 0.46798 0.0
C2477 C 0.11692 0.369 0.43323 0.0
C2478 C 0.11452 0.36329 0.39745 0.0
H2479 H 0.12939 0.34018 0.33691 0.0
H2480 H 0.13003 0.35129 0.36745 0.0
H2481 H 0.12306 0.33692 0.38454 0.0
H2482 H 0.1085 0.33726 0.43022 0.0
H2483 H 0.11249 0.34704 0.49238 0.0
H2484 H 0.63369 0.74542 0.43382 0.0
H2485 H 0.64403 0.75095 0.37148 0.0
H2486 H 0.67572 0.76586 0.43348 0.0
H2487 H 0.66561 0.76044 0.49518 0.0
H2488 H 0.6619 0.77422 0.348 0.0
H2489 H 0.67712 0.74331 0.35425 0.0
H2490 H 0.66514 0.7416 0.38215 0.0
H2491 H 0.67928 0.75146 0.39781 0.0
C2492 C 0.64285 0.74986 0.43402 0.0
C2493 C 0.64883 0.75245 0.46935 0.0
C2494 C 0.64873 0.75301 0.39852 0.0
C2495 C 0.66062 0.75867 0.39804 0.0
C2496 C 0.66655 0.76135 0.43326 0.0
H2497 H 0.71293 0.78347 0.21783 0.0
H2498 H 0.70292 0.77911 0.28072 0.0
C2499 C 0.66073 0.75827 0.46851 0.0
C2500 C 0.66699 0.76198 0.36098 0.0
H2501 H 0.6852 0.75753 0.30566 0.0
C2502 C 0.66693 0.77053 0.33851 0.0
C2503 C 0.67366 0.75724 0.34914 0.0
C2504 C 0.67378 0.74783 0.37186 0.0
C2505 C 0.6735 0.77458 0.30457 0.0
C2506 C 0.68012 0.76978 0.29256 0.0
C2507 C 0.6802 0.76125 0.31514 0.0
C2508 C 0.68636 0.77291 0.25516 0.0
C2509 C 0.67345 0.78408 0.2822 0.0
C2510 C 0.68034 0.77076 0.22024 0.0
C2511 C 0.68597 0.77319 0.18467 0.0
C2512 C 0.69778 0.7778 0.18315 0.0
C2513 C 0.70385 0.77998 0.21815 0.0
C2514 C 0.69815 0.77749 0.25397 0.0
H2515 H 0.67073 0.78896 0.30078 0.0
H2516 H 0.68196 0.78998 0.2701 0.0
H2517 H 0.66741 0.78046 0.25758 0.0
H2518 H 0.67122 0.767 0.22046 0.0
H2519 H 0.68101 0.77133 0.15829 0.0
H2520 H 0.2402 0.91153 0.15647 0.0
H2521 H 0.24419 0.90542 0.21789 0.0
H2522 H 0.23248 0.92504 0.28045 0.0
H2523 H 0.22817 0.93108 0.21833 0.0
H2524 H 0.25921 0.91906 0.27332 0.0
H2525 H 0.21591 0.89423 0.33516 0.0
H2526 H 0.21845 0.89839 0.28459 0.0
H2527 H 0.22 0.90847 0.32125 0.0
C2528 C 0.23834 0.91449 0.18319 0.0
C2529 C 0.23384 0.92178 0.18253 0.0
C2530 C 0.24066 0.91098 0.21833 0.0
C2531 C 0.23855 0.91468 0.25372 0.0
C2532 C 0.23398 0.92192 0.2534 0.0
H2533 H 0.25243 0.90837 0.49219 0.0
H2534 H 0.24649 0.91196 0.42977 0.0
C2535 C 0.23158 0.92541 0.21798 0.0
C2536 C 0.24172 0.91132 0.29056 0.0
H2537 H 0.23114 0.89716 0.37608 0.0
C2538 C 0.25307 0.91422 0.29575 0.0
C2539 C 0.23368 0.90497 0.31959 0.0
C2540 C 0.22131 0.90123 0.31488 0.0
C2541 C 0.25665 0.91117 0.32961 0.0
C2542 C 0.24863 0.90489 0.35879 0.0
C2543 C 0.23726 0.90191 0.35349 0.0
C2544 C 0.252 0.90215 0.39643 0.0
C2545 C 0.26905 0.91501 0.33439 0.0
C2546 C 0.25699 0.8953 0.39854 0.0
C2547 C 0.26049 0.89322 0.43453 0.0
C2548 C 0.25896 0.89794 0.46877 0.0
C2549 C 0.25376 0.9046 0.46641 0.0
C2550 C 0.25031 0.90666 0.43071 0.0
H2551 H 0.2744 0.92173 0.31315 0.0
H2552 H 0.27197 0.91828 0.36428 0.0
H2553 H 0.27036 0.9077 0.32965 0.0
H2554 H 0.2582 0.89158 0.37241 0.0
H2555 H 0.26441 0.88801 0.43553 0.0
H2556 H 0.34749 0.10456 0.49576 0.0
H2557 H 0.33778 0.10093 0.55773 0.0
H2558 H 0.36979 0.11611 0.61794 0.0
H2559 H 0.37975 0.12006 0.55501 0.0
H2560 H 0.3388 0.08724 0.61526 0.0
H2561 H 0.3528 0.13066 0.6701 0.0
H2562 H 0.35428 0.12782 0.61971 0.0
H2563 H 0.36388 0.12792 0.65567 0.0
C2564 C 0.35255 0.1073 0.522 0.0
C2565 C 0.36442 0.1126 0.52046 0.0
C2566 C 0.34694 0.10519 0.55748 0.0
C2567 C 0.35304 0.10828 0.59236 0.0
C2568 C 0.36493 0.1138 0.5912 0.0
H2569 H 0.33263 0.09506 0.83146 0.0
H2570 H 0.3424 0.10134 0.76947 0.0
C2571 C 0.37061 0.11601 0.55536 0.0
C2572 C 0.34673 0.10497 0.62958 0.0
H2573 H 0.34136 0.11539 0.71216 0.0
C2574 C 0.33934 0.09339 0.63645 0.0
C2575 C 0.34743 0.11302 0.65695 0.0
C2576 C 0.35495 0.12557 0.65029 0.0
C2577 C 0.33271 0.08962 0.67028 0.0
C2578 C 0.33338 0.09767 0.69765 0.0
C2579 C 0.34079 0.10926 0.69085 0.0
C2580 C 0.32712 0.09418 0.73495 0.0
C2581 C 0.32528 0.07706 0.67692 0.0
C2582 C 0.31523 0.08817 0.73614 0.0
C2583 C 0.30954 0.0845 0.77185 0.0
C2584 C 0.3157 0.08686 0.80668 0.0
C2585 C 0.3276 0.09308 0.8052 0.0
C2586 C 0.33323 0.09672 0.76977 0.0
H2587 H 0.3275 0.07201 0.65712 0.0
H2588 H 0.32597 0.07481 0.70747 0.0
H2589 H 0.31633 0.07461 0.67147 0.0
H2590 H 0.31036 0.08626 0.7095 0.0
H2591 H 0.30037 0.07978 0.77217 0.0
H2592 H 0.91807 0.2419 0.82663 0.0
H2593 H 0.91228 0.24607 0.76496 0.0
H2594 H 0.92768 0.22965 0.7035 0.0
H2595 H 0.93366 0.22541 0.766 0.0
H2596 H 0.93326 0.25157 0.67472 0.0
H2597 H 0.88688 0.22395 0.69272 0.0
H2598 H 0.89369 0.23307 0.73356 0.0
H2599 H 0.89702 0.22224 0.72141 0.0
C2600 C 0.92018 0.23905 0.80014 0.0
C2601 C 0.92627 0.23324 0.8012 0.0
C2602 C 0.91679 0.24141 0.76487 0.0
C2603 C 0.91935 0.23798 0.72979 0.0
C2604 C 0.92553 0.23226 0.73045 0.0
H2605 H 0.90836 0.24772 0.49052 0.0
H2606 H 0.91324 0.24264 0.55234 0.0
C2607 C 0.92894 0.22985 0.76602 0.0
C2608 C 0.91596 0.24091 0.69266 0.0
H2609 H 0.89299 0.23783 0.64234 0.0
C2610 C 0.92446 0.24849 0.66741 0.0
C2611 C 0.90447 0.23698 0.68356 0.0
C2612 C 0.89497 0.22853 0.70905 0.0
C2613 C 0.92178 0.25239 0.63351 0.0
C2614 C 0.91029 0.24847 0.62446 0.0
C2615 C 0.90179 0.24089 0.64966 0.0
C2616 C 0.90697 0.2515 0.58739 0.0
C2617 C 0.93126 0.26079 0.60787 0.0
C2618 C 0.90151 0.25792 0.5867 0.0
C2619 C 0.89863 0.26085 0.55106 0.0
C2620 C 0.90112 0.25729 0.51588 0.0
C2621 C 0.90636 0.25066 0.51703 0.0
C2622 C 0.90922 0.24778 0.55236 0.0
H2623 H 0.93944 0.26514 0.62372 0.0
H2624 H 0.93225 0.25626 0.58269 0.0
H2625 H 0.92934 0.26727 0.59644 0.0
H2626 H 0.89963 0.26078 0.61364 0.0
H2627 H 0.89457 0.26594 0.55101 0.0
H2628 H 0.78834 0.71109 0.76774 0.0
H2629 H 0.78432 0.70107 0.70483 0.0
H2630 H 0.76795 0.66904 0.76505 0.0
H2631 H 0.77182 0.67879 0.82714 0.0
H2632 H 0.78995 0.68294 0.68042 0.0
H2633 H 0.74394 0.6683 0.68633 0.0
H2634 H 0.75432 0.68028 0.714 0.0
H2635 H 0.74986 0.66612 0.73002 0.0
C2636 C 0.78394 0.70193 0.76742 0.0
C2637 C 0.78034 0.69575 0.80234 0.0
C2638 C 0.78166 0.69623 0.73161 0.0
C2639 C 0.77571 0.68433 0.7305 0.0
C2640 C 0.77241 0.67821 0.76534 0.0
H2641 H 0.74728 0.632 0.55119 0.0
H2642 H 0.75359 0.64203 0.61385 0.0
C2643 C 0.77468 0.68384 0.80084 0.0
C2644 C 0.77267 0.67809 0.69321 0.0
H2645 H 0.74993 0.66003 0.638 0.0
C2646 C 0.78123 0.678 0.67088 0.0
C2647 C 0.76126 0.67155 0.68131 0.0
C2648 C 0.7518 0.67159 0.70393 0.0
C2649 C 0.77863 0.67138 0.63702 0.0
C2650 C 0.7672 0.66485 0.62508 0.0
C2651 C 0.75867 0.66496 0.64749 0.0
C2652 C 0.764 0.65855 0.58785 0.0
C2653 C 0.78809 0.67127 0.61465 0.0
C2654 C 0.76772 0.66454 0.55279 0.0
C2655 C 0.76411 0.65889 0.51736 0.0
C2656 C 0.75667 0.64712 0.51614 0.0
C2657 C 0.75305 0.64106 0.55128 0.0
C2658 C 0.75664 0.64677 0.58697 0.0
H2659 H 0.79572 0.67404 0.63306 0.0
H2660 H 0.78539 0.66269 0.60303 0.0
H2661 H 0.79049 0.6772 0.58967 0.0
H2662 H 0.7732 0.67365 0.55282 0.0
H2663 H 0.76703 0.66384 0.49088 0.0
H2664 H 0.89508 0.63274 0.55105 0.0
H2665 H 0.89974 0.64336 0.61265 0.0
H2666 H 0.9084 0.67395 0.54924 0.0
H2667 H 0.90411 0.66361 0.48833 0.0
H2668 H 0.92492 0.67669 0.59997 0.0
H2669 H 0.88299 0.65642 0.67307 0.0
H2670 H 0.8875 0.64673 0.6573 0.0
H2671 H 0.8846 0.65463 0.62179 0.0
C2672 C 0.89785 0.64169 0.55044 0.0
C2673 C 0.89924 0.64733 0.51488 0.0
C2674 C 0.90045 0.64774 0.58556 0.0
C2675 C 0.90433 0.65943 0.58543 0.0
C2676 C 0.90543 0.66495 0.54999 0.0
H2677 H 0.93075 0.71214 0.76728 0.0
H2678 H 0.92432 0.70249 0.70396 0.0
C2679 C 0.90294 0.65898 0.51515 0.0
C2680 C 0.90797 0.6662 0.62168 0.0
H2681 H 0.89882 0.66934 0.71077 0.0
C2682 C 0.91921 0.67514 0.62415 0.0
C2683 C 0.90046 0.66419 0.65294 0.0
C2684 C 0.88819 0.65504 0.65117 0.0
C2685 C 0.92324 0.68192 0.65755 0.0
C2686 C 0.91578 0.67979 0.68906 0.0
C2687 C 0.9045 0.67097 0.68639 0.0
C2688 C 0.91974 0.6859 0.72648 0.0
C2689 C 0.93553 0.69105 0.65939 0.0
C2690 C 0.91918 0.67975 0.75983 0.0
C2691 C 0.92274 0.68517 0.79558 0.0
C2692 C 0.92695 0.69688 0.79889 0.0
C2693 C 0.92761 0.70312 0.76546 0.0
C2694 C 0.92396 0.69763 0.7294 0.0
H2695 H 0.9406 0.69017 0.63575 0.0
H2696 H 0.93618 0.69945 0.65637 0.0
H2697 H 0.93928 0.69085 0.68786 0.0
H2698 H 0.916 0.67072 0.75817 0.0
H2699 H 0.92217 0.68011 0.82074 0.0
H2700 H 0.30029 0.22589 0.76881 0.0
H2701 H 0.31016 0.22961 0.70577 0.0
H2702 H 0.34074 0.23627 0.76498 0.0
H2703 H 0.33111 0.23273 0.82728 0.0
H2704 H 0.33061 0.2513 0.68934 0.0
H2705 H 0.33776 0.2148 0.67397 0.0
H2706 H 0.32678 0.21437 0.7046 0.0
H2707 H 0.34121 0.22153 0.72092 0.0
C2708 C 0.30905 0.22794 0.76817 0.0
C2709 C 0.31493 0.22906 0.80295 0.0
C2710 C 0.31467 0.23007 0.73229 0.0
C2711 C 0.32614 0.23309 0.73084 0.0
C2712 C 0.33185 0.23378 0.76544 0.0
H2713 H 0.37906 0.25978 0.55152 0.0
H2714 H 0.36895 0.25341 0.61423 0.0
C2715 C 0.32632 0.23182 0.80109 0.0
C2716 C 0.33256 0.23662 0.69392 0.0
H2717 H 0.34829 0.23048 0.63168 0.0
C2718 C 0.33439 0.2467 0.67651 0.0
C2719 C 0.33763 0.2307 0.67778 0.0
C2720 C 0.3357 0.21969 0.69503 0.0
C2721 C 0.34127 0.25108 0.64345 0.0
C2722 C 0.3463 0.24513 0.62714 0.0
C2723 C 0.34451 0.23507 0.64459 0.0
C2724 C 0.35255 0.24873 0.58994 0.0
C2725 C 0.34322 0.26211 0.62635 0.0
C2726 C 0.34662 0.24803 0.55589 0.0
C2727 C 0.35229 0.25159 0.52053 0.0
C2728 C 0.36405 0.25593 0.51834 0.0
C2729 C 0.37002 0.25652 0.55242 0.0
C2730 C 0.36427 0.25287 0.58809 0.0
H2731 H 0.34112 0.26697 0.64742 0.0
H2732 H 0.35216 0.26746 0.61699 0.0
H2733 H 0.33776 0.26031 0.60034 0.0
H2734 H 0.33757 0.24474 0.5567 0.0
H2735 H 0.34741 0.25099 0.49488 0.0
H2736 H 0.7684 0.09344 0.82896 0.0
H2737 H 0.76398 0.09904 0.76731 0.0
H2738 H 0.78178 0.08507 0.70589 0.0
H2739 H 0.78618 0.07921 0.76825 0.0
H2740 H 0.77845 0.1135 0.71129 0.0
H2741 H 0.75079 0.07022 0.65223 0.0
H2742 H 0.75504 0.07276 0.70268 0.0
H2743 H 0.76475 0.07335 0.66612 0.0
C2744 C 0.7714 0.09152 0.80243 0.0
C2745 C 0.77763 0.08585 0.80344 0.0
C2746 C 0.76886 0.09476 0.76718 0.0
C2747 C 0.77246 0.09239 0.73206 0.0
C2748 C 0.77878 0.08681 0.73275 0.0
H2749 H 0.76432 0.10512 0.49374 0.0
H2750 H 0.76962 0.10068 0.55586 0.0
C2751 C 0.78132 0.08351 0.76828 0.0
C2752 C 0.76952 0.09588 0.69508 0.0
H2753 H 0.75436 0.08558 0.61128 0.0
C2754 C 0.77319 0.10741 0.68937 0.0
C2755 C 0.76255 0.08788 0.66684 0.0
C2756 C 0.75795 0.07535 0.67225 0.0
C2757 C 0.77022 0.11119 0.65578 0.0
C2758 C 0.7633 0.1032 0.6275 0.0
C2759 C 0.75962 0.09167 0.63323 0.0
C2760 C 0.76039 0.10663 0.5904 0.0
C2761 C 0.77469 0.1237 0.65035 0.0
C2762 C 0.75347 0.11156 0.58924 0.0
C2763 C 0.75041 0.11419 0.55338 0.0
C2764 C 0.7542 0.11185 0.51844 0.0
C2765 C 0.76124 0.10705 0.52004 0.0
C2766 C 0.76428 0.10447 0.55557 0.0
H2767 H 0.78158 0.12888 0.67126 0.0
H2768 H 0.77794 0.12634 0.62026 0.0
H2769 H 0.76772 0.12553 0.65495 0.0
H2770 H 0.75028 0.11315 0.61594 0.0
H2771 H 0.74496 0.11784 0.55298 0.0
H2772 H 0.71353 0.93344 0.22107 0.0
H2773 H 0.70374 0.92758 0.28437 0.0
H2774 H 0.67212 0.90655 0.22531 0.0
H2775 H 0.68165 0.91233 0.16285 0.0
H2776 H 0.68466 0.93065 0.3059 0.0
H2777 H 0.67343 0.88552 0.30992 0.0
H2778 H 0.6847 0.89594 0.27981 0.0
H2779 H 0.67022 0.88994 0.26476 0.0
C2780 C 0.70453 0.92746 0.22176 0.0
C2781 C 0.69838 0.92334 0.18701 0.0
C2782 C 0.69896 0.92414 0.2578 0.0
C2783 C 0.68724 0.91652 0.25936 0.0
C2784 C 0.68119 0.91227 0.22473 0.0
H2785 H 0.63412 0.89026 0.43665 0.0
H2786 H 0.64453 0.8949 0.3744 0.0
C2787 C 0.68668 0.91565 0.18899 0.0
C2788 C 0.68102 0.91354 0.2967 0.0
H2789 H 0.66378 0.8911 0.35474 0.0
C2790 C 0.6802 0.92204 0.31687 0.0
C2791 C 0.67507 0.90226 0.31045 0.0
C2792 C 0.67595 0.89288 0.29034 0.0
C2793 C 0.67341 0.9195 0.3502 0.0
C2794 C 0.66743 0.90821 0.36388 0.0
C2795 C 0.66828 0.89972 0.34382 0.0
C2796 C 0.66099 0.90528 0.40074 0.0
C2797 C 0.67252 0.92888 0.37022 0.0
C2798 C 0.66683 0.90946 0.43577 0.0
C2799 C 0.66099 0.90682 0.4709 0.0
C2800 C 0.64914 0.89991 0.47184 0.0
C2801 C 0.64324 0.89564 0.43672 0.0
C2802 C 0.64916 0.89826 0.4013 0.0
H2803 H 0.6753 0.93636 0.35098 0.0
H2804 H 0.66369 0.92589 0.37976 0.0
H2805 H 0.67799 0.93162 0.39645 0.0
H2806 H 0.67597 0.91476 0.43593 0.0
H2807 H 0.66581 0.91026 0.49741 0.0
H2808 H 0.11876 0.74356 0.43519 0.0
H2809 H 0.11474 0.74931 0.3719 0.0
H2810 H 0.10829 0.77357 0.4299 0.0
H2811 H 0.11214 0.76788 0.49242 0.0
H2812 H 0.09302 0.74787 0.35602 0.0
H2813 H 0.12919 0.79154 0.3373 0.0
H2814 H 0.12982 0.78122 0.36863 0.0
H2815 H 0.12271 0.78859 0.38466 0.0
C2816 C 0.11669 0.75026 0.43421 0.0
C2817 C 0.11572 0.75524 0.46872 0.0
C2818 C 0.11439 0.75352 0.39819 0.0
C2819 C 0.11134 0.76195 0.39634 0.0
C2820 C 0.1108 0.76719 0.43066 0.0
H2821 H 0.08379 0.78771 0.21924 0.0
H2822 H 0.0902 0.78377 0.28147 0.0
C2823 C 0.11294 0.76385 0.46645 0.0
C2824 C 0.1076 0.76459 0.35941 0.0
H2825 H 0.11316 0.78618 0.29653 0.0
C2826 C 0.09747 0.75621 0.34275 0.0
C2827 C 0.11335 0.77553 0.34268 0.0
C2828 C 0.12442 0.78473 0.35898 0.0
C2829 C 0.09284 0.75852 0.30997 0.0
C2830 C 0.09859 0.76945 0.29322 0.0
C2831 C 0.10873 0.77785 0.30982 0.0
C2832 C 0.09467 0.77197 0.25646 0.0
C2833 C 0.08177 0.7493 0.29372 0.0
C2834 C 0.0952 0.76671 0.22219 0.0
C2835 C 0.09163 0.76895 0.18709 0.0
C2836 C 0.08745 0.77651 0.18541 0.0
C2837 C 0.08691 0.78181 0.21978 0.0
C2838 C 0.09059 0.7796 0.25516 0.0
H2839 H 0.07711 0.74238 0.31512 0.0
H2840 H 0.07628 0.75277 0.28484 0.0
H2841 H 0.08346 0.74561 0.26753 0.0
H2842 H 0.09844 0.7609 0.22257 0.0
H2843 H 0.09215 0.76471 0.16116 0.0
H2844 H 0.2386 0.33062 0.15782 0.0
H2845 H 0.24245 0.34042 0.21968 0.0
H2846 H 0.23158 0.30898 0.28058 0.0
H2847 H 0.2274 0.29888 0.2178 0.0
H2848 H 0.22383 0.32386 0.31292 0.0
H2849 H 0.27013 0.34639 0.28569 0.0
H2850 H 0.26201 0.34757 0.24673 0.0
H2851 H 0.2603 0.33396 0.25868 0.0
C2852 C 0.23691 0.3257 0.1842 0.0
C2853 C 0.23278 0.31396 0.18287 0.0
C2854 C 0.23918 0.33136 0.2196 0.0
C2855 C 0.23754 0.32548 0.25455 0.0
C2856 C 0.23298 0.31367 0.25372 0.0
H2857 H 0.25151 0.34626 0.49299 0.0
H2858 H 0.24484 0.33626 0.43172 0.0
C2859 C 0.23061 0.30792 0.21798 0.0
C2860 C 0.24094 0.33189 0.29153 0.0
H2861 H 0.2638 0.35302 0.33855 0.0
C2862 C 0.23257 0.33018 0.31874 0.0
C2863 C 0.25234 0.34019 0.29873 0.0
C2864 C 0.26174 0.3421 0.27111 0.0
C2865 C 0.23529 0.33671 0.35284 0.0
C2866 C 0.2467 0.34503 0.35998 0.0
C2867 C 0.25505 0.34674 0.33272 0.0
C2868 C 0.25031 0.35136 0.39711 0.0
C2869 C 0.22593 0.33476 0.38069 0.0
C2870 C 0.25586 0.36326 0.39792 0.0
C2871 C 0.25978 0.36911 0.43327 0.0
C2872 C 0.25828 0.36309 0.46805 0.0
C2873 C 0.25273 0.35119 0.46684 0.0
C2874 C 0.24883 0.34541 0.43181 0.0
H2875 H 0.21756 0.33069 0.36597 0.0
H2876 H 0.22553 0.32904 0.40439 0.0
H2877 H 0.22749 0.34283 0.39403 0.0
H2878 H 0.25719 0.368 0.37123 0.0
H2879 H 0.26405 0.37827 0.43334 0.0
H2880 H 0.04814 0.45331 0.8881 0.0
H2881 H 0.03817 0.44901 0.9512 0.0
H2882 H 1.00616 0.4306 0.89176 0.0
H2883 H 0.01587 0.4347 0.8296 0.0
H2884 H 0.01986 0.45359 0.97544 0.0
H2885 H 1.00616 0.40779 0.97212 0.0
H2886 H 0.0177 0.41815 0.94281 0.0
H2887 H 1.00331 0.41308 0.9282 0.0
C2888 C 0.03899 0.44836 0.88866 0.0
C2889 C 0.03281 0.44429 0.85393 0.0
C2890 C 0.03332 0.44593 0.92457 0.0
C2891 C 0.02145 0.43934 0.92597 0.0
C2892 C 0.01532 0.43553 0.8913 0.0
H2893 H 0.96873 0.41118 0.10385 0.0
H2894 H 0.97901 0.4172 0.04151 0.0
C2895 C 0.02092 0.43794 0.85574 0.0
C2896 C 0.01525 0.43632 0.96335 0.0
H2897 H 0.99726 0.4136 0.01893 0.0
C2898 C 0.01501 0.44488 0.98524 0.0
C2899 C 0.00882 0.42492 0.97563 0.0
C2900 C 0.00905 0.41545 0.95369 0.0
C2901 C 0.00831 0.44228 0.0189 0.0
C2902 C 1.00185 0.43086 0.03109 0.0
C2903 C 1.00213 0.42233 0.00922 0.0
C2904 C 0.99542 0.42768 0.06805 0.0
C2905 C 0.00804 0.45173 0.04077 0.0
C2906 C 1.00127 0.43149 0.10327 0.0
C2907 C 0.99548 0.42805 0.1385 0.0
C2908 C 0.9837 0.42068 0.13936 0.0
C2909 C 0.97779 0.41689 0.10404 0.0
C2910 C 0.98364 0.42032 0.06854 0.0
H2911 H 0.01083 0.45935 0.02219 0.0
H2912 H 0.9994 0.44899 0.0519 0.0
H2913 H 0.01385 0.45419 0.06607 0.0
H2914 H 0.01038 0.43696 0.10355 0.0
H2915 H 1.00033 0.43109 0.16514 0.0
H2916 H 0.57907 0.56977 0.16667 0.0
H2917 H 0.57308 0.57412 0.10573 0.0
H2918 H 0.5957 0.56635 0.04265 0.0
H2919 H 0.60157 0.5616 0.10424 0.0
H2920 H 0.58637 0.59079 0.0554 0.0
H2921 H 0.56636 0.54902 0.9813 0.0
H2922 H 0.56974 0.55063 0.03257 0.0
H2923 H 0.58065 0.55404 -0.00304 0.0
C2924 C 0.5827 0.56882 0.13991 0.0
C2925 C 0.5908 0.56531 0.14027 0.0
C2926 C 0.57927 0.57135 0.10504 0.0
C2927 C 0.58387 0.57049 0.06965 0.0
C2928 C 0.59188 0.56686 0.06965 0.0
H2929 H 0.58051 0.58794 0.83408 0.0
H2930 H 0.5841 0.58216 0.89679 0.0
C2931 C 0.59527 0.56421 0.10478 0.0
C2932 C 0.58063 0.57399 0.03332 0.0
H2933 H 0.56879 0.56471 0.94376 0.0
C2934 C 0.58246 0.58508 0.03103 0.0
C2935 C 0.57547 0.56649 0.00179 0.0
C2936 C 0.57283 0.55435 0.00326 0.0
C2937 C 0.57956 0.58897 -0.00241 0.0
C2938 C 0.57456 0.58152 0.96583 0.0
C2939 C 0.57258 0.57038 0.96831 0.0
C2940 C 0.57227 0.58535 0.92837 0.0
C2941 C 0.58221 0.60111 -0.00399 0.0
C2942 C 0.56443 0.58916 0.92532 0.0
C2943 C 0.56238 0.59259 0.88915 0.0
C2944 C 0.56808 0.59212 0.85575 0.0
C2945 C 0.57592 0.58835 0.85921 0.0
C2946 C 0.57799 0.58501 0.89505 0.0
H2947 H 0.58802 0.6063 0.01977 0.0
H2948 H 0.58611 0.60503 0.96763 0.0
H2949 H 0.57424 0.60136 -0.00094 0.0
H2950 H 0.55981 0.58933 0.9507 0.0
H2951 H 0.55624 0.5954 0.88721 0.0
H2952 H 0.4407 0.0135 0.16215 0.0
H2953 H 0.43661 1.00363 0.10033 0.0
H2954 H 0.44813 0.03517 0.03925 0.0
H2955 H 0.45254 0.04531 0.10187 0.0
H2956 H 0.42136 1.0026 0.04567 0.0
H2957 H 0.46456 0.02086 0.98291 0.0
H2958 H 0.46213 0.02225 0.0338 0.0
H2959 H 0.46054 0.03098 -0.00192 0.0
C2960 C 0.44251 0.01843 0.13569 0.0
C2961 C 0.44697 0.03022 0.13693 0.0
C2962 C 0.44013 0.01273 0.10031 0.0
C2963 C 0.44212 0.01865 0.06523 0.0
C2964 C 0.4467 0.03046 0.06607 0.0
H2965 H 0.42831 0.99748 0.8268 0.0
H2966 H 0.43405 0.00743 0.88858 0.0
C2967 C 0.44916 0.03623 0.10176 0.0
C2968 C 0.43884 0.0122 0.02823 0.0
H2969 H 0.44927 0.0083 0.94295 0.0
C2970 C 0.42746 1.00382 0.0232 0.0
C2971 C 0.44683 0.01379 -0.00084 0.0
C2972 C 0.45922 0.02239 0.00371 0.0
C2973 C 0.4238 0.9971 0.98955 0.0
C2974 C 0.43179 0.99867 0.96046 0.0
C2975 C 0.44318 0.00705 0.9655 0.0
C2976 C 0.42839 0.99231 0.9233 0.0
C2977 C 0.41138 0.98858 0.98499 0.0
C2978 C 0.42334 0.98044 0.92221 0.0
C2979 C 0.41996 0.97464 0.8866 0.0
C2980 C 0.42166 0.98067 0.85173 0.0
C2981 C 0.42686 0.99255 0.8531 0.0
C2982 C 0.43019 0.99829 0.88843 0.0
H2983 H 0.40608 0.99017 0.00575 0.0
H2984 H 0.40848 0.98874 0.9549 0.0
H2985 H 0.40997 0.97996 0.99069 0.0
H2986 H 0.42205 0.97568 0.94883 0.0
H2987 H 0.41603 0.9655 0.88637 0.0
H2988 H 0.57972 0.99705 0.82748 0.0
H2989 H 0.5835 0.00703 0.88914 0.0
H2990 H 0.56041 0.97578 0.94712 0.0
H2991 H 0.55672 0.96556 0.88487 0.0
H2992 H 0.56891 0.00944 0.93717 0.0
H2993 H 0.5889 0.98795 0.0135 0.0
H2994 H 0.58635 0.98667 0.96169 0.0
H2995 H 0.57494 0.97865 -0.00494 0.0
C2996 C 0.57544 0.99224 0.85331 0.0
C2997 C 0.56793 0.9805 0.85139 0.0
C2998 C 0.57761 0.99799 0.88854 0.0
C2999 C 0.57231 0.99215 0.92273 0.0
C3000 C 0.56474 0.98041 0.9211 0.0
H3001 H 0.57775 0.01369 0.16045 0.0
H3002 H 0.57203 1.00394 0.0984 0.0
C3003 C 0.5626 0.97459 0.88561 0.0
C3004 C 0.57479 0.99855 0.95972 0.0
H3005 H 0.58638 1.00122 0.04977 0.0
C3006 C 0.57271 0.00764 0.96188 0.0
C3007 C 0.57985 0.99624 0.99167 0.0
C3008 C 0.58275 0.98692 0.99043 0.0
C3009 C 0.57542 0.01441 -0.00463 0.0
C3010 C 0.58046 0.01209 0.0273 0.0
C3011 C 0.58253 1.00299 0.02515 0.0
C3012 C 0.58326 0.01862 0.06406 0.0
C3013 C 0.57269 0.02385 -0.00342 0.0
C3014 C 0.59135 0.03023 0.06536 0.0
C3015 C 0.59459 0.03594 0.10117 0.0
C3016 C 0.58989 0.03003 0.136 0.0
C3017 C 0.58159 0.0185 0.13426 0.0
C3018 C 0.5783 0.01288 0.09874 0.0
H3019 H 0.56654 0.02287 0.97358 0.0
H3020 H 0.56917 0.02418 0.02539 0.0
H3021 H 0.58057 0.03205 0.99185 0.0
H3022 H 0.59542 0.03477 0.03891 0.0
H3023 H 0.60106 0.0448 0.10172 0.0
H3024 H 0.04703 0.59893 0.88505 0.0
H3025 H 0.0368 0.59359 0.94755 0.0
H3026 H 1.005 0.57789 0.88607 0.0
H3027 H 0.01502 0.58318 0.82419 0.0
H3028 H 0.00669 0.59276 0.94708 0.0
H3029 H 0.01855 0.56104 0.99414 0.0
H3030 H 0.03003 0.57475 0.98054 0.0
H3031 H 0.02001 0.56588 0.94438 0.0
C3032 C 0.03787 0.59432 0.885 0.0
C3033 C 0.03184 0.59145 0.84976 0.0
C3034 C 0.03204 0.59123 0.9206 0.0
C3035 C 0.02015 0.58526 0.92128 0.0
C3036 C 0.01417 0.58247 0.88614 0.0
H3037 H 0.96733 0.56039 0.10051 0.0
H3038 H 0.97746 0.56505 0.0379 0.0
C3039 C 0.01994 0.58549 0.85079 0.0
C3040 C 0.01377 0.58205 0.95839 0.0
H3041 H 0.00757 0.56493 0.03788 0.0
C3042 C 0.00686 0.58668 0.967 0.0
C3043 C 0.01399 0.57406 0.98402 0.0
C3044 C 0.02097 0.56855 0.97536 0.0
C3045 C 1.00029 0.58367 0.00102 0.0
C3046 C 1.00048 0.57565 0.02666 0.0
C3047 C 0.00739 0.57102 0.018 0.0
C3048 C 0.99413 0.57249 0.06386 0.0
C3049 C 0.99342 0.5893 0.00973 0.0
C3050 C 1.00011 0.57488 0.09894 0.0
C3051 C 0.99439 0.57219 0.13437 0.0
C3052 C 0.98252 0.567 0.13559 0.0
C3053 C 0.97647 0.56444 0.10043 0.0
C3054 C 0.98225 0.56714 0.06475 0.0
H3055 H 0.99614 0.59702 0.99173 0.0
H3056 H 0.98438 0.5833 0.00331 0.0
H3057 H 0.99413 0.59169 0.04095 0.0
H3058 H 0.00927 0.57897 0.09891 0.0
H3059 H 0.99933 0.57429 0.16089 0.0
H3060 H 0.45254 0.4113 0.10314 0.0
H3061 H 0.44811 0.41725 0.04104 0.0
H3062 H 0.43647 0.43691 0.10373 0.0
H3063 H 0.44059 0.43091 0.16505 0.0
H3064 H 0.42127 0.42293 0.04865 0.0
H3065 H 0.46449 0.44821 0.98631 0.0
H3066 H 0.46054 0.43403 0.0006 0.0
H3067 H 0.46203 0.44415 0.03699 0.0
C3068 C 0.44913 0.41696 0.1035 0.0
C3069 C 0.44692 0.42062 0.13895 0.0
C3070 C 0.44665 0.4204 0.06811 0.0
C3071 C 0.44204 0.4276 0.06788 0.0
C3072 C 0.44002 0.43136 0.10325 0.0
H3073 H 0.416 0.45439 0.88718 0.0
H3074 H 0.42205 0.45063 0.95032 0.0
C3075 C 0.44242 0.42792 0.13833 0.0
C3076 C 0.43876 0.43089 0.03119 0.0
H3077 H 0.44917 0.44531 0.94604 0.0
C3078 C 0.42737 0.42786 0.02623 0.0
C3079 C 0.44676 0.43738 0.00223 0.0
C3080 C 0.45916 0.44124 0.00677 0.0
C3081 C 0.4237 0.43093 0.99263 0.0
C3082 C 0.43169 0.43735 0.96354 0.0
C3083 C 0.44309 0.44045 0.96861 0.0
C3084 C 0.42823 0.44007 0.92607 0.0
C3085 C 0.41128 0.42698 0.988 0.0
C3086 C 0.4299 0.43557 0.89177 0.0
C3087 C 0.42654 0.43773 0.85612 0.0
C3088 C 0.42144 0.44448 0.85383 0.0
C3089 C 0.41985 0.44912 0.88814 0.0
C3090 C 0.42326 0.44695 0.92412 0.0
H3091 H 0.40599 0.42027 0.00936 0.0
H3092 H 0.40989 0.43425 0.99262 0.0
H3093 H 0.40835 0.42366 0.95817 0.0
H3094 H 0.43369 0.43023 0.89264 0.0
H3095 H 0.42788 0.43399 0.8303 0.0
loop_
_geom_bond_atom_site_label_1
_geom_bond_atom_site_label_2
_geom_bond_distance
_geom_bond_site_symmetry_2
_ccdc_geom_bond_type
Co0 O1 2.216 . S
Co0 O2 2.091 . S
Co0 O4 2.004 . S
Co0 O10 2.021 . S
Co0 O12 2.137 . S
Co0 O13 2.244 . S
O1 Co0 2.216 . S
O1 C8 1.247 . S
O2 Co0 2.091 . S
O2 C8 1.261 . S
C3 O12 1.247 . S
C3 O13 1.272 . S
O4 Co0 2.004 . S
O4 C9 1.259 . S
Co5 O6 2.061 . S
Co5 O11 2.052 . S
Co5 O13 2.135 . S
O6 Co5 2.061 . S
O6 C9 1.235 . S
C7 O10 1.238 . S
C7 O11 1.241 . S
C8 O1 1.247 . S
C8 O2 1.261 . S
C9 O4 1.259 . S
C9 O6 1.235 . S
O10 Co0 2.021 . S
O10 C7 1.238 . S
O11 Co5 2.052 . S
O11 C7 1.241 . S
O12 Co0 2.137 . S
O12 C3 1.247 . S
O13 Co0 2.244 . S
O13 C3 1.272 . S
O13 Co5 2.135 . S
Co14 O15 2.216 . S
Co14 O16 2.091 . S
Co14 O18 2.004 . S
Co14 O24 2.021 . S
Co14 O26 2.137 . S
Co14 O27 2.244 . S
O15 Co14 2.216 . S
O15 C22 1.247 . S
O16 Co14 2.091 . S
O16 C22 1.261 . S
C17 O26 1.247 . S
C17 O27 1.272 . S
O18 Co14 2.004 . S
O18 C23 1.259 . S
Co19 O20 2.061 . S
Co19 O25 2.052 . S
Co19 O27 2.135 . S
O20 Co19 2.061 . S
O20 C23 1.235 . S
C21 O24 1.238 . S
C21 O25 1.241 . S
C22 O15 1.247 . S
C22 O16 1.261 . S
C23 O18 1.259 . S
C23 O20 1.235 . S
O24 Co14 2.021 . S
O24 C21 1.238 . S
O25 Co19 2.052 . S
O25 C21 1.241 . S
O26 Co14 2.137 . S
O26 C17 1.247 . S
O27 Co14 2.244 . S
O27 C17 1.272 . S
O27 Co19 2.135 . S
Co28 O29 2.216 . S
Co28 O30 2.091 . S
Co28 O32 2.004 . S
Co28 O38 2.021 . S
Co28 O40 2.137 . S
Co28 O41 2.244 . S
O29 Co28 2.216 . S
O29 C36 1.247 . S
O30 Co28 2.091 . S
O30 C36 1.261 . S
C31 O40 1.247 . S
C31 O41 1.272 . S
O32 Co28 2.004 . S
O32 C37 1.259 . S
Co33 O34 2.061 . S
Co33 O39 2.052 . S
Co33 O41 2.135 . S
O34 Co33 2.061 . S
O34 C37 1.235 . S
C35 O38 1.238 . S
C35 O39 1.241 . S
C36 O29 1.247 . S
C36 O30 1.261 . S
C37 O32 1.259 . S
C37 O34 1.235 . S
O38 Co28 2.021 . S
O38 C35 1.238 . S
O39 Co33 2.052 . S
O39 C35 1.241 . S
O40 Co28 2.137 . S
O40 C31 1.247 . S
O41 Co28 2.244 . S
O41 C31 1.272 . S
O41 Co33 2.135 . S
Co42 O43 2.216 . S
Co42 O44 2.091 . S
Co42 O46 2.004 . S
Co42 O52 2.021 . S
Co42 O54 2.137 . S
Co42 O55 2.244 . S
O43 Co42 2.216 . S
O43 C50 1.247 . S
O44 Co42 2.091 . S
O44 C50 1.261 . S
C45 O54 1.247 . S
C45 O55 1.272 . S
O46 Co42 2.004 . S
O46 C51 1.259 . S
Co47 O48 2.061 . S
Co47 O53 2.052 . S
Co47 O55 2.135 . S
O48 Co47 2.061 . S
O48 C51 1.235 . S
C49 O52 1.238 . S
C49 O53 1.241 . S
C50 O43 1.247 . S
C50 O44 1.261 . S
C51 O46 1.259 . S
C51 O48 1.235 . S
O52 Co42 2.021 . S
O52 C49 1.238 . S
O53 Co47 2.052 . S
O53 C49 1.241 . S
O54 Co42 2.137 . S
O54 C45 1.247 . S
O55 Co42 2.244 . S
O55 C45 1.272 . S
O55 Co47 2.135 . S
Co56 O57 2.216 . S
Co56 O58 2.091 . S
Co56 O60 2.004 . S
Co56 O66 2.021 . S
Co56 O68 2.137 . S
Co56 O69 2.244 . S
O57 Co56 2.216 . S
O57 C64 1.247 . S
O58 Co56 2.091 . S
O58 C64 1.261 . S
C59 O68 1.247 . S
C59 O69 1.272 . S
O60 Co56 2.004 . S
O60 C65 1.259 . S
Co61 O62 2.061 . S
Co61 O67 2.052 . S
Co61 O69 2.135 . S
O62 Co61 2.061 . S
O62 C65 1.235 . S
C63 O66 1.238 . S
C63 O67 1.241 . S
C64 O57 1.247 . S
C64 O58 1.261 . S
C65 O60 1.259 . S
C65 O62 1.235 . S
O66 Co56 2.021 . S
O66 C63 1.238 . S
O67 Co61 2.052 . S
O67 C63 1.241 . S
O68 Co56 2.137 . S
O68 C59 1.247 . S
O69 Co56 2.244 . S
O69 C59 1.272 . S
O69 Co61 2.135 . S
Co70 O71 2.216 . S
Co70 O72 2.091 . S
Co70 O74 2.004 . S
Co70 O80 2.021 . S
Co70 O82 2.137 . S
Co70 O83 2.244 . S
O71 Co70 2.216 . S
O71 C78 1.247 . S
O72 Co70 2.091 . S
O72 C78 1.261 . S
C73 O82 1.247 . S
C73 O83 1.272 . S
O74 Co70 2.004 . S
O74 C79 1.259 . S
Co75 O76 2.061 . S
Co75 O81 2.052 . S
Co75 O83 2.135 . S
O76 Co75 2.061 . S
O76 C79 1.235 . S
C77 O80 1.238 . S
C77 O81 1.241 . S
C78 O71 1.247 . S
C78 O72 1.261 . S
C79 O74 1.259 . S
C79 O76 1.235 . S
O80 Co70 2.021 . S
O80 C77 1.238 . S
O81 Co75 2.052 . S
O81 C77 1.241 . S
O82 Co70 2.137 . S
O82 C73 1.247 . S
O83 Co70 2.244 . S
O83 C73 1.272 . S
O83 Co75 2.135 . S
Co84 O85 2.216 . S
Co84 O86 2.091 . S
Co84 O88 2.004 . S
Co84 O94 2.021 . S
Co84 O96 2.137 . S
Co84 O97 2.244 . S
O85 Co84 2.216 . S
O85 C92 1.247 . S
O86 Co84 2.091 . S
O86 C92 1.261 . S
C87 O96 1.247 . S
C87 O97 1.272 . S
O88 Co84 2.004 . S
O88 C93 1.259 . S
Co89 O90 2.061 . S
Co89 O95 2.052 . S
Co89 O97 2.135 . S
O90 Co89 2.061 . S
O90 C93 1.235 . S
C91 O94 1.238 . S
C91 O95 1.241 . S
C92 O85 1.247 . S
C92 O86 1.261 . S
C93 O88 1.259 . S
C93 O90 1.235 . S
O94 Co84 2.021 . S
O94 C91 1.238 . S
O95 Co89 2.052 . S
O95 C91 1.241 . S
O96 Co84 2.137 . S
O96 C87 1.247 . S
O97 Co84 2.244 . S
O97 C87 1.272 . S
O97 Co89 2.135 . S
Co98 O99 2.216 . S
Co98 O100 2.091 . S
Co98 O102 2.004 . S
Co98 O108 2.021 . S
Co98 O110 2.137 . S
Co98 O111 2.244 . S
O99 Co98 2.216 . S
O99 C106 1.247 . S
O100 Co98 2.091 . S
O100 C106 1.261 . S
C101 O110 1.247 . S
C101 O111 1.272 . S
O102 Co98 2.004 . S
O102 C107 1.259 . S
Co103 O104 2.061 . S
Co103 O109 2.052 . S
Co103 O111 2.135 . S
O104 Co103 2.061 . S
O104 C107 1.235 . S
C105 O108 1.238 . S
C105 O109 1.241 . S
C106 O99 1.247 . S
C106 O100 1.261 . S
C107 O102 1.259 . S
C107 O104 1.235 . S
O108 Co98 2.021 . S
O108 C105 1.238 . S
O109 Co103 2.052 . S
O109 C105 1.241 . S
O110 Co98 2.137 . S
O110 C101 1.247 . S
O111 Co98 2.244 . S
O111 C101 1.272 . S
O111 Co103 2.135 . S
Co112 O113 2.216 . S
Co112 O114 2.091 . S
Co112 O116 2.004 . S
Co112 O122 2.021 . S
Co112 O124 2.137 . S
Co112 O125 2.244 . S
O113 Co112 2.216 . S
O113 C120 1.247 . S
O114 Co112 2.091 . S
O114 C120 1.261 . S
C115 O124 1.247 . S
C115 O125 1.272 . S
O116 Co112 2.004 . S
O116 C121 1.259 . S
Co117 O118 2.061 . S
Co117 O123 2.052 . S
Co117 O125 2.135 . S
O118 Co117 2.061 . S
O118 C121 1.235 . S
C119 O122 1.238 . S
C119 O123 1.241 . S
C120 O113 1.247 . S
C120 O114 1.261 . S
C121 O116 1.259 . S
C121 O118 1.235 . S
O122 Co112 2.021 . S
O122 C119 1.238 . S
O123 Co117 2.052 . S
O123 C119 1.241 . S
O124 Co112 2.137 . S
O124 C115 1.247 . S
O125 Co112 2.244 . S
O125 C115 1.272 . S
O125 Co117 2.135 . S
Co126 O127 2.216 . S
Co126 O128 2.091 . S
Co126 O130 2.004 . S
Co126 O136 2.021 . S
Co126 O138 2.137 . S
Co126 O139 2.244 . S
O127 Co126 2.216 . S
O127 C134 1.247 . S
O128 Co126 2.091 . S
O128 C134 1.261 . S
C129 O138 1.247 . S
C129 O139 1.272 . S
O130 Co126 2.004 . S
O130 C135 1.259 . S
Co131 O132 2.061 . S
Co131 O137 2.052 . S
Co131 O139 2.135 . S
O132 Co131 2.061 . S
O132 C135 1.235 . S
C133 O136 1.238 . S
C133 O137 1.241 . S
C134 O127 1.247 . S
C134 O128 1.261 . S
C135 O130 1.259 . S
C135 O132 1.235 . S
O136 Co126 2.021 . S
O136 C133 1.238 . S
O137 Co131 2.052 . S
O137 C133 1.241 . S
O138 Co126 2.137 . S
O138 C129 1.247 . S
O139 Co126 2.244 . S
O139 C129 1.272 . S
O139 Co131 2.135 . S
Co140 O141 2.216 . S
Co140 O142 2.091 . S
Co140 O144 2.004 . S
Co140 O150 2.021 . S
Co140 O152 2.137 . S
Co140 O153 2.244 . S
O141 Co140 2.216 . S
O141 C148 1.247 . S
O142 Co140 2.091 . S
O142 C148 1.261 . S
C143 O152 1.247 . S
C143 O153 1.272 . S
O144 Co140 2.004 . S
O144 C149 1.259 . S
Co145 O146 2.061 . S
Co145 O151 2.052 . S
Co145 O153 2.135 . S
O146 Co145 2.061 . S
O146 C149 1.235 . S
C147 O150 1.238 . S
C147 O151 1.241 . S
C148 O141 1.247 . S
C148 O142 1.261 . S
C149 O144 1.259 . S
C149 O146 1.235 . S
O150 Co140 2.021 . S
O150 C147 1.238 . S
O151 Co145 2.052 . S
O151 C147 1.241 . S
O152 Co140 2.137 . S
O152 C143 1.247 . S
O153 Co140 2.244 . S
O153 C143 1.272 . S
O153 Co145 2.135 . S
Co154 O155 2.216 . S
Co154 O156 2.091 . S
Co154 O158 2.004 . S
Co154 O164 2.021 . S
Co154 O166 2.137 . S
Co154 O167 2.244 . S
O155 Co154 2.216 . S
O155 C162 1.247 . S
O156 Co154 2.091 . S
O156 C162 1.261 . S
C157 O166 1.247 . S
C157 O167 1.272 . S
O158 Co154 2.004 . S
O158 C163 1.259 . S
Co159 O160 2.061 . S
Co159 O165 2.052 . S
Co159 O167 2.135 . S
O160 Co159 2.061 . S
O160 C163 1.235 . S
C161 O164 1.238 . S
C161 O165 1.241 . S
C162 O155 1.247 . S
C162 O156 1.261 . S
C163 O158 1.259 . S
C163 O160 1.235 . S
O164 Co154 2.021 . S
O164 C161 1.238 . S
O165 Co159 2.052 . S
O165 C161 1.241 . S
O166 Co154 2.137 . S
O166 C157 1.247 . S
O167 Co154 2.244 . S
O167 C157 1.272 . S
O167 Co159 2.135 . S
Co168 O169 2.216 . S
Co168 O170 2.091 . S
Co168 O172 2.004 . S
Co168 O178 2.021 . S
Co168 O180 2.137 . S
Co168 O181 2.244 . S
O169 Co168 2.216 . S
O169 C176 1.247 . S
O170 Co168 2.091 . S
O170 C176 1.261 . S
C171 O180 1.247 . S
C171 O181 1.272 . S
O172 Co168 2.004 . S
O172 C177 1.259 . S
Co173 O174 2.061 . S
Co173 O179 2.052 . S
Co173 O181 2.135 . S
O174 Co173 2.061 . S
O174 C177 1.235 . S
C175 O178 1.238 . S
C175 O179 1.241 . S
C176 O169 1.247 . S
C176 O170 1.261 . S
C177 O172 1.259 . S
C177 O174 1.235 . S
O178 Co168 2.021 . S
O178 C175 1.238 . S
O179 Co173 2.052 . S
O179 C175 1.241 . S
O180 Co168 2.137 . S
O180 C171 1.247 . S
O181 Co168 2.244 . S
O181 C171 1.272 . S
O181 Co173 2.135 . S
Co182 O183 2.216 . S
Co182 O184 2.091 . S
Co182 O186 2.004 . S
Co182 O192 2.021 . S
Co182 O194 2.137 . S
Co182 O195 2.244 . S
O183 Co182 2.216 . S
O183 C190 1.247 . S
O184 Co182 2.091 . S
O184 C190 1.261 . S
C185 O194 1.247 . S
C185 O195 1.272 . S
O186 Co182 2.004 . S
O186 C191 1.259 . S
Co187 O188 2.061 . S
Co187 O193 2.052 . S
Co187 O195 2.135 . S
O188 Co187 2.061 . S
O188 C191 1.235 . S
C189 O192 1.238 . S
C189 O193 1.241 . S
C190 O183 1.247 . S
C190 O184 1.261 . S
C191 O186 1.259 . S
C191 O188 1.235 . S
O192 Co182 2.021 . S
O192 C189 1.238 . S
O193 Co187 2.052 . S
O193 C189 1.241 . S
O194 Co182 2.137 . S
O194 C185 1.247 . S
O195 Co182 2.244 . S
O195 C185 1.272 . S
O195 Co187 2.135 . S
Co196 O197 2.216 . S
Co196 O198 2.091 . S
Co196 O200 2.004 . S
Co196 O206 2.021 . S
Co196 O208 2.137 . S
Co196 O209 2.244 . S
O197 Co196 2.216 . S
O197 C204 1.247 . S
O198 Co196 2.091 . S
O198 C204 1.261 . S
C199 O208 1.247 . S
C199 O209 1.272 . S
O200 Co196 2.004 . S
O200 C205 1.259 . S
Co201 O202 2.061 . S
Co201 O207 2.052 . S
Co201 O209 2.135 . S
O202 Co201 2.061 . S
O202 C205 1.235 . S
C203 O206 1.238 . S
C203 O207 1.241 . S
C204 O197 1.247 . S
C204 O198 1.261 . S
C205 O200 1.259 . S
C205 O202 1.235 . S
O206 Co196 2.021 . S
O206 C203 1.238 . S
O207 Co201 2.052 . S
O207 C203 1.241 . S
O208 Co196 2.137 . S
O208 C199 1.247 . S
O209 Co196 2.244 . S
O209 C199 1.272 . S
O209 Co201 2.135 . S
Co210 O211 2.216 . S
Co210 O212 2.091 . S
Co210 O214 2.004 . S
Co210 O220 2.021 . S
Co210 O222 2.137 . S
Co210 O223 2.244 . S
O211 Co210 2.216 . S
O211 C218 1.247 . S
O212 Co210 2.091 . S
O212 C218 1.261 . S
C213 O222 1.247 . S
C213 O223 1.272 . S
O214 Co210 2.004 . S
O214 C219 1.259 . S
Co215 O216 2.061 . S
Co215 O221 2.052 . S
Co215 O223 2.135 . S
O216 Co215 2.061 . S
O216 C219 1.235 . S
C217 O220 1.238 . S
C217 O221 1.241 . S
C218 O211 1.247 . S
C218 O212 1.261 . S
C219 O214 1.259 . S
C219 O216 1.235 . S
O220 Co210 2.021 . S
O220 C217 1.238 . S
O221 Co215 2.052 . S
O221 C217 1.241 . S
O222 Co210 2.137 . S
O222 C213 1.247 . S
O223 Co210 2.244 . S
O223 C213 1.272 . S
O223 Co215 2.135 . S
Co224 O225 2.216 . S
Co224 O226 2.091 . S
Co224 O228 2.004 . S
Co224 O234 2.021 . S
Co224 O236 2.137 . S
Co224 O237 2.244 . S
O225 Co224 2.216 . S
O225 C232 1.247 . S
O226 Co224 2.091 . S
O226 C232 1.261 . S
C227 O236 1.247 . S
C227 O237 1.272 . S
O228 Co224 2.004 . S
O228 C233 1.259 . S
Co229 O230 2.061 . S
Co229 O235 2.052 . S
Co229 O237 2.135 . S
O230 Co229 2.061 . S
O230 C233 1.235 . S
C231 O234 1.238 . S
C231 O235 1.241 . S
C232 O225 1.247 . S
C232 O226 1.261 . S
C233 O228 1.259 . S
C233 O230 1.235 . S
O234 Co224 2.021 . S
O234 C231 1.238 . S
O235 Co229 2.052 . S
O235 C231 1.241 . S
O236 Co224 2.137 . S
O236 C227 1.247 . S
O237 Co224 2.244 . S
O237 C227 1.272 . S
O237 Co229 2.135 . S
Co238 O239 2.216 . S
Co238 O240 2.091 . S
Co238 O242 2.004 . S
Co238 O248 2.021 . S
Co238 O250 2.137 . S
Co238 O251 2.244 . S
O239 Co238 2.216 . S
O239 C246 1.247 . S
O240 Co238 2.091 . S
O240 C246 1.261 . S
C241 O250 1.247 . S
C241 O251 1.272 . S
O242 Co238 2.004 . S
O242 C247 1.259 . S
Co243 O244 2.061 . S
Co243 O249 2.052 . S
Co243 O251 2.135 . S
O244 Co243 2.061 . S
O244 C247 1.235 . S
C245 O248 1.238 . S
C245 O249 1.241 . S
C246 O239 1.247 . S
C246 O240 1.261 . S
C247 O242 1.259 . S
C247 O244 1.235 . S
O248 Co238 2.021 . S
O248 C245 1.238 . S
O249 Co243 2.052 . S
O249 C245 1.241 . S
O250 Co238 2.137 . S
O250 C241 1.247 . S
O251 Co238 2.244 . S
O251 C241 1.272 . S
O251 Co243 2.135 . S
Co252 O253 2.216 . S
Co252 O254 2.091 . S
Co252 O256 2.004 . S
Co252 O262 2.021 . S
Co252 O264 2.137 . S
Co252 O265 2.244 . S
O253 Co252 2.216 . S
O253 C260 1.247 . S
O254 Co252 2.091 . S
O254 C260 1.261 . S
C255 O264 1.247 . S
C255 O265 1.272 . S
O256 Co252 2.004 . S
O256 C261 1.259 . S
Co257 O258 2.061 . S
Co257 O263 2.052 . S
Co257 O265 2.135 . S
O258 Co257 2.061 . S
O258 C261 1.235 . S
C259 O262 1.238 . S
C259 O263 1.241 . S
C260 O253 1.247 . S
C260 O254 1.261 . S
C261 O256 1.259 . S
C261 O258 1.235 . S
O262 Co252 2.021 . S
O262 C259 1.238 . S
O263 Co257 2.052 . S
O263 C259 1.241 . S
O264 Co252 2.137 . S
O264 C255 1.247 . S
O265 Co252 2.244 . S
O265 C255 1.272 . S
O265 Co257 2.135 . S
Co266 O267 2.216 . S
Co266 O268 2.091 . S
Co266 O270 2.004 . S
Co266 O276 2.021 . S
Co266 O278 2.137 . S
Co266 O279 2.244 . S
O267 Co266 2.216 . S
O267 C274 1.247 . S
O268 Co266 2.091 . S
O268 C274 1.261 . S
C269 O278 1.247 . S
C269 O279 1.272 . S
O270 Co266 2.004 . S
O270 C275 1.259 . S
Co271 O272 2.061 . S
Co271 O277 2.052 . S
Co271 O279 2.135 . S
O272 Co271 2.061 . S
O272 C275 1.235 . S
C273 O276 1.238 . S
C273 O277 1.241 . S
C274 O267 1.247 . S
C274 O268 1.261 . S
C275 O270 1.259 . S
C275 O272 1.235 . S
O276 Co266 2.021 . S
O276 C273 1.238 . S
O277 Co271 2.052 . S
O277 C273 1.241 . S
O278 Co266 2.137 . S
O278 C269 1.247 . S
O279 Co266 2.244 . S
O279 C269 1.272 . S
O279 Co271 2.135 . S
Co280 O281 2.216 . S
Co280 O282 2.091 . S
Co280 O284 2.004 . S
Co280 O290 2.021 . S
Co280 O292 2.137 . S
Co280 O293 2.244 . S
O281 Co280 2.216 . S
O281 C288 1.247 . S
O282 Co280 2.091 . S
O282 C288 1.261 . S
C283 O292 1.247 . S
C283 O293 1.272 . S
O284 Co280 2.004 . S
O284 C289 1.259 . S
Co285 O286 2.061 . S
Co285 O291 2.052 . S
Co285 O293 2.135 . S
O286 Co285 2.061 . S
O286 C289 1.235 . S
C287 O290 1.238 . S
C287 O291 1.241 . S
C288 O281 1.247 . S
C288 O282 1.261 . S
C289 O284 1.259 . S
C289 O286 1.235 . S
O290 Co280 2.021 . S
O290 C287 1.238 . S
O291 Co285 2.052 . S
O291 C287 1.241 . S
O292 Co280 2.137 . S
O292 C283 1.247 . S
O293 Co280 2.244 . S
O293 C283 1.272 . S
O293 Co285 2.135 . S
Co294 O295 2.216 . S
Co294 O296 2.091 . S
Co294 O298 2.004 . S
Co294 O304 2.021 . S
Co294 O306 2.137 . S
Co294 O307 2.244 . S
O295 Co294 2.216 . S
O295 C302 1.247 . S
O296 Co294 2.091 . S
O296 C302 1.261 . S
C297 O306 1.247 . S
C297 O307 1.272 . S
O298 Co294 2.004 . S
O298 C303 1.259 . S
Co299 O300 2.061 . S
Co299 O305 2.052 . S
Co299 O307 2.135 . S
O300 Co299 2.061 . S
O300 C303 1.235 . S
C301 O304 1.238 . S
C301 O305 1.241 . S
C302 O295 1.247 . S
C302 O296 1.261 . S
C303 O298 1.259 . S
C303 O300 1.235 . S
O304 Co294 2.021 . S
O304 C301 1.238 . S
O305 Co299 2.052 . S
O305 C301 1.241 . S
O306 Co294 2.137 . S
O306 C297 1.247 . S
O307 Co294 2.244 . S
O307 C297 1.272 . S
O307 Co299 2.135 . S
Co308 O309 2.216 . S
Co308 O310 2.091 . S
Co308 O312 2.004 . S
Co308 O318 2.021 . S
Co308 O320 2.137 . S
Co308 O321 2.244 . S
O309 Co308 2.216 . S
O309 C316 1.247 . S
O310 Co308 2.091 . S
O310 C316 1.261 . S
C311 O320 1.247 . S
C311 O321 1.272 . S
O312 Co308 2.004 . S
O312 C317 1.259 . S
Co313 O314 2.061 . S
Co313 O319 2.052 . S
Co313 O321 2.135 . S
O314 Co313 2.061 . S
O314 C317 1.235 . S
C315 O318 1.238 . S
C315 O319 1.241 . S
C316 O309 1.247 . S
C316 O310 1.261 . S
C317 O312 1.259 . S
C317 O314 1.235 . S
O318 Co308 2.021 . S
O318 C315 1.238 . S
O319 Co313 2.052 . S
O319 C315 1.241 . S
O320 Co308 2.137 . S
O320 C311 1.247 . S
O321 Co308 2.244 . S
O321 C311 1.272 . S
O321 Co313 2.135 . S
Co322 O323 2.216 . S
Co322 O324 2.091 . S
Co322 O326 2.004 . S
Co322 O332 2.021 . S
Co322 O334 2.137 . S
Co322 O335 2.244 . S
O323 Co322 2.216 . S
O323 C330 1.247 . S
O324 Co322 2.091 . S
O324 C330 1.261 . S
C325 O334 1.247 . S
C325 O335 1.272 . S
O326 Co322 2.004 . S
O326 C331 1.259 . S
Co327 O328 2.061 . S
Co327 O333 2.052 . S
Co327 O335 2.135 . S
O328 Co327 2.061 . S
O328 C331 1.235 . S
C329 O332 1.238 . S
C329 O333 1.241 . S
C330 O323 1.247 . S
C330 O324 1.261 . S
C331 O326 1.259 . S
C331 O328 1.235 . S
O332 Co322 2.021 . S
O332 C329 1.238 . S
O333 Co327 2.052 . S
O333 C329 1.241 . S
O334 Co322 2.137 . S
O334 C325 1.247 . S
O335 Co322 2.244 . S
O335 C325 1.272 . S
O335 Co327 2.135 . S
Co336 O337 2.216 . S
Co336 O338 2.091 . S
Co336 O340 2.004 . S
Co336 O346 2.021 . S
Co336 O348 2.137 . S
Co336 O349 2.244 . S
O337 Co336 2.216 . S
O337 C344 1.247 . S
O338 Co336 2.091 . S
O338 C344 1.261 . S
C339 O348 1.247 . S
C339 O349 1.272 . S
O340 Co336 2.004 . S
O340 C345 1.259 . S
Co341 O342 2.061 . S
Co341 O347 2.052 . S
Co341 O349 2.135 . S
O342 Co341 2.061 . S
O342 C345 1.235 . S
C343 O346 1.238 . S
C343 O347 1.241 . S
C344 O337 1.247 . S
C344 O338 1.261 . S
C345 O340 1.259 . S
C345 O342 1.235 . S
O346 Co336 2.021 . S
O346 C343 1.238 . S
O347 Co341 2.052 . S
O347 C343 1.241 . S
O348 Co336 2.137 . S
O348 C339 1.247 . S
O349 Co336 2.244 . S
O349 C339 1.272 . S
O349 Co341 2.135 . S
Co350 O351 2.216 . S
Co350 O352 2.091 . S
Co350 O354 2.004 . S
Co350 O360 2.021 . S
Co350 O362 2.137 . S
Co350 O363 2.244 . S
O351 Co350 2.216 . S
O351 C358 1.247 . S
O352 Co350 2.091 . S
O352 C358 1.261 . S
C353 O362 1.247 . S
C353 O363 1.272 . S
O354 Co350 2.004 . S
O354 C359 1.259 . S
Co355 O356 2.061 . S
Co355 O361 2.052 . S
Co355 O363 2.135 . S
O356 Co355 2.061 . S
O356 C359 1.235 . S
C357 O360 1.238 . S
C357 O361 1.241 . S
C358 O351 1.247 . S
C358 O352 1.261 . S
C359 O354 1.259 . S
C359 O356 1.235 . S
O360 Co350 2.021 . S
O360 C357 1.238 . S
O361 Co355 2.052 . S
O361 C357 1.241 . S
O362 Co350 2.137 . S
O362 C353 1.247 . S
O363 Co350 2.244 . S
O363 C353 1.272 . S
O363 Co355 2.135 . S
Co364 O365 2.216 . S
Co364 O366 2.091 . S
Co364 O368 2.004 . S
Co364 O374 2.021 . S
Co364 O376 2.137 . S
Co364 O377 2.244 . S
O365 Co364 2.216 . S
O365 C372 1.247 . S
O366 Co364 2.091 . S
O366 C372 1.261 . S
C367 O376 1.247 . S
C367 O377 1.272 . S
O368 Co364 2.004 . S
O368 C373 1.259 . S
Co369 O370 2.061 . S
Co369 O375 2.052 . S
Co369 O377 2.135 . S
O370 Co369 2.061 . S
O370 C373 1.235 . S
C371 O374 1.238 . S
C371 O375 1.241 . S
C372 O365 1.247 . S
C372 O366 1.261 . S
C373 O368 1.259 . S
C373 O370 1.235 . S
O374 Co364 2.021 . S
O374 C371 1.238 . S
O375 Co369 2.052 . S
O375 C371 1.241 . S
O376 Co364 2.137 . S
O376 C367 1.247 . S
O377 Co364 2.244 . S
O377 C367 1.272 . S
O377 Co369 2.135 . S
Co378 O379 2.216 . S
Co378 O380 2.091 . S
Co378 O382 2.004 . S
Co378 O388 2.021 . S
Co378 O390 2.137 . S
Co378 O391 2.244 . S
O379 Co378 2.216 . S
O379 C386 1.247 . S
O380 Co378 2.091 . S
O380 C386 1.261 . S
C381 O390 1.247 . S
C381 O391 1.272 . S
O382 Co378 2.004 . S
O382 C387 1.259 . S
Co383 O384 2.061 . S
Co383 O389 2.052 . S
Co383 O391 2.135 . S
O384 Co383 2.061 . S
O384 C387 1.235 . S
C385 O388 1.238 . S
C385 O389 1.241 . S
C386 O379 1.247 . S
C386 O380 1.261 . S
C387 O382 1.259 . S
C387 O384 1.235 . S
O388 Co378 2.021 . S
O388 C385 1.238 . S
O389 Co383 2.052 . S
O389 C385 1.241 . S
O390 Co378 2.137 . S
O390 C381 1.247 . S
O391 Co378 2.244 . S
O391 C381 1.272 . S
O391 Co383 2.135 . S
Co392 O393 2.216 . S
Co392 O394 2.091 . S
Co392 O396 2.004 . S
Co392 O402 2.021 . S
Co392 O404 2.137 . S
Co392 O405 2.244 . S
O393 Co392 2.216 . S
O393 C400 1.247 . S
O394 Co392 2.091 . S
O394 C400 1.261 . S
C395 O404 1.247 . S
C395 O405 1.272 . S
O396 Co392 2.004 . S
O396 C401 1.259 . S
Co397 O398 2.061 . S
Co397 O403 2.052 . S
Co397 O405 2.135 . S
O398 Co397 2.061 . S
O398 C401 1.235 . S
C399 O402 1.238 . S
C399 O403 1.241 . S
C400 O393 1.247 . S
C400 O394 1.261 . S
C401 O396 1.259 . S
C401 O398 1.235 . S
O402 Co392 2.021 . S
O402 C399 1.238 . S
O403 Co397 2.052 . S
O403 C399 1.241 . S
O404 Co392 2.137 . S
O404 C395 1.247 . S
O405 Co392 2.244 . S
O405 C395 1.272 . S
O405 Co397 2.135 . S
Co406 O407 2.216 . S
Co406 O408 2.091 . S
Co406 O410 2.004 . S
Co406 O416 2.021 . S
Co406 O418 2.137 . S
Co406 O419 2.244 . S
O407 Co406 2.216 . S
O407 C414 1.247 . S
O408 Co406 2.091 . S
O408 C414 1.261 . S
C409 O418 1.247 . S
C409 O419 1.272 . S
O410 Co406 2.004 . S
O410 C415 1.259 . S
Co411 O412 2.061 . S
Co411 O417 2.052 . S
Co411 O419 2.135 . S
O412 Co411 2.061 . S
O412 C415 1.235 . S
C413 O416 1.238 . S
C413 O417 1.241 . S
C414 O407 1.247 . S
C414 O408 1.261 . S
C415 O410 1.259 . S
C415 O412 1.235 . S
O416 Co406 2.021 . S
O416 C413 1.238 . S
O417 Co411 2.052 . S
O417 C413 1.241 . S
O418 Co406 2.137 . S
O418 C409 1.247 . S
O419 Co406 2.244 . S
O419 C409 1.272 . S
O419 Co411 2.135 . S
Co420 O421 2.216 . S
Co420 O422 2.091 . S
Co420 O424 2.004 . S
Co420 O430 2.021 . S
Co420 O432 2.137 . S
Co420 O433 2.244 . S
O421 Co420 2.216 . S
O421 C428 1.247 . S
O422 Co420 2.091 . S
O422 C428 1.261 . S
C423 O432 1.247 . S
C423 O433 1.272 . S
O424 Co420 2.004 . S
O424 C429 1.259 . S
Co425 O426 2.061 . S
Co425 O431 2.052 . S
Co425 O433 2.135 . S
O426 Co425 2.061 . S
O426 C429 1.235 . S
C427 O430 1.238 . S
C427 O431 1.241 . S
C428 O421 1.247 . S
C428 O422 1.261 . S
C429 O424 1.259 . S
C429 O426 1.235 . S
O430 Co420 2.021 . S
O430 C427 1.238 . S
O431 Co425 2.052 . S
O431 C427 1.241 . S
O432 Co420 2.137 . S
O432 C423 1.247 . S
O433 Co420 2.244 . S
O433 C423 1.272 . S
O433 Co425 2.135 . S
Co434 O435 2.216 . S
Co434 O436 2.091 . S
Co434 O438 2.004 . S
Co434 O444 2.021 . S
Co434 O446 2.137 . S
Co434 O447 2.244 . S
O435 Co434 2.216 . S
O435 C442 1.247 . S
O436 Co434 2.091 . S
O436 C442 1.261 . S
C437 O446 1.247 . S
C437 O447 1.272 . S
O438 Co434 2.004 . S
O438 C443 1.259 . S
Co439 O440 2.061 . S
Co439 O445 2.052 . S
Co439 O447 2.135 . S
O440 Co439 2.061 . S
O440 C443 1.235 . S
C441 O444 1.238 . S
C441 O445 1.241 . S
C442 O435 1.247 . S
C442 O436 1.261 . S
C443 O438 1.259 . S
C443 O440 1.235 . S
O444 Co434 2.021 . S
O444 C441 1.238 . S
O445 Co439 2.052 . S
O445 C441 1.241 . S
O446 Co434 2.137 . S
O446 C437 1.247 . S
O447 Co434 2.244 . S
O447 C437 1.272 . S
O447 Co439 2.135 . S
Co448 O449 2.216 . S
Co448 O450 2.091 . S
Co448 O452 2.004 . S
Co448 O458 2.021 . S
Co448 O460 2.137 . S
Co448 O461 2.244 . S
O449 Co448 2.216 . S
O449 C456 1.247 . S
O450 Co448 2.091 . S
O450 C456 1.261 . S
C451 O460 1.247 . S
C451 O461 1.272 . S
O452 Co448 2.004 . S
O452 C457 1.259 . S
Co453 O454 2.061 . S
Co453 O459 2.052 . S
Co453 O461 2.135 . S
O454 Co453 2.061 . S
O454 C457 1.235 . S
C455 O458 1.238 . S
C455 O459 1.241 . S
C456 O449 1.247 . S
C456 O450 1.261 . S
C457 O452 1.259 . S
C457 O454 1.235 . S
O458 Co448 2.021 . S
O458 C455 1.238 . S
O459 Co453 2.052 . S
O459 C455 1.241 . S
O460 Co448 2.137 . S
O460 C451 1.247 . S
O461 Co448 2.244 . S
O461 C451 1.272 . S
O461 Co453 2.135 . S
Co462 O463 2.216 . S
Co462 O464 2.091 . S
Co462 O466 2.004 . S
Co462 O472 2.021 . S
Co462 O474 2.137 . S
Co462 O475 2.244 . S
O463 Co462 2.216 . S
O463 C470 1.247 . S
O464 Co462 2.091 . S
O464 C470 1.261 . S
C465 O474 1.247 . S
C465 O475 1.272 . S
O466 Co462 2.004 . S
O466 C471 1.259 . S
Co467 O468 2.061 . S
Co467 O473 2.052 . S
Co467 O475 2.135 . S
O468 Co467 2.061 . S
O468 C471 1.235 . S
C469 O472 1.238 . S
C469 O473 1.241 . S
C470 O463 1.247 . S
C470 O464 1.261 . S
C471 O466 1.259 . S
C471 O468 1.235 . S
O472 Co462 2.021 . S
O472 C469 1.238 . S
O473 Co467 2.052 . S
O473 C469 1.241 . S
O474 Co462 2.137 . S
O474 C465 1.247 . S
O475 Co462 2.244 . S
O475 C465 1.272 . S
O475 Co467 2.135 . S
Co476 O477 2.216 . S
Co476 O478 2.091 . S
Co476 O480 2.004 . S
Co476 O486 2.021 . S
Co476 O488 2.137 . S
Co476 O489 2.244 . S
O477 Co476 2.216 . S
O477 C484 1.247 . S
O478 Co476 2.091 . S
O478 C484 1.261 . S
C479 O488 1.247 . S
C479 O489 1.272 . S
O480 Co476 2.004 . S
O480 C485 1.259 . S
Co481 O482 2.061 . S
Co481 O487 2.052 . S
Co481 O489 2.135 . S
O482 Co481 2.061 . S
O482 C485 1.235 . S
C483 O486 1.238 . S
C483 O487 1.241 . S
C484 O477 1.247 . S
C484 O478 1.261 . S
C485 O480 1.259 . S
C485 O482 1.235 . S
O486 Co476 2.021 . S
O486 C483 1.238 . S
O487 Co481 2.052 . S
O487 C483 1.241 . S
O488 Co476 2.137 . S
O488 C479 1.247 . S
O489 Co476 2.244 . S
O489 C479 1.272 . S
O489 Co481 2.135 . S
Co490 O491 2.216 . S
Co490 O492 2.091 . S
Co490 O494 2.004 . S
Co490 O500 2.021 . S
Co490 O502 2.137 . S
Co490 O503 2.244 . S
O491 Co490 2.216 . S
O491 C498 1.247 . S
O492 Co490 2.091 . S
O492 C498 1.261 . S
C493 O502 1.247 . S
C493 O503 1.272 . S
O494 Co490 2.004 . S
O494 C499 1.259 . S
Co495 O496 2.061 . S
Co495 O501 2.052 . S
Co495 O503 2.135 . S
O496 Co495 2.061 . S
O496 C499 1.235 . S
C497 O500 1.238 . S
C497 O501 1.241 . S
C498 O491 1.247 . S
C498 O492 1.261 . S
C499 O494 1.259 . S
C499 O496 1.235 . S
O500 Co490 2.021 . S
O500 C497 1.238 . S
O501 Co495 2.052 . S
O501 C497 1.241 . S
O502 Co490 2.137 . S
O502 C493 1.247 . S
O503 Co490 2.244 . S
O503 C493 1.272 . S
O503 Co495 2.135 . S
H504 C512 0.929 . S
H505 C514 0.930 . S
H506 C516 0.930 . S
H507 C519 0.929 . S
H508 C522 0.930 . S
H509 C524 0.960 . S
H510 C524 0.960 . S
H511 C524 0.960 . S
C512 H504 0.929 . S
C512 C513 1.377 . S
C512 C514 1.384 . S
C513 C512 1.377 . S
C513 C519 1.390 . S
C514 H505 0.930 . S
C514 C512 1.384 . S
C514 C515 1.372 . S
C515 C514 1.372 . S
C515 C516 1.400 . S
C515 C520 1.490 . S
C516 H506 0.930 . S
C516 C515 1.400 . S
C516 C519 1.386 . S
H517 C533 0.930 . S
H518 C534 0.931 . S
C519 H507 0.929 . S
C519 C513 1.390 . S
C519 C516 1.386 . S
C520 C515 1.490 . S
C520 C522 1.395 . S
C520 C523 1.403 . S
H521 C527 0.930 . S
C522 H508 0.930 . S
C522 C520 1.395 . S
C522 C525 1.403 . S
C523 C520 1.403 . S
C523 C524 1.524 . S
C523 C527 1.400 . S
C524 H509 0.960 . S
C524 H510 0.960 . S
C524 H511 0.960 . S
C524 C523 1.524 . S
C525 C522 1.403 . S
C525 C526 1.392 . S
C525 C529 1.495 . S
C526 C525 1.392 . S
C526 C527 1.385 . S
C526 C528 1.478 . S
C527 H521 0.930 . S
C527 C523 1.400 . S
C527 C526 1.385 . S
C528 C526 1.478 . S
C528 C530 1.381 . S
C528 C534 1.383 . S
C529 C525 1.495 . S
C529 H535 0.959 . S
C529 H536 0.961 . S
C529 H537 0.960 . S
C530 C528 1.381 . S
C530 C531 1.394 . S
C530 H538 0.930 . S
C531 C530 1.394 . S
C531 C532 1.383 . S
C531 H539 0.929 . S
C532 C531 1.383 . S
C532 C533 1.377 . S
C533 H517 0.930 . S
C533 C532 1.377 . S
C533 C534 1.379 . S
C534 H518 0.931 . S
C534 C528 1.383 . S
C534 C533 1.379 . S
H535 C529 0.959 . S
H536 C529 0.961 . S
H537 C529 0.960 . S
H538 C530 0.930 . S
H539 C531 0.929 . S
H540 C548 0.929 . S
H541 C550 0.930 . S
H542 C552 0.930 . S
H543 C555 0.929 . S
H544 C558 0.930 . S
H545 C560 0.960 . S
H546 C560 0.960 . S
H547 C560 0.960 . S
C548 H540 0.929 . S
C548 C549 1.377 . S
C548 C550 1.384 . S
C549 C548 1.377 . S
C549 C555 1.390 . S
C550 H541 0.930 . S
C550 C548 1.384 . S
C550 C551 1.372 . S
C551 C550 1.372 . S
C551 C552 1.400 . S
C551 C556 1.490 . S
C552 H542 0.930 . S
C552 C551 1.400 . S
C552 C555 1.386 . S
H553 C569 0.930 . S
H554 C570 0.931 . S
C555 H543 0.929 . S
C555 C549 1.390 . S
C555 C552 1.386 . S
C556 C551 1.490 . S
C556 C558 1.395 . S
C556 C559 1.403 . S
H557 C563 0.930 . S
C558 H544 0.930 . S
C558 C556 1.395 . S
C558 C561 1.403 . S
C559 C556 1.403 . S
C559 C560 1.524 . S
C559 C563 1.400 . S
C560 H545 0.960 . S
C560 H546 0.960 . S
C560 H547 0.960 . S
C560 C559 1.524 . S
C561 C558 1.403 . S
C561 C562 1.392 . S
C561 C565 1.495 . S
C562 C561 1.392 . S
C562 C563 1.385 . S
C562 C564 1.478 . S
C563 H557 0.930 . S
C563 C559 1.400 . S
C563 C562 1.385 . S
C564 C562 1.478 . S
C564 C566 1.381 . S
C564 C570 1.383 . S
C565 C561 1.495 . S
C565 H571 0.959 . S
C565 H572 0.961 . S
C565 H573 0.960 . S
C566 C564 1.381 . S
C566 C567 1.394 . S
C566 H574 0.930 . S
C567 C566 1.394 . S
C567 C568 1.383 . S
C567 H575 0.929 . S
C568 C567 1.383 . S
C568 C569 1.377 . S
C569 H553 0.930 . S
C569 C568 1.377 . S
C569 C570 1.379 . S
C570 H554 0.931 . S
C570 C564 1.383 . S
C570 C569 1.379 . S
H571 C565 0.959 . S
H572 C565 0.961 . S
H573 C565 0.960 . S
H574 C566 0.930 . S
H575 C567 0.929 . S
H576 C584 0.929 . S
H577 C586 0.930 . S
H578 C588 0.930 . S
H579 C591 0.929 . S
H580 C594 0.930 . S
H581 C596 0.960 . S
H582 C596 0.960 . S
H583 C596 0.960 . S
C584 H576 0.929 . S
C584 C585 1.377 . S
C584 C586 1.384 . S
C585 C584 1.377 . S
C585 C591 1.390 . S
C586 H577 0.930 . S
C586 C584 1.384 . S
C586 C587 1.372 . S
C587 C586 1.372 . S
C587 C588 1.400 . S
C587 C592 1.490 . S
C588 H578 0.930 . S
C588 C587 1.400 . S
C588 C591 1.386 . S
H589 C605 0.930 . S
H590 C606 0.931 . S
C591 H579 0.929 . S
C591 C585 1.390 . S
C591 C588 1.386 . S
C592 C587 1.490 . S
C592 C594 1.395 . S
C592 C595 1.403 . S
H593 C599 0.930 . S
C594 H580 0.930 . S
C594 C592 1.395 . S
C594 C597 1.403 . S
C595 C592 1.403 . S
C595 C596 1.524 . S
C595 C599 1.400 . S
C596 H581 0.960 . S
C596 H582 0.960 . S
C596 H583 0.960 . S
C596 C595 1.524 . S
C597 C594 1.403 . S
C597 C598 1.392 . S
C597 C601 1.495 . S
C598 C597 1.392 . S
C598 C599 1.385 . S
C598 C600 1.478 . S
C599 H593 0.930 . S
C599 C595 1.400 . S
C599 C598 1.385 . S
C600 C598 1.478 . S
C600 C602 1.381 . S
C600 C606 1.383 . S
C601 C597 1.495 . S
C601 H607 0.959 . S
C601 H608 0.946 1_554 S
C601 H609 0.960 . S
C602 C600 1.381 . S
C602 C603 1.394 . S
C602 H610 0.930 . S
C603 C602 1.394 . S
C603 C604 1.383 . S
C603 H611 0.929 . S
C604 C603 1.383 . S
C604 C605 1.377 . S
C605 H589 0.930 . S
C605 C604 1.377 . S
C605 C606 1.379 . S
C606 H590 0.931 . S
C606 C600 1.383 . S
C606 C605 1.379 . S
H607 C601 0.959 . S
H608 C601 0.946 1_556 S
H609 C601 0.960 . S
H610 C602 0.930 . S
H611 C603 0.929 . S
H612 C620 0.929 . S
H613 C622 0.930 . S
H614 C624 0.930 . S
H615 C627 0.929 . S
H616 C630 0.930 . S
H617 C632 0.960 . S
H618 C632 0.960 . S
H619 C632 0.960 . S
C620 H612 0.929 . S
C620 C621 1.377 . S
C620 C622 1.384 . S
C621 C620 1.377 . S
C621 C627 1.390 . S
C622 H613 0.930 . S
C622 C620 1.384 . S
C622 C623 1.372 . S
C623 C622 1.372 . S
C623 C624 1.400 . S
C623 C628 1.490 . S
C624 H614 0.930 . S
C624 C623 1.400 . S
C624 C627 1.386 . S
H625 C641 0.930 . S
H626 C642 0.931 . S
C627 H615 0.929 . S
C627 C621 1.390 . S
C627 C624 1.386 . S
C628 C623 1.490 . S
C628 C630 1.395 . S
C628 C631 1.403 . S
H629 C635 0.930 . S
C630 H616 0.930 . S
C630 C628 1.395 . S
C630 C633 1.403 . S
C631 C628 1.403 . S
C631 C632 1.524 . S
C631 C635 1.400 . S
C632 H617 0.960 . S
C632 H618 0.960 . S
C632 H619 0.960 . S
C632 C631 1.524 . S
C633 C630 1.403 . S
C633 C634 1.392 . S
C633 C637 1.495 . S
C634 C633 1.392 . S
C634 C635 1.385 . S
C634 C636 1.478 . S
C635 H629 0.930 . S
C635 C631 1.400 . S
C635 C634 1.385 . S
C636 C634 1.478 . S
C636 C638 1.381 . S
C636 C642 1.383 . S
C637 C633 1.495 . S
C637 H643 0.959 . S
C637 H644 0.961 . S
C637 H645 0.960 . S
C638 C636 1.381 . S
C638 C639 1.394 . S
C638 H646 0.930 . S
C639 C638 1.394 . S
C639 C640 1.383 . S
C639 H647 0.929 . S
C640 C639 1.383 . S
C640 C641 1.377 . S
C641 H625 0.930 . S
C641 C640 1.377 . S
C641 C642 1.379 . S
C642 H626 0.931 . S
C642 C636 1.383 . S
C642 C641 1.379 . S
H643 C637 0.959 . S
H644 C637 0.961 . S
H645 C637 0.960 . S
H646 C638 0.930 . S
H647 C639 0.929 . S
H648 C656 0.929 . S
H649 C658 0.930 . S
H650 C660 0.930 . S
H651 C663 0.929 . S
H652 C666 0.930 . S
H653 C668 0.960 . S
H654 C668 0.960 . S
H655 C668 0.960 . S
C656 H648 0.929 . S
C656 C657 1.377 . S
C656 C658 1.384 . S
C657 C656 1.377 . S
C657 C663 1.390 . S
C658 H649 0.930 . S
C658 C656 1.384 . S
C658 C659 1.372 . S
C659 C658 1.372 . S
C659 C660 1.400 . S
C659 C664 1.490 . S
C660 H650 0.930 . S
C660 C659 1.400 . S
C660 C663 1.386 . S
H661 C677 0.930 . S
H662 C678 0.931 . S
C663 H651 0.929 . S
C663 C657 1.390 . S
C663 C660 1.386 . S
C664 C659 1.490 . S
C664 C666 1.395 . S
C664 C667 1.403 . S
H665 C671 0.930 . S
C666 H652 0.930 . S
C666 C664 1.395 . S
C666 C669 1.403 . S
C667 C664 1.403 . S
C667 C668 1.524 . S
C667 C671 1.400 . S
C668 H653 0.960 . S
C668 H654 0.960 . S
C668 H655 0.960 . S
C668 C667 1.524 . S
C669 C666 1.403 . S
C669 C670 1.392 . S
C669 C673 1.495 . S
C670 C669 1.392 . S
C670 C671 1.385 . S
C670 C672 1.478 . S
C671 H665 0.930 . S
C671 C667 1.400 . S
C671 C670 1.385 . S
C672 C670 1.478 . S
C672 C674 1.381 . S
C672 C678 1.383 . S
C673 C669 1.495 . S
C673 H679 0.959 . S
C673 H680 0.961 . S
C673 H681 0.960 . S
C674 C672 1.381 . S
C674 C675 1.394 . S
C674 H682 0.930 . S
C675 C674 1.394 . S
C675 C676 1.383 . S
C675 H683 0.929 . S
C676 C675 1.383 . S
C676 C677 1.377 . S
C677 H661 0.930 . S
C677 C676 1.377 . S
C677 C678 1.379 . S
C678 H662 0.931 . S
C678 C672 1.383 . S
C678 C677 1.379 . S
H679 C673 0.959 . S
H680 C673 0.961 . S
H681 C673 0.960 . S
H682 C674 0.930 . S
H683 C675 0.929 . S
H684 C692 0.929 . S
H685 C694 0.930 . S
H686 C696 0.930 . S
H687 C699 0.929 . S
H688 C702 0.930 . S
H689 C704 0.960 . S
H690 C704 0.960 . S
H691 C704 0.960 . S
C692 H684 0.929 . S
C692 C693 1.377 . S
C692 C694 1.384 . S
C693 C692 1.377 . S
C693 C699 1.390 . S
C694 H685 0.930 . S
C694 C692 1.384 . S
C694 C695 1.372 . S
C695 C694 1.372 . S
C695 C696 1.400 . S
C695 C700 1.490 . S
C696 H686 0.930 . S
C696 C695 1.400 . S
C696 C699 1.386 . S
H697 C713 0.930 . S
H698 C714 0.931 . S
C699 H687 0.929 . S
C699 C693 1.390 . S
C699 C696 1.386 . S
C700 C695 1.490 . S
C700 C702 1.395 . S
C700 C703 1.403 . S
H701 C707 0.930 . S
C702 H688 0.930 . S
C702 C700 1.395 . S
C702 C705 1.403 . S
C703 C700 1.403 . S
C703 C704 1.524 . S
C703 C707 1.400 . S
C704 H689 0.960 . S
C704 H690 0.960 . S
C704 H691 0.960 . S
C704 C703 1.524 . S
C705 C702 1.403 . S
C705 C706 1.392 . S
C705 C709 1.495 . S
C706 C705 1.392 . S
C706 C707 1.385 . S
C706 C708 1.478 . S
C707 H701 0.930 . S
C707 C703 1.400 . S
C707 C706 1.385 . S
C708 C706 1.478 . S
C708 C710 1.381 . S
C708 C714 1.383 . S
C709 C705 1.495 . S
C709 H715 0.959 . S
C709 H716 0.961 . S
C709 H717 0.960 . S
C710 C708 1.381 . S
C710 C711 1.394 . S
C710 H718 0.930 . S
C711 C710 1.394 . S
C711 C712 1.383 . S
C711 H719 0.929 . S
C712 C711 1.383 . S
C712 C713 1.377 . S
C713 H697 0.930 . S
C713 C712 1.377 . S
C713 C714 1.379 . S
C714 H698 0.931 . S
C714 C708 1.383 . S
C714 C713 1.379 . S
H715 C709 0.959 . S
H716 C709 0.961 . S
H717 C709 0.960 . S
H718 C710 0.930 . S
H719 C711 0.929 . S
H720 C728 0.929 . S
H721 C730 0.930 . S
H722 C732 0.930 . S
H723 C735 0.929 . S
H724 C738 0.930 . S
H725 C740 0.960 . S
H726 C740 0.960 . S
H727 C740 0.960 . S
C728 H720 0.929 . S
C728 C729 1.377 . S
C728 C730 1.384 . S
C729 C728 1.377 . S
C729 C735 1.390 . S
C730 H721 0.930 . S
C730 C728 1.384 . S
C730 C731 1.372 . S
C731 C730 1.372 . S
C731 C732 1.400 . S
C731 C736 1.490 . S
C732 H722 0.930 . S
C732 C731 1.400 . S
C732 C735 1.386 . S
H733 C749 0.930 . S
H734 C750 0.931 . S
C735 H723 0.929 . S
C735 C729 1.390 . S
C735 C732 1.386 . S
C736 C731 1.490 . S
C736 C738 1.395 . S
C736 C739 1.403 . S
H737 C743 0.930 . S
C738 H724 0.930 . S
C738 C736 1.395 . S
C738 C741 1.403 . S
C739 C736 1.403 . S
C739 C740 1.524 . S
C739 C743 1.400 . S
C740 H725 0.960 . S
C740 H726 0.960 . S
C740 H727 0.960 . S
C740 C739 1.524 . S
C741 C738 1.403 . S
C741 C742 1.392 . S
C741 C745 1.495 . S
C742 C741 1.392 . S
C742 C743 1.385 . S
C742 C744 1.478 . S
C743 H737 0.930 . S
C743 C739 1.400 . S
C743 C742 1.385 . S
C744 C742 1.478 . S
C744 C746 1.381 . S
C744 C750 1.383 . S
C745 C741 1.495 . S
C745 H751 0.959 . S
C745 H752 0.961 . S
C745 H753 0.960 . S
C746 C744 1.381 . S
C746 C747 1.394 . S
C746 H754 0.930 . S
C747 C746 1.394 . S
C747 C748 1.383 . S
C747 H755 0.929 . S
C748 C747 1.383 . S
C748 C749 1.377 . S
C749 H733 0.930 . S
C749 C748 1.377 . S
C749 C750 1.379 . S
C750 H734 0.931 . S
C750 C744 1.383 . S
C750 C749 1.379 . S
H751 C745 0.959 . S
H752 C745 0.961 . S
H753 C745 0.960 . S
H754 C746 0.930 . S
H755 C747 0.929 . S
H756 C764 0.929 . S
H757 C766 0.930 . S
H758 C768 0.930 . S
H759 C771 0.929 . S
H760 C774 0.930 . S
H761 C776 0.960 . S
H762 C776 0.960 . S
H763 C776 0.960 . S
C764 H756 0.929 . S
C764 C765 1.377 . S
C764 C766 1.384 . S
C765 C764 1.377 . S
C765 C771 1.390 . S
C766 H757 0.930 . S
C766 C764 1.384 . S
C766 C767 1.372 . S
C767 C766 1.372 . S
C767 C768 1.400 . S
C767 C772 1.490 . S
C768 H758 0.930 . S
C768 C767 1.400 . S
C768 C771 1.386 . S
H769 C785 0.930 . S
H770 C786 0.931 . S
C771 H759 0.929 . S
C771 C765 1.390 . S
C771 C768 1.386 . S
C772 C767 1.490 . S
C772 C774 1.395 . S
C772 C775 1.403 . S
H773 C779 0.930 . S
C774 H760 0.930 . S
C774 C772 1.395 . S
C774 C777 1.403 . S
C775 C772 1.403 . S
C775 C776 1.524 . S
C775 C779 1.400 . S
C776 H761 0.960 . S
C776 H762 0.960 . S
C776 H763 0.960 . S
C776 C775 1.524 . S
C777 C774 1.403 . S
C777 C778 1.392 . S
C777 C781 1.495 . S
C778 C777 1.392 . S
C778 C779 1.385 . S
C778 C780 1.478 . S
C779 H773 0.930 . S
C779 C775 1.400 . S
C779 C778 1.385 . S
C780 C778 1.478 . S
C780 C782 1.381 . S
C780 C786 1.383 . S
C781 C777 1.495 . S
C781 H787 0.959 . S
C781 H788 0.961 . S
C781 H789 0.960 . S
C782 C780 1.381 . S
C782 C783 1.394 . S
C782 H790 0.930 . S
C783 C782 1.394 . S
C783 C784 1.383 . S
C783 H791 0.929 . S
C784 C783 1.383 . S
C784 C785 1.377 . S
C785 H769 0.930 . S
C785 C784 1.377 . S
C785 C786 1.379 . S
C786 H770 0.931 . S
C786 C780 1.383 . S
C786 C785 1.379 . S
H787 C781 0.959 . S
H788 C781 0.961 . S
H789 C781 0.960 . S
H790 C782 0.930 . S
H791 C783 0.929 . S
H792 C800 0.929 . S
H793 C802 0.930 . S
H794 C804 0.930 . S
H795 C807 0.929 . S
H796 C810 0.930 . S
H797 C812 0.960 . S
H798 C812 0.960 . S
H799 C812 0.960 . S
C800 H792 0.929 . S
C800 C801 1.377 . S
C800 C802 1.384 . S
C801 C800 1.377 . S
C801 C807 1.390 . S
C802 H793 0.930 . S
C802 C800 1.384 . S
C802 C803 1.372 . S
C803 C802 1.372 . S
C803 C804 1.400 . S
C803 C808 1.490 . S
C804 H794 0.930 . S
C804 C803 1.400 . S
C804 C807 1.386 . S
H805 C821 0.930 . S
H806 C822 0.931 . S
C807 H795 0.929 . S
C807 C801 1.390 . S
C807 C804 1.386 . S
C808 C803 1.490 . S
C808 C810 1.395 . S
C808 C811 1.403 . S
H809 C815 0.930 . S
C810 H796 0.930 . S
C810 C808 1.395 . S
C810 C813 1.403 . S
C811 C808 1.403 . S
C811 C812 1.524 . S
C811 C815 1.400 . S
C812 H797 0.960 . S
C812 H798 0.960 . S
C812 H799 0.960 . S
C812 C811 1.524 . S
C813 C810 1.403 . S
C813 C814 1.392 . S
C813 C817 1.495 . S
C814 C813 1.392 . S
C814 C815 1.385 . S
C814 C816 1.478 . S
C815 H809 0.930 . S
C815 C811 1.400 . S
C815 C814 1.385 . S
C816 C814 1.478 . S
C816 C818 1.381 . S
C816 C822 1.383 . S
C817 C813 1.495 . S
C817 H823 0.959 . S
C817 H824 0.961 . S
C817 H825 0.960 . S
C818 C816 1.381 . S
C818 C819 1.394 . S
C818 H826 0.930 . S
C819 C818 1.394 . S
C819 C820 1.383 . S
C819 H827 0.929 . S
C820 C819 1.383 . S
C820 C821 1.377 . S
C821 H805 0.930 . S
C821 C820 1.377 . S
C821 C822 1.379 . S
C822 H806 0.931 . S
C822 C816 1.383 . S
C822 C821 1.379 . S
H823 C817 0.959 . S
H824 C817 0.961 . S
H825 C817 0.960 . S
H826 C818 0.930 . S
H827 C819 0.929 . S
H828 C836 0.929 . S
H829 C838 0.930 . S
H830 C840 0.930 . S
H831 C843 0.929 . S
H832 C846 0.930 . S
H833 C848 0.960 . S
H834 C848 0.960 . S
H835 C848 0.960 . S
C836 H828 0.929 . S
C836 C837 1.377 . S
C836 C838 1.384 . S
C837 C836 1.377 . S
C837 C843 1.390 . S
C838 H829 0.930 . S
C838 C836 1.384 . S
C838 C839 1.372 . S
C839 C838 1.372 . S
C839 C840 1.400 . S
C839 C844 1.490 . S
C840 H830 0.930 . S
C840 C839 1.400 . S
C840 C843 1.386 . S
H841 C857 0.930 . S
H842 C858 0.931 . S
C843 H831 0.929 . S
C843 C837 1.390 . S
C843 C840 1.386 . S
C844 C839 1.490 . S
C844 C846 1.395 . S
C844 C847 1.403 . S
H845 C851 0.930 . S
C846 H832 0.930 . S
C846 C844 1.395 . S
C846 C849 1.403 . S
C847 C844 1.403 . S
C847 C848 1.524 . S
C847 C851 1.400 . S
C848 H833 0.960 . S
C848 H834 0.960 . S
C848 H835 0.960 . S
C848 C847 1.524 . S
C849 C846 1.403 . S
C849 C850 1.392 . S
C849 C853 1.495 . S
C850 C849 1.392 . S
C850 C851 1.385 . S
C850 C852 1.478 . S
C851 H845 0.930 . S
C851 C847 1.400 . S
C851 C850 1.385 . S
C852 C850 1.478 . S
C852 C854 1.381 . S
C852 C858 1.383 . S
C853 C849 1.495 . S
C853 H859 0.959 . S
C853 H860 0.961 . S
C853 H861 0.960 . S
C854 C852 1.381 . S
C854 C855 1.394 . S
C854 H862 0.930 . S
C855 C854 1.394 . S
C855 C856 1.383 . S
C855 H863 0.929 . S
C856 C855 1.383 . S
C856 C857 1.377 . S
C857 H841 0.930 . S
C857 C856 1.377 . S
C857 C858 1.379 . S
C858 H842 0.931 . S
C858 C852 1.383 . S
C858 C857 1.379 . S
H859 C853 0.959 . S
H860 C853 0.961 . S
H861 C853 0.960 . S
H862 C854 0.930 . S
H863 C855 0.929 . S
H864 C872 0.929 . S
H865 C874 0.930 . S
H866 C876 0.930 . S
H867 C879 0.929 . S
H868 C882 0.930 . S
H869 C884 0.960 . S
H870 C884 0.960 . S
H871 C884 0.960 . S
C872 H864 0.929 . S
C872 C873 1.377 . S
C872 C874 1.384 . S
C873 C872 1.377 . S
C873 C879 1.390 . S
C874 H865 0.930 . S
C874 C872 1.384 . S
C874 C875 1.372 . S
C875 C874 1.372 . S
C875 C876 1.400 . S
C875 C880 1.490 . S
C876 H866 0.930 . S
C876 C875 1.400 . S
C876 C879 1.386 . S
H877 C893 0.930 . S
H878 C894 0.931 . S
C879 H867 0.929 . S
C879 C873 1.390 . S
C879 C876 1.386 . S
C880 C875 1.490 . S
C880 C882 1.395 . S
C880 C883 1.403 . S
H881 C887 0.930 . S
C882 H868 0.930 . S
C882 C880 1.395 . S
C882 C885 1.403 . S
C883 C880 1.403 . S
C883 C884 1.524 . S
C883 C887 1.400 . S
C884 H869 0.960 . S
C884 H870 0.960 . S
C884 H871 0.960 . S
C884 C883 1.524 . S
C885 C882 1.403 . S
C885 C886 1.392 . S
C885 C889 1.495 . S
C886 C885 1.392 . S
C886 C887 1.385 . S
C886 C888 1.478 . S
C887 H881 0.930 . S
C887 C883 1.400 . S
C887 C886 1.385 . S
C888 C886 1.478 . S
C888 C890 1.381 . S
C888 C894 1.383 . S
C889 C885 1.495 . S
C889 H895 0.959 . S
C889 H896 0.961 . S
C889 H897 0.960 . S
C890 C888 1.381 . S
C890 C891 1.394 . S
C890 H898 0.930 . S
C891 C890 1.394 . S
C891 C892 1.383 . S
C891 H899 0.929 . S
C892 C891 1.383 . S
C892 C893 1.377 . S
C893 H877 0.930 . S
C893 C892 1.377 . S
C893 C894 1.379 . S
C894 H878 0.931 . S
C894 C888 1.383 . S
C894 C893 1.379 . S
H895 C889 0.959 . S
H896 C889 0.961 . S
H897 C889 0.960 . S
H898 C890 0.930 . S
H899 C891 0.929 . S
H900 C908 0.929 . S
H901 C910 0.930 . S
H902 C912 0.930 . S
H903 C915 0.929 . S
H904 C918 0.930 . S
H905 C920 0.960 . S
H906 C920 0.960 . S
H907 C920 0.960 . S
C908 H900 0.929 . S
C908 C909 1.377 . S
C908 C910 1.384 . S
C909 C908 1.377 . S
C909 C915 1.390 . S
C910 H901 0.930 . S
C910 C908 1.384 . S
C910 C911 1.372 . S
C911 C910 1.372 . S
C911 C912 1.400 . S
C911 C916 1.490 . S
C912 H902 0.930 . S
C912 C911 1.400 . S
C912 C915 1.386 . S
H913 C929 0.930 . S
H914 C930 0.931 . S
C915 H903 0.929 . S
C915 C909 1.390 . S
C915 C912 1.386 . S
C916 C911 1.490 . S
C916 C918 1.395 . S
C916 C919 1.403 . S
H917 C923 0.930 . S
C918 H904 0.930 . S
C918 C916 1.395 . S
C918 C921 1.403 . S
C919 C916 1.403 . S
C919 C920 1.524 . S
C919 C923 1.400 . S
C920 H905 0.960 . S
C920 H906 0.960 . S
C920 H907 0.960 . S
C920 C919 1.524 . S
C921 C918 1.403 . S
C921 C922 1.392 . S
C921 C925 1.495 . S
C922 C921 1.392 . S
C922 C923 1.385 . S
C922 C924 1.478 . S
C923 H917 0.930 . S
C923 C919 1.400 . S
C923 C922 1.385 . S
C924 C922 1.478 . S
C924 C926 1.381 . S
C924 C930 1.383 . S
C925 C921 1.495 . S
C925 H931 0.959 . S
C925 H932 0.961 . S
C925 H933 0.960 . S
C926 C924 1.381 . S
C926 C927 1.394 . S
C926 H934 0.930 . S
C927 C926 1.394 . S
C927 C928 1.383 . S
C927 H935 0.929 . S
C928 C927 1.383 . S
C928 C929 1.377 . S
C929 H913 0.930 . S
C929 C928 1.377 . S
C929 C930 1.379 . S
C930 H914 0.931 . S
C930 C924 1.383 . S
C930 C929 1.379 . S
H931 C925 0.959 . S
H932 C925 0.961 . S
H933 C925 0.960 . S
H934 C926 0.930 . S
H935 C927 0.929 . S
H936 C944 0.929 . S
H937 C946 0.930 . S
H938 C948 0.930 . S
H939 C951 0.929 . S
H940 C954 0.930 . S
H941 C956 0.960 . S
H942 C956 0.960 . S
H943 C956 0.960 . S
C944 H936 0.929 . S
C944 C945 1.377 . S
C944 C946 1.384 . S
C945 C944 1.377 . S
C945 C951 1.390 . S
C946 H937 0.930 . S
C946 C944 1.384 . S
C946 C947 1.372 . S
C947 C946 1.372 . S
C947 C948 1.400 . S
C947 C952 1.490 . S
C948 H938 0.930 . S
C948 C947 1.400 . S
C948 C951 1.386 . S
H949 C965 0.930 . S
H950 C966 0.931 . S
C951 H939 0.929 . S
C951 C945 1.390 . S
C951 C948 1.386 . S
C952 C947 1.490 . S
C952 C954 1.395 . S
C952 C955 1.403 . S
H953 C959 0.930 . S
C954 H940 0.930 . S
C954 C952 1.395 . S
C954 C957 1.403 . S
C955 C952 1.403 . S
C955 C956 1.524 . S
C955 C959 1.400 . S
C956 H941 0.960 . S
C956 H942 0.960 . S
C956 H943 0.960 . S
C956 C955 1.524 . S
C957 C954 1.403 . S
C957 C958 1.392 . S
C957 C961 1.495 . S
C958 C957 1.392 . S
C958 C959 1.385 . S
C958 C960 1.478 . S
C959 H953 0.930 . S
C959 C955 1.400 . S
C959 C958 1.385 . S
C960 C958 1.478 . S
C960 C962 1.381 . S
C960 C966 1.383 . S
C961 C957 1.495 . S
C961 H967 0.959 . S
C961 H968 0.961 . S
C961 H969 0.960 . S
C962 C960 1.381 . S
C962 C963 1.394 . S
C962 H970 0.930 . S
C963 C962 1.394 . S
C963 C964 1.383 . S
C963 H971 0.929 . S
C964 C963 1.383 . S
C964 C965 1.377 . S
C965 H949 0.930 . S
C965 C964 1.377 . S
C965 C966 1.379 . S
C966 H950 0.931 . S
C966 C960 1.383 . S
C966 C965 1.379 . S
H967 C961 0.959 . S
H968 C961 0.961 . S
H969 C961 0.960 . S
H970 C962 0.930 . S
H971 C963 0.929 . S
H972 C980 0.929 . S
H973 C982 0.930 . S
H974 C984 0.930 . S
H975 C987 0.929 . S
H976 C990 0.930 . S
H977 C992 0.960 . S
H978 C992 0.960 . S
H979 C992 0.960 . S
C980 H972 0.929 . S
C980 C981 1.377 . S
C980 C982 1.384 . S
C981 C980 1.377 . S
C981 C987 1.390 . S
C982 H973 0.930 . S
C982 C980 1.384 . S
C982 C983 1.372 . S
C983 C982 1.372 . S
C983 C984 1.400 . S
C983 C988 1.490 . S
C984 H974 0.930 . S
C984 C983 1.400 . S
C984 C987 1.386 . S
H985 C1001 0.930 . S
H986 C1002 0.931 . S
C987 H975 0.929 . S
C987 C981 1.390 . S
C987 C984 1.386 . S
C988 C983 1.490 . S
C988 C990 1.395 . S
C988 C991 1.403 . S
H989 C995 0.930 . S
C990 H976 0.930 . S
C990 C988 1.395 . S
C990 C993 1.403 . S
C991 C988 1.403 . S
C991 C992 1.524 . S
C991 C995 1.400 . S
C992 H977 0.960 . S
C992 H978 0.960 . S
C992 H979 0.960 . S
C992 C991 1.524 . S
C993 C990 1.403 . S
C993 C994 1.392 . S
C993 C997 1.495 . S
C994 C993 1.392 . S
C994 C995 1.385 . S
C994 C996 1.478 . S
C995 H989 0.930 . S
C995 C991 1.400 . S
C995 C994 1.385 . S
C996 C994 1.478 . S
C996 C998 1.381 . S
C996 C1002 1.383 . S
C997 C993 1.495 . S
C997 H1003 0.959 . S
C997 H1004 0.961 . S
C997 H1005 0.960 . S
C998 C996 1.381 . S
C998 C999 1.394 . S
C998 H1006 0.930 . S
C999 C998 1.394 . S
C999 C1000 1.383 . S
C999 H1007 0.929 . S
C1000 C999 1.383 . S
C1000 C1001 1.377 . S
C1001 H985 0.930 . S
C1001 C1000 1.377 . S
C1001 C1002 1.379 . S
C1002 H986 0.931 . S
C1002 C996 1.383 . S
C1002 C1001 1.379 . S
H1003 C997 0.959 . S
H1004 C997 0.961 . S
H1005 C997 0.960 . S
H1006 C998 0.930 . S
H1007 C999 0.929 . S
H1008 C1016 0.929 . S
H1009 C1018 0.930 . S
H1010 C1020 0.930 . S
H1011 C1023 0.929 . S
H1012 C1026 0.930 . S
H1013 C1028 0.960 . S
H1014 C1028 0.960 . S
H1015 C1028 0.960 . S
C1016 H1008 0.929 . S
C1016 C1017 1.377 . S
C1016 C1018 1.384 . S
C1017 C1016 1.377 . S
C1017 C1023 1.390 . S
C1018 H1009 0.930 . S
C1018 C1016 1.384 . S
C1018 C1019 1.372 . S
C1019 C1018 1.372 . S
C1019 C1020 1.400 . S
C1019 C1024 1.490 . S
C1020 H1010 0.930 . S
C1020 C1019 1.400 . S
C1020 C1023 1.386 . S
H1021 C1037 0.930 . S
H1022 C1038 0.931 . S
C1023 H1011 0.929 . S
C1023 C1017 1.390 . S
C1023 C1020 1.386 . S
C1024 C1019 1.490 . S
C1024 C1026 1.395 . S
C1024 C1027 1.403 . S
H1025 C1031 0.930 . S
C1026 H1012 0.930 . S
C1026 C1024 1.395 . S
C1026 C1029 1.403 . S
C1027 C1024 1.403 . S
C1027 C1028 1.524 . S
C1027 C1031 1.400 . S
C1028 H1013 0.960 . S
C1028 H1014 0.960 . S
C1028 H1015 0.960 . S
C1028 C1027 1.524 . S
C1029 C1026 1.403 . S
C1029 C1030 1.392 . S
C1029 C1033 1.495 . S
C1030 C1029 1.392 . S
C1030 C1031 1.385 . S
C1030 C1032 1.478 . S
C1031 H1025 0.930 . S
C1031 C1027 1.400 . S
C1031 C1030 1.385 . S
C1032 C1030 1.478 . S
C1032 C1034 1.381 . S
C1032 C1038 1.383 . S
C1033 C1029 1.495 . S
C1033 H1039 0.959 . S
C1033 H1040 0.961 . S
C1033 H1041 0.960 . S
C1034 C1032 1.381 . S
C1034 C1035 1.394 . S
C1034 H1042 0.930 . S
C1035 C1034 1.394 . S
C1035 C1036 1.383 . S
C1035 H1043 0.929 . S
C1036 C1035 1.383 . S
C1036 C1037 1.377 . S
C1037 H1021 0.930 . S
C1037 C1036 1.377 . S
C1037 C1038 1.379 . S
C1038 H1022 0.931 . S
C1038 C1032 1.383 . S
C1038 C1037 1.379 . S
H1039 C1033 0.959 . S
H1040 C1033 0.961 . S
H1041 C1033 0.960 . S
H1042 C1034 0.930 . S
H1043 C1035 0.929 . S
H1044 C1052 0.929 . S
H1045 C1054 0.930 . S
H1046 C1056 0.930 . S
H1047 C1059 0.929 . S
H1048 C1062 0.930 . S
H1049 C1064 0.960 . S
H1050 C1064 0.960 . S
H1051 C1064 0.960 . S
C1052 H1044 0.929 . S
C1052 C1053 1.377 . S
C1052 C1054 1.384 . S
C1053 C1052 1.377 . S
C1053 C1059 1.390 . S
C1054 H1045 0.930 . S
C1054 C1052 1.384 . S
C1054 C1055 1.372 . S
C1055 C1054 1.372 . S
C1055 C1056 1.400 . S
C1055 C1060 1.490 . S
C1056 H1046 0.930 . S
C1056 C1055 1.400 . S
C1056 C1059 1.386 . S
H1057 C1073 0.930 . S
H1058 C1074 0.931 . S
C1059 H1047 0.929 . S
C1059 C1053 1.390 . S
C1059 C1056 1.386 . S
C1060 C1055 1.490 . S
C1060 C1062 1.395 . S
C1060 C1063 1.403 . S
H1061 C1067 0.930 . S
C1062 H1048 0.930 . S
C1062 C1060 1.395 . S
C1062 C1065 1.403 . S
C1063 C1060 1.403 . S
C1063 C1064 1.524 . S
C1063 C1067 1.400 . S
C1064 H1049 0.960 . S
C1064 H1050 0.960 . S
C1064 H1051 0.960 . S
C1064 C1063 1.524 . S
C1065 C1062 1.403 . S
C1065 C1066 1.392 . S
C1065 C1069 1.495 . S
C1066 C1065 1.392 . S
C1066 C1067 1.385 . S
C1066 C1068 1.478 . S
C1067 H1061 0.930 . S
C1067 C1063 1.400 . S
C1067 C1066 1.385 . S
C1068 C1066 1.478 . S
C1068 C1070 1.381 . S
C1068 C1074 1.383 . S
C1069 C1065 1.495 . S
C1069 H1075 0.959 . S
C1069 H1076 0.961 . S
C1069 H1077 0.960 . S
C1070 C1068 1.381 . S
C1070 C1071 1.394 . S
C1070 H1078 0.930 . S
C1071 C1070 1.394 . S
C1071 C1072 1.383 . S
C1071 H1079 0.929 . S
C1072 C1071 1.383 . S
C1072 C1073 1.377 . S
C1073 H1057 0.930 . S
C1073 C1072 1.377 . S
C1073 C1074 1.379 . S
C1074 H1058 0.931 . S
C1074 C1068 1.383 . S
C1074 C1073 1.379 . S
H1075 C1069 0.959 . S
H1076 C1069 0.961 . S
H1077 C1069 0.960 . S
H1078 C1070 0.930 . S
H1079 C1071 0.929 . S
H1080 C1088 0.929 . S
H1081 C1090 0.930 . S
H1082 C1092 0.930 . S
H1083 C1095 0.929 . S
H1084 C1098 0.930 . S
H1085 C1100 0.960 . S
H1086 C1100 0.960 . S
H1087 C1100 0.960 . S
C1088 H1080 0.929 . S
C1088 C1089 1.377 . S
C1088 C1090 1.384 . S
C1089 C1088 1.377 . S
C1089 C1095 1.390 . S
C1090 H1081 0.930 . S
C1090 C1088 1.384 . S
C1090 C1091 1.372 . S
C1091 C1090 1.372 . S
C1091 C1092 1.400 . S
C1091 C1096 1.490 . S
C1092 H1082 0.930 . S
C1092 C1091 1.400 . S
C1092 C1095 1.386 . S
H1093 C1109 0.930 . S
H1094 C1110 0.931 . S
C1095 H1083 0.929 . S
C1095 C1089 1.390 . S
C1095 C1092 1.386 . S
C1096 C1091 1.490 . S
C1096 C1098 1.395 . S
C1096 C1099 1.403 . S
H1097 C1103 0.930 . S
C1098 H1084 0.930 . S
C1098 C1096 1.395 . S
C1098 C1101 1.403 . S
C1099 C1096 1.403 . S
C1099 C1100 1.524 . S
C1099 C1103 1.400 . S
C1100 H1085 0.960 . S
C1100 H1086 0.960 . S
C1100 H1087 0.960 . S
C1100 C1099 1.524 . S
C1101 C1098 1.403 . S
C1101 C1102 1.392 . S
C1101 C1105 1.495 . S
C1102 C1101 1.392 . S
C1102 C1103 1.385 . S
C1102 C1104 1.478 . S
C1103 H1097 0.930 . S
C1103 C1099 1.400 . S
C1103 C1102 1.385 . S
C1104 C1102 1.478 . S
C1104 C1106 1.381 . S
C1104 C1110 1.383 . S
C1105 C1101 1.495 . S
C1105 H1111 0.959 . S
C1105 H1112 0.961 . S
C1105 H1113 0.960 . S
C1106 C1104 1.381 . S
C1106 C1107 1.394 . S
C1106 H1114 0.930 . S
C1107 C1106 1.394 . S
C1107 C1108 1.383 . S
C1107 H1115 0.929 . S
C1108 C1107 1.383 . S
C1108 C1109 1.377 . S
C1109 H1093 0.930 . S
C1109 C1108 1.377 . S
C1109 C1110 1.379 . S
C1110 H1094 0.931 . S
C1110 C1104 1.383 . S
C1110 C1109 1.379 . S
H1111 C1105 0.959 . S
H1112 C1105 0.961 . S
H1113 C1105 0.960 . S
H1114 C1106 0.930 . S
H1115 C1107 0.929 . S
H1116 C1124 0.929 . S
H1117 C1126 0.930 . S
H1118 C1128 0.930 . S
H1119 C1131 0.929 . S
H1120 C1134 0.930 . S
H1121 C1136 0.960 . S
H1122 C1136 0.960 . S
H1123 C1136 0.960 . S
C1124 H1116 0.929 . S
C1124 C1125 1.377 . S
C1124 C1126 1.384 . S
C1125 C1124 1.377 . S
C1125 C1131 1.390 . S
C1126 H1117 0.930 . S
C1126 C1124 1.384 . S
C1126 C1127 1.372 . S
C1127 C1126 1.372 . S
C1127 C1128 1.400 . S
C1127 C1132 1.490 . S
C1128 H1118 0.930 . S
C1128 C1127 1.400 . S
C1128 C1131 1.386 . S
H1129 C1145 0.930 . S
H1130 C1146 0.931 . S
C1131 H1119 0.929 . S
C1131 C1125 1.390 . S
C1131 C1128 1.386 . S
C1132 C1127 1.490 . S
C1132 C1134 1.395 . S
C1132 C1135 1.403 . S
H1133 C1139 0.930 . S
C1134 H1120 0.930 . S
C1134 C1132 1.395 . S
C1134 C1137 1.403 . S
C1135 C1132 1.403 . S
C1135 C1136 1.524 . S
C1135 C1139 1.400 . S
C1136 H1121 0.960 . S
C1136 H1122 0.960 . S
C1136 H1123 0.960 . S
C1136 C1135 1.524 . S
C1137 C1134 1.403 . S
C1137 C1138 1.392 . S
C1137 C1141 1.495 . S
C1138 C1137 1.392 . S
C1138 C1139 1.385 . S
C1138 C1140 1.478 . S
C1139 H1133 0.930 . S
C1139 C1135 1.400 . S
C1139 C1138 1.385 . S
C1140 C1138 1.478 . S
C1140 C1142 1.381 . S
C1140 C1146 1.383 . S
C1141 C1137 1.495 . S
C1141 H1147 0.959 . S
C1141 H1148 0.961 . S
C1141 H1149 0.960 . S
C1142 C1140 1.381 . S
C1142 C1143 1.394 . S
C1142 H1150 0.930 . S
C1143 C1142 1.394 . S
C1143 C1144 1.383 . S
C1143 H1151 0.929 . S
C1144 C1143 1.383 . S
C1144 C1145 1.377 . S
C1145 H1129 0.930 . S
C1145 C1144 1.377 . S
C1145 C1146 1.379 . S
C1146 H1130 0.931 . S
C1146 C1140 1.383 . S
C1146 C1145 1.379 . S
H1147 C1141 0.959 . S
H1148 C1141 0.961 . S
H1149 C1141 0.960 . S
H1150 C1142 0.930 . S
H1151 C1143 0.929 . S
H1152 C1160 0.929 . S
H1153 C1162 0.930 1_556 S
H1154 C1164 0.930 . S
H1155 C1167 0.929 . S
H1156 C1170 0.930 . S
H1157 C1172 0.960 1_556 S
H1158 C1172 0.960 1_556 S
H1159 C1172 0.960 . S
C1160 H1152 0.929 . S
C1160 C1161 1.377 . S
C1160 C1162 1.384 . S
C1161 C1160 1.377 . S
C1161 C1167 1.390 . S
C1162 H1153 0.930 1_554 S
C1162 C1160 1.384 . S
C1162 C1163 1.372 . S
C1163 C1162 1.372 . S
C1163 C1164 1.400 . S
C1163 C1168 1.490 . S
C1164 H1154 0.930 . S
C1164 C1163 1.400 . S
C1164 C1167 1.386 . S
H1165 C1181 0.930 . S
H1166 C1182 0.931 1_554 S
C1167 H1155 0.929 . S
C1167 C1161 1.390 . S
C1167 C1164 1.386 . S
C1168 C1163 1.490 . S
C1168 C1170 1.395 . S
C1168 C1171 1.403 . S
H1169 C1175 0.930 . S
C1170 H1156 0.930 . S
C1170 C1168 1.395 . S
C1170 C1173 1.403 1_454 S
C1171 C1168 1.403 . S
C1171 C1172 1.524 . S
C1171 C1175 1.400 1_454 S
C1172 H1157 0.960 1_554 S
C1172 H1158 0.960 1_554 S
C1172 H1159 0.960 . S
C1172 C1171 1.524 . S
C1173 C1170 1.403 1_656 S
C1173 C1174 1.392 . S
C1173 C1177 1.495 . S
C1174 C1173 1.392 . S
C1174 C1175 1.385 . S
C1174 C1176 1.478 . S
C1175 H1169 0.930 . S
C1175 C1171 1.400 1_656 S
C1175 C1174 1.385 . S
C1176 C1174 1.478 . S
C1176 C1178 1.381 . S
C1176 C1182 1.383 . S
C1177 C1173 1.495 . S
C1177 H1183 0.959 . S
C1177 H1184 0.961 1_556 S
C1177 H1185 0.960 . S
C1178 C1176 1.381 . S
C1178 C1179 1.394 . S
C1178 H1186 0.930 . S
C1179 C1178 1.394 . S
C1179 C1180 1.383 . S
C1179 H1187 0.929 . S
C1180 C1179 1.383 . S
C1180 C1181 1.377 . S
C1181 H1165 0.930 . S
C1181 C1180 1.377 . S
C1181 C1182 1.379 . S
C1182 H1166 0.931 1_556 S
C1182 C1176 1.383 . S
C1182 C1181 1.379 . S
H1183 C1177 0.959 . S
H1184 C1177 0.961 1_554 S
H1185 C1177 0.960 . S
H1186 C1178 0.930 . S
H1187 C1179 0.929 . S
H1188 C1196 0.929 . S
H1189 C1198 0.930 . S
H1190 C1200 0.930 . S
H1191 C1203 0.929 . S
H1192 C1206 0.930 . S
H1193 C1208 0.960 . S
H1194 C1208 0.960 . S
H1195 C1208 0.960 . S
C1196 H1188 0.929 . S
C1196 C1197 1.377 . S
C1196 C1198 1.384 . S
C1197 C1196 1.377 . S
C1197 C1203 1.390 . S
C1198 H1189 0.930 . S
C1198 C1196 1.384 . S
C1198 C1199 1.372 . S
C1199 C1198 1.372 . S
C1199 C1200 1.400 . S
C1199 C1204 1.490 . S
C1200 H1190 0.930 . S
C1200 C1199 1.400 . S
C1200 C1203 1.386 . S
H1201 C1217 0.930 . S
H1202 C1218 0.931 1_556 S
C1203 H1191 0.929 . S
C1203 C1197 1.390 . S
C1203 C1200 1.386 . S
C1204 C1199 1.490 . S
C1204 C1206 1.395 . S
C1204 C1207 1.403 1_556 S
H1205 C1211 0.930 . S
C1206 H1192 0.930 . S
C1206 C1204 1.395 . S
C1206 C1209 1.403 . S
C1207 C1204 1.403 1_554 S
C1207 C1208 1.524 . S
C1207 C1211 1.400 . S
C1208 H1193 0.960 . S
C1208 H1194 0.960 . S
C1208 H1195 0.960 . S
C1208 C1207 1.524 . S
C1209 C1206 1.403 . S
C1209 C1210 1.392 1_556 S
C1209 C1213 1.495 . S
C1210 C1209 1.392 1_554 S
C1210 C1211 1.385 . S
C1210 C1212 1.478 . S
C1211 H1205 0.930 . S
C1211 C1207 1.400 . S
C1211 C1210 1.385 . S
C1212 C1210 1.478 . S
C1212 C1214 1.381 . S
C1212 C1218 1.383 . S
C1213 C1209 1.495 . S
C1213 H1219 0.959 . S
C1213 H1220 0.961 . S
C1213 H1221 0.960 . S
C1214 C1212 1.381 . S
C1214 C1215 1.394 . S
C1214 H1222 0.930 . S
C1215 C1214 1.394 . S
C1215 C1216 1.383 . S
C1215 H1223 0.929 . S
C1216 C1215 1.383 . S
C1216 C1217 1.377 . S
C1217 H1201 0.930 . S
C1217 C1216 1.377 . S
C1217 C1218 1.379 . S
C1218 H1202 0.931 1_554 S
C1218 C1212 1.383 . S
C1218 C1217 1.379 . S
H1219 C1213 0.959 . S
H1220 C1213 0.961 . S
H1221 C1213 0.960 . S
H1222 C1214 0.930 . S
H1223 C1215 0.929 . S
H1224 C1232 0.929 . S
H1225 C1234 0.930 . S
H1226 C1236 0.930 . S
H1227 C1239 0.929 . S
H1228 C1242 0.930 . S
H1229 C1244 0.960 . S
H1230 C1244 0.960 . S
H1231 C1244 0.960 . S
C1232 H1224 0.929 . S
C1232 C1233 1.377 . S
C1232 C1234 1.384 . S
C1233 C1232 1.377 . S
C1233 C1239 1.390 . S
C1234 H1225 0.930 . S
C1234 C1232 1.384 . S
C1234 C1235 1.372 . S
C1235 C1234 1.372 . S
C1235 C1236 1.400 . S
C1235 C1240 1.490 . S
C1236 H1226 0.930 . S
C1236 C1235 1.400 . S
C1236 C1239 1.386 . S
H1237 C1253 0.930 . S
H1238 C1254 0.931 . S
C1239 H1227 0.929 . S
C1239 C1233 1.390 . S
C1239 C1236 1.386 . S
C1240 C1235 1.490 . S
C1240 C1242 1.395 . S
C1240 C1243 1.403 1_554 S
H1241 C1247 0.930 . S
C1242 H1228 0.930 . S
C1242 C1240 1.395 . S
C1242 C1245 1.403 1_565 S
C1243 C1240 1.403 1_556 S
C1243 C1244 1.524 . S
C1243 C1247 1.400 1_565 S
C1244 H1229 0.960 . S
C1244 H1230 0.960 . S
C1244 H1231 0.960 . S
C1244 C1243 1.524 . S
C1245 C1242 1.403 1_545 S
C1245 C1246 1.392 1_554 S
C1245 C1249 1.495 . S
C1246 C1245 1.392 1_556 S
C1246 C1247 1.385 . S
C1246 C1248 1.478 . S
C1247 H1241 0.930 . S
C1247 C1243 1.400 1_545 S
C1247 C1246 1.385 . S
C1248 C1246 1.478 . S
C1248 C1250 1.381 . S
C1248 C1254 1.383 . S
C1249 C1245 1.495 . S
C1249 H1255 0.959 . S
C1249 H1256 0.961 . S
C1249 H1257 0.960 . S
C1250 C1248 1.381 . S
C1250 C1251 1.394 . S
C1250 H1258 0.930 . S
C1251 C1250 1.394 . S
C1251 C1252 1.383 . S
C1251 H1259 0.929 . S
C1252 C1251 1.383 . S
C1252 C1253 1.377 . S
C1253 H1237 0.930 . S
C1253 C1252 1.377 . S
C1253 C1254 1.379 . S
C1254 H1238 0.931 . S
C1254 C1248 1.383 . S
C1254 C1253 1.379 . S
H1255 C1249 0.959 . S
H1256 C1249 0.961 . S
H1257 C1249 0.960 . S
H1258 C1250 0.930 . S
H1259 C1251 0.929 . S
H1260 C1268 0.929 . S
H1261 C1270 0.930 . S
H1262 C1272 0.930 1_554 S
H1263 C1275 0.929 . S
H1264 C1278 0.930 . S
H1265 C1280 0.960 . S
H1266 C1280 0.960 . S
H1267 C1280 0.960 . S
C1268 H1260 0.929 . S
C1268 C1269 1.377 . S
C1268 C1270 1.384 . S
C1269 C1268 1.377 . S
C1269 C1275 1.390 . S
C1270 H1261 0.930 . S
C1270 C1268 1.384 . S
C1270 C1271 1.372 . S
C1271 C1270 1.372 . S
C1271 C1272 1.400 . S
C1271 C1276 1.490 . S
C1272 H1262 0.930 1_556 S
C1272 C1271 1.400 . S
C1272 C1275 1.386 . S
H1273 C1289 0.930 . S
H1274 C1290 0.931 . S
C1275 H1263 0.929 . S
C1275 C1269 1.390 . S
C1275 C1272 1.386 . S
C1276 C1271 1.490 . S
C1276 C1278 1.395 . S
C1276 C1279 1.403 1_556 S
H1277 C1283 0.930 . S
C1278 H1264 0.930 . S
C1278 C1276 1.395 . S
C1278 C1281 1.403 1_655 S
C1279 C1276 1.403 1_554 S
C1279 C1280 1.524 . S
C1279 C1283 1.400 1_655 S
C1280 H1265 0.960 . S
C1280 H1266 0.960 . S
C1280 H1267 0.960 . S
C1280 C1279 1.524 . S
C1281 C1278 1.403 1_455 S
C1281 C1282 1.392 1_556 S
C1281 C1285 1.495 . S
C1282 C1281 1.392 1_554 S
C1282 C1283 1.385 . S
C1282 C1284 1.478 . S
C1283 H1277 0.930 . S
C1283 C1279 1.400 1_455 S
C1283 C1282 1.385 . S
C1284 C1282 1.478 . S
C1284 C1286 1.381 . S
C1284 C1290 1.383 . S
C1285 C1281 1.495 . S
C1285 H1291 0.959 . S
C1285 H1292 0.961 . S
C1285 H1293 0.960 . S
C1286 C1284 1.381 . S
C1286 C1287 1.394 . S
C1286 H1294 0.930 1_554 S
C1287 C1286 1.394 . S
C1287 C1288 1.383 . S
C1287 H1295 0.929 . S
C1288 C1287 1.383 . S
C1288 C1289 1.377 . S
C1289 H1273 0.930 . S
C1289 C1288 1.377 . S
C1289 C1290 1.379 . S
C1290 H1274 0.931 . S
C1290 C1284 1.383 . S
C1290 C1289 1.379 . S
H1291 C1285 0.959 . S
H1292 C1285 0.961 . S
H1293 C1285 0.960 . S
H1294 C1286 0.930 1_556 S
H1295 C1287 0.929 . S
H1296 C1304 0.929 . S
H1297 C1306 0.930 . S
H1298 C1308 0.930 1_554 S
H1299 C1311 0.929 1_554 S
H1300 C1314 0.930 . S
H1301 C1316 0.960 . S
H1302 C1316 0.960 . S
H1303 C1316 0.960 . S
C1304 H1296 0.929 . S
C1304 C1305 1.377 . S
C1304 C1306 1.384 . S
C1305 C1304 1.377 . S
C1305 C1311 1.390 . S
C1306 H1297 0.930 . S
C1306 C1304 1.384 . S
C1306 C1307 1.372 . S
C1307 C1306 1.372 . S
C1307 C1308 1.400 . S
C1307 C1312 1.490 . S
C1308 H1298 0.930 1_556 S
C1308 C1307 1.400 . S
C1308 C1311 1.386 . S
H1309 C1325 0.930 . S
H1310 C1326 0.931 . S
C1311 H1299 0.929 1_556 S
C1311 C1305 1.390 . S
C1311 C1308 1.386 . S
C1312 C1307 1.490 . S
C1312 C1314 1.395 . S
C1312 C1315 1.403 1_556 S
H1313 C1319 0.930 . S
C1314 H1300 0.930 . S
C1314 C1312 1.395 . S
C1314 C1317 1.403 . S
C1315 C1312 1.403 1_554 S
C1315 C1316 1.524 . S
C1315 C1319 1.400 . S
C1316 H1301 0.960 . S
C1316 H1302 0.960 . S
C1316 H1303 0.960 . S
C1316 C1315 1.524 . S
C1317 C1314 1.403 . S
C1317 C1318 1.392 1_556 S
C1317 C1321 1.495 . S
C1318 C1317 1.392 1_554 S
C1318 C1319 1.385 . S
C1318 C1320 1.478 . S
C1319 H1313 0.930 . S
C1319 C1315 1.400 . S
C1319 C1318 1.385 . S
C1320 C1318 1.478 . S
C1320 C1322 1.381 1_554 S
C1320 C1326 1.383 . S
C1321 C1317 1.495 . S
C1321 H1327 0.959 . S
C1321 H1328 0.961 . S
C1321 H1329 0.960 . S
C1322 C1320 1.381 1_556 S
C1322 C1323 1.394 1_556 S
C1322 H1330 0.930 . S
C1323 C1322 1.394 1_554 S
C1323 C1324 1.383 . S
C1323 H1331 0.929 1_554 S
C1324 C1323 1.383 . S
C1324 C1325 1.377 . S
C1325 H1309 0.930 . S
C1325 C1324 1.377 . S
C1325 C1326 1.379 . S
C1326 H1310 0.931 . S
C1326 C1320 1.383 . S
C1326 C1325 1.379 . S
H1327 C1321 0.959 . S
H1328 C1321 0.961 . S
H1329 C1321 0.960 . S
H1330 C1322 0.930 . S
H1331 C1323 0.929 1_556 S
H1332 C1340 0.929 . S
H1333 C1342 0.930 . S
H1334 C1344 0.930 1_554 S
H1335 C1347 0.929 . S
H1336 C1350 0.930 . S
H1337 C1352 0.960 . S
H1338 C1352 0.960 . S
H1339 C1352 0.960 . S
C1340 H1332 0.929 . S
C1340 C1341 1.377 . S
C1340 C1342 1.384 . S
C1341 C1340 1.377 . S
C1341 C1347 1.390 . S
C1342 H1333 0.930 . S
C1342 C1340 1.384 . S
C1342 C1343 1.372 . S
C1343 C1342 1.372 . S
C1343 C1344 1.400 . S
C1343 C1348 1.490 . S
C1344 H1334 0.930 1_556 S
C1344 C1343 1.400 . S
C1344 C1347 1.386 . S
H1345 C1361 0.930 . S
H1346 C1362 0.931 . S
C1347 H1335 0.929 . S
C1347 C1341 1.390 . S
C1347 C1344 1.386 . S
C1348 C1343 1.490 . S
C1348 C1350 1.395 . S
C1348 C1351 1.403 . S
H1349 C1355 0.931 . S
C1350 H1336 0.930 . S
C1350 C1348 1.395 . S
C1350 C1353 1.403 1_546 S
C1351 C1348 1.403 . S
C1351 C1352 1.524 . S
C1351 C1355 1.392 1_546 S
C1352 H1337 0.960 . S
C1352 H1338 0.960 . S
C1352 H1339 0.960 . S
C1352 C1351 1.524 . S
C1353 C1350 1.403 1_564 S
C1353 C1354 1.392 . S
C1353 C1357 1.495 . S
C1354 C1353 1.392 . S
C1354 C1355 1.392 . S
C1354 C1356 1.478 . S
C1355 H1349 0.931 . S
C1355 C1351 1.392 1_564 S
C1355 C1354 1.392 . S
C1356 C1354 1.478 . S
C1356 C1358 1.381 . S
C1356 C1362 1.383 . S
C1357 C1353 1.495 . S
C1357 H1363 0.959 . S
C1357 H1364 0.961 . S
C1357 H1365 0.960 . S
C1358 C1356 1.381 . S
C1358 C1359 1.394 . S
C1358 H1366 0.930 1_554 S
C1359 C1358 1.394 . S
C1359 C1360 1.383 . S
C1359 H1367 0.929 . S
C1360 C1359 1.383 . S
C1360 C1361 1.377 . S
C1361 H1345 0.930 . S
C1361 C1360 1.377 . S
C1361 C1362 1.379 . S
C1362 H1346 0.931 . S
C1362 C1356 1.383 . S
C1362 C1361 1.379 . S
H1363 C1357 0.959 . S
H1364 C1357 0.961 . S
H1365 C1357 0.960 . S
H1366 C1358 0.930 1_556 S
H1367 C1359 0.929 . S
H1368 C1376 0.929 . S
H1369 C1378 0.930 . S
H1370 C1380 0.930 . S
H1371 C1383 0.929 . S
H1372 C1386 0.930 . S
H1373 C1388 0.960 . S
H1374 C1388 0.960 . S
H1375 C1388 0.960 . S
C1376 H1368 0.929 . S
C1376 C1377 1.377 . S
C1376 C1378 1.384 . S
C1377 C1376 1.377 . S
C1377 C1383 1.390 . S
C1378 H1369 0.930 . S
C1378 C1376 1.384 . S
C1378 C1379 1.372 . S
C1379 C1378 1.372 . S
C1379 C1380 1.400 . S
C1379 C1384 1.490 . S
C1380 H1370 0.930 . S
C1380 C1379 1.400 . S
C1380 C1383 1.386 . S
H1381 C1397 0.930 . S
H1382 C1398 0.931 . S
C1383 H1371 0.929 . S
C1383 C1377 1.390 . S
C1383 C1380 1.386 . S
C1384 C1379 1.490 . S
C1384 C1386 1.395 . S
C1384 C1387 1.403 . S
H1385 C1391 0.930 . S
C1386 H1372 0.930 . S
C1386 C1384 1.395 . S
C1386 C1389 1.403 . S
C1387 C1384 1.403 . S
C1387 C1388 1.524 . S
C1387 C1391 1.400 . S
C1388 H1373 0.960 . S
C1388 H1374 0.960 . S
C1388 H1375 0.960 . S
C1388 C1387 1.524 . S
C1389 C1386 1.403 . S
C1389 C1390 1.392 . S
C1389 C1393 1.495 . S
C1390 C1389 1.392 . S
C1390 C1391 1.385 . S
C1390 C1392 1.478 . S
C1391 H1385 0.930 . S
C1391 C1387 1.400 . S
C1391 C1390 1.385 . S
C1392 C1390 1.478 . S
C1392 C1394 1.381 . S
C1392 C1398 1.383 . S
C1393 C1389 1.495 . S
C1393 H1399 0.959 . S
C1393 H1400 0.961 . S
C1393 H1401 0.960 . S
C1394 C1392 1.381 . S
C1394 C1395 1.394 . S
C1394 H1402 0.930 . S
C1395 C1394 1.394 . S
C1395 C1396 1.383 . S
C1395 H1403 0.929 . S
C1396 C1395 1.383 . S
C1396 C1397 1.377 . S
C1397 H1381 0.930 . S
C1397 C1396 1.377 . S
C1397 C1398 1.379 . S
C1398 H1382 0.931 . S
C1398 C1392 1.383 . S
C1398 C1397 1.379 . S
H1399 C1393 0.959 . S
H1400 C1393 0.961 . S
H1401 C1393 0.960 . S
H1402 C1394 0.930 . S
H1403 C1395 0.929 . S
H1404 C1412 0.929 . S
H1405 C1414 0.930 . S
H1406 C1416 0.930 . S
H1407 C1419 0.929 . S
H1408 C1422 0.930 . S
H1409 C1424 0.960 . S
H1410 C1424 0.960 . S
H1411 C1424 0.960 . S
C1412 H1404 0.929 . S
C1412 C1413 1.377 . S
C1412 C1414 1.384 . S
C1413 C1412 1.377 . S
C1413 C1419 1.390 . S
C1414 H1405 0.930 . S
C1414 C1412 1.384 . S
C1414 C1415 1.372 . S
C1415 C1414 1.372 . S
C1415 C1416 1.400 . S
C1415 C1420 1.490 . S
C1416 H1406 0.930 . S
C1416 C1415 1.400 . S
C1416 C1419 1.386 . S
H1417 C1433 0.930 . S
H1418 C1434 0.931 . S
C1419 H1407 0.929 . S
C1419 C1413 1.390 . S
C1419 C1416 1.386 . S
C1420 C1415 1.490 . S
C1420 C1422 1.395 . S
C1420 C1423 1.403 . S
H1421 C1427 0.930 . S
C1422 H1408 0.930 . S
C1422 C1420 1.395 . S
C1422 C1425 1.403 . S
C1423 C1420 1.403 . S
C1423 C1424 1.524 . S
C1423 C1427 1.400 . S
C1424 H1409 0.960 . S
C1424 H1410 0.960 . S
C1424 H1411 0.960 . S
C1424 C1423 1.524 . S
C1425 C1422 1.403 . S
C1425 C1426 1.392 . S
C1425 C1429 1.495 . S
C1426 C1425 1.392 . S
C1426 C1427 1.385 . S
C1426 C1428 1.478 . S
C1427 H1421 0.930 . S
C1427 C1423 1.400 . S
C1427 C1426 1.385 . S
C1428 C1426 1.478 . S
C1428 C1430 1.381 . S
C1428 C1434 1.383 . S
C1429 C1425 1.495 . S
C1429 H1435 0.959 . S
C1429 H1436 0.961 . S
C1429 H1437 0.960 . S
C1430 C1428 1.381 . S
C1430 C1431 1.394 . S
C1430 H1438 0.930 . S
C1431 C1430 1.394 . S
C1431 C1432 1.383 . S
C1431 H1439 0.929 . S
C1432 C1431 1.383 . S
C1432 C1433 1.377 . S
C1433 H1417 0.930 . S
C1433 C1432 1.377 . S
C1433 C1434 1.379 . S
C1434 H1418 0.931 . S
C1434 C1428 1.383 . S
C1434 C1433 1.379 . S
H1435 C1429 0.959 . S
H1436 C1429 0.961 . S
H1437 C1429 0.960 . S
H1438 C1430 0.930 . S
H1439 C1431 0.929 . S
H1440 C1448 0.929 . S
H1441 C1450 0.930 . S
H1442 C1452 0.930 . S
H1443 C1455 0.929 . S
H1444 C1458 0.930 . S
H1445 C1460 0.960 . S
H1446 C1460 0.960 . S
H1447 C1460 0.960 . S
C1448 H1440 0.929 . S
C1448 C1449 1.377 . S
C1448 C1450 1.384 . S
C1449 C1448 1.377 . S
C1449 C1455 1.390 . S
C1450 H1441 0.930 . S
C1450 C1448 1.384 . S
C1450 C1451 1.372 . S
C1451 C1450 1.372 . S
C1451 C1452 1.400 . S
C1451 C1456 1.490 . S
C1452 H1442 0.930 . S
C1452 C1451 1.400 . S
C1452 C1455 1.386 . S
H1453 C1469 0.930 . S
H1454 C1470 0.931 . S
C1455 H1443 0.929 . S
C1455 C1449 1.390 . S
C1455 C1452 1.386 . S
C1456 C1451 1.490 . S
C1456 C1458 1.395 . S
C1456 C1459 1.403 . S
H1457 C1463 0.930 . S
C1458 H1444 0.930 . S
C1458 C1456 1.395 . S
C1458 C1461 1.403 . S
C1459 C1456 1.403 . S
C1459 C1460 1.524 . S
C1459 C1463 1.400 . S
C1460 H1445 0.960 . S
C1460 H1446 0.960 . S
C1460 H1447 0.960 . S
C1460 C1459 1.524 . S
C1461 C1458 1.403 . S
C1461 C1462 1.392 . S
C1461 C1465 1.495 . S
C1462 C1461 1.392 . S
C1462 C1463 1.385 . S
C1462 C1464 1.478 . S
C1463 H1457 0.930 . S
C1463 C1459 1.400 . S
C1463 C1462 1.385 . S
C1464 C1462 1.478 . S
C1464 C1466 1.381 . S
C1464 C1470 1.383 . S
C1465 C1461 1.495 . S
C1465 H1471 0.959 . S
C1465 H1472 0.961 . S
C1465 H1473 0.960 . S
C1466 C1464 1.381 . S
C1466 C1467 1.394 . S
C1466 H1474 0.930 . S
C1467 C1466 1.394 . S
C1467 C1468 1.383 . S
C1467 H1475 0.929 . S
C1468 C1467 1.383 . S
C1468 C1469 1.377 . S
C1469 H1453 0.930 . S
C1469 C1468 1.377 . S
C1469 C1470 1.379 . S
C1470 H1454 0.931 . S
C1470 C1464 1.383 . S
C1470 C1469 1.379 . S
H1471 C1465 0.959 . S
H1472 C1465 0.961 . S
H1473 C1465 0.960 . S
H1474 C1466 0.930 . S
H1475 C1467 0.929 . S
H1476 C1484 0.929 . S
H1477 C1486 0.930 . S
H1478 C1488 0.930 . S
H1479 C1491 0.929 . S
H1480 C1494 0.930 . S
H1481 C1496 0.960 . S
H1482 C1496 0.960 . S
H1483 C1496 0.960 . S
C1484 H1476 0.929 . S
C1484 C1485 1.377 . S
C1484 C1486 1.384 . S
C1485 C1484 1.377 . S
C1485 C1491 1.390 . S
C1486 H1477 0.930 . S
C1486 C1484 1.384 . S
C1486 C1487 1.372 . S
C1487 C1486 1.372 . S
C1487 C1488 1.400 . S
C1487 C1492 1.490 . S
C1488 H1478 0.930 . S
C1488 C1487 1.400 . S
C1488 C1491 1.386 . S
H1489 C1505 0.930 . S
H1490 C1506 0.931 . S
C1491 H1479 0.929 . S
C1491 C1485 1.390 . S
C1491 C1488 1.386 . S
C1492 C1487 1.490 . S
C1492 C1494 1.395 . S
C1492 C1495 1.403 . S
H1493 C1499 0.930 . S
C1494 H1480 0.930 . S
C1494 C1492 1.395 . S
C1494 C1497 1.403 . S
C1495 C1492 1.403 . S
C1495 C1496 1.524 . S
C1495 C1499 1.400 . S
C1496 H1481 0.960 . S
C1496 H1482 0.960 . S
C1496 H1483 0.960 . S
C1496 C1495 1.524 . S
C1497 C1494 1.403 . S
C1497 C1498 1.392 . S
C1497 C1501 1.495 . S
C1498 C1497 1.392 . S
C1498 C1499 1.385 . S
C1498 C1500 1.478 . S
C1499 H1493 0.930 . S
C1499 C1495 1.400 . S
C1499 C1498 1.385 . S
C1500 C1498 1.478 . S
C1500 C1502 1.381 . S
C1500 C1506 1.383 . S
C1501 C1497 1.495 . S
C1501 H1507 0.959 . S
C1501 H1508 0.961 . S
C1501 H1509 0.960 . S
C1502 C1500 1.381 . S
C1502 C1503 1.394 . S
C1502 H1510 0.930 . S
C1503 C1502 1.394 . S
C1503 C1504 1.383 . S
C1503 H1511 0.929 . S
C1504 C1503 1.383 . S
C1504 C1505 1.377 . S
C1505 H1489 0.930 . S
C1505 C1504 1.377 . S
C1505 C1506 1.379 . S
C1506 H1490 0.931 . S
C1506 C1500 1.383 . S
C1506 C1505 1.379 . S
H1507 C1501 0.959 . S
H1508 C1501 0.961 . S
H1509 C1501 0.960 . S
H1510 C1502 0.930 . S
H1511 C1503 0.929 . S
H1512 C1520 0.929 . S
H1513 C1522 0.930 . S
H1514 C1524 0.930 . S
H1515 C1527 0.929 . S
H1516 C1530 0.930 . S
H1517 C1532 0.960 . S
H1518 C1532 0.960 . S
H1519 C1532 0.960 . S
C1520 H1512 0.929 . S
C1520 C1521 1.377 . S
C1520 C1522 1.384 . S
C1521 C1520 1.377 . S
C1521 C1527 1.390 . S
C1522 H1513 0.930 . S
C1522 C1520 1.384 . S
C1522 C1523 1.372 . S
C1523 C1522 1.372 . S
C1523 C1524 1.400 . S
C1523 C1528 1.490 . S
C1524 H1514 0.930 . S
C1524 C1523 1.400 . S
C1524 C1527 1.386 . S
H1525 C1541 0.930 . S
H1526 C1542 0.931 . S
C1527 H1515 0.929 . S
C1527 C1521 1.390 . S
C1527 C1524 1.386 . S
C1528 C1523 1.490 . S
C1528 C1530 1.395 . S
C1528 C1531 1.403 . S
H1529 C1535 0.930 . S
C1530 H1516 0.930 . S
C1530 C1528 1.395 . S
C1530 C1533 1.403 . S
C1531 C1528 1.403 . S
C1531 C1532 1.524 . S
C1531 C1535 1.400 . S
C1532 H1517 0.960 . S
C1532 H1518 0.960 . S
C1532 H1519 0.960 . S
C1532 C1531 1.524 . S
C1533 C1530 1.403 . S
C1533 C1534 1.392 . S
C1533 C1537 1.495 . S
C1534 C1533 1.392 . S
C1534 C1535 1.385 . S
C1534 C1536 1.478 . S
C1535 H1529 0.930 . S
C1535 C1531 1.400 . S
C1535 C1534 1.385 . S
C1536 C1534 1.478 . S
C1536 C1538 1.381 . S
C1536 C1542 1.383 . S
C1537 C1533 1.495 . S
C1537 H1543 0.959 . S
C1537 H1544 0.961 . S
C1537 H1545 0.960 . S
C1538 C1536 1.381 . S
C1538 C1539 1.394 . S
C1538 H1546 0.930 . S
C1539 C1538 1.394 . S
C1539 C1540 1.383 . S
C1539 H1547 0.929 . S
C1540 C1539 1.383 . S
C1540 C1541 1.377 . S
C1541 H1525 0.930 . S
C1541 C1540 1.377 . S
C1541 C1542 1.379 . S
C1542 H1526 0.931 . S
C1542 C1536 1.383 . S
C1542 C1541 1.379 . S
H1543 C1537 0.959 . S
H1544 C1537 0.961 . S
H1545 C1537 0.960 . S
H1546 C1538 0.930 . S
H1547 C1539 0.929 . S
H1548 C1556 0.929 . S
H1549 C1558 0.930 . S
H1550 C1560 0.930 . S
H1551 C1563 0.929 . S
H1552 C1566 0.930 . S
H1553 C1568 0.960 . S
H1554 C1568 0.960 . S
H1555 C1568 0.960 . S
C1556 H1548 0.929 . S
C1556 C1557 1.377 . S
C1556 C1558 1.384 . S
C1557 C1556 1.377 . S
C1557 C1563 1.390 . S
C1558 H1549 0.930 . S
C1558 C1556 1.384 . S
C1558 C1559 1.372 . S
C1559 C1558 1.372 . S
C1559 C1560 1.400 . S
C1559 C1564 1.490 . S
C1560 H1550 0.930 . S
C1560 C1559 1.400 . S
C1560 C1563 1.386 . S
H1561 C1577 0.930 . S
H1562 C1578 0.931 . S
C1563 H1551 0.929 . S
C1563 C1557 1.390 . S
C1563 C1560 1.386 . S
C1564 C1559 1.490 . S
C1564 C1566 1.395 . S
C1564 C1567 1.403 . S
H1565 C1571 0.930 . S
C1566 H1552 0.930 . S
C1566 C1564 1.395 . S
C1566 C1569 1.403 . S
C1567 C1564 1.403 . S
C1567 C1568 1.524 . S
C1567 C1571 1.400 . S
C1568 H1553 0.960 . S
C1568 H1554 0.960 . S
C1568 H1555 0.960 . S
C1568 C1567 1.524 . S
C1569 C1566 1.403 . S
C1569 C1570 1.392 . S
C1569 C1573 1.495 . S
C1570 C1569 1.392 . S
C1570 C1571 1.385 . S
C1570 C1572 1.478 . S
C1571 H1565 0.930 . S
C1571 C1567 1.400 . S
C1571 C1570 1.385 . S
C1572 C1570 1.478 . S
C1572 C1574 1.381 . S
C1572 C1578 1.383 . S
C1573 C1569 1.495 . S
C1573 H1579 0.959 . S
C1573 H1580 0.961 . S
C1573 H1581 0.960 . S
C1574 C1572 1.381 . S
C1574 C1575 1.394 . S
C1574 H1582 0.930 . S
C1575 C1574 1.394 . S
C1575 C1576 1.383 . S
C1575 H1583 0.929 . S
C1576 C1575 1.383 . S
C1576 C1577 1.377 . S
C1577 H1561 0.930 . S
C1577 C1576 1.377 . S
C1577 C1578 1.379 . S
C1578 H1562 0.931 . S
C1578 C1572 1.383 . S
C1578 C1577 1.379 . S
H1579 C1573 0.959 . S
H1580 C1573 0.961 . S
H1581 C1573 0.960 . S
H1582 C1574 0.930 . S
H1583 C1575 0.929 . S
H1584 C1592 0.929 . S
H1585 C1594 0.930 . S
H1586 C1596 0.930 . S
H1587 C1599 0.929 . S
H1588 C1602 0.930 . S
H1589 C1604 0.960 . S
H1590 C1604 0.960 . S
H1591 C1604 0.960 . S
C1592 H1584 0.929 . S
C1592 C1593 1.377 . S
C1592 C1594 1.384 . S
C1593 C1592 1.377 . S
C1593 C1599 1.390 . S
C1594 H1585 0.930 . S
C1594 C1592 1.384 . S
C1594 C1595 1.372 . S
C1595 C1594 1.372 . S
C1595 C1596 1.400 . S
C1595 C1600 1.490 . S
C1596 H1586 0.930 . S
C1596 C1595 1.400 . S
C1596 C1599 1.386 . S
H1597 C1613 0.930 . S
H1598 C1614 0.931 . S
C1599 H1587 0.929 . S
C1599 C1593 1.390 . S
C1599 C1596 1.386 . S
C1600 C1595 1.490 . S
C1600 C1602 1.395 . S
C1600 C1603 1.403 . S
H1601 C1607 0.930 . S
C1602 H1588 0.930 . S
C1602 C1600 1.395 . S
C1602 C1605 1.403 . S
C1603 C1600 1.403 . S
C1603 C1604 1.524 . S
C1603 C1607 1.400 . S
C1604 H1589 0.960 . S
C1604 H1590 0.960 . S
C1604 H1591 0.960 . S
C1604 C1603 1.524 . S
C1605 C1602 1.403 . S
C1605 C1606 1.392 . S
C1605 C1609 1.495 . S
C1606 C1605 1.392 . S
C1606 C1607 1.385 . S
C1606 C1608 1.478 . S
C1607 H1601 0.930 . S
C1607 C1603 1.400 . S
C1607 C1606 1.385 . S
C1608 C1606 1.478 . S
C1608 C1610 1.381 . S
C1608 C1614 1.383 . S
C1609 C1605 1.495 . S
C1609 H1615 0.959 . S
C1609 H1616 0.961 . S
C1609 H1617 0.960 . S
C1610 C1608 1.381 . S
C1610 C1611 1.394 . S
C1610 H1618 0.930 . S
C1611 C1610 1.394 . S
C1611 C1612 1.383 . S
C1611 H1619 0.929 . S
C1612 C1611 1.383 . S
C1612 C1613 1.377 . S
C1613 H1597 0.930 . S
C1613 C1612 1.377 . S
C1613 C1614 1.379 . S
C1614 H1598 0.931 . S
C1614 C1608 1.383 . S
C1614 C1613 1.379 . S
H1615 C1609 0.959 . S
H1616 C1609 0.961 . S
H1617 C1609 0.960 . S
H1618 C1610 0.930 . S
H1619 C1611 0.929 . S
H1620 C1628 0.929 . S
H1621 C1630 0.930 . S
H1622 C1632 0.930 . S
H1623 C1635 0.929 . S
H1624 C1638 0.930 . S
H1625 C1640 0.960 . S
H1626 C1640 0.960 . S
H1627 C1640 0.960 . S
C1628 H1620 0.929 . S
C1628 C1629 1.377 . S
C1628 C1630 1.384 . S
C1629 C1628 1.377 . S
C1629 C1635 1.390 . S
C1630 H1621 0.930 . S
C1630 C1628 1.384 . S
C1630 C1631 1.372 . S
C1631 C1630 1.372 . S
C1631 C1632 1.400 . S
C1631 C1636 1.490 . S
C1632 H1622 0.930 . S
C1632 C1631 1.400 . S
C1632 C1635 1.386 . S
H1633 C1649 0.930 . S
H1634 C1650 0.931 . S
C1635 H1623 0.929 . S
C1635 C1629 1.390 . S
C1635 C1632 1.386 . S
C1636 C1631 1.490 . S
C1636 C1638 1.395 . S
C1636 C1639 1.403 . S
H1637 C1643 0.930 . S
C1638 H1624 0.930 . S
C1638 C1636 1.395 . S
C1638 C1641 1.403 . S
C1639 C1636 1.403 . S
C1639 C1640 1.524 . S
C1639 C1643 1.400 . S
C1640 H1625 0.960 . S
C1640 H1626 0.960 . S
C1640 H1627 0.960 . S
C1640 C1639 1.524 . S
C1641 C1638 1.403 . S
C1641 C1642 1.392 . S
C1641 C1645 1.495 . S
C1642 C1641 1.392 . S
C1642 C1643 1.385 . S
C1642 C1644 1.478 . S
C1643 H1637 0.930 . S
C1643 C1639 1.400 . S
C1643 C1642 1.385 . S
C1644 C1642 1.478 . S
C1644 C1646 1.381 . S
C1644 C1650 1.383 . S
C1645 C1641 1.495 . S
C1645 H1651 0.959 . S
C1645 H1652 0.961 . S
C1645 H1653 0.960 . S
C1646 C1644 1.381 . S
C1646 C1647 1.394 . S
C1646 H1654 0.930 . S
C1647 C1646 1.394 . S
C1647 C1648 1.383 . S
C1647 H1655 0.929 . S
C1648 C1647 1.383 . S
C1648 C1649 1.377 . S
C1649 H1633 0.930 . S
C1649 C1648 1.377 . S
C1649 C1650 1.379 . S
C1650 H1634 0.931 . S
C1650 C1644 1.383 . S
C1650 C1649 1.379 . S
H1651 C1645 0.959 . S
H1652 C1645 0.961 . S
H1653 C1645 0.960 . S
H1654 C1646 0.930 . S
H1655 C1647 0.929 . S
H1656 C1664 0.929 . S
H1657 C1666 0.930 . S
H1658 C1668 0.930 . S
H1659 C1671 0.929 . S
H1660 C1674 0.930 . S
H1661 C1676 0.960 . S
H1662 C1676 0.960 . S
H1663 C1676 0.960 . S
C1664 H1656 0.929 . S
C1664 C1665 1.377 . S
C1664 C1666 1.384 . S
C1665 C1664 1.377 . S
C1665 C1671 1.390 . S
C1666 H1657 0.930 . S
C1666 C1664 1.384 . S
C1666 C1667 1.372 . S
C1667 C1666 1.372 . S
C1667 C1668 1.400 . S
C1667 C1672 1.490 . S
C1668 H1658 0.930 . S
C1668 C1667 1.400 . S
C1668 C1671 1.386 . S
H1669 C1685 0.930 . S
H1670 C1686 0.931 . S
C1671 H1659 0.929 . S
C1671 C1665 1.390 . S
C1671 C1668 1.386 . S
C1672 C1667 1.490 . S
C1672 C1674 1.395 . S
C1672 C1675 1.403 . S
H1673 C1679 0.930 . S
C1674 H1660 0.930 . S
C1674 C1672 1.395 . S
C1674 C1677 1.403 . S
C1675 C1672 1.403 . S
C1675 C1676 1.524 . S
C1675 C1679 1.400 . S
C1676 H1661 0.960 . S
C1676 H1662 0.960 . S
C1676 H1663 0.960 . S
C1676 C1675 1.524 . S
C1677 C1674 1.403 . S
C1677 C1678 1.392 . S
C1677 C1681 1.495 . S
C1678 C1677 1.392 . S
C1678 C1679 1.385 . S
C1678 C1680 1.478 . S
C1679 H1673 0.930 . S
C1679 C1675 1.400 . S
C1679 C1678 1.385 . S
C1680 C1678 1.478 . S
C1680 C1682 1.381 . S
C1680 C1686 1.383 . S
C1681 C1677 1.495 . S
C1681 H1687 0.959 . S
C1681 H1688 0.961 . S
C1681 H1689 0.960 . S
C1682 C1680 1.381 . S
C1682 C1683 1.394 . S
C1682 H1690 0.930 . S
C1683 C1682 1.394 . S
C1683 C1684 1.383 . S
C1683 H1691 0.929 . S
C1684 C1683 1.383 . S
C1684 C1685 1.377 . S
C1685 H1669 0.930 . S
C1685 C1684 1.377 . S
C1685 C1686 1.379 . S
C1686 H1670 0.931 . S
C1686 C1680 1.383 . S
C1686 C1685 1.379 . S
H1687 C1681 0.959 . S
H1688 C1681 0.961 . S
H1689 C1681 0.960 . S
H1690 C1682 0.930 . S
H1691 C1683 0.929 . S
H1692 C1700 0.929 . S
H1693 C1702 0.930 . S
H1694 C1704 0.930 . S
H1695 C1707 0.929 . S
H1696 C1710 0.930 . S
H1697 C1712 0.960 . S
H1698 C1712 0.960 . S
H1699 C1712 0.960 . S
C1700 H1692 0.929 . S
C1700 C1701 1.377 . S
C1700 C1702 1.384 . S
C1701 C1700 1.377 . S
C1701 C1707 1.390 . S
C1702 H1693 0.930 . S
C1702 C1700 1.384 . S
C1702 C1703 1.372 . S
C1703 C1702 1.372 . S
C1703 C1704 1.400 . S
C1703 C1708 1.490 . S
C1704 H1694 0.930 . S
C1704 C1703 1.400 . S
C1704 C1707 1.386 . S
H1705 C1721 0.930 . S
H1706 C1722 0.931 . S
C1707 H1695 0.929 . S
C1707 C1701 1.390 . S
C1707 C1704 1.386 . S
C1708 C1703 1.490 . S
C1708 C1710 1.395 . S
C1708 C1711 1.403 . S
H1709 C1715 0.930 . S
C1710 H1696 0.930 . S
C1710 C1708 1.395 . S
C1710 C1713 1.403 . S
C1711 C1708 1.403 . S
C1711 C1712 1.524 . S
C1711 C1715 1.400 . S
C1712 H1697 0.960 . S
C1712 H1698 0.960 . S
C1712 H1699 0.960 . S
C1712 C1711 1.524 . S
C1713 C1710 1.403 . S
C1713 C1714 1.392 . S
C1713 C1717 1.495 . S
C1714 C1713 1.392 . S
C1714 C1715 1.385 . S
C1714 C1716 1.478 . S
C1715 H1709 0.930 . S
C1715 C1711 1.400 . S
C1715 C1714 1.385 . S
C1716 C1714 1.478 . S
C1716 C1718 1.381 . S
C1716 C1722 1.383 . S
C1717 C1713 1.495 . S
C1717 H1723 0.959 . S
C1717 H1724 0.961 . S
C1717 H1725 0.960 . S
C1718 C1716 1.381 . S
C1718 C1719 1.394 . S
C1718 H1726 0.930 . S
C1719 C1718 1.394 . S
C1719 C1720 1.383 . S
C1719 H1727 0.929 . S
C1720 C1719 1.383 . S
C1720 C1721 1.377 . S
C1721 H1705 0.930 . S
C1721 C1720 1.377 . S
C1721 C1722 1.379 . S
C1722 H1706 0.931 . S
C1722 C1716 1.383 . S
C1722 C1721 1.379 . S
H1723 C1717 0.959 . S
H1724 C1717 0.961 . S
H1725 C1717 0.960 . S
H1726 C1718 0.930 . S
H1727 C1719 0.929 . S
H1728 C1736 0.929 . S
H1729 C1738 0.930 . S
H1730 C1740 0.930 . S
H1731 C1743 0.929 . S
H1732 C1746 0.930 . S
H1733 C1748 0.960 . S
H1734 C1748 0.960 . S
H1735 C1748 0.960 . S
C1736 H1728 0.929 . S
C1736 C1737 1.377 . S
C1736 C1738 1.384 . S
C1737 C1736 1.377 . S
C1737 C1743 1.390 . S
C1738 H1729 0.930 . S
C1738 C1736 1.384 . S
C1738 C1739 1.372 . S
C1739 C1738 1.372 . S
C1739 C1740 1.400 . S
C1739 C1744 1.490 . S
C1740 H1730 0.930 . S
C1740 C1739 1.400 . S
C1740 C1743 1.386 . S
H1741 C1757 0.930 . S
H1742 C1758 0.931 . S
C1743 H1731 0.929 . S
C1743 C1737 1.390 . S
C1743 C1740 1.386 . S
C1744 C1739 1.490 . S
C1744 C1746 1.395 . S
C1744 C1747 1.403 . S
H1745 C1751 0.930 . S
C1746 H1732 0.930 . S
C1746 C1744 1.395 . S
C1746 C1749 1.403 . S
C1747 C1744 1.403 . S
C1747 C1748 1.524 . S
C1747 C1751 1.400 . S
C1748 H1733 0.960 . S
C1748 H1734 0.960 . S
C1748 H1735 0.960 . S
C1748 C1747 1.524 . S
C1749 C1746 1.403 . S
C1749 C1750 1.392 . S
C1749 C1753 1.495 . S
C1750 C1749 1.392 . S
C1750 C1751 1.385 . S
C1750 C1752 1.478 . S
C1751 H1745 0.930 . S
C1751 C1747 1.400 . S
C1751 C1750 1.385 . S
C1752 C1750 1.478 . S
C1752 C1754 1.381 . S
C1752 C1758 1.383 . S
C1753 C1749 1.495 . S
C1753 H1759 0.959 . S
C1753 H1760 0.961 . S
C1753 H1761 0.960 . S
C1754 C1752 1.381 . S
C1754 C1755 1.394 . S
C1754 H1762 0.930 . S
C1755 C1754 1.394 . S
C1755 C1756 1.383 . S
C1755 H1763 0.929 . S
C1756 C1755 1.383 . S
C1756 C1757 1.377 . S
C1757 H1741 0.930 . S
C1757 C1756 1.377 . S
C1757 C1758 1.379 . S
C1758 H1742 0.931 . S
C1758 C1752 1.383 . S
C1758 C1757 1.379 . S
H1759 C1753 0.959 . S
H1760 C1753 0.961 . S
H1761 C1753 0.960 . S
H1762 C1754 0.930 . S
H1763 C1755 0.929 . S
H1764 C1772 0.929 . S
H1765 C1774 0.930 . S
H1766 C1776 0.930 . S
H1767 C1779 0.929 . S
H1768 C1782 0.930 . S
H1769 C1784 0.960 . S
H1770 C1784 0.960 . S
H1771 C1784 0.960 . S
C1772 H1764 0.929 . S
C1772 C1773 1.377 . S
C1772 C1774 1.384 . S
C1773 C1772 1.377 . S
C1773 C1779 1.390 . S
C1774 H1765 0.930 . S
C1774 C1772 1.384 . S
C1774 C1775 1.372 . S
C1775 C1774 1.372 . S
C1775 C1776 1.400 . S
C1775 C1780 1.490 . S
C1776 H1766 0.930 . S
C1776 C1775 1.400 . S
C1776 C1779 1.386 . S
H1777 C1793 0.930 . S
H1778 C1794 0.931 . S
C1779 H1767 0.929 . S
C1779 C1773 1.390 . S
C1779 C1776 1.386 . S
C1780 C1775 1.490 . S
C1780 C1782 1.395 . S
C1780 C1783 1.403 . S
H1781 C1787 0.930 . S
C1782 H1768 0.930 . S
C1782 C1780 1.395 . S
C1782 C1785 1.403 . S
C1783 C1780 1.403 . S
C1783 C1784 1.524 . S
C1783 C1787 1.400 . S
C1784 H1769 0.960 . S
C1784 H1770 0.960 . S
C1784 H1771 0.960 . S
C1784 C1783 1.524 . S
C1785 C1782 1.403 . S
C1785 C1786 1.392 . S
C1785 C1789 1.495 . S
C1786 C1785 1.392 . S
C1786 C1787 1.385 . S
C1786 C1788 1.478 . S
C1787 H1781 0.930 . S
C1787 C1783 1.400 . S
C1787 C1786 1.385 . S
C1788 C1786 1.478 . S
C1788 C1790 1.381 . S
C1788 C1794 1.383 . S
C1789 C1785 1.495 . S
C1789 H1795 0.959 . S
C1789 H1796 0.961 . S
C1789 H1797 0.960 . S
C1790 C1788 1.381 . S
C1790 C1791 1.394 . S
C1790 H1798 0.930 . S
C1791 C1790 1.394 . S
C1791 C1792 1.383 . S
C1791 H1799 0.929 . S
C1792 C1791 1.383 . S
C1792 C1793 1.377 . S
C1793 H1777 0.930 . S
C1793 C1792 1.377 . S
C1793 C1794 1.379 . S
C1794 H1778 0.931 . S
C1794 C1788 1.383 . S
C1794 C1793 1.379 . S
H1795 C1789 0.959 . S
H1796 C1789 0.961 . S
H1797 C1789 0.960 . S
H1798 C1790 0.930 . S
H1799 C1791 0.929 . S
H1800 C1808 0.929 . S
H1801 C1810 0.930 . S
H1802 C1812 0.930 . S
H1803 C1815 0.929 . S
H1804 C1818 0.930 . S
H1805 C1820 0.960 . S
H1806 C1820 0.960 . S
H1807 C1820 0.960 . S
C1808 H1800 0.929 . S
C1808 C1809 1.377 . S
C1808 C1810 1.384 . S
C1809 C1808 1.377 . S
C1809 C1815 1.390 . S
C1810 H1801 0.930 . S
C1810 C1808 1.384 . S
C1810 C1811 1.372 . S
C1811 C1810 1.372 . S
C1811 C1812 1.400 . S
C1811 C1816 1.490 . S
C1812 H1802 0.930 . S
C1812 C1811 1.400 . S
C1812 C1815 1.386 . S
H1813 C1829 0.930 . S
H1814 C1830 0.931 . S
C1815 H1803 0.929 . S
C1815 C1809 1.390 . S
C1815 C1812 1.386 . S
C1816 C1811 1.490 . S
C1816 C1818 1.395 . S
C1816 C1819 1.403 . S
H1817 C1823 0.930 . S
C1818 H1804 0.930 . S
C1818 C1816 1.395 . S
C1818 C1821 1.403 . S
C1819 C1816 1.403 . S
C1819 C1820 1.524 . S
C1819 C1823 1.400 . S
C1820 H1805 0.960 . S
C1820 H1806 0.960 . S
C1820 H1807 0.960 . S
C1820 C1819 1.524 . S
C1821 C1818 1.403 . S
C1821 C1822 1.392 . S
C1821 C1825 1.495 . S
C1822 C1821 1.392 . S
C1822 C1823 1.385 . S
C1822 C1824 1.478 . S
C1823 H1817 0.930 . S
C1823 C1819 1.400 . S
C1823 C1822 1.385 . S
C1824 C1822 1.478 . S
C1824 C1826 1.381 . S
C1824 C1830 1.383 . S
C1825 C1821 1.495 . S
C1825 H1831 0.959 . S
C1825 H1832 0.961 . S
C1825 H1833 0.960 . S
C1826 C1824 1.381 . S
C1826 C1827 1.394 . S
C1826 H1834 0.930 . S
C1827 C1826 1.394 . S
C1827 C1828 1.383 . S
C1827 H1835 0.929 1_556 S
C1828 C1827 1.383 . S
C1828 C1829 1.377 . S
C1829 H1813 0.930 . S
C1829 C1828 1.377 . S
C1829 C1830 1.379 . S
C1830 H1814 0.931 . S
C1830 C1824 1.383 . S
C1830 C1829 1.379 . S
H1831 C1825 0.959 . S
H1832 C1825 0.961 . S
H1833 C1825 0.960 . S
H1834 C1826 0.930 . S
H1835 C1827 0.929 1_554 S
H1836 C1844 0.929 . S
H1837 C1846 0.930 . S
H1838 C1848 0.930 . S
H1839 C1851 0.929 . S
H1840 C1854 0.930 . S
H1841 C1856 0.960 . S
H1842 C1856 0.960 . S
H1843 C1856 0.960 . S
C1844 H1836 0.929 . S
C1844 C1845 1.377 . S
C1844 C1846 1.384 . S
C1845 C1844 1.377 . S
C1845 C1851 1.390 . S
C1846 H1837 0.930 . S
C1846 C1844 1.384 . S
C1846 C1847 1.372 . S
C1847 C1846 1.372 . S
C1847 C1848 1.400 . S
C1847 C1852 1.490 . S
C1848 H1838 0.930 . S
C1848 C1847 1.400 . S
C1848 C1851 1.386 . S
H1849 C1865 0.930 . S
H1850 C1866 0.931 . S
C1851 H1839 0.929 . S
C1851 C1845 1.390 . S
C1851 C1848 1.386 . S
C1852 C1847 1.490 . S
C1852 C1854 1.395 . S
C1852 C1855 1.403 . S
H1853 C1859 0.930 . S
C1854 H1840 0.930 . S
C1854 C1852 1.395 . S
C1854 C1857 1.403 . S
C1855 C1852 1.403 . S
C1855 C1856 1.524 . S
C1855 C1859 1.400 . S
C1856 H1841 0.960 . S
C1856 H1842 0.960 . S
C1856 H1843 0.960 . S
C1856 C1855 1.524 . S
C1857 C1854 1.403 . S
C1857 C1858 1.392 . S
C1857 C1861 1.495 . S
C1858 C1857 1.392 . S
C1858 C1859 1.385 . S
C1858 C1860 1.478 . S
C1859 H1853 0.930 . S
C1859 C1855 1.400 . S
C1859 C1858 1.385 . S
C1860 C1858 1.478 . S
C1860 C1862 1.381 . S
C1860 C1866 1.383 . S
C1861 C1857 1.495 . S
C1861 H1867 0.959 . S
C1861 H1868 0.961 . S
C1861 H1869 0.960 . S
C1862 C1860 1.381 . S
C1862 C1863 1.394 . S
C1862 H1870 0.930 . S
C1863 C1862 1.394 . S
C1863 C1864 1.383 . S
C1863 H1871 0.929 . S
C1864 C1863 1.383 . S
C1864 C1865 1.377 . S
C1865 H1849 0.930 . S
C1865 C1864 1.377 . S
C1865 C1866 1.379 . S
C1866 H1850 0.931 . S
C1866 C1860 1.383 . S
C1866 C1865 1.379 . S
H1867 C1861 0.959 . S
H1868 C1861 0.961 . S
H1869 C1861 0.960 . S
H1870 C1862 0.930 . S
H1871 C1863 0.929 . S
H1872 C1880 0.929 . S
H1873 C1882 0.930 . S
H1874 C1884 0.930 . S
H1875 C1887 0.929 . S
H1876 C1890 0.930 . S
H1877 C1892 0.960 . S
H1878 C1892 0.960 . S
H1879 C1892 0.960 . S
C1880 H1872 0.929 . S
C1880 C1881 1.377 . S
C1880 C1882 1.384 . S
C1881 C1880 1.377 . S
C1881 C1887 1.390 . S
C1882 H1873 0.930 . S
C1882 C1880 1.384 . S
C1882 C1883 1.372 . S
C1883 C1882 1.372 . S
C1883 C1884 1.400 . S
C1883 C1888 1.490 . S
C1884 H1874 0.930 . S
C1884 C1883 1.400 . S
C1884 C1887 1.386 . S
H1885 C1901 0.930 . S
H1886 C1902 0.931 . S
C1887 H1875 0.929 . S
C1887 C1881 1.390 . S
C1887 C1884 1.386 . S
C1888 C1883 1.490 . S
C1888 C1890 1.395 . S
C1888 C1891 1.403 . S
H1889 C1895 0.930 . S
C1890 H1876 0.930 . S
C1890 C1888 1.395 . S
C1890 C1893 1.403 . S
C1891 C1888 1.403 . S
C1891 C1892 1.524 . S
C1891 C1895 1.400 . S
C1892 H1877 0.960 . S
C1892 H1878 0.960 . S
C1892 H1879 0.960 . S
C1892 C1891 1.524 . S
C1893 C1890 1.403 . S
C1893 C1894 1.392 . S
C1893 C1897 1.495 . S
C1894 C1893 1.392 . S
C1894 C1895 1.385 . S
C1894 C1896 1.478 . S
C1895 H1889 0.930 . S
C1895 C1891 1.400 . S
C1895 C1894 1.385 . S
C1896 C1894 1.478 . S
C1896 C1898 1.381 . S
C1896 C1902 1.383 . S
C1897 C1893 1.495 . S
C1897 H1903 0.959 . S
C1897 H1904 0.961 . S
C1897 H1905 0.960 . S
C1898 C1896 1.381 . S
C1898 C1899 1.394 . S
C1898 H1906 0.930 . S
C1899 C1898 1.394 . S
C1899 C1900 1.383 . S
C1899 H1907 0.929 . S
C1900 C1899 1.383 . S
C1900 C1901 1.377 . S
C1901 H1885 0.930 . S
C1901 C1900 1.377 . S
C1901 C1902 1.379 . S
C1902 H1886 0.931 . S
C1902 C1896 1.383 . S
C1902 C1901 1.379 . S
H1903 C1897 0.959 . S
H1904 C1897 0.961 . S
H1905 C1897 0.960 . S
H1906 C1898 0.930 . S
H1907 C1899 0.929 . S
H1908 C1916 0.929 . S
H1909 C1918 0.930 . S
H1910 C1920 0.930 . S
H1911 C1923 0.929 . S
H1912 C1926 0.930 . S
H1913 C1928 0.960 . S
H1914 C1928 0.960 . S
H1915 C1928 0.960 . S
C1916 H1908 0.929 . S
C1916 C1917 1.377 . S
C1916 C1918 1.384 . S
C1917 C1916 1.377 . S
C1917 C1923 1.390 . S
C1918 H1909 0.930 . S
C1918 C1916 1.384 . S
C1918 C1919 1.372 . S
C1919 C1918 1.372 . S
C1919 C1920 1.400 . S
C1919 C1924 1.490 . S
C1920 H1910 0.930 . S
C1920 C1919 1.400 . S
C1920 C1923 1.386 . S
H1921 C1937 0.930 . S
H1922 C1938 0.931 . S
C1923 H1911 0.929 . S
C1923 C1917 1.390 . S
C1923 C1920 1.386 . S
C1924 C1919 1.490 . S
C1924 C1926 1.395 . S
C1924 C1927 1.403 . S
H1925 C1931 0.930 . S
C1926 H1912 0.930 . S
C1926 C1924 1.395 . S
C1926 C1929 1.403 . S
C1927 C1924 1.403 . S
C1927 C1928 1.524 . S
C1927 C1931 1.400 . S
C1928 H1913 0.960 . S
C1928 H1914 0.960 . S
C1928 H1915 0.960 . S
C1928 C1927 1.524 . S
C1929 C1926 1.403 . S
C1929 C1930 1.392 . S
C1929 C1933 1.495 . S
C1930 C1929 1.392 . S
C1930 C1931 1.385 . S
C1930 C1932 1.478 . S
C1931 H1925 0.930 . S
C1931 C1927 1.400 . S
C1931 C1930 1.385 . S
C1932 C1930 1.478 . S
C1932 C1934 1.381 . S
C1932 C1938 1.383 . S
C1933 C1929 1.495 . S
C1933 H1939 0.959 . S
C1933 H1940 0.961 . S
C1933 H1941 0.960 . S
C1934 C1932 1.381 . S
C1934 C1935 1.394 . S
C1934 H1942 0.930 . S
C1935 C1934 1.394 . S
C1935 C1936 1.383 . S
C1935 H1943 0.929 . S
C1936 C1935 1.383 . S
C1936 C1937 1.377 . S
C1937 H1921 0.930 . S
C1937 C1936 1.377 . S
C1937 C1938 1.379 . S
C1938 H1922 0.931 . S
C1938 C1932 1.383 . S
C1938 C1937 1.379 . S
H1939 C1933 0.959 . S
H1940 C1933 0.961 . S
H1941 C1933 0.960 . S
H1942 C1934 0.930 . S
H1943 C1935 0.929 . S
H1944 C1952 0.929 . S
H1945 C1954 0.930 . S
H1946 C1956 0.930 . S
H1947 C1959 0.929 . S
H1948 C1962 0.930 . S
H1949 C1964 0.960 . S
H1950 C1964 0.960 . S
H1951 C1964 0.960 . S
C1952 H1944 0.929 . S
C1952 C1953 1.377 . S
C1952 C1954 1.384 . S
C1953 C1952 1.377 . S
C1953 C1959 1.390 . S
C1954 H1945 0.930 . S
C1954 C1952 1.384 . S
C1954 C1955 1.372 . S
C1955 C1954 1.372 . S
C1955 C1956 1.400 . S
C1955 C1960 1.490 . S
C1956 H1946 0.930 . S
C1956 C1955 1.400 . S
C1956 C1959 1.386 . S
H1957 C1973 0.930 . S
H1958 C1974 0.931 . S
C1959 H1947 0.929 . S
C1959 C1953 1.390 . S
C1959 C1956 1.386 . S
C1960 C1955 1.490 . S
C1960 C1962 1.395 . S
C1960 C1963 1.403 . S
H1961 C1967 0.930 . S
C1962 H1948 0.930 . S
C1962 C1960 1.395 . S
C1962 C1965 1.403 . S
C1963 C1960 1.403 . S
C1963 C1964 1.524 . S
C1963 C1967 1.400 . S
C1964 H1949 0.960 . S
C1964 H1950 0.960 . S
C1964 H1951 0.960 . S
C1964 C1963 1.524 . S
C1965 C1962 1.403 . S
C1965 C1966 1.392 . S
C1965 C1969 1.495 . S
C1966 C1965 1.392 . S
C1966 C1967 1.385 . S
C1966 C1968 1.478 . S
C1967 H1961 0.930 . S
C1967 C1963 1.400 . S
C1967 C1966 1.385 . S
C1968 C1966 1.478 . S
C1968 C1970 1.381 . S
C1968 C1974 1.383 . S
C1969 C1965 1.495 . S
C1969 H1975 0.959 . S
C1969 H1976 0.961 . S
C1969 H1977 0.960 . S
C1970 C1968 1.381 . S
C1970 C1971 1.394 . S
C1970 H1978 0.930 . S
C1971 C1970 1.394 . S
C1971 C1972 1.383 . S
C1971 H1979 0.929 . S
C1972 C1971 1.383 . S
C1972 C1973 1.377 . S
C1973 H1957 0.930 . S
C1973 C1972 1.377 . S
C1973 C1974 1.379 . S
C1974 H1958 0.931 . S
C1974 C1968 1.383 . S
C1974 C1973 1.379 . S
H1975 C1969 0.959 . S
H1976 C1969 0.961 . S
H1977 C1969 0.960 . S
H1978 C1970 0.930 . S
H1979 C1971 0.929 . S
H1980 C1988 0.929 . S
H1981 C1990 0.930 . S
H1982 C1992 0.930 . S
H1983 C1995 0.929 . S
H1984 C1998 0.930 . S
H1985 C2000 0.960 . S
H1986 C2000 0.960 . S
H1987 C2000 0.960 . S
C1988 H1980 0.929 . S
C1988 C1989 1.377 . S
C1988 C1990 1.384 . S
C1989 C1988 1.377 . S
C1989 C1995 1.390 . S
C1990 H1981 0.930 . S
C1990 C1988 1.384 . S
C1990 C1991 1.372 . S
C1991 C1990 1.372 . S
C1991 C1992 1.400 . S
C1991 C1996 1.490 . S
C1992 H1982 0.930 . S
C1992 C1991 1.400 . S
C1992 C1995 1.386 . S
H1993 C2009 0.930 . S
H1994 C2010 0.931 . S
C1995 H1983 0.929 . S
C1995 C1989 1.390 . S
C1995 C1992 1.386 . S
C1996 C1991 1.490 . S
C1996 C1998 1.395 . S
C1996 C1999 1.403 . S
H1997 C2003 0.930 . S
C1998 H1984 0.930 . S
C1998 C1996 1.395 . S
C1998 C2001 1.403 . S
C1999 C1996 1.403 . S
C1999 C2000 1.524 . S
C1999 C2003 1.400 . S
C2000 H1985 0.960 . S
C2000 H1986 0.960 . S
C2000 H1987 0.960 . S
C2000 C1999 1.524 . S
C2001 C1998 1.403 . S
C2001 C2002 1.392 . S
C2001 C2005 1.495 . S
C2002 C2001 1.392 . S
C2002 C2003 1.385 . S
C2002 C2004 1.478 . S
C2003 H1997 0.930 . S
C2003 C1999 1.400 . S
C2003 C2002 1.385 . S
C2004 C2002 1.478 . S
C2004 C2006 1.381 . S
C2004 C2010 1.383 . S
C2005 C2001 1.495 . S
C2005 H2011 0.959 . S
C2005 H2012 0.961 . S
C2005 H2013 0.960 . S
C2006 C2004 1.381 . S
C2006 C2007 1.394 . S
C2006 H2014 0.930 . S
C2007 C2006 1.394 . S
C2007 C2008 1.383 . S
C2007 H2015 0.929 . S
C2008 C2007 1.383 . S
C2008 C2009 1.377 . S
C2009 H1993 0.930 . S
C2009 C2008 1.377 . S
C2009 C2010 1.379 . S
C2010 H1994 0.931 . S
C2010 C2004 1.383 . S
C2010 C2009 1.379 . S
H2011 C2005 0.959 . S
H2012 C2005 0.961 . S
H2013 C2005 0.960 . S
H2014 C2006 0.930 . S
H2015 C2007 0.929 . S
H2016 C2024 0.929 1_556 S
H2017 C2026 0.930 . S
H2018 C2028 0.930 . S
H2019 C2031 0.929 . S
H2020 C2034 0.930 . S
H2021 C2036 0.960 . S
H2022 C2036 0.960 . S
H2023 C2036 0.960 . S
C2024 H2016 0.929 1_554 S
C2024 C2025 1.377 . S
C2024 C2026 1.384 . S
C2025 C2024 1.377 . S
C2025 C2031 1.390 . S
C2026 H2017 0.930 . S
C2026 C2024 1.384 . S
C2026 C2027 1.372 . S
C2027 C2026 1.372 . S
C2027 C2028 1.400 . S
C2027 C2032 1.490 . S
C2028 H2018 0.930 . S
C2028 C2027 1.400 . S
C2028 C2031 1.386 . S
H2029 C2045 0.930 . S
H2030 C2046 0.931 . S
C2031 H2019 0.929 . S
C2031 C2025 1.390 . S
C2031 C2028 1.386 . S
C2032 C2027 1.490 . S
C2032 C2034 1.395 . S
C2032 C2035 1.403 . S
H2033 C2039 0.930 . S
C2034 H2020 0.930 . S
C2034 C2032 1.395 . S
C2034 C2037 1.403 . S
C2035 C2032 1.403 . S
C2035 C2036 1.524 . S
C2035 C2039 1.400 . S
C2036 H2021 0.960 . S
C2036 H2022 0.960 . S
C2036 H2023 0.960 . S
C2036 C2035 1.524 . S
C2037 C2034 1.403 . S
C2037 C2038 1.392 . S
C2037 C2041 1.495 . S
C2038 C2037 1.392 . S
C2038 C2039 1.385 . S
C2038 C2040 1.478 . S
C2039 H2033 0.930 . S
C2039 C2035 1.400 . S
C2039 C2038 1.385 . S
C2040 C2038 1.478 . S
C2040 C2042 1.381 . S
C2040 C2046 1.383 . S
C2041 C2037 1.495 . S
C2041 H2047 0.959 . S
C2041 H2048 0.961 . S
C2041 H2049 0.960 . S
C2042 C2040 1.381 . S
C2042 C2043 1.394 . S
C2042 H2050 0.930 . S
C2043 C2042 1.394 . S
C2043 C2044 1.383 . S
C2043 H2051 0.929 . S
C2044 C2043 1.383 . S
C2044 C2045 1.377 . S
C2045 H2029 0.930 . S
C2045 C2044 1.377 . S
C2045 C2046 1.379 . S
C2046 H2030 0.931 . S
C2046 C2040 1.383 . S
C2046 C2045 1.379 . S
H2047 C2041 0.959 . S
H2048 C2041 0.961 . S
H2049 C2041 0.960 . S
H2050 C2042 0.930 . S
H2051 C2043 0.929 . S
H2052 C2060 0.929 1_556 S
H2053 C2062 0.930 . S
H2054 C2064 0.930 . S
H2055 C2067 0.929 . S
H2056 C2070 0.930 . S
H2057 C2072 0.960 . S
H2058 C2072 0.960 . S
H2059 C2072 0.960 . S
C2060 H2052 0.929 1_554 S
C2060 C2061 1.377 . S
C2060 C2062 1.384 . S
C2061 C2060 1.377 . S
C2061 C2067 1.390 . S
C2062 H2053 0.930 . S
C2062 C2060 1.384 . S
C2062 C2063 1.372 . S
C2063 C2062 1.372 . S
C2063 C2064 1.400 . S
C2063 C2068 1.490 . S
C2064 H2054 0.930 . S
C2064 C2063 1.400 . S
C2064 C2067 1.386 . S
H2065 C2081 0.930 . S
H2066 C2082 0.931 . S
C2067 H2055 0.929 . S
C2067 C2061 1.390 . S
C2067 C2064 1.386 . S
C2068 C2063 1.490 . S
C2068 C2070 1.395 . S
C2068 C2071 1.403 . S
H2069 C2075 0.930 . S
C2070 H2056 0.930 . S
C2070 C2068 1.395 . S
C2070 C2073 1.403 . S
C2071 C2068 1.403 . S
C2071 C2072 1.524 . S
C2071 C2075 1.400 . S
C2072 H2057 0.960 . S
C2072 H2058 0.960 . S
C2072 H2059 0.960 . S
C2072 C2071 1.524 . S
C2073 C2070 1.403 . S
C2073 C2074 1.392 . S
C2073 C2077 1.495 . S
C2074 C2073 1.392 . S
C2074 C2075 1.385 . S
C2074 C2076 1.478 . S
C2075 H2069 0.930 . S
C2075 C2071 1.400 . S
C2075 C2074 1.385 . S
C2076 C2074 1.478 . S
C2076 C2078 1.381 . S
C2076 C2082 1.383 . S
C2077 C2073 1.495 . S
C2077 H2083 0.959 . S
C2077 H2084 0.961 . S
C2077 H2085 0.960 . S
C2078 C2076 1.381 . S
C2078 C2079 1.394 . S
C2078 H2086 0.930 . S
C2079 C2078 1.394 . S
C2079 C2080 1.383 . S
C2079 H2087 0.929 . S
C2080 C2079 1.383 . S
C2080 C2081 1.377 . S
C2081 H2065 0.930 . S
C2081 C2080 1.377 . S
C2081 C2082 1.379 . S
C2082 H2066 0.931 . S
C2082 C2076 1.383 . S
C2082 C2081 1.379 . S
H2083 C2077 0.959 . S
H2084 C2077 0.961 . S
H2085 C2077 0.960 . S
H2086 C2078 0.930 . S
H2087 C2079 0.929 . S
H2088 C2096 0.929 1_556 S
H2089 C2098 0.930 . S
H2090 C2100 0.930 . S
H2091 C2103 0.929 . S
H2092 C2106 0.930 . S
H2093 C2108 0.960 . S
H2094 C2108 0.960 . S
H2095 C2108 0.960 . S
C2096 H2088 0.929 1_554 S
C2096 C2097 1.377 . S
C2096 C2098 1.384 . S
C2097 C2096 1.377 . S
C2097 C2103 1.390 . S
C2098 H2089 0.930 . S
C2098 C2096 1.384 . S
C2098 C2099 1.372 . S
C2099 C2098 1.372 . S
C2099 C2100 1.400 . S
C2099 C2104 1.490 . S
C2100 H2090 0.930 . S
C2100 C2099 1.400 . S
C2100 C2103 1.386 . S
H2101 C2117 0.930 . S
H2102 C2118 0.931 . S
C2103 H2091 0.929 . S
C2103 C2097 1.390 . S
C2103 C2100 1.386 . S
C2104 C2099 1.490 . S
C2104 C2106 1.395 . S
C2104 C2107 1.403 . S
H2105 C2111 0.930 . S
C2106 H2092 0.930 . S
C2106 C2104 1.395 . S
C2106 C2109 1.403 . S
C2107 C2104 1.403 . S
C2107 C2108 1.524 . S
C2107 C2111 1.400 . S
C2108 H2093 0.960 . S
C2108 H2094 0.960 . S
C2108 H2095 0.960 . S
C2108 C2107 1.524 . S
C2109 C2106 1.403 . S
C2109 C2110 1.392 . S
C2109 C2113 1.495 . S
C2110 C2109 1.392 . S
C2110 C2111 1.385 . S
C2110 C2112 1.478 . S
C2111 H2105 0.930 . S
C2111 C2107 1.400 . S
C2111 C2110 1.385 . S
C2112 C2110 1.478 . S
C2112 C2114 1.381 . S
C2112 C2118 1.383 . S
C2113 C2109 1.495 . S
C2113 H2119 0.959 . S
C2113 H2120 0.961 . S
C2113 H2121 0.960 . S
C2114 C2112 1.381 . S
C2114 C2115 1.394 . S
C2114 H2122 0.930 . S
C2115 C2114 1.394 . S
C2115 C2116 1.383 . S
C2115 H2123 0.929 . S
C2116 C2115 1.383 . S
C2116 C2117 1.377 . S
C2117 H2101 0.930 . S
C2117 C2116 1.377 . S
C2117 C2118 1.379 . S
C2118 H2102 0.931 . S
C2118 C2112 1.383 . S
C2118 C2117 1.379 . S
H2119 C2113 0.959 . S
H2120 C2113 0.961 . S
H2121 C2113 0.960 . S
H2122 C2114 0.930 . S
H2123 C2115 0.929 . S
H2124 C2132 0.929 . S
H2125 C2134 0.930 . S
H2126 C2136 0.930 . S
H2127 C2139 0.929 . S
H2128 C2142 0.930 . S
H2129 C2144 0.960 . S
H2130 C2144 0.960 . S
H2131 C2144 0.960 . S
C2132 H2124 0.929 . S
C2132 C2133 1.377 . S
C2132 C2134 1.384 . S
C2133 C2132 1.377 . S
C2133 C2139 1.390 . S
C2134 H2125 0.930 . S
C2134 C2132 1.384 . S
C2134 C2135 1.372 . S
C2135 C2134 1.372 . S
C2135 C2136 1.400 . S
C2135 C2140 1.490 . S
C2136 H2126 0.930 . S
C2136 C2135 1.400 . S
C2136 C2139 1.386 . S
H2137 C2153 0.930 . S
H2138 C2154 0.931 . S
C2139 H2127 0.929 . S
C2139 C2133 1.390 . S
C2139 C2136 1.386 . S
C2140 C2135 1.490 . S
C2140 C2142 1.395 . S
C2140 C2143 1.403 . S
H2141 C2147 0.930 . S
C2142 H2128 0.930 . S
C2142 C2140 1.395 . S
C2142 C2145 1.403 . S
C2143 C2140 1.403 . S
C2143 C2144 1.524 . S
C2143 C2147 1.400 . S
C2144 H2129 0.960 . S
C2144 H2130 0.960 . S
C2144 H2131 0.960 . S
C2144 C2143 1.524 . S
C2145 C2142 1.403 . S
C2145 C2146 1.392 . S
C2145 C2149 1.495 . S
C2146 C2145 1.392 . S
C2146 C2147 1.385 . S
C2146 C2148 1.478 . S
C2147 H2141 0.930 . S
C2147 C2143 1.400 . S
C2147 C2146 1.385 . S
C2148 C2146 1.478 . S
C2148 C2150 1.381 . S
C2148 C2154 1.383 . S
C2149 C2145 1.495 . S
C2149 H2155 0.959 . S
C2149 H2156 0.961 . S
C2149 H2157 0.960 . S
C2150 C2148 1.381 . S
C2150 C2151 1.394 . S
C2150 H2158 0.930 . S
C2151 C2150 1.394 . S
C2151 C2152 1.383 . S
C2151 H2159 0.929 . S
C2152 C2151 1.383 . S
C2152 C2153 1.377 . S
C2153 H2137 0.930 . S
C2153 C2152 1.377 . S
C2153 C2154 1.379 . S
C2154 H2138 0.931 . S
C2154 C2148 1.383 . S
C2154 C2153 1.379 . S
H2155 C2149 0.959 . S
H2156 C2149 0.961 . S
H2157 C2149 0.960 . S
H2158 C2150 0.930 . S
H2159 C2151 0.929 . S
H2160 C2168 0.929 . S
H2161 C2170 0.930 . S
H2162 C2172 0.930 . S
H2163 C2175 0.929 . S
H2164 C2178 0.930 . S
H2165 C2180 0.960 . S
H2166 C2180 0.960 . S
H2167 C2180 0.960 . S
C2168 H2160 0.929 . S
C2168 C2169 1.377 . S
C2168 C2170 1.384 . S
C2169 C2168 1.377 . S
C2169 C2175 1.390 . S
C2170 H2161 0.930 . S
C2170 C2168 1.384 . S
C2170 C2171 1.372 . S
C2171 C2170 1.372 . S
C2171 C2172 1.400 . S
C2171 C2176 1.490 . S
C2172 H2162 0.930 . S
C2172 C2171 1.400 . S
C2172 C2175 1.386 . S
H2173 C2189 0.914 1_554 S
H2174 C2190 0.931 . S
C2175 H2163 0.929 . S
C2175 C2169 1.390 . S
C2175 C2172 1.386 . S
C2176 C2171 1.490 . S
C2176 C2178 1.395 . S
C2176 C2179 1.403 . S
H2177 C2183 0.930 . S
C2178 H2164 0.930 . S
C2178 C2176 1.395 . S
C2178 C2181 1.403 . S
C2179 C2176 1.403 . S
C2179 C2180 1.524 . S
C2179 C2183 1.400 . S
C2180 H2165 0.960 . S
C2180 H2166 0.960 . S
C2180 H2167 0.960 . S
C2180 C2179 1.524 . S
C2181 C2178 1.403 . S
C2181 C2182 1.392 . S
C2181 C2185 1.495 . S
C2182 C2181 1.392 . S
C2182 C2183 1.385 . S
C2182 C2184 1.478 . S
C2183 H2177 0.930 . S
C2183 C2179 1.400 . S
C2183 C2182 1.385 . S
C2184 C2182 1.478 . S
C2184 C2186 1.381 . S
C2184 C2190 1.383 . S
C2185 C2181 1.495 . S
C2185 H2191 0.959 . S
C2185 H2192 0.961 . S
C2185 H2193 0.960 . S
C2186 C2184 1.381 . S
C2186 C2187 1.394 . S
C2186 H2194 0.930 . S
C2187 C2186 1.394 . S
C2187 C2188 1.383 . S
C2187 H2195 0.929 . S
C2188 C2187 1.383 . S
C2188 C2189 1.377 . S
C2189 H2173 0.914 1_556 S
C2189 C2188 1.377 . S
C2189 C2190 1.379 . S
C2190 H2174 0.931 . S
C2190 C2184 1.383 . S
C2190 C2189 1.379 . S
H2191 C2185 0.959 . S
H2192 C2185 0.961 . S
H2193 C2185 0.960 . S
H2194 C2186 0.930 . S
H2195 C2187 0.929 . S
H2196 C2204 0.929 1_554 S
H2197 C2206 0.930 . S
H2198 C2208 0.930 . S
H2199 C2211 0.929 . S
H2200 C2214 0.930 . S
H2201 C2216 0.960 . S
H2202 C2216 0.960 . S
H2203 C2216 0.960 . S
C2204 H2196 0.929 1_556 S
C2204 C2205 1.377 . S
C2204 C2206 1.384 . S
C2205 C2204 1.377 . S
C2205 C2211 1.390 . S
C2206 H2197 0.930 . S
C2206 C2204 1.384 . S
C2206 C2207 1.372 . S
C2207 C2206 1.372 . S
C2207 C2208 1.400 . S
C2207 C2212 1.490 . S
C2208 H2198 0.930 . S
C2208 C2207 1.400 . S
C2208 C2211 1.386 . S
H2209 C2225 0.930 . S
H2210 C2226 0.931 . S
C2211 H2199 0.929 . S
C2211 C2205 1.390 . S
C2211 C2208 1.386 . S
C2212 C2207 1.490 . S
C2212 C2214 1.395 . S
C2212 C2215 1.403 . S
H2213 C2219 0.930 . S
C2214 H2200 0.930 . S
C2214 C2212 1.395 . S
C2214 C2217 1.403 . S
C2215 C2212 1.403 . S
C2215 C2216 1.524 . S
C2215 C2219 1.400 . S
C2216 H2201 0.960 . S
C2216 H2202 0.960 . S
C2216 H2203 0.960 . S
C2216 C2215 1.524 . S
C2217 C2214 1.403 . S
C2217 C2218 1.392 . S
C2217 C2221 1.495 . S
C2218 C2217 1.392 . S
C2218 C2219 1.385 . S
C2218 C2220 1.478 . S
C2219 H2213 0.930 . S
C2219 C2215 1.400 . S
C2219 C2218 1.385 . S
C2220 C2218 1.478 . S
C2220 C2222 1.381 . S
C2220 C2226 1.383 . S
C2221 C2217 1.495 . S
C2221 H2227 0.959 . S
C2221 H2228 0.961 . S
C2221 H2229 0.960 . S
C2222 C2220 1.381 . S
C2222 C2223 1.394 . S
C2222 H2230 0.930 . S
C2223 C2222 1.394 . S
C2223 C2224 1.383 . S
C2223 H2231 0.929 . S
C2224 C2223 1.383 . S
C2224 C2225 1.377 . S
C2225 H2209 0.930 . S
C2225 C2224 1.377 . S
C2225 C2226 1.379 . S
C2226 H2210 0.931 . S
C2226 C2220 1.383 . S
C2226 C2225 1.379 . S
H2227 C2221 0.959 . S
H2228 C2221 0.961 . S
H2229 C2221 0.960 . S
H2230 C2222 0.930 . S
H2231 C2223 0.929 . S
H2232 C2240 0.929 . S
H2233 C2242 0.930 . S
H2234 C2244 0.930 1_655 S
H2235 C2247 0.929 . S
H2236 C2250 0.930 . S
H2237 C2252 0.960 . S
H2238 C2252 0.960 . S
H2239 C2252 0.960 . S
C2240 H2232 0.929 . S
C2240 C2241 1.377 . S
C2240 C2242 1.384 . S
C2241 C2240 1.377 . S
C2241 C2247 1.390 . S
C2242 H2233 0.930 . S
C2242 C2240 1.384 . S
C2242 C2243 1.372 . S
C2243 C2242 1.372 . S
C2243 C2244 1.400 . S
C2243 C2248 1.490 . S
C2244 H2234 0.930 1_455 S
C2244 C2243 1.400 . S
C2244 C2247 1.386 . S
H2245 C2261 0.930 . S
H2246 C2262 0.931 . S
C2247 H2235 0.929 . S
C2247 C2241 1.390 . S
C2247 C2244 1.386 . S
C2248 C2243 1.490 . S
C2248 C2250 1.395 . S
C2248 C2251 1.403 1_455 S
H2249 C2255 0.930 . S
C2250 H2236 0.930 . S
C2250 C2248 1.395 . S
C2250 C2253 1.403 . S
C2251 C2248 1.403 1_655 S
C2251 C2252 1.524 . S
C2251 C2255 1.400 . S
C2252 H2237 0.960 . S
C2252 H2238 0.960 . S
C2252 H2239 0.960 . S
C2252 C2251 1.524 . S
C2253 C2250 1.403 . S
C2253 C2254 1.392 1_455 S
C2253 C2257 1.495 . S
C2254 C2253 1.392 1_655 S
C2254 C2255 1.385 . S
C2254 C2256 1.478 . S
C2255 H2249 0.930 . S
C2255 C2251 1.400 . S
C2255 C2254 1.385 . S
C2256 C2254 1.478 . S
C2256 C2258 1.381 . S
C2256 C2262 1.383 . S
C2257 C2253 1.495 . S
C2257 H2263 0.959 . S
C2257 H2264 0.961 . S
C2257 H2265 0.960 . S
C2258 C2256 1.381 . S
C2258 C2259 1.394 . S
C2258 H2266 0.930 1_655 S
C2259 C2258 1.394 . S
C2259 C2260 1.383 . S
C2259 H2267 0.929 . S
C2260 C2259 1.383 . S
C2260 C2261 1.377 . S
C2261 H2245 0.930 . S
C2261 C2260 1.377 . S
C2261 C2262 1.379 . S
C2262 H2246 0.931 . S
C2262 C2256 1.383 . S
C2262 C2261 1.379 . S
H2263 C2257 0.959 . S
H2264 C2257 0.961 . S
H2265 C2257 0.960 . S
H2266 C2258 0.930 1_455 S
H2267 C2259 0.929 . S
H2268 C2276 0.929 . S
H2269 C2278 0.930 . S
H2270 C2280 0.930 . S
H2271 C2283 0.929 . S
H2272 C2286 0.930 . S
H2273 C2288 0.960 . S
H2274 C2288 0.960 . S
H2275 C2288 0.960 . S
C2276 H2268 0.929 . S
C2276 C2277 1.377 . S
C2276 C2278 1.384 . S
C2277 C2276 1.377 . S
C2277 C2283 1.390 . S
C2278 H2269 0.930 . S
C2278 C2276 1.384 . S
C2278 C2279 1.372 . S
C2279 C2278 1.372 . S
C2279 C2280 1.400 . S
C2279 C2284 1.490 . S
C2280 H2270 0.930 . S
C2280 C2279 1.400 . S
C2280 C2283 1.386 . S
H2281 C2297 0.930 . S
H2282 C2298 0.931 . S
C2283 H2271 0.929 . S
C2283 C2277 1.390 . S
C2283 C2280 1.386 . S
C2284 C2279 1.490 . S
C2284 C2286 1.395 . S
C2284 C2287 1.403 . S
H2285 C2291 0.930 . S
C2286 H2272 0.930 . S
C2286 C2284 1.395 . S
C2286 C2289 1.403 . S
C2287 C2284 1.403 . S
C2287 C2288 1.524 . S
C2287 C2291 1.400 . S
C2288 H2273 0.960 . S
C2288 H2274 0.960 . S
C2288 H2275 0.960 . S
C2288 C2287 1.524 . S
C2289 C2286 1.403 . S
C2289 C2290 1.392 . S
C2289 C2293 1.495 . S
C2290 C2289 1.392 . S
C2290 C2291 1.385 . S
C2290 C2292 1.478 . S
C2291 H2285 0.930 . S
C2291 C2287 1.400 . S
C2291 C2290 1.385 . S
C2292 C2290 1.478 . S
C2292 C2294 1.381 . S
C2292 C2298 1.383 . S
C2293 C2289 1.495 . S
C2293 H2299 0.959 . S
C2293 H2300 0.961 . S
C2293 H2301 0.960 . S
C2294 C2292 1.381 . S
C2294 C2295 1.394 . S
C2294 H2302 0.930 . S
C2295 C2294 1.394 . S
C2295 C2296 1.383 . S
C2295 H2303 0.929 . S
C2296 C2295 1.383 . S
C2296 C2297 1.377 . S
C2297 H2281 0.930 . S
C2297 C2296 1.377 . S
C2297 C2298 1.379 . S
C2298 H2282 0.931 . S
C2298 C2292 1.383 . S
C2298 C2297 1.379 . S
H2299 C2293 0.959 . S
H2300 C2293 0.961 . S
H2301 C2293 0.960 . S
H2302 C2294 0.930 . S
H2303 C2295 0.929 . S
H2304 C2312 0.929 . S
H2305 C2314 0.930 . S
H2306 C2316 0.930 . S
H2307 C2319 0.929 . S
H2308 C2322 0.930 . S
H2309 C2324 0.960 . S
H2310 C2324 0.960 . S
H2311 C2324 0.960 . S
C2312 H2304 0.929 . S
C2312 C2313 1.377 . S
C2312 C2314 1.384 . S
C2313 C2312 1.377 . S
C2313 C2319 1.390 . S
C2314 H2305 0.930 . S
C2314 C2312 1.384 . S
C2314 C2315 1.372 . S
C2315 C2314 1.372 . S
C2315 C2316 1.400 . S
C2315 C2320 1.490 . S
C2316 H2306 0.930 . S
C2316 C2315 1.400 . S
C2316 C2319 1.386 . S
H2317 C2333 0.930 . S
H2318 C2334 0.931 . S
C2319 H2307 0.929 . S
C2319 C2313 1.390 . S
C2319 C2316 1.386 . S
C2320 C2315 1.490 . S
C2320 C2322 1.395 1_565 S
C2320 C2323 1.403 . S
H2321 C2327 0.930 . S
C2322 H2308 0.930 . S
C2322 C2320 1.395 1_545 S
C2322 C2325 1.403 . S
C2323 C2320 1.403 . S
C2323 C2324 1.524 . S
C2323 C2327 1.400 . S
C2324 H2309 0.960 . S
C2324 H2310 0.960 . S
C2324 H2311 0.960 . S
C2324 C2323 1.524 . S
C2325 C2322 1.403 . S
C2325 C2326 1.392 . S
C2325 C2329 1.495 . S
C2326 C2325 1.392 . S
C2326 C2327 1.385 1_545 S
C2326 C2328 1.478 . S
C2327 H2321 0.930 . S
C2327 C2323 1.400 . S
C2327 C2326 1.385 1_565 S
C2328 C2326 1.478 . S
C2328 C2330 1.381 . S
C2328 C2334 1.383 . S
C2329 C2325 1.495 . S
C2329 H2335 0.959 . S
C2329 H2336 0.961 . S
C2329 H2337 0.960 . S
C2330 C2328 1.381 . S
C2330 C2331 1.394 . S
C2330 H2338 0.930 . S
C2331 C2330 1.394 . S
C2331 C2332 1.383 . S
C2331 H2339 0.929 . S
C2332 C2331 1.383 . S
C2332 C2333 1.377 . S
C2333 H2317 0.930 . S
C2333 C2332 1.377 . S
C2333 C2334 1.379 . S
C2334 H2318 0.931 . S
C2334 C2328 1.383 . S
C2334 C2333 1.379 . S
H2335 C2329 0.959 . S
H2336 C2329 0.961 . S
H2337 C2329 0.960 . S
H2338 C2330 0.930 . S
H2339 C2331 0.929 . S
H2340 C2348 0.929 . S
H2341 C2350 0.930 . S
H2342 C2352 0.930 1_545 S
H2343 C2355 0.929 . S
H2344 C2358 0.930 . S
H2345 C2360 0.960 . S
H2346 C2360 0.960 1_565 S
H2347 C2360 0.960 . S
C2348 H2340 0.929 . S
C2348 C2349 1.377 . S
C2348 C2350 1.384 . S
C2349 C2348 1.377 . S
C2349 C2355 1.390 . S
C2350 H2341 0.930 . S
C2350 C2348 1.384 . S
C2350 C2351 1.372 . S
C2351 C2350 1.372 . S
C2351 C2352 1.400 . S
C2351 C2356 1.490 . S
C2352 H2342 0.930 1_565 S
C2352 C2351 1.400 . S
C2352 C2355 1.386 . S
H2353 C2369 0.930 . S
H2354 C2370 0.931 . S
C2355 H2343 0.929 . S
C2355 C2349 1.390 . S
C2355 C2352 1.386 . S
C2356 C2351 1.490 . S
C2356 C2358 1.395 . S
C2356 C2359 1.400 1_565 S
H2357 C2363 0.930 . S
C2358 H2344 0.930 . S
C2358 C2356 1.395 . S
C2358 C2361 1.403 . S
C2359 C2356 1.400 1_545 S
C2359 C2360 1.509 . S
C2359 C2363 1.419 . S
C2360 H2345 0.960 . S
C2360 H2346 0.960 1_545 S
C2360 H2347 0.960 . S
C2360 C2359 1.509 . S
C2361 C2358 1.403 . S
C2361 C2362 1.392 1_565 S
C2361 C2365 1.495 . S
C2362 C2361 1.392 1_545 S
C2362 C2363 1.385 . S
C2362 C2364 1.478 . S
C2363 H2357 0.930 . S
C2363 C2359 1.419 . S
C2363 C2362 1.385 . S
C2364 C2362 1.478 . S
C2364 C2366 1.381 . S
C2364 C2370 1.383 . S
C2365 C2361 1.495 . S
C2365 H2371 0.959 . S
C2365 H2372 0.961 1_565 S
C2365 H2373 0.960 . S
C2366 C2364 1.381 . S
C2366 C2367 1.394 . S
C2366 H2374 0.930 1_545 S
C2367 C2366 1.394 . S
C2367 C2368 1.383 . S
C2367 H2375 0.929 . S
C2368 C2367 1.383 . S
C2368 C2369 1.377 . S
C2369 H2353 0.930 . S
C2369 C2368 1.377 . S
C2369 C2370 1.379 . S
C2370 H2354 0.931 . S
C2370 C2364 1.383 . S
C2370 C2369 1.379 . S
H2371 C2365 0.959 . S
H2372 C2365 0.961 1_545 S
H2373 C2365 0.960 . S
H2374 C2366 0.930 1_565 S
H2375 C2367 0.929 . S
H2376 C2384 0.929 . S
H2377 C2386 0.930 . S
H2378 C2388 0.930 . S
H2379 C2391 0.929 . S
H2380 C2394 0.930 . S
H2381 C2396 0.960 . S
H2382 C2396 0.960 . S
H2383 C2396 0.960 . S
C2384 H2376 0.929 . S
C2384 C2385 1.377 . S
C2384 C2386 1.384 . S
C2385 C2384 1.377 . S
C2385 C2391 1.390 . S
C2386 H2377 0.930 . S
C2386 C2384 1.384 . S
C2386 C2387 1.372 . S
C2387 C2386 1.372 . S
C2387 C2388 1.400 . S
C2387 C2392 1.490 . S
C2388 H2378 0.930 . S
C2388 C2387 1.400 . S
C2388 C2391 1.386 . S
H2389 C2405 0.930 . S
H2390 C2406 0.931 . S
C2391 H2379 0.929 . S
C2391 C2385 1.390 . S
C2391 C2388 1.386 . S
C2392 C2387 1.490 . S
C2392 C2394 1.395 1_655 S
C2392 C2395 1.403 . S
H2393 C2399 0.930 . S
C2394 H2380 0.930 . S
C2394 C2392 1.395 1_455 S
C2394 C2397 1.403 . S
C2395 C2392 1.403 . S
C2395 C2396 1.524 . S
C2395 C2399 1.400 . S
C2396 H2381 0.960 . S
C2396 H2382 0.960 . S
C2396 H2383 0.960 . S
C2396 C2395 1.524 . S
C2397 C2394 1.403 . S
C2397 C2398 1.392 . S
C2397 C2401 1.495 . S
C2398 C2397 1.392 . S
C2398 C2399 1.385 1_455 S
C2398 C2400 1.478 . S
C2399 H2393 0.930 . S
C2399 C2395 1.400 . S
C2399 C2398 1.385 1_655 S
C2400 C2398 1.478 . S
C2400 C2402 1.381 . S
C2400 C2406 1.383 . S
C2401 C2397 1.495 . S
C2401 H2407 0.959 . S
C2401 H2408 0.961 . S
C2401 H2409 0.960 . S
C2402 C2400 1.381 . S
C2402 C2403 1.394 . S
C2402 H2410 0.930 . S
C2403 C2402 1.394 . S
C2403 C2404 1.383 . S
C2403 H2411 0.929 . S
C2404 C2403 1.383 . S
C2404 C2405 1.377 . S
C2405 H2389 0.930 . S
C2405 C2404 1.377 . S
C2405 C2406 1.379 . S
C2406 H2390 0.931 . S
C2406 C2400 1.383 . S
C2406 C2405 1.379 . S
H2407 C2401 0.959 . S
H2408 C2401 0.961 . S
H2409 C2401 0.960 . S
H2410 C2402 0.930 . S
H2411 C2403 0.929 . S
H2412 C2420 0.929 . S
H2413 C2422 0.930 . S
H2414 C2424 0.930 . S
H2415 C2427 0.929 . S
H2416 C2430 0.930 . S
H2417 C2432 0.960 . S
H2418 C2432 0.960 . S
H2419 C2432 0.960 . S
C2420 H2412 0.929 . S
C2420 C2421 1.377 . S
C2420 C2422 1.384 . S
C2421 C2420 1.377 . S
C2421 C2427 1.390 . S
C2422 H2413 0.930 . S
C2422 C2420 1.384 . S
C2422 C2423 1.372 . S
C2423 C2422 1.372 . S
C2423 C2424 1.400 . S
C2423 C2428 1.490 . S
C2424 H2414 0.930 . S
C2424 C2423 1.400 . S
C2424 C2427 1.386 . S
H2425 C2441 0.930 . S
H2426 C2442 0.931 . S
C2427 H2415 0.929 . S
C2427 C2421 1.390 . S
C2427 C2424 1.386 . S
C2428 C2423 1.490 . S
C2428 C2430 1.395 . S
C2428 C2431 1.403 . S
H2429 C2435 0.930 . S
C2430 H2416 0.930 . S
C2430 C2428 1.395 . S
C2430 C2433 1.403 . S
C2431 C2428 1.403 . S
C2431 C2432 1.524 . S
C2431 C2435 1.400 . S
C2432 H2417 0.960 . S
C2432 H2418 0.960 . S
C2432 H2419 0.960 . S
C2432 C2431 1.524 . S
C2433 C2430 1.403 . S
C2433 C2434 1.392 . S
C2433 C2437 1.495 . S
C2434 C2433 1.392 . S
C2434 C2435 1.385 . S
C2434 C2436 1.478 . S
C2435 H2429 0.930 . S
C2435 C2431 1.400 . S
C2435 C2434 1.385 . S
C2436 C2434 1.478 . S
C2436 C2438 1.381 . S
C2436 C2442 1.383 . S
C2437 C2433 1.495 . S
C2437 H2443 0.959 . S
C2437 H2444 0.961 . S
C2437 H2445 0.960 . S
C2438 C2436 1.381 . S
C2438 C2439 1.394 . S
C2438 H2446 0.930 . S
C2439 C2438 1.394 . S
C2439 C2440 1.383 . S
C2439 H2447 0.929 . S
C2440 C2439 1.383 . S
C2440 C2441 1.377 . S
C2441 H2425 0.930 . S
C2441 C2440 1.377 . S
C2441 C2442 1.379 . S
C2442 H2426 0.931 . S
C2442 C2436 1.383 . S
C2442 C2441 1.379 . S
H2443 C2437 0.959 . S
H2444 C2437 0.961 . S
H2445 C2437 0.960 . S
H2446 C2438 0.930 . S
H2447 C2439 0.929 . S
H2448 C2456 0.929 . S
H2449 C2458 0.930 . S
H2450 C2460 0.930 . S
H2451 C2463 0.929 . S
H2452 C2466 0.930 . S
H2453 C2468 0.960 . S
H2454 C2468 0.960 . S
H2455 C2468 0.960 . S
C2456 H2448 0.929 . S
C2456 C2457 1.377 . S
C2456 C2458 1.384 . S
C2457 C2456 1.377 . S
C2457 C2463 1.390 . S
C2458 H2449 0.930 . S
C2458 C2456 1.384 . S
C2458 C2459 1.372 . S
C2459 C2458 1.372 . S
C2459 C2460 1.400 . S
C2459 C2464 1.490 . S
C2460 H2450 0.930 . S
C2460 C2459 1.400 . S
C2460 C2463 1.386 . S
H2461 C2477 0.930 . S
H2462 C2478 0.931 . S
C2463 H2451 0.929 . S
C2463 C2457 1.390 . S
C2463 C2460 1.386 . S
C2464 C2459 1.490 . S
C2464 C2466 1.395 . S
C2464 C2467 1.403 . S
H2465 C2471 0.930 . S
C2466 H2452 0.930 . S
C2466 C2464 1.395 . S
C2466 C2469 1.403 . S
C2467 C2464 1.403 . S
C2467 C2468 1.524 . S
C2467 C2471 1.400 . S
C2468 H2453 0.960 . S
C2468 H2454 0.960 . S
C2468 H2455 0.960 . S
C2468 C2467 1.524 . S
C2469 C2466 1.403 . S
C2469 C2470 1.392 . S
C2469 C2473 1.495 . S
C2470 C2469 1.392 . S
C2470 C2471 1.385 . S
C2470 C2472 1.478 . S
C2471 H2465 0.930 . S
C2471 C2467 1.400 . S
C2471 C2470 1.385 . S
C2472 C2470 1.478 . S
C2472 C2474 1.381 . S
C2472 C2478 1.383 . S
C2473 C2469 1.495 . S
C2473 H2479 0.959 . S
C2473 H2480 0.961 . S
C2473 H2481 0.960 . S
C2474 C2472 1.381 . S
C2474 C2475 1.394 . S
C2474 H2482 0.930 . S
C2475 C2474 1.394 . S
C2475 C2476 1.383 . S
C2475 H2483 0.929 . S
C2476 C2475 1.383 . S
C2476 C2477 1.377 . S
C2477 H2461 0.930 . S
C2477 C2476 1.377 . S
C2477 C2478 1.379 . S
C2478 H2462 0.931 . S
C2478 C2472 1.383 . S
C2478 C2477 1.379 . S
H2479 C2473 0.959 . S
H2480 C2473 0.961 . S
H2481 C2473 0.960 . S
H2482 C2474 0.930 . S
H2483 C2475 0.929 . S
H2484 C2492 0.929 . S
H2485 C2494 0.930 . S
H2486 C2496 0.930 . S
H2487 C2499 0.929 . S
H2488 C2502 0.930 . S
H2489 C2504 0.960 . S
H2490 C2504 0.960 . S
H2491 C2504 0.960 . S
C2492 H2484 0.929 . S
C2492 C2493 1.377 . S
C2492 C2494 1.384 . S
C2493 C2492 1.377 . S
C2493 C2499 1.390 . S
C2494 H2485 0.930 . S
C2494 C2492 1.384 . S
C2494 C2495 1.372 . S
C2495 C2494 1.372 . S
C2495 C2496 1.400 . S
C2495 C2500 1.490 . S
C2496 H2486 0.930 . S
C2496 C2495 1.400 . S
C2496 C2499 1.386 . S
H2497 C2513 0.930 . S
H2498 C2514 0.931 . S
C2499 H2487 0.929 . S
C2499 C2493 1.390 . S
C2499 C2496 1.386 . S
C2500 C2495 1.490 . S
C2500 C2502 1.395 . S
C2500 C2503 1.403 . S
H2501 C2507 0.930 . S
C2502 H2488 0.930 . S
C2502 C2500 1.395 . S
C2502 C2505 1.403 . S
C2503 C2500 1.403 . S
C2503 C2504 1.524 . S
C2503 C2507 1.400 . S
C2504 H2489 0.960 . S
C2504 H2490 0.960 . S
C2504 H2491 0.960 . S
C2504 C2503 1.524 . S
C2505 C2502 1.403 . S
C2505 C2506 1.392 . S
C2505 C2509 1.495 . S
C2506 C2505 1.392 . S
C2506 C2507 1.385 . S
C2506 C2508 1.478 . S
C2507 H2501 0.930 . S
C2507 C2503 1.400 . S
C2507 C2506 1.385 . S
C2508 C2506 1.478 . S
C2508 C2510 1.381 . S
C2508 C2514 1.383 . S
C2509 C2505 1.495 . S
C2509 H2515 0.959 . S
C2509 H2516 0.961 . S
C2509 H2517 0.960 . S
C2510 C2508 1.381 . S
C2510 C2511 1.394 . S
C2510 H2518 0.930 . S
C2511 C2510 1.394 . S
C2511 C2512 1.383 . S
C2511 H2519 0.929 . S
C2512 C2511 1.383 . S
C2512 C2513 1.377 . S
C2513 H2497 0.930 . S
C2513 C2512 1.377 . S
C2513 C2514 1.379 . S
C2514 H2498 0.931 . S
C2514 C2508 1.383 . S
C2514 C2513 1.379 . S
H2515 C2509 0.959 . S
H2516 C2509 0.961 . S
H2517 C2509 0.960 . S
H2518 C2510 0.930 . S
H2519 C2511 0.929 . S
H2520 C2528 0.929 . S
H2521 C2530 0.930 . S
H2522 C2532 0.930 . S
H2523 C2535 0.929 . S
H2524 C2538 0.930 . S
H2525 C2540 0.960 . S
H2526 C2540 0.960 . S
H2527 C2540 0.960 . S
C2528 H2520 0.929 . S
C2528 C2529 1.377 . S
C2528 C2530 1.384 . S
C2529 C2528 1.377 . S
C2529 C2535 1.390 . S
C2530 H2521 0.930 . S
C2530 C2528 1.384 . S
C2530 C2531 1.372 . S
C2531 C2530 1.372 . S
C2531 C2532 1.400 . S
C2531 C2536 1.490 . S
C2532 H2522 0.930 . S
C2532 C2531 1.400 . S
C2532 C2535 1.386 . S
H2533 C2549 0.930 . S
H2534 C2550 0.931 . S
C2535 H2523 0.929 . S
C2535 C2529 1.390 . S
C2535 C2532 1.386 . S
C2536 C2531 1.490 . S
C2536 C2538 1.395 . S
C2536 C2539 1.403 . S
H2537 C2543 0.930 . S
C2538 H2524 0.930 . S
C2538 C2536 1.395 . S
C2538 C2541 1.403 . S
C2539 C2536 1.403 . S
C2539 C2540 1.524 . S
C2539 C2543 1.400 . S
C2540 H2525 0.960 . S
C2540 H2526 0.960 . S
C2540 H2527 0.960 . S
C2540 C2539 1.524 . S
C2541 C2538 1.403 . S
C2541 C2542 1.392 . S
C2541 C2545 1.495 . S
C2542 C2541 1.392 . S
C2542 C2543 1.385 . S
C2542 C2544 1.478 . S
C2543 H2537 0.930 . S
C2543 C2539 1.400 . S
C2543 C2542 1.385 . S
C2544 C2542 1.478 . S
C2544 C2546 1.381 . S
C2544 C2550 1.383 . S
C2545 C2541 1.495 . S
C2545 H2551 0.959 . S
C2545 H2552 0.961 . S
C2545 H2553 0.960 . S
C2546 C2544 1.381 . S
C2546 C2547 1.394 . S
C2546 H2554 0.930 . S
C2547 C2546 1.394 . S
C2547 C2548 1.383 . S
C2547 H2555 0.929 . S
C2548 C2547 1.383 . S
C2548 C2549 1.377 . S
C2549 H2533 0.930 . S
C2549 C2548 1.377 . S
C2549 C2550 1.379 . S
C2550 H2534 0.931 . S
C2550 C2544 1.383 . S
C2550 C2549 1.379 . S
H2551 C2545 0.959 . S
H2552 C2545 0.961 . S
H2553 C2545 0.960 . S
H2554 C2546 0.930 . S
H2555 C2547 0.929 . S
H2556 C2564 0.929 . S
H2557 C2566 0.930 . S
H2558 C2568 0.930 . S
H2559 C2571 0.929 . S
H2560 C2574 0.930 . S
H2561 C2576 0.960 . S
H2562 C2576 0.960 . S
H2563 C2576 0.960 . S
C2564 H2556 0.929 . S
C2564 C2565 1.377 . S
C2564 C2566 1.384 . S
C2565 C2564 1.377 . S
C2565 C2571 1.390 . S
C2566 H2557 0.930 . S
C2566 C2564 1.384 . S
C2566 C2567 1.372 . S
C2567 C2566 1.372 . S
C2567 C2568 1.400 . S
C2567 C2572 1.490 . S
C2568 H2558 0.930 . S
C2568 C2567 1.400 . S
C2568 C2571 1.386 . S
H2569 C2585 0.930 . S
H2570 C2586 0.931 . S
C2571 H2559 0.929 . S
C2571 C2565 1.390 . S
C2571 C2568 1.386 . S
C2572 C2567 1.490 . S
C2572 C2574 1.395 . S
C2572 C2575 1.403 . S
H2573 C2579 0.930 . S
C2574 H2560 0.930 . S
C2574 C2572 1.395 . S
C2574 C2577 1.403 . S
C2575 C2572 1.403 . S
C2575 C2576 1.524 . S
C2575 C2579 1.400 . S
C2576 H2561 0.960 . S
C2576 H2562 0.960 . S
C2576 H2563 0.960 . S
C2576 C2575 1.524 . S
C2577 C2574 1.403 . S
C2577 C2578 1.392 . S
C2577 C2581 1.495 . S
C2578 C2577 1.392 . S
C2578 C2579 1.385 . S
C2578 C2580 1.478 . S
C2579 H2573 0.930 . S
C2579 C2575 1.400 . S
C2579 C2578 1.385 . S
C2580 C2578 1.478 . S
C2580 C2582 1.381 . S
C2580 C2586 1.383 . S
C2581 C2577 1.495 . S
C2581 H2587 0.959 . S
C2581 H2588 0.961 . S
C2581 H2589 0.960 . S
C2582 C2580 1.381 . S
C2582 C2583 1.394 . S
C2582 H2590 0.930 . S
C2583 C2582 1.394 . S
C2583 C2584 1.383 . S
C2583 H2591 0.929 . S
C2584 C2583 1.383 . S
C2584 C2585 1.377 . S
C2585 H2569 0.930 . S
C2585 C2584 1.377 . S
C2585 C2586 1.379 . S
C2586 H2570 0.931 . S
C2586 C2580 1.383 . S
C2586 C2585 1.379 . S
H2587 C2581 0.959 . S
H2588 C2581 0.961 . S
H2589 C2581 0.960 . S
H2590 C2582 0.930 . S
H2591 C2583 0.929 . S
H2592 C2600 0.929 . S
H2593 C2602 0.930 . S
H2594 C2604 0.930 . S
H2595 C2607 0.929 . S
H2596 C2610 0.930 . S
H2597 C2612 0.960 . S
H2598 C2612 0.960 . S
H2599 C2612 0.960 . S
C2600 H2592 0.929 . S
C2600 C2601 1.377 . S
C2600 C2602 1.384 . S
C2601 C2600 1.377 . S
C2601 C2607 1.390 . S
C2602 H2593 0.930 . S
C2602 C2600 1.384 . S
C2602 C2603 1.372 . S
C2603 C2602 1.372 . S
C2603 C2604 1.400 . S
C2603 C2608 1.490 . S
C2604 H2594 0.930 . S
C2604 C2603 1.400 . S
C2604 C2607 1.386 . S
H2605 C2621 0.930 . S
H2606 C2622 0.931 . S
C2607 H2595 0.929 . S
C2607 C2601 1.390 . S
C2607 C2604 1.386 . S
C2608 C2603 1.490 . S
C2608 C2610 1.395 . S
C2608 C2611 1.403 . S
H2609 C2615 0.930 . S
C2610 H2596 0.930 . S
C2610 C2608 1.395 . S
C2610 C2613 1.403 . S
C2611 C2608 1.403 . S
C2611 C2612 1.524 . S
C2611 C2615 1.400 . S
C2612 H2597 0.960 . S
C2612 H2598 0.960 . S
C2612 H2599 0.960 . S
C2612 C2611 1.524 . S
C2613 C2610 1.403 . S
C2613 C2614 1.392 . S
C2613 C2617 1.495 . S
C2614 C2613 1.392 . S
C2614 C2615 1.385 . S
C2614 C2616 1.478 . S
C2615 H2609 0.930 . S
C2615 C2611 1.400 . S
C2615 C2614 1.385 . S
C2616 C2614 1.478 . S
C2616 C2618 1.381 . S
C2616 C2622 1.383 . S
C2617 C2613 1.495 . S
C2617 H2623 0.959 . S
C2617 H2624 0.961 . S
C2617 H2625 0.960 . S
C2618 C2616 1.381 . S
C2618 C2619 1.394 . S
C2618 H2626 0.930 . S
C2619 C2618 1.394 . S
C2619 C2620 1.383 . S
C2619 H2627 0.929 . S
C2620 C2619 1.383 . S
C2620 C2621 1.377 . S
C2621 H2605 0.930 . S
C2621 C2620 1.377 . S
C2621 C2622 1.379 . S
C2622 H2606 0.931 . S
C2622 C2616 1.383 . S
C2622 C2621 1.379 . S
H2623 C2617 0.959 . S
H2624 C2617 0.961 . S
H2625 C2617 0.960 . S
H2626 C2618 0.930 . S
H2627 C2619 0.929 . S
H2628 C2636 0.929 . S
H2629 C2638 0.930 . S
H2630 C2640 0.930 . S
H2631 C2643 0.929 . S
H2632 C2646 0.930 . S
H2633 C2648 0.960 . S
H2634 C2648 0.960 . S
H2635 C2648 0.960 . S
C2636 H2628 0.929 . S
C2636 C2637 1.377 . S
C2636 C2638 1.384 . S
C2637 C2636 1.377 . S
C2637 C2643 1.390 . S
C2638 H2629 0.930 . S
C2638 C2636 1.384 . S
C2638 C2639 1.372 . S
C2639 C2638 1.372 . S
C2639 C2640 1.400 . S
C2639 C2644 1.490 . S
C2640 H2630 0.930 . S
C2640 C2639 1.400 . S
C2640 C2643 1.386 . S
H2641 C2657 0.930 . S
H2642 C2658 0.931 . S
C2643 H2631 0.929 . S
C2643 C2637 1.390 . S
C2643 C2640 1.386 . S
C2644 C2639 1.490 . S
C2644 C2646 1.395 . S
C2644 C2647 1.403 . S
H2645 C2651 0.930 . S
C2646 H2632 0.930 . S
C2646 C2644 1.395 . S
C2646 C2649 1.403 . S
C2647 C2644 1.403 . S
C2647 C2648 1.524 . S
C2647 C2651 1.400 . S
C2648 H2633 0.960 . S
C2648 H2634 0.960 . S
C2648 H2635 0.960 . S
C2648 C2647 1.524 . S
C2649 C2646 1.403 . S
C2649 C2650 1.392 . S
C2649 C2653 1.495 . S
C2650 C2649 1.392 . S
C2650 C2651 1.385 . S
C2650 C2652 1.478 . S
C2651 H2645 0.930 . S
C2651 C2647 1.400 . S
C2651 C2650 1.385 . S
C2652 C2650 1.478 . S
C2652 C2654 1.381 . S
C2652 C2658 1.383 . S
C2653 C2649 1.495 . S
C2653 H2659 0.959 . S
C2653 H2660 0.961 . S
C2653 H2661 0.960 . S
C2654 C2652 1.381 . S
C2654 C2655 1.394 . S
C2654 H2662 0.930 . S
C2655 C2654 1.394 . S
C2655 C2656 1.383 . S
C2655 H2663 0.929 . S
C2656 C2655 1.383 . S
C2656 C2657 1.377 . S
C2657 H2641 0.930 . S
C2657 C2656 1.377 . S
C2657 C2658 1.379 . S
C2658 H2642 0.931 . S
C2658 C2652 1.383 . S
C2658 C2657 1.379 . S
H2659 C2653 0.959 . S
H2660 C2653 0.961 . S
H2661 C2653 0.960 . S
H2662 C2654 0.930 . S
H2663 C2655 0.929 . S
H2664 C2672 0.929 . S
H2665 C2674 0.930 . S
H2666 C2676 0.930 . S
H2667 C2679 0.929 . S
H2668 C2682 0.930 . S
H2669 C2684 0.960 . S
H2670 C2684 0.960 . S
H2671 C2684 0.960 . S
C2672 H2664 0.929 . S
C2672 C2673 1.377 . S
C2672 C2674 1.384 . S
C2673 C2672 1.377 . S
C2673 C2679 1.390 . S
C2674 H2665 0.930 . S
C2674 C2672 1.384 . S
C2674 C2675 1.372 . S
C2675 C2674 1.372 . S
C2675 C2676 1.400 . S
C2675 C2680 1.490 . S
C2676 H2666 0.930 . S
C2676 C2675 1.400 . S
C2676 C2679 1.386 . S
H2677 C2693 0.930 . S
H2678 C2694 0.931 . S
C2679 H2667 0.929 . S
C2679 C2673 1.390 . S
C2679 C2676 1.386 . S
C2680 C2675 1.490 . S
C2680 C2682 1.395 . S
C2680 C2683 1.403 . S
H2681 C2687 0.930 . S
C2682 H2668 0.930 . S
C2682 C2680 1.395 . S
C2682 C2685 1.403 . S
C2683 C2680 1.403 . S
C2683 C2684 1.524 . S
C2683 C2687 1.400 . S
C2684 H2669 0.960 . S
C2684 H2670 0.960 . S
C2684 H2671 0.960 . S
C2684 C2683 1.524 . S
C2685 C2682 1.403 . S
C2685 C2686 1.392 . S
C2685 C2689 1.495 . S
C2686 C2685 1.392 . S
C2686 C2687 1.385 . S
C2686 C2688 1.478 . S
C2687 H2681 0.930 . S
C2687 C2683 1.400 . S
C2687 C2686 1.385 . S
C2688 C2686 1.478 . S
C2688 C2690 1.381 . S
C2688 C2694 1.383 . S
C2689 C2685 1.495 . S
C2689 H2695 0.959 . S
C2689 H2696 0.961 . S
C2689 H2697 0.960 . S
C2690 C2688 1.381 . S
C2690 C2691 1.394 . S
C2690 H2698 0.930 . S
C2691 C2690 1.394 . S
C2691 C2692 1.383 . S
C2691 H2699 0.929 . S
C2692 C2691 1.383 . S
C2692 C2693 1.377 . S
C2693 H2677 0.930 . S
C2693 C2692 1.377 . S
C2693 C2694 1.379 . S
C2694 H2678 0.931 . S
C2694 C2688 1.383 . S
C2694 C2693 1.379 . S
H2695 C2689 0.959 . S
H2696 C2689 0.961 . S
H2697 C2689 0.960 . S
H2698 C2690 0.930 . S
H2699 C2691 0.929 . S
H2700 C2708 0.929 . S
H2701 C2710 0.930 . S
H2702 C2712 0.930 . S
H2703 C2715 0.929 . S
H2704 C2718 0.930 . S
H2705 C2720 0.960 . S
H2706 C2720 0.960 . S
H2707 C2720 0.960 . S
C2708 H2700 0.929 . S
C2708 C2709 1.377 . S
C2708 C2710 1.384 . S
C2709 C2708 1.377 . S
C2709 C2715 1.390 . S
C2710 H2701 0.930 . S
C2710 C2708 1.384 . S
C2710 C2711 1.372 . S
C2711 C2710 1.372 . S
C2711 C2712 1.400 . S
C2711 C2716 1.490 . S
C2712 H2702 0.930 . S
C2712 C2711 1.400 . S
C2712 C2715 1.386 . S
H2713 C2729 0.930 . S
H2714 C2730 0.931 . S
C2715 H2703 0.929 . S
C2715 C2709 1.390 . S
C2715 C2712 1.386 . S
C2716 C2711 1.490 . S
C2716 C2718 1.395 . S
C2716 C2719 1.403 . S
H2717 C2723 0.930 . S
C2718 H2704 0.930 . S
C2718 C2716 1.395 . S
C2718 C2721 1.403 . S
C2719 C2716 1.403 . S
C2719 C2720 1.524 . S
C2719 C2723 1.400 . S
C2720 H2705 0.960 . S
C2720 H2706 0.960 . S
C2720 H2707 0.960 . S
C2720 C2719 1.524 . S
C2721 C2718 1.403 . S
C2721 C2722 1.392 . S
C2721 C2725 1.495 . S
C2722 C2721 1.392 . S
C2722 C2723 1.385 . S
C2722 C2724 1.478 . S
C2723 H2717 0.930 . S
C2723 C2719 1.400 . S
C2723 C2722 1.385 . S
C2724 C2722 1.478 . S
C2724 C2726 1.381 . S
C2724 C2730 1.383 . S
C2725 C2721 1.495 . S
C2725 H2731 0.959 . S
C2725 H2732 0.961 . S
C2725 H2733 0.960 . S
C2726 C2724 1.381 . S
C2726 C2727 1.394 . S
C2726 H2734 0.930 . S
C2727 C2726 1.394 . S
C2727 C2728 1.383 . S
C2727 H2735 0.929 . S
C2728 C2727 1.383 . S
C2728 C2729 1.377 . S
C2729 H2713 0.930 . S
C2729 C2728 1.377 . S
C2729 C2730 1.379 . S
C2730 H2714 0.931 . S
C2730 C2724 1.383 . S
C2730 C2729 1.379 . S
H2731 C2725 0.959 . S
H2732 C2725 0.961 . S
H2733 C2725 0.960 . S
H2734 C2726 0.930 . S
H2735 C2727 0.929 . S
H2736 C2744 0.929 . S
H2737 C2746 0.930 . S
H2738 C2748 0.930 . S
H2739 C2751 0.929 . S
H2740 C2754 0.930 . S
H2741 C2756 0.960 . S
H2742 C2756 0.960 . S
H2743 C2756 0.960 . S
C2744 H2736 0.929 . S
C2744 C2745 1.377 . S
C2744 C2746 1.384 . S
C2745 C2744 1.377 . S
C2745 C2751 1.390 . S
C2746 H2737 0.930 . S
C2746 C2744 1.384 . S
C2746 C2747 1.372 . S
C2747 C2746 1.372 . S
C2747 C2748 1.400 . S
C2747 C2752 1.490 . S
C2748 H2738 0.930 . S
C2748 C2747 1.400 . S
C2748 C2751 1.386 . S
H2749 C2765 0.930 . S
H2750 C2766 0.931 . S
C2751 H2739 0.929 . S
C2751 C2745 1.390 . S
C2751 C2748 1.386 . S
C2752 C2747 1.490 . S
C2752 C2754 1.395 . S
C2752 C2755 1.403 . S
H2753 C2759 0.930 . S
C2754 H2740 0.930 . S
C2754 C2752 1.395 . S
C2754 C2757 1.403 . S
C2755 C2752 1.403 . S
C2755 C2756 1.524 . S
C2755 C2759 1.400 . S
C2756 H2741 0.960 . S
C2756 H2742 0.960 . S
C2756 H2743 0.960 . S
C2756 C2755 1.524 . S
C2757 C2754 1.403 . S
C2757 C2758 1.392 . S
C2757 C2761 1.495 . S
C2758 C2757 1.392 . S
C2758 C2759 1.385 . S
C2758 C2760 1.478 . S
C2759 H2753 0.930 . S
C2759 C2755 1.400 . S
C2759 C2758 1.385 . S
C2760 C2758 1.478 . S
C2760 C2762 1.381 . S
C2760 C2766 1.383 . S
C2761 C2757 1.495 . S
C2761 H2767 0.959 . S
C2761 H2768 0.961 . S
C2761 H2769 0.960 . S
C2762 C2760 1.381 . S
C2762 C2763 1.394 . S
C2762 H2770 0.930 . S
C2763 C2762 1.394 . S
C2763 C2764 1.383 . S
C2763 H2771 0.929 . S
C2764 C2763 1.383 . S
C2764 C2765 1.377 . S
C2765 H2749 0.930 . S
C2765 C2764 1.377 . S
C2765 C2766 1.379 . S
C2766 H2750 0.931 . S
C2766 C2760 1.383 . S
C2766 C2765 1.379 . S
H2767 C2761 0.959 . S
H2768 C2761 0.961 . S
H2769 C2761 0.960 . S
H2770 C2762 0.930 . S
H2771 C2763 0.929 . S
H2772 C2780 0.929 . S
H2773 C2782 0.930 . S
H2774 C2784 0.930 . S
H2775 C2787 0.929 . S
H2776 C2790 0.930 . S
H2777 C2792 0.960 . S
H2778 C2792 0.960 . S
H2779 C2792 0.960 . S
C2780 H2772 0.929 . S
C2780 C2781 1.377 . S
C2780 C2782 1.384 . S
C2781 C2780 1.377 . S
C2781 C2787 1.390 . S
C2782 H2773 0.930 . S
C2782 C2780 1.384 . S
C2782 C2783 1.372 . S
C2783 C2782 1.372 . S
C2783 C2784 1.400 . S
C2783 C2788 1.490 . S
C2784 H2774 0.930 . S
C2784 C2783 1.400 . S
C2784 C2787 1.386 . S
H2785 C2801 0.930 . S
H2786 C2802 0.931 . S
C2787 H2775 0.929 . S
C2787 C2781 1.390 . S
C2787 C2784 1.386 . S
C2788 C2783 1.490 . S
C2788 C2790 1.395 . S
C2788 C2791 1.403 . S
H2789 C2795 0.930 . S
C2790 H2776 0.930 . S
C2790 C2788 1.395 . S
C2790 C2793 1.403 . S
C2791 C2788 1.403 . S
C2791 C2792 1.524 . S
C2791 C2795 1.400 . S
C2792 H2777 0.960 . S
C2792 H2778 0.960 . S
C2792 H2779 0.960 . S
C2792 C2791 1.524 . S
C2793 C2790 1.403 . S
C2793 C2794 1.392 . S
C2793 C2797 1.495 . S
C2794 C2793 1.392 . S
C2794 C2795 1.385 . S
C2794 C2796 1.478 . S
C2795 H2789 0.930 . S
C2795 C2791 1.400 . S
C2795 C2794 1.385 . S
C2796 C2794 1.478 . S
C2796 C2798 1.381 . S
C2796 C2802 1.383 . S
C2797 C2793 1.495 . S
C2797 H2803 0.959 . S
C2797 H2804 0.961 . S
C2797 H2805 0.960 . S
C2798 C2796 1.381 . S
C2798 C2799 1.394 . S
C2798 H2806 0.930 . S
C2799 C2798 1.394 . S
C2799 C2800 1.383 . S
C2799 H2807 0.929 . S
C2800 C2799 1.383 . S
C2800 C2801 1.377 . S
C2801 H2785 0.930 . S
C2801 C2800 1.377 . S
C2801 C2802 1.379 . S
C2802 H2786 0.931 . S
C2802 C2796 1.383 . S
C2802 C2801 1.379 . S
H2803 C2797 0.959 . S
H2804 C2797 0.961 . S
H2805 C2797 0.960 . S
H2806 C2798 0.930 . S
H2807 C2799 0.929 . S
H2808 C2816 0.929 . S
H2809 C2818 0.930 . S
H2810 C2820 0.930 . S
H2811 C2823 0.929 . S
H2812 C2826 0.930 . S
H2813 C2828 0.960 . S
H2814 C2828 0.960 . S
H2815 C2828 0.960 . S
C2816 H2808 0.929 . S
C2816 C2817 1.377 . S
C2816 C2818 1.384 . S
C2817 C2816 1.377 . S
C2817 C2823 1.390 . S
C2818 H2809 0.930 . S
C2818 C2816 1.384 . S
C2818 C2819 1.372 . S
C2819 C2818 1.372 . S
C2819 C2820 1.400 . S
C2819 C2824 1.490 . S
C2820 H2810 0.930 . S
C2820 C2819 1.400 . S
C2820 C2823 1.386 . S
H2821 C2837 0.930 . S
H2822 C2838 0.931 . S
C2823 H2811 0.929 . S
C2823 C2817 1.390 . S
C2823 C2820 1.386 . S
C2824 C2819 1.490 . S
C2824 C2826 1.395 . S
C2824 C2827 1.403 . S
H2825 C2831 0.930 . S
C2826 H2812 0.930 . S
C2826 C2824 1.395 . S
C2826 C2829 1.403 . S
C2827 C2824 1.403 . S
C2827 C2828 1.524 . S
C2827 C2831 1.400 . S
C2828 H2813 0.960 . S
C2828 H2814 0.960 . S
C2828 H2815 0.960 . S
C2828 C2827 1.524 . S
C2829 C2826 1.403 . S
C2829 C2830 1.392 . S
C2829 C2833 1.495 . S
C2830 C2829 1.392 . S
C2830 C2831 1.385 . S
C2830 C2832 1.478 . S
C2831 H2825 0.930 . S
C2831 C2827 1.400 . S
C2831 C2830 1.385 . S
C2832 C2830 1.478 . S
C2832 C2834 1.381 . S
C2832 C2838 1.383 . S
C2833 C2829 1.495 . S
C2833 H2839 0.959 . S
C2833 H2840 0.961 . S
C2833 H2841 0.960 . S
C2834 C2832 1.381 . S
C2834 C2835 1.394 . S
C2834 H2842 0.930 . S
C2835 C2834 1.394 . S
C2835 C2836 1.383 . S
C2835 H2843 0.929 . S
C2836 C2835 1.383 . S
C2836 C2837 1.377 . S
C2837 H2821 0.930 . S
C2837 C2836 1.377 . S
C2837 C2838 1.379 . S
C2838 H2822 0.931 . S
C2838 C2832 1.383 . S
C2838 C2837 1.379 . S
H2839 C2833 0.959 . S
H2840 C2833 0.961 . S
H2841 C2833 0.960 . S
H2842 C2834 0.930 . S
H2843 C2835 0.929 . S
H2844 C2852 0.929 . S
H2845 C2854 0.930 . S
H2846 C2856 0.930 . S
H2847 C2859 0.929 . S
H2848 C2862 0.930 . S
H2849 C2864 0.960 . S
H2850 C2864 0.960 . S
H2851 C2864 0.960 . S
C2852 H2844 0.929 . S
C2852 C2853 1.377 . S
C2852 C2854 1.384 . S
C2853 C2852 1.377 . S
C2853 C2859 1.390 . S
C2854 H2845 0.930 . S
C2854 C2852 1.384 . S
C2854 C2855 1.372 . S
C2855 C2854 1.372 . S
C2855 C2856 1.400 . S
C2855 C2860 1.490 . S
C2856 H2846 0.930 . S
C2856 C2855 1.400 . S
C2856 C2859 1.386 . S
H2857 C2873 0.930 . S
H2858 C2874 0.931 . S
C2859 H2847 0.929 . S
C2859 C2853 1.390 . S
C2859 C2856 1.386 . S
C2860 C2855 1.490 . S
C2860 C2862 1.395 . S
C2860 C2863 1.403 . S
H2861 C2867 0.930 . S
C2862 H2848 0.930 . S
C2862 C2860 1.395 . S
C2862 C2865 1.403 . S
C2863 C2860 1.403 . S
C2863 C2864 1.524 . S
C2863 C2867 1.400 . S
C2864 H2849 0.960 . S
C2864 H2850 0.960 . S
C2864 H2851 0.960 . S
C2864 C2863 1.524 . S
C2865 C2862 1.403 . S
C2865 C2866 1.392 . S
C2865 C2869 1.495 . S
C2866 C2865 1.392 . S
C2866 C2867 1.385 . S
C2866 C2868 1.478 . S
C2867 H2861 0.930 . S
C2867 C2863 1.400 . S
C2867 C2866 1.385 . S
C2868 C2866 1.478 . S
C2868 C2870 1.381 . S
C2868 C2874 1.383 . S
C2869 C2865 1.495 . S
C2869 H2875 0.959 . S
C2869 H2876 0.961 . S
C2869 H2877 0.960 . S
C2870 C2868 1.381 . S
C2870 C2871 1.394 . S
C2870 H2878 0.930 . S
C2871 C2870 1.394 . S
C2871 C2872 1.383 . S
C2871 H2879 0.929 . S
C2872 C2871 1.383 . S
C2872 C2873 1.377 . S
C2873 H2857 0.930 . S
C2873 C2872 1.377 . S
C2873 C2874 1.379 . S
C2874 H2858 0.931 . S
C2874 C2868 1.383 . S
C2874 C2873 1.379 . S
H2875 C2869 0.959 . S
H2876 C2869 0.961 . S
H2877 C2869 0.960 . S
H2878 C2870 0.930 . S
H2879 C2871 0.929 . S
H2880 C2888 0.929 . S
H2881 C2890 0.930 . S
H2882 C2892 0.930 1_655 S
H2883 C2895 0.929 . S
H2884 C2898 0.930 . S
H2885 C2900 0.962 . S
H2886 C2900 0.949 1_455 S
H2887 C2900 0.965 . S
C2888 H2880 0.929 . S
C2888 C2889 1.377 . S
C2888 C2890 1.384 . S
C2889 C2888 1.377 . S
C2889 C2895 1.390 . S
C2890 H2881 0.930 . S
C2890 C2888 1.384 . S
C2890 C2891 1.372 . S
C2891 C2890 1.372 . S
C2891 C2892 1.400 . S
C2891 C2896 1.490 . S
C2892 H2882 0.930 1_455 S
C2892 C2891 1.400 . S
C2892 C2895 1.386 . S
H2893 C2909 0.930 . S
H2894 C2910 0.931 . S
C2895 H2883 0.929 . S
C2895 C2889 1.390 . S
C2895 C2892 1.386 . S
C2896 C2891 1.490 . S
C2896 C2898 1.395 . S
C2896 C2899 1.403 . S
H2897 C2903 0.930 . S
C2898 H2884 0.930 . S
C2898 C2896 1.395 . S
C2898 C2901 1.403 1_556 S
C2899 C2896 1.403 . S
C2899 C2900 1.539 1_455 S
C2899 C2903 1.389 1_456 S
C2900 H2885 0.962 . S
C2900 H2886 0.949 1_655 S
C2900 H2887 0.965 . S
C2900 C2899 1.539 1_655 S
C2901 C2898 1.403 1_554 S
C2901 C2902 1.392 1_455 S
C2901 C2905 1.495 . S
C2902 C2901 1.392 1_655 S
C2902 C2903 1.385 . S
C2902 C2904 1.478 . S
C2903 H2897 0.930 . S
C2903 C2899 1.389 1_654 S
C2903 C2902 1.385 . S
C2904 C2902 1.478 . S
C2904 C2906 1.381 . S
C2904 C2910 1.383 . S
C2905 C2901 1.495 . S
C2905 H2911 0.959 . S
C2905 H2912 0.961 1_455 S
C2905 H2913 0.960 . S
C2906 C2904 1.381 . S
C2906 C2907 1.394 . S
C2906 H2914 0.930 1_655 S
C2907 C2906 1.394 . S
C2907 C2908 1.383 . S
C2907 H2915 0.929 . S
C2908 C2907 1.383 . S
C2908 C2909 1.377 . S
C2909 H2893 0.930 . S
C2909 C2908 1.377 . S
C2909 C2910 1.379 . S
C2910 H2894 0.931 . S
C2910 C2904 1.383 . S
C2910 C2909 1.379 . S
H2911 C2905 0.959 . S
H2912 C2905 0.961 1_655 S
H2913 C2905 0.960 . S
H2914 C2906 0.930 1_455 S
H2915 C2907 0.929 . S
H2916 C2924 0.929 . S
H2917 C2926 0.930 . S
H2918 C2928 0.930 . S
H2919 C2931 0.929 . S
H2920 C2934 0.930 . S
H2921 C2936 0.973 . S
H2922 C2936 0.954 1_554 S
H2923 C2936 0.954 1_554 S
C2924 H2916 0.929 . S
C2924 C2925 1.377 . S
C2924 C2926 1.384 . S
C2925 C2924 1.377 . S
C2925 C2931 1.390 . S
C2926 H2917 0.930 . S
C2926 C2924 1.384 . S
C2926 C2927 1.372 . S
C2927 C2926 1.372 . S
C2927 C2928 1.400 . S
C2927 C2932 1.490 . S
C2928 H2918 0.930 . S
C2928 C2927 1.400 . S
C2928 C2931 1.386 . S
H2929 C2945 0.930 . S
H2930 C2946 0.931 . S
C2931 H2919 0.929 . S
C2931 C2925 1.390 . S
C2931 C2928 1.386 . S
C2932 C2927 1.490 . S
C2932 C2934 1.395 . S
C2932 C2935 1.403 . S
H2933 C2939 0.930 . S
C2934 H2920 0.930 . S
C2934 C2932 1.395 . S
C2934 C2937 1.403 . S
C2935 C2932 1.403 . S
C2935 C2936 1.523 1_554 S
C2935 C2939 1.400 1_554 S
C2936 H2921 0.973 . S
C2936 H2922 0.954 1_556 S
C2936 H2923 0.954 1_556 S
C2936 C2935 1.523 1_556 S
C2937 C2934 1.403 . S
C2937 C2938 1.392 1_554 S
C2937 C2941 1.495 . S
C2938 C2937 1.392 1_556 S
C2938 C2939 1.385 . S
C2938 C2940 1.478 . S
C2939 H2933 0.930 . S
C2939 C2935 1.400 1_556 S
C2939 C2938 1.385 . S
C2940 C2938 1.478 . S
C2940 C2942 1.381 . S
C2940 C2946 1.383 . S
C2941 C2937 1.495 . S
C2941 H2947 0.959 . S
C2941 H2948 0.961 1_554 S
C2941 H2949 0.960 1_554 S
C2942 C2940 1.381 . S
C2942 C2943 1.394 . S
C2942 H2950 0.930 . S
C2943 C2942 1.394 . S
C2943 C2944 1.383 . S
C2943 H2951 0.929 . S
C2944 C2943 1.383 . S
C2944 C2945 1.377 . S
C2945 H2929 0.930 . S
C2945 C2944 1.377 . S
C2945 C2946 1.379 . S
C2946 H2930 0.931 . S
C2946 C2940 1.383 . S
C2946 C2945 1.379 . S
H2947 C2941 0.959 . S
H2948 C2941 0.961 1_556 S
H2949 C2941 0.960 1_556 S
H2950 C2942 0.930 . S
H2951 C2943 0.929 . S
H2952 C2960 0.929 . S
H2953 C2962 0.926 . S
H2954 C2964 0.930 . S
H2955 C2967 0.929 . S
H2956 C2970 0.930 . S
H2957 C2972 0.960 1_556 S
H2958 C2972 0.960 . S
H2959 C2972 0.960 . S
C2960 H2952 0.929 . S
C2960 C2961 1.377 . S
C2960 C2962 1.384 . S
C2961 C2960 1.377 . S
C2961 C2967 1.390 . S
C2962 H2953 0.926 . S
C2962 C2960 1.384 . S
C2962 C2963 1.372 . S
C2963 C2962 1.372 . S
C2963 C2964 1.400 . S
C2963 C2968 1.490 . S
C2964 H2954 0.930 . S
C2964 C2963 1.400 . S
C2964 C2967 1.386 . S
H2965 C2981 0.930 . S
H2966 C2982 0.931 . S
C2967 H2955 0.929 . S
C2967 C2961 1.390 . S
C2967 C2964 1.386 . S
C2968 C2963 1.490 . S
C2968 C2970 1.395 1_545 S
C2968 C2971 1.403 . S
H2969 C2975 0.930 . S
C2970 H2956 0.930 . S
C2970 C2968 1.395 1_565 S
C2970 C2973 1.424 . S
C2971 C2968 1.403 . S
C2971 C2972 1.524 . S
C2971 C2975 1.400 1_554 S
C2972 H2957 0.960 1_554 S
C2972 H2958 0.960 . S
C2972 H2959 0.960 . S
C2972 C2971 1.524 . S
C2973 C2970 1.424 . S
C2973 C2974 1.373 1_554 S
C2973 C2977 1.496 . S
C2974 C2973 1.373 1_556 S
C2974 C2975 1.385 1_565 S
C2974 C2976 1.478 . S
C2975 H2969 0.930 . S
C2975 C2971 1.400 1_556 S
C2975 C2974 1.385 1_545 S
C2976 C2974 1.478 . S
C2976 C2978 1.381 . S
C2976 C2982 1.383 . S
C2977 C2973 1.496 . S
C2977 H2983 0.959 . S
C2977 H2984 0.961 1_554 S
C2977 H2985 0.960 1_554 S
C2978 C2976 1.381 . S
C2978 C2979 1.394 . S
C2978 H2986 0.930 . S
C2979 C2978 1.394 . S
C2979 C2980 1.383 . S
C2979 H2987 0.929 . S
C2980 C2979 1.383 . S
C2980 C2981 1.377 . S
C2981 H2965 0.930 . S
C2981 C2980 1.377 . S
C2981 C2982 1.379 . S
C2982 H2966 0.931 . S
C2982 C2976 1.383 . S
C2982 C2981 1.379 . S
H2983 C2977 0.959 . S
H2984 C2977 0.961 1_556 S
H2985 C2977 0.960 1_556 S
H2986 C2978 0.930 . S
H2987 C2979 0.929 . S
H2988 C2996 0.929 . S
H2989 C2998 0.931 . S
H2990 C3000 0.930 . S
H2991 C3003 0.929 . S
H2992 C3006 0.930 . S
H2993 C3008 0.960 1_554 S
H2994 C3008 0.960 . S
H2995 C3008 0.960 . S
C2996 H2988 0.929 . S
C2996 C2997 1.377 . S
C2996 C2998 1.384 . S
C2997 C2996 1.377 . S
C2997 C3003 1.390 . S
C2998 H2989 0.931 . S
C2998 C2996 1.384 . S
C2998 C2999 1.372 . S
C2999 C2998 1.372 . S
C2999 C3000 1.400 . S
C2999 C3004 1.490 . S
C3000 H2990 0.930 . S
C3000 C2999 1.400 . S
C3000 C3003 1.386 . S
H3001 C3017 0.930 . S
H3002 C3018 0.931 . S
C3003 H2991 0.929 . S
C3003 C2997 1.390 . S
C3003 C3000 1.386 . S
C3004 C2999 1.490 . S
C3004 C3006 1.395 1_565 S
C3004 C3007 1.403 . S
H3005 C3011 0.930 . S
C3006 H2992 0.930 . S
C3006 C3004 1.395 1_545 S
C3006 C3009 1.425 . S
C3007 C3004 1.403 . S
C3007 C3008 1.524 . S
C3007 C3011 1.400 1_556 S
C3008 H2993 0.960 1_556 S
C3008 H2994 0.960 . S
C3008 H2995 0.960 . S
C3008 C3007 1.524 . S
C3009 C3006 1.425 . S
C3009 C3010 1.372 1_556 S
C3009 C3013 1.496 . S
C3010 C3009 1.372 1_554 S
C3010 C3011 1.385 1_545 S
C3010 C3012 1.478 . S
C3011 H3005 0.930 . S
C3011 C3007 1.400 1_554 S
C3011 C3010 1.385 1_565 S
C3012 C3010 1.478 . S
C3012 C3014 1.381 . S
C3012 C3018 1.383 . S
C3013 C3009 1.496 . S
C3013 H3019 0.959 . S
C3013 H3020 0.961 1_556 S
C3013 H3021 0.960 1_556 S
C3014 C3012 1.381 . S
C3014 C3015 1.394 . S
C3014 H3022 0.930 . S
C3015 C3014 1.394 . S
C3015 C3016 1.383 . S
C3015 H3023 0.929 . S
C3016 C3015 1.383 . S
C3016 C3017 1.377 . S
C3017 H3001 0.930 . S
C3017 C3016 1.377 . S
C3017 C3018 1.379 . S
C3018 H3002 0.931 . S
C3018 C3012 1.383 . S
C3018 C3017 1.379 . S
H3019 C3013 0.959 . S
H3020 C3013 0.961 1_554 S
H3021 C3013 0.960 1_554 S
H3022 C3014 0.930 . S
H3023 C3015 0.929 . S
H3024 C3032 0.929 . S
H3025 C3034 0.930 . S
H3026 C3036 0.930 . S
H3027 C3039 0.929 . S
H3028 C3042 0.920 . S
H3029 C3044 0.960 1_554 S
H3030 C3044 0.960 . S
H3031 C3044 0.960 . S
C3032 H3024 0.929 . S
C3032 C3033 1.377 . S
C3032 C3034 1.384 . S
C3033 C3032 1.377 . S
C3033 C3039 1.390 . S
C3034 H3025 0.930 . S
C3034 C3032 1.384 . S
C3034 C3035 1.372 . S
C3035 C3034 1.372 . S
C3035 C3036 1.400 . S
C3035 C3040 1.490 . S
C3036 H3026 0.930 . S
C3036 C3035 1.400 . S
C3036 C3039 1.386 . S
H3037 C3053 0.930 . S
H3038 C3054 0.931 . S
C3039 H3027 0.929 . S
C3039 C3033 1.390 . S
C3039 C3036 1.386 . S
C3040 C3035 1.490 . S
C3040 C3042 1.346 1_455 S
C3040 C3043 1.403 . S
H3041 C3047 0.922 . S
C3042 H3028 0.920 . S
C3042 C3040 1.346 1_655 S
C3042 C3045 1.430 1_556 S
C3043 C3040 1.403 . S
C3043 C3044 1.524 . S
C3043 C3047 1.406 1_556 S
C3044 H3029 0.960 1_556 S
C3044 H3030 0.960 . S
C3044 H3031 0.960 . S
C3044 C3043 1.524 . S
C3045 C3042 1.430 1_554 S
C3045 C3046 1.392 . S
C3045 C3049 1.495 . S
C3046 C3045 1.392 . S
C3046 C3047 1.374 1_655 S
C3046 C3048 1.478 . S
C3047 H3041 0.922 . S
C3047 C3043 1.406 1_554 S
C3047 C3046 1.374 1_455 S
C3048 C3046 1.478 . S
C3048 C3050 1.381 . S
C3048 C3054 1.383 . S
C3049 C3045 1.495 . S
C3049 H3055 0.959 1_554 S
C3049 H3056 0.961 . S
C3049 H3057 0.960 . S
C3050 C3048 1.381 . S
C3050 C3051 1.394 . S
C3050 H3058 0.930 . S
C3051 C3050 1.394 . S
C3051 C3052 1.383 . S
C3051 H3059 0.929 . S
C3052 C3051 1.383 . S
C3052 C3053 1.377 . S
C3053 H3037 0.930 . S
C3053 C3052 1.377 . S
C3053 C3054 1.379 . S
C3054 H3038 0.931 . S
C3054 C3048 1.383 . S
C3054 C3053 1.379 . S
H3055 C3049 0.959 1_556 S
H3056 C3049 0.961 . S
H3057 C3049 0.960 . S
H3058 C3050 0.930 . S
H3059 C3051 0.929 . S
H3060 C3068 0.929 . S
H3061 C3070 0.930 . S
H3062 C3072 0.930 . S
H3063 C3075 0.929 . S
H3064 C3078 0.930 . S
H3065 C3080 0.960 1_556 S
H3066 C3080 0.960 . S
H3067 C3080 0.960 . S
C3068 H3060 0.929 . S
C3068 C3069 1.377 . S
C3068 C3070 1.384 . S
C3069 C3068 1.377 . S
C3069 C3075 1.390 . S
C3070 H3061 0.930 . S
C3070 C3068 1.384 . S
C3070 C3071 1.372 . S
C3071 C3070 1.372 . S
C3071 C3072 1.400 . S
C3071 C3076 1.490 . S
C3072 H3062 0.930 . S
C3072 C3071 1.400 . S
C3072 C3075 1.386 . S
H3073 C3089 0.930 . S
H3074 C3090 0.931 . S
C3075 H3063 0.929 . S
C3075 C3069 1.390 . S
C3075 C3072 1.386 . S
C3076 C3071 1.490 . S
C3076 C3078 1.395 . S
C3076 C3079 1.403 . S
H3077 C3083 0.930 . S
C3078 H3064 0.930 . S
C3078 C3076 1.395 . S
C3078 C3081 1.403 1_554 S
C3079 C3076 1.403 . S
C3079 C3080 1.524 . S
C3079 C3083 1.400 1_554 S
C3080 H3065 0.960 1_554 S
C3080 H3066 0.960 . S
C3080 H3067 0.960 . S
C3080 C3079 1.524 . S
C3081 C3078 1.403 1_556 S
C3081 C3082 1.392 . S
C3081 C3085 1.495 . S
C3082 C3081 1.392 . S
C3082 C3083 1.385 . S
C3082 C3084 1.478 . S
C3083 H3077 0.930 . S
C3083 C3079 1.400 1_556 S
C3083 C3082 1.385 . S
C3084 C3082 1.478 . S
C3084 C3086 1.381 . S
C3084 C3090 1.383 . S
C3085 C3081 1.495 . S
C3085 H3091 0.959 1_556 S
C3085 H3092 0.961 . S
C3085 H3093 0.960 . S
C3086 C3084 1.381 . S
C3086 C3087 1.394 . S
C3086 H3094 0.930 . S
C3087 C3086 1.394 . S
C3087 C3088 1.383 . S
C3087 H3095 0.929 . S
C3088 C3087 1.383 . S
C3088 C3089 1.377 . S
C3089 H3073 0.930 . S
C3089 C3088 1.377 . S
C3089 C3090 1.379 . S
C3090 H3074 0.931 . S
C3090 C3084 1.383 . S
C3090 C3089 1.379 . S
H3091 C3085 0.959 1_554 S
H3092 C3085 0.961 . S
H3093 C3085 0.960 . S
H3094 C3086 0.930 . S
H3095 C3087 0.929 . S
C513 C9 1.291 . S
C532 C163 1.262 . S
C549 C23 1.289 . S
C568 C135 1.258 . S
C585 C149 1.285 . S
C604 C37 1.268 . S
C621 C51 1.286 . S
C640 C107 1.307 . S
C657 C121 1.290 . S
C676 C65 1.258 . S
C693 C79 1.289 . S
C712 C93 1.258 . S
C729 C331 1.281 . S
C748 C177 1.291 . S
C765 C191 1.289 . S
C784 C303 1.301 . S
C801 C205 1.283 . S
C820 C317 1.309 . S
C837 C275 1.283 . S
C856 C219 1.309 . S
C873 C233 1.282 . S
C892 C289 1.283 . S
C909 C261 1.291 . S
C928 C247 1.291 . S
C945 C345 1.281 . S
C964 C499 1.295 . S
C981 C471 1.283 . S
C1000 C359 1.309 . S
C1017 C485 1.285 . S
C1036 C373 1.309 . S
C1053 C443 1.287 . S
C1072 C387 1.306 . S
C1089 C457 1.282 . S
C1108 C401 1.286 . S
C1125 C429 1.291 . S
C1144 C415 1.285 . S
C1161 C8 1.298 . S
C1180 C64 1.300 . S
C1197 C78 1.299 . S
C1216 C22 1.295 . S
C1233 C36 1.299 . S
C1252 C50 1.290 . S
C1269 C92 1.299 . S
C1288 C148 1.289 . S
C1305 C106 1.301 . S
C1324 C162 1.296 . S
C1341 C120 1.302 . S
C1360 C134 1.304 . S
C1377 C232 1.299 . S
C1396 C176 1.290 . S
C1413 C246 1.303 . S
C1432 C190 1.291 . S
C1449 C204 1.302 . S
C1468 C218 1.303 . S
C1485 C316 1.302 . S
C1504 C260 1.307 . S
C1521 C330 1.299 . S
C1540 C274 1.289 . S
C1557 C288 1.300 . S
C1576 C302 1.300 . S
C1593 C400 1.299 . S
C1612 C344 1.291 . S
C1629 C358 1.303 . S
C1648 C414 1.291 . S
C1665 C372 1.302 . S
C1684 C386 1.303 . S
C1701 C484 1.300 . S
C1720 C428 1.302 . S
C1737 C442 1.299 . S
C1756 C498 1.288 . S
C1773 C470 1.299 . S
C1792 C456 1.295 . S
C1809 C413 0.885 . S
C1828 C7 0.894 1_556 S
C1845 C21 0.880 1_556 S
C1864 C385 0.859 . S
C1881 C35 0.893 1_556 S
C1900 C399 0.918 . S
C1917 C49 0.892 1_554 S
C1936 C189 0.918 . S
C1953 C203 0.881 . S
C1972 C63 0.855 1_554 S
C1989 C175 0.881 . S
C2008 C77 0.854 1_554 S
C2025 C91 0.880 1_554 S
C2044 C329 0.916 . S
C2061 C105 0.880 1_554 S
C2080 C301 0.918 . S
C2097 C119 0.880 1_554 S
C2116 C315 0.917 . S
C2133 C441 0.891 . S
C2152 C133 0.859 1_556 S
C2169 C455 0.880 . S
C2188 C147 0.916 1_556 S
C2205 C161 0.881 1_556 S
C2224 C427 0.914 . S
C2241 C357 0.883 . S
C2260 C217 0.885 . S
C2277 C231 0.891 . S
C2296 C371 0.917 . S
C2313 C343 0.894 . S
C2332 C245 0.904 . S
C2349 C497 0.894 . S
C2368 C259 0.856 . S
C2385 C273 0.888 . S
C2404 C469 0.896 . S
C2421 C287 0.891 . S
C2440 C483 0.858 . S
C2457 C3 1.743 . S
C2476 C409 1.735 . S
C2493 C381 1.743 . S
C2512 C17 1.735 . S
C2529 C31 1.742 . S
C2548 C395 1.740 . S
C2565 C185 1.742 . S
C2584 C45 1.743 . S
C2601 C59 1.743 . S
C2620 C199 1.743 . S
C2637 C73 1.743 . S
C2656 C171 1.735 . S
C2673 C325 1.743 . S
C2692 C87 1.741 . S
C2709 C101 1.743 . S
C2728 C297 1.743 . S
C2745 C115 1.744 . S
C2764 C311 1.734 . S
C2781 C129 1.743 . S
C2800 C437 1.743 . S
C2817 C451 1.742 . S
C2836 C143 1.742 . S
C2853 C157 1.743 . S
C2872 C423 1.737 . S
C2889 C353 1.743 . S
C2908 C213 1.735 . S
C2925 C227 1.742 . S
C2944 C367 1.738 . S
C2961 C241 1.742 . S
C2980 C339 1.740 . S
C2997 C493 1.744 . S
C3016 C255 1.736 . S
C3033 C465 1.743 . S
C3052 C269 1.743 . S
C3069 C283 1.743 . S
C3088 C479 1.741 . S
