# Generated by pormake.
# Topology wgz, (6)-cn, num edge types: 1
# Building blocks:
#     Node 0, Type 0, BuildingBlock: MIDCAF_clean_sbu_0, # of connection points: 6
#     Node 1, Type 0, BuildingBlock: MIDCAF_clean_sbu_0, # of connection points: 6
#     Node 2, Type 0, BuildingBlock: MIDCAF_clean_sbu_0, # of connection points: 6
#     Node 3, Type 0, BuildingBlock: MIDCAF_clean_sbu_0, # of connection points: 6
#     Node 4, Type 0, BuildingBlock: MIDCAF_clean_sbu_0, # of connection points: 6
#     Node 5, Type 0, BuildingBlock: MIDCAF_clean_sbu_0, # of connection points: 6
#     Node 6, Type 0, BuildingBlock: MIDCAF_clean_sbu_0, # of connection points: 6
#     Node 7, Type 0, BuildingBlock: MIDCAF_clean_sbu_0, # of connection points: 6
#     Node 8, Type 0, BuildingBlock: MIDCAF_clean_sbu_0, # of connection points: 6
#     Node 9, Type 0, BuildingBlock: MIDCAF_clean_sbu_0, # of connection points: 6
#     Node 10, Type 0, BuildingBlock: MIDCAF_clean_sbu_0, # of connection points: 6
#     Node 11, Type 0, BuildingBlock: MIDCAF_clean_sbu_0, # of connection points: 6
#     Node 12, Type 0, BuildingBlock: MIDCAF_clean_sbu_0, # of connection points: 6
#     Node 13, Type 0, BuildingBlock: MIDCAF_clean_sbu_0, # of connection points: 6
#     Node 14, Type 0, BuildingBlock: MIDCAF_clean_sbu_0, # of connection points: 6
#     Node 15, Type 0, BuildingBlock: MIDCAF_clean_sbu_0, # of connection points: 6
#     Edge 16, Type (0, 0), None
#     Edge 17, Type (0, 0), None
#     Edge 18, Type (0, 0), None
#     Edge 19, Type (0, 0), None
#     Edge 20, Type (0, 0), None
#     Edge 21, Type (0, 0), None
#     Edge 22, Type (0, 0), None
#     Edge 23, Type (0, 0), None
#     Edge 24, Type (0, 0), None
#     Edge 25, Type (0, 0), None
#     Edge 26, Type (0, 0), None
#     Edge 27, Type (0, 0), None
#     Edge 28, Type (0, 0), None
#     Edge 29, Type (0, 0), None
#     Edge 30, Type (0, 0), None
#     Edge 31, Type (0, 0), None
#     Edge 32, Type (0, 0), None
#     Edge 33, Type (0, 0), None
#     Edge 34, Type (0, 0), None
#     Edge 35, Type (0, 0), None
#     Edge 36, Type (0, 0), None
#     Edge 37, Type (0, 0), None
#     Edge 38, Type (0, 0), None
#     Edge 39, Type (0, 0), None
#     Edge 40, Type (0, 0), None
#     Edge 41, Type (0, 0), None
#     Edge 42, Type (0, 0), None
#     Edge 43, Type (0, 0), None
#     Edge 44, Type (0, 0), None
#     Edge 45, Type (0, 0), None
#     Edge 46, Type (0, 0), None
#     Edge 47, Type (0, 0), None
#     Edge 48, Type (0, 0), None
#     Edge 49, Type (0, 0), None
#     Edge 50, Type (0, 0), None
#     Edge 51, Type (0, 0), None
#     Edge 52, Type (0, 0), None
#     Edge 53, Type (0, 0), None
#     Edge 54, Type (0, 0), None
#     Edge 55, Type (0, 0), None
#     Edge 56, Type (0, 0), None
#     Edge 57, Type (0, 0), None
#     Edge 58, Type (0, 0), None
#     Edge 59, Type (0, 0), None
#     Edge 60, Type (0, 0), None
#     Edge 61, Type (0, 0), None
#     Edge 62, Type (0, 0), None
#     Edge 63, Type (0, 0), None
# Relax obj value: 0.450
# Max RMSD: 0.264
# Mean RMSD: 0.264
data_MOF--net-wgz--node1-MIDCAF_clean_sbu_0--edge1-none
_symmetry_space_group_name_H-M    P1
_symmetry_Int_Tables_number       1
_symmetry_cell_setting            triclinic
loop_
_symmetry_equiv_pos_as_xyz
'x, y, z'
_cell_length_a     16.725037
_cell_length_b     16.726819
_cell_length_c     25.21627
_cell_angle_alpha  90.01329
_cell_angle_beta   89.984853
_cell_angle_gamma 89.996638
loop_
_atom_site_label
_atom_site_type_symbol
_atom_site_fract_x
_atom_site_fract_y
_atom_site_fract_z
_atom_type_partial_charge
Zn0 Zn 0.25433 0.38379 0.14507 0.0
Zn1 Zn 0.02535 0.29456 0.00724 0.0
Zn2 Zn 0.17238 0.36698 0.07743 0.0
C3 C 0.0826 0.42345 -0.03003 0.0
C4 C 0.18896 0.23629 -0.01669 0.0
O5 O 0.11884 0.3131 0.14499 0.0
O6 O 0.17174 0.39995 0.2005 0.0
C7 C 0.25517 0.52102 0.0861 0.0
O8 O 0.11708 0.40087 0.0115 0.0
O9 O 0.03637 0.3756 0.94672 0.0
O10 O 0.11816 0.21318 -0.00576 0.0
O11 O 0.21895 0.29692 0.00788 0.0
O12 O 0.30679 0.47576 0.1069 0.0
O13 O 0.18443 0.49444 0.07991 0.0
O14 O 0.2882 0.31656 0.0563 0.0
O15 O 0.29682 0.27245 0.13727 0.0
C16 C 0.32297 0.27176 0.09047 0.0
O17 O 0.07137 0.4536 0.07378 0.0
O18 O -0.02222 0.35974 0.07421 0.0
C19 C 0.12208 0.34488 0.19118 0.0
C20 C -0.00275 0.43328 0.0804 0.0
Zn21 Zn 0.63437 0.02525 0.00737 0.0
Zn22 Zn 0.54501 0.25439 0.14509 0.0
Zn23 Zn 0.56175 0.17225 0.07746 0.0
C24 C 0.65697 0.32274 0.09042 0.0
C25 C 0.40782 0.25525 0.08616 0.0
O26 O 0.47509 0.07125 0.07379 0.0
O27 O 0.56895 -0.02235 0.07422 0.0
C28 C 0.69239 0.18884 -0.01668 0.0
O29 O 0.61206 0.28802 0.0563 0.0
O30 O 0.65646 0.29653 0.13721 0.0
O31 O 0.45312 0.30691 0.10689 0.0
O32 O 0.43431 0.18447 0.08002 0.0
O33 O 0.7156 0.1181 -0.00571 0.0
O34 O 0.63172 0.2188 0.00788 0.0
O35 O 0.52773 0.11696 0.01162 0.0
O36 O 0.55357 0.03637 0.94681 0.0
C37 C 0.50546 0.0823 -0.02992 0.0
O38 O 0.61556 0.11881 0.14501 0.0
O39 O 0.52871 0.17187 0.2005 0.0
C40 C 0.4954 -0.00288 0.08039 0.0
C41 C 0.58374 0.12213 0.19119 0.0
Zn42 Zn 0.67431 0.54474 0.14505 0.0
Zn43 Zn 0.90383 0.63449 0.00702 0.0
Zn44 Zn 0.75647 0.56147 0.07738 0.0
C45 C 0.84641 0.50565 -0.03011 0.0
C46 C 0.7399 0.69226 -0.01675 0.0
O47 O 0.80983 0.61526 0.14501 0.0
O48 O 0.75679 0.52846 0.2005 0.0
C49 C 0.67339 0.40758 0.08616 0.0
O50 O 0.81188 0.52806 0.01145 0.0
O51 O 0.89246 0.55361 0.94655 0.0
O52 O 0.8107 0.71546 -0.00587 0.0
O53 O 0.71 0.63158 0.00781 0.0
O54 O 0.62171 0.45285 0.10691 0.0
O55 O 0.74415 0.43409 0.08 0.0
O56 O 0.64066 0.61182 0.05625 0.0
O57 O 0.63205 0.65613 0.13719 0.0
C58 C 0.60588 0.65668 0.0904 0.0
O59 O 0.85787 0.47533 0.07375 0.0
O60 O 0.95145 0.56925 0.07392 0.0
C61 C 0.8065 0.58349 0.19119 0.0
C62 C 0.93198 0.49575 0.08028 0.0
Zn63 Zn 0.38375 0.6742 0.14501 0.0
Zn64 Zn 0.29449 0.9035 0.00694 0.0
Zn65 Zn 0.36713 0.75633 0.07733 0.0
C66 C 0.42355 0.84603 -0.03019 0.0
C67 C 0.23639 0.7398 -0.01684 0.0
O68 O 0.31344 0.80985 0.14499 0.0
O69 O 0.40009 0.75662 0.2005 0.0
C70 C 0.52102 0.67314 0.08611 0.0
O71 O 0.40097 0.81158 0.01136 0.0
O72 O 0.37566 0.89217 0.94654 0.0
O73 O 0.21326 0.81062 -0.00599 0.0
O74 O 0.29698 0.70983 0.00779 0.0
O75 O 0.47571 0.62154 0.1069 0.0
O76 O 0.49452 0.74388 0.07988 0.0
O77 O 0.31645 0.64059 0.0562 0.0
O78 O 0.27229 0.63199 0.1372 0.0
C79 C 0.27161 0.60589 0.09038 0.0
O80 O 0.45329 0.85775 0.07371 0.0
O81 O 0.3594 0.95134 0.07389 0.0
C82 C 0.34516 0.80645 0.1912 0.0
C83 C 0.43289 0.93187 0.08025 0.0
Zn84 Zn 0.02446 0.63493 0.91966 0.0
Zn85 Zn 0.25449 0.54455 0.78179 0.0
Zn86 Zn 0.17235 0.56117 0.84945 0.0
C87 C 0.32278 0.65638 0.83651 0.0
C88 C 0.2554 0.40742 0.84075 0.0
O89 O 0.07121 0.47502 0.85316 0.0
O90 O -0.02244 0.56891 0.8528 0.0
C91 C 0.18874 0.69215 0.94358 0.0
O92 O 0.28809 0.61142 0.87061 0.0
O93 O 0.29654 0.65598 0.78973 0.0
O94 O 0.30708 0.45274 0.82006 0.0
O95 O 0.1846 0.43389 0.84674 0.0
O96 O 0.11803 0.71551 0.93258 0.0
O97 O 0.21858 0.63131 0.91912 0.0
O98 O 0.11661 0.52942 0.91556 0.0
O99 O 0.0358 0.55426 -0.01966 0.0
C100 C 0.08239 0.50665 0.95713 0.0
O101 O 0.11914 0.61523 0.78188 0.0
O102 O 0.17195 0.52826 0.72638 0.0
C103 C -0.0029 0.49539 0.8466 0.0
C104 C 0.12236 0.58342 0.73569 0.0
Zn105 Zn 0.38395 0.25442 0.78181 0.0
Zn106 Zn 0.29394 0.02463 0.91958 0.0
Zn107 Zn 0.36728 0.17228 0.84947 0.0
C108 C 0.42244 0.08211 0.95698 0.0
C109 C 0.23653 0.18868 0.94366 0.0
O110 O 0.31339 0.11896 0.78188 0.0
O111 O 0.40028 0.17187 0.72638 0.0
C112 C 0.52115 0.25541 0.84078 0.0
O113 O 0.40014 0.11667 0.91542 0.0
O114 O 0.37453 0.03579 -0.01987 0.0
O115 O 0.2132 0.11797 0.93265 0.0
O116 O 0.29725 0.21858 0.91912 0.0
O117 O 0.47581 0.30703 0.82007 0.0
O118 O 0.49469 0.18462 0.84683 0.0
O119 O 0.31688 0.28801 0.87065 0.0
O120 O 0.27243 0.2964 0.78972 0.0
C121 C 0.27191 0.3226 0.83651 0.0
O122 O 0.45369 0.07127 0.85316 0.0
O123 O 0.35986 -0.02242 0.85276 0.0
C124 C 0.34519 0.12221 0.73569 0.0
C125 C 0.43339 -0.00285 0.84657 0.0
Zn126 Zn 0.90422 0.29395 0.91998 0.0
Zn127 Zn 0.67434 0.38401 0.78188 0.0
Zn128 Zn 0.75641 0.36734 0.84956 0.0
C129 C 0.606 0.27195 0.83651 0.0
C130 C 0.67329 0.52121 0.84083 0.0
O131 O 0.8578 0.45331 0.85318 0.0
O132 O 0.95145 0.35942 0.85304 0.0
C133 C 0.74005 0.23645 0.94373 0.0
O134 O 0.64066 0.31682 0.8707 0.0
O135 O 0.63215 0.27258 0.78971 0.0
O136 O 0.62167 0.4759 0.82006 0.0
O137 O 0.74404 0.49469 0.84695 0.0
O138 O 0.81084 0.2132 0.93284 0.0
O139 O 0.71015 0.29714 0.91917 0.0
O140 O 0.81221 0.3998 0.91554 0.0
O141 O 0.89289 0.37487 -0.01957 0.0
C142 C 0.84664 0.42256 0.95704 0.0
O143 O 0.80975 0.31346 0.7819 0.0
O144 O 0.75683 0.4003 0.72641 0.0
C145 C 0.93191 0.4329 0.84666 0.0
C146 C 0.80649 0.34521 0.73571 0.0
Zn147 Zn 0.63513 0.90456 0.9201 0.0
Zn148 Zn 0.54478 0.67404 0.78186 0.0
Zn149 Zn 0.56106 0.75631 0.84955 0.0
C150 C 0.65681 0.60605 0.8366 0.0
C151 C 0.40758 0.6729 0.84077 0.0
O152 O 0.47545 0.85791 0.85317 0.0
O153 O 0.56939 0.95153 0.85313 0.0
C154 C 0.69221 0.74 0.94374 0.0
O155 O 0.61176 0.64066 0.87073 0.0
O156 O 0.65635 0.63223 0.78981 0.0
O157 O 0.45297 0.62127 0.82008 0.0
O158 O 0.43391 0.74371 0.84678 0.0
O159 O 0.71553 0.81076 0.93288 0.0
O160 O 0.6314 0.71019 0.91923 0.0
O161 O 0.5302 0.81253 0.91565 0.0
O162 O 0.55415 0.89313 -0.01935 0.0
C163 C 0.50682 0.84663 0.95714 0.0
O164 O 0.61503 0.8095 0.78188 0.0
O165 O 0.5283 0.75643 0.72637 0.0
C166 C 0.4959 0.93199 0.8467 0.0
C167 C 0.58331 0.80616 0.73568 0.0
Zn168 Zn 0.52544 0.79452 0.50733 0.0
Zn169 Zn 0.75429 0.88384 0.64509 0.0
Zn170 Zn 0.67234 0.86688 0.57742 0.0
C171 C 0.82293 0.77183 0.59049 0.0
C172 C 0.75517 0.02103 0.58612 0.0
O173 O 0.57141 0.9536 0.57377 0.0
O174 O 0.4778 0.85977 0.5742 0.0
C175 C 0.68895 0.73631 0.4833 0.0
O176 O 0.78818 0.81661 0.55631 0.0
O177 O 0.79673 0.7725 0.63728 0.0
O178 O 0.80679 -0.02421 0.60694 0.0
O179 O 0.68444 -0.00559 0.57989 0.0
O180 O 0.61816 0.71317 0.49426 0.0
O181 O 0.71894 0.79691 0.50789 0.0
O182 O 0.61721 0.90133 0.51158 0.0
O183 O 0.53653 0.87539 0.44684 0.0
C184 C 0.58255 0.92351 0.47002 0.0
O185 O 0.61881 0.81308 0.64499 0.0
O186 O 0.67168 0.89998 0.7005 0.0
C187 C 0.49727 0.9333 0.58038 0.0
C188 C 0.62204 0.84488 0.69118 0.0
Zn189 Zn 0.13455 0.52504 0.50733 0.0
Zn190 Zn 0.04495 0.75439 0.64512 0.0
Zn191 Zn 0.06163 0.67225 0.57746 0.0
C192 C 0.15689 0.8227 0.59042 0.0
C193 C 0.90777 0.75532 0.58621 0.0
O194 O -0.02489 0.57119 0.57378 0.0
O195 O 0.06898 0.47759 0.57418 0.0
C196 C 0.19234 0.68881 0.48331 0.0
O197 O 0.11194 0.788 0.5563 0.0
O198 O 0.15641 0.79646 0.6372 0.0
O199 O 0.95307 0.80698 0.60693 0.0
O200 O 0.93424 0.68454 0.58008 0.0
O201 O 0.21558 0.61808 0.49427 0.0
O202 O 0.13163 0.71874 0.50786 0.0
O203 O 0.02809 0.61686 0.51158 0.0
O204 O 0.05382 0.53623 0.44678 0.0
C205 C 0.00578 0.58227 0.47003 0.0
O206 O 0.11549 0.61885 0.64501 0.0
O207 O 0.02864 0.67187 0.70052 0.0
C208 C -0.00457 0.49707 0.58036 0.0
C209 C 0.08368 0.62216 0.6912 0.0
Zn210 Zn 0.17432 0.04469 0.64507 0.0
Zn211 Zn 0.40395 0.13455 0.50697 0.0
Zn212 Zn 0.25645 0.06136 0.57738 0.0
C213 C 0.34643 0.00579 0.46987 0.0
C214 C 0.23992 0.19222 0.48324 0.0
O215 O 0.3098 0.11521 0.645 0.0
O216 O 0.2568 0.02842 0.70052 0.0
C217 C 0.17333 0.90753 0.58618 0.0
O218 O 0.31198 0.02838 0.51142 0.0
O219 O 0.39254 0.05364 0.44649 0.0
O220 O 0.31071 0.21544 0.49412 0.0
O221 O 0.21003 0.13151 0.50779 0.0
O222 O 0.12167 0.95281 0.60694 0.0
O223 O 0.24409 0.93402 0.58002 0.0
O224 O 0.14067 0.11175 0.55625 0.0
O225 O 0.1321 0.1561 0.63719 0.0
C226 C 0.10591 0.15663 0.5904 0.0
O227 O 0.35791 -0.02467 0.57375 0.0
O228 O 0.45147 0.06927 0.5739 0.0
C229 C 0.3065 0.08346 0.69119 0.0
C230 C 0.43201 -0.00423 0.58027 0.0
Zn231 Zn 0.88379 0.1742 0.64503 0.0
Zn232 Zn 0.7944 0.40363 0.50694 0.0
Zn233 Zn 0.86719 0.25632 0.57733 0.0
C234 C 0.92337 0.34609 0.46981 0.0
C235 C 0.73644 0.23981 0.48316 0.0
O236 O 0.81347 0.30982 0.64499 0.0
O237 O 0.90014 0.25665 0.70051 0.0
C238 C 0.02106 0.17311 0.58613 0.0
O239 O 0.90079 0.31165 0.51135 0.0
O240 O 0.87551 0.3923 0.44654 0.0
O241 O 0.71329 0.31063 0.49401 0.0
O242 O 0.79705 0.20986 0.50777 0.0
O243 O -0.02426 0.12152 0.60692 0.0
O244 O -0.00542 0.24386 0.57991 0.0
O245 O 0.81651 0.14058 0.55621 0.0
O246 O 0.77231 0.13203 0.6372 0.0
C247 C 0.77162 0.10591 0.59038 0.0
O248 O 0.95333 0.35772 0.5737 0.0
O249 O 0.85944 0.45132 0.57388 0.0
C250 C 0.84519 0.30645 0.69119 0.0
C251 C 0.93294 0.43183 0.58024 0.0
Zn252 Zn 0.52452 0.1349 0.41966 0.0
Zn253 Zn 0.75449 0.04454 0.2818 0.0
Zn254 Zn 0.67234 0.06122 0.34945 0.0
C255 C 0.82278 0.1564 0.33651 0.0
C256 C 0.7554 0.90743 0.34075 0.0
O257 O 0.5712 -0.02499 0.35314 0.0
O258 O 0.47756 0.06891 0.3528 0.0
C259 C 0.68878 0.19214 0.4436 0.0
O260 O 0.7881 0.11145 0.37063 0.0
O261 O 0.79654 0.15597 0.28973 0.0
O262 O 0.80708 0.95273 0.32006 0.0
O263 O 0.6846 0.93391 0.34676 0.0
O264 O 0.61806 0.21549 0.43262 0.0
O265 O 0.71863 0.13133 0.41912 0.0
O266 O 0.61651 0.02922 0.41545 0.0
O267 O 0.53579 0.05432 0.48029 0.0
C268 C 0.58212 0.00657 0.45699 0.0
O269 O 0.61914 0.11522 0.28187 0.0
O270 O 0.67195 0.02822 0.22639 0.0
C271 C 0.49709 -0.00462 0.34658 0.0
C272 C 0.62237 0.08338 0.2357 0.0
Zn273 Zn 0.79412 0.52478 0.41963 0.0
Zn274 Zn 0.88395 0.75439 0.28182 0.0
Zn275 Zn 0.86726 0.67228 0.34948 0.0
C276 C 0.77189 0.8226 0.3365 0.0
C277 C 0.02115 0.7554 0.34078 0.0
O278 O 0.95368 0.57125 0.35316 0.0
O279 O 0.85984 0.4776 0.35278 0.0
C280 C 0.73652 0.6887 0.44366 0.0
O281 O 0.81683 0.788 0.37065 0.0
O282 O 0.77244 0.79641 0.28971 0.0
O283 O -0.0242 0.80702 0.32005 0.0
O284 O -0.00533 0.68463 0.34688 0.0
O285 O 0.71324 0.61797 0.43269 0.0
O286 O 0.79721 0.71863 0.41911 0.0
O287 O 0.90036 0.61672 0.4154 0.0
O288 O 0.87483 0.53594 0.48015 0.0
C289 C 0.92274 0.58216 0.45694 0.0
O290 O 0.8134 0.61892 0.28189 0.0
O291 O 0.90029 0.67186 0.2264 0.0
C292 C 0.93337 0.49714 0.34658 0.0
C293 C 0.84522 0.62219 0.23571 0.0
Zn294 Zn 0.40417 0.79401 0.42 0.0
Zn295 Zn 0.17435 0.88401 0.28188 0.0
Zn296 Zn 0.25641 0.86733 0.34958 0.0
C297 C 0.106 0.77194 0.33652 0.0
C298 C 0.17328 0.02121 0.34082 0.0
O299 O 0.35778 0.95332 0.3532 0.0
O300 O 0.45143 0.85943 0.35307 0.0
C301 C 0.24001 0.73645 0.44374 0.0
O302 O 0.14065 0.81681 0.3707 0.0
O303 O 0.13215 0.77258 0.28971 0.0
O304 O 0.12167 -0.0241 0.32005 0.0
O305 O 0.24403 -0.00531 0.34696 0.0
O306 O 0.31082 0.71323 0.43287 0.0
O307 O 0.2101 0.79713 0.41918 0.0
O308 O 0.31214 0.89993 0.41556 0.0
O309 O 0.39285 0.87497 0.48044 0.0
C310 C 0.34655 0.92266 0.45708 0.0
O311 O 0.30976 0.81347 0.28191 0.0
O312 O 0.25684 0.90032 0.22642 0.0
C313 C 0.43189 0.9329 0.34668 0.0
C314 C 0.3065 0.84523 0.23572 0.0
Zn315 Zn 0.135 0.40442 0.42009 0.0
Zn316 Zn 0.04478 0.17407 0.28186 0.0
Zn317 Zn 0.0611 0.25631 0.34955 0.0
C318 C 0.15681 0.10605 0.33659 0.0
C319 C 0.90758 0.17292 0.34076 0.0
O320 O -0.02458 0.35787 0.35318 0.0
O321 O 0.06936 0.45148 0.35312 0.0
C322 C 0.19221 0.23996 0.44375 0.0
O323 O 0.11178 0.14066 0.37072 0.0
O324 O 0.15635 0.13223 0.2898 0.0
O325 O 0.95297 0.12129 0.32007 0.0
O326 O 0.93393 0.24373 0.3468 0.0
O327 O 0.2155 0.31073 0.43289 0.0
O328 O 0.13142 0.21014 0.41922 0.0
O329 O 0.02987 0.31241 0.41563 0.0
O330 O 0.05402 0.39298 0.48062 0.0
C331 C 0.00661 0.34657 0.45712 0.0
O332 O 0.11505 0.30952 0.28189 0.0
O333 O 0.0283 0.25646 0.22638 0.0
C334 C -0.00413 0.43195 0.3467 0.0
C335 C 0.08332 0.30618 0.23569 0.0
loop_
_geom_bond_atom_site_label_1
_geom_bond_atom_site_label_2
_geom_bond_distance
_geom_bond_site_symmetry_2
_ccdc_geom_bond_type
Zn0 O6 1.920 . S
Zn0 O12 1.898 . S
Zn0 O15 1.905 . S
Zn1 O9 1.905 . S
Zn1 O10 1.898 . S
Zn1 O18 1.920 1_456 S
Zn2 O5 2.080 . S
Zn2 O8 2.114 . S
Zn2 O11 2.120 . S
Zn2 O13 2.120 . S
Zn2 O14 2.114 . S
Zn2 O17 2.080 . S
C3 O8 1.166 1_556 S
C3 O9 1.182 . S
C4 O10 1.167 1_554 S
C4 O11 1.299 . S
O5 Zn2 2.080 . S
O5 C19 1.305 . S
O6 Zn0 1.920 . S
O6 C19 1.234 . S
C7 O12 1.167 . S
C7 O13 1.299 . S
O8 Zn2 2.114 . S
O8 C3 1.166 1_554 S
O9 Zn1 1.905 . S
O9 C3 1.182 . S
O10 Zn1 1.898 . S
O10 C4 1.167 1_556 S
O11 Zn2 2.120 . S
O11 C4 1.299 . S
O12 Zn0 1.898 . S
O12 C7 1.167 . S
O13 Zn2 2.120 . S
O13 C7 1.299 . S
O14 Zn2 2.114 . S
O14 C16 1.166 . S
O15 Zn0 1.905 . S
O15 C16 1.182 . S
C16 O14 1.166 . S
C16 O15 1.182 . S
O17 Zn2 2.080 . S
O17 C20 1.305 . S
O18 Zn1 1.920 1_654 S
O18 C20 1.234 1_655 S
C19 O5 1.305 . S
C19 O6 1.234 . S
C20 O17 1.305 . S
C20 O18 1.234 1_455 S
Zn21 O27 1.920 1_546 S
Zn21 O33 1.898 . S
Zn21 O36 1.905 . S
Zn22 O30 1.905 . S
Zn22 O31 1.898 . S
Zn22 O39 1.920 . S
Zn23 O26 2.080 . S
Zn23 O29 2.114 . S
Zn23 O32 2.120 . S
Zn23 O34 2.120 . S
Zn23 O35 2.114 . S
Zn23 O38 2.080 . S
C24 O29 1.166 . S
C24 O30 1.182 . S
C25 O31 1.167 . S
C25 O32 1.299 . S
O26 Zn23 2.080 . S
O26 C40 1.305 . S
O27 Zn21 1.920 1_564 S
O27 C40 1.234 1_565 S
C28 O33 1.167 1_554 S
C28 O34 1.299 . S
O29 Zn23 2.114 . S
O29 C24 1.166 . S
O30 Zn22 1.905 . S
O30 C24 1.182 . S
O31 Zn22 1.898 . S
O31 C25 1.167 . S
O32 Zn23 2.120 . S
O32 C25 1.299 . S
O33 Zn21 1.898 . S
O33 C28 1.167 1_556 S
O34 Zn23 2.120 . S
O34 C28 1.299 . S
O35 Zn23 2.114 . S
O35 C37 1.166 1_554 S
O36 Zn21 1.905 . S
O36 C37 1.182 . S
C37 O35 1.166 1_556 S
C37 O36 1.182 . S
O38 Zn23 2.080 . S
O38 C41 1.305 . S
O39 Zn22 1.920 . S
O39 C41 1.234 . S
C40 O26 1.305 . S
C40 O27 1.234 1_545 S
C41 O38 1.305 . S
C41 O39 1.234 . S
Zn42 O48 1.920 . S
Zn42 O54 1.898 . S
Zn42 O57 1.905 . S
Zn43 O51 1.905 . S
Zn43 O52 1.898 . S
Zn43 O60 1.920 1_656 S
Zn44 O47 2.080 . S
Zn44 O50 2.114 . S
Zn44 O53 2.120 . S
Zn44 O55 2.120 . S
Zn44 O56 2.114 . S
Zn44 O59 2.080 . S
C45 O50 1.166 1_556 S
C45 O51 1.182 . S
C46 O52 1.167 1_554 S
C46 O53 1.299 . S
O47 Zn44 2.080 . S
O47 C61 1.305 . S
O48 Zn42 1.920 . S
O48 C61 1.234 . S
C49 O54 1.167 . S
C49 O55 1.299 . S
O50 Zn44 2.114 . S
O50 C45 1.166 1_554 S
O51 Zn43 1.905 . S
O51 C45 1.182 . S
O52 Zn43 1.898 . S
O52 C46 1.167 1_556 S
O53 Zn44 2.120 . S
O53 C46 1.299 . S
O54 Zn42 1.898 . S
O54 C49 1.167 . S
O55 Zn44 2.120 . S
O55 C49 1.299 . S
O56 Zn44 2.114 . S
O56 C58 1.166 . S
O57 Zn42 1.905 . S
O57 C58 1.182 . S
C58 O56 1.166 . S
C58 O57 1.182 . S
O59 Zn44 2.080 . S
O59 C62 1.305 . S
O60 Zn43 1.920 1_454 S
O60 C62 1.234 1_455 S
C61 O47 1.305 . S
C61 O48 1.234 . S
C62 O59 1.305 . S
C62 O60 1.234 1_655 S
Zn63 O69 1.920 . S
Zn63 O75 1.898 . S
Zn63 O78 1.905 . S
Zn64 O72 1.905 . S
Zn64 O73 1.898 . S
Zn64 O81 1.920 1_566 S
Zn65 O68 2.080 . S
Zn65 O71 2.114 . S
Zn65 O74 2.120 . S
Zn65 O76 2.120 . S
Zn65 O77 2.114 . S
Zn65 O80 2.080 . S
C66 O71 1.166 1_556 S
C66 O72 1.182 . S
C67 O73 1.167 1_554 S
C67 O74 1.299 . S
O68 Zn65 2.080 . S
O68 C82 1.305 . S
O69 Zn63 1.920 . S
O69 C82 1.234 . S
C70 O75 1.167 . S
C70 O76 1.299 . S
O71 Zn65 2.114 . S
O71 C66 1.166 1_554 S
O72 Zn64 1.905 . S
O72 C66 1.182 . S
O73 Zn64 1.898 . S
O73 C67 1.167 1_556 S
O74 Zn65 2.120 . S
O74 C67 1.299 . S
O75 Zn63 1.898 . S
O75 C70 1.167 . S
O76 Zn65 2.120 . S
O76 C70 1.299 . S
O77 Zn65 2.114 . S
O77 C79 1.166 . S
O78 Zn63 1.905 . S
O78 C79 1.182 . S
C79 O77 1.166 . S
C79 O78 1.182 . S
O80 Zn65 2.080 . S
O80 C83 1.305 . S
O81 Zn64 1.920 1_544 S
O81 C83 1.234 1_545 S
C82 O68 1.305 . S
C82 O69 1.234 . S
C83 O80 1.305 . S
C83 O81 1.234 1_565 S
Zn84 O90 1.920 1_454 S
Zn84 O96 1.898 . S
Zn84 O99 1.905 . S
Zn85 O93 1.905 . S
Zn85 O94 1.898 . S
Zn85 O102 1.920 . S
Zn86 O89 2.080 . S
Zn86 O92 2.114 . S
Zn86 O95 2.120 . S
Zn86 O97 2.120 . S
Zn86 O98 2.114 . S
Zn86 O101 2.080 . S
C87 O92 1.166 . S
C87 O93 1.182 . S
C88 O94 1.167 . S
C88 O95 1.299 . S
O89 Zn86 2.080 . S
O89 C103 1.305 . S
O90 Zn84 1.920 1_656 S
O90 C103 1.234 1_655 S
C91 O96 1.167 1_556 S
C91 O97 1.299 . S
O92 Zn86 2.114 . S
O92 C87 1.166 . S
O93 Zn85 1.905 . S
O93 C87 1.182 . S
O94 Zn85 1.898 . S
O94 C88 1.167 . S
O95 Zn86 2.120 . S
O95 C88 1.299 . S
O96 Zn84 1.898 . S
O96 C91 1.167 1_554 S
O97 Zn86 2.120 . S
O97 C91 1.299 . S
O98 Zn86 2.114 . S
O98 C100 1.166 1_556 S
O99 Zn84 1.905 . S
O99 C100 1.182 . S
C100 O98 1.166 1_554 S
C100 O99 1.182 . S
O101 Zn86 2.080 . S
O101 C104 1.305 . S
O102 Zn85 1.920 . S
O102 C104 1.234 . S
C103 O89 1.305 . S
C103 O90 1.234 1_455 S
C104 O101 1.305 . S
C104 O102 1.234 . S
Zn105 O111 1.920 . S
Zn105 O117 1.898 . S
Zn105 O120 1.905 . S
Zn106 O114 1.905 . S
Zn106 O115 1.898 . S
Zn106 O123 1.920 1_544 S
Zn107 O110 2.080 . S
Zn107 O113 2.114 . S
Zn107 O116 2.120 . S
Zn107 O118 2.120 . S
Zn107 O119 2.114 . S
Zn107 O122 2.080 . S
C108 O113 1.166 1_554 S
C108 O114 1.182 . S
C109 O115 1.167 1_556 S
C109 O116 1.299 . S
O110 Zn107 2.080 . S
O110 C124 1.305 . S
O111 Zn105 1.920 . S
O111 C124 1.234 . S
C112 O117 1.167 . S
C112 O118 1.299 . S
O113 Zn107 2.114 . S
O113 C108 1.166 1_556 S
O114 Zn106 1.905 . S
O114 C108 1.182 . S
O115 Zn106 1.898 . S
O115 C109 1.167 1_554 S
O116 Zn107 2.120 . S
O116 C109 1.299 . S
O117 Zn105 1.898 . S
O117 C112 1.167 . S
O118 Zn107 2.120 . S
O118 C112 1.299 . S
O119 Zn107 2.114 . S
O119 C121 1.166 . S
O120 Zn105 1.905 . S
O120 C121 1.182 . S
C121 O119 1.166 . S
C121 O120 1.182 . S
O122 Zn107 2.080 . S
O122 C125 1.305 . S
O123 Zn106 1.920 1_566 S
O123 C125 1.234 1_565 S
C124 O110 1.305 . S
C124 O111 1.234 . S
C125 O122 1.305 . S
C125 O123 1.234 1_545 S
Zn126 O132 1.920 1_654 S
Zn126 O138 1.898 . S
Zn126 O141 1.905 . S
Zn127 O135 1.905 . S
Zn127 O136 1.898 . S
Zn127 O144 1.920 . S
Zn128 O131 2.080 . S
Zn128 O134 2.114 . S
Zn128 O137 2.120 . S
Zn128 O139 2.120 . S
Zn128 O140 2.114 . S
Zn128 O143 2.080 . S
C129 O134 1.166 . S
C129 O135 1.182 . S
C130 O136 1.167 . S
C130 O137 1.299 . S
O131 Zn128 2.080 . S
O131 C145 1.305 . S
O132 Zn126 1.920 1_456 S
O132 C145 1.234 1_455 S
C133 O138 1.167 1_556 S
C133 O139 1.299 . S
O134 Zn128 2.114 . S
O134 C129 1.166 . S
O135 Zn127 1.905 . S
O135 C129 1.182 . S
O136 Zn127 1.898 . S
O136 C130 1.167 . S
O137 Zn128 2.120 . S
O137 C130 1.299 . S
O138 Zn126 1.898 . S
O138 C133 1.167 1_554 S
O139 Zn128 2.120 . S
O139 C133 1.299 . S
O140 Zn128 2.114 . S
O140 C142 1.166 1_556 S
O141 Zn126 1.905 . S
O141 C142 1.182 . S
C142 O140 1.166 1_554 S
C142 O141 1.182 . S
O143 Zn128 2.080 . S
O143 C146 1.305 . S
O144 Zn127 1.920 . S
O144 C146 1.234 . S
C145 O131 1.305 . S
C145 O132 1.234 1_655 S
C146 O143 1.305 . S
C146 O144 1.234 . S
Zn147 O153 1.920 1_564 S
Zn147 O159 1.898 . S
Zn147 O162 1.905 . S
Zn148 O156 1.905 . S
Zn148 O157 1.898 . S
Zn148 O165 1.920 . S
Zn149 O152 2.080 . S
Zn149 O155 2.114 . S
Zn149 O158 2.120 . S
Zn149 O160 2.120 . S
Zn149 O161 2.114 . S
Zn149 O164 2.080 . S
C150 O155 1.166 . S
C150 O156 1.182 . S
C151 O157 1.167 . S
C151 O158 1.299 . S
O152 Zn149 2.080 . S
O152 C166 1.305 . S
O153 Zn147 1.920 1_546 S
O153 C166 1.234 1_545 S
C154 O159 1.167 1_556 S
C154 O160 1.299 . S
O155 Zn149 2.114 . S
O155 C150 1.166 . S
O156 Zn148 1.905 . S
O156 C150 1.182 . S
O157 Zn148 1.898 . S
O157 C151 1.167 . S
O158 Zn149 2.120 . S
O158 C151 1.299 . S
O159 Zn147 1.898 . S
O159 C154 1.167 1_554 S
O160 Zn149 2.120 . S
O160 C154 1.299 . S
O161 Zn149 2.114 . S
O161 C163 1.166 1_556 S
O162 Zn147 1.905 . S
O162 C163 1.182 . S
C163 O161 1.166 1_554 S
C163 O162 1.182 . S
O164 Zn149 2.080 . S
O164 C167 1.305 . S
O165 Zn148 1.920 . S
O165 C167 1.234 . S
C166 O152 1.305 . S
C166 O153 1.234 1_565 S
C167 O164 1.305 . S
C167 O165 1.234 . S
Zn168 O174 1.920 . S
Zn168 O180 1.898 . S
Zn168 O183 1.905 . S
Zn169 O177 1.905 . S
Zn169 O178 1.898 1_565 S
Zn169 O186 1.920 . S
Zn170 O173 2.080 . S
Zn170 O176 2.114 . S
Zn170 O179 2.120 1_565 S
Zn170 O181 2.120 . S
Zn170 O182 2.114 . S
Zn170 O185 2.080 . S
C171 O176 1.166 . S
C171 O177 1.182 . S
C172 O178 1.167 . S
C172 O179 1.299 . S
O173 Zn170 2.080 . S
O173 C187 1.305 . S
O174 Zn168 1.920 . S
O174 C187 1.234 . S
C175 O180 1.167 . S
C175 O181 1.299 . S
O176 Zn170 2.114 . S
O176 C171 1.166 . S
O177 Zn169 1.905 . S
O177 C171 1.182 . S
O178 Zn169 1.898 1_545 S
O178 C172 1.167 . S
O179 Zn170 2.120 1_545 S
O179 C172 1.299 . S
O180 Zn168 1.898 . S
O180 C175 1.167 . S
O181 Zn170 2.120 . S
O181 C175 1.299 . S
O182 Zn170 2.114 . S
O182 C184 1.166 . S
O183 Zn168 1.905 . S
O183 C184 1.182 . S
C184 O182 1.166 . S
C184 O183 1.182 . S
O185 Zn170 2.080 . S
O185 C188 1.305 . S
O186 Zn169 1.920 . S
O186 C188 1.234 . S
C187 O173 1.305 . S
C187 O174 1.234 . S
C188 O185 1.305 . S
C188 O186 1.234 . S
Zn189 O195 1.920 . S
Zn189 O201 1.898 . S
Zn189 O204 1.905 . S
Zn190 O198 1.905 . S
Zn190 O199 1.898 1_455 S
Zn190 O207 1.920 . S
Zn191 O194 2.080 . S
Zn191 O197 2.114 . S
Zn191 O200 2.120 1_455 S
Zn191 O202 2.120 . S
Zn191 O203 2.114 . S
Zn191 O206 2.080 . S
C192 O197 1.166 . S
C192 O198 1.182 . S
C193 O199 1.167 . S
C193 O200 1.299 . S
O194 Zn191 2.080 . S
O194 C208 1.305 . S
O195 Zn189 1.920 . S
O195 C208 1.234 . S
C196 O201 1.167 . S
C196 O202 1.299 . S
O197 Zn191 2.114 . S
O197 C192 1.166 . S
O198 Zn190 1.905 . S
O198 C192 1.182 . S
O199 Zn190 1.898 1_655 S
O199 C193 1.167 . S
O200 Zn191 2.120 1_655 S
O200 C193 1.299 . S
O201 Zn189 1.898 . S
O201 C196 1.167 . S
O202 Zn191 2.120 . S
O202 C196 1.299 . S
O203 Zn191 2.114 . S
O203 C205 1.166 . S
O204 Zn189 1.905 . S
O204 C205 1.182 . S
C205 O203 1.166 . S
C205 O204 1.182 . S
O206 Zn191 2.080 . S
O206 C209 1.305 . S
O207 Zn190 1.920 . S
O207 C209 1.234 . S
C208 O194 1.305 . S
C208 O195 1.234 . S
C209 O206 1.305 . S
C209 O207 1.234 . S
Zn210 O216 1.920 . S
Zn210 O222 1.898 1_545 S
Zn210 O225 1.905 . S
Zn211 O219 1.905 . S
Zn211 O220 1.898 . S
Zn211 O228 1.920 . S
Zn212 O215 2.080 . S
Zn212 O218 2.114 . S
Zn212 O221 2.120 . S
Zn212 O223 2.120 1_545 S
Zn212 O224 2.114 . S
Zn212 O227 2.080 . S
C213 O218 1.166 . S
C213 O219 1.182 . S
C214 O220 1.167 . S
C214 O221 1.299 . S
O215 Zn212 2.080 . S
O215 C229 1.305 . S
O216 Zn210 1.920 . S
O216 C229 1.234 . S
C217 O222 1.167 . S
C217 O223 1.299 . S
O218 Zn212 2.114 . S
O218 C213 1.166 . S
O219 Zn211 1.905 . S
O219 C213 1.182 . S
O220 Zn211 1.898 . S
O220 C214 1.167 . S
O221 Zn212 2.120 . S
O221 C214 1.299 . S
O222 Zn210 1.898 1_565 S
O222 C217 1.167 . S
O223 Zn212 2.120 1_565 S
O223 C217 1.299 . S
O224 Zn212 2.114 . S
O224 C226 1.166 . S
O225 Zn210 1.905 . S
O225 C226 1.182 . S
C226 O224 1.166 . S
C226 O225 1.182 . S
O227 Zn212 2.080 . S
O227 C230 1.305 . S
O228 Zn211 1.920 . S
O228 C230 1.234 . S
C229 O215 1.305 . S
C229 O216 1.234 . S
C230 O227 1.305 . S
C230 O228 1.234 . S
Zn231 O237 1.920 . S
Zn231 O243 1.898 1_655 S
Zn231 O246 1.905 . S
Zn232 O240 1.905 . S
Zn232 O241 1.898 . S
Zn232 O249 1.920 . S
Zn233 O236 2.080 . S
Zn233 O239 2.114 . S
Zn233 O242 2.120 . S
Zn233 O244 2.120 1_655 S
Zn233 O245 2.114 . S
Zn233 O248 2.080 . S
C234 O239 1.166 . S
C234 O240 1.182 . S
C235 O241 1.167 . S
C235 O242 1.299 . S
O236 Zn233 2.080 . S
O236 C250 1.305 . S
O237 Zn231 1.920 . S
O237 C250 1.234 . S
C238 O243 1.167 . S
C238 O244 1.299 . S
O239 Zn233 2.114 . S
O239 C234 1.166 . S
O240 Zn232 1.905 . S
O240 C234 1.182 . S
O241 Zn232 1.898 . S
O241 C235 1.167 . S
O242 Zn233 2.120 . S
O242 C235 1.299 . S
O243 Zn231 1.898 1_455 S
O243 C238 1.167 . S
O244 Zn233 2.120 1_455 S
O244 C238 1.299 . S
O245 Zn233 2.114 . S
O245 C247 1.166 . S
O246 Zn231 1.905 . S
O246 C247 1.182 . S
C247 O245 1.166 . S
C247 O246 1.182 . S
O248 Zn233 2.080 . S
O248 C251 1.305 . S
O249 Zn232 1.920 . S
O249 C251 1.234 . S
C250 O236 1.305 . S
C250 O237 1.234 . S
C251 O248 1.305 . S
C251 O249 1.234 . S
Zn252 O258 1.920 . S
Zn252 O264 1.898 . S
Zn252 O267 1.905 . S
Zn253 O261 1.905 . S
Zn253 O262 1.898 1_545 S
Zn253 O270 1.920 . S
Zn254 O257 2.080 . S
Zn254 O260 2.114 . S
Zn254 O263 2.120 1_545 S
Zn254 O265 2.120 . S
Zn254 O266 2.114 . S
Zn254 O269 2.080 . S
C255 O260 1.166 . S
C255 O261 1.182 . S
C256 O262 1.167 . S
C256 O263 1.299 . S
O257 Zn254 2.080 . S
O257 C271 1.305 . S
O258 Zn252 1.920 . S
O258 C271 1.234 . S
C259 O264 1.167 . S
C259 O265 1.299 . S
O260 Zn254 2.114 . S
O260 C255 1.166 . S
O261 Zn253 1.905 . S
O261 C255 1.182 . S
O262 Zn253 1.898 1_565 S
O262 C256 1.167 . S
O263 Zn254 2.120 1_565 S
O263 C256 1.299 . S
O264 Zn252 1.898 . S
O264 C259 1.167 . S
O265 Zn254 2.120 . S
O265 C259 1.299 . S
O266 Zn254 2.114 . S
O266 C268 1.166 . S
O267 Zn252 1.905 . S
O267 C268 1.182 . S
C268 O266 1.166 . S
C268 O267 1.182 . S
O269 Zn254 2.080 . S
O269 C272 1.305 . S
O270 Zn253 1.920 . S
O270 C272 1.234 . S
C271 O257 1.305 . S
C271 O258 1.234 . S
C272 O269 1.305 . S
C272 O270 1.234 . S
Zn273 O279 1.920 . S
Zn273 O285 1.898 . S
Zn273 O288 1.905 . S
Zn274 O282 1.905 . S
Zn274 O283 1.898 1_655 S
Zn274 O291 1.920 . S
Zn275 O278 2.080 . S
Zn275 O281 2.114 . S
Zn275 O284 2.120 1_655 S
Zn275 O286 2.120 . S
Zn275 O287 2.114 . S
Zn275 O290 2.080 . S
C276 O281 1.166 . S
C276 O282 1.182 . S
C277 O283 1.167 . S
C277 O284 1.299 . S
O278 Zn275 2.080 . S
O278 C292 1.305 . S
O279 Zn273 1.920 . S
O279 C292 1.234 . S
C280 O285 1.167 . S
C280 O286 1.299 . S
O281 Zn275 2.114 . S
O281 C276 1.166 . S
O282 Zn274 1.905 . S
O282 C276 1.182 . S
O283 Zn274 1.898 1_455 S
O283 C277 1.167 . S
O284 Zn275 2.120 1_455 S
O284 C277 1.299 . S
O285 Zn273 1.898 . S
O285 C280 1.167 . S
O286 Zn275 2.120 . S
O286 C280 1.299 . S
O287 Zn275 2.114 . S
O287 C289 1.166 . S
O288 Zn273 1.905 . S
O288 C289 1.182 . S
C289 O287 1.166 . S
C289 O288 1.182 . S
O290 Zn275 2.080 . S
O290 C293 1.305 . S
O291 Zn274 1.920 . S
O291 C293 1.234 . S
C292 O278 1.305 . S
C292 O279 1.234 . S
C293 O290 1.305 . S
C293 O291 1.234 . S
Zn294 O300 1.920 . S
Zn294 O306 1.898 . S
Zn294 O309 1.905 . S
Zn295 O303 1.905 . S
Zn295 O304 1.898 1_565 S
Zn295 O312 1.920 . S
Zn296 O299 2.080 . S
Zn296 O302 2.114 . S
Zn296 O305 2.120 1_565 S
Zn296 O307 2.120 . S
Zn296 O308 2.114 . S
Zn296 O311 2.080 . S
C297 O302 1.166 . S
C297 O303 1.182 . S
C298 O304 1.167 . S
C298 O305 1.299 . S
O299 Zn296 2.080 . S
O299 C313 1.305 . S
O300 Zn294 1.920 . S
O300 C313 1.234 . S
C301 O306 1.167 . S
C301 O307 1.299 . S
O302 Zn296 2.114 . S
O302 C297 1.166 . S
O303 Zn295 1.905 . S
O303 C297 1.182 . S
O304 Zn295 1.898 1_545 S
O304 C298 1.167 . S
O305 Zn296 2.120 1_545 S
O305 C298 1.299 . S
O306 Zn294 1.898 . S
O306 C301 1.167 . S
O307 Zn296 2.120 . S
O307 C301 1.299 . S
O308 Zn296 2.114 . S
O308 C310 1.166 . S
O309 Zn294 1.905 . S
O309 C310 1.182 . S
C310 O308 1.166 . S
C310 O309 1.182 . S
O311 Zn296 2.080 . S
O311 C314 1.305 . S
O312 Zn295 1.920 . S
O312 C314 1.234 . S
C313 O299 1.305 . S
C313 O300 1.234 . S
C314 O311 1.305 . S
C314 O312 1.234 . S
Zn315 O321 1.920 . S
Zn315 O327 1.898 . S
Zn315 O330 1.905 . S
Zn316 O324 1.905 . S
Zn316 O325 1.898 1_455 S
Zn316 O333 1.920 . S
Zn317 O320 2.080 . S
Zn317 O323 2.114 . S
Zn317 O326 2.120 1_455 S
Zn317 O328 2.120 . S
Zn317 O329 2.114 . S
Zn317 O332 2.080 . S
C318 O323 1.166 . S
C318 O324 1.182 . S
C319 O325 1.167 . S
C319 O326 1.299 . S
O320 Zn317 2.080 . S
O320 C334 1.305 . S
O321 Zn315 1.920 . S
O321 C334 1.234 . S
C322 O327 1.167 . S
C322 O328 1.299 . S
O323 Zn317 2.114 . S
O323 C318 1.166 . S
O324 Zn316 1.905 . S
O324 C318 1.182 . S
O325 Zn316 1.898 1_655 S
O325 C319 1.167 . S
O326 Zn317 2.120 1_655 S
O326 C319 1.299 . S
O327 Zn315 1.898 . S
O327 C322 1.167 . S
O328 Zn317 2.120 . S
O328 C322 1.299 . S
O329 Zn317 2.114 . S
O329 C331 1.166 . S
O330 Zn315 1.905 . S
O330 C331 1.182 . S
C331 O329 1.166 . S
C331 O330 1.182 . S
O332 Zn317 2.080 . S
O332 C335 1.305 . S
O333 Zn316 1.920 . S
O333 C335 1.234 . S
C334 O320 1.305 . S
C334 O321 1.234 . S
C335 O332 1.305 . S
C335 O333 1.234 . S
C19 C335 0.965 . S
C272 C41 0.965 . S
C61 C293 0.965 . S
C314 C82 0.965 . S
C104 C209 0.965 . S
C229 C124 0.965 . S
C146 C250 0.965 . S
C188 C167 0.965 . S
C62 C20 2.835 1_655 S
C83 C40 2.835 1_565 S
C145 C103 2.835 1_655 S
C166 C125 2.835 1_565 S
C187 C230 2.835 1_565 S
C208 C251 2.835 1_455 S
C313 C271 2.835 1_565 S
C334 C292 2.835 1_455 S
C16 C25 1.210 . S
C49 C24 1.210 . S
C58 C70 1.210 . S
C7 C79 1.210 . S
C87 C151 1.210 . S
C88 C121 1.210 . S
C129 C112 1.210 . S
C130 C150 1.210 . S
C171 C193 1.210 . S
C217 C192 1.210 . S
C238 C226 1.210 . S
C247 C172 1.210 . S
C255 C319 1.210 . S
C256 C276 1.210 . S
C297 C277 1.210 . S
C298 C318 1.210 . S
C4 C109 1.886 1_554 S
C133 C28 1.886 1_556 S
C154 C46 1.886 1_556 S
C91 C67 1.886 1_556 S
C280 C175 1.886 . S
C196 C301 1.886 . S
C322 C214 1.886 . S
C235 C259 1.886 . S
C100 C3 0.528 1_554 S
C37 C108 0.528 1_556 S
C45 C142 0.528 1_556 S
C66 C163 0.528 1_556 S
C268 C184 0.528 1_545 S
C289 C205 0.528 1_655 S
C310 C213 0.528 1_565 S
C234 C331 0.528 1_655 S
