# Generated by pormake.
# Topology snk, (6)-cn, num edge types: 1
# Building blocks:
#     Node 0, Type 0, BuildingBlock: KUMBOL_clean_sbu_1, # of connection points: 6
#     Node 1, Type 0, BuildingBlock: KUMBOL_clean_sbu_1, # of connection points: 6
#     Node 2, Type 0, BuildingBlock: KUMBOL_clean_sbu_1, # of connection points: 6
#     Node 3, Type 0, BuildingBlock: KUMBOL_clean_sbu_1, # of connection points: 6
#     Node 4, Type 0, BuildingBlock: KUMBOL_clean_sbu_1, # of connection points: 6
#     Node 5, Type 0, BuildingBlock: KUMBOL_clean_sbu_1, # of connection points: 6
#     Node 6, Type 0, BuildingBlock: KUMBOL_clean_sbu_1, # of connection points: 6
#     Node 7, Type 0, BuildingBlock: KUMBOL_clean_sbu_1, # of connection points: 6
#     Edge 8, Type (0, 0), BuildingBlock: OJICUG_clean_linker_0, # of connection points: 2
#     Edge 9, Type (0, 0), BuildingBlock: OJICUG_clean_linker_0, # of connection points: 2
#     Edge 10, Type (0, 0), BuildingBlock: OJICUG_clean_linker_0, # of connection points: 2
#     Edge 11, Type (0, 0), BuildingBlock: OJICUG_clean_linker_0, # of connection points: 2
#     Edge 12, Type (0, 0), BuildingBlock: OJICUG_clean_linker_0, # of connection points: 2
#     Edge 13, Type (0, 0), BuildingBlock: OJICUG_clean_linker_0, # of connection points: 2
#     Edge 14, Type (0, 0), BuildingBlock: OJICUG_clean_linker_0, # of connection points: 2
#     Edge 15, Type (0, 0), BuildingBlock: OJICUG_clean_linker_0, # of connection points: 2
#     Edge 16, Type (0, 0), BuildingBlock: OJICUG_clean_linker_0, # of connection points: 2
#     Edge 17, Type (0, 0), BuildingBlock: OJICUG_clean_linker_0, # of connection points: 2
#     Edge 18, Type (0, 0), BuildingBlock: OJICUG_clean_linker_0, # of connection points: 2
#     Edge 19, Type (0, 0), BuildingBlock: OJICUG_clean_linker_0, # of connection points: 2
#     Edge 20, Type (0, 0), BuildingBlock: OJICUG_clean_linker_0, # of connection points: 2
#     Edge 21, Type (0, 0), BuildingBlock: OJICUG_clean_linker_0, # of connection points: 2
#     Edge 22, Type (0, 0), BuildingBlock: OJICUG_clean_linker_0, # of connection points: 2
#     Edge 23, Type (0, 0), BuildingBlock: OJICUG_clean_linker_0, # of connection points: 2
#     Edge 24, Type (0, 0), BuildingBlock: OJICUG_clean_linker_0, # of connection points: 2
#     Edge 25, Type (0, 0), BuildingBlock: OJICUG_clean_linker_0, # of connection points: 2
#     Edge 26, Type (0, 0), BuildingBlock: OJICUG_clean_linker_0, # of connection points: 2
#     Edge 27, Type (0, 0), BuildingBlock: OJICUG_clean_linker_0, # of connection points: 2
#     Edge 28, Type (0, 0), BuildingBlock: OJICUG_clean_linker_0, # of connection points: 2
#     Edge 29, Type (0, 0), BuildingBlock: OJICUG_clean_linker_0, # of connection points: 2
#     Edge 30, Type (0, 0), BuildingBlock: OJICUG_clean_linker_0, # of connection points: 2
#     Edge 31, Type (0, 0), BuildingBlock: OJICUG_clean_linker_0, # of connection points: 2
# Relax obj value: 0.014
# Max RMSD: 0.089
# Mean RMSD: 0.086
data_MOF--net-snk--node1-KUMBOL_clean_sbu_1--edge1-OJICUG_clean_linker_0
_symmetry_space_group_name_H-M    P1
_symmetry_Int_Tables_number       1
_symmetry_cell_setting            triclinic
loop_
_symmetry_equiv_pos_as_xyz
'x, y, z'
_cell_length_a     27.09222
_cell_length_b     26.988607
_cell_length_c     20.390087
_cell_angle_alpha  89.8093
_cell_angle_beta   89.712081
_cell_angle_gamma 90.422108
loop_
_atom_site_label
_atom_site_type_symbol
_atom_site_fract_x
_atom_site_fract_y
_atom_site_fract_z
_atom_type_partial_charge
C0 C 0.98421 0.85401 0.38512 0.0
C1 C 0.89519 0.84465 0.3808 0.0
C2 C 0.93746 0.87324 0.39566 0.0
C3 C 0.90071 0.79751 0.35286 0.0
C4 C 0.9899 0.80682 0.35668 0.0
C5 C 0.94789 0.77886 0.34014 0.0
N6 N 0.02413 0.88118 0.40323 0.0
C7 C 0.07073 0.86326 0.39566 0.0
C8 C 0.03769 0.78893 0.3463 0.0
C9 C 0.07829 0.81728 0.36604 0.0
Gd10 Gd 0.99561 0.04262 0.60441 0.0
Gd11 Gd 0.00853 0.96196 0.43744 0.0
N12 N 0.93333 0.91933 0.42179 0.0
C13 C 0.84862 0.86415 0.39479 0.0
C14 C 0.88792 0.9383 0.43609 0.0
C15 C 0.84503 0.91102 0.42302 0.0
H16 H 0.88431 0.97393 0.45896 0.0
H17 H 0.8092 0.92621 0.43476 0.0
H18 H 0.12035 0.02942 0.58776 0.0
H19 H 0.10227 0.88525 0.41031 0.0
H20 H 0.19512 0.0776 0.6111 0.0
H21 H 0.81528 0.84321 0.38443 0.0
H22 H 0.86871 0.77511 0.34115 0.0
H23 H 0.90192 0.12031 0.6268 0.0
H24 H 0.04361 0.75294 0.32435 0.0
H25 H 0.11537 0.80357 0.35889 0.0
H26 H 0.13521 0.23136 0.69624 0.0
H27 H 0.9515 0.74238 0.31867 0.0
H28 H 0.96017 0.25471 0.70743 0.0
H29 H 0.88864 0.20366 0.67325 0.0
N30 N 0.97995 0.12395 0.63633 0.0
C31 C 0.0198 0.15147 0.65391 0.0
C32 C 0.93338 0.14245 0.6414 0.0
C33 C 0.96618 0.21803 0.68759 0.0
C34 C 0.92571 0.18943 0.66808 0.0
C35 C 0.014 0.19954 0.67959 0.0
H36 H 0.05218 0.26495 0.715 0.0
N37 N 0.07088 0.08506 0.62115 0.0
C38 C 0.0666 0.13181 0.64521 0.0
C39 C 0.15546 0.1408 0.64721 0.0
C40 C 0.10881 0.16074 0.65945 0.0
C41 C 0.11641 0.06563 0.60875 0.0
C42 C 0.15921 0.09316 0.6214 0.0
O43 O 0.97681 0.91723 0.52283 0.0
O44 O 0.94304 0.98597 0.56294 0.0
O45 O 0.00938 0.02258 0.70585 0.0
O46 O 0.93464 0.03674 0.67273 0.0
O47 O 0.95584 0.02707 0.43285 0.0
O48 O 0.93974 0.06859 0.53164 0.0
O49 O 0.02719 0.08777 0.52008 0.0
O50 O 0.06058 0.01921 0.47903 0.0
O51 O 0.99449 0.98165 0.33587 0.0
O52 O 0.06943 0.9693 0.36933 0.0
O53 O 0.04808 0.97725 0.60716 0.0
O54 O 0.06649 0.9373 0.50825 0.0
C55 C 0.94986 0.9382 0.56837 0.0
C56 C 0.93323 0.06103 0.46839 0.0
C57 C 0.9516 0.05063 0.78536 0.0
C58 C 0.95995 0.04756 0.90453 0.0
C59 C 0.89809 0.10034 0.85384 0.0
C60 C 0.91272 0.08436 0.79191 0.0
C61 C 0.92066 0.08141 0.90981 0.0
C62 C 0.976 0.03382 0.84143 0.0
C63 C 0.96304 0.02698 0.72234 0.0
C64 C 0.1032 0.2087 0.68488 0.0
C65 C 0.05592 0.22783 0.69558 0.0
H66 H 0.18874 0.162 0.65701 0.0
C67 C 0.05351 0.06697 0.47395 0.0
C68 C 0.0724 0.9443 0.57174 0.0
C69 C 0.05325 0.95477 0.25669 0.0
C70 C 0.04488 0.95734 0.13758 0.0
C71 C 0.10901 0.90748 0.18828 0.0
C72 C 0.09381 0.92305 0.25015 0.0
C73 C 0.08556 0.92522 0.13229 0.0
C74 C 0.02801 0.97013 0.2006 0.0
C75 C 0.04096 0.97828 0.31957 0.0
H76 H 0.86773 0.12597 0.85862 0.0
H77 H 0.89238 0.09712 0.74973 0.0
H78 H 0.90587 0.09236 0.95685 0.0
H79 H 0.00661 0.00871 0.83517 0.0
H80 H 0.14054 0.88331 0.18355 0.0
H81 H 0.11499 0.91164 0.29227 0.0
H82 H 0.10081 0.91496 0.08521 0.0
H83 H 0.99614 0.9936 0.20666 0.0
C84 C 0.40173 0.68859 0.71228 0.0
C85 C 0.38102 0.60334 0.68734 0.0
C86 C 0.36733 0.65348 0.69254 0.0
C87 C 0.42835 0.58871 0.70694 0.0
C88 C 0.44959 0.67426 0.73118 0.0
C89 C 0.46256 0.62403 0.72895 0.0
N90 N 0.38771 0.73673 0.71526 0.0
C91 C 0.42025 0.77272 0.73379 0.0
C92 C 0.48241 0.71075 0.75353 0.0
C93 C 0.46774 0.76028 0.75435 0.0
Gd94 Gd 0.20986 0.75217 0.84789 0.0
Gd95 Gd 0.30486 0.75362 0.69174 0.0
N96 N 0.32121 0.66862 0.67593 0.0
C97 C 0.34721 0.56965 0.66077 0.0
C98 C 0.29055 0.63704 0.64312 0.0
C99 C 0.30229 0.58687 0.63686 0.0
H100 H 0.25761 0.65044 0.61985 0.0
H101 H 0.27706 0.56174 0.61256 0.0
H102 H 0.22623 0.86964 0.89812 0.0
H103 H 0.40919 0.81085 0.73348 0.0
H104 H 0.17819 0.94668 0.90601 0.0
H105 H 0.35636 0.53083 0.65565 0.0
H106 H 0.43894 0.5502 0.70448 0.0
H107 H 0.12645 0.66199 0.81662 0.0
H108 H 0.51928 0.7012 0.76933 0.0
H109 H 0.49306 0.78888 0.77055 0.0
H110 H 0.02017 0.90272 0.81595 0.0
H111 H 0.49902 0.61219 0.74367 0.0
H112 H 0.99105 0.73197 0.76298 0.0
H113 H 0.04069 0.656 0.77664 0.0
N114 N 0.12578 0.74059 0.82333 0.0
C115 C 0.09785 0.78224 0.82127 0.0
C116 C 0.1052 0.69538 0.81051 0.0
C117 C 0.02864 0.7348 0.7806 0.0
C118 C 0.05654 0.69183 0.78823 0.0
C119 C 0.04883 0.78066 0.79859 0.0
H120 H 0.98391 0.82426 0.77732 0.0
N121 N 0.16743 0.82761 0.85768 0.0
C122 C 0.11882 0.82681 0.84103 0.0
C123 C 0.11226 0.91399 0.86555 0.0
C124 C 0.09059 0.87046 0.84158 0.0
C125 C 0.18851 0.86963 0.8821 0.0
C126 C 0.16119 0.91332 0.88697 0.0
O127 O 0.33089 0.72797 0.79191 0.0
O128 O 0.26244 0.689 0.83298 0.0
O129 O 0.23205 0.76202 0.95112 0.0
O130 O 0.16902 0.71504 0.92487 0.0
O131 O 0.22728 0.72176 0.6833 0.0
O132 O 0.21271 0.68456 0.78302 0.0
O133 O 0.1877 0.794 0.75604 0.0
O134 O 0.25743 0.82118 0.70005 0.0
O135 O 0.29017 0.74689 0.58684 0.0
O136 O 0.3516 0.79283 0.62101 0.0
O137 O 0.27853 0.80052 0.85785 0.0
O138 O 0.31435 0.82152 0.75638 0.0
C139 C 0.31041 0.69497 0.83102 0.0
C140 C 0.20546 0.68762 0.71951 0.0
C141 C 0.18587 0.72099 0.04135 0.0
C142 C 0.20565 0.72393 0.15891 0.0
C143 C 0.1322 0.68031 0.12119 0.0
C144 C 0.14357 0.69267 0.05653 0.0
C145 C 0.16279 0.69576 0.17193 0.0
C146 C 0.21691 0.73686 0.09299 0.0
C147 C 0.19617 0.73326 0.97151 0.0
C148 C 0.04214 0.86935 0.81734 0.0
C149 C 0.02154 0.82467 0.79508 0.0
H150 H 0.09176 0.94827 0.86737 0.0
C151 C 0.21012 0.82295 0.71326 0.0
C152 C 0.30863 0.82757 0.82058 0.0
C153 C 0.33956 0.78875 0.50224 0.0
C154 C 0.32221 0.78667 0.38393 0.0
C155 C 0.39424 0.83091 0.4252 0.0
C156 C 0.38177 0.81769 0.48931 0.0
C157 C 0.36485 0.81563 0.37297 0.0
C158 C 0.30986 0.77305 0.44916 0.0
C159 C 0.3269 0.77595 0.57113 0.0
H160 H 0.09931 0.65872 0.13206 0.0
H161 H 0.11886 0.68008 1.01833 0.0
H162 H 0.15241 0.68613 0.22175 0.0
H163 H 0.24982 0.7584 0.08191 0.0
H164 H 0.427 0.8531 0.4159 0.0
H165 H 0.4053 0.83018 0.52885 0.0
H166 H 0.37601 0.82599 0.32368 0.0
H167 H 0.27691 0.75109 0.45862 0.0
C168 C 0.57647 0.1513 0.97614 0.0
C169 C 0.66102 0.12998 0.95032 0.0
C170 C 0.61044 0.11745 0.95256 0.0
C171 C 0.67699 0.17578 0.97539 0.0
C172 C 0.59211 0.19752 1.0007 0.0
C173 C 0.64267 0.20934 1.00089 0.0
N174 N 0.52808 0.13791 0.97798 0.0
C175 C 0.49284 0.17046 0.99786 0.0
C176 C 0.55644 0.22984 0.02588 0.0
C177 C 0.50647 0.21674 0.02287 0.0
Gd178 Gd 0.49946 0.96219 0.10306 0.0
Gd179 Gd 0.50888 0.05692 0.94588 0.0
N180 N 0.59393 0.07268 0.93087 0.0
C181 C 0.69395 0.09629 0.92238 0.0
C182 C 0.62534 0.0415 0.89898 0.0
C183 C 0.67588 0.05226 0.89551 0.0
H184 H 0.61165 0.00875 0.87486 0.0
H185 H 0.70076 0.02682 0.87149 0.0
H186 H 0.38386 0.96048 0.15765 0.0
H187 H 0.45442 0.16009 0.99594 0.0
H188 H 0.31089 0.90412 0.15617 0.0
H189 H 0.73311 0.10455 0.91959 0.0
H190 H 0.7158 0.18558 0.97515 0.0
H191 H 0.59696 0.88405 0.09254 0.0
H192 H 0.56699 0.26535 0.04634 0.0
H193 H 0.47855 0.24208 0.04025 0.0
H194 H 0.36847 0.76172 0.0365 0.0
H195 H 0.65557 0.24441 1.02034 0.0
H196 H 0.54393 0.74806 1.00961 0.0
H197 H 0.61339 0.80081 0.04717 0.0
N198 N 0.51959 0.87966 0.07609 0.0
C199 C 0.481 0.84934 0.0622 0.0
C200 C 0.56654 0.86159 0.07522 0.0
C201 C 0.53666 0.78475 0.02859 0.0
C202 C 0.57594 0.81436 0.04996 0.0
C203 C 0.48824 0.8015 0.0367 0.0
H204 H 0.45156 0.73482 1.00233 0.0
N205 N 0.42963 0.91044 0.10565 0.0
C206 C 0.43444 0.86463 0.07974 0.0
C207 C 0.34861 0.84694 0.10217 0.0
C208 C 0.39368 0.83233 0.07461 0.0
C209 C 0.38654 0.92441 0.13502 0.0
C210 C 0.34534 0.89275 0.13396 0.0
O211 O 0.5313 0.08003 0.04911 0.0
O212 O 0.56714 0.01062 0.09099 0.0
O213 O 0.4779 0.99107 0.19793 0.0
O214 O 0.52645 0.92862 0.1937 0.0
O215 O 0.53954 0.9798 0.93634 0.0
O216 O 0.56883 0.96107 0.0392 0.0
O217 O 0.43746 0.96184 0.02705 0.0
O218 O 0.47831 0.97986 0.93114 0.0
O219 O 0.52373 0.07391 0.84292 0.0
O220 O 0.45212 0.089 0.88448 0.0
O221 O 0.45981 0.03534 0.10836 0.0
O222 O 0.43771 0.06373 1.00462 0.0
C223 C 0.56491 0.05898 0.08602 0.0
C224 C 0.56925 0.95511 0.97511 0.0
C225 C 0.53379 0.98385 0.2843 0.0
C226 C 0.53888 0.01431 0.39735 0.0
C227 C 0.60556 0.03076 0.31954 0.0
C228 C 0.58022 1.00472 0.27097 0.0
C229 C 0.5851 0.03568 0.3822 0.0
C230 C 0.51325 0.9886 0.34757 0.0
C231 C 0.50471 0.96067 0.23147 0.0
C232 C 0.39968 0.78648 0.04326 0.0
C233 C 0.44697 0.77128 0.02353 0.0
H234 H 0.31646 0.82302 0.09968 0.0
C235 C 0.44098 0.95954 0.96259 0.0
C236 C 0.4305 0.06011 0.06874 0.0
C237 C 0.45453 0.05796 0.77515 0.0
C238 C 0.4562 0.02813 0.66118 0.0
C239 C 0.38707 0.00746 0.73323 0.0
C240 C 0.40885 0.03375 0.78427 0.0
C241 C 0.41034 1.00467 0.67232 0.0
C242 C 0.47805 0.05511 0.71313 0.0
C243 C 0.47801 0.08479 0.8307 0.0
H244 H 0.64131 0.04706 0.30869 0.0
H245 H 0.59656 1.00101 0.22285 0.0
H246 H 0.60598 0.05534 0.41919 0.0
H247 H 0.47696 0.97306 0.35759 0.0
H248 H 0.35189 0.98902 0.74098 0.0
H249 H 0.3899 0.03463 0.83114 0.0
H250 H 0.39187 0.98457 0.63354 0.0
H251 H 0.51355 0.07311 0.70582 0.0
C252 C 0.39517 0.26045 0.38435 0.0
C253 C 0.40769 0.34774 0.40741 0.0
C254 C 0.37774 0.30868 0.38411 0.0
C255 C 0.45408 0.33718 0.43428 0.0
C256 C 0.44221 0.24985 0.40996 0.0
C257 C 0.47111 0.28832 0.43609 0.0
N258 N 0.36554 0.22364 0.36162 0.0
C259 C 0.38154 0.17584 0.35966 0.0
C260 C 0.45849 0.2007 0.40945 0.0
C261 C 0.42843 0.16369 0.38287 0.0
Gd262 Gd 0.19991 0.26579 0.18677 0.0
Gd263 Gd 0.28344 0.24572 0.34334 0.0
N264 N 0.33144 0.31734 0.36156 0.0
C265 C 0.38981 0.39617 0.40395 0.0
C266 C 0.3137 0.36452 0.3588 0.0
C267 C 0.34282 0.40461 0.37882 0.0
H268 H 0.27737 0.37177 0.34094 0.0
H269 H 0.32862 0.44194 0.37603 0.0
H270 H 0.21627 0.1409 0.18329 0.0
H271 H 0.3568 0.14658 0.34488 0.0
H272 H 0.16668 0.06733 0.15736 0.0
H273 H 0.41174 0.42723 0.42085 0.0
H274 H 0.47727 0.36656 0.4533 0.0
H275 H 0.11973 0.36022 0.19857 0.0
H276 H 0.49425 0.19101 0.42908 0.0
H277 H 0.4406 0.12558 0.38257 0.0
H278 H 0.00628 0.13216 0.10983 0.0
H279 H 0.50716 0.28083 0.4565 0.0
H280 H 0.97989 0.30575 0.1344 0.0
H281 H 0.03215 0.37503 0.17336 0.0
N282 N 0.1155 0.28288 0.18231 0.0
C283 C 0.08697 0.24386 0.16358 0.0
C284 C 0.0961 0.32927 0.18768 0.0
C285 C 0.01771 0.29879 0.14861 0.0
C286 C 0.04695 0.33792 0.17104 0.0
C287 C 0.03734 0.25099 0.14556 0.0
H288 H 0.97084 0.21525 0.1102 0.0
N289 N 0.15645 0.19107 0.17536 0.0
C290 C 0.10778 0.19674 0.16071 0.0
C291 C 0.10005 0.10867 0.14237 0.0
C292 C 0.07855 0.15568 0.14262 0.0
C293 C 0.17781 0.14546 0.17328 0.0
C294 C 0.14973 0.10352 0.15816 0.0
O295 O 0.32243 0.28568 0.258 0.0
O296 O 0.25753 0.3249 0.20782 0.0
O297 O 0.22438 0.24995 0.08686 0.0
O298 O 0.16979 0.30642 0.10572 0.0
O299 O 0.21348 0.29066 0.35116 0.0
O300 O 0.19967 0.33184 0.25411 0.0
O301 O 0.16296 0.2273 0.27445 0.0
O302 O 0.22967 0.18617 0.31258 0.0
O303 O 0.25708 0.26472 0.4411 0.0
O304 O 0.29145 0.19373 0.42343 0.0
O305 O 0.26996 0.22173 0.17176 0.0
O306 O 0.29092 0.18423 0.26986 0.0
C307 C 0.30526 0.31753 0.2144 0.0
C308 C 0.19673 0.32893 0.31848 0.0
C309 C 0.21479 0.31422 1.0081 0.0
C310 C 0.23094 0.32153 0.89112 0.0
C311 C 0.23224 0.39477 0.96044 0.0
C312 C 0.22216 0.36543 1.01534 0.0
C313 C 0.2357 0.37317 0.89848 0.0
C314 C 0.21977 0.29242 0.94637 0.0
C315 C 0.19578 0.28369 0.06188 0.0
C316 C 0.02925 0.16295 0.12427 0.0
C317 C 0.00895 0.21045 0.12469 0.0
H318 H 0.07904 0.07611 0.12934 0.0
C319 C 0.18196 0.1934 0.31316 0.0
C320 C 0.29486 0.18884 0.2057 0.0
C321 C 0.30155 0.22863 0.52877 0.0
C322 C 0.30241 0.24652 0.64578 0.0
C323 C 0.37704 0.21871 0.59115 0.0
C324 C 0.3514 0.21501 0.53242 0.0
C325 C 0.35282 0.23443 0.64758 0.0
C326 C 0.27712 0.24437 0.58578 0.0
C327 C 0.27386 0.22398 0.4671 0.0
H328 H 0.2372 0.43437 0.96583 0.0
H329 H 0.2186 0.38288 0.06289 0.0
H330 H 0.2441 0.39668 0.85676 0.0
H331 H 0.21382 0.25283 0.94123 0.0
H332 H 0.41561 0.20867 0.59311 0.0
H333 H 0.37049 0.20051 0.49049 0.0
H334 H 0.37356 0.23703 0.69274 0.0
H335 H 0.23823 0.25349 0.58375 0.0
C336 C 0.90249 0.20384 0.23149 0.0
C337 C 0.89297 0.11628 0.20841 0.0
C338 C 0.87388 0.16473 0.20861 0.0
C339 C 0.93959 0.10735 0.23578 0.0
C340 C 0.94907 0.19509 0.25948 0.0
C341 C 0.9673 0.14655 0.26203 0.0
N342 N 0.8832 0.25021 0.23014 0.0
C343 C 0.91 0.28998 0.25106 0.0
C344 C 0.97569 0.23543 0.28449 0.0
C345 C 0.95627 0.28312 0.27968 0.0
Gd346 Gd 0.7052 0.25394 0.35135 0.0
Gd347 Gd 0.80066 0.25668 0.19748 0.0
N348 N 0.82727 0.17404 0.18725 0.0
C349 C 0.86444 0.07827 0.18105 0.0
C350 C 0.80083 0.13786 0.15645 0.0
C351 C 0.81861 0.08934 0.15376 0.0
H352 H 0.76651 0.1463 0.13257 0.0
H353 H 0.79702 0.06055 0.13037 0.0
H354 H 0.72785 0.37375 0.39026 0.0
H355 H 0.89517 0.32688 0.24702 0.0
H356 H 0.68391 0.45324 0.38779 0.0
H357 H 0.87789 0.04057 0.17951 0.0
H358 H 0.95443 0.07024 0.23726 0.0
H359 H 0.61976 0.16602 0.3251 0.0
H360 H 0.0116 0.2303 0.30636 0.0
H361 H 0.97702 0.31464 0.2977 0.0
H362 H 0.52101 0.41007 0.31425 0.0
H363 H 1.00307 0.13905 0.28327 0.0
H364 H 0.48558 0.23875 0.27278 0.0
H365 H 0.53327 0.16166 0.28754 0.0
N366 N 0.62056 0.24461 0.33172 0.0
C367 C 0.59396 0.28706 0.32876 0.0
C368 C 0.59892 0.19978 0.31986 0.0
C369 C 0.52316 0.24078 0.2906 0.0
C370 C 0.54999 0.19718 0.29863 0.0
C371 C 0.54459 0.28634 0.30731 0.0
H372 H 0.48101 0.33132 0.28414 0.0
N373 N 0.6666 0.33171 0.35604 0.0
C374 C 0.61739 0.33183 0.34257 0.0
C375 C 0.61543 0.42074 0.3553 0.0
C376 C 0.591 0.3766 0.33918 0.0
C377 C 0.69007 0.37431 0.37432 0.0
C378 C 0.66496 0.41944 0.37393 0.0
O379 O 0.82269 0.23006 0.29907 0.0
O380 O 0.75538 0.18854 0.33901 0.0
O381 O 0.72669 0.26695 0.45429 0.0
O382 O 0.6651 0.2176 0.42973 0.0
O383 O 0.72671 0.21736 0.18529 0.0
O384 O 0.70651 0.18538 0.28755 0.0
O385 O 0.68002 0.28781 0.25487 0.0
O386 O 0.74872 0.3211 0.20425 0.0
O387 O 0.78755 0.24754 0.09236 0.0
O388 O 0.84787 0.29503 0.12665 0.0
O389 O 0.77606 0.29893 0.36105 0.0
O390 O 0.80029 0.32727 0.25768 0.0
C391 C 0.80316 0.19295 0.33176 0.0
C392 C 0.70246 0.18581 0.22317 0.0
C393 C 0.68105 0.22718 0.54604 0.0
C394 C 0.70194 0.22983 0.66342 0.0
C395 C 0.62507 0.19164 0.62726 0.0
C396 C 0.63689 0.20233 0.56227 0.0
C397 C 0.65708 0.20525 0.67735 0.0
C398 C 0.71359 0.24129 0.59705 0.0
C399 C 0.69154 0.23773 0.47572 0.0
C400 C 0.54164 0.37598 0.31834 0.0
C401 C 0.51882 0.3311 0.30123 0.0
H402 H 0.59634 0.45587 0.35392 0.0
C403 C 0.70074 0.31788 0.21176 0.0
C404 C 0.80021 0.33017 0.32238 0.0
C405 C 0.83795 0.28854 1.0077 0.0
C406 C 0.82179 0.2863 0.88892 0.0
C407 C 0.89604 0.32622 0.93101 0.0
C408 C 0.88201 0.3146 0.9951 0.0
C409 C 0.86639 0.31221 0.87842 0.0
C410 C 0.80785 0.27431 0.95424 0.0
C411 C 0.82416 0.27682 0.07667 0.0
H412 H 0.5907 0.17279 0.63892 0.0
H413 H 0.61101 0.19128 0.5246 0.0
H414 H 0.64621 0.19703 0.72742 0.0
H415 H 0.74791 0.26021 0.58515 0.0
H416 H 0.93026 0.3461 0.922 0.0
H417 H 0.90591 0.3259 0.03487 0.0
H418 H 0.8789 0.32115 0.82923 0.0
H419 H 0.77342 0.25485 0.9635 0.0
C420 C 0.90727 0.76242 0.8951 0.0
C421 C 0.91748 0.85028 0.91602 0.0
C422 C 0.88802 0.81006 0.8957 0.0
C423 C 0.96556 0.84161 0.9383 0.0
C424 C 0.9559 0.75382 0.91657 0.0
C425 C 0.98464 0.79359 0.93908 0.0
N426 N 0.87795 0.72424 0.87589 0.0
C427 C 0.89516 0.67682 0.87553 0.0
C428 C 0.9739 0.70532 0.91597 0.0
C429 C 0.94355 0.6667 0.89459 0.0
Gd430 Gd 0.71456 0.77106 0.69599 0.0
Gd431 Gd 0.79528 0.74416 0.85772 0.0
N432 N 0.84053 0.81703 0.87663 0.0
C433 C 0.8975 0.89795 0.91415 0.0
C434 C 0.82076 0.8634 0.87532 0.0
C435 C 0.84911 0.90457 0.89312 0.0
H436 H 0.78341 0.86914 0.86004 0.0
H437 H 0.83339 0.94131 0.89152 0.0
H438 H 0.72627 0.64569 0.69212 0.0
H439 H 0.87044 0.64638 0.86474 0.0
H440 H 0.67662 0.57394 0.65896 0.0
H441 H 0.9188 0.92988 0.92918 0.0
H442 H 0.98855 0.87178 0.95435 0.0
H443 H 0.63802 0.86822 0.69545 0.0
H444 H 0.01105 0.69731 0.93215 0.0
H445 H 0.95684 0.62897 0.89489 0.0
H446 H 0.52179 0.64382 0.59511 0.0
H447 H 0.022 0.78777 0.95608 0.0
H448 H 0.49909 0.81816 0.62047 0.0
H449 H 0.55229 0.88585 0.66213 0.0
N450 N 0.6319 0.79085 0.67755 0.0
C451 C 0.60294 0.7529 0.65658 0.0
C452 C 0.61425 0.83809 0.68017 0.0
C453 C 0.53618 0.81003 0.63677 0.0
C454 C 0.56602 0.84831 0.66047 0.0
C455 C 0.55446 0.76165 0.63464 0.0
H456 H 0.48869 0.72807 0.59359 0.0
N457 N 0.6695 0.69815 0.67529 0.0
C458 C 0.62219 0.70528 0.6555 0.0
C459 C 0.61277 0.6175 0.63589 0.0
C460 C 0.5928 0.66517 0.63437 0.0
C461 C 0.68914 0.65172 0.67637 0.0
C462 C 0.66094 0.61071 0.65759 0.0
O463 O 0.83701 0.78353 0.77449 0.0
O464 O 0.77132 0.82513 0.73454 0.0
O465 O 0.74358 0.75816 0.59805 0.0
O466 O 0.70428 0.82587 0.61932 0.0
O467 O 0.7277 0.79245 0.87042 0.0
O468 O 0.70395 0.82982 0.7725 0.0
O469 O 0.6728 0.73087 0.77842 0.0
O470 O 0.73916 0.69039 0.81783 0.0
O471 O 0.76601 0.75744 0.95548 0.0
O472 O 0.80537 0.68969 0.93482 0.0
O473 O 0.78237 0.72305 0.68423 0.0
O474 O 0.80365 0.68424 0.78202 0.0
C475 C 0.81883 0.81621 0.73321 0.0
C476 C 0.70124 0.82432 0.83673 0.0
C477 C 0.69686 0.79281 0.51221 0.0
C478 C 0.69851 0.77555 0.39509 0.0
C479 C 0.62099 0.79455 0.44919 0.0
C480 C 0.64577 0.80067 0.50837 0.0
C481 C 0.64712 0.78203 0.39271 0.0
C482 C 0.72305 0.78036 0.45532 0.0
C483 C 0.72396 0.79829 0.57418 0.0
C484 C 0.5448 0.67395 0.61174 0.0
C485 C 0.52592 0.72207 0.61097 0.0
H486 H 0.5917 0.58567 0.62005 0.0
C487 C 0.69166 0.69869 0.81971 0.0
C488 C 0.80688 0.68951 0.71773 0.0
C489 C 0.81251 0.72295 0.04173 0.0
C490 C 0.81005 0.73873 0.15912 0.0
C491 C 0.8882 0.7222 0.10518 0.0
C492 C 0.86379 0.7164 0.04566 0.0
C493 C 0.86156 0.73332 0.16179 0.0
C494 C 0.78585 0.73402 0.09868 0.0
C495 C 0.7856 0.71739 0.97966 0.0
H496 H 0.58152 0.80019 0.44696 0.0
H497 H 0.62492 0.81225 0.55043 0.0
H498 H 0.6272 0.77765 0.34714 0.0
H499 H 0.76275 0.7758 0.45777 0.0
H500 H 0.9278 0.71749 0.10754 0.0
H501 H 0.8851 0.70609 1.00343 0.0
H502 H 0.88118 0.73758 0.20762 0.0
H503 H 0.74605 0.73767 0.09609 0.0
C504 C 0.49308 0.35064 0.90633 0.0
C505 C 0.40662 0.34425 0.87676 0.0
C506 C 0.44694 0.37242 0.89968 0.0
C507 C 0.41325 0.29427 0.86009 0.0
C508 C 0.50018 0.30094 0.88768 0.0
C509 C 0.45998 0.27277 0.8651 0.0
N510 N 0.53125 0.3784 0.92929 0.0
C511 C 0.57712 0.35852 0.93658 0.0
C512 C 0.54782 0.28141 0.89067 0.0
C513 C 0.58636 0.31023 0.91571 0.0
Gd514 Gd 0.49319 0.53985 0.09948 0.0
Gd515 Gd 0.51563 0.46327 0.93624 0.0
N516 N 0.44171 0.42126 0.91458 0.0
C517 C 0.36108 0.36753 0.86958 0.0
C518 C 0.39739 0.44409 0.90734 0.0
C519 C 0.35638 0.41758 0.88529 0.0
H520 H 0.39349 0.48283 0.9169 0.0
H521 H 0.32161 0.43632 0.87882 0.0
H522 H 0.61762 0.52527 0.10555 0.0
H523 H 0.60748 0.38112 0.9537 0.0
H524 H 0.69074 0.57542 0.13166 0.0
H525 H 0.32981 0.3474 0.85046 0.0
H526 H 0.38264 0.27214 0.84226 0.0
H527 H 0.39805 0.61781 0.10064 0.0
H528 H 0.55509 0.24389 0.87472 0.0
H529 H 0.6233 0.29543 0.91835 0.0
H530 H 0.62527 0.7345 0.18784 0.0
H531 H 0.46471 0.2344 0.85104 0.0
H532 H 0.44996 0.75594 0.17807 0.0
H533 H 0.38123 0.70265 0.13978 0.0
N534 N 0.47516 0.62298 0.1183 0.0
C535 C 0.51359 0.65175 0.13804 0.0
C536 C 0.42835 0.64115 0.11631 0.0
C537 C 0.45754 0.71876 0.161 0.0
C538 C 0.41866 0.68893 0.13898 0.0
C539 C 0.50588 0.70083 0.15895 0.0
H540 H 0.5412 0.76819 0.19318 0.0
N541 N 0.56683 0.58392 0.11956 0.0
C542 C 0.56085 0.63203 0.13753 0.0
C543 C 0.64898 0.64129 0.15174 0.0
C544 C 0.60176 0.66188 0.15462 0.0
C545 C 0.61269 0.56336 0.11844 0.0
C546 C 0.65442 0.59183 0.13351 0.0
O547 O 0.475 0.42085 1.01855 0.0
O548 O 0.43577 0.48765 0.05906 0.0
O549 O 0.507 0.5175 0.2007 0.0
O550 O 0.4353 0.54514 0.1717 0.0
O551 O 0.47224 0.53524 0.92561 0.0
O552 O 0.43289 0.54839 0.02524 0.0
O553 O 0.53232 0.58383 1.01767 0.0
O554 O 0.5722 0.51916 0.97041 0.0
O555 O 0.50488 0.48253 0.83226 0.0
O556 O 0.57082 0.44346 0.86524 0.0
O557 O 0.53604 0.468 0.1068 0.0
O558 O 0.57756 0.46034 1.00875 0.0
C559 C 0.44159 0.43968 0.05819 0.0
C560 C 0.43929 0.558 0.96258 0.0
C561 C 0.45775 0.55727 0.28235 0.0
C562 C 0.46533 0.55433 0.40178 0.0
C563 C 0.41567 0.61806 0.34919 0.0
C564 C 0.42726 0.59891 0.28782 0.0
C565 C 0.43342 0.59538 0.40575 0.0
C566 C 0.47795 0.53638 0.33903 0.0
C567 C 0.46298 0.53071 0.21983 0.0
C568 C 0.5943 0.71109 0.17434 0.0
C569 C 0.54642 0.73028 0.17738 0.0
H570 H 0.68138 0.66312 0.16397 0.0
C571 C 0.56458 0.56692 0.97477 0.0
C572 C 0.5709 0.44827 0.07044 0.0
C573 C 0.56563 0.45703 0.7491 0.0
C574 C 0.5557 0.46762 0.63132 0.0
C575 C 0.62856 0.42709 0.67408 0.0
C576 C 0.61101 0.43351 0.73781 0.0
C577 C 0.60113 0.44399 0.621 0.0
C578 C 0.53812 0.47399 0.69567 0.0
C579 C 0.54587 0.46039 0.81619 0.0
H580 H 0.39132 0.64956 0.35305 0.0
H581 H 0.41064 0.61558 0.24518 0.0
H582 H 0.42086 0.60984 0.45221 0.0
H583 H 0.50267 0.50538 0.33337 0.0
H584 H 0.66354 0.40896 0.66581 0.0
H585 H 0.63279 0.41952 0.77816 0.0
H586 H 0.61588 0.43933 0.57195 0.0
H587 H 0.50268 0.49116 0.70403 0.0
C588 C 0.02998 0.67227 0.46669 0.0
C589 C 0.11942 0.67942 0.46288 0.0
C590 C 0.07596 0.65089 0.45657 0.0
C591 C 0.1161 0.72924 0.482 0.0
C592 C 0.0265 0.72231 0.48539 0.0
C593 C 0.06982 0.75031 0.4944 0.0
N594 N 0.9888 0.64365 0.46047 0.0
C595 C 0.94299 0.66382 0.46582 0.0
C596 C 0.97957 0.74258 0.49497 0.0
C597 C 0.93761 0.71345 0.48382 0.0
Gd598 Gd 1.00289 0.46192 0.59363 0.0
Gd599 Gd 1.00218 0.55911 0.44301 0.0
N600 N 0.07814 0.60133 0.44479 0.0
C601 C 0.16492 0.6565 0.45189 0.0
C602 C 0.12212 0.57909 0.43198 0.0
C603 C 0.1662 0.60626 0.43556 0.0
H604 H 0.12336 0.54052 0.41894 0.0
H605 H 0.20114 0.58836 0.42619 0.0
H606 H 0.88246 0.48808 0.6187 0.0
H607 H 0.91064 0.64162 0.45596 0.0
H608 H 0.8022 0.44526 0.61109 0.0
H609 H 0.1992 0.67719 0.45594 0.0
H610 H 0.14911 0.75163 0.48814 0.0
H611 H 0.08854 0.37378 0.58617 0.0
H612 H 0.97533 0.78096 0.5093 0.0
H613 H 0.90118 0.7292 0.48903 0.0
H614 H 0.84429 0.27768 0.55709 0.0
H615 H 0.06777 0.78857 0.50983 0.0
H616 H 0.01587 0.23716 0.53847 0.0
H617 H 0.09299 0.28483 0.55692 0.0
N618 N 0.01076 0.3765 0.57939 0.0
C619 C 0.96792 0.35041 0.57406 0.0
C620 C 0.05518 0.35337 0.57595 0.0
C621 C 0.01396 0.27616 0.55066 0.0
C622 C 0.05759 0.30299 0.56063 0.0
C623 C 0.96836 0.29957 0.55878 0.0
H624 H 0.92302 0.235 0.53935 0.0
N625 N 0.92418 0.42485 0.59239 0.0
C626 C 0.92336 0.37501 0.58223 0.0
C627 C 0.83425 0.37477 0.58699 0.0
C628 C 0.87828 0.34892 0.57734 0.0
C629 C 0.88159 0.44969 0.60512 0.0
C630 C 0.83598 0.42521 0.60193 0.0
O631 O 0.04025 0.58108 0.53826 0.0
O632 O 0.07059 0.51105 0.58853 0.0
O633 O 0.97804 0.47988 0.69213 0.0
O634 O 0.03502 0.42511 0.67792 0.0
O635 O 0.04071 0.48554 0.43247 0.0
O636 O 0.07244 0.45954 0.53181 0.0
O637 O 0.96888 0.43875 0.49627 0.0
O638 O 0.93551 0.50846 0.44932 0.0
O639 O 0.02651 0.54085 0.34447 0.0
O640 O 0.97041 0.59643 0.35886 0.0
O641 O 0.96845 0.53737 0.60277 0.0
O642 O 0.93289 0.55876 0.50469 0.0
C643 C 0.07051 0.55928 0.57948 0.0
C644 C 0.07455 0.46276 0.46718 0.0
C645 C 0.0387 0.47422 0.77391 0.0
C646 C 0.04296 0.5033 0.88723 0.0
C647 C 0.11363 0.51314 0.81413 0.0
C648 C 0.08752 0.49003 0.76384 0.0
C649 C 0.09161 0.51978 0.87545 0.0
C650 C 0.0165 0.48093 0.83565 0.0
C651 C 0.01037 0.4514 0.72023 0.0
C652 C 0.87857 0.29827 0.56188 0.0
C653 C 0.92344 0.2739 0.55174 0.0
H654 H 0.79884 0.35607 0.58358 0.0
C655 C 0.93698 0.46013 0.45693 0.0
C656 C 0.93372 0.55949 0.56916 0.0
C657 C 0.96576 0.54725 0.26315 0.0
C658 C 0.96021 0.51955 0.14936 0.0
C659 C 0.89101 0.5072 0.22437 0.0
C660 C 0.91755 0.53001 0.27449 0.0
C661 C 0.91206 0.50201 0.16218 0.0
C662 C 0.98703 0.54189 0.20062 0.0
C663 C 0.99458 0.56978 0.31647 0.0
H664 H 0.1513 0.52535 0.80584 0.0
H665 H 0.10545 0.48402 0.71718 0.0
H666 H 0.11316 0.53664 0.91413 0.0
H667 H 0.97865 0.46885 0.84335 0.0
H668 H 0.85381 0.49392 0.23358 0.0
H669 H 0.90047 0.53455 0.32203 0.0
H670 H 0.8902 0.48518 0.1238 0.0
H671 H 0.02454 0.55476 0.19218 0.0
C672 C 0.13216 0.08161 0.40904 0.0
C673 C 0.08591 0.09854 0.43107 0.0
H674 H 0.19897 0.09831 0.35571 0.0
C675 C 0.07132 0.14659 0.41286 0.0
H676 H 0.14476 0.04495 0.42235 0.0
C677 C 0.10202 0.1768 0.37354 0.0
C678 C 0.14865 0.16028 0.35261 0.0
H679 H 0.03595 0.1608 0.42882 0.0
H680 H 0.08977 0.21368 0.36082 0.0
C681 C 0.16336 0.1123 0.37102 0.0
C682 C 0.12545 0.92766 0.66958 0.0
C683 C 0.11014 0.91442 0.60611 0.0
H684 H 0.17154 0.91023 0.75133 0.0
C685 C 0.13096 0.87228 0.5766 0.0
H686 H 0.11086 0.96016 0.69368 0.0
C687 C 0.16489 0.84318 0.61082 0.0
C688 C 0.17909 0.85624 0.67451 0.0
H689 H 0.12033 0.86113 0.52776 0.0
H690 H 0.17917 0.80991 0.58819 0.0
C691 C 0.15995 0.89906 0.70302 0.0
C692 C 0.37964 0.88923 0.82258 0.0
C693 C 0.34004 0.86519 0.85473 0.0
H694 H 0.44399 0.93531 0.83168 0.0
C695 C 0.33191 0.87605 0.92143 0.0
H696 H 0.38601 0.88411 0.77072 0.0
C697 C 0.36273 0.90913 0.95482 0.0
C698 C 0.40489 0.92926 0.92457 0.0
H699 H 0.30179 0.85896 0.94846 0.0
H700 H 0.35377 0.91853 1.00469 0.0
C701 C 0.41251 0.91957 0.85747 0.0
C702 C 0.38112 0.08284 0.16776 0.0
C703 C 0.39174 0.09033 0.1008 0.0
H704 H 0.34091 0.10598 0.25206 0.0
C705 C 0.36695 0.1282 0.06722 0.0
H706 H 0.39835 0.05329 0.19517 0.0
C707 C 0.33504 0.15992 0.10106 0.0
C708 C 0.32632 0.15364 0.16882 0.0
H709 H 0.37306 0.13425 1.01531 0.0
H710 H 0.31785 0.18981 0.07419 0.0
C711 C 0.34849 0.11365 0.20101 0.0
C712 C 0.87033 0.92477 0.63194 0.0
C713 C 0.91671 0.90716 0.61135 0.0
H714 H 0.80304 0.90997 0.68504 0.0
C715 C 0.9308 0.85948 0.63201 0.0
H716 H 0.85803 0.96115 0.61686 0.0
C717 C 0.89963 0.8305 0.67261 0.0
C718 C 0.85289 0.84782 0.69224 0.0
H719 H 0.96625 0.84473 0.6173 0.0
H720 H 0.91181 0.79407 0.68768 0.0
C721 C 0.83865 0.8953 0.67099 0.0
C722 C 0.90126 0.14552 0.44586 0.0
C723 C 0.89907 0.09434 0.4341 0.0
H724 H 0.87301 0.21722 0.42102 0.0
C725 C 0.86518 0.07583 0.38823 0.0
H726 H 0.92788 0.16052 0.48003 0.0
C727 C 0.83283 0.10792 0.35626 0.0
C728 C 0.83555 0.15907 0.36755 0.0
H729 H 0.86331 0.03662 0.37754 0.0
H730 H 0.80665 0.093 0.32135 0.0
C731 C 0.87027 0.17778 0.41199 0.0
C732 C 0.67688 0.10196 0.18306 0.0
C733 C 0.66646 0.15232 0.19196 0.0
H734 H 0.65418 0.03336 0.13923 0.0
C735 C 0.6219 0.17125 0.16844 0.0
H736 H 0.71089 0.08649 0.20143 0.0
C737 C 0.58783 0.14009 0.13753 0.0
C738 C 0.59929 0.09039 0.12465 0.0
H739 H 0.6131 0.21006 0.17482 0.0
H740 H 0.55269 0.15513 0.12285 0.0
C741 C 0.64418 0.07154 0.14812 0.0
C742 C 0.6206 0.86672 0.84994 0.0
C743 C 0.66777 0.85686 0.87412 0.0
H744 H 0.55255 0.90473 0.86322 0.0
C745 C 0.68157 0.8768 0.93512 0.0
H746 H 0.60774 0.84943 0.80569 0.0
C747 C 0.64942 0.90814 0.96941 0.0
C748 C 0.60284 0.91932 0.94348 0.0
H749 H 0.7175 0.86896 0.95559 0.0
H750 H 0.66131 0.92436 1.01525 0.0
C751 C 0.58864 0.89774 0.88384 0.0
C752 C 0.58265 0.65043 0.92216 0.0
C753 C 0.59733 0.60172 0.93698 0.0
H754 H 0.60007 0.71875 0.87188 0.0
C755 C 0.6432 0.58551 0.91273 0.0
H756 H 0.54765 0.66418 0.94 0.0
C757 C 0.67366 0.61705 0.87525 0.0
C758 C 0.65864 0.66536 0.85922 0.0
H759 H 0.65586 0.54832 0.92308 0.0
H760 H 0.70883 0.60325 0.85796 0.0
C761 C 0.61259 0.68162 0.88286 0.0
C762 C 0.61684 0.34263 0.1734 0.0
C763 C 0.66827 0.34966 0.17129 0.0
H764 H 0.54586 0.36955 0.14528 0.0
C765 C 0.68776 0.38728 0.13054 0.0
H766 H 0.60066 0.31215 0.20035 0.0
C767 C 0.65618 0.41842 0.09529 0.0
C768 C 0.60478 0.41327 0.1019 0.0
H769 H 0.72725 0.39312 0.12652 0.0
H770 H 0.67183 0.44762 0.06491 0.0
C771 C 0.58541 0.3749 0.14072 0.0
C772 C 0.86044 0.44714 0.38807 0.0
C773 C 0.90194 0.42778 0.42037 0.0
H774 H 0.79649 0.43145 0.32898 0.0
C775 C 0.90956 0.3763 0.41847 0.0
H776 H 0.85249 0.48631 0.39008 0.0
C777 C 0.87582 0.34493 0.38764 0.0
C778 C 0.83535 0.36438 0.35404 0.0
H779 H 0.94152 0.35992 0.4412 0.0
H780 H 0.8819 0.30533 0.38901 0.0
C781 C 0.82804 0.41578 0.3538 0.0
C782 C 0.82863 0.64639 0.61236 0.0
C783 C 0.83715 0.65419 0.67965 0.0
H784 H 0.85088 0.6085 0.5249 0.0
C785 C 0.87594 0.62901 0.70969 0.0
H786 H 0.79846 0.66466 0.58767 0.0
C787 C 0.90661 0.59821 0.67369 0.0
C788 C 0.89904 0.5911 0.60624 0.0
H789 H 0.88381 0.63393 0.76065 0.0
H790 H 0.93681 0.58054 0.69909 0.0
C791 C 0.85891 0.61456 0.57617 0.0
C792 C 0.32606 0.39477 0.14925 0.0
C793 C 0.34071 0.34875 0.17508 0.0
H794 H 0.34623 0.45936 0.09324 0.0
C795 C 0.38885 0.33227 0.16071 0.0
H796 H 0.28937 0.40872 0.15897 0.0
C797 C 0.42113 0.36081 0.12106 0.0
C798 C 0.40666 0.40726 0.09642 0.0
H799 H 0.40133 0.29688 0.17926 0.0
H800 H 0.45778 0.34697 0.11081 0.0
C801 C 0.35874 0.42385 0.11137 0.0
C802 C 0.35458 0.58536 0.93176 0.0
C803 C 0.40582 0.59346 0.93133 0.0
H804 H 0.28401 0.61049 0.89862 0.0
C805 C 0.42501 0.63659 0.90238 0.0
H806 H 0.33897 0.5527 0.95521 0.0
C807 C 0.39349 0.67084 0.87328 0.0
C808 C 0.34256 0.66123 0.86894 0.0
H809 H 0.46429 0.64416 0.90312 0.0
H810 H 0.40912 0.70475 0.85367 0.0
C811 C 0.32321 0.61857 0.89981 0.0
C812 C 0.13035 0.6741 0.65223 0.0
C813 C 0.16962 0.65415 0.68776 0.0
H814 H 0.06601 0.6596 0.5956 0.0
C815 C 0.1758 0.60258 0.68931 0.0
H816 H 0.12469 0.71382 0.65077 0.0
C817 C 0.14457 0.57162 0.65281 0.0
C818 C 0.10456 0.5914 0.61794 0.0
H819 H 0.20615 0.58648 0.71617 0.0
H820 H 0.15239 0.53244 0.65097 0.0
C821 C 0.09724 0.64298 0.6197 0.0
C822 C 0.14457 0.40566 0.32521 0.0
C823 C 0.17065 0.36771 0.35647 0.0
H824 H 0.09268 0.46426 0.33512 0.0
C825 C 0.17063 0.36619 0.42553 0.0
H826 H 0.14672 0.41077 0.27282 0.0
C827 C 0.14234 0.39942 0.46193 0.0
C828 C 0.11136 0.4332 0.43025 0.0
H829 H 0.1921 0.33902 0.45183 0.0
H830 H 0.1442 0.39776 0.51469 0.0
C831 C 0.11425 0.43715 0.36143 0.0
C832 C 0.98046 0.04887 0.02492 0.0
C833 C 0.98235 0.02471 0.96412 0.0
H834 H 0.99692 0.04698 0.12634 0.0
C835 C 0.00467 0.97777 0.96137 0.0
H836 H 0.96493 0.08545 0.02962 0.0
C837 C 0.02449 0.95596 1.01729 0.0
C838 C 0.02214 0.9799 0.07813 0.0
H839 H 0.00587 0.95664 0.91655 0.0
H840 H 0.04099 0.91984 1.0126 0.0
C841 C 0.99926 0.02652 0.08107 0.0
C842 C 0.27301 0.72215 0.32265 0.0
C843 C 0.29163 0.77075 0.32677 0.0
H844 H 0.23315 0.66886 0.26572 0.0
C845 C 0.28269 0.8036 0.27426 0.0
H846 H 0.27975 0.69563 0.36151 0.0
C847 C 0.25586 0.78828 0.21921 0.0
C848 C 0.23733 0.73967 0.21507 0.0
H849 H 0.2959 0.84154 0.27607 0.0
H850 H 0.24847 0.81491 0.18073 0.0
C851 C 0.24647 0.70677 0.26744 0.0
C852 C 0.47676 0.97986 0.55907 0.0
C853 C 0.47999 0.02431 0.59499 0.0
H854 H 0.49233 0.94197 0.4693 0.0
C855 C 0.50352 0.0654 0.56547 0.0
H856 H 0.45987 0.94706 0.58049 0.0
C857 C 0.52235 0.06235 0.50138 0.0
C858 C 0.51819 0.01811 0.46519 0.0
H859 H 0.50621 0.10037 0.59116 0.0
H860 H 0.53939 0.09498 0.47971 0.0
C861 C 0.4953 0.9769 0.49507 0.0
C862 C 0.22821 0.32072 0.76794 0.0
C863 C 0.24153 0.29778 0.82721 0.0
H864 H 0.23717 0.32252 0.66354 0.0
C865 C 0.26976 0.25431 0.8252 0.0
H866 H 0.20564 0.35368 0.7679 0.0
C867 C 0.28708 0.23618 0.76567 0.0
C868 C 0.27702 0.26131 0.70691 0.0
H869 H 0.28107 0.23582 0.86982 0.0
H870 H 0.31008 0.2035 0.7659 0.0
C871 C 0.24583 0.30263 0.7082 0.0
C872 C 0.76798 0.22501 0.82825 0.0
C873 C 0.79086 0.27184 0.83122 0.0
H874 H 0.724 0.17443 0.77247 0.0
C875 C 0.78574 0.30414 0.7771 0.0
H876 H 0.77183 0.19875 0.86814 0.0
C877 C 0.75836 0.29014 0.72185 0.0
C878 C 0.73508 0.24351 0.71922 0.0
H879 H 0.80232 0.34077 0.77779 0.0
H880 H 0.7542 0.31645 0.6821 0.0
C881 C 0.74073 0.211 0.773 0.0
C882 C 0.76495 0.73066 0.3344 0.0
C883 C 0.72667 0.76545 0.33448 0.0
H884 H 0.82085 0.69442 0.27832 0.0
C885 C 0.7159 0.79134 0.27648 0.0
H886 H 0.77373 0.70982 0.37826 0.0
C887 C 0.74298 0.7827 0.21947 0.0
C888 C 0.78139 0.74808 0.21948 0.0
H889 H 0.6871 0.81896 0.27542 0.0
H890 H 0.73433 0.80369 0.17568 0.0
C891 C 0.79194 0.72192 0.27731 0.0
C892 C 0.52357 0.45993 0.517 0.0
C893 C 0.5279 0.48733 0.57495 0.0
H894 H 0.49853 0.45771 0.41876 0.0
C895 C 0.50814 0.53506 0.57746 0.0
H896 H 0.53733 0.42239 0.51431 0.0
C897 C 0.48792 0.55659 0.52169 0.0
C898 C 0.48497 0.53018 0.46237 0.0
H899 H 0.51046 0.55677 0.62182 0.0
H900 H 0.47609 0.59456 0.5253 0.0
C901 C 0.50177 0.48077 0.46171 0.0
C902 C 0.99287 0.46892 0.98109 0.0
C903 C 0.02074 0.50805 0.95375 0.0
H904 H 0.95314 0.44124 0.06459 0.0
C905 C 0.02875 0.55094 0.99138 0.0
H906 H 0.98672 0.43503 0.95391 0.0
C907 C 0.00957 0.55448 0.05496 0.0
C908 C 0.9818 0.51527 0.08238 0.0
H909 H 0.04948 0.58204 0.97147 0.0
H910 H 0.0158 0.58832 0.08219 0.0
C911 C 0.97373 0.47244 0.04467 0.0
loop_
_geom_bond_atom_site_label_1
_geom_bond_atom_site_label_2
_geom_bond_distance
_geom_bond_site_symmetry_2
_ccdc_geom_bond_type
C0 C2 1.422 . S
C0 C4 1.415 . S
C0 N6 1.369 1_655 S
C1 C2 1.421 . S
C1 C3 1.417 . S
C1 C13 1.422 . S
C2 C0 1.422 . S
C2 C1 1.421 . S
C2 N12 1.359 . S
C3 C1 1.417 . S
C3 C5 1.329 . S
C3 H22 0.930 . S
C4 C0 1.415 . S
C4 C5 1.437 . S
C4 C8 1.413 1_655 S
C5 C3 1.329 . S
C5 C4 1.437 . S
C5 H27 0.929 . S
N6 C0 1.369 1_455 S
N6 C7 1.338 . S
N6 Gd11 2.622 . S
C7 N6 1.338 . S
C7 C9 1.378 . S
C7 H19 0.929 . S
C8 C4 1.413 1_455 S
C8 C9 1.348 . S
C8 H24 0.931 . S
C9 C7 1.378 . S
C9 C8 1.348 . S
C9 H25 0.930 . S
Gd10 N30 2.622 . S
Gd10 N37 2.570 1_655 S
Gd10 O44 2.353 1_545 S
Gd10 O45 2.468 1_655 S
Gd10 O46 2.427 . S
Gd10 O48 2.388 . S
Gd10 O49 2.386 1_655 S
Gd10 O53 2.307 1_645 S
Gd10 C63 2.805 . S
Gd11 N6 2.622 . S
Gd11 N12 2.570 1_455 S
Gd11 O43 2.386 1_455 S
Gd11 O47 2.307 1_465 S
Gd11 O50 2.353 1_565 S
Gd11 O51 2.468 1_455 S
Gd11 O52 2.427 . S
Gd11 O54 2.388 . S
Gd11 C75 2.805 . S
N12 C2 1.359 . S
N12 Gd11 2.570 1_655 S
N12 C14 1.343 . S
C13 C1 1.422 . S
C13 C15 1.321 . S
C13 H21 0.931 . S
C14 N12 1.343 . S
C14 C15 1.390 . S
C14 H16 0.931 . S
C15 C13 1.321 . S
C15 C14 1.390 . S
C15 H17 0.930 . S
H16 C14 0.931 . S
H17 C15 0.930 . S
H18 C41 0.931 . S
H19 C7 0.929 . S
H20 C42 0.930 . S
H21 C13 0.931 . S
H22 C3 0.930 . S
H23 C32 0.929 . S
H24 C8 0.931 . S
H25 C9 0.930 . S
H26 C64 0.930 . S
H27 C5 0.929 . S
H28 C33 0.931 . S
H29 C34 0.930 . S
N30 Gd10 2.622 . S
N30 C31 1.369 1_655 S
N30 C32 1.338 . S
C31 N30 1.369 1_455 S
C31 C35 1.415 . S
C31 C38 1.422 . S
C32 H23 0.929 . S
C32 N30 1.338 . S
C32 C34 1.378 . S
C33 H28 0.931 . S
C33 C34 1.348 . S
C33 C35 1.413 1_655 S
C34 H29 0.930 . S
C34 C32 1.378 . S
C34 C33 1.348 . S
C35 C31 1.415 . S
C35 C33 1.413 1_455 S
C35 C65 1.437 . S
H36 C65 0.929 . S
N37 Gd10 2.570 1_455 S
N37 C38 1.359 . S
N37 C41 1.343 . S
C38 C31 1.422 . S
C38 N37 1.359 . S
C38 C40 1.421 . S
C39 C40 1.422 . S
C39 C42 1.321 . S
C39 H66 0.931 . S
C40 C38 1.421 . S
C40 C39 1.422 . S
C40 C64 1.417 . S
C41 H18 0.931 . S
C41 N37 1.343 . S
C41 C42 1.390 . S
C42 H20 0.930 . S
C42 C39 1.321 . S
C42 C41 1.390 . S
O43 Gd11 2.386 1_655 S
O43 C55 1.265 . S
O44 Gd10 2.353 1_565 S
O44 C55 1.242 . S
O45 Gd10 2.468 1_455 S
O45 C63 1.263 1_455 S
O46 Gd10 2.427 . S
O46 C63 1.252 . S
O47 Gd11 2.307 1_645 S
O47 C56 1.261 . S
O48 Gd10 2.388 . S
O48 C56 1.252 . S
O49 Gd10 2.386 1_455 S
O49 C67 1.265 . S
O50 Gd11 2.353 1_545 S
O50 C67 1.242 . S
O51 Gd11 2.468 1_655 S
O51 C75 1.263 1_655 S
O52 Gd11 2.427 . S
O52 C75 1.252 . S
O53 Gd10 2.307 1_465 S
O53 C68 1.261 . S
O54 Gd11 2.388 . S
O54 C68 1.252 . S
C55 O43 1.265 . S
C55 O44 1.242 . S
C56 O47 1.261 . S
C56 O48 1.252 . S
C57 C60 1.394 . S
C57 C62 1.370 . S
C57 C63 1.500 . S
C58 C61 1.383 . S
C58 C62 1.395 . S
C59 C60 1.396 . S
C59 C61 1.365 . S
C59 H76 0.929 . S
C60 C57 1.394 . S
C60 C59 1.396 . S
C60 H77 0.930 . S
C61 C58 1.383 . S
C61 C59 1.365 . S
C61 H78 0.931 . S
C62 C57 1.370 . S
C62 C58 1.395 . S
C62 H79 0.930 1_645 S
C63 Gd10 2.805 . S
C63 O45 1.263 1_655 S
C63 O46 1.252 . S
C63 C57 1.500 . S
C64 H26 0.930 . S
C64 C40 1.417 . S
C64 C65 1.329 . S
C65 C35 1.437 . S
C65 H36 0.929 . S
C65 C64 1.329 . S
H66 C39 0.931 . S
C67 O49 1.265 . S
C67 O50 1.242 . S
C68 O53 1.261 . S
C68 O54 1.252 . S
C69 C72 1.394 . S
C69 C74 1.370 . S
C69 C75 1.500 . S
C70 C73 1.383 . S
C70 C74 1.395 . S
C71 C72 1.396 . S
C71 C73 1.365 . S
C71 H80 0.929 . S
C72 C69 1.394 . S
C72 C71 1.396 . S
C72 H81 0.930 . S
C73 C70 1.383 . S
C73 C71 1.365 . S
C73 H82 0.931 . S
C74 C69 1.370 . S
C74 C70 1.395 . S
C74 H83 0.930 1_465 S
C75 Gd11 2.805 . S
C75 O51 1.263 1_455 S
C75 O52 1.252 . S
C75 C69 1.500 . S
H76 C59 0.929 . S
H77 C60 0.930 . S
H78 C61 0.931 . S
H79 C62 0.930 1_465 S
H80 C71 0.929 . S
H81 C72 0.930 . S
H82 C73 0.931 . S
H83 C74 0.930 1_645 S
C84 C86 1.422 . S
C84 C88 1.415 . S
C84 N90 1.369 . S
C85 C86 1.421 . S
C85 C87 1.417 . S
C85 C97 1.422 . S
C86 C84 1.422 . S
C86 C85 1.421 . S
C86 N96 1.359 . S
C87 C85 1.417 . S
C87 C89 1.329 . S
C87 H106 0.930 . S
C88 C84 1.415 . S
C88 C89 1.437 . S
C88 C92 1.413 . S
C89 C87 1.329 . S
C89 C88 1.437 . S
C89 H111 0.929 . S
N90 C84 1.369 . S
N90 C91 1.338 . S
N90 Gd95 2.622 . S
C91 N90 1.338 . S
C91 C93 1.378 . S
C91 H103 0.929 . S
C92 C88 1.413 . S
C92 C93 1.348 . S
C92 H108 0.931 . S
C93 C91 1.378 . S
C93 C92 1.348 . S
C93 H109 0.930 . S
Gd94 N114 2.622 . S
Gd94 N121 2.570 . S
Gd94 O128 2.353 . S
Gd94 O129 2.468 . S
Gd94 O130 2.427 . S
Gd94 O132 2.388 . S
Gd94 O133 2.386 . S
Gd94 O137 2.307 . S
Gd94 C147 2.805 . S
Gd95 N90 2.622 . S
Gd95 N96 2.570 . S
Gd95 O127 2.386 . S
Gd95 O131 2.307 . S
Gd95 O134 2.353 . S
Gd95 O135 2.468 . S
Gd95 O136 2.427 . S
Gd95 O138 2.388 . S
Gd95 C159 2.805 . S
N96 C86 1.359 . S
N96 Gd95 2.570 . S
N96 C98 1.343 . S
C97 C85 1.422 . S
C97 C99 1.321 . S
C97 H105 0.931 . S
C98 N96 1.343 . S
C98 C99 1.390 . S
C98 H100 0.931 . S
C99 C97 1.321 . S
C99 C98 1.390 . S
C99 H101 0.930 . S
H100 C98 0.931 . S
H101 C99 0.930 . S
H102 C125 0.931 . S
H103 C91 0.929 . S
H104 C126 0.930 . S
H105 C97 0.931 . S
H106 C87 0.930 . S
H107 C116 0.929 . S
H108 C92 0.931 . S
H109 C93 0.930 . S
H110 C148 0.930 . S
H111 C89 0.929 . S
H112 C117 0.931 1_655 S
H113 C118 0.930 . S
N114 Gd94 2.622 . S
N114 C115 1.369 . S
N114 C116 1.338 . S
C115 N114 1.369 . S
C115 C119 1.415 . S
C115 C122 1.422 . S
C116 H107 0.929 . S
C116 N114 1.338 . S
C116 C118 1.378 . S
C117 H112 0.931 1_455 S
C117 C118 1.348 . S
C117 C119 1.413 . S
C118 H113 0.930 . S
C118 C116 1.378 . S
C118 C117 1.348 . S
C119 C115 1.415 . S
C119 C117 1.413 . S
C119 C149 1.437 . S
H120 C149 0.929 1_655 S
N121 Gd94 2.570 . S
N121 C122 1.359 . S
N121 C125 1.343 . S
C122 C115 1.422 . S
C122 N121 1.359 . S
C122 C124 1.421 . S
C123 C124 1.422 . S
C123 C126 1.321 . S
C123 H150 0.931 . S
C124 C122 1.421 . S
C124 C123 1.422 . S
C124 C148 1.417 . S
C125 H102 0.931 . S
C125 N121 1.343 . S
C125 C126 1.390 . S
C126 H104 0.930 . S
C126 C123 1.321 . S
C126 C125 1.390 . S
O127 Gd95 2.386 . S
O127 C139 1.265 . S
O128 Gd94 2.353 . S
O128 C139 1.242 . S
O129 Gd94 2.468 . S
O129 C147 1.263 . S
O130 Gd94 2.427 . S
O130 C147 1.252 . S
O131 Gd95 2.307 . S
O131 C140 1.261 . S
O132 Gd94 2.388 . S
O132 C140 1.252 . S
O133 Gd94 2.386 . S
O133 C151 1.265 . S
O134 Gd95 2.353 . S
O134 C151 1.242 . S
O135 Gd95 2.468 . S
O135 C159 1.263 . S
O136 Gd95 2.427 . S
O136 C159 1.252 . S
O137 Gd94 2.307 . S
O137 C152 1.261 . S
O138 Gd95 2.388 . S
O138 C152 1.252 . S
C139 O127 1.265 . S
C139 O128 1.242 . S
C140 O131 1.261 . S
C140 O132 1.252 . S
C141 C144 1.394 . S
C141 C146 1.370 . S
C141 C147 1.500 1_554 S
C142 C145 1.383 . S
C142 C146 1.395 . S
C143 C144 1.396 . S
C143 C145 1.365 . S
C143 H160 0.929 . S
C144 C141 1.394 . S
C144 C143 1.396 . S
C144 H161 0.930 . S
C145 C142 1.383 . S
C145 C143 1.365 . S
C145 H162 0.931 . S
C146 C141 1.370 . S
C146 C142 1.395 . S
C146 H163 0.930 . S
C147 Gd94 2.805 . S
C147 O129 1.263 . S
C147 O130 1.252 . S
C147 C141 1.500 1_556 S
C148 H110 0.930 . S
C148 C124 1.417 . S
C148 C149 1.329 . S
C149 C119 1.437 . S
C149 H120 0.929 1_455 S
C149 C148 1.329 . S
H150 C123 0.931 . S
C151 O133 1.265 . S
C151 O134 1.242 . S
C152 O137 1.261 . S
C152 O138 1.252 . S
C153 C156 1.394 . S
C153 C158 1.370 . S
C153 C159 1.500 . S
C154 C157 1.383 . S
C154 C158 1.395 . S
C155 C156 1.396 . S
C155 C157 1.365 . S
C155 H164 0.929 . S
C156 C153 1.394 . S
C156 C155 1.396 . S
C156 H165 0.930 . S
C157 C154 1.383 . S
C157 C155 1.365 . S
C157 H166 0.931 . S
C158 C153 1.370 . S
C158 C154 1.395 . S
C158 H167 0.930 . S
C159 Gd95 2.805 . S
C159 O135 1.263 . S
C159 O136 1.252 . S
C159 C153 1.500 . S
H160 C143 0.929 . S
H161 C144 0.930 . S
H162 C145 0.931 . S
H163 C146 0.930 . S
H164 C155 0.929 . S
H165 C156 0.930 . S
H166 C157 0.931 . S
H167 C158 0.930 . S
C168 C170 1.422 . S
C168 C172 1.415 . S
C168 N174 1.369 . S
C169 C170 1.421 . S
C169 C171 1.417 . S
C169 C181 1.422 . S
C170 C168 1.422 . S
C170 C169 1.421 . S
C170 N180 1.359 . S
C171 C169 1.417 . S
C171 C173 1.329 . S
C171 H190 0.930 . S
C172 C168 1.415 . S
C172 C173 1.437 . S
C172 C176 1.413 . S
C173 C171 1.329 . S
C173 C172 1.437 . S
C173 H195 0.929 . S
N174 C168 1.369 . S
N174 C175 1.338 . S
N174 Gd179 2.622 . S
C175 N174 1.338 . S
C175 C177 1.378 . S
C175 H187 0.929 . S
C176 C172 1.413 . S
C176 C177 1.348 . S
C176 H192 0.931 . S
C177 C175 1.378 . S
C177 C176 1.348 . S
C177 H193 0.930 . S
Gd178 N198 2.622 . S
Gd178 N205 2.570 . S
Gd178 O212 2.353 1_565 S
Gd178 O213 2.468 . S
Gd178 O214 2.427 . S
Gd178 O216 2.388 . S
Gd178 O217 2.386 1_554 S
Gd178 O221 2.307 1_565 S
Gd178 C231 2.805 . S
Gd179 N174 2.622 . S
Gd179 N180 2.570 . S
Gd179 O211 2.386 1_556 S
Gd179 O215 2.307 1_545 S
Gd179 O218 2.353 1_545 S
Gd179 O219 2.468 . S
Gd179 O220 2.427 . S
Gd179 O222 2.388 . S
Gd179 C243 2.805 . S
N180 C170 1.359 . S
N180 Gd179 2.570 . S
N180 C182 1.343 . S
C181 C169 1.422 . S
C181 C183 1.321 . S
C181 H189 0.931 . S
C182 N180 1.343 . S
C182 C183 1.390 . S
C182 H184 0.931 . S
C183 C181 1.321 . S
C183 C182 1.390 . S
C183 H185 0.930 . S
H184 C182 0.931 . S
H185 C183 0.930 . S
H186 C209 0.931 . S
H187 C175 0.929 . S
H188 C210 0.930 . S
H189 C181 0.931 . S
H190 C171 0.930 . S
H191 C200 0.929 . S
H192 C176 0.931 . S
H193 C177 0.930 . S
H194 C232 0.930 . S
H195 C173 0.929 . S
H196 C201 0.931 . S
H197 C202 0.930 . S
N198 Gd178 2.622 . S
N198 C199 1.369 . S
N198 C200 1.338 . S
C199 N198 1.369 . S
C199 C203 1.415 . S
C199 C206 1.422 . S
C200 H191 0.929 . S
C200 N198 1.338 . S
C200 C202 1.378 . S
C201 H196 0.931 . S
C201 C202 1.348 . S
C201 C203 1.413 . S
C202 H197 0.930 . S
C202 C200 1.378 . S
C202 C201 1.348 . S
C203 C199 1.415 . S
C203 C201 1.413 . S
C203 C233 1.437 . S
H204 C233 0.929 . S
N205 Gd178 2.570 . S
N205 C206 1.359 . S
N205 C209 1.343 . S
C206 C199 1.422 . S
C206 N205 1.359 . S
C206 C208 1.421 . S
C207 C208 1.422 . S
C207 C210 1.321 . S
C207 H234 0.931 . S
C208 C206 1.421 . S
C208 C207 1.422 . S
C208 C232 1.417 . S
C209 H186 0.931 . S
C209 N205 1.343 . S
C209 C210 1.390 . S
C210 H188 0.930 . S
C210 C207 1.321 . S
C210 C209 1.390 . S
O211 Gd179 2.386 1_554 S
O211 C223 1.265 . S
O212 Gd178 2.353 1_545 S
O212 C223 1.242 . S
O213 Gd178 2.468 . S
O213 C231 1.263 . S
O214 Gd178 2.427 . S
O214 C231 1.252 . S
O215 Gd179 2.307 1_565 S
O215 C224 1.261 . S
O216 Gd178 2.388 . S
O216 C224 1.252 1_554 S
O217 Gd178 2.386 1_556 S
O217 C235 1.265 . S
O218 Gd179 2.353 1_565 S
O218 C235 1.242 . S
O219 Gd179 2.468 . S
O219 C243 1.263 . S
O220 Gd179 2.427 . S
O220 C243 1.252 . S
O221 Gd178 2.307 1_545 S
O221 C236 1.261 . S
O222 Gd179 2.388 . S
O222 C236 1.252 1_556 S
C223 O211 1.265 . S
C223 O212 1.242 . S
C224 O215 1.261 . S
C224 O216 1.252 1_556 S
C225 C228 1.394 . S
C225 C230 1.370 . S
C225 C231 1.500 . S
C226 C229 1.383 . S
C226 C230 1.395 . S
C227 C228 1.396 . S
C227 C229 1.365 . S
C227 H244 0.929 . S
C228 C225 1.394 . S
C228 C227 1.396 . S
C228 H245 0.930 . S
C229 C226 1.383 . S
C229 C227 1.365 . S
C229 H246 0.931 . S
C230 C225 1.370 . S
C230 C226 1.395 . S
C230 H247 0.930 1_565 S
C231 Gd178 2.805 . S
C231 O213 1.263 . S
C231 O214 1.252 . S
C231 C225 1.500 . S
C232 H194 0.930 . S
C232 C208 1.417 . S
C232 C233 1.329 . S
C233 C203 1.437 . S
C233 H204 0.929 . S
C233 C232 1.329 . S
H234 C207 0.931 . S
C235 O217 1.265 . S
C235 O218 1.242 . S
C236 O221 1.261 . S
C236 O222 1.252 1_554 S
C237 C240 1.394 . S
C237 C242 1.370 . S
C237 C243 1.500 . S
C238 C241 1.383 . S
C238 C242 1.395 . S
C239 C240 1.396 . S
C239 C241 1.365 . S
C239 H248 0.929 . S
C240 C237 1.394 . S
C240 C239 1.396 . S
C240 H249 0.930 . S
C241 C238 1.383 . S
C241 C239 1.365 . S
C241 H250 0.931 . S
C242 C237 1.370 . S
C242 C238 1.395 . S
C242 H251 0.930 1_545 S
C243 Gd179 2.805 . S
C243 O219 1.263 . S
C243 O220 1.252 . S
C243 C237 1.500 . S
H244 C227 0.929 . S
H245 C228 0.930 . S
H246 C229 0.931 . S
H247 C230 0.930 1_545 S
H248 C239 0.929 . S
H249 C240 0.930 . S
H250 C241 0.931 . S
H251 C242 0.930 1_565 S
C252 C254 1.422 . S
C252 C256 1.415 . S
C252 N258 1.369 . S
C253 C254 1.421 . S
C253 C255 1.417 . S
C253 C265 1.422 . S
C254 C252 1.422 . S
C254 C253 1.421 . S
C254 N264 1.359 . S
C255 C253 1.417 . S
C255 C257 1.329 . S
C255 H274 0.930 . S
C256 C252 1.415 . S
C256 C257 1.437 . S
C256 C260 1.413 . S
C257 C255 1.329 . S
C257 C256 1.437 . S
C257 H279 0.929 . S
N258 C252 1.369 . S
N258 C259 1.338 . S
N258 Gd263 2.622 . S
C259 N258 1.338 . S
C259 C261 1.378 . S
C259 H271 0.929 . S
C260 C256 1.413 . S
C260 C261 1.348 . S
C260 H276 0.931 . S
C261 C259 1.378 . S
C261 C260 1.348 . S
C261 H277 0.930 . S
Gd262 N282 2.622 . S
Gd262 N289 2.570 . S
Gd262 O296 2.353 . S
Gd262 O297 2.468 . S
Gd262 O298 2.427 . S
Gd262 O300 2.388 . S
Gd262 O301 2.386 . S
Gd262 O305 2.307 . S
Gd262 C315 2.805 . S
Gd263 N258 2.622 . S
Gd263 N264 2.570 . S
Gd263 O295 2.386 . S
Gd263 O299 2.307 . S
Gd263 O302 2.353 . S
Gd263 O303 2.468 . S
Gd263 O304 2.427 . S
Gd263 O306 2.388 . S
Gd263 C327 2.805 . S
N264 C254 1.359 . S
N264 Gd263 2.570 . S
N264 C266 1.343 . S
C265 C253 1.422 . S
C265 C267 1.321 . S
C265 H273 0.931 . S
C266 N264 1.343 . S
C266 C267 1.390 . S
C266 H268 0.931 . S
C267 C265 1.321 . S
C267 C266 1.390 . S
C267 H269 0.930 . S
H268 C266 0.931 . S
H269 C267 0.930 . S
H270 C293 0.931 . S
H271 C259 0.929 . S
H272 C294 0.930 . S
H273 C265 0.931 . S
H274 C255 0.930 . S
H275 C284 0.929 . S
H276 C260 0.931 . S
H277 C261 0.930 . S
H278 C316 0.930 . S
H279 C257 0.929 . S
H280 C285 0.931 1_655 S
H281 C286 0.930 . S
N282 Gd262 2.622 . S
N282 C283 1.369 . S
N282 C284 1.338 . S
C283 N282 1.369 . S
C283 C287 1.415 . S
C283 C290 1.422 . S
C284 H275 0.929 . S
C284 N282 1.338 . S
C284 C286 1.378 . S
C285 H280 0.931 1_455 S
C285 C286 1.348 . S
C285 C287 1.413 . S
C286 H281 0.930 . S
C286 C284 1.378 . S
C286 C285 1.348 . S
C287 C283 1.415 . S
C287 C285 1.413 . S
C287 C317 1.437 . S
H288 C317 0.929 1_655 S
N289 Gd262 2.570 . S
N289 C290 1.359 . S
N289 C293 1.343 . S
C290 C283 1.422 . S
C290 N289 1.359 . S
C290 C292 1.421 . S
C291 C292 1.422 . S
C291 C294 1.321 . S
C291 H318 0.931 . S
C292 C290 1.421 . S
C292 C291 1.422 . S
C292 C316 1.417 . S
C293 H270 0.931 . S
C293 N289 1.343 . S
C293 C294 1.390 . S
C294 H272 0.930 . S
C294 C291 1.321 . S
C294 C293 1.390 . S
O295 Gd263 2.386 . S
O295 C307 1.265 . S
O296 Gd262 2.353 . S
O296 C307 1.242 . S
O297 Gd262 2.468 . S
O297 C315 1.263 . S
O298 Gd262 2.427 . S
O298 C315 1.252 . S
O299 Gd263 2.307 . S
O299 C308 1.261 . S
O300 Gd262 2.388 . S
O300 C308 1.252 . S
O301 Gd262 2.386 . S
O301 C319 1.265 . S
O302 Gd263 2.353 . S
O302 C319 1.242 . S
O303 Gd263 2.468 . S
O303 C327 1.263 . S
O304 Gd263 2.427 . S
O304 C327 1.252 . S
O305 Gd262 2.307 . S
O305 C320 1.261 . S
O306 Gd263 2.388 . S
O306 C320 1.252 . S
C307 O295 1.265 . S
C307 O296 1.242 . S
C308 O299 1.261 . S
C308 O300 1.252 . S
C309 C312 1.394 . S
C309 C314 1.370 . S
C309 C315 1.500 1_556 S
C310 C313 1.383 . S
C310 C314 1.395 . S
C311 C312 1.396 . S
C311 C313 1.365 . S
C311 H328 0.929 . S
C312 C309 1.394 . S
C312 C311 1.396 . S
C312 H329 0.930 . S
C313 C310 1.383 . S
C313 C311 1.365 . S
C313 H330 0.931 . S
C314 C309 1.370 . S
C314 C310 1.395 . S
C314 H331 0.930 . S
C315 Gd262 2.805 . S
C315 O297 1.263 . S
C315 O298 1.252 . S
C315 C309 1.500 1_554 S
C316 H278 0.930 . S
C316 C292 1.417 . S
C316 C317 1.329 . S
C317 C287 1.437 . S
C317 H288 0.929 1_455 S
C317 C316 1.329 . S
H318 C291 0.931 . S
C319 O301 1.265 . S
C319 O302 1.242 . S
C320 O305 1.261 . S
C320 O306 1.252 . S
C321 C324 1.394 . S
C321 C326 1.370 . S
C321 C327 1.500 . S
C322 C325 1.383 . S
C322 C326 1.395 . S
C323 C324 1.396 . S
C323 C325 1.365 . S
C323 H332 0.929 . S
C324 C321 1.394 . S
C324 C323 1.396 . S
C324 H333 0.930 . S
C325 C322 1.383 . S
C325 C323 1.365 . S
C325 H334 0.931 . S
C326 C321 1.370 . S
C326 C322 1.395 . S
C326 H335 0.930 . S
C327 Gd263 2.805 . S
C327 O303 1.263 . S
C327 O304 1.252 . S
C327 C321 1.500 . S
H328 C311 0.929 . S
H329 C312 0.930 . S
H330 C313 0.931 . S
H331 C314 0.930 . S
H332 C323 0.929 . S
H333 C324 0.930 . S
H334 C325 0.931 . S
H335 C326 0.930 . S
C336 C338 1.422 . S
C336 C340 1.415 . S
C336 N342 1.369 . S
C337 C338 1.421 . S
C337 C339 1.417 . S
C337 C349 1.422 . S
C338 C336 1.422 . S
C338 C337 1.421 . S
C338 N348 1.359 . S
C339 C337 1.417 . S
C339 C341 1.329 . S
C339 H358 0.930 . S
C340 C336 1.415 . S
C340 C341 1.437 . S
C340 C344 1.413 . S
C341 C339 1.329 . S
C341 C340 1.437 . S
C341 H363 0.929 1_655 S
N342 C336 1.369 . S
N342 C343 1.338 . S
N342 Gd347 2.622 . S
C343 N342 1.338 . S
C343 C345 1.378 . S
C343 H355 0.929 . S
C344 C340 1.413 . S
C344 C345 1.348 . S
C344 H360 0.931 1_655 S
C345 C343 1.378 . S
C345 C344 1.348 . S
C345 H361 0.930 . S
Gd346 N366 2.622 . S
Gd346 N373 2.570 . S
Gd346 O380 2.353 . S
Gd346 O381 2.468 . S
Gd346 O382 2.427 . S
Gd346 O384 2.388 . S
Gd346 O385 2.386 . S
Gd346 O389 2.307 . S
Gd346 C399 2.805 . S
Gd347 N342 2.622 . S
Gd347 N348 2.570 . S
Gd347 O379 2.386 . S
Gd347 O383 2.307 . S
Gd347 O386 2.353 . S
Gd347 O387 2.468 . S
Gd347 O388 2.427 . S
Gd347 O390 2.388 . S
Gd347 C411 2.805 . S
N348 C338 1.359 . S
N348 Gd347 2.570 . S
N348 C350 1.343 . S
C349 C337 1.422 . S
C349 C351 1.321 . S
C349 H357 0.931 . S
C350 N348 1.343 . S
C350 C351 1.390 . S
C350 H352 0.931 . S
C351 C349 1.321 . S
C351 C350 1.390 . S
C351 H353 0.930 . S
H352 C350 0.931 . S
H353 C351 0.930 . S
H354 C377 0.931 . S
H355 C343 0.929 . S
H356 C378 0.930 . S
H357 C349 0.931 . S
H358 C339 0.930 . S
H359 C368 0.929 . S
H360 C344 0.931 1_455 S
H361 C345 0.930 . S
H362 C400 0.930 . S
H363 C341 0.929 1_455 S
H364 C369 0.931 . S
H365 C370 0.930 . S
N366 Gd346 2.622 . S
N366 C367 1.369 . S
N366 C368 1.338 . S
C367 N366 1.369 . S
C367 C371 1.415 . S
C367 C374 1.422 . S
C368 H359 0.929 . S
C368 N366 1.338 . S
C368 C370 1.378 . S
C369 H364 0.931 . S
C369 C370 1.348 . S
C369 C371 1.413 . S
C370 H365 0.930 . S
C370 C368 1.378 . S
C370 C369 1.348 . S
C371 C367 1.415 . S
C371 C369 1.413 . S
C371 C401 1.437 . S
H372 C401 0.929 . S
N373 Gd346 2.570 . S
N373 C374 1.359 . S
N373 C377 1.343 . S
C374 C367 1.422 . S
C374 N373 1.359 . S
C374 C376 1.421 . S
C375 C376 1.422 . S
C375 C378 1.321 . S
C375 H402 0.931 . S
C376 C374 1.421 . S
C376 C375 1.422 . S
C376 C400 1.417 . S
C377 H354 0.931 . S
C377 N373 1.343 . S
C377 C378 1.390 . S
C378 H356 0.930 . S
C378 C375 1.321 . S
C378 C377 1.390 . S
O379 Gd347 2.386 . S
O379 C391 1.265 . S
O380 Gd346 2.353 . S
O380 C391 1.242 . S
O381 Gd346 2.468 . S
O381 C399 1.263 . S
O382 Gd346 2.427 . S
O382 C399 1.252 . S
O383 Gd347 2.307 . S
O383 C392 1.261 . S
O384 Gd346 2.388 . S
O384 C392 1.252 . S
O385 Gd346 2.386 . S
O385 C403 1.265 . S
O386 Gd347 2.353 . S
O386 C403 1.242 . S
O387 Gd347 2.468 . S
O387 C411 1.263 . S
O388 Gd347 2.427 . S
O388 C411 1.252 . S
O389 Gd346 2.307 . S
O389 C404 1.261 . S
O390 Gd347 2.388 . S
O390 C404 1.252 . S
C391 O379 1.265 . S
C391 O380 1.242 . S
C392 O383 1.261 . S
C392 O384 1.252 . S
C393 C396 1.394 . S
C393 C398 1.370 . S
C393 C399 1.500 . S
C394 C397 1.383 . S
C394 C398 1.395 . S
C395 C396 1.396 . S
C395 C397 1.365 . S
C395 H412 0.929 . S
C396 C393 1.394 . S
C396 C395 1.396 . S
C396 H413 0.930 . S
C397 C394 1.383 . S
C397 C395 1.365 . S
C397 H414 0.931 . S
C398 C393 1.370 . S
C398 C394 1.395 . S
C398 H415 0.930 . S
C399 Gd346 2.805 . S
C399 O381 1.263 . S
C399 O382 1.252 . S
C399 C393 1.500 . S
C400 H362 0.930 . S
C400 C376 1.417 . S
C400 C401 1.329 . S
C401 C371 1.437 . S
C401 H372 0.929 . S
C401 C400 1.329 . S
H402 C375 0.931 . S
C403 O385 1.265 . S
C403 O386 1.242 . S
C404 O389 1.261 . S
C404 O390 1.252 . S
C405 C408 1.394 . S
C405 C410 1.370 . S
C405 C411 1.500 1_556 S
C406 C409 1.383 . S
C406 C410 1.395 . S
C407 C408 1.396 . S
C407 C409 1.365 . S
C407 H416 0.929 . S
C408 C405 1.394 . S
C408 C407 1.396 . S
C408 H417 0.930 . S
C409 C406 1.383 . S
C409 C407 1.365 . S
C409 H418 0.931 . S
C410 C405 1.370 . S
C410 C406 1.395 . S
C410 H419 0.930 . S
C411 Gd347 2.805 . S
C411 O387 1.263 . S
C411 O388 1.252 . S
C411 C405 1.500 1_554 S
H412 C395 0.929 . S
H413 C396 0.930 . S
H414 C397 0.931 . S
H415 C398 0.930 . S
H416 C407 0.929 . S
H417 C408 0.930 . S
H418 C409 0.931 . S
H419 C410 0.930 . S
C420 C422 1.422 . S
C420 C424 1.415 . S
C420 N426 1.369 . S
C421 C422 1.421 . S
C421 C423 1.417 . S
C421 C433 1.422 . S
C422 C420 1.422 . S
C422 C421 1.421 . S
C422 N432 1.359 . S
C423 C421 1.417 . S
C423 C425 1.329 . S
C423 H442 0.930 . S
C424 C420 1.415 . S
C424 C425 1.437 . S
C424 C428 1.413 . S
C425 C423 1.329 . S
C425 C424 1.437 . S
C425 H447 0.929 1_655 S
N426 C420 1.369 . S
N426 C427 1.338 . S
N426 Gd431 2.622 . S
C427 N426 1.338 . S
C427 C429 1.378 . S
C427 H439 0.929 . S
C428 C424 1.413 . S
C428 C429 1.348 . S
C428 H444 0.931 1_655 S
C429 C427 1.378 . S
C429 C428 1.348 . S
C429 H445 0.930 . S
Gd430 N450 2.622 . S
Gd430 N457 2.570 . S
Gd430 O464 2.353 . S
Gd430 O465 2.468 . S
Gd430 O466 2.427 . S
Gd430 O468 2.388 . S
Gd430 O469 2.386 . S
Gd430 O473 2.307 . S
Gd430 C483 2.805 . S
Gd431 N426 2.622 . S
Gd431 N432 2.570 . S
Gd431 O463 2.386 . S
Gd431 O467 2.307 . S
Gd431 O470 2.353 . S
Gd431 O471 2.468 . S
Gd431 O472 2.427 . S
Gd431 O474 2.388 . S
Gd431 C495 2.805 . S
N432 C422 1.359 . S
N432 Gd431 2.570 . S
N432 C434 1.343 . S
C433 C421 1.422 . S
C433 C435 1.321 . S
C433 H441 0.931 . S
C434 N432 1.343 . S
C434 C435 1.390 . S
C434 H436 0.931 . S
C435 C433 1.321 . S
C435 C434 1.390 . S
C435 H437 0.930 . S
H436 C434 0.931 . S
H437 C435 0.930 . S
H438 C461 0.931 . S
H439 C427 0.929 . S
H440 C462 0.930 . S
H441 C433 0.931 . S
H442 C423 0.930 . S
H443 C452 0.929 . S
H444 C428 0.931 1_455 S
H445 C429 0.930 . S
H446 C484 0.930 . S
H447 C425 0.929 1_455 S
H448 C453 0.931 . S
H449 C454 0.930 . S
N450 Gd430 2.622 . S
N450 C451 1.369 . S
N450 C452 1.338 . S
C451 N450 1.369 . S
C451 C455 1.415 . S
C451 C458 1.422 . S
C452 H443 0.929 . S
C452 N450 1.338 . S
C452 C454 1.378 . S
C453 H448 0.931 . S
C453 C454 1.348 . S
C453 C455 1.413 . S
C454 H449 0.930 . S
C454 C452 1.378 . S
C454 C453 1.348 . S
C455 C451 1.415 . S
C455 C453 1.413 . S
C455 C485 1.437 . S
H456 C485 0.929 . S
N457 Gd430 2.570 . S
N457 C458 1.359 . S
N457 C461 1.343 . S
C458 C451 1.422 . S
C458 N457 1.359 . S
C458 C460 1.421 . S
C459 C460 1.422 . S
C459 C462 1.321 . S
C459 H486 0.931 . S
C460 C458 1.421 . S
C460 C459 1.422 . S
C460 C484 1.417 . S
C461 H438 0.931 . S
C461 N457 1.343 . S
C461 C462 1.390 . S
C462 H440 0.930 . S
C462 C459 1.321 . S
C462 C461 1.390 . S
O463 Gd431 2.386 . S
O463 C475 1.265 . S
O464 Gd430 2.353 . S
O464 C475 1.242 . S
O465 Gd430 2.468 . S
O465 C483 1.263 . S
O466 Gd430 2.427 . S
O466 C483 1.252 . S
O467 Gd431 2.307 . S
O467 C476 1.261 . S
O468 Gd430 2.388 . S
O468 C476 1.252 . S
O469 Gd430 2.386 . S
O469 C487 1.265 . S
O470 Gd431 2.353 . S
O470 C487 1.242 . S
O471 Gd431 2.468 . S
O471 C495 1.263 . S
O472 Gd431 2.427 . S
O472 C495 1.252 . S
O473 Gd430 2.307 . S
O473 C488 1.261 . S
O474 Gd431 2.388 . S
O474 C488 1.252 . S
C475 O463 1.265 . S
C475 O464 1.242 . S
C476 O467 1.261 . S
C476 O468 1.252 . S
C477 C480 1.394 . S
C477 C482 1.370 . S
C477 C483 1.500 . S
C478 C481 1.383 . S
C478 C482 1.395 . S
C479 C480 1.396 . S
C479 C481 1.365 . S
C479 H496 0.929 . S
C480 C477 1.394 . S
C480 C479 1.396 . S
C480 H497 0.930 . S
C481 C478 1.383 . S
C481 C479 1.365 . S
C481 H498 0.931 . S
C482 C477 1.370 . S
C482 C478 1.395 . S
C482 H499 0.930 . S
C483 Gd430 2.805 . S
C483 O465 1.263 . S
C483 O466 1.252 . S
C483 C477 1.500 . S
C484 H446 0.930 . S
C484 C460 1.417 . S
C484 C485 1.329 . S
C485 C455 1.437 . S
C485 H456 0.929 . S
C485 C484 1.329 . S
H486 C459 0.931 . S
C487 O469 1.265 . S
C487 O470 1.242 . S
C488 O473 1.261 . S
C488 O474 1.252 . S
C489 C492 1.394 . S
C489 C494 1.370 . S
C489 C495 1.500 1_554 S
C490 C493 1.383 . S
C490 C494 1.395 . S
C491 C492 1.396 . S
C491 C493 1.365 . S
C491 H500 0.929 . S
C492 C489 1.394 . S
C492 C491 1.396 . S
C492 H501 0.930 . S
C493 C490 1.383 . S
C493 C491 1.365 . S
C493 H502 0.931 . S
C494 C489 1.370 . S
C494 C490 1.395 . S
C494 H503 0.930 . S
C495 Gd431 2.805 . S
C495 O471 1.263 . S
C495 O472 1.252 . S
C495 C489 1.500 1_556 S
H496 C479 0.929 . S
H497 C480 0.930 . S
H498 C481 0.931 . S
H499 C482 0.930 . S
H500 C491 0.929 . S
H501 C492 0.930 . S
H502 C493 0.931 . S
H503 C494 0.930 . S
C504 C506 1.422 . S
C504 C508 1.415 . S
C504 N510 1.369 . S
C505 C506 1.421 . S
C505 C507 1.417 . S
C505 C517 1.422 . S
C506 C504 1.422 . S
C506 C505 1.421 . S
C506 N516 1.359 . S
C507 C505 1.417 . S
C507 C509 1.329 . S
C507 H526 0.930 . S
C508 C504 1.415 . S
C508 C509 1.437 . S
C508 C512 1.413 . S
C509 C507 1.329 . S
C509 C508 1.437 . S
C509 H531 0.929 . S
N510 C504 1.369 . S
N510 C511 1.338 . S
N510 Gd515 2.622 . S
C511 N510 1.338 . S
C511 C513 1.378 . S
C511 H523 0.929 . S
C512 C508 1.413 . S
C512 C513 1.348 . S
C512 H528 0.931 . S
C513 C511 1.378 . S
C513 C512 1.348 . S
C513 H529 0.930 . S
Gd514 N534 2.622 . S
Gd514 N541 2.570 . S
Gd514 O548 2.353 . S
Gd514 O549 2.468 . S
Gd514 O550 2.427 . S
Gd514 O552 2.388 . S
Gd514 O553 2.386 1_554 S
Gd514 O557 2.307 . S
Gd514 C567 2.805 . S
Gd515 N510 2.622 . S
Gd515 N516 2.570 . S
Gd515 O547 2.386 1_556 S
Gd515 O551 2.307 . S
Gd515 O554 2.353 . S
Gd515 O555 2.468 . S
Gd515 O556 2.427 . S
Gd515 O558 2.388 . S
Gd515 C579 2.805 . S
N516 C506 1.359 . S
N516 Gd515 2.570 . S
N516 C518 1.343 . S
C517 C505 1.422 . S
C517 C519 1.321 . S
C517 H525 0.931 . S
C518 N516 1.343 . S
C518 C519 1.390 . S
C518 H520 0.931 . S
C519 C517 1.321 . S
C519 C518 1.390 . S
C519 H521 0.930 . S
H520 C518 0.931 . S
H521 C519 0.930 . S
H522 C545 0.931 . S
H523 C511 0.929 . S
H524 C546 0.930 . S
H525 C517 0.931 . S
H526 C507 0.930 . S
H527 C536 0.929 . S
H528 C512 0.931 . S
H529 C513 0.930 . S
H530 C568 0.930 . S
H531 C509 0.929 . S
H532 C537 0.931 . S
H533 C538 0.930 . S
N534 Gd514 2.622 . S
N534 C535 1.369 . S
N534 C536 1.338 . S
C535 N534 1.369 . S
C535 C539 1.415 . S
C535 C542 1.422 . S
C536 H527 0.929 . S
C536 N534 1.338 . S
C536 C538 1.378 . S
C537 H532 0.931 . S
C537 C538 1.348 . S
C537 C539 1.413 . S
C538 H533 0.930 . S
C538 C536 1.378 . S
C538 C537 1.348 . S
C539 C535 1.415 . S
C539 C537 1.413 . S
C539 C569 1.437 . S
H540 C569 0.929 . S
N541 Gd514 2.570 . S
N541 C542 1.359 . S
N541 C545 1.343 . S
C542 C535 1.422 . S
C542 N541 1.359 . S
C542 C544 1.421 . S
C543 C544 1.422 . S
C543 C546 1.321 . S
C543 H570 0.931 . S
C544 C542 1.421 . S
C544 C543 1.422 . S
C544 C568 1.417 . S
C545 H522 0.931 . S
C545 N541 1.343 . S
C545 C546 1.390 . S
C546 H524 0.930 . S
C546 C543 1.321 . S
C546 C545 1.390 . S
O547 Gd515 2.386 1_554 S
O547 C559 1.265 . S
O548 Gd514 2.353 . S
O548 C559 1.242 . S
O549 Gd514 2.468 . S
O549 C567 1.263 . S
O550 Gd514 2.427 . S
O550 C567 1.252 . S
O551 Gd515 2.307 . S
O551 C560 1.261 . S
O552 Gd514 2.388 . S
O552 C560 1.252 1_554 S
O553 Gd514 2.386 1_556 S
O553 C571 1.265 . S
O554 Gd515 2.353 . S
O554 C571 1.242 . S
O555 Gd515 2.468 . S
O555 C579 1.263 . S
O556 Gd515 2.427 . S
O556 C579 1.252 . S
O557 Gd514 2.307 . S
O557 C572 1.261 . S
O558 Gd515 2.388 . S
O558 C572 1.252 1_556 S
C559 O547 1.265 . S
C559 O548 1.242 . S
C560 O551 1.261 . S
C560 O552 1.252 1_556 S
C561 C564 1.394 . S
C561 C566 1.370 . S
C561 C567 1.500 . S
C562 C565 1.383 . S
C562 C566 1.395 . S
C563 C564 1.396 . S
C563 C565 1.365 . S
C563 H580 0.929 . S
C564 C561 1.394 . S
C564 C563 1.396 . S
C564 H581 0.930 . S
C565 C562 1.383 . S
C565 C563 1.365 . S
C565 H582 0.931 . S
C566 C561 1.370 . S
C566 C562 1.395 . S
C566 H583 0.930 . S
C567 Gd514 2.805 . S
C567 O549 1.263 . S
C567 O550 1.252 . S
C567 C561 1.500 . S
C568 H530 0.930 . S
C568 C544 1.417 . S
C568 C569 1.329 . S
C569 C539 1.437 . S
C569 H540 0.929 . S
C569 C568 1.329 . S
H570 C543 0.931 . S
C571 O553 1.265 . S
C571 O554 1.242 . S
C572 O557 1.261 . S
C572 O558 1.252 1_554 S
C573 C576 1.394 . S
C573 C578 1.370 . S
C573 C579 1.500 . S
C574 C577 1.383 . S
C574 C578 1.395 . S
C575 C576 1.396 . S
C575 C577 1.365 . S
C575 H584 0.929 . S
C576 C573 1.394 . S
C576 C575 1.396 . S
C576 H585 0.930 . S
C577 C574 1.383 . S
C577 C575 1.365 . S
C577 H586 0.931 . S
C578 C573 1.370 . S
C578 C574 1.395 . S
C578 H587 0.930 . S
C579 Gd515 2.805 . S
C579 O555 1.263 . S
C579 O556 1.252 . S
C579 C573 1.500 . S
H580 C563 0.929 . S
H581 C564 0.930 . S
H582 C565 0.931 . S
H583 C566 0.930 . S
H584 C575 0.929 . S
H585 C576 0.930 . S
H586 C577 0.931 . S
H587 C578 0.930 . S
C588 C590 1.422 . S
C588 C592 1.415 . S
C588 N594 1.369 1_455 S
C589 C590 1.421 . S
C589 C591 1.417 . S
C589 C601 1.422 . S
C590 C588 1.422 . S
C590 C589 1.421 . S
C590 N600 1.359 . S
C591 C589 1.417 . S
C591 C593 1.329 . S
C591 H610 0.930 . S
C592 C588 1.415 . S
C592 C593 1.437 . S
C592 C596 1.413 1_455 S
C593 C591 1.329 . S
C593 C592 1.437 . S
C593 H615 0.929 . S
N594 C588 1.369 1_655 S
N594 C595 1.338 . S
N594 Gd599 2.622 . S
C595 N594 1.338 . S
C595 C597 1.378 . S
C595 H607 0.929 . S
C596 C592 1.413 1_655 S
C596 C597 1.348 . S
C596 H612 0.931 . S
C597 C595 1.378 . S
C597 C596 1.348 . S
C597 H613 0.930 . S
Gd598 N618 2.622 . S
Gd598 N625 2.570 1_455 S
Gd598 O632 2.353 . S
Gd598 O633 2.468 1_455 S
Gd598 O634 2.427 . S
Gd598 O636 2.388 . S
Gd598 O637 2.386 1_455 S
Gd598 O641 2.307 1_455 S
Gd598 C651 2.805 . S
Gd599 N594 2.622 . S
Gd599 N600 2.570 1_655 S
Gd599 O631 2.386 1_655 S
Gd599 O635 2.307 1_655 S
Gd599 O638 2.353 . S
Gd599 O639 2.468 1_655 S
Gd599 O640 2.427 . S
Gd599 O642 2.388 . S
Gd599 C663 2.805 . S
N600 C590 1.359 . S
N600 Gd599 2.570 1_455 S
N600 C602 1.343 . S
C601 C589 1.422 . S
C601 C603 1.321 . S
C601 H609 0.931 . S
C602 N600 1.343 . S
C602 C603 1.390 . S
C602 H604 0.931 . S
C603 C601 1.321 . S
C603 C602 1.390 . S
C603 H605 0.930 . S
H604 C602 0.931 . S
H605 C603 0.930 . S
H606 C629 0.931 . S
H607 C595 0.929 . S
H608 C630 0.930 . S
H609 C601 0.931 . S
H610 C591 0.930 . S
H611 C620 0.929 . S
H612 C596 0.931 . S
H613 C597 0.930 . S
H614 C652 0.930 . S
H615 C593 0.929 . S
H616 C621 0.931 . S
H617 C622 0.930 . S
N618 Gd598 2.622 . S
N618 C619 1.369 1_455 S
N618 C620 1.338 . S
C619 N618 1.369 1_655 S
C619 C623 1.415 . S
C619 C626 1.422 . S
C620 H611 0.929 . S
C620 N618 1.338 . S
C620 C622 1.378 . S
C621 H616 0.931 . S
C621 C622 1.348 . S
C621 C623 1.413 1_455 S
C622 H617 0.930 . S
C622 C620 1.378 . S
C622 C621 1.348 . S
C623 C619 1.415 . S
C623 C621 1.413 1_655 S
C623 C653 1.437 . S
H624 C653 0.929 . S
N625 Gd598 2.570 1_655 S
N625 C626 1.359 . S
N625 C629 1.343 . S
C626 C619 1.422 . S
C626 N625 1.359 . S
C626 C628 1.421 . S
C627 C628 1.422 . S
C627 C630 1.321 . S
C627 H654 0.931 . S
C628 C626 1.421 . S
C628 C627 1.422 . S
C628 C652 1.417 . S
C629 H606 0.931 . S
C629 N625 1.343 . S
C629 C630 1.390 . S
C630 H608 0.930 . S
C630 C627 1.321 . S
C630 C629 1.390 . S
O631 Gd599 2.386 1_455 S
O631 C643 1.265 . S
O632 Gd598 2.353 . S
O632 C643 1.242 . S
O633 Gd598 2.468 1_655 S
O633 C651 1.263 1_655 S
O634 Gd598 2.427 . S
O634 C651 1.252 . S
O635 Gd599 2.307 1_455 S
O635 C644 1.261 . S
O636 Gd598 2.388 . S
O636 C644 1.252 . S
O637 Gd598 2.386 1_655 S
O637 C655 1.265 . S
O638 Gd599 2.353 . S
O638 C655 1.242 . S
O639 Gd599 2.468 1_455 S
O639 C663 1.263 1_455 S
O640 Gd599 2.427 . S
O640 C663 1.252 . S
O641 Gd598 2.307 1_655 S
O641 C656 1.261 . S
O642 Gd599 2.388 . S
O642 C656 1.252 . S
C643 O631 1.265 . S
C643 O632 1.242 . S
C644 O635 1.261 . S
C644 O636 1.252 . S
C645 C648 1.394 . S
C645 C650 1.370 . S
C645 C651 1.500 . S
C646 C649 1.383 . S
C646 C650 1.395 . S
C647 C648 1.396 . S
C647 C649 1.365 . S
C647 H664 0.929 . S
C648 C645 1.394 . S
C648 C647 1.396 . S
C648 H665 0.930 . S
C649 C646 1.383 . S
C649 C647 1.365 . S
C649 H666 0.931 . S
C650 C645 1.370 . S
C650 C646 1.395 . S
C650 H667 0.930 1_455 S
C651 Gd598 2.805 . S
C651 O633 1.263 1_455 S
C651 O634 1.252 . S
C651 C645 1.500 . S
C652 H614 0.930 . S
C652 C628 1.417 . S
C652 C653 1.329 . S
C653 C623 1.437 . S
C653 H624 0.929 . S
C653 C652 1.329 . S
H654 C627 0.931 . S
C655 O637 1.265 . S
C655 O638 1.242 . S
C656 O641 1.261 . S
C656 O642 1.252 . S
C657 C660 1.394 . S
C657 C662 1.370 . S
C657 C663 1.500 . S
C658 C661 1.383 . S
C658 C662 1.395 . S
C659 C660 1.396 . S
C659 C661 1.365 . S
C659 H668 0.929 . S
C660 C657 1.394 . S
C660 C659 1.396 . S
C660 H669 0.930 . S
C661 C658 1.383 . S
C661 C659 1.365 . S
C661 H670 0.931 . S
C662 C657 1.370 . S
C662 C658 1.395 . S
C662 H671 0.930 1_655 S
C663 Gd599 2.805 . S
C663 O639 1.263 1_655 S
C663 O640 1.252 . S
C663 C657 1.500 . S
H664 C647 0.929 . S
H665 C648 0.930 . S
H666 C649 0.931 . S
H667 C650 0.930 1_655 S
H668 C659 0.929 . S
H669 C660 0.930 . S
H670 C661 0.931 . S
H671 C662 0.930 1_455 S
C672 C673 1.387 . S
C672 H676 0.950 . S
C672 C681 1.390 . S
C673 C672 1.387 . S
C673 C675 1.387 . S
H674 C681 0.950 . S
C675 C673 1.387 . S
C675 C677 1.390 . S
C675 H679 0.950 . S
H676 C672 0.950 . S
C677 C675 1.390 . S
C677 C678 1.387 . S
C677 H680 0.950 . S
C678 C677 1.387 . S
C678 C681 1.387 . S
H679 C675 0.950 . S
H680 C677 0.950 . S
C681 C672 1.390 . S
C681 H674 0.950 . S
C681 C678 1.387 . S
C682 C683 1.387 . S
C682 H686 0.950 . S
C682 C691 1.390 . S
C683 C682 1.387 . S
C683 C685 1.387 . S
H684 C691 0.950 . S
C685 C683 1.387 . S
C685 C687 1.390 . S
C685 H689 0.950 . S
H686 C682 0.950 . S
C687 C685 1.390 . S
C687 C688 1.387 . S
C687 H690 0.950 . S
C688 C687 1.387 . S
C688 C691 1.387 . S
H689 C685 0.950 . S
H690 C687 0.950 . S
C691 C682 1.390 . S
C691 H684 0.950 . S
C691 C688 1.387 . S
C692 C693 1.387 . S
C692 H696 0.950 . S
C692 C701 1.390 . S
C693 C692 1.387 . S
C693 C695 1.387 . S
H694 C701 0.950 . S
C695 C693 1.387 . S
C695 C697 1.390 . S
C695 H699 0.950 . S
H696 C692 0.950 . S
C697 C695 1.390 . S
C697 C698 1.387 . S
C697 H700 0.950 . S
C698 C697 1.387 . S
C698 C701 1.387 . S
H699 C695 0.950 . S
H700 C697 0.950 . S
C701 C692 1.390 . S
C701 H694 0.950 . S
C701 C698 1.387 . S
C702 C703 1.387 . S
C702 H706 0.950 . S
C702 C711 1.390 . S
C703 C702 1.387 . S
C703 C705 1.387 . S
H704 C711 0.950 . S
C705 C703 1.387 . S
C705 C707 1.390 . S
C705 H709 0.950 . S
H706 C702 0.950 . S
C707 C705 1.390 . S
C707 C708 1.387 . S
C707 H710 0.950 . S
C708 C707 1.387 . S
C708 C711 1.387 . S
H709 C705 0.950 . S
H710 C707 0.950 . S
C711 C702 1.390 . S
C711 H704 0.950 . S
C711 C708 1.387 . S
C712 C713 1.387 . S
C712 H716 0.950 . S
C712 C721 1.390 . S
C713 C712 1.387 . S
C713 C715 1.387 . S
H714 C721 0.950 . S
C715 C713 1.387 . S
C715 C717 1.390 . S
C715 H719 0.950 . S
H716 C712 0.950 . S
C717 C715 1.390 . S
C717 C718 1.387 . S
C717 H720 0.950 . S
C718 C717 1.387 . S
C718 C721 1.387 . S
H719 C715 0.950 . S
H720 C717 0.950 . S
C721 C712 1.390 . S
C721 H714 0.950 . S
C721 C718 1.387 . S
C722 C723 1.387 . S
C722 H726 0.950 . S
C722 C731 1.390 . S
C723 C722 1.387 . S
C723 C725 1.387 . S
H724 C731 0.950 . S
C725 C723 1.387 . S
C725 C727 1.390 . S
C725 H729 0.950 . S
H726 C722 0.950 . S
C727 C725 1.390 . S
C727 C728 1.387 . S
C727 H730 0.950 . S
C728 C727 1.387 . S
C728 C731 1.387 . S
H729 C725 0.950 . S
H730 C727 0.950 . S
C731 C722 1.390 . S
C731 H724 0.950 . S
C731 C728 1.387 . S
C732 C733 1.387 . S
C732 H736 0.950 . S
C732 C741 1.390 . S
C733 C732 1.387 . S
C733 C735 1.387 . S
H734 C741 0.950 . S
C735 C733 1.387 . S
C735 C737 1.390 . S
C735 H739 0.950 . S
H736 C732 0.950 . S
C737 C735 1.390 . S
C737 C738 1.387 . S
C737 H740 0.950 . S
C738 C737 1.387 . S
C738 C741 1.387 . S
H739 C735 0.950 . S
H740 C737 0.950 . S
C741 C732 1.390 . S
C741 H734 0.950 . S
C741 C738 1.387 . S
C742 C743 1.387 . S
C742 H746 0.950 . S
C742 C751 1.390 . S
C743 C742 1.387 . S
C743 C745 1.387 . S
H744 C751 0.950 . S
C745 C743 1.387 . S
C745 C747 1.390 . S
C745 H749 0.950 . S
H746 C742 0.950 . S
C747 C745 1.390 . S
C747 C748 1.387 . S
C747 H750 0.950 . S
C748 C747 1.387 . S
C748 C751 1.387 . S
H749 C745 0.950 . S
H750 C747 0.950 . S
C751 C742 1.390 . S
C751 H744 0.950 . S
C751 C748 1.387 . S
C752 C753 1.387 . S
C752 H756 0.950 . S
C752 C761 1.390 . S
C753 C752 1.387 . S
C753 C755 1.387 . S
H754 C761 0.950 . S
C755 C753 1.387 . S
C755 C757 1.390 . S
C755 H759 0.950 . S
H756 C752 0.950 . S
C757 C755 1.390 . S
C757 C758 1.387 . S
C757 H760 0.950 . S
C758 C757 1.387 . S
C758 C761 1.387 . S
H759 C755 0.950 . S
H760 C757 0.950 . S
C761 C752 1.390 . S
C761 H754 0.950 . S
C761 C758 1.387 . S
C762 C763 1.387 . S
C762 H766 0.950 . S
C762 C771 1.390 . S
C763 C762 1.387 . S
C763 C765 1.387 . S
H764 C771 0.950 . S
C765 C763 1.387 . S
C765 C767 1.390 . S
C765 H769 0.950 . S
H766 C762 0.950 . S
C767 C765 1.390 . S
C767 C768 1.387 . S
C767 H770 0.950 . S
C768 C767 1.387 . S
C768 C771 1.387 . S
H769 C765 0.950 . S
H770 C767 0.950 . S
C771 C762 1.390 . S
C771 H764 0.950 . S
C771 C768 1.387 . S
C772 C773 1.387 . S
C772 H776 0.950 . S
C772 C781 1.390 . S
C773 C772 1.387 . S
C773 C775 1.387 . S
H774 C781 0.950 . S
C775 C773 1.387 . S
C775 C777 1.390 . S
C775 H779 0.950 . S
H776 C772 0.950 . S
C777 C775 1.390 . S
C777 C778 1.387 . S
C777 H780 0.950 . S
C778 C777 1.387 . S
C778 C781 1.387 . S
H779 C775 0.950 . S
H780 C777 0.950 . S
C781 C772 1.390 . S
C781 H774 0.950 . S
C781 C778 1.387 . S
C782 C783 1.387 . S
C782 H786 0.950 . S
C782 C791 1.390 . S
C783 C782 1.387 . S
C783 C785 1.387 . S
H784 C791 0.950 . S
C785 C783 1.387 . S
C785 C787 1.390 . S
C785 H789 0.950 . S
H786 C782 0.950 . S
C787 C785 1.390 . S
C787 C788 1.387 . S
C787 H790 0.950 . S
C788 C787 1.387 . S
C788 C791 1.387 . S
H789 C785 0.950 . S
H790 C787 0.950 . S
C791 C782 1.390 . S
C791 H784 0.950 . S
C791 C788 1.387 . S
C792 C793 1.387 . S
C792 H796 0.950 . S
C792 C801 1.390 . S
C793 C792 1.387 . S
C793 C795 1.387 . S
H794 C801 0.950 . S
C795 C793 1.387 . S
C795 C797 1.390 . S
C795 H799 0.950 . S
H796 C792 0.950 . S
C797 C795 1.390 . S
C797 C798 1.387 . S
C797 H800 0.950 . S
C798 C797 1.387 . S
C798 C801 1.387 . S
H799 C795 0.950 . S
H800 C797 0.950 . S
C801 C792 1.390 . S
C801 H794 0.950 . S
C801 C798 1.387 . S
C802 C803 1.387 . S
C802 H806 0.950 . S
C802 C811 1.390 . S
C803 C802 1.387 . S
C803 C805 1.387 . S
H804 C811 0.950 . S
C805 C803 1.387 . S
C805 C807 1.390 . S
C805 H809 0.950 . S
H806 C802 0.950 . S
C807 C805 1.390 . S
C807 C808 1.387 . S
C807 H810 0.950 . S
C808 C807 1.387 . S
C808 C811 1.387 . S
H809 C805 0.950 . S
H810 C807 0.950 . S
C811 C802 1.390 . S
C811 H804 0.950 . S
C811 C808 1.387 . S
C812 C813 1.387 . S
C812 H816 0.950 . S
C812 C821 1.390 . S
C813 C812 1.387 . S
C813 C815 1.387 . S
H814 C821 0.950 . S
C815 C813 1.387 . S
C815 C817 1.390 . S
C815 H819 0.950 . S
H816 C812 0.950 . S
C817 C815 1.390 . S
C817 C818 1.387 . S
C817 H820 0.950 . S
C818 C817 1.387 . S
C818 C821 1.387 . S
H819 C815 0.950 . S
H820 C817 0.950 . S
C821 C812 1.390 . S
C821 H814 0.950 . S
C821 C818 1.387 . S
C822 C823 1.387 . S
C822 H826 0.950 . S
C822 C831 1.390 . S
C823 C822 1.387 . S
C823 C825 1.387 . S
H824 C831 0.950 . S
C825 C823 1.387 . S
C825 C827 1.390 . S
C825 H829 0.950 . S
H826 C822 0.950 . S
C827 C825 1.390 . S
C827 C828 1.387 . S
C827 H830 0.950 . S
C828 C827 1.387 . S
C828 C831 1.387 . S
H829 C825 0.950 . S
H830 C827 0.950 . S
C831 C822 1.390 . S
C831 H824 0.950 . S
C831 C828 1.387 . S
C832 C833 1.387 . S
C832 H836 0.950 . S
C832 C841 1.390 1_556 S
C833 C832 1.387 . S
C833 C835 1.387 1_645 S
H834 C841 0.950 . S
C835 C833 1.387 1_465 S
C835 C837 1.390 1_556 S
C835 H839 0.950 . S
H836 C832 0.950 . S
C837 C835 1.390 1_554 S
C837 C838 1.387 . S
C837 H840 0.950 . S
C838 C837 1.387 . S
C838 C841 1.387 1_465 S
H839 C835 0.950 . S
H840 C837 0.950 . S
C841 C832 1.390 1_554 S
C841 H834 0.950 . S
C841 C838 1.387 1_645 S
C842 C843 1.387 . S
C842 H846 0.950 . S
C842 C851 1.390 . S
C843 C842 1.387 . S
C843 C845 1.387 . S
H844 C851 0.950 . S
C845 C843 1.387 . S
C845 C847 1.390 . S
C845 H849 0.950 . S
H846 C842 0.950 . S
C847 C845 1.390 . S
C847 C848 1.387 . S
C847 H850 0.950 . S
C848 C847 1.387 . S
C848 C851 1.387 . S
H849 C845 0.950 . S
H850 C847 0.950 . S
C851 C842 1.390 . S
C851 H844 0.950 . S
C851 C848 1.387 . S
C852 C853 1.378 1_565 S
C852 H856 0.950 . S
C852 C861 1.390 . S
C853 C852 1.378 1_545 S
C853 C855 1.397 . S
H854 C861 0.950 . S
C855 C853 1.397 . S
C855 C857 1.390 . S
C855 H859 0.950 . S
H856 C852 0.950 . S
C857 C855 1.390 . S
C857 C858 1.383 1_545 S
C857 H860 0.950 . S
C858 C857 1.383 1_565 S
C858 C861 1.392 . S
H859 C855 0.950 . S
H860 C857 0.950 . S
C861 C852 1.390 . S
C861 H854 0.950 . S
C861 C858 1.392 . S
C862 C863 1.387 . S
C862 H866 0.950 . S
C862 C871 1.390 . S
C863 C862 1.387 . S
C863 C865 1.387 . S
H864 C871 0.950 . S
C865 C863 1.387 . S
C865 C867 1.390 . S
C865 H869 0.950 . S
H866 C862 0.950 . S
C867 C865 1.390 . S
C867 C868 1.387 . S
C867 H870 0.950 . S
C868 C867 1.387 . S
C868 C871 1.387 . S
H869 C865 0.950 . S
H870 C867 0.950 . S
C871 C862 1.390 . S
C871 H864 0.950 . S
C871 C868 1.387 . S
C872 C873 1.387 . S
C872 H876 0.950 . S
C872 C881 1.390 . S
C873 C872 1.387 . S
C873 C875 1.387 . S
H874 C881 0.950 . S
C875 C873 1.387 . S
C875 C877 1.390 . S
C875 H879 0.950 . S
H876 C872 0.950 . S
C877 C875 1.390 . S
C877 C878 1.387 . S
C877 H880 0.950 . S
C878 C877 1.387 . S
C878 C881 1.387 . S
H879 C875 0.950 . S
H880 C877 0.950 . S
C881 C872 1.390 . S
C881 H874 0.950 . S
C881 C878 1.387 . S
C882 C883 1.387 . S
C882 H886 0.950 . S
C882 C891 1.390 . S
C883 C882 1.387 . S
C883 C885 1.387 . S
H884 C891 0.950 . S
C885 C883 1.387 . S
C885 C887 1.390 . S
C885 H889 0.950 . S
H886 C882 0.950 . S
C887 C885 1.390 . S
C887 C888 1.387 . S
C887 H890 0.950 . S
C888 C887 1.387 . S
C888 C891 1.387 . S
H889 C885 0.950 . S
H890 C887 0.950 . S
C891 C882 1.390 . S
C891 H884 0.950 . S
C891 C888 1.387 . S
C892 C893 1.387 . S
C892 H896 0.950 . S
C892 C901 1.390 . S
C893 C892 1.387 . S
C893 C895 1.387 . S
H894 C901 0.950 . S
C895 C893 1.387 . S
C895 C897 1.390 . S
C895 H899 0.950 . S
H896 C892 0.950 . S
C897 C895 1.390 . S
C897 C898 1.387 . S
C897 H900 0.950 . S
C898 C897 1.387 . S
C898 C901 1.387 . S
H899 C895 0.950 . S
H900 C897 0.950 . S
C901 C892 1.390 . S
C901 H894 0.950 . S
C901 C898 1.387 . S
C902 C903 1.387 . S
C902 H906 0.950 . S
C902 C911 1.389 1_456 S
C903 C902 1.387 . S
C903 C905 1.387 . S
H904 C911 0.951 . S
C905 C903 1.387 . S
C905 C907 1.390 1_456 S
C905 H909 0.950 . S
H906 C902 0.950 . S
C907 C905 1.390 1_654 S
C907 C908 1.387 . S
C907 H910 0.950 . S
C908 C907 1.387 . S
C908 C911 1.388 . S
H909 C905 0.950 . S
H910 C907 0.950 . S
C911 C902 1.389 1_654 S
C911 H904 0.951 . S
C911 C908 1.388 . S
C673 C67 1.507 . S
C678 C319 1.502 . S
C683 C68 1.522 . S
C688 C151 1.509 . S
C693 C152 1.516 . S
C698 C235 1.510 . S
C703 C236 1.522 . S
C708 C320 1.519 . S
C713 C55 1.505 . S
C718 C475 1.510 . S
C723 C56 1.522 . S
C728 C391 1.508 . S
C733 C392 1.517 . S
C738 C223 1.504 . S
C743 C476 1.522 . S
C748 C224 1.525 . S
C753 C571 1.505 . S
C758 C487 1.508 . S
C763 C403 1.508 . S
C768 C572 1.521 . S
C773 C655 1.508 . S
C778 C404 1.518 . S
C783 C488 1.522 . S
C788 C656 1.523 . S
C793 C307 1.506 . S
C798 C559 1.504 . S
C803 C560 1.522 . S
C808 C139 1.510 . S
C813 C140 1.516 . S
C818 C643 1.506 . S
C823 C308 1.521 . S
C828 C644 1.520 . S
C833 C58 1.292 . S
C838 C70 1.292 . S
C843 C154 1.270 . S
C848 C142 1.270 . S
C853 C238 1.284 . S
C858 C226 1.282 . S
C863 C310 1.277 . S
C868 C322 1.277 . S
C873 C406 1.270 . S
C878 C394 1.270 . S
C883 C478 1.279 . S
C888 C490 1.279 . S
C893 C574 1.289 . S
C898 C562 1.289 . S
C903 C646 1.280 . S
C908 C658 1.280 . S
