# Generated by pormake.
# Topology uov, (4)-cn, num edge types: 1
# Building blocks:
#     Node 0, Type 0, BuildingBlock: AZAVOO_clean_sbu_0, # of connection points: 4
#     Node 1, Type 0, BuildingBlock: AZAVOO_clean_sbu_0, # of connection points: 4
#     Node 2, Type 0, BuildingBlock: AZAVOO_clean_sbu_0, # of connection points: 4
#     Node 3, Type 0, BuildingBlock: AZAVOO_clean_sbu_0, # of connection points: 4
#     Node 4, Type 0, BuildingBlock: AZAVOO_clean_sbu_0, # of connection points: 4
#     Node 5, Type 0, BuildingBlock: AZAVOO_clean_sbu_0, # of connection points: 4
#     Node 6, Type 0, BuildingBlock: AZAVOO_clean_sbu_0, # of connection points: 4
#     Node 7, Type 0, BuildingBlock: AZAVOO_clean_sbu_0, # of connection points: 4
#     Edge 8, Type (0, 0), BuildingBlock: KIFKEQ_clean_linker_1, # of connection points: 2
#     Edge 9, Type (0, 0), BuildingBlock: KIFKEQ_clean_linker_1, # of connection points: 2
#     Edge 10, Type (0, 0), BuildingBlock: KIFKEQ_clean_linker_1, # of connection points: 2
#     Edge 11, Type (0, 0), BuildingBlock: KIFKEQ_clean_linker_1, # of connection points: 2
#     Edge 12, Type (0, 0), BuildingBlock: KIFKEQ_clean_linker_1, # of connection points: 2
#     Edge 13, Type (0, 0), BuildingBlock: KIFKEQ_clean_linker_1, # of connection points: 2
#     Edge 14, Type (0, 0), BuildingBlock: KIFKEQ_clean_linker_1, # of connection points: 2
#     Edge 15, Type (0, 0), BuildingBlock: KIFKEQ_clean_linker_1, # of connection points: 2
#     Edge 16, Type (0, 0), BuildingBlock: KIFKEQ_clean_linker_1, # of connection points: 2
#     Edge 17, Type (0, 0), BuildingBlock: KIFKEQ_clean_linker_1, # of connection points: 2
#     Edge 18, Type (0, 0), BuildingBlock: KIFKEQ_clean_linker_1, # of connection points: 2
#     Edge 19, Type (0, 0), BuildingBlock: KIFKEQ_clean_linker_1, # of connection points: 2
#     Edge 20, Type (0, 0), BuildingBlock: KIFKEQ_clean_linker_1, # of connection points: 2
#     Edge 21, Type (0, 0), BuildingBlock: KIFKEQ_clean_linker_1, # of connection points: 2
#     Edge 22, Type (0, 0), BuildingBlock: KIFKEQ_clean_linker_1, # of connection points: 2
#     Edge 23, Type (0, 0), BuildingBlock: KIFKEQ_clean_linker_1, # of connection points: 2
# Relax obj value: 0.238
# Max RMSD: 0.250
# Mean RMSD: 0.233
data_MOF--net-uov--node1-AZAVOO_clean_sbu_0--edge1-KIFKEQ_clean_linker_1
_symmetry_space_group_name_H-M    P1
_symmetry_Int_Tables_number       1
_symmetry_cell_setting            triclinic
loop_
_symmetry_equiv_pos_as_xyz
'x, y, z'
_cell_length_a     31.477766
_cell_length_b     30.59743
_cell_length_c     44.278046
_cell_angle_alpha  89.798868
_cell_angle_beta   90.426331
_cell_angle_gamma 93.294265
loop_
_atom_site_label
_atom_site_type_symbol
_atom_site_fract_x
_atom_site_fract_y
_atom_site_fract_z
_atom_type_partial_charge
Mg0 Mg 0.96624 0.21154 0.6132 0.0
O1 O 0.00209 0.20903 0.56795 0.0
O2 O 0.95632 0.22576 0.53138 0.0
Mg3 Mg 0.89348 0.24314 0.5524 0.0
C4 C -0.00715 0.21423 0.54002 0.0
C5 C 0.04508 0.165 0.63631 0.0
O6 O 0.03043 0.13934 0.61442 0.0
O7 O 0.97392 0.28753 0.61382 0.0
O8 O 0.92685 0.30067 0.57737 0.0
O9 O 0.94121 0.14261 0.60449 0.0
O10 O 0.90785 0.2007 0.59021 0.0
C11 C 0.95347 0.31422 0.59764 0.0
C12 C 0.91058 0.159 0.58942 0.0
O13 O 0.02774 0.20112 0.64049 0.0
Mg14 Mg 0.22921 0.02308 0.36767 0.0
O15 O 0.21601 -0.01526 0.41211 0.0
O16 O 0.23593 0.02964 0.45007 0.0
Mg17 Mg 0.26435 0.09384 0.43082 0.0
C18 C 0.21986 -0.00698 0.44036 0.0
C19 C 0.2177 0.96475 0.31103 0.0
O20 O 0.22783 0.00352 0.29945 0.0
O21 O 0.30042 0.01252 0.37176 0.0
O22 O 0.31873 0.05747 0.40989 0.0
O23 O 0.16507 0.04953 0.3714 0.0
O24 O 0.22321 0.08199 0.39111 0.0
C25 C 0.32836 0.03003 0.38973 0.0
C26 C 0.18231 0.07982 0.38862 0.0
O27 O 0.21693 0.96066 0.33963 0.0
Mg28 Mg 0.00328 0.74535 0.61309 0.0
O29 O 0.96313 0.75164 0.56942 0.0
O30 O 0.00343 0.73151 0.53104 0.0
Mg31 Mg 0.06665 0.70969 0.54917 0.0
C32 C 0.96892 0.74564 0.54117 0.0
C33 C 0.95693 0.78575 0.66395 0.0
O34 O -0.0024 0.79738 0.66688 0.0
O35 O -0.00954 0.67009 0.61339 0.0
O36 O 0.03114 0.65353 0.57433 0.0
O37 O 0.03176 0.81277 0.605 0.0
O38 O 0.05946 0.75349 0.58748 0.0
C39 C 0.00591 0.64207 0.59575 0.0
C40 C 0.05975 0.79558 0.58822 0.0
O41 O 0.9457 0.75946 0.64273 0.0
Mg42 Mg 0.72975 0.93739 0.36676 0.0
O43 O 0.7488 0.97938 0.40864 0.0
O44 O 0.72587 0.94155 0.44941 0.0
Mg45 Mg 0.69326 0.87685 0.43452 0.0
C46 C 0.74467 0.97519 0.43727 0.0
C47 C 0.77467 -0.01078 0.31584 0.0
O48 O 0.7917 0.95102 0.31581 0.0
O49 O 0.65988 0.95419 0.37116 0.0
O50 O 0.64093 0.9147 0.41191 0.0
O51 O 0.79154 0.90626 0.37134 0.0
O52 O 0.73293 0.88088 0.39391 0.0
C53 C 0.63205 0.94068 0.39044 0.0
C54 C 0.77352 0.87957 0.39069 0.0
O55 O 0.74534 -0.0044 0.3347 0.0
Mg56 Mg 0.96351 0.2233 0.11333 0.0
O57 O 0.92392 0.2072 0.06969 0.0
O58 O 0.9646 0.23015 0.03091 0.0
Mg59 Mg 0.02798 0.26052 0.04831 0.0
C60 C 0.9301 0.21215 0.04128 0.0
C61 C 0.91856 0.20222 0.17149 0.0
O62 O 0.95835 0.21371 0.1783 0.0
O63 O 0.95124 0.297 0.11014 0.0
O64 O -0.0066 0.31481 0.07092 0.0
O65 O -0.00599 0.15907 0.10866 0.0
O66 O 0.01996 0.22153 0.0894 0.0
C67 C 0.96789 0.32524 0.09163 0.0
C68 C 0.02241 0.18 0.09231 0.0
O69 O 0.9067 0.20556 0.14408 0.0
Mg70 Mg 0.23709 0.04402 0.88209 0.0
O71 O 0.20219 0.97658 0.89371 0.0
O72 O 0.133 -0.01 0.89584 0.0
Mg73 Mg 0.12264 0.06178 0.88675 0.0
C74 C 0.16316 0.964 0.89829 0.0
C75 C 0.33167 0.02859 0.88666 0.0
O76 O 0.32491 0.05945 0.90632 0.0
O77 O 0.21424 0.04415 0.83219 0.0
O78 O 0.1456 0.05707 0.83821 0.0
O79 O 0.24241 0.05637 0.93178 0.0
O80 O 0.18783 0.07448 0.90369 0.0
C81 C 0.17736 0.05093 0.82137 0.0
C82 C 0.20463 0.0707 0.93013 0.0
O83 O 0.30032 0.01301 0.87093 0.0
Mg84 Mg -0.00346 0.75359 0.11789 0.0
O85 O 0.03234 0.76543 0.07254 0.0
O86 O -0.01581 0.75259 0.03578 0.0
Mg87 Mg 0.91946 0.73272 0.05627 0.0
C88 C 0.02202 0.76373 0.04451 0.0
C89 C 0.05237 0.7604 0.1736 0.0
O90 O 0.01354 0.7516 0.18349 0.0
O91 O -0.00465 0.67808 0.11269 0.0
O92 O 0.94542 0.6712 0.07662 0.0
O93 O 0.97841 0.82342 0.11562 0.0
O94 O 0.93909 0.76726 0.09744 0.0
C95 C 0.97083 0.65433 0.09535 0.0
C96 C 0.94515 0.80877 0.1007 0.0
O97 O 0.05857 0.75957 0.14524 0.0
Mg98 Mg 0.72617 0.91734 0.88389 0.0
O99 O 0.75579 -0.01257 0.89446 0.0
O100 O 0.82617 0.98035 0.89765 0.0
Mg101 Mg 0.8421 0.90935 0.8922 0.0
C102 C 0.79383 0.00357 0.89891 0.0
C103 C 0.63026 0.92416 0.88533 0.0
O104 O 0.63874 0.89262 0.90427 0.0
O105 O 0.75057 0.91691 0.83449 0.0
O106 O 0.81991 0.90923 0.84316 0.0
O107 O 0.72072 0.90662 0.93389 0.0
O108 O 0.77724 0.89212 0.90721 0.0
C109 C 0.78843 0.9122 0.82514 0.0
C110 C 0.75974 0.89562 0.93318 0.0
O111 O 0.661 0.94315 0.8709 0.0
H112 H -0.01523 0.59532 0.64763 0.0
H113 H 0.00337 0.58122 0.55166 0.0
H114 H 0.97198 0.51519 0.65214 0.0
H115 H -0.00958 0.50252 0.55618 0.0
H116 H 0.9115 0.37688 0.56808 0.0
H117 H 0.92202 0.45553 0.57161 0.0
H118 H 0.01859 0.44183 0.64004 0.0
H119 H 0.00823 0.3615 0.63663 0.0
C120 C -0.01427 0.57527 0.62757 0.0
C121 C -0.00507 0.59457 0.59929 0.0
C122 C 0.97891 0.52956 0.63021 0.0
C123 C 0.98033 0.50281 0.6045 0.0
C124 C -0.01098 0.52235 0.57634 0.0
C125 C -0.00357 0.56748 0.57379 0.0
C126 C 0.935 0.39011 0.58408 0.0
C127 C 0.95951 0.36248 0.60177 0.0
C128 C 0.94083 0.43542 0.5861 0.0
C129 C 0.97121 0.45473 0.60594 0.0
C130 C -0.00524 0.42761 0.62465 0.0
C131 C -0.01095 0.38174 0.62252 0.0
H132 H 0.59192 0.97886 0.34233 0.0
H133 H 0.57216 0.93515 0.43439 0.0
H134 H 0.51821 0.00123 0.34015 0.0
H135 H 0.49945 0.9574 0.4321 0.0
H136 H 0.39243 0.05025 0.42987 0.0
H137 H 0.46595 0.03044 0.42792 0.0
H138 H 0.44086 0.96379 0.34336 0.0
H139 H 0.36649 -0.01636 0.34517 0.0
C140 C 0.57202 0.97416 0.36206 0.0
C141 C 0.58799 0.9553 0.38854 0.0
C142 C 0.52984 -0.01334 0.36072 0.0
C143 C 0.50326 0.98116 0.386 0.0
C144 C 0.51933 0.96242 0.41237 0.0
C145 C 0.56102 0.9495 0.4136 0.0
C146 C 0.40237 0.0315 0.41073 0.0
C147 C 0.37335 0.0183 0.38776 0.0
C148 C 0.44456 0.02008 0.4097 0.0
C149 C 0.45903 -0.00456 0.38557 0.0
C150 C 0.43052 -0.01697 0.36214 0.0
C151 C 0.38794 -0.00588 0.36331 0.0
H152 H 0.95569 0.37314 0.14316 0.0
H153 H 0.96558 0.38385 0.04618 0.0
H154 H 0.95562 0.4535 0.1467 0.0
H155 H 0.96594 0.4629 0.04965 0.0
H156 H 0.92245 0.59732 0.06086 0.0
H157 H 0.91664 0.51848 0.06326 0.0
H158 H 0.00866 0.5202 0.13607 0.0
H159 H 0.01412 0.60074 0.13423 0.0
C160 C 0.95694 0.39255 0.12265 0.0
C161 C 0.96039 0.3723 0.09438 0.0
C162 C 0.95756 0.43842 0.1247 0.0
C163 C 0.96094 0.46448 0.09846 0.0
C164 C 0.96294 0.44384 0.07027 0.0
C165 C 0.96272 0.39848 0.06828 0.0
C166 C 0.94165 0.58135 0.07752 0.0
C167 C 0.96921 0.60571 0.09717 0.0
C168 C 0.93821 0.53589 0.07884 0.0
C169 C 0.96234 0.51307 0.0997 0.0
C170 C -0.01057 0.53703 0.11988 0.0
C171 C -0.00709 0.58304 0.11859 0.0
H172 H 0.36623 -0.01617 0.83956 0.0
H173 H 0.39535 0.03669 0.92816 0.0
H174 H 0.43898 0.95847 0.83649 0.0
H175 H 0.46686 0.01076 0.92523 0.0
H176 H 0.56503 0.90466 0.92373 0.0
H177 H 0.49281 0.92895 0.92159 0.0
H178 H 0.52164 -0.00093 0.83892 0.0
H179 H 0.59506 0.97532 0.84123 0.0
C180 C 0.38799 -0.01011 0.85834 0.0
C181 C 0.37498 0.01219 0.88412 0.0
C182 C 0.42959 0.97568 0.85648 0.0
C183 C 0.45841 -0.01731 0.88065 0.0
C184 C 0.44525 0.00482 0.90633 0.0
C185 C 0.40426 0.0197 0.90794 0.0
C186 C 0.55616 0.92508 0.90494 0.0
C187 C 0.58597 0.93822 0.88271 0.0
C188 C 0.51473 0.93899 0.90378 0.0
C189 C 0.50169 0.96583 0.88011 0.0
C190 C 0.53092 0.97815 0.85732 0.0
C191 C 0.5729 0.9648 0.85876 0.0
H192 H 0.09578 0.07416 0.39349 0.0
H193 H 0.20821 0.14551 0.42794 0.0
H194 H 0.05221 0.11223 0.42895 0.0
H195 H 0.16451 0.1831 0.46379 0.0
H196 H 0.98149 0.21368 0.47871 0.0
H197 H 0.02859 0.18665 0.4406 0.0
H198 H 0.12129 0.1607 0.50975 0.0
H199 H 0.07421 0.1879 0.54814 0.0
C200 C 0.11123 0.09821 0.40843 0.0
C201 C 0.15564 0.10623 0.40815 0.0
C202 C 0.0862 0.12013 0.42872 0.0
C203 C 0.10499 0.15045 0.4493 0.0
C204 C 0.14923 0.15943 0.44848 0.0
C205 C 0.17425 0.13781 0.42795 0.0
C206 C 0.0121 0.20277 0.48588 0.0
C207 C 0.02385 0.20273 0.51663 0.0
C208 C 0.03899 0.18705 0.46398 0.0
C209 C 0.07844 0.1712 0.4722 0.0
C210 C 0.09115 0.17295 0.50271 0.0
C211 C 0.06408 0.18841 0.52472 0.0
H212 H 0.1838 0.91025 0.43022 0.0
H213 H 0.21536 0.00306 0.50152 0.0
H214 H 0.14844 0.86102 0.46704 0.0
H215 H 0.1802 0.95393 0.53796 0.0
H216 H 0.06146 0.8843 0.58151 0.0
H217 H 0.10385 0.92973 0.5464 0.0
H218 H 0.16299 0.81528 0.5138 0.0
H219 H 0.12107 0.76971 0.54932 0.0
C220 C 0.18368 0.91997 0.4537 0.0
C221 C 0.2022 0.96081 0.46279 0.0
C222 C 0.16355 0.8917 0.4748 0.0
C223 C 0.16124 0.90387 0.50531 0.0
C224 C 0.18095 0.94397 0.51453 0.0
C225 C 0.20131 0.972 0.49358 0.0
C226 C 0.08367 0.86876 0.56704 0.0
C227 C 0.08741 0.82322 0.568 0.0
C228 C 0.10807 0.89484 0.54698 0.0
C229 C 0.13661 0.876 0.52727 0.0
C230 C 0.14083 0.83058 0.52846 0.0
C231 C 0.11674 0.80451 0.5488 0.0
H232 H 0.74685 0.82271 0.43598 0.0
H233 H 0.85987 0.87766 0.39195 0.0
H234 H 0.79127 0.78589 0.47251 0.0
H235 H 0.90393 0.84055 0.42808 0.0
H236 H 0.8923 0.78153 0.5521 0.0
H237 H 0.84261 0.80895 0.51478 0.0
H238 H 0.92164 0.76541 0.44285 0.0
H239 H 0.97125 0.73831 0.47976 0.0
C240 C 0.78105 0.82699 0.43404 0.0
C241 C 0.79974 0.85367 0.41124 0.0
C242 C 0.80647 0.80586 0.45497 0.0
C243 C 0.85105 0.81043 0.45321 0.0
C244 C 0.86965 0.83602 0.42987 0.0
C245 C 0.84434 0.85742 0.40919 0.0
C246 C 0.89882 0.77732 0.52833 0.0
C247 C 0.93608 0.7581 0.51901 0.0
C248 C 0.87025 0.79287 0.50697 0.0
C249 C 0.8785 0.78971 0.47591 0.0
C250 C 0.91479 0.76893 0.46663 0.0
C251 C 0.94315 0.75325 0.48788 0.0
H252 H 0.81946 0.02292 0.42843 0.0
H253 H 0.71757 0.00037 0.4924 0.0
H254 H 0.85914 0.06869 0.46566 0.0
H255 H 0.75672 0.04711 0.52915 0.0
H256 H 0.8311 0.17453 0.56903 0.0
H257 H 0.78893 0.13322 0.53081 0.0
H258 H 0.88914 0.04377 0.52206 0.0
H259 H 0.93091 0.08424 0.56087 0.0
C260 C 0.80515 0.02862 0.45013 0.0
C261 C 0.76548 0.00818 0.45758 0.0
C262 C 0.82795 0.05441 0.47144 0.0
C263 C 0.81093 0.06103 0.50019 0.0
C264 C 0.77039 0.04243 0.50709 0.0
C265 C 0.74808 0.01579 0.4861 0.0
C266 C 0.8439 0.14579 0.55913 0.0
C267 C 0.88407 0.13233 0.56802 0.0
C268 C 0.81986 0.12233 0.5373 0.0
C269 C 0.83609 0.08571 0.52345 0.0
C270 C 0.87622 0.07219 0.53231 0.0
C271 C 0.89983 0.09503 0.55467 0.0
H272 H 0.74445 0.04479 0.93931 0.0
H273 H 0.8621 0.06019 0.89004 0.0
H274 H 0.76867 0.10501 0.97272 0.0
H275 H 0.88644 0.11959 0.92323 0.0
H276 H 0.92343 0.23133 0.98123 0.0
H277 H 0.88058 0.1918 0.94315 0.0
H278 H 0.82321 0.10901 0.01266 0.0
H279 H 0.86548 0.14937 0.05097 0.0
C280 C 0.77469 0.06221 0.93483 0.0
C281 C 0.80139 0.04781 0.91203 0.0
C282 C 0.78888 0.09625 0.95427 0.0
C283 C 0.82978 0.11683 0.951 0.0
C284 C 0.85467 0.10489 0.92641 0.0
C285 C 0.84071 0.07075 0.90728 0.0
C286 C 0.90111 0.20522 -0.01148 0.0
C287 C 0.89843 0.19311 0.01917 0.0
C288 C 0.87658 0.18246 0.96661 0.0
C289 C 0.84888 0.14671 0.97469 0.0
C290 C 0.84396 0.13654 0.00558 0.0
C291 C 0.86838 0.15958 0.02759 0.0
H292 H 0.11917 0.05745 0.93931 0.0
H293 H 0.23613 0.10224 0.98366 0.0
H294 H 0.07892 0.07749 0.98324 0.0
H295 H 0.19565 0.12198 0.02819 0.0
H296 H 0.09676 0.21488 0.07012 0.0
H297 H 0.14427 0.18159 0.03494 0.0
H298 H 0.06635 0.06082 0.03855 0.0
H299 H 0.01849 0.09436 0.07404 0.0
C300 C 0.13629 0.07174 0.95837 0.0
C301 C 0.18065 0.07951 0.9577 0.0
C302 C 0.11327 0.08244 0.98382 0.0
C303 C 0.13415 0.10142 0.00908 0.0
C304 C 0.17876 0.10763 0.00891 0.0
C305 C 0.20186 0.09635 0.98351 0.0
C306 C 0.0901 0.181 0.06378 0.0
C307 C 0.05373 0.1573 0.0745 0.0
C308 C 0.11753 0.16184 0.04384 0.0
C309 C 0.1089 0.1187 0.03396 0.0
C310 C 0.07354 0.09426 0.04573 0.0
C311 C 0.04631 0.11333 0.06607 0.0
H312 H 0.01926 0.74747 0.98389 0.0
H313 H 0.09439 0.81728 0.05214 0.0
H314 H 0.06151 0.78436 0.94457 0.0
H315 H 0.13595 0.8553 0.01271 0.0
H316 H 0.0886 0.91547 0.8928 0.0
H317 H 0.06195 0.85754 0.9263 0.0
H318 H 0.18488 0.85724 0.97039 0.0
H319 H 0.21141 0.91634 0.9368 0.0
C320 C 0.04523 0.77026 -0.00945 0.0
C321 C 0.05301 0.77983 0.02121 0.0
C322 C 0.06938 0.7916 0.96794 0.0
C323 C 0.10172 0.8235 0.97533 0.0
C324 C 0.11153 0.83077 0.00608 0.0
C325 C 0.08755 0.80905 0.02876 0.0
C326 C 0.1104 0.90214 0.90899 0.0
C327 C 0.15206 0.92067 0.91217 0.0
C328 C 0.09513 0.8687 0.92827 0.0
C329 C 0.12105 0.85287 0.95142 0.0
C330 C 0.16383 0.86907 0.95313 0.0
C331 C 0.17926 0.9025 0.93358 0.0
H332 H 0.73917 0.84755 0.98316 0.0
H333 H 0.83636 0.93659 0.94609 0.0
H334 H 0.78405 0.83615 0.02729 0.0
H335 H 0.88008 0.92834 -0.00914 0.0
H336 H 0.96993 0.85016 0.04962 0.0
H337 H 0.92334 0.87828 0.01111 0.0
H338 H 0.81637 0.85909 0.07167 0.0
H339 H 0.86325 0.82772 0.10914 0.0
C340 C 0.76987 0.86532 0.98484 0.0
C341 C 0.78484 0.89211 0.96107 0.0
C342 C 0.79554 0.85928 0.01026 0.0
C343 C 0.8362 0.881 0.01273 0.0
C344 C 0.84972 0.90993 -0.01049 0.0
C345 C 0.82459 0.91486 0.96379 0.0
C346 C 0.93668 0.85339 0.05488 0.0
C347 C 0.91999 0.83745 0.08222 0.0
C348 C 0.90976 0.86951 0.03283 0.0
C349 C 0.86566 0.87063 0.03796 0.0
C350 C 0.84982 0.85772 0.0665 0.0
C351 C 0.87667 0.84052 0.08822 0.0
H352 H 0.08528 0.20865 0.68381 0.0
H353 H 0.07391 0.08269 0.63972 0.0
H354 H 0.12728 0.17689 0.72431 0.0
H355 H 0.11507 0.05118 0.68034 0.0
H356 H 0.11563 0.01344 0.78548 0.0
H357 H 0.09228 0.0403 0.73641 0.0
H358 H 0.19812 0.13643 0.73599 0.0
H359 H 0.22223 0.10843 0.78494 0.0
C360 C 0.09232 0.17448 0.68245 0.0
C361 C 0.07585 0.14822 0.65861 0.0
C362 C 0.11654 0.15634 0.70557 0.0
C363 C 0.12426 0.11149 0.70552 0.0
C364 C 0.10946 0.08577 0.68102 0.0
C365 C 0.08589 0.10397 0.65773 0.0
C366 C 0.13487 0.03906 0.77429 0.0
C367 C 0.17106 0.05839 0.78872 0.0
C368 C 0.12142 0.05462 0.74628 0.0
C369 C 0.14323 0.09068 0.73248 0.0
C370 C 0.18068 0.10869 0.74619 0.0
C371 C 0.19477 0.09231 0.77394 0.0
H372 H 0.04706 0.76821 0.23472 0.0
H373 H 0.13207 0.79653 0.16015 0.0
H374 H 0.09405 0.81168 0.26798 0.0
H375 H 0.18013 0.83918 0.19384 0.0
H376 H 0.21004 0.96574 0.2496 0.0
H377 H 0.1775 0.90925 0.21716 0.0
H378 H 0.15995 0.82331 0.29428 0.0
H379 H 0.1915 0.88067 0.32702 0.0
C380 C 0.07635 0.78286 0.22554 0.0
C381 C 0.08543 0.77936 0.19462 0.0
C382 C 0.10357 0.80766 0.24475 0.0
C383 C 0.14077 0.82952 0.23361 0.0
C384 C 0.15133 0.82355 0.20308 0.0
C385 C 0.12396 0.79876 0.1838 0.0
C386 C 0.19973 0.93464 0.25966 0.0
C387 C 0.20292 0.92801 0.29102 0.0
C388 C 0.18133 0.90196 0.24094 0.0
C389 C 0.16576 0.86163 0.25303 0.0
C390 C 0.17091 0.8542 0.28422 0.0
C391 C 0.18921 0.88703 0.303 0.0
H392 H 0.97452 0.83968 0.71143 0.0
H393 H 0.8688 0.77727 0.6622 0.0
H394 H 0.92573 0.8749 0.74396 0.0
H395 H 0.81911 0.81373 0.69501 0.0
H396 H 0.75798 0.8432 0.79132 0.0
H397 H 0.79412 0.81392 0.74766 0.0
H398 H 0.87676 0.93152 0.74409 0.0
H399 H 0.84187 0.95943 0.78843 0.0
C400 C 0.94072 0.8336 0.70738 0.0
C401 C 0.9257 0.80559 0.68408 0.0
C402 C 0.91257 0.85435 0.72593 0.0
C403 C 0.86831 0.84803 0.72182 0.0
C404 C 0.85299 0.81949 0.69876 0.0
C405 C 0.88143 0.79856 0.68 0.0
C406 C 0.78258 0.86352 0.78026 0.0
C407 C 0.79705 0.90366 0.79308 0.0
C408 C 0.80355 0.84663 0.75535 0.0
C409 C 0.8392 0.86979 0.74284 0.0
C410 C 0.85026 0.91219 0.75368 0.0
C411 C 0.82982 0.92864 0.77877 0.0
H412 H 0.85073 -0.00686 0.28743 0.0
H413 H 0.73705 0.06431 0.29744 0.0
H414 H 0.88041 0.04998 0.25391 0.0
H415 H 0.76695 0.1213 0.2629 0.0
H416 H 0.83601 0.16741 0.16534 0.0
H417 H 0.79652 0.11984 0.20161 0.0
H418 H 0.90049 0.13657 0.26523 0.0
H419 H 0.93949 0.1843 0.22975 0.0
C420 C 0.83191 0.02082 0.28235 0.0
C421 C 0.79154 0.02424 0.29519 0.0
C422 C 0.84903 0.05342 0.2632 0.0
C423 C 0.826 0.08997 0.25594 0.0
C424 C 0.78525 0.09331 0.26819 0.0
C425 C 0.76831 0.06089 0.28799 0.0
C426 C 0.84999 0.16171 0.18732 0.0
C427 C 0.89116 0.1793 0.19446 0.0
C428 C 0.82734 0.13462 0.20805 0.0
C429 C 0.84572 0.12439 0.23603 0.0
C430 C 0.88577 0.14379 0.24372 0.0
C431 C 0.90806 0.17114 0.22331 0.0
loop_
_geom_bond_atom_site_label_1
_geom_bond_atom_site_label_2
_geom_bond_distance
_geom_bond_site_symmetry_2
_ccdc_geom_bond_type
Mg0 O1 2.028 . S
Mg0 O7 1.986 . S
Mg0 O9 2.114 1_455 S
Mg0 O10 2.251 1_455 S
Mg0 O13 2.010 . S
O1 Mg0 2.028 . S
O1 C4 1.250 . S
O2 Mg3 2.028 . S
O2 C4 1.248 . S
Mg3 O2 2.028 . S
Mg3 O8 2.032 . S
Mg3 O10 2.079 1_455 S
C4 O1 1.250 . S
C4 O2 1.248 . S
C5 O6 1.264 . S
C5 O13 1.249 . S
O6 C5 1.264 . S
O7 Mg0 1.986 . S
O7 C11 1.246 . S
O8 Mg3 2.032 . S
O8 C11 1.259 . S
O9 Mg0 2.114 1_655 S
O9 C12 1.252 . S
O10 Mg0 2.251 1_655 S
O10 Mg3 2.079 1_655 S
O10 C12 1.273 . S
C11 O7 1.246 . S
C11 O8 1.259 . S
C12 O9 1.252 . S
C12 O10 1.273 . S
O13 Mg0 2.010 . S
O13 C5 1.249 . S
Mg14 O15 2.028 1_545 S
Mg14 O21 1.986 1_545 S
Mg14 O23 2.114 . S
Mg14 O24 2.251 . S
Mg14 O27 2.010 1_545 S
O15 Mg14 2.028 1_565 S
O15 C18 1.250 . S
O16 Mg17 2.028 1_565 S
O16 C18 1.248 . S
Mg17 O16 2.028 1_545 S
Mg17 O22 2.032 1_545 S
Mg17 O24 2.079 . S
C18 O15 1.250 . S
C18 O16 1.248 . S
C19 O20 1.264 . S
C19 O27 1.249 . S
O20 C19 1.264 . S
O21 Mg14 1.986 1_565 S
O21 C25 1.246 . S
O22 Mg17 2.032 1_565 S
O22 C25 1.259 . S
O23 Mg14 2.114 . S
O23 C26 1.252 . S
O24 Mg14 2.251 . S
O24 Mg17 2.079 . S
O24 C26 1.273 . S
C25 O21 1.246 . S
C25 O22 1.259 . S
C26 O23 1.252 . S
C26 O24 1.273 . S
O27 Mg14 2.010 1_565 S
O27 C19 1.249 . S
Mg28 O29 2.028 . S
Mg28 O35 1.986 . S
Mg28 O37 2.114 1_655 S
Mg28 O38 2.251 1_655 S
Mg28 O41 2.010 . S
O29 Mg28 2.028 . S
O29 C32 1.250 . S
O30 Mg31 2.028 . S
O30 C32 1.248 . S
Mg31 O30 2.028 . S
Mg31 O36 2.032 . S
Mg31 O38 2.079 1_655 S
C32 O29 1.250 . S
C32 O30 1.248 . S
C33 O34 1.264 . S
C33 O41 1.249 . S
O34 C33 1.264 . S
O35 Mg28 1.986 . S
O35 C39 1.246 . S
O36 Mg31 2.032 . S
O36 C39 1.259 . S
O37 Mg28 2.114 1_455 S
O37 C40 1.252 . S
O38 Mg28 2.251 1_455 S
O38 Mg31 2.079 1_455 S
O38 C40 1.273 . S
C39 O35 1.246 . S
C39 O36 1.259 . S
C40 O37 1.252 . S
C40 O38 1.273 . S
O41 Mg28 2.010 . S
O41 C33 1.249 . S
Mg42 O43 2.028 1_565 S
Mg42 O49 1.986 1_565 S
Mg42 O51 2.114 . S
Mg42 O52 2.251 . S
Mg42 O55 2.010 1_565 S
O43 Mg42 2.028 1_545 S
O43 C46 1.250 . S
O44 Mg45 2.028 1_545 S
O44 C46 1.248 . S
Mg45 O44 2.028 1_565 S
Mg45 O50 2.032 1_565 S
Mg45 O52 2.079 . S
C46 O43 1.250 . S
C46 O44 1.248 . S
C47 O48 1.264 . S
C47 O55 1.249 . S
O48 C47 1.264 . S
O49 Mg42 1.986 1_545 S
O49 C53 1.246 . S
O50 Mg45 2.032 1_545 S
O50 C53 1.259 . S
O51 Mg42 2.114 . S
O51 C54 1.252 . S
O52 Mg42 2.251 . S
O52 Mg45 2.079 . S
O52 C54 1.273 . S
C53 O49 1.246 . S
C53 O50 1.259 . S
C54 O51 1.252 . S
C54 O52 1.273 . S
O55 Mg42 2.010 1_545 S
O55 C47 1.249 . S
Mg56 O57 2.028 . S
Mg56 O63 1.986 . S
Mg56 O65 2.114 1_655 S
Mg56 O66 2.251 1_655 S
Mg56 O69 2.010 . S
O57 Mg56 2.028 . S
O57 C60 1.250 . S
O58 Mg59 2.028 . S
O58 C60 1.248 . S
Mg59 O58 2.028 . S
Mg59 O64 2.032 . S
Mg59 O66 2.079 1_655 S
C60 O57 1.250 . S
C60 O58 1.248 . S
C61 O62 1.264 . S
C61 O69 1.249 . S
O62 C61 1.264 . S
O63 Mg56 1.986 . S
O63 C67 1.246 . S
O64 Mg59 2.032 . S
O64 C67 1.259 . S
O65 Mg56 2.114 1_455 S
O65 C68 1.252 . S
O66 Mg56 2.251 1_455 S
O66 Mg59 2.079 1_455 S
O66 C68 1.273 . S
C67 O63 1.246 . S
C67 O64 1.259 . S
C68 O65 1.252 . S
C68 O66 1.273 . S
O69 Mg56 2.010 . S
O69 C61 1.249 . S
Mg70 O71 2.028 1_545 S
Mg70 O77 1.986 . S
Mg70 O79 2.114 . S
Mg70 O80 2.251 . S
Mg70 O83 2.010 . S
O71 Mg70 2.028 1_565 S
O71 C74 1.250 . S
O72 Mg73 2.028 1_565 S
O72 C74 1.248 . S
Mg73 O72 2.028 1_545 S
Mg73 O78 2.032 . S
Mg73 O80 2.079 . S
C74 O71 1.250 . S
C74 O72 1.248 . S
C75 O76 1.264 . S
C75 O83 1.249 . S
O76 C75 1.264 . S
O77 Mg70 1.986 . S
O77 C81 1.246 . S
O78 Mg73 2.032 . S
O78 C81 1.259 . S
O79 Mg70 2.114 . S
O79 C82 1.252 . S
O80 Mg70 2.251 . S
O80 Mg73 2.079 . S
O80 C82 1.273 . S
C81 O77 1.246 . S
C81 O78 1.259 . S
C82 O79 1.252 . S
C82 O80 1.273 . S
O83 Mg70 2.010 . S
O83 C75 1.249 . S
Mg84 O85 2.028 . S
Mg84 O91 1.986 . S
Mg84 O93 2.114 1_455 S
Mg84 O94 2.251 1_455 S
Mg84 O97 2.010 . S
O85 Mg84 2.028 . S
O85 C88 1.250 . S
O86 Mg87 2.028 . S
O86 C88 1.248 . S
Mg87 O86 2.028 . S
Mg87 O92 2.032 . S
Mg87 O94 2.079 1_455 S
C88 O85 1.250 . S
C88 O86 1.248 . S
C89 O90 1.264 . S
C89 O97 1.249 . S
O90 C89 1.264 . S
O91 Mg84 1.986 . S
O91 C95 1.246 . S
O92 Mg87 2.032 . S
O92 C95 1.259 . S
O93 Mg84 2.114 1_655 S
O93 C96 1.252 . S
O94 Mg84 2.251 1_655 S
O94 Mg87 2.079 1_655 S
O94 C96 1.273 . S
C95 O91 1.246 . S
C95 O92 1.259 . S
C96 O93 1.252 . S
C96 O94 1.273 . S
O97 Mg84 2.010 . S
O97 C89 1.249 . S
Mg98 O99 2.028 1_565 S
Mg98 O105 1.986 . S
Mg98 O107 2.114 . S
Mg98 O108 2.251 . S
Mg98 O111 2.010 . S
O99 Mg98 2.028 1_545 S
O99 C102 1.250 . S
O100 Mg101 2.028 1_545 S
O100 C102 1.248 . S
Mg101 O100 2.028 1_565 S
Mg101 O106 2.032 . S
Mg101 O108 2.079 . S
C102 O99 1.250 . S
C102 O100 1.248 . S
C103 O104 1.264 . S
C103 O111 1.249 . S
O104 C103 1.264 . S
O105 Mg98 1.986 . S
O105 C109 1.246 . S
O106 Mg101 2.032 . S
O106 C109 1.259 . S
O107 Mg98 2.114 . S
O107 C110 1.252 . S
O108 Mg98 2.251 . S
O108 Mg101 2.079 . S
O108 C110 1.273 . S
C109 O105 1.246 . S
C109 O106 1.259 . S
C110 O107 1.252 . S
C110 O108 1.273 . S
O111 Mg98 2.010 . S
O111 C103 1.249 . S
H112 C120 0.950 . S
H113 C125 0.950 . S
H114 C122 0.950 . S
H115 C124 0.950 . S
H116 C126 0.950 . S
H117 C128 0.950 . S
H118 C130 0.950 . S
H119 C131 0.950 . S
C120 H112 0.950 . S
C120 C121 1.386 1_455 S
C120 C122 1.391 . S
C121 C120 1.386 1_655 S
C121 C125 1.393 . S
C122 H114 0.950 . S
C122 C120 1.391 . S
C122 C123 1.400 1_455 S
C123 C122 1.400 1_655 S
C123 C124 1.398 . S
C123 C129 1.491 1_655 S
C124 H115 0.950 . S
C124 C123 1.398 . S
C124 C125 1.391 . S
C125 H113 0.950 . S
C125 C121 1.393 . S
C125 C124 1.391 . S
C126 H116 0.950 . S
C126 C127 1.386 1_655 S
C126 C128 1.391 . S
C127 C126 1.386 1_455 S
C127 C131 1.393 . S
C128 H117 0.950 . S
C128 C126 1.391 . S
C128 C129 1.400 1_655 S
C129 C123 1.491 1_455 S
C129 C128 1.400 1_455 S
C129 C130 1.398 . S
C130 H118 0.950 . S
C130 C129 1.398 . S
C130 C131 1.391 . S
C131 H119 0.950 . S
C131 C127 1.393 . S
C131 C130 1.391 . S
H132 C140 0.950 . S
H133 C145 0.950 . S
H134 C142 0.950 . S
H135 C144 0.950 . S
H136 C146 0.950 . S
H137 C148 0.950 . S
H138 C150 0.950 . S
H139 C151 0.950 . S
C140 H132 0.950 . S
C140 C141 1.386 . S
C140 C142 1.391 . S
C141 C140 1.386 . S
C141 C145 1.393 1_545 S
C142 H134 0.950 . S
C142 C140 1.391 . S
C142 C143 1.400 . S
C143 C142 1.400 . S
C143 C144 1.398 1_545 S
C143 C149 1.491 1_545 S
C144 H135 0.950 . S
C144 C143 1.398 1_565 S
C144 C145 1.391 . S
C145 H133 0.950 . S
C145 C141 1.393 1_565 S
C145 C144 1.391 . S
C146 H136 0.950 . S
C146 C147 1.386 . S
C146 C148 1.391 . S
C147 C146 1.386 . S
C147 C151 1.393 1_565 S
C148 H137 0.950 . S
C148 C146 1.391 . S
C148 C149 1.400 . S
C149 C143 1.491 1_565 S
C149 C148 1.400 . S
C149 C150 1.398 1_565 S
C150 H138 0.950 . S
C150 C149 1.398 1_545 S
C150 C151 1.391 . S
C151 H139 0.950 . S
C151 C147 1.393 1_545 S
C151 C150 1.391 . S
H152 C160 0.950 . S
H153 C165 0.950 . S
H154 C162 0.950 . S
H155 C164 0.950 . S
H156 C166 0.950 . S
H157 C168 0.950 . S
H158 C170 0.950 . S
H159 C171 0.950 . S
C160 H152 0.950 . S
C160 C161 1.386 1_455 S
C160 C162 1.391 . S
C161 C160 1.386 1_655 S
C161 C165 1.393 . S
C162 H154 0.950 . S
C162 C160 1.391 . S
C162 C163 1.400 1_455 S
C163 C162 1.400 1_655 S
C163 C164 1.398 . S
C163 C169 1.491 1_655 S
C164 H155 0.950 . S
C164 C163 1.398 . S
C164 C165 1.391 . S
C165 H153 0.950 . S
C165 C161 1.393 . S
C165 C164 1.391 . S
C166 H156 0.950 . S
C166 C167 1.386 1_655 S
C166 C168 1.391 . S
C167 C166 1.386 1_455 S
C167 C171 1.393 . S
C168 H157 0.950 . S
C168 C166 1.391 . S
C168 C169 1.400 1_655 S
C169 C163 1.491 1_455 S
C169 C168 1.400 1_455 S
C169 C170 1.398 . S
C170 H158 0.950 . S
C170 C169 1.398 . S
C170 C171 1.391 . S
C171 H159 0.950 . S
C171 C167 1.393 . S
C171 C170 1.391 . S
H172 C180 0.950 . S
H173 C185 0.950 . S
H174 C182 0.950 . S
H175 C184 0.959 . S
H176 C186 0.950 . S
H177 C188 0.950 . S
H178 C190 0.959 . S
H179 C191 0.950 . S
C180 H172 0.950 . S
C180 C181 1.386 . S
C180 C182 1.391 . S
C181 C180 1.386 . S
C181 C185 1.393 . S
C182 H174 0.950 . S
C182 C180 1.391 . S
C182 C183 1.400 . S
C183 C182 1.400 . S
C183 C184 1.396 1_545 S
C183 C189 1.491 1_545 S
C184 H175 0.959 . S
C184 C183 1.396 1_565 S
C184 C185 1.386 1_565 S
C185 H173 0.950 . S
C185 C181 1.393 . S
C185 C184 1.386 1_545 S
C186 H176 0.950 . S
C186 C187 1.386 . S
C186 C188 1.391 . S
C187 C186 1.386 . S
C187 C191 1.393 . S
C188 H177 0.950 . S
C188 C186 1.391 . S
C188 C189 1.400 . S
C189 C183 1.491 1_565 S
C189 C188 1.400 . S
C189 C190 1.396 1_565 S
C190 H178 0.959 . S
C190 C189 1.396 1_545 S
C190 C191 1.386 1_545 S
C191 H179 0.950 . S
C191 C187 1.393 . S
C191 C190 1.386 1_565 S
H192 C200 0.950 . S
H193 C205 0.950 . S
H194 C202 0.950 . S
H195 C204 0.950 . S
H196 C206 0.950 . S
H197 C208 0.950 . S
H198 C210 0.950 . S
H199 C211 0.950 . S
C200 H192 0.950 . S
C200 C201 1.386 . S
C200 C202 1.391 . S
C201 C200 1.386 . S
C201 C205 1.393 . S
C202 H194 0.950 . S
C202 C200 1.391 . S
C202 C203 1.400 . S
C203 C202 1.400 . S
C203 C204 1.398 . S
C203 C209 1.491 . S
C204 H195 0.950 . S
C204 C203 1.398 . S
C204 C205 1.391 . S
C205 H193 0.950 . S
C205 C201 1.393 . S
C205 C204 1.391 . S
C206 H196 0.950 . S
C206 C207 1.386 . S
C206 C208 1.391 . S
C207 C206 1.386 . S
C207 C211 1.393 . S
C208 H197 0.950 . S
C208 C206 1.391 . S
C208 C209 1.400 . S
C209 C203 1.491 . S
C209 C208 1.400 . S
C209 C210 1.398 . S
C210 H198 0.950 . S
C210 C209 1.398 . S
C210 C211 1.391 . S
C211 H199 0.950 . S
C211 C207 1.393 . S
C211 C210 1.391 . S
H212 C220 0.950 . S
H213 C225 0.950 . S
H214 C222 0.950 . S
H215 C224 0.950 . S
H216 C226 0.950 . S
H217 C228 0.950 . S
H218 C230 0.950 . S
H219 C231 0.950 . S
C220 H212 0.950 . S
C220 C221 1.386 . S
C220 C222 1.391 . S
C221 C220 1.386 . S
C221 C225 1.393 . S
C222 H214 0.950 . S
C222 C220 1.391 . S
C222 C223 1.400 . S
C223 C222 1.400 . S
C223 C224 1.398 . S
C223 C229 1.491 . S
C224 H215 0.950 . S
C224 C223 1.398 . S
C224 C225 1.391 . S
C225 H213 0.950 . S
C225 C221 1.393 . S
C225 C224 1.391 . S
C226 H216 0.950 . S
C226 C227 1.386 . S
C226 C228 1.391 . S
C227 C226 1.386 . S
C227 C231 1.393 . S
C228 H217 0.950 . S
C228 C226 1.391 . S
C228 C229 1.400 . S
C229 C223 1.491 . S
C229 C228 1.400 . S
C229 C230 1.398 . S
C230 H218 0.950 . S
C230 C229 1.398 . S
C230 C231 1.391 . S
C231 H219 0.950 . S
C231 C227 1.393 . S
C231 C230 1.391 . S
H232 C240 0.950 . S
H233 C245 0.950 . S
H234 C242 0.950 . S
H235 C244 0.950 . S
H236 C246 0.950 . S
H237 C248 0.950 . S
H238 C250 0.950 . S
H239 C251 0.950 . S
C240 H232 0.950 . S
C240 C241 1.386 . S
C240 C242 1.391 . S
C241 C240 1.386 . S
C241 C245 1.393 . S
C242 H234 0.950 . S
C242 C240 1.391 . S
C242 C243 1.400 . S
C243 C242 1.400 . S
C243 C244 1.398 . S
C243 C249 1.491 . S
C244 H235 0.950 . S
C244 C243 1.398 . S
C244 C245 1.391 . S
C245 H233 0.950 . S
C245 C241 1.393 . S
C245 C244 1.391 . S
C246 H236 0.950 . S
C246 C247 1.386 . S
C246 C248 1.391 . S
C247 C246 1.386 . S
C247 C251 1.393 . S
C248 H237 0.950 . S
C248 C246 1.391 . S
C248 C249 1.400 . S
C249 C243 1.491 . S
C249 C248 1.400 . S
C249 C250 1.398 . S
C250 H238 0.950 . S
C250 C249 1.398 . S
C250 C251 1.391 . S
C251 H239 0.950 . S
C251 C247 1.393 . S
C251 C250 1.391 . S
H252 C260 0.950 . S
H253 C265 0.950 . S
H254 C262 0.950 . S
H255 C264 0.950 . S
H256 C266 0.950 . S
H257 C268 0.950 . S
H258 C270 0.950 . S
H259 C271 0.950 . S
C260 H252 0.950 . S
C260 C261 1.386 . S
C260 C262 1.391 . S
C261 C260 1.386 . S
C261 C265 1.393 . S
C262 H254 0.950 . S
C262 C260 1.391 . S
C262 C263 1.400 . S
C263 C262 1.400 . S
C263 C264 1.398 . S
C263 C269 1.491 . S
C264 H255 0.950 . S
C264 C263 1.398 . S
C264 C265 1.391 . S
C265 H253 0.950 . S
C265 C261 1.393 . S
C265 C264 1.391 . S
C266 H256 0.950 . S
C266 C267 1.386 . S
C266 C268 1.391 . S
C267 C266 1.386 . S
C267 C271 1.393 . S
C268 H257 0.950 . S
C268 C266 1.391 . S
C268 C269 1.400 . S
C269 C263 1.491 . S
C269 C268 1.400 . S
C269 C270 1.398 . S
C270 H258 0.950 . S
C270 C269 1.398 . S
C270 C271 1.391 . S
C271 H259 0.950 . S
C271 C267 1.393 . S
C271 C270 1.391 . S
H272 C280 0.950 . S
H273 C285 0.950 . S
H274 C282 0.950 1_554 S
H275 C284 0.950 . S
H276 C286 0.950 . S
H277 C288 0.950 . S
H278 C290 0.950 . S
H279 C291 0.950 . S
C280 H272 0.950 . S
C280 C281 1.386 . S
C280 C282 1.391 . S
C281 C280 1.386 . S
C281 C285 1.393 . S
C282 H274 0.950 1_556 S
C282 C280 1.391 . S
C282 C283 1.400 . S
C283 C282 1.400 . S
C283 C284 1.398 . S
C283 C289 1.491 1_556 S
C284 H275 0.950 . S
C284 C283 1.398 . S
C284 C285 1.391 . S
C285 H273 0.950 . S
C285 C281 1.393 . S
C285 C284 1.391 . S
C286 H276 0.950 . S
C286 C287 1.386 . S
C286 C288 1.391 1_554 S
C287 C286 1.386 . S
C287 C291 1.393 . S
C288 H277 0.950 . S
C288 C286 1.391 1_556 S
C288 C289 1.400 1_556 S
C289 C283 1.491 1_554 S
C289 C288 1.400 1_554 S
C289 C290 1.398 . S
C290 H278 0.950 . S
C290 C289 1.398 . S
C290 C291 1.391 . S
C291 H279 0.950 . S
C291 C287 1.393 . S
C291 C290 1.391 . S
H292 C300 0.950 . S
H293 C305 0.950 . S
H294 C302 0.950 . S
H295 C304 0.950 . S
H296 C306 0.950 . S
H297 C308 0.950 . S
H298 C310 0.950 . S
H299 C311 0.950 . S
C300 H292 0.950 . S
C300 C301 1.386 . S
C300 C302 1.391 . S
C301 C300 1.386 . S
C301 C305 1.393 . S
C302 H294 0.950 . S
C302 C300 1.391 . S
C302 C303 1.392 1_556 S
C303 C302 1.392 1_554 S
C303 C304 1.389 1_554 S
C303 C309 1.508 . S
C304 H295 0.950 . S
C304 C303 1.389 1_556 S
C304 C305 1.391 . S
C305 H293 0.950 . S
C305 C301 1.393 . S
C305 C304 1.391 . S
C306 H296 0.950 . S
C306 C307 1.386 . S
C306 C308 1.391 . S
C307 C306 1.386 . S
C307 C311 1.393 . S
C308 H297 0.950 . S
C308 C306 1.391 . S
C308 C309 1.400 . S
C309 C303 1.508 . S
C309 C308 1.400 . S
C309 C310 1.398 . S
C310 H298 0.950 . S
C310 C309 1.398 . S
C310 C311 1.391 . S
C311 H299 0.950 . S
C311 C307 1.393 . S
C311 C310 1.391 . S
H312 C320 0.950 . S
H313 C325 0.950 . S
H314 C322 0.950 . S
H315 C324 0.950 1_556 S
H316 C326 0.950 . S
H317 C328 0.950 . S
H318 C330 0.950 . S
H319 C331 0.950 . S
C320 H312 0.950 . S
C320 C321 1.386 . S
C320 C322 1.391 . S
C321 C320 1.386 . S
C321 C325 1.393 . S
C322 H314 0.950 . S
C322 C320 1.391 . S
C322 C323 1.400 . S
C323 C322 1.400 . S
C323 C324 1.398 . S
C323 C329 1.491 1_554 S
C324 H315 0.950 1_554 S
C324 C323 1.398 . S
C324 C325 1.391 . S
C325 H313 0.950 . S
C325 C321 1.393 . S
C325 C324 1.391 . S
C326 H316 0.950 . S
C326 C327 1.386 . S
C326 C328 1.391 . S
C327 C326 1.386 . S
C327 C331 1.393 . S
C328 H317 0.950 . S
C328 C326 1.391 . S
C328 C329 1.400 . S
C329 C323 1.491 1_556 S
C329 C328 1.400 . S
C329 C330 1.398 . S
C330 H318 0.950 . S
C330 C329 1.398 . S
C330 C331 1.391 . S
C331 H319 0.950 . S
C331 C327 1.393 . S
C331 C330 1.391 . S
H332 C340 0.950 . S
H333 C345 0.950 . S
H334 C342 0.950 1_554 S
H335 C344 0.950 . S
H336 C346 0.950 . S
H337 C348 0.950 . S
H338 C350 0.950 . S
H339 C351 0.950 . S
C340 H332 0.950 . S
C340 C341 1.386 . S
C340 C342 1.391 . S
C341 C340 1.386 . S
C341 C345 1.393 . S
C342 H334 0.950 1_556 S
C342 C340 1.391 . S
C342 C343 1.400 . S
C343 C342 1.400 . S
C343 C344 1.399 . S
C343 C349 1.490 1_556 S
C344 H335 0.950 . S
C344 C343 1.399 . S
C344 C345 1.391 . S
C345 H333 0.950 . S
C345 C341 1.393 . S
C345 C344 1.391 . S
C346 H336 0.950 . S
C346 C347 1.386 . S
C346 C348 1.391 . S
C347 C346 1.386 . S
C347 C351 1.393 . S
C348 H337 0.950 . S
C348 C346 1.391 . S
C348 C349 1.400 . S
C349 C343 1.490 1_554 S
C349 C348 1.400 . S
C349 C350 1.398 . S
C350 H338 0.950 . S
C350 C349 1.398 . S
C350 C351 1.391 . S
C351 H339 0.950 . S
C351 C347 1.393 . S
C351 C350 1.391 . S
H352 C360 0.950 . S
H353 C365 0.950 . S
H354 C362 0.950 . S
H355 C364 0.950 . S
H356 C366 0.950 . S
H357 C368 0.950 . S
H358 C370 0.950 . S
H359 C371 0.950 . S
C360 H352 0.950 . S
C360 C361 1.386 . S
C360 C362 1.391 . S
C361 C360 1.386 . S
C361 C365 1.393 . S
C362 H354 0.950 . S
C362 C360 1.391 . S
C362 C363 1.400 . S
C363 C362 1.400 . S
C363 C364 1.398 . S
C363 C369 1.491 . S
C364 H355 0.950 . S
C364 C363 1.398 . S
C364 C365 1.391 . S
C365 H353 0.950 . S
C365 C361 1.393 . S
C365 C364 1.391 . S
C366 H356 0.950 . S
C366 C367 1.386 . S
C366 C368 1.391 . S
C367 C366 1.386 . S
C367 C371 1.393 . S
C368 H357 0.950 . S
C368 C366 1.391 . S
C368 C369 1.400 . S
C369 C363 1.491 . S
C369 C368 1.400 . S
C369 C370 1.398 . S
C370 H358 0.950 . S
C370 C369 1.398 . S
C370 C371 1.391 . S
C371 H359 0.950 . S
C371 C367 1.393 . S
C371 C370 1.391 . S
H372 C380 0.950 . S
H373 C385 0.950 . S
H374 C382 0.950 . S
H375 C384 0.950 . S
H376 C386 0.950 . S
H377 C388 0.950 . S
H378 C390 0.950 . S
H379 C391 0.950 . S
C380 H372 0.950 . S
C380 C381 1.386 . S
C380 C382 1.391 . S
C381 C380 1.386 . S
C381 C385 1.393 . S
C382 H374 0.950 . S
C382 C380 1.391 . S
C382 C383 1.400 . S
C383 C382 1.400 . S
C383 C384 1.398 . S
C383 C389 1.491 . S
C384 H375 0.950 . S
C384 C383 1.398 . S
C384 C385 1.391 . S
C385 H373 0.950 . S
C385 C381 1.393 . S
C385 C384 1.391 . S
C386 H376 0.950 . S
C386 C387 1.386 . S
C386 C388 1.391 . S
C387 C386 1.386 . S
C387 C391 1.393 . S
C388 H377 0.950 . S
C388 C386 1.391 . S
C388 C389 1.400 . S
C389 C383 1.491 . S
C389 C388 1.400 . S
C389 C390 1.398 . S
C390 H378 0.950 . S
C390 C389 1.398 . S
C390 C391 1.391 . S
C391 H379 0.950 . S
C391 C387 1.393 . S
C391 C390 1.391 . S
H392 C400 0.950 . S
H393 C405 0.950 . S
H394 C402 0.950 . S
H395 C404 0.950 . S
H396 C406 0.950 . S
H397 C408 0.950 . S
H398 C410 0.950 . S
H399 C411 0.950 . S
C400 H392 0.950 . S
C400 C401 1.386 . S
C400 C402 1.391 . S
C401 C400 1.386 . S
C401 C405 1.393 . S
C402 H394 0.950 . S
C402 C400 1.391 . S
C402 C403 1.400 . S
C403 C402 1.400 . S
C403 C404 1.398 . S
C403 C409 1.491 . S
C404 H395 0.950 . S
C404 C403 1.398 . S
C404 C405 1.391 . S
C405 H393 0.950 . S
C405 C401 1.393 . S
C405 C404 1.391 . S
C406 H396 0.950 . S
C406 C407 1.386 . S
C406 C408 1.391 . S
C407 C406 1.386 . S
C407 C411 1.393 . S
C408 H397 0.950 . S
C408 C406 1.391 . S
C408 C409 1.400 . S
C409 C403 1.491 . S
C409 C408 1.400 . S
C409 C410 1.398 . S
C410 H398 0.950 . S
C410 C409 1.398 . S
C410 C411 1.391 . S
C411 H399 0.950 . S
C411 C407 1.393 . S
C411 C410 1.391 . S
H412 C420 0.950 . S
H413 C425 0.950 . S
H414 C422 0.950 . S
H415 C424 0.950 . S
H416 C426 0.950 . S
H417 C428 0.950 . S
H418 C430 0.950 . S
H419 C431 0.950 . S
C420 H412 0.950 . S
C420 C421 1.386 . S
C420 C422 1.391 . S
C421 C420 1.386 . S
C421 C425 1.393 . S
C422 H414 0.950 . S
C422 C420 1.391 . S
C422 C423 1.400 . S
C423 C422 1.400 . S
C423 C424 1.398 . S
C423 C429 1.491 . S
C424 H415 0.950 . S
C424 C423 1.398 . S
C424 C425 1.391 . S
C425 H413 0.950 . S
C425 C421 1.393 . S
C425 C424 1.391 . S
C426 H416 0.950 . S
C426 C427 1.386 . S
C426 C428 1.391 . S
C427 C426 1.386 . S
C427 C431 1.393 . S
C428 H417 0.950 . S
C428 C426 1.391 . S
C428 C429 1.400 . S
C429 C423 1.491 . S
C429 C428 1.400 . S
C429 C430 1.398 . S
C430 H418 0.950 . S
C430 C429 1.398 . S
C430 C431 1.391 . S
C431 H419 0.950 . S
C431 C427 1.393 . S
C431 C430 1.391 . S
C121 C39 1.252 . S
C127 C11 1.237 . S
C141 C53 1.212 . S
C147 C25 1.201 . S
C161 C67 1.221 . S
C167 C95 1.235 . S
C181 C75 1.031 . S
C187 C103 1.023 . S
C201 C26 0.816 . S
C207 C4 0.782 . S
C221 C18 0.876 . S
C227 C40 0.885 . S
C241 C54 0.831 . S
C247 C32 0.820 . S
C261 C46 0.902 . S
C267 C12 0.914 . S
C281 C102 0.887 . S
C287 C60 0.933 . S
C301 C82 0.756 . S
C307 C68 0.736 . S
C321 C88 0.894 . S
C327 C74 0.889 . S
C341 C110 0.756 . S
C347 C96 0.764 . S
C361 C5 1.583 . S
C367 C81 1.683 . S
C381 C89 1.549 . S
C387 C19 1.553 . S
C401 C33 1.613 . S
C407 C109 1.660 . S
C421 C47 1.528 . S
C427 C61 1.523 . S
