# Generated by pormake.
# Topology umk, (4)-cn, num edge types: 1
# Building blocks:
#     Node 0, Type 0, BuildingBlock: QUQFOY_clean_sbu_3, # of connection points: 4
#     Node 1, Type 0, BuildingBlock: QUQFOY_clean_sbu_3, # of connection points: 4
#     Node 2, Type 0, BuildingBlock: QUQFOY_clean_sbu_3, # of connection points: 4
#     Node 3, Type 0, BuildingBlock: QUQFOY_clean_sbu_3, # of connection points: 4
#     Node 4, Type 0, BuildingBlock: QUQFOY_clean_sbu_3, # of connection points: 4
#     Node 5, Type 0, BuildingBlock: QUQFOY_clean_sbu_3, # of connection points: 4
#     Node 6, Type 0, BuildingBlock: QUQFOY_clean_sbu_3, # of connection points: 4
#     Node 7, Type 0, BuildingBlock: QUQFOY_clean_sbu_3, # of connection points: 4
#     Node 8, Type 0, BuildingBlock: QUQFOY_clean_sbu_3, # of connection points: 4
#     Node 9, Type 0, BuildingBlock: QUQFOY_clean_sbu_3, # of connection points: 4
#     Node 10, Type 0, BuildingBlock: QUQFOY_clean_sbu_3, # of connection points: 4
#     Node 11, Type 0, BuildingBlock: QUQFOY_clean_sbu_3, # of connection points: 4
#     Node 12, Type 0, BuildingBlock: QUQFOY_clean_sbu_3, # of connection points: 4
#     Node 13, Type 0, BuildingBlock: QUQFOY_clean_sbu_3, # of connection points: 4
#     Node 14, Type 0, BuildingBlock: QUQFOY_clean_sbu_3, # of connection points: 4
#     Node 15, Type 0, BuildingBlock: QUQFOY_clean_sbu_3, # of connection points: 4
#     Node 16, Type 0, BuildingBlock: QUQFOY_clean_sbu_3, # of connection points: 4
#     Node 17, Type 0, BuildingBlock: QUQFOY_clean_sbu_3, # of connection points: 4
#     Node 18, Type 0, BuildingBlock: QUQFOY_clean_sbu_3, # of connection points: 4
#     Node 19, Type 0, BuildingBlock: QUQFOY_clean_sbu_3, # of connection points: 4
#     Node 20, Type 0, BuildingBlock: QUQFOY_clean_sbu_3, # of connection points: 4
#     Node 21, Type 0, BuildingBlock: QUQFOY_clean_sbu_3, # of connection points: 4
#     Node 22, Type 0, BuildingBlock: QUQFOY_clean_sbu_3, # of connection points: 4
#     Node 23, Type 0, BuildingBlock: QUQFOY_clean_sbu_3, # of connection points: 4
#     Edge 24, Type (0, 0), BuildingBlock: KIFKEQ_clean_linker_1, # of connection points: 2
#     Edge 25, Type (0, 0), BuildingBlock: KIFKEQ_clean_linker_1, # of connection points: 2
#     Edge 26, Type (0, 0), BuildingBlock: KIFKEQ_clean_linker_1, # of connection points: 2
#     Edge 27, Type (0, 0), BuildingBlock: KIFKEQ_clean_linker_1, # of connection points: 2
#     Edge 28, Type (0, 0), BuildingBlock: KIFKEQ_clean_linker_1, # of connection points: 2
#     Edge 29, Type (0, 0), BuildingBlock: KIFKEQ_clean_linker_1, # of connection points: 2
#     Edge 30, Type (0, 0), BuildingBlock: KIFKEQ_clean_linker_1, # of connection points: 2
#     Edge 31, Type (0, 0), BuildingBlock: KIFKEQ_clean_linker_1, # of connection points: 2
#     Edge 32, Type (0, 0), BuildingBlock: KIFKEQ_clean_linker_1, # of connection points: 2
#     Edge 33, Type (0, 0), BuildingBlock: KIFKEQ_clean_linker_1, # of connection points: 2
#     Edge 34, Type (0, 0), BuildingBlock: KIFKEQ_clean_linker_1, # of connection points: 2
#     Edge 35, Type (0, 0), BuildingBlock: KIFKEQ_clean_linker_1, # of connection points: 2
#     Edge 36, Type (0, 0), BuildingBlock: KIFKEQ_clean_linker_1, # of connection points: 2
#     Edge 37, Type (0, 0), BuildingBlock: KIFKEQ_clean_linker_1, # of connection points: 2
#     Edge 38, Type (0, 0), BuildingBlock: KIFKEQ_clean_linker_1, # of connection points: 2
#     Edge 39, Type (0, 0), BuildingBlock: KIFKEQ_clean_linker_1, # of connection points: 2
#     Edge 40, Type (0, 0), BuildingBlock: KIFKEQ_clean_linker_1, # of connection points: 2
#     Edge 41, Type (0, 0), BuildingBlock: KIFKEQ_clean_linker_1, # of connection points: 2
#     Edge 42, Type (0, 0), BuildingBlock: KIFKEQ_clean_linker_1, # of connection points: 2
#     Edge 43, Type (0, 0), BuildingBlock: KIFKEQ_clean_linker_1, # of connection points: 2
#     Edge 44, Type (0, 0), BuildingBlock: KIFKEQ_clean_linker_1, # of connection points: 2
#     Edge 45, Type (0, 0), BuildingBlock: KIFKEQ_clean_linker_1, # of connection points: 2
#     Edge 46, Type (0, 0), BuildingBlock: KIFKEQ_clean_linker_1, # of connection points: 2
#     Edge 47, Type (0, 0), BuildingBlock: KIFKEQ_clean_linker_1, # of connection points: 2
#     Edge 48, Type (0, 0), BuildingBlock: KIFKEQ_clean_linker_1, # of connection points: 2
#     Edge 49, Type (0, 0), BuildingBlock: KIFKEQ_clean_linker_1, # of connection points: 2
#     Edge 50, Type (0, 0), BuildingBlock: KIFKEQ_clean_linker_1, # of connection points: 2
#     Edge 51, Type (0, 0), BuildingBlock: KIFKEQ_clean_linker_1, # of connection points: 2
#     Edge 52, Type (0, 0), BuildingBlock: KIFKEQ_clean_linker_1, # of connection points: 2
#     Edge 53, Type (0, 0), BuildingBlock: KIFKEQ_clean_linker_1, # of connection points: 2
#     Edge 54, Type (0, 0), BuildingBlock: KIFKEQ_clean_linker_1, # of connection points: 2
#     Edge 55, Type (0, 0), BuildingBlock: KIFKEQ_clean_linker_1, # of connection points: 2
#     Edge 56, Type (0, 0), BuildingBlock: KIFKEQ_clean_linker_1, # of connection points: 2
#     Edge 57, Type (0, 0), BuildingBlock: KIFKEQ_clean_linker_1, # of connection points: 2
#     Edge 58, Type (0, 0), BuildingBlock: KIFKEQ_clean_linker_1, # of connection points: 2
#     Edge 59, Type (0, 0), BuildingBlock: KIFKEQ_clean_linker_1, # of connection points: 2
#     Edge 60, Type (0, 0), BuildingBlock: KIFKEQ_clean_linker_1, # of connection points: 2
#     Edge 61, Type (0, 0), BuildingBlock: KIFKEQ_clean_linker_1, # of connection points: 2
#     Edge 62, Type (0, 0), BuildingBlock: KIFKEQ_clean_linker_1, # of connection points: 2
#     Edge 63, Type (0, 0), BuildingBlock: KIFKEQ_clean_linker_1, # of connection points: 2
#     Edge 64, Type (0, 0), BuildingBlock: KIFKEQ_clean_linker_1, # of connection points: 2
#     Edge 65, Type (0, 0), BuildingBlock: KIFKEQ_clean_linker_1, # of connection points: 2
#     Edge 66, Type (0, 0), BuildingBlock: KIFKEQ_clean_linker_1, # of connection points: 2
#     Edge 67, Type (0, 0), BuildingBlock: KIFKEQ_clean_linker_1, # of connection points: 2
#     Edge 68, Type (0, 0), BuildingBlock: KIFKEQ_clean_linker_1, # of connection points: 2
#     Edge 69, Type (0, 0), BuildingBlock: KIFKEQ_clean_linker_1, # of connection points: 2
#     Edge 70, Type (0, 0), BuildingBlock: KIFKEQ_clean_linker_1, # of connection points: 2
#     Edge 71, Type (0, 0), BuildingBlock: KIFKEQ_clean_linker_1, # of connection points: 2
# Relax obj value: 0.059
# Max RMSD: 0.041
# Mean RMSD: 0.041
data_MOF--net-umk--node1-QUQFOY_clean_sbu_3--edge1-KIFKEQ_clean_linker_1
_symmetry_space_group_name_H-M    P1
_symmetry_Int_Tables_number       1
_symmetry_cell_setting            triclinic
loop_
_symmetry_equiv_pos_as_xyz
'x, y, z'
_cell_length_a     69.189545
_cell_length_b     69.309725
_cell_length_c     45.52742
_cell_angle_alpha  90.057921
_cell_angle_beta   89.992202
_cell_angle_gamma 119.92351
loop_
_atom_site_label
_atom_site_type_symbol
_atom_site_fract_x
_atom_site_fract_y
_atom_site_fract_z
_atom_type_partial_charge
C0 C 0.33707 0.47181 0.14063 0.0
O1 O 0.35568 0.48953 0.13743 0.0
Cd2 Cd 0.37531 0.50161 0.09209 0.0
O3 O 0.32638 0.45986 0.1186 0.0
Cd4 Cd 0.33004 0.46258 0.06394 0.0
C5 C 0.37268 0.45254 0.06897 0.0
O6 O 0.34925 0.50293 0.05986 0.0
O7 O 0.34973 0.48578 0.02084 0.0
O8 O 0.2916 0.45409 0.06408 0.0
C9 C 0.35481 0.50411 0.03318 0.0
O10 O 0.38396 0.47274 0.07743 0.0
C11 C 0.28527 0.44037 0.04288 0.0
O12 O 0.35182 0.44357 0.06403 0.0
O13 O 0.29965 0.43611 0.032 0.0
C14 C 0.84637 0.32866 0.63774 0.0
O15 O 0.8462 0.34688 0.63698 0.0
Cd16 Cd 0.85436 0.3695 0.59441 0.0
O17 O 0.84848 0.31975 0.61433 0.0
Cd18 Cd 0.84892 0.32578 0.56011 0.0
C19 C 0.90138 0.36816 0.56941 0.0
O20 O 0.82801 0.34538 0.55974 0.0
O21 O 0.84456 0.34674 0.51925 0.0
O22 O 0.81938 0.28729 0.55799 0.0
C23 C 0.83211 0.35202 0.53342 0.0
O24 O 0.89222 0.3784 0.58089 0.0
C25 C 0.82722 0.28179 0.5364 0.0
O26 O 0.88965 0.34817 0.56036 0.0
O27 O 0.84575 0.29674 0.52601 0.0
C28 C 0.52596 0.87727 0.13427 0.0
O29 O 0.51213 0.88348 0.12727 0.0
Cd30 Cd 0.49438 0.8795 0.08106 0.0
O31 O 0.53316 0.86886 0.11527 0.0
Cd32 Cd 0.52831 0.86384 0.06091 0.0
C33 C 0.54148 0.9171 0.04634 0.0
O34 O 0.48777 0.84492 0.06201 0.0
O35 O 0.50215 0.85412 0.01906 0.0
O36 O 0.53552 0.83287 0.0651 0.0
C37 C 0.48468 0.84421 0.03459 0.0
O38 O 0.52126 0.91085 0.05243 0.0
C39 C 0.54865 0.83851 0.04326 0.0
O40 O 0.54943 0.90422 0.05053 0.0
O41 O 0.55315 0.85656 0.03047 0.0
C42 C 0.65792 0.51872 0.63724 0.0
O43 O 0.63936 0.50121 0.63262 0.0
Cd44 Cd 0.61869 0.49143 0.58841 0.0
O45 O 0.6684 0.53251 0.61663 0.0
Cd46 Cd 0.66374 0.53322 0.56183 0.0
C47 C 0.62013 0.5413 0.5725 0.0
O48 O 0.64532 0.49335 0.55448 0.0
O49 O 0.64417 0.51157 0.5172 0.0
O50 O 0.70259 0.5432 0.55996 0.0
C51 C 0.63941 0.49291 0.52815 0.0
O52 O 0.60964 0.52091 0.5802 0.0
C53 C 0.70816 0.55758 0.53974 0.0
O54 O 0.64068 0.5508 0.56543 0.0
O55 O 0.69317 0.56155 0.53044 0.0
C56 C 0.13564 0.65897 0.13236 0.0
O57 O 0.13541 0.64063 0.12964 0.0
Cd58 Cd 0.12876 0.62067 0.08484 0.0
O59 O 0.13456 0.66947 0.10999 0.0
Cd60 Cd 0.1356 0.66605 0.05526 0.0
C61 C 0.08287 0.62356 0.05885 0.0
O62 O 0.15656 0.64649 0.05304 0.0
O63 O 0.14017 0.64626 0.01294 0.0
O64 O 0.1654 0.70457 0.05487 0.0
C65 C 0.15272 0.64074 0.02636 0.0
O66 O 0.09151 0.61246 0.06911 0.0
C67 C 0.15768 0.71064 0.03374 0.0
O68 O 0.09497 0.64415 0.05279 0.0
O69 O 0.13909 0.69604 0.02306 0.0
C70 C 0.45066 0.10876 0.62889 0.0
O71 O 0.46269 0.09994 0.62456 0.0
Cd72 Cd 0.48104 0.10127 0.5793 0.0
O73 O 0.44595 0.11785 0.6079 0.0
Cd74 Cd 0.4526 0.1216 0.55414 0.0
C75 C 0.43487 0.0675 0.53957 0.0
O76 O 0.49281 0.13698 0.5588 0.0
O77 O 0.48004 0.12979 0.5147 0.0
O78 O 0.44887 0.15457 0.5587 0.0
C79 C 0.49685 0.13799 0.53158 0.0
O80 O 0.45403 0.07166 0.5483 0.0
C81 C 0.43674 0.15064 0.53608 0.0
O82 O 0.42849 0.08174 0.5425 0.0
O83 O 0.43136 0.13274 0.52225 0.0
C84 C 0.52696 0.65527 0.85009 0.0
O85 O 0.51419 0.63461 0.85463 0.0
Cd86 Cd 0.49756 0.61755 0.9004 0.0
O87 O 0.53361 0.66922 0.8712 0.0
Cd88 Cd 0.52995 0.66617 0.9257 0.0
C89 C 0.54535 0.6271 0.93402 0.0
O90 O 0.48948 0.64294 0.92487 0.0
O91 O 0.50449 0.64736 0.96737 0.0
O92 O 0.53553 0.70377 0.92455 0.0
C93 C 0.48681 0.63935 0.95218 0.0
O94 O 0.52547 0.6131 0.92655 0.0
C95 C 0.54872 0.71094 0.94636 0.0
O96 O 0.55266 0.64798 0.93245 0.0
O97 O 0.5539 0.69749 0.95798 0.0
C98 C 0.8457 0.50792 0.34429 0.0
O99 O 0.84762 0.49143 0.35238 0.0
Cd100 Cd 0.85274 0.48195 0.40041 0.0
O101 O 0.84533 0.52146 0.36306 0.0
Cd102 Cd 0.84516 0.52337 0.41839 0.0
C103 C 0.89799 0.53278 0.42078 0.0
O104 O 0.82403 0.4837 0.42587 0.0
O105 O 0.839 0.50207 0.46511 0.0
O106 O 0.81602 0.53327 0.41541 0.0
C107 C 0.82677 0.48328 0.45319 0.0
O108 O 0.88959 0.51216 0.41478 0.0
C109 C 0.82487 0.54912 0.43384 0.0
O110 O 0.88577 0.54171 0.42214 0.0
O111 O 0.84368 0.55358 0.44427 0.0
C112 C 0.34466 0.86574 0.84553 0.0
O113 O 0.36372 0.86905 0.85324 0.0
Cd114 Cd 0.37703 0.86997 0.90154 0.0
O115 O 0.32976 0.86211 0.8647 0.0
Cd116 Cd 0.32773 0.85954 0.91961 0.0
C117 C 0.36983 0.91276 0.92677 0.0
O118 O 0.34723 0.83885 0.9246 0.0
O119 O 0.34319 0.85234 0.96493 0.0
O120 O 0.28932 0.82953 0.91471 0.0
C121 C 0.3499 0.84052 0.9521 0.0
O122 O 0.38282 0.90509 0.9215 0.0
C123 C 0.28155 0.8365 0.93475 0.0
O124 O 0.34873 0.90025 0.92532 0.0
O125 O 0.29513 0.85488 0.94686 0.0
C126 C 0.45954 0.33759 0.35268 0.0
O127 O 0.47249 0.35843 0.35528 0.0
Cd128 Cd 0.49052 0.37754 0.39946 0.0
O129 O 0.45401 0.32476 0.37491 0.0
Cd130 Cd 0.46045 0.32934 0.42885 0.0
C131 C 0.44352 0.36734 0.43696 0.0
O132 O 0.50057 0.35371 0.42438 0.0
O133 O 0.48781 0.34903 0.46835 0.0
O134 O 0.45589 0.29226 0.42679 0.0
C135 C 0.50459 0.35773 0.45146 0.0
O136 O 0.46229 0.38125 0.42595 0.0
C137 C 0.44318 0.28477 0.44899 0.0
O138 O 0.43745 0.34672 0.43845 0.0
O139 O 0.43807 0.29794 0.46167 0.0
C140 C 0.12085 0.46207 0.85227 0.0
O141 O 0.11292 0.47464 0.85829 0.0
Cd142 Cd 0.11532 0.49217 0.90446 0.0
O143 O 0.12976 0.45606 0.8721 0.0
Cd144 Cd 0.1335 0.46075 0.92648 0.0
C145 C 0.07944 0.44492 0.94025 0.0
O146 O 0.15047 0.50104 0.92445 0.0
O147 O 0.14215 0.48715 0.96778 0.0
O148 O 0.16538 0.4548 0.92318 0.0
C149 C 0.1511 0.50441 0.9518 0.0
O150 O 0.08457 0.46472 0.93356 0.0
C151 C 0.15946 0.44124 0.94452 0.0
O152 O 0.0932 0.43799 0.93642 0.0
O153 O 0.14111 0.43628 0.95691 0.0
C154 C 0.64133 0.11807 0.35006 0.0
O155 O 0.62192 0.11377 0.35765 0.0
Cd156 Cd 0.60859 0.11478 0.40523 0.0
O157 O 0.65678 0.12357 0.36907 0.0
Cd158 Cd 0.6588 0.12735 0.42403 0.0
C159 C 0.61742 0.07404 0.43455 0.0
O160 O 0.63796 0.14681 0.4274 0.0
O161 O 0.64331 0.13537 0.46861 0.0
O162 O 0.69655 0.15851 0.41842 0.0
C163 C 0.63554 0.14593 0.45495 0.0
O164 O 0.60425 0.08114 0.42753 0.0
C165 C 0.70509 0.15247 0.43854 0.0
O166 O 0.63852 0.08681 0.43325 0.0
O167 O 0.69227 0.13404 0.45107 0.0
C168 C 0.6509 0.51542 0.85271 0.0
O169 O 0.6314 0.50021 0.85966 0.0
Cd170 Cd 0.61598 0.48936 0.90712 0.0
O171 O 0.6651 0.52706 0.87247 0.0
Cd172 Cd 0.66546 0.52752 0.92782 0.0
C173 C 0.6243 0.54034 0.93114 0.0
O174 O 0.64492 0.48749 0.93197 0.0
O175 O 0.64882 0.50432 0.9728 0.0
O176 O 0.70386 0.53549 0.9242 0.0
C177 C 0.64171 0.486 0.95934 0.0
O178 O 0.61129 0.52006 0.9242 0.0
C179 C 0.71136 0.54986 0.94466 0.0
O180 O 0.64531 0.54821 0.93248 0.0
O181 O 0.69764 0.55457 0.95662 0.0
C182 C 0.11268 0.6493 0.34277 0.0
O183 O 0.10557 0.62863 0.346 0.0
Cd184 Cd 0.10443 0.61019 0.39093 0.0
O185 O 0.11887 0.66243 0.36477 0.0
Cd186 Cd 0.1188 0.65799 0.41902 0.0
C187 C 0.06451 0.61762 0.42425 0.0
O188 O 0.13682 0.63542 0.41743 0.0
O189 O 0.12547 0.63894 0.45998 0.0
O190 O 0.15024 0.69577 0.41868 0.0
C191 C 0.13561 0.63148 0.4447 0.0
O192 O 0.07103 0.60429 0.41581 0.0
C193 C 0.14413 0.70238 0.44098 0.0
O194 O 0.07777 0.63861 0.42448 0.0
O195 O 0.1256 0.68854 0.45253 0.0
C196 C 0.46568 0.12992 0.83972 0.0
O197 O 0.48384 0.12969 0.84208 0.0
Cd198 Cd 0.49854 0.12456 0.88667 0.0
O199 O 0.45459 0.12955 0.86231 0.0
Cd200 Cd 0.46016 0.13203 0.91681 0.0
C201 C 0.45064 0.07941 0.91553 0.0
O202 O 0.50066 0.15304 0.91718 0.0
O203 O 0.48556 0.13836 0.95848 0.0
O204 O 0.4518 0.16212 0.91631 0.0
C205 C 0.50326 0.15032 0.94404 0.0
O206 O 0.47014 0.08793 0.90452 0.0
C207 C 0.43835 0.15507 0.93782 0.0
O208 O 0.44199 0.09148 0.92132 0.0
O209 O 0.4342 0.13659 0.94899 0.0
C210 C 0.32948 0.45722 0.3539 0.0
O211 O 0.34994 0.46987 0.36007 0.0
Cd212 Cd 0.36478 0.48746 0.40632 0.0
O213 O 0.31448 0.45108 0.37364 0.0
Cd214 Cd 0.31513 0.45557 0.42801 0.0
C215 C 0.35378 0.44057 0.44287 0.0
O216 O 0.33823 0.49592 0.42625 0.0
O217 O 0.3323 0.48186 0.46949 0.0
O218 O 0.27723 0.44931 0.42435 0.0
C219 C 0.34079 0.49918 0.45363 0.0
O220 O 0.36826 0.46042 0.43606 0.0
C221 C 0.26956 0.43565 0.44559 0.0
O222 O 0.33307 0.43323 0.43861 0.0
O223 O 0.28297 0.43078 0.45808 0.0
C224 C 0.86911 0.33189 0.8455 0.0
O225 O 0.87643 0.35266 0.84772 0.0
Cd226 Cd 0.87714 0.37218 0.89124 0.0
O227 O 0.86235 0.31928 0.86799 0.0
Cd228 Cd 0.86143 0.32505 0.92193 0.0
C229 C 0.91583 0.365 0.92872 0.0
O230 O 0.8439 0.34795 0.9171 0.0
O231 O 0.85349 0.34487 0.96089 0.0
O232 O 0.82991 0.28723 0.92247 0.0
C233 C 0.84428 0.35245 0.94408 0.0
O234 O 0.90995 0.37807 0.91747 0.0
C235 C 0.83602 0.28111 0.94521 0.0
O236 O 0.90207 0.34418 0.93069 0.0
O237 O 0.85443 0.29527 0.95672 0.0
C238 C 0.51608 0.86905 0.35151 0.0
O239 O 0.50125 0.8734 0.36035 0.0
Cd240 Cd 0.4874 0.87049 0.40877 0.0
O241 O 0.52574 0.86251 0.36954 0.0
Cd242 Cd 0.52284 0.85617 0.42395 0.0
C243 C 0.53653 0.90915 0.43959 0.0
O244 O 0.48239 0.8361 0.42606 0.0
O245 O 0.49827 0.84714 0.46787 0.0
O246 O 0.53028 0.82548 0.41762 0.0
C247 C 0.48029 0.836 0.4536 0.0
O248 O 0.51607 0.9028 0.43497 0.0
C249 C 0.54435 0.8314 0.43842 0.0
O250 O 0.5443 0.89625 0.43448 0.0
O251 O 0.54922 0.84947 0.45146 0.0
C252 C 0.47292 0.32952 0.14347 0.0
O253 O 0.49126 0.34772 0.14164 0.0
Cd254 Cd 0.50483 0.36949 0.0983 0.0
O255 O 0.46128 0.32001 0.12069 0.0
Cd256 Cd 0.46549 0.32474 0.06616 0.0
C257 C 0.45586 0.36753 0.07444 0.0
O258 O 0.50585 0.34446 0.06419 0.0
O259 O 0.48982 0.34504 0.02412 0.0
O260 O 0.45709 0.28638 0.06447 0.0
C261 C 0.50786 0.35074 0.03775 0.0
O262 O 0.4755 0.37797 0.08517 0.0
C263 C 0.443 0.28038 0.04371 0.0
O264 O 0.44732 0.34732 0.06621 0.0
O265 O 0.4387 0.29496 0.03374 0.0
C266 C 0.12523 0.47172 0.63805 0.0
O267 O 0.12452 0.48945 0.63378 0.0
Cd268 Cd 0.11673 0.50045 0.58775 0.0
O269 O 0.12356 0.45901 0.61675 0.0
Cd270 Cd 0.12192 0.45988 0.56196 0.0
C271 C 0.06964 0.45111 0.56673 0.0
O272 O 0.1433 0.49999 0.55568 0.0
O273 O 0.12538 0.48174 0.51743 0.0
O274 O 0.15146 0.45082 0.56292 0.0
C275 C 0.13869 0.50041 0.52891 0.0
O276 O 0.07893 0.47154 0.57422 0.0
C277 C 0.14365 0.43643 0.5425 0.0
O278 O 0.08117 0.44164 0.5625 0.0
O279 O 0.12496 0.43209 0.53173 0.0
C280 C 0.64315 0.13033 0.13232 0.0
O281 O 0.62435 0.12735 0.12392 0.0
Cd282 Cd 0.61115 0.12488 0.07545 0.0
O283 O 0.65809 0.13301 0.11366 0.0
Cd284 Cd 0.66098 0.13553 0.05846 0.0
C285 C 0.61937 0.08222 0.05095 0.0
O286 O 0.6413 0.15589 0.05286 0.0
O287 O 0.646 0.1429 0.01255 0.0
O288 O 0.69936 0.16571 0.06348 0.0
C289 C 0.63888 0.15439 0.02534 0.0
O290 O 0.6063 0.08962 0.05718 0.0
C291 C 0.70727 0.15848 0.04397 0.0
O292 O 0.64045 0.09505 0.05138 0.0
O293 O 0.69379 0.13996 0.03213 0.0
C294 C 0.50937 0.65416 0.63845 0.0
O295 O 0.49177 0.63536 0.63583 0.0
Cd296 Cd 0.47959 0.61491 0.5911 0.0
O297 O 0.52096 0.66457 0.61607 0.0
Cd298 Cd 0.51753 0.65992 0.5615 0.0
C299 C 0.5292 0.61852 0.56844 0.0
O300 O 0.47702 0.63982 0.55804 0.0
O301 O 0.49404 0.63887 0.51913 0.0
O302 O 0.52582 0.69827 0.55957 0.0
C303 C 0.4757 0.63368 0.5316 0.0
O304 O 0.50908 0.60683 0.57713 0.0
C305 C 0.53959 0.70406 0.53846 0.0
O306 O 0.53745 0.63913 0.56267 0.0
O307 O 0.54379 0.6894 0.52849 0.0
C308 C 0.86608 0.5156 0.12757 0.0
O309 O 0.87054 0.50063 0.11985 0.0
Cd310 Cd 0.87249 0.48897 0.07151 0.0
O311 O 0.86234 0.52675 0.10837 0.0
Cd312 Cd 0.86219 0.52756 0.05327 0.0
C313 C 0.91569 0.53895 0.04803 0.0
O314 O 0.84145 0.48752 0.04763 0.0
O315 O 0.85579 0.50519 0.00771 0.0
O316 O 0.83228 0.5362 0.05771 0.0
C317 C 0.84354 0.48666 0.0202 0.0
O318 O 0.90788 0.51826 0.05265 0.0
C319 C 0.83919 0.55064 0.03739 0.0
O320 O 0.90317 0.54755 0.04946 0.0
O321 O 0.85751 0.5552 0.02523 0.0
C322 C 0.33624 0.86654 0.62866 0.0
O323 O 0.3561 0.87207 0.62162 0.0
Cd324 Cd 0.36985 0.86796 0.57569 0.0
O325 O 0.3205 0.85825 0.60981 0.0
Cd326 Cd 0.31943 0.8517 0.55549 0.0
C327 C 0.35929 0.90501 0.54002 0.0
O328 O 0.3415 0.83338 0.55726 0.0
O329 O 0.33555 0.84114 0.5139 0.0
O330 O 0.28128 0.82066 0.56007 0.0
C331 C 0.3438 0.83214 0.52994 0.0
O332 O 0.3734 0.89937 0.548 0.0
C333 C 0.2736 0.82663 0.53877 0.0
O334 O 0.33842 0.89155 0.54262 0.0
O335 O 0.28707 0.84472 0.52605 0.0
H336 H 0.33706 0.49816 0.18446 0.0
H337 H 0.31815 0.43012 0.16417 0.0
H338 H 0.3279 0.48818 0.23614 0.0
H339 H 0.30986 0.42034 0.21641 0.0
H340 H 0.35089 0.44587 0.31357 0.0
H341 H 0.34551 0.44372 0.2603 0.0
H342 H 0.29004 0.45511 0.27081 0.0
H343 H 0.29482 0.45637 0.3244 0.0
C344 C 0.33054 0.48099 0.19105 0.0
C345 C 0.32832 0.46489 0.17054 0.0
C346 C 0.32519 0.47528 0.22048 0.0
C347 C 0.31809 0.45351 0.22997 0.0
C348 C 0.31508 0.43716 0.20936 0.0
C349 C 0.31981 0.44275 0.17965 0.0
C350 C 0.33708 0.44713 0.30454 0.0
C351 C 0.32329 0.45133 0.32291 0.0
C352 C 0.33394 0.44579 0.27418 0.0
C353 C 0.31734 0.44918 0.26172 0.0
C354 C 0.30279 0.45221 0.28012 0.0
C355 C 0.30552 0.45292 0.31063 0.0
H356 H 0.87255 0.31218 0.6569 0.0
H357 H 0.81964 0.32421 0.68364 0.0
H358 H 0.87766 0.3047 0.70821 0.0
H359 H 0.82415 0.31594 0.73449 0.0
H360 H 0.83334 0.29467 0.82351 0.0
H361 H 0.82536 0.28509 0.77129 0.0
H362 H 0.89109 0.33844 0.74891 0.0
H363 H 0.89872 0.34849 0.80076 0.0
C364 C 0.86145 0.31231 0.67358 0.0
C365 C 0.84581 0.31889 0.66658 0.0
C366 C 0.86437 0.30805 0.70281 0.0
C367 C 0.85122 0.30967 0.72511 0.0
C368 C 0.83428 0.3143 0.7176 0.0
C369 C 0.83179 0.31916 0.68861 0.0
C370 C 0.8463 0.30379 0.80746 0.0
C371 C 0.86656 0.32239 0.81592 0.0
C372 C 0.84174 0.29833 0.7777 0.0
C373 C 0.85765 0.31102 0.75626 0.0
C374 C 0.87868 0.32824 0.76509 0.0
C375 C 0.88299 0.33407 0.79466 0.0
H376 H 0.54492 0.8592 0.32177 0.0
H377 H 0.50003 0.88501 0.30944 0.0
H378 H 0.55327 0.86361 0.26893 0.0
H379 H 0.50797 0.88894 0.25755 0.0
H380 H 0.53491 0.91126 0.17101 0.0
H381 H 0.538 0.9115 0.22425 0.0
H382 H 0.53366 0.84713 0.22117 0.0
H383 H 0.53155 0.84744 0.16737 0.0
C384 C 0.53693 0.86586 0.30791 0.0
C385 C 0.52184 0.87179 0.31988 0.0
C386 C 0.54166 0.86832 0.27771 0.0
C387 C 0.53153 0.87692 0.25914 0.0
C388 C 0.51652 0.8828 0.27128 0.0
C389 C 0.51179 0.88032 0.30114 0.0
C390 C 0.53521 0.89744 0.18168 0.0
C391 C 0.53265 0.87918 0.16529 0.0
C392 C 0.53686 0.8975 0.21215 0.0
C393 C 0.53544 0.87905 0.22695 0.0
C394 C 0.53479 0.86158 0.21038 0.0
C395 C 0.53353 0.86171 0.17965 0.0
H396 H 0.62774 0.48753 0.8082 0.0
H397 H 0.68753 0.55028 0.82574 0.0
H398 H 0.63644 0.49159 0.75648 0.0
H399 H 0.69631 0.55431 0.77284 0.0
H400 H 0.67311 0.55649 0.67048 0.0
H401 H 0.67704 0.55835 0.72427 0.0
H402 H 0.66631 0.4914 0.72492 0.0
H403 H 0.66171 0.48937 0.67177 0.0
C404 C 0.64283 0.50224 0.80105 0.0
C405 C 0.65695 0.51859 0.82119 0.0
C406 C 0.64792 0.50444 0.77132 0.0
C407 C 0.66724 0.52308 0.76071 0.0
C408 C 0.68138 0.53971 0.78058 0.0
C409 C 0.67637 0.53737 0.81074 0.0
C410 C 0.67242 0.54255 0.68217 0.0
C411 C 0.6668 0.52267 0.6673 0.0
C412 C 0.67469 0.54361 0.71285 0.0
C413 C 0.67152 0.52484 0.72869 0.0
C414 C 0.66842 0.50595 0.71325 0.0
C415 C 0.66584 0.50479 0.68289 0.0
H416 H 0.14715 0.68756 0.32067 0.0
H417 H 0.08409 0.63032 0.29724 0.0
H418 H 0.15468 0.69769 0.26852 0.0
H419 H 0.09123 0.64092 0.24549 0.0
H420 H 0.10781 0.67242 0.15474 0.0
H421 H 0.10219 0.67689 0.2071 0.0
H422 H 0.15786 0.66793 0.22912 0.0
H423 H 0.16286 0.66256 0.17716 0.0
C424 C 0.13459 0.67766 0.30448 0.0
C425 C 0.11513 0.65809 0.31276 0.0
C426 C 0.13889 0.68345 0.27478 0.0
C427 C 0.12344 0.67013 0.25322 0.0
C428 C 0.10323 0.65158 0.26181 0.0
C429 C 0.09922 0.64545 0.29131 0.0
C430 C 0.11924 0.67214 0.17077 0.0
C431 C 0.13571 0.6671 0.16218 0.0
C432 C 0.11602 0.67466 0.20058 0.0
C433 C 0.12969 0.67286 0.22191 0.0
C434 C 0.14732 0.66968 0.21299 0.0
C435 C 0.15011 0.66651 0.18338 0.0
H436 H 0.48825 0.15724 0.79472 0.0
H437 H 0.42447 0.10111 0.81806 0.0
H438 H 0.47719 0.15217 0.74304 0.0
H439 H 0.41369 0.09544 0.76591 0.0
H440 H 0.44106 0.07913 0.67327 0.0
H441 H 0.43786 0.08533 0.72548 0.0
H442 H 0.44398 0.14897 0.70543 0.0
H443 H 0.44645 0.14249 0.65296 0.0
C444 C 0.47164 0.1442 0.78876 0.0
C445 C 0.45715 0.12957 0.81011 0.0
C446 C 0.46528 0.14136 0.75931 0.0
C447 C 0.4446 0.12347 0.75069 0.0
C448 C 0.42964 0.10945 0.7722 0.0
C449 C 0.43577 0.11271 0.80188 0.0
C450 C 0.441 0.09411 0.67995 0.0
C451 C 0.44417 0.11041 0.65921 0.0
C452 C 0.43901 0.09757 0.70973 0.0
C453 C 0.44066 0.1176 0.71927 0.0
C454 C 0.44251 0.13334 0.69844 0.0
C455 C 0.44392 0.12962 0.66852 0.0
H456 H 0.55151 0.67284 0.66057 0.0
H457 H 0.48394 0.65456 0.68335 0.0
H458 H 0.56213 0.6801 0.71266 0.0
H459 H 0.49475 0.66268 0.73499 0.0
H460 H 0.52639 0.69053 0.82468 0.0
H461 H 0.527 0.69764 0.77171 0.0
H462 H 0.54043 0.64427 0.75408 0.0
H463 H 0.5389 0.63657 0.8067 0.0
C464 C 0.53919 0.6712 0.67658 0.0
C465 C 0.51691 0.66307 0.66818 0.0
C466 C 0.54525 0.67533 0.70623 0.0
C467 C 0.52925 0.67207 0.72757 0.0
C468 C 0.5074 0.66558 0.7188 0.0
C469 C 0.50121 0.66083 0.68938 0.0
C470 C 0.53014 0.68082 0.80947 0.0
C471 C 0.53249 0.66295 0.81955 0.0
C472 C 0.53047 0.68487 0.77931 0.0
C473 C 0.53389 0.67156 0.75907 0.0
C474 C 0.53805 0.65491 0.76937 0.0
C475 C 0.53706 0.65044 0.79936 0.0
H476 H 0.82995 0.47615 0.30239 0.0
H477 H 0.85937 0.54719 0.31426 0.0
H478 H 0.83447 0.48126 0.24961 0.0
H479 H 0.86407 0.5523 0.26065 0.0
H480 H 0.84769 0.53836 0.15472 0.0
H481 H 0.84085 0.53906 0.2077 0.0
H482 H 0.87379 0.50124 0.22447 0.0
H483 H 0.88061 0.50046 0.17242 0.0
C484 C 0.8371 0.49287 0.29366 0.0
C485 C 0.84472 0.51132 0.31245 0.0
C486 C 0.83968 0.49577 0.26344 0.0
C487 C 0.85002 0.51719 0.25124 0.0
C488 C 0.85609 0.53563 0.26967 0.0
C489 C 0.85342 0.5327 0.30022 0.0
C490 C 0.85374 0.53051 0.16985 0.0
C491 C 0.86432 0.519 0.15933 0.0
C492 C 0.84985 0.53095 0.20005 0.0
C493 C 0.85644 0.51983 0.21992 0.0
C494 C 0.86815 0.50955 0.20949 0.0
C495 C 0.87205 0.50913 0.17963 0.0
H496 H 0.36191 0.90153 0.66344 0.0
H497 H 0.30134 0.83774 0.66345 0.0
H498 H 0.36051 0.90305 0.71674 0.0
H499 H 0.30028 0.83887 0.71737 0.0
H500 H 0.30524 0.85637 0.81821 0.0
H501 H 0.29928 0.85858 0.76535 0.0
H502 H 0.3684 0.87916 0.74912 0.0
H503 H 0.37441 0.87718 0.80099 0.0
C504 C 0.34802 0.88804 0.67492 0.0
C505 C 0.33193 0.86937 0.65954 0.0
C506 C 0.34726 0.88886 0.70539 0.0
C507 C 0.33062 0.87081 0.72119 0.0
C508 C 0.31331 0.85299 0.7057 0.0
C509 C 0.31391 0.85233 0.67493 0.0
C510 C 0.31912 0.86143 0.80327 0.0
C511 C 0.34032 0.86668 0.81386 0.0
C512 C 0.31568 0.86264 0.77309 0.0
C513 C 0.33346 0.8694 0.75323 0.0
C514 C 0.35449 0.87442 0.76393 0.0
C515 C 0.35788 0.87309 0.79376 0.0
H516 H 0.45648 0.29957 0.33079 0.0
H517 H 0.44773 0.35514 0.30769 0.0
H518 H 0.45341 0.2891 0.27874 0.0
H519 H 0.44386 0.34421 0.25605 0.0
H520 H 0.43124 0.31491 0.1651 0.0
H521 H 0.42055 0.30924 0.21719 0.0
H522 H 0.48524 0.31855 0.23975 0.0
H523 H 0.49618 0.32506 0.18808 0.0
C524 C 0.45303 0.30899 0.31472 0.0
C525 C 0.45253 0.32825 0.32302 0.0
C526 C 0.45128 0.303 0.28507 0.0
C527 C 0.44832 0.31583 0.2636 0.0
C528 C 0.44586 0.33392 0.27228 0.0
C529 C 0.44823 0.34025 0.30173 0.0
C530 C 0.44283 0.31497 0.18116 0.0
C531 C 0.46453 0.32051 0.17285 0.0
C532 C 0.43673 0.31176 0.21082 0.0
C533 C 0.45207 0.31339 0.23227 0.0
C534 C 0.47305 0.31693 0.22353 0.0
C535 C 0.47934 0.32077 0.19408 0.0
H536 H 0.10311 0.43072 0.66368 0.0
H537 H 0.15183 0.49947 0.68069 0.0
H538 H 0.10239 0.42245 0.71636 0.0
H539 H 0.15177 0.491 0.73284 0.0
H540 H 0.15459 0.4612 0.82253 0.0
H541 H 0.15751 0.45895 0.76896 0.0
H542 H 0.09034 0.44683 0.75919 0.0
H543 H 0.08771 0.44997 0.8124 0.0
C544 C 0.11414 0.44384 0.67854 0.0
C545 C 0.12743 0.46574 0.66836 0.0
C546 C 0.11373 0.43911 0.70851 0.0
C547 C 0.12718 0.45609 0.72832 0.0
C548 C 0.1415 0.47763 0.7178 0.0
C549 C 0.14142 0.48248 0.6881 0.0
C550 C 0.14027 0.45742 0.80894 0.0
C551 C 0.12097 0.45587 0.82138 0.0
C552 C 0.14195 0.45615 0.77845 0.0
C553 C 0.12408 0.45259 0.76026 0.0
C554 C 0.1042 0.44931 0.77292 0.0
C555 C 0.10275 0.45122 0.80324 0.0
H556 H 0.68049 0.14274 0.31943 0.0
H557 H 0.61158 0.09148 0.3094 0.0
H558 H 0.68438 0.1459 0.2656 0.0
H559 H 0.61556 0.0944 0.25635 0.0
H560 H 0.61812 0.13307 0.17602 0.0
H561 H 0.62118 0.12907 0.22827 0.0
H562 H 0.67975 0.12321 0.21444 0.0
H563 H 0.67678 0.12731 0.16112 0.0
C564 C 0.66643 0.13177 0.30577 0.0
C565 C 0.64561 0.1172 0.31848 0.0
C566 C 0.66866 0.13356 0.27508 0.0
C567 C 0.65013 0.1207 0.25699 0.0
C568 C 0.62997 0.10482 0.26985 0.0
C569 C 0.62771 0.10316 0.30021 0.0
C570 C 0.63175 0.131 0.18387 0.0
C571 C 0.64698 0.13011 0.16428 0.0
C572 C 0.63346 0.12868 0.21388 0.0
C573 C 0.65041 0.12536 0.22526 0.0
C574 C 0.66645 0.12562 0.20608 0.0
C575 C 0.66472 0.12794 0.17568 0.0
H576 H 0.15334 0.41622 -0.00633 0.0
H577 H 0.19915 0.44871 0.92194 0.0
H578 H 0.1806 0.40869 0.01719 0.0
H579 H 0.22641 0.44139 0.94558 0.0
H580 H 0.27068 0.42063 0.98914 0.0
H581 H 0.23674 0.41394 0.96367 0.0
H582 H 0.21617 0.43522 0.04095 0.0
H583 H 0.24982 0.44173 0.06631 0.0
C584 C 0.16904 0.42138 0.98264 0.0
C585 C 0.17424 0.43335 0.95616 0.0
C586 C 0.18466 0.41711 -0.00384 0.0
C587 C 0.20572 0.42463 0.98338 0.0
C588 C 0.21027 0.43521 0.95588 0.0
C589 C 0.1947 0.43956 0.94243 0.0
C590 C 0.2586 0.4233 0.0009 0.0
C591 C 0.26301 0.43196 0.02959 0.0
C592 C 0.23925 0.41959 0.98627 0.0
C593 C 0.22389 0.42424 0.00021 0.0
C594 C 0.22755 0.43129 0.02965 0.0
C595 C 0.24693 0.43517 0.04415 0.0
H596 H 0.73631 0.19191 0.41462 0.0
H597 H 0.72533 0.14753 0.48727 0.0
H598 H 0.77023 0.22048 0.43797 0.0
H599 H 0.75952 0.17614 0.51053 0.0
H600 H 0.79108 0.24535 0.55898 0.0
H601 H 0.76581 0.21103 0.53353 0.0
H602 H 0.80836 0.23359 0.45701 0.0
H603 H 0.83374 0.26823 0.4826 0.0
C604 C 0.74147 0.18803 0.4352 0.0
C605 C 0.72795 0.1676 0.44934 0.0
C606 C 0.76102 0.20438 0.44851 0.0
C607 C 0.7674 0.20066 0.47629 0.0
C608 C 0.75483 0.17958 0.48931 0.0
C609 C 0.73531 0.16317 0.47592 0.0
C610 C 0.79531 0.24283 0.53694 0.0
C611 C 0.81424 0.2596 0.52266 0.0
C612 C 0.7809 0.22305 0.52241 0.0
C613 C 0.78502 0.21964 0.49317 0.0
C614 C 0.80467 0.23585 0.47945 0.0
C615 C 0.81923 0.25562 0.49413 0.0
H616 H 0.54291 0.79993 0.06727 0.0
H617 H 0.57092 0.84291 0.99188 0.0
H618 H 0.54894 0.77189 0.04344 0.0
H619 H 0.57711 0.81484 0.96811 0.0
H620 H 0.56978 0.72756 -0.00114 0.0
H621 H 0.57603 0.76164 0.02328 0.0
H622 H 0.5495 0.77808 0.94754 0.0
H623 H 0.54338 0.74422 0.92314 0.0
C624 C 0.55083 0.80361 0.0459 0.0
C625 C 0.55618 0.82351 0.03131 0.0
C626 C 0.55441 0.78758 0.0323 0.0
C627 C 0.56331 0.79109 0.00377 0.0
C628 C 0.56997 0.81158 0.98995 0.0
C629 C 0.56652 0.82768 0.00364 0.0
C630 C 0.56572 0.7387 0.98721 0.0
C631 C 0.55587 0.73311 0.95919 0.0
C632 C 0.56921 0.75814 0.00125 0.0
C633 C 0.56313 0.77246 0.98742 0.0
C634 C 0.55457 0.76752 0.95869 0.0
C635 C 0.55091 0.74802 0.94477 0.0
H636 H 0.74503 0.55775 0.56065 0.0
H637 H 0.72057 0.57748 0.48583 0.0
H638 H 0.77757 0.56411 0.53261 0.0
H639 H 0.75339 0.58399 0.45763 0.0
H640 H 0.78555 0.54423 0.41372 0.0
H641 H 0.76139 0.55506 0.43882 0.0
H642 H 0.81193 0.58902 0.50513 0.0
H643 H 0.83613 0.57799 0.48008 0.0
C644 C 0.74695 0.56409 0.53845 0.0
C645 C 0.7301 0.56678 0.52528 0.0
C646 C 0.7657 0.56789 0.52242 0.0
C647 C 0.76792 0.57431 0.49277 0.0
C648 C 0.75198 0.57881 0.48034 0.0
C649 C 0.73327 0.5752 0.49653 0.0
C650 C 0.79175 0.55449 0.43323 0.0
C651 C 0.81256 0.55989 0.44522 0.0
C652 C 0.77796 0.56087 0.44751 0.0
C653 C 0.78466 0.57269 0.47415 0.0
C654 C 0.80623 0.57968 0.48482 0.0
C655 C 0.8201 0.57341 0.47042 0.0
H656 H 0.26288 0.84309 0.98394 0.0
H657 H 0.24862 0.79773 0.91133 0.0
H658 H 0.22836 0.81582 0.00791 0.0
H659 H 0.21434 0.77051 0.93535 0.0
H660 H 0.19474 0.74629 0.05627 0.0
H661 H 0.22061 0.78032 0.03076 0.0
H662 H 0.17689 0.75949 0.95534 0.0
H663 H 0.15091 0.72518 0.98094 0.0
C664 C 0.25211 0.82755 0.97274 0.0
C665 C 0.25863 0.8224 0.94597 0.0
C666 C 0.23241 0.81191 0.98654 0.0
C667 C 0.21879 0.79092 0.97371 0.0
C668 C 0.22438 0.78657 0.94575 0.0
C669 C 0.24412 0.80213 0.93205 0.0
C670 C 0.19038 0.74917 0.0345 0.0
C671 C 0.17095 0.73293 0.02045 0.0
C672 C 0.20514 0.76878 0.01994 0.0
C673 C 0.20087 0.77252 0.99093 0.0
C674 C 0.18071 0.75695 0.97758 0.0
C675 C 0.16581 0.73737 -0.00772 0.0
H676 H 0.41666 0.14987 0.48404 0.0
H677 H 0.44414 0.18894 0.56287 0.0
H678 H 0.41261 0.17997 0.46264 0.0
H679 H 0.44029 0.219 0.54141 0.0
H680 H 0.44854 0.25221 0.42342 0.0
H681 H 0.44138 0.21718 0.44513 0.0
H682 H 0.4146 0.2314 0.52261 0.0
H683 H 0.42196 0.26669 0.50092 0.0
C684 C 0.42146 0.1647 0.49699 0.0
C685 C 0.43097 0.16716 0.52499 0.0
C686 C 0.41922 0.18195 0.48469 0.0
C687 C 0.42631 0.2019 0.50024 0.0
C688 C 0.4345 0.20377 0.52896 0.0
C689 C 0.43685 0.18659 0.54119 0.0
C690 C 0.44081 0.24772 0.4449 0.0
C691 C 0.43603 0.2623 0.4606 0.0
C692 C 0.43654 0.22756 0.45725 0.0
C693 C 0.42751 0.22158 0.48563 0.0
C694 C 0.42177 0.23568 0.5008 0.0
C695 C 0.4259 0.25583 0.48834 0.0
H696 H 0.80169 0.54691 0.06238 0.0
H697 H 0.8445 0.57377 0.98655 0.0
H698 H 0.77426 0.55413 0.03914 0.0
H699 H 0.81699 0.58112 0.96328 0.0
H700 H 0.74507 0.54578 0.92014 0.0
H701 H 0.77987 0.55349 0.94339 0.0
H702 H 0.76417 0.58114 0.01865 0.0
H703 H 0.72914 0.57329 -0.00462 0.0
C704 C 0.8055 0.5549 0.04105 0.0
C705 C 0.82509 0.55947 0.02611 0.0
C706 C 0.78983 0.55918 0.0278 0.0
C707 C 0.79337 0.56799 -0.00076 0.0
C708 C 0.81372 0.57409 0.98518 0.0
C709 C 0.8295 0.56997 -0.00144 0.0
C710 C 0.74926 0.55398 0.94134 0.0
C711 C 0.73423 0.55864 0.95611 0.0
C712 C 0.7693 0.55855 0.9546 0.0
C713 C 0.77467 0.56775 0.98297 0.0
C714 C 0.76035 0.57383 -0.00311 0.0
C715 C 0.74035 0.56941 0.98351 0.0
H716 H 0.14046 0.71734 0.49519 0.0
H717 H 0.18189 0.73663 0.4176 0.0
H718 H 0.16869 0.7507 0.52052 0.0
H719 H 0.21002 0.76975 0.44286 0.0
H720 H 0.24118 0.78734 0.5618 0.0
H721 H 0.20643 0.76026 0.53836 0.0
H722 H 0.21974 0.8057 0.4663 0.0
H723 H 0.25466 0.83277 0.48963 0.0
C724 C 0.15535 0.72893 0.48334 0.0
C725 C 0.15908 0.72427 0.45451 0.0
C726 C 0.17155 0.74795 0.49789 0.0
C727 C 0.19163 0.76276 0.48376 0.0
C728 C 0.19465 0.7588 0.45429 0.0
C729 C 0.17858 0.73973 0.43985 0.0
C730 C 0.23648 0.79175 0.54127 0.0
C731 C 0.25081 0.81206 0.52737 0.0
C732 C 0.21648 0.77628 0.52791 0.0
C733 C 0.21046 0.78078 0.50034 0.0
C734 C 0.2241 0.80168 0.48738 0.0
C735 C 0.24404 0.8172 0.5008 0.0
H736 H 0.41624 0.14858 0.98998 0.0
H737 H 0.44245 0.19358 0.91624 0.0
H738 H 0.40982 0.17562 0.01629 0.0
H739 H 0.43633 0.2206 0.94257 0.0
H740 H 0.44605 0.24514 0.0643 0.0
H741 H 0.43752 0.21129 0.03799 0.0
H742 H 0.41096 0.2313 0.96578 0.0
H743 H 0.41978 0.26551 0.99212 0.0
C744 C 0.42014 0.164 0.97912 0.0
C745 C 0.43017 0.16911 0.95122 0.0
C746 C 0.41656 0.17952 -0.00576 0.0
C747 C 0.42282 0.20036 0.98167 0.0
C748 C 0.43117 0.20466 0.95283 0.0
C749 C 0.43484 0.18922 0.93779 0.0
C750 C 0.43796 0.24213 0.04307 0.0
C751 C 0.43389 0.25814 0.0301 0.0
C752 C 0.43289 0.2226 0.02807 0.0
C753 C 0.42372 0.21868 -0.00033 0.0
C754 C 0.41826 0.234 0.98749 0.0
C755 C 0.42322 0.25352 0.00263 0.0
H756 H 0.13789 0.41548 0.48958 0.0
H757 H 0.18028 0.43765 0.56632 0.0
H758 H 0.16481 0.40805 0.46456 0.0
H759 H 0.20707 0.43037 0.5414 0.0
H760 H 0.25071 0.41085 0.49491 0.0
H761 H 0.2159 0.4034 0.51831 0.0
H762 H 0.20255 0.43535 0.44598 0.0
H763 H 0.23715 0.44262 0.42249 0.0
C764 C 0.15264 0.4182 0.50137 0.0
C765 C 0.15714 0.42741 0.52976 0.0
C766 C 0.16809 0.41406 0.48699 0.0
C767 C 0.18814 0.41883 0.5009 0.0
C768 C 0.19172 0.42635 0.53014 0.0
C769 C 0.17642 0.43067 0.54437 0.0
C770 C 0.24009 0.41584 0.4837 0.0
C771 C 0.24682 0.42762 0.45707 0.0
C772 C 0.22019 0.41161 0.49714 0.0
C773 C 0.2066 0.41897 0.48413 0.0
C774 C 0.21255 0.42929 0.45646 0.0
C775 C 0.23249 0.43362 0.4431 0.0
H776 H 0.8403 0.26682 -0.00046 0.0
H777 H 0.79827 0.24636 0.92244 0.0
H778 H 0.8126 0.2335 0.02535 0.0
H779 H 0.77066 0.21326 0.9482 0.0
H780 H 0.7401 0.19754 0.0669 0.0
H781 H 0.77494 0.22406 0.04334 0.0
H782 H 0.76137 0.17758 0.97239 0.0
H783 H 0.72632 0.15101 -0.0041 0.0
C784 C 0.82538 0.25499 0.98791 0.0
C785 C 0.82131 0.25932 0.95909 0.0
C786 C 0.80951 0.23597 0.00272 0.0
C787 C 0.7894 0.22085 0.98888 0.0
C788 C 0.78607 0.22447 0.9594 0.0
C789 C 0.80182 0.24353 0.94469 0.0
C790 C 0.74478 0.19275 0.04664 0.0
C791 C 0.73031 0.17234 0.03303 0.0
C792 C 0.76484 0.2079 0.03321 0.0
C793 C 0.77077 0.20299 0.00584 0.0
C794 C 0.75707 0.18191 -0.0067 0.0
C795 C 0.73706 0.16668 0.00684 0.0
H796 H 0.53646 0.79179 0.41512 0.0
H797 H 0.56981 0.83714 0.48706 0.0
H798 H 0.54238 0.76375 0.43905 0.0
H799 H 0.57589 0.80908 0.51088 0.0
H800 H 0.55989 0.71752 0.48486 0.0
H801 H 0.56837 0.75167 0.45863 0.0
H802 H 0.54725 0.77411 0.53425 0.0
H803 H 0.53889 0.74022 0.56033 0.0
C804 C 0.54559 0.796 0.43565 0.0
C805 C 0.55233 0.81653 0.44944 0.0
C806 C 0.54911 0.77996 0.4493 0.0
C807 C 0.55935 0.78412 0.47704 0.0
C808 C 0.56767 0.80531 0.48969 0.0
C809 C 0.56425 0.8214 0.47598 0.0
C810 C 0.55758 0.73001 0.49608 0.0
C811 C 0.54849 0.72612 0.52452 0.0
C812 C 0.56234 0.74949 0.48102 0.0
C813 C 0.55836 0.76551 0.49431 0.0
C814 C 0.55072 0.76222 0.52348 0.0
C815 C 0.54576 0.74271 0.53838 0.0
H816 H 0.35403 0.40709 0.06815 0.0
H817 H 0.41719 0.46833 0.06303 0.0
H818 H 0.37359 0.38589 0.06803 0.0
H819 H 0.4366 0.44728 0.06177 0.0
H820 H 0.4658 0.40723 0.09904 0.0
H821 H 0.44504 0.42679 0.09573 0.0
H822 H 0.396 0.37441 0.0406 0.0
H823 H 0.41657 0.3543 0.04479 0.0
C824 C 0.37205 0.41599 0.06653 0.0
C825 C 0.38408 0.43939 0.06599 0.0
C826 C 0.38327 0.40385 0.06634 0.0
C827 C 0.40672 0.41487 0.06532 0.0
C828 C 0.41859 0.43824 0.0634 0.0
C829 C 0.40743 0.45033 0.06394 0.0
C830 C 0.45062 0.39984 0.08614 0.0
C831 C 0.44291 0.37923 0.07207 0.0
C832 C 0.43876 0.41116 0.08406 0.0
C833 C 0.41896 0.40235 0.06758 0.0
C834 C 0.4111 0.38162 0.05364 0.0
C835 C 0.42293 0.37014 0.05593 0.0
H836 H 0.04151 0.46763 0.56061 0.0
H837 H 0.04219 0.40573 0.56602 0.0
H838 H 0.00107 0.44718 0.55871 0.0
H839 H 0.00143 0.38514 0.56519 0.0
H840 H 0.92743 0.35482 0.53993 0.0
H841 H 0.96813 0.37448 0.53665 0.0
H842 H 0.97152 0.42677 0.59203 0.0
H843 H 0.93119 0.40766 0.59447 0.0
C844 C 0.03301 0.44961 0.56149 0.0
C845 C 0.04507 0.43832 0.56376 0.0
C846 C 0.00977 0.43787 0.56055 0.0
C847 C -0.00207 0.4145 0.56227 0.0
C848 C 0.01 0.40312 0.56363 0.0
C849 C 0.03335 0.41491 0.56424 0.0
C850 C 0.93692 0.37055 0.5513 0.0
C851 C 0.92603 0.37972 0.5673 0.0
C852 C 0.96024 0.38176 0.54955 0.0
C853 C 0.97314 0.40231 0.56388 0.0
C854 C 0.96217 0.41126 0.58012 0.0
C855 C 0.93896 0.4002 0.58168 0.0
H856 H 0.58538 0.94448 0.06019 0.0
H857 H 0.53018 0.94254 0.01347 0.0
H858 H 0.60615 0.98503 0.05596 0.0
H859 H 0.55118 0.98282 0.00793 0.0
H860 H 0.57544 0.05051 0.05059 0.0
H861 H 0.55914 0.0109 0.04316 0.0
H862 H 0.62461 0.01934 0.02816 0.0
H863 H 0.6412 0.05941 0.03656 0.0
C864 C 0.57804 0.95268 0.0481 0.0
C865 C 0.55607 0.94048 0.03756 0.0
C866 C 0.58993 0.97592 0.04563 0.0
C867 C 0.58012 0.98725 0.03222 0.0
C868 C 0.55897 0.9747 0.01921 0.0
C869 C 0.54698 0.95161 0.02215 0.0
C870 C 0.58645 0.04407 0.04549 0.0
C871 C 0.60967 0.0582 0.04431 0.0
C872 C 0.57704 0.02126 0.04091 0.0
C873 C 0.59052 0.01186 0.03478 0.0
C874 C 0.61376 0.02601 0.03301 0.0
C875 C 0.62325 0.04897 0.03772 0.0
H876 H 0.5807 0.53014 0.599 0.0
H877 H 0.63196 0.5807 0.54434 0.0
H878 H 0.55973 0.54955 0.5969 0.0
H879 H 0.61041 0.59984 0.54121 0.0
H880 H 0.57483 0.63889 0.56743 0.0
H881 H 0.59762 0.62103 0.56807 0.0
H882 H 0.53781 0.5565 0.56382 0.0
H883 H 0.51519 0.57429 0.56444 0.0
C884 C 0.58743 0.54535 0.58632 0.0
C885 C 0.60795 0.5538 0.5717 0.0
C886 C 0.57529 0.55643 0.58492 0.0
C887 C 0.58316 0.57612 0.56851 0.0
C888 C 0.6039 0.58481 0.55422 0.0
C889 C 0.61622 0.57381 0.55592 0.0
C890 C 0.56661 0.62089 0.56646 0.0
C891 C 0.54321 0.60799 0.56621 0.0
C892 C 0.57967 0.61064 0.56671 0.0
C893 C 0.56958 0.58729 0.56639 0.0
C894 C 0.54618 0.5745 0.56492 0.0
C895 C 0.53317 0.5847 0.56507 0.0
H896 H 0.9419 0.58395 0.05702 0.0
H897 H 0.94437 0.52574 0.02856 0.0
H898 H 0.98268 0.6055 0.05675 0.0
H899 H 0.98484 0.54729 0.02743 0.0
H900 H 0.0579 0.64069 0.03549 0.0
H901 H 0.01746 0.62139 0.02836 0.0
H902 H 0.01229 0.56172 0.06574 0.0
H903 H 0.05235 0.58062 0.0722 0.0
C904 C 0.95113 0.5759 0.05007 0.0
C905 C 0.93997 0.55307 0.04328 0.0
C906 C 0.97448 0.58825 0.04985 0.0
C907 C 0.98702 0.57799 0.04262 0.0
C908 C 0.97571 0.55555 0.0339 0.0
C909 C 0.9525 0.54321 0.03439 0.0
C910 C 0.0481 0.62342 0.04206 0.0
C911 C 0.05841 0.61219 0.05432 0.0
C912 C 0.02494 0.61241 0.03807 0.0
C913 C 0.01166 0.58996 0.04621 0.0
C914 C 0.02203 0.57885 0.05858 0.0
C915 C 0.04506 0.58978 0.06251 0.0
H916 H 0.44416 0.04446 0.49955 0.0
H917 H 0.39165 0.03986 0.5553 0.0
H918 H 0.4225 0.00464 0.48972 0.0
H919 H 0.37043 -0.00033 0.54722 0.0
H920 H 0.33541 0.92633 0.52908 0.0
H921 H 0.35051 0.96604 0.51945 0.0
H922 H 0.41724 0.9756 0.52059 0.0
H923 H 0.40229 0.93637 0.52896 0.0
C924 C 0.42773 0.03489 0.50923 0.0
C925 C 0.41959 0.04502 0.52837 0.0
C926 C 0.41539 0.01206 0.50386 0.0
C927 C 0.395 -0.00124 0.51839 0.0
C928 C 0.38601 0.00932 0.53557 0.0
C929 C 0.39816 0.03234 0.54032 0.0
C930 C 0.35327 0.93691 0.5266 0.0
C931 C 0.36765 0.9282 0.53012 0.0
C932 C 0.36193 0.95968 0.52127 0.0
C933 C 0.38512 0.97414 0.51932 0.0
C934 C 0.39929 0.96508 0.52138 0.0
C935 C 0.39068 0.94246 0.52655 0.0
H936 H 0.58939 0.64402 0.92019 0.0
H937 H 0.53432 0.59026 0.96608 0.0
H938 H 0.61058 0.62448 0.92434 0.0
H939 H 0.55566 0.57127 0.97153 0.0
H940 H 0.64589 0.58492 0.9457 0.0
H941 H 0.62908 0.60843 0.95302 0.0
H942 H 0.56403 0.55179 0.9354 0.0
H943 H 0.58049 0.52848 0.92895 0.0
C944 C 0.58216 0.62841 0.93204 0.0
C945 C 0.56014 0.61842 0.9424 0.0
C946 C 0.59428 0.61722 0.93447 0.0
C947 C 0.58459 0.59604 0.94764 0.0
C948 C 0.56335 0.58721 0.96044 0.0
C949 C 0.55117 0.59814 0.95753 0.0
C950 C 0.62798 0.57751 0.94369 0.0
C951 C 0.61455 0.5548 0.93675 0.0
C952 C 0.61838 0.591 0.94778 0.0
C953 C 0.59518 0.58198 0.94509 0.0
C954 C 0.58188 0.55924 0.93839 0.0
C955 C 0.59139 0.54585 0.93439 0.0
H956 H 0.92905 0.52006 0.41319 0.0
H957 H 0.92223 0.57647 0.43868 0.0
H958 H 0.96905 0.54225 0.41894 0.0
H959 H 0.96265 0.59872 0.4454 0.0
H960 H 0.03766 0.63551 0.41413 0.0
H961 H -0.00309 0.61595 0.41715 0.0
H962 H -0.00262 0.55896 0.45489 0.0
H963 H 0.03777 0.5781 0.45055 0.0
C964 C 0.93606 0.53716 0.4204 0.0
C965 C 0.92238 0.54645 0.42547 0.0
C966 C 0.95908 0.54989 0.42396 0.0
C967 C 0.96912 0.57225 0.433 0.0
C968 C 0.95547 0.58159 0.43827 0.0
C969 C 0.93232 0.56882 0.43452 0.0
C970 C 0.02899 0.61898 0.42361 0.0
C971 C 0.04075 0.60814 0.43168 0.0
C972 C 0.00566 0.60777 0.42539 0.0
C973 C -0.00618 0.58567 0.43563 0.0
C974 C 0.00589 0.57568 0.44601 0.0
C975 C 0.02905 0.5867 0.44375 0.0
H976 H 0.40886 0.05449 0.93986 0.0
H977 H 0.46369 0.04914 0.90333 0.0
H978 H 0.38825 0.01419 0.94782 0.0
H979 H 0.44307 0.00926 0.91055 0.0
H980 H 0.3507 0.9388 0.9189 0.0
H981 H 0.36958 0.97946 0.91982 0.0
H982 H 0.43026 0.98177 0.94838 0.0
H983 H 0.41167 0.94137 0.9465 0.0
C984 C 0.41653 0.04477 0.93356 0.0
C985 C 0.43796 0.05509 0.92101 0.0
C986 C 0.40468 0.02168 0.93802 0.0
C987 C 0.41406 0.0085 0.93006 0.0
C988 C 0.4355 0.01891 0.91758 0.0
C989 C 0.44729 0.04185 0.9132 0.0
C990 C 0.36796 0.94802 0.92585 0.0
C991 C 0.37981 0.93692 0.93216 0.0
C992 C 0.37877 0.97132 0.92645 0.0
C993 C 0.40156 0.98389 0.93362 0.0
C994 C 0.41287 0.97263 0.94196 0.0
C995 C 0.40218 0.94945 0.94105 0.0
H996 H 0.38763 0.45066 0.48076 0.0
H997 H 0.33844 0.39729 0.42732 0.0
H998 H 0.40681 0.42969 0.48865 0.0
H999 H 0.3583 0.37667 0.43375 0.0
H1000 H 0.39887 0.34305 0.4511 0.0
H1001 H 0.37383 0.35767 0.46173 0.0
H1002 H 0.42945 0.42473 0.45404 0.0
H1003 H 0.45416 0.41035 0.44438 0.0
C1004 C 0.38071 0.43421 0.47118 0.0
C1005 C 0.36181 0.42567 0.45311 0.0
C1006 C 0.39175 0.42224 0.47551 0.0
C1007 C 0.38448 0.40179 0.46111 0.0
C1008 C 0.36435 0.39235 0.4452 0.0
C1009 C 0.35299 0.40416 0.44142 0.0
C1010 C 0.40572 0.3609 0.45226 0.0
C1011 C 0.42847 0.37553 0.44662 0.0
C1012 C 0.39138 0.36926 0.45821 0.0
C1013 C 0.3996 0.39238 0.45882 0.0
C1014 C 0.42252 0.40686 0.45436 0.0
C1015 C 0.43672 0.39857 0.44843 0.0
H1016 H 0.05333 0.40111 0.92562 0.0
H1017 H 0.05347 0.45432 0.97506 0.0
H1018 H 0.01276 0.37915 0.93016 0.0
H1019 H 0.0132 0.43207 0.98102 0.0
H1020 H 0.94689 0.40872 0.93376 0.0
H1021 H 0.98607 0.425 0.94449 0.0
H1022 H 0.97769 0.35944 0.95708 0.0
H1023 H 0.93793 0.34284 0.94539 0.0
C1024 C 0.04474 0.40771 0.93843 0.0
C1025 C 0.05636 0.42952 0.94951 0.0
C1026 C 0.02151 0.39513 0.94112 0.0
C1027 C 0.00967 0.40409 0.95532 0.0
C1028 C 0.02173 0.42495 0.96916 0.0
C1029 C 0.0448 0.43766 0.96593 0.0
C1030 C 0.95323 0.39766 0.93906 0.0
C1031 C 0.93926 0.37444 0.93842 0.0
C1032 C 0.97577 0.40706 0.94561 0.0
C1033 C 0.98509 0.39356 0.95188 0.0
C1034 C 0.97104 0.37029 0.9522 0.0
C1035 C 0.94828 0.3608 0.94563 0.0
H1036 H 0.52661 0.93505 0.47396 0.0
H1037 H 0.58009 0.93601 0.42399 0.0
H1038 H 0.54868 0.9752 0.48052 0.0
H1039 H 0.60181 0.97644 0.42902 0.0
H1040 H 0.63897 0.05059 0.44734 0.0
H1041 H 0.62177 0.01051 0.45631 0.0
H1042 H 0.55652 0.00389 0.44725 0.0
H1043 H 0.57342 0.04341 0.4395 0.0
C1044 C 0.54323 0.94388 0.46467 0.0
C1045 C 0.55154 0.93253 0.44813 0.0
C1046 C 0.55584 0.96691 0.46823 0.0
C1047 C 0.5768 0.9792 0.45461 0.0
C1048 C 0.58579 0.96758 0.4399 0.0
C1049 C 0.57332 0.9444 0.43689 0.0
C1050 C 0.62096 0.04055 0.44775 0.0
C1051 C 0.60761 0.05023 0.44253 0.0
C1052 C 0.6111 0.01758 0.45274 0.0
C1053 C 0.58773 0.00389 0.4526 0.0
C1054 C 0.57453 0.01383 0.44821 0.0
C1055 C 0.5843 0.03661 0.4434 0.0
H1056 H 0.44758 0.61498 0.9226 0.0
H1057 H 0.47689 0.62548 0.00909 0.0
H1058 H 0.41297 0.584 0.94142 0.0
H1059 H 0.44242 0.59434 0.02778 0.0
H1060 H 0.37308 0.54543 0.05791 0.0
H1061 H 0.40275 0.58038 0.03796 0.0
H1062 H 0.40255 0.54636 0.95829 0.0
H1063 H 0.37269 0.51149 0.97804 0.0
C1064 C 0.44655 0.61085 0.94571 0.0
C1065 C 0.46504 0.62253 0.96434 0.0
C1066 C 0.42676 0.59303 0.95642 0.0
C1067 C 0.42502 0.58661 0.986 0.0
C1068 C 0.44316 0.599 0.00492 0.0
C1069 C 0.46297 0.61677 -0.0058 0.0
C1070 C 0.37914 0.54548 0.03596 0.0
C1071 C 0.37071 0.52566 0.01964 0.0
C1072 C 0.39621 0.56548 0.02461 0.0
C1073 C 0.40512 0.5661 -0.00333 0.0
C1074 C 0.39592 0.54648 0.9798 0.0
C1075 C 0.37889 0.52647 0.99117 0.0
H1076 H 0.81508 0.37423 0.56377 0.0
H1077 H 0.83727 0.36783 0.47746 0.0
H1078 H 0.80967 0.40447 0.54596 0.0
H1079 H 0.83193 0.39803 0.45975 0.0
H1080 H 0.83796 0.47748 0.509 0.0
H1081 H 0.83547 0.44366 0.52924 0.0
H1082 H 0.8025 0.40785 0.4502 0.0
H1083 H 0.80507 0.44155 0.4299 0.0
C1084 C 0.81854 0.37909 0.54091 0.0
C1085 C 0.82669 0.36872 0.52201 0.0
C1086 C 0.81555 0.39647 0.5308 0.0
C1087 C 0.8204 0.40363 0.50151 0.0
C1088 C 0.8278 0.39272 0.48237 0.0
C1089 C 0.83099 0.3755 0.49254 0.0
C1090 C 0.8298 0.46229 0.49619 0.0
C1091 C 0.82198 0.46227 0.46771 0.0
C1092 C 0.82832 0.4429 0.50781 0.0
C1093 C 0.81905 0.4232 0.49111 0.0
C1094 C 0.81007 0.42289 0.46335 0.0
C1095 C 0.81145 0.44219 0.45182 0.0
H1096 H 0.36918 0.81817 0.92814 0.0
H1097 H 0.36623 0.85015 0.00819 0.0
H1098 H 0.39936 0.8139 0.9487 0.0
H1099 H 0.39669 0.84625 0.02853 0.0
H1100 H 0.44527 0.82735 0.06432 0.0
H1101 H 0.40963 0.82122 0.04551 0.0
H1102 H 0.43834 0.84063 0.95883 0.0
H1103 H 0.47381 0.84636 0.97749 0.0
C1104 C 0.37477 0.82402 0.95029 0.0
C1105 C 0.36552 0.83476 0.96642 0.0
C1106 C 0.39214 0.82167 0.96198 0.0
C1107 C 0.40062 0.82999 0.99007 0.0
C1108 C 0.39044 0.83952 0.00689 0.0
C1109 C 0.37304 0.84185 -0.0048 0.0
C1110 C 0.44387 0.82996 0.04114 0.0
C1111 C 0.46242 0.83757 0.02242 0.0
C1112 C 0.42347 0.82655 0.03043 0.0
C1113 C 0.4212 0.83063 0.00076 0.0
C1114 C 0.43945 0.83713 0.98176 0.0
C1115 C 0.45985 0.84055 -0.00753 0.0
H1116 H 0.54164 0.38383 0.41859 0.0
H1117 H 0.5175 0.37104 0.508 0.0
H1118 H 0.5769 0.41511 0.43541 0.0
H1119 H 0.55259 0.40244 0.52472 0.0
H1120 H 0.62312 0.45099 0.54983 0.0
H1121 H 0.59273 0.41643 0.53006 0.0
H1122 H 0.58811 0.45233 0.45537 0.0
H1123 H 0.61875 0.48688 0.47493 0.0
C1124 C 0.54395 0.38754 0.44186 0.0
C1125 C 0.52674 0.37507 0.46197 0.0
C1126 C 0.5641 0.40553 0.45145 0.0
C1127 C 0.56749 0.41131 0.48135 0.0
C1128 C 0.5506 0.39827 0.50157 0.0
C1129 C 0.53043 0.38035 0.49198 0.0
C1130 C 0.61585 0.45146 0.52896 0.0
C1131 C 0.62317 0.4717 0.51408 0.0
C1132 C 0.59837 0.43168 0.51773 0.0
C1133 C 0.58787 0.4317 0.49134 0.0
C1134 C 0.59597 0.45174 0.47567 0.0
C1135 C 0.61345 0.47156 0.48694 0.0
H1136 H 0.16756 0.54331 0.92136 0.0
H1137 H 0.14738 0.51559 0.00836 0.0
H1138 H 0.17241 0.57871 0.93887 0.0
H1139 H 0.15185 0.55087 0.02574 0.0
H1140 H 0.14271 0.62212 0.97162 0.0
H1141 H 0.14645 0.59099 0.95382 0.0
H1142 H 0.1779 0.59027 0.03547 0.0
H1143 H 0.17382 0.62121 0.0535 0.0
C1144 C 0.16439 0.54485 0.94433 0.0
C1145 C 0.15685 0.52657 0.96344 0.0
C1146 C 0.16706 0.5651 0.95429 0.0
C1147 C 0.1623 0.56755 0.9836 0.0
C1148 C 0.15584 0.54961 0.00308 0.0
C1149 C 0.15317 0.52932 -0.0069 0.0
C1150 C 0.15071 0.61553 0.98561 0.0
C1151 C 0.15778 0.62399 0.01405 0.0
C1152 C 0.15297 0.59776 0.97535 0.0
C1153 C 0.16235 0.58805 -0.00669 0.0
C1154 C 0.17031 0.59717 0.02128 0.0
C1155 C 0.16809 0.61499 0.03152 0.0
H1156 H 0.50935 0.1364 0.47516 0.0
H1157 H 0.53525 0.15384 0.56347 0.0
H1158 H 0.54543 0.14281 0.45817 0.0
H1159 H 0.57159 0.16079 0.54633 0.0
H1160 H 0.61828 0.13552 0.5105 0.0
H1161 H 0.58659 0.13778 0.52964 0.0
H1162 H 0.58405 0.16993 0.44961 0.0
H1163 H 0.61539 0.16713 0.43017 0.0
C1164 C 0.52286 0.14198 0.49085 0.0
C1165 C 0.51939 0.14439 0.52069 0.0
C1166 C 0.54362 0.14581 0.48109 0.0
C1167 C 0.5614 0.15223 0.50093 0.0
C1168 C 0.55815 0.15555 0.53057 0.0
C1169 C 0.53737 0.15167 0.54035 0.0
C1170 C 0.61121 0.14343 0.49721 0.0
C1171 C 0.61912 0.15086 0.46867 0.0
C1172 C 0.59308 0.14481 0.50823 0.0
C1173 C 0.58259 0.15378 0.49099 0.0
C1174 C 0.59146 0.16251 0.46319 0.0
C1175 C 0.60951 0.16103 0.45214 0.0
H1176 H 0.54763 0.37295 0.06684 0.0
H1177 H 0.51713 0.36765 0.98217 0.0
H1178 H 0.58248 0.40419 0.04886 0.0
H1179 H 0.55187 0.39893 0.96433 0.0
H1180 H 0.62523 0.47809 0.01552 0.0
H1181 H 0.59458 0.44334 0.03476 0.0
H1182 H 0.59105 0.41058 0.95254 0.0
H1183 H 0.62145 0.44524 0.93323 0.0
C1184 C 0.54845 0.37827 0.04428 0.0
C1185 C 0.5296 0.36792 0.02593 0.0
C1186 C 0.56836 0.39624 0.03408 0.0
C1187 C 0.56988 0.40406 0.00525 0.0
C1188 C 0.55129 0.39314 0.98658 0.0
C1189 C 0.53135 0.37529 -0.00317 0.0
C1190 C 0.61815 0.46338 0.00175 0.0
C1191 C 0.62557 0.46447 0.97276 0.0
C1192 C 0.60065 0.44346 0.01279 0.0
C1193 C 0.59026 0.42431 -0.00499 0.0
C1194 C 0.59849 0.42516 0.96657 0.0
C1195 C 0.61597 0.445 0.95559 0.0
H1196 H 0.13306 0.61854 0.50182 0.0
H1197 H 0.15111 0.60766 0.41503 0.0
H1198 H 0.13825 0.58861 0.52089 0.0
H1199 H 0.15659 0.57785 0.43423 0.0
H1200 H 0.12717 0.50613 0.47354 0.0
H1201 H 0.1308 0.54014 0.45262 0.0
H1202 H 0.16549 0.57647 0.53061 0.0
H1203 H 0.16159 0.54238 0.55175 0.0
C1204 C 0.13848 0.60999 0.48691 0.0
C1205 C 0.14145 0.6153 0.45688 0.0
C1206 C 0.1416 0.59293 0.49787 0.0
C1207 C 0.14772 0.58079 0.47901 0.0
C1208 C 0.15161 0.58674 0.44921 0.0
C1209 C 0.14857 0.60387 0.43826 0.0
C1210 C 0.13588 0.52144 0.48602 0.0
C1211 C 0.14384 0.52152 0.51442 0.0
C1212 C 0.13807 0.54097 0.47397 0.0
C1213 C 0.14826 0.56095 0.4901 0.0
C1214 C 0.15726 0.56125 0.51786 0.0
C1215 C 0.15512 0.54174 0.52988 0.0
H1216 H 0.61881 0.17586 0.04949 0.0
H1217 H 0.62275 0.14484 0.96905 0.0
H1218 H 0.58816 0.17937 0.02913 0.0
H1219 H 0.59184 0.14813 0.94881 0.0
H1220 H 0.54279 0.16796 0.91438 0.0
H1221 H 0.57843 0.17361 0.93272 0.0
H1222 H 0.54921 0.1511 0.01858 0.0
H1223 H 0.51371 0.14565 0.00037 0.0
C1224 C 0.61335 0.17008 0.02728 0.0
C1225 C 0.623 0.1598 0.011 0.0
C1226 C 0.59571 0.172 0.0157 0.0
C1227 C 0.58739 0.16375 0.98755 0.0
C1228 C 0.59796 0.15474 0.97053 0.0
C1229 C 0.61562 0.15278 0.98216 0.0
C1230 C 0.54408 0.16453 0.93728 0.0
C1231 C 0.52541 0.15621 0.95592 0.0
C1232 C 0.56445 0.16766 0.94771 0.0
C1233 C 0.5666 0.16272 0.97703 0.0
C1234 C 0.54816 0.1553 -0.00406 0.0
C1235 C 0.52778 0.15204 0.98548 0.0
H1236 H 0.46813 0.61464 0.47716 0.0
H1237 H 0.43447 0.61512 0.55689 0.0
H1238 H 0.4333 0.58405 0.4583 0.0
H1239 H 0.39954 0.58471 0.5378 0.0
H1240 H 0.35449 0.51016 0.51063 0.0
H1241 H 0.38553 0.54503 0.52864 0.0
H1242 H 0.39558 0.57294 0.44143 0.0
H1243 H 0.36476 0.53796 0.42331 0.0
C1244 C 0.45321 0.60846 0.49045 0.0
C1245 C 0.4541 0.61715 0.51861 0.0
C1246 C 0.43321 0.59101 0.47958 0.0
C1247 C 0.41367 0.58186 0.49664 0.0
C1248 C 0.41437 0.5912 0.52431 0.0
C1249 C 0.43436 0.60869 0.53515 0.0
C1250 C 0.3631 0.52384 0.49541 0.0
C1251 C 0.35733 0.52121 0.46551 0.0
C1252 C 0.38083 0.54388 0.50575 0.0
C1253 C 0.39315 0.56169 0.48639 0.0
C1254 C 0.38664 0.5594 0.45678 0.0
C1255 C 0.3689 0.5394 0.44646 0.0
H1256 H 0.83102 0.37673 0.91106 0.0
H1257 H 0.84516 0.36645 0.00029 0.0
H1258 H 0.82592 0.40745 0.92749 0.0
H1259 H 0.84041 0.39727 0.01658 0.0
H1260 H 0.85542 0.47997 0.96534 0.0
H1261 H 0.85113 0.44527 0.94572 0.0
H1262 H 0.81385 0.41031 0.02295 0.0
H1263 H 0.81849 0.44503 0.0428 0.0
C1264 C 0.83278 0.38085 0.93422 0.0
C1265 C 0.83866 0.36928 0.95438 0.0
C1266 C 0.82997 0.39852 0.94358 0.0
C1267 C 0.83285 0.40486 0.97329 0.0
C1268 C 0.8378 0.39265 -0.00641 0.0
C1269 C 0.84067 0.37506 0.98423 0.0
C1270 C 0.84595 0.4648 0.97786 0.0
C1271 C 0.8376 0.46528 0.0058 0.0
C1272 C 0.84341 0.44489 0.96657 0.0
C1273 C 0.83241 0.4251 0.98299 0.0
C1274 C 0.82278 0.42536 0.01005 0.0
C1275 C 0.82536 0.44524 0.02134 0.0
H1276 H 0.47121 0.84366 0.50955 0.0
H1277 H 0.43961 0.81304 0.42729 0.0
H1278 H 0.43569 0.83791 0.52816 0.0
H1279 H 0.40398 0.80683 0.44612 0.0
H1280 H 0.36678 0.81619 0.56053 0.0
H1281 H 0.39773 0.81187 0.54307 0.0
H1282 H 0.38954 0.83159 0.45604 0.0
H1283 H 0.35833 0.83544 0.47334 0.0
C1284 C 0.45658 0.83524 0.4957 0.0
C1285 C 0.45827 0.82909 0.46682 0.0
C1286 C 0.43617 0.83184 0.5064 0.0
C1287 C 0.41703 0.82214 0.48848 0.0
C1288 C 0.41849 0.81474 0.46026 0.0
C1289 C 0.43889 0.81819 0.44955 0.0
C1290 C 0.37135 0.81923 0.53754 0.0
C1291 C 0.36026 0.82638 0.51836 0.0
C1292 C 0.38917 0.81688 0.5276 0.0
C1293 C 0.39627 0.8216 0.49825 0.0
C1294 C 0.38439 0.8276 0.47873 0.0
C1295 C 0.36655 0.82993 0.48867 0.0
loop_
_geom_bond_atom_site_label_1
_geom_bond_atom_site_label_2
_geom_bond_distance
_geom_bond_site_symmetry_2
_ccdc_geom_bond_type
C0 O1 1.306 . S
C0 O3 1.160 . S
O1 C0 1.306 . S
O1 Cd2 2.228 . S
Cd2 O1 2.228 . S
Cd2 O6 2.273 . S
Cd2 O10 2.277 . S
O3 C0 1.160 . S
O3 Cd4 2.203 . S
Cd4 O3 2.203 . S
Cd4 O6 2.411 . S
Cd4 O7 2.333 . S
Cd4 O8 2.352 . S
Cd4 O12 2.277 . S
Cd4 O13 2.356 . S
C5 O10 1.209 . S
C5 O12 1.226 . S
O6 Cd2 2.273 . S
O6 Cd4 2.411 . S
O6 C9 1.320 . S
O7 Cd4 2.333 . S
O7 C9 1.214 . S
O8 Cd4 2.352 . S
O8 C11 1.258 . S
C9 O6 1.320 . S
C9 O7 1.214 . S
O10 Cd2 2.277 . S
O10 C5 1.209 . S
C11 O8 1.258 . S
C11 O13 1.282 . S
O12 Cd4 2.277 . S
O12 C5 1.226 . S
O13 Cd4 2.356 . S
O13 C11 1.282 . S
C14 O15 1.306 . S
C14 O17 1.160 . S
O15 C14 1.306 . S
O15 Cd16 2.228 . S
Cd16 O15 2.228 . S
Cd16 O20 2.273 . S
Cd16 O24 2.277 . S
O17 C14 1.160 . S
O17 Cd18 2.203 . S
Cd18 O17 2.203 . S
Cd18 O20 2.411 . S
Cd18 O21 2.333 . S
Cd18 O22 2.352 . S
Cd18 O26 2.277 . S
Cd18 O27 2.356 . S
C19 O24 1.209 . S
C19 O26 1.226 . S
O20 Cd16 2.273 . S
O20 Cd18 2.411 . S
O20 C23 1.320 . S
O21 Cd18 2.333 . S
O21 C23 1.214 . S
O22 Cd18 2.352 . S
O22 C25 1.258 . S
C23 O20 1.320 . S
C23 O21 1.214 . S
O24 Cd16 2.277 . S
O24 C19 1.209 . S
C25 O22 1.258 . S
C25 O27 1.282 . S
O26 Cd18 2.277 . S
O26 C19 1.226 . S
O27 Cd18 2.356 . S
O27 C25 1.282 . S
C28 O29 1.306 . S
C28 O31 1.160 . S
O29 C28 1.306 . S
O29 Cd30 2.228 . S
Cd30 O29 2.228 . S
Cd30 O34 2.273 . S
Cd30 O38 2.277 . S
O31 C28 1.160 . S
O31 Cd32 2.203 . S
Cd32 O31 2.203 . S
Cd32 O34 2.411 . S
Cd32 O35 2.333 . S
Cd32 O36 2.352 . S
Cd32 O40 2.277 . S
Cd32 O41 2.356 . S
C33 O38 1.209 . S
C33 O40 1.226 . S
O34 Cd30 2.273 . S
O34 Cd32 2.411 . S
O34 C37 1.320 . S
O35 Cd32 2.333 . S
O35 C37 1.214 . S
O36 Cd32 2.352 . S
O36 C39 1.258 . S
C37 O34 1.320 . S
C37 O35 1.214 . S
O38 Cd30 2.277 . S
O38 C33 1.209 . S
C39 O36 1.258 . S
C39 O41 1.282 . S
O40 Cd32 2.277 . S
O40 C33 1.226 . S
O41 Cd32 2.356 . S
O41 C39 1.282 . S
C42 O43 1.306 . S
C42 O45 1.160 . S
O43 C42 1.306 . S
O43 Cd44 2.228 . S
Cd44 O43 2.228 . S
Cd44 O48 2.273 . S
Cd44 O52 2.277 . S
O45 C42 1.160 . S
O45 Cd46 2.203 . S
Cd46 O45 2.203 . S
Cd46 O48 2.411 . S
Cd46 O49 2.333 . S
Cd46 O50 2.352 . S
Cd46 O54 2.277 . S
Cd46 O55 2.356 . S
C47 O52 1.209 . S
C47 O54 1.226 . S
O48 Cd44 2.273 . S
O48 Cd46 2.411 . S
O48 C51 1.320 . S
O49 Cd46 2.333 . S
O49 C51 1.214 . S
O50 Cd46 2.352 . S
O50 C53 1.258 . S
C51 O48 1.320 . S
C51 O49 1.214 . S
O52 Cd44 2.277 . S
O52 C47 1.209 . S
C53 O50 1.258 . S
C53 O55 1.282 . S
O54 Cd46 2.277 . S
O54 C47 1.226 . S
O55 Cd46 2.356 . S
O55 C53 1.282 . S
C56 O57 1.306 . S
C56 O59 1.160 . S
O57 C56 1.306 . S
O57 Cd58 2.228 . S
Cd58 O57 2.228 . S
Cd58 O62 2.273 . S
Cd58 O66 2.277 . S
O59 C56 1.160 . S
O59 Cd60 2.203 . S
Cd60 O59 2.203 . S
Cd60 O62 2.411 . S
Cd60 O63 2.333 . S
Cd60 O64 2.352 . S
Cd60 O68 2.277 . S
Cd60 O69 2.356 . S
C61 O66 1.209 . S
C61 O68 1.226 . S
O62 Cd58 2.273 . S
O62 Cd60 2.411 . S
O62 C65 1.320 . S
O63 Cd60 2.333 . S
O63 C65 1.214 . S
O64 Cd60 2.352 . S
O64 C67 1.258 . S
C65 O62 1.320 . S
C65 O63 1.214 . S
O66 Cd58 2.277 . S
O66 C61 1.209 . S
C67 O64 1.258 . S
C67 O69 1.282 . S
O68 Cd60 2.277 . S
O68 C61 1.226 . S
O69 Cd60 2.356 . S
O69 C67 1.282 . S
C70 O71 1.306 . S
C70 O73 1.160 . S
O71 C70 1.306 . S
O71 Cd72 2.228 . S
Cd72 O71 2.228 . S
Cd72 O76 2.273 . S
Cd72 O80 2.277 . S
O73 C70 1.160 . S
O73 Cd74 2.203 . S
Cd74 O73 2.203 . S
Cd74 O76 2.411 . S
Cd74 O77 2.333 . S
Cd74 O78 2.352 . S
Cd74 O82 2.277 . S
Cd74 O83 2.356 . S
C75 O80 1.209 . S
C75 O82 1.226 . S
O76 Cd72 2.273 . S
O76 Cd74 2.411 . S
O76 C79 1.320 . S
O77 Cd74 2.333 . S
O77 C79 1.214 . S
O78 Cd74 2.352 . S
O78 C81 1.258 . S
C79 O76 1.320 . S
C79 O77 1.214 . S
O80 Cd72 2.277 . S
O80 C75 1.209 . S
C81 O78 1.258 . S
C81 O83 1.282 . S
O82 Cd74 2.277 . S
O82 C75 1.226 . S
O83 Cd74 2.356 . S
O83 C81 1.282 . S
C84 O85 1.306 . S
C84 O87 1.160 . S
O85 C84 1.306 . S
O85 Cd86 2.228 . S
Cd86 O85 2.228 . S
Cd86 O90 2.273 . S
Cd86 O94 2.277 . S
O87 C84 1.160 . S
O87 Cd88 2.203 . S
Cd88 O87 2.203 . S
Cd88 O90 2.411 . S
Cd88 O91 2.333 . S
Cd88 O92 2.352 . S
Cd88 O96 2.277 . S
Cd88 O97 2.356 . S
C89 O94 1.209 . S
C89 O96 1.226 . S
O90 Cd86 2.273 . S
O90 Cd88 2.411 . S
O90 C93 1.320 . S
O91 Cd88 2.333 . S
O91 C93 1.214 . S
O92 Cd88 2.352 . S
O92 C95 1.258 . S
C93 O90 1.320 . S
C93 O91 1.214 . S
O94 Cd86 2.277 . S
O94 C89 1.209 . S
C95 O92 1.258 . S
C95 O97 1.282 . S
O96 Cd88 2.277 . S
O96 C89 1.226 . S
O97 Cd88 2.356 . S
O97 C95 1.282 . S
C98 O99 1.306 . S
C98 O101 1.160 . S
O99 C98 1.306 . S
O99 Cd100 2.228 . S
Cd100 O99 2.228 . S
Cd100 O104 2.273 . S
Cd100 O108 2.277 . S
O101 C98 1.160 . S
O101 Cd102 2.203 . S
Cd102 O101 2.203 . S
Cd102 O104 2.411 . S
Cd102 O105 2.333 . S
Cd102 O106 2.352 . S
Cd102 O110 2.277 . S
Cd102 O111 2.356 . S
C103 O108 1.209 . S
C103 O110 1.226 . S
O104 Cd100 2.273 . S
O104 Cd102 2.411 . S
O104 C107 1.320 . S
O105 Cd102 2.333 . S
O105 C107 1.214 . S
O106 Cd102 2.352 . S
O106 C109 1.258 . S
C107 O104 1.320 . S
C107 O105 1.214 . S
O108 Cd100 2.277 . S
O108 C103 1.209 . S
C109 O106 1.258 . S
C109 O111 1.282 . S
O110 Cd102 2.277 . S
O110 C103 1.226 . S
O111 Cd102 2.356 . S
O111 C109 1.282 . S
C112 O113 1.306 . S
C112 O115 1.160 . S
O113 C112 1.306 . S
O113 Cd114 2.228 . S
Cd114 O113 2.228 . S
Cd114 O118 2.273 . S
Cd114 O122 2.277 . S
O115 C112 1.160 . S
O115 Cd116 2.203 . S
Cd116 O115 2.203 . S
Cd116 O118 2.411 . S
Cd116 O119 2.333 . S
Cd116 O120 2.352 . S
Cd116 O124 2.277 . S
Cd116 O125 2.356 . S
C117 O122 1.209 . S
C117 O124 1.226 . S
O118 Cd114 2.273 . S
O118 Cd116 2.411 . S
O118 C121 1.320 . S
O119 Cd116 2.333 . S
O119 C121 1.214 . S
O120 Cd116 2.352 . S
O120 C123 1.258 . S
C121 O118 1.320 . S
C121 O119 1.214 . S
O122 Cd114 2.277 . S
O122 C117 1.209 . S
C123 O120 1.258 . S
C123 O125 1.282 . S
O124 Cd116 2.277 . S
O124 C117 1.226 . S
O125 Cd116 2.356 . S
O125 C123 1.282 . S
C126 O127 1.306 . S
C126 O129 1.160 . S
O127 C126 1.306 . S
O127 Cd128 2.228 . S
Cd128 O127 2.228 . S
Cd128 O132 2.273 . S
Cd128 O136 2.277 . S
O129 C126 1.160 . S
O129 Cd130 2.203 . S
Cd130 O129 2.203 . S
Cd130 O132 2.411 . S
Cd130 O133 2.333 . S
Cd130 O134 2.352 . S
Cd130 O138 2.277 . S
Cd130 O139 2.356 . S
C131 O136 1.209 . S
C131 O138 1.226 . S
O132 Cd128 2.273 . S
O132 Cd130 2.411 . S
O132 C135 1.320 . S
O133 Cd130 2.333 . S
O133 C135 1.214 . S
O134 Cd130 2.352 . S
O134 C137 1.258 . S
C135 O132 1.320 . S
C135 O133 1.214 . S
O136 Cd128 2.277 . S
O136 C131 1.209 . S
C137 O134 1.258 . S
C137 O139 1.282 . S
O138 Cd130 2.277 . S
O138 C131 1.226 . S
O139 Cd130 2.356 . S
O139 C137 1.282 . S
C140 O141 1.306 . S
C140 O143 1.160 . S
O141 C140 1.306 . S
O141 Cd142 2.228 . S
Cd142 O141 2.228 . S
Cd142 O146 2.273 . S
Cd142 O150 2.277 . S
O143 C140 1.160 . S
O143 Cd144 2.203 . S
Cd144 O143 2.203 . S
Cd144 O146 2.411 . S
Cd144 O147 2.333 . S
Cd144 O148 2.352 . S
Cd144 O152 2.277 . S
Cd144 O153 2.356 . S
C145 O150 1.209 . S
C145 O152 1.226 . S
O146 Cd142 2.273 . S
O146 Cd144 2.411 . S
O146 C149 1.320 . S
O147 Cd144 2.333 . S
O147 C149 1.214 . S
O148 Cd144 2.352 . S
O148 C151 1.258 . S
C149 O146 1.320 . S
C149 O147 1.214 . S
O150 Cd142 2.277 . S
O150 C145 1.209 . S
C151 O148 1.258 . S
C151 O153 1.282 . S
O152 Cd144 2.277 . S
O152 C145 1.226 . S
O153 Cd144 2.356 . S
O153 C151 1.282 . S
C154 O155 1.306 . S
C154 O157 1.160 . S
O155 C154 1.306 . S
O155 Cd156 2.228 . S
Cd156 O155 2.228 . S
Cd156 O160 2.273 . S
Cd156 O164 2.277 . S
O157 C154 1.160 . S
O157 Cd158 2.203 . S
Cd158 O157 2.203 . S
Cd158 O160 2.411 . S
Cd158 O161 2.333 . S
Cd158 O162 2.352 . S
Cd158 O166 2.277 . S
Cd158 O167 2.356 . S
C159 O164 1.209 . S
C159 O166 1.226 . S
O160 Cd156 2.273 . S
O160 Cd158 2.411 . S
O160 C163 1.320 . S
O161 Cd158 2.333 . S
O161 C163 1.214 . S
O162 Cd158 2.352 . S
O162 C165 1.258 . S
C163 O160 1.320 . S
C163 O161 1.214 . S
O164 Cd156 2.277 . S
O164 C159 1.209 . S
C165 O162 1.258 . S
C165 O167 1.282 . S
O166 Cd158 2.277 . S
O166 C159 1.226 . S
O167 Cd158 2.356 . S
O167 C165 1.282 . S
C168 O169 1.306 . S
C168 O171 1.160 . S
O169 C168 1.306 . S
O169 Cd170 2.228 . S
Cd170 O169 2.228 . S
Cd170 O174 2.273 . S
Cd170 O178 2.277 . S
O171 C168 1.160 . S
O171 Cd172 2.203 . S
Cd172 O171 2.203 . S
Cd172 O174 2.411 . S
Cd172 O175 2.333 . S
Cd172 O176 2.352 . S
Cd172 O180 2.277 . S
Cd172 O181 2.356 . S
C173 O178 1.209 . S
C173 O180 1.226 . S
O174 Cd170 2.273 . S
O174 Cd172 2.411 . S
O174 C177 1.320 . S
O175 Cd172 2.333 . S
O175 C177 1.214 . S
O176 Cd172 2.352 . S
O176 C179 1.258 . S
C177 O174 1.320 . S
C177 O175 1.214 . S
O178 Cd170 2.277 . S
O178 C173 1.209 . S
C179 O176 1.258 . S
C179 O181 1.282 . S
O180 Cd172 2.277 . S
O180 C173 1.226 . S
O181 Cd172 2.356 . S
O181 C179 1.282 . S
C182 O183 1.306 . S
C182 O185 1.160 . S
O183 C182 1.306 . S
O183 Cd184 2.228 . S
Cd184 O183 2.228 . S
Cd184 O188 2.273 . S
Cd184 O192 2.277 . S
O185 C182 1.160 . S
O185 Cd186 2.203 . S
Cd186 O185 2.203 . S
Cd186 O188 2.411 . S
Cd186 O189 2.333 . S
Cd186 O190 2.352 . S
Cd186 O194 2.277 . S
Cd186 O195 2.356 . S
C187 O192 1.209 . S
C187 O194 1.226 . S
O188 Cd184 2.273 . S
O188 Cd186 2.411 . S
O188 C191 1.320 . S
O189 Cd186 2.333 . S
O189 C191 1.214 . S
O190 Cd186 2.352 . S
O190 C193 1.258 . S
C191 O188 1.320 . S
C191 O189 1.214 . S
O192 Cd184 2.277 . S
O192 C187 1.209 . S
C193 O190 1.258 . S
C193 O195 1.282 . S
O194 Cd186 2.277 . S
O194 C187 1.226 . S
O195 Cd186 2.356 . S
O195 C193 1.282 . S
C196 O197 1.306 . S
C196 O199 1.160 . S
O197 C196 1.306 . S
O197 Cd198 2.228 . S
Cd198 O197 2.228 . S
Cd198 O202 2.273 . S
Cd198 O206 2.277 . S
O199 C196 1.160 . S
O199 Cd200 2.203 . S
Cd200 O199 2.203 . S
Cd200 O202 2.411 . S
Cd200 O203 2.333 . S
Cd200 O204 2.352 . S
Cd200 O208 2.277 . S
Cd200 O209 2.356 . S
C201 O206 1.209 . S
C201 O208 1.226 . S
O202 Cd198 2.273 . S
O202 Cd200 2.411 . S
O202 C205 1.320 . S
O203 Cd200 2.333 . S
O203 C205 1.214 . S
O204 Cd200 2.352 . S
O204 C207 1.258 . S
C205 O202 1.320 . S
C205 O203 1.214 . S
O206 Cd198 2.277 . S
O206 C201 1.209 . S
C207 O204 1.258 . S
C207 O209 1.282 . S
O208 Cd200 2.277 . S
O208 C201 1.226 . S
O209 Cd200 2.356 . S
O209 C207 1.282 . S
C210 O211 1.306 . S
C210 O213 1.160 . S
O211 C210 1.306 . S
O211 Cd212 2.228 . S
Cd212 O211 2.228 . S
Cd212 O216 2.273 . S
Cd212 O220 2.277 . S
O213 C210 1.160 . S
O213 Cd214 2.203 . S
Cd214 O213 2.203 . S
Cd214 O216 2.411 . S
Cd214 O217 2.333 . S
Cd214 O218 2.352 . S
Cd214 O222 2.277 . S
Cd214 O223 2.356 . S
C215 O220 1.209 . S
C215 O222 1.226 . S
O216 Cd212 2.273 . S
O216 Cd214 2.411 . S
O216 C219 1.320 . S
O217 Cd214 2.333 . S
O217 C219 1.214 . S
O218 Cd214 2.352 . S
O218 C221 1.258 . S
C219 O216 1.320 . S
C219 O217 1.214 . S
O220 Cd212 2.277 . S
O220 C215 1.209 . S
C221 O218 1.258 . S
C221 O223 1.282 . S
O222 Cd214 2.277 . S
O222 C215 1.226 . S
O223 Cd214 2.356 . S
O223 C221 1.282 . S
C224 O225 1.306 . S
C224 O227 1.160 . S
O225 C224 1.306 . S
O225 Cd226 2.228 . S
Cd226 O225 2.228 . S
Cd226 O230 2.273 . S
Cd226 O234 2.277 . S
O227 C224 1.160 . S
O227 Cd228 2.203 . S
Cd228 O227 2.203 . S
Cd228 O230 2.411 . S
Cd228 O231 2.333 . S
Cd228 O232 2.352 . S
Cd228 O236 2.277 . S
Cd228 O237 2.356 . S
C229 O234 1.209 . S
C229 O236 1.226 . S
O230 Cd226 2.273 . S
O230 Cd228 2.411 . S
O230 C233 1.320 . S
O231 Cd228 2.333 . S
O231 C233 1.214 . S
O232 Cd228 2.352 . S
O232 C235 1.258 . S
C233 O230 1.320 . S
C233 O231 1.214 . S
O234 Cd226 2.277 . S
O234 C229 1.209 . S
C235 O232 1.258 . S
C235 O237 1.282 . S
O236 Cd228 2.277 . S
O236 C229 1.226 . S
O237 Cd228 2.356 . S
O237 C235 1.282 . S
C238 O239 1.306 . S
C238 O241 1.160 . S
O239 C238 1.306 . S
O239 Cd240 2.228 . S
Cd240 O239 2.228 . S
Cd240 O244 2.273 . S
Cd240 O248 2.277 . S
O241 C238 1.160 . S
O241 Cd242 2.203 . S
Cd242 O241 2.203 . S
Cd242 O244 2.411 . S
Cd242 O245 2.333 . S
Cd242 O246 2.352 . S
Cd242 O250 2.277 . S
Cd242 O251 2.356 . S
C243 O248 1.209 . S
C243 O250 1.226 . S
O244 Cd240 2.273 . S
O244 Cd242 2.411 . S
O244 C247 1.320 . S
O245 Cd242 2.333 . S
O245 C247 1.214 . S
O246 Cd242 2.352 . S
O246 C249 1.258 . S
C247 O244 1.320 . S
C247 O245 1.214 . S
O248 Cd240 2.277 . S
O248 C243 1.209 . S
C249 O246 1.258 . S
C249 O251 1.282 . S
O250 Cd242 2.277 . S
O250 C243 1.226 . S
O251 Cd242 2.356 . S
O251 C249 1.282 . S
C252 O253 1.306 . S
C252 O255 1.160 . S
O253 C252 1.306 . S
O253 Cd254 2.228 . S
Cd254 O253 2.228 . S
Cd254 O258 2.273 . S
Cd254 O262 2.277 . S
O255 C252 1.160 . S
O255 Cd256 2.203 . S
Cd256 O255 2.203 . S
Cd256 O258 2.411 . S
Cd256 O259 2.333 . S
Cd256 O260 2.352 . S
Cd256 O264 2.277 . S
Cd256 O265 2.356 . S
C257 O262 1.209 . S
C257 O264 1.226 . S
O258 Cd254 2.273 . S
O258 Cd256 2.411 . S
O258 C261 1.320 . S
O259 Cd256 2.333 . S
O259 C261 1.214 . S
O260 Cd256 2.352 . S
O260 C263 1.258 . S
C261 O258 1.320 . S
C261 O259 1.214 . S
O262 Cd254 2.277 . S
O262 C257 1.209 . S
C263 O260 1.258 . S
C263 O265 1.282 . S
O264 Cd256 2.277 . S
O264 C257 1.226 . S
O265 Cd256 2.356 . S
O265 C263 1.282 . S
C266 O267 1.306 . S
C266 O269 1.160 . S
O267 C266 1.306 . S
O267 Cd268 2.228 . S
Cd268 O267 2.228 . S
Cd268 O272 2.273 . S
Cd268 O276 2.277 . S
O269 C266 1.160 . S
O269 Cd270 2.203 . S
Cd270 O269 2.203 . S
Cd270 O272 2.411 . S
Cd270 O273 2.333 . S
Cd270 O274 2.352 . S
Cd270 O278 2.277 . S
Cd270 O279 2.356 . S
C271 O276 1.209 . S
C271 O278 1.226 . S
O272 Cd268 2.273 . S
O272 Cd270 2.411 . S
O272 C275 1.320 . S
O273 Cd270 2.333 . S
O273 C275 1.214 . S
O274 Cd270 2.352 . S
O274 C277 1.258 . S
C275 O272 1.320 . S
C275 O273 1.214 . S
O276 Cd268 2.277 . S
O276 C271 1.209 . S
C277 O274 1.258 . S
C277 O279 1.282 . S
O278 Cd270 2.277 . S
O278 C271 1.226 . S
O279 Cd270 2.356 . S
O279 C277 1.282 . S
C280 O281 1.306 . S
C280 O283 1.160 . S
O281 C280 1.306 . S
O281 Cd282 2.228 . S
Cd282 O281 2.228 . S
Cd282 O286 2.273 . S
Cd282 O290 2.277 . S
O283 C280 1.160 . S
O283 Cd284 2.203 . S
Cd284 O283 2.203 . S
Cd284 O286 2.411 . S
Cd284 O287 2.333 . S
Cd284 O288 2.352 . S
Cd284 O292 2.277 . S
Cd284 O293 2.356 . S
C285 O290 1.209 . S
C285 O292 1.226 . S
O286 Cd282 2.273 . S
O286 Cd284 2.411 . S
O286 C289 1.320 . S
O287 Cd284 2.333 . S
O287 C289 1.214 . S
O288 Cd284 2.352 . S
O288 C291 1.258 . S
C289 O286 1.320 . S
C289 O287 1.214 . S
O290 Cd282 2.277 . S
O290 C285 1.209 . S
C291 O288 1.258 . S
C291 O293 1.282 . S
O292 Cd284 2.277 . S
O292 C285 1.226 . S
O293 Cd284 2.356 . S
O293 C291 1.282 . S
C294 O295 1.306 . S
C294 O297 1.160 . S
O295 C294 1.306 . S
O295 Cd296 2.228 . S
Cd296 O295 2.228 . S
Cd296 O300 2.273 . S
Cd296 O304 2.277 . S
O297 C294 1.160 . S
O297 Cd298 2.203 . S
Cd298 O297 2.203 . S
Cd298 O300 2.411 . S
Cd298 O301 2.333 . S
Cd298 O302 2.352 . S
Cd298 O306 2.277 . S
Cd298 O307 2.356 . S
C299 O304 1.209 . S
C299 O306 1.226 . S
O300 Cd296 2.273 . S
O300 Cd298 2.411 . S
O300 C303 1.320 . S
O301 Cd298 2.333 . S
O301 C303 1.214 . S
O302 Cd298 2.352 . S
O302 C305 1.258 . S
C303 O300 1.320 . S
C303 O301 1.214 . S
O304 Cd296 2.277 . S
O304 C299 1.209 . S
C305 O302 1.258 . S
C305 O307 1.282 . S
O306 Cd298 2.277 . S
O306 C299 1.226 . S
O307 Cd298 2.356 . S
O307 C305 1.282 . S
C308 O309 1.306 . S
C308 O311 1.160 . S
O309 C308 1.306 . S
O309 Cd310 2.228 . S
Cd310 O309 2.228 . S
Cd310 O314 2.273 . S
Cd310 O318 2.277 . S
O311 C308 1.160 . S
O311 Cd312 2.203 . S
Cd312 O311 2.203 . S
Cd312 O314 2.411 . S
Cd312 O315 2.333 . S
Cd312 O316 2.352 . S
Cd312 O320 2.277 . S
Cd312 O321 2.356 . S
C313 O318 1.209 . S
C313 O320 1.226 . S
O314 Cd310 2.273 . S
O314 Cd312 2.411 . S
O314 C317 1.320 . S
O315 Cd312 2.333 . S
O315 C317 1.214 . S
O316 Cd312 2.352 . S
O316 C319 1.258 . S
C317 O314 1.320 . S
C317 O315 1.214 . S
O318 Cd310 2.277 . S
O318 C313 1.209 . S
C319 O316 1.258 . S
C319 O321 1.282 . S
O320 Cd312 2.277 . S
O320 C313 1.226 . S
O321 Cd312 2.356 . S
O321 C319 1.282 . S
C322 O323 1.306 . S
C322 O325 1.160 . S
O323 C322 1.306 . S
O323 Cd324 2.228 . S
Cd324 O323 2.228 . S
Cd324 O328 2.273 . S
Cd324 O332 2.277 . S
O325 C322 1.160 . S
O325 Cd326 2.203 . S
Cd326 O325 2.203 . S
Cd326 O328 2.411 . S
Cd326 O329 2.333 . S
Cd326 O330 2.352 . S
Cd326 O334 2.277 . S
Cd326 O335 2.356 . S
C327 O332 1.209 . S
C327 O334 1.226 . S
O328 Cd324 2.273 . S
O328 Cd326 2.411 . S
O328 C331 1.320 . S
O329 Cd326 2.333 . S
O329 C331 1.214 . S
O330 Cd326 2.352 . S
O330 C333 1.258 . S
C331 O328 1.320 . S
C331 O329 1.214 . S
O332 Cd324 2.277 . S
O332 C327 1.209 . S
C333 O330 1.258 . S
C333 O335 1.282 . S
O334 Cd326 2.277 . S
O334 C327 1.226 . S
O335 Cd326 2.356 . S
O335 C333 1.282 . S
H336 C344 0.950 . S
H337 C349 0.950 . S
H338 C346 0.950 . S
H339 C348 0.950 . S
H340 C350 0.950 . S
H341 C352 0.950 . S
H342 C354 0.950 . S
H343 C355 0.950 . S
C344 H336 0.950 . S
C344 C345 1.386 . S
C344 C346 1.391 . S
C345 C344 1.386 . S
C345 C349 1.393 . S
C346 H338 0.950 . S
C346 C344 1.391 . S
C346 C347 1.400 . S
C347 C346 1.400 . S
C347 C348 1.398 . S
C347 C353 1.491 . S
C348 H339 0.950 . S
C348 C347 1.398 . S
C348 C349 1.391 . S
C349 H337 0.950 . S
C349 C345 1.393 . S
C349 C348 1.391 . S
C350 H340 0.950 . S
C350 C351 1.386 . S
C350 C352 1.391 . S
C351 C350 1.386 . S
C351 C355 1.393 . S
C352 H341 0.950 . S
C352 C350 1.391 . S
C352 C353 1.400 . S
C353 C347 1.491 . S
C353 C352 1.400 . S
C353 C354 1.398 . S
C354 H342 0.950 . S
C354 C353 1.398 . S
C354 C355 1.391 . S
C355 H343 0.950 . S
C355 C351 1.393 . S
C355 C354 1.391 . S
H356 C364 0.950 . S
H357 C369 0.950 . S
H358 C366 0.950 . S
H359 C368 0.950 . S
H360 C370 0.950 . S
H361 C372 0.950 . S
H362 C374 0.950 . S
H363 C375 0.950 . S
C364 H356 0.950 . S
C364 C365 1.386 . S
C364 C366 1.391 . S
C365 C364 1.386 . S
C365 C369 1.393 . S
C366 H358 0.950 . S
C366 C364 1.391 . S
C366 C367 1.400 . S
C367 C366 1.400 . S
C367 C368 1.398 . S
C367 C373 1.491 . S
C368 H359 0.950 . S
C368 C367 1.398 . S
C368 C369 1.391 . S
C369 H357 0.950 . S
C369 C365 1.393 . S
C369 C368 1.391 . S
C370 H360 0.950 . S
C370 C371 1.386 . S
C370 C372 1.391 . S
C371 C370 1.386 . S
C371 C375 1.393 . S
C372 H361 0.950 . S
C372 C370 1.391 . S
C372 C373 1.400 . S
C373 C367 1.491 . S
C373 C372 1.400 . S
C373 C374 1.398 . S
C374 H362 0.950 . S
C374 C373 1.398 . S
C374 C375 1.391 . S
C375 H363 0.950 . S
C375 C371 1.393 . S
C375 C374 1.391 . S
H376 C384 0.950 . S
H377 C389 0.950 . S
H378 C386 0.950 . S
H379 C388 0.950 . S
H380 C390 0.950 . S
H381 C392 0.950 . S
H382 C394 0.950 . S
H383 C395 0.950 . S
C384 H376 0.950 . S
C384 C385 1.386 . S
C384 C386 1.391 . S
C385 C384 1.386 . S
C385 C389 1.393 . S
C386 H378 0.950 . S
C386 C384 1.391 . S
C386 C387 1.400 . S
C387 C386 1.400 . S
C387 C388 1.398 . S
C387 C393 1.491 . S
C388 H379 0.950 . S
C388 C387 1.398 . S
C388 C389 1.391 . S
C389 H377 0.950 . S
C389 C385 1.393 . S
C389 C388 1.391 . S
C390 H380 0.950 . S
C390 C391 1.386 . S
C390 C392 1.391 . S
C391 C390 1.386 . S
C391 C395 1.393 . S
C392 H381 0.950 . S
C392 C390 1.391 . S
C392 C393 1.400 . S
C393 C387 1.491 . S
C393 C392 1.400 . S
C393 C394 1.398 . S
C394 H382 0.950 . S
C394 C393 1.398 . S
C394 C395 1.391 . S
C395 H383 0.950 . S
C395 C391 1.393 . S
C395 C394 1.391 . S
H396 C404 0.950 . S
H397 C409 0.950 . S
H398 C406 0.950 . S
H399 C408 0.950 . S
H400 C410 0.950 . S
H401 C412 0.950 . S
H402 C414 0.950 . S
H403 C415 0.950 . S
C404 H396 0.950 . S
C404 C405 1.386 . S
C404 C406 1.391 . S
C405 C404 1.386 . S
C405 C409 1.393 . S
C406 H398 0.950 . S
C406 C404 1.391 . S
C406 C407 1.400 . S
C407 C406 1.400 . S
C407 C408 1.398 . S
C407 C413 1.491 . S
C408 H399 0.950 . S
C408 C407 1.398 . S
C408 C409 1.391 . S
C409 H397 0.950 . S
C409 C405 1.393 . S
C409 C408 1.391 . S
C410 H400 0.950 . S
C410 C411 1.386 . S
C410 C412 1.391 . S
C411 C410 1.386 . S
C411 C415 1.393 . S
C412 H401 0.950 . S
C412 C410 1.391 . S
C412 C413 1.400 . S
C413 C407 1.491 . S
C413 C412 1.400 . S
C413 C414 1.398 . S
C414 H402 0.950 . S
C414 C413 1.398 . S
C414 C415 1.391 . S
C415 H403 0.950 . S
C415 C411 1.393 . S
C415 C414 1.391 . S
H416 C424 0.950 . S
H417 C429 0.950 . S
H418 C426 0.950 . S
H419 C428 0.950 . S
H420 C430 0.950 . S
H421 C432 0.950 . S
H422 C434 0.950 . S
H423 C435 0.950 . S
C424 H416 0.950 . S
C424 C425 1.386 . S
C424 C426 1.391 . S
C425 C424 1.386 . S
C425 C429 1.393 . S
C426 H418 0.950 . S
C426 C424 1.391 . S
C426 C427 1.400 . S
C427 C426 1.400 . S
C427 C428 1.398 . S
C427 C433 1.491 . S
C428 H419 0.950 . S
C428 C427 1.398 . S
C428 C429 1.391 . S
C429 H417 0.950 . S
C429 C425 1.393 . S
C429 C428 1.391 . S
C430 H420 0.950 . S
C430 C431 1.386 . S
C430 C432 1.391 . S
C431 C430 1.386 . S
C431 C435 1.393 . S
C432 H421 0.950 . S
C432 C430 1.391 . S
C432 C433 1.400 . S
C433 C427 1.491 . S
C433 C432 1.400 . S
C433 C434 1.398 . S
C434 H422 0.950 . S
C434 C433 1.398 . S
C434 C435 1.391 . S
C435 H423 0.950 . S
C435 C431 1.393 . S
C435 C434 1.391 . S
H436 C444 0.950 . S
H437 C449 0.950 . S
H438 C446 0.950 . S
H439 C448 0.950 . S
H440 C450 0.950 . S
H441 C452 0.950 . S
H442 C454 0.950 . S
H443 C455 0.950 . S
C444 H436 0.950 . S
C444 C445 1.386 . S
C444 C446 1.391 . S
C445 C444 1.386 . S
C445 C449 1.393 . S
C446 H438 0.950 . S
C446 C444 1.391 . S
C446 C447 1.400 . S
C447 C446 1.400 . S
C447 C448 1.398 . S
C447 C453 1.491 . S
C448 H439 0.950 . S
C448 C447 1.398 . S
C448 C449 1.391 . S
C449 H437 0.950 . S
C449 C445 1.393 . S
C449 C448 1.391 . S
C450 H440 0.950 . S
C450 C451 1.386 . S
C450 C452 1.391 . S
C451 C450 1.386 . S
C451 C455 1.393 . S
C452 H441 0.950 . S
C452 C450 1.391 . S
C452 C453 1.400 . S
C453 C447 1.491 . S
C453 C452 1.400 . S
C453 C454 1.398 . S
C454 H442 0.950 . S
C454 C453 1.398 . S
C454 C455 1.391 . S
C455 H443 0.950 . S
C455 C451 1.393 . S
C455 C454 1.391 . S
H456 C464 0.950 . S
H457 C469 0.950 . S
H458 C466 0.950 . S
H459 C468 0.950 . S
H460 C470 0.950 . S
H461 C472 0.950 . S
H462 C474 0.950 . S
H463 C475 0.950 . S
C464 H456 0.950 . S
C464 C465 1.386 . S
C464 C466 1.391 . S
C465 C464 1.386 . S
C465 C469 1.393 . S
C466 H458 0.950 . S
C466 C464 1.391 . S
C466 C467 1.400 . S
C467 C466 1.400 . S
C467 C468 1.398 . S
C467 C473 1.491 . S
C468 H459 0.950 . S
C468 C467 1.398 . S
C468 C469 1.391 . S
C469 H457 0.950 . S
C469 C465 1.393 . S
C469 C468 1.391 . S
C470 H460 0.950 . S
C470 C471 1.386 . S
C470 C472 1.391 . S
C471 C470 1.386 . S
C471 C475 1.393 . S
C472 H461 0.950 . S
C472 C470 1.391 . S
C472 C473 1.400 . S
C473 C467 1.491 . S
C473 C472 1.400 . S
C473 C474 1.398 . S
C474 H462 0.950 . S
C474 C473 1.398 . S
C474 C475 1.391 . S
C475 H463 0.950 . S
C475 C471 1.393 . S
C475 C474 1.391 . S
H476 C484 0.950 . S
H477 C489 0.950 . S
H478 C486 0.950 . S
H479 C488 0.950 . S
H480 C490 0.950 . S
H481 C492 0.950 . S
H482 C494 0.950 . S
H483 C495 0.950 . S
C484 H476 0.950 . S
C484 C485 1.386 . S
C484 C486 1.391 . S
C485 C484 1.386 . S
C485 C489 1.393 . S
C486 H478 0.950 . S
C486 C484 1.391 . S
C486 C487 1.400 . S
C487 C486 1.400 . S
C487 C488 1.398 . S
C487 C493 1.491 . S
C488 H479 0.950 . S
C488 C487 1.398 . S
C488 C489 1.391 . S
C489 H477 0.950 . S
C489 C485 1.393 . S
C489 C488 1.391 . S
C490 H480 0.950 . S
C490 C491 1.386 . S
C490 C492 1.391 . S
C491 C490 1.386 . S
C491 C495 1.393 . S
C492 H481 0.950 . S
C492 C490 1.391 . S
C492 C493 1.400 . S
C493 C487 1.491 . S
C493 C492 1.400 . S
C493 C494 1.398 . S
C494 H482 0.950 . S
C494 C493 1.398 . S
C494 C495 1.391 . S
C495 H483 0.950 . S
C495 C491 1.393 . S
C495 C494 1.391 . S
H496 C504 0.950 . S
H497 C509 0.950 . S
H498 C506 0.950 . S
H499 C508 0.950 . S
H500 C510 0.950 . S
H501 C512 0.950 . S
H502 C514 0.950 . S
H503 C515 0.950 . S
C504 H496 0.950 . S
C504 C505 1.386 . S
C504 C506 1.391 . S
C505 C504 1.386 . S
C505 C509 1.393 . S
C506 H498 0.950 . S
C506 C504 1.391 . S
C506 C507 1.400 . S
C507 C506 1.400 . S
C507 C508 1.398 . S
C507 C513 1.491 . S
C508 H499 0.950 . S
C508 C507 1.398 . S
C508 C509 1.391 . S
C509 H497 0.950 . S
C509 C505 1.393 . S
C509 C508 1.391 . S
C510 H500 0.950 . S
C510 C511 1.386 . S
C510 C512 1.391 . S
C511 C510 1.386 . S
C511 C515 1.393 . S
C512 H501 0.950 . S
C512 C510 1.391 . S
C512 C513 1.400 . S
C513 C507 1.491 . S
C513 C512 1.400 . S
C513 C514 1.398 . S
C514 H502 0.950 . S
C514 C513 1.398 . S
C514 C515 1.391 . S
C515 H503 0.950 . S
C515 C511 1.393 . S
C515 C514 1.391 . S
H516 C524 0.950 . S
H517 C529 0.950 . S
H518 C526 0.950 . S
H519 C528 0.950 . S
H520 C530 0.950 . S
H521 C532 0.950 . S
H522 C534 0.950 . S
H523 C535 0.950 . S
C524 H516 0.950 . S
C524 C525 1.386 . S
C524 C526 1.391 . S
C525 C524 1.386 . S
C525 C529 1.393 . S
C526 H518 0.950 . S
C526 C524 1.391 . S
C526 C527 1.400 . S
C527 C526 1.400 . S
C527 C528 1.398 . S
C527 C533 1.491 . S
C528 H519 0.950 . S
C528 C527 1.398 . S
C528 C529 1.391 . S
C529 H517 0.950 . S
C529 C525 1.393 . S
C529 C528 1.391 . S
C530 H520 0.950 . S
C530 C531 1.386 . S
C530 C532 1.391 . S
C531 C530 1.386 . S
C531 C535 1.393 . S
C532 H521 0.950 . S
C532 C530 1.391 . S
C532 C533 1.400 . S
C533 C527 1.491 . S
C533 C532 1.400 . S
C533 C534 1.398 . S
C534 H522 0.950 . S
C534 C533 1.398 . S
C534 C535 1.391 . S
C535 H523 0.950 . S
C535 C531 1.393 . S
C535 C534 1.391 . S
H536 C544 0.950 . S
H537 C549 0.950 . S
H538 C546 0.950 . S
H539 C548 0.950 . S
H540 C550 0.950 . S
H541 C552 0.950 . S
H542 C554 0.950 . S
H543 C555 0.950 . S
C544 H536 0.950 . S
C544 C545 1.386 . S
C544 C546 1.391 . S
C545 C544 1.386 . S
C545 C549 1.393 . S
C546 H538 0.950 . S
C546 C544 1.391 . S
C546 C547 1.400 . S
C547 C546 1.400 . S
C547 C548 1.398 . S
C547 C553 1.491 . S
C548 H539 0.950 . S
C548 C547 1.398 . S
C548 C549 1.391 . S
C549 H537 0.950 . S
C549 C545 1.393 . S
C549 C548 1.391 . S
C550 H540 0.950 . S
C550 C551 1.386 . S
C550 C552 1.391 . S
C551 C550 1.386 . S
C551 C555 1.393 . S
C552 H541 0.950 . S
C552 C550 1.391 . S
C552 C553 1.400 . S
C553 C547 1.491 . S
C553 C552 1.400 . S
C553 C554 1.398 . S
C554 H542 0.950 . S
C554 C553 1.398 . S
C554 C555 1.391 . S
C555 H543 0.950 . S
C555 C551 1.393 . S
C555 C554 1.391 . S
H556 C564 0.950 . S
H557 C569 0.950 . S
H558 C566 0.950 . S
H559 C568 0.950 . S
H560 C570 0.950 . S
H561 C572 0.950 . S
H562 C574 0.950 . S
H563 C575 0.950 . S
C564 H556 0.950 . S
C564 C565 1.386 . S
C564 C566 1.391 . S
C565 C564 1.386 . S
C565 C569 1.393 . S
C566 H558 0.950 . S
C566 C564 1.391 . S
C566 C567 1.400 . S
C567 C566 1.400 . S
C567 C568 1.398 . S
C567 C573 1.491 . S
C568 H559 0.950 . S
C568 C567 1.398 . S
C568 C569 1.391 . S
C569 H557 0.950 . S
C569 C565 1.393 . S
C569 C568 1.391 . S
C570 H560 0.950 . S
C570 C571 1.386 . S
C570 C572 1.391 . S
C571 C570 1.386 . S
C571 C575 1.393 . S
C572 H561 0.950 . S
C572 C570 1.391 . S
C572 C573 1.400 . S
C573 C567 1.491 . S
C573 C572 1.400 . S
C573 C574 1.398 . S
C574 H562 0.950 . S
C574 C573 1.398 . S
C574 C575 1.391 . S
C575 H563 0.950 . S
C575 C571 1.393 . S
C575 C574 1.391 . S
H576 C584 0.958 . S
H577 C589 0.950 . S
H578 C586 0.950 . S
H579 C588 0.950 . S
H580 C590 0.958 . S
H581 C592 0.950 . S
H582 C594 0.950 . S
H583 C595 0.950 . S
C584 H576 0.958 . S
C584 C585 1.386 . S
C584 C586 1.391 1_556 S
C585 C584 1.386 . S
C585 C589 1.393 . S
C586 H578 0.950 . S
C586 C584 1.391 1_554 S
C586 C587 1.400 1_554 S
C587 C586 1.400 1_556 S
C587 C588 1.398 . S
C587 C593 1.491 1_556 S
C588 H579 0.950 . S
C588 C587 1.398 . S
C588 C589 1.391 . S
C589 H577 0.950 . S
C589 C585 1.393 . S
C589 C588 1.391 . S
C590 H580 0.958 . S
C590 C591 1.386 . S
C590 C592 1.391 1_554 S
C591 C590 1.386 . S
C591 C595 1.393 . S
C592 H581 0.950 . S
C592 C590 1.391 1_556 S
C592 C593 1.400 1_556 S
C593 C587 1.491 1_554 S
C593 C592 1.400 1_554 S
C593 C594 1.398 . S
C594 H582 0.950 . S
C594 C593 1.398 . S
C594 C595 1.391 . S
C595 H583 0.950 . S
C595 C591 1.393 . S
C595 C594 1.391 . S
H596 C604 0.950 . S
H597 C609 0.950 . S
H598 C606 0.950 . S
H599 C608 0.950 . S
H600 C610 0.950 . S
H601 C612 0.950 . S
H602 C614 0.950 . S
H603 C615 0.950 . S
C604 H596 0.950 . S
C604 C605 1.386 . S
C604 C606 1.391 . S
C605 C604 1.386 . S
C605 C609 1.393 . S
C606 H598 0.950 . S
C606 C604 1.391 . S
C606 C607 1.400 . S
C607 C606 1.400 . S
C607 C608 1.398 . S
C607 C613 1.491 . S
C608 H599 0.950 . S
C608 C607 1.398 . S
C608 C609 1.391 . S
C609 H597 0.950 . S
C609 C605 1.393 . S
C609 C608 1.391 . S
C610 H600 0.950 . S
C610 C611 1.386 . S
C610 C612 1.391 . S
C611 C610 1.386 . S
C611 C615 1.393 . S
C612 H601 0.950 . S
C612 C610 1.391 . S
C612 C613 1.400 . S
C613 C607 1.491 . S
C613 C612 1.400 . S
C613 C614 1.398 . S
C614 H602 0.950 . S
C614 C613 1.398 . S
C614 C615 1.391 . S
C615 H603 0.950 . S
C615 C611 1.393 . S
C615 C614 1.391 . S
H616 C624 0.950 . S
H617 C629 0.950 . S
H618 C626 0.950 . S
H619 C628 0.950 . S
H620 C630 0.950 . S
H621 C632 0.950 . S
H622 C634 0.950 . S
H623 C635 0.950 . S
C624 H616 0.950 . S
C624 C625 1.386 . S
C624 C626 1.391 . S
C625 C624 1.386 . S
C625 C629 1.393 . S
C626 H618 0.950 . S
C626 C624 1.391 . S
C626 C627 1.400 . S
C627 C626 1.400 . S
C627 C628 1.398 . S
C627 C633 1.491 1_554 S
C628 H619 0.950 . S
C628 C627 1.398 . S
C628 C629 1.391 . S
C629 H617 0.950 . S
C629 C625 1.393 . S
C629 C628 1.391 . S
C630 H620 0.950 . S
C630 C631 1.386 . S
C630 C632 1.391 . S
C631 C630 1.386 . S
C631 C635 1.393 . S
C632 H621 0.950 . S
C632 C630 1.391 . S
C632 C633 1.400 . S
C633 C627 1.491 1_556 S
C633 C632 1.400 . S
C633 C634 1.398 . S
C634 H622 0.950 . S
C634 C633 1.398 . S
C634 C635 1.391 . S
C635 H623 0.950 . S
C635 C631 1.393 . S
C635 C634 1.391 . S
H636 C644 0.950 . S
H637 C649 0.950 . S
H638 C646 0.950 . S
H639 C648 0.950 . S
H640 C650 0.950 . S
H641 C652 0.950 . S
H642 C654 0.950 . S
H643 C655 0.950 . S
C644 H636 0.950 . S
C644 C645 1.386 . S
C644 C646 1.391 . S
C645 C644 1.386 . S
C645 C649 1.393 . S
C646 H638 0.950 . S
C646 C644 1.391 . S
C646 C647 1.400 . S
C647 C646 1.400 . S
C647 C648 1.398 . S
C647 C653 1.491 . S
C648 H639 0.950 . S
C648 C647 1.398 . S
C648 C649 1.391 . S
C649 H637 0.950 . S
C649 C645 1.393 . S
C649 C648 1.391 . S
C650 H640 0.950 . S
C650 C651 1.386 . S
C650 C652 1.391 . S
C651 C650 1.386 . S
C651 C655 1.393 . S
C652 H641 0.950 . S
C652 C650 1.391 . S
C652 C653 1.400 . S
C653 C647 1.491 . S
C653 C652 1.400 . S
C653 C654 1.398 . S
C654 H642 0.950 . S
C654 C653 1.398 . S
C654 C655 1.391 . S
C655 H643 0.950 . S
C655 C651 1.393 . S
C655 C654 1.391 . S
H656 C664 0.950 . S
H657 C669 0.950 . S
H658 C666 0.950 . S
H659 C668 0.950 1_554 S
H660 C670 0.950 . S
H661 C672 0.950 . S
H662 C674 0.950 1_556 S
H663 C675 0.950 . S
C664 H656 0.950 . S
C664 C665 1.386 . S
C664 C666 1.391 . S
C665 C664 1.386 . S
C665 C669 1.393 . S
C666 H658 0.950 . S
C666 C664 1.391 . S
C666 C667 1.400 . S
C667 C666 1.400 . S
C667 C668 1.398 . S
C667 C673 1.491 1_556 S
C668 H659 0.950 1_556 S
C668 C667 1.398 . S
C668 C669 1.391 . S
C669 H657 0.950 . S
C669 C665 1.393 . S
C669 C668 1.391 . S
C670 H660 0.950 . S
C670 C671 1.386 . S
C670 C672 1.391 . S
C671 C670 1.386 . S
C671 C675 1.393 . S
C672 H661 0.950 . S
C672 C670 1.391 . S
C672 C673 1.400 . S
C673 C667 1.491 1_554 S
C673 C672 1.400 . S
C673 C674 1.398 . S
C674 H662 0.950 1_554 S
C674 C673 1.398 . S
C674 C675 1.391 . S
C675 H663 0.950 . S
C675 C671 1.393 . S
C675 C674 1.391 . S
H676 C684 0.950 . S
H677 C689 0.950 . S
H678 C686 0.950 . S
H679 C688 0.950 . S
H680 C690 0.950 . S
H681 C692 0.950 . S
H682 C694 0.950 . S
H683 C695 0.950 . S
C684 H676 0.950 . S
C684 C685 1.386 . S
C684 C686 1.391 . S
C685 C684 1.386 . S
C685 C689 1.393 . S
C686 H678 0.950 . S
C686 C684 1.391 . S
C686 C687 1.400 . S
C687 C686 1.400 . S
C687 C688 1.398 . S
C687 C693 1.491 . S
C688 H679 0.950 . S
C688 C687 1.398 . S
C688 C689 1.391 . S
C689 H677 0.950 . S
C689 C685 1.393 . S
C689 C688 1.391 . S
C690 H680 0.950 . S
C690 C691 1.386 . S
C690 C692 1.391 . S
C691 C690 1.386 . S
C691 C695 1.393 . S
C692 H681 0.950 . S
C692 C690 1.391 . S
C692 C693 1.400 . S
C693 C687 1.491 . S
C693 C692 1.400 . S
C693 C694 1.398 . S
C694 H682 0.950 . S
C694 C693 1.398 . S
C694 C695 1.391 . S
C695 H683 0.950 . S
C695 C691 1.393 . S
C695 C694 1.391 . S
H696 C704 0.950 . S
H697 C709 0.950 . S
H698 C706 0.950 . S
H699 C708 0.950 . S
H700 C710 0.950 . S
H701 C712 0.950 . S
H702 C714 0.950 . S
H703 C715 0.950 . S
C704 H696 0.950 . S
C704 C705 1.386 . S
C704 C706 1.391 . S
C705 C704 1.386 . S
C705 C709 1.393 . S
C706 H698 0.950 . S
C706 C704 1.391 . S
C706 C707 1.400 . S
C707 C706 1.400 . S
C707 C708 1.398 1_554 S
C707 C713 1.491 1_554 S
C708 H699 0.950 . S
C708 C707 1.398 1_556 S
C708 C709 1.391 1_556 S
C709 H697 0.950 . S
C709 C705 1.393 . S
C709 C708 1.391 1_554 S
C710 H700 0.950 . S
C710 C711 1.386 . S
C710 C712 1.391 . S
C711 C710 1.386 . S
C711 C715 1.393 . S
C712 H701 0.950 . S
C712 C710 1.391 . S
C712 C713 1.400 . S
C713 C707 1.491 1_556 S
C713 C712 1.400 . S
C713 C714 1.398 1_556 S
C714 H702 0.950 . S
C714 C713 1.398 1_554 S
C714 C715 1.391 1_554 S
C715 H703 0.950 . S
C715 C711 1.393 . S
C715 C714 1.391 1_556 S
H716 C724 0.950 . S
H717 C729 0.950 . S
H718 C726 0.950 . S
H719 C728 0.950 . S
H720 C730 0.950 . S
H721 C732 0.950 . S
H722 C734 0.950 . S
H723 C735 0.950 . S
C724 H716 0.950 . S
C724 C725 1.386 . S
C724 C726 1.391 . S
C725 C724 1.386 . S
C725 C729 1.393 . S
C726 H718 0.950 . S
C726 C724 1.391 . S
C726 C727 1.400 . S
C727 C726 1.400 . S
C727 C728 1.398 . S
C727 C733 1.491 . S
C728 H719 0.950 . S
C728 C727 1.398 . S
C728 C729 1.391 . S
C729 H717 0.950 . S
C729 C725 1.393 . S
C729 C728 1.391 . S
C730 H720 0.950 . S
C730 C731 1.386 . S
C730 C732 1.391 . S
C731 C730 1.386 . S
C731 C735 1.393 . S
C732 H721 0.950 . S
C732 C730 1.391 . S
C732 C733 1.400 . S
C733 C727 1.491 . S
C733 C732 1.400 . S
C733 C734 1.398 . S
C734 H722 0.950 . S
C734 C733 1.398 . S
C734 C735 1.391 . S
C735 H723 0.950 . S
C735 C731 1.393 . S
C735 C734 1.391 . S
H736 C744 0.950 . S
H737 C749 0.950 . S
H738 C746 0.950 . S
H739 C748 0.950 1_554 S
H740 C750 0.950 . S
H741 C752 0.950 . S
H742 C754 0.950 1_556 S
H743 C755 0.950 . S
C744 H736 0.950 . S
C744 C745 1.386 . S
C744 C746 1.391 . S
C745 C744 1.386 . S
C745 C749 1.393 . S
C746 H738 0.950 . S
C746 C744 1.391 . S
C746 C747 1.400 . S
C747 C746 1.400 . S
C747 C748 1.398 . S
C747 C753 1.491 1_556 S
C748 H739 0.950 1_556 S
C748 C747 1.398 . S
C748 C749 1.391 . S
C749 H737 0.950 . S
C749 C745 1.393 . S
C749 C748 1.391 . S
C750 H740 0.950 . S
C750 C751 1.386 . S
C750 C752 1.391 . S
C751 C750 1.386 . S
C751 C755 1.393 . S
C752 H741 0.950 . S
C752 C750 1.391 . S
C752 C753 1.400 . S
C753 C747 1.491 1_554 S
C753 C752 1.400 . S
C753 C754 1.398 . S
C754 H742 0.950 1_554 S
C754 C753 1.398 . S
C754 C755 1.391 . S
C755 H743 0.950 . S
C755 C751 1.393 . S
C755 C754 1.391 . S
H756 C764 0.950 . S
H757 C769 0.950 . S
H758 C766 0.950 . S
H759 C768 0.950 . S
H760 C770 0.950 . S
H761 C772 0.950 . S
H762 C774 0.950 . S
H763 C775 0.950 . S
C764 H756 0.950 . S
C764 C765 1.386 . S
C764 C766 1.391 . S
C765 C764 1.386 . S
C765 C769 1.393 . S
C766 H758 0.950 . S
C766 C764 1.391 . S
C766 C767 1.400 . S
C767 C766 1.400 . S
C767 C768 1.398 . S
C767 C773 1.491 . S
C768 H759 0.950 . S
C768 C767 1.398 . S
C768 C769 1.391 . S
C769 H757 0.950 . S
C769 C765 1.393 . S
C769 C768 1.391 . S
C770 H760 0.950 . S
C770 C771 1.386 . S
C770 C772 1.391 . S
C771 C770 1.386 . S
C771 C775 1.393 . S
C772 H761 0.950 . S
C772 C770 1.391 . S
C772 C773 1.400 . S
C773 C767 1.491 . S
C773 C772 1.400 . S
C773 C774 1.398 . S
C774 H762 0.950 . S
C774 C773 1.398 . S
C774 C775 1.391 . S
C775 H763 0.950 . S
C775 C771 1.393 . S
C775 C774 1.391 . S
H776 C784 0.950 . S
H777 C789 0.950 . S
H778 C786 0.950 . S
H779 C788 0.950 . S
H780 C790 0.950 . S
H781 C792 0.950 . S
H782 C794 0.950 . S
H783 C795 0.950 . S
C784 H776 0.950 . S
C784 C785 1.386 . S
C784 C786 1.391 . S
C785 C784 1.386 . S
C785 C789 1.393 . S
C786 H778 0.950 . S
C786 C784 1.391 . S
C786 C787 1.400 . S
C787 C786 1.400 . S
C787 C788 1.398 . S
C787 C793 1.491 1_556 S
C788 H779 0.950 . S
C788 C787 1.398 . S
C788 C789 1.391 . S
C789 H777 0.950 . S
C789 C785 1.393 . S
C789 C788 1.391 . S
C790 H780 0.950 . S
C790 C791 1.386 . S
C790 C792 1.391 . S
C791 C790 1.386 . S
C791 C795 1.393 . S
C792 H781 0.950 . S
C792 C790 1.391 . S
C792 C793 1.400 . S
C793 C787 1.491 1_554 S
C793 C792 1.400 . S
C793 C794 1.398 . S
C794 H782 0.950 . S
C794 C793 1.398 . S
C794 C795 1.391 . S
C795 H783 0.950 . S
C795 C791 1.393 . S
C795 C794 1.391 . S
H796 C804 0.950 . S
H797 C809 0.950 . S
H798 C806 0.950 . S
H799 C808 0.950 . S
H800 C810 0.950 . S
H801 C812 0.950 . S
H802 C814 0.950 . S
H803 C815 0.950 . S
C804 H796 0.950 . S
C804 C805 1.386 . S
C804 C806 1.391 . S
C805 C804 1.386 . S
C805 C809 1.393 . S
C806 H798 0.950 . S
C806 C804 1.391 . S
C806 C807 1.400 . S
C807 C806 1.400 . S
C807 C808 1.398 . S
C807 C813 1.491 . S
C808 H799 0.950 . S
C808 C807 1.398 . S
C808 C809 1.391 . S
C809 H797 0.950 . S
C809 C805 1.393 . S
C809 C808 1.391 . S
C810 H800 0.950 . S
C810 C811 1.386 . S
C810 C812 1.391 . S
C811 C810 1.386 . S
C811 C815 1.393 . S
C812 H801 0.950 . S
C812 C810 1.391 . S
C812 C813 1.400 . S
C813 C807 1.491 . S
C813 C812 1.400 . S
C813 C814 1.398 . S
C814 H802 0.950 . S
C814 C813 1.398 . S
C814 C815 1.391 . S
C815 H803 0.950 . S
C815 C811 1.393 . S
C815 C814 1.391 . S
H816 C824 0.950 . S
H817 C829 0.950 . S
H818 C826 0.950 . S
H819 C828 0.950 . S
H820 C830 0.950 . S
H821 C832 0.950 . S
H822 C834 0.950 . S
H823 C835 0.950 . S
C824 H816 0.950 . S
C824 C825 1.386 . S
C824 C826 1.391 . S
C825 C824 1.386 . S
C825 C829 1.393 . S
C826 H818 0.950 . S
C826 C824 1.391 . S
C826 C827 1.400 . S
C827 C826 1.400 . S
C827 C828 1.398 . S
C827 C833 1.491 . S
C828 H819 0.950 . S
C828 C827 1.398 . S
C828 C829 1.391 . S
C829 H817 0.950 . S
C829 C825 1.393 . S
C829 C828 1.391 . S
C830 H820 0.950 . S
C830 C831 1.386 . S
C830 C832 1.391 . S
C831 C830 1.386 . S
C831 C835 1.393 . S
C832 H821 0.950 . S
C832 C830 1.391 . S
C832 C833 1.400 . S
C833 C827 1.491 . S
C833 C832 1.400 . S
C833 C834 1.398 . S
C834 H822 0.950 . S
C834 C833 1.398 . S
C834 C835 1.391 . S
C835 H823 0.950 . S
C835 C831 1.393 . S
C835 C834 1.391 . S
H836 C844 0.950 . S
H837 C849 0.950 . S
H838 C846 0.950 . S
H839 C848 0.950 . S
H840 C850 0.950 . S
H841 C852 0.950 . S
H842 C854 0.950 . S
H843 C855 0.950 . S
C844 H836 0.950 . S
C844 C845 1.386 . S
C844 C846 1.391 . S
C845 C844 1.386 . S
C845 C849 1.393 . S
C846 H838 0.950 . S
C846 C844 1.391 . S
C846 C847 1.400 . S
C847 C846 1.400 . S
C847 C848 1.398 . S
C847 C853 1.491 1_455 S
C848 H839 0.950 . S
C848 C847 1.398 . S
C848 C849 1.391 . S
C849 H837 0.950 . S
C849 C845 1.393 . S
C849 C848 1.391 . S
C850 H840 0.950 . S
C850 C851 1.386 . S
C850 C852 1.391 . S
C851 C850 1.386 . S
C851 C855 1.393 . S
C852 H841 0.950 . S
C852 C850 1.391 . S
C852 C853 1.400 . S
C853 C847 1.491 1_655 S
C853 C852 1.400 . S
C853 C854 1.398 . S
C854 H842 0.950 . S
C854 C853 1.398 . S
C854 C855 1.391 . S
C855 H843 0.950 . S
C855 C851 1.393 . S
C855 C854 1.391 . S
H856 C864 0.950 . S
H857 C869 0.950 . S
H858 C866 0.950 . S
H859 C868 0.950 . S
H860 C870 0.950 . S
H861 C872 0.950 . S
H862 C874 0.950 . S
H863 C875 0.950 . S
C864 H856 0.950 . S
C864 C865 1.386 . S
C864 C866 1.391 . S
C865 C864 1.386 . S
C865 C869 1.393 . S
C866 H858 0.950 . S
C866 C864 1.391 . S
C866 C867 1.400 . S
C867 C866 1.400 . S
C867 C868 1.398 . S
C867 C873 1.491 1_565 S
C868 H859 0.950 . S
C868 C867 1.398 . S
C868 C869 1.391 . S
C869 H857 0.950 . S
C869 C865 1.393 . S
C869 C868 1.391 . S
C870 H860 0.950 . S
C870 C871 1.386 . S
C870 C872 1.391 . S
C871 C870 1.386 . S
C871 C875 1.393 . S
C872 H861 0.950 . S
C872 C870 1.391 . S
C872 C873 1.400 . S
C873 C867 1.491 1_545 S
C873 C872 1.400 . S
C873 C874 1.398 . S
C874 H862 0.950 . S
C874 C873 1.398 . S
C874 C875 1.391 . S
C875 H863 0.950 . S
C875 C871 1.393 . S
C875 C874 1.391 . S
H876 C884 0.950 . S
H877 C889 0.950 . S
H878 C886 0.950 . S
H879 C888 0.950 . S
H880 C890 0.950 . S
H881 C892 0.950 . S
H882 C894 0.950 . S
H883 C895 0.950 . S
C884 H876 0.950 . S
C884 C885 1.386 . S
C884 C886 1.391 . S
C885 C884 1.386 . S
C885 C889 1.393 . S
C886 H878 0.950 . S
C886 C884 1.391 . S
C886 C887 1.400 . S
C887 C886 1.400 . S
C887 C888 1.398 . S
C887 C893 1.491 . S
C888 H879 0.950 . S
C888 C887 1.398 . S
C888 C889 1.391 . S
C889 H877 0.950 . S
C889 C885 1.393 . S
C889 C888 1.391 . S
C890 H880 0.950 . S
C890 C891 1.386 . S
C890 C892 1.391 . S
C891 C890 1.386 . S
C891 C895 1.393 . S
C892 H881 0.950 . S
C892 C890 1.391 . S
C892 C893 1.400 . S
C893 C887 1.491 . S
C893 C892 1.400 . S
C893 C894 1.398 . S
C894 H882 0.950 . S
C894 C893 1.398 . S
C894 C895 1.391 . S
C895 H883 0.950 . S
C895 C891 1.393 . S
C895 C894 1.391 . S
H896 C904 0.950 . S
H897 C909 0.950 . S
H898 C906 0.950 . S
H899 C908 0.950 . S
H900 C910 0.950 . S
H901 C912 0.950 . S
H902 C914 0.950 . S
H903 C915 0.950 . S
C904 H896 0.950 . S
C904 C905 1.386 . S
C904 C906 1.391 . S
C905 C904 1.386 . S
C905 C909 1.393 . S
C906 H898 0.950 . S
C906 C904 1.391 . S
C906 C907 1.400 . S
C907 C906 1.400 . S
C907 C908 1.398 . S
C907 C913 1.491 1_655 S
C908 H899 0.950 . S
C908 C907 1.398 . S
C908 C909 1.391 . S
C909 H897 0.950 . S
C909 C905 1.393 . S
C909 C908 1.391 . S
C910 H900 0.950 . S
C910 C911 1.386 . S
C910 C912 1.391 . S
C911 C910 1.386 . S
C911 C915 1.393 . S
C912 H901 0.950 . S
C912 C910 1.391 . S
C912 C913 1.400 . S
C913 C907 1.491 1_455 S
C913 C912 1.400 . S
C913 C914 1.398 . S
C914 H902 0.950 . S
C914 C913 1.398 . S
C914 C915 1.391 . S
C915 H903 0.950 . S
C915 C911 1.393 . S
C915 C914 1.391 . S
H916 C924 0.950 . S
H917 C929 0.950 . S
H918 C926 0.950 . S
H919 C928 0.950 . S
H920 C930 0.950 . S
H921 C932 0.950 . S
H922 C934 0.950 . S
H923 C935 0.950 . S
C924 H916 0.950 . S
C924 C925 1.386 . S
C924 C926 1.391 . S
C925 C924 1.386 . S
C925 C929 1.393 . S
C926 H918 0.950 . S
C926 C924 1.391 . S
C926 C927 1.400 . S
C927 C926 1.400 . S
C927 C928 1.398 . S
C927 C933 1.491 1_545 S
C928 H919 0.950 . S
C928 C927 1.398 . S
C928 C929 1.391 . S
C929 H917 0.950 . S
C929 C925 1.393 . S
C929 C928 1.391 . S
C930 H920 0.950 . S
C930 C931 1.386 . S
C930 C932 1.391 . S
C931 C930 1.386 . S
C931 C935 1.393 . S
C932 H921 0.950 . S
C932 C930 1.391 . S
C932 C933 1.400 . S
C933 C927 1.491 1_565 S
C933 C932 1.400 . S
C933 C934 1.398 . S
C934 H922 0.950 . S
C934 C933 1.398 . S
C934 C935 1.391 . S
C935 H923 0.950 . S
C935 C931 1.393 . S
C935 C934 1.391 . S
H936 C944 0.950 . S
H937 C949 0.950 . S
H938 C946 0.950 . S
H939 C948 0.950 . S
H940 C950 0.950 . S
H941 C952 0.950 . S
H942 C954 0.950 . S
H943 C955 0.950 . S
C944 H936 0.950 . S
C944 C945 1.386 . S
C944 C946 1.391 . S
C945 C944 1.386 . S
C945 C949 1.393 . S
C946 H938 0.950 . S
C946 C944 1.391 . S
C946 C947 1.400 . S
C947 C946 1.400 . S
C947 C948 1.398 . S
C947 C953 1.491 . S
C948 H939 0.950 . S
C948 C947 1.398 . S
C948 C949 1.391 . S
C949 H937 0.950 . S
C949 C945 1.393 . S
C949 C948 1.391 . S
C950 H940 0.950 . S
C950 C951 1.386 . S
C950 C952 1.391 . S
C951 C950 1.386 . S
C951 C955 1.393 . S
C952 H941 0.950 . S
C952 C950 1.391 . S
C952 C953 1.400 . S
C953 C947 1.491 . S
C953 C952 1.400 . S
C953 C954 1.398 . S
C954 H942 0.950 . S
C954 C953 1.398 . S
C954 C955 1.391 . S
C955 H943 0.950 . S
C955 C951 1.393 . S
C955 C954 1.391 . S
H956 C964 0.950 . S
H957 C969 0.950 . S
H958 C966 0.950 . S
H959 C968 0.950 . S
H960 C970 0.950 . S
H961 C972 0.950 . S
H962 C974 0.950 . S
H963 C975 0.950 . S
C964 H956 0.950 . S
C964 C965 1.386 . S
C964 C966 1.391 . S
C965 C964 1.386 . S
C965 C969 1.393 . S
C966 H958 0.950 . S
C966 C964 1.391 . S
C966 C967 1.400 . S
C967 C966 1.400 . S
C967 C968 1.398 . S
C967 C973 1.491 1_655 S
C968 H959 0.950 . S
C968 C967 1.398 . S
C968 C969 1.391 . S
C969 H957 0.950 . S
C969 C965 1.393 . S
C969 C968 1.391 . S
C970 H960 0.950 . S
C970 C971 1.386 . S
C970 C972 1.391 . S
C971 C970 1.386 . S
C971 C975 1.393 . S
C972 H961 0.950 . S
C972 C970 1.391 . S
C972 C973 1.400 . S
C973 C967 1.491 1_455 S
C973 C972 1.400 . S
C973 C974 1.398 . S
C974 H962 0.950 . S
C974 C973 1.398 . S
C974 C975 1.391 . S
C975 H963 0.950 . S
C975 C971 1.393 . S
C975 C974 1.391 . S
H976 C984 0.950 . S
H977 C989 0.950 . S
H978 C986 0.950 . S
H979 C988 0.950 . S
H980 C990 0.950 . S
H981 C992 0.950 . S
H982 C994 0.950 . S
H983 C995 0.950 . S
C984 H976 0.950 . S
C984 C985 1.386 . S
C984 C986 1.391 . S
C985 C984 1.386 . S
C985 C989 1.393 . S
C986 H978 0.950 . S
C986 C984 1.391 . S
C986 C987 1.400 . S
C987 C986 1.400 . S
C987 C988 1.398 . S
C987 C993 1.491 1_545 S
C988 H979 0.950 . S
C988 C987 1.398 . S
C988 C989 1.391 . S
C989 H977 0.950 . S
C989 C985 1.393 . S
C989 C988 1.391 . S
C990 H980 0.950 . S
C990 C991 1.386 . S
C990 C992 1.391 . S
C991 C990 1.386 . S
C991 C995 1.393 . S
C992 H981 0.950 . S
C992 C990 1.391 . S
C992 C993 1.400 . S
C993 C987 1.491 1_565 S
C993 C992 1.400 . S
C993 C994 1.398 . S
C994 H982 0.950 . S
C994 C993 1.398 . S
C994 C995 1.391 . S
C995 H983 0.950 . S
C995 C991 1.393 . S
C995 C994 1.391 . S
H996 C1004 0.950 . S
H997 C1009 0.950 . S
H998 C1006 0.950 . S
H999 C1008 0.950 . S
H1000 C1010 0.950 . S
H1001 C1012 0.950 . S
H1002 C1014 0.950 . S
H1003 C1015 0.950 . S
C1004 H996 0.950 . S
C1004 C1005 1.386 . S
C1004 C1006 1.391 . S
C1005 C1004 1.386 . S
C1005 C1009 1.393 . S
C1006 H998 0.950 . S
C1006 C1004 1.391 . S
C1006 C1007 1.400 . S
C1007 C1006 1.400 . S
C1007 C1008 1.398 . S
C1007 C1013 1.491 . S
C1008 H999 0.950 . S
C1008 C1007 1.398 . S
C1008 C1009 1.391 . S
C1009 H997 0.950 . S
C1009 C1005 1.393 . S
C1009 C1008 1.391 . S
C1010 H1000 0.950 . S
C1010 C1011 1.386 . S
C1010 C1012 1.391 . S
C1011 C1010 1.386 . S
C1011 C1015 1.393 . S
C1012 H1001 0.950 . S
C1012 C1010 1.391 . S
C1012 C1013 1.400 . S
C1013 C1007 1.491 . S
C1013 C1012 1.400 . S
C1013 C1014 1.398 . S
C1014 H1002 0.950 . S
C1014 C1013 1.398 . S
C1014 C1015 1.391 . S
C1015 H1003 0.950 . S
C1015 C1011 1.393 . S
C1015 C1014 1.391 . S
H1016 C1024 0.950 . S
H1017 C1029 0.950 . S
H1018 C1026 0.950 . S
H1019 C1028 0.950 . S
H1020 C1030 0.950 . S
H1021 C1032 0.950 . S
H1022 C1034 0.950 . S
H1023 C1035 0.950 . S
C1024 H1016 0.950 . S
C1024 C1025 1.386 . S
C1024 C1026 1.391 . S
C1025 C1024 1.386 . S
C1025 C1029 1.393 . S
C1026 H1018 0.950 . S
C1026 C1024 1.391 . S
C1026 C1027 1.400 . S
C1027 C1026 1.400 . S
C1027 C1028 1.398 . S
C1027 C1033 1.491 1_455 S
C1028 H1019 0.950 . S
C1028 C1027 1.398 . S
C1028 C1029 1.391 . S
C1029 H1017 0.950 . S
C1029 C1025 1.393 . S
C1029 C1028 1.391 . S
C1030 H1020 0.950 . S
C1030 C1031 1.386 . S
C1030 C1032 1.391 . S
C1031 C1030 1.386 . S
C1031 C1035 1.393 . S
C1032 H1021 0.950 . S
C1032 C1030 1.391 . S
C1032 C1033 1.400 . S
C1033 C1027 1.491 1_655 S
C1033 C1032 1.400 . S
C1033 C1034 1.398 . S
C1034 H1022 0.950 . S
C1034 C1033 1.398 . S
C1034 C1035 1.391 . S
C1035 H1023 0.950 . S
C1035 C1031 1.393 . S
C1035 C1034 1.391 . S
H1036 C1044 0.950 . S
H1037 C1049 0.950 . S
H1038 C1046 0.950 . S
H1039 C1048 0.950 . S
H1040 C1050 0.950 . S
H1041 C1052 0.950 . S
H1042 C1054 0.950 . S
H1043 C1055 0.950 . S
C1044 H1036 0.950 . S
C1044 C1045 1.386 . S
C1044 C1046 1.391 . S
C1045 C1044 1.386 . S
C1045 C1049 1.393 . S
C1046 H1038 0.950 . S
C1046 C1044 1.391 . S
C1046 C1047 1.400 . S
C1047 C1046 1.400 . S
C1047 C1048 1.398 . S
C1047 C1053 1.491 1_565 S
C1048 H1039 0.950 . S
C1048 C1047 1.398 . S
C1048 C1049 1.391 . S
C1049 H1037 0.950 . S
C1049 C1045 1.393 . S
C1049 C1048 1.391 . S
C1050 H1040 0.950 . S
C1050 C1051 1.386 . S
C1050 C1052 1.391 . S
C1051 C1050 1.386 . S
C1051 C1055 1.393 . S
C1052 H1041 0.950 . S
C1052 C1050 1.391 . S
C1052 C1053 1.400 . S
C1053 C1047 1.491 1_545 S
C1053 C1052 1.400 . S
C1053 C1054 1.398 . S
C1054 H1042 0.950 . S
C1054 C1053 1.398 . S
C1054 C1055 1.391 . S
C1055 H1043 0.950 . S
C1055 C1051 1.393 . S
C1055 C1054 1.391 . S
H1056 C1064 0.950 . S
H1057 C1069 0.950 1_554 S
H1058 C1066 0.950 . S
H1059 C1068 0.950 . S
H1060 C1070 0.950 . S
H1061 C1072 0.950 . S
H1062 C1074 0.950 . S
H1063 C1075 0.950 1_556 S
C1064 H1056 0.950 . S
C1064 C1065 1.386 . S
C1064 C1066 1.391 . S
C1065 C1064 1.386 . S
C1065 C1069 1.393 . S
C1066 H1058 0.950 . S
C1066 C1064 1.391 . S
C1066 C1067 1.400 . S
C1067 C1066 1.400 . S
C1067 C1068 1.398 1_556 S
C1067 C1073 1.491 1_556 S
C1068 H1059 0.950 . S
C1068 C1067 1.398 1_554 S
C1068 C1069 1.391 1_554 S
C1069 H1057 0.950 1_556 S
C1069 C1065 1.393 . S
C1069 C1068 1.391 1_556 S
C1070 H1060 0.950 . S
C1070 C1071 1.386 . S
C1070 C1072 1.391 . S
C1071 C1070 1.386 . S
C1071 C1075 1.393 . S
C1072 H1061 0.950 . S
C1072 C1070 1.391 . S
C1072 C1073 1.400 . S
C1073 C1067 1.491 1_554 S
C1073 C1072 1.400 . S
C1073 C1074 1.398 1_554 S
C1074 H1062 0.950 . S
C1074 C1073 1.398 1_556 S
C1074 C1075 1.391 1_556 S
C1075 H1063 0.950 1_554 S
C1075 C1071 1.393 . S
C1075 C1074 1.391 1_554 S
H1076 C1084 0.950 . S
H1077 C1089 0.950 . S
H1078 C1086 0.950 . S
H1079 C1088 0.950 . S
H1080 C1090 0.950 . S
H1081 C1092 0.950 . S
H1082 C1094 0.950 . S
H1083 C1095 0.950 . S
C1084 H1076 0.950 . S
C1084 C1085 1.386 . S
C1084 C1086 1.391 . S
C1085 C1084 1.386 . S
C1085 C1089 1.393 . S
C1086 H1078 0.950 . S
C1086 C1084 1.391 . S
C1086 C1087 1.400 . S
C1087 C1086 1.400 . S
C1087 C1088 1.398 . S
C1087 C1093 1.491 . S
C1088 H1079 0.950 . S
C1088 C1087 1.398 . S
C1088 C1089 1.391 . S
C1089 H1077 0.950 . S
C1089 C1085 1.393 . S
C1089 C1088 1.391 . S
C1090 H1080 0.950 . S
C1090 C1091 1.386 . S
C1090 C1092 1.391 . S
C1091 C1090 1.386 . S
C1091 C1095 1.393 . S
C1092 H1081 0.950 . S
C1092 C1090 1.391 . S
C1092 C1093 1.400 . S
C1093 C1087 1.491 . S
C1093 C1092 1.400 . S
C1093 C1094 1.398 . S
C1094 H1082 0.950 . S
C1094 C1093 1.398 . S
C1094 C1095 1.391 . S
C1095 H1083 0.950 . S
C1095 C1091 1.393 . S
C1095 C1094 1.391 . S
H1096 C1104 0.950 . S
H1097 C1109 0.950 1_554 S
H1098 C1106 0.950 . S
H1099 C1108 0.950 . S
H1100 C1110 0.950 . S
H1101 C1112 0.950 . S
H1102 C1114 0.950 . S
H1103 C1115 0.950 1_556 S
C1104 H1096 0.950 . S
C1104 C1105 1.386 . S
C1104 C1106 1.391 . S
C1105 C1104 1.386 . S
C1105 C1109 1.393 . S
C1106 H1098 0.950 . S
C1106 C1104 1.391 . S
C1106 C1107 1.400 . S
C1107 C1106 1.400 . S
C1107 C1108 1.398 1_556 S
C1107 C1113 1.491 1_556 S
C1108 H1099 0.950 . S
C1108 C1107 1.398 1_554 S
C1108 C1109 1.391 1_554 S
C1109 H1097 0.950 1_556 S
C1109 C1105 1.393 . S
C1109 C1108 1.391 1_556 S
C1110 H1100 0.950 . S
C1110 C1111 1.386 . S
C1110 C1112 1.391 . S
C1111 C1110 1.386 . S
C1111 C1115 1.393 . S
C1112 H1101 0.950 . S
C1112 C1110 1.391 . S
C1112 C1113 1.400 . S
C1113 C1107 1.491 1_554 S
C1113 C1112 1.400 . S
C1113 C1114 1.398 1_554 S
C1114 H1102 0.950 . S
C1114 C1113 1.398 1_556 S
C1114 C1115 1.391 1_556 S
C1115 H1103 0.950 1_554 S
C1115 C1111 1.393 . S
C1115 C1114 1.391 1_554 S
H1116 C1124 0.950 . S
H1117 C1129 0.950 . S
H1118 C1126 0.950 . S
H1119 C1128 0.950 . S
H1120 C1130 0.950 . S
H1121 C1132 0.950 . S
H1122 C1134 0.950 . S
H1123 C1135 0.950 . S
C1124 H1116 0.950 . S
C1124 C1125 1.386 . S
C1124 C1126 1.391 . S
C1125 C1124 1.386 . S
C1125 C1129 1.393 . S
C1126 H1118 0.950 . S
C1126 C1124 1.391 . S
C1126 C1127 1.400 . S
C1127 C1126 1.400 . S
C1127 C1128 1.398 . S
C1127 C1133 1.491 . S
C1128 H1119 0.950 . S
C1128 C1127 1.398 . S
C1128 C1129 1.391 . S
C1129 H1117 0.950 . S
C1129 C1125 1.393 . S
C1129 C1128 1.391 . S
C1130 H1120 0.950 . S
C1130 C1131 1.386 . S
C1130 C1132 1.391 . S
C1131 C1130 1.386 . S
C1131 C1135 1.393 . S
C1132 H1121 0.950 . S
C1132 C1130 1.391 . S
C1132 C1133 1.400 . S
C1133 C1127 1.491 . S
C1133 C1132 1.400 . S
C1133 C1134 1.398 . S
C1134 H1122 0.950 . S
C1134 C1133 1.398 . S
C1134 C1135 1.391 . S
C1135 H1123 0.950 . S
C1135 C1131 1.393 . S
C1135 C1134 1.391 . S
H1136 C1144 0.950 . S
H1137 C1149 0.950 . S
H1138 C1146 0.950 1_554 S
H1139 C1148 0.950 . S
H1140 C1150 0.950 . S
H1141 C1152 0.950 1_556 S
H1142 C1154 0.950 . S
H1143 C1155 0.950 . S
C1144 H1136 0.950 . S
C1144 C1145 1.386 . S
C1144 C1146 1.391 . S
C1145 C1144 1.386 . S
C1145 C1149 1.393 . S
C1146 H1138 0.950 1_556 S
C1146 C1144 1.391 . S
C1146 C1147 1.400 . S
C1147 C1146 1.400 . S
C1147 C1148 1.398 . S
C1147 C1153 1.491 1_556 S
C1148 H1139 0.950 . S
C1148 C1147 1.398 . S
C1148 C1149 1.391 . S
C1149 H1137 0.950 . S
C1149 C1145 1.393 . S
C1149 C1148 1.391 . S
C1150 H1140 0.950 . S
C1150 C1151 1.386 . S
C1150 C1152 1.391 . S
C1151 C1150 1.386 . S
C1151 C1155 1.393 . S
C1152 H1141 0.950 1_554 S
C1152 C1150 1.391 . S
C1152 C1153 1.400 . S
C1153 C1147 1.491 1_554 S
C1153 C1152 1.400 . S
C1153 C1154 1.398 . S
C1154 H1142 0.950 . S
C1154 C1153 1.398 . S
C1154 C1155 1.391 . S
C1155 H1143 0.950 . S
C1155 C1151 1.393 . S
C1155 C1154 1.391 . S
H1156 C1164 0.950 . S
H1157 C1169 0.950 . S
H1158 C1166 0.950 . S
H1159 C1168 0.950 . S
H1160 C1170 0.950 . S
H1161 C1172 0.950 . S
H1162 C1174 0.950 . S
H1163 C1175 0.950 . S
C1164 H1156 0.950 . S
C1164 C1165 1.386 . S
C1164 C1166 1.391 . S
C1165 C1164 1.386 . S
C1165 C1169 1.393 . S
C1166 H1158 0.950 . S
C1166 C1164 1.391 . S
C1166 C1167 1.400 . S
C1167 C1166 1.400 . S
C1167 C1168 1.398 . S
C1167 C1173 1.491 . S
C1168 H1159 0.950 . S
C1168 C1167 1.398 . S
C1168 C1169 1.391 . S
C1169 H1157 0.950 . S
C1169 C1165 1.393 . S
C1169 C1168 1.391 . S
C1170 H1160 0.950 . S
C1170 C1171 1.386 . S
C1170 C1172 1.391 . S
C1171 C1170 1.386 . S
C1171 C1175 1.393 . S
C1172 H1161 0.950 . S
C1172 C1170 1.391 . S
C1172 C1173 1.400 . S
C1173 C1167 1.491 . S
C1173 C1172 1.400 . S
C1173 C1174 1.398 . S
C1174 H1162 0.950 . S
C1174 C1173 1.398 . S
C1174 C1175 1.391 . S
C1175 H1163 0.950 . S
C1175 C1171 1.393 . S
C1175 C1174 1.391 . S
H1176 C1184 0.950 . S
H1177 C1189 0.950 . S
H1178 C1186 0.950 . S
H1179 C1188 0.950 1_556 S
H1180 C1190 0.950 . S
H1181 C1192 0.950 . S
H1182 C1194 0.950 1_554 S
H1183 C1195 0.950 . S
C1184 H1176 0.950 . S
C1184 C1185 1.386 . S
C1184 C1186 1.391 . S
C1185 C1184 1.386 . S
C1185 C1189 1.393 . S
C1186 H1178 0.950 . S
C1186 C1184 1.391 . S
C1186 C1187 1.400 . S
C1187 C1186 1.400 . S
C1187 C1188 1.398 . S
C1187 C1193 1.491 1_554 S
C1188 H1179 0.950 1_554 S
C1188 C1187 1.398 . S
C1188 C1189 1.391 . S
C1189 H1177 0.950 . S
C1189 C1185 1.393 . S
C1189 C1188 1.391 . S
C1190 H1180 0.950 . S
C1190 C1191 1.386 . S
C1190 C1192 1.391 . S
C1191 C1190 1.386 . S
C1191 C1195 1.393 . S
C1192 H1181 0.950 . S
C1192 C1190 1.391 . S
C1192 C1193 1.400 . S
C1193 C1187 1.491 1_556 S
C1193 C1192 1.400 . S
C1193 C1194 1.398 . S
C1194 H1182 0.950 1_556 S
C1194 C1193 1.398 . S
C1194 C1195 1.391 . S
C1195 H1183 0.950 . S
C1195 C1191 1.393 . S
C1195 C1194 1.391 . S
H1196 C1204 0.950 . S
H1197 C1209 0.950 . S
H1198 C1206 0.950 . S
H1199 C1208 0.950 . S
H1200 C1210 0.950 . S
H1201 C1212 0.950 . S
H1202 C1214 0.950 . S
H1203 C1215 0.950 . S
C1204 H1196 0.950 . S
C1204 C1205 1.386 . S
C1204 C1206 1.391 . S
C1205 C1204 1.386 . S
C1205 C1209 1.393 . S
C1206 H1198 0.950 . S
C1206 C1204 1.391 . S
C1206 C1207 1.400 . S
C1207 C1206 1.400 . S
C1207 C1208 1.398 . S
C1207 C1213 1.491 . S
C1208 H1199 0.950 . S
C1208 C1207 1.398 . S
C1208 C1209 1.391 . S
C1209 H1197 0.950 . S
C1209 C1205 1.393 . S
C1209 C1208 1.391 . S
C1210 H1200 0.950 . S
C1210 C1211 1.386 . S
C1210 C1212 1.391 . S
C1211 C1210 1.386 . S
C1211 C1215 1.393 . S
C1212 H1201 0.950 . S
C1212 C1210 1.391 . S
C1212 C1213 1.400 . S
C1213 C1207 1.491 . S
C1213 C1212 1.400 . S
C1213 C1214 1.398 . S
C1214 H1202 0.950 . S
C1214 C1213 1.398 . S
C1214 C1215 1.391 . S
C1215 H1203 0.950 . S
C1215 C1211 1.393 . S
C1215 C1214 1.391 . S
H1216 C1224 0.950 . S
H1217 C1229 0.950 1_556 S
H1218 C1226 0.950 . S
H1219 C1228 0.950 . S
H1220 C1230 0.950 . S
H1221 C1232 0.950 . S
H1222 C1234 0.950 . S
H1223 C1235 0.950 1_554 S
C1224 H1216 0.950 . S
C1224 C1225 1.386 . S
C1224 C1226 1.391 . S
C1225 C1224 1.386 . S
C1225 C1229 1.393 . S
C1226 H1218 0.950 . S
C1226 C1224 1.391 . S
C1226 C1227 1.400 . S
C1227 C1226 1.400 . S
C1227 C1228 1.398 1_554 S
C1227 C1233 1.491 1_554 S
C1228 H1219 0.950 . S
C1228 C1227 1.398 1_556 S
C1228 C1229 1.391 1_556 S
C1229 H1217 0.950 1_554 S
C1229 C1225 1.393 . S
C1229 C1228 1.391 1_554 S
C1230 H1220 0.950 . S
C1230 C1231 1.386 . S
C1230 C1232 1.391 . S
C1231 C1230 1.386 . S
C1231 C1235 1.393 . S
C1232 H1221 0.950 . S
C1232 C1230 1.391 . S
C1232 C1233 1.400 . S
C1233 C1227 1.491 1_556 S
C1233 C1232 1.400 . S
C1233 C1234 1.398 1_556 S
C1234 H1222 0.950 . S
C1234 C1233 1.398 1_554 S
C1234 C1235 1.391 1_554 S
C1235 H1223 0.950 1_556 S
C1235 C1231 1.393 . S
C1235 C1234 1.391 1_556 S
H1236 C1244 0.950 . S
H1237 C1249 0.950 . S
H1238 C1246 0.950 . S
H1239 C1248 0.950 . S
H1240 C1250 0.950 . S
H1241 C1252 0.950 . S
H1242 C1254 0.950 . S
H1243 C1255 0.950 . S
C1244 H1236 0.950 . S
C1244 C1245 1.386 . S
C1244 C1246 1.391 . S
C1245 C1244 1.386 . S
C1245 C1249 1.393 . S
C1246 H1238 0.950 . S
C1246 C1244 1.391 . S
C1246 C1247 1.400 . S
C1247 C1246 1.400 . S
C1247 C1248 1.398 . S
C1247 C1253 1.491 . S
C1248 H1239 0.950 . S
C1248 C1247 1.398 . S
C1248 C1249 1.391 . S
C1249 H1237 0.950 . S
C1249 C1245 1.393 . S
C1249 C1248 1.391 . S
C1250 H1240 0.950 . S
C1250 C1251 1.386 . S
C1250 C1252 1.391 . S
C1251 C1250 1.386 . S
C1251 C1255 1.393 . S
C1252 H1241 0.950 . S
C1252 C1250 1.391 . S
C1252 C1253 1.400 . S
C1253 C1247 1.491 . S
C1253 C1252 1.400 . S
C1253 C1254 1.398 . S
C1254 H1242 0.950 . S
C1254 C1253 1.398 . S
C1254 C1255 1.391 . S
C1255 H1243 0.950 . S
C1255 C1251 1.393 . S
C1255 C1254 1.391 . S
H1256 C1264 0.950 . S
H1257 C1269 0.950 . S
H1258 C1266 0.950 . S
H1259 C1268 0.950 . S
H1260 C1270 0.950 . S
H1261 C1272 0.950 . S
H1262 C1274 0.950 . S
H1263 C1275 0.950 . S
C1264 H1256 0.950 . S
C1264 C1265 1.386 . S
C1264 C1266 1.391 . S
C1265 C1264 1.386 . S
C1265 C1269 1.393 . S
C1266 H1258 0.950 . S
C1266 C1264 1.391 . S
C1266 C1267 1.400 . S
C1267 C1266 1.400 . S
C1267 C1268 1.398 . S
C1267 C1273 1.491 1_556 S
C1268 H1259 0.950 . S
C1268 C1267 1.398 . S
C1268 C1269 1.391 . S
C1269 H1257 0.950 . S
C1269 C1265 1.393 . S
C1269 C1268 1.391 . S
C1270 H1260 0.950 . S
C1270 C1271 1.386 . S
C1270 C1272 1.391 . S
C1271 C1270 1.386 . S
C1271 C1275 1.393 . S
C1272 H1261 0.950 . S
C1272 C1270 1.391 . S
C1272 C1273 1.400 . S
C1273 C1267 1.491 1_554 S
C1273 C1272 1.400 . S
C1273 C1274 1.398 . S
C1274 H1262 0.950 . S
C1274 C1273 1.398 . S
C1274 C1275 1.391 . S
C1275 H1263 0.950 . S
C1275 C1271 1.393 . S
C1275 C1274 1.391 . S
H1276 C1284 0.950 . S
H1277 C1289 0.950 . S
H1278 C1286 0.950 . S
H1279 C1288 0.950 . S
H1280 C1290 0.950 . S
H1281 C1292 0.950 . S
H1282 C1294 0.950 . S
H1283 C1295 0.950 . S
C1284 H1276 0.950 . S
C1284 C1285 1.386 . S
C1284 C1286 1.391 . S
C1285 C1284 1.386 . S
C1285 C1289 1.393 . S
C1286 H1278 0.950 . S
C1286 C1284 1.391 . S
C1286 C1287 1.400 . S
C1287 C1286 1.400 . S
C1287 C1288 1.398 . S
C1287 C1293 1.491 . S
C1288 H1279 0.950 . S
C1288 C1287 1.398 . S
C1288 C1289 1.391 . S
C1289 H1277 0.950 . S
C1289 C1285 1.393 . S
C1289 C1288 1.391 . S
C1290 H1280 0.950 . S
C1290 C1291 1.386 . S
C1290 C1292 1.391 . S
C1291 C1290 1.386 . S
C1291 C1295 1.393 . S
C1292 H1281 0.950 . S
C1292 C1290 1.391 . S
C1292 C1293 1.400 . S
C1293 C1287 1.491 . S
C1293 C1292 1.400 . S
C1293 C1294 1.398 . S
C1294 H1282 0.950 . S
C1294 C1293 1.398 . S
C1294 C1295 1.391 . S
C1295 H1283 0.950 . S
C1295 C1291 1.393 . S
C1295 C1294 1.391 . S
C345 C0 1.486 . S
C351 C210 1.483 . S
C365 C14 1.477 . S
C371 C224 1.493 . S
C385 C238 1.485 . S
C391 C28 1.484 . S
C405 C168 1.476 . S
C411 C42 1.493 . S
C425 C182 1.480 . S
C431 C56 1.489 . S
C445 C196 1.476 . S
C451 C70 1.493 . S
C465 C294 1.488 . S
C471 C84 1.481 . S
C485 C98 1.490 . S
C491 C308 1.479 . S
C505 C322 1.479 . S
C511 C112 1.491 . S
C525 C126 1.493 . S
C531 C252 1.476 . S
C545 C266 1.484 . S
C551 C140 1.485 . S
C565 C154 1.478 . S
C571 C280 1.492 . S
C585 C151 1.363 . S
C591 C11 1.362 . S
C605 C165 1.358 . S
C611 C25 1.359 . S
C625 C39 1.355 . S
C631 C95 1.355 . S
C645 C53 1.361 . S
C651 C109 1.362 . S
C665 C123 1.364 . S
C671 C67 1.365 . S
C685 C81 1.363 . S
C691 C137 1.364 . S
C705 C319 1.356 . S
C711 C179 1.355 . S
C725 C193 1.356 . S
C731 C333 1.356 . S
C745 C207 1.355 . S
C751 C263 1.355 . S
C765 C277 1.361 . S
C771 C221 1.362 . S
C785 C235 1.354 . S
C791 C291 1.355 . S
C805 C249 1.364 . S
C811 C305 1.364 . S
C825 C5 1.400 . S
C831 C257 1.395 . S
C845 C271 1.393 . S
C851 C19 1.402 . S
C865 C33 1.395 . S
C871 C285 1.400 . S
C885 C47 1.400 . S
C891 C299 1.396 . S
C905 C313 1.393 . S
C911 C61 1.402 . S
C925 C75 1.393 . S
C931 C327 1.402 . S
C945 C89 1.402 . S
C951 C173 1.393 . S
C965 C103 1.398 . S
C971 C187 1.397 . S
C985 C201 1.402 . S
C991 C117 1.393 . S
C1005 C215 1.402 . S
C1011 C131 1.393 . S
C1025 C145 1.401 . S
C1031 C229 1.395 . S
C1045 C243 1.402 . S
C1051 C159 1.393 . S
C1065 C93 1.516 . S
C1071 C9 1.517 . S
C1085 C23 1.516 . S
C1091 C107 1.517 . S
C1105 C121 1.516 . S
C1111 C37 1.517 . S
C1125 C135 1.516 . S
C1131 C51 1.517 . S
C1145 C149 1.517 . S
C1151 C65 1.517 . S
C1165 C79 1.517 . S
C1171 C163 1.516 . S
C1185 C261 1.516 . S
C1191 C177 1.516 . S
C1205 C191 1.516 . S
C1211 C275 1.517 . S
C1225 C289 1.517 . S
C1231 C205 1.516 . S
C1245 C303 1.516 . S
C1251 C219 1.517 . S
C1265 C233 1.516 . S
C1271 C317 1.516 . S
C1285 C247 1.517 . S
C1291 C331 1.516 . S
