# Generated by pormake.
# Topology smm, (6)-cn, num edge types: 1
# Building blocks:
#     Node 0, Type 0, BuildingBlock: JUFBIX_clean_sbu_0, # of connection points: 6
#     Node 1, Type 0, BuildingBlock: JUFBIX_clean_sbu_0, # of connection points: 6
#     Node 2, Type 0, BuildingBlock: JUFBIX_clean_sbu_0, # of connection points: 6
#     Node 3, Type 0, BuildingBlock: JUFBIX_clean_sbu_0, # of connection points: 6
#     Node 4, Type 0, BuildingBlock: JUFBIX_clean_sbu_0, # of connection points: 6
#     Node 5, Type 0, BuildingBlock: JUFBIX_clean_sbu_0, # of connection points: 6
#     Node 6, Type 0, BuildingBlock: JUFBIX_clean_sbu_0, # of connection points: 6
#     Node 7, Type 0, BuildingBlock: JUFBIX_clean_sbu_0, # of connection points: 6
#     Node 8, Type 0, BuildingBlock: JUFBIX_clean_sbu_0, # of connection points: 6
#     Edge 9, Type (0, 0), BuildingBlock: XUDNAN_clean_linker_2, # of connection points: 2
#     Edge 10, Type (0, 0), BuildingBlock: XUDNAN_clean_linker_2, # of connection points: 2
#     Edge 11, Type (0, 0), BuildingBlock: XUDNAN_clean_linker_2, # of connection points: 2
#     Edge 12, Type (0, 0), BuildingBlock: XUDNAN_clean_linker_2, # of connection points: 2
#     Edge 13, Type (0, 0), BuildingBlock: XUDNAN_clean_linker_2, # of connection points: 2
#     Edge 14, Type (0, 0), BuildingBlock: XUDNAN_clean_linker_2, # of connection points: 2
#     Edge 15, Type (0, 0), BuildingBlock: XUDNAN_clean_linker_2, # of connection points: 2
#     Edge 16, Type (0, 0), BuildingBlock: XUDNAN_clean_linker_2, # of connection points: 2
#     Edge 17, Type (0, 0), BuildingBlock: XUDNAN_clean_linker_2, # of connection points: 2
#     Edge 18, Type (0, 0), BuildingBlock: XUDNAN_clean_linker_2, # of connection points: 2
#     Edge 19, Type (0, 0), BuildingBlock: XUDNAN_clean_linker_2, # of connection points: 2
#     Edge 20, Type (0, 0), BuildingBlock: XUDNAN_clean_linker_2, # of connection points: 2
#     Edge 21, Type (0, 0), BuildingBlock: XUDNAN_clean_linker_2, # of connection points: 2
#     Edge 22, Type (0, 0), BuildingBlock: XUDNAN_clean_linker_2, # of connection points: 2
#     Edge 23, Type (0, 0), BuildingBlock: XUDNAN_clean_linker_2, # of connection points: 2
#     Edge 24, Type (0, 0), BuildingBlock: XUDNAN_clean_linker_2, # of connection points: 2
#     Edge 25, Type (0, 0), BuildingBlock: XUDNAN_clean_linker_2, # of connection points: 2
#     Edge 26, Type (0, 0), BuildingBlock: XUDNAN_clean_linker_2, # of connection points: 2
#     Edge 27, Type (0, 0), BuildingBlock: XUDNAN_clean_linker_2, # of connection points: 2
#     Edge 28, Type (0, 0), BuildingBlock: XUDNAN_clean_linker_2, # of connection points: 2
#     Edge 29, Type (0, 0), BuildingBlock: XUDNAN_clean_linker_2, # of connection points: 2
#     Edge 30, Type (0, 0), BuildingBlock: XUDNAN_clean_linker_2, # of connection points: 2
#     Edge 31, Type (0, 0), BuildingBlock: XUDNAN_clean_linker_2, # of connection points: 2
#     Edge 32, Type (0, 0), BuildingBlock: XUDNAN_clean_linker_2, # of connection points: 2
#     Edge 33, Type (0, 0), BuildingBlock: XUDNAN_clean_linker_2, # of connection points: 2
#     Edge 34, Type (0, 0), BuildingBlock: XUDNAN_clean_linker_2, # of connection points: 2
#     Edge 35, Type (0, 0), BuildingBlock: XUDNAN_clean_linker_2, # of connection points: 2
# Relax obj value: 0.251
# Max RMSD: 0.204
# Mean RMSD: 0.204
data_MOF--net-smm--node1-JUFBIX_clean_sbu_0--edge1-XUDNAN_clean_linker_2
_symmetry_space_group_name_H-M    P1
_symmetry_Int_Tables_number       1
_symmetry_cell_setting            triclinic
loop_
_symmetry_equiv_pos_as_xyz
'x, y, z'
_cell_length_a     57.514826
_cell_length_b     57.802115
_cell_length_c     14.76854
_cell_angle_alpha  89.955346
_cell_angle_beta   90.075064
_cell_angle_gamma 119.71813
loop_
_atom_site_label
_atom_site_type_symbol
_atom_site_fract_x
_atom_site_fract_y
_atom_site_fract_z
_atom_type_partial_charge
Co0 Co 0.99207 0.16073 0.95024 0.0
C1 C 0.01673 0.18486 0.11551 0.0
Co2 Co 0.02508 0.20233 0.94209 0.0
C3 C 0.96559 0.10381 0.92835 0.0
C4 C 0.94714 0.1157 0.03001 0.0
N5 N 0.96706 0.12543 0.96848 0.0
N6 N 0.94561 0.08093 0.96276 0.0
C7 C 0.93389 0.08836 0.02655 0.0
H8 H 0.97918 0.10487 0.87578 0.0
H9 H 0.94304 0.12771 0.0764 0.0
C10 C 1.00052 0.17647 0.77624 0.0
N11 N 0.04851 0.23838 0.91907 0.0
C12 C 0.07224 0.25797 0.95156 0.0
C13 C 0.04076 0.25086 0.85865 0.0
N14 N 0.0788 0.28183 0.91384 0.0
C15 C 0.05912 0.2772 0.85534 0.0
C16 C 0.04413 0.16779 0.92497 0.0
O17 O 0.98474 0.15698 0.82538 0.0
O18 O 0.0188 0.19734 0.81363 0.0
O19 O 0.05263 0.19278 0.92993 0.0
O20 O 0.01913 0.15151 0.93132 0.0
O21 O 0.0311 0.20634 0.07144 0.0
H22 H 0.02229 0.24153 0.82042 0.0
H23 H 0.08392 0.25502 0.00311 0.0
O24 O 0.99966 0.16419 0.07373 0.0
O25 O 0.9652 0.17025 0.97014 0.0
O26 O 0.9975 0.21134 0.95541 0.0
C27 C 0.973 0.19492 0.96898 0.0
H28 H 0.91766 0.07503 0.07036 0.0
H29 H 0.05808 0.29207 0.81346 0.0
Co30 Co 0.87357 0.84014 0.97939 0.0
C31 C 0.85745 0.84718 0.14745 0.0
Co32 Co 0.83481 0.83937 0.97688 0.0
C33 C 0.92961 0.86503 0.01133 0.0
C34 C 0.91638 0.82854 0.93943 0.0
N35 N 0.90735 0.84326 -0.01858 0.0
N36 N 0.95228 0.86521 -0.01319 0.0
C37 C 0.94405 0.84201 0.94269 0.0
H38 H 0.92918 0.88133 0.0458 0.0
H39 H 0.90384 0.81029 0.90286 0.0
C40 C 0.85293 0.83384 0.80839 0.0
N41 N 0.80183 0.8378 0.97415 0.0
C42 C 0.78039 0.82297 0.92076 0.0
C43 C 0.7953 0.85375 0.02118 0.0
N44 N 0.76095 0.82938 0.93186 0.0
C45 C 0.77026 0.84868 -0.00479 0.0
C46 C 0.87703 0.88962 0.9517 0.0
O47 O 0.87121 0.83371 0.85604 0.0
O48 O 0.83412 0.83563 0.84711 0.0
O49 O 0.85186 0.87679 0.96246 0.0
O50 O 0.89 0.8772 0.95481 0.0
O51 O 0.83636 0.84347 0.10672 0.0
H52 H 0.80829 0.86871 0.06931 0.0
H53 H 0.77953 0.8086 0.87195 0.0
O54 O 0.87606 0.84689 0.10259 0.0
O55 O 0.85658 0.80298 0.00409 0.0
O56 O 0.81801 0.80208 -0.00798 0.0
C57 C 0.83109 0.78998 0.00639 0.0
H58 H 0.95703 0.83618 0.90883 0.0
H59 H 0.75983 0.85865 0.0202 0.0
Co60 Co 0.19308 0.04444 -0.00424 0.0
C61 C 0.1936 0.02589 0.16521 0.0
Co62 Co 0.19634 0.00772 -0.00591 0.0
C63 C 0.17003 0.07739 0.95096 0.0
C64 C 0.20157 0.09656 0.04764 0.0
N65 N 0.18896 0.07456 -0.00414 0.0
N66 N 0.16977 0.1 0.97366 0.0
C67 C 0.18989 0.11217 0.03428 0.0
H68 H 0.15617 0.06248 0.90459 0.0
H69 H 0.21747 0.10046 0.095 0.0
C70 C 0.19769 0.02837 0.82492 0.0
N71 N 0.19951 0.9772 -0.00621 0.0
C72 C 0.21465 0.97076 0.94073 0.0
C73 C 0.18481 0.95536 0.04478 0.0
N74 N 0.2096 0.94561 0.95599 0.0
C75 C 0.19086 0.93594 0.02151 0.0
C76 C 0.14393 0.99716 -0.01258 0.0
O77 O 0.19582 0.04595 0.87061 0.0
O78 O 0.19737 0.00872 0.86492 0.0
O79 O 0.15826 0.9861 -0.00941 0.0
O80 O 0.15533 0.02243 -0.01245 0.0
O81 O 0.19575 0.00767 0.1242 0.0
H82 H 0.17008 0.95344 0.09415 0.0
H83 H 0.22829 0.98384 0.88949 0.0
O84 O 0.19084 0.04302 0.12016 0.0
O85 O 0.23104 0.06594 0.00573 0.0
O86 O 0.23422 0.02957 -0.00215 0.0
C87 C 0.24536 0.05478 0.00532 0.0
H88 H 0.19525 0.13049 0.06982 0.0
H89 H 0.18195 0.91609 0.04993 0.0
Co90 Co 0.67073 0.49982 0.33017 0.0
C91 C 0.69306 0.51738 0.50068 0.0
Co92 Co 0.7089 0.538 0.33216 0.0
C93 C 0.6393 0.44309 0.35232 0.0
C94 C 0.61637 0.45895 0.29197 0.0
N95 N 0.64044 0.46622 0.32936 0.0
N96 N 0.61585 0.42161 0.32851 0.0
C97 C 0.60119 0.43153 0.29153 0.0
H98 H 0.65588 0.44198 0.38232 0.0
H99 H 0.61085 0.47258 0.26164 0.0
C100 C 0.68847 0.52051 0.1608 0.0
N101 N 0.73867 0.57178 0.32824 0.0
C102 C 0.73931 0.59145 0.27757 0.0
C103 C 0.7625 0.5831 0.3713 0.0
N104 N 0.76219 0.61474 0.28754 0.0
C105 C 0.77711 0.60964 0.34604 0.0
C106 C 0.71844 0.49673 0.31594 0.0
O107 O 0.66876 0.5013 0.20049 0.0
O108 O 0.70709 0.53842 0.20756 0.0
O109 O 0.73066 0.52195 0.32307 0.0
O110 O 0.69297 0.48399 0.31661 0.0
O111 O 0.71076 0.5371 0.45662 0.0
H112 H 0.76862 0.57289 0.41886 0.0
H113 H 0.72301 0.58861 0.23373 0.0
O114 O 0.67331 0.49852 0.4593 0.0
O115 O 0.64912 0.51632 0.34447 0.0
O116 O 0.68703 0.55397 0.34218 0.0
C117 C 0.66171 0.54161 0.34821 0.0
H118 H 0.58169 0.41987 0.26048 0.0
H119 H 0.79676 0.62412 0.37065 0.0
Co120 Co 0.53981 0.17804 0.32945 0.0
C121 C 0.52028 0.18261 0.49639 0.0
Co122 Co 0.50108 0.17765 0.32392 0.0
C123 C 0.59652 0.20072 0.30212 0.0
C124 C 0.58173 0.16857 0.39685 0.0
N125 N 0.57369 0.18146 0.33982 0.0
N126 N 0.61861 0.20099 0.33499 0.0
C127 C 0.60928 0.1805 0.39399 0.0
H128 H 0.59691 0.21504 0.25407 0.0
H129 H 0.56859 0.15263 0.44178 0.0
C130 C 0.52248 0.17476 0.15662 0.0
N131 N 0.46743 0.17436 0.31083 0.0
C132 C 0.44794 0.15613 0.25726 0.0
C133 C 0.45742 0.18942 0.34296 0.0
N134 N 0.42612 0.15914 0.25335 0.0
C135 C 0.43202 0.18011 0.30786 0.0
C136 C 0.54325 0.2283 0.31291 0.0
O137 O 0.54087 0.17489 0.20443 0.0
O138 O 0.50302 0.17535 0.19501 0.0
O139 O 0.51782 0.21544 0.31449 0.0
O140 O 0.55597 0.21559 0.31743 0.0
O141 O 0.49999 0.18038 0.45362 0.0
H142 H 0.46811 0.20644 0.38708 0.0
H143 H 0.45007 0.14104 0.22111 0.0
O144 O 0.53886 0.18167 0.45354 0.0
O145 O 0.52294 0.14028 0.34308 0.0
O146 O 0.48477 0.14012 0.33436 0.0
C147 C 0.49747 0.12749 0.34374 0.0
H148 H 0.62149 0.17555 0.4367 0.0
H149 H 0.41931 0.18867 0.31996 0.0
Co150 Co 0.86333 0.36844 0.3568 0.0
C151 C 0.86141 0.34714 0.52624 0.0
Co152 Co 0.86437 0.33072 0.35554 0.0
C153 C 0.84047 0.40174 0.32024 0.0
C154 C 0.87198 0.41989 0.41769 0.0
N155 N 0.85955 0.3986 0.36252 0.0
N156 N 0.83981 0.42363 0.34851 0.0
C157 C 0.8599 0.4353 0.40926 0.0
H158 H 0.82663 0.38756 0.27184 0.0
H159 H 0.88779 0.42321 0.46466 0.0
C160 C 0.86808 0.35413 0.18638 0.0
N161 N 0.86772 0.30048 0.34609 0.0
C162 C 0.8834 0.29746 0.28488 0.0
C163 C 0.85385 0.27648 0.38641 0.0
N164 N 0.87957 0.27248 0.28334 0.0
C165 C 0.86116 0.25921 0.34806 0.0
C166 C 0.81304 0.32155 0.3412 0.0
O167 O 0.86756 0.37233 0.23246 0.0
O168 O 0.86602 0.33372 0.22614 0.0
O169 O 0.82629 0.30942 0.34868 0.0
O170 O 0.82551 0.34686 0.34216 0.0
O171 O 0.86306 0.32859 0.48535 0.0
H172 H 0.8386 0.27156 0.43736 0.0
H173 H 0.89694 0.31331 0.24037 0.0
O174 O 0.85955 0.36478 0.48087 0.0
O175 O 0.90128 0.38949 0.37263 0.0
O176 O 0.90238 0.35216 0.36322 0.0
C177 C 0.91464 0.37733 0.37349 0.0
H178 H 0.86449 0.45277 0.44909 0.0
H179 H 0.85262 0.23825 0.36355 0.0
Co180 Co 0.33301 0.83231 0.69222 0.0
C181 C 0.3546 0.85517 0.86019 0.0
Co182 Co 0.36474 0.87458 0.68814 0.0
C183 C 0.3033 0.77559 0.6584 0.0
C184 C 0.28491 0.78774 0.75931 0.0
N185 N 0.30577 0.79726 0.70157 0.0
N186 N 0.28185 0.75279 0.68754 0.0
C187 C 0.27022 0.76049 0.75091 0.0
H188 H 0.31735 0.77663 0.60777 0.0
H189 H 0.28115 0.79975 0.80676 0.0
C190 C 0.34282 0.85317 0.52058 0.0
N191 N 0.39188 0.90979 0.67876 0.0
C192 C 0.39251 0.9284 0.62201 0.0
C193 C 0.4156 0.92203 0.72223 0.0
N194 N 0.41574 0.9518 0.62735 0.0
C195 C 0.43028 0.94782 0.69096 0.0
C196 C 0.38335 0.83832 0.66827 0.0
O197 O 0.32868 0.83136 0.56266 0.0
O198 O 0.35934 0.87364 0.56414 0.0
O199 O 0.39011 0.86288 0.66992 0.0
O200 O 0.35887 0.82092 0.67916 0.0
O201 O 0.36967 0.87538 0.81257 0.0
H202 H 0.42197 0.91269 0.77241 0.0
H203 H 0.37635 0.92443 0.57594 0.0
O204 O 0.33745 0.83378 0.82149 0.0
O205 O 0.30754 0.84417 0.70549 0.0
O206 O 0.33915 0.88604 0.7066 0.0
C207 C 0.31449 0.86869 0.7127 0.0
H208 H 0.25302 0.74738 0.79154 0.0
H209 H 0.45013 0.96236 0.71353 0.0
Co210 Co 0.21367 0.51446 0.69789 0.0
C211 C 0.19163 0.51666 0.86609 0.0
Co212 Co 0.17252 0.5083 0.69477 0.0
C213 C 0.27095 0.53745 0.66753 0.0
C214 C 0.25518 0.50575 0.76475 0.0
N215 N 0.24806 0.51983 0.70955 0.0
N216 N 0.2918 0.53448 0.69367 0.0
C217 C 0.28198 0.51456 0.75451 0.0
H218 H 0.27223 0.55181 0.61781 0.0
H219 H 0.24172 0.49002 0.80973 0.0
C220 C 0.19293 0.50439 0.52703 0.0
N221 N 0.13746 0.50172 0.68253 0.0
C222 C 0.11825 0.48224 0.63137 0.0
C223 C 0.12558 0.51461 0.71873 0.0
N224 N 0.09474 0.48231 0.63347 0.0
C225 C 0.09938 0.50276 0.68883 0.0
C226 C 0.21203 0.56095 0.66985 0.0
O227 O 0.21455 0.51034 0.56882 0.0
O228 O 0.17316 0.50253 0.57086 0.0
O229 O 0.18668 0.54582 0.67249 0.0
O230 O 0.22716 0.55104 0.68195 0.0
O231 O 0.17197 0.51371 0.81843 0.0
H232 H 0.13534 0.53156 0.76369 0.0
H233 H 0.1218 0.46852 0.59223 0.0
O234 O 0.21216 0.51824 0.82735 0.0
O235 O 0.19997 0.47768 0.71361 0.0
O236 O 0.15913 0.47115 0.71907 0.0
C237 C 0.17521 0.46209 0.7257 0.0
H238 H 0.2935 0.50715 0.7897 0.0
H239 H 0.08495 0.50876 0.7073 0.0
Co240 Co 0.52617 0.70771 0.66233 0.0
C241 C 0.52845 0.68735 0.83172 0.0
Co242 Co 0.5379 0.67649 0.66176 0.0
C243 C 0.49955 0.73977 0.63334 0.0
C244 C 0.53294 0.75708 0.72446 0.0
N245 N 0.5186 0.73554 0.67151 0.0
N246 N 0.50202 0.76329 0.65982 0.0
C247 C 0.523 0.77417 0.71676 0.0
H248 H 0.48457 0.72618 0.58623 0.0
H249 H 0.54967 0.76021 0.76652 0.0
C250 C 0.53415 0.69473 0.49198 0.0
N251 N 0.54603 0.64913 0.65401 0.0
C252 C 0.56388 0.6479 0.59783 0.0
C253 C 0.53484 0.6259 0.6997 0.0
N254 N 0.56435 0.62481 0.60615 0.0
C255 C 0.54605 0.61094 0.67061 0.0
C256 C 0.48275 0.65765 0.64748 0.0
O257 O 0.52749 0.71003 0.53251 0.0
O258 O 0.54064 0.68027 0.53771 0.0
O259 O 0.50113 0.65149 0.6486 0.0
O260 O 0.48899 0.682 0.65503 0.0
O261 O 0.53465 0.67265 0.78615 0.0
H262 H 0.51936 0.6201 0.75036 0.0
H263 H 0.57587 0.66354 0.55024 0.0
O264 O 0.52451 0.70458 0.79161 0.0
O265 O 0.56372 0.73293 0.66958 0.0
O266 O 0.57465 0.70165 0.67536 0.0
C267 C 0.58159 0.72619 0.67744 0.0
H268 H 0.5305 0.79315 0.75076 0.0
H269 H 0.54113 0.59145 0.69568 0.0
H270 H 0.07639 0.32489 0.96103 0.0
H271 H 0.13076 0.29711 0.88452 0.0
H272 H 0.16487 0.34319 0.84249 0.0
H273 H 0.08572 0.36095 0.77965 0.0
H274 H 0.0835 0.38828 0.82916 0.0
H275 H 0.0671 0.35618 0.88273 0.0
H276 H 0.09266 0.37612 0.03255 0.0
H277 H 0.10839 0.40869 -0.01889 0.0
H278 H 0.12864 0.39626 0.03125 0.0
H279 H 0.18838 0.38974 0.77801 0.0
H280 H 0.20142 0.43369 0.71086 0.0
H281 H 0.12921 0.42942 0.81818 0.0
C282 C 0.0962 0.329 0.94116 0.0
C283 C 0.10135 0.30781 0.92764 0.0
C284 C 0.12689 0.31332 0.89774 0.0
C285 C 0.14616 0.33937 0.87267 0.0
C286 C 0.13943 0.35947 0.87873 0.0
C287 C 0.11519 0.35465 0.91426 0.0
C288 C 0.11078 0.37817 0.90042 0.0
C289 C 0.08528 0.37041 0.84468 0.0
C290 C 0.11009 0.39055 -0.00823 0.0
C291 C 0.13565 0.39652 0.84755 0.0
C292 C 0.15221 0.38568 0.83727 0.0
C293 C 0.17577 0.39855 0.78708 0.0
C294 C 0.18284 0.42336 0.74839 0.0
C295 C 0.16615 0.4348 0.75855 0.0
C296 C 0.1422 0.42104 0.80836 0.0
H297 H 0.72868 0.77857 0.87402 0.0
H298 H 0.73706 0.85733 0.87921 0.0
H299 H 0.69356 0.83999 0.80143 0.0
H300 H 0.69456 0.75772 0.65287 0.0
H301 H 0.67262 0.72401 0.68983 0.0
H302 H 0.70559 0.74302 0.73844 0.0
H303 H 0.68484 0.73464 0.89904 0.0
H304 H 0.65188 0.71558 0.85096 0.0
H305 H 0.65961 0.74361 0.9232 0.0
H306 H 0.64821 0.81388 0.73222 0.0
H307 H 0.603 0.78029 0.68158 0.0
H308 H 0.62345 0.71806 0.72176 0.0
C309 C 0.72152 0.79218 0.85712 0.0
C310 C 0.73621 0.8193 0.88242 0.0
C311 C 0.72599 0.83646 0.86108 0.0
C312 C 0.70142 0.82684 0.8163 0.0
C313 C 0.68724 0.79995 0.79334 0.0
C314 C 0.69684 0.78281 0.8131 0.0
C315 C 0.67669 0.75444 0.78669 0.0
C316 C 0.68805 0.7442 0.71253 0.0
C317 C 0.66773 0.73599 0.86993 0.0
C318 C 0.65416 0.7583 0.75044 0.0
C319 C 0.66081 0.78476 0.75399 0.0
C320 C 0.64284 0.79312 0.72824 0.0
C321 C 0.61719 0.77388 0.69953 0.0
C322 C 0.60968 0.74654 0.69719 0.0
C323 C 0.62865 0.73881 0.72166 0.0
H324 H 0.26093 0.96411 0.89908 0.0
H325 H 0.18214 0.89391 0.90716 0.0
H326 H 0.20006 0.86755 0.83482 0.0
H327 H 0.28255 0.94923 0.68194 0.0
H328 H 0.31643 0.96134 0.72005 0.0
H329 H 0.29708 0.97545 0.76517 0.0
H330 H 0.3055 0.96451 0.92794 0.0
H331 H 0.32484 0.95038 0.88333 0.0
H332 H 0.29665 0.93076 0.95605 0.0
H333 H 0.22652 0.84813 0.77022 0.0
H334 H 0.26025 0.83636 0.72118 0.0
H335 H 0.3227 0.91871 0.75591 0.0
C336 C 0.24746 0.94331 0.88392 0.0
C337 C 0.22012 0.93101 0.90848 0.0
C338 C 0.20315 0.90363 0.88945 0.0
C339 C 0.21311 0.88855 0.84788 0.0
C340 C 0.24019 0.90109 0.82585 0.0
C341 C 0.2572 0.92782 0.84321 0.0
C342 C 0.28582 0.93584 0.81792 0.0
C343 C 0.29607 0.95671 0.74172 0.0
C344 C 0.30428 0.94597 0.90128 0.0
C345 C 0.28221 0.90937 0.78488 0.0
C346 C 0.25566 0.8897 0.7893 0.0
C347 C 0.24735 0.8634 0.76573 0.0
C348 C 0.26671 0.85691 0.73794 0.0
C349 C 0.29416 0.87658 0.73418 0.0
C350 C 0.30187 0.90324 0.75704 0.0
H351 H 0.37763 0.15727 0.26917 0.0
H352 H 0.41954 0.12535 0.11361 0.0
H353 H 0.37847 0.09709 0.02883 0.0
H354 H 0.31563 0.09779 0.28613 0.0
H355 H 0.2954 0.11337 0.27182 0.0
H356 H 0.32844 0.13197 0.31974 0.0
H357 H 0.3414 0.16825 0.19646 0.0
H358 H 0.30835 0.14974 0.14812 0.0
H359 H 0.33738 0.15888 0.07865 0.0
H360 H 0.33202 0.06922 0.96919 0.0
H361 H 0.28365 0.04577 0.93303 0.0
H362 H 0.27239 0.09807 0.11581 0.0
C363 C 0.37844 0.14468 0.21664 0.0
C364 C 0.40212 0.14353 0.19998 0.0
C365 C 0.40183 0.12643 0.13034 0.0
C366 C 0.37852 0.11033 0.08068 0.0
C367 C 0.35559 0.11173 0.09983 0.0
C368 C 0.35539 0.12867 0.16532 0.0
C369 C 0.32786 0.12604 0.17296 0.0
C370 C 0.31615 0.11674 0.26831 0.0
C371 C 0.32882 0.15229 0.14751 0.0
C372 C 0.31259 0.10462 0.10276 0.0
C373 C 0.32898 0.09659 0.06163 0.0
C374 C 0.31908 0.07567 -0.00045 0.0
C375 C 0.29163 0.06247 0.97948 0.0
C376 C 0.27453 0.07051 0.02025 0.0
C377 C 0.28523 0.09207 0.08175 0.0
H378 H 0.88774 0.23014 0.3069 0.0
H379 H 0.89703 0.29073 0.1133 0.0
H380 H 0.91844 0.27458 0.00634 0.0
H381 H 0.94965 0.23335 0.26352 0.0
H382 H 0.93713 0.19807 0.27427 0.0
H383 H 0.92108 0.21338 0.3344 0.0
H384 H 0.87575 0.18028 0.25984 0.0
H385 H 0.89174 0.16494 0.19911 0.0
H386 H 0.87331 0.17769 0.13815 0.0
H387 H 0.9429 0.25526 0.92663 0.0
H388 H 0.96761 0.23257 0.87734 0.0
H389 H 0.9398 0.182 0.11482 0.0
C390 C 0.8939 0.23973 0.24151 0.0
C391 C 0.89095 0.26196 0.21937 0.0
C392 C 0.89958 0.27411 0.13319 0.0
C393 C 0.91154 0.26488 0.07129 0.0
C394 C 0.9145 0.24324 0.09573 0.0
C395 C 0.9058 0.23065 0.17841 0.0
C396 C 0.91241 0.20841 0.18879 0.0
C397 C 0.93118 0.21363 0.27003 0.0
C398 C 0.88677 0.18122 0.19694 0.0
C399 C 0.92658 0.21085 0.09974 0.0
C400 C 0.92755 0.23112 0.04717 0.0
C401 C 0.94172 0.23891 0.96597 0.0
C402 C 0.95562 0.22594 0.93839 0.0
C403 C 0.95483 0.20513 -0.009 0.0
C404 C 0.93977 0.19718 0.07183 0.0
H405 H 0.85194 0.75939 0.07289 0.0
H406 H 0.77711 0.75698 0.0067 0.0
H407 H 0.75199 0.71207 0.07197 0.0
H408 H 0.82812 0.68846 0.02656 0.0
H409 H 0.84679 0.6853 0.11924 0.0
H410 H 0.85915 0.71682 0.06232 0.0
H411 H 0.86123 0.73936 0.21598 0.0
H412 H 0.84851 0.70785 0.27322 0.0
H413 H 0.83146 0.72678 0.28437 0.0
H414 H 0.73491 0.66976 0.15416 0.0
H415 H 0.72612 0.62936 0.23615 0.0
H416 H 0.81143 0.65701 0.24609 0.0
C417 C 0.83027 0.74918 0.07056 0.0
C418 C 0.8165 0.76174 0.03458 0.0
C419 C 0.78813 0.74783 0.03379 0.0
C420 C 0.77365 0.72231 0.07093 0.0
C421 C 0.78778 0.71084 0.10814 0.0
C422 C 0.8154 0.72354 0.1073 0.0
C423 C 0.82543 0.70665 0.1535 0.0
C424 C 0.84078 0.69884 0.08639 0.0
C425 C 0.84268 0.72103 0.2367 0.0
C426 C 0.79907 0.68266 0.18112 0.0
C427 C 0.77772 0.68571 0.15436 0.0
C428 C 0.75141 0.66685 0.17396 0.0
C429 C 0.74664 0.64385 0.22026 0.0
C430 C 0.76803 0.63962 0.24591 0.0
C431 C 0.79466 0.65958 0.2272 0.0
H432 H 0.05022 0.4877 0.60781 0.0
H433 H 0.08246 0.43523 0.55107 0.0
H434 H 0.04147 0.40512 0.46891 0.0
H435 H 0.98315 0.43534 0.64957 0.0
H436 H 0.96762 0.45266 0.59863 0.0
H437 H 1.00032 0.47125 0.64918 0.0
H438 H 0.01901 0.4966 0.49821 0.0
H439 H 0.98638 0.47792 0.44702 0.0
H440 H 0.01485 0.47806 0.39559 0.0
H441 H 0.99653 0.37949 0.39701 0.0
H442 H 0.94961 0.35908 0.34648 0.0
H443 H 0.94524 0.42702 0.45086 0.0
C444 C 0.04883 0.46994 0.57844 0.0
C445 C 0.07018 0.46435 0.58591 0.0
C446 C 0.06704 0.44065 0.54564 0.0
C447 C 0.04362 0.42318 0.49872 0.0
C448 C 0.02321 0.42942 0.49244 0.0
C449 C 0.02543 0.45211 0.53159 0.0
C450 C 0.99992 0.45344 0.5178 0.0
C451 C 0.98699 0.45315 0.60923 0.0
C452 C 1.00538 0.47796 0.46128 0.0
C453 C 0.98301 0.42783 0.46546 0.0
C454 C 0.99697 0.41441 0.45121 0.0
C455 C 0.98543 0.38988 0.40733 0.0
C456 C 0.95874 0.37845 0.37879 0.0
C457 C 0.94374 0.39149 0.39408 0.0
C458 C 0.95627 0.41675 0.43682 0.0
H459 H 0.55653 0.57424 0.5857 0.0
H460 H 0.61018 0.65696 0.51332 0.0
H461 H 0.63813 0.64353 0.42791 0.0
H462 H 0.60789 0.5578 0.62297 0.0
H463 H 0.58893 0.52454 0.57796 0.0
H464 H 0.57183 0.54029 0.62832 0.0
H465 H 0.54446 0.5324 0.48079 0.0
H466 H 0.56166 0.51679 0.4297 0.0
H467 H 0.56178 0.54471 0.37476 0.0
H468 H 0.6617 0.62202 0.35689 0.0
H469 H 0.68059 0.59387 0.31023 0.0
H470 H 0.61259 0.52481 0.42923 0.0
C471 C 0.57411 0.58962 0.5521 0.0
C472 C 0.58079 0.61675 0.55606 0.0
C473 C 0.60409 0.63603 0.51033 0.0
C474 C 0.62025 0.6286 0.46165 0.0
C475 C 0.61301 0.60179 0.45909 0.0
C476 C 0.5906 0.58257 0.50336 0.0
C477 C 0.58813 0.55528 0.49324 0.0
C478 C 0.58928 0.54381 0.58614 0.0
C479 C 0.56248 0.53617 0.44153 0.0
C480 C 0.61291 0.5623 0.43746 0.0
C481 C 0.6268 0.58924 0.41805 0.0
C482 C 0.65091 0.60086 0.37102 0.0
C483 C 0.66147 0.58468 0.3448 0.0
C484 C 0.64799 0.55711 0.36553 0.0
C485 C 0.6231 0.54571 0.41099 0.0
H486 H 0.51476 0.09693 0.43291 0.0
H487 H 0.44531 0.09333 0.30296 0.0
H488 H 0.41746 0.04706 0.35525 0.0
H489 H 0.49629 0.02637 0.39155 0.0
H490 H 0.50861 0.02329 0.5006 0.0
H491 H 0.52382 0.05507 0.44388 0.0
H492 H 0.51511 0.07621 0.58518 0.0
H493 H 0.49954 0.04446 0.64184 0.0
H494 H 0.4815 0.06234 0.62821 0.0
H495 H 0.39619 1.00336 0.4341 0.0
H496 H 0.38305 0.96371 0.52742 0.0
H497 H 0.46624 0.99461 0.60534 0.0
C498 C 0.49388 0.0861 0.41327 0.0
C499 C 0.48223 0.09864 0.36326 0.0
C500 C 0.45466 0.08408 0.34094 0.0
C501 C 0.43866 0.05778 0.37033 0.0
C502 C 0.4505 0.04627 0.42201 0.0
C503 C 0.47751 0.05979 0.44268 0.0
C504 C 0.48473 0.04325 0.50417 0.0
C505 C 0.50453 0.0366 0.45722 0.0
C506 C 0.49587 0.05741 0.59523 0.0
C507 C 0.4575 0.01859 0.51585 0.0
C508 C 0.43811 0.02077 0.4676 0.0
C509 C 0.41127 1.00117 0.47091 0.0
C510 C 0.40402 0.97856 0.52425 0.0
C511 C 0.42353 0.97552 0.5737 0.0
C512 C 0.45066 0.99602 0.56902 0.0
H513 H 0.16979 0.14666 0.01411 0.0
H514 H 0.12439 0.07118 0.872 0.0
H515 H 0.09019 0.08286 0.8344 0.0
H516 H 0.11411 0.14677 0.11327 0.0
H517 H 0.12704 0.18212 0.10187 0.0
H518 H 0.14975 0.16927 0.11156 0.0
H519 H 0.1726 0.19263 0.9615 0.0
H520 H 0.14992 0.20555 0.95128 0.0
H521 H 0.15263 0.18617 0.86062 0.0
H522 H 0.05872 0.10014 0.82209 0.0
H523 H 0.03196 0.12247 0.8354 0.0
H524 H 0.09658 0.18736 -0.01644 0.0
C525 C 0.15288 0.13254 0.9745 0.0
C526 C 0.15031 0.10782 0.94655 0.0
C527 C 0.12751 0.09027 0.89446 0.0
C528 C 0.10771 0.09673 0.87243 0.0
C529 C 0.11077 0.12091 0.90218 0.0
C530 C 0.13277 0.13865 0.95176 0.0
C531 C 0.13034 0.16276 0.9789 0.0
C532 C 0.1303 0.16537 0.08255 0.0
C533 C 0.15271 0.18829 0.93547 0.0
C534 C 0.10319 0.15539 0.93864 0.0
C535 C 0.09246 0.1312 0.89416 0.0
C536 C 0.06704 0.11925 0.8557 0.0
C537 C 0.05196 0.13209 0.86388 0.0
C538 C 0.06223 0.15675 0.90992 0.0
C539 C 0.08843 0.16879 0.94649 0.0
H540 H 0.8575 0.92378 0.97554 0.0
H541 H 0.92879 0.92101 0.89684 0.0
H542 H 0.95334 0.96991 0.87959 0.0
H543 H 0.86746 0.97861 0.82625 0.0
H544 H 0.85532 0.99286 0.90946 0.0
H545 H 0.84275 0.95744 0.90794 0.0
H546 H 0.8565 0.95916 0.0761 0.0
H547 H 0.86914 0.99454 0.07813 0.0
H548 H 0.89068 0.98142 0.10924 0.0
H549 H 0.97073 0.01915 0.87917 0.0
H550 H 0.98025 0.06532 0.90157 0.0
H551 H 0.89761 0.03582 -0.01939 0.0
C552 C 0.87815 0.93342 0.95332 0.0
C553 C 0.89124 0.91865 0.93719 0.0
C554 C 0.9184 0.93199 0.90964 0.0
C555 C 0.93247 0.95973 0.89923 0.0
C556 C 0.91905 0.97375 0.91659 0.0
C557 C 0.89252 0.96107 0.94315 0.0
C558 C 0.88326 0.98087 0.96322 0.0
C559 C 0.86087 0.97723 0.89779 0.0
C560 C 0.87439 0.97887 0.06256 0.0
C561 C 0.90886 0.00668 0.94525 0.0
C562 C 0.92918 1.00215 0.91743 0.0
C563 C 0.95491 0.02297 0.89996 0.0
C564 C 0.96008 0.04914 0.91241 0.0
C565 C 0.93965 0.0542 0.94268 0.0
C566 C 0.91366 0.0326 0.95798 0.0
H567 H 0.99959 0.86481 -0.00876 0.0
H568 H 0.96582 0.91737 -0.01424 0.0
H569 H 1.01099 0.95625 -0.01428 0.0
H570 H 0.05573 0.90617 0.13806 0.0
H571 H 0.07882 0.89889 0.07944 0.0
H572 H 0.04362 0.87474 0.08062 0.0
H573 H 0.04328 0.87357 0.90524 0.0
H574 H 0.07846 0.89777 0.90357 0.0
H575 H 0.05504 0.90417 0.84277 0.0
H576 H 0.05934 0.98959 -0.01735 0.0
H577 H 0.10857 0.01567 -0.01822 0.0
H578 H 0.11221 0.94236 -0.01078 0.0
C579 C 1.00176 0.88451 -0.00985 0.0
C580 C 0.97901 0.88789 -0.01037 0.0
C581 C 0.98273 0.91407 -0.01167 0.0
C582 C 1.0084 0.93639 -0.01253 0.0
C583 C 0.03031 0.93237 -0.01201 0.0
C584 C 0.02737 0.90715 -0.01032 0.0
C585 C 0.05448 0.90863 -0.00992 0.0
C586 C 0.05839 0.89638 0.07725 0.0
C587 C 0.05802 0.89524 0.90536 0.0
C588 C 0.07298 0.93859 -0.01214 0.0
C589 C 0.05852 0.95182 -0.0135 0.0
C590 C 0.07093 0.97949 -0.01604 0.0
C591 C 0.09894 0.99413 -0.01659 0.0
C592 C 0.11432 0.98111 -0.01443 0.0
C593 C 0.10105 0.95292 -0.01247 0.0
H594 H 0.77217 0.51533 0.34648 0.0
H595 H 0.69827 0.44466 0.26845 0.0
H596 H 0.72211 0.41918 0.26026 0.0
H597 H 0.81709 0.50262 0.20593 0.0
H598 H 0.84322 0.51477 0.29016 0.0
H599 H 0.8208 0.52811 0.28443 0.0
H600 H 0.80826 0.51592 0.45298 0.0
H601 H 0.83059 0.50253 0.45922 0.0
H602 H 0.79587 0.48205 0.48969 0.0
H603 H 0.75311 0.4008 0.26647 0.0
H604 H 0.78893 0.39013 0.29089 0.0
H605 H 0.84341 0.47245 0.36498 0.0
C606 C 0.7611 0.49458 0.32661 0.0
C607 C 0.73334 0.48202 0.3078 0.0
C608 C 0.7195 0.45473 0.28326 0.0
C609 C 0.73289 0.44009 0.2781 0.0
C610 C 0.76016 0.45297 0.29778 0.0
C611 C 0.77415 0.47956 0.32168 0.0
C612 C 0.80311 0.48816 0.34354 0.0
C613 C 0.82218 0.50969 0.27703 0.0
C614 C 0.80984 0.49772 0.44222 0.0
C615 C 0.80307 0.46215 0.32928 0.0
C616 C 0.77812 0.44222 0.30211 0.0
C617 C 0.77282 0.4163 0.28682 0.0
C618 C 0.79349 0.41049 0.30035 0.0
C619 C 0.81927 0.43045 0.3292 0.0
C620 C 0.82402 0.45669 0.34315 0.0
H621 H 0.56658 0.37696 0.33457 0.0
H622 H 0.65164 0.40405 0.31667 0.0
H623 H 0.64184 0.35765 0.30859 0.0
H624 H 0.54923 0.319 0.4726 0.0
H625 H 0.51775 0.29839 0.41625 0.0
H626 H 0.53131 0.33392 0.42157 0.0
H627 H 0.52877 0.33569 0.24672 0.0
H628 H 0.51532 0.30018 0.24086 0.0
H629 H 0.54511 0.32216 0.17821 0.0
H630 H 0.6234 0.30888 0.30036 0.0
H631 H 0.59726 0.25998 0.29847 0.0
H632 H 0.52366 0.26334 0.32029 0.0
C633 C 0.58311 0.3731 0.32889 0.0
C634 C 0.60991 0.39426 0.32717 0.0
C635 C 0.63099 0.38833 0.32014 0.0
C636 C 0.62562 0.36197 0.31459 0.0
C637 C 0.59906 0.34167 0.31613 0.0
C638 C 0.57811 0.3468 0.32349 0.0
C639 C 0.5514 0.3211 0.32432 0.0
C640 C 0.53655 0.31792 0.41403 0.0
C641 C 0.53414 0.31971 0.24265 0.0
C642 C 0.56071 0.3008 0.31624 0.0
C643 C 0.58829 0.31321 0.31132 0.0
C644 C 0.60177 0.29889 0.30421 0.0
C645 C 0.5867 0.27108 0.30312 0.0
C646 C 0.55838 0.25776 0.3092 0.0
C647 C 0.54525 0.27292 0.31515 0.0
H648 H 0.66364 0.19709 0.36215 0.0
H649 H 0.63665 0.25216 0.28078 0.0
H650 H 0.68329 0.28793 0.26776 0.0
H651 H 0.71776 0.24298 0.49972 0.0
H652 H 0.74013 0.2309 0.4685 0.0
H653 H 0.70448 0.20874 0.46594 0.0
H654 H 0.70743 0.19777 0.29775 0.0
H655 H 0.74313 0.21985 0.29989 0.0
H656 H 0.72286 0.2245 0.21663 0.0
H657 H 0.73245 0.31865 0.27287 0.0
H658 H 0.78144 0.34209 0.29003 0.0
H659 H 0.77777 0.26785 0.36756 0.0
C660 C 0.66751 0.21661 0.34115 0.0
C661 C 0.64618 0.22153 0.32194 0.0
C662 C 0.65232 0.24747 0.2943 0.0
C663 C 0.67889 0.26811 0.28725 0.0
C664 C 0.69929 0.26263 0.30768 0.0
C665 C 0.69402 0.23753 0.33352 0.0
C666 C 0.71981 0.23729 0.35372 0.0
C667 C 0.72058 0.22952 0.45286 0.0
C668 C 0.72352 0.21875 0.28807 0.0
C669 C 0.74031 0.26628 0.33642 0.0
C670 C 0.72794 0.28047 0.30989 0.0
C671 C 0.74239 0.30772 0.29289 0.0
C672 C 0.77025 0.32088 0.30318 0.0
C673 C 0.78352 0.30685 0.32997 0.0
C674 C 0.76826 0.27911 0.34631 0.0
H675 H 0.44827 0.74324 0.6758 0.0
H676 H 0.52203 0.81217 0.59013 0.0
H677 H 0.49841 0.83776 0.57117 0.0
H678 H 0.40191 0.75566 0.52789 0.0
H679 H 0.37663 0.74471 0.61469 0.0
H680 H 0.39824 0.73045 0.6077 0.0
H681 H 0.41222 0.74347 0.7748 0.0
H682 H 0.39099 0.75808 0.78197 0.0
H683 H 0.42609 0.77775 0.80895 0.0
H684 H 0.46902 0.85754 0.58091 0.0
H685 H 0.4345 0.87001 0.6093 0.0
H686 H 0.37863 0.78858 0.6889 0.0
C687 C 0.45902 0.76337 0.64969 0.0
C688 C 0.48682 0.77575 0.63273 0.0
C689 C 0.50067 0.80243 0.60212 0.0
C690 C 0.48743 0.81705 0.59138 0.0
C691 C 0.46024 0.80471 0.61168 0.0
C692 C 0.44601 0.7784 0.63919 0.0
C693 C 0.41743 0.77082 0.66369 0.0
C694 C 0.39737 0.74912 0.59966 0.0
C695 C 0.41134 0.76202 0.76326 0.0
C696 C 0.41817 0.79717 0.64814 0.0
C697 C 0.44306 0.81634 0.61759 0.0
C698 C 0.4493 0.84262 0.6034 0.0
C699 C 0.42957 0.84955 0.62032 0.0
C700 C 0.4038 0.8303 0.65107 0.0
C701 C 0.39805 0.8037 0.6646 0.0
H702 H 0.19197 0.59475 0.70401 0.0
H703 H 0.26085 0.59231 0.59578 0.0
H704 H 0.28448 0.64093 0.57556 0.0
H705 H 0.19825 0.65047 0.56035 0.0
H706 H 0.18875 0.66488 0.65126 0.0
H707 H 0.17573 0.62938 0.64733 0.0
H708 H 0.19387 0.63083 0.80913 0.0
H709 H 0.20704 0.66628 0.81339 0.0
H710 H 0.22889 0.65273 0.83252 0.0
H711 H 0.30238 0.68965 0.57962 0.0
H712 H 0.31373 0.73584 0.60943 0.0
H713 H 0.23348 0.70777 0.71384 0.0
C714 C 0.21176 0.60446 0.67419 0.0
C715 C 0.22454 0.58978 0.65115 0.0
C716 C 0.25071 0.60318 0.61413 0.0
C717 C 0.26427 0.63079 0.60191 0.0
C718 C 0.25145 0.64482 0.6271 0.0
C719 C 0.22579 0.63221 0.6623 0.0
C720 C 0.2176 0.65239 0.69035 0.0
C721 C 0.19366 0.64908 0.63393 0.0
C722 C 0.2115 0.65044 0.7924 0.0
C723 C 0.24288 0.67818 0.66728 0.0
C724 C 0.26199 0.67329 0.62995 0.0
C725 C 0.28743 0.69381 0.60745 0.0
C726 C 0.29365 0.7201 0.62436 0.0
C727 C 0.27454 0.72576 0.66376 0.0
C728 C 0.24868 0.70434 0.68412 0.0
H729 H 0.43672 0.66119 0.66405 0.0
H730 H 0.46514 0.60563 0.60798 0.0
H731 H 0.41872 0.56906 0.59713 0.0
H732 H 0.38365 0.61858 0.8053 0.0
H733 H 0.36049 0.62894 0.76646 0.0
H734 H 0.39596 0.65163 0.76025 0.0
H735 H 0.39179 0.65769 0.58835 0.0
H736 H 0.35625 0.63492 0.59397 0.0
H737 H 0.37665 0.62884 0.51571 0.0
H738 H 0.37039 0.53786 0.60789 0.0
H739 H 0.32188 0.51348 0.64024 0.0
H740 H 0.32328 0.58817 0.68522 0.0
C741 C 0.43312 0.6414 0.64807 0.0
C742 C 0.4546 0.63631 0.63686 0.0
C743 C 0.44908 0.61007 0.61708 0.0
C744 C 0.42274 0.58913 0.61022 0.0
C745 C 0.40205 0.59468 0.62275 0.0
C746 C 0.4068 0.62012 0.64097 0.0
C747 C 0.38074 0.6201 0.65749 0.0
C748 C 0.38019 0.63042 0.75306 0.0
C749 C 0.37609 0.63635 0.58451 0.0
C750 C 0.3608 0.59059 0.64847 0.0
C751 C 0.37363 0.57641 0.62752 0.0
C752 C 0.36 0.54872 0.62266 0.0
C753 C 0.33257 0.53505 0.64127 0.0
C754 C 0.31906 0.54906 0.66386 0.0
C755 C 0.3332 0.57718 0.66573 0.0
H756 H 0.01421 0.21503 0.64495 0.0
H757 H 0.98789 0.1312 0.68517 0.0
H758 H 0.99367 0.12641 0.5223 0.0
H759 H 0.97926 0.20488 0.42783 0.0
H760 H 1.00493 0.23573 0.38004 0.0
H761 H 0.99935 0.23286 0.50053 0.0
H762 H 0.04933 0.24736 0.52601 0.0
H763 H 0.05491 0.24974 0.40546 0.0
H764 H 0.06319 0.22881 0.47287 0.0
H765 H 1.00434 0.13068 0.36097 0.0
H766 H 1.01064 0.14107 0.19892 0.0
H767 H 0.02696 0.22156 0.25396 0.0
C768 C 1.00944 0.19566 0.61886 0.0
C769 C 1.0006 0.17343 0.67727 0.0
C770 C 0.9944 0.14836 0.64131 0.0
C771 C 0.99791 0.14552 0.54917 0.0
C772 C 1.00716 0.16785 0.49368 0.0
C773 C 1.01213 0.19227 0.5261 0.0
C774 C 0.0202 0.21246 0.44957 0.0
C775 C 0.99971 0.22204 0.43887 0.0
C776 C 0.0486 0.23598 0.4644 0.0
C777 C 0.01928 0.19554 0.36944 0.0
C778 C 1.01214 0.17004 0.39763 0.0
C779 C 1.0097 0.15047 0.33778 0.0
C780 C 0.01341 0.15664 0.24585 0.0
C781 C 0.01917 0.18208 0.21389 0.0
C782 C 0.02292 0.2021 0.27669 0.0
H783 H 0.81562 0.82402 0.67225 0.0
H784 H 0.89991 0.85147 0.72195 0.0
H785 H 0.90955 0.86138 0.5612 0.0
H786 H 0.81328 0.7913 0.46001 0.0
H787 H 0.79043 0.79981 0.4057 0.0
H788 H 0.78969 0.79593 0.52686 0.0
H789 H 0.79638 0.84339 0.54629 0.0
H790 H 0.79751 0.84754 0.42509 0.0
H791 H 0.8248 0.87127 0.49417 0.0
H792 H 0.91138 0.86942 0.40098 0.0
H793 H 0.90433 0.86876 0.23747 0.0
H794 H 0.81862 0.83377 0.28013 0.0
C795 C 0.83601 0.83201 0.64878 0.0
C796 C 0.85698 0.83696 0.70974 0.0
C797 C 0.88343 0.84727 0.67674 0.0
C798 C 0.88924 0.85327 0.58551 0.0
C799 C 0.86837 0.84855 0.52747 0.0
C800 C 0.8422 0.83766 0.55654 0.0
C801 C 0.82361 0.83302 0.4769 0.0
C802 C 0.80304 0.80324 0.46677 0.0
C803 C 0.80976 0.84981 0.4862 0.0
C804 C 0.84359 0.84291 0.39927 0.0
C805 C 0.86928 0.85222 0.43127 0.0
C806 C 0.89137 0.86208 0.37457 0.0
C807 C 0.88711 0.86158 0.28171 0.0
C808 C 0.8609 0.85098 0.24609 0.0
C809 C 0.83886 0.84212 0.30569 0.0
H810 H 0.18637 0.99052 0.69235 0.0
H811 H 0.21836 0.07528 0.73723 0.0
H812 H 0.2238 0.08322 0.57377 0.0
H813 H 0.22876 0.99741 0.4926 0.0
H814 H 0.20207 0.96937 0.43457 0.0
H815 H 0.20319 0.97007 0.5566 0.0
H816 H 0.15516 0.96324 0.56106 0.0
H817 H 0.15394 0.96266 0.43922 0.0
H818 H 0.14795 0.98611 0.50085 0.0
H819 H 0.22237 0.08247 0.4114 0.0
H820 H 0.21455 0.07316 0.2494 0.0
H821 H 0.18347 0.98879 0.30051 0.0
C822 C 0.19491 0.01072 0.66735 0.0
C823 C 0.20189 0.03229 0.727 0.0
C824 C 0.21268 0.05846 0.69248 0.0
C825 C 0.21604 0.06324 0.59984 0.0
C826 C 0.20851 0.04163 0.54262 0.0
C827 C 0.19823 0.01589 0.57417 0.0
C828 C 0.1901 0.9963 0.49608 0.0
C829 C 0.20705 0.98248 0.49491 0.0
C830 C 0.16 0.97588 0.49954 0.0
C831 C 0.19678 0.01515 0.41641 0.0
C832 C 0.20761 0.04117 0.44577 0.0
C833 C 0.21415 0.06225 0.38707 0.0
C834 C 0.20938 0.05667 0.29527 0.0
C835 C 0.1982 0.03021 0.26287 0.0
C836 C 0.19215 0.00916 0.3239 0.0
H837 H 0.65429 0.49178 0.63167 0.0
H838 H 0.73994 0.54187 0.59008 0.0
H839 H 0.74715 0.54535 0.75408 0.0
H840 H 0.64983 0.52712 0.81778 0.0
H841 H 0.62569 0.49859 0.88095 0.0
H842 H 0.62665 0.49701 0.75934 0.0
H843 H 0.63261 0.45552 0.77028 0.0
H844 H 0.63138 0.45678 0.89206 0.0
H845 H 0.65954 0.45708 0.8375 0.0
H846 H 0.7456 0.54798 0.91539 0.0
H847 H 0.73596 0.54717 0.07632 0.0
H848 H 0.65113 0.49452 0.02388 0.0
C849 C 0.67453 0.50296 0.65759 0.0
C850 C 0.69657 0.51665 0.59869 0.0
C851 C 0.72278 0.53144 0.63428 0.0
C852 C 0.72713 0.53345 0.72724 0.0
C853 C 0.70505 0.52048 0.78366 0.0
C854 C 0.67928 0.5053 0.75114 0.0
C855 C 0.65925 0.4948 0.82848 0.0
C856 C 0.63917 0.505 0.82117 0.0
C857 C 0.64485 0.46422 0.8323 0.0
C858 C 0.67791 0.50712 0.90875 0.0
C859 C 0.70418 0.52174 0.88023 0.0
C860 C 0.7252 0.53633 0.93917 0.0
C861 C 0.71938 0.53589 0.03054 0.0
C862 C 0.69273 0.5208 0.06265 0.0
C863 C 0.67166 0.50606 0.00104 0.0
H864 H 0.48191 0.16611 0.63243 0.0
H865 H 0.56754 0.20993 0.58092 0.0
H866 H 0.57648 0.21323 0.74372 0.0
H867 H 0.48497 0.20344 0.8441 0.0
H868 H 0.4592 0.17408 0.89939 0.0
H869 H 0.45889 0.17715 0.77796 0.0
H870 H 0.45813 0.13219 0.76085 0.0
H871 H 0.45889 0.12921 0.88207 0.0
H872 H 0.48411 0.12797 0.81327 0.0
H873 H 0.57722 0.2071 0.9051 0.0
H874 H 0.56955 0.19755 0.0676 0.0
H875 H 0.48365 0.15987 0.02424 0.0
C876 C 0.50243 0.17696 0.656 0.0
C877 C 0.52404 0.18756 0.59433 0.0
C878 C 0.55069 0.20137 0.62711 0.0
C879 C 0.55604 0.20343 0.71946 0.0
C880 C 0.53452 0.19184 0.77852 0.0
C881 C 0.50823 0.17934 0.74912 0.0
C882 C 0.48916 0.16794 0.82884 0.0
C883 C 0.47204 0.18147 0.83812 0.0
C884 C 0.47153 0.13752 0.82073 0.0
C885 C 0.509 0.17552 0.90639 0.0
C886 C 0.535 0.18913 0.87493 0.0
C887 C 0.557 0.19688 0.93128 0.0
C888 C 0.55241 0.1911 0.02328 0.0
C889 C 0.52604 0.17801 0.05815 0.0
C890 C 0.504 0.17007 -0.00097 0.0
H891 H 0.85142 0.31064 0.66493 0.0
H892 H 0.88302 0.39481 0.60759 0.0
H893 H 0.89133 0.40516 0.76834 0.0
H894 H 0.81683 0.30959 0.86448 0.0
H895 H 0.82403 0.28709 0.9271 0.0
H896 H 0.82267 0.28567 0.80531 0.0
H897 H 0.8706 0.29222 0.80077 0.0
H898 H 0.87213 0.29372 0.92274 0.0
H899 H 0.89752 0.32059 0.85671 0.0
H900 H 0.89322 0.40719 0.93037 0.0
H901 H 0.88845 0.40053 0.09464 0.0
H902 H 0.85607 0.31541 0.05687 0.0
C903 C 0.86032 0.33118 0.68669 0.0
C904 C 0.86627 0.35184 0.62394 0.0
C905 C 0.87781 0.37854 0.65447 0.0
C906 C 0.88291 0.38475 0.7457 0.0
C907 C 0.87643 0.3641 0.80607 0.0
C908 C 0.86542 0.33785 0.77883 0.0
C909 C 0.85893 0.31964 0.86036 0.0
C910 C 0.82882 0.2993 0.86453 0.0
C911 C 0.8758 0.30572 0.86011 0.0
C912 C 0.86735 0.33985 0.93663 0.0
C913 C 0.87764 0.36534 0.90287 0.0
C914 C 0.88549 0.3874 0.95822 0.0
C915 C 0.88255 0.38338 0.05134 0.0
C916 C 0.87187 0.35748 0.08812 0.0
C917 C 0.86452 0.33544 0.03021 0.0
H918 H 0.32773 0.81474 0.38608 0.0
H919 H 0.35422 0.89839 0.43348 0.0
H920 H 0.35895 0.90682 0.27043 0.0
H921 H 0.37163 0.8242 0.20767 0.0
H922 H 0.34844 0.79649 0.13917 0.0
H923 H 0.34421 0.79547 0.26019 0.0
H924 H 0.29592 0.78713 0.24031 0.0
H925 H 0.29981 0.78766 0.11909 0.0
H926 H 0.29019 0.80973 0.17216 0.0
H927 H 0.36684 0.90831 0.10972 0.0
H928 H 0.37086 0.90152 0.9482 0.0
H929 H 0.33682 0.8165 -0.00571 0.0
C930 C 0.33381 0.83459 0.36155 0.0
C931 C 0.34084 0.85596 0.4223 0.0
C932 C 0.34905 0.88179 0.3882 0.0
C933 C 0.35177 0.88683 0.29564 0.0
C934 C 0.34589 0.86577 0.23765 0.0
C935 C 0.33652 0.84004 0.26821 0.0
C936 C 0.3325 0.82148 0.18948 0.0
C937 C 0.35026 0.80866 0.19979 0.0
C938 C 0.30283 0.80024 0.17968 0.0
C939 C 0.34174 0.84109 0.11108 0.0
C940 C 0.34952 0.86649 0.14143 0.0
C941 C 0.36039 0.88847 0.0844 0.0
C942 C 0.36285 0.8844 -0.00714 0.0
C943 C 0.35414 0.85848 0.95879 0.0
C944 C 0.34348 0.83649 0.0187 0.0
H945 H 0.23051 0.5341 0.00045 0.0
H946 H 0.14457 0.4902 0.95432 0.0
H947 H 0.13705 0.47922 0.1157 0.0
H948 H 0.233 0.49147 0.17581 0.0
H949 H 0.25746 0.51838 0.24429 0.0
H950 H 0.25703 0.52234 0.12331 0.0
H951 H 0.25267 0.56448 0.14542 0.0
H952 H 0.25348 0.56086 0.26634 0.0
H953 H 0.22596 0.56254 0.21461 0.0
H954 H 0.13789 0.47183 0.27669 0.0
H955 H 0.14643 0.47414 0.43973 0.0
H956 H 0.23168 0.52493 0.39199 0.0
C957 C 0.21017 0.52233 0.02484 0.0
C958 C 0.18813 0.51305 0.96488 0.0
C959 C 0.16176 0.49778 -0.00102 0.0
C960 C 0.15725 0.49116 0.09046 0.0
C961 C 0.17927 0.50024 0.14753 0.0
C962 C 0.20519 0.51596 0.11719 0.0
C963 C 0.22489 0.5244 0.19563 0.0
C964 C 0.24424 0.51349 0.18403 0.0
C965 C 0.24015 0.55488 0.20611 0.0
C966 C 0.20583 0.51096 0.27426 0.0
C967 C 0.17971 0.49678 0.24374 0.0
C968 C 0.15821 0.48294 0.30181 0.0
C969 C 0.16332 0.48441 0.39438 0.0
C970 C 0.1897 0.49986 0.42851 0.0
C971 C 0.21138 0.51277 0.36756 0.0
H972 H 0.53528 0.72804 0.35349 0.0
H973 H 0.52423 0.64933 0.41007 0.0
H974 H 0.51804 0.63858 0.24921 0.0
H975 H 0.48729 0.70739 0.16278 0.0
H976 H 0.50791 0.7368 0.09672 0.0
H977 H 0.50939 0.7384 0.21866 0.0
H978 H 0.56064 0.75693 0.21287 0.0
H979 H 0.55931 0.75542 0.09107 0.0
H980 H 0.57357 0.73854 0.15296 0.0
H981 H 0.51578 0.63621 0.08728 0.0
H982 H 0.51864 0.643 0.92299 0.0
H983 H 0.5313 0.723 0.96148 0.0
C984 C 0.53132 0.70855 0.33155 0.0
C985 C 0.53044 0.68965 0.39416 0.0
C986 C 0.52539 0.66434 0.36334 0.0
C987 C 0.52158 0.65785 0.27205 0.0
C988 C 0.52289 0.67684 0.2119 0.0
C989 C 0.52771 0.70171 0.23936 0.0
C990 C 0.52973 0.71869 0.15805 0.0
C991 C 0.50723 0.72573 0.15914 0.0
C992 C 0.55746 0.74388 0.1535 0.0
C993 C 0.52585 0.69953 0.08161 0.0
C994 C 0.52166 0.67547 0.11516 0.0
C995 C 0.51881 0.65485 0.05961 0.0
C996 C 0.52061 0.65897 0.96648 0.0
C997 C 0.52522 0.68351 0.92994 0.0
C998 C 0.52748 0.70396 -0.01197 0.0
loop_
_geom_bond_atom_site_label_1
_geom_bond_atom_site_label_2
_geom_bond_distance
_geom_bond_site_symmetry_2
_ccdc_geom_bond_type
Co0 N5 2.057 . S
Co0 O17 2.021 1_554 S
Co0 O20 2.062 1_654 S
Co0 O24 2.117 1_655 S
Co0 O25 2.020 . S
C1 O21 1.259 . S
C1 O24 1.258 . S
Co2 N11 2.057 1_554 S
Co2 O18 2.117 1_554 S
Co2 O19 2.020 1_554 S
Co2 O21 2.021 . S
Co2 O26 2.062 . S
C3 N5 1.316 1_556 S
C3 N6 1.347 1_556 S
C3 H8 0.931 . S
C4 N5 1.375 . S
C4 C7 1.350 . S
C4 H9 0.930 . S
N5 Co0 2.057 . S
N5 C3 1.316 1_554 S
N5 C4 1.375 . S
N6 C3 1.347 1_554 S
N6 C7 1.373 . S
C7 C4 1.350 . S
C7 N6 1.373 . S
C7 H28 0.931 . S
H8 C3 0.931 . S
H9 C4 0.930 . S
C10 O17 1.259 1_455 S
C10 O18 1.258 . S
N11 Co2 2.057 1_556 S
N11 C12 1.316 1_556 S
N11 C13 1.375 . S
C12 N11 1.316 1_554 S
C12 N14 1.347 1_554 S
C12 H23 0.931 . S
C13 N11 1.375 . S
C13 C15 1.350 . S
C13 H22 0.930 . S
N14 C12 1.347 1_556 S
N14 C15 1.373 . S
C15 C13 1.350 . S
C15 N14 1.373 . S
C15 H29 0.931 . S
C16 O19 1.256 . S
C16 O20 1.255 . S
O17 Co0 2.021 1_556 S
O17 C10 1.259 1_655 S
O18 Co2 2.117 1_556 S
O18 C10 1.258 . S
O19 Co2 2.020 1_556 S
O19 C16 1.256 . S
O20 Co0 2.062 1_456 S
O20 C16 1.255 . S
O21 C1 1.259 . S
O21 Co2 2.021 . S
H22 C13 0.930 . S
H23 C12 0.931 . S
O24 Co0 2.117 1_455 S
O24 C1 1.258 . S
O25 Co0 2.020 . S
O25 C27 1.256 . S
O26 Co2 2.062 . S
O26 C27 1.255 1_455 S
C27 O25 1.256 . S
C27 O26 1.255 1_655 S
H28 C7 0.931 . S
H29 C15 0.931 . S
Co30 N35 2.057 . S
Co30 O47 2.021 1_554 S
Co30 O50 2.062 1_554 S
Co30 O54 2.117 . S
Co30 O55 2.020 . S
C31 O51 1.259 . S
C31 O54 1.258 . S
Co32 N41 2.057 1_554 S
Co32 O48 2.117 1_554 S
Co32 O49 2.020 1_554 S
Co32 O51 2.021 . S
Co32 O56 2.062 . S
C33 N35 1.316 1_556 S
C33 N36 1.347 1_556 S
C33 H38 0.931 . S
C34 N35 1.375 . S
C34 C37 1.350 . S
C34 H39 0.930 . S
N35 Co30 2.057 . S
N35 C33 1.316 1_554 S
N35 C34 1.375 . S
N36 C33 1.347 1_554 S
N36 C37 1.373 . S
C37 C34 1.350 . S
C37 N36 1.373 . S
C37 H58 0.931 . S
H38 C33 0.931 . S
H39 C34 0.930 . S
C40 O47 1.259 . S
C40 O48 1.258 . S
N41 Co32 2.057 1_556 S
N41 C42 1.316 1_556 S
N41 C43 1.375 . S
C42 N41 1.316 1_554 S
C42 N44 1.347 1_554 S
C42 H53 0.931 . S
C43 N41 1.375 . S
C43 C45 1.350 . S
C43 H52 0.930 . S
N44 C42 1.347 1_556 S
N44 C45 1.373 . S
C45 C43 1.350 . S
C45 N44 1.373 . S
C45 H59 0.931 . S
C46 O49 1.256 . S
C46 O50 1.255 . S
O47 Co30 2.021 1_556 S
O47 C40 1.259 . S
O48 Co32 2.117 1_556 S
O48 C40 1.258 . S
O49 Co32 2.020 1_556 S
O49 C46 1.256 . S
O50 Co30 2.062 1_556 S
O50 C46 1.255 . S
O51 C31 1.259 . S
O51 Co32 2.021 . S
H52 C43 0.930 . S
H53 C42 0.931 . S
O54 Co30 2.117 . S
O54 C31 1.258 . S
O55 Co30 2.020 . S
O55 C57 1.256 . S
O56 Co32 2.062 . S
O56 C57 1.255 . S
C57 O55 1.256 . S
C57 O56 1.255 . S
H58 C37 0.931 . S
H59 C45 0.931 . S
Co60 N65 2.057 . S
Co60 O77 2.021 1_554 S
Co60 O80 2.062 1_554 S
Co60 O84 2.117 . S
Co60 O85 2.020 . S
C61 O81 1.259 1_545 S
C61 O84 1.258 . S
Co62 N71 2.057 1_554 S
Co62 O78 2.117 1_564 S
Co62 O79 2.020 1_554 S
Co62 O81 2.021 . S
Co62 O86 2.062 1_565 S
C63 N65 1.316 1_556 S
C63 N66 1.347 1_556 S
C63 H68 0.931 . S
C64 N65 1.375 . S
C64 C67 1.350 . S
C64 H69 0.930 . S
N65 Co60 2.057 . S
N65 C63 1.316 1_554 S
N65 C64 1.375 . S
N66 C63 1.347 1_554 S
N66 C67 1.373 . S
C67 C64 1.350 . S
C67 N66 1.373 . S
C67 H88 0.931 . S
H68 C63 0.931 . S
H69 C64 0.930 . S
C70 O77 1.259 . S
C70 O78 1.258 . S
N71 Co62 2.057 1_556 S
N71 C72 1.316 1_556 S
N71 C73 1.375 . S
C72 N71 1.316 1_554 S
C72 N74 1.347 1_554 S
C72 H83 0.931 . S
C73 N71 1.375 . S
C73 C75 1.350 . S
C73 H82 0.930 . S
N74 C72 1.347 1_556 S
N74 C75 1.373 . S
C75 C73 1.350 . S
C75 N74 1.373 . S
C75 H89 0.931 . S
C76 O79 1.256 . S
C76 O80 1.255 1_565 S
O77 Co60 2.021 1_556 S
O77 C70 1.259 . S
O78 Co62 2.117 1_546 S
O78 C70 1.258 . S
O79 Co62 2.020 1_556 S
O79 C76 1.256 . S
O80 Co60 2.062 1_556 S
O80 C76 1.255 1_545 S
O81 C61 1.259 1_565 S
O81 Co62 2.021 . S
H82 C73 0.930 . S
H83 C72 0.931 . S
O84 Co60 2.117 . S
O84 C61 1.258 . S
O85 Co60 2.020 . S
O85 C87 1.256 . S
O86 Co62 2.062 1_545 S
O86 C87 1.255 . S
C87 O85 1.256 . S
C87 O86 1.255 . S
H88 C67 0.931 . S
H89 C75 0.931 . S
Co90 N95 2.057 . S
Co90 O107 2.021 . S
Co90 O110 2.062 . S
Co90 O114 2.117 . S
Co90 O115 2.020 . S
C91 O111 1.259 . S
C91 O114 1.258 . S
Co92 N101 2.057 . S
Co92 O108 2.117 . S
Co92 O109 2.020 . S
Co92 O111 2.021 . S
Co92 O116 2.062 . S
C93 N95 1.316 . S
C93 N96 1.347 . S
C93 H98 0.931 . S
C94 N95 1.375 . S
C94 C97 1.350 . S
C94 H99 0.930 . S
N95 Co90 2.057 . S
N95 C93 1.316 . S
N95 C94 1.375 . S
N96 C93 1.347 . S
N96 C97 1.373 . S
C97 C94 1.350 . S
C97 N96 1.373 . S
C97 H118 0.931 . S
H98 C93 0.931 . S
H99 C94 0.930 . S
C100 O107 1.259 . S
C100 O108 1.258 . S
N101 Co92 2.057 . S
N101 C102 1.316 . S
N101 C103 1.375 . S
C102 N101 1.316 . S
C102 N104 1.347 . S
C102 H113 0.931 . S
C103 N101 1.375 . S
C103 C105 1.350 . S
C103 H112 0.930 . S
N104 C102 1.347 . S
N104 C105 1.373 . S
C105 C103 1.350 . S
C105 N104 1.373 . S
C105 H119 0.931 . S
C106 O109 1.256 . S
C106 O110 1.255 . S
O107 Co90 2.021 . S
O107 C100 1.259 . S
O108 Co92 2.117 . S
O108 C100 1.258 . S
O109 Co92 2.020 . S
O109 C106 1.256 . S
O110 Co90 2.062 . S
O110 C106 1.255 . S
O111 C91 1.259 . S
O111 Co92 2.021 . S
H112 C103 0.930 . S
H113 C102 0.931 . S
O114 Co90 2.117 . S
O114 C91 1.258 . S
O115 Co90 2.020 . S
O115 C117 1.256 . S
O116 Co92 2.062 . S
O116 C117 1.255 . S
C117 O115 1.256 . S
C117 O116 1.255 . S
H118 C97 0.931 . S
H119 C105 0.931 . S
Co120 N125 2.057 . S
Co120 O137 2.021 . S
Co120 O140 2.062 . S
Co120 O144 2.117 . S
Co120 O145 2.020 . S
C121 O141 1.259 . S
C121 O144 1.258 . S
Co122 N131 2.057 . S
Co122 O138 2.117 . S
Co122 O139 2.020 . S
Co122 O141 2.021 . S
Co122 O146 2.062 . S
C123 N125 1.316 . S
C123 N126 1.347 . S
C123 H128 0.931 . S
C124 N125 1.375 . S
C124 C127 1.350 . S
C124 H129 0.930 . S
N125 Co120 2.057 . S
N125 C123 1.316 . S
N125 C124 1.375 . S
N126 C123 1.347 . S
N126 C127 1.373 . S
C127 C124 1.350 . S
C127 N126 1.373 . S
C127 H148 0.931 . S
H128 C123 0.931 . S
H129 C124 0.930 . S
C130 O137 1.259 . S
C130 O138 1.258 . S
N131 Co122 2.057 . S
N131 C132 1.316 . S
N131 C133 1.375 . S
C132 N131 1.316 . S
C132 N134 1.347 . S
C132 H143 0.931 . S
C133 N131 1.375 . S
C133 C135 1.350 . S
C133 H142 0.930 . S
N134 C132 1.347 . S
N134 C135 1.373 . S
C135 C133 1.350 . S
C135 N134 1.373 . S
C135 H149 0.931 . S
C136 O139 1.256 . S
C136 O140 1.255 . S
O137 Co120 2.021 . S
O137 C130 1.259 . S
O138 Co122 2.117 . S
O138 C130 1.258 . S
O139 Co122 2.020 . S
O139 C136 1.256 . S
O140 Co120 2.062 . S
O140 C136 1.255 . S
O141 C121 1.259 . S
O141 Co122 2.021 . S
H142 C133 0.930 . S
H143 C132 0.931 . S
O144 Co120 2.117 . S
O144 C121 1.258 . S
O145 Co120 2.020 . S
O145 C147 1.256 . S
O146 Co122 2.062 . S
O146 C147 1.255 . S
C147 O145 1.256 . S
C147 O146 1.255 . S
H148 C127 0.931 . S
H149 C135 0.931 . S
Co150 N155 2.057 . S
Co150 O167 2.021 . S
Co150 O170 2.062 . S
Co150 O174 2.117 . S
Co150 O175 2.020 . S
C151 O171 1.259 . S
C151 O174 1.258 . S
Co152 N161 2.057 . S
Co152 O168 2.117 . S
Co152 O169 2.020 . S
Co152 O171 2.021 . S
Co152 O176 2.062 . S
C153 N155 1.316 . S
C153 N156 1.347 . S
C153 H158 0.931 . S
C154 N155 1.375 . S
C154 C157 1.350 . S
C154 H159 0.930 . S
N155 Co150 2.057 . S
N155 C153 1.316 . S
N155 C154 1.375 . S
N156 C153 1.347 . S
N156 C157 1.373 . S
C157 C154 1.350 . S
C157 N156 1.373 . S
C157 H178 0.931 . S
H158 C153 0.931 . S
H159 C154 0.930 . S
C160 O167 1.259 . S
C160 O168 1.258 . S
N161 Co152 2.057 . S
N161 C162 1.316 . S
N161 C163 1.375 . S
C162 N161 1.316 . S
C162 N164 1.347 . S
C162 H173 0.931 . S
C163 N161 1.375 . S
C163 C165 1.350 . S
C163 H172 0.930 . S
N164 C162 1.347 . S
N164 C165 1.373 . S
C165 C163 1.350 . S
C165 N164 1.373 . S
C165 H179 0.931 . S
C166 O169 1.256 . S
C166 O170 1.255 . S
O167 Co150 2.021 . S
O167 C160 1.259 . S
O168 Co152 2.117 . S
O168 C160 1.258 . S
O169 Co152 2.020 . S
O169 C166 1.256 . S
O170 Co150 2.062 . S
O170 C166 1.255 . S
O171 C151 1.259 . S
O171 Co152 2.021 . S
H172 C163 0.930 . S
H173 C162 0.931 . S
O174 Co150 2.117 . S
O174 C151 1.258 . S
O175 Co150 2.020 . S
O175 C177 1.256 . S
O176 Co152 2.062 . S
O176 C177 1.255 . S
C177 O175 1.256 . S
C177 O176 1.255 . S
H178 C157 0.931 . S
H179 C165 0.931 . S
Co180 N185 2.057 . S
Co180 O197 2.021 . S
Co180 O200 2.062 . S
Co180 O204 2.117 . S
Co180 O205 2.020 . S
C181 O201 1.259 . S
C181 O204 1.258 . S
Co182 N191 2.057 . S
Co182 O198 2.117 . S
Co182 O199 2.020 . S
Co182 O201 2.021 . S
Co182 O206 2.062 . S
C183 N185 1.316 . S
C183 N186 1.347 . S
C183 H188 0.931 . S
C184 N185 1.375 . S
C184 C187 1.350 . S
C184 H189 0.930 . S
N185 Co180 2.057 . S
N185 C183 1.316 . S
N185 C184 1.375 . S
N186 C183 1.347 . S
N186 C187 1.373 . S
C187 C184 1.350 . S
C187 N186 1.373 . S
C187 H208 0.931 . S
H188 C183 0.931 . S
H189 C184 0.930 . S
C190 O197 1.259 . S
C190 O198 1.258 . S
N191 Co182 2.057 . S
N191 C192 1.316 . S
N191 C193 1.375 . S
C192 N191 1.316 . S
C192 N194 1.347 . S
C192 H203 0.931 . S
C193 N191 1.375 . S
C193 C195 1.350 . S
C193 H202 0.930 . S
N194 C192 1.347 . S
N194 C195 1.373 . S
C195 C193 1.350 . S
C195 N194 1.373 . S
C195 H209 0.931 . S
C196 O199 1.256 . S
C196 O200 1.255 . S
O197 Co180 2.021 . S
O197 C190 1.259 . S
O198 Co182 2.117 . S
O198 C190 1.258 . S
O199 Co182 2.020 . S
O199 C196 1.256 . S
O200 Co180 2.062 . S
O200 C196 1.255 . S
O201 C181 1.259 . S
O201 Co182 2.021 . S
H202 C193 0.930 . S
H203 C192 0.931 . S
O204 Co180 2.117 . S
O204 C181 1.258 . S
O205 Co180 2.020 . S
O205 C207 1.256 . S
O206 Co182 2.062 . S
O206 C207 1.255 . S
C207 O205 1.256 . S
C207 O206 1.255 . S
H208 C187 0.931 . S
H209 C195 0.931 . S
Co210 N215 2.057 . S
Co210 O227 2.021 . S
Co210 O230 2.062 . S
Co210 O234 2.117 . S
Co210 O235 2.020 . S
C211 O231 1.259 . S
C211 O234 1.258 . S
Co212 N221 2.057 . S
Co212 O228 2.117 . S
Co212 O229 2.020 . S
Co212 O231 2.021 . S
Co212 O236 2.062 . S
C213 N215 1.316 . S
C213 N216 1.347 . S
C213 H218 0.931 . S
C214 N215 1.375 . S
C214 C217 1.350 . S
C214 H219 0.930 . S
N215 Co210 2.057 . S
N215 C213 1.316 . S
N215 C214 1.375 . S
N216 C213 1.347 . S
N216 C217 1.373 . S
C217 C214 1.350 . S
C217 N216 1.373 . S
C217 H238 0.931 . S
H218 C213 0.931 . S
H219 C214 0.930 . S
C220 O227 1.259 . S
C220 O228 1.258 . S
N221 Co212 2.057 . S
N221 C222 1.316 . S
N221 C223 1.375 . S
C222 N221 1.316 . S
C222 N224 1.347 . S
C222 H233 0.931 . S
C223 N221 1.375 . S
C223 C225 1.350 . S
C223 H232 0.930 . S
N224 C222 1.347 . S
N224 C225 1.373 . S
C225 C223 1.350 . S
C225 N224 1.373 . S
C225 H239 0.931 . S
C226 O229 1.256 . S
C226 O230 1.255 . S
O227 Co210 2.021 . S
O227 C220 1.259 . S
O228 Co212 2.117 . S
O228 C220 1.258 . S
O229 Co212 2.020 . S
O229 C226 1.256 . S
O230 Co210 2.062 . S
O230 C226 1.255 . S
O231 C211 1.259 . S
O231 Co212 2.021 . S
H232 C223 0.930 . S
H233 C222 0.931 . S
O234 Co210 2.117 . S
O234 C211 1.258 . S
O235 Co210 2.020 . S
O235 C237 1.256 . S
O236 Co212 2.062 . S
O236 C237 1.255 . S
C237 O235 1.256 . S
C237 O236 1.255 . S
H238 C217 0.931 . S
H239 C225 0.931 . S
Co240 N245 2.057 . S
Co240 O257 2.021 . S
Co240 O260 2.062 . S
Co240 O264 2.117 . S
Co240 O265 2.020 . S
C241 O261 1.259 . S
C241 O264 1.258 . S
Co242 N251 2.057 . S
Co242 O258 2.117 . S
Co242 O259 2.020 . S
Co242 O261 2.021 . S
Co242 O266 2.062 . S
C243 N245 1.316 . S
C243 N246 1.347 . S
C243 H248 0.931 . S
C244 N245 1.375 . S
C244 C247 1.350 . S
C244 H249 0.930 . S
N245 Co240 2.057 . S
N245 C243 1.316 . S
N245 C244 1.375 . S
N246 C243 1.347 . S
N246 C247 1.373 . S
C247 C244 1.350 . S
C247 N246 1.373 . S
C247 H268 0.931 . S
H248 C243 0.931 . S
H249 C244 0.930 . S
C250 O257 1.259 . S
C250 O258 1.258 . S
N251 Co242 2.057 . S
N251 C252 1.316 . S
N251 C253 1.375 . S
C252 N251 1.316 . S
C252 N254 1.347 . S
C252 H263 0.931 . S
C253 N251 1.375 . S
C253 C255 1.350 . S
C253 H262 0.930 . S
N254 C252 1.347 . S
N254 C255 1.373 . S
C255 C253 1.350 . S
C255 N254 1.373 . S
C255 H269 0.931 . S
C256 O259 1.256 . S
C256 O260 1.255 . S
O257 Co240 2.021 . S
O257 C250 1.259 . S
O258 Co242 2.117 . S
O258 C250 1.258 . S
O259 Co242 2.020 . S
O259 C256 1.256 . S
O260 Co240 2.062 . S
O260 C256 1.255 . S
O261 C241 1.259 . S
O261 Co242 2.021 . S
H262 C253 0.930 . S
H263 C252 0.931 . S
O264 Co240 2.117 . S
O264 C241 1.258 . S
O265 Co240 2.020 . S
O265 C267 1.256 . S
O266 Co242 2.062 . S
O266 C267 1.255 . S
C267 O265 1.256 . S
C267 O266 1.255 . S
H268 C247 0.931 . S
H269 C255 0.931 . S
H270 C282 0.930 1_554 S
H271 C284 0.930 . S
H272 C285 0.930 . S
H273 C289 0.959 . S
H274 C289 0.959 . S
H275 C289 0.961 1_554 S
H276 C290 0.960 . S
H277 C290 0.961 . S
H278 C290 0.959 1_556 S
H279 C293 0.929 . S
H280 C294 0.931 . S
H281 C296 0.930 . S
C282 H270 0.930 1_556 S
C282 C283 1.399 . S
C282 C287 1.399 . S
C283 C282 1.399 . S
C283 C284 1.376 . S
C284 H271 0.930 . S
C284 C283 1.376 . S
C284 C285 1.388 . S
C285 H272 0.930 . S
C285 C284 1.388 . S
C285 C286 1.390 . S
C286 C285 1.390 . S
C286 C287 1.394 . S
C286 C292 1.465 . S
C287 C282 1.399 . S
C287 C286 1.394 . S
C287 C288 1.516 . S
C288 C287 1.516 . S
C288 C289 1.502 . S
C288 C290 1.561 1_556 S
C288 C291 1.526 . S
C289 H273 0.959 . S
C289 H274 0.959 . S
C289 H275 0.961 1_556 S
C289 C288 1.502 . S
C290 H276 0.960 . S
C290 H277 0.961 . S
C290 H278 0.959 1_554 S
C290 C288 1.561 1_554 S
C291 C288 1.526 . S
C291 C292 1.396 . S
C291 C296 1.390 . S
C292 C286 1.465 . S
C292 C291 1.396 . S
C292 C293 1.399 . S
C293 H279 0.929 . S
C293 C292 1.399 . S
C293 C294 1.385 . S
C294 H280 0.931 . S
C294 C293 1.385 . S
C294 C295 1.389 . S
C295 C294 1.389 . S
C295 C296 1.387 . S
C296 H281 0.930 . S
C296 C291 1.390 . S
C296 C295 1.387 . S
H297 C309 0.930 . S
H298 C311 0.930 . S
H299 C312 0.930 . S
H300 C316 0.959 . S
H301 C316 0.959 . S
H302 C316 0.961 . S
H303 C317 0.960 1_554 S
H304 C317 0.961 . S
H305 C317 0.959 . S
H306 C320 0.929 . S
H307 C321 0.931 . S
H308 C323 0.930 . S
C309 H297 0.930 . S
C309 C310 1.399 . S
C309 C314 1.399 . S
C310 C309 1.399 . S
C310 C311 1.376 . S
C311 H298 0.930 . S
C311 C310 1.376 . S
C311 C312 1.388 . S
C312 H299 0.930 . S
C312 C311 1.388 . S
C312 C313 1.390 . S
C313 C312 1.390 . S
C313 C314 1.394 . S
C313 C319 1.465 . S
C314 C309 1.399 . S
C314 C313 1.394 . S
C314 C315 1.516 . S
C315 C314 1.516 . S
C315 C316 1.502 . S
C315 C317 1.561 . S
C315 C318 1.526 . S
C316 H300 0.959 . S
C316 H301 0.959 . S
C316 H302 0.961 . S
C316 C315 1.502 . S
C317 H303 0.960 1_556 S
C317 H304 0.961 . S
C317 H305 0.959 . S
C317 C315 1.561 . S
C318 C315 1.526 . S
C318 C319 1.396 . S
C318 C323 1.390 . S
C319 C313 1.465 . S
C319 C318 1.396 . S
C319 C320 1.399 . S
C320 H306 0.929 . S
C320 C319 1.399 . S
C320 C321 1.385 . S
C321 H307 0.931 . S
C321 C320 1.385 . S
C321 C322 1.389 . S
C322 C321 1.389 . S
C322 C323 1.387 . S
C323 H308 0.930 . S
C323 C318 1.390 . S
C323 C322 1.387 . S
H324 C336 0.930 . S
H325 C338 0.930 . S
H326 C339 0.930 . S
H327 C343 0.959 . S
H328 C343 0.959 . S
H329 C343 0.961 . S
H330 C344 0.960 . S
H331 C344 0.961 . S
H332 C344 0.959 . S
H333 C347 0.929 . S
H334 C348 0.931 . S
H335 C350 0.930 . S
C336 H324 0.930 . S
C336 C337 1.399 . S
C336 C341 1.399 . S
C337 C336 1.399 . S
C337 C338 1.376 1_556 S
C338 H325 0.930 . S
C338 C337 1.376 1_554 S
C338 C339 1.388 1_554 S
C339 H326 0.930 . S
C339 C338 1.388 1_556 S
C339 C340 1.390 . S
C340 C339 1.390 . S
C340 C341 1.394 . S
C340 C346 1.465 . S
C341 C336 1.399 . S
C341 C340 1.394 . S
C341 C342 1.516 . S
C342 C341 1.516 . S
C342 C343 1.502 . S
C342 C344 1.561 . S
C342 C345 1.526 . S
C343 H327 0.959 . S
C343 H328 0.959 . S
C343 H329 0.961 . S
C343 C342 1.502 . S
C344 H330 0.960 . S
C344 H331 0.961 . S
C344 H332 0.959 . S
C344 C342 1.561 . S
C345 C342 1.526 . S
C345 C346 1.396 . S
C345 C350 1.390 . S
C346 C340 1.465 . S
C346 C345 1.396 . S
C346 C347 1.399 . S
C347 H333 0.929 . S
C347 C346 1.399 . S
C347 C348 1.385 . S
C348 H334 0.931 . S
C348 C347 1.385 . S
C348 C349 1.389 . S
C349 C348 1.389 . S
C349 C350 1.387 . S
C350 H335 0.930 . S
C350 C345 1.390 . S
C350 C349 1.387 . S
H351 C363 0.930 . S
H352 C365 0.930 . S
H353 C366 0.930 . S
H354 C370 0.959 . S
H355 C370 0.959 . S
H356 C370 0.961 . S
H357 C371 0.960 . S
H358 C371 0.961 . S
H359 C371 0.959 . S
H360 C374 0.929 . S
H361 C375 0.931 . S
H362 C377 0.930 . S
C363 H351 0.930 . S
C363 C364 1.399 . S
C363 C368 1.399 . S
C364 C363 1.399 . S
C364 C365 1.376 . S
C365 H352 0.930 . S
C365 C364 1.376 . S
C365 C366 1.388 . S
C366 H353 0.930 . S
C366 C365 1.388 . S
C366 C367 1.390 . S
C367 C366 1.390 . S
C367 C368 1.394 . S
C367 C373 1.465 . S
C368 C363 1.399 . S
C368 C367 1.394 . S
C368 C369 1.516 . S
C369 C368 1.516 . S
C369 C370 1.502 . S
C369 C371 1.561 . S
C369 C372 1.526 . S
C370 H354 0.959 . S
C370 H355 0.959 . S
C370 H356 0.961 . S
C370 C369 1.502 . S
C371 H357 0.960 . S
C371 H358 0.961 . S
C371 H359 0.959 . S
C371 C369 1.561 . S
C372 C369 1.526 . S
C372 C373 1.396 . S
C372 C377 1.390 . S
C373 C367 1.465 . S
C373 C372 1.396 . S
C373 C374 1.399 . S
C374 H360 0.929 . S
C374 C373 1.399 . S
C374 C375 1.385 . S
C375 H361 0.931 . S
C375 C374 1.385 . S
C375 C376 1.389 . S
C376 C375 1.389 . S
C376 C377 1.387 . S
C377 H362 0.930 . S
C377 C372 1.390 . S
C377 C376 1.387 . S
H378 C390 0.930 . S
H379 C392 0.930 . S
H380 C393 0.930 . S
H381 C397 0.959 . S
H382 C397 0.959 . S
H383 C397 0.961 . S
H384 C398 0.960 . S
H385 C398 0.961 . S
H386 C398 0.959 . S
H387 C401 0.929 . S
H388 C402 0.931 . S
H389 C404 0.930 . S
C390 H378 0.930 . S
C390 C391 1.399 . S
C390 C395 1.399 . S
C391 C390 1.399 . S
C391 C392 1.376 . S
C392 H379 0.930 . S
C392 C391 1.376 . S
C392 C393 1.388 . S
C393 H380 0.930 . S
C393 C392 1.388 . S
C393 C394 1.390 . S
C394 C393 1.390 . S
C394 C395 1.394 . S
C394 C400 1.465 . S
C395 C390 1.399 . S
C395 C394 1.394 . S
C395 C396 1.516 . S
C396 C395 1.516 . S
C396 C397 1.502 . S
C396 C398 1.561 . S
C396 C399 1.526 . S
C397 H381 0.959 . S
C397 H382 0.959 . S
C397 H383 0.961 . S
C397 C396 1.502 . S
C398 H384 0.960 . S
C398 H385 0.961 . S
C398 H386 0.959 . S
C398 C396 1.561 . S
C399 C396 1.526 . S
C399 C400 1.396 . S
C399 C404 1.390 . S
C400 C394 1.465 . S
C400 C399 1.396 . S
C400 C401 1.399 . S
C401 H387 0.929 . S
C401 C400 1.399 . S
C401 C402 1.385 . S
C402 H388 0.931 . S
C402 C401 1.385 . S
C402 C403 1.389 . S
C403 C402 1.389 . S
C403 C404 1.387 . S
C404 H389 0.930 . S
C404 C399 1.390 . S
C404 C403 1.387 . S
H405 C417 0.930 1_556 S
H406 C419 0.930 . S
H407 C420 0.930 . S
H408 C424 0.959 . S
H409 C424 0.959 . S
H410 C424 0.961 1_556 S
H411 C425 0.960 1_556 S
H412 C425 0.961 . S
H413 C425 0.959 . S
H414 C428 0.929 . S
H415 C429 0.931 . S
H416 C431 0.930 . S
C417 H405 0.930 1_554 S
C417 C418 1.399 . S
C417 C422 1.399 . S
C418 C417 1.399 . S
C418 C419 1.376 . S
C419 H406 0.930 . S
C419 C418 1.376 . S
C419 C420 1.388 . S
C420 H407 0.930 . S
C420 C419 1.388 . S
C420 C421 1.390 . S
C421 C420 1.390 . S
C421 C422 1.394 . S
C421 C427 1.465 . S
C422 C417 1.399 . S
C422 C421 1.394 . S
C422 C423 1.516 . S
C423 C422 1.516 . S
C423 C424 1.502 . S
C423 C425 1.561 . S
C423 C426 1.526 . S
C424 H408 0.959 . S
C424 H409 0.959 . S
C424 H410 0.961 1_554 S
C424 C423 1.502 . S
C425 H411 0.960 1_554 S
C425 H412 0.961 . S
C425 H413 0.959 . S
C425 C423 1.561 . S
C426 C423 1.526 . S
C426 C427 1.396 . S
C426 C431 1.390 . S
C427 C421 1.465 . S
C427 C426 1.396 . S
C427 C428 1.399 . S
C428 H414 0.929 . S
C428 C427 1.399 . S
C428 C429 1.385 . S
C429 H415 0.931 . S
C429 C428 1.385 . S
C429 C430 1.389 . S
C430 C429 1.389 . S
C430 C431 1.387 . S
C431 H416 0.930 . S
C431 C426 1.390 . S
C431 C430 1.387 . S
H432 C444 0.930 . S
H433 C446 0.930 . S
H434 C447 0.930 . S
H435 C451 0.959 . S
H436 C451 0.959 . S
H437 C451 0.961 . S
H438 C452 0.960 1_455 S
H439 C452 0.961 . S
H440 C452 0.959 1_455 S
H441 C455 0.929 . S
H442 C456 0.931 . S
H443 C458 0.930 . S
C444 H432 0.930 . S
C444 C445 1.399 . S
C444 C449 1.399 . S
C445 C444 1.399 . S
C445 C446 1.376 . S
C446 H433 0.930 . S
C446 C445 1.376 . S
C446 C447 1.388 . S
C447 H434 0.930 . S
C447 C446 1.388 . S
C447 C448 1.390 1_455 S
C448 C447 1.390 1_655 S
C448 C449 1.394 1_655 S
C448 C454 1.465 . S
C449 C444 1.399 . S
C449 C448 1.394 1_455 S
C449 C450 1.516 1_455 S
C450 C449 1.516 1_655 S
C450 C451 1.502 . S
C450 C452 1.561 . S
C450 C453 1.526 . S
C451 H435 0.959 . S
C451 H436 0.959 . S
C451 H437 0.961 . S
C451 C450 1.502 . S
C452 H438 0.960 1_655 S
C452 H439 0.961 . S
C452 H440 0.959 1_655 S
C452 C450 1.561 . S
C453 C450 1.526 . S
C453 C454 1.396 . S
C453 C458 1.390 . S
C454 C448 1.465 . S
C454 C453 1.396 . S
C454 C455 1.399 . S
C455 H441 0.929 . S
C455 C454 1.399 . S
C455 C456 1.385 . S
C456 H442 0.931 . S
C456 C455 1.385 . S
C456 C457 1.389 . S
C457 C456 1.389 . S
C457 C458 1.387 . S
C458 H443 0.930 . S
C458 C453 1.390 . S
C458 C457 1.387 . S
H459 C471 0.930 . S
H460 C473 0.930 . S
H461 C474 0.930 . S
H462 C478 0.959 . S
H463 C478 0.959 . S
H464 C478 0.961 . S
H465 C479 0.960 . S
H466 C479 0.961 . S
H467 C479 0.959 . S
H468 C482 0.929 . S
H469 C483 0.931 . S
H470 C485 0.930 . S
C471 H459 0.930 . S
C471 C472 1.399 . S
C471 C476 1.399 . S
C472 C471 1.399 . S
C472 C473 1.376 . S
C473 H460 0.930 . S
C473 C472 1.376 . S
C473 C474 1.388 . S
C474 H461 0.930 . S
C474 C473 1.388 . S
C474 C475 1.390 . S
C475 C474 1.390 . S
C475 C476 1.394 . S
C475 C481 1.465 . S
C476 C471 1.399 . S
C476 C475 1.394 . S
C476 C477 1.516 . S
C477 C476 1.516 . S
C477 C478 1.502 . S
C477 C479 1.561 . S
C477 C480 1.526 . S
C478 H462 0.959 . S
C478 H463 0.959 . S
C478 H464 0.961 . S
C478 C477 1.502 . S
C479 H465 0.960 . S
C479 H466 0.961 . S
C479 H467 0.959 . S
C479 C477 1.561 . S
C480 C477 1.526 . S
C480 C481 1.396 . S
C480 C485 1.390 . S
C481 C475 1.465 . S
C481 C480 1.396 . S
C481 C482 1.399 . S
C482 H468 0.929 . S
C482 C481 1.399 . S
C482 C483 1.385 . S
C483 H469 0.931 . S
C483 C482 1.385 . S
C483 C484 1.389 . S
C484 C483 1.389 . S
C484 C485 1.387 . S
C485 H470 0.930 . S
C485 C480 1.390 . S
C485 C484 1.387 . S
H486 C498 0.930 . S
H487 C500 0.930 . S
H488 C501 0.930 . S
H489 C505 0.959 . S
H490 C505 0.959 . S
H491 C505 0.961 . S
H492 C506 0.960 . S
H493 C506 0.961 . S
H494 C506 0.959 . S
H495 C509 0.929 . S
H496 C510 0.931 . S
H497 C512 0.930 . S
C498 H486 0.930 . S
C498 C499 1.399 . S
C498 C503 1.399 . S
C499 C498 1.399 . S
C499 C500 1.376 . S
C500 H487 0.930 . S
C500 C499 1.376 . S
C500 C501 1.388 . S
C501 H488 0.930 . S
C501 C500 1.388 . S
C501 C502 1.390 . S
C502 C501 1.390 . S
C502 C503 1.394 . S
C502 C508 1.465 . S
C503 C498 1.399 . S
C503 C502 1.394 . S
C503 C504 1.516 . S
C504 C503 1.516 . S
C504 C505 1.502 . S
C504 C506 1.561 . S
C504 C507 1.526 . S
C505 H489 0.959 . S
C505 H490 0.959 . S
C505 H491 0.961 . S
C505 C504 1.502 . S
C506 H492 0.960 . S
C506 H493 0.961 . S
C506 H494 0.959 . S
C506 C504 1.561 . S
C507 C504 1.526 . S
C507 C508 1.396 . S
C507 C512 1.390 . S
C508 C502 1.465 . S
C508 C507 1.396 . S
C508 C509 1.399 1_545 S
C509 H495 0.929 . S
C509 C508 1.399 1_565 S
C509 C510 1.385 . S
C510 H496 0.931 . S
C510 C509 1.385 . S
C510 C511 1.389 . S
C511 C510 1.389 . S
C511 C512 1.387 1_565 S
C512 H497 0.930 . S
C512 C507 1.390 . S
C512 C511 1.387 1_545 S
H513 C525 0.930 . S
H514 C527 0.930 . S
H515 C528 0.930 . S
H516 C532 0.959 . S
H517 C532 0.959 . S
H518 C532 0.961 . S
H519 C533 0.960 . S
H520 C533 0.961 . S
H521 C533 0.959 . S
H522 C536 0.929 . S
H523 C537 0.931 . S
H524 C539 0.930 . S
C525 H513 0.930 . S
C525 C526 1.399 1_556 S
C525 C530 1.399 . S
C526 C525 1.399 1_554 S
C526 C527 1.376 . S
C527 H514 0.930 . S
C527 C526 1.376 . S
C527 C528 1.388 . S
C528 H515 0.930 . S
C528 C527 1.388 . S
C528 C529 1.390 . S
C529 C528 1.390 . S
C529 C530 1.394 1_554 S
C529 C535 1.465 . S
C530 C525 1.399 . S
C530 C529 1.394 1_556 S
C530 C531 1.516 . S
C531 C530 1.516 . S
C531 C532 1.502 . S
C531 C533 1.561 . S
C531 C534 1.526 . S
C532 H516 0.959 . S
C532 H517 0.959 . S
C532 H518 0.961 . S
C532 C531 1.502 . S
C533 H519 0.960 . S
C533 H520 0.961 . S
C533 H521 0.959 . S
C533 C531 1.561 . S
C534 C531 1.526 . S
C534 C535 1.396 1_556 S
C534 C539 1.390 . S
C535 C529 1.465 . S
C535 C534 1.396 1_554 S
C535 C536 1.399 . S
C536 H522 0.929 . S
C536 C535 1.399 . S
C536 C537 1.385 . S
C537 H523 0.931 . S
C537 C536 1.385 . S
C537 C538 1.389 1_554 S
C538 C537 1.389 1_556 S
C538 C539 1.387 . S
C539 H524 0.930 . S
C539 C534 1.390 . S
C539 C538 1.387 . S
H540 C552 0.930 . S
H541 C554 0.930 . S
H542 C555 0.930 . S
H543 C559 0.959 . S
H544 C559 0.959 . S
H545 C559 0.961 . S
H546 C560 0.960 . S
H547 C560 0.961 . S
H548 C560 0.959 . S
H549 C563 0.929 . S
H550 C564 0.931 . S
H551 C566 0.930 . S
C552 H540 0.930 . S
C552 C553 1.399 1_554 S
C552 C557 1.399 . S
C553 C552 1.399 1_556 S
C553 C554 1.376 . S
C554 H541 0.930 . S
C554 C553 1.376 . S
C554 C555 1.388 . S
C555 H542 0.930 . S
C555 C554 1.388 . S
C555 C556 1.390 . S
C556 C555 1.390 . S
C556 C557 1.394 1_556 S
C556 C562 1.465 . S
C557 C552 1.399 . S
C557 C556 1.394 1_554 S
C557 C558 1.516 . S
C558 C557 1.516 . S
C558 C559 1.502 . S
C558 C560 1.561 . S
C558 C561 1.526 1_565 S
C559 H543 0.959 . S
C559 H544 0.959 . S
C559 H545 0.961 . S
C559 C558 1.502 . S
C560 H546 0.960 . S
C560 H547 0.961 . S
C560 H548 0.959 . S
C560 C558 1.561 . S
C561 C558 1.526 1_545 S
C561 C562 1.396 1_544 S
C561 C566 1.390 . S
C562 C556 1.465 . S
C562 C561 1.396 1_566 S
C562 C563 1.399 1_565 S
C563 H549 0.929 . S
C563 C562 1.399 1_545 S
C563 C564 1.385 . S
C564 H550 0.931 . S
C564 C563 1.385 . S
C564 C565 1.389 1_556 S
C565 C564 1.389 1_554 S
C565 C566 1.387 . S
C566 H551 0.930 . S
C566 C561 1.390 . S
C566 C565 1.387 . S
H567 C579 0.930 . S
H568 C581 0.930 . S
H569 C582 0.930 . S
H570 C586 0.959 . S
H571 C586 0.959 . S
H572 C586 0.961 . S
H573 C587 0.960 . S
H574 C587 0.961 . S
H575 C587 0.959 . S
H576 C590 0.929 . S
H577 C591 0.931 . S
H578 C593 0.930 . S
C579 H567 0.930 . S
C579 C580 1.399 1_556 S
C579 C584 1.399 1_655 S
C580 C579 1.399 1_554 S
C580 C581 1.376 . S
C581 H568 0.930 . S
C581 C580 1.376 . S
C581 C582 1.388 1_655 S
C582 H569 0.930 . S
C582 C581 1.388 1_455 S
C582 C583 1.390 . S
C583 C582 1.390 . S
C583 C584 1.394 1_554 S
C583 C589 1.465 . S
C584 C579 1.399 1_455 S
C584 C583 1.394 1_556 S
C584 C585 1.516 . S
C585 C584 1.516 . S
C585 C586 1.502 . S
C585 C587 1.561 . S
C585 C588 1.526 . S
C586 H570 0.959 . S
C586 H571 0.959 . S
C586 H572 0.961 . S
C586 C585 1.502 . S
C587 H573 0.960 . S
C587 H574 0.961 . S
C587 H575 0.959 . S
C587 C585 1.561 . S
C588 C585 1.526 . S
C588 C589 1.396 1_556 S
C588 C593 1.390 . S
C589 C583 1.465 . S
C589 C588 1.396 1_554 S
C589 C590 1.399 . S
C590 H576 0.929 . S
C590 C589 1.399 . S
C590 C591 1.385 . S
C591 H577 0.931 . S
C591 C590 1.385 . S
C591 C592 1.389 1_554 S
C592 C591 1.389 1_556 S
C592 C593 1.387 . S
C593 H578 0.930 . S
C593 C588 1.390 . S
C593 C592 1.387 . S
H594 C606 0.930 . S
H595 C608 0.930 . S
H596 C609 0.930 . S
H597 C613 0.959 . S
H598 C613 0.959 . S
H599 C613 0.961 . S
H600 C614 0.960 . S
H601 C614 0.961 . S
H602 C614 0.959 . S
H603 C617 0.929 . S
H604 C618 0.931 . S
H605 C620 0.930 . S
C606 H594 0.930 . S
C606 C607 1.399 . S
C606 C611 1.399 . S
C607 C606 1.399 . S
C607 C608 1.376 . S
C608 H595 0.930 . S
C608 C607 1.376 . S
C608 C609 1.388 . S
C609 H596 0.930 . S
C609 C608 1.388 . S
C609 C610 1.390 . S
C610 C609 1.390 . S
C610 C611 1.394 . S
C610 C616 1.465 . S
C611 C606 1.399 . S
C611 C610 1.394 . S
C611 C612 1.516 . S
C612 C611 1.516 . S
C612 C613 1.502 . S
C612 C614 1.561 . S
C612 C615 1.526 . S
C613 H597 0.959 . S
C613 H598 0.959 . S
C613 H599 0.961 . S
C613 C612 1.502 . S
C614 H600 0.960 . S
C614 H601 0.961 . S
C614 H602 0.959 . S
C614 C612 1.561 . S
C615 C612 1.526 . S
C615 C616 1.396 . S
C615 C620 1.390 . S
C616 C610 1.465 . S
C616 C615 1.396 . S
C616 C617 1.399 . S
C617 H603 0.929 . S
C617 C616 1.399 . S
C617 C618 1.385 . S
C618 H604 0.931 . S
C618 C617 1.385 . S
C618 C619 1.389 . S
C619 C618 1.389 . S
C619 C620 1.387 . S
C620 H605 0.930 . S
C620 C615 1.390 . S
C620 C619 1.387 . S
H621 C633 0.930 . S
H622 C635 0.930 . S
H623 C636 0.930 . S
H624 C640 0.959 . S
H625 C640 0.959 . S
H626 C640 0.961 . S
H627 C641 0.960 . S
H628 C641 0.961 . S
H629 C641 0.959 . S
H630 C644 0.929 . S
H631 C645 0.931 . S
H632 C647 0.930 . S
C633 H621 0.930 . S
C633 C634 1.399 . S
C633 C638 1.399 . S
C634 C633 1.399 . S
C634 C635 1.376 . S
C635 H622 0.930 . S
C635 C634 1.376 . S
C635 C636 1.388 . S
C636 H623 0.930 . S
C636 C635 1.388 . S
C636 C637 1.390 . S
C637 C636 1.390 . S
C637 C638 1.394 . S
C637 C643 1.465 . S
C638 C633 1.399 . S
C638 C637 1.394 . S
C638 C639 1.516 . S
C639 C638 1.516 . S
C639 C640 1.502 . S
C639 C641 1.561 . S
C639 C642 1.526 . S
C640 H624 0.959 . S
C640 H625 0.959 . S
C640 H626 0.961 . S
C640 C639 1.502 . S
C641 H627 0.960 . S
C641 H628 0.961 . S
C641 H629 0.959 . S
C641 C639 1.561 . S
C642 C639 1.526 . S
C642 C643 1.396 . S
C642 C647 1.390 . S
C643 C637 1.465 . S
C643 C642 1.396 . S
C643 C644 1.399 . S
C644 H630 0.929 . S
C644 C643 1.399 . S
C644 C645 1.385 . S
C645 H631 0.931 . S
C645 C644 1.385 . S
C645 C646 1.389 . S
C646 C645 1.389 . S
C646 C647 1.387 . S
C647 H632 0.930 . S
C647 C642 1.390 . S
C647 C646 1.387 . S
H648 C660 0.930 . S
H649 C662 0.930 . S
H650 C663 0.930 . S
H651 C667 0.959 . S
H652 C667 0.959 . S
H653 C667 0.961 . S
H654 C668 0.960 . S
H655 C668 0.961 . S
H656 C668 0.959 . S
H657 C671 0.929 . S
H658 C672 0.931 . S
H659 C674 0.930 . S
C660 H648 0.930 . S
C660 C661 1.399 . S
C660 C665 1.399 . S
C661 C660 1.399 . S
C661 C662 1.376 . S
C662 H649 0.930 . S
C662 C661 1.376 . S
C662 C663 1.388 . S
C663 H650 0.930 . S
C663 C662 1.388 . S
C663 C664 1.390 . S
C664 C663 1.390 . S
C664 C665 1.394 . S
C664 C670 1.465 . S
C665 C660 1.399 . S
C665 C664 1.394 . S
C665 C666 1.516 . S
C666 C665 1.516 . S
C666 C667 1.502 . S
C666 C668 1.561 . S
C666 C669 1.526 . S
C667 H651 0.959 . S
C667 H652 0.959 . S
C667 H653 0.961 . S
C667 C666 1.502 . S
C668 H654 0.960 . S
C668 H655 0.961 . S
C668 H656 0.959 . S
C668 C666 1.561 . S
C669 C666 1.526 . S
C669 C670 1.396 . S
C669 C674 1.390 . S
C670 C664 1.465 . S
C670 C669 1.396 . S
C670 C671 1.399 . S
C671 H657 0.929 . S
C671 C670 1.399 . S
C671 C672 1.385 . S
C672 H658 0.931 . S
C672 C671 1.385 . S
C672 C673 1.389 . S
C673 C672 1.389 . S
C673 C674 1.387 . S
C674 H659 0.930 . S
C674 C669 1.390 . S
C674 C673 1.387 . S
H675 C687 0.930 . S
H676 C689 0.930 . S
H677 C690 0.930 . S
H678 C694 0.959 . S
H679 C694 0.959 . S
H680 C694 0.961 . S
H681 C695 0.960 . S
H682 C695 0.961 . S
H683 C695 0.959 . S
H684 C698 0.929 . S
H685 C699 0.931 . S
H686 C701 0.930 . S
C687 H675 0.930 . S
C687 C688 1.399 . S
C687 C692 1.399 . S
C688 C687 1.399 . S
C688 C689 1.376 . S
C689 H676 0.930 . S
C689 C688 1.376 . S
C689 C690 1.388 . S
C690 H677 0.930 . S
C690 C689 1.388 . S
C690 C691 1.390 . S
C691 C690 1.390 . S
C691 C692 1.394 . S
C691 C697 1.465 . S
C692 C687 1.399 . S
C692 C691 1.394 . S
C692 C693 1.516 . S
C693 C692 1.516 . S
C693 C694 1.502 . S
C693 C695 1.561 . S
C693 C696 1.526 . S
C694 H678 0.959 . S
C694 H679 0.959 . S
C694 H680 0.961 . S
C694 C693 1.502 . S
C695 H681 0.960 . S
C695 H682 0.961 . S
C695 H683 0.959 . S
C695 C693 1.561 . S
C696 C693 1.526 . S
C696 C697 1.396 . S
C696 C701 1.390 . S
C697 C691 1.465 . S
C697 C696 1.396 . S
C697 C698 1.399 . S
C698 H684 0.929 . S
C698 C697 1.399 . S
C698 C699 1.385 . S
C699 H685 0.931 . S
C699 C698 1.385 . S
C699 C700 1.389 . S
C700 C699 1.389 . S
C700 C701 1.387 . S
C701 H686 0.930 . S
C701 C696 1.390 . S
C701 C700 1.387 . S
H702 C714 0.930 . S
H703 C716 0.930 . S
H704 C717 0.930 . S
H705 C721 0.959 . S
H706 C721 0.959 . S
H707 C721 0.961 . S
H708 C722 0.960 . S
H709 C722 0.961 . S
H710 C722 0.959 . S
H711 C725 0.929 . S
H712 C726 0.931 . S
H713 C728 0.930 . S
C714 H702 0.930 . S
C714 C715 1.399 . S
C714 C719 1.399 . S
C715 C714 1.399 . S
C715 C716 1.376 . S
C716 H703 0.930 . S
C716 C715 1.376 . S
C716 C717 1.388 . S
C717 H704 0.930 . S
C717 C716 1.388 . S
C717 C718 1.390 . S
C718 C717 1.390 . S
C718 C719 1.394 . S
C718 C724 1.465 . S
C719 C714 1.399 . S
C719 C718 1.394 . S
C719 C720 1.516 . S
C720 C719 1.516 . S
C720 C721 1.502 . S
C720 C722 1.561 . S
C720 C723 1.526 . S
C721 H705 0.959 . S
C721 H706 0.959 . S
C721 H707 0.961 . S
C721 C720 1.502 . S
C722 H708 0.960 . S
C722 H709 0.961 . S
C722 H710 0.959 . S
C722 C720 1.561 . S
C723 C720 1.526 . S
C723 C724 1.396 . S
C723 C728 1.390 . S
C724 C718 1.465 . S
C724 C723 1.396 . S
C724 C725 1.399 . S
C725 H711 0.929 . S
C725 C724 1.399 . S
C725 C726 1.385 . S
C726 H712 0.931 . S
C726 C725 1.385 . S
C726 C727 1.389 . S
C727 C726 1.389 . S
C727 C728 1.387 . S
C728 H713 0.930 . S
C728 C723 1.390 . S
C728 C727 1.387 . S
H729 C741 0.930 . S
H730 C743 0.930 . S
H731 C744 0.930 . S
H732 C748 0.959 . S
H733 C748 0.959 . S
H734 C748 0.961 . S
H735 C749 0.960 . S
H736 C749 0.961 . S
H737 C749 0.959 . S
H738 C752 0.929 . S
H739 C753 0.931 . S
H740 C755 0.930 . S
C741 H729 0.930 . S
C741 C742 1.399 . S
C741 C746 1.399 . S
C742 C741 1.399 . S
C742 C743 1.376 . S
C743 H730 0.930 . S
C743 C742 1.376 . S
C743 C744 1.388 . S
C744 H731 0.930 . S
C744 C743 1.388 . S
C744 C745 1.390 . S
C745 C744 1.390 . S
C745 C746 1.394 . S
C745 C751 1.465 . S
C746 C741 1.399 . S
C746 C745 1.394 . S
C746 C747 1.516 . S
C747 C746 1.516 . S
C747 C748 1.502 . S
C747 C749 1.561 . S
C747 C750 1.526 . S
C748 H732 0.959 . S
C748 H733 0.959 . S
C748 H734 0.961 . S
C748 C747 1.502 . S
C749 H735 0.960 . S
C749 H736 0.961 . S
C749 H737 0.959 . S
C749 C747 1.561 . S
C750 C747 1.526 . S
C750 C751 1.396 . S
C750 C755 1.390 . S
C751 C745 1.465 . S
C751 C750 1.396 . S
C751 C752 1.399 . S
C752 H738 0.929 . S
C752 C751 1.399 . S
C752 C753 1.385 . S
C753 H739 0.931 . S
C753 C752 1.385 . S
C753 C754 1.389 . S
C754 C753 1.389 . S
C754 C755 1.387 . S
C755 H740 0.930 . S
C755 C750 1.390 . S
C755 C754 1.387 . S
H756 C768 0.930 . S
H757 C770 0.930 1_655 S
H758 C771 0.919 . S
H759 C775 0.959 1_655 S
H760 C775 0.959 . S
H761 C775 0.961 . S
H762 C776 0.960 . S
H763 C776 0.961 . S
H764 C776 0.959 . S
H765 C779 0.929 . S
H766 C780 0.931 . S
H767 C782 0.930 . S
C768 H756 0.930 . S
C768 C769 1.399 . S
C768 C773 1.399 . S
C769 C768 1.399 . S
C769 C770 1.376 . S
C770 H757 0.930 1_455 S
C770 C769 1.376 . S
C770 C771 1.388 . S
C771 H758 0.919 . S
C771 C770 1.388 . S
C771 C772 1.390 . S
C772 C771 1.390 . S
C772 C773 1.394 . S
C772 C778 1.465 . S
C773 C768 1.399 . S
C773 C772 1.394 . S
C773 C774 1.516 . S
C774 C773 1.516 . S
C774 C775 1.502 . S
C774 C776 1.561 . S
C774 C777 1.526 . S
C775 H759 0.959 1_455 S
C775 H760 0.959 . S
C775 H761 0.961 . S
C775 C774 1.502 . S
C776 H762 0.960 . S
C776 H763 0.961 . S
C776 H764 0.959 . S
C776 C774 1.561 . S
C777 C774 1.526 . S
C777 C778 1.396 . S
C777 C782 1.390 . S
C778 C772 1.465 . S
C778 C777 1.396 . S
C778 C779 1.399 . S
C779 H765 0.929 . S
C779 C778 1.399 . S
C779 C780 1.385 . S
C780 H766 0.931 . S
C780 C779 1.385 . S
C780 C781 1.389 . S
C781 C780 1.389 . S
C781 C782 1.387 . S
C782 H767 0.930 . S
C782 C777 1.390 . S
C782 C781 1.387 . S
H783 C795 0.930 . S
H784 C797 0.930 . S
H785 C798 0.930 . S
H786 C802 0.959 . S
H787 C802 0.959 . S
H788 C802 0.961 . S
H789 C803 0.960 . S
H790 C803 0.961 . S
H791 C803 0.959 . S
H792 C806 0.929 . S
H793 C807 0.931 . S
H794 C809 0.930 . S
C795 H783 0.930 . S
C795 C796 1.399 . S
C795 C800 1.399 . S
C796 C795 1.399 . S
C796 C797 1.376 . S
C797 H784 0.930 . S
C797 C796 1.376 . S
C797 C798 1.388 . S
C798 H785 0.930 . S
C798 C797 1.388 . S
C798 C799 1.390 . S
C799 C798 1.390 . S
C799 C800 1.394 . S
C799 C805 1.465 . S
C800 C795 1.399 . S
C800 C799 1.394 . S
C800 C801 1.516 . S
C801 C800 1.516 . S
C801 C802 1.502 . S
C801 C803 1.561 . S
C801 C804 1.526 . S
C802 H786 0.959 . S
C802 H787 0.959 . S
C802 H788 0.961 . S
C802 C801 1.502 . S
C803 H789 0.960 . S
C803 H790 0.961 . S
C803 H791 0.959 . S
C803 C801 1.561 . S
C804 C801 1.526 . S
C804 C805 1.396 . S
C804 C809 1.390 . S
C805 C799 1.465 . S
C805 C804 1.396 . S
C805 C806 1.399 . S
C806 H792 0.929 . S
C806 C805 1.399 . S
C806 C807 1.385 . S
C807 H793 0.931 . S
C807 C806 1.385 . S
C807 C808 1.389 . S
C808 C807 1.389 . S
C808 C809 1.387 . S
C809 H794 0.930 . S
C809 C804 1.390 . S
C809 C808 1.387 . S
H810 C822 0.930 . S
H811 C824 0.930 . S
H812 C825 0.930 . S
H813 C829 0.959 . S
H814 C829 0.959 . S
H815 C829 0.961 . S
H816 C830 0.960 . S
H817 C830 0.961 . S
H818 C830 0.959 . S
H819 C833 0.929 . S
H820 C834 0.931 . S
H821 C836 0.930 . S
C822 H810 0.930 . S
C822 C823 1.399 1_565 S
C822 C827 1.395 1_565 S
C823 C822 1.399 1_545 S
C823 C824 1.376 . S
C824 H811 0.930 . S
C824 C823 1.376 . S
C824 C825 1.388 . S
C825 H812 0.930 . S
C825 C824 1.388 . S
C825 C826 1.390 . S
C826 C825 1.390 . S
C826 C827 1.433 . S
C826 C832 1.465 . S
C827 C822 1.395 1_545 S
C827 C826 1.433 . S
C827 C828 1.487 1_545 S
C828 C827 1.487 1_565 S
C828 C829 1.502 . S
C828 C830 1.561 . S
C828 C831 1.526 . S
C829 H813 0.959 . S
C829 H814 0.959 . S
C829 H815 0.961 . S
C829 C828 1.502 . S
C830 H816 0.960 . S
C830 H817 0.961 . S
C830 H818 0.959 . S
C830 C828 1.561 . S
C831 C828 1.526 . S
C831 C832 1.396 1_565 S
C831 C836 1.390 . S
C832 C826 1.465 . S
C832 C831 1.396 1_545 S
C832 C833 1.399 . S
C833 H819 0.929 . S
C833 C832 1.399 . S
C833 C834 1.385 . S
C834 H820 0.931 . S
C834 C833 1.385 . S
C834 C835 1.389 . S
C835 C834 1.389 . S
C835 C836 1.387 1_545 S
C836 H821 0.930 . S
C836 C831 1.390 . S
C836 C835 1.387 1_565 S
H837 C849 0.930 . S
H838 C851 0.930 . S
H839 C852 0.930 . S
H840 C856 0.959 . S
H841 C856 0.959 . S
H842 C856 0.961 . S
H843 C857 0.960 . S
H844 C857 0.961 . S
H845 C857 0.959 . S
H846 C860 0.929 . S
H847 C861 0.931 . S
H848 C863 0.930 . S
C849 H837 0.930 . S
C849 C850 1.399 . S
C849 C854 1.399 . S
C850 C849 1.399 . S
C850 C851 1.376 . S
C851 H838 0.930 . S
C851 C850 1.376 . S
C851 C852 1.388 . S
C852 H839 0.930 . S
C852 C851 1.388 . S
C852 C853 1.390 . S
C853 C852 1.390 . S
C853 C854 1.394 . S
C853 C859 1.465 . S
C854 C849 1.399 . S
C854 C853 1.394 . S
C854 C855 1.516 . S
C855 C854 1.516 . S
C855 C856 1.502 . S
C855 C857 1.561 . S
C855 C858 1.526 . S
C856 H840 0.959 . S
C856 H841 0.959 . S
C856 H842 0.961 . S
C856 C855 1.502 . S
C857 H843 0.960 . S
C857 H844 0.961 . S
C857 H845 0.959 . S
C857 C855 1.561 . S
C858 C855 1.526 . S
C858 C859 1.396 . S
C858 C863 1.390 1_556 S
C859 C853 1.465 . S
C859 C858 1.396 . S
C859 C860 1.399 . S
C860 H846 0.929 . S
C860 C859 1.399 . S
C860 C861 1.385 1_556 S
C861 H847 0.931 . S
C861 C860 1.385 1_554 S
C861 C862 1.389 . S
C862 C861 1.389 . S
C862 C863 1.387 . S
C863 H848 0.930 . S
C863 C858 1.390 1_554 S
C863 C862 1.387 . S
H864 C876 0.930 . S
H865 C878 0.930 . S
H866 C879 0.930 . S
H867 C883 0.959 . S
H868 C883 0.959 . S
H869 C883 0.961 . S
H870 C884 0.960 . S
H871 C884 0.961 . S
H872 C884 0.959 . S
H873 C887 0.929 . S
H874 C888 0.931 . S
H875 C890 0.930 . S
C876 H864 0.930 . S
C876 C877 1.399 . S
C876 C881 1.399 . S
C877 C876 1.399 . S
C877 C878 1.376 . S
C878 H865 0.930 . S
C878 C877 1.376 . S
C878 C879 1.388 . S
C879 H866 0.930 . S
C879 C878 1.388 . S
C879 C880 1.390 . S
C880 C879 1.390 . S
C880 C881 1.394 . S
C880 C886 1.465 . S
C881 C876 1.399 . S
C881 C880 1.394 . S
C881 C882 1.516 . S
C882 C881 1.516 . S
C882 C883 1.502 . S
C882 C884 1.561 . S
C882 C885 1.526 . S
C883 H867 0.959 . S
C883 H868 0.959 . S
C883 H869 0.961 . S
C883 C882 1.502 . S
C884 H870 0.960 . S
C884 H871 0.961 . S
C884 H872 0.959 . S
C884 C882 1.561 . S
C885 C882 1.526 . S
C885 C886 1.396 . S
C885 C890 1.390 1_556 S
C886 C880 1.465 . S
C886 C885 1.396 . S
C886 C887 1.399 . S
C887 H873 0.929 . S
C887 C886 1.399 . S
C887 C888 1.385 1_556 S
C888 H874 0.931 . S
C888 C887 1.385 1_554 S
C888 C889 1.389 . S
C889 C888 1.389 . S
C889 C890 1.387 . S
C890 H875 0.930 . S
C890 C885 1.390 1_554 S
C890 C889 1.387 . S
H891 C903 0.930 . S
H892 C905 0.930 . S
H893 C906 0.930 . S
H894 C910 0.959 . S
H895 C910 0.959 . S
H896 C910 0.961 . S
H897 C911 0.960 . S
H898 C911 0.961 . S
H899 C911 0.959 . S
H900 C914 0.929 . S
H901 C915 0.931 . S
H902 C917 0.930 . S
C903 H891 0.930 . S
C903 C904 1.399 . S
C903 C908 1.399 . S
C904 C903 1.399 . S
C904 C905 1.376 . S
C905 H892 0.930 . S
C905 C904 1.376 . S
C905 C906 1.388 . S
C906 H893 0.930 . S
C906 C905 1.388 . S
C906 C907 1.390 . S
C907 C906 1.390 . S
C907 C908 1.394 . S
C907 C913 1.465 . S
C908 C903 1.399 . S
C908 C907 1.394 . S
C908 C909 1.516 . S
C909 C908 1.516 . S
C909 C910 1.502 . S
C909 C911 1.561 . S
C909 C912 1.526 . S
C910 H894 0.959 . S
C910 H895 0.959 . S
C910 H896 0.961 . S
C910 C909 1.502 . S
C911 H897 0.960 . S
C911 H898 0.961 . S
C911 H899 0.959 . S
C911 C909 1.561 . S
C912 C909 1.526 . S
C912 C913 1.396 . S
C912 C917 1.390 1_556 S
C913 C907 1.465 . S
C913 C912 1.396 . S
C913 C914 1.399 . S
C914 H900 0.929 . S
C914 C913 1.399 . S
C914 C915 1.385 1_556 S
C915 H901 0.931 . S
C915 C914 1.385 1_554 S
C915 C916 1.389 . S
C916 C915 1.389 . S
C916 C917 1.387 . S
C917 H902 0.930 . S
C917 C912 1.390 1_554 S
C917 C916 1.387 . S
H918 C930 0.930 . S
H919 C932 0.930 . S
H920 C933 0.930 . S
H921 C937 0.959 . S
H922 C937 0.959 . S
H923 C937 0.961 . S
H924 C938 0.960 . S
H925 C938 0.961 . S
H926 C938 0.959 . S
H927 C941 0.929 . S
H928 C942 0.931 . S
H929 C944 0.930 . S
C930 H918 0.930 . S
C930 C931 1.399 . S
C930 C935 1.399 . S
C931 C930 1.399 . S
C931 C932 1.376 . S
C932 H919 0.930 . S
C932 C931 1.376 . S
C932 C933 1.388 . S
C933 H920 0.930 . S
C933 C932 1.388 . S
C933 C934 1.390 . S
C934 C933 1.390 . S
C934 C935 1.394 . S
C934 C940 1.465 . S
C935 C930 1.399 . S
C935 C934 1.394 . S
C935 C936 1.516 . S
C936 C935 1.516 . S
C936 C937 1.502 . S
C936 C938 1.561 . S
C936 C939 1.526 . S
C937 H921 0.959 . S
C937 H922 0.959 . S
C937 H923 0.961 . S
C937 C936 1.502 . S
C938 H924 0.960 . S
C938 H925 0.961 . S
C938 H926 0.959 . S
C938 C936 1.561 . S
C939 C936 1.526 . S
C939 C940 1.396 . S
C939 C944 1.390 1_554 S
C940 C934 1.465 . S
C940 C939 1.396 . S
C940 C941 1.399 . S
C941 H927 0.929 . S
C941 C940 1.399 . S
C941 C942 1.385 1_554 S
C942 H928 0.931 . S
C942 C941 1.385 1_556 S
C942 C943 1.389 . S
C943 C942 1.389 . S
C943 C944 1.387 . S
C944 H929 0.930 . S
C944 C939 1.390 1_556 S
C944 C943 1.387 . S
H945 C957 0.930 . S
H946 C959 0.930 . S
H947 C960 0.930 . S
H948 C964 0.959 . S
H949 C964 0.959 . S
H950 C964 0.961 . S
H951 C965 0.960 . S
H952 C965 0.961 . S
H953 C965 0.959 . S
H954 C968 0.929 . S
H955 C969 0.931 . S
H956 C971 0.930 . S
C957 H945 0.930 . S
C957 C958 1.399 . S
C957 C962 1.399 1_556 S
C958 C957 1.399 . S
C958 C959 1.376 . S
C959 H946 0.930 . S
C959 C958 1.376 . S
C959 C960 1.388 1_556 S
C960 H947 0.930 . S
C960 C959 1.388 1_554 S
C960 C961 1.390 . S
C961 C960 1.390 . S
C961 C962 1.394 . S
C961 C967 1.465 . S
C962 C957 1.399 1_554 S
C962 C961 1.394 . S
C962 C963 1.516 . S
C963 C962 1.516 . S
C963 C964 1.502 . S
C963 C965 1.561 . S
C963 C966 1.526 . S
C964 H948 0.959 . S
C964 H949 0.959 . S
C964 H950 0.961 . S
C964 C963 1.502 . S
C965 H951 0.960 . S
C965 H952 0.961 . S
C965 H953 0.959 . S
C965 C963 1.561 . S
C966 C963 1.526 . S
C966 C967 1.396 . S
C966 C971 1.390 . S
C967 C961 1.465 . S
C967 C966 1.396 . S
C967 C968 1.399 . S
C968 H954 0.929 . S
C968 C967 1.399 . S
C968 C969 1.385 . S
C969 H955 0.931 . S
C969 C968 1.385 . S
C969 C970 1.389 . S
C970 C969 1.389 . S
C970 C971 1.387 . S
C971 H956 0.930 . S
C971 C966 1.390 . S
C971 C970 1.387 . S
H972 C984 0.930 . S
H973 C986 0.930 . S
H974 C987 0.930 . S
H975 C991 0.959 . S
H976 C991 0.959 . S
H977 C991 0.961 . S
H978 C992 0.960 . S
H979 C992 0.961 . S
H980 C992 0.959 . S
H981 C995 0.929 . S
H982 C996 0.931 . S
H983 C998 0.930 . S
C984 H972 0.930 . S
C984 C985 1.399 . S
C984 C989 1.399 . S
C985 C984 1.399 . S
C985 C986 1.376 . S
C986 H973 0.930 . S
C986 C985 1.376 . S
C986 C987 1.388 . S
C987 H974 0.930 . S
C987 C986 1.388 . S
C987 C988 1.390 . S
C988 C987 1.390 . S
C988 C989 1.394 . S
C988 C994 1.465 . S
C989 C984 1.399 . S
C989 C988 1.394 . S
C989 C990 1.516 . S
C990 C989 1.516 . S
C990 C991 1.502 . S
C990 C992 1.561 . S
C990 C993 1.526 . S
C991 H975 0.959 . S
C991 H976 0.959 . S
C991 H977 0.961 . S
C991 C990 1.502 . S
C992 H978 0.960 . S
C992 H979 0.961 . S
C992 H980 0.959 . S
C992 C990 1.561 . S
C993 C990 1.526 . S
C993 C994 1.396 . S
C993 C998 1.390 1_554 S
C994 C988 1.465 . S
C994 C993 1.396 . S
C994 C995 1.399 . S
C995 H981 0.929 . S
C995 C994 1.399 . S
C995 C996 1.385 1_554 S
C996 H982 0.931 . S
C996 C995 1.385 1_556 S
C996 C997 1.389 . S
C997 C996 1.389 . S
C997 C998 1.387 . S
C998 H983 0.930 . S
C998 C993 1.390 1_556 S
C998 C997 1.387 . S
C283 N14 1.322 . S
C295 C237 1.485 . S
C310 N44 1.379 . S
C322 C267 1.464 . S
C337 N74 1.414 . S
C349 C207 1.437 . S
C364 N134 1.335 . S
C376 C87 1.448 . S
C391 N164 1.344 . S
C403 C27 1.443 . S
C418 C57 1.433 . S
C430 N104 1.417 . S
C445 N224 1.344 . S
C457 C177 1.443 . S
C472 N254 1.298 . S
C484 C117 1.480 . S
C499 C147 1.480 . S
C511 N194 1.300 . S
C526 N66 1.159 . S
C538 C16 1.168 . S
C553 C46 1.188 . S
C565 N6 1.199 . S
C580 N36 1.161 . S
C592 C76 1.168 . S
C607 C106 1.187 . S
C619 N156 1.198 . S
C634 N96 1.162 . S
C646 C136 1.168 . S
C661 N126 1.194 . S
C673 C166 1.183 . S
C688 N246 1.173 . S
C700 C196 1.192 . S
C715 C226 1.188 . S
C727 N186 1.199 . S
C742 C256 1.179 . S
C754 N216 1.158 . S
C769 C10 1.099 . S
C781 C1 1.096 . S
C796 C40 1.100 . S
C808 C31 1.095 . S
C823 C70 1.104 . S
C835 C61 1.092 . S
C850 C91 1.105 . S
C862 C100 1.093 . S
C877 C121 1.095 . S
C889 C130 1.100 . S
C904 C151 1.096 . S
C916 C160 1.103 . S
C931 C190 1.098 . S
C943 C181 1.101 . S
C958 C211 1.102 . S
C970 C220 1.097 . S
C985 C250 1.093 . S
C997 C241 1.105 . S
