# Generated by pormake.
# Topology uma, (4)-cn, num edge types: 1
# Building blocks:
#     Node 0, Type 0, BuildingBlock: CEKHIL_clean_sbu_0, # of connection points: 4
#     Node 1, Type 0, BuildingBlock: CEKHIL_clean_sbu_0, # of connection points: 4
#     Node 2, Type 0, BuildingBlock: CEKHIL_clean_sbu_0, # of connection points: 4
#     Node 3, Type 0, BuildingBlock: CEKHIL_clean_sbu_0, # of connection points: 4
#     Node 4, Type 0, BuildingBlock: CEKHIL_clean_sbu_0, # of connection points: 4
#     Node 5, Type 0, BuildingBlock: CEKHIL_clean_sbu_0, # of connection points: 4
#     Node 6, Type 0, BuildingBlock: CEKHIL_clean_sbu_0, # of connection points: 4
#     Node 7, Type 0, BuildingBlock: CEKHIL_clean_sbu_0, # of connection points: 4
#     Node 8, Type 0, BuildingBlock: CEKHIL_clean_sbu_0, # of connection points: 4
#     Node 9, Type 0, BuildingBlock: CEKHIL_clean_sbu_0, # of connection points: 4
#     Node 10, Type 0, BuildingBlock: CEKHIL_clean_sbu_0, # of connection points: 4
#     Node 11, Type 0, BuildingBlock: CEKHIL_clean_sbu_0, # of connection points: 4
#     Node 12, Type 0, BuildingBlock: CEKHIL_clean_sbu_0, # of connection points: 4
#     Node 13, Type 0, BuildingBlock: CEKHIL_clean_sbu_0, # of connection points: 4
#     Node 14, Type 0, BuildingBlock: CEKHIL_clean_sbu_0, # of connection points: 4
#     Node 15, Type 0, BuildingBlock: CEKHIL_clean_sbu_0, # of connection points: 4
#     Node 16, Type 0, BuildingBlock: CEKHIL_clean_sbu_0, # of connection points: 4
#     Node 17, Type 0, BuildingBlock: CEKHIL_clean_sbu_0, # of connection points: 4
#     Node 18, Type 0, BuildingBlock: CEKHIL_clean_sbu_0, # of connection points: 4
#     Node 19, Type 0, BuildingBlock: CEKHIL_clean_sbu_0, # of connection points: 4
#     Node 20, Type 0, BuildingBlock: CEKHIL_clean_sbu_0, # of connection points: 4
#     Node 21, Type 0, BuildingBlock: CEKHIL_clean_sbu_0, # of connection points: 4
#     Node 22, Type 0, BuildingBlock: CEKHIL_clean_sbu_0, # of connection points: 4
#     Node 23, Type 0, BuildingBlock: CEKHIL_clean_sbu_0, # of connection points: 4
#     Node 24, Type 0, BuildingBlock: CEKHIL_clean_sbu_0, # of connection points: 4
#     Node 25, Type 0, BuildingBlock: CEKHIL_clean_sbu_0, # of connection points: 4
#     Node 26, Type 0, BuildingBlock: CEKHIL_clean_sbu_0, # of connection points: 4
#     Node 27, Type 0, BuildingBlock: CEKHIL_clean_sbu_0, # of connection points: 4
#     Node 28, Type 0, BuildingBlock: CEKHIL_clean_sbu_0, # of connection points: 4
#     Node 29, Type 0, BuildingBlock: CEKHIL_clean_sbu_0, # of connection points: 4
#     Node 30, Type 0, BuildingBlock: CEKHIL_clean_sbu_0, # of connection points: 4
#     Node 31, Type 0, BuildingBlock: CEKHIL_clean_sbu_0, # of connection points: 4
#     Node 32, Type 0, BuildingBlock: CEKHIL_clean_sbu_0, # of connection points: 4
#     Node 33, Type 0, BuildingBlock: CEKHIL_clean_sbu_0, # of connection points: 4
#     Node 34, Type 0, BuildingBlock: CEKHIL_clean_sbu_0, # of connection points: 4
#     Node 35, Type 0, BuildingBlock: CEKHIL_clean_sbu_0, # of connection points: 4
#     Edge 36, Type (0, 0), BuildingBlock: AJUNOK_clean_linker_0, # of connection points: 2
#     Edge 37, Type (0, 0), BuildingBlock: AJUNOK_clean_linker_0, # of connection points: 2
#     Edge 38, Type (0, 0), BuildingBlock: AJUNOK_clean_linker_0, # of connection points: 2
#     Edge 39, Type (0, 0), BuildingBlock: AJUNOK_clean_linker_0, # of connection points: 2
#     Edge 40, Type (0, 0), BuildingBlock: AJUNOK_clean_linker_0, # of connection points: 2
#     Edge 41, Type (0, 0), BuildingBlock: AJUNOK_clean_linker_0, # of connection points: 2
#     Edge 42, Type (0, 0), BuildingBlock: AJUNOK_clean_linker_0, # of connection points: 2
#     Edge 43, Type (0, 0), BuildingBlock: AJUNOK_clean_linker_0, # of connection points: 2
#     Edge 44, Type (0, 0), BuildingBlock: AJUNOK_clean_linker_0, # of connection points: 2
#     Edge 45, Type (0, 0), BuildingBlock: AJUNOK_clean_linker_0, # of connection points: 2
#     Edge 46, Type (0, 0), BuildingBlock: AJUNOK_clean_linker_0, # of connection points: 2
#     Edge 47, Type (0, 0), BuildingBlock: AJUNOK_clean_linker_0, # of connection points: 2
#     Edge 48, Type (0, 0), BuildingBlock: AJUNOK_clean_linker_0, # of connection points: 2
#     Edge 49, Type (0, 0), BuildingBlock: AJUNOK_clean_linker_0, # of connection points: 2
#     Edge 50, Type (0, 0), BuildingBlock: AJUNOK_clean_linker_0, # of connection points: 2
#     Edge 51, Type (0, 0), BuildingBlock: AJUNOK_clean_linker_0, # of connection points: 2
#     Edge 52, Type (0, 0), BuildingBlock: AJUNOK_clean_linker_0, # of connection points: 2
#     Edge 53, Type (0, 0), BuildingBlock: AJUNOK_clean_linker_0, # of connection points: 2
#     Edge 54, Type (0, 0), BuildingBlock: AJUNOK_clean_linker_0, # of connection points: 2
#     Edge 55, Type (0, 0), BuildingBlock: AJUNOK_clean_linker_0, # of connection points: 2
#     Edge 56, Type (0, 0), BuildingBlock: AJUNOK_clean_linker_0, # of connection points: 2
#     Edge 57, Type (0, 0), BuildingBlock: AJUNOK_clean_linker_0, # of connection points: 2
#     Edge 58, Type (0, 0), BuildingBlock: AJUNOK_clean_linker_0, # of connection points: 2
#     Edge 59, Type (0, 0), BuildingBlock: AJUNOK_clean_linker_0, # of connection points: 2
#     Edge 60, Type (0, 0), BuildingBlock: AJUNOK_clean_linker_0, # of connection points: 2
#     Edge 61, Type (0, 0), BuildingBlock: AJUNOK_clean_linker_0, # of connection points: 2
#     Edge 62, Type (0, 0), BuildingBlock: AJUNOK_clean_linker_0, # of connection points: 2
#     Edge 63, Type (0, 0), BuildingBlock: AJUNOK_clean_linker_0, # of connection points: 2
#     Edge 64, Type (0, 0), BuildingBlock: AJUNOK_clean_linker_0, # of connection points: 2
#     Edge 65, Type (0, 0), BuildingBlock: AJUNOK_clean_linker_0, # of connection points: 2
#     Edge 66, Type (0, 0), BuildingBlock: AJUNOK_clean_linker_0, # of connection points: 2
#     Edge 67, Type (0, 0), BuildingBlock: AJUNOK_clean_linker_0, # of connection points: 2
#     Edge 68, Type (0, 0), BuildingBlock: AJUNOK_clean_linker_0, # of connection points: 2
#     Edge 69, Type (0, 0), BuildingBlock: AJUNOK_clean_linker_0, # of connection points: 2
#     Edge 70, Type (0, 0), BuildingBlock: AJUNOK_clean_linker_0, # of connection points: 2
#     Edge 71, Type (0, 0), BuildingBlock: AJUNOK_clean_linker_0, # of connection points: 2
#     Edge 72, Type (0, 0), BuildingBlock: AJUNOK_clean_linker_0, # of connection points: 2
#     Edge 73, Type (0, 0), BuildingBlock: AJUNOK_clean_linker_0, # of connection points: 2
#     Edge 74, Type (0, 0), BuildingBlock: AJUNOK_clean_linker_0, # of connection points: 2
#     Edge 75, Type (0, 0), BuildingBlock: AJUNOK_clean_linker_0, # of connection points: 2
#     Edge 76, Type (0, 0), BuildingBlock: AJUNOK_clean_linker_0, # of connection points: 2
#     Edge 77, Type (0, 0), BuildingBlock: AJUNOK_clean_linker_0, # of connection points: 2
#     Edge 78, Type (0, 0), BuildingBlock: AJUNOK_clean_linker_0, # of connection points: 2
#     Edge 79, Type (0, 0), BuildingBlock: AJUNOK_clean_linker_0, # of connection points: 2
#     Edge 80, Type (0, 0), BuildingBlock: AJUNOK_clean_linker_0, # of connection points: 2
#     Edge 81, Type (0, 0), BuildingBlock: AJUNOK_clean_linker_0, # of connection points: 2
#     Edge 82, Type (0, 0), BuildingBlock: AJUNOK_clean_linker_0, # of connection points: 2
#     Edge 83, Type (0, 0), BuildingBlock: AJUNOK_clean_linker_0, # of connection points: 2
#     Edge 84, Type (0, 0), BuildingBlock: AJUNOK_clean_linker_0, # of connection points: 2
#     Edge 85, Type (0, 0), BuildingBlock: AJUNOK_clean_linker_0, # of connection points: 2
#     Edge 86, Type (0, 0), BuildingBlock: AJUNOK_clean_linker_0, # of connection points: 2
#     Edge 87, Type (0, 0), BuildingBlock: AJUNOK_clean_linker_0, # of connection points: 2
#     Edge 88, Type (0, 0), BuildingBlock: AJUNOK_clean_linker_0, # of connection points: 2
#     Edge 89, Type (0, 0), BuildingBlock: AJUNOK_clean_linker_0, # of connection points: 2
#     Edge 90, Type (0, 0), BuildingBlock: AJUNOK_clean_linker_0, # of connection points: 2
#     Edge 91, Type (0, 0), BuildingBlock: AJUNOK_clean_linker_0, # of connection points: 2
#     Edge 92, Type (0, 0), BuildingBlock: AJUNOK_clean_linker_0, # of connection points: 2
#     Edge 93, Type (0, 0), BuildingBlock: AJUNOK_clean_linker_0, # of connection points: 2
#     Edge 94, Type (0, 0), BuildingBlock: AJUNOK_clean_linker_0, # of connection points: 2
#     Edge 95, Type (0, 0), BuildingBlock: AJUNOK_clean_linker_0, # of connection points: 2
#     Edge 96, Type (0, 0), BuildingBlock: AJUNOK_clean_linker_0, # of connection points: 2
#     Edge 97, Type (0, 0), BuildingBlock: AJUNOK_clean_linker_0, # of connection points: 2
#     Edge 98, Type (0, 0), BuildingBlock: AJUNOK_clean_linker_0, # of connection points: 2
#     Edge 99, Type (0, 0), BuildingBlock: AJUNOK_clean_linker_0, # of connection points: 2
#     Edge 100, Type (0, 0), BuildingBlock: AJUNOK_clean_linker_0, # of connection points: 2
#     Edge 101, Type (0, 0), BuildingBlock: AJUNOK_clean_linker_0, # of connection points: 2
#     Edge 102, Type (0, 0), BuildingBlock: AJUNOK_clean_linker_0, # of connection points: 2
#     Edge 103, Type (0, 0), BuildingBlock: AJUNOK_clean_linker_0, # of connection points: 2
#     Edge 104, Type (0, 0), BuildingBlock: AJUNOK_clean_linker_0, # of connection points: 2
#     Edge 105, Type (0, 0), BuildingBlock: AJUNOK_clean_linker_0, # of connection points: 2
#     Edge 106, Type (0, 0), BuildingBlock: AJUNOK_clean_linker_0, # of connection points: 2
#     Edge 107, Type (0, 0), BuildingBlock: AJUNOK_clean_linker_0, # of connection points: 2
# Relax obj value: 0.192
# Max RMSD: 0.424
# Mean RMSD: 0.420
data_MOF--net-uma--node1-CEKHIL_clean_sbu_0--edge1-AJUNOK_clean_linker_0
_symmetry_space_group_name_H-M    P1
_symmetry_Int_Tables_number       1
_symmetry_cell_setting            triclinic
loop_
_symmetry_equiv_pos_as_xyz
'x, y, z'
_cell_length_a     58.269754
_cell_length_b     58.459992
_cell_length_c     26.243217
_cell_angle_alpha  90.146456
_cell_angle_beta   90.137255
_cell_angle_gamma 120.07326
loop_
_atom_site_label
_atom_site_type_symbol
_atom_site_fract_x
_atom_site_fract_y
_atom_site_fract_z
_atom_type_partial_charge
Co0 Co 0.09607 0.37204 0.05227 0.0
O1 O 0.13182 0.3822 0.06892 0.0
O2 O 0.09968 0.34095 0.05453 0.0
C3 C 0.09148 0.39683 0.11185 0.0
O4 O 0.05658 0.35451 0.03411 0.0
Co5 Co 0.0856 0.41367 1.00652 0.0
O6 O 0.04805 0.38684 0.01387 0.0
C7 C 0.09177 0.37678 0.94072 0.0
C8 C 0.1246 0.35747 0.06387 0.0
C9 C 0.04058 0.36255 0.02008 0.0
O10 O 0.10472 0.37481 0.97808 0.0
O11 O 0.08282 0.39276 0.94242 0.0
O12 O 0.0882 0.37372 0.12257 0.0
O13 O 0.10044 0.40588 0.06651 0.0
Co14 Co 0.61694 0.726 0.07284 0.0
O15 O 0.61702 0.75681 0.09713 0.0
O16 O 0.65328 0.75454 0.08181 0.0
C17 C 0.58546 0.69737 0.12739 0.0
O18 O 0.62425 0.69729 0.04812 0.0
Co19 Co 0.5662 0.68178 0.02111 0.0
O20 O 0.58729 0.66402 0.01296 0.0
C21 C 0.60516 0.72648 0.9591 0.0
C22 C 0.64268 0.7684 0.09667 0.0
C23 C 0.61174 0.67487 0.02485 0.0
O24 O 0.61871 0.73728 0.99972 0.0
O25 O 0.58287 0.70487 0.95993 0.0
O26 O 0.61003 0.71156 0.14159 0.0
O27 O 0.58009 0.7028 0.0826 0.0
Co28 Co 0.24243 0.88311 0.04616 0.0
O29 O 0.21386 0.84797 0.03555 0.0
O30 O 0.20891 0.88267 0.04983 0.0
C31 C 0.26244 0.87207 0.11146 0.0
O32 O 0.26906 0.92061 0.0568 0.0
Co33 Co 0.26248 0.87347 0.99394 0.0
O34 O 0.29179 0.91208 1.0004 0.0
C35 C 0.23386 0.87816 0.93296 0.0
C36 C 0.19821 0.85752 0.04068 0.0
C37 C 0.2899 0.92842 0.03004 0.0
O38 O 0.24061 0.89308 0.97206 0.0
O39 O 0.23928 0.8599 0.93266 0.0
O40 O 0.24246 0.87512 0.11641 0.0
O41 O 0.27187 0.87429 0.06586 0.0
Co42 Co 0.38095 0.09043 1.0117 0.0
O43 O 0.39402 0.12807 0.03005 0.0
O44 O 0.36433 0.10826 0.97284 0.0
C45 C 0.39888 0.10041 0.92812 0.0
O46 O 0.36411 0.05253 0.99005 0.0
Co47 Co 0.39729 0.09079 0.0403 0.0
O48 O 0.38386 0.05267 0.05872 0.0
C49 C 0.35455 0.08253 0.09774 0.0
C50 C 0.3774 0.12921 1.00022 0.0
C51 C 0.36792 0.03932 0.02365 0.0
O52 O 0.34807 0.07908 0.05135 0.0
O53 O 0.37876 0.09039 0.10671 0.0
O54 O 0.3749 0.09439 0.9381 0.0
O55 O 0.41248 0.10166 0.96743 0.0
Co56 Co 0.87902 0.23874 0.97101 0.0
O57 O 0.84533 0.20734 0.96732 0.0
O58 O 0.88399 0.20869 0.95949 0.0
C59 C 0.86858 0.26255 0.91785 0.0
O60 O 0.91762 0.26802 0.97252 0.0
Co61 Co 0.88241 0.28894 0.01896 0.0
O62 O 0.91871 0.30623 0.99091 0.0
C63 C 0.88458 0.24926 0.08557 0.0
C64 C 0.85821 0.19494 0.95944 0.0
C65 C 0.93005 0.29327 0.97832 0.0
O66 O 0.88098 0.23465 0.0464 0.0
O67 O 0.88473 0.27123 0.08315 0.0
O68 O 0.87575 0.24634 0.9004 0.0
O69 O 0.86535 0.26206 0.9668 0.0
Co70 Co 0.70846 0.61075 0.96038 0.0
O71 O 0.72708 0.59258 0.97721 0.0
O72 O 0.74644 0.63383 0.9498 0.0
C73 C 0.67785 0.57713 0.90492 0.0
O74 O 0.69248 0.63259 0.9437 0.0
Co75 Co 0.68875 0.58934 0.01672 0.0
O76 O 0.66607 0.60652 1.00379 0.0
C77 C 0.72134 0.62336 0.07256 0.0
C78 C 0.74866 0.614 0.96587 0.0
C79 C 0.67218 0.62518 0.97189 0.0
O80 O 0.7174 0.63073 0.02942 0.0
O81 O 0.71154 0.59889 0.07859 0.0
O82 O 0.70147 0.59454 0.89335 0.0
O83 O 0.67072 0.57784 0.95117 0.0
Co84 Co 0.87613 0.59512 1.01186 0.0
O85 O 0.83871 0.58483 0.02617 0.0
O86 O 0.86017 0.61106 0.9654 0.0
C87 C 0.86636 0.57319 0.93159 0.0
O88 O 0.914 0.60904 0.99362 0.0
Co89 Co 0.87422 0.57933 0.04471 0.0
O90 O 0.91114 0.58591 0.0588 0.0
C91 C 0.88387 0.62572 0.09142 0.0
C92 C 0.83892 0.60043 0.99234 0.0
C93 C 0.92564 0.60195 0.02517 0.0
O94 O 0.88911 0.63009 0.04475 0.0
O95 O 0.87407 0.60182 0.10484 0.0
O96 O 0.87343 0.59776 0.93648 0.0
O97 O 0.86368 0.5613 0.97385 0.0
Co98 Co 0.37521 0.26473 0.98785 0.0
O99 O 0.39203 0.24508 1.0065 0.0
O100 O 0.35066 0.22705 0.97904 0.0
C101 C 0.40823 0.29261 0.93053 0.0
O102 O 0.35485 0.2821 0.96877 0.0
Co103 Co 0.39792 0.28617 0.04387 0.0
O104 O 0.38042 0.30846 0.03007 0.0
C105 C 0.36351 0.25544 0.10035 0.0
C106 C 0.37011 0.22396 0.99472 0.0
C107 C 0.36207 0.30243 0.997 0.0
O108 O 0.35603 0.25813 0.05637 0.0
O109 O 0.38798 0.26514 0.10764 0.0
O110 O 0.39031 0.26891 0.92152 0.0
O111 O 0.40887 0.30143 0.97607 0.0
Co112 Co 0.72067 0.08717 0.94966 0.0
O113 O 0.7521 0.12027 0.93788 0.0
O114 O 0.75014 0.08129 0.93856 0.0
C115 C 0.69358 0.09402 0.89764 0.0
O116 O 0.692 0.04902 0.95987 0.0
Co117 Co 0.67216 0.08502 1.00242 0.0
O118 O 0.65433 0.0468 0.9869 0.0
C119 C 0.71526 0.08692 0.06555 0.0
C120 C 0.76421 0.10681 0.93394 0.0
C121 C 0.66757 0.03589 0.97345 0.0
O122 O 0.72859 0.08974 0.02488 0.0
O123 O 0.69235 0.08497 0.06515 0.0
O124 O 0.7093 0.08631 0.87944 0.0
O125 O 0.69661 0.09999 0.94575 0.0
Co126 Co 0.62122 0.87805 0.06761 0.0
O127 O 0.62034 0.84655 0.08915 0.0
O128 O 0.65727 0.88515 0.07937 0.0
C129 C 0.58899 0.87446 0.12037 0.0
O130 O 0.62885 0.91468 0.04655 0.0
Co131 Co 0.5721 0.87249 1.01192 0.0
O132 O 0.59136 0.91142 0.01532 0.0
C133 C 0.61441 0.87146 0.95216 0.0
C134 C 0.64596 0.86027 0.09161 0.0
C135 C 0.61577 0.92504 0.02747 0.0
O136 O 0.62507 0.87055 0.99431 0.0
O137 O 0.59241 0.8714 0.95045 0.0
O138 O 0.61321 0.88411 0.13609 0.0
O139 O 0.58404 0.86425 0.07484 0.0
Co140 Co 0.0859 0.71744 0.06182 0.0
O141 O 0.12013 0.74753 0.05315 0.0
O142 O 0.08316 0.74904 0.06609 0.0
C143 C 0.09927 0.69748 0.1206 0.0
O144 O 0.04867 0.68868 0.06873 0.0
Co145 Co 0.09189 0.68137 1.00015 0.0
O146 O 0.05291 0.65933 0.01935 0.0
C147 C 0.0886 0.71863 0.94504 0.0
C148 C 0.10847 0.76139 0.05679 0.0
C149 C 0.03896 0.66601 0.04679 0.0
O150 O 0.07762 0.71832 0.98716 0.0
O151 O 0.10087 0.70592 0.941 0.0
O152 O 0.09409 0.71577 0.13239 0.0
O153 O 0.09635 0.69093 0.07259 0.0
Co154 Co 0.26605 0.37047 1.00648 0.0
O155 O 0.23731 0.37854 0.99145 0.0
O156 O 0.23456 0.35329 0.05316 0.0
C157 C 0.27697 0.39302 0.08672 0.0
O158 O 0.29107 0.3582 0.02721 0.0
Co159 Co 0.28021 0.38607 0.97433 0.0
O160 O 0.30792 0.37615 0.95606 0.0
C161 C 0.24449 0.34028 0.9254 0.0
C162 C 0.22277 0.36268 0.02607 0.0
C163 C 0.308 0.36255 0.99311 0.0
O164 O 0.24511 0.33548 0.9721 0.0
O165 O 0.25848 0.36436 0.91312 0.0
O166 O 0.26056 0.36811 0.08205 0.0
O167 O 0.28622 0.40472 0.04436 0.0
Co168 Co 0.74991 0.69639 0.36152 0.0
O169 O 0.78763 0.71595 0.35659 0.0
O170 O 0.7637 0.67255 0.36722 0.0
C171 C 0.74677 0.72296 0.42593 0.0
O172 O 0.71156 0.67276 0.36458 0.0
Co173 Co 0.75473 0.72296 0.31159 0.0
O174 O 0.71426 0.70162 0.30783 0.0
C175 C 0.75797 0.69469 0.24696 0.0
C176 C 0.78674 0.69344 0.36025 0.0
C177 C 0.70022 0.68019 0.33243 0.0
O178 O 0.74536 0.68342 0.28721 0.0
O179 O 0.77131 0.71952 0.24763 0.0
O180 O 0.75303 0.70524 0.43285 0.0
O181 O 0.74292 0.72723 0.37914 0.0
Co182 Co 0.27017 0.04889 0.37622 0.0
O183 O 0.25882 0.07264 0.35381 0.0
O184 O 0.29968 0.08473 0.37961 0.0
C185 C 0.2359 0.02702 0.43562 0.0
O186 O 0.28637 0.02832 0.39895 0.0
Co187 Co 0.24489 0.02592 0.32213 0.0
O188 O 0.25824 0.00061 0.34217 0.0
C189 C 0.27892 0.05271 0.26276 0.0
C190 C 0.28299 0.09135 0.36199 0.0
C191 C 0.27671 0.0065 0.37493 0.0
O192 O 0.28642 0.04943 0.3064 0.0
O193 O 0.25498 0.0463 0.25785 0.0
O194 O 0.25676 0.04934 0.44286 0.0
O195 O 0.23335 0.01598 0.39165 0.0
Co196 Co 0.92546 0.2155 0.37738 0.0
O197 O 0.90401 0.17982 0.35429 0.0
O198 O 0.88875 0.20646 0.37543 0.0
C199 C 0.94765 0.20624 0.44177 0.0
O200 O 0.9432 0.25218 0.40021 0.0
Co201 Co 0.95047 0.21512 0.32738 0.0
O202 O 0.9734 0.2545 0.34694 0.0
C203 C 0.92317 0.21967 0.26396 0.0
C204 C 0.88397 0.18353 0.35895 0.0
C205 C 0.9654 0.26584 0.3782 0.0
O206 O 0.92545 0.23078 0.30681 0.0
O207 O 0.93062 0.2029 0.26155 0.0
O208 O 0.92415 0.20234 0.44492 0.0
O209 O 0.9596 0.21487 0.39864 0.0
Co210 Co 0.01485 0.42514 0.3263 0.0
O211 O 0.02259 0.46093 0.32527 0.0
O212 O -0.01735 0.42599 0.31189 0.0
C213 C 0.04809 0.43128 0.26985 0.0
O214 O 0.00208 0.38693 0.32669 0.0
Co215 Co 0.04464 0.43351 0.38964 0.0
O216 O 0.03155 0.39418 0.38729 0.0
C217 C 0.00917 0.43367 0.44035 0.0
C218 C -0.00239 0.45146 0.31568 0.0
C219 C 0.01284 0.37832 0.35779 0.0
O220 O 0.00081 0.42017 0.39937 0.0
O221 O 0.03377 0.44838 0.44597 0.0
O222 O 0.02575 0.42848 0.25679 0.0
O223 O 0.05305 0.43185 0.31822 0.0
Co224 Co 0.53372 0.5785 0.30378 0.0
O225 O 0.4975 0.55288 0.31388 0.0
O226 O 0.52857 0.54398 0.28759 0.0
C227 C 0.52808 0.60836 0.25875 0.0
O228 O 0.57294 0.6004 0.29016 0.0
Co229 Co 0.5544 0.6324 0.35847 0.0
O230 O 0.58547 0.64195 0.31522 0.0
C231 C 0.55534 0.58899 0.41336 0.0
C232 C 0.50409 0.53558 0.30036 0.0
C233 C 0.59018 0.62504 0.29455 0.0
O234 O 0.54264 0.57378 0.37573 0.0
O235 O 0.56175 0.61339 0.41486 0.0
O236 O 0.52586 0.58735 0.23728 0.0
O237 O 0.5293 0.60841 0.30826 0.0
Co238 Co 0.36496 0.92749 0.33175 0.0
O239 O 0.3912 0.91842 0.31628 0.0
O240 O 0.39884 0.95959 0.32368 0.0
C241 C 0.33398 0.89944 0.27747 0.0
O242 O 0.34198 0.94386 0.34733 0.0
Co243 Co 0.31488 0.886 0.38583 0.0
O244 O 0.3042 0.91299 0.38405 0.0
C245 C 0.36012 0.92464 0.44603 0.0
C246 C 0.40804 0.94359 0.31702 0.0
C247 C 0.31914 0.93627 0.3675 0.0
O248 O 0.37369 0.92878 0.40558 0.0
O249 O 0.33538 0.90754 0.44739 0.0
O250 O 0.35311 0.92206 0.26214 0.0
O251 O 0.33583 0.89261 0.32383 0.0
Co252 Co 0.54098 0.94 0.32087 0.0
O253 O 0.504 0.92605 0.33277 0.0
O254 O 0.53136 0.96666 0.30568 0.0
C255 C 0.53718 0.90541 0.26775 0.0
O256 O 0.57896 0.95791 0.30805 0.0
Co257 Co 0.53509 0.9181 0.37874 0.0
O258 O 0.57532 0.93292 0.37372 0.0
C259 C 0.53923 0.95374 0.43221 0.0
C260 C 0.50766 0.94898 0.31978 0.0
C261 C 0.58977 0.95023 0.34075 0.0
O262 O 0.55187 0.96007 0.39025 0.0
O263 O 0.52172 0.92986 0.4371 0.0
O264 O 0.53258 0.92364 0.25388 0.0
O265 O 0.54212 0.905 0.31569 0.0
Co266 Co 0.03031 0.59233 0.31648 0.0
O267 O 0.03293 0.56127 0.31006 0.0
O268 O -0.00425 0.56282 0.30003 0.0
C269 C 0.06604 0.61974 0.27009 0.0
O270 O 0.02054 0.62101 0.32025 0.0
Co271 Co 0.07333 0.63796 0.38054 0.0
O272 O 0.04997 0.65322 0.37236 0.0
C273 C 0.02922 0.59447 0.43387 0.0
C274 C 0.00755 0.54897 0.30157 0.0
C275 C 0.02907 0.64278 0.34507 0.0
O276 O 0.02065 0.58424 0.38991 0.0
O277 O 0.0513 0.61597 0.4399 0.0
O278 O 0.04373 0.60316 0.24851 0.0
O279 O 0.06737 0.6167 0.31897 0.0
Co280 Co 0.36183 0.42467 0.31497 0.0
O281 O 0.39167 0.45836 0.30085 0.0
O282 O 0.39214 0.42052 0.30201 0.0
C283 C 0.33285 0.42815 0.26537 0.0
O284 O 0.3346 0.38615 0.32735 0.0
Co285 Co 0.3149 0.42059 0.37397 0.0
O286 O 0.29672 0.38279 0.35601 0.0
C287 C 0.35858 0.42047 0.42925 0.0
C288 C 0.40496 0.44607 0.29707 0.0
C289 C 0.31014 0.37245 0.34066 0.0
O290 O 0.37186 0.42911 0.38833 0.0
O291 O 0.33478 0.41595 0.43296 0.0
O292 O 0.34929 0.42153 0.24671 0.0
O293 O 0.33633 0.43592 0.31277 0.0
Co294 Co 0.26338 0.213 0.36063 0.0
O295 O 0.25488 0.17817 0.34093 0.0
O296 O 0.2936 0.20841 0.37315 0.0
C297 C 0.22605 0.20003 0.41252 0.0
O298 O 0.27631 0.24954 0.38142 0.0
Co299 Co 0.24111 0.20791 0.30094 0.0
O300 O 0.25019 0.246 0.31746 0.0
C301 C 0.28009 0.21743 0.25188 0.0
C302 C 0.27881 0.18482 0.35455 0.0
C303 C 0.26635 0.25994 0.35291 0.0
O304 O 0.28367 0.2293 0.29429 0.0
O305 O 0.25709 0.19859 0.24305 0.0
O306 O 0.24665 0.199 0.42498 0.0
O307 O 0.22529 0.20755 0.36653 0.0
Co308 Co 0.75194 0.0459 0.35492 0.0
O309 O 0.78854 0.0676 0.3378 0.0
O310 O 0.76181 0.08279 0.35851 0.0
C311 C 0.75739 0.0203 0.41777 0.0
O312 O 0.71451 0.02725 0.37235 0.0
Co313 Co 0.75662 0.02581 0.30341 0.0
O314 O 0.71661 0.00076 0.31507 0.0
C315 C 0.75159 0.05381 0.24204 0.0
C316 C 0.78524 0.08768 0.3448 0.0
C317 C 0.70297 0.00613 0.34599 0.0
O318 O 0.73875 0.04894 0.28341 0.0
O319 O 0.76966 0.04805 0.24037 0.0
O320 O 0.76253 0.04405 0.42372 0.0
O321 O 0.75099 0.01072 0.37203 0.0
Co322 Co 0.92937 0.708 0.36295 0.0
O323 O 0.90748 0.72305 0.35051 0.0
O324 O 0.89255 0.68062 0.36616 0.0
C325 C 0.95439 0.73786 0.42725 0.0
O326 O 0.94815 0.68847 0.37537 0.0
Co327 Co 0.95448 0.73462 0.30984 0.0
O328 O 0.97544 0.71535 0.31705 0.0
C329 C 0.9222 0.70461 0.24877 0.0
C330 C 0.88751 0.69936 0.35555 0.0
C331 C 0.96861 0.69606 0.34766 0.0
O332 O 0.92481 0.69441 0.28954 0.0
O333 O 0.93349 0.72937 0.2466 0.0
O334 O 0.93141 0.71786 0.43273 0.0
O335 O 0.96444 0.74244 0.38181 0.0
Co336 Co 0.40711 0.03409 0.69306 0.0
O337 O 0.44146 0.03985 0.67532 0.0
O338 O 0.41011 0.00375 0.71277 0.0
C339 C 0.42218 0.07353 0.73922 0.0
O340 O 0.3711 0.02416 0.71368 0.0
Co341 Co 0.41231 0.05394 0.63038 0.0
O342 O 0.37457 0.04686 0.64456 0.0
C343 C 0.40168 0.01297 0.58769 0.0
C344 C 0.43391 0.01674 0.69433 0.0
C345 C 0.3609 0.0333 0.68268 0.0
O346 O 0.38962 0.01129 0.62908 0.0
O347 O 0.4212 0.03521 0.57735 0.0
O348 O 0.42232 0.05306 0.75494 0.0
O349 O 0.41434 0.07294 0.69286 0.0
Co350 Co 0.92205 0.37279 0.71429 0.0
O351 O 0.90662 0.39458 0.70507 0.0
O352 O 0.94837 0.40924 0.72804 0.0
C353 C 0.88949 0.34165 0.76875 0.0
O354 O 0.94152 0.35401 0.72384 0.0
Co355 Co 0.89893 0.35508 0.65601 0.0
O356 O 0.91636 0.33197 0.65818 0.0
C357 C 0.93288 0.38959 0.60419 0.0
C358 C 0.92985 0.41441 0.71561 0.0
C359 C 0.9345 0.33586 0.69039 0.0
O360 O 0.94037 0.38279 0.64409 0.0
O361 O 0.90846 0.38137 0.60011 0.0
O362 O 0.9076 0.36475 0.78202 0.0
O363 O 0.88797 0.33603 0.72064 0.0
Co364 Co 0.57612 0.53519 0.68324 0.0
O365 O 0.54774 0.49964 0.67967 0.0
O366 O 0.54299 0.53515 0.68386 0.0
C367 C 0.60032 0.53013 0.74439 0.0
O368 O 0.60105 0.57468 0.6872 0.0
Co369 Co 0.63159 0.54735 0.64754 0.0
O370 O 0.64257 0.5835 0.67002 0.0
C371 C 0.59422 0.54846 0.57338 0.0
C372 C 0.53225 0.50964 0.68014 0.0
C373 C 0.62599 0.59077 0.68136 0.0
O374 O 0.57613 0.53782 0.60716 0.0
O375 O 0.6183 0.55454 0.58141 0.0
O376 O 0.57984 0.53231 0.7555 0.0
O377 O 0.60336 0.52713 0.69613 0.0
Co378 Co 0.67283 0.75024 0.65846 0.0
O379 O 0.68909 0.78734 0.66887 0.0
O380 O 0.64659 0.76101 0.64984 0.0
C381 C 0.70401 0.75248 0.59817 0.0
O382 O 0.6525 0.7122 0.64747 0.0
Co383 Co 0.69762 0.7559 0.71173 0.0
O384 O 0.68107 0.7156 0.70637 0.0
C385 C 0.66611 0.75603 0.77123 0.0
C386 C 0.66591 0.78456 0.66073 0.0
C387 C 0.66143 0.70132 0.67705 0.0
O388 O 0.65704 0.7418 0.73128 0.0
O389 O 0.69054 0.77253 0.77163 0.0
O390 O 0.68512 0.75691 0.58883 0.0
O391 O 0.70678 0.74766 0.6452 0.0
Co392 Co 0.20343 0.93242 0.65642 0.0
O393 O 0.16839 0.90255 0.65809 0.0
O394 O 0.20482 0.90078 0.64093 0.0
C395 C 0.19355 0.95764 0.60191 0.0
O396 O 0.24076 0.9598 0.65208 0.0
Co397 Co 0.19333 0.94856 0.7178 0.0
O398 O 0.23228 0.97795 0.71782 0.0
C399 C 0.19638 0.91504 0.76582 0.0
C400 C 0.17928 0.8886 0.64639 0.0
C401 C 0.24858 0.97823 0.68503 0.0
O402 O 0.21208 0.92481 0.72821 0.0
O403 O 0.1776 0.91971 0.76845 0.0
O404 O 0.19664 0.93844 0.58824 0.0
O405 O 0.19469 0.96277 0.65019 0.0
Co406 Co 0.03815 0.2782 0.67399 0.0
O407 O 0.06228 0.26679 0.69409 0.0
O408 O 0.07446 0.30619 0.662 0.0
C409 C 0.01219 0.24167 0.62021 0.0
O410 O 0.0163 0.2933 0.65286 0.0
Co411 Co 0.02096 0.25666 0.73095 0.0
O412 O -0.0064 0.26821 0.71738 0.0
C413 C 0.05021 0.2946 0.78353 0.0
C414 C 0.08118 0.28968 0.68003 0.0
C415 C -0.00367 0.28455 0.68234 0.0
O416 O 0.04354 0.29931 0.74044 0.0
O417 O 0.04511 0.27128 0.79091 0.0
O418 O 0.03467 0.26132 0.60923 0.0
O419 O 0.00378 0.24134 0.66586 0.0
Co420 Co 0.19659 0.25983 0.64796 0.0
O421 O 0.16073 0.25099 0.65952 0.0
O422 O 0.19417 0.29154 0.64494 0.0
C423 C 0.18737 0.22866 0.58487 0.0
O424 O 0.23477 0.27429 0.63755 0.0
Co425 Co 0.19333 0.22942 0.70438 0.0
O426 O 0.23335 0.24671 0.69686 0.0
C427 C 0.19552 0.26259 0.76437 0.0
C428 C 0.16929 0.27612 0.6554 0.0
C429 C 0.24656 0.26585 0.66639 0.0
O430 O 0.20651 0.27184 0.72167 0.0
O431 O 0.18105 0.23796 0.76827 0.0
O432 O 0.18843 0.25076 0.57807 0.0
O433 O 0.19067 0.22268 0.63093 0.0
Co434 Co 0.6819 0.92672 0.65854 0.0
O435 O 0.69576 0.90344 0.66069 0.0
O436 O 0.6532 0.89071 0.65013 0.0
C437 C 0.71194 0.95423 0.59539 0.0
O438 O 0.66352 0.94693 0.65712 0.0
Co439 Co 0.70898 0.94521 0.70963 0.0
O440 O 0.69255 0.9688 0.71752 0.0
C441 C 0.679 0.91221 0.76961 0.0
C442 C 0.6715 0.88442 0.65571 0.0
C443 C 0.67249 0.96496 0.69111 0.0
O444 O 0.66873 0.91822 0.73296 0.0
O445 O 0.70341 0.92033 0.7665 0.0
O446 O 0.69083 0.93233 0.58739 0.0
O447 O 0.71727 0.96182 0.64242 0.0
Co448 Co 0.04731 0.76 0.66168 0.0
O449 O 0.07356 0.79637 0.66849 0.0
O450 O 0.0819 0.76424 0.64885 0.0
C451 C 0.02118 0.76746 0.60359 0.0
O452 O 0.02402 0.72195 0.65332 0.0
Co453 Co 0.02777 0.7667 0.7199 0.0
O454 O 0.00102 0.72717 0.71431 0.0
C455 C 0.05963 0.76333 0.77516 0.0
C456 C 0.09057 0.7892 0.65632 0.0
C457 C 0.00432 0.71218 0.68341 0.0
O458 O 0.05443 0.75077 0.73318 0.0
O459 O 0.05168 0.7796 0.78025 0.0
O460 O 0.04225 0.76712 0.59287 0.0
O461 O 0.01398 0.76414 0.6509 0.0
Co462 Co 0.9289 0.54892 0.69905 0.0
O463 O 0.91476 0.51322 0.6764 0.0
O464 O 0.95381 0.53721 0.71401 0.0
C465 C 0.89174 0.54107 0.74749 0.0
O466 O 0.94728 0.58518 0.72411 0.0
Co467 Co 0.91024 0.54981 0.63852 0.0
O468 O 0.9258 0.58893 0.65856 0.0
C469 C 0.94802 0.55436 0.59122 0.0
C470 C 0.93631 0.51482 0.69407 0.0
C471 C 0.94188 0.59954 0.69599 0.0
O472 O 0.95247 0.56442 0.63564 0.0
O473 O 0.92415 0.53884 0.57973 0.0
O474 O 0.9092 0.53527 0.76082 0.0
O475 O 0.89419 0.55106 0.70262 0.0
Co476 Co 0.40655 0.37515 0.69897 0.0
O477 O 0.441 0.40067 0.67589 0.0
O478 O 0.41107 0.41033 0.70453 0.0
C479 C 0.42196 0.35489 0.75616 0.0
O480 O 0.37019 0.35204 0.72217 0.0
Co481 Co 0.41026 0.35442 0.64367 0.0
O482 O 0.37215 0.3266 0.66235 0.0
C483 C 0.40008 0.38111 0.58773 0.0
C484 C 0.43441 0.41833 0.68545 0.0
C485 C 0.3589 0.33065 0.69636 0.0
O486 O 0.38905 0.37559 0.63113 0.0
O487 O 0.4186 0.37628 0.58124 0.0
O488 O 0.42181 0.37626 0.76442 0.0
O489 O 0.41327 0.34378 0.71226 0.0
Co490 Co 0.57221 0.03187 0.72017 0.0
O491 O 0.54601 0.04207 0.71605 0.0
O492 O 0.53784 0.00129 0.73246 0.0
C493 C 0.60262 0.06512 0.7696 0.0
O494 O 0.59495 0.01495 0.72672 0.0
Co495 Co 0.62456 0.06783 0.66408 0.0
O496 O 0.63586 0.04582 0.70151 0.0
C497 C 0.57995 0.02797 0.60426 0.0
C498 C 0.52892 0.01735 0.72401 0.0
C499 C 0.61984 0.02357 0.72111 0.0
O500 O 0.56679 0.02171 0.64588 0.0
O501 O 0.60379 0.04734 0.60185 0.0
O502 O 0.58159 0.04542 0.78922 0.0
O503 O 0.602 0.06644 0.72012 0.0
C504 C 0.97284 0.30034 0.01293 0.0
C505 C 0.9591 0.30793 0.97912 0.0
C506 C -0.00042 0.31776 0.02521 0.0
C507 C 0.01316 0.34324 1.00416 0.0
H508 H 0.96242 0.28158 0.03257 0.0
H509 H 0.00923 0.3117 0.05303 0.0
S510 S -0.01309 0.3701 0.90589 0.0
N511 N 0.96154 0.34081 0.91998 0.0
N512 N 0.01178 0.3734 0.94154 0.0
C513 C 1e-05 0.35006 0.9671 0.0
C514 C 0.97294 0.33243 0.95498 0.0
C515 C 0.66959 0.66548 0.98844 0.0
C516 C 0.65697 0.63887 0.97342 0.0
C517 C 0.65477 0.67692 1.00521 0.0
C518 C 0.62684 0.66212 1.00725 0.0
H519 H 0.69105 0.67705 0.99026 0.0
H520 H 0.66538 0.6974 0.01737 0.0
S521 S 0.58471 0.59191 0.96743 0.0
N522 N 0.61541 0.59834 0.95855 0.0
N523 N 0.58727 0.61963 0.9892 0.0
C524 C 0.61405 0.63571 0.98982 0.0
C525 C 0.62921 0.62415 0.97313 0.0
C526 C 0.34399 -0.00521 0.98349 0.0
C527 C 0.35055 0.01061 0.02738 0.0
C528 C 0.32492 0.9679 0.98529 0.0
C529 C 0.31116 0.95625 0.03061 0.0
H530 H 0.3534 0.00335 0.94747 0.0
H531 H 0.3202 0.95638 0.95046 0.0
S532 S 0.32108 -0.01056 0.15582 0.0
N533 N 0.34233 0.01286 0.11758 0.0
N534 N 0.30571 0.96242 0.12047 0.0
C535 C 0.31771 0.97184 0.07484 0.0
C536 C 0.33765 -0.00096 0.07335 0.0
C537 C -0.00558 0.6603 0.03569 0.0
C538 C 0.01007 0.64879 0.04576 0.0
C539 C 0.96719 0.64466 0.02761 0.0
C540 C 0.95454 0.61701 0.03059 0.0
H541 H 0.00342 0.68155 0.0323 0.0
H542 H 0.95587 0.65438 0.01975 0.0
S543 S -0.01362 0.57721 0.05827 0.0
N544 N 0.01112 0.60814 0.05877 0.0
N545 N 0.95925 0.57861 0.04621 0.0
C546 C 0.96972 0.60516 0.0421 0.0
C547 C -0.00228 0.62111 0.04889 0.0
C548 C 0.34218 0.32537 0.94914 0.0
C549 C 0.34874 0.31812 0.99554 0.0
C550 C 0.33021 0.3411 0.94842 0.0
C551 C 0.32397 0.34945 0.9941 0.0
H552 H 0.3465 0.31905 0.91337 0.0
H553 H 0.32499 0.34595 0.91199 0.0
S554 S 0.33717 0.33555 0.12536 0.0
N555 N 0.34846 0.32063 0.08808 0.0
N556 N 0.32557 0.34963 0.08664 0.0
C557 C 0.33064 0.34243 0.04057 0.0
C558 C 0.34312 0.32687 0.04131 0.0
C559 C 0.61556 0.96432 0.99061 0.0
C560 C 0.62977 0.95352 0.01426 0.0
C561 C 0.62814 -0.00926 0.97537 0.0
C562 C 0.65549 0.00735 0.98251 0.0
H563 H 0.59441 0.95237 0.98385 0.0
H564 H 0.61631 -0.00169 0.95841 0.0
S565 S 0.7019 -0.01044 0.04357 0.0
N566 N 0.6729 0.962 0.04461 0.0
N567 N 0.6965 0.0117 0.01565 0.0
C568 C 0.6701 -0.00305 1.00555 0.0
C569 C 0.65725 0.97006 0.02161 0.0
C570 C 0.66132 0.67267 0.28108 0.0
C571 C 0.67221 0.66342 0.31819 0.0
C572 C 0.63467 0.658 0.26747 0.0
C573 C 0.61811 0.63351 0.29012 0.0
H574 H 0.67311 0.69191 0.26377 0.0
H575 H 0.62647 0.66678 0.24222 0.0
S576 S 0.63714 0.5989 0.38457 0.0
N577 N 0.66478 0.627 0.37369 0.0
N578 N 0.61436 0.59934 0.34772 0.0
C579 C 0.62904 0.62296 0.32399 0.0
C580 C 0.65618 0.63804 0.33844 0.0
C581 C 0.28165 0.94493 0.37119 0.0
C582 C 0.30919 0.95487 0.37212 0.0
C583 C 0.27127 0.96181 0.37443 0.0
C584 C 0.28801 -0.01084 0.38003 0.0
H585 H 0.26793 0.92396 0.36661 0.0
H586 H 0.24998 0.95342 0.37162 0.0
S587 S 0.36141 0.02497 0.38926 0.0
N588 N 0.353 -0.00636 0.3821 0.0
N589 N 0.33334 0.02552 0.38906 0.0
C590 C 0.31553 -0.00065 0.38342 0.0
C591 C 0.32618 0.98215 0.37911 0.0
C592 C 0.96256 0.30628 0.37168 0.0
C593 C 0.97836 0.29466 0.37886 0.0
C594 C 0.97407 0.33339 0.36365 0.0
C595 C 0.00171 0.34982 0.36388 0.0
H596 H 0.94114 0.29419 0.37012 0.0
H597 H 0.9612 0.34158 0.35769 0.0
S598 S 0.05171 0.32913 0.38328 0.0
N599 N 0.02288 0.30135 0.38625 0.0
N600 N 0.04471 0.35291 0.37362 0.0
C601 C 0.01779 0.33861 0.37259 0.0
C602 C 0.00603 0.31081 0.37938 0.0
C603 C 0.63303 0.96701 0.29844 0.0
C604 C 0.61844 0.9623 0.34337 0.0
C605 C 0.66066 0.98018 0.30013 0.0
C606 C 0.67426 -0.01042 0.34662 0.0
H607 H 0.62305 0.9607 0.2619 0.0
H608 H 0.67144 0.98404 0.26464 0.0
S609 S 0.64486 0.98139 0.4748 0.0
N610 N 0.61918 0.96686 0.43567 0.0
N611 N 0.67145 -0.00744 0.43851 0.0
C612 C 0.65989 0.98454 0.39187 0.0
C613 C 0.63178 0.97057 0.39032 0.0
C614 C -0.00432 0.68038 0.30277 0.0
C615 C -0.01646 0.68195 0.348 0.0
C616 C 0.00997 0.66702 0.30152 0.0
C617 C 0.01294 0.65539 0.34571 0.0
H618 H -0.00608 0.68932 0.26796 0.0
H619 H 0.01915 0.66621 0.26621 0.0
S620 S -0.01472 0.65385 0.47343 0.0
N621 N 0.9752 0.67039 0.43768 0.0
N622 N 0.00283 0.6459 0.43555 0.0
C623 C 0.00102 0.65678 0.39109 0.0
C624 C -0.01396 0.6699 0.39218 0.0
C625 C 0.3139 0.333 0.35957 0.0
C626 C 0.2981 0.34368 0.34421 0.0
C627 C 0.30298 0.30578 0.36539 0.0
C628 C 0.27603 0.28836 0.35512 0.0
H629 H 0.33484 0.34578 0.3675 0.0
H630 H 0.31597 0.29829 0.37601 0.0
S631 S 0.226 0.30642 0.31606 0.0
N632 N 0.25396 0.33495 0.32108 0.0
N633 N 0.2335 0.28348 0.33077 0.0
C634 C 0.25987 0.29875 0.34068 0.0
C635 C 0.27091 0.32654 0.33557 0.0
C636 C 0.29062 0.0078 0.64142 0.0
C637 C 0.27672 -0.00179 0.6872 0.0
C638 C 0.31828 0.02151 0.64099 0.0
C639 C 0.33277 0.02538 0.68624 0.0
H640 H 0.28004 0.00339 0.60543 0.0
H641 H 0.32823 0.02716 0.6045 0.0
S642 S 0.30555 0.00798 0.81685 0.0
N643 N 0.27916 -0.00332 0.77954 0.0
N644 N 0.33146 0.02194 0.77862 0.0
C645 C 0.31913 0.01793 0.73273 0.0
C646 C 0.29092 0.00445 0.73325 0.0
C647 C 0.95553 0.31304 0.73146 0.0
C648 C 0.9481 0.3207 0.68675 0.0
C649 C 0.97031 0.30031 0.72912 0.0
C650 C 0.97868 0.29554 0.68206 0.0
H651 H 0.9501 0.31712 0.76844 0.0
H652 H 0.97608 0.2951 0.76458 0.0
S653 S 0.96355 0.31108 0.55404 0.0
N654 N 0.94906 0.32178 0.59398 0.0
N655 N 0.97781 0.29847 0.58985 0.0
C656 C 0.97102 0.30268 0.637 0.0
C657 C 0.95538 0.31508 0.6393 0.0
C658 C 0.632 0.65668 0.71074 0.0
C659 C 0.65113 0.67313 0.67539 0.0
C660 C 0.62392 0.6298 0.7129 0.0
C661 C 0.63533 0.61909 0.68053 0.0
H662 H 0.6235 0.66471 0.73706 0.0
H663 H 0.609 0.61744 0.74037 0.0
S664 S 0.68559 0.65464 0.58005 0.0
N665 N 0.6807 0.67746 0.60664 0.0
N666 N 0.66594 0.62693 0.61056 0.0
C667 C 0.65441 0.63558 0.64472 0.0
C668 C 0.66225 0.66272 0.6422 0.0
C669 C 0.31858 0.28643 0.68606 0.0
C670 C 0.33 0.31362 0.6965 0.0
C671 C 0.29135 0.27076 0.67613 0.0
C672 C 0.27516 0.28216 0.67429 0.0
H673 H 0.33086 0.27736 0.68466 0.0
H674 H 0.28305 0.24983 0.66869 0.0
S675 S 0.29515 0.35202 0.70107 0.0
N676 N 0.32279 0.3509 0.70678 0.0
N677 N 0.27182 0.32162 0.68653 0.0
C678 C 0.28622 0.30914 0.68563 0.0
C679 C 0.31365 0.32486 0.69721 0.0
C680 C 0.63275 0.96998 0.68347 0.0
C681 C 0.65817 0.97893 0.70412 0.0
C682 C 0.61872 0.98293 0.69448 0.0
C683 C 0.62984 0.00537 0.72594 0.0
H684 H 0.62381 0.95323 0.65763 0.0
H685 H 0.60001 0.97658 0.67511 0.0
S686 S 0.69391 0.03493 0.79479 0.0
N687 N 0.69255 0.01007 0.76218 0.0
N688 N 0.66613 0.03478 0.7814 0.0
C689 C 0.65437 0.01363 0.74933 0.0
C690 C 0.66861 0.00033 0.73869 0.0
C691 C 0.96046 0.67098 0.686 0.0
C692 C -0.01179 0.68365 0.68871 0.0
C693 C 0.94517 0.64347 0.69049 0.0
C694 C 0.9573 0.62829 0.6998 0.0
H695 H 0.95068 0.68228 0.67885 0.0
H696 H 0.92384 0.63397 0.6859 0.0
S697 S 0.02928 0.6529 0.71384 0.0
N698 N 0.02721 0.67962 0.70317 0.0
N699 N -0.00155 0.62798 0.71348 0.0
C700 C -0.01503 0.64101 0.70483 0.0
C701 C 0.00048 0.66877 0.69876 0.0
C702 C 0.18557 0.35276 0.08508 0.0
C703 C 0.19554 0.35653 0.03521 0.0
C704 C 0.16081 0.35044 0.09457 0.0
C705 C 0.14517 0.35079 0.0542 0.0
H706 H 0.19765 0.35336 0.11708 0.0
H707 H 0.15458 0.3499 0.13362 0.0
S708 S 0.16125 0.35699 0.91655 0.0
N709 N 0.1872 0.35831 0.94497 0.0
N710 N 0.14048 0.35324 0.9627 0.0
C711 C 0.15417 0.35255 1.00406 0.0
C712 C 0.17949 0.35557 0.99452 0.0
C713 C 0.65108 0.80645 0.1496 0.0
C714 C 0.658 0.79693 0.10659 0.0
C715 C 0.6524 0.831 0.14851 0.0
C716 C 0.6604 0.84646 0.1042 0.0
H717 H 0.64122 0.79343 0.18144 0.0
H718 H 0.64338 0.83598 0.17946 0.0
S719 S 0.68738 0.83336 0.98728 0.0
N720 N 0.67873 0.80717 0.02334 0.0
N721 N 0.68092 0.85334 0.0211 0.0
C722 C 0.67173 0.83923 0.06471 0.0
C723 C 0.67054 0.81425 0.06592 0.0
C724 C 0.13158 0.80789 0.08608 0.0
C725 C 0.1237 0.78959 0.0459 0.0
C726 C 0.15446 0.83282 0.08159 0.0
C727 C 0.16968 0.83962 0.03693 0.0
H728 H 0.12195 0.80187 0.1228 0.0
H729 H 0.16196 0.84532 0.11512 0.0
S730 S 0.15391 0.8005 0.91778 0.0
N731 N 0.13016 0.78141 0.95778 0.0
N732 N 0.17294 0.8282 0.94932 0.0
C733 C 0.1599 0.82281 0.99452 0.0
C734 C 0.13686 0.79761 0.99908 0.0
C735 C 0.38641 0.19602 0.0315 0.0
C736 C 0.36866 0.19819 0.99831 0.0
C737 C 0.38884 0.17353 0.03167 0.0
C738 C 0.37367 0.15229 0.99856 0.0
H739 H 0.39899 0.21209 0.05706 0.0
H740 H 0.40304 0.17302 0.0577 0.0
S741 S 0.32303 0.14742 0.90631 0.0
N742 N 0.33465 0.17682 0.93308 0.0
N743 N 0.33918 0.13409 0.93337 0.0
C744 C 0.35509 0.15369 0.96629 0.0
C745 C 0.35253 0.17675 0.9663 0.0
C746 C 0.8317 0.14845 0.98533 0.0
C747 C 0.84313 0.16695 0.9459 0.0
C748 C 0.80707 0.12544 0.97817 0.0
C749 C 0.79318 0.12095 0.93201 0.0
H750 H 0.84009 0.15332 0.0234 0.0
H751 H 0.79739 0.11301 1.01071 0.0
S752 S 0.81756 0.16052 0.81443 0.0
N753 N 0.8414 0.17676 0.85674 0.0
N754 N 0.79453 0.13405 0.84406 0.0
C755 C 0.80607 0.1374 0.89061 0.0
C756 C 0.83135 0.16039 0.89745 0.0
C757 C 0.81451 0.61812 0.94231 0.0
C758 C 0.81736 0.60642 0.98692 0.0
C759 C 0.79301 0.62249 0.93642 0.0
C760 C 0.77406 0.61531 0.97514 0.0
H761 H 0.82838 0.62306 0.91121 0.0
H762 H 0.79046 0.63016 0.90064 0.0
S763 S 0.77516 0.5884 0.1023 0.0
N764 N 0.80127 0.59094 0.07266 0.0
N765 N 0.76108 0.59896 0.06129 0.0
C766 C 0.77773 0.60523 0.02093 0.0
C767 C 0.79937 0.60081 0.02693 0.0
C768 C 0.81504 0.67383 0.38055 0.0
C769 C 0.81083 0.692 0.3531 0.0
C770 C 0.8397 0.67512 0.37896 0.0
C771 C 0.86049 0.69456 0.34979 0.0
H772 H 0.79976 0.65956 0.40535 0.0
H773 H 0.84295 0.6619 0.4028 0.0
S774 S 0.85702 0.74229 0.2619 0.0
N775 N 0.8277 0.72685 0.2895 0.0
N776 N 0.8739 0.72916 0.28631 0.0
C777 C 0.85561 0.71114 0.31868 0.0
C778 C 0.83073 0.7099 0.32042 0.0
C779 C 0.27644 0.14676 0.31008 0.0
C780 C 0.28782 0.16569 0.3491 0.0
C781 C 0.27754 0.12356 0.31179 0.0
C782 C 0.29013 0.1187 0.35245 0.0
H783 H 0.26486 0.14894 0.28009 0.0
H784 H 0.26669 0.10845 0.28324 0.0
S785 S 0.32773 0.16454 0.45799 0.0
N786 N 0.31576 0.18026 0.42482 0.0
N787 N 0.3179 0.13621 0.42797 0.0
C788 C 0.30447 0.13884 0.38817 0.0
C789 C 0.3033 0.16261 0.38649 0.0
C790 C 0.83011 0.11777 0.31253 0.0
C791 C 0.8079 0.11449 0.33957 0.0
C792 C 0.85433 0.14112 0.31634 0.0
C793 C 0.85713 0.16203 0.34714 0.0
H794 H 0.82921 0.10165 0.29044 0.0
H795 H 0.87128 0.14225 0.297 0.0
S796 S 0.80368 0.16524 0.41734 0.0
N797 N 0.78903 0.13532 0.3919 0.0
N798 N 0.83494 0.17968 0.39892 0.0
C799 C 0.83447 0.16014 0.37001 0.0
C800 C 0.80966 0.13617 0.3662 0.0
C801 C -0.01247 0.48337 0.35474 0.0
C802 C -0.01252 0.46961 0.31085 0.0
C803 C -0.0099 0.50836 0.3509 0.0
C804 C -0.00707 0.5202 0.30311 0.0
H805 H -0.01139 0.47614 0.39217 0.0
H806 H -0.00703 0.51967 0.38552 0.0
S807 S -0.01049 0.49025 0.17713 0.0
N808 N -0.0134 0.46768 0.21849 0.0
N809 N -0.0081 0.51516 0.21127 0.0
C810 C -0.01015 0.50542 0.25901 0.0
C811 C -0.01302 0.47983 0.26292 0.0
C812 C 0.47419 0.49317 0.25678 0.0
C813 C 0.48415 0.50762 0.30222 0.0
C814 C 0.44897 0.47039 0.25572 0.0
C815 C 0.43374 0.46161 0.30029 0.0
H816 H 0.48456 0.501 0.2212 0.0
H817 H 0.44041 0.4612 0.21938 0.0
S818 S 0.45294 0.49076 0.42955 0.0
N819 N 0.47833 0.51023 0.3931 0.0
N820 N 0.43146 0.46721 0.39143 0.0
C821 C 0.44487 0.47435 0.34661 0.0
C822 C 0.47009 0.49753 0.34752 0.0
C823 C 0.44257 0.93982 0.36191 0.0
C824 C 0.43609 0.95205 0.32309 0.0
C825 C 0.46692 0.94089 0.36244 0.0
C826 C 0.48563 0.9542 0.32407 0.0
H827 H 0.42801 0.92787 0.39034 0.0
H828 H 0.4705 0.9299 0.39155 0.0
S829 S 0.47987 -0.00672 0.21905 0.0
N830 N 0.4512 0.98076 0.24922 0.0
N831 N 0.4977 0.98298 0.25021 0.0
C832 C 0.48054 0.96882 0.2879 0.0
C833 C 0.45545 0.96765 0.28734 0.0
C834 C 0.48274 0.00102 0.75346 0.0
C835 C 0.50099 0.00791 0.71356 0.0
C836 C 0.45867 0.00056 0.74553 0.0
C837 C 0.45279 0.00729 0.69779 0.0
H838 H 0.48807 -0.00164 0.79166 0.0
H839 H 0.44602 -0.00235 0.77795 0.0
S840 S 0.49209 0.02162 0.57957 0.0
N841 N 0.51002 0.01757 0.62355 0.0
N842 N 0.46498 0.01688 0.6088 0.0
C843 C 0.46965 0.01133 0.65668 0.0
C844 C 0.49385 0.01165 0.66461 0.0
C845 C 0.91992 0.44517 0.67036 0.0
C846 C 0.93511 0.44134 0.70732 0.0
C847 C 0.92198 0.46971 0.66404 0.0
C848 C 0.93916 0.49129 0.69474 0.0
H849 H 0.90581 0.42889 0.64677 0.0
H850 H 0.90917 0.47145 0.63622 0.0
S851 S -0.01434 0.49227 0.7927 0.0
N852 N 0.96988 0.46148 0.77143 0.0
N853 N 0.97361 0.50808 0.7601 0.0
C854 C 0.95591 0.48829 0.72942 0.0
C855 C 0.95389 0.46312 0.73563 0.0
C856 C 0.48651 0.48765 0.71439 0.0
C857 C 0.5038 0.49222 0.67355 0.0
C858 C 0.46149 0.46464 0.71548 0.0
C859 C 0.45363 0.44604 0.67574 0.0
H860 H 0.49334 0.50037 0.7477 0.0
H861 H 0.44969 0.46005 0.74977 0.0
S862 S 0.48958 0.45232 0.55583 0.0
N863 N 0.50982 0.4789 0.58931 0.0
N864 N 0.4627 0.43599 0.59086 0.0
C865 C 0.46939 0.4523 0.63205 0.0
C866 C 0.4947 0.47539 0.63114 0.0
C867 C 0.68246 0.85305 0.69402 0.0
C868 C 0.66561 0.85725 0.66212 0.0
C869 C 0.68091 0.82864 0.6957 0.0
C870 C 0.66254 0.80759 0.66535 0.0
H871 H 0.69769 0.86904 0.71659 0.0
H872 H 0.69507 0.82664 0.71939 0.0
S873 S 0.61097 0.80728 0.58205 0.0
N874 N 0.62765 0.83779 0.60469 0.0
N875 N 0.62479 0.79123 0.60753 0.0
C876 C 0.64389 0.8107 0.63675 0.0
C877 C 0.64543 0.83581 0.63518 0.0
C878 C 0.12123 0.826 0.60352 0.0
C879 C 0.11759 0.80943 0.64494 0.0
C880 C 0.14351 0.85116 0.60104 0.0
C881 C 0.1627 0.86019 0.63974 0.0
H882 H 0.10557 0.82048 0.57555 0.0
H883 H 0.14452 0.86444 0.57124 0.0
S884 S 0.16375 0.82291 0.75261 0.0
N885 N 0.13586 0.8024 0.72261 0.0
N886 N 0.17834 0.84995 0.71751 0.0
C887 C 0.16064 0.84284 0.67856 0.0
C888 C 0.13778 0.81721 0.6813 0.0
C889 C 0.13567 0.27662 0.71047 0.0
C890 C 0.15171 0.28642 0.66724 0.0
C891 C 0.11448 0.28091 0.71767 0.0
C892 C 0.10843 0.29471 0.68132 0.0
H893 H 0.13857 0.26423 0.73736 0.0
H894 H 0.10142 0.27143 0.74969 0.0
S895 S 0.14748 0.32828 0.5664 0.0
N896 N 0.163 0.31387 0.59173 0.0
N897 N 0.12232 0.32146 0.60456 0.0
C898 C 0.12605 0.30711 0.64086 0.0
C899 C 0.14796 0.30296 0.63384 0.0
C900 C 0.06177 0.43303 0.17893 0.0
C901 C 0.06495 0.42867 0.23071 0.0
C902 C 0.07253 0.42484 0.13985 0.0
C903 C 0.08644 0.41169 0.15145 0.0
H904 H 0.04965 0.44153 0.16839 0.0
H905 H 0.06821 0.42701 0.10057 0.0
S906 S 0.1035 0.39868 0.28038 0.0
N907 N 0.08573 0.41302 0.29106 0.0
N908 N 0.10559 0.39742 0.21783 0.0
C909 C 0.09154 0.4091 0.20291 0.0
C910 C 0.08092 0.41769 0.24258 0.0
C911 C 0.5535 0.65766 0.24667 0.0
C912 C 0.53632 0.63228 0.22702 0.0
C913 C 0.5685 0.67902 0.21393 0.0
C914 C 0.56581 0.67607 0.16055 0.0
H915 H 0.55688 0.66072 0.28728 0.0
H916 H 0.58304 0.69777 0.23051 0.0
S917 S 0.5182 0.61534 0.09076 0.0
N918 N 0.51401 0.60652 0.15126 0.0
N919 N 0.54114 0.64695 0.09022 0.0
C920 C 0.54619 0.65169 0.14085 0.0
C921 C 0.53156 0.62975 0.17403 0.0
C922 C 0.30117 0.87176 0.15221 0.0
C923 C 0.27718 0.87179 0.15739 0.0
C924 C 0.31842 0.87772 0.19382 0.0
C925 C 0.3121 0.88348 0.24208 0.0
H926 H 0.30757 0.86899 0.11515 0.0
H927 H 0.33774 0.87981 0.18729 0.0
S928 S 0.25057 0.88325 0.27746 0.0
N929 N 0.24691 0.87564 0.21629 0.0
N930 N 0.27947 0.88663 0.29385 0.0
C931 C 0.28727 0.88126 0.24888 0.0
C932 C 0.26973 0.87542 0.20662 0.0
C933 C 0.43317 0.10357 0.86771 0.0
C934 C 0.40897 0.10287 0.87561 0.0
C935 C 0.4396 0.0979 0.81978 0.0
C936 C 0.42221 0.09166 0.77817 0.0
H937 H 0.44608 0.10602 0.89956 0.0
H938 H 0.4569 0.09564 0.81658 0.0
S939 S 0.35975 0.09383 0.77604 0.0
N940 N 0.37005 0.1005 0.83578 0.0
N941 N 0.38238 0.09004 0.74548 0.0
C942 C 0.3999 0.09465 0.78385 0.0
C943 C 0.39315 0.10014 0.83284 0.0
C944 C 0.87747 0.30809 0.89715 0.0
C945 C 0.86686 0.28149 0.8831 0.0
C946 C 0.88254 0.3274 0.86017 0.0
C947 C 0.87693 0.32068 0.80807 0.0
H948 H 0.88378 0.31434 0.93603 0.0
H949 H 0.89258 0.34791 0.87215 0.0
S950 S 0.84289 0.25263 0.75464 0.0
N951 N 0.84661 0.2487 0.81579 0.0
N952 N 0.85565 0.28474 0.7465 0.0
C953 C 0.86345 0.29371 0.79486 0.0
C954 C 0.85859 0.27418 0.83236 0.0
C955 C 0.66638 0.56322 0.81327 0.0
C956 C 0.6585 0.56054 0.86481 0.0
C957 C 0.64769 0.55111 0.77377 0.0
C958 C 0.62049 0.53609 0.78451 0.0
H959 H 0.68699 0.57583 0.80306 0.0
H960 H 0.65445 0.55506 0.73471 0.0
S961 S 0.58995 0.51877 0.91289 0.0
N962 N 0.62188 0.53846 0.92423 0.0
N963 N 0.58695 0.51596 0.8503 0.0
C964 C 0.61265 0.53133 0.8359 0.0
C965 C 0.63159 0.54352 0.87599 0.0
C966 C 0.86935 0.57584 0.83674 0.0
C967 C 0.86445 0.56077 0.88137 0.0
C968 C 0.87487 0.56755 0.79048 0.0
C969 C 0.87584 0.54406 0.78768 0.0
H970 H 0.87097 0.59511 0.8383 0.0
H971 H 0.88104 0.58092 0.75835 0.0
S972 S 0.85836 0.49459 0.89011 0.0
N973 N 0.85607 0.51889 0.91721 0.0
N974 N 0.86687 0.50363 0.83039 0.0
C975 C 0.86788 0.52738 0.83029 0.0
C976 C 0.86207 0.53567 0.87724 0.0
C977 C 0.42808 0.33719 0.89156 0.0
C978 C 0.42077 0.31046 0.88698 0.0
C979 C 0.4308 0.35224 0.84828 0.0
C980 C 0.4262 0.34103 0.79905 0.0
H981 H 0.42933 0.3459 0.92869 0.0
H982 H 0.43453 0.37219 0.85387 0.0
S983 S 0.41391 0.27401 0.76666 0.0
N984 N 0.41462 0.27504 0.82954 0.0
N985 N 0.41937 0.30328 0.74807 0.0
C986 C 0.42229 0.3154 0.79383 0.0
C987 C 0.41971 0.30013 0.83794 0.0
C988 C 0.64631 0.08248 0.8868 0.0
C989 C 0.67174 0.09258 0.86615 0.0
C990 C 0.62433 0.07575 0.85525 0.0
C991 C 0.62694 0.07934 0.80192 0.0
H992 H 0.64303 0.07805 0.92704 0.0
H993 H 0.60489 0.06626 0.87266 0.0
S994 S 0.69058 0.11191 0.73157 0.0
N995 N 0.69913 0.10995 0.79075 0.0
N996 N 0.65806 0.09907 0.73199 0.0
C997 C 0.65276 0.09249 0.78187 0.0
C998 C 0.67508 0.09855 0.81383 0.0
C999 C 0.55523 0.88784 0.13987 0.0
C1000 C 0.56921 0.87514 0.1546 0.0
C1001 C 0.54287 0.89569 0.17652 0.0
C1002 C 0.54401 0.89101 0.22906 0.0
H1003 H 0.55564 0.89363 0.10056 0.0
H1004 H 0.53389 0.90703 0.16381 0.0
S1005 S 0.57418 0.85388 0.28513 0.0
N1006 N 0.58056 0.85507 0.22364 0.0
N1007 N 0.55712 0.86926 0.29224 0.0
C1008 C 0.55576 0.87598 0.24325 0.0
C1009 C 0.56847 0.86826 0.20607 0.0
C1010 C 0.08934 0.63647 0.18847 0.0
C1011 C 0.08591 0.64195 0.23931 0.0
C1012 C 0.09693 0.65565 0.15026 0.0
C1013 C 0.10118 0.68097 0.16166 0.0
H1014 H 0.08338 0.6164 0.17715 0.0
H1015 H 0.09679 0.64974 0.11106 0.0
S1016 S 0.10166 0.70715 0.29125 0.0
N1017 N 0.09264 0.67584 0.30065 0.0
N1018 N 0.10694 0.71209 0.22942 0.0
C1019 C 0.10159 0.68774 0.21358 0.0
C1020 C 0.09397 0.66815 0.25241 0.0
C1021 C 0.28872 0.40075 0.2285 0.0
C1022 C 0.31159 0.42577 0.23208 0.0
C1023 C 0.27581 0.39113 0.18163 0.0
C1024 C 0.28545 0.40628 0.13698 0.0
H1025 H 0.28279 0.38723 0.2603 0.0
H1026 H 0.25976 0.37082 0.17966 0.0
S1027 S 0.34064 0.47566 0.12982 0.0
N1028 N 0.34023 0.46734 0.19005 0.0
N1029 N 0.31593 0.44957 0.10175 0.0
C1030 C 0.30593 0.43271 0.14178 0.0
C1031 C 0.31896 0.44243 0.1896 0.0
C1032 C 0.71356 0.75289 0.50481 0.0
C1033 C 0.71836 0.74828 0.55546 0.0
C1034 C 0.72393 0.74594 0.46309 0.0
C1035 C 0.73944 0.73397 0.47021 0.0
H1036 H 0.70095 0.76119 0.4971 0.0
H1037 H 0.71878 0.74898 0.42501 0.0
S1038 S 0.76042 0.72029 0.59494 0.0
N1039 N 0.74165 0.733 0.61014 0.0
N1040 N 0.76108 0.71996 0.53208 0.0
C1041 C 0.74559 0.73056 0.52066 0.0
C1042 C 0.7351 0.73771 0.56314 0.0
C1043 C 0.19958 0.98505 0.47136 0.0
C1044 C 0.21896 0.01172 0.47889 0.0
C1045 C 0.1886 0.96794 0.51269 0.0
C1046 C 0.19645 0.97694 0.56289 0.0
H1047 H 0.19444 0.97674 0.4333 0.0
H1048 H 0.17566 0.94705 0.50504 0.0
S1049 S 0.24161 0.0462 0.60357 0.0
N1050 N 0.24175 0.04737 0.54071 0.0
N1051 N 0.22109 0.01502 0.61843 0.0
C1052 C 0.21306 0.00418 0.57128 0.0
C1053 C 0.22439 0.02165 0.52913 0.0
C1054 C 0.00592 0.22679 0.52988 0.0
C1055 C -0.00529 0.22505 0.57823 0.0
C1056 C -0.00981 0.21829 0.48589 0.0
C1057 C 0.96261 0.20764 0.48858 0.0
H1058 H 0.02725 0.23661 0.52543 0.0
H1059 H 0.0 0.22195 0.44934 0.0
S1060 S 0.9229 0.19268 0.60706 0.0
N1061 N 0.95397 0.2075 0.62708 0.0
N1062 N 0.92422 0.19108 0.5444 0.0
C1063 C 0.95083 0.20274 0.5372 0.0
C1064 C 0.96694 0.21153 0.58211 0.0
C1065 C 0.21042 0.19148 0.50244 0.0
C1066 C 0.20838 0.19989 0.4532 0.0
C1067 C 0.20078 0.19838 0.54515 0.0
C1068 C 0.18885 0.21401 0.54008 0.0
H1069 H 0.22138 0.18125 0.50861 0.0
H1070 H 0.2049 0.19343 0.58254 0.0
S1071 S 0.17263 0.23528 0.41862 0.0
N1072 N 0.18901 0.22031 0.40109 0.0
N1073 N 0.17077 0.23317 0.48136 0.0
C1074 C 0.18366 0.2196 0.4906 0.0
C1075 C 0.19344 0.21254 0.44706 0.0
C1076 C 0.72104 0.96017 0.50177 0.0
C1077 C 0.72738 0.97091 0.55145 0.0
C1078 C 0.73259 0.97583 0.45858 0.0
C1079 C 0.75091 0.00299 0.46316 0.0
H1080 H 0.70622 0.9396 0.49588 0.0
H1081 H 0.72582 0.96686 0.42135 0.0
S1082 S 0.7773 0.04016 0.58439 0.0
N1083 N 0.75548 0.0099 0.6026 0.0
N1084 N 0.77717 0.03939 0.52148 0.0
C1085 C 0.75888 0.01362 0.51261 0.0
C1086 C 0.74713 -0.0024 0.55671 0.0
C1087 C 0.01449 0.77391 0.51228 0.0
C1088 C 0.00364 0.76601 0.56137 0.0
C1089 C -0.00173 0.76668 0.46889 0.0
C1090 C 0.9706 0.7512 0.47302 0.0
H1091 H 0.03579 0.78437 0.50698 0.0
H1092 H 0.00764 0.77169 0.43182 0.0
S1093 S 0.93212 0.72969 0.59345 0.0
N1094 N 0.96343 0.74507 0.61206 0.0
N1095 N 0.93282 0.7317 0.53068 0.0
C1096 C 0.95939 0.74551 0.52224 0.0
C1097 C 0.97596 0.75288 0.56644 0.0
C1098 C 0.0766 0.36123 0.85059 0.0
C1099 C 0.08303 0.35646 0.89954 0.0
C1100 C 0.06635 0.34122 0.81314 0.0
C1101 C 0.06184 0.31556 0.82336 0.0
H1102 H 0.07933 0.38047 0.84123 0.0
H1103 H 0.06166 0.34589 0.77602 0.0
S1104 S 0.07339 0.29214 0.94662 0.0
N1105 N 0.08239 0.32337 0.95678 0.0
N1106 N 0.06403 0.28644 0.88641 0.0
C1107 C 0.06808 0.31053 0.8721 0.0
C1108 C 0.07839 0.33077 0.91013 0.0
C1109 C 0.64466 0.75834 0.9074 0.0
C1110 C 0.61826 0.7371 0.90888 0.0
C1111 C 0.6597 0.76502 0.86247 0.0
C1112 C 0.64903 0.7508 0.81694 0.0
H1113 H 0.65436 0.76916 0.94182 0.0
H1114 H 0.68016 0.78085 0.86403 0.0
S1115 S 0.57987 0.69572 0.79805 0.0
N1116 N 0.58138 0.70363 0.85884 0.0
N1117 N 0.6095 0.71613 0.77485 0.0
C1118 C 0.62215 0.73068 0.81693 0.0
C1119 C 0.60682 0.72389 0.86265 0.0
C1120 C 0.2302 0.88429 0.8396 0.0
C1121 C 0.2214 0.88372 0.88949 0.0
C1122 C 0.22132 0.89375 0.79948 0.0
C1123 C 0.20288 0.90233 0.80778 0.0
H1124 H 0.24501 0.87871 0.83198 0.0
H1125 H 0.22943 0.8949 0.76185 0.0
S1126 S 0.17133 0.90129 0.93095 0.0
N1127 N 0.19185 0.89044 0.94467 0.0
N1128 N 0.1744 0.9072 0.86914 0.0
C1129 C 0.19269 0.90015 0.85705 0.0
C1130 C 0.20218 0.89113 0.89796 0.0
C1131 C 0.34264 0.07638 0.18953 0.0
C1132 C 0.33504 0.07638 0.13876 0.0
C1133 C 0.32434 0.06906 0.22909 0.0
C1134 C 0.29765 0.06149 0.21958 0.0
H1135 H 0.36281 0.08161 0.19889 0.0
H1136 H 0.33123 0.0691 0.26749 0.0
S1137 S 0.26789 0.05943 0.09333 0.0
N1138 N 0.29921 0.06909 0.08093 0.0
N1139 N 0.26472 0.05536 0.15566 0.0
C1140 C 0.28985 0.06199 0.16908 0.0
C1141 C 0.30856 0.0694 0.12858 0.0
C1142 C 0.89921 0.20909 0.18037 0.0
C1143 C 0.91315 0.22741 0.21928 0.0
C1144 C 0.88881 0.21595 0.13869 0.0
C1145 C 0.89214 0.24151 0.134 0.0
H1146 H 0.89615 0.18924 0.1823 0.0
H1147 H 0.87848 0.20116 0.1094 0.0
S1148 S 0.92815 0.29704 0.22555 0.0
N1149 N 0.9301 0.27224 0.25073 0.0
N1150 N 0.91098 0.28533 0.17228 0.0
C1151 C 0.90593 0.25996 0.17314 0.0
C1152 C 0.91636 0.25288 0.2157 0.0
C1153 C 0.74356 0.65097 0.20627 0.0
C1154 C 0.7532 0.67828 0.2005 0.0
C1155 C 0.73432 0.63357 0.16456 0.0
C1156 C 0.73411 0.64265 0.11515 0.0
H1157 H 0.74232 0.64273 0.24379 0.0
H1158 H 0.72644 0.61269 0.17153 0.0
S1159 S 0.75956 0.71274 0.07854 0.0
N1160 N 0.7638 0.71388 0.14093 0.0
N1161 N 0.74644 0.68132 0.06224 0.0
C1162 C 0.745 0.67016 0.10835 0.0
C1163 C 0.75459 0.68793 0.15102 0.0
C1164 C 0.9213 0.69247 0.15704 0.0
C1165 C 0.90899 0.68714 0.20488 0.0
C1166 C 0.91212 0.67278 0.11913 0.0
C1167 C 0.8905 0.64727 0.12824 0.0
H1168 H 0.93909 0.71123 0.15008 0.0
H1169 H 0.92297 0.67709 0.08367 0.0
S1170 S 0.84847 0.6255 0.24365 0.0
N1171 N 0.87192 0.65609 0.25665 0.0
N1172 N 0.85479 0.61917 0.18563 0.0
C1173 C 0.87684 0.64253 0.17441 0.0
C1174 C 0.88607 0.6625 0.2127 0.0
C1175 C 0.29742 0.21506 0.16583 0.0
C1176 C 0.30211 0.22641 0.21474 0.0
C1177 C 0.3178 0.22398 0.12977 0.0
C1178 C 0.34373 0.24423 0.1415 0.0
H1179 H 0.27776 0.19955 0.15488 0.0
H1180 H 0.31312 0.21521 0.09202 0.0
S1181 S 0.36677 0.2803 0.26408 0.0
N1182 N 0.33503 0.25895 0.27313 0.0
N1183 N 0.37317 0.27525 0.2052 0.0
C1184 C 0.34896 0.25526 0.19052 0.0
C1185 C 0.32817 0.24649 0.22714 0.0
C1186 C 0.71598 0.05261 0.18738 0.0
C1187 C 0.74321 0.06323 0.19731 0.0
C1188 C 0.70711 0.0614 0.14615 0.0
C1189 C 0.72514 0.08139 0.11353 0.0
H1190 H 0.70138 0.03694 0.21109 0.0
H1191 H 0.68598 0.05176 0.13871 0.0
S1192 S 0.79835 0.11857 0.12829 0.0
N1193 N 0.78803 0.09655 0.1746 0.0
N1194 N 0.77142 0.1134 0.0973 0.0
C1195 C 0.7524 0.09295 0.12442 0.0
C1196 C 0.76143 0.0838 0.16624 0.0
C1197 C 0.63506 0.88769 0.81348 0.0
C1198 C 0.66281 0.89859 0.81531 0.0
C1199 C 0.61928 0.87729 0.85708 0.0
C1200 C 0.63051 0.87727 0.90461 0.0
H1201 H 0.62541 0.88788 0.77828 0.0
H1202 H 0.59823 0.87017 0.85377 0.0
S1203 S 0.70223 0.90211 0.92915 0.0
N1204 N 0.70069 0.90732 0.86782 0.0
N1205 N 0.67142 0.88818 0.94986 0.0
C1206 C 0.65818 0.88696 0.90632 0.0
C1207 C 0.67421 0.8975 0.86175 0.0
C1208 C 0.06371 0.75733 0.86863 0.0
C1209 C 0.07029 0.75502 0.81827 0.0
C1210 C 0.07023 0.74589 0.90895 0.0
C1211 C 0.08381 0.73179 0.90082 0.0
H1212 H 0.05248 0.76708 0.87683 0.0
H1213 H 0.06407 0.74781 0.94687 0.0
S1214 S 0.10858 0.72324 0.77626 0.0
N1215 N 0.09321 0.73973 0.76259 0.0
N1216 N 0.10573 0.71852 0.83848 0.0
C1217 C 0.09178 0.73064 0.85085 0.0
C1218 C 0.08495 0.74215 0.80965 0.0
C1219 C 0.21596 0.30823 0.79821 0.0
C1220 C 0.20391 0.28098 0.80832 0.0
C1221 C 0.22828 0.32705 0.83667 0.0
C1222 C 0.22903 0.31951 0.8871 0.0
H1223 H 0.21665 0.31524 0.75973 0.0
H1224 H 0.23786 0.34774 0.82632 0.0
S1225 S 0.19823 0.25067 0.93493 0.0
N1226 N 0.19183 0.24727 0.87314 0.0
N1227 N 0.21492 0.28283 0.94612 0.0
C1228 C 0.21584 0.29231 0.89852 0.0
C1229 C 0.20324 0.273 0.859 0.0
C1230 C -0.00179 0.42431 0.53267 0.0
C1231 C -0.00945 0.42702 0.48336 0.0
C1232 C 0.97944 0.41296 0.57169 0.0
C1233 C 0.95231 0.40411 0.5631 0.0
H1234 H 0.01855 0.42962 0.54053 0.0
H1235 H -0.01378 0.41038 0.60855 0.0
S1236 S 0.92299 0.41049 0.44209 0.0
N1237 N 0.95467 0.4224 0.42893 0.0
N1238 N 0.91945 0.40161 0.50255 0.0
C1239 C 0.94476 0.40836 0.51473 0.0
C1240 C 0.96386 0.41964 0.47481 0.0
C1241 C 0.59889 0.5851 0.51808 0.0
C1242 C 0.58698 0.55779 0.52711 0.0
C1243 C 0.58815 0.5951 0.48232 0.0
C1244 C 0.56522 0.57813 0.45384 0.0
H1245 H 0.61592 0.59893 0.5405 0.0
H1246 H 0.598 0.61629 0.47679 0.0
S1247 S 0.52764 0.5048 0.46187 0.0
N1248 N 0.55165 0.51396 0.50435 0.0
N1249 N 0.53189 0.53237 0.43611 0.0
C1250 C 0.55372 0.55068 0.4617 0.0
C1251 C 0.56445 0.54063 0.49859 0.0
C1252 C 0.36669 0.96774 0.55968 0.0
C1253 C 0.39236 -0.01034 0.55366 0.0
C1254 C 0.35696 0.94567 0.52724 0.0
C1255 C 0.37268 0.94443 0.4879 0.0
H1256 H 0.35359 0.96795 0.58866 0.0
H1257 H 0.33656 0.93006 0.53167 0.0
S1258 S 0.44279 -0.0047 0.46077 0.0
N1259 N 0.43405 0.00794 0.50807 0.0
N1260 N 0.41655 0.9662 0.44873 0.0
C1261 C 0.39911 0.96557 0.48385 0.0
C1262 C 0.40871 -0.01173 0.51611 0.0
C1263 C 0.57108 -0.00203 0.47096 0.0
C1264 C 0.54769 0.97317 0.47513 0.0
C1265 C 0.58085 0.01595 0.512 0.0
C1266 C 0.56762 0.01005 0.55912 0.0
H1267 H 0.58245 0.00336 0.43604 0.0
H1268 H 0.59929 0.03436 0.50696 0.0
S1269 S 0.50451 0.94824 0.58898 0.0
N1270 N 0.51084 0.9442 0.52945 0.0
N1271 N 0.52896 0.97753 0.60648 0.0
C1272 C 0.54365 -0.01443 0.56318 0.0
C1273 C 0.53378 0.96729 0.52135 0.0
C1274 C 0.96425 0.55292 0.50376 0.0
C1275 C 0.96985 0.56303 0.55359 0.0
C1276 C -0.01599 0.56222 0.4665 0.0
C1277 C 0.01035 0.58228 0.47709 0.0
H1278 H 0.94426 0.53812 0.49292 0.0
H1279 H 0.97811 0.55416 0.4284 0.0
S1280 S 0.03617 0.61313 0.60359 0.0
N1281 N 0.00431 0.59247 0.61318 0.0
N1282 N 0.04133 0.61022 0.5427 0.0
C1283 C 0.01655 0.59165 0.52749 0.0
C1284 C -0.00362 0.582 0.56575 0.0
C1285 C 0.36001 0.40714 0.51987 0.0
C1286 C 0.37064 0.41239 0.47049 0.0
C1287 C 0.3698 0.39719 0.5575 0.0
C1288 C 0.39053 0.39197 0.54721 0.0
H1289 H 0.34382 0.41044 0.52942 0.0
H1290 H 0.36084 0.39337 0.59492 0.0
S1291 S 0.42477 0.40136 0.42371 0.0
N1292 N 0.40265 0.41052 0.41306 0.0
N1293 N 0.42133 0.3928 0.48421 0.0
C1294 C 0.40148 0.3973 0.49826 0.0
C1295 C 0.39147 0.40723 0.45985 0.0
loop_
_geom_bond_atom_site_label_1
_geom_bond_atom_site_label_2
_geom_bond_distance
_geom_bond_site_symmetry_2
_ccdc_geom_bond_type
Co0 O1 2.216 . S
Co0 O2 2.091 . S
Co0 O4 2.004 . S
Co0 O10 2.021 1_554 S
Co0 O12 2.137 . S
Co0 O13 2.244 . S
O1 Co0 2.216 . S
O1 C8 1.247 . S
O2 Co0 2.091 . S
O2 C8 1.261 . S
C3 O12 1.247 . S
C3 O13 1.272 . S
O4 Co0 2.004 . S
O4 C9 1.259 . S
Co5 O6 2.061 . S
Co5 O11 2.052 . S
Co5 O13 2.135 1_556 S
O6 Co5 2.061 . S
O6 C9 1.235 1_556 S
C7 O10 1.238 . S
C7 O11 1.241 . S
C8 O1 1.247 . S
C8 O2 1.261 . S
C9 O4 1.259 . S
C9 O6 1.235 1_554 S
O10 Co0 2.021 1_556 S
O10 C7 1.238 . S
O11 Co5 2.052 . S
O11 C7 1.241 . S
O12 Co0 2.137 . S
O12 C3 1.247 . S
O13 Co0 2.244 . S
O13 C3 1.272 . S
O13 Co5 2.135 1_554 S
Co14 O15 2.216 . S
Co14 O16 2.091 . S
Co14 O18 2.004 . S
Co14 O24 2.021 1_554 S
Co14 O26 2.137 . S
Co14 O27 2.244 . S
O15 Co14 2.216 . S
O15 C22 1.247 . S
O16 Co14 2.091 . S
O16 C22 1.261 . S
C17 O26 1.247 . S
C17 O27 1.272 . S
O18 Co14 2.004 . S
O18 C23 1.259 . S
Co19 O20 2.061 . S
Co19 O25 2.052 . S
Co19 O27 2.135 1_556 S
O20 Co19 2.061 . S
O20 C23 1.235 1_556 S
C21 O24 1.238 . S
C21 O25 1.241 . S
C22 O15 1.247 . S
C22 O16 1.261 . S
C23 O18 1.259 . S
C23 O20 1.235 1_554 S
O24 Co14 2.021 1_556 S
O24 C21 1.238 . S
O25 Co19 2.052 . S
O25 C21 1.241 . S
O26 Co14 2.137 . S
O26 C17 1.247 . S
O27 Co14 2.244 . S
O27 C17 1.272 . S
O27 Co19 2.135 1_554 S
Co28 O29 2.216 . S
Co28 O30 2.091 . S
Co28 O32 2.004 . S
Co28 O38 2.021 1_554 S
Co28 O40 2.137 . S
Co28 O41 2.244 . S
O29 Co28 2.216 . S
O29 C36 1.247 . S
O30 Co28 2.091 . S
O30 C36 1.261 . S
C31 O40 1.247 . S
C31 O41 1.272 . S
O32 Co28 2.004 . S
O32 C37 1.259 . S
Co33 O34 2.061 . S
Co33 O39 2.052 . S
Co33 O41 2.135 1_556 S
O34 Co33 2.061 . S
O34 C37 1.235 1_556 S
C35 O38 1.238 . S
C35 O39 1.241 . S
C36 O29 1.247 . S
C36 O30 1.261 . S
C37 O32 1.259 . S
C37 O34 1.235 1_554 S
O38 Co28 2.021 1_556 S
O38 C35 1.238 . S
O39 Co33 2.052 . S
O39 C35 1.241 . S
O40 Co28 2.137 . S
O40 C31 1.247 . S
O41 Co28 2.244 . S
O41 C31 1.272 . S
O41 Co33 2.135 1_554 S
Co42 O43 2.216 . S
Co42 O44 2.091 . S
Co42 O46 2.004 . S
Co42 O52 2.021 1_556 S
Co42 O54 2.137 . S
Co42 O55 2.244 . S
O43 Co42 2.216 . S
O43 C50 1.247 . S
O44 Co42 2.091 . S
O44 C50 1.261 . S
C45 O54 1.247 . S
C45 O55 1.272 . S
O46 Co42 2.004 . S
O46 C51 1.259 . S
Co47 O48 2.061 . S
Co47 O53 2.052 . S
Co47 O55 2.135 1_554 S
O48 Co47 2.061 . S
O48 C51 1.235 1_554 S
C49 O52 1.238 . S
C49 O53 1.241 . S
C50 O43 1.247 . S
C50 O44 1.261 . S
C51 O46 1.259 . S
C51 O48 1.235 1_556 S
O52 Co42 2.021 1_554 S
O52 C49 1.238 . S
O53 Co47 2.052 . S
O53 C49 1.241 . S
O54 Co42 2.137 . S
O54 C45 1.247 . S
O55 Co42 2.244 . S
O55 C45 1.272 . S
O55 Co47 2.135 1_556 S
Co56 O57 2.216 . S
Co56 O58 2.091 . S
Co56 O60 2.004 . S
Co56 O66 2.021 1_556 S
Co56 O68 2.137 . S
Co56 O69 2.244 . S
O57 Co56 2.216 . S
O57 C64 1.247 . S
O58 Co56 2.091 . S
O58 C64 1.261 . S
C59 O68 1.247 . S
C59 O69 1.272 . S
O60 Co56 2.004 . S
O60 C65 1.259 . S
Co61 O62 2.061 . S
Co61 O67 2.052 . S
Co61 O69 2.135 1_554 S
O62 Co61 2.061 . S
O62 C65 1.235 1_554 S
C63 O66 1.238 . S
C63 O67 1.241 . S
C64 O57 1.247 . S
C64 O58 1.261 . S
C65 O60 1.259 . S
C65 O62 1.235 1_556 S
O66 Co56 2.021 1_554 S
O66 C63 1.238 . S
O67 Co61 2.052 . S
O67 C63 1.241 . S
O68 Co56 2.137 . S
O68 C59 1.247 . S
O69 Co56 2.244 . S
O69 C59 1.272 . S
O69 Co61 2.135 1_556 S
Co70 O71 2.216 . S
Co70 O72 2.091 . S
Co70 O74 2.004 . S
Co70 O80 2.021 1_556 S
Co70 O82 2.137 . S
Co70 O83 2.244 . S
O71 Co70 2.216 . S
O71 C78 1.247 . S
O72 Co70 2.091 . S
O72 C78 1.261 . S
C73 O82 1.247 . S
C73 O83 1.272 . S
O74 Co70 2.004 . S
O74 C79 1.259 . S
Co75 O76 2.061 . S
Co75 O81 2.052 . S
Co75 O83 2.135 1_554 S
O76 Co75 2.061 . S
O76 C79 1.235 1_554 S
C77 O80 1.238 . S
C77 O81 1.241 . S
C78 O71 1.247 . S
C78 O72 1.261 . S
C79 O74 1.259 . S
C79 O76 1.235 1_556 S
O80 Co70 2.021 1_554 S
O80 C77 1.238 . S
O81 Co75 2.052 . S
O81 C77 1.241 . S
O82 Co70 2.137 . S
O82 C73 1.247 . S
O83 Co70 2.244 . S
O83 C73 1.272 . S
O83 Co75 2.135 1_556 S
Co84 O85 2.216 . S
Co84 O86 2.091 . S
Co84 O88 2.004 . S
Co84 O94 2.021 1_556 S
Co84 O96 2.137 . S
Co84 O97 2.244 . S
O85 Co84 2.216 . S
O85 C92 1.247 . S
O86 Co84 2.091 . S
O86 C92 1.261 . S
C87 O96 1.247 . S
C87 O97 1.272 . S
O88 Co84 2.004 . S
O88 C93 1.259 . S
Co89 O90 2.061 . S
Co89 O95 2.052 . S
Co89 O97 2.135 1_554 S
O90 Co89 2.061 . S
O90 C93 1.235 1_554 S
C91 O94 1.238 . S
C91 O95 1.241 . S
C92 O85 1.247 . S
C92 O86 1.261 . S
C93 O88 1.259 . S
C93 O90 1.235 1_556 S
O94 Co84 2.021 1_554 S
O94 C91 1.238 . S
O95 Co89 2.052 . S
O95 C91 1.241 . S
O96 Co84 2.137 . S
O96 C87 1.247 . S
O97 Co84 2.244 . S
O97 C87 1.272 . S
O97 Co89 2.135 1_556 S
Co98 O99 2.216 . S
Co98 O100 2.091 . S
Co98 O102 2.004 . S
Co98 O108 2.021 1_556 S
Co98 O110 2.137 . S
Co98 O111 2.244 . S
O99 Co98 2.216 . S
O99 C106 1.247 . S
O100 Co98 2.091 . S
O100 C106 1.261 . S
C101 O110 1.247 . S
C101 O111 1.272 . S
O102 Co98 2.004 . S
O102 C107 1.259 . S
Co103 O104 2.061 . S
Co103 O109 2.052 . S
Co103 O111 2.135 1_554 S
O104 Co103 2.061 . S
O104 C107 1.235 1_554 S
C105 O108 1.238 . S
C105 O109 1.241 . S
C106 O99 1.247 . S
C106 O100 1.261 . S
C107 O102 1.259 . S
C107 O104 1.235 1_556 S
O108 Co98 2.021 1_554 S
O108 C105 1.238 . S
O109 Co103 2.052 . S
O109 C105 1.241 . S
O110 Co98 2.137 . S
O110 C101 1.247 . S
O111 Co98 2.244 . S
O111 C101 1.272 . S
O111 Co103 2.135 1_556 S
Co112 O113 2.216 . S
Co112 O114 2.091 . S
Co112 O116 2.004 . S
Co112 O122 2.021 1_556 S
Co112 O124 2.137 . S
Co112 O125 2.244 . S
O113 Co112 2.216 . S
O113 C120 1.247 . S
O114 Co112 2.091 . S
O114 C120 1.261 . S
C115 O124 1.247 . S
C115 O125 1.272 . S
O116 Co112 2.004 . S
O116 C121 1.259 . S
Co117 O118 2.061 . S
Co117 O123 2.052 . S
Co117 O125 2.135 1_554 S
O118 Co117 2.061 . S
O118 C121 1.235 1_554 S
C119 O122 1.238 . S
C119 O123 1.241 . S
C120 O113 1.247 . S
C120 O114 1.261 . S
C121 O116 1.259 . S
C121 O118 1.235 1_556 S
O122 Co112 2.021 1_554 S
O122 C119 1.238 . S
O123 Co117 2.052 . S
O123 C119 1.241 . S
O124 Co112 2.137 . S
O124 C115 1.247 . S
O125 Co112 2.244 . S
O125 C115 1.272 . S
O125 Co117 2.135 1_556 S
Co126 O127 2.216 . S
Co126 O128 2.091 . S
Co126 O130 2.004 . S
Co126 O136 2.021 1_554 S
Co126 O138 2.137 . S
Co126 O139 2.244 . S
O127 Co126 2.216 . S
O127 C134 1.247 . S
O128 Co126 2.091 . S
O128 C134 1.261 . S
C129 O138 1.247 . S
C129 O139 1.272 . S
O130 Co126 2.004 . S
O130 C135 1.259 . S
Co131 O132 2.061 . S
Co131 O137 2.052 . S
Co131 O139 2.135 1_556 S
O132 Co131 2.061 . S
O132 C135 1.235 1_556 S
C133 O136 1.238 . S
C133 O137 1.241 . S
C134 O127 1.247 . S
C134 O128 1.261 . S
C135 O130 1.259 . S
C135 O132 1.235 1_554 S
O136 Co126 2.021 1_556 S
O136 C133 1.238 . S
O137 Co131 2.052 . S
O137 C133 1.241 . S
O138 Co126 2.137 . S
O138 C129 1.247 . S
O139 Co126 2.244 . S
O139 C129 1.272 . S
O139 Co131 2.135 1_554 S
Co140 O141 2.216 . S
Co140 O142 2.091 . S
Co140 O144 2.004 . S
Co140 O150 2.021 1_554 S
Co140 O152 2.137 . S
Co140 O153 2.244 . S
O141 Co140 2.216 . S
O141 C148 1.247 . S
O142 Co140 2.091 . S
O142 C148 1.261 . S
C143 O152 1.247 . S
C143 O153 1.272 . S
O144 Co140 2.004 . S
O144 C149 1.259 . S
Co145 O146 2.061 . S
Co145 O151 2.052 . S
Co145 O153 2.135 1_556 S
O146 Co145 2.061 . S
O146 C149 1.235 1_556 S
C147 O150 1.238 . S
C147 O151 1.241 . S
C148 O141 1.247 . S
C148 O142 1.261 . S
C149 O144 1.259 . S
C149 O146 1.235 1_554 S
O150 Co140 2.021 1_556 S
O150 C147 1.238 . S
O151 Co145 2.052 . S
O151 C147 1.241 . S
O152 Co140 2.137 . S
O152 C143 1.247 . S
O153 Co140 2.244 . S
O153 C143 1.272 . S
O153 Co145 2.135 1_554 S
Co154 O155 2.216 . S
Co154 O156 2.091 . S
Co154 O158 2.004 . S
Co154 O164 2.021 1_554 S
Co154 O166 2.137 . S
Co154 O167 2.244 . S
O155 Co154 2.216 . S
O155 C162 1.247 . S
O156 Co154 2.091 . S
O156 C162 1.261 . S
C157 O166 1.247 . S
C157 O167 1.272 . S
O158 Co154 2.004 . S
O158 C163 1.259 . S
Co159 O160 2.061 . S
Co159 O165 2.052 . S
Co159 O167 2.135 1_556 S
O160 Co159 2.061 . S
O160 C163 1.235 1_556 S
C161 O164 1.238 . S
C161 O165 1.241 . S
C162 O155 1.247 . S
C162 O156 1.261 . S
C163 O158 1.259 . S
C163 O160 1.235 1_554 S
O164 Co154 2.021 1_556 S
O164 C161 1.238 . S
O165 Co159 2.052 . S
O165 C161 1.241 . S
O166 Co154 2.137 . S
O166 C157 1.247 . S
O167 Co154 2.244 . S
O167 C157 1.272 . S
O167 Co159 2.135 1_554 S
Co168 O169 2.216 . S
Co168 O170 2.091 . S
Co168 O172 2.004 . S
Co168 O178 2.021 . S
Co168 O180 2.137 . S
Co168 O181 2.244 . S
O169 Co168 2.216 . S
O169 C176 1.247 . S
O170 Co168 2.091 . S
O170 C176 1.261 . S
C171 O180 1.247 . S
C171 O181 1.272 . S
O172 Co168 2.004 . S
O172 C177 1.259 . S
Co173 O174 2.061 . S
Co173 O179 2.052 . S
Co173 O181 2.135 . S
O174 Co173 2.061 . S
O174 C177 1.235 . S
C175 O178 1.238 . S
C175 O179 1.241 . S
C176 O169 1.247 . S
C176 O170 1.261 . S
C177 O172 1.259 . S
C177 O174 1.235 . S
O178 Co168 2.021 . S
O178 C175 1.238 . S
O179 Co173 2.052 . S
O179 C175 1.241 . S
O180 Co168 2.137 . S
O180 C171 1.247 . S
O181 Co168 2.244 . S
O181 C171 1.272 . S
O181 Co173 2.135 . S
Co182 O183 2.216 . S
Co182 O184 2.091 . S
Co182 O186 2.004 . S
Co182 O192 2.021 . S
Co182 O194 2.137 . S
Co182 O195 2.244 1_545 S
O183 Co182 2.216 . S
O183 C190 1.247 . S
O184 Co182 2.091 . S
O184 C190 1.261 . S
C185 O194 1.247 . S
C185 O195 1.272 1_545 S
O186 Co182 2.004 . S
O186 C191 1.259 . S
Co187 O188 2.061 . S
Co187 O193 2.052 . S
Co187 O195 2.135 . S
O188 Co187 2.061 . S
O188 C191 1.235 1_565 S
C189 O192 1.238 . S
C189 O193 1.241 1_545 S
C190 O183 1.247 . S
C190 O184 1.261 . S
C191 O186 1.259 . S
C191 O188 1.235 1_545 S
O192 Co182 2.021 . S
O192 C189 1.238 . S
O193 Co187 2.052 . S
O193 C189 1.241 1_565 S
O194 Co182 2.137 . S
O194 C185 1.247 . S
O195 Co182 2.244 1_565 S
O195 C185 1.272 1_565 S
O195 Co187 2.135 . S
Co196 O197 2.216 . S
Co196 O198 2.091 . S
Co196 O200 2.004 . S
Co196 O206 2.021 . S
Co196 O208 2.137 . S
Co196 O209 2.244 1_655 S
O197 Co196 2.216 . S
O197 C204 1.247 . S
O198 Co196 2.091 . S
O198 C204 1.261 . S
C199 O208 1.247 . S
C199 O209 1.272 1_655 S
O200 Co196 2.004 . S
O200 C205 1.259 . S
Co201 O202 2.061 . S
Co201 O207 2.052 . S
Co201 O209 2.135 . S
O202 Co201 2.061 . S
O202 C205 1.235 1_455 S
C203 O206 1.238 . S
C203 O207 1.241 1_655 S
C204 O197 1.247 . S
C204 O198 1.261 . S
C205 O200 1.259 . S
C205 O202 1.235 1_655 S
O206 Co196 2.021 . S
O206 C203 1.238 . S
O207 Co201 2.052 . S
O207 C203 1.241 1_455 S
O208 Co196 2.137 . S
O208 C199 1.247 . S
O209 Co196 2.244 1_455 S
O209 C199 1.272 1_455 S
O209 Co201 2.135 . S
Co210 O211 2.216 . S
Co210 O212 2.091 . S
Co210 O214 2.004 . S
Co210 O220 2.021 . S
Co210 O222 2.137 . S
Co210 O223 2.244 . S
O211 Co210 2.216 . S
O211 C218 1.247 . S
O212 Co210 2.091 . S
O212 C218 1.261 . S
C213 O222 1.247 . S
C213 O223 1.272 . S
O214 Co210 2.004 . S
O214 C219 1.259 . S
Co215 O216 2.061 . S
Co215 O221 2.052 . S
Co215 O223 2.135 . S
O216 Co215 2.061 . S
O216 C219 1.235 . S
C217 O220 1.238 . S
C217 O221 1.241 . S
C218 O211 1.247 . S
C218 O212 1.261 . S
C219 O214 1.259 . S
C219 O216 1.235 . S
O220 Co210 2.021 . S
O220 C217 1.238 . S
O221 Co215 2.052 . S
O221 C217 1.241 . S
O222 Co210 2.137 . S
O222 C213 1.247 . S
O223 Co210 2.244 . S
O223 C213 1.272 . S
O223 Co215 2.135 . S
Co224 O225 2.216 . S
Co224 O226 2.091 . S
Co224 O228 2.004 . S
Co224 O234 2.021 . S
Co224 O236 2.137 . S
Co224 O237 2.244 . S
O225 Co224 2.216 . S
O225 C232 1.247 . S
O226 Co224 2.091 . S
O226 C232 1.261 . S
C227 O236 1.247 . S
C227 O237 1.272 . S
O228 Co224 2.004 . S
O228 C233 1.259 . S
Co229 O230 2.061 . S
Co229 O235 2.052 . S
Co229 O237 2.135 . S
O230 Co229 2.061 . S
O230 C233 1.235 . S
C231 O234 1.238 . S
C231 O235 1.241 . S
C232 O225 1.247 . S
C232 O226 1.261 . S
C233 O228 1.259 . S
C233 O230 1.235 . S
O234 Co224 2.021 . S
O234 C231 1.238 . S
O235 Co229 2.052 . S
O235 C231 1.241 . S
O236 Co224 2.137 . S
O236 C227 1.247 . S
O237 Co224 2.244 . S
O237 C227 1.272 . S
O237 Co229 2.135 . S
Co238 O239 2.216 . S
Co238 O240 2.091 . S
Co238 O242 2.004 . S
Co238 O248 2.021 . S
Co238 O250 2.137 . S
Co238 O251 2.244 . S
O239 Co238 2.216 . S
O239 C246 1.247 . S
O240 Co238 2.091 . S
O240 C246 1.261 . S
C241 O250 1.247 . S
C241 O251 1.272 . S
O242 Co238 2.004 . S
O242 C247 1.259 . S
Co243 O244 2.061 . S
Co243 O249 2.052 . S
Co243 O251 2.135 . S
O244 Co243 2.061 . S
O244 C247 1.235 . S
C245 O248 1.238 . S
C245 O249 1.241 . S
C246 O239 1.247 . S
C246 O240 1.261 . S
C247 O242 1.259 . S
C247 O244 1.235 . S
O248 Co238 2.021 . S
O248 C245 1.238 . S
O249 Co243 2.052 . S
O249 C245 1.241 . S
O250 Co238 2.137 . S
O250 C241 1.247 . S
O251 Co238 2.244 . S
O251 C241 1.272 . S
O251 Co243 2.135 . S
Co252 O253 2.216 . S
Co252 O254 2.091 . S
Co252 O256 2.004 . S
Co252 O262 2.021 . S
Co252 O264 2.137 . S
Co252 O265 2.244 . S
O253 Co252 2.216 . S
O253 C260 1.247 . S
O254 Co252 2.091 . S
O254 C260 1.261 . S
C255 O264 1.247 . S
C255 O265 1.272 . S
O256 Co252 2.004 . S
O256 C261 1.259 . S
Co257 O258 2.061 . S
Co257 O263 2.052 . S
Co257 O265 2.135 . S
O258 Co257 2.061 . S
O258 C261 1.235 . S
C259 O262 1.238 . S
C259 O263 1.241 . S
C260 O253 1.247 . S
C260 O254 1.261 . S
C261 O256 1.259 . S
C261 O258 1.235 . S
O262 Co252 2.021 . S
O262 C259 1.238 . S
O263 Co257 2.052 . S
O263 C259 1.241 . S
O264 Co252 2.137 . S
O264 C255 1.247 . S
O265 Co252 2.244 . S
O265 C255 1.272 . S
O265 Co257 2.135 . S
Co266 O267 2.216 . S
Co266 O268 2.091 . S
Co266 O270 2.004 . S
Co266 O276 2.021 . S
Co266 O278 2.137 . S
Co266 O279 2.244 . S
O267 Co266 2.216 . S
O267 C274 1.247 . S
O268 Co266 2.091 . S
O268 C274 1.261 . S
C269 O278 1.247 . S
C269 O279 1.272 . S
O270 Co266 2.004 . S
O270 C275 1.259 . S
Co271 O272 2.061 . S
Co271 O277 2.052 . S
Co271 O279 2.135 . S
O272 Co271 2.061 . S
O272 C275 1.235 . S
C273 O276 1.238 . S
C273 O277 1.241 . S
C274 O267 1.247 . S
C274 O268 1.261 . S
C275 O270 1.259 . S
C275 O272 1.235 . S
O276 Co266 2.021 . S
O276 C273 1.238 . S
O277 Co271 2.052 . S
O277 C273 1.241 . S
O278 Co266 2.137 . S
O278 C269 1.247 . S
O279 Co266 2.244 . S
O279 C269 1.272 . S
O279 Co271 2.135 . S
Co280 O281 2.216 . S
Co280 O282 2.091 . S
Co280 O284 2.004 . S
Co280 O290 2.021 . S
Co280 O292 2.137 . S
Co280 O293 2.244 . S
O281 Co280 2.216 . S
O281 C288 1.247 . S
O282 Co280 2.091 . S
O282 C288 1.261 . S
C283 O292 1.247 . S
C283 O293 1.272 . S
O284 Co280 2.004 . S
O284 C289 1.259 . S
Co285 O286 2.061 . S
Co285 O291 2.052 . S
Co285 O293 2.135 . S
O286 Co285 2.061 . S
O286 C289 1.235 . S
C287 O290 1.238 . S
C287 O291 1.241 . S
C288 O281 1.247 . S
C288 O282 1.261 . S
C289 O284 1.259 . S
C289 O286 1.235 . S
O290 Co280 2.021 . S
O290 C287 1.238 . S
O291 Co285 2.052 . S
O291 C287 1.241 . S
O292 Co280 2.137 . S
O292 C283 1.247 . S
O293 Co280 2.244 . S
O293 C283 1.272 . S
O293 Co285 2.135 . S
Co294 O295 2.216 . S
Co294 O296 2.091 . S
Co294 O298 2.004 . S
Co294 O304 2.021 . S
Co294 O306 2.137 . S
Co294 O307 2.244 . S
O295 Co294 2.216 . S
O295 C302 1.247 . S
O296 Co294 2.091 . S
O296 C302 1.261 . S
C297 O306 1.247 . S
C297 O307 1.272 . S
O298 Co294 2.004 . S
O298 C303 1.259 . S
Co299 O300 2.061 . S
Co299 O305 2.052 . S
Co299 O307 2.135 . S
O300 Co299 2.061 . S
O300 C303 1.235 . S
C301 O304 1.238 . S
C301 O305 1.241 . S
C302 O295 1.247 . S
C302 O296 1.261 . S
C303 O298 1.259 . S
C303 O300 1.235 . S
O304 Co294 2.021 . S
O304 C301 1.238 . S
O305 Co299 2.052 . S
O305 C301 1.241 . S
O306 Co294 2.137 . S
O306 C297 1.247 . S
O307 Co294 2.244 . S
O307 C297 1.272 . S
O307 Co299 2.135 . S
Co308 O309 2.216 . S
Co308 O310 2.091 . S
Co308 O312 2.004 . S
Co308 O318 2.021 . S
Co308 O320 2.137 . S
Co308 O321 2.244 1_545 S
O309 Co308 2.216 . S
O309 C316 1.247 . S
O310 Co308 2.091 . S
O310 C316 1.261 . S
C311 O320 1.247 . S
C311 O321 1.272 1_545 S
O312 Co308 2.004 . S
O312 C317 1.259 . S
Co313 O314 2.061 . S
Co313 O319 2.052 . S
Co313 O321 2.135 . S
O314 Co313 2.061 . S
O314 C317 1.235 1_565 S
C315 O318 1.238 . S
C315 O319 1.241 1_545 S
C316 O309 1.247 . S
C316 O310 1.261 . S
C317 O312 1.259 . S
C317 O314 1.235 1_545 S
O318 Co308 2.021 . S
O318 C315 1.238 . S
O319 Co313 2.052 . S
O319 C315 1.241 1_565 S
O320 Co308 2.137 . S
O320 C311 1.247 . S
O321 Co308 2.244 1_565 S
O321 C311 1.272 1_565 S
O321 Co313 2.135 . S
Co322 O323 2.216 . S
Co322 O324 2.091 . S
Co322 O326 2.004 . S
Co322 O332 2.021 . S
Co322 O334 2.137 . S
Co322 O335 2.244 1_655 S
O323 Co322 2.216 . S
O323 C330 1.247 . S
O324 Co322 2.091 . S
O324 C330 1.261 . S
C325 O334 1.247 . S
C325 O335 1.272 1_655 S
O326 Co322 2.004 . S
O326 C331 1.259 . S
Co327 O328 2.061 . S
Co327 O333 2.052 . S
Co327 O335 2.135 . S
O328 Co327 2.061 . S
O328 C331 1.235 1_455 S
C329 O332 1.238 . S
C329 O333 1.241 1_655 S
C330 O323 1.247 . S
C330 O324 1.261 . S
C331 O326 1.259 . S
C331 O328 1.235 1_655 S
O332 Co322 2.021 . S
O332 C329 1.238 . S
O333 Co327 2.052 . S
O333 C329 1.241 1_455 S
O334 Co322 2.137 . S
O334 C325 1.247 . S
O335 Co322 2.244 1_455 S
O335 C325 1.272 1_455 S
O335 Co327 2.135 . S
Co336 O337 2.216 . S
Co336 O338 2.091 . S
Co336 O340 2.004 . S
Co336 O346 2.021 . S
Co336 O348 2.137 . S
Co336 O349 2.244 . S
O337 Co336 2.216 . S
O337 C344 1.247 . S
O338 Co336 2.091 . S
O338 C344 1.261 . S
C339 O348 1.247 . S
C339 O349 1.272 . S
O340 Co336 2.004 . S
O340 C345 1.259 . S
Co341 O342 2.061 . S
Co341 O347 2.052 . S
Co341 O349 2.135 . S
O342 Co341 2.061 . S
O342 C345 1.235 . S
C343 O346 1.238 . S
C343 O347 1.241 . S
C344 O337 1.247 . S
C344 O338 1.261 . S
C345 O340 1.259 . S
C345 O342 1.235 . S
O346 Co336 2.021 . S
O346 C343 1.238 . S
O347 Co341 2.052 . S
O347 C343 1.241 . S
O348 Co336 2.137 . S
O348 C339 1.247 . S
O349 Co336 2.244 . S
O349 C339 1.272 . S
O349 Co341 2.135 . S
Co350 O351 2.216 . S
Co350 O352 2.091 . S
Co350 O354 2.004 . S
Co350 O360 2.021 . S
Co350 O362 2.137 . S
Co350 O363 2.244 . S
O351 Co350 2.216 . S
O351 C358 1.247 . S
O352 Co350 2.091 . S
O352 C358 1.261 . S
C353 O362 1.247 . S
C353 O363 1.272 . S
O354 Co350 2.004 . S
O354 C359 1.259 . S
Co355 O356 2.061 . S
Co355 O361 2.052 . S
Co355 O363 2.135 . S
O356 Co355 2.061 . S
O356 C359 1.235 . S
C357 O360 1.238 . S
C357 O361 1.241 . S
C358 O351 1.247 . S
C358 O352 1.261 . S
C359 O354 1.259 . S
C359 O356 1.235 . S
O360 Co350 2.021 . S
O360 C357 1.238 . S
O361 Co355 2.052 . S
O361 C357 1.241 . S
O362 Co350 2.137 . S
O362 C353 1.247 . S
O363 Co350 2.244 . S
O363 C353 1.272 . S
O363 Co355 2.135 . S
Co364 O365 2.216 . S
Co364 O366 2.091 . S
Co364 O368 2.004 . S
Co364 O374 2.021 . S
Co364 O376 2.137 . S
Co364 O377 2.244 . S
O365 Co364 2.216 . S
O365 C372 1.247 . S
O366 Co364 2.091 . S
O366 C372 1.261 . S
C367 O376 1.247 . S
C367 O377 1.272 . S
O368 Co364 2.004 . S
O368 C373 1.259 . S
Co369 O370 2.061 . S
Co369 O375 2.052 . S
Co369 O377 2.135 . S
O370 Co369 2.061 . S
O370 C373 1.235 . S
C371 O374 1.238 . S
C371 O375 1.241 . S
C372 O365 1.247 . S
C372 O366 1.261 . S
C373 O368 1.259 . S
C373 O370 1.235 . S
O374 Co364 2.021 . S
O374 C371 1.238 . S
O375 Co369 2.052 . S
O375 C371 1.241 . S
O376 Co364 2.137 . S
O376 C367 1.247 . S
O377 Co364 2.244 . S
O377 C367 1.272 . S
O377 Co369 2.135 . S
Co378 O379 2.216 . S
Co378 O380 2.091 . S
Co378 O382 2.004 . S
Co378 O388 2.021 . S
Co378 O390 2.137 . S
Co378 O391 2.244 . S
O379 Co378 2.216 . S
O379 C386 1.247 . S
O380 Co378 2.091 . S
O380 C386 1.261 . S
C381 O390 1.247 . S
C381 O391 1.272 . S
O382 Co378 2.004 . S
O382 C387 1.259 . S
Co383 O384 2.061 . S
Co383 O389 2.052 . S
Co383 O391 2.135 . S
O384 Co383 2.061 . S
O384 C387 1.235 . S
C385 O388 1.238 . S
C385 O389 1.241 . S
C386 O379 1.247 . S
C386 O380 1.261 . S
C387 O382 1.259 . S
C387 O384 1.235 . S
O388 Co378 2.021 . S
O388 C385 1.238 . S
O389 Co383 2.052 . S
O389 C385 1.241 . S
O390 Co378 2.137 . S
O390 C381 1.247 . S
O391 Co378 2.244 . S
O391 C381 1.272 . S
O391 Co383 2.135 . S
Co392 O393 2.216 . S
Co392 O394 2.091 . S
Co392 O396 2.004 . S
Co392 O402 2.021 . S
Co392 O404 2.137 . S
Co392 O405 2.244 1_565 S
O393 Co392 2.216 . S
O393 C400 1.247 . S
O394 Co392 2.091 . S
O394 C400 1.261 . S
C395 O404 1.247 . S
C395 O405 1.272 1_565 S
O396 Co392 2.004 . S
O396 C401 1.259 . S
Co397 O398 2.061 . S
Co397 O403 2.052 . S
Co397 O405 2.135 . S
O398 Co397 2.061 . S
O398 C401 1.235 1_545 S
C399 O402 1.238 . S
C399 O403 1.241 1_565 S
C400 O393 1.247 . S
C400 O394 1.261 . S
C401 O396 1.259 . S
C401 O398 1.235 1_565 S
O402 Co392 2.021 . S
O402 C399 1.238 . S
O403 Co397 2.052 . S
O403 C399 1.241 1_545 S
O404 Co392 2.137 . S
O404 C395 1.247 . S
O405 Co392 2.244 1_545 S
O405 C395 1.272 1_545 S
O405 Co397 2.135 . S
Co406 O407 2.216 . S
Co406 O408 2.091 . S
Co406 O410 2.004 . S
Co406 O416 2.021 . S
Co406 O418 2.137 . S
Co406 O419 2.244 1_455 S
O407 Co406 2.216 . S
O407 C414 1.247 . S
O408 Co406 2.091 . S
O408 C414 1.261 . S
C409 O418 1.247 . S
C409 O419 1.272 1_455 S
O410 Co406 2.004 . S
O410 C415 1.259 . S
Co411 O412 2.061 . S
Co411 O417 2.052 . S
Co411 O419 2.135 . S
O412 Co411 2.061 . S
O412 C415 1.235 1_655 S
C413 O416 1.238 . S
C413 O417 1.241 1_455 S
C414 O407 1.247 . S
C414 O408 1.261 . S
C415 O410 1.259 . S
C415 O412 1.235 1_455 S
O416 Co406 2.021 . S
O416 C413 1.238 . S
O417 Co411 2.052 . S
O417 C413 1.241 1_655 S
O418 Co406 2.137 . S
O418 C409 1.247 . S
O419 Co406 2.244 1_655 S
O419 C409 1.272 1_655 S
O419 Co411 2.135 . S
Co420 O421 2.216 . S
Co420 O422 2.091 . S
Co420 O424 2.004 . S
Co420 O430 2.021 . S
Co420 O432 2.137 . S
Co420 O433 2.244 . S
O421 Co420 2.216 . S
O421 C428 1.247 . S
O422 Co420 2.091 . S
O422 C428 1.261 . S
C423 O432 1.247 . S
C423 O433 1.272 . S
O424 Co420 2.004 . S
O424 C429 1.259 . S
Co425 O426 2.061 . S
Co425 O431 2.052 . S
Co425 O433 2.135 . S
O426 Co425 2.061 . S
O426 C429 1.235 . S
C427 O430 1.238 . S
C427 O431 1.241 . S
C428 O421 1.247 . S
C428 O422 1.261 . S
C429 O424 1.259 . S
C429 O426 1.235 . S
O430 Co420 2.021 . S
O430 C427 1.238 . S
O431 Co425 2.052 . S
O431 C427 1.241 . S
O432 Co420 2.137 . S
O432 C423 1.247 . S
O433 Co420 2.244 . S
O433 C423 1.272 . S
O433 Co425 2.135 . S
Co434 O435 2.216 . S
Co434 O436 2.091 . S
Co434 O438 2.004 . S
Co434 O444 2.021 . S
Co434 O446 2.137 . S
Co434 O447 2.244 1_565 S
O435 Co434 2.216 . S
O435 C442 1.247 . S
O436 Co434 2.091 . S
O436 C442 1.261 . S
C437 O446 1.247 . S
C437 O447 1.272 1_565 S
O438 Co434 2.004 . S
O438 C443 1.259 . S
Co439 O440 2.061 . S
Co439 O445 2.052 . S
Co439 O447 2.135 . S
O440 Co439 2.061 . S
O440 C443 1.235 1_545 S
C441 O444 1.238 . S
C441 O445 1.241 1_565 S
C442 O435 1.247 . S
C442 O436 1.261 . S
C443 O438 1.259 . S
C443 O440 1.235 1_565 S
O444 Co434 2.021 . S
O444 C441 1.238 . S
O445 Co439 2.052 . S
O445 C441 1.241 1_545 S
O446 Co434 2.137 . S
O446 C437 1.247 . S
O447 Co434 2.244 1_545 S
O447 C437 1.272 1_545 S
O447 Co439 2.135 . S
Co448 O449 2.216 . S
Co448 O450 2.091 . S
Co448 O452 2.004 . S
Co448 O458 2.021 . S
Co448 O460 2.137 . S
Co448 O461 2.244 1_455 S
O449 Co448 2.216 . S
O449 C456 1.247 . S
O450 Co448 2.091 . S
O450 C456 1.261 . S
C451 O460 1.247 . S
C451 O461 1.272 1_455 S
O452 Co448 2.004 . S
O452 C457 1.259 . S
Co453 O454 2.061 . S
Co453 O459 2.052 . S
Co453 O461 2.135 . S
O454 Co453 2.061 . S
O454 C457 1.235 1_655 S
C455 O458 1.238 . S
C455 O459 1.241 1_455 S
C456 O449 1.247 . S
C456 O450 1.261 . S
C457 O452 1.259 . S
C457 O454 1.235 1_455 S
O458 Co448 2.021 . S
O458 C455 1.238 . S
O459 Co453 2.052 . S
O459 C455 1.241 1_655 S
O460 Co448 2.137 . S
O460 C451 1.247 . S
O461 Co448 2.244 1_655 S
O461 C451 1.272 1_655 S
O461 Co453 2.135 . S
Co462 O463 2.216 . S
Co462 O464 2.091 . S
Co462 O466 2.004 . S
Co462 O472 2.021 . S
Co462 O474 2.137 . S
Co462 O475 2.244 . S
O463 Co462 2.216 . S
O463 C470 1.247 . S
O464 Co462 2.091 . S
O464 C470 1.261 . S
C465 O474 1.247 . S
C465 O475 1.272 . S
O466 Co462 2.004 . S
O466 C471 1.259 . S
Co467 O468 2.061 . S
Co467 O473 2.052 . S
Co467 O475 2.135 . S
O468 Co467 2.061 . S
O468 C471 1.235 . S
C469 O472 1.238 . S
C469 O473 1.241 . S
C470 O463 1.247 . S
C470 O464 1.261 . S
C471 O466 1.259 . S
C471 O468 1.235 . S
O472 Co462 2.021 . S
O472 C469 1.238 . S
O473 Co467 2.052 . S
O473 C469 1.241 . S
O474 Co462 2.137 . S
O474 C465 1.247 . S
O475 Co462 2.244 . S
O475 C465 1.272 . S
O475 Co467 2.135 . S
Co476 O477 2.216 . S
Co476 O478 2.091 . S
Co476 O480 2.004 . S
Co476 O486 2.021 . S
Co476 O488 2.137 . S
Co476 O489 2.244 . S
O477 Co476 2.216 . S
O477 C484 1.247 . S
O478 Co476 2.091 . S
O478 C484 1.261 . S
C479 O488 1.247 . S
C479 O489 1.272 . S
O480 Co476 2.004 . S
O480 C485 1.259 . S
Co481 O482 2.061 . S
Co481 O487 2.052 . S
Co481 O489 2.135 . S
O482 Co481 2.061 . S
O482 C485 1.235 . S
C483 O486 1.238 . S
C483 O487 1.241 . S
C484 O477 1.247 . S
C484 O478 1.261 . S
C485 O480 1.259 . S
C485 O482 1.235 . S
O486 Co476 2.021 . S
O486 C483 1.238 . S
O487 Co481 2.052 . S
O487 C483 1.241 . S
O488 Co476 2.137 . S
O488 C479 1.247 . S
O489 Co476 2.244 . S
O489 C479 1.272 . S
O489 Co481 2.135 . S
Co490 O491 2.216 . S
Co490 O492 2.091 . S
Co490 O494 2.004 . S
Co490 O500 2.021 . S
Co490 O502 2.137 . S
Co490 O503 2.244 . S
O491 Co490 2.216 . S
O491 C498 1.247 . S
O492 Co490 2.091 . S
O492 C498 1.261 . S
C493 O502 1.247 . S
C493 O503 1.272 . S
O494 Co490 2.004 . S
O494 C499 1.259 . S
Co495 O496 2.061 . S
Co495 O501 2.052 . S
Co495 O503 2.135 . S
O496 Co495 2.061 . S
O496 C499 1.235 . S
C497 O500 1.238 . S
C497 O501 1.241 . S
C498 O491 1.247 . S
C498 O492 1.261 . S
C499 O494 1.259 . S
C499 O496 1.235 . S
O500 Co490 2.021 . S
O500 C497 1.238 . S
O501 Co495 2.052 . S
O501 C497 1.241 . S
O502 Co490 2.137 . S
O502 C493 1.247 . S
O503 Co490 2.244 . S
O503 C493 1.272 . S
O503 Co495 2.135 . S
C504 C505 1.369 1_554 S
C504 C506 1.419 1_655 S
C504 H508 0.930 . S
C505 C504 1.369 1_556 S
C505 C514 1.429 . S
C506 C504 1.419 1_455 S
C506 C507 1.363 . S
C506 H509 0.929 . S
C507 C506 1.363 . S
C507 C513 1.428 1_554 S
H508 C504 0.930 . S
H509 C506 0.929 . S
S510 N511 1.613 1_455 S
S510 N512 1.610 . S
N511 S510 1.613 1_655 S
N511 C514 1.350 . S
N512 S510 1.610 . S
N512 C513 1.351 . S
C513 C507 1.428 1_556 S
C513 N512 1.351 . S
C513 C514 1.434 1_455 S
C514 C505 1.429 . S
C514 N511 1.350 . S
C514 C513 1.434 1_655 S
C515 C516 1.369 1_554 S
C515 C517 1.419 . S
C515 H519 0.930 . S
C516 C515 1.369 1_556 S
C516 C525 1.429 . S
C517 C515 1.419 . S
C517 C518 1.363 . S
C517 H520 0.929 . S
C518 C517 1.363 . S
C518 C524 1.428 1_554 S
H519 C515 0.930 . S
H520 C517 0.929 . S
S521 N522 1.613 . S
S521 N523 1.610 . S
N522 S521 1.613 . S
N522 C525 1.350 . S
N523 S521 1.610 . S
N523 C524 1.351 . S
C524 C518 1.428 1_556 S
C524 N523 1.351 . S
C524 C525 1.434 . S
C525 C516 1.429 . S
C525 N522 1.350 . S
C525 C524 1.434 . S
C526 C527 1.369 . S
C526 C528 1.419 1_545 S
C526 H530 0.930 . S
C527 C526 1.369 . S
C527 C536 1.429 1_556 S
C528 C526 1.419 1_565 S
C528 C529 1.363 1_556 S
C528 H531 0.929 . S
C529 C528 1.363 1_554 S
C529 C535 1.428 . S
H530 C526 0.930 . S
H531 C528 0.929 . S
S532 N533 1.613 . S
S532 N534 1.610 1_545 S
N533 S532 1.613 . S
N533 C536 1.350 . S
N534 S532 1.610 1_565 S
N534 C535 1.351 . S
C535 C529 1.428 . S
C535 N534 1.351 . S
C535 C536 1.434 1_565 S
C536 C527 1.429 1_554 S
C536 N533 1.350 . S
C536 C535 1.434 1_545 S
C537 C538 1.369 . S
C537 C539 1.419 1_454 S
C537 H541 0.930 . S
C538 C537 1.369 . S
C538 C547 1.429 . S
C539 C537 1.419 1_656 S
C539 C540 1.363 . S
C539 H542 0.929 . S
C540 C539 1.363 . S
C540 C546 1.428 . S
H541 C537 0.930 . S
H542 C539 0.929 . S
S543 N544 1.613 1_655 S
S543 N545 1.610 1_554 S
N544 S543 1.613 1_455 S
N544 C547 1.350 . S
N545 S543 1.610 1_556 S
N545 C546 1.351 . S
C546 C540 1.428 . S
C546 N545 1.351 . S
C546 C547 1.434 1_656 S
C547 C538 1.429 . S
C547 N544 1.350 . S
C547 C546 1.434 1_454 S
C548 C549 1.369 . S
C548 C550 1.419 . S
C548 H552 0.930 . S
C549 C548 1.369 . S
C549 C558 1.429 1_556 S
C550 C548 1.419 . S
C550 C551 1.363 1_556 S
C550 H553 0.929 . S
C551 C550 1.363 1_554 S
C551 C557 1.428 . S
H552 C548 0.930 . S
H553 C550 0.929 . S
S554 N555 1.613 . S
S554 N556 1.610 . S
N555 S554 1.613 . S
N555 C558 1.350 . S
N556 S554 1.610 . S
N556 C557 1.351 . S
C557 C551 1.428 . S
C557 N556 1.351 . S
C557 C558 1.434 . S
C558 C549 1.429 1_554 S
C558 N555 1.350 . S
C558 C557 1.434 . S
C559 C560 1.369 1_556 S
C559 C561 1.419 1_565 S
C559 H563 0.930 . S
C560 C559 1.369 1_554 S
C560 C569 1.429 . S
C561 C559 1.419 1_545 S
C561 C562 1.363 . S
C561 H564 0.929 . S
C562 C561 1.363 . S
C562 C568 1.428 1_556 S
H563 C559 0.930 . S
H564 C561 0.929 . S
S565 N566 1.613 1_545 S
S565 N567 1.610 . S
N566 S565 1.613 1_565 S
N566 C569 1.350 . S
N567 S565 1.610 . S
N567 C568 1.351 . S
C568 C562 1.428 1_554 S
C568 N567 1.351 . S
C568 C569 1.434 1_545 S
C569 C560 1.429 . S
C569 N566 1.350 . S
C569 C568 1.434 1_565 S
C570 C571 1.369 . S
C570 C572 1.419 . S
C570 H574 0.930 . S
C571 C570 1.369 . S
C571 C580 1.429 . S
C572 C570 1.419 . S
C572 C573 1.363 . S
C572 H575 0.929 . S
C573 C572 1.363 . S
C573 C579 1.428 . S
H574 C570 0.930 . S
H575 C572 0.929 . S
S576 N577 1.613 . S
S576 N578 1.610 . S
N577 S576 1.613 . S
N577 C580 1.350 . S
N578 S576 1.610 . S
N578 C579 1.351 . S
C579 C573 1.428 . S
C579 N578 1.351 . S
C579 C580 1.434 . S
C580 C571 1.429 . S
C580 N577 1.350 . S
C580 C579 1.434 . S
C581 C582 1.369 . S
C581 C583 1.419 . S
C581 H585 0.930 . S
C582 C581 1.369 . S
C582 C591 1.429 . S
C583 C581 1.419 . S
C583 C584 1.363 1_565 S
C583 H586 0.929 . S
C584 C583 1.363 1_545 S
C584 C590 1.428 . S
H585 C581 0.930 . S
H586 C583 0.929 . S
S587 N588 1.613 . S
S587 N589 1.610 . S
N588 S587 1.613 . S
N588 C591 1.350 1_545 S
N589 S587 1.610 . S
N589 C590 1.351 . S
C590 C584 1.428 . S
C590 N589 1.351 . S
C590 C591 1.434 1_545 S
C591 C582 1.429 . S
C591 N588 1.350 1_565 S
C591 C590 1.434 1_565 S
C592 C593 1.369 . S
C592 C594 1.419 1_655 S
C592 H596 0.930 . S
C593 C592 1.369 . S
C593 C602 1.429 1_655 S
C594 C592 1.419 1_455 S
C594 C595 1.363 . S
C594 H597 0.929 1_455 S
C595 C594 1.363 . S
C595 C601 1.428 . S
H596 C592 0.930 . S
H597 C594 0.929 1_655 S
S598 N599 1.613 . S
S598 N600 1.610 . S
N599 S598 1.613 . S
N599 C602 1.350 . S
N600 S598 1.610 . S
N600 C601 1.351 . S
C601 C595 1.428 . S
C601 N600 1.351 . S
C601 C602 1.434 . S
C602 C593 1.429 1_455 S
C602 N599 1.350 . S
C602 C601 1.434 . S
C603 C604 1.369 . S
C603 C605 1.419 . S
C603 H607 0.930 . S
C604 C603 1.369 . S
C604 C613 1.429 . S
C605 C603 1.419 . S
C605 C606 1.363 1_565 S
C605 H608 0.929 1_565 S
C606 C605 1.363 1_545 S
C606 C612 1.428 1_545 S
H607 C603 0.930 . S
H608 C605 0.929 1_545 S
S609 N610 1.613 . S
S609 N611 1.610 1_565 S
N610 S609 1.613 . S
N610 C613 1.350 . S
N611 S609 1.610 1_545 S
N611 C612 1.351 1_545 S
C612 C606 1.428 1_565 S
C612 N611 1.351 1_565 S
C612 C613 1.434 . S
C613 C604 1.429 . S
C613 N610 1.350 . S
C613 C612 1.434 . S
C614 C615 1.369 . S
C614 C616 1.419 1_655 S
C614 H618 0.930 . S
C615 C614 1.369 . S
C615 C624 1.429 1_655 S
C616 C614 1.419 1_455 S
C616 C617 1.363 . S
C616 H619 0.929 . S
C617 C616 1.363 . S
C617 C623 1.428 . S
H618 C614 0.930 . S
H619 C616 0.929 . S
S620 N621 1.613 . S
S620 N622 1.610 . S
N621 S620 1.613 . S
N621 C624 1.350 . S
N622 S620 1.610 . S
N622 C623 1.351 . S
C623 C617 1.428 . S
C623 N622 1.351 . S
C623 C624 1.434 . S
C624 C615 1.429 1_455 S
C624 N621 1.350 . S
C624 C623 1.434 . S
C625 C626 1.369 . S
C625 C627 1.419 . S
C625 H629 0.930 . S
C626 C625 1.369 . S
C626 C635 1.429 . S
C627 C625 1.419 . S
C627 C628 1.363 . S
C627 H630 0.929 . S
C628 C627 1.363 . S
C628 C634 1.428 . S
H629 C625 0.930 . S
H630 C627 0.929 . S
S631 N632 1.613 . S
S631 N633 1.610 . S
N632 S631 1.613 . S
N632 C635 1.350 . S
N633 S631 1.610 . S
N633 C634 1.351 . S
C634 C628 1.428 . S
C634 N633 1.351 . S
C634 C635 1.434 . S
C635 C626 1.429 . S
C635 N632 1.350 . S
C635 C634 1.434 . S
C636 C637 1.369 . S
C636 C638 1.419 1_565 S
C636 H640 0.930 . S
C637 C636 1.369 . S
C637 C646 1.429 1_565 S
C638 C636 1.419 1_545 S
C638 C639 1.363 . S
C638 H641 0.929 1_545 S
C639 C638 1.363 . S
C639 C645 1.428 . S
H640 C636 0.930 . S
H641 C638 0.929 1_565 S
S642 N643 1.613 . S
S642 N644 1.610 . S
N643 S642 1.613 . S
N643 C646 1.350 . S
N644 S642 1.610 . S
N644 C645 1.351 . S
C645 C639 1.428 . S
C645 N644 1.351 . S
C645 C646 1.434 . S
C646 C637 1.429 1_545 S
C646 N643 1.350 . S
C646 C645 1.434 . S
C647 C648 1.369 . S
C647 C649 1.419 1_655 S
C647 H651 0.930 . S
C648 C647 1.369 . S
C648 C657 1.429 . S
C649 C647 1.419 1_455 S
C649 C650 1.363 . S
C649 H652 0.929 . S
C650 C649 1.363 . S
C650 C656 1.428 1_455 S
H651 C647 0.930 . S
H652 C649 0.929 . S
S653 N654 1.613 . S
S653 N655 1.610 . S
N654 S653 1.613 . S
N654 C657 1.350 . S
N655 S653 1.610 . S
N655 C656 1.351 . S
C656 C650 1.428 1_655 S
C656 N655 1.351 . S
C656 C657 1.434 . S
C657 C648 1.429 . S
C657 N654 1.350 . S
C657 C656 1.434 . S
C658 C659 1.369 . S
C658 C660 1.419 . S
C658 H662 0.930 . S
C659 C658 1.369 . S
C659 C668 1.429 . S
C660 C658 1.419 . S
C660 C661 1.363 . S
C660 H663 0.929 . S
C661 C660 1.363 . S
C661 C667 1.428 . S
H662 C658 0.930 . S
H663 C660 0.929 . S
S664 N665 1.613 . S
S664 N666 1.610 . S
N665 S664 1.613 . S
N665 C668 1.350 . S
N666 S664 1.610 . S
N666 C667 1.351 . S
C667 C661 1.428 . S
C667 N666 1.351 . S
C667 C668 1.434 . S
C668 C659 1.429 . S
C668 N665 1.350 . S
C668 C667 1.434 . S
C669 C670 1.369 . S
C669 C671 1.419 . S
C669 H673 0.930 . S
C670 C669 1.369 . S
C670 C679 1.429 . S
C671 C669 1.419 . S
C671 C672 1.363 . S
C671 H674 0.929 . S
C672 C671 1.363 . S
C672 C678 1.428 . S
H673 C669 0.930 . S
H674 C671 0.929 . S
S675 N676 1.613 . S
S675 N677 1.610 . S
N676 S675 1.613 . S
N676 C679 1.350 . S
N677 S675 1.610 . S
N677 C678 1.351 . S
C678 C672 1.428 . S
C678 N677 1.351 . S
C678 C679 1.434 . S
C679 C670 1.429 . S
C679 N676 1.350 . S
C679 C678 1.434 . S
C680 C681 1.369 1_545 S
C680 C682 1.419 . S
C680 H684 0.930 . S
C681 C680 1.369 1_565 S
C681 C690 1.429 1_565 S
C682 C680 1.419 . S
C682 C683 1.363 . S
C682 H685 0.929 . S
C683 C682 1.363 . S
C683 C689 1.428 . S
H684 C680 0.930 . S
H685 C682 0.929 . S
S686 N687 1.613 1_545 S
S686 N688 1.610 . S
N687 S686 1.613 1_565 S
N687 C690 1.350 1_565 S
N688 S686 1.610 . S
N688 C689 1.351 . S
C689 C683 1.428 . S
C689 N688 1.351 . S
C689 C690 1.434 . S
C690 C681 1.429 1_545 S
C690 N687 1.350 1_545 S
C690 C689 1.434 . S
C691 C692 1.369 1_655 S
C691 C693 1.419 . S
C691 H695 0.930 . S
C692 C691 1.369 1_455 S
C692 C701 1.429 . S
C693 C691 1.419 . S
C693 C694 1.363 . S
C693 H696 0.929 . S
C694 C693 1.363 . S
C694 C700 1.428 1_655 S
H695 C691 0.930 . S
H696 C693 0.929 . S
S697 N698 1.613 . S
S697 N699 1.610 . S
N698 S697 1.613 . S
N698 C701 1.350 . S
N699 S697 1.610 . S
N699 C700 1.351 . S
C700 C694 1.428 1_455 S
C700 N699 1.351 . S
C700 C701 1.434 . S
C701 C692 1.429 . S
C701 N698 1.350 . S
C701 C700 1.434 . S
C702 C703 1.369 . S
C702 C704 1.419 . S
C702 H706 0.930 . S
C703 C702 1.369 . S
C703 C712 1.429 1_554 S
C704 C702 1.419 . S
C704 C705 1.363 . S
C704 H707 0.929 . S
C705 C704 1.363 . S
C705 C711 1.428 1_554 S
H706 C702 0.930 . S
H707 C704 0.929 . S
S708 N709 1.613 . S
S708 N710 1.610 . S
N709 S708 1.613 . S
N709 C712 1.350 . S
N710 S708 1.610 . S
N710 C711 1.351 . S
C711 C705 1.428 1_556 S
C711 N710 1.351 . S
C711 C712 1.434 . S
C712 C703 1.429 1_556 S
C712 N709 1.350 . S
C712 C711 1.434 . S
C713 C714 1.369 . S
C713 C715 1.419 . S
C713 H717 0.930 . S
C714 C713 1.369 . S
C714 C723 1.429 1_554 S
C715 C713 1.419 . S
C715 C716 1.363 . S
C715 H718 0.929 . S
C716 C715 1.363 . S
C716 C722 1.428 1_554 S
H717 C713 0.930 . S
H718 C715 0.929 . S
S719 N720 1.613 . S
S719 N721 1.610 . S
N720 S719 1.613 . S
N720 C723 1.350 . S
N721 S719 1.610 . S
N721 C722 1.351 . S
C722 C716 1.428 1_556 S
C722 N721 1.351 . S
C722 C723 1.434 . S
C723 C714 1.429 1_556 S
C723 N720 1.350 . S
C723 C722 1.434 . S
C724 C725 1.369 . S
C724 C726 1.419 . S
C724 H728 0.930 . S
C725 C724 1.369 . S
C725 C734 1.429 1_554 S
C726 C724 1.419 . S
C726 C727 1.363 . S
C726 H729 0.929 . S
C727 C726 1.363 . S
C727 C733 1.428 1_554 S
H728 C724 0.930 . S
H729 C726 0.929 . S
S730 N731 1.613 . S
S730 N732 1.610 . S
N731 S730 1.613 . S
N731 C734 1.350 . S
N732 S730 1.610 . S
N732 C733 1.351 . S
C733 C727 1.428 1_556 S
C733 N732 1.351 . S
C733 C734 1.434 . S
C734 C725 1.429 1_556 S
C734 N731 1.350 . S
C734 C733 1.434 . S
C735 C736 1.369 . S
C735 C737 1.419 . S
C735 H739 0.930 . S
C736 C735 1.369 . S
C736 C745 1.429 . S
C737 C735 1.419 . S
C737 C738 1.363 . S
C737 H740 0.929 . S
C738 C737 1.363 . S
C738 C744 1.428 . S
H739 C735 0.930 . S
H740 C737 0.929 . S
S741 N742 1.613 . S
S741 N743 1.610 . S
N742 S741 1.613 . S
N742 C745 1.350 . S
N743 S741 1.610 . S
N743 C744 1.351 . S
C744 C738 1.428 . S
C744 N743 1.351 . S
C744 C745 1.434 . S
C745 C736 1.429 . S
C745 N742 1.350 . S
C745 C744 1.434 . S
C746 C747 1.369 1_554 S
C746 C748 1.419 . S
C746 H750 0.930 . S
C747 C746 1.369 1_556 S
C747 C756 1.429 . S
C748 C746 1.419 . S
C748 C749 1.363 1_554 S
C748 H751 0.929 . S
C749 C748 1.363 1_556 S
C749 C755 1.428 . S
H750 C746 0.930 . S
H751 C748 0.929 . S
S752 N753 1.613 . S
S752 N754 1.610 . S
N753 S752 1.613 . S
N753 C756 1.350 . S
N754 S752 1.610 . S
N754 C755 1.351 . S
C755 C749 1.428 . S
C755 N754 1.351 . S
C755 C756 1.434 . S
C756 C747 1.429 . S
C756 N753 1.350 . S
C756 C755 1.434 . S
C757 C758 1.369 . S
C757 C759 1.419 . S
C757 H761 0.930 . S
C758 C757 1.369 . S
C758 C767 1.429 1_556 S
C759 C757 1.419 . S
C759 C760 1.363 . S
C759 H762 0.929 . S
C760 C759 1.363 . S
C760 C766 1.428 1_556 S
H761 C757 0.930 . S
H762 C759 0.929 . S
S763 N764 1.613 . S
S763 N765 1.610 . S
N764 S763 1.613 . S
N764 C767 1.350 . S
N765 S763 1.610 . S
N765 C766 1.351 . S
C766 C760 1.428 1_554 S
C766 N765 1.351 . S
C766 C767 1.434 . S
C767 C758 1.429 1_554 S
C767 N764 1.350 . S
C767 C766 1.434 . S
C768 C769 1.369 . S
C768 C770 1.419 . S
C768 H772 0.930 . S
C769 C768 1.369 . S
C769 C778 1.429 . S
C770 C768 1.419 . S
C770 C771 1.363 . S
C770 H773 0.929 . S
C771 C770 1.363 . S
C771 C777 1.428 . S
H772 C768 0.930 . S
H773 C770 0.929 . S
S774 N775 1.613 . S
S774 N776 1.610 . S
N775 S774 1.613 . S
N775 C778 1.350 . S
N776 S774 1.610 . S
N776 C777 1.351 . S
C777 C771 1.428 . S
C777 N776 1.351 . S
C777 C778 1.434 . S
C778 C769 1.429 . S
C778 N775 1.350 . S
C778 C777 1.434 . S
C779 C780 1.369 . S
C779 C781 1.419 . S
C779 H783 0.930 . S
C780 C779 1.369 . S
C780 C789 1.429 . S
C781 C779 1.419 . S
C781 C782 1.363 . S
C781 H784 0.929 . S
C782 C781 1.363 . S
C782 C788 1.428 . S
H783 C779 0.930 . S
H784 C781 0.929 . S
S785 N786 1.613 . S
S785 N787 1.610 . S
N786 S785 1.613 . S
N786 C789 1.350 . S
N787 S785 1.610 . S
N787 C788 1.351 . S
C788 C782 1.428 . S
C788 N787 1.351 . S
C788 C789 1.434 . S
C789 C780 1.429 . S
C789 N786 1.350 . S
C789 C788 1.434 . S
C790 C791 1.369 . S
C790 C792 1.419 . S
C790 H794 0.930 . S
C791 C790 1.369 . S
C791 C800 1.429 . S
C792 C790 1.419 . S
C792 C793 1.363 . S
C792 H795 0.929 . S
C793 C792 1.363 . S
C793 C799 1.428 . S
H794 C790 0.930 . S
H795 C792 0.929 . S
S796 N797 1.613 . S
S796 N798 1.610 . S
N797 S796 1.613 . S
N797 C800 1.350 . S
N798 S796 1.610 . S
N798 C799 1.351 . S
C799 C793 1.428 . S
C799 N798 1.351 . S
C799 C800 1.434 . S
C800 C791 1.429 . S
C800 N797 1.350 . S
C800 C799 1.434 . S
C801 C802 1.369 . S
C801 C803 1.419 . S
C801 H805 0.930 . S
C802 C801 1.369 . S
C802 C811 1.429 . S
C803 C801 1.419 . S
C803 C804 1.363 . S
C803 H806 0.929 . S
C804 C803 1.363 . S
C804 C810 1.428 . S
H805 C801 0.930 . S
H806 C803 0.929 . S
S807 N808 1.613 . S
S807 N809 1.610 . S
N808 S807 1.613 . S
N808 C811 1.350 . S
N809 S807 1.610 . S
N809 C810 1.351 . S
C810 C804 1.428 . S
C810 N809 1.351 . S
C810 C811 1.434 . S
C811 C802 1.429 . S
C811 N808 1.350 . S
C811 C810 1.434 . S
C812 C813 1.369 . S
C812 C814 1.419 . S
C812 H816 0.930 . S
C813 C812 1.369 . S
C813 C822 1.429 . S
C814 C812 1.419 . S
C814 C815 1.363 . S
C814 H817 0.929 . S
C815 C814 1.363 . S
C815 C821 1.428 . S
H816 C812 0.930 . S
H817 C814 0.929 . S
S818 N819 1.613 . S
S818 N820 1.610 . S
N819 S818 1.613 . S
N819 C822 1.350 . S
N820 S818 1.610 . S
N820 C821 1.351 . S
C821 C815 1.428 . S
C821 N820 1.351 . S
C821 C822 1.434 . S
C822 C813 1.429 . S
C822 N819 1.350 . S
C822 C821 1.434 . S
C823 C824 1.369 . S
C823 C825 1.419 . S
C823 H827 0.930 . S
C824 C823 1.369 . S
C824 C833 1.429 . S
C825 C823 1.419 . S
C825 C826 1.363 . S
C825 H828 0.929 . S
C826 C825 1.363 . S
C826 C832 1.428 . S
H827 C823 0.930 . S
H828 C825 0.929 . S
S829 N830 1.613 1_545 S
S829 N831 1.610 1_545 S
N830 S829 1.613 1_565 S
N830 C833 1.350 . S
N831 S829 1.610 1_565 S
N831 C832 1.351 . S
C832 C826 1.428 . S
C832 N831 1.351 . S
C832 C833 1.434 . S
C833 C824 1.429 . S
C833 N830 1.350 . S
C833 C832 1.434 . S
C834 C835 1.369 . S
C834 C836 1.419 . S
C834 H838 0.930 . S
C835 C834 1.369 . S
C835 C844 1.429 . S
C836 C834 1.419 . S
C836 C837 1.363 . S
C836 H839 0.929 . S
C837 C836 1.363 . S
C837 C843 1.428 . S
H838 C834 0.930 . S
H839 C836 0.929 . S
S840 N841 1.613 . S
S840 N842 1.610 . S
N841 S840 1.613 . S
N841 C844 1.350 . S
N842 S840 1.610 . S
N842 C843 1.351 . S
C843 C837 1.428 . S
C843 N842 1.351 . S
C843 C844 1.434 . S
C844 C835 1.429 . S
C844 N841 1.350 . S
C844 C843 1.434 . S
C845 C846 1.369 . S
C845 C847 1.419 . S
C845 H849 0.930 . S
C846 C845 1.369 . S
C846 C855 1.429 . S
C847 C845 1.419 . S
C847 C848 1.363 . S
C847 H850 0.929 . S
C848 C847 1.363 . S
C848 C854 1.428 . S
H849 C845 0.930 . S
H850 C847 0.929 . S
S851 N852 1.613 . S
S851 N853 1.610 . S
N852 S851 1.613 . S
N852 C855 1.350 . S
N853 S851 1.610 . S
N853 C854 1.351 . S
C854 C848 1.428 . S
C854 N853 1.351 . S
C854 C855 1.434 . S
C855 C846 1.429 . S
C855 N852 1.350 . S
C855 C854 1.434 . S
C856 C857 1.369 . S
C856 C858 1.419 . S
C856 H860 0.930 . S
C857 C856 1.369 . S
C857 C866 1.429 . S
C858 C856 1.419 . S
C858 C859 1.363 . S
C858 H861 0.929 . S
C859 C858 1.363 . S
C859 C865 1.428 . S
H860 C856 0.930 . S
H861 C858 0.929 . S
S862 N863 1.613 . S
S862 N864 1.610 . S
N863 S862 1.613 . S
N863 C866 1.350 . S
N864 S862 1.610 . S
N864 C865 1.351 . S
C865 C859 1.428 . S
C865 N864 1.351 . S
C865 C866 1.434 . S
C866 C857 1.429 . S
C866 N863 1.350 . S
C866 C865 1.434 . S
C867 C868 1.369 . S
C867 C869 1.419 . S
C867 H871 0.930 . S
C868 C867 1.369 . S
C868 C877 1.429 . S
C869 C867 1.419 . S
C869 C870 1.363 . S
C869 H872 0.929 . S
C870 C869 1.363 . S
C870 C876 1.428 . S
H871 C867 0.930 . S
H872 C869 0.929 . S
S873 N874 1.613 . S
S873 N875 1.610 . S
N874 S873 1.613 . S
N874 C877 1.350 . S
N875 S873 1.610 . S
N875 C876 1.351 . S
C876 C870 1.428 . S
C876 N875 1.351 . S
C876 C877 1.434 . S
C877 C868 1.429 . S
C877 N874 1.350 . S
C877 C876 1.434 . S
C878 C879 1.369 . S
C878 C880 1.419 . S
C878 H882 0.930 . S
C879 C878 1.369 . S
C879 C888 1.429 . S
C880 C878 1.419 . S
C880 C881 1.363 . S
C880 H883 0.929 . S
C881 C880 1.363 . S
C881 C887 1.428 . S
H882 C878 0.930 . S
H883 C880 0.929 . S
S884 N885 1.613 . S
S884 N886 1.610 . S
N885 S884 1.613 . S
N885 C888 1.350 . S
N886 S884 1.610 . S
N886 C887 1.351 . S
C887 C881 1.428 . S
C887 N886 1.351 . S
C887 C888 1.434 . S
C888 C879 1.429 . S
C888 N885 1.350 . S
C888 C887 1.434 . S
C889 C890 1.369 . S
C889 C891 1.419 . S
C889 H893 0.930 . S
C890 C889 1.369 . S
C890 C899 1.429 . S
C891 C889 1.419 . S
C891 C892 1.363 . S
C891 H894 0.929 . S
C892 C891 1.363 . S
C892 C898 1.428 . S
H893 C889 0.930 . S
H894 C891 0.929 . S
S895 N896 1.613 . S
S895 N897 1.610 . S
N896 S895 1.613 . S
N896 C899 1.350 . S
N897 S895 1.610 . S
N897 C898 1.351 . S
C898 C892 1.428 . S
C898 N897 1.351 . S
C898 C899 1.434 . S
C899 C890 1.429 . S
C899 N896 1.350 . S
C899 C898 1.434 . S
C900 C901 1.369 . S
C900 C902 1.419 . S
C900 H904 0.930 . S
C901 C900 1.369 . S
C901 C910 1.429 . S
C902 C900 1.419 . S
C902 C903 1.363 . S
C902 H905 0.929 . S
C903 C902 1.363 . S
C903 C909 1.428 . S
H904 C900 0.930 . S
H905 C902 0.929 . S
S906 N907 1.613 . S
S906 N908 1.610 . S
N907 S906 1.613 . S
N907 C910 1.350 . S
N908 S906 1.610 . S
N908 C909 1.351 . S
C909 C903 1.428 . S
C909 N908 1.351 . S
C909 C910 1.434 . S
C910 C901 1.429 . S
C910 N907 1.350 . S
C910 C909 1.434 . S
C911 C912 1.369 . S
C911 C913 1.419 . S
C911 H915 0.930 . S
C912 C911 1.369 . S
C912 C921 1.429 . S
C913 C911 1.419 . S
C913 C914 1.363 . S
C913 H916 0.929 . S
C914 C913 1.363 . S
C914 C920 1.428 . S
H915 C911 0.930 . S
H916 C913 0.929 . S
S917 N918 1.613 . S
S917 N919 1.610 . S
N918 S917 1.613 . S
N918 C921 1.350 . S
N919 S917 1.610 . S
N919 C920 1.351 . S
C920 C914 1.428 . S
C920 N919 1.351 . S
C920 C921 1.434 . S
C921 C912 1.429 . S
C921 N918 1.350 . S
C921 C920 1.434 . S
C922 C923 1.369 . S
C922 C924 1.419 . S
C922 H926 0.930 . S
C923 C922 1.369 . S
C923 C932 1.429 . S
C924 C922 1.419 . S
C924 C925 1.363 . S
C924 H927 0.929 . S
C925 C924 1.363 . S
C925 C931 1.428 . S
H926 C922 0.930 . S
H927 C924 0.929 . S
S928 N929 1.613 . S
S928 N930 1.610 . S
N929 S928 1.613 . S
N929 C932 1.350 . S
N930 S928 1.610 . S
N930 C931 1.351 . S
C931 C925 1.428 . S
C931 N930 1.351 . S
C931 C932 1.434 . S
C932 C923 1.429 . S
C932 N929 1.350 . S
C932 C931 1.434 . S
C933 C934 1.369 . S
C933 C935 1.419 . S
C933 H937 0.930 . S
C934 C933 1.369 . S
C934 C943 1.429 . S
C935 C933 1.419 . S
C935 C936 1.363 . S
C935 H938 0.929 . S
C936 C935 1.363 . S
C936 C942 1.428 . S
H937 C933 0.930 . S
H938 C935 0.929 . S
S939 N940 1.613 . S
S939 N941 1.610 . S
N940 S939 1.613 . S
N940 C943 1.350 . S
N941 S939 1.610 . S
N941 C942 1.351 . S
C942 C936 1.428 . S
C942 N941 1.351 . S
C942 C943 1.434 . S
C943 C934 1.429 . S
C943 N940 1.350 . S
C943 C942 1.434 . S
C944 C945 1.369 . S
C944 C946 1.419 . S
C944 H948 0.930 . S
C945 C944 1.369 . S
C945 C954 1.429 . S
C946 C944 1.419 . S
C946 C947 1.363 . S
C946 H949 0.929 . S
C947 C946 1.363 . S
C947 C953 1.428 . S
H948 C944 0.930 . S
H949 C946 0.929 . S
S950 N951 1.613 . S
S950 N952 1.610 . S
N951 S950 1.613 . S
N951 C954 1.350 . S
N952 S950 1.610 . S
N952 C953 1.351 . S
C953 C947 1.428 . S
C953 N952 1.351 . S
C953 C954 1.434 . S
C954 C945 1.429 . S
C954 N951 1.350 . S
C954 C953 1.434 . S
C955 C956 1.369 . S
C955 C957 1.419 . S
C955 H959 0.930 . S
C956 C955 1.369 . S
C956 C965 1.429 . S
C957 C955 1.419 . S
C957 C958 1.363 . S
C957 H960 0.929 . S
C958 C957 1.363 . S
C958 C964 1.428 . S
H959 C955 0.930 . S
H960 C957 0.929 . S
S961 N962 1.613 . S
S961 N963 1.610 . S
N962 S961 1.613 . S
N962 C965 1.350 . S
N963 S961 1.610 . S
N963 C964 1.351 . S
C964 C958 1.428 . S
C964 N963 1.351 . S
C964 C965 1.434 . S
C965 C956 1.429 . S
C965 N962 1.350 . S
C965 C964 1.434 . S
C966 C967 1.369 . S
C966 C968 1.419 . S
C966 H970 0.930 . S
C967 C966 1.369 . S
C967 C976 1.429 . S
C968 C966 1.419 . S
C968 C969 1.363 . S
C968 H971 0.929 . S
C969 C968 1.363 . S
C969 C975 1.428 . S
H970 C966 0.930 . S
H971 C968 0.929 . S
S972 N973 1.613 . S
S972 N974 1.610 . S
N973 S972 1.613 . S
N973 C976 1.350 . S
N974 S972 1.610 . S
N974 C975 1.351 . S
C975 C969 1.428 . S
C975 N974 1.351 . S
C975 C976 1.434 . S
C976 C967 1.429 . S
C976 N973 1.350 . S
C976 C975 1.434 . S
C977 C978 1.369 . S
C977 C979 1.419 . S
C977 H981 0.930 . S
C978 C977 1.369 . S
C978 C987 1.429 . S
C979 C977 1.419 . S
C979 C980 1.363 . S
C979 H982 0.929 . S
C980 C979 1.363 . S
C980 C986 1.428 . S
H981 C977 0.930 . S
H982 C979 0.929 . S
S983 N984 1.613 . S
S983 N985 1.610 . S
N984 S983 1.613 . S
N984 C987 1.350 . S
N985 S983 1.610 . S
N985 C986 1.351 . S
C986 C980 1.428 . S
C986 N985 1.351 . S
C986 C987 1.434 . S
C987 C978 1.429 . S
C987 N984 1.350 . S
C987 C986 1.434 . S
C988 C989 1.369 . S
C988 C990 1.419 . S
C988 H992 0.930 . S
C989 C988 1.369 . S
C989 C998 1.429 . S
C990 C988 1.419 . S
C990 C991 1.363 . S
C990 H993 0.929 . S
C991 C990 1.363 . S
C991 C997 1.428 . S
H992 C988 0.930 . S
H993 C990 0.929 . S
S994 N995 1.613 . S
S994 N996 1.610 . S
N995 S994 1.613 . S
N995 C998 1.350 . S
N996 S994 1.610 . S
N996 C997 1.351 . S
C997 C991 1.428 . S
C997 N996 1.351 . S
C997 C998 1.434 . S
C998 C989 1.429 . S
C998 N995 1.350 . S
C998 C997 1.434 . S
C999 C1000 1.369 . S
C999 C1001 1.419 . S
C999 H1003 0.930 . S
C1000 C999 1.369 . S
C1000 C1009 1.429 . S
C1001 C999 1.419 . S
C1001 C1002 1.363 . S
C1001 H1004 0.929 . S
C1002 C1001 1.363 . S
C1002 C1008 1.428 . S
H1003 C999 0.930 . S
H1004 C1001 0.929 . S
S1005 N1006 1.613 . S
S1005 N1007 1.610 . S
N1006 S1005 1.613 . S
N1006 C1009 1.350 . S
N1007 S1005 1.610 . S
N1007 C1008 1.351 . S
C1008 C1002 1.428 . S
C1008 N1007 1.351 . S
C1008 C1009 1.434 . S
C1009 C1000 1.429 . S
C1009 N1006 1.350 . S
C1009 C1008 1.434 . S
C1010 C1011 1.369 . S
C1010 C1012 1.419 . S
C1010 H1014 0.930 . S
C1011 C1010 1.369 . S
C1011 C1020 1.429 . S
C1012 C1010 1.419 . S
C1012 C1013 1.363 . S
C1012 H1015 0.929 . S
C1013 C1012 1.363 . S
C1013 C1019 1.428 . S
H1014 C1010 0.930 . S
H1015 C1012 0.929 . S
S1016 N1017 1.613 . S
S1016 N1018 1.610 . S
N1017 S1016 1.613 . S
N1017 C1020 1.350 . S
N1018 S1016 1.610 . S
N1018 C1019 1.351 . S
C1019 C1013 1.428 . S
C1019 N1018 1.351 . S
C1019 C1020 1.434 . S
C1020 C1011 1.429 . S
C1020 N1017 1.350 . S
C1020 C1019 1.434 . S
C1021 C1022 1.369 . S
C1021 C1023 1.419 . S
C1021 H1025 0.930 . S
C1022 C1021 1.369 . S
C1022 C1031 1.429 . S
C1023 C1021 1.419 . S
C1023 C1024 1.363 . S
C1023 H1026 0.929 . S
C1024 C1023 1.363 . S
C1024 C1030 1.428 . S
H1025 C1021 0.930 . S
H1026 C1023 0.929 . S
S1027 N1028 1.613 . S
S1027 N1029 1.610 . S
N1028 S1027 1.613 . S
N1028 C1031 1.350 . S
N1029 S1027 1.610 . S
N1029 C1030 1.351 . S
C1030 C1024 1.428 . S
C1030 N1029 1.351 . S
C1030 C1031 1.434 . S
C1031 C1022 1.429 . S
C1031 N1028 1.350 . S
C1031 C1030 1.434 . S
C1032 C1033 1.369 . S
C1032 C1034 1.419 . S
C1032 H1036 0.930 . S
C1033 C1032 1.369 . S
C1033 C1042 1.429 . S
C1034 C1032 1.419 . S
C1034 C1035 1.363 . S
C1034 H1037 0.929 . S
C1035 C1034 1.363 . S
C1035 C1041 1.428 . S
H1036 C1032 0.930 . S
H1037 C1034 0.929 . S
S1038 N1039 1.613 . S
S1038 N1040 1.610 . S
N1039 S1038 1.613 . S
N1039 C1042 1.350 . S
N1040 S1038 1.610 . S
N1040 C1041 1.351 . S
C1041 C1035 1.428 . S
C1041 N1040 1.351 . S
C1041 C1042 1.434 . S
C1042 C1033 1.429 . S
C1042 N1039 1.350 . S
C1042 C1041 1.434 . S
C1043 C1044 1.369 . S
C1043 C1045 1.419 . S
C1043 H1047 0.930 . S
C1044 C1043 1.369 . S
C1044 C1053 1.429 1_565 S
C1045 C1043 1.419 . S
C1045 C1046 1.363 1_565 S
C1045 H1048 0.929 . S
C1046 C1045 1.363 1_545 S
C1046 C1052 1.428 . S
H1047 C1043 0.930 . S
H1048 C1045 0.929 . S
S1049 N1050 1.613 . S
S1049 N1051 1.610 . S
N1050 S1049 1.613 . S
N1050 C1053 1.350 . S
N1051 S1049 1.610 . S
N1051 C1052 1.351 . S
C1052 C1046 1.428 . S
C1052 N1051 1.351 . S
C1052 C1053 1.434 . S
C1053 C1044 1.429 1_545 S
C1053 N1050 1.350 . S
C1053 C1052 1.434 . S
C1054 C1055 1.369 1_455 S
C1054 C1056 1.419 . S
C1054 H1058 0.930 . S
C1055 C1054 1.369 1_655 S
C1055 C1064 1.429 . S
C1056 C1054 1.419 . S
C1056 C1057 1.363 . S
C1056 H1059 0.929 . S
C1057 C1056 1.363 . S
C1057 C1063 1.428 1_455 S
H1058 C1054 0.930 . S
H1059 C1056 0.929 . S
S1060 N1061 1.613 . S
S1060 N1062 1.610 . S
N1061 S1060 1.613 . S
N1061 C1064 1.350 . S
N1062 S1060 1.610 . S
N1062 C1063 1.351 . S
C1063 C1057 1.428 1_655 S
C1063 N1062 1.351 . S
C1063 C1064 1.434 . S
C1064 C1055 1.429 . S
C1064 N1061 1.350 . S
C1064 C1063 1.434 . S
C1065 C1066 1.369 . S
C1065 C1067 1.419 . S
C1065 H1069 0.930 . S
C1066 C1065 1.369 . S
C1066 C1075 1.429 . S
C1067 C1065 1.419 . S
C1067 C1068 1.363 . S
C1067 H1070 0.929 . S
C1068 C1067 1.363 . S
C1068 C1074 1.428 . S
H1069 C1065 0.930 . S
H1070 C1067 0.929 . S
S1071 N1072 1.613 . S
S1071 N1073 1.610 . S
N1072 S1071 1.613 . S
N1072 C1075 1.350 . S
N1073 S1071 1.610 . S
N1073 C1074 1.351 . S
C1074 C1068 1.428 . S
C1074 N1073 1.351 . S
C1074 C1075 1.434 . S
C1075 C1066 1.429 . S
C1075 N1072 1.350 . S
C1075 C1074 1.434 . S
C1076 C1077 1.369 1_565 S
C1076 C1078 1.419 . S
C1076 H1080 0.930 . S
C1077 C1076 1.369 1_545 S
C1077 C1086 1.429 . S
C1078 C1076 1.419 . S
C1078 C1079 1.363 . S
C1078 H1081 0.929 . S
C1079 C1078 1.363 . S
C1079 C1085 1.428 1_565 S
H1080 C1076 0.930 . S
H1081 C1078 0.929 . S
S1082 N1083 1.613 . S
S1082 N1084 1.610 . S
N1083 S1082 1.613 . S
N1083 C1086 1.350 . S
N1084 S1082 1.610 . S
N1084 C1085 1.351 . S
C1085 C1079 1.428 1_545 S
C1085 N1084 1.351 . S
C1085 C1086 1.434 . S
C1086 C1077 1.429 . S
C1086 N1083 1.350 . S
C1086 C1085 1.434 . S
C1087 C1088 1.369 . S
C1087 C1089 1.419 1_655 S
C1087 H1091 0.930 . S
C1088 C1087 1.369 . S
C1088 C1097 1.429 . S
C1089 C1087 1.419 1_455 S
C1089 C1090 1.363 . S
C1089 H1092 0.929 . S
C1090 C1089 1.363 . S
C1090 C1096 1.428 . S
H1091 C1087 0.930 . S
H1092 C1089 0.929 . S
S1093 N1094 1.613 1_455 S
S1093 N1095 1.610 . S
N1094 S1093 1.613 1_655 S
N1094 C1097 1.350 . S
N1095 S1093 1.610 . S
N1095 C1096 1.351 . S
C1096 C1090 1.428 . S
C1096 N1095 1.351 . S
C1096 C1097 1.434 1_455 S
C1097 C1088 1.429 . S
C1097 N1094 1.350 . S
C1097 C1096 1.434 1_655 S
C1098 C1099 1.369 . S
C1098 C1100 1.419 . S
C1098 H1102 0.930 . S
C1099 C1098 1.369 . S
C1099 C1108 1.429 . S
C1100 C1098 1.419 . S
C1100 C1101 1.363 . S
C1100 H1103 0.929 . S
C1101 C1100 1.363 . S
C1101 C1107 1.428 . S
H1102 C1098 0.930 . S
H1103 C1100 0.929 . S
S1104 N1105 1.613 . S
S1104 N1106 1.610 . S
N1105 S1104 1.613 . S
N1105 C1108 1.350 . S
N1106 S1104 1.610 . S
N1106 C1107 1.351 . S
C1107 C1101 1.428 . S
C1107 N1106 1.351 . S
C1107 C1108 1.434 . S
C1108 C1099 1.429 . S
C1108 N1105 1.350 . S
C1108 C1107 1.434 . S
C1109 C1110 1.369 . S
C1109 C1111 1.419 . S
C1109 H1113 0.930 . S
C1110 C1109 1.369 . S
C1110 C1119 1.429 . S
C1111 C1109 1.419 . S
C1111 C1112 1.363 . S
C1111 H1114 0.929 . S
C1112 C1111 1.363 . S
C1112 C1118 1.428 . S
H1113 C1109 0.930 . S
H1114 C1111 0.929 . S
S1115 N1116 1.613 . S
S1115 N1117 1.610 . S
N1116 S1115 1.613 . S
N1116 C1119 1.350 . S
N1117 S1115 1.610 . S
N1117 C1118 1.351 . S
C1118 C1112 1.428 . S
C1118 N1117 1.351 . S
C1118 C1119 1.434 . S
C1119 C1110 1.429 . S
C1119 N1116 1.350 . S
C1119 C1118 1.434 . S
C1120 C1121 1.369 . S
C1120 C1122 1.419 . S
C1120 H1124 0.930 . S
C1121 C1120 1.369 . S
C1121 C1130 1.429 . S
C1122 C1120 1.419 . S
C1122 C1123 1.363 . S
C1122 H1125 0.929 . S
C1123 C1122 1.363 . S
C1123 C1129 1.428 . S
H1124 C1120 0.930 . S
H1125 C1122 0.929 . S
S1126 N1127 1.613 . S
S1126 N1128 1.610 . S
N1127 S1126 1.613 . S
N1127 C1130 1.350 . S
N1128 S1126 1.610 . S
N1128 C1129 1.351 . S
C1129 C1123 1.428 . S
C1129 N1128 1.351 . S
C1129 C1130 1.434 . S
C1130 C1121 1.429 . S
C1130 N1127 1.350 . S
C1130 C1129 1.434 . S
C1131 C1132 1.369 . S
C1131 C1133 1.419 . S
C1131 H1135 0.930 . S
C1132 C1131 1.369 . S
C1132 C1141 1.429 . S
C1133 C1131 1.419 . S
C1133 C1134 1.363 . S
C1133 H1136 0.929 . S
C1134 C1133 1.363 . S
C1134 C1140 1.428 . S
H1135 C1131 0.930 . S
H1136 C1133 0.929 . S
S1137 N1138 1.613 . S
S1137 N1139 1.610 . S
N1138 S1137 1.613 . S
N1138 C1141 1.350 . S
N1139 S1137 1.610 . S
N1139 C1140 1.351 . S
C1140 C1134 1.428 . S
C1140 N1139 1.351 . S
C1140 C1141 1.434 . S
C1141 C1132 1.429 . S
C1141 N1138 1.350 . S
C1141 C1140 1.434 . S
C1142 C1143 1.369 . S
C1142 C1144 1.419 . S
C1142 H1146 0.930 . S
C1143 C1142 1.369 . S
C1143 C1152 1.429 . S
C1144 C1142 1.419 . S
C1144 C1145 1.363 . S
C1144 H1147 0.929 . S
C1145 C1144 1.363 . S
C1145 C1151 1.428 . S
H1146 C1142 0.930 . S
H1147 C1144 0.929 . S
S1148 N1149 1.613 . S
S1148 N1150 1.610 . S
N1149 S1148 1.613 . S
N1149 C1152 1.350 . S
N1150 S1148 1.610 . S
N1150 C1151 1.351 . S
C1151 C1145 1.428 . S
C1151 N1150 1.351 . S
C1151 C1152 1.434 . S
C1152 C1143 1.429 . S
C1152 N1149 1.350 . S
C1152 C1151 1.434 . S
C1153 C1154 1.369 . S
C1153 C1155 1.419 . S
C1153 H1157 0.930 . S
C1154 C1153 1.369 . S
C1154 C1163 1.429 . S
C1155 C1153 1.419 . S
C1155 C1156 1.363 . S
C1155 H1158 0.929 . S
C1156 C1155 1.363 . S
C1156 C1162 1.428 . S
H1157 C1153 0.930 . S
H1158 C1155 0.929 . S
S1159 N1160 1.613 . S
S1159 N1161 1.610 . S
N1160 S1159 1.613 . S
N1160 C1163 1.350 . S
N1161 S1159 1.610 . S
N1161 C1162 1.351 . S
C1162 C1156 1.428 . S
C1162 N1161 1.351 . S
C1162 C1163 1.434 . S
C1163 C1154 1.429 . S
C1163 N1160 1.350 . S
C1163 C1162 1.434 . S
C1164 C1165 1.369 . S
C1164 C1166 1.419 . S
C1164 H1168 0.930 . S
C1165 C1164 1.369 . S
C1165 C1174 1.429 . S
C1166 C1164 1.419 . S
C1166 C1167 1.363 . S
C1166 H1169 0.929 . S
C1167 C1166 1.363 . S
C1167 C1173 1.428 . S
H1168 C1164 0.930 . S
H1169 C1166 0.929 . S
S1170 N1171 1.613 . S
S1170 N1172 1.610 . S
N1171 S1170 1.613 . S
N1171 C1174 1.350 . S
N1172 S1170 1.610 . S
N1172 C1173 1.351 . S
C1173 C1167 1.428 . S
C1173 N1172 1.351 . S
C1173 C1174 1.434 . S
C1174 C1165 1.429 . S
C1174 N1171 1.350 . S
C1174 C1173 1.434 . S
C1175 C1176 1.369 . S
C1175 C1177 1.419 . S
C1175 H1179 0.930 . S
C1176 C1175 1.369 . S
C1176 C1185 1.429 . S
C1177 C1175 1.419 . S
C1177 C1178 1.363 . S
C1177 H1180 0.929 . S
C1178 C1177 1.363 . S
C1178 C1184 1.428 . S
H1179 C1175 0.930 . S
H1180 C1177 0.929 . S
S1181 N1182 1.613 . S
S1181 N1183 1.610 . S
N1182 S1181 1.613 . S
N1182 C1185 1.350 . S
N1183 S1181 1.610 . S
N1183 C1184 1.351 . S
C1184 C1178 1.428 . S
C1184 N1183 1.351 . S
C1184 C1185 1.434 . S
C1185 C1176 1.429 . S
C1185 N1182 1.350 . S
C1185 C1184 1.434 . S
C1186 C1187 1.369 . S
C1186 C1188 1.419 . S
C1186 H1190 0.930 . S
C1187 C1186 1.369 . S
C1187 C1196 1.429 . S
C1188 C1186 1.419 . S
C1188 C1189 1.363 . S
C1188 H1191 0.929 . S
C1189 C1188 1.363 . S
C1189 C1195 1.428 . S
H1190 C1186 0.930 . S
H1191 C1188 0.929 . S
S1192 N1193 1.613 . S
S1192 N1194 1.610 . S
N1193 S1192 1.613 . S
N1193 C1196 1.350 . S
N1194 S1192 1.610 . S
N1194 C1195 1.351 . S
C1195 C1189 1.428 . S
C1195 N1194 1.351 . S
C1195 C1196 1.434 . S
C1196 C1187 1.429 . S
C1196 N1193 1.350 . S
C1196 C1195 1.434 . S
C1197 C1198 1.369 . S
C1197 C1199 1.419 . S
C1197 H1201 0.930 . S
C1198 C1197 1.369 . S
C1198 C1207 1.429 . S
C1199 C1197 1.419 . S
C1199 C1200 1.363 . S
C1199 H1202 0.929 . S
C1200 C1199 1.363 . S
C1200 C1206 1.428 . S
H1201 C1197 0.930 . S
H1202 C1199 0.929 . S
S1203 N1204 1.613 . S
S1203 N1205 1.610 . S
N1204 S1203 1.613 . S
N1204 C1207 1.350 . S
N1205 S1203 1.610 . S
N1205 C1206 1.351 . S
C1206 C1200 1.428 . S
C1206 N1205 1.351 . S
C1206 C1207 1.434 . S
C1207 C1198 1.429 . S
C1207 N1204 1.350 . S
C1207 C1206 1.434 . S
C1208 C1209 1.369 . S
C1208 C1210 1.419 . S
C1208 H1212 0.930 . S
C1209 C1208 1.369 . S
C1209 C1218 1.429 . S
C1210 C1208 1.419 . S
C1210 C1211 1.363 . S
C1210 H1213 0.929 . S
C1211 C1210 1.363 . S
C1211 C1217 1.428 . S
H1212 C1208 0.930 . S
H1213 C1210 0.929 . S
S1214 N1215 1.613 . S
S1214 N1216 1.610 . S
N1215 S1214 1.613 . S
N1215 C1218 1.350 . S
N1216 S1214 1.610 . S
N1216 C1217 1.351 . S
C1217 C1211 1.428 . S
C1217 N1216 1.351 . S
C1217 C1218 1.434 . S
C1218 C1209 1.429 . S
C1218 N1215 1.350 . S
C1218 C1217 1.434 . S
C1219 C1220 1.369 . S
C1219 C1221 1.419 . S
C1219 H1223 0.930 . S
C1220 C1219 1.369 . S
C1220 C1229 1.429 . S
C1221 C1219 1.419 . S
C1221 C1222 1.363 . S
C1221 H1224 0.929 . S
C1222 C1221 1.363 . S
C1222 C1228 1.428 . S
H1223 C1219 0.930 . S
H1224 C1221 0.929 . S
S1225 N1226 1.613 . S
S1225 N1227 1.610 . S
N1226 S1225 1.613 . S
N1226 C1229 1.350 . S
N1227 S1225 1.610 . S
N1227 C1228 1.351 . S
C1228 C1222 1.428 . S
C1228 N1227 1.351 . S
C1228 C1229 1.434 . S
C1229 C1220 1.429 . S
C1229 N1226 1.350 . S
C1229 C1228 1.434 . S
C1230 C1231 1.369 . S
C1230 C1232 1.419 1_455 S
C1230 H1234 0.930 . S
C1231 C1230 1.369 . S
C1231 C1240 1.429 . S
C1232 C1230 1.419 1_655 S
C1232 C1233 1.363 . S
C1232 H1235 0.929 . S
C1233 C1232 1.363 . S
C1233 C1239 1.428 . S
H1234 C1230 0.930 . S
H1235 C1232 0.929 . S
S1236 N1237 1.613 1_655 S
S1236 N1238 1.610 . S
N1237 S1236 1.613 1_455 S
N1237 C1240 1.350 . S
N1238 S1236 1.610 . S
N1238 C1239 1.351 . S
C1239 C1233 1.428 . S
C1239 N1238 1.351 . S
C1239 C1240 1.434 1_655 S
C1240 C1231 1.429 . S
C1240 N1237 1.350 . S
C1240 C1239 1.434 1_455 S
C1241 C1242 1.369 . S
C1241 C1243 1.419 . S
C1241 H1245 0.930 . S
C1242 C1241 1.369 . S
C1242 C1251 1.429 . S
C1243 C1241 1.419 . S
C1243 C1244 1.363 . S
C1243 H1246 0.929 . S
C1244 C1243 1.363 . S
C1244 C1250 1.428 . S
H1245 C1241 0.930 . S
H1246 C1243 0.929 . S
S1247 N1248 1.613 . S
S1247 N1249 1.610 . S
N1248 S1247 1.613 . S
N1248 C1251 1.350 . S
N1249 S1247 1.610 . S
N1249 C1250 1.351 . S
C1250 C1244 1.428 . S
C1250 N1249 1.351 . S
C1250 C1251 1.434 . S
C1251 C1242 1.429 . S
C1251 N1248 1.350 . S
C1251 C1250 1.434 . S
C1252 C1253 1.369 . S
C1252 C1254 1.419 1_545 S
C1252 H1256 0.930 . S
C1253 C1252 1.369 . S
C1253 C1262 1.429 . S
C1254 C1252 1.419 1_565 S
C1254 C1255 1.363 . S
C1254 H1257 0.929 . S
C1255 C1254 1.363 . S
C1255 C1261 1.428 . S
H1256 C1252 0.930 . S
H1257 C1254 0.929 . S
S1258 N1259 1.613 . S
S1258 N1260 1.610 1_545 S
N1259 S1258 1.613 . S
N1259 C1262 1.350 . S
N1260 S1258 1.610 1_565 S
N1260 C1261 1.351 . S
C1261 C1255 1.428 . S
C1261 N1260 1.351 . S
C1261 C1262 1.434 1_565 S
C1262 C1253 1.429 . S
C1262 N1259 1.350 . S
C1262 C1261 1.434 1_545 S
C1263 C1264 1.369 . S
C1263 C1265 1.419 1_565 S
C1263 H1267 0.930 . S
C1264 C1263 1.369 . S
C1264 C1273 1.429 . S
C1265 C1263 1.419 1_545 S
C1265 C1266 1.363 . S
C1265 H1268 0.929 . S
C1266 C1265 1.363 . S
C1266 C1272 1.428 . S
H1267 C1263 0.930 . S
H1268 C1265 0.929 . S
S1269 N1270 1.613 . S
S1269 N1271 1.610 1_565 S
N1270 S1269 1.613 . S
N1270 C1273 1.350 . S
N1271 S1269 1.610 1_545 S
N1271 C1272 1.351 . S
C1272 C1266 1.428 . S
C1272 N1271 1.351 . S
C1272 C1273 1.434 1_545 S
C1273 C1264 1.429 . S
C1273 N1270 1.350 . S
C1273 C1272 1.434 1_565 S
C1274 C1275 1.369 . S
C1274 C1276 1.419 1_655 S
C1274 H1278 0.930 . S
C1275 C1274 1.369 . S
C1275 C1284 1.429 . S
C1276 C1274 1.419 1_455 S
C1276 C1277 1.363 . S
C1276 H1279 0.929 . S
C1277 C1276 1.363 . S
C1277 C1283 1.428 . S
H1278 C1274 0.930 . S
H1279 C1276 0.929 . S
S1280 N1281 1.613 1_455 S
S1280 N1282 1.610 . S
N1281 S1280 1.613 1_655 S
N1281 C1284 1.350 . S
N1282 S1280 1.610 . S
N1282 C1283 1.351 . S
C1283 C1277 1.428 . S
C1283 N1282 1.351 . S
C1283 C1284 1.434 1_455 S
C1284 C1275 1.429 . S
C1284 N1281 1.350 . S
C1284 C1283 1.434 1_655 S
C1285 C1286 1.369 . S
C1285 C1287 1.419 . S
C1285 H1289 0.930 . S
C1286 C1285 1.369 . S
C1286 C1295 1.429 . S
C1287 C1285 1.419 . S
C1287 C1288 1.363 . S
C1287 H1290 0.929 . S
C1288 C1287 1.363 . S
C1288 C1294 1.428 . S
H1289 C1285 0.930 . S
H1290 C1287 0.929 . S
S1291 N1292 1.613 . S
S1291 N1293 1.610 . S
N1292 S1291 1.613 . S
N1292 C1295 1.350 . S
N1293 S1291 1.610 . S
N1293 C1294 1.351 . S
C1294 C1288 1.428 . S
C1294 N1293 1.351 . S
C1294 C1295 1.434 . S
C1295 C1286 1.429 . S
C1295 N1292 1.350 . S
C1295 C1294 1.434 . S
C505 C65 1.015 . S
C507 C9 1.006 . S
C516 C79 1.016 . S
C518 C23 1.006 . S
C527 C51 1.005 . S
C529 C37 1.018 . S
C538 C149 1.006 . S
C540 C93 1.009 . S
C549 C107 1.007 . S
C551 C163 1.019 . S
C560 C135 1.022 . S
C562 C121 1.010 . S
C571 C177 0.956 . S
C573 C233 0.951 . S
C582 C247 0.949 . S
C584 C191 0.955 . S
C593 C205 0.950 . S
C595 C219 0.944 . S
C604 C261 0.948 . S
C606 C317 0.954 . S
C615 C331 0.948 . S
C617 C275 0.944 . S
C626 C289 0.944 . S
C628 C303 0.944 . S
C637 C401 0.942 . S
C639 C345 0.947 . S
C648 C359 0.943 . S
C650 C415 0.949 . S
C659 C387 0.953 . S
C661 C373 0.945 . S
C670 C485 0.955 . S
C672 C429 0.954 . S
C681 C443 0.947 . S
C683 C499 0.955 . S
C692 C457 0.956 . S
C694 C471 0.952 . S
C703 C162 1.438 . S
C705 C8 1.438 . S
C714 C22 1.438 . S
C716 C134 1.438 . S
C725 C148 1.438 . S
C727 C36 1.438 . S
C736 C106 1.439 . S
C738 C50 1.439 . S
C747 C64 1.439 . S
C749 C120 1.439 . S
C758 C92 1.438 . S
C760 C78 1.438 . S
C769 C176 1.464 . S
C771 C330 1.464 . S
C780 C302 1.464 . S
C782 C190 1.464 . S
C791 C316 1.464 . S
C793 C204 1.464 . S
C802 C218 1.449 . S
C804 C274 1.449 . S
C813 C232 1.449 . S
C815 C288 1.449 . S
C824 C246 1.449 . S
C826 C260 1.449 . S
C835 C498 1.448 . S
C837 C344 1.449 . S
C846 C358 1.449 . S
C848 C470 1.449 . S
C857 C372 1.448 . S
C859 C484 1.449 . S
C868 C442 1.464 . S
C870 C386 1.464 . S
C879 C456 1.464 . S
C881 C400 1.464 . S
C890 C428 1.465 . S
C892 C414 1.465 . S
C901 C213 1.861 . S
C903 C3 1.884 . S
C912 C227 1.852 . S
C914 C17 1.891 . S
C923 C31 1.888 . S
C925 C241 1.852 . S
C934 C45 1.885 . S
C936 C339 1.856 . S
C945 C59 1.887 . S
C947 C353 1.860 . S
C956 C73 1.896 . S
C958 C367 1.853 . S
C967 C87 1.897 . S
C969 C465 1.853 . S
C978 C101 1.884 . S
C980 C479 1.857 . S
C989 C115 1.888 . S
C991 C493 1.861 . S
C1000 C129 1.889 . S
C1002 C255 1.861 . S
C1011 C269 1.855 . S
C1013 C143 1.884 . S
C1022 C283 1.856 . S
C1024 C157 1.893 . S
C1033 C381 2.096 . S
C1035 C171 2.088 . S
C1044 C185 2.092 1_565 S
C1046 C395 2.096 1_545 S
C1055 C409 2.098 1_655 S
C1057 C199 2.090 1_455 S
C1066 C297 2.098 . S
C1068 C423 2.091 . S
C1077 C437 2.098 1_545 S
C1079 C311 2.091 1_565 S
C1088 C451 2.087 1_655 S
C1090 C325 2.091 1_455 S
C1099 C7 2.489 . S
C1101 C413 2.514 . S
C1110 C21 2.495 . S
C1112 C385 2.507 . S
C1121 C35 2.492 . S
C1123 C399 2.513 . S
C1132 C49 2.493 . S
C1134 C189 2.513 . S
C1143 C203 2.506 . S
C1145 C63 2.494 . S
C1154 C175 2.513 . S
C1156 C77 2.490 . S
C1165 C329 2.509 . S
C1167 C91 2.496 . S
C1176 C301 2.508 . S
C1178 C105 2.492 . S
C1187 C315 2.508 . S
C1189 C119 2.496 . S
C1198 C441 2.512 . S
C1200 C133 2.494 . S
C1209 C455 2.504 . S
C1211 C147 2.497 . S
C1220 C427 2.514 . S
C1222 C161 2.490 . S
C1231 C217 2.346 . S
C1233 C357 2.345 . S
C1242 C371 2.347 . S
C1244 C231 2.343 . S
C1253 C343 2.347 . S
C1255 C245 2.339 . S
C1264 C259 2.349 . S
C1266 C497 2.340 . S
C1275 C469 2.338 . S
C1277 C273 2.348 . S
C1286 C287 2.338 . S
C1288 C483 2.347 . S
