# Generated by pormake.
# Topology unu, (4)-cn, num edge types: 1
# Building blocks:
#     Node 0, Type 0, BuildingBlock: CEKHIL_clean_sbu_0, # of connection points: 4
#     Node 1, Type 0, BuildingBlock: CEKHIL_clean_sbu_0, # of connection points: 4
#     Node 2, Type 0, BuildingBlock: CEKHIL_clean_sbu_0, # of connection points: 4
#     Node 3, Type 0, BuildingBlock: CEKHIL_clean_sbu_0, # of connection points: 4
#     Node 4, Type 0, BuildingBlock: CEKHIL_clean_sbu_0, # of connection points: 4
#     Node 5, Type 0, BuildingBlock: CEKHIL_clean_sbu_0, # of connection points: 4
#     Node 6, Type 0, BuildingBlock: CEKHIL_clean_sbu_0, # of connection points: 4
#     Node 7, Type 0, BuildingBlock: CEKHIL_clean_sbu_0, # of connection points: 4
#     Node 8, Type 0, BuildingBlock: CEKHIL_clean_sbu_0, # of connection points: 4
#     Node 9, Type 0, BuildingBlock: CEKHIL_clean_sbu_0, # of connection points: 4
#     Node 10, Type 0, BuildingBlock: CEKHIL_clean_sbu_0, # of connection points: 4
#     Node 11, Type 0, BuildingBlock: CEKHIL_clean_sbu_0, # of connection points: 4
#     Node 12, Type 0, BuildingBlock: CEKHIL_clean_sbu_0, # of connection points: 4
#     Node 13, Type 0, BuildingBlock: CEKHIL_clean_sbu_0, # of connection points: 4
#     Node 14, Type 0, BuildingBlock: CEKHIL_clean_sbu_0, # of connection points: 4
#     Node 15, Type 0, BuildingBlock: CEKHIL_clean_sbu_0, # of connection points: 4
#     Node 16, Type 0, BuildingBlock: CEKHIL_clean_sbu_0, # of connection points: 4
#     Node 17, Type 0, BuildingBlock: CEKHIL_clean_sbu_0, # of connection points: 4
#     Node 18, Type 0, BuildingBlock: CEKHIL_clean_sbu_0, # of connection points: 4
#     Node 19, Type 0, BuildingBlock: CEKHIL_clean_sbu_0, # of connection points: 4
#     Node 20, Type 0, BuildingBlock: CEKHIL_clean_sbu_0, # of connection points: 4
#     Node 21, Type 0, BuildingBlock: CEKHIL_clean_sbu_0, # of connection points: 4
#     Node 22, Type 0, BuildingBlock: CEKHIL_clean_sbu_0, # of connection points: 4
#     Node 23, Type 0, BuildingBlock: CEKHIL_clean_sbu_0, # of connection points: 4
#     Node 24, Type 0, BuildingBlock: CEKHIL_clean_sbu_0, # of connection points: 4
#     Node 25, Type 0, BuildingBlock: CEKHIL_clean_sbu_0, # of connection points: 4
#     Node 26, Type 0, BuildingBlock: CEKHIL_clean_sbu_0, # of connection points: 4
#     Node 27, Type 0, BuildingBlock: CEKHIL_clean_sbu_0, # of connection points: 4
#     Node 28, Type 0, BuildingBlock: CEKHIL_clean_sbu_0, # of connection points: 4
#     Node 29, Type 0, BuildingBlock: CEKHIL_clean_sbu_0, # of connection points: 4
#     Node 30, Type 0, BuildingBlock: CEKHIL_clean_sbu_0, # of connection points: 4
#     Node 31, Type 0, BuildingBlock: CEKHIL_clean_sbu_0, # of connection points: 4
#     Node 32, Type 0, BuildingBlock: CEKHIL_clean_sbu_0, # of connection points: 4
#     Node 33, Type 0, BuildingBlock: CEKHIL_clean_sbu_0, # of connection points: 4
#     Node 34, Type 0, BuildingBlock: CEKHIL_clean_sbu_0, # of connection points: 4
#     Node 35, Type 0, BuildingBlock: CEKHIL_clean_sbu_0, # of connection points: 4
#     Edge 36, Type (0, 0), BuildingBlock: XIVTED_clean_linker_0, # of connection points: 2
#     Edge 37, Type (0, 0), BuildingBlock: XIVTED_clean_linker_0, # of connection points: 2
#     Edge 38, Type (0, 0), BuildingBlock: XIVTED_clean_linker_0, # of connection points: 2
#     Edge 39, Type (0, 0), BuildingBlock: XIVTED_clean_linker_0, # of connection points: 2
#     Edge 40, Type (0, 0), BuildingBlock: XIVTED_clean_linker_0, # of connection points: 2
#     Edge 41, Type (0, 0), BuildingBlock: XIVTED_clean_linker_0, # of connection points: 2
#     Edge 42, Type (0, 0), BuildingBlock: XIVTED_clean_linker_0, # of connection points: 2
#     Edge 43, Type (0, 0), BuildingBlock: XIVTED_clean_linker_0, # of connection points: 2
#     Edge 44, Type (0, 0), BuildingBlock: XIVTED_clean_linker_0, # of connection points: 2
#     Edge 45, Type (0, 0), BuildingBlock: XIVTED_clean_linker_0, # of connection points: 2
#     Edge 46, Type (0, 0), BuildingBlock: XIVTED_clean_linker_0, # of connection points: 2
#     Edge 47, Type (0, 0), BuildingBlock: XIVTED_clean_linker_0, # of connection points: 2
#     Edge 48, Type (0, 0), BuildingBlock: XIVTED_clean_linker_0, # of connection points: 2
#     Edge 49, Type (0, 0), BuildingBlock: XIVTED_clean_linker_0, # of connection points: 2
#     Edge 50, Type (0, 0), BuildingBlock: XIVTED_clean_linker_0, # of connection points: 2
#     Edge 51, Type (0, 0), BuildingBlock: XIVTED_clean_linker_0, # of connection points: 2
#     Edge 52, Type (0, 0), BuildingBlock: XIVTED_clean_linker_0, # of connection points: 2
#     Edge 53, Type (0, 0), BuildingBlock: XIVTED_clean_linker_0, # of connection points: 2
#     Edge 54, Type (0, 0), BuildingBlock: XIVTED_clean_linker_0, # of connection points: 2
#     Edge 55, Type (0, 0), BuildingBlock: XIVTED_clean_linker_0, # of connection points: 2
#     Edge 56, Type (0, 0), BuildingBlock: XIVTED_clean_linker_0, # of connection points: 2
#     Edge 57, Type (0, 0), BuildingBlock: XIVTED_clean_linker_0, # of connection points: 2
#     Edge 58, Type (0, 0), BuildingBlock: XIVTED_clean_linker_0, # of connection points: 2
#     Edge 59, Type (0, 0), BuildingBlock: XIVTED_clean_linker_0, # of connection points: 2
#     Edge 60, Type (0, 0), BuildingBlock: XIVTED_clean_linker_0, # of connection points: 2
#     Edge 61, Type (0, 0), BuildingBlock: XIVTED_clean_linker_0, # of connection points: 2
#     Edge 62, Type (0, 0), BuildingBlock: XIVTED_clean_linker_0, # of connection points: 2
#     Edge 63, Type (0, 0), BuildingBlock: XIVTED_clean_linker_0, # of connection points: 2
#     Edge 64, Type (0, 0), BuildingBlock: XIVTED_clean_linker_0, # of connection points: 2
#     Edge 65, Type (0, 0), BuildingBlock: XIVTED_clean_linker_0, # of connection points: 2
#     Edge 66, Type (0, 0), BuildingBlock: XIVTED_clean_linker_0, # of connection points: 2
#     Edge 67, Type (0, 0), BuildingBlock: XIVTED_clean_linker_0, # of connection points: 2
#     Edge 68, Type (0, 0), BuildingBlock: XIVTED_clean_linker_0, # of connection points: 2
#     Edge 69, Type (0, 0), BuildingBlock: XIVTED_clean_linker_0, # of connection points: 2
#     Edge 70, Type (0, 0), BuildingBlock: XIVTED_clean_linker_0, # of connection points: 2
#     Edge 71, Type (0, 0), BuildingBlock: XIVTED_clean_linker_0, # of connection points: 2
#     Edge 72, Type (0, 0), BuildingBlock: XIVTED_clean_linker_0, # of connection points: 2
#     Edge 73, Type (0, 0), BuildingBlock: XIVTED_clean_linker_0, # of connection points: 2
#     Edge 74, Type (0, 0), BuildingBlock: XIVTED_clean_linker_0, # of connection points: 2
#     Edge 75, Type (0, 0), BuildingBlock: XIVTED_clean_linker_0, # of connection points: 2
#     Edge 76, Type (0, 0), BuildingBlock: XIVTED_clean_linker_0, # of connection points: 2
#     Edge 77, Type (0, 0), BuildingBlock: XIVTED_clean_linker_0, # of connection points: 2
#     Edge 78, Type (0, 0), BuildingBlock: XIVTED_clean_linker_0, # of connection points: 2
#     Edge 79, Type (0, 0), BuildingBlock: XIVTED_clean_linker_0, # of connection points: 2
#     Edge 80, Type (0, 0), BuildingBlock: XIVTED_clean_linker_0, # of connection points: 2
#     Edge 81, Type (0, 0), BuildingBlock: XIVTED_clean_linker_0, # of connection points: 2
#     Edge 82, Type (0, 0), BuildingBlock: XIVTED_clean_linker_0, # of connection points: 2
#     Edge 83, Type (0, 0), BuildingBlock: XIVTED_clean_linker_0, # of connection points: 2
#     Edge 84, Type (0, 0), BuildingBlock: XIVTED_clean_linker_0, # of connection points: 2
#     Edge 85, Type (0, 0), BuildingBlock: XIVTED_clean_linker_0, # of connection points: 2
#     Edge 86, Type (0, 0), BuildingBlock: XIVTED_clean_linker_0, # of connection points: 2
#     Edge 87, Type (0, 0), BuildingBlock: XIVTED_clean_linker_0, # of connection points: 2
#     Edge 88, Type (0, 0), BuildingBlock: XIVTED_clean_linker_0, # of connection points: 2
#     Edge 89, Type (0, 0), BuildingBlock: XIVTED_clean_linker_0, # of connection points: 2
#     Edge 90, Type (0, 0), BuildingBlock: XIVTED_clean_linker_0, # of connection points: 2
#     Edge 91, Type (0, 0), BuildingBlock: XIVTED_clean_linker_0, # of connection points: 2
#     Edge 92, Type (0, 0), BuildingBlock: XIVTED_clean_linker_0, # of connection points: 2
#     Edge 93, Type (0, 0), BuildingBlock: XIVTED_clean_linker_0, # of connection points: 2
#     Edge 94, Type (0, 0), BuildingBlock: XIVTED_clean_linker_0, # of connection points: 2
#     Edge 95, Type (0, 0), BuildingBlock: XIVTED_clean_linker_0, # of connection points: 2
#     Edge 96, Type (0, 0), BuildingBlock: XIVTED_clean_linker_0, # of connection points: 2
#     Edge 97, Type (0, 0), BuildingBlock: XIVTED_clean_linker_0, # of connection points: 2
#     Edge 98, Type (0, 0), BuildingBlock: XIVTED_clean_linker_0, # of connection points: 2
#     Edge 99, Type (0, 0), BuildingBlock: XIVTED_clean_linker_0, # of connection points: 2
#     Edge 100, Type (0, 0), BuildingBlock: XIVTED_clean_linker_0, # of connection points: 2
#     Edge 101, Type (0, 0), BuildingBlock: XIVTED_clean_linker_0, # of connection points: 2
#     Edge 102, Type (0, 0), BuildingBlock: XIVTED_clean_linker_0, # of connection points: 2
#     Edge 103, Type (0, 0), BuildingBlock: XIVTED_clean_linker_0, # of connection points: 2
#     Edge 104, Type (0, 0), BuildingBlock: XIVTED_clean_linker_0, # of connection points: 2
#     Edge 105, Type (0, 0), BuildingBlock: XIVTED_clean_linker_0, # of connection points: 2
#     Edge 106, Type (0, 0), BuildingBlock: XIVTED_clean_linker_0, # of connection points: 2
#     Edge 107, Type (0, 0), BuildingBlock: XIVTED_clean_linker_0, # of connection points: 2
# Relax obj value: 0.188
# Max RMSD: 0.232
# Mean RMSD: 0.232
data_MOF--net-unu--node1-CEKHIL_clean_sbu_0--edge1-XIVTED_clean_linker_0
_symmetry_space_group_name_H-M    P1
_symmetry_Int_Tables_number       1
_symmetry_cell_setting            triclinic
loop_
_symmetry_equiv_pos_as_xyz
'x, y, z'
_cell_length_a     43.564074
_cell_length_b     43.590633
_cell_length_c     100.00563
_cell_angle_alpha  89.989148
_cell_angle_beta   90.020374
_cell_angle_gamma 120.03551
loop_
_atom_site_label
_atom_site_type_symbol
_atom_site_fract_x
_atom_site_fract_y
_atom_site_fract_z
_atom_type_partial_charge
Co0 Co 0.20795 0.02926 0.11384 0.0
O1 O 0.24201 0.01405 0.11282 0.0
O2 O 0.24285 0.05633 0.10018 0.0
C3 C 0.15896 0.97522 0.11403 0.0
O4 O 0.17569 0.05071 0.11249 0.0
Co5 Co 0.16262 0.00943 0.13983 0.0
O6 O 0.13479 0.02442 0.12873 0.0
C7 C 0.23581 0.06897 0.14035 0.0
C8 C 0.25745 0.03766 0.10356 0.0
C9 C 0.14664 0.04407 0.11838 0.0
O10 O 0.23797 0.06541 0.12769 0.0
O11 O 0.20873 0.04781 0.14732 0.0
O12 O 0.17439 0.98956 0.10279 0.0
O13 O 0.17637 0.99171 0.12464 0.0
Co14 Co 0.96662 0.1782 0.11357 0.0
O15 O 0.98702 0.22853 0.11409 0.0
O16 O 0.94199 0.19234 0.10109 0.0
C17 C 0.01747 0.17666 0.11254 0.0
O18 O 0.93945 0.12478 0.11047 0.0
Co19 Co 0.9814 0.14162 0.13748 0.0
O20 O 0.96123 0.10078 0.12499 0.0
C21 C 0.92915 0.16497 0.14058 0.0
C22 C 0.96364 0.22447 0.10519 0.0
C23 C 0.94228 0.09859 0.11494 0.0
O24 O 0.93261 0.17319 0.12812 0.0
O25 O 0.94811 0.15428 0.14655 0.0
O26 O 0.00426 0.1822 0.10177 0.0
O27 O 0.00221 0.17707 0.12357 0.0
Co28 Co 0.82049 0.78763 0.11327 0.0
O29 O 0.77108 0.7582 0.1098 0.0
O30 O 0.81309 0.74891 0.10156 0.0
C31 C 0.82388 0.8401 0.10972 0.0
O32 O 0.87444 0.81375 0.11499 0.0
Co33 Co 0.84012 0.83628 0.13828 0.0
O34 O 0.88892 0.85355 0.13168 0.0
C35 C 0.8166 0.76113 0.14201 0.0
C36 C 0.77952 0.73867 0.1027 0.0
C37 C 0.89739 0.83916 0.12238 0.0
O38 O 0.81582 0.75776 0.12925 0.0
O39 O 0.82349 0.79003 0.14784 0.0
O40 O 0.82488 0.82163 0.09972 0.0
O41 O 0.816 0.82414 0.12117 0.0
Co42 Co 0.02772 0.20931 0.3813 0.0
O43 O 0.00672 0.23872 0.38073 0.0
O44 O 0.05085 0.24736 0.39418 0.0
C45 C 0.9771 0.15659 0.38146 0.0
O46 O 0.0553 0.18359 0.38451 0.0
Co47 Co 0.01519 0.15987 0.35687 0.0
O48 O 0.03862 0.14121 0.36868 0.0
C49 C 0.0681 0.23568 0.35489 0.0
C50 C 0.02928 0.25777 0.38991 0.0
C51 C 0.05556 0.15676 0.37927 0.0
O52 O 0.063 0.23966 0.36727 0.0
O53 O 0.0498 0.2065 0.34855 0.0
O54 O 0.98924 0.17429 0.39251 0.0
O55 O 0.9933 0.17328 0.37072 0.0
Co56 Co 0.78752 0.81704 0.38483 0.0
O57 O 0.75593 0.7679 0.3879 0.0
O58 O 0.75096 0.81121 0.39744 0.0
C59 C 0.83841 0.816 0.38689 0.0
O60 O 0.81663 0.87104 0.38357 0.0
Co61 Co 0.83318 0.83517 0.35895 0.0
O62 O 0.85521 0.88354 0.36657 0.0
C63 C 0.75879 0.81672 0.35677 0.0
C64 C 0.73846 0.77735 0.39572 0.0
C65 C 0.84271 0.89313 0.37621 0.0
O66 O 0.75681 0.81569 0.36959 0.0
O67 O 0.78637 0.82169 0.35038 0.0
O68 O 0.82213 0.81785 0.39747 0.0
O69 O 0.82108 0.81016 0.37581 0.0
Co70 Co 0.17749 0.96722 0.38382 0.0
O71 O 0.22796 0.98992 0.38446 0.0
O72 O 0.19155 0.9412 0.39573 0.0
C73 C 0.17313 0.01617 0.38615 0.0
O74 O 0.12364 0.93726 0.38531 0.0
Co75 Co 0.14569 0.98622 0.3594 0.0
O76 O 0.10053 0.95472 0.36872 0.0
C77 C 0.17147 0.93628 0.35578 0.0
C78 C 0.22388 0.96477 0.39245 0.0
C79 C 0.09722 0.9357 0.37891 0.0
O80 O 0.17711 0.93752 0.36842 0.0
O81 O 0.1613 0.95575 0.3499 0.0
O82 O 0.17686 0.00073 0.39664 0.0
O83 O 0.17668 0.00427 0.37478 0.0
Co84 Co 0.79151 0.9723 0.88457 0.0
O85 O 0.75985 0.9899 0.88747 0.0
O86 O 0.7557 0.94257 0.89756 0.0
C87 C 0.84272 0.02426 0.88597 0.0
O88 O 0.8206 0.94741 0.88365 0.0
Co89 Co 0.83653 0.99787 0.85842 0.0
O90 O 0.85831 0.97153 0.86626 0.0
C91 C 0.76213 0.94162 0.85681 0.0
C92 C 0.74301 0.96368 0.89566 0.0
C93 C 0.84615 0.95042 0.87621 0.0
O94 O 0.76034 0.94151 0.86964 0.0
O95 O 0.78943 0.96407 0.85025 0.0
O96 O 0.82669 0.00733 0.89679 0.0
O97 O 0.82475 0.01187 0.87508 0.0
Co98 Co 0.02925 0.82009 0.88501 0.0
O99 O 0.01104 0.77087 0.88825 0.0
O100 O 0.05858 0.81422 0.89822 0.0
C101 C 0.97749 0.81981 0.88617 0.0
O102 O 0.05485 0.87399 0.88383 0.0
Co103 Co 0.0042 0.83951 0.85869 0.0
O104 O 0.03224 0.88802 0.86607 0.0
C105 C 0.05975 0.82022 0.8574 0.0
C106 C 0.03707 0.78039 0.89656 0.0
C107 C 0.05298 0.89671 0.87612 0.0
O108 O 0.0599 0.81878 0.87023 0.0
O109 O 0.03751 0.82528 0.85078 0.0
O110 O 0.99437 0.8211 0.89705 0.0
O111 O 0.98988 0.81386 0.87536 0.0
Co112 Co 0.18154 0.20818 0.88309 0.0
O113 O 0.23083 0.24107 0.88523 0.0
O114 O 0.18798 0.24448 0.89592 0.0
C115 C 0.18445 0.15821 0.88456 0.0
O116 O 0.12751 0.17763 0.88292 0.0
Co117 Co 0.16079 0.1617 0.85731 0.0
O118 O 0.11393 0.13799 0.86624 0.0
C119 C 0.17597 0.23511 0.85538 0.0
C120 C 0.22172 0.25795 0.8935 0.0
C121 C 0.105 0.15054 0.87606 0.0
O122 O 0.17932 0.2378 0.86815 0.0
O123 O 0.17106 0.20769 0.8489 0.0
O124 O 0.18388 0.17446 0.89537 0.0
O125 O 0.18831 0.17533 0.87357 0.0
Co126 Co 0.96786 0.79082 0.61355 0.0
O127 O 0.98804 0.76096 0.61177 0.0
O128 O 0.94107 0.75412 0.60049 0.0
C129 C 0.01849 0.84351 0.61262 0.0
O130 O 0.94046 0.81741 0.61307 0.0
Co131 Co 0.98752 0.83669 0.63948 0.0
O132 O 0.95786 0.85387 0.631 0.0
C133 C 0.93411 0.76131 0.64092 0.0
C134 C 0.96309 0.74296 0.60318 0.0
C135 C 0.93949 0.8412 0.6204 0.0
O136 O 0.93585 0.75923 0.62815 0.0
O137 O 0.95468 0.78926 0.64758 0.0
O138 O 0.0036 0.82649 0.60167 0.0
O139 O 0.00523 0.82585 0.62352 0.0
Co140 Co 0.21002 0.18175 0.61497 0.0
O141 O 0.24439 0.23084 0.6136 0.0
O142 O 0.2457 0.18839 0.6018 0.0
C143 C 0.16133 0.18718 0.6142 0.0
O144 O 0.17748 0.12798 0.61418 0.0
Co145 Co 0.16377 0.15909 0.64076 0.0
O146 O 0.13654 0.11495 0.63028 0.0
C147 C 0.2365 0.17194 0.64217 0.0
C148 C 0.26035 0.2219 0.60484 0.0
C149 C 0.14849 0.10608 0.62024 0.0
O150 O 0.23907 0.17645 0.62944 0.0
O151 O 0.20936 0.16705 0.64886 0.0
O152 O 0.17722 0.18722 0.60321 0.0
O153 O 0.17819 0.18893 0.62507 0.0
Co154 Co 0.82229 0.0355 0.61323 0.0
O155 O 0.77252 0.01545 0.61067 0.0
O156 O 0.8136 0.06406 0.60051 0.0
C157 C 0.82372 0.98479 0.61142 0.0
O158 O 0.87641 0.06292 0.61382 0.0
Co159 Co 0.84505 0.0113 0.63893 0.0
O160 O 0.89288 0.04126 0.63121 0.0
C161 C 0.82258 0.0643 0.6412 0.0
C162 C 0.78015 0.04145 0.60257 0.0
C163 C 0.90019 0.062 0.62122 0.0
O164 O 0.82057 0.06486 0.62839 0.0
O165 O 0.82929 0.04274 0.6475 0.0
O166 O 0.82389 0.00183 0.60074 0.0
O167 O 0.81824 0.99652 0.62249 0.0
Co168 Co 0.87692 0.36583 0.44597 0.0
O169 O 0.90781 0.34725 0.44328 0.0
O170 O 0.91289 0.39456 0.43286 0.0
C171 C 0.82543 0.31406 0.44473 0.0
O172 O 0.84865 0.39159 0.4466 0.0
Co173 Co 0.83157 0.34158 0.47209 0.0
O174 O 0.81168 0.36971 0.46433 0.0
C175 C 0.90665 0.39661 0.47362 0.0
C176 C 0.92493 0.37296 0.43492 0.0
C177 C 0.82389 0.38997 0.45416 0.0
O178 O 0.90849 0.39676 0.46079 0.0
O179 O 0.87909 0.37455 0.48016 0.0
O180 O 0.84142 0.33072 0.43386 0.0
O181 O 0.8433 0.32678 0.45561 0.0
Co182 Co 0.63067 0.51085 0.44737 0.0
O183 O 0.65197 0.5612 0.44718 0.0
O184 O 0.60576 0.52462 0.43477 0.0
C185 C 0.68115 0.50863 0.44635 0.0
O186 O 0.60249 0.45704 0.44531 0.0
Co187 Co 0.64767 0.47864 0.47229 0.0
O188 O 0.61884 0.43398 0.46229 0.0
C189 C 0.59482 0.50134 0.47459 0.0
C190 C 0.62804 0.55696 0.43852 0.0
C191 C 0.60105 0.43069 0.45172 0.0
O192 O 0.59774 0.50802 0.462 0.0
O193 O 0.61442 0.492 0.48089 0.0
O194 O 0.66721 0.51258 0.43546 0.0
O195 O 0.66674 0.51072 0.45733 0.0
Co196 Co 0.48691 0.12042 0.44557 0.0
O197 O 0.43731 0.08985 0.44292 0.0
O198 O 0.47923 0.08337 0.43291 0.0
C199 C 0.48736 0.1721 0.44367 0.0
O200 O 0.54098 0.14809 0.44626 0.0
Co201 Co 0.50831 0.16692 0.47132 0.0
O202 O 0.55645 0.18574 0.46377 0.0
C203 C 0.48737 0.09187 0.47355 0.0
C204 C 0.44563 0.07178 0.43494 0.0
C205 C 0.56431 0.1729 0.45375 0.0
O206 O 0.48563 0.08955 0.46074 0.0
O207 O 0.49343 0.11986 0.4799 0.0
O208 O 0.488 0.15536 0.43303 0.0
O209 O 0.4819 0.15492 0.45476 0.0
Co210 Co 0.69302 0.54058 0.71658 0.0
O211 O 0.67126 0.56915 0.71774 0.0
O212 O 0.71946 0.57939 0.72895 0.0
C213 C 0.64325 0.48755 0.71845 0.0
O214 O 0.72216 0.51583 0.71761 0.0
Co215 Co 0.67335 0.49116 0.69169 0.0
O216 O 0.70448 0.47641 0.70062 0.0
C217 C 0.72531 0.5668 0.68879 0.0
C218 C 0.69634 0.58899 0.726 0.0
C219 C 0.72351 0.49133 0.71089 0.0
O220 O 0.72346 0.57071 0.70144 0.0
O221 O 0.70555 0.53759 0.68268 0.0
O222 O 0.65883 0.50584 0.72909 0.0
O223 O 0.65562 0.50377 0.70722 0.0
Co224 Co 0.4578 0.1478 0.7159 0.0
O225 O 0.42957 0.09728 0.716 0.0
O226 O 0.41797 0.13324 0.72791 0.0
C227 C 0.51139 0.15226 0.71784 0.0
O228 O 0.48196 0.20146 0.71807 0.0
Co229 Co 0.50845 0.18162 0.69153 0.0
O230 O 0.52276 0.22587 0.7016 0.0
C231 C 0.43277 0.15667 0.68822 0.0
C232 C 0.4088 0.10109 0.72426 0.0
C233 C 0.50709 0.22833 0.71197 0.0
O234 O 0.42846 0.14986 0.70079 0.0
O235 O 0.46232 0.16706 0.68222 0.0
O236 O 0.49194 0.14689 0.72839 0.0
O237 O 0.49574 0.14962 0.70656 0.0
Co238 Co 0.84982 0.30818 0.71677 0.0
O239 O 0.89963 0.32548 0.71643 0.0
O240 O 0.8613 0.28077 0.72904 0.0
C241 C 0.85255 0.36094 0.71829 0.0
O242 O 0.79617 0.28427 0.71939 0.0
Co243 Co 0.81873 0.32881 0.69263 0.0
O244 O 0.77772 0.31141 0.70495 0.0
C245 C 0.83486 0.27145 0.68947 0.0
C246 C 0.8939 0.30102 0.72505 0.0
C247 C 0.77218 0.29051 0.71475 0.0
O248 O 0.84298 0.27428 0.70194 0.0
O249 O 0.8266 0.29229 0.68349 0.0
O250 O 0.85586 0.34585 0.72897 0.0
O251 O 0.85259 0.34607 0.70712 0.0
Co252 Co 0.45716 0.30074 0.2171 0.0
O253 O 0.43122 0.32526 0.21832 0.0
O254 O 0.41586 0.27412 0.22835 0.0
C255 C 0.51145 0.34716 0.22075 0.0
O256 O 0.47861 0.26862 0.218 0.0
Co257 Co 0.50934 0.32071 0.19324 0.0
O258 O 0.52084 0.28699 0.20203 0.0
C259 C 0.43354 0.27389 0.18844 0.0
C260 C 0.40885 0.29927 0.22574 0.0
C261 C 0.50359 0.26691 0.21178 0.0
O262 O 0.42838 0.2744 0.20105 0.0
O263 O 0.46396 0.29249 0.18296 0.0
O264 O 0.49063 0.33062 0.23074 0.0
O265 O 0.49715 0.33833 0.209 0.0
Co266 Co 0.69674 0.15356 0.21951 0.0
O267 O 0.68062 0.10427 0.22119 0.0
O268 O 0.72674 0.14657 0.23212 0.0
C269 C 0.64344 0.14966 0.22127 0.0
O270 O 0.71981 0.20756 0.21985 0.0
Co271 Co 0.67099 0.17589 0.19422 0.0
O272 O 0.691 0.22101 0.20428 0.0
C273 C 0.72865 0.15999 0.19165 0.0
C274 C 0.70655 0.11298 0.22945 0.0
C275 C 0.71316 0.22986 0.21388 0.0
O276 O 0.72852 0.15662 0.20441 0.0
O277 O 0.70612 0.16536 0.18539 0.0
O278 O 0.6606 0.15016 0.23196 0.0
O279 O 0.65689 0.1469 0.21013 0.0
Co280 Co 0.84859 0.54347 0.21587 0.0
O281 O 0.89856 0.57531 0.21452 0.0
O282 O 0.86284 0.58196 0.22852 0.0
C283 C 0.85003 0.49251 0.21624 0.0
O284 O 0.79555 0.51496 0.21988 0.0
Co285 Co 0.81051 0.49118 0.19236 0.0
O286 O 0.77241 0.46801 0.20592 0.0
C287 C 0.82834 0.56559 0.18978 0.0
C288 C 0.8947 0.59382 0.22382 0.0
C289 C 0.7701 0.48461 0.216 0.0
O290 O 0.83979 0.57134 0.20188 0.0
O291 O 0.8176 0.53595 0.1838 0.0
O292 O 0.85602 0.511 0.2271 0.0
O293 O 0.84818 0.50777 0.20543 0.0
Co294 Co 0.63465 0.12383 0.94705 0.0
O295 O 0.65973 0.09841 0.94619 0.0
O296 O 0.6085 0.08185 0.93602 0.0
C297 C 0.68097 0.17813 0.94324 0.0
O298 O 0.60194 0.1447 0.94594 0.0
Co299 Co 0.65456 0.17697 0.97064 0.0
O300 O 0.61997 0.18719 0.96181 0.0
C301 C 0.60788 0.10128 0.97575 0.0
C302 C 0.63389 0.07537 0.9389 0.0
C303 C 0.5998 0.1695 0.95213 0.0
O304 O 0.6084 0.09561 0.96319 0.0
O305 O 0.62649 0.13188 0.98107 0.0
O306 O 0.66454 0.15702 0.9333 0.0
O307 O 0.67195 0.16415 0.95501 0.0
Co308 Co 0.87133 0.51511 0.94936 0.0
O309 O 0.90129 0.5654 0.95084 0.0
O310 O 0.91114 0.53091 0.93731 0.0
C311 C 0.81894 0.51354 0.94815 0.0
O312 O 0.84542 0.4622 0.9452 0.0
Co313 Co 0.81821 0.47486 0.97236 0.0
O314 O 0.79778 0.4365 0.9588 0.0
C315 C 0.89333 0.49662 0.97591 0.0
C316 C 0.92135 0.56251 0.94194 0.0
C317 C 0.81558 0.43561 0.94886 0.0
O318 O 0.89919 0.50799 0.96381 0.0
O319 O 0.8631 0.4843 0.98162 0.0
O320 O 0.83871 0.52075 0.93758 0.0
O321 O 0.83364 0.51242 0.95924 0.0
Co322 Co 0.48065 0.35808 0.94708 0.0
O323 O 0.43102 0.34156 0.94674 0.0
O324 O 0.47094 0.38629 0.93455 0.0
C325 C 0.47702 0.30484 0.94564 0.0
O326 O 0.53448 0.38123 0.9452 0.0
Co327 Co 0.50861 0.33619 0.9718 0.0
O328 O 0.55074 0.35321 0.9601 0.0
C329 C 0.49363 0.39446 0.97441 0.0
C330 C 0.43793 0.36634 0.93812 0.0
C331 C 0.55763 0.37439 0.95028 0.0
O332 O 0.48665 0.39185 0.96185 0.0
O333 O 0.50095 0.37325 0.98064 0.0
O334 O 0.47501 0.32056 0.93492 0.0
O335 O 0.47628 0.31948 0.9568 0.0
Co336 Co 0.54067 0.69597 0.78225 0.0
O337 O 0.57054 0.67568 0.78095 0.0
O338 O 0.57785 0.72216 0.76925 0.0
C339 C 0.48817 0.64513 0.78135 0.0
O340 O 0.51411 0.72334 0.78127 0.0
Co341 Co 0.49332 0.6767 0.80782 0.0
O342 O 0.47642 0.70601 0.79883 0.0
C343 C 0.56882 0.73023 0.80962 0.0
C344 C 0.58881 0.70013 0.77224 0.0
C345 C 0.48979 0.72432 0.78827 0.0
O346 O 0.57168 0.72839 0.79689 0.0
O347 O 0.54051 0.70962 0.8161 0.0
O348 O 0.50522 0.65981 0.77039 0.0
O349 O 0.50554 0.65893 0.79224 0.0
Co350 Co 0.29806 0.84241 0.77949 0.0
O351 O 0.31587 0.89179 0.77688 0.0
O352 O 0.2682 0.84905 0.76676 0.0
C353 C 0.35006 0.8435 0.77768 0.0
O354 O 0.27285 0.78846 0.78009 0.0
Co355 Co 0.32408 0.8215 0.80517 0.0
O356 O 0.29628 0.7735 0.79733 0.0
C357 C 0.26804 0.83986 0.80744 0.0
C358 C 0.28957 0.88278 0.76876 0.0
C359 C 0.2752 0.76535 0.78739 0.0
O360 O 0.26778 0.8424 0.79464 0.0
O361 O 0.2904 0.83436 0.81375 0.0
O362 O 0.33265 0.84256 0.767 0.0
O363 O 0.33786 0.84842 0.78875 0.0
Co364 Co 0.1491 0.45396 0.7811 0.0
O365 O 0.10006 0.42128 0.77822 0.0
O366 O 0.14397 0.4185 0.7681 0.0
C367 C 0.14636 0.50404 0.77971 0.0
O368 O 0.20308 0.48439 0.78208 0.0
Co369 Co 0.16714 0.49875 0.80728 0.0
O370 O 0.21527 0.5221 0.79937 0.0
C371 C 0.15127 0.42506 0.80882 0.0
C372 C 0.11002 0.40496 0.77003 0.0
C373 C 0.225 0.51042 0.7895 0.0
O374 O 0.14966 0.42332 0.796 0.0
O375 O 0.15536 0.45203 0.81541 0.0
O376 O 0.14808 0.48848 0.76888 0.0
O377 O 0.1414 0.48626 0.7906 0.0
Co378 Co 0.36581 0.87923 0.05102 0.0
O379 O 0.34518 0.9089 0.05053 0.0
O380 O 0.39044 0.91826 0.06347 0.0
C381 C 0.31477 0.82714 0.05208 0.0
O382 O 0.39326 0.85316 0.05389 0.0
Co383 Co 0.35 0.8279 0.02697 0.0
O384 O 0.37336 0.80897 0.03868 0.0
C385 C 0.40368 0.90329 0.02407 0.0
C386 C 0.36863 0.92852 0.05934 0.0
C387 C 0.392 0.82535 0.04885 0.0
O388 O 0.39963 0.90826 0.03645 0.0
O389 O 0.38474 0.87366 0.01808 0.0
O390 O 0.3285 0.84549 0.06289 0.0
O391 O 0.32992 0.84274 0.04104 0.0
Co392 Co 0.1224 0.48866 0.05054 0.0
O393 O 0.09319 0.43857 0.05231 0.0
O394 O 0.08459 0.47806 0.06319 0.0
C395 C 0.1751 0.4911 0.05215 0.0
O396 O 0.14819 0.54265 0.05094 0.0
Co397 Co 0.17002 0.51548 0.02511 0.0
O398 O 0.18644 0.56225 0.03355 0.0
C399 C 0.09422 0.49156 0.02275 0.0
C400 C 0.0742 0.44499 0.06057 0.0
C401 C 0.17262 0.56765 0.04387 0.0
O402 O 0.09141 0.48801 0.03551 0.0
O403 O 0.12287 0.49979 0.01643 0.0
O404 O 0.15763 0.48962 0.06288 0.0
O405 O 0.1582 0.48656 0.04103 0.0
Co406 Co 0.51452 0.63563 0.04966 0.0
O407 O 0.56497 0.65748 0.05021 0.0
O408 O 0.52802 0.60919 0.06158 0.0
C409 C 0.51095 0.68503 0.05208 0.0
O410 O 0.46064 0.60657 0.05131 0.0
Co411 Co 0.4829 0.655 0.02533 0.0
O412 O 0.43791 0.62541 0.03506 0.0
C413 C 0.50687 0.60359 0.02169 0.0
C414 C 0.56049 0.63235 0.0583 0.0
C415 C 0.43442 0.60619 0.0452 0.0
O416 O 0.51317 0.60532 0.03429 0.0
O417 O 0.4969 0.62324 0.01582 0.0
O418 O 0.51484 0.66948 0.06249 0.0
O419 O 0.51419 0.67308 0.04064 0.0
Co420 Co 0.12137 0.63543 0.5508 0.0
O421 O 0.09213 0.65661 0.55064 0.0
O422 O 0.08062 0.60857 0.56222 0.0
C423 C 0.17367 0.68522 0.55374 0.0
O424 O 0.14622 0.60686 0.55336 0.0
Co425 Co 0.17599 0.65445 0.52783 0.0
O426 O 0.19325 0.62932 0.53943 0.0
C427 C 0.10108 0.60251 0.52284 0.0
C428 C 0.07126 0.63148 0.55871 0.0
C429 C 0.17492 0.60894 0.54895 0.0
O430 O 0.09442 0.60496 0.53518 0.0
O431 O 0.13171 0.6217 0.51759 0.0
O432 O 0.15325 0.66949 0.56391 0.0
O433 O 0.15994 0.67305 0.54211 0.0
Co434 Co 0.35973 0.48314 0.55204 0.0
O435 O 0.33915 0.43307 0.55368 0.0
O436 O 0.3887 0.4725 0.56382 0.0
C437 C 0.30982 0.48548 0.55491 0.0
O438 O 0.38792 0.53725 0.55232 0.0
Co439 Co 0.33534 0.50927 0.52738 0.0
O440 O 0.36648 0.55615 0.53562 0.0
C441 C 0.38773 0.48665 0.52363 0.0
C442 C 0.36579 0.43944 0.56126 0.0
C443 C 0.38728 0.56199 0.54547 0.0
O444 O 0.38804 0.48266 0.53634 0.0
O445 O 0.36669 0.49487 0.51779 0.0
O446 O 0.32717 0.48401 0.56523 0.0
O447 O 0.32056 0.48079 0.54346 0.0
Co448 Co 0.51198 0.87482 0.55075 0.0
O449 O 0.56236 0.9049 0.55009 0.0
O450 O 0.52642 0.91402 0.56308 0.0
C451 C 0.51117 0.82285 0.55191 0.0
O452 O 0.45863 0.84858 0.55397 0.0
Co453 Co 0.47464 0.82229 0.52725 0.0
O454 O 0.43453 0.80146 0.5401 0.0
C455 C 0.49657 0.89762 0.52383 0.0
C456 C 0.55851 0.92449 0.55892 0.0
C457 C 0.43245 0.81899 0.5499 0.0
O458 O 0.50645 0.90325 0.53612 0.0
O459 O 0.48521 0.8676 0.51807 0.0
O460 O 0.51624 0.84153 0.56266 0.0
O461 O 0.51103 0.83807 0.54084 0.0
Co462 Co 0.30728 0.4608 0.27987 0.0
O463 O 0.32765 0.43132 0.27744 0.0
O464 O 0.27887 0.42338 0.26725 0.0
C465 C 0.35734 0.51367 0.27802 0.0
O466 O 0.27936 0.48692 0.28028 0.0
Co467 Co 0.3302 0.50718 0.30568 0.0
O468 O 0.29929 0.52395 0.29803 0.0
C469 C 0.27737 0.43185 0.30778 0.0
C470 C 0.30152 0.41268 0.26938 0.0
C471 C 0.27925 0.51082 0.28784 0.0
O472 O 0.27771 0.42962 0.29499 0.0
O473 O 0.2984 0.46001 0.31424 0.0
O474 O 0.34091 0.49604 0.26736 0.0
O475 O 0.3459 0.49651 0.28914 0.0
Co476 Co 0.54382 0.85174 0.28177 0.0
O477 O 0.57714 0.90135 0.28189 0.0
O478 O 0.58148 0.86226 0.26902 0.0
C479 C 0.49382 0.85499 0.2809 0.0
O480 O 0.51287 0.79811 0.27932 0.0
Co481 Co 0.4947 0.8224 0.3067 0.0
O482 O 0.46984 0.78053 0.29489 0.0
C483 C 0.56783 0.83688 0.30869 0.0
C484 C 0.59476 0.895 0.27296 0.0
C485 C 0.48338 0.77449 0.28462 0.0
O486 O 0.5718 0.84436 0.29616 0.0
O487 O 0.53967 0.82978 0.31515 0.0
O488 O 0.51172 0.85849 0.27007 0.0
O489 O 0.50964 0.85519 0.29187 0.0
Co490 Co 0.15504 0.69692 0.27928 0.0
O491 O 0.10558 0.68036 0.27762 0.0
O492 O 0.14755 0.72531 0.26609 0.0
C493 C 0.15169 0.64376 0.27844 0.0
O494 O 0.20909 0.72022 0.27878 0.0
Co495 Co 0.17868 0.6741 0.30504 0.0
O496 O 0.22337 0.69301 0.29475 0.0
C497 C 0.16286 0.73203 0.30656 0.0
C498 C 0.11401 0.70524 0.26889 0.0
C499 C 0.23171 0.7142 0.28486 0.0
O500 O 0.15842 0.73026 0.29383 0.0
O501 O 0.16885 0.71041 0.31317 0.0
O502 O 0.15152 0.65958 0.26746 0.0
O503 O 0.14902 0.65824 0.28932 0.0
H504 H 0.30118 0.11589 0.13 0.0
H505 H 0.36387 0.23628 0.19575 0.0
H506 H 0.23789 0.09332 0.16579 0.0
H507 H 0.434 0.25171 0.16269 0.0
H508 H 0.31559 0.18769 0.18367 0.0
H509 H 0.34863 0.16853 0.14087 0.0
C510 C 0.29723 0.12191 0.14015 0.0
C511 C 0.26543 0.10002 0.147 0.0
C512 C 0.34147 0.20179 0.17901 0.0
C513 C 0.31959 0.16046 0.15941 0.0
C514 C 0.36911 0.2297 0.18588 0.0
C515 C 0.40324 0.24798 0.18029 0.0
C516 C 0.34784 0.1919 0.16642 0.0
C517 C 0.40818 0.23836 0.16741 0.0
C518 C 0.32435 0.15202 0.14632 0.0
C519 C 0.26193 0.10922 0.16012 0.0
N520 N 0.38082 0.21076 0.16094 0.0
N521 N 0.28863 0.13876 0.16588 0.0
H522 H 0.77895 0.14543 0.20109 0.0
H523 H 0.88097 0.18289 0.13131 0.0
H524 H 0.74438 0.17337 0.16491 0.0
H525 H 0.91183 0.1495 0.16708 0.0
H526 H 0.83186 0.18127 0.14358 0.0
H527 H 0.82824 0.1477 0.18881 0.0
C528 C 0.78158 0.15191 0.19054 0.0
C529 C 0.75739 0.15927 0.18404 0.0
C530 C 0.84942 0.17437 0.14875 0.0
C531 C 0.81411 0.16205 0.16991 0.0
C532 C 0.87759 0.17538 0.14176 0.0
C533 C 0.90062 0.16621 0.14815 0.0
C534 C 0.84418 0.16416 0.16224 0.0
C535 C 0.89479 0.15672 0.16172 0.0
C536 C 0.80984 0.15324 0.18354 0.0
C537 C 0.76227 0.16744 0.17034 0.0
N538 N 0.86712 0.15589 0.16829 0.0
N539 N 0.79015 0.1687 0.16374 0.0
H540 H 0.80341 0.56417 0.16445 0.0
H541 H 0.83233 0.76034 0.16861 0.0
H542 H 0.84651 0.63177 0.1991 0.0
H543 H 0.79243 0.6931 0.13375 0.0
H544 H 0.83346 0.71203 0.18063 0.0
H545 H 0.79651 0.61031 0.1535 0.0
C546 C 0.81159 0.58874 0.16975 0.0
C547 C 0.82568 0.59404 0.18272 0.0
C548 C 0.82421 0.70782 0.17038 0.0
C549 C 0.81753 0.64698 0.17024 0.0
C550 C 0.82332 0.73531 0.16354 0.0
C551 C 0.81258 0.73093 0.15011 0.0
C552 C 0.81425 0.67576 0.16374 0.0
C553 C 0.80129 0.69788 0.14405 0.0
C554 C 0.80749 0.61506 0.1635 0.0
C555 C 0.83562 0.62646 0.18908 0.0
N556 N 0.80266 0.67171 0.15087 0.0
N557 N 0.83135 0.65168 0.18278 0.0
H558 H 0.11584 0.30092 0.36507 0.0
H559 H 0.23086 0.36593 0.29801 0.0
H560 H 0.08982 0.23839 0.32894 0.0
H561 H 0.25871 0.42823 0.33424 0.0
H562 H 0.17995 0.31839 0.30945 0.0
H563 H 0.16823 0.34784 0.354 0.0
C564 C 0.12093 0.29709 0.35478 0.0
C565 C 0.09828 0.26553 0.34794 0.0
C566 C 0.19729 0.34236 0.31493 0.0
C567 C 0.15855 0.31917 0.33525 0.0
C568 C 0.2265 0.36955 0.30842 0.0
C569 C 0.24909 0.40131 0.31514 0.0
C570 C 0.19043 0.34687 0.32828 0.0
C571 C 0.24206 0.40427 0.32864 0.0
C572 C 0.15101 0.32388 0.34849 0.0
C573 C 0.10643 0.26218 0.33463 0.0
N574 N 0.2132 0.37747 0.33474 0.0
N575 N 0.13592 0.28863 0.32874 0.0
H576 H 0.69323 0.79937 0.36634 0.0
H577 H 0.63176 0.84999 0.29856 0.0
H578 H 0.75579 0.83079 0.33016 0.0
H579 H 0.56903 0.81733 0.33471 0.0
H580 H 0.67698 0.84214 0.30982 0.0
H581 H 0.64648 0.80351 0.35459 0.0
C582 C 0.69708 0.80688 0.35589 0.0
C583 C 0.72869 0.815 0.34926 0.0
C584 C 0.65334 0.83672 0.31529 0.0
C585 C 0.67518 0.82007 0.33576 0.0
C586 C 0.62749 0.84132 0.30889 0.0
C587 C 0.59643 0.83435 0.31569 0.0
C588 C 0.64819 0.82507 0.32861 0.0
C589 C 0.59251 0.82314 0.32906 0.0
C590 C 0.67034 0.80932 0.34919 0.0
C591 C 0.73193 0.82431 0.33568 0.0
N592 N 0.61807 0.81882 0.33507 0.0
N593 N 0.70561 0.82684 0.32941 0.0
H594 H 0.19692 0.89349 0.36416 0.0
H595 H 0.14487 0.77969 0.2968 0.0
H596 H 0.15156 0.91602 0.32971 0.0
H597 H 0.18194 0.75282 0.33258 0.0
H598 H 0.14926 0.83105 0.30831 0.0
H599 H 0.19505 0.84407 0.35213 0.0
C600 C 0.18679 0.88825 0.35402 0.0
C601 C 0.17416 0.9089 0.34798 0.0
C602 C 0.15636 0.81387 0.31364 0.0
C603 C 0.17171 0.85196 0.33417 0.0
C604 C 0.1538 0.78446 0.30709 0.0
C605 C 0.16306 0.76182 0.31373 0.0
C606 C 0.16841 0.82085 0.32691 0.0
C607 C 0.17439 0.7694 0.32707 0.0
C608 C 0.18562 0.85988 0.34718 0.0
C609 C 0.16157 0.90087 0.33479 0.0
N610 N 0.17684 0.79833 0.3332 0.0
N611 N 0.16048 0.87288 0.32835 0.0
H612 H 0.57368 0.74487 0.83648 0.0
H613 H 0.75682 0.92791 0.82984 0.0
H614 H 0.63138 0.78339 0.79939 0.0
H615 H 0.69985 0.88809 0.867 0.0
H616 H 0.71038 0.87588 0.81839 0.0
H617 H 0.61996 0.79709 0.84783 0.0
C618 C 0.5962 0.7641 0.83072 0.0
C619 C 0.5985 0.75967 0.81692 0.0
C620 C 0.70801 0.87862 0.82904 0.0
C621 C 0.65145 0.81985 0.82988 0.0
C622 C 0.73444 0.90845 0.83559 0.0
C623 C 0.73241 0.91241 0.84944 0.0
C624 C 0.67933 0.85251 0.83638 0.0
C625 C 0.7027 0.88621 0.85633 0.0
C626 C 0.62256 0.79404 0.83722 0.0
C627 C 0.62838 0.7856 0.81003 0.0
N628 N 0.67745 0.85734 0.84974 0.0
N629 N 0.65358 0.81464 0.81657 0.0
H630 H 0.11304 0.81092 0.86757 0.0
H631 H 0.21575 0.85129 0.79783 0.0
H632 H 0.07345 0.82876 0.83048 0.0
H633 H 0.25347 0.82811 0.83429 0.0
H634 H 0.16435 0.84485 0.80989 0.0
H635 H 0.1646 0.817 0.85563 0.0
C636 C 0.11495 0.81577 0.8569 0.0
C637 C 0.08883 0.81948 0.85004 0.0
C638 C 0.18392 0.84129 0.81527 0.0
C639 C 0.14812 0.82687 0.83635 0.0
C640 C 0.21344 0.84514 0.8084 0.0
C641 C 0.23901 0.84009 0.81503 0.0
C642 C 0.17981 0.83232 0.82889 0.0
C643 C 0.23448 0.83223 0.82875 0.0
C644 C 0.14453 0.8194 0.8501 0.0
C645 C 0.09285 0.82573 0.83621 0.0
N646 N 0.20536 0.82844 0.83522 0.0
N647 N 0.12203 0.82942 0.82984 0.0
H648 H 0.16236 0.23791 0.82871 0.0
H649 H 0.16255 0.42094 0.83561 0.0
H650 H 0.18597 0.2979 0.86542 0.0
H651 H 0.14137 0.36241 0.79864 0.0
H652 H 0.16942 0.37506 0.84686 0.0
H653 H 0.15458 0.28329 0.81749 0.0
C654 C 0.16625 0.26074 0.8344 0.0
C655 C 0.17476 0.26397 0.84805 0.0
C656 C 0.16312 0.37221 0.83629 0.0
C657 C 0.16544 0.31581 0.83529 0.0
C658 C 0.15898 0.39831 0.82987 0.0
C659 C 0.15153 0.39569 0.81613 0.0
C660 C 0.15979 0.34326 0.82893 0.0
C661 C 0.14729 0.36572 0.80923 0.0
C662 C 0.16159 0.28655 0.82799 0.0
C663 C 0.17931 0.29414 0.85489 0.0
N664 N 0.15164 0.34078 0.81569 0.0
N665 N 0.17446 0.31878 0.84845 0.0
H666 H 0.77123 0.63363 0.69793 0.0
H667 H 0.88585 0.69625 0.63075 0.0
H668 H 0.74544 0.56804 0.66264 0.0
H669 H 0.91491 0.75751 0.66724 0.0
H670 H 0.83392 0.64926 0.64205 0.0
H671 H 0.82258 0.68023 0.68638 0.0
C672 C 0.77613 0.62906 0.68771 0.0
C673 C 0.75395 0.59668 0.68128 0.0
C674 C 0.85176 0.67292 0.64759 0.0
C675 C 0.81315 0.65007 0.66802 0.0
C676 C 0.88154 0.69976 0.64116 0.0
C677 C 0.90483 0.73103 0.64803 0.0
C678 C 0.84511 0.67739 0.66097 0.0
C679 C 0.89779 0.73394 0.66153 0.0
C680 C 0.80564 0.6557 0.68113 0.0
C681 C 0.76174 0.59251 0.66801 0.0
N682 N 0.86848 0.70756 0.66752 0.0
N683 N 0.7908 0.61885 0.66183 0.0
H684 H 0.43152 0.17519 0.66202 0.0
H685 H 0.2387 0.15403 0.66833 0.0
H686 H 0.36588 0.13575 0.69732 0.0
H687 H 0.30057 0.18584 0.63197 0.0
H688 H 0.28563 0.14812 0.67921 0.0
H689 H 0.3837 0.17877 0.65072 0.0
C690 C 0.40698 0.16693 0.66736 0.0
C691 C 0.40287 0.15531 0.68068 0.0
C692 C 0.28893 0.15642 0.66885 0.0
C693 C 0.34818 0.15977 0.66784 0.0
C694 C 0.26221 0.15999 0.66265 0.0
C695 C 0.2656 0.17042 0.6492 0.0
C696 C 0.31936 0.16342 0.66158 0.0
C697 C 0.29668 0.17763 0.64234 0.0
C698 C 0.37973 0.16914 0.66092 0.0
C699 C 0.37041 0.14505 0.68708 0.0
N700 N 0.32231 0.17398 0.64861 0.0
N701 N 0.34445 0.14772 0.68063 0.0
H702 H 0.81346 0.25128 0.66351 0.0
H703 H 0.83582 0.08012 0.66788 0.0
H704 H 0.85186 0.22249 0.69845 0.0
H705 H 0.80431 0.11218 0.63193 0.0
H706 H 0.83806 0.1302 0.67963 0.0
H707 H 0.80762 0.19921 0.65198 0.0
C708 C 0.82087 0.2342 0.66874 0.0
C709 C 0.83318 0.24137 0.68198 0.0
C710 C 0.83047 0.12616 0.66919 0.0
C711 C 0.82623 0.18154 0.66888 0.0
C712 C 0.82898 0.09741 0.66248 0.0
C713 C 0.82006 0.09198 0.64886 0.0
C714 C 0.82295 0.14966 0.66225 0.0
C715 C 0.81156 0.11541 0.64241 0.0
C716 C 0.81738 0.20437 0.66217 0.0
C717 C 0.84221 0.2181 0.68826 0.0
N718 N 0.81338 0.14331 0.64915 0.0
N719 N 0.83849 0.18925 0.68165 0.0
H720 H 0.10336 0.58399 0.49666 0.0
H721 H 0.91049 0.41161 0.50038 0.0
H722 H 0.03342 0.55558 0.53077 0.0
H723 H 0.97127 0.44736 0.46382 0.0
H724 H 0.95783 0.4623 0.512 0.0
H725 H 0.05689 0.53301 0.48457 0.0
C726 C 0.07822 0.5673 0.50158 0.0
C727 C 0.07243 0.57411 0.51479 0.0
C728 C 0.96087 0.45903 0.50144 0.0
C729 C 0.01943 0.51555 0.50107 0.0
C730 C 0.93391 0.4299 0.4948 0.0
C731 C 0.93675 0.4252 0.48107 0.0
C732 C 0.99104 0.48367 0.49435 0.0
C733 C 0.96781 0.44994 0.4744 0.0
C734 C 0.05177 0.53813 0.49468 0.0
C735 C 0.03928 0.55145 0.52063 0.0
N736 N 0.99371 0.47818 0.4811 0.0
N737 N 0.0142 0.52315 0.51377 0.0
H738 H 0.43116 0.46185 0.53176 0.0
H739 H 0.54831 0.52141 0.4652 0.0
H740 H 0.40792 0.50767 0.49765 0.0
H741 H 0.57341 0.48079 0.50043 0.0
H742 H 0.49621 0.51565 0.47662 0.0
H743 H 0.48169 0.46596 0.51983 0.0
C744 C 0.43648 0.47253 0.5217 0.0
C745 C 0.41535 0.48468 0.51573 0.0
C746 C 0.5132 0.50813 0.48186 0.0
C747 C 0.47359 0.48976 0.50204 0.0
C748 C 0.54308 0.51154 0.47537 0.0
C749 C 0.56534 0.5015 0.48185 0.0
C750 C 0.50543 0.49451 0.49491 0.0
C751 C 0.55713 0.48891 0.49503 0.0
C752 C 0.46549 0.47498 0.51491 0.0
C753 C 0.42346 0.49798 0.50264 0.0
N754 N 0.52777 0.48564 0.50109 0.0
N755 N 0.45213 0.50039 0.49626 0.0
H756 H 0.47001 0.02615 0.46408 0.0
H757 H 0.51524 0.96404 0.53287 0.0
H758 H 0.50009 0.08869 0.50027 0.0
H759 H 0.47693 0.89774 0.4977 0.0
H760 H 0.51098 0.01038 0.52088 0.0
H761 H 0.47229 0.97882 0.4762 0.0
C762 C 0.47684 0.02989 0.4746 0.0
C763 C 0.48502 0.06162 0.48114 0.0
C764 C 0.50354 0.98572 0.51578 0.0
C765 C 0.48795 0.00746 0.49505 0.0
C766 C 0.5061 0.95922 0.5226 0.0
C767 C 0.49638 0.92679 0.51631 0.0
C768 C 0.49124 0.97992 0.50254 0.0
C769 C 0.48471 0.92224 0.50298 0.0
C770 C 0.4782 0.00281 0.48151 0.0
C771 C 0.49356 0.06476 0.4948 0.0
N772 N 0.48244 0.94849 0.49655 0.0
N773 N 0.495 0.03811 0.50127 0.0
H774 H 0.42696 0.9025 0.99864 0.0
H775 H 0.58736 0.10276 0.00165 0.0
H776 H 0.44865 0.97086 0.03288 0.0
H777 H 0.568 0.03171 0.96851 0.0
H778 H 0.53793 0.05437 0.01365 0.0
H779 H 0.47882 0.9499 0.9875 0.0
C780 C 0.44243 0.92752 0.0038 0.0
C781 C 0.43335 0.93262 0.01674 0.0
C782 C 0.54472 0.04937 0.00379 0.0
C783 C 0.49307 0.98695 0.00406 0.0
C784 C 0.5731 0.07693 0.99697 0.0
C785 C 0.58173 0.07144 0.984 0.0
C786 C 0.52485 0.01616 0.99759 0.0
C787 C 0.56218 0.03736 0.97843 0.0
C788 C 0.47221 0.95454 0.99745 0.0
C789 C 0.45459 0.96564 0.02291 0.0
N790 N 0.53455 0.01115 0.98521 0.0
N791 N 0.48347 0.99152 0.01652 0.0
H792 H 0.8925 0.47154 0.00124 0.0
H793 H 0.09174 0.50859 0.9965 0.0
H794 H 0.96099 0.5199 0.96715 0.0
H795 H 0.02693 0.4685 0.03196 0.0
H796 H 0.04254 0.50926 0.9851 0.0
H797 H 0.94049 0.46788 0.01238 0.0
C798 C 0.91762 0.48157 0.99612 0.0
C799 C 0.92262 0.49606 0.98323 0.0
C800 C 0.03904 0.50017 0.99536 0.0
C801 C 0.97756 0.49162 0.99589 0.0
C802 C 0.06708 0.49958 0.00185 0.0
C803 C 0.06359 0.48865 0.01524 0.0
C804 C 0.00723 0.48968 0.00227 0.0
C805 C 0.03097 0.47737 0.02167 0.0
C806 C 0.94499 0.47935 0.00247 0.0
C807 C 0.95579 0.50849 0.97708 0.0
N808 N 0.00412 0.47831 0.01514 0.0
N809 N 0.98191 0.50592 0.98345 0.0
H810 H 0.51547 0.416 0.00023 0.0
H811 H 0.48703 0.58359 0.9956 0.0
H812 H 0.47555 0.44241 0.96513 0.0
H813 H 0.52973 0.55877 0.03029 0.0
H814 H 0.48407 0.53281 0.98404 0.0
H815 H 0.52095 0.46833 0.01141 0.0
C816 C 0.50764 0.43261 0.9949 0.0
C817 C 0.49504 0.4247 0.98171 0.0
C818 C 0.49427 0.53862 0.99416 0.0
C819 C 0.50154 0.48487 0.99442 0.0
C820 C 0.49614 0.56775 0.00074 0.0
C821 C 0.50849 0.57545 0.01397 0.0
C822 C 0.50478 0.517 0.00084 0.0
C823 C 0.51982 0.55382 0.02013 0.0
C824 C 0.51095 0.46262 0.00127 0.0
C825 C 0.48547 0.4474 0.97529 0.0
N826 N 0.51751 0.52553 0.01354 0.0
N827 N 0.48895 0.47642 0.9817 0.0
H828 H 0.30942 0.03008 0.11503 0.0
H829 H 0.34615 0.96859 0.04664 0.0
H830 H 0.2764 0.05108 0.07715 0.0
H831 H 0.39047 0.95968 0.08401 0.0
H832 H 0.33326 0.0117 0.05679 0.0
H833 H 0.35172 0.01834 0.10347 0.0
C834 C 0.31179 0.03306 0.10426 0.0
C835 C 0.28902 0.04079 0.09696 0.0
C836 C 0.34648 0.00098 0.06274 0.0
C837 C 0.33657 0.0264 0.08363 0.0
C838 C 0.35375 0.97627 0.05696 0.0
C839 C 0.36857 0.95999 0.06463 0.0
C840 C 0.35331 0.00884 0.07639 0.0
C841 C 0.37858 0.97133 0.07782 0.0
C842 C 0.33593 0.02633 0.09766 0.0
C843 C 0.29335 0.04485 0.08309 0.0
N844 N 0.36997 0.99449 0.0834 0.0
N845 N 0.31604 0.03667 0.07681 0.0
H846 H 0.02831 0.38291 0.04883 0.0
H847 H 0.98604 0.28772 0.11739 0.0
H848 H 0.04957 0.43917 0.08621 0.0
H849 H 0.94171 0.23232 0.08038 0.0
H850 H -0.00142 0.34307 0.10672 0.0
H851 H 0.98594 0.3284 0.06011 0.0
C852 C 0.02336 0.38382 0.0594 0.0
C853 C 0.04283 0.41521 0.06671 0.0
C854 C 0.98538 0.31878 0.10097 0.0
C855 C 0.99517 0.35285 0.07976 0.0
C856 C 0.97836 0.28719 0.10705 0.0
C857 C 0.96366 0.2557 0.09962 0.0
C858 C 0.97851 0.31899 0.08727 0.0
C859 C 0.95354 0.25621 0.08637 0.0
C860 C -0.00088 0.35272 0.06584 0.0
C861 C 0.03523 0.4153 0.08029 0.0
N862 N 0.96198 0.2876 0.0805 0.0
N863 N 0.0126 0.38427 0.08649 0.0
H864 H 0.62355 0.65584 0.0459 0.0
H865 H 0.71926 0.68845 0.11421 0.0
H866 H 0.5684 0.60758 0.08256 0.0
H867 H 0.77492 0.71788 0.07661 0.0
H868 H 0.665 0.64678 0.10255 0.0
H869 H 0.67892 0.66681 0.0561 0.0
C870 C 0.62308 0.64698 0.05607 0.0
C871 C 0.59165 0.63158 0.06355 0.0
C872 C 0.68918 0.66152 0.09683 0.0
C873 C 0.65505 0.64465 0.07539 0.0
C874 C 0.72016 0.68523 0.10349 0.0
C875 C 0.75123 0.70677 0.09628 0.0
C876 C 0.6891 0.66028 0.0828 0.0
C877 C 0.75132 0.70171 0.08248 0.0
C878 C 0.6547 0.65312 0.06187 0.0
C879 C 0.59224 0.61995 0.07654 0.0
N880 N 0.72037 0.6796 0.0761 0.0
N881 N 0.6237 0.62754 0.08219 0.0
H882 H 0.94318 0.38856 0.40854 0.0
H883 H 0.05687 0.29211 0.41369 0.0
H884 H 0.97545 0.36163 0.44538 0.0
H885 H 0.00091 0.29445 0.37846 0.0
H886 H 0.0457 0.33667 0.42401 0.0
H887 H 0.98325 0.37418 0.39628 0.0
C888 C 0.95967 0.38087 0.41406 0.0
C889 C 0.95569 0.3755 0.42789 0.0
C890 C 0.03653 0.32792 0.41391 0.0
C891 C 0.00086 0.35873 0.41409 0.0
C892 C 0.04289 0.30253 0.40804 0.0
C893 C 0.0289 0.28895 0.39538 0.0
C894 C 0.01618 0.33971 0.40702 0.0
C895 C 0.01133 0.30359 0.3884 0.0
C896 C 0.98229 0.37242 0.40709 0.0
C897 C 0.97743 0.36539 0.43464 0.0
N898 N 0.005 0.3278 0.39438 0.0
N899 N -0.00131 0.35675 0.42766 0.0
H900 H 0.60244 0.56477 0.41437 0.0
H901 H 0.71787 0.77387 0.42185 0.0
H902 H 0.65283 0.62043 0.45074 0.0
H903 H 0.68701 0.71755 0.38439 0.0
H904 H 0.67507 0.71921 0.43339 0.0
H905 H 0.61444 0.62121 0.40439 0.0
C906 C 0.61523 0.5887 0.42034 0.0
C907 C 0.62763 0.58827 0.43322 0.0
C908 C 0.67693 0.71911 0.4226 0.0
C909 C 0.6414 0.65253 0.42198 0.0
C910 C 0.70113 0.75034 0.41604 0.0
C911 C 0.70627 0.74972 0.40225 0.0
C912 C 0.65807 0.68745 0.41524 0.0
C913 C 0.68414 0.71868 0.39511 0.0
C914 C 0.62213 0.62088 0.41466 0.0
C915 C 0.64375 0.61988 0.44062 0.0
N916 N 0.66143 0.68857 0.4017 0.0
N917 N 0.6507 0.65082 0.43483 0.0
H918 H 0.38667 0.02032 0.44675 0.0
H919 H 0.28584 0.98756 0.37938 0.0
H920 H 0.43925 0.05231 0.4086 0.0
H921 H 0.23359 0.94095 0.41666 0.0
H922 H 0.34194 -0.00123 0.38893 0.0
H923 H 0.33179 0.97855 0.43547 0.0
C924 C 0.38678 0.01769 0.43597 0.0
C925 C 0.41712 0.04 0.42852 0.0
C926 C 0.31821 0.98542 0.39499 0.0
C927 C 0.35425 0.99331 0.41551 0.0
C928 C 0.28617 0.97914 0.38955 0.0
C929 C 0.25536 0.96413 0.39739 0.0
C930 C 0.31962 0.97748 0.40849 0.0
C931 C 0.25694 0.95302 0.41037 0.0
C932 C 0.35543 0.99391 0.42953 0.0
C933 C 0.41621 0.03559 0.41465 0.0
N934 N 0.28882 0.96074 0.41565 0.0
N935 N 0.3849 0.01335 0.40853 0.0
H936 H 0.68896 0.96812 0.88458 0.0
H937 H 0.66252 0.04105 0.95171 0.0
H938 H 0.72678 0.95224 0.92229 0.0
H939 H 0.60696 0.03788 0.91559 0.0
H940 H 0.67491 0.99682 0.94235 0.0
H941 H 0.64733 0.98036 0.89643 0.0
C942 C 0.68765 0.9662 0.89539 0.0
C943 C 0.71151 0.95974 0.90254 0.0
C944 C 0.65936 0.00511 0.93653 0.0
C945 C 0.66502 0.975 0.91618 0.0
C946 C 0.65242 0.03051 0.94185 0.0
C947 C 0.63447 0.04365 0.93425 0.0
C948 C 0.64909 0.99345 0.92335 0.0
C949 C 0.6213 0.02868 0.92168 0.0
C950 C 0.66395 0.97327 0.90216 0.0
C951 C 0.70882 0.9573 0.91647 0.0
N952 N 0.62966 0.00495 0.91647 0.0
N953 N 0.68662 0.96591 0.92289 0.0
H954 H 0.9595 0.56953 0.9192 0.0
H955 H 0.05127 0.77935 0.92317 0.0
H956 H 0.95561 0.62791 0.95337 0.0
H957 H 0.02809 0.7188 0.88677 0.0
H958 H 0.03724 0.72576 0.93599 0.0
H959 H 0.00478 0.62536 0.9092 0.0
C960 C 0.9687 0.59398 0.92471 0.0
C961 C 0.95313 0.59434 0.93692 0.0
C962 C 0.0363 0.72452 0.92517 0.0
C963 C 0.00471 0.65797 0.92563 0.0
C964 C 0.04454 0.75509 0.91788 0.0
C965 C 0.04008 0.75301 0.90399 0.0
C966 C 0.02378 0.69208 0.91841 0.0
C967 C 0.03116 0.72109 0.89754 0.0
C968 C 0.99452 0.6258 0.91902 0.0
C969 C 0.9663 0.62665 0.94374 0.0
N970 N 0.02273 0.69168 0.90481 0.0
N971 N 0.99094 0.65727 0.93791 0.0
H972 H 0.43342 0.39082 0.91328 0.0
H973 H 0.22418 0.28101 0.91924 0.0
H974 H 0.37525 0.34825 0.94993 0.0
H975 H 0.28293 0.30764 0.8823 0.0
H976 H 0.27825 0.32472 0.93086 0.0
H977 H 0.37837 0.38007 0.90241 0.0
C978 C 0.4093 0.3802 0.91912 0.0
C979 C 0.40848 0.36941 0.93236 0.0
C980 C 0.27904 0.32169 0.92014 0.0
C981 C 0.34572 0.35676 0.92009 0.0
C982 C 0.24816 0.29692 0.91353 0.0
C983 C 0.24959 0.29027 0.89992 0.0
C984 C 0.31121 0.33962 0.91302 0.0
C985 C 0.28115 0.31152 0.89291 0.0
C986 C 0.37787 0.37393 0.91293 0.0
C987 C 0.37667 0.356 0.93956 0.0
N988 N 0.31091 0.3348 0.89957 0.0
N989 N 0.3464 0.34942 0.93327 0.0
H990 H 0.94197 0.71874 0.57763 0.0
H991 H 0.03807 0.60461 0.58267 0.0
H992 H 0.98073 0.69709 0.61404 0.0
H993 H 0.03312 0.65788 0.54708 0.0
H994 H 0.9952 0.61765 0.59339 0.0
H995 H 0.95343 0.67592 0.56588 0.0
C996 C 0.95189 0.7042 0.5832 0.0
C997 C 0.96132 0.7119 0.59668 0.0
C998 C 0.00285 0.62564 0.58311 0.0
C999 C 0.97426 0.66327 0.58348 0.0
C1000 C 0.02718 0.61814 0.577 0.0
C1001 C 0.0397 0.63108 0.56414 0.0
C1002 C 0.99102 0.64595 0.57623 0.0
C1003 C 0.0247 0.64827 0.55716 0.0
C1004 C 0.9585 0.67991 0.57652 0.0
C1005 C 0.97395 0.69238 0.60353 0.0
N1006 N 0.00152 0.65571 0.56337 0.0
N1007 N 0.98054 0.66928 0.59681 0.0
H1008 H 0.31278 0.28054 0.6166 0.0
H1009 H 0.34894 0.37869 0.54835 0.0
H1010 H 0.28041 0.22728 0.57857 0.0
H1011 H 0.38856 0.43201 0.58603 0.0
H1012 H 0.33916 0.32359 0.5584 0.0
H1013 H 0.35553 0.33476 0.60523 0.0
C1014 C 0.31547 0.2801 0.60584 0.0
C1015 C 0.29265 0.24981 0.59843 0.0
C1016 C 0.35074 0.34739 0.56445 0.0
C1017 C 0.34063 0.31197 0.58532 0.0
C1018 C 0.35627 0.37884 0.55872 0.0
C1019 C 0.36875 0.40954 0.56651 0.0
C1020 C 0.35679 0.34643 0.57819 0.0
C1021 C 0.37849 0.40868 0.57977 0.0
C1022 C 0.33983 0.31108 0.59934 0.0
C1023 C 0.29737 0.25029 0.58459 0.0
N1024 N 0.37141 0.37729 0.58532 0.0
N1025 N 0.32024 0.28128 0.57841 0.0
H1026 H 0.77596 0.05812 0.57644 0.0
H1027 H 0.56562 0.95843 0.58281 0.0
H1028 H 0.71806 0.02768 0.61358 0.0
H1029 H 0.62289 0.96245 0.54706 0.0
H1030 H 0.6216 0.00321 0.59298 0.0
H1031 H 0.72068 0.04329 0.56465 0.0
C1032 C 0.75187 0.04954 0.58214 0.0
C1033 C 0.75113 0.04337 0.5959 0.0
C1034 C 0.62172 0.99481 0.5828 0.0
C1035 C 0.68829 0.02616 0.58263 0.0
C1036 C 0.58982 0.96934 0.57701 0.0
C1037 C 0.58992 0.95615 0.56425 0.0
C1038 C 0.65367 0.00712 0.57571 0.0
C1039 C 0.62189 0.97133 0.55708 0.0
C1040 C 0.72034 0.04085 0.57544 0.0
C1041 C 0.71937 0.03211 0.60289 0.0
N1042 N 0.65258 0.99563 0.56298 0.0
N1043 N 0.68905 0.02331 0.59616 0.0
H1044 H 0.67457 0.63076 0.7143 0.0
H1045 H 0.63451 0.68289 0.78356 0.0
H1046 H 0.71889 0.61772 0.75095 0.0
H1047 H 0.61251 0.71854 0.74648 0.0
H1048 H 0.67599 0.67012 0.77192 0.0
H1049 H 0.66257 0.67343 0.72538 0.0
C1050 C 0.68239 0.63749 0.72466 0.0
C1051 C 0.69698 0.62023 0.73185 0.0
C1052 C 0.66282 0.68151 0.76633 0.0
C1053 C 0.68265 0.66844 0.74469 0.0
C1054 C 0.63907 0.68872 0.77298 0.0
C1055 C 0.61964 0.70103 0.76587 0.0
C1056 C 0.66635 0.68569 0.7524 0.0
C1057 C 0.6268 0.70871 0.75226 0.0
C1058 C 0.67565 0.66195 0.73097 0.0
C1059 C 0.70723 0.63024 0.74513 0.0
N1060 N 0.64897 0.70002 0.74586 0.0
N1061 N 0.69902 0.65309 0.75125 0.0
H1062 H 0.37129 0.03763 0.71186 0.0
H1063 H 0.29678 0.94266 0.77961 0.0
H1064 H 0.37318 0.09309 0.74782 0.0
H1065 H 0.27699 0.88686 0.74221 0.0
H1066 H 0.31123 0.99675 0.76748 0.0
H1067 H 0.32509 0.98249 0.72157 0.0
C1068 C 0.36155 0.03821 0.72177 0.0
C1069 C 0.37664 0.06966 0.72923 0.0
C1070 C 0.30277 0.97257 0.76187 0.0
C1071 C 0.32408 0.00654 0.7405 0.0
C1072 C 0.29442 0.94167 0.76881 0.0
C1073 C 0.28632 0.91066 0.76183 0.0
C1074 C 0.30412 0.97259 0.74785 0.0
C1075 C 0.28335 0.91044 0.7479 0.0
C1076 C 0.33499 0.00673 0.72729 0.0
C1077 C 0.36256 0.06921 0.74185 0.0
N1078 N 0.29326 0.94131 0.74131 0.0
N1079 N 0.33759 0.03789 0.74724 0.0
H1080 H 0.95558 0.3195 0.71232 0.0
H1081 H 0.05141 0.35099 0.78108 0.0
H1082 H 0.90118 0.27736 0.74967 0.0
H1083 H 0.10615 0.38774 0.7435 0.0
H1084 H 0.99782 0.30905 0.76914 0.0
H1085 H 0.0106 0.32945 0.72253 0.0
C1086 C 0.95514 0.31167 0.72264 0.0
C1087 C 0.92411 0.29847 0.7303 0.0
C1088 C 0.02169 0.32553 0.76346 0.0
C1089 C 0.98715 0.31042 0.74213 0.0
C1090 C 0.05232 0.34938 0.77028 0.0
C1091 C 0.08283 0.3731 0.76319 0.0
C1092 C 0.02138 0.32621 0.74944 0.0
C1093 C 0.08296 0.36994 0.74928 0.0
C1094 C 0.98658 0.3173 0.72846 0.0
C1095 C 0.92472 0.28807 0.74349 0.0
N1096 N 0.05229 0.34756 0.7428 0.0
N1097 N 0.95604 0.29511 0.74911 0.0
H1098 H 0.37405 0.27191 0.24944 0.0
H1099 H 0.28123 0.38916 0.24371 0.0
H1100 H 0.37299 0.32787 0.21404 0.0
H1101 H 0.31695 0.36553 0.28045 0.0
H1102 H 0.29261 0.34614 0.23207 0.0
H1103 H 0.33117 0.28558 0.25986 0.0
C1104 C 0.36403 0.28619 0.24375 0.0
C1105 C 0.37759 0.29965 0.23105 0.0
C1106 C 0.29697 0.3497 0.24276 0.0
C1107 C 0.32888 0.31512 0.24275 0.0
C1108 C 0.29037 0.37407 0.24938 0.0
C1109 C 0.29901 0.38126 0.26293 0.0
C1110 C 0.31193 0.33246 0.24985 0.0
C1111 C 0.31075 0.36114 0.26989 0.0
C1112 C 0.33969 0.29404 0.24968 0.0
C1113 C 0.36373 0.31784 0.22402 0.0
N1114 N 0.31735 0.33797 0.26324 0.0
N1115 N 0.34048 0.3255 0.23003 0.0
H1116 H 0.62413 0.90027 0.24815 0.0
H1117 H 0.72644 0.1093 0.25519 0.0
H1118 H 0.63916 0.95742 0.28501 0.0
H1119 H 0.69491 0.05214 0.2179 0.0
H1120 H 0.71464 0.0545 0.26655 0.0
H1121 H 0.66923 0.95542 0.23759 0.0
C1122 C 0.63762 0.92419 0.2541 0.0
C1123 C 0.62731 0.92469 0.26732 0.0
C1124 C 0.71128 0.0542 0.25581 0.0
C1125 C 0.67842 0.98756 0.2554 0.0
C1126 C 0.71824 0.08552 0.24935 0.0
C1127 C 0.71073 0.08477 0.23571 0.0
C1128 C 0.69672 0.0223 0.24852 0.0
C1129 C 0.70018 0.05341 0.22853 0.0
C1130 C 0.66325 0.95567 0.24809 0.0
C1131 C 0.64573 0.95624 0.27465 0.0
N1132 N 0.69283 0.02323 0.23506 0.0
N1133 N 0.66994 0.98656 0.26854 0.0
H1134 H 0.95768 0.63485 0.21135 0.0
H1135 H 0.05376 0.69628 0.28016 0.0
H1136 H 0.90312 0.62445 0.24852 0.0
H1137 H 0.10919 0.71966 0.24254 0.0
H1138 H -0.00028 0.68375 0.26839 0.0
H1139 H 0.01319 0.67846 0.22175 0.0
C1140 C 0.95734 0.64227 0.22167 0.0
C1141 C 0.92602 0.62543 0.22921 0.0
C1142 C 0.0238 0.69247 0.26268 0.0
C1143 C 0.98958 0.6749 0.24125 0.0
C1144 C 0.05468 0.69967 0.2694 0.0
C1145 C 0.08561 0.70833 0.26224 0.0
C1146 C 0.02367 0.69294 0.24865 0.0
C1147 C 0.08569 0.71278 0.24838 0.0
C1148 C 0.98905 0.66728 0.22759 0.0
C1149 C 0.92684 0.63649 0.24242 0.0
N1150 N 0.05483 0.7041 0.24197 0.0
N1151 N 0.95833 0.65997 0.24813 0.0
H1152 H 0.05189 0.17002 0.09061 0.0
H1153 H 0.07931 0.02602 0.12509 0.0
H1154 H 0.03865 0.15088 0.13315 0.0
H1155 H 0.16893 0.10304 0.10211 0.0
H1156 H 0.05108 0.06157 0.12226 0.0
H1157 H 0.08542 0.13822 0.08975 0.0
C1158 C 0.05638 0.15957 0.09976 0.0
C1159 C 0.04206 0.16265 0.11196 0.0
C1160 C 0.07676 0.07042 0.11772 0.0
C1161 C 0.07923 0.126 0.11091 0.0
C1162 C 0.09295 0.05019 0.11928 0.0
C1163 C 0.12702 0.06199 0.1141 0.0
C1164 C 0.09434 0.10248 0.11076 0.0
C1165 C 0.14283 0.09317 0.10638 0.0
C1166 C 0.07544 0.14154 0.09923 0.0
C1167 C 0.04874 0.14877 0.12351 0.0
N1168 N 0.12643 0.11271 0.10502 0.0
N1169 N 0.06624 0.13046 0.12266 0.0
H1170 H 0.96347 0.06055 0.10009 0.0
H1171 H 0.81037 0.88164 0.12638 0.0
H1172 H 0.8718 0.05577 0.11849 0.0
H1173 H 0.86439 0.88463 0.08983 0.0
H1174 H 0.83409 0.94577 0.12448 0.0
H1175 H 0.92922 0.99629 0.09633 0.0
C1176 C 0.93572 0.046 0.1029 0.0
C1177 C 0.92003 0.06314 0.10937 0.0
C1178 C 0.84027 0.93221 0.11679 0.0
C1179 C 0.88153 0.99004 0.10579 0.0
C1180 C 0.82697 0.89578 0.11792 0.0
C1181 C 0.83558 0.87801 0.10828 0.0
C1182 C 0.86304 0.95096 0.10615 0.0
C1183 C 0.85711 0.89743 0.09747 0.0
C1184 C 0.9163 0.00946 0.10084 0.0
C1185 C 0.88442 0.0433 0.11324 0.0
N1186 N 0.87064 0.93303 0.09681 0.0
N1187 N 0.86647 0.00753 0.11164 0.0
H1188 H 0.94659 0.86209 0.14196 0.0
H1189 H 0.11248 0.94469 0.09317 0.0
H1190 H 0.93494 0.84503 0.09932 0.0
H1191 H 0.11962 0.94249 0.13616 0.0
H1192 H 0.04822 0.90492 0.09474 0.0
H1193 H 0.01028 0.88836 0.13967 0.0
C1194 C 0.95754 0.86379 0.13208 0.0
C1195 C 0.93555 0.8518 0.12078 0.0
C1196 C 0.06395 0.91273 0.1038 0.0
C1197 C 0.00891 0.88226 0.11805 0.0
C1198 C 0.10061 0.93539 0.10292 0.0
C1199 C 0.12132 0.94722 0.11459 0.0
C1200 C 0.04801 0.90207 0.11643 0.0
C1201 C 0.10464 0.93434 0.12693 0.0
C1202 C 0.99399 0.87867 0.13078 0.0
C1203 C 0.95109 0.85409 0.10827 0.0
N1204 N 0.06896 0.91279 0.12753 0.0
N1205 N 0.98703 0.86961 0.10719 0.0
H1206 H 0.04565 0.11158 0.39992 0.0
H1207 H 0.18056 0.06421 0.36728 0.0
H1208 H 0.11953 0.17526 0.36923 0.0
H1209 H 0.14072 0.02888 0.40714 0.0
H1210 H 0.15851 0.10575 0.36823 0.0
H1211 H 0.08067 0.08223 0.40379 0.0
C1212 C 0.06993 0.12013 0.39435 0.0
C1213 C 0.08014 0.14587 0.38434 0.0
C1214 C 0.15495 0.08927 0.37686 0.0
C1215 C 0.11923 0.11197 0.38828 0.0
C1216 C 0.16737 0.06544 0.37627 0.0
C1217 C 0.16227 0.04309 0.38712 0.0
C1218 C 0.13656 0.09018 0.38826 0.0
C1219 C 0.14516 0.04578 0.39857 0.0
C1220 C 0.08974 0.10332 0.39647 0.0
C1221 C 0.11116 0.15562 0.37711 0.0
N1222 N 0.13236 0.06856 0.39878 0.0
N1223 N 0.12936 0.1383 0.37907 0.0
H1224 H 0.94639 0.11541 0.35967 0.0
H1225 H 0.84527 0.93071 0.399 0.0
H1226 H 0.94863 0.11071 0.40274 0.0
H1227 H 0.87438 0.94354 0.35725 0.0
H1228 H 0.87343 0.9958 0.40094 0.0
H1229 H 0.90888 0.05133 0.35899 0.0
C1230 C 0.93873 0.10087 0.36901 0.0
C1231 C 0.95097 0.11833 0.38126 0.0
C1232 C 0.87341 0.9841 0.39139 0.0
C1233 C 0.90818 0.04466 0.38057 0.0
C1234 C 0.85735 0.94711 0.39027 0.0
C1235 C 0.85789 0.93174 0.378 0.0
C1236 C 0.88932 0.00543 0.38007 0.0
C1237 C 0.87379 0.95413 0.36698 0.0
C1238 C 0.91736 0.06422 0.36862 0.0
C1239 C 0.93987 0.09814 0.39307 0.0
N1240 N 0.88876 0.98964 0.36829 0.0
N1241 N 0.91929 0.06219 0.39244 0.0
H1242 H 0.0629 0.9253 0.40302 0.0
H1243 H 0.87613 0.80758 0.36699 0.0
H1244 H 0.0489 0.88641 0.36258 0.0
H1245 H 0.88571 0.84491 0.40757 0.0
H1246 H 0.93946 0.82835 0.36677 0.0
H1247 H -0.00157 0.88819 0.40657 0.0
C1248 C 0.04632 0.90821 0.39505 0.0
C1249 C 0.06081 0.90889 0.38248 0.0
C1250 C 0.92778 0.83177 0.37579 0.0
C1251 C 0.98779 0.86708 0.38632 0.0
C1252 C 0.89158 0.81991 0.3759 0.0
C1253 C 0.87581 0.82494 0.38724 0.0
C1254 C 0.94856 0.8493 0.38705 0.0
C1255 C 0.89698 0.84075 0.39857 0.0
C1256 C 0.00963 0.88727 0.39702 0.0
C1257 C 0.03847 0.88673 0.37238 0.0
N1258 N 0.93244 0.85286 0.39814 0.0
N1259 N 0.00309 0.86699 0.37448 0.0
H1260 H 0.87648 0.92919 0.85758 0.0
H1261 H 0.95316 0.84294 0.90699 0.0
H1262 H 0.84942 0.91777 0.89952 0.0
H1263 H 0.9421 0.82382 0.86444 0.0
H1264 H 0.91601 0.87047 0.90527 0.0
H1265 H 0.90266 0.89209 0.86058 0.0
C1266 C 0.8761 0.91888 0.86748 0.0
C1267 C 0.86102 0.9269 0.87836 0.0
C1268 C 0.92133 0.85973 0.89637 0.0
C1269 C 0.89112 0.88396 0.88186 0.0
C1270 C 0.9425 0.84406 0.89733 0.0
C1271 C 0.9511 0.83155 0.8858 0.0
C1272 C 0.90915 0.86315 0.88378 0.0
C1273 C 0.93653 0.83351 0.87356 0.0
C1274 C 0.89083 0.89737 0.86915 0.0
C1275 C 0.86086 0.91227 0.89088 0.0
N1276 N 0.91666 0.84942 0.87286 0.0
N1277 N 0.87615 0.89174 0.89235 0.0
H1278 H 0.08019 0.94689 0.85694 0.0
H1279 H 0.16098 0.11172 0.90569 0.0
H1280 H 0.08216 0.93332 0.89962 0.0
H1281 H 0.1827 0.11837 0.86336 0.0
H1282 H 0.13401 0.04708 0.90441 0.0
H1283 H 0.1186 0.0102 0.85964 0.0
C1284 C 0.08873 0.95733 0.86693 0.0
C1285 C 0.0776 0.9349 0.8781 0.0
C1286 C 0.14523 0.06281 0.89547 0.0
C1287 C 0.12188 0.00783 0.8813 0.0
C1288 C 0.16064 0.09965 0.89618 0.0
C1289 C 0.1736 0.12031 0.88456 0.0
C1290 C 0.14267 0.04676 0.88303 0.0
C1291 C 0.1726 0.10342 0.87253 0.0
C1292 C 0.11096 0.99354 0.86846 0.0
C1293 C 0.09007 0.94983 0.89077 0.0
N1294 N 0.15699 0.06764 0.87205 0.0
N1295 N 0.11125 0.98561 0.89207 0.0
H1296 H 0.05177 0.10947 0.85901 0.0
H1297 H 0.88953 0.04856 0.90707 0.0
H1298 H 0.07016 0.15512 0.8986 0.0
H1299 H 0.88333 0.05836 0.86434 0.0
H1300 H 0.95459 0.08367 0.90557 0.0
H1301 H 0.98871 0.08425 0.8622 0.0
C1302 C 0.0426 0.11411 0.86845 0.0
C1303 C 0.06649 0.13448 0.87858 0.0
C1304 C 0.9388 0.07855 0.8966 0.0
C1305 C 0.99357 0.10548 0.88222 0.0
C1306 C 0.90178 0.05856 0.89743 0.0
C1307 C 0.88107 0.05009 0.88576 0.0
C1308 C 0.95488 0.0895 0.88402 0.0
C1309 C 0.89822 0.06379 0.87355 0.0
C1310 C 0.00644 0.09991 0.87019 0.0
C1311 C 0.05267 0.13963 0.89053 0.0
N1312 N 0.9341 0.08233 0.87298 0.0
N1313 N 0.01689 0.1249 0.89209 0.0
H1314 H 0.84964 0.96427 0.59035 0.0
H1315 H 0.89384 0.84418 0.63759 0.0
H1316 H 0.81992 0.94203 0.63189 0.0
H1317 H 0.92818 0.86565 0.59654 0.0
H1318 H 0.85832 0.87227 0.63419 0.0
H1319 H 0.87106 0.92184 0.59102 0.0
C1320 C 0.84723 0.95013 0.59956 0.0
C1321 C 0.83339 0.9569 0.61114 0.0
C1322 C 0.87326 0.87067 0.62583 0.0
C1323 C 0.85765 0.90852 0.61195 0.0
C1324 C 0.89349 0.85458 0.62778 0.0
C1325 C 0.91412 0.85307 0.61736 0.0
C1326 C 0.87418 0.88612 0.61341 0.0
C1327 C 0.91255 0.86647 0.6048 0.0
C1328 C 0.85945 0.92597 0.59992 0.0
C1329 C 0.83076 0.93789 0.62278 0.0
N1330 N 0.89333 0.88308 0.60321 0.0
N1331 N 0.843 0.91479 0.6229 0.0
H1332 H 0.08399 0.05565 0.6294 0.0
H1333 H 0.05308 0.88692 0.59127 0.0
H1334 H 0.16806 0.06933 0.60275 0.0
H1335 H 0.03955 0.88817 0.63399 0.0
H1336 H 0.08711 0.95225 0.59142 0.0
H1337 H 0.05598 0.99202 0.62657 0.0
C1338 C 0.09654 0.04541 0.62284 0.0
C1339 C 0.12899 0.06805 0.61653 0.0
C1340 C 0.07696 0.93795 0.60072 0.0
C1341 C 0.09643 0.99479 0.6132 0.0
C1342 C 0.05759 0.90086 0.60068 0.0
C1343 C 0.04311 0.88214 0.61263 0.0
C1344 C 0.08091 0.95606 0.61275 0.0
C1345 C 0.04983 0.90141 0.62453 0.0
C1346 C 0.08047 0.009 0.62129 0.0
C1347 C 0.14328 0.05287 0.60791 0.0
N1348 N 0.06768 0.93731 0.62425 0.0
N1349 N 0.12691 0.01693 0.60652 0.0
H1350 H 0.12285 0.18746 0.63556 0.0
H1351 H 0.93617 0.08787 0.59735 0.0
H1352 H 0.11447 0.1656 0.59322 0.0
H1353 H 0.95025 0.09423 0.64016 0.0
H1354 H 0.00093 0.12599 0.59473 0.0
H1355 H 0.05905 0.16399 0.63644 0.0
C1356 C 0.10759 0.17808 0.62641 0.0
C1357 C 0.12385 0.17804 0.61435 0.0
C1358 C 0.98963 0.11924 0.60468 0.0
C1359 C 0.05061 0.15059 0.61528 0.0
C1360 C 0.95282 0.09766 0.60616 0.0
C1361 C 0.93808 0.08752 0.61898 0.0
C1362 C 0.01138 0.13101 0.61612 0.0
C1363 C 0.96063 0.10087 0.63008 0.0
C1364 C 0.07112 0.16458 0.62691 0.0
C1365 C 0.10286 0.16587 0.60276 0.0
N1366 N 0.99603 0.12174 0.62839 0.0
N1367 N 0.06715 0.15216 0.60353 0.0
H1368 H 0.70591 0.48762 0.42497 0.0
H1369 H 0.81009 0.4251 0.47307 0.0
H1370 H 0.71801 0.50514 0.46758 0.0
H1371 H 0.8065 0.40999 0.43037 0.0
H1372 H 0.78133 0.46005 0.47041 0.0
H1373 H 0.74689 0.46431 0.42586 0.0
C1374 C 0.71754 0.48698 0.43447 0.0
C1375 C 0.70835 0.49797 0.44626 0.0
C1376 C 0.7869 0.44941 0.46155 0.0
C1377 C 0.75496 0.47149 0.44733 0.0
C1378 C 0.8033 0.42936 0.46308 0.0
C1379 C 0.81018 0.41431 0.45193 0.0
C1380 C 0.7766 0.45409 0.44877 0.0
C1381 C 0.80145 0.42114 0.4392 0.0
C1382 C 0.74085 0.47367 0.43496 0.0
C1383 C 0.72407 0.49661 0.45828 0.0
N1384 N 0.78452 0.44018 0.43796 0.0
N1385 N 0.74638 0.48342 0.4585 0.0
H1386 H 0.47878 0.20972 0.46354 0.0
H1387 H 0.5957 0.39669 0.42789 0.0
H1388 H 0.51635 0.21939 0.42299 0.0
H1389 H 0.54928 0.38188 0.46708 0.0
H1390 H 0.56068 0.33211 0.42426 0.0
H1391 H 0.49846 0.27276 0.46363 0.0
C1392 C 0.49098 0.22514 0.45461 0.0
C1393 C 0.49628 0.20947 0.4433 0.0
C1394 C 0.55763 0.34313 0.43353 0.0
C1395 C 0.51937 0.28192 0.44333 0.0
C1396 C 0.57738 0.37989 0.43554 0.0
C1397 C 0.57532 0.39422 0.44781 0.0
C1398 C 0.53599 0.32106 0.44392 0.0
C1399 C 0.55167 0.37159 0.45752 0.0
C1400 C 0.50218 0.26117 0.45463 0.0
C1401 C 0.51194 0.23059 0.43195 0.0
N1402 N 0.53322 0.33616 0.45542 0.0
N1403 N 0.52341 0.26592 0.4323 0.0
H1404 H 0.77841 0.28994 0.42377 0.0
H1405 H 0.61395 0.18919 0.47271 0.0
H1406 H 0.78656 0.27535 0.46604 0.0
H1407 H 0.601 0.18687 0.4299 0.0
H1408 H 0.67763 0.21706 0.46982 0.0
H1409 H 0.71425 0.24895 0.42505 0.0
C1410 C 0.76677 0.27775 0.43327 0.0
C1411 C 0.7877 0.28635 0.44486 0.0
C1412 C 0.66107 0.2103 0.46099 0.0
C1413 C 0.71463 0.23973 0.44639 0.0
C1414 C 0.62466 0.19447 0.46265 0.0
C1415 C 0.60234 0.1862 0.45152 0.0
C1416 C 0.67562 0.21864 0.44809 0.0
C1417 C 0.61747 0.19302 0.43872 0.0
C1418 C 0.7302 0.25438 0.43399 0.0
C1419 C 0.77138 0.26979 0.45689 0.0
N1420 N 0.6534 0.20945 0.43733 0.0
N1421 N 0.73583 0.24756 0.45735 0.0
H1422 H 0.77306 0.49532 0.69402 0.0
H1423 H 0.82826 0.3811 0.73998 0.0
H1424 H 0.73536 0.46591 0.73442 0.0
H1425 H 0.85257 0.40238 0.69802 0.0
H1426 H 0.80345 0.42076 0.73981 0.0
H1427 H 0.81239 0.47133 0.69717 0.0
C1428 C 0.77353 0.48412 0.70364 0.0
C1429 C 0.75091 0.48219 0.71395 0.0
C1430 C 0.8147 0.41712 0.73071 0.0
C1431 C 0.79514 0.45378 0.71757 0.0
C1432 C 0.82897 0.39463 0.7308 0.0
C1433 C 0.84221 0.38832 0.71895 0.0
C1434 C 0.81399 0.43347 0.71871 0.0
C1435 C 0.84236 0.40631 0.70734 0.0
C1436 C 0.79588 0.47034 0.70544 0.0
C1437 C 0.75255 0.46777 0.72627 0.0
N1438 N 0.82826 0.42786 0.7075 0.0
N1439 N 0.77396 0.45349 0.72769 0.0
H1440 H 0.53811 0.26401 0.73525 0.0
H1441 H 0.59874 0.44726 0.69859 0.0
H1442 H 0.49863 0.27451 0.69703 0.0
H1443 H 0.62621 0.44195 0.73964 0.0
H1444 H 0.55748 0.38367 0.69895 0.0
H1445 H 0.56553 0.32853 0.73852 0.0
C1446 C 0.53437 0.27983 0.72777 0.0
C1447 C 0.51633 0.26436 0.71586 0.0
C1448 C 0.57219 0.39633 0.70796 0.0
C1449 C 0.54784 0.33746 0.71931 0.0
C1450 C 0.59585 0.43266 0.70772 0.0
C1451 C 0.61606 0.44973 0.71905 0.0
C1452 C 0.56913 0.37671 0.71954 0.0
C1453 C 0.61111 0.42965 0.73066 0.0
C1454 C 0.55015 0.31655 0.72957 0.0
C1455 C 0.51253 0.28573 0.70633 0.0
N1456 N 0.58846 0.39401 0.73057 0.0
N1457 N 0.52847 0.3212 0.70819 0.0
H1458 H 0.73851 0.2261 0.72801 0.0
H1459 H 0.55964 0.17916 0.69764 0.0
H1460 H 0.72128 0.30859 0.71229 0.0
H1461 H 0.55131 0.15964 0.74019 0.0
H1462 H 0.62415 0.21161 0.69975 0.0
H1463 H 0.6737 0.18808 0.73074 0.0
C1464 C 0.72132 0.23655 0.72547 0.0
C1465 C 0.73524 0.2703 0.71966 0.0
C1466 C 0.60803 0.19969 0.70856 0.0
C1467 C 0.6621 0.22712 0.72248 0.0
C1468 C 0.57131 0.18119 0.70739 0.0
C1469 C 0.5501 0.16714 0.71879 0.0
C1470 C 0.62368 0.20359 0.72115 0.0
C1471 C 0.56682 0.17041 0.73118 0.0
C1472 C 0.68453 0.21484 0.72698 0.0
C1473 C 0.71174 0.28248 0.71652 0.0
N1474 N 0.60288 0.18855 0.73208 0.0
N1475 N 0.67631 0.26062 0.71767 0.0
H1476 H 0.62121 0.17326 0.24251 0.0
H1477 H 0.49969 0.21613 0.19551 0.0
H1478 H 0.59983 0.14459 0.20086 0.0
H1479 H 0.52812 0.25652 0.23564 0.0
H1480 H 0.5255 0.17851 0.19929 0.0
H1481 H 0.5779 0.19354 0.24197 0.0
C1482 C 0.60698 0.17072 0.23332 0.0
C1483 C 0.61435 0.15764 0.22165 0.0
C1484 C 0.52571 0.19512 0.20738 0.0
C1485 C 0.56495 0.18065 0.22098 0.0
C1486 C 0.51082 0.21641 0.20523 0.0
C1487 C 0.51202 0.23931 0.21527 0.0
C1488 C 0.54272 0.19739 0.21957 0.0
C1489 C 0.52666 0.23894 0.2277 0.0
C1490 C 0.58234 0.18234 0.23301 0.0
C1491 C 0.59522 0.15487 0.21003 0.0
N1492 N 0.54209 0.21869 0.22945 0.0
N1493 N 0.57162 0.16654 0.20996 0.0
H1494 H 0.77136 0.26567 0.23071 0.0
H1495 H 0.8277 0.44659 0.1953 0.0
H1496 H 0.70263 0.28202 0.20408 0.0
H1497 H 0.8426 0.45082 0.23809 0.0
H1498 H 0.79621 0.38208 0.19643 0.0
H1499 H 0.8097 0.3307 0.23244 0.0
C1500 C 0.76405 0.28271 0.22539 0.0
C1501 C 0.73398 0.26822 0.21705 0.0
C1502 C 0.80684 0.39723 0.20554 0.0
C1503 C 0.77787 0.3417 0.21873 0.0
C1504 C 0.82487 0.43401 0.20492 0.0
C1505 C 0.83716 0.45408 0.21666 0.0
C1506 C 0.80154 0.38032 0.21794 0.0
C1507 C 0.83313 0.43622 0.22883 0.0
C1508 C 0.78595 0.31963 0.22636 0.0
C1509 C 0.72578 0.29166 0.21042 0.0
N1510 N 0.81533 0.40011 0.2292 0.0
N1511 N 0.74787 0.32707 0.21123 0.0
H1512 H 0.73019 0.51621 0.21783 0.0
H1513 H 0.55327 0.34203 0.23972 0.0
H1514 H 0.72935 0.41894 0.22648 0.0
H1515 H 0.55624 0.40572 0.20621 0.0
H1516 H 0.61784 0.37963 0.2421 0.0
H1517 H 0.66561 0.48533 0.22135 0.0
C1518 C 0.71657 0.48876 0.22101 0.0
C1519 C 0.73479 0.46996 0.22197 0.0
C1520 C 0.60415 0.38558 0.23438 0.0
C1521 C 0.66176 0.43489 0.22591 0.0
C1522 C 0.5675 0.36429 0.23302 0.0
C1523 C 0.5497 0.37087 0.22271 0.0
C1524 C 0.62276 0.41414 0.22563 0.0
C1525 C 0.56921 0.39976 0.2142 0.0
C1526 C 0.67987 0.47116 0.22284 0.0
C1527 C 0.71603 0.43423 0.22576 0.0
N1528 N 0.60482 0.42054 0.21588 0.0
N1529 N 0.68036 0.4177 0.22756 0.0
H1530 H 0.54823 0.16225 0.96872 0.0
H1531 H 0.49745 0.28162 0.92379 0.0
H1532 H 0.588 0.19501 0.92874 0.0
H1533 H 0.47741 0.26376 0.96612 0.0
H1534 H 0.51916 0.23947 0.92363 0.0
H1535 H 0.50953 0.18724 0.96583 0.0
C1536 C 0.54808 0.17406 0.9592 0.0
C1537 C 0.57118 0.17676 0.94895 0.0
C1538 C 0.50955 0.24444 0.9329 0.0
C1539 C 0.52797 0.20649 0.9457 0.0
C1540 C 0.4971 0.26841 0.93301 0.0
C1541 C 0.48595 0.2764 0.94503 0.0
C1542 C 0.51058 0.22823 0.94489 0.0
C1543 C 0.48606 0.25859 0.95667 0.0
C1544 C 0.52622 0.18853 0.95758 0.0
C1545 C 0.57029 0.19234 0.93682 0.0
N1546 N 0.4984 0.23553 0.95632 0.0
N1547 N 0.54938 0.20723 0.93558 0.0
H1548 H 0.84809 0.39655 0.94919 0.0
H1549 H 0.6802 0.21953 0.92301 0.0
H1550 H 0.75336 0.3952 0.93586 0.0
H1551 H 0.7368 0.22301 0.9589 0.0
H1552 H 0.71836 0.28405 0.92073 0.0
H1553 H 0.81891 0.33229 0.94524 0.0
C1554 C 0.82171 0.3829 0.94489 0.0
C1555 C 0.803 0.40084 0.94272 0.0
C1556 C 0.72266 0.27045 0.92896 0.0
C1557 C 0.76981 0.32816 0.93831 0.0
C1558 C 0.70105 0.23383 0.93027 0.0
C1559 C 0.70538 0.21621 0.94121 0.0
C1560 C 0.74928 0.28918 0.93845 0.0
C1561 C 0.73254 0.23581 0.95039 0.0
C1562 C 0.80503 0.34638 0.9428 0.0
C1563 C 0.76857 0.38207 0.93752 0.0
N1564 N 0.75362 0.27137 0.94879 0.0
N1565 N 0.7529 0.34655 0.93552 0.0
H1566 H 0.78039 0.51114 0.92598 0.0
H1567 H 0.60735 0.35507 0.95382 0.0
H1568 H 0.76937 0.48267 0.96778 0.0
H1569 H 0.59359 0.43875 0.93705 0.0
H1570 H 0.67133 0.39294 0.95181 0.0
H1571 H 0.71521 0.47839 0.92388 0.0
C1572 C 0.76435 0.49846 0.93473 0.0
C1573 C 0.7803 0.49919 0.94705 0.0
C1574 C 0.65418 0.4027 0.94839 0.0
C1575 C 0.70667 0.46151 0.94457 0.0
C1576 C 0.61771 0.38119 0.94948 0.0
C1577 C 0.59507 0.39408 0.94589 0.0
C1578 C 0.66828 0.43718 0.94348 0.0
C1579 C 0.61013 0.42792 0.94004 0.0
C1580 C 0.72736 0.47991 0.93349 0.0
C1581 C 0.75832 0.48247 0.95807 0.0
N1582 N 0.6461 0.44869 0.93915 0.0
N1583 N 0.72264 0.46369 0.95649 0.0
H1584 H 0.36983 0.81608 0.75688 0.0
H1585 H 0.48723 0.77079 0.80511 0.0
H1586 H 0.39376 0.849 0.79807 0.0
H1587 H 0.46629 0.73555 0.76414 0.0
H1588 H 0.46059 0.80742 0.80121 0.0
H1589 H 0.4115 0.79374 0.75789 0.0
C1590 C 0.38425 0.81908 0.76607 0.0
C1591 C 0.37809 0.834 0.77748 0.0
C1592 C 0.46199 0.79204 0.79298 0.0
C1593 C 0.42555 0.80861 0.77869 0.0
C1594 C 0.47723 0.77115 0.79522 0.0
C1595 C 0.47848 0.74997 0.78496 0.0
C1596 C 0.44711 0.79124 0.78045 0.0
C1597 C 0.46564 0.75157 0.77229 0.0
C1598 C 0.40796 0.8063 0.76664 0.0
C1599 C 0.39741 0.83731 0.7891 0.0
N1600 N 0.44983 0.77147 0.77042 0.0
N1601 N 0.42002 0.82447 0.78943 0.0
H1602 H 0.24579 0.73013 0.76368 0.0
H1603 H 0.1459 0.54254 0.80101 0.0
H1604 H 0.24848 0.71402 0.80615 0.0
H1605 H 0.17035 0.5514 0.75887 0.0
H1606 H 0.17123 0.60655 0.80208 0.0
H1607 H 0.20726 0.66549 0.76089 0.0
C1608 C 0.23807 0.71307 0.77238 0.0
C1609 C 0.25072 0.72725 0.78513 0.0
C1610 C 0.17079 0.5945 0.79256 0.0
C1611 C 0.20657 0.65419 0.78209 0.0
C1612 C 0.15624 0.55794 0.79194 0.0
C1613 C 0.15656 0.54177 0.77989 0.0
C1614 C 0.18592 0.61512 0.78105 0.0
C1615 C 0.16992 0.56297 0.7684 0.0
C1616 C 0.21622 0.67636 0.7708 0.0
C1617 C 0.23989 0.70415 0.79611 0.0
N1618 N 0.18451 0.59875 0.76928 0.0
N1619 N 0.21853 0.66889 0.79433 0.0
H1620 H 0.44184 0.61951 0.76011 0.0
H1621 H 0.27573 0.54217 0.80835 0.0
H1622 H 0.44731 0.61173 0.80297 0.0
H1623 H 0.26243 0.51466 0.76644 0.0
H1624 H 0.33924 0.56985 0.80579 0.0
H1625 H 0.37695 0.58212 0.76135 0.0
C1626 C 0.42946 0.60955 0.76974 0.0
C1627 C 0.44989 0.61906 0.78149 0.0
C1628 C 0.32263 0.55765 0.79711 0.0
C1629 C 0.37616 0.57682 0.78295 0.0
C1630 C 0.28621 0.54203 0.79854 0.0
C1631 C 0.26366 0.52635 0.78755 0.0
C1632 C 0.33711 0.5582 0.78455 0.0
C1633 C 0.27893 0.52656 0.77515 0.0
C1634 C 0.39251 0.58826 0.77042 0.0
C1635 C 0.43261 0.60544 0.79368 0.0
N1636 N 0.31492 0.54267 0.77393 0.0
N1637 N 0.39679 0.58535 0.7941 0.0
H1638 H 0.38247 0.77801 0.06857 0.0
H1639 H 0.51521 0.73216 0.03322 0.0
H1640 H 0.45601 0.84532 0.03844 0.0
H1641 H 0.48032 0.69763 0.07362 0.0
H1642 H 0.49252 0.77324 0.03492 0.0
H1643 H 0.41745 0.74821 0.07123 0.0
C1644 C 0.40671 0.78727 0.0629 0.0
C1645 C 0.4169 0.81431 0.05343 0.0
C1646 C 0.49022 0.757 0.04348 0.0
C1647 C 0.45579 0.77971 0.05592 0.0
C1648 C 0.50298 0.73345 0.04247 0.0
C1649 C 0.49953 0.71152 0.05328 0.0
C1650 C 0.47316 0.758 0.05526 0.0
C1651 C 0.48354 0.71422 0.06507 0.0
C1652 C 0.42647 0.77018 0.06432 0.0
C1653 C 0.44777 0.82481 0.04597 0.0
N1654 N 0.47043 0.73669 0.06569 0.0
N1655 N 0.46586 0.80711 0.04721 0.0
H1656 H 0.17393 0.6154 0.02664 0.0
H1657 H 0.29129 0.78192 0.0736 0.0
H1658 H 0.1973 0.604 0.06761 0.0
H1659 H 0.27512 0.78691 0.03127 0.0
H1660 H 0.24899 0.7179 0.0731 0.0
H1661 H 0.20148 0.67909 0.02984 0.0
C1662 C 0.18459 0.62648 0.03639 0.0
C1663 C 0.1838 0.60476 0.04684 0.0
C1664 C 0.25443 0.73315 0.06398 0.0
C1665 C 0.2163 0.6778 0.05054 0.0
C1666 C 0.27846 0.76962 0.06425 0.0
C1667 C 0.28688 0.78956 0.05241 0.0
C1668 C 0.23866 0.7168 0.0518 0.0
C1669 C 0.26965 0.77245 0.04059 0.0
C1670 C 0.20041 0.66283 0.03822 0.0
C1671 C 0.19755 0.62012 0.05932 0.0
N1672 N 0.24653 0.73709 0.04058 0.0
N1673 N 0.21388 0.656 0.06079 0.0
H1674 H 0.39945 0.60162 0.06862 0.0
H1675 H 0.21403 0.48569 0.03201 0.0
H1676 H 0.38648 0.5537 0.02983 0.0
H1677 H 0.22164 0.51881 0.07311 0.0
H1678 H 0.27728 0.50608 0.0321 0.0
H1679 H 0.33472 0.56676 0.07186 0.0
C1680 C 0.38299 0.58292 0.061 0.0
C1681 C 0.3979 0.58031 0.04895 0.0
C1682 C 0.26519 0.50865 0.04117 0.0
C1683 C 0.32455 0.54127 0.05238 0.0
C1684 C 0.22906 0.49708 0.04109 0.0
C1685 C 0.21272 0.50085 0.05252 0.0
C1686 C 0.28538 0.52468 0.05271 0.0
C1687 C 0.23335 0.51555 0.06406 0.0
C1688 C 0.34615 0.56328 0.06278 0.0
C1689 C 0.37573 0.55636 0.03924 0.0
N1690 N 0.26878 0.52739 0.06382 0.0
N1691 N 0.34017 0.53804 0.0411 0.0
H1692 H 0.22146 0.61805 0.56884 0.0
H1693 H 0.2604 0.47725 0.53643 0.0
H1694 H 0.15358 0.54416 0.5389 0.0
H1695 H 0.29862 0.51879 0.5759 0.0
H1696 H 0.21993 0.50069 0.53755 0.0
H1697 H 0.24868 0.5811 0.57253 0.0
C1698 C 0.21164 0.59342 0.56337 0.0
C1699 C 0.18521 0.58366 0.55367 0.0
C1700 C 0.23678 0.50425 0.54606 0.0
C1701 C 0.21672 0.54232 0.5574 0.0
C1702 C 0.25997 0.49103 0.54539 0.0
C1703 C 0.28294 0.49634 0.55605 0.0
C1704 C 0.23717 0.52361 0.55735 0.0
C1705 C 0.28129 0.5142 0.56746 0.0
C1706 C 0.22718 0.57248 0.56541 0.0
C1707 C 0.17373 0.55214 0.54656 0.0
N1708 N 0.25918 0.52776 0.56773 0.0
N1709 N 0.18995 0.5328 0.54841 0.0
H1710 H 0.42969 0.60886 0.52714 0.0
H1711 H 0.49022 0.77837 0.57367 0.0
H1712 H 0.40442 0.59979 0.56913 0.0
H1713 H 0.50761 0.7812 0.53112 0.0
H1714 H 0.46647 0.71398 0.57339 0.0
H1715 H 0.46689 0.67259 0.52967 0.0
C1716 C 0.43241 0.62046 0.53696 0.0
C1717 C 0.41385 0.59931 0.54792 0.0
C1718 C 0.47591 0.72883 0.56417 0.0
C1719 C 0.45579 0.67258 0.55089 0.0
C1720 C 0.48953 0.76552 0.56432 0.0
C1721 C 0.50061 0.78501 0.55237 0.0
C1722 C 0.47363 0.71176 0.55199 0.0
C1723 C 0.49907 0.76716 0.54053 0.0
C1724 C 0.45359 0.65688 0.53841 0.0
C1725 C 0.41843 0.61542 0.56046 0.0
N1726 N 0.48567 0.7316 0.54064 0.0
N1727 N 0.4386 0.65137 0.56159 0.0
H1728 H 0.39236 0.76025 0.5649 0.0
H1729 H 0.21747 0.73718 0.53648 0.0
H1730 H 0.39151 0.8484 0.54581 0.0
H1731 H 0.21598 0.6909 0.57477 0.0
H1732 H 0.28177 0.7763 0.53873 0.0
H1733 H 0.32802 0.73221 0.56842 0.0
C1734 C 0.37867 0.77412 0.56186 0.0
C1735 C 0.39692 0.80674 0.55526 0.0
C1736 C 0.2672 0.75796 0.54672 0.0
C1737 C 0.32382 0.77439 0.55859 0.0
C1738 C 0.23069 0.73557 0.5454 0.0
C1739 C 0.21161 0.71094 0.55545 0.0
C1740 C 0.28474 0.75481 0.55797 0.0
C1741 C 0.22984 0.70976 0.56684 0.0
C1742 C 0.34211 0.75815 0.5638 0.0
C1743 C 0.37818 0.82345 0.55114 0.0
N1744 N 0.26561 0.73095 0.56769 0.0
N1745 N 0.34239 0.80669 0.5526 0.0
H1746 H 0.24391 0.52473 0.30671 0.0
H1747 H 0.17362 0.61892 0.25745 0.0
H1748 H 0.25553 0.52332 0.26392 0.0
H1749 H 0.15314 0.60611 0.29989 0.0
H1750 H 0.19848 0.57946 0.25883 0.0
H1751 H 0.20567 0.54977 0.30373 0.0
C1752 C 0.23821 0.52963 0.29663 0.0
C1753 C 0.25327 0.52248 0.28554 0.0
C1754 C 0.18804 0.58488 0.26779 0.0
C1755 C 0.20955 0.55164 0.28201 0.0
C1756 C 0.17381 0.60734 0.26701 0.0
C1757 C 0.16172 0.61609 0.27862 0.0
C1758 C 0.19019 0.57128 0.28026 0.0
C1759 C 0.16253 0.60038 0.29072 0.0
C1760 C 0.21622 0.54383 0.29493 0.0
C1761 C 0.2445 0.52867 0.27272 0.0
N1762 N 0.17685 0.57905 0.29124 0.0
N1763 N 0.22357 0.54351 0.27129 0.0
H1764 H 0.41442 0.725 0.28849 0.0
H1765 H 0.39144 0.55468 0.25616 0.0
H1766 H 0.51029 0.73931 0.26994 0.0
H1767 H 0.37847 0.56059 0.2987 0.0
H1768 H 0.42507 0.61999 0.25527 0.0
H1769 H 0.38744 0.66126 0.28549 0.0
C1770 C 0.42967 0.71483 0.28357 0.0
C1771 C 0.46504 0.7375 0.27975 0.0
C1772 C 0.4152 0.6067 0.26477 0.0
C1773 C 0.43386 0.66458 0.27618 0.0
C1774 C 0.39605 0.56965 0.26532 0.0
C1775 C 0.38187 0.55226 0.27753 0.0
C1776 C 0.4192 0.62605 0.27644 0.0
C1777 C 0.38865 0.57281 0.28908 0.0
C1778 C 0.4142 0.6785 0.28191 0.0
C1779 C 0.48308 0.72272 0.27313 0.0
N1780 N 0.40621 0.60866 0.28821 0.0
N1781 N 0.46736 0.68686 0.27166 0.0
H1782 H 0.45263 0.8471 0.25891 0.0
H1783 H 0.28368 0.70169 0.2934 0.0
H1784 H 0.44719 0.83246 0.30172 0.0
H1785 H 0.26729 0.77359 0.26866 0.0
H1786 H 0.3473 0.74073 0.29149 0.0
H1787 H 0.38733 0.81445 0.25806 0.0
C1788 C 0.43778 0.8376 0.26813 0.0
C1789 C 0.45534 0.84195 0.2804 0.0
C1790 C 0.3297 0.74777 0.28642 0.0
C1791 C 0.38146 0.8043 0.27936 0.0
C1792 C 0.29334 0.72551 0.28743 0.0
C1793 C 0.26991 0.73472 0.28142 0.0
C1794 C 0.34304 0.77929 0.27916 0.0
C1795 C 0.28436 0.76563 0.27356 0.0
C1796 C 0.40069 0.81906 0.2676 0.0
C1797 C 0.43486 0.82928 0.29203 0.0
N1798 N 0.32026 0.78711 0.27269 0.0
N1799 N 0.39901 0.81032 0.29119 0.0
loop_
_geom_bond_atom_site_label_1
_geom_bond_atom_site_label_2
_geom_bond_distance
_geom_bond_site_symmetry_2
_ccdc_geom_bond_type
Co0 O1 2.216 . S
Co0 O2 2.091 . S
Co0 O4 2.004 . S
Co0 O10 2.021 . S
Co0 O12 2.129 1_545 S
Co0 O13 2.244 . S
O1 Co0 2.216 . S
O1 C8 1.247 . S
O2 Co0 2.091 . S
O2 C8 1.261 . S
C3 O12 1.247 . S
C3 O13 1.272 1_565 S
O4 Co0 2.004 . S
O4 C9 1.259 . S
Co5 O6 2.061 . S
Co5 O11 2.052 . S
Co5 O13 2.135 . S
O6 Co5 2.061 . S
O6 C9 1.235 . S
C7 O10 1.238 . S
C7 O11 1.241 . S
C8 O1 1.247 . S
C8 O2 1.261 . S
C9 O4 1.259 . S
C9 O6 1.235 . S
O10 Co0 2.021 . S
O10 C7 1.238 . S
O11 Co5 2.052 . S
O11 C7 1.241 . S
O12 Co0 2.129 1_565 S
O12 C3 1.247 . S
O13 Co0 2.244 . S
O13 C3 1.272 1_545 S
O13 Co5 2.135 . S
Co14 O15 2.216 . S
Co14 O16 2.091 . S
Co14 O18 2.004 . S
Co14 O24 2.021 . S
Co14 O26 2.123 1_655 S
Co14 O27 2.244 . S
O15 Co14 2.216 . S
O15 C22 1.247 . S
O16 Co14 2.091 . S
O16 C22 1.261 . S
C17 O26 1.251 . S
C17 O27 1.272 1_455 S
O18 Co14 2.004 . S
O18 C23 1.259 . S
Co19 O20 2.061 . S
Co19 O25 2.052 . S
Co19 O27 2.135 . S
O20 Co19 2.061 . S
O20 C23 1.235 . S
C21 O24 1.238 . S
C21 O25 1.241 . S
C22 O15 1.247 . S
C22 O16 1.261 . S
C23 O18 1.259 . S
C23 O20 1.235 . S
O24 Co14 2.021 . S
O24 C21 1.238 . S
O25 Co19 2.052 . S
O25 C21 1.241 . S
O26 Co14 2.123 1_455 S
O26 C17 1.251 . S
O27 Co14 2.244 . S
O27 C17 1.272 1_655 S
O27 Co19 2.135 . S
Co28 O29 2.216 . S
Co28 O30 2.091 . S
Co28 O32 2.004 . S
Co28 O38 2.021 . S
Co28 O40 2.137 . S
Co28 O41 2.244 . S
O29 Co28 2.216 . S
O29 C36 1.247 . S
O30 Co28 2.091 . S
O30 C36 1.261 . S
C31 O40 1.247 . S
C31 O41 1.272 . S
O32 Co28 2.004 . S
O32 C37 1.259 . S
Co33 O34 2.061 . S
Co33 O39 2.052 . S
Co33 O41 2.135 . S
O34 Co33 2.061 . S
O34 C37 1.235 . S
C35 O38 1.238 . S
C35 O39 1.241 . S
C36 O29 1.247 . S
C36 O30 1.261 . S
C37 O32 1.259 . S
C37 O34 1.235 . S
O38 Co28 2.021 . S
O38 C35 1.238 . S
O39 Co33 2.052 . S
O39 C35 1.241 . S
O40 Co28 2.137 . S
O40 C31 1.247 . S
O41 Co28 2.244 . S
O41 C31 1.272 . S
O41 Co33 2.135 . S
Co42 O43 2.216 . S
Co42 O44 2.091 . S
Co42 O46 2.004 . S
Co42 O52 2.021 . S
Co42 O54 2.129 1_455 S
Co42 O55 2.244 . S
O43 Co42 2.216 . S
O43 C50 1.247 . S
O44 Co42 2.091 . S
O44 C50 1.261 . S
C45 O54 1.247 . S
C45 O55 1.272 1_655 S
O46 Co42 2.004 . S
O46 C51 1.259 . S
Co47 O48 2.061 . S
Co47 O53 2.052 . S
Co47 O55 2.135 . S
O48 Co47 2.061 . S
O48 C51 1.235 . S
C49 O52 1.238 . S
C49 O53 1.241 . S
C50 O43 1.247 . S
C50 O44 1.261 . S
C51 O46 1.259 . S
C51 O48 1.235 . S
O52 Co42 2.021 . S
O52 C49 1.238 . S
O53 Co47 2.052 . S
O53 C49 1.241 . S
O54 Co42 2.129 1_655 S
O54 C45 1.247 . S
O55 Co42 2.244 . S
O55 C45 1.272 1_455 S
O55 Co47 2.135 . S
Co56 O57 2.216 . S
Co56 O58 2.091 . S
Co56 O60 2.004 . S
Co56 O66 2.021 . S
Co56 O68 2.137 . S
Co56 O69 2.244 . S
O57 Co56 2.216 . S
O57 C64 1.247 . S
O58 Co56 2.091 . S
O58 C64 1.261 . S
C59 O68 1.247 . S
C59 O69 1.272 . S
O60 Co56 2.004 . S
O60 C65 1.259 . S
Co61 O62 2.061 . S
Co61 O67 2.052 . S
Co61 O69 2.135 . S
O62 Co61 2.061 . S
O62 C65 1.235 . S
C63 O66 1.238 . S
C63 O67 1.241 . S
C64 O57 1.247 . S
C64 O58 1.261 . S
C65 O60 1.259 . S
C65 O62 1.235 . S
O66 Co56 2.021 . S
O66 C63 1.238 . S
O67 Co61 2.052 . S
O67 C63 1.241 . S
O68 Co56 2.137 . S
O68 C59 1.247 . S
O69 Co56 2.244 . S
O69 C59 1.272 . S
O69 Co61 2.135 . S
Co70 O71 2.216 . S
Co70 O72 2.091 . S
Co70 O74 2.004 . S
Co70 O80 2.021 . S
Co70 O82 2.123 1_565 S
Co70 O83 2.244 . S
O71 Co70 2.216 . S
O71 C78 1.247 . S
O72 Co70 2.091 . S
O72 C78 1.261 . S
C73 O82 1.251 . S
C73 O83 1.272 1_545 S
O74 Co70 2.004 . S
O74 C79 1.259 . S
Co75 O76 2.061 . S
Co75 O81 2.052 . S
Co75 O83 2.135 . S
O76 Co75 2.061 . S
O76 C79 1.235 . S
C77 O80 1.238 . S
C77 O81 1.241 . S
C78 O71 1.247 . S
C78 O72 1.261 . S
C79 O74 1.259 . S
C79 O76 1.235 . S
O80 Co70 2.021 . S
O80 C77 1.238 . S
O81 Co75 2.052 . S
O81 C77 1.241 . S
O82 Co70 2.123 1_545 S
O82 C73 1.251 . S
O83 Co70 2.244 . S
O83 C73 1.272 1_565 S
O83 Co75 2.135 . S
Co84 O85 2.216 . S
Co84 O86 2.091 . S
Co84 O88 2.004 . S
Co84 O94 2.021 . S
Co84 O96 2.129 1_565 S
Co84 O97 2.244 . S
O85 Co84 2.216 . S
O85 C92 1.247 . S
O86 Co84 2.091 . S
O86 C92 1.261 . S
C87 O96 1.247 . S
C87 O97 1.272 1_545 S
O88 Co84 2.004 . S
O88 C93 1.259 . S
Co89 O90 2.061 . S
Co89 O95 2.052 . S
Co89 O97 2.135 . S
O90 Co89 2.061 . S
O90 C93 1.235 . S
C91 O94 1.238 . S
C91 O95 1.241 . S
C92 O85 1.247 . S
C92 O86 1.261 . S
C93 O88 1.259 . S
C93 O90 1.235 . S
O94 Co84 2.021 . S
O94 C91 1.238 . S
O95 Co89 2.052 . S
O95 C91 1.241 . S
O96 Co84 2.129 1_545 S
O96 C87 1.247 . S
O97 Co84 2.244 . S
O97 C87 1.272 1_565 S
O97 Co89 2.135 . S
Co98 O99 2.216 . S
Co98 O100 2.091 . S
Co98 O102 2.004 . S
Co98 O108 2.021 . S
Co98 O110 2.123 1_455 S
Co98 O111 2.244 . S
O99 Co98 2.216 . S
O99 C106 1.247 . S
O100 Co98 2.091 . S
O100 C106 1.261 . S
C101 O110 1.251 . S
C101 O111 1.272 1_655 S
O102 Co98 2.004 . S
O102 C107 1.259 . S
Co103 O104 2.061 . S
Co103 O109 2.052 . S
Co103 O111 2.135 . S
O104 Co103 2.061 . S
O104 C107 1.235 . S
C105 O108 1.238 . S
C105 O109 1.241 . S
C106 O99 1.247 . S
C106 O100 1.261 . S
C107 O102 1.259 . S
C107 O104 1.235 . S
O108 Co98 2.021 . S
O108 C105 1.238 . S
O109 Co103 2.052 . S
O109 C105 1.241 . S
O110 Co98 2.123 1_655 S
O110 C101 1.251 . S
O111 Co98 2.244 . S
O111 C101 1.272 1_455 S
O111 Co103 2.135 . S
Co112 O113 2.216 . S
Co112 O114 2.091 . S
Co112 O116 2.004 . S
Co112 O122 2.021 . S
Co112 O124 2.137 . S
Co112 O125 2.244 . S
O113 Co112 2.216 . S
O113 C120 1.247 . S
O114 Co112 2.091 . S
O114 C120 1.261 . S
C115 O124 1.247 . S
C115 O125 1.272 . S
O116 Co112 2.004 . S
O116 C121 1.259 . S
Co117 O118 2.061 . S
Co117 O123 2.052 . S
Co117 O125 2.135 . S
O118 Co117 2.061 . S
O118 C121 1.235 . S
C119 O122 1.238 . S
C119 O123 1.241 . S
C120 O113 1.247 . S
C120 O114 1.261 . S
C121 O116 1.259 . S
C121 O118 1.235 . S
O122 Co112 2.021 . S
O122 C119 1.238 . S
O123 Co117 2.052 . S
O123 C119 1.241 . S
O124 Co112 2.137 . S
O124 C115 1.247 . S
O125 Co112 2.244 . S
O125 C115 1.272 . S
O125 Co117 2.135 . S
Co126 O127 2.216 . S
Co126 O128 2.091 . S
Co126 O130 2.004 . S
Co126 O136 2.021 . S
Co126 O138 2.129 1_655 S
Co126 O139 2.244 . S
O127 Co126 2.216 . S
O127 C134 1.247 . S
O128 Co126 2.091 . S
O128 C134 1.261 . S
C129 O138 1.247 . S
C129 O139 1.272 1_455 S
O130 Co126 2.004 . S
O130 C135 1.259 . S
Co131 O132 2.061 . S
Co131 O137 2.052 . S
Co131 O139 2.135 . S
O132 Co131 2.061 . S
O132 C135 1.235 . S
C133 O136 1.238 . S
C133 O137 1.241 . S
C134 O127 1.247 . S
C134 O128 1.261 . S
C135 O130 1.259 . S
C135 O132 1.235 . S
O136 Co126 2.021 . S
O136 C133 1.238 . S
O137 Co131 2.052 . S
O137 C133 1.241 . S
O138 Co126 2.129 1_455 S
O138 C129 1.247 . S
O139 Co126 2.244 . S
O139 C129 1.272 1_655 S
O139 Co131 2.135 . S
Co140 O141 2.216 . S
Co140 O142 2.091 . S
Co140 O144 2.004 . S
Co140 O150 2.021 . S
Co140 O152 2.137 . S
Co140 O153 2.244 . S
O141 Co140 2.216 . S
O141 C148 1.247 . S
O142 Co140 2.091 . S
O142 C148 1.261 . S
C143 O152 1.247 . S
C143 O153 1.272 . S
O144 Co140 2.004 . S
O144 C149 1.259 . S
Co145 O146 2.061 . S
Co145 O151 2.052 . S
Co145 O153 2.135 . S
O146 Co145 2.061 . S
O146 C149 1.235 . S
C147 O150 1.238 . S
C147 O151 1.241 . S
C148 O141 1.247 . S
C148 O142 1.261 . S
C149 O144 1.259 . S
C149 O146 1.235 . S
O150 Co140 2.021 . S
O150 C147 1.238 . S
O151 Co145 2.052 . S
O151 C147 1.241 . S
O152 Co140 2.137 . S
O152 C143 1.247 . S
O153 Co140 2.244 . S
O153 C143 1.272 . S
O153 Co145 2.135 . S
Co154 O155 2.216 . S
Co154 O156 2.091 . S
Co154 O158 2.004 . S
Co154 O164 2.021 . S
Co154 O166 2.123 1_545 S
Co154 O167 2.244 . S
O155 Co154 2.216 . S
O155 C162 1.247 . S
O156 Co154 2.091 . S
O156 C162 1.261 . S
C157 O166 1.251 . S
C157 O167 1.272 1_565 S
O158 Co154 2.004 . S
O158 C163 1.259 . S
Co159 O160 2.061 . S
Co159 O165 2.052 . S
Co159 O167 2.135 . S
O160 Co159 2.061 . S
O160 C163 1.235 . S
C161 O164 1.238 . S
C161 O165 1.241 . S
C162 O155 1.247 . S
C162 O156 1.261 . S
C163 O158 1.259 . S
C163 O160 1.235 . S
O164 Co154 2.021 . S
O164 C161 1.238 . S
O165 Co159 2.052 . S
O165 C161 1.241 . S
O166 Co154 2.123 1_565 S
O166 C157 1.251 . S
O167 Co154 2.244 . S
O167 C157 1.272 1_545 S
O167 Co159 2.135 . S
Co168 O169 2.216 . S
Co168 O170 2.091 . S
Co168 O172 2.004 . S
Co168 O178 2.021 . S
Co168 O180 2.137 . S
Co168 O181 2.244 . S
O169 Co168 2.216 . S
O169 C176 1.247 . S
O170 Co168 2.091 . S
O170 C176 1.261 . S
C171 O180 1.247 . S
C171 O181 1.272 . S
O172 Co168 2.004 . S
O172 C177 1.259 . S
Co173 O174 2.061 . S
Co173 O179 2.052 . S
Co173 O181 2.135 . S
O174 Co173 2.061 . S
O174 C177 1.235 . S
C175 O178 1.238 . S
C175 O179 1.241 . S
C176 O169 1.247 . S
C176 O170 1.261 . S
C177 O172 1.259 . S
C177 O174 1.235 . S
O178 Co168 2.021 . S
O178 C175 1.238 . S
O179 Co173 2.052 . S
O179 C175 1.241 . S
O180 Co168 2.137 . S
O180 C171 1.247 . S
O181 Co168 2.244 . S
O181 C171 1.272 . S
O181 Co173 2.135 . S
Co182 O183 2.216 . S
Co182 O184 2.091 . S
Co182 O186 2.004 . S
Co182 O192 2.021 . S
Co182 O194 2.137 . S
Co182 O195 2.244 . S
O183 Co182 2.216 . S
O183 C190 1.247 . S
O184 Co182 2.091 . S
O184 C190 1.261 . S
C185 O194 1.247 . S
C185 O195 1.272 . S
O186 Co182 2.004 . S
O186 C191 1.259 . S
Co187 O188 2.061 . S
Co187 O193 2.052 . S
Co187 O195 2.135 . S
O188 Co187 2.061 . S
O188 C191 1.235 . S
C189 O192 1.238 . S
C189 O193 1.241 . S
C190 O183 1.247 . S
C190 O184 1.261 . S
C191 O186 1.259 . S
C191 O188 1.235 . S
O192 Co182 2.021 . S
O192 C189 1.238 . S
O193 Co187 2.052 . S
O193 C189 1.241 . S
O194 Co182 2.137 . S
O194 C185 1.247 . S
O195 Co182 2.244 . S
O195 C185 1.272 . S
O195 Co187 2.135 . S
Co196 O197 2.216 . S
Co196 O198 2.091 . S
Co196 O200 2.004 . S
Co196 O206 2.021 . S
Co196 O208 2.137 . S
Co196 O209 2.244 . S
O197 Co196 2.216 . S
O197 C204 1.247 . S
O198 Co196 2.091 . S
O198 C204 1.261 . S
C199 O208 1.247 . S
C199 O209 1.272 . S
O200 Co196 2.004 . S
O200 C205 1.259 . S
Co201 O202 2.061 . S
Co201 O207 2.052 . S
Co201 O209 2.135 . S
O202 Co201 2.061 . S
O202 C205 1.235 . S
C203 O206 1.238 . S
C203 O207 1.241 . S
C204 O197 1.247 . S
C204 O198 1.261 . S
C205 O200 1.259 . S
C205 O202 1.235 . S
O206 Co196 2.021 . S
O206 C203 1.238 . S
O207 Co201 2.052 . S
O207 C203 1.241 . S
O208 Co196 2.137 . S
O208 C199 1.247 . S
O209 Co196 2.244 . S
O209 C199 1.272 . S
O209 Co201 2.135 . S
Co210 O211 2.216 . S
Co210 O212 2.091 . S
Co210 O214 2.004 . S
Co210 O220 2.021 . S
Co210 O222 2.137 . S
Co210 O223 2.244 . S
O211 Co210 2.216 . S
O211 C218 1.247 . S
O212 Co210 2.091 . S
O212 C218 1.261 . S
C213 O222 1.247 . S
C213 O223 1.272 . S
O214 Co210 2.004 . S
O214 C219 1.259 . S
Co215 O216 2.061 . S
Co215 O221 2.052 . S
Co215 O223 2.135 . S
O216 Co215 2.061 . S
O216 C219 1.235 . S
C217 O220 1.238 . S
C217 O221 1.241 . S
C218 O211 1.247 . S
C218 O212 1.261 . S
C219 O214 1.259 . S
C219 O216 1.235 . S
O220 Co210 2.021 . S
O220 C217 1.238 . S
O221 Co215 2.052 . S
O221 C217 1.241 . S
O222 Co210 2.137 . S
O222 C213 1.247 . S
O223 Co210 2.244 . S
O223 C213 1.272 . S
O223 Co215 2.135 . S
Co224 O225 2.216 . S
Co224 O226 2.091 . S
Co224 O228 2.004 . S
Co224 O234 2.021 . S
Co224 O236 2.137 . S
Co224 O237 2.244 . S
O225 Co224 2.216 . S
O225 C232 1.247 . S
O226 Co224 2.091 . S
O226 C232 1.261 . S
C227 O236 1.247 . S
C227 O237 1.272 . S
O228 Co224 2.004 . S
O228 C233 1.259 . S
Co229 O230 2.061 . S
Co229 O235 2.052 . S
Co229 O237 2.135 . S
O230 Co229 2.061 . S
O230 C233 1.235 . S
C231 O234 1.238 . S
C231 O235 1.241 . S
C232 O225 1.247 . S
C232 O226 1.261 . S
C233 O228 1.259 . S
C233 O230 1.235 . S
O234 Co224 2.021 . S
O234 C231 1.238 . S
O235 Co229 2.052 . S
O235 C231 1.241 . S
O236 Co224 2.137 . S
O236 C227 1.247 . S
O237 Co224 2.244 . S
O237 C227 1.272 . S
O237 Co229 2.135 . S
Co238 O239 2.216 . S
Co238 O240 2.091 . S
Co238 O242 2.004 . S
Co238 O248 2.021 . S
Co238 O250 2.137 . S
Co238 O251 2.244 . S
O239 Co238 2.216 . S
O239 C246 1.247 . S
O240 Co238 2.091 . S
O240 C246 1.261 . S
C241 O250 1.247 . S
C241 O251 1.272 . S
O242 Co238 2.004 . S
O242 C247 1.259 . S
Co243 O244 2.061 . S
Co243 O249 2.052 . S
Co243 O251 2.135 . S
O244 Co243 2.061 . S
O244 C247 1.235 . S
C245 O248 1.238 . S
C245 O249 1.241 . S
C246 O239 1.247 . S
C246 O240 1.261 . S
C247 O242 1.259 . S
C247 O244 1.235 . S
O248 Co238 2.021 . S
O248 C245 1.238 . S
O249 Co243 2.052 . S
O249 C245 1.241 . S
O250 Co238 2.137 . S
O250 C241 1.247 . S
O251 Co238 2.244 . S
O251 C241 1.272 . S
O251 Co243 2.135 . S
Co252 O253 2.216 . S
Co252 O254 2.091 . S
Co252 O256 2.004 . S
Co252 O262 2.021 . S
Co252 O264 2.137 . S
Co252 O265 2.244 . S
O253 Co252 2.216 . S
O253 C260 1.247 . S
O254 Co252 2.091 . S
O254 C260 1.261 . S
C255 O264 1.247 . S
C255 O265 1.272 . S
O256 Co252 2.004 . S
O256 C261 1.259 . S
Co257 O258 2.061 . S
Co257 O263 2.052 . S
Co257 O265 2.135 . S
O258 Co257 2.061 . S
O258 C261 1.235 . S
C259 O262 1.238 . S
C259 O263 1.241 . S
C260 O253 1.247 . S
C260 O254 1.261 . S
C261 O256 1.259 . S
C261 O258 1.235 . S
O262 Co252 2.021 . S
O262 C259 1.238 . S
O263 Co257 2.052 . S
O263 C259 1.241 . S
O264 Co252 2.137 . S
O264 C255 1.247 . S
O265 Co252 2.244 . S
O265 C255 1.272 . S
O265 Co257 2.135 . S
Co266 O267 2.216 . S
Co266 O268 2.091 . S
Co266 O270 2.004 . S
Co266 O276 2.021 . S
Co266 O278 2.137 . S
Co266 O279 2.244 . S
O267 Co266 2.216 . S
O267 C274 1.247 . S
O268 Co266 2.091 . S
O268 C274 1.261 . S
C269 O278 1.247 . S
C269 O279 1.272 . S
O270 Co266 2.004 . S
O270 C275 1.259 . S
Co271 O272 2.061 . S
Co271 O277 2.052 . S
Co271 O279 2.135 . S
O272 Co271 2.061 . S
O272 C275 1.235 . S
C273 O276 1.238 . S
C273 O277 1.241 . S
C274 O267 1.247 . S
C274 O268 1.261 . S
C275 O270 1.259 . S
C275 O272 1.235 . S
O276 Co266 2.021 . S
O276 C273 1.238 . S
O277 Co271 2.052 . S
O277 C273 1.241 . S
O278 Co266 2.137 . S
O278 C269 1.247 . S
O279 Co266 2.244 . S
O279 C269 1.272 . S
O279 Co271 2.135 . S
Co280 O281 2.216 . S
Co280 O282 2.091 . S
Co280 O284 2.004 . S
Co280 O290 2.021 . S
Co280 O292 2.137 . S
Co280 O293 2.244 . S
O281 Co280 2.216 . S
O281 C288 1.247 . S
O282 Co280 2.091 . S
O282 C288 1.261 . S
C283 O292 1.247 . S
C283 O293 1.272 . S
O284 Co280 2.004 . S
O284 C289 1.259 . S
Co285 O286 2.061 . S
Co285 O291 2.052 . S
Co285 O293 2.135 . S
O286 Co285 2.061 . S
O286 C289 1.235 . S
C287 O290 1.238 . S
C287 O291 1.241 . S
C288 O281 1.247 . S
C288 O282 1.261 . S
C289 O284 1.259 . S
C289 O286 1.235 . S
O290 Co280 2.021 . S
O290 C287 1.238 . S
O291 Co285 2.052 . S
O291 C287 1.241 . S
O292 Co280 2.137 . S
O292 C283 1.247 . S
O293 Co280 2.244 . S
O293 C283 1.272 . S
O293 Co285 2.135 . S
Co294 O295 2.216 . S
Co294 O296 2.091 . S
Co294 O298 2.004 . S
Co294 O304 2.021 . S
Co294 O306 2.137 . S
Co294 O307 2.244 . S
O295 Co294 2.216 . S
O295 C302 1.247 . S
O296 Co294 2.091 . S
O296 C302 1.261 . S
C297 O306 1.247 . S
C297 O307 1.272 . S
O298 Co294 2.004 . S
O298 C303 1.259 . S
Co299 O300 2.061 . S
Co299 O305 2.052 . S
Co299 O307 2.135 . S
O300 Co299 2.061 . S
O300 C303 1.235 . S
C301 O304 1.238 . S
C301 O305 1.241 . S
C302 O295 1.247 . S
C302 O296 1.261 . S
C303 O298 1.259 . S
C303 O300 1.235 . S
O304 Co294 2.021 . S
O304 C301 1.238 . S
O305 Co299 2.052 . S
O305 C301 1.241 . S
O306 Co294 2.137 . S
O306 C297 1.247 . S
O307 Co294 2.244 . S
O307 C297 1.272 . S
O307 Co299 2.135 . S
Co308 O309 2.216 . S
Co308 O310 2.091 . S
Co308 O312 2.004 . S
Co308 O318 2.021 . S
Co308 O320 2.137 . S
Co308 O321 2.244 . S
O309 Co308 2.216 . S
O309 C316 1.247 . S
O310 Co308 2.091 . S
O310 C316 1.261 . S
C311 O320 1.247 . S
C311 O321 1.272 . S
O312 Co308 2.004 . S
O312 C317 1.259 . S
Co313 O314 2.061 . S
Co313 O319 2.052 . S
Co313 O321 2.135 . S
O314 Co313 2.061 . S
O314 C317 1.235 . S
C315 O318 1.238 . S
C315 O319 1.241 . S
C316 O309 1.247 . S
C316 O310 1.261 . S
C317 O312 1.259 . S
C317 O314 1.235 . S
O318 Co308 2.021 . S
O318 C315 1.238 . S
O319 Co313 2.052 . S
O319 C315 1.241 . S
O320 Co308 2.137 . S
O320 C311 1.247 . S
O321 Co308 2.244 . S
O321 C311 1.272 . S
O321 Co313 2.135 . S
Co322 O323 2.216 . S
Co322 O324 2.091 . S
Co322 O326 2.004 . S
Co322 O332 2.021 . S
Co322 O334 2.137 . S
Co322 O335 2.244 . S
O323 Co322 2.216 . S
O323 C330 1.247 . S
O324 Co322 2.091 . S
O324 C330 1.261 . S
C325 O334 1.247 . S
C325 O335 1.272 . S
O326 Co322 2.004 . S
O326 C331 1.259 . S
Co327 O328 2.061 . S
Co327 O333 2.052 . S
Co327 O335 2.135 . S
O328 Co327 2.061 . S
O328 C331 1.235 . S
C329 O332 1.238 . S
C329 O333 1.241 . S
C330 O323 1.247 . S
C330 O324 1.261 . S
C331 O326 1.259 . S
C331 O328 1.235 . S
O332 Co322 2.021 . S
O332 C329 1.238 . S
O333 Co327 2.052 . S
O333 C329 1.241 . S
O334 Co322 2.137 . S
O334 C325 1.247 . S
O335 Co322 2.244 . S
O335 C325 1.272 . S
O335 Co327 2.135 . S
Co336 O337 2.216 . S
Co336 O338 2.091 . S
Co336 O340 2.004 . S
Co336 O346 2.021 . S
Co336 O348 2.137 . S
Co336 O349 2.244 . S
O337 Co336 2.216 . S
O337 C344 1.247 . S
O338 Co336 2.091 . S
O338 C344 1.261 . S
C339 O348 1.247 . S
C339 O349 1.272 . S
O340 Co336 2.004 . S
O340 C345 1.259 . S
Co341 O342 2.061 . S
Co341 O347 2.052 . S
Co341 O349 2.135 . S
O342 Co341 2.061 . S
O342 C345 1.235 . S
C343 O346 1.238 . S
C343 O347 1.241 . S
C344 O337 1.247 . S
C344 O338 1.261 . S
C345 O340 1.259 . S
C345 O342 1.235 . S
O346 Co336 2.021 . S
O346 C343 1.238 . S
O347 Co341 2.052 . S
O347 C343 1.241 . S
O348 Co336 2.137 . S
O348 C339 1.247 . S
O349 Co336 2.244 . S
O349 C339 1.272 . S
O349 Co341 2.135 . S
Co350 O351 2.216 . S
Co350 O352 2.091 . S
Co350 O354 2.004 . S
Co350 O360 2.021 . S
Co350 O362 2.137 . S
Co350 O363 2.244 . S
O351 Co350 2.216 . S
O351 C358 1.247 . S
O352 Co350 2.091 . S
O352 C358 1.261 . S
C353 O362 1.247 . S
C353 O363 1.272 . S
O354 Co350 2.004 . S
O354 C359 1.259 . S
Co355 O356 2.061 . S
Co355 O361 2.052 . S
Co355 O363 2.135 . S
O356 Co355 2.061 . S
O356 C359 1.235 . S
C357 O360 1.238 . S
C357 O361 1.241 . S
C358 O351 1.247 . S
C358 O352 1.261 . S
C359 O354 1.259 . S
C359 O356 1.235 . S
O360 Co350 2.021 . S
O360 C357 1.238 . S
O361 Co355 2.052 . S
O361 C357 1.241 . S
O362 Co350 2.137 . S
O362 C353 1.247 . S
O363 Co350 2.244 . S
O363 C353 1.272 . S
O363 Co355 2.135 . S
Co364 O365 2.216 . S
Co364 O366 2.091 . S
Co364 O368 2.004 . S
Co364 O374 2.021 . S
Co364 O376 2.137 . S
Co364 O377 2.244 . S
O365 Co364 2.216 . S
O365 C372 1.247 . S
O366 Co364 2.091 . S
O366 C372 1.261 . S
C367 O376 1.247 . S
C367 O377 1.272 . S
O368 Co364 2.004 . S
O368 C373 1.259 . S
Co369 O370 2.061 . S
Co369 O375 2.052 . S
Co369 O377 2.135 . S
O370 Co369 2.061 . S
O370 C373 1.235 . S
C371 O374 1.238 . S
C371 O375 1.241 . S
C372 O365 1.247 . S
C372 O366 1.261 . S
C373 O368 1.259 . S
C373 O370 1.235 . S
O374 Co364 2.021 . S
O374 C371 1.238 . S
O375 Co369 2.052 . S
O375 C371 1.241 . S
O376 Co364 2.137 . S
O376 C367 1.247 . S
O377 Co364 2.244 . S
O377 C367 1.272 . S
O377 Co369 2.135 . S
Co378 O379 2.216 . S
Co378 O380 2.091 . S
Co378 O382 2.004 . S
Co378 O388 2.021 . S
Co378 O390 2.137 . S
Co378 O391 2.244 . S
O379 Co378 2.216 . S
O379 C386 1.247 . S
O380 Co378 2.091 . S
O380 C386 1.261 . S
C381 O390 1.247 . S
C381 O391 1.272 . S
O382 Co378 2.004 . S
O382 C387 1.259 . S
Co383 O384 2.061 . S
Co383 O389 2.052 . S
Co383 O391 2.135 . S
O384 Co383 2.061 . S
O384 C387 1.235 . S
C385 O388 1.238 . S
C385 O389 1.241 . S
C386 O379 1.247 . S
C386 O380 1.261 . S
C387 O382 1.259 . S
C387 O384 1.235 . S
O388 Co378 2.021 . S
O388 C385 1.238 . S
O389 Co383 2.052 . S
O389 C385 1.241 . S
O390 Co378 2.137 . S
O390 C381 1.247 . S
O391 Co378 2.244 . S
O391 C381 1.272 . S
O391 Co383 2.135 . S
Co392 O393 2.216 . S
Co392 O394 2.091 . S
Co392 O396 2.004 . S
Co392 O402 2.021 . S
Co392 O404 2.137 . S
Co392 O405 2.244 . S
O393 Co392 2.216 . S
O393 C400 1.247 . S
O394 Co392 2.091 . S
O394 C400 1.261 . S
C395 O404 1.247 . S
C395 O405 1.272 . S
O396 Co392 2.004 . S
O396 C401 1.259 . S
Co397 O398 2.061 . S
Co397 O403 2.052 . S
Co397 O405 2.135 . S
O398 Co397 2.061 . S
O398 C401 1.235 . S
C399 O402 1.238 . S
C399 O403 1.241 . S
C400 O393 1.247 . S
C400 O394 1.261 . S
C401 O396 1.259 . S
C401 O398 1.235 . S
O402 Co392 2.021 . S
O402 C399 1.238 . S
O403 Co397 2.052 . S
O403 C399 1.241 . S
O404 Co392 2.137 . S
O404 C395 1.247 . S
O405 Co392 2.244 . S
O405 C395 1.272 . S
O405 Co397 2.135 . S
Co406 O407 2.216 . S
Co406 O408 2.091 . S
Co406 O410 2.004 . S
Co406 O416 2.021 . S
Co406 O418 2.137 . S
Co406 O419 2.244 . S
O407 Co406 2.216 . S
O407 C414 1.247 . S
O408 Co406 2.091 . S
O408 C414 1.261 . S
C409 O418 1.247 . S
C409 O419 1.272 . S
O410 Co406 2.004 . S
O410 C415 1.259 . S
Co411 O412 2.061 . S
Co411 O417 2.052 . S
Co411 O419 2.135 . S
O412 Co411 2.061 . S
O412 C415 1.235 . S
C413 O416 1.238 . S
C413 O417 1.241 . S
C414 O407 1.247 . S
C414 O408 1.261 . S
C415 O410 1.259 . S
C415 O412 1.235 . S
O416 Co406 2.021 . S
O416 C413 1.238 . S
O417 Co411 2.052 . S
O417 C413 1.241 . S
O418 Co406 2.137 . S
O418 C409 1.247 . S
O419 Co406 2.244 . S
O419 C409 1.272 . S
O419 Co411 2.135 . S
Co420 O421 2.216 . S
Co420 O422 2.091 . S
Co420 O424 2.004 . S
Co420 O430 2.021 . S
Co420 O432 2.137 . S
Co420 O433 2.244 . S
O421 Co420 2.216 . S
O421 C428 1.247 . S
O422 Co420 2.091 . S
O422 C428 1.261 . S
C423 O432 1.247 . S
C423 O433 1.272 . S
O424 Co420 2.004 . S
O424 C429 1.259 . S
Co425 O426 2.061 . S
Co425 O431 2.052 . S
Co425 O433 2.135 . S
O426 Co425 2.061 . S
O426 C429 1.235 . S
C427 O430 1.238 . S
C427 O431 1.241 . S
C428 O421 1.247 . S
C428 O422 1.261 . S
C429 O424 1.259 . S
C429 O426 1.235 . S
O430 Co420 2.021 . S
O430 C427 1.238 . S
O431 Co425 2.052 . S
O431 C427 1.241 . S
O432 Co420 2.137 . S
O432 C423 1.247 . S
O433 Co420 2.244 . S
O433 C423 1.272 . S
O433 Co425 2.135 . S
Co434 O435 2.216 . S
Co434 O436 2.091 . S
Co434 O438 2.004 . S
Co434 O444 2.021 . S
Co434 O446 2.137 . S
Co434 O447 2.244 . S
O435 Co434 2.216 . S
O435 C442 1.247 . S
O436 Co434 2.091 . S
O436 C442 1.261 . S
C437 O446 1.247 . S
C437 O447 1.272 . S
O438 Co434 2.004 . S
O438 C443 1.259 . S
Co439 O440 2.061 . S
Co439 O445 2.052 . S
Co439 O447 2.135 . S
O440 Co439 2.061 . S
O440 C443 1.235 . S
C441 O444 1.238 . S
C441 O445 1.241 . S
C442 O435 1.247 . S
C442 O436 1.261 . S
C443 O438 1.259 . S
C443 O440 1.235 . S
O444 Co434 2.021 . S
O444 C441 1.238 . S
O445 Co439 2.052 . S
O445 C441 1.241 . S
O446 Co434 2.137 . S
O446 C437 1.247 . S
O447 Co434 2.244 . S
O447 C437 1.272 . S
O447 Co439 2.135 . S
Co448 O449 2.216 . S
Co448 O450 2.091 . S
Co448 O452 2.004 . S
Co448 O458 2.021 . S
Co448 O460 2.137 . S
Co448 O461 2.244 . S
O449 Co448 2.216 . S
O449 C456 1.247 . S
O450 Co448 2.091 . S
O450 C456 1.261 . S
C451 O460 1.247 . S
C451 O461 1.272 . S
O452 Co448 2.004 . S
O452 C457 1.259 . S
Co453 O454 2.061 . S
Co453 O459 2.052 . S
Co453 O461 2.135 . S
O454 Co453 2.061 . S
O454 C457 1.235 . S
C455 O458 1.238 . S
C455 O459 1.241 . S
C456 O449 1.247 . S
C456 O450 1.261 . S
C457 O452 1.259 . S
C457 O454 1.235 . S
O458 Co448 2.021 . S
O458 C455 1.238 . S
O459 Co453 2.052 . S
O459 C455 1.241 . S
O460 Co448 2.137 . S
O460 C451 1.247 . S
O461 Co448 2.244 . S
O461 C451 1.272 . S
O461 Co453 2.135 . S
Co462 O463 2.216 . S
Co462 O464 2.091 . S
Co462 O466 2.004 . S
Co462 O472 2.021 . S
Co462 O474 2.137 . S
Co462 O475 2.244 . S
O463 Co462 2.216 . S
O463 C470 1.247 . S
O464 Co462 2.091 . S
O464 C470 1.261 . S
C465 O474 1.247 . S
C465 O475 1.272 . S
O466 Co462 2.004 . S
O466 C471 1.259 . S
Co467 O468 2.061 . S
Co467 O473 2.052 . S
Co467 O475 2.135 . S
O468 Co467 2.061 . S
O468 C471 1.235 . S
C469 O472 1.238 . S
C469 O473 1.241 . S
C470 O463 1.247 . S
C470 O464 1.261 . S
C471 O466 1.259 . S
C471 O468 1.235 . S
O472 Co462 2.021 . S
O472 C469 1.238 . S
O473 Co467 2.052 . S
O473 C469 1.241 . S
O474 Co462 2.137 . S
O474 C465 1.247 . S
O475 Co462 2.244 . S
O475 C465 1.272 . S
O475 Co467 2.135 . S
Co476 O477 2.216 . S
Co476 O478 2.091 . S
Co476 O480 2.004 . S
Co476 O486 2.021 . S
Co476 O488 2.137 . S
Co476 O489 2.244 . S
O477 Co476 2.216 . S
O477 C484 1.247 . S
O478 Co476 2.091 . S
O478 C484 1.261 . S
C479 O488 1.247 . S
C479 O489 1.272 . S
O480 Co476 2.004 . S
O480 C485 1.259 . S
Co481 O482 2.061 . S
Co481 O487 2.052 . S
Co481 O489 2.135 . S
O482 Co481 2.061 . S
O482 C485 1.235 . S
C483 O486 1.238 . S
C483 O487 1.241 . S
C484 O477 1.247 . S
C484 O478 1.261 . S
C485 O480 1.259 . S
C485 O482 1.235 . S
O486 Co476 2.021 . S
O486 C483 1.238 . S
O487 Co481 2.052 . S
O487 C483 1.241 . S
O488 Co476 2.137 . S
O488 C479 1.247 . S
O489 Co476 2.244 . S
O489 C479 1.272 . S
O489 Co481 2.135 . S
Co490 O491 2.216 . S
Co490 O492 2.091 . S
Co490 O494 2.004 . S
Co490 O500 2.021 . S
Co490 O502 2.137 . S
Co490 O503 2.244 . S
O491 Co490 2.216 . S
O491 C498 1.247 . S
O492 Co490 2.091 . S
O492 C498 1.261 . S
C493 O502 1.247 . S
C493 O503 1.272 . S
O494 Co490 2.004 . S
O494 C499 1.259 . S
Co495 O496 2.061 . S
Co495 O501 2.052 . S
Co495 O503 2.135 . S
O496 Co495 2.061 . S
O496 C499 1.235 . S
C497 O500 1.238 . S
C497 O501 1.241 . S
C498 O491 1.247 . S
C498 O492 1.261 . S
C499 O494 1.259 . S
C499 O496 1.235 . S
O500 Co490 2.021 . S
O500 C497 1.238 . S
O501 Co495 2.052 . S
O501 C497 1.241 . S
O502 Co490 2.137 . S
O502 C493 1.247 . S
O503 Co490 2.244 . S
O503 C493 1.272 . S
O503 Co495 2.135 . S
H504 C510 0.930 . S
H505 C514 0.930 . S
H506 C519 0.929 . S
H507 C517 0.929 . S
H508 C512 0.929 . S
H509 C518 0.929 . S
C510 H504 0.930 . S
C510 C511 1.367 . S
C510 C518 1.378 . S
C511 C510 1.367 . S
C511 C519 1.433 . S
C512 H508 0.929 . S
C512 C514 1.378 . S
C512 C516 1.350 . S
C513 C516 1.463 . S
C513 C518 1.350 . S
C513 N521 1.427 . S
C514 H505 0.930 . S
C514 C512 1.378 . S
C514 C515 1.367 . S
C515 C514 1.367 . S
C515 C517 1.433 . S
C516 C512 1.350 . S
C516 C513 1.463 . S
C516 N520 1.427 . S
C517 H507 0.929 . S
C517 C515 1.433 . S
C517 N520 1.384 . S
C518 H509 0.929 . S
C518 C510 1.378 . S
C518 C513 1.350 . S
C519 H506 0.929 . S
C519 C511 1.433 . S
C519 N521 1.384 . S
N520 C516 1.427 . S
N520 C517 1.384 . S
N521 C513 1.427 . S
N521 C519 1.384 . S
H522 C528 0.930 . S
H523 C532 0.930 . S
H524 C537 0.929 . S
H525 C535 0.929 . S
H526 C530 0.929 . S
H527 C536 0.929 . S
C528 H522 0.930 . S
C528 C529 1.367 . S
C528 C536 1.378 . S
C529 C528 1.367 . S
C529 C537 1.433 . S
C530 H526 0.929 . S
C530 C532 1.378 . S
C530 C534 1.350 . S
C531 C534 1.463 . S
C531 C536 1.350 . S
C531 N539 1.427 . S
C532 H523 0.930 . S
C532 C530 1.378 . S
C532 C533 1.367 . S
C533 C532 1.367 . S
C533 C535 1.433 . S
C534 C530 1.350 . S
C534 C531 1.463 . S
C534 N538 1.427 . S
C535 H525 0.929 . S
C535 C533 1.433 . S
C535 N538 1.384 . S
C536 H527 0.929 . S
C536 C528 1.378 . S
C536 C531 1.350 . S
C537 H524 0.929 . S
C537 C529 1.433 . S
C537 N539 1.384 . S
N538 C534 1.427 . S
N538 C535 1.384 . S
N539 C531 1.427 . S
N539 C537 1.384 . S
H540 C546 0.930 . S
H541 C550 0.930 . S
H542 C555 0.929 . S
H543 C553 0.929 . S
H544 C548 0.929 . S
H545 C554 0.929 . S
C546 H540 0.930 . S
C546 C547 1.367 . S
C546 C554 1.378 . S
C547 C546 1.367 . S
C547 C555 1.433 . S
C548 H544 0.929 . S
C548 C550 1.378 . S
C548 C552 1.350 . S
C549 C552 1.463 . S
C549 C554 1.350 . S
C549 N557 1.427 . S
C550 H541 0.930 . S
C550 C548 1.378 . S
C550 C551 1.367 . S
C551 C550 1.367 . S
C551 C553 1.433 . S
C552 C548 1.350 . S
C552 C549 1.463 . S
C552 N556 1.427 . S
C553 H543 0.929 . S
C553 C551 1.433 . S
C553 N556 1.384 . S
C554 H545 0.929 . S
C554 C546 1.378 . S
C554 C549 1.350 . S
C555 H542 0.929 . S
C555 C547 1.433 . S
C555 N557 1.384 . S
N556 C552 1.427 . S
N556 C553 1.384 . S
N557 C549 1.427 . S
N557 C555 1.384 . S
H558 C564 0.930 . S
H559 C568 0.930 . S
H560 C573 0.929 . S
H561 C571 0.929 . S
H562 C566 0.929 . S
H563 C572 0.929 . S
C564 H558 0.930 . S
C564 C565 1.367 . S
C564 C572 1.378 . S
C565 C564 1.367 . S
C565 C573 1.433 . S
C566 H562 0.929 . S
C566 C568 1.378 . S
C566 C570 1.350 . S
C567 C570 1.463 . S
C567 C572 1.350 . S
C567 N575 1.427 . S
C568 H559 0.930 . S
C568 C566 1.378 . S
C568 C569 1.367 . S
C569 C568 1.367 . S
C569 C571 1.433 . S
C570 C566 1.350 . S
C570 C567 1.463 . S
C570 N574 1.427 . S
C571 H561 0.929 . S
C571 C569 1.433 . S
C571 N574 1.384 . S
C572 H563 0.929 . S
C572 C564 1.378 . S
C572 C567 1.350 . S
C573 H560 0.929 . S
C573 C565 1.433 . S
C573 N575 1.384 . S
N574 C570 1.427 . S
N574 C571 1.384 . S
N575 C567 1.427 . S
N575 C573 1.384 . S
H576 C582 0.930 . S
H577 C586 0.930 . S
H578 C591 0.929 . S
H579 C589 0.929 . S
H580 C584 0.929 . S
H581 C590 0.929 . S
C582 H576 0.930 . S
C582 C583 1.367 . S
C582 C590 1.378 . S
C583 C582 1.367 . S
C583 C591 1.433 . S
C584 H580 0.929 . S
C584 C586 1.378 . S
C584 C588 1.350 . S
C585 C588 1.463 . S
C585 C590 1.350 . S
C585 N593 1.427 . S
C586 H577 0.930 . S
C586 C584 1.378 . S
C586 C587 1.367 . S
C587 C586 1.367 . S
C587 C589 1.433 . S
C588 C584 1.350 . S
C588 C585 1.463 . S
C588 N592 1.427 . S
C589 H579 0.929 . S
C589 C587 1.433 . S
C589 N592 1.384 . S
C590 H581 0.929 . S
C590 C582 1.378 . S
C590 C585 1.350 . S
C591 H578 0.929 . S
C591 C583 1.433 . S
C591 N593 1.384 . S
N592 C588 1.427 . S
N592 C589 1.384 . S
N593 C585 1.427 . S
N593 C591 1.384 . S
H594 C600 0.930 . S
H595 C604 0.930 . S
H596 C609 0.929 . S
H597 C607 0.929 . S
H598 C602 0.929 . S
H599 C608 0.929 . S
C600 H594 0.930 . S
C600 C601 1.367 . S
C600 C608 1.378 . S
C601 C600 1.367 . S
C601 C609 1.433 . S
C602 H598 0.929 . S
C602 C604 1.378 . S
C602 C606 1.350 . S
C603 C606 1.463 . S
C603 C608 1.350 . S
C603 N611 1.427 . S
C604 H595 0.930 . S
C604 C602 1.378 . S
C604 C605 1.367 . S
C605 C604 1.367 . S
C605 C607 1.433 . S
C606 C602 1.350 . S
C606 C603 1.463 . S
C606 N610 1.427 . S
C607 H597 0.929 . S
C607 C605 1.433 . S
C607 N610 1.384 . S
C608 H599 0.929 . S
C608 C600 1.378 . S
C608 C603 1.350 . S
C609 H596 0.929 . S
C609 C601 1.433 . S
C609 N611 1.384 . S
N610 C606 1.427 . S
N610 C607 1.384 . S
N611 C603 1.427 . S
N611 C609 1.384 . S
H612 C618 0.930 . S
H613 C622 0.930 . S
H614 C627 0.929 . S
H615 C625 0.929 . S
H616 C620 0.929 . S
H617 C626 0.929 . S
C618 H612 0.930 . S
C618 C619 1.367 . S
C618 C626 1.378 . S
C619 C618 1.367 . S
C619 C627 1.433 . S
C620 H616 0.929 . S
C620 C622 1.378 . S
C620 C624 1.350 . S
C621 C624 1.463 . S
C621 C626 1.350 . S
C621 N629 1.427 . S
C622 H613 0.930 . S
C622 C620 1.378 . S
C622 C623 1.367 . S
C623 C622 1.367 . S
C623 C625 1.433 . S
C624 C620 1.350 . S
C624 C621 1.463 . S
C624 N628 1.427 . S
C625 H615 0.929 . S
C625 C623 1.433 . S
C625 N628 1.384 . S
C626 H617 0.929 . S
C626 C618 1.378 . S
C626 C621 1.350 . S
C627 H614 0.929 . S
C627 C619 1.433 . S
C627 N629 1.384 . S
N628 C624 1.427 . S
N628 C625 1.384 . S
N629 C621 1.427 . S
N629 C627 1.384 . S
H630 C636 0.930 . S
H631 C640 0.930 . S
H632 C645 0.929 . S
H633 C643 0.929 . S
H634 C638 0.929 . S
H635 C644 0.929 . S
C636 H630 0.930 . S
C636 C637 1.367 . S
C636 C644 1.378 . S
C637 C636 1.367 . S
C637 C645 1.433 . S
C638 H634 0.929 . S
C638 C640 1.378 . S
C638 C642 1.350 . S
C639 C642 1.463 . S
C639 C644 1.350 . S
C639 N647 1.427 . S
C640 H631 0.930 . S
C640 C638 1.378 . S
C640 C641 1.367 . S
C641 C640 1.367 . S
C641 C643 1.433 . S
C642 C638 1.350 . S
C642 C639 1.463 . S
C642 N646 1.427 . S
C643 H633 0.929 . S
C643 C641 1.433 . S
C643 N646 1.384 . S
C644 H635 0.929 . S
C644 C636 1.378 . S
C644 C639 1.350 . S
C645 H632 0.929 . S
C645 C637 1.433 . S
C645 N647 1.384 . S
N646 C642 1.427 . S
N646 C643 1.384 . S
N647 C639 1.427 . S
N647 C645 1.384 . S
H648 C654 0.930 . S
H649 C658 0.930 . S
H650 C663 0.929 . S
H651 C661 0.929 . S
H652 C656 0.929 . S
H653 C662 0.929 . S
C654 H648 0.930 . S
C654 C655 1.367 . S
C654 C662 1.378 . S
C655 C654 1.367 . S
C655 C663 1.433 . S
C656 H652 0.929 . S
C656 C658 1.378 . S
C656 C660 1.350 . S
C657 C660 1.463 . S
C657 C662 1.350 . S
C657 N665 1.427 . S
C658 H649 0.930 . S
C658 C656 1.378 . S
C658 C659 1.367 . S
C659 C658 1.367 . S
C659 C661 1.433 . S
C660 C656 1.350 . S
C660 C657 1.463 . S
C660 N664 1.427 . S
C661 H651 0.929 . S
C661 C659 1.433 . S
C661 N664 1.384 . S
C662 H653 0.929 . S
C662 C654 1.378 . S
C662 C657 1.350 . S
C663 H650 0.929 . S
C663 C655 1.433 . S
C663 N665 1.384 . S
N664 C660 1.427 . S
N664 C661 1.384 . S
N665 C657 1.427 . S
N665 C663 1.384 . S
H666 C672 0.930 . S
H667 C676 0.930 . S
H668 C681 0.929 . S
H669 C679 0.929 . S
H670 C674 0.929 . S
H671 C680 0.929 . S
C672 H666 0.930 . S
C672 C673 1.367 . S
C672 C680 1.378 . S
C673 C672 1.367 . S
C673 C681 1.433 . S
C674 H670 0.929 . S
C674 C676 1.378 . S
C674 C678 1.350 . S
C675 C678 1.463 . S
C675 C680 1.350 . S
C675 N683 1.427 . S
C676 H667 0.930 . S
C676 C674 1.378 . S
C676 C677 1.367 . S
C677 C676 1.367 . S
C677 C679 1.433 . S
C678 C674 1.350 . S
C678 C675 1.463 . S
C678 N682 1.427 . S
C679 H669 0.929 . S
C679 C677 1.433 . S
C679 N682 1.384 . S
C680 H671 0.929 . S
C680 C672 1.378 . S
C680 C675 1.350 . S
C681 H668 0.929 . S
C681 C673 1.433 . S
C681 N683 1.384 . S
N682 C678 1.427 . S
N682 C679 1.384 . S
N683 C675 1.427 . S
N683 C681 1.384 . S
H684 C690 0.930 . S
H685 C694 0.930 . S
H686 C699 0.929 . S
H687 C697 0.929 . S
H688 C692 0.929 . S
H689 C698 0.929 . S
C690 H684 0.930 . S
C690 C691 1.367 . S
C690 C698 1.378 . S
C691 C690 1.367 . S
C691 C699 1.433 . S
C692 H688 0.929 . S
C692 C694 1.378 . S
C692 C696 1.350 . S
C693 C696 1.463 . S
C693 C698 1.350 . S
C693 N701 1.427 . S
C694 H685 0.930 . S
C694 C692 1.378 . S
C694 C695 1.367 . S
C695 C694 1.367 . S
C695 C697 1.433 . S
C696 C692 1.350 . S
C696 C693 1.463 . S
C696 N700 1.427 . S
C697 H687 0.929 . S
C697 C695 1.433 . S
C697 N700 1.384 . S
C698 H689 0.929 . S
C698 C690 1.378 . S
C698 C693 1.350 . S
C699 H686 0.929 . S
C699 C691 1.433 . S
C699 N701 1.384 . S
N700 C696 1.427 . S
N700 C697 1.384 . S
N701 C693 1.427 . S
N701 C699 1.384 . S
H702 C708 0.930 . S
H703 C712 0.930 . S
H704 C717 0.929 . S
H705 C715 0.929 . S
H706 C710 0.929 . S
H707 C716 0.929 . S
C708 H702 0.930 . S
C708 C709 1.367 . S
C708 C716 1.378 . S
C709 C708 1.367 . S
C709 C717 1.433 . S
C710 H706 0.929 . S
C710 C712 1.378 . S
C710 C714 1.350 . S
C711 C714 1.463 . S
C711 C716 1.350 . S
C711 N719 1.427 . S
C712 H703 0.930 . S
C712 C710 1.378 . S
C712 C713 1.367 . S
C713 C712 1.367 . S
C713 C715 1.433 . S
C714 C710 1.350 . S
C714 C711 1.463 . S
C714 N718 1.427 . S
C715 H705 0.929 . S
C715 C713 1.433 . S
C715 N718 1.384 . S
C716 H707 0.929 . S
C716 C708 1.378 . S
C716 C711 1.350 . S
C717 H704 0.929 . S
C717 C709 1.433 . S
C717 N719 1.384 . S
N718 C714 1.427 . S
N718 C715 1.384 . S
N719 C711 1.427 . S
N719 C717 1.384 . S
H720 C726 0.930 . S
H721 C730 0.930 . S
H722 C735 0.929 . S
H723 C733 0.929 . S
H724 C728 0.929 . S
H725 C734 0.929 . S
C726 H720 0.930 . S
C726 C727 1.367 . S
C726 C734 1.378 . S
C727 C726 1.367 . S
C727 C735 1.433 . S
C728 H724 0.929 . S
C728 C730 1.378 . S
C728 C732 1.350 . S
C729 C732 1.463 1_455 S
C729 C734 1.350 . S
C729 N737 1.427 . S
C730 H721 0.930 . S
C730 C728 1.378 . S
C730 C731 1.367 . S
C731 C730 1.367 . S
C731 C733 1.433 . S
C732 C728 1.350 . S
C732 C729 1.463 1_655 S
C732 N736 1.427 . S
C733 H723 0.929 . S
C733 C731 1.433 . S
C733 N736 1.384 . S
C734 H725 0.929 . S
C734 C726 1.378 . S
C734 C729 1.350 . S
C735 H722 0.929 . S
C735 C727 1.433 . S
C735 N737 1.384 . S
N736 C732 1.427 . S
N736 C733 1.384 . S
N737 C729 1.427 . S
N737 C735 1.384 . S
H738 C744 0.930 . S
H739 C748 0.930 . S
H740 C753 0.929 . S
H741 C751 0.929 . S
H742 C746 0.929 . S
H743 C752 0.929 . S
C744 H738 0.930 . S
C744 C745 1.367 . S
C744 C752 1.378 . S
C745 C744 1.367 . S
C745 C753 1.433 . S
C746 H742 0.929 . S
C746 C748 1.378 . S
C746 C750 1.350 . S
C747 C750 1.463 . S
C747 C752 1.350 . S
C747 N755 1.427 . S
C748 H739 0.930 . S
C748 C746 1.378 . S
C748 C749 1.367 . S
C749 C748 1.367 . S
C749 C751 1.433 . S
C750 C746 1.350 . S
C750 C747 1.463 . S
C750 N754 1.427 . S
C751 H741 0.929 . S
C751 C749 1.433 . S
C751 N754 1.384 . S
C752 H743 0.929 . S
C752 C744 1.378 . S
C752 C747 1.350 . S
C753 H740 0.929 . S
C753 C745 1.433 . S
C753 N755 1.384 . S
N754 C750 1.427 . S
N754 C751 1.384 . S
N755 C747 1.427 . S
N755 C753 1.384 . S
H756 C762 0.930 . S
H757 C766 0.930 . S
H758 C771 0.929 . S
H759 C769 0.929 . S
H760 C764 0.929 . S
H761 C770 0.929 . S
C762 H756 0.930 . S
C762 C763 1.367 . S
C762 C770 1.378 . S
C763 C762 1.367 . S
C763 C771 1.433 . S
C764 H760 0.929 . S
C764 C766 1.378 . S
C764 C768 1.350 . S
C765 C768 1.463 1_545 S
C765 C770 1.350 . S
C765 N773 1.427 . S
C766 H757 0.930 . S
C766 C764 1.378 . S
C766 C767 1.367 . S
C767 C766 1.367 . S
C767 C769 1.433 . S
C768 C764 1.350 . S
C768 C765 1.463 1_565 S
C768 N772 1.427 . S
C769 H759 0.929 . S
C769 C767 1.433 . S
C769 N772 1.384 . S
C770 H761 0.929 . S
C770 C762 1.378 . S
C770 C765 1.350 . S
C771 H758 0.929 . S
C771 C763 1.433 . S
C771 N773 1.384 . S
N772 C768 1.427 . S
N772 C769 1.384 . S
N773 C765 1.427 . S
N773 C771 1.384 . S
H774 C780 0.930 . S
H775 C784 0.930 . S
H776 C789 0.929 . S
H777 C787 0.929 . S
H778 C782 0.900 1_554 S
H779 C788 0.900 1_556 S
C780 H774 0.930 . S
C780 C781 1.367 . S
C780 C788 1.398 . S
C781 C780 1.367 . S
C781 C789 1.433 . S
C782 H778 0.900 1_556 S
C782 C784 1.398 . S
C782 C786 1.359 . S
C783 C786 1.463 1_564 S
C783 C788 1.359 . S
C783 N791 1.427 . S
C784 H775 0.930 . S
C784 C782 1.398 . S
C784 C785 1.367 . S
C785 C784 1.367 . S
C785 C787 1.433 . S
C786 C782 1.359 . S
C786 C783 1.463 1_546 S
C786 N790 1.427 . S
C787 H777 0.929 . S
C787 C785 1.433 . S
C787 N790 1.384 . S
C788 H779 0.900 1_554 S
C788 C780 1.398 . S
C788 C783 1.359 . S
C789 H776 0.929 . S
C789 C781 1.433 . S
C789 N791 1.384 . S
N790 C786 1.427 . S
N790 C787 1.384 . S
N791 C783 1.427 . S
N791 C789 1.384 . S
H792 C798 0.930 . S
H793 C802 0.930 . S
H794 C807 0.929 . S
H795 C805 0.929 . S
H796 C800 0.929 1_556 S
H797 C806 0.929 1_554 S
C798 H792 0.930 . S
C798 C799 1.367 . S
C798 C806 1.378 . S
C799 C798 1.367 . S
C799 C807 1.433 . S
C800 H796 0.929 1_554 S
C800 C802 1.378 . S
C800 C804 1.350 . S
C801 C804 1.463 1_656 S
C801 C806 1.350 . S
C801 N809 1.427 . S
C802 H793 0.930 . S
C802 C800 1.378 . S
C802 C803 1.367 . S
C803 C802 1.367 . S
C803 C805 1.433 . S
C804 C800 1.350 . S
C804 C801 1.463 1_454 S
C804 N808 1.427 . S
C805 H795 0.929 . S
C805 C803 1.433 . S
C805 N808 1.384 . S
C806 H797 0.929 1_556 S
C806 C798 1.378 . S
C806 C801 1.350 . S
C807 H794 0.929 . S
C807 C799 1.433 . S
C807 N809 1.384 . S
N808 C804 1.427 . S
N808 C805 1.384 . S
N809 C801 1.427 . S
N809 C807 1.384 . S
H810 C816 0.930 . S
H811 C820 0.930 . S
H812 C825 0.929 . S
H813 C823 0.929 . S
H814 C818 0.929 1_556 S
H815 C824 0.929 1_554 S
C816 H810 0.930 . S
C816 C817 1.367 . S
C816 C824 1.378 . S
C817 C816 1.367 . S
C817 C825 1.433 . S
C818 H814 0.929 1_554 S
C818 C820 1.378 . S
C818 C822 1.350 . S
C819 C822 1.463 1_556 S
C819 C824 1.350 . S
C819 N827 1.427 . S
C820 H811 0.930 . S
C820 C818 1.378 . S
C820 C821 1.367 . S
C821 C820 1.367 . S
C821 C823 1.433 . S
C822 C818 1.350 . S
C822 C819 1.463 1_554 S
C822 N826 1.427 . S
C823 H813 0.929 . S
C823 C821 1.433 . S
C823 N826 1.384 . S
C824 H815 0.929 1_556 S
C824 C816 1.378 . S
C824 C819 1.350 . S
C825 H812 0.929 . S
C825 C817 1.433 . S
C825 N827 1.384 . S
N826 C822 1.427 . S
N826 C823 1.384 . S
N827 C819 1.427 . S
N827 C825 1.384 . S
H828 C834 0.926 1_545 S
H829 C838 0.930 . S
H830 C843 0.929 . S
H831 C841 0.929 . S
H832 C836 0.929 . S
H833 C842 0.929 . S
C834 H828 0.926 1_565 S
C834 C835 1.363 1_565 S
C834 C842 1.382 . S
C835 C834 1.363 1_545 S
C835 C843 1.433 . S
C836 H832 0.929 . S
C836 C838 1.378 . S
C836 C840 1.350 . S
C837 C840 1.463 . S
C837 C842 1.350 . S
C837 N845 1.427 . S
C838 H829 0.930 . S
C838 C836 1.378 . S
C838 C839 1.367 . S
C839 C838 1.367 . S
C839 C841 1.433 . S
C840 C836 1.350 . S
C840 C837 1.463 . S
C840 N844 1.427 . S
C841 H831 0.929 . S
C841 C839 1.433 . S
C841 N844 1.384 . S
C842 H833 0.929 . S
C842 C834 1.382 . S
C842 C837 1.350 . S
C843 H830 0.929 . S
C843 C835 1.433 . S
C843 N845 1.384 1_545 S
N844 C840 1.427 . S
N844 C841 1.384 . S
N845 C837 1.427 . S
N845 C843 1.384 1_565 S
H846 C852 0.930 . S
H847 C856 0.930 . S
H848 C861 0.929 . S
H849 C859 0.929 . S
H850 C854 0.933 . S
H851 C860 0.929 . S
C852 H846 0.930 . S
C852 C853 1.367 . S
C852 C860 1.378 . S
C853 C852 1.367 . S
C853 C861 1.433 . S
C854 H850 0.933 . S
C854 C856 1.378 . S
C854 C858 1.346 1_655 S
C855 C858 1.463 . S
C855 C860 1.350 . S
C855 N863 1.427 . S
C856 H847 0.930 . S
C856 C854 1.378 . S
C856 C857 1.367 . S
C857 C856 1.367 . S
C857 C859 1.433 1_655 S
C858 C854 1.346 1_455 S
C858 C855 1.463 . S
C858 N862 1.427 . S
C859 H849 0.929 . S
C859 C857 1.433 1_455 S
C859 N862 1.384 . S
C860 H851 0.929 . S
C860 C852 1.378 . S
C860 C855 1.350 . S
C861 H848 0.929 . S
C861 C853 1.433 . S
C861 N863 1.384 . S
N862 C858 1.427 . S
N862 C859 1.384 . S
N863 C855 1.427 . S
N863 C861 1.384 . S
H864 C870 0.930 . S
H865 C874 0.930 . S
H866 C879 0.929 . S
H867 C877 0.929 . S
H868 C872 0.929 . S
H869 C878 0.929 . S
C870 H864 0.930 . S
C870 C871 1.367 . S
C870 C878 1.378 . S
C871 C870 1.367 . S
C871 C879 1.433 . S
C872 H868 0.929 . S
C872 C874 1.378 . S
C872 C876 1.350 . S
C873 C876 1.463 . S
C873 C878 1.350 . S
C873 N881 1.427 . S
C874 H865 0.930 . S
C874 C872 1.378 . S
C874 C875 1.367 . S
C875 C874 1.367 . S
C875 C877 1.433 . S
C876 C872 1.350 . S
C876 C873 1.463 . S
C876 N880 1.427 . S
C877 H867 0.929 . S
C877 C875 1.433 . S
C877 N880 1.384 . S
C878 H869 0.929 . S
C878 C870 1.378 . S
C878 C873 1.350 . S
C879 H866 0.929 . S
C879 C871 1.433 . S
C879 N881 1.384 . S
N880 C876 1.427 . S
N880 C877 1.384 . S
N881 C873 1.427 . S
N881 C879 1.384 . S
H882 C888 0.930 . S
H883 C892 0.930 . S
H884 C897 0.929 . S
H885 C895 0.929 . S
H886 C890 0.929 . S
H887 C896 0.929 . S
C888 H882 0.930 . S
C888 C889 1.367 . S
C888 C896 1.378 . S
C889 C888 1.367 . S
C889 C897 1.433 . S
C890 H886 0.929 . S
C890 C892 1.378 . S
C890 C894 1.350 1_455 S
C891 C894 1.463 . S
C891 C896 1.350 . S
C891 N899 1.427 . S
C892 H883 0.930 . S
C892 C890 1.378 . S
C892 C893 1.367 . S
C893 C892 1.367 . S
C893 C895 1.433 1_455 S
C894 C890 1.350 1_655 S
C894 C891 1.463 . S
C894 N898 1.427 . S
C895 H885 0.929 . S
C895 C893 1.433 1_655 S
C895 N898 1.384 . S
C896 H887 0.929 . S
C896 C888 1.378 . S
C896 C891 1.350 . S
C897 H884 0.929 . S
C897 C889 1.433 . S
C897 N899 1.384 . S
N898 C894 1.427 . S
N898 C895 1.384 . S
N899 C891 1.427 . S
N899 C897 1.384 . S
H900 C906 0.930 . S
H901 C910 0.930 . S
H902 C915 0.929 . S
H903 C913 0.929 . S
H904 C908 0.929 . S
H905 C914 0.929 . S
C906 H900 0.930 . S
C906 C907 1.367 . S
C906 C914 1.378 . S
C907 C906 1.367 . S
C907 C915 1.433 . S
C908 H904 0.929 . S
C908 C910 1.378 . S
C908 C912 1.350 . S
C909 C912 1.463 . S
C909 C914 1.350 . S
C909 N917 1.427 . S
C910 H901 0.930 . S
C910 C908 1.378 . S
C910 C911 1.367 . S
C911 C910 1.367 . S
C911 C913 1.433 . S
C912 C908 1.350 . S
C912 C909 1.463 . S
C912 N916 1.427 . S
C913 H903 0.929 . S
C913 C911 1.433 . S
C913 N916 1.384 . S
C914 H905 0.929 . S
C914 C906 1.378 . S
C914 C909 1.350 . S
C915 H902 0.929 . S
C915 C907 1.433 . S
C915 N917 1.384 . S
N916 C912 1.427 . S
N916 C913 1.384 . S
N917 C909 1.427 . S
N917 C915 1.384 . S
H918 C924 0.930 . S
H919 C928 0.930 . S
H920 C933 0.929 . S
H921 C931 0.929 . S
H922 C926 0.929 . S
H923 C932 0.929 1_565 S
C924 H918 0.930 . S
C924 C925 1.367 . S
C924 C932 1.378 . S
C925 C924 1.367 . S
C925 C933 1.433 . S
C926 H922 0.929 . S
C926 C928 1.378 . S
C926 C930 1.350 . S
C927 C930 1.463 . S
C927 C932 1.350 . S
C927 N935 1.427 . S
C928 H919 0.930 . S
C928 C926 1.378 . S
C928 C929 1.367 1_545 S
C929 C928 1.367 1_565 S
C929 C931 1.433 . S
C930 C926 1.350 . S
C930 C927 1.463 . S
C930 N934 1.427 1_545 S
C931 H921 0.929 . S
C931 C929 1.433 . S
C931 N934 1.384 . S
C932 H923 0.929 1_545 S
C932 C924 1.378 . S
C932 C927 1.350 . S
C933 H920 0.929 . S
C933 C925 1.433 . S
C933 N935 1.384 . S
N934 C930 1.427 1_565 S
N934 C931 1.384 . S
N935 C927 1.427 . S
N935 C933 1.384 . S
H936 C942 0.930 . S
H937 C946 0.930 . S
H938 C951 0.929 . S
H939 C949 0.929 . S
H940 C944 0.929 . S
H941 C950 0.929 . S
C942 H936 0.930 . S
C942 C943 1.367 . S
C942 C950 1.378 . S
C943 C942 1.367 . S
C943 C951 1.433 1_565 S
C944 H940 0.929 . S
C944 C946 1.378 . S
C944 C948 1.350 . S
C945 C948 1.463 . S
C945 C950 1.350 1_545 S
C945 N953 1.427 . S
C946 H937 0.930 . S
C946 C944 1.378 . S
C946 C947 1.367 . S
C947 C946 1.367 . S
C947 C949 1.433 . S
C948 C944 1.350 . S
C948 C945 1.463 . S
C948 N952 1.427 . S
C949 H939 0.929 . S
C949 C947 1.433 . S
C949 N952 1.384 . S
C950 H941 0.929 . S
C950 C942 1.378 . S
C950 C945 1.350 1_565 S
C951 H938 0.929 . S
C951 C943 1.433 1_545 S
C951 N953 1.384 . S
N952 C948 1.427 . S
N952 C949 1.384 . S
N953 C945 1.427 . S
N953 C951 1.384 . S
H954 C960 0.930 . S
H955 C964 0.930 . S
H956 C969 0.929 . S
H957 C967 0.929 . S
H958 C962 0.929 . S
H959 C968 0.929 . S
C960 H954 0.930 . S
C960 C961 1.367 . S
C960 C968 1.378 . S
C961 C960 1.367 . S
C961 C969 1.433 . S
C962 H958 0.929 . S
C962 C964 1.378 1_655 S
C962 C966 1.350 . S
C963 C966 1.463 . S
C963 C968 1.350 . S
C963 N971 1.427 . S
C964 H955 0.930 . S
C964 C962 1.378 1_455 S
C964 C965 1.367 . S
C965 C964 1.367 . S
C965 C967 1.433 . S
C966 C962 1.350 . S
C966 C963 1.463 . S
C966 N970 1.427 . S
C967 H957 0.929 . S
C967 C965 1.433 . S
C967 N970 1.384 1_455 S
C968 H959 0.929 . S
C968 C960 1.378 . S
C968 C963 1.350 . S
C969 H956 0.929 . S
C969 C961 1.433 . S
C969 N971 1.384 . S
N970 C966 1.427 . S
N970 C967 1.384 1_655 S
N971 C963 1.427 . S
N971 C969 1.384 . S
H972 C978 0.930 . S
H973 C982 0.930 . S
H974 C987 0.929 . S
H975 C985 0.929 . S
H976 C980 0.929 . S
H977 C986 0.929 . S
C978 H972 0.930 . S
C978 C979 1.367 . S
C978 C986 1.378 . S
C979 C978 1.367 . S
C979 C987 1.433 . S
C980 H976 0.929 . S
C980 C982 1.378 . S
C980 C984 1.350 . S
C981 C984 1.463 . S
C981 C986 1.350 . S
C981 N989 1.427 . S
C982 H973 0.930 . S
C982 C980 1.378 . S
C982 C983 1.367 . S
C983 C982 1.367 . S
C983 C985 1.433 . S
C984 C980 1.350 . S
C984 C981 1.463 . S
C984 N988 1.427 . S
C985 H975 0.929 . S
C985 C983 1.433 . S
C985 N988 1.384 . S
C986 H977 0.929 . S
C986 C978 1.378 . S
C986 C981 1.350 . S
C987 H974 0.929 . S
C987 C979 1.433 . S
C987 N989 1.384 . S
N988 C984 1.427 . S
N988 C985 1.384 . S
N989 C981 1.427 . S
N989 C987 1.384 . S
H990 C996 0.930 . S
H991 C1000 0.930 . S
H992 C1005 0.929 . S
H993 C1003 0.929 . S
H994 C998 0.929 . S
H995 C1004 0.929 . S
C996 H990 0.930 . S
C996 C997 1.367 1_455 S
C996 C1004 1.378 . S
C997 C996 1.367 1_655 S
C997 C1005 1.433 . S
C998 H994 0.929 . S
C998 C1000 1.378 . S
C998 C1002 1.350 . S
C999 C1002 1.463 . S
C999 C1004 1.350 . S
C999 N1007 1.427 1_455 S
C1000 H991 0.930 . S
C1000 C998 1.378 . S
C1000 C1001 1.367 . S
C1001 C1000 1.367 . S
C1001 C1003 1.433 . S
C1002 C998 1.350 . S
C1002 C999 1.463 . S
C1002 N1006 1.427 . S
C1003 H993 0.929 . S
C1003 C1001 1.433 . S
C1003 N1006 1.384 . S
C1004 H995 0.929 . S
C1004 C996 1.378 . S
C1004 C999 1.350 . S
C1005 H992 0.929 . S
C1005 C997 1.433 . S
C1005 N1007 1.384 . S
N1006 C1002 1.427 . S
N1006 C1003 1.384 . S
N1007 C999 1.427 1_655 S
N1007 C1005 1.384 . S
H1008 C1014 0.930 . S
H1009 C1018 0.930 . S
H1010 C1023 0.929 . S
H1011 C1021 0.929 . S
H1012 C1016 0.929 . S
H1013 C1022 0.929 . S
C1014 H1008 0.930 . S
C1014 C1015 1.367 . S
C1014 C1022 1.378 . S
C1015 C1014 1.367 . S
C1015 C1023 1.433 . S
C1016 H1012 0.929 . S
C1016 C1018 1.378 . S
C1016 C1020 1.350 . S
C1017 C1020 1.463 . S
C1017 C1022 1.350 . S
C1017 N1025 1.427 . S
C1018 H1009 0.930 . S
C1018 C1016 1.378 . S
C1018 C1019 1.367 . S
C1019 C1018 1.367 . S
C1019 C1021 1.433 . S
C1020 C1016 1.350 . S
C1020 C1017 1.463 . S
C1020 N1024 1.427 . S
C1021 H1011 0.929 . S
C1021 C1019 1.433 . S
C1021 N1024 1.384 . S
C1022 H1013 0.929 . S
C1022 C1014 1.378 . S
C1022 C1017 1.350 . S
C1023 H1010 0.929 . S
C1023 C1015 1.433 . S
C1023 N1025 1.384 . S
N1024 C1020 1.427 . S
N1024 C1021 1.384 . S
N1025 C1017 1.427 . S
N1025 C1023 1.384 . S
H1026 C1032 0.930 . S
H1027 C1036 0.930 . S
H1028 C1041 0.929 . S
H1029 C1039 0.929 . S
H1030 C1034 0.929 . S
H1031 C1040 0.929 . S
C1032 H1026 0.930 . S
C1032 C1033 1.367 1_565 S
C1032 C1040 1.378 . S
C1033 C1032 1.367 1_545 S
C1033 C1041 1.433 . S
C1034 H1030 0.929 . S
C1034 C1036 1.378 . S
C1034 C1038 1.350 . S
C1035 C1038 1.463 . S
C1035 C1040 1.350 . S
C1035 N1043 1.427 . S
C1036 H1027 0.930 . S
C1036 C1034 1.378 . S
C1036 C1037 1.367 . S
C1037 C1036 1.367 . S
C1037 C1039 1.433 . S
C1038 C1034 1.350 . S
C1038 C1035 1.463 . S
C1038 N1042 1.427 . S
C1039 H1029 0.929 . S
C1039 C1037 1.433 . S
C1039 N1042 1.384 . S
C1040 H1031 0.929 . S
C1040 C1032 1.378 . S
C1040 C1035 1.350 . S
C1041 H1028 0.929 . S
C1041 C1033 1.433 . S
C1041 N1043 1.384 1_545 S
N1042 C1038 1.427 . S
N1042 C1039 1.384 . S
N1043 C1035 1.427 . S
N1043 C1041 1.384 1_565 S
H1044 C1050 0.930 . S
H1045 C1054 0.930 . S
H1046 C1059 0.929 . S
H1047 C1057 0.929 . S
H1048 C1052 0.929 . S
H1049 C1058 0.929 . S
C1050 H1044 0.930 . S
C1050 C1051 1.367 . S
C1050 C1058 1.378 . S
C1051 C1050 1.367 . S
C1051 C1059 1.433 . S
C1052 H1048 0.929 . S
C1052 C1054 1.378 . S
C1052 C1056 1.350 . S
C1053 C1056 1.463 . S
C1053 C1058 1.350 . S
C1053 N1061 1.427 . S
C1054 H1045 0.930 . S
C1054 C1052 1.378 . S
C1054 C1055 1.367 . S
C1055 C1054 1.367 . S
C1055 C1057 1.433 . S
C1056 C1052 1.350 . S
C1056 C1053 1.463 . S
C1056 N1060 1.427 . S
C1057 H1047 0.929 . S
C1057 C1055 1.433 . S
C1057 N1060 1.384 . S
C1058 H1049 0.929 . S
C1058 C1050 1.378 . S
C1058 C1053 1.350 . S
C1059 H1046 0.929 . S
C1059 C1051 1.433 . S
C1059 N1061 1.384 . S
N1060 C1056 1.427 . S
N1060 C1057 1.384 . S
N1061 C1053 1.427 . S
N1061 C1059 1.384 . S
H1062 C1068 0.930 . S
H1063 C1072 0.930 . S
H1064 C1077 0.929 . S
H1065 C1075 0.929 . S
H1066 C1070 0.929 . S
H1067 C1076 0.929 . S
C1068 H1062 0.930 . S
C1068 C1069 1.367 . S
C1068 C1076 1.378 . S
C1069 C1068 1.367 . S
C1069 C1077 1.433 . S
C1070 H1066 0.929 . S
C1070 C1072 1.378 . S
C1070 C1074 1.350 . S
C1071 C1074 1.463 1_545 S
C1071 C1076 1.350 . S
C1071 N1079 1.427 . S
C1072 H1063 0.930 . S
C1072 C1070 1.378 . S
C1072 C1073 1.367 . S
C1073 C1072 1.367 . S
C1073 C1075 1.433 . S
C1074 C1070 1.350 . S
C1074 C1071 1.463 1_565 S
C1074 N1078 1.427 . S
C1075 H1065 0.929 . S
C1075 C1073 1.433 . S
C1075 N1078 1.384 . S
C1076 H1067 0.929 . S
C1076 C1068 1.378 . S
C1076 C1071 1.350 . S
C1077 H1064 0.929 . S
C1077 C1069 1.433 . S
C1077 N1079 1.384 . S
N1078 C1074 1.427 . S
N1078 C1075 1.384 . S
N1079 C1071 1.427 . S
N1079 C1077 1.384 . S
H1080 C1086 0.930 . S
H1081 C1090 0.930 . S
H1082 C1095 0.929 . S
H1083 C1093 0.929 . S
H1084 C1088 0.929 . S
H1085 C1094 0.929 . S
C1086 H1080 0.930 . S
C1086 C1087 1.367 . S
C1086 C1094 1.378 . S
C1087 C1086 1.367 . S
C1087 C1095 1.433 . S
C1088 H1084 0.929 . S
C1088 C1090 1.378 . S
C1088 C1092 1.350 . S
C1089 C1092 1.463 1_655 S
C1089 C1094 1.350 . S
C1089 N1097 1.427 . S
C1090 H1081 0.930 . S
C1090 C1088 1.378 . S
C1090 C1091 1.367 . S
C1091 C1090 1.367 . S
C1091 C1093 1.433 . S
C1092 C1088 1.350 . S
C1092 C1089 1.463 1_455 S
C1092 N1096 1.427 . S
C1093 H1083 0.929 . S
C1093 C1091 1.433 . S
C1093 N1096 1.384 . S
C1094 H1085 0.929 . S
C1094 C1086 1.378 . S
C1094 C1089 1.350 . S
C1095 H1082 0.929 . S
C1095 C1087 1.433 . S
C1095 N1097 1.384 . S
N1096 C1092 1.427 . S
N1096 C1093 1.384 . S
N1097 C1089 1.427 . S
N1097 C1095 1.384 . S
H1098 C1104 0.930 . S
H1099 C1108 0.930 . S
H1100 C1113 0.929 . S
H1101 C1111 0.929 . S
H1102 C1106 0.929 . S
H1103 C1112 0.929 . S
C1104 H1098 0.930 . S
C1104 C1105 1.367 . S
C1104 C1112 1.378 . S
C1105 C1104 1.367 . S
C1105 C1113 1.433 . S
C1106 H1102 0.929 . S
C1106 C1108 1.378 . S
C1106 C1110 1.350 . S
C1107 C1110 1.463 . S
C1107 C1112 1.350 . S
C1107 N1115 1.427 . S
C1108 H1099 0.930 . S
C1108 C1106 1.378 . S
C1108 C1109 1.367 . S
C1109 C1108 1.367 . S
C1109 C1111 1.433 . S
C1110 C1106 1.350 . S
C1110 C1107 1.463 . S
C1110 N1114 1.427 . S
C1111 H1101 0.929 . S
C1111 C1109 1.433 . S
C1111 N1114 1.384 . S
C1112 H1103 0.929 . S
C1112 C1104 1.378 . S
C1112 C1107 1.350 . S
C1113 H1100 0.929 . S
C1113 C1105 1.433 . S
C1113 N1115 1.384 . S
N1114 C1110 1.427 . S
N1114 C1111 1.384 . S
N1115 C1107 1.427 . S
N1115 C1113 1.384 . S
H1116 C1122 0.930 . S
H1117 C1126 0.930 . S
H1118 C1131 0.929 . S
H1119 C1129 0.929 . S
H1120 C1124 0.929 . S
H1121 C1130 0.929 . S
C1122 H1116 0.930 . S
C1122 C1123 1.367 . S
C1122 C1130 1.378 . S
C1123 C1122 1.367 . S
C1123 C1131 1.433 . S
C1124 H1120 0.929 . S
C1124 C1126 1.378 . S
C1124 C1128 1.350 . S
C1125 C1128 1.463 1_565 S
C1125 C1130 1.350 . S
C1125 N1133 1.427 . S
C1126 H1117 0.930 . S
C1126 C1124 1.378 . S
C1126 C1127 1.367 . S
C1127 C1126 1.367 . S
C1127 C1129 1.433 . S
C1128 C1124 1.350 . S
C1128 C1125 1.463 1_545 S
C1128 N1132 1.427 . S
C1129 H1119 0.929 . S
C1129 C1127 1.433 . S
C1129 N1132 1.384 . S
C1130 H1121 0.929 . S
C1130 C1122 1.378 . S
C1130 C1125 1.350 . S
C1131 H1118 0.929 . S
C1131 C1123 1.433 . S
C1131 N1133 1.384 . S
N1132 C1128 1.427 . S
N1132 C1129 1.384 . S
N1133 C1125 1.427 . S
N1133 C1131 1.384 . S
H1134 C1140 0.930 . S
H1135 C1144 0.930 . S
H1136 C1149 0.929 . S
H1137 C1147 0.929 . S
H1138 C1142 0.929 . S
H1139 C1148 0.929 . S
C1140 H1134 0.930 . S
C1140 C1141 1.367 . S
C1140 C1148 1.378 . S
C1141 C1140 1.367 . S
C1141 C1149 1.433 . S
C1142 H1138 0.929 . S
C1142 C1144 1.378 . S
C1142 C1146 1.350 . S
C1143 C1146 1.463 1_655 S
C1143 C1148 1.350 . S
C1143 N1151 1.427 . S
C1144 H1135 0.930 . S
C1144 C1142 1.378 . S
C1144 C1145 1.367 . S
C1145 C1144 1.367 . S
C1145 C1147 1.433 . S
C1146 C1142 1.350 . S
C1146 C1143 1.463 1_455 S
C1146 N1150 1.427 . S
C1147 H1137 0.929 . S
C1147 C1145 1.433 . S
C1147 N1150 1.384 . S
C1148 H1139 0.929 . S
C1148 C1140 1.378 . S
C1148 C1143 1.350 . S
C1149 H1136 0.929 . S
C1149 C1141 1.433 . S
C1149 N1151 1.384 . S
N1150 C1146 1.427 . S
N1150 C1147 1.384 . S
N1151 C1143 1.427 . S
N1151 C1149 1.384 . S
H1152 C1158 0.930 . S
H1153 C1162 0.930 . S
H1154 C1167 0.929 . S
H1155 C1165 0.929 . S
H1156 C1160 0.929 . S
H1157 C1166 0.929 . S
C1158 H1152 0.930 . S
C1158 C1159 1.367 . S
C1158 C1166 1.378 . S
C1159 C1158 1.367 . S
C1159 C1167 1.433 . S
C1160 H1156 0.929 . S
C1160 C1162 1.378 . S
C1160 C1164 1.350 . S
C1161 C1164 1.463 . S
C1161 C1166 1.350 . S
C1161 N1169 1.427 . S
C1162 H1153 0.930 . S
C1162 C1160 1.378 . S
C1162 C1163 1.367 . S
C1163 C1162 1.367 . S
C1163 C1165 1.433 . S
C1164 C1160 1.350 . S
C1164 C1161 1.463 . S
C1164 N1168 1.427 . S
C1165 H1155 0.929 . S
C1165 C1163 1.433 . S
C1165 N1168 1.384 . S
C1166 H1157 0.929 . S
C1166 C1158 1.378 . S
C1166 C1161 1.350 . S
C1167 H1154 0.929 . S
C1167 C1159 1.433 . S
C1167 N1169 1.384 . S
N1168 C1164 1.427 . S
N1168 C1165 1.384 . S
N1169 C1161 1.427 . S
N1169 C1167 1.384 . S
H1170 C1176 0.930 . S
H1171 C1180 0.930 . S
H1172 C1185 0.929 . S
H1173 C1183 0.929 . S
H1174 C1178 0.929 . S
H1175 C1184 0.929 . S
C1176 H1170 0.930 . S
C1176 C1177 1.367 . S
C1176 C1184 1.378 . S
C1177 C1176 1.367 . S
C1177 C1185 1.433 . S
C1178 H1174 0.929 . S
C1178 C1180 1.378 . S
C1178 C1182 1.350 . S
C1179 C1182 1.463 . S
C1179 C1184 1.350 1_565 S
C1179 N1187 1.427 . S
C1180 H1171 0.930 . S
C1180 C1178 1.378 . S
C1180 C1181 1.367 . S
C1181 C1180 1.367 . S
C1181 C1183 1.433 . S
C1182 C1178 1.350 . S
C1182 C1179 1.463 . S
C1182 N1186 1.427 . S
C1183 H1173 0.929 . S
C1183 C1181 1.433 . S
C1183 N1186 1.384 . S
C1184 H1175 0.929 . S
C1184 C1176 1.378 . S
C1184 C1179 1.350 1_545 S
C1185 H1172 0.929 . S
C1185 C1177 1.433 . S
C1185 N1187 1.384 1_545 S
N1186 C1182 1.427 . S
N1186 C1183 1.384 . S
N1187 C1179 1.427 . S
N1187 C1185 1.384 1_565 S
H1188 C1194 0.930 . S
H1189 C1198 0.930 . S
H1190 C1203 0.929 . S
H1191 C1201 0.929 . S
H1192 C1196 0.929 . S
H1193 C1202 0.932 . S
C1194 H1188 0.930 . S
C1194 C1195 1.367 . S
C1194 C1202 1.378 . S
C1195 C1194 1.367 . S
C1195 C1203 1.433 . S
C1196 H1192 0.929 . S
C1196 C1198 1.378 . S
C1196 C1200 1.350 . S
C1197 C1200 1.463 . S
C1197 C1202 1.350 1_455 S
C1197 N1205 1.427 . S
C1198 H1189 0.930 . S
C1198 C1196 1.378 . S
C1198 C1199 1.367 . S
C1199 C1198 1.367 . S
C1199 C1201 1.433 . S
C1200 C1196 1.350 . S
C1200 C1197 1.463 . S
C1200 N1204 1.427 . S
C1201 H1191 0.929 . S
C1201 C1199 1.433 . S
C1201 N1204 1.384 . S
C1202 H1193 0.932 . S
C1202 C1194 1.378 . S
C1202 C1197 1.350 1_655 S
C1203 H1190 0.929 . S
C1203 C1195 1.433 . S
C1203 N1205 1.384 1_655 S
N1204 C1200 1.427 . S
N1204 C1201 1.384 . S
N1205 C1197 1.427 . S
N1205 C1203 1.384 1_455 S
H1206 C1212 0.930 . S
H1207 C1216 0.930 . S
H1208 C1221 0.929 . S
H1209 C1219 0.929 1_565 S
H1210 C1214 0.929 . S
H1211 C1220 0.929 . S
C1212 H1206 0.930 . S
C1212 C1213 1.367 . S
C1212 C1220 1.378 . S
C1213 C1212 1.367 . S
C1213 C1221 1.433 . S
C1214 H1210 0.929 . S
C1214 C1216 1.378 . S
C1214 C1218 1.350 . S
C1215 C1218 1.463 . S
C1215 C1220 1.350 . S
C1215 N1223 1.427 . S
C1216 H1207 0.930 . S
C1216 C1214 1.378 . S
C1216 C1217 1.367 . S
C1217 C1216 1.367 . S
C1217 C1219 1.433 . S
C1218 C1214 1.350 . S
C1218 C1215 1.463 . S
C1218 N1222 1.427 . S
C1219 H1209 0.929 1_545 S
C1219 C1217 1.433 . S
C1219 N1222 1.384 . S
C1220 H1211 0.929 . S
C1220 C1212 1.378 . S
C1220 C1215 1.350 . S
C1221 H1208 0.929 . S
C1221 C1213 1.433 . S
C1221 N1223 1.384 . S
N1222 C1218 1.427 . S
N1222 C1219 1.384 . S
N1223 C1215 1.427 . S
N1223 C1221 1.384 . S
H1224 C1230 0.930 . S
H1225 C1234 0.930 . S
H1226 C1239 0.929 . S
H1227 C1237 0.929 . S
H1228 C1232 0.929 . S
H1229 C1238 0.929 . S
C1230 H1224 0.930 . S
C1230 C1231 1.367 . S
C1230 C1238 1.378 . S
C1231 C1230 1.367 . S
C1231 C1239 1.433 . S
C1232 H1228 0.929 . S
C1232 C1234 1.378 1_545 S
C1232 C1236 1.350 . S
C1233 C1236 1.463 . S
C1233 C1238 1.350 . S
C1233 N1241 1.427 . S
C1234 H1225 0.930 . S
C1234 C1232 1.378 1_565 S
C1234 C1235 1.367 . S
C1235 C1234 1.367 . S
C1235 C1237 1.433 . S
C1236 C1232 1.350 . S
C1236 C1233 1.463 . S
C1236 N1240 1.427 1_545 S
C1237 H1227 0.929 . S
C1237 C1235 1.433 . S
C1237 N1240 1.384 . S
C1238 H1229 0.929 . S
C1238 C1230 1.378 . S
C1238 C1233 1.350 . S
C1239 H1226 0.929 . S
C1239 C1231 1.433 . S
C1239 N1241 1.384 . S
N1240 C1236 1.427 1_565 S
N1240 C1237 1.384 . S
N1241 C1233 1.427 . S
N1241 C1239 1.384 . S
H1242 C1248 0.930 . S
H1243 C1252 0.930 . S
H1244 C1257 0.929 . S
H1245 C1255 0.929 . S
H1246 C1250 0.929 . S
H1247 C1256 0.929 1_655 S
C1248 H1242 0.930 . S
C1248 C1249 1.367 . S
C1248 C1256 1.378 . S
C1249 C1248 1.367 . S
C1249 C1257 1.433 . S
C1250 H1246 0.929 . S
C1250 C1252 1.378 . S
C1250 C1254 1.350 . S
C1251 C1254 1.463 . S
C1251 C1256 1.350 1_655 S
C1251 N1259 1.427 1_655 S
C1252 H1243 0.930 . S
C1252 C1250 1.378 . S
C1252 C1253 1.367 . S
C1253 C1252 1.367 . S
C1253 C1255 1.433 . S
C1254 C1250 1.350 . S
C1254 C1251 1.463 . S
C1254 N1258 1.427 . S
C1255 H1245 0.929 . S
C1255 C1253 1.433 . S
C1255 N1258 1.384 . S
C1256 H1247 0.929 1_455 S
C1256 C1248 1.378 . S
C1256 C1251 1.350 1_455 S
C1257 H1244 0.929 . S
C1257 C1249 1.433 . S
C1257 N1259 1.384 . S
N1258 C1254 1.427 . S
N1258 C1255 1.384 . S
N1259 C1251 1.427 1_455 S
N1259 C1257 1.384 . S
H1260 C1266 0.930 . S
H1261 C1270 0.930 . S
H1262 C1275 0.929 . S
H1263 C1273 0.929 . S
H1264 C1268 0.929 . S
H1265 C1274 0.929 . S
C1266 H1260 0.930 . S
C1266 C1267 1.367 . S
C1266 C1274 1.378 . S
C1267 C1266 1.367 . S
C1267 C1275 1.433 . S
C1268 H1264 0.929 . S
C1268 C1270 1.378 . S
C1268 C1272 1.350 . S
C1269 C1272 1.463 . S
C1269 C1274 1.350 . S
C1269 N1277 1.427 . S
C1270 H1261 0.930 . S
C1270 C1268 1.378 . S
C1270 C1271 1.367 . S
C1271 C1270 1.367 . S
C1271 C1273 1.433 . S
C1272 C1268 1.350 . S
C1272 C1269 1.463 . S
C1272 N1276 1.427 . S
C1273 H1263 0.929 . S
C1273 C1271 1.433 . S
C1273 N1276 1.384 . S
C1274 H1265 0.929 . S
C1274 C1266 1.378 . S
C1274 C1269 1.350 . S
C1275 H1262 0.929 . S
C1275 C1267 1.433 . S
C1275 N1277 1.384 . S
N1276 C1272 1.427 . S
N1276 C1273 1.384 . S
N1277 C1269 1.427 . S
N1277 C1275 1.384 . S
H1278 C1284 0.930 . S
H1279 C1288 0.930 . S
H1280 C1293 0.929 . S
H1281 C1291 0.929 . S
H1282 C1286 0.929 . S
H1283 C1292 0.929 . S
C1284 H1278 0.930 . S
C1284 C1285 1.367 . S
C1284 C1292 1.378 . S
C1285 C1284 1.367 . S
C1285 C1293 1.433 . S
C1286 H1282 0.929 . S
C1286 C1288 1.378 . S
C1286 C1290 1.350 . S
C1287 C1290 1.463 . S
C1287 C1292 1.350 1_545 S
C1287 N1295 1.427 . S
C1288 H1279 0.930 . S
C1288 C1286 1.378 . S
C1288 C1289 1.367 . S
C1289 C1288 1.367 . S
C1289 C1291 1.433 . S
C1290 C1286 1.350 . S
C1290 C1287 1.463 . S
C1290 N1294 1.427 . S
C1291 H1281 0.929 . S
C1291 C1289 1.433 . S
C1291 N1294 1.384 . S
C1292 H1283 0.929 . S
C1292 C1284 1.378 . S
C1292 C1287 1.350 1_565 S
C1293 H1280 0.929 . S
C1293 C1285 1.433 . S
C1293 N1295 1.384 1_565 S
N1294 C1290 1.427 . S
N1294 C1291 1.384 . S
N1295 C1287 1.427 . S
N1295 C1293 1.384 1_545 S
H1296 C1302 0.930 . S
H1297 C1306 0.930 . S
H1298 C1311 0.929 . S
H1299 C1309 0.929 . S
H1300 C1304 0.929 . S
H1301 C1310 0.929 . S
C1302 H1296 0.930 . S
C1302 C1303 1.367 . S
C1302 C1310 1.378 . S
C1303 C1302 1.367 . S
C1303 C1311 1.433 . S
C1304 H1300 0.929 . S
C1304 C1306 1.378 . S
C1304 C1308 1.350 . S
C1305 C1308 1.463 . S
C1305 C1310 1.350 1_655 S
C1305 N1313 1.427 . S
C1306 H1297 0.930 . S
C1306 C1304 1.378 . S
C1306 C1307 1.367 . S
C1307 C1306 1.367 . S
C1307 C1309 1.433 . S
C1308 C1304 1.350 . S
C1308 C1305 1.463 . S
C1308 N1312 1.427 . S
C1309 H1299 0.929 . S
C1309 C1307 1.433 . S
C1309 N1312 1.384 . S
C1310 H1301 0.929 . S
C1310 C1302 1.378 . S
C1310 C1305 1.350 1_455 S
C1311 H1298 0.929 . S
C1311 C1303 1.433 . S
C1311 N1313 1.384 1_455 S
N1312 C1308 1.427 . S
N1312 C1309 1.384 . S
N1313 C1305 1.427 . S
N1313 C1311 1.384 1_655 S
H1314 C1320 0.930 . S
H1315 C1324 0.930 . S
H1316 C1329 0.929 . S
H1317 C1327 0.929 . S
H1318 C1322 0.929 . S
H1319 C1328 0.929 . S
C1320 H1314 0.930 . S
C1320 C1321 1.367 . S
C1320 C1328 1.378 . S
C1321 C1320 1.367 . S
C1321 C1329 1.433 . S
C1322 H1318 0.929 . S
C1322 C1324 1.378 . S
C1322 C1326 1.350 . S
C1323 C1326 1.463 . S
C1323 C1328 1.350 . S
C1323 N1331 1.427 . S
C1324 H1315 0.930 . S
C1324 C1322 1.378 . S
C1324 C1325 1.367 . S
C1325 C1324 1.367 . S
C1325 C1327 1.433 . S
C1326 C1322 1.350 . S
C1326 C1323 1.463 . S
C1326 N1330 1.427 . S
C1327 H1317 0.929 . S
C1327 C1325 1.433 . S
C1327 N1330 1.384 . S
C1328 H1319 0.929 . S
C1328 C1320 1.378 . S
C1328 C1323 1.350 . S
C1329 H1316 0.929 . S
C1329 C1321 1.433 . S
C1329 N1331 1.384 . S
N1330 C1326 1.427 . S
N1330 C1327 1.384 . S
N1331 C1323 1.427 . S
N1331 C1329 1.384 . S
H1332 C1338 0.930 . S
H1333 C1342 0.930 . S
H1334 C1347 0.929 . S
H1335 C1345 0.929 . S
H1336 C1340 0.929 . S
H1337 C1346 0.929 . S
C1338 H1332 0.930 . S
C1338 C1339 1.367 . S
C1338 C1346 1.378 . S
C1339 C1338 1.367 . S
C1339 C1347 1.433 . S
C1340 H1336 0.929 . S
C1340 C1342 1.378 . S
C1340 C1344 1.350 . S
C1341 C1344 1.463 . S
C1341 C1346 1.350 1_565 S
C1341 N1349 1.427 . S
C1342 H1333 0.930 . S
C1342 C1340 1.378 . S
C1342 C1343 1.367 . S
C1343 C1342 1.367 . S
C1343 C1345 1.433 . S
C1344 C1340 1.350 . S
C1344 C1341 1.463 . S
C1344 N1348 1.427 . S
C1345 H1335 0.929 . S
C1345 C1343 1.433 . S
C1345 N1348 1.384 . S
C1346 H1337 0.929 . S
C1346 C1338 1.378 . S
C1346 C1341 1.350 1_545 S
C1347 H1334 0.929 . S
C1347 C1339 1.433 . S
C1347 N1349 1.384 1_545 S
N1348 C1344 1.427 . S
N1348 C1345 1.384 . S
N1349 C1341 1.427 . S
N1349 C1347 1.384 1_565 S
H1350 C1356 0.930 . S
H1351 C1360 0.930 . S
H1352 C1365 0.929 . S
H1353 C1363 0.929 . S
H1354 C1358 0.928 . S
H1355 C1364 0.929 . S
C1356 H1350 0.930 . S
C1356 C1357 1.367 . S
C1356 C1364 1.378 . S
C1357 C1356 1.367 . S
C1357 C1365 1.433 . S
C1358 H1354 0.928 . S
C1358 C1360 1.378 1_455 S
C1358 C1362 1.350 . S
C1359 C1362 1.463 . S
C1359 C1364 1.350 . S
C1359 N1367 1.427 . S
C1360 H1351 0.930 . S
C1360 C1358 1.378 1_655 S
C1360 C1361 1.367 . S
C1361 C1360 1.367 . S
C1361 C1363 1.433 . S
C1362 C1358 1.350 . S
C1362 C1359 1.463 . S
C1362 N1366 1.427 1_455 S
C1363 H1353 0.929 . S
C1363 C1361 1.433 . S
C1363 N1366 1.384 . S
C1364 H1355 0.929 . S
C1364 C1356 1.378 . S
C1364 C1359 1.350 . S
C1365 H1352 0.929 . S
C1365 C1357 1.433 . S
C1365 N1367 1.384 . S
N1366 C1362 1.427 1_655 S
N1366 C1363 1.384 . S
N1367 C1359 1.427 . S
N1367 C1365 1.384 . S
H1368 C1374 0.930 . S
H1369 C1378 0.930 . S
H1370 C1383 0.929 . S
H1371 C1381 0.929 . S
H1372 C1376 0.929 . S
H1373 C1382 0.929 . S
C1374 H1368 0.930 . S
C1374 C1375 1.367 . S
C1374 C1382 1.378 . S
C1375 C1374 1.367 . S
C1375 C1383 1.433 . S
C1376 H1372 0.929 . S
C1376 C1378 1.378 . S
C1376 C1380 1.350 . S
C1377 C1380 1.463 . S
C1377 C1382 1.350 . S
C1377 N1385 1.427 . S
C1378 H1369 0.930 . S
C1378 C1376 1.378 . S
C1378 C1379 1.367 . S
C1379 C1378 1.367 . S
C1379 C1381 1.433 . S
C1380 C1376 1.350 . S
C1380 C1377 1.463 . S
C1380 N1384 1.427 . S
C1381 H1371 0.929 . S
C1381 C1379 1.433 . S
C1381 N1384 1.384 . S
C1382 H1373 0.929 . S
C1382 C1374 1.378 . S
C1382 C1377 1.350 . S
C1383 H1370 0.929 . S
C1383 C1375 1.433 . S
C1383 N1385 1.384 . S
N1384 C1380 1.427 . S
N1384 C1381 1.384 . S
N1385 C1377 1.427 . S
N1385 C1383 1.384 . S
H1386 C1392 0.930 . S
H1387 C1396 0.930 . S
H1388 C1401 0.929 . S
H1389 C1399 0.929 . S
H1390 C1394 0.929 . S
H1391 C1400 0.929 . S
C1392 H1386 0.930 . S
C1392 C1393 1.367 . S
C1392 C1400 1.378 . S
C1393 C1392 1.367 . S
C1393 C1401 1.433 . S
C1394 H1390 0.929 . S
C1394 C1396 1.378 . S
C1394 C1398 1.350 . S
C1395 C1398 1.463 . S
C1395 C1400 1.350 . S
C1395 N1403 1.427 . S
C1396 H1387 0.930 . S
C1396 C1394 1.378 . S
C1396 C1397 1.367 . S
C1397 C1396 1.367 . S
C1397 C1399 1.433 . S
C1398 C1394 1.350 . S
C1398 C1395 1.463 . S
C1398 N1402 1.427 . S
C1399 H1389 0.929 . S
C1399 C1397 1.433 . S
C1399 N1402 1.384 . S
C1400 H1391 0.929 . S
C1400 C1392 1.378 . S
C1400 C1395 1.350 . S
C1401 H1388 0.929 . S
C1401 C1393 1.433 . S
C1401 N1403 1.384 . S
N1402 C1398 1.427 . S
N1402 C1399 1.384 . S
N1403 C1395 1.427 . S
N1403 C1401 1.384 . S
H1404 C1410 0.930 . S
H1405 C1414 0.930 . S
H1406 C1419 0.929 . S
H1407 C1417 0.929 . S
H1408 C1412 0.929 . S
H1409 C1418 0.929 . S
C1410 H1404 0.930 . S
C1410 C1411 1.367 . S
C1410 C1418 1.378 . S
C1411 C1410 1.367 . S
C1411 C1419 1.433 . S
C1412 H1408 0.929 . S
C1412 C1414 1.378 . S
C1412 C1416 1.350 . S
C1413 C1416 1.463 . S
C1413 C1418 1.350 . S
C1413 N1421 1.427 . S
C1414 H1405 0.930 . S
C1414 C1412 1.378 . S
C1414 C1415 1.367 . S
C1415 C1414 1.367 . S
C1415 C1417 1.433 . S
C1416 C1412 1.350 . S
C1416 C1413 1.463 . S
C1416 N1420 1.427 . S
C1417 H1407 0.929 . S
C1417 C1415 1.433 . S
C1417 N1420 1.384 . S
C1418 H1409 0.929 . S
C1418 C1410 1.378 . S
C1418 C1413 1.350 . S
C1419 H1406 0.929 . S
C1419 C1411 1.433 . S
C1419 N1421 1.384 . S
N1420 C1416 1.427 . S
N1420 C1417 1.384 . S
N1421 C1413 1.427 . S
N1421 C1419 1.384 . S
H1422 C1428 0.930 . S
H1423 C1432 0.930 . S
H1424 C1437 0.929 . S
H1425 C1435 0.929 . S
H1426 C1430 0.929 . S
H1427 C1436 0.929 . S
C1428 H1422 0.930 . S
C1428 C1429 1.367 . S
C1428 C1436 1.378 . S
C1429 C1428 1.367 . S
C1429 C1437 1.433 . S
C1430 H1426 0.929 . S
C1430 C1432 1.378 . S
C1430 C1434 1.350 . S
C1431 C1434 1.463 . S
C1431 C1436 1.350 . S
C1431 N1439 1.427 . S
C1432 H1423 0.930 . S
C1432 C1430 1.378 . S
C1432 C1433 1.367 . S
C1433 C1432 1.367 . S
C1433 C1435 1.433 . S
C1434 C1430 1.350 . S
C1434 C1431 1.463 . S
C1434 N1438 1.427 . S
C1435 H1425 0.929 . S
C1435 C1433 1.433 . S
C1435 N1438 1.384 . S
C1436 H1427 0.929 . S
C1436 C1428 1.378 . S
C1436 C1431 1.350 . S
C1437 H1424 0.929 . S
C1437 C1429 1.433 . S
C1437 N1439 1.384 . S
N1438 C1434 1.427 . S
N1438 C1435 1.384 . S
N1439 C1431 1.427 . S
N1439 C1437 1.384 . S
H1440 C1446 0.930 . S
H1441 C1450 0.930 . S
H1442 C1455 0.929 . S
H1443 C1453 0.929 . S
H1444 C1448 0.929 . S
H1445 C1454 0.929 . S
C1446 H1440 0.930 . S
C1446 C1447 1.367 . S
C1446 C1454 1.378 . S
C1447 C1446 1.367 . S
C1447 C1455 1.433 . S
C1448 H1444 0.929 . S
C1448 C1450 1.378 . S
C1448 C1452 1.350 . S
C1449 C1452 1.463 . S
C1449 C1454 1.350 . S
C1449 N1457 1.427 . S
C1450 H1441 0.930 . S
C1450 C1448 1.378 . S
C1450 C1451 1.367 . S
C1451 C1450 1.367 . S
C1451 C1453 1.433 . S
C1452 C1448 1.350 . S
C1452 C1449 1.463 . S
C1452 N1456 1.427 . S
C1453 H1443 0.929 . S
C1453 C1451 1.433 . S
C1453 N1456 1.384 . S
C1454 H1445 0.929 . S
C1454 C1446 1.378 . S
C1454 C1449 1.350 . S
C1455 H1442 0.929 . S
C1455 C1447 1.433 . S
C1455 N1457 1.384 . S
N1456 C1452 1.427 . S
N1456 C1453 1.384 . S
N1457 C1449 1.427 . S
N1457 C1455 1.384 . S
H1458 C1464 0.930 . S
H1459 C1468 0.930 . S
H1460 C1473 0.929 . S
H1461 C1471 0.929 . S
H1462 C1466 0.929 . S
H1463 C1472 0.929 . S
C1464 H1458 0.930 . S
C1464 C1465 1.367 . S
C1464 C1472 1.378 . S
C1465 C1464 1.367 . S
C1465 C1473 1.433 . S
C1466 H1462 0.929 . S
C1466 C1468 1.378 . S
C1466 C1470 1.350 . S
C1467 C1470 1.463 . S
C1467 C1472 1.350 . S
C1467 N1475 1.427 . S
C1468 H1459 0.930 . S
C1468 C1466 1.378 . S
C1468 C1469 1.367 . S
C1469 C1468 1.367 . S
C1469 C1471 1.433 . S
C1470 C1466 1.350 . S
C1470 C1467 1.463 . S
C1470 N1474 1.427 . S
C1471 H1461 0.929 . S
C1471 C1469 1.433 . S
C1471 N1474 1.384 . S
C1472 H1463 0.929 . S
C1472 C1464 1.378 . S
C1472 C1467 1.350 . S
C1473 H1460 0.929 . S
C1473 C1465 1.433 . S
C1473 N1475 1.384 . S
N1474 C1470 1.427 . S
N1474 C1471 1.384 . S
N1475 C1467 1.427 . S
N1475 C1473 1.384 . S
H1476 C1482 0.930 . S
H1477 C1486 0.930 . S
H1478 C1491 0.929 . S
H1479 C1489 0.929 . S
H1480 C1484 0.929 . S
H1481 C1490 0.929 . S
C1482 H1476 0.930 . S
C1482 C1483 1.367 . S
C1482 C1490 1.378 . S
C1483 C1482 1.367 . S
C1483 C1491 1.433 . S
C1484 H1480 0.929 . S
C1484 C1486 1.378 . S
C1484 C1488 1.350 . S
C1485 C1488 1.463 . S
C1485 C1490 1.350 . S
C1485 N1493 1.427 . S
C1486 H1477 0.930 . S
C1486 C1484 1.378 . S
C1486 C1487 1.367 . S
C1487 C1486 1.367 . S
C1487 C1489 1.433 . S
C1488 C1484 1.350 . S
C1488 C1485 1.463 . S
C1488 N1492 1.427 . S
C1489 H1479 0.929 . S
C1489 C1487 1.433 . S
C1489 N1492 1.384 . S
C1490 H1481 0.929 . S
C1490 C1482 1.378 . S
C1490 C1485 1.350 . S
C1491 H1478 0.929 . S
C1491 C1483 1.433 . S
C1491 N1493 1.384 . S
N1492 C1488 1.427 . S
N1492 C1489 1.384 . S
N1493 C1485 1.427 . S
N1493 C1491 1.384 . S
H1494 C1500 0.930 . S
H1495 C1504 0.930 . S
H1496 C1509 0.929 . S
H1497 C1507 0.929 . S
H1498 C1502 0.929 . S
H1499 C1508 0.929 . S
C1500 H1494 0.930 . S
C1500 C1501 1.367 . S
C1500 C1508 1.378 . S
C1501 C1500 1.367 . S
C1501 C1509 1.433 . S
C1502 H1498 0.929 . S
C1502 C1504 1.378 . S
C1502 C1506 1.350 . S
C1503 C1506 1.463 . S
C1503 C1508 1.350 . S
C1503 N1511 1.427 . S
C1504 H1495 0.930 . S
C1504 C1502 1.378 . S
C1504 C1505 1.367 . S
C1505 C1504 1.367 . S
C1505 C1507 1.433 . S
C1506 C1502 1.350 . S
C1506 C1503 1.463 . S
C1506 N1510 1.427 . S
C1507 H1497 0.929 . S
C1507 C1505 1.433 . S
C1507 N1510 1.384 . S
C1508 H1499 0.929 . S
C1508 C1500 1.378 . S
C1508 C1503 1.350 . S
C1509 H1496 0.929 . S
C1509 C1501 1.433 . S
C1509 N1511 1.384 . S
N1510 C1506 1.427 . S
N1510 C1507 1.384 . S
N1511 C1503 1.427 . S
N1511 C1509 1.384 . S
H1512 C1518 0.930 . S
H1513 C1522 0.930 . S
H1514 C1527 0.929 . S
H1515 C1525 0.929 . S
H1516 C1520 0.929 . S
H1517 C1526 0.929 . S
C1518 H1512 0.930 . S
C1518 C1519 1.367 . S
C1518 C1526 1.378 . S
C1519 C1518 1.367 . S
C1519 C1527 1.433 . S
C1520 H1516 0.929 . S
C1520 C1522 1.378 . S
C1520 C1524 1.350 . S
C1521 C1524 1.463 . S
C1521 C1526 1.350 . S
C1521 N1529 1.427 . S
C1522 H1513 0.930 . S
C1522 C1520 1.378 . S
C1522 C1523 1.367 . S
C1523 C1522 1.367 . S
C1523 C1525 1.433 . S
C1524 C1520 1.350 . S
C1524 C1521 1.463 . S
C1524 N1528 1.427 . S
C1525 H1515 0.929 . S
C1525 C1523 1.433 . S
C1525 N1528 1.384 . S
C1526 H1517 0.929 . S
C1526 C1518 1.378 . S
C1526 C1521 1.350 . S
C1527 H1514 0.929 . S
C1527 C1519 1.433 . S
C1527 N1529 1.384 . S
N1528 C1524 1.427 . S
N1528 C1525 1.384 . S
N1529 C1521 1.427 . S
N1529 C1527 1.384 . S
H1530 C1536 0.930 . S
H1531 C1540 0.930 . S
H1532 C1545 0.929 . S
H1533 C1543 0.929 . S
H1534 C1538 0.929 . S
H1535 C1544 0.929 . S
C1536 H1530 0.930 . S
C1536 C1537 1.367 . S
C1536 C1544 1.378 . S
C1537 C1536 1.367 . S
C1537 C1545 1.433 . S
C1538 H1534 0.929 . S
C1538 C1540 1.378 . S
C1538 C1542 1.350 . S
C1539 C1542 1.463 . S
C1539 C1544 1.350 . S
C1539 N1547 1.427 . S
C1540 H1531 0.930 . S
C1540 C1538 1.378 . S
C1540 C1541 1.367 . S
C1541 C1540 1.367 . S
C1541 C1543 1.433 . S
C1542 C1538 1.350 . S
C1542 C1539 1.463 . S
C1542 N1546 1.427 . S
C1543 H1533 0.929 . S
C1543 C1541 1.433 . S
C1543 N1546 1.384 . S
C1544 H1535 0.929 . S
C1544 C1536 1.378 . S
C1544 C1539 1.350 . S
C1545 H1532 0.929 . S
C1545 C1537 1.433 . S
C1545 N1547 1.384 . S
N1546 C1542 1.427 . S
N1546 C1543 1.384 . S
N1547 C1539 1.427 . S
N1547 C1545 1.384 . S
H1548 C1554 0.930 . S
H1549 C1558 0.930 . S
H1550 C1563 0.929 . S
H1551 C1561 0.929 . S
H1552 C1556 0.929 . S
H1553 C1562 0.929 . S
C1554 H1548 0.930 . S
C1554 C1555 1.367 . S
C1554 C1562 1.378 . S
C1555 C1554 1.367 . S
C1555 C1563 1.433 . S
C1556 H1552 0.929 . S
C1556 C1558 1.378 . S
C1556 C1560 1.350 . S
C1557 C1560 1.463 . S
C1557 C1562 1.350 . S
C1557 N1565 1.427 . S
C1558 H1549 0.930 . S
C1558 C1556 1.378 . S
C1558 C1559 1.367 . S
C1559 C1558 1.367 . S
C1559 C1561 1.433 . S
C1560 C1556 1.350 . S
C1560 C1557 1.463 . S
C1560 N1564 1.427 . S
C1561 H1551 0.929 . S
C1561 C1559 1.433 . S
C1561 N1564 1.384 . S
C1562 H1553 0.929 . S
C1562 C1554 1.378 . S
C1562 C1557 1.350 . S
C1563 H1550 0.929 . S
C1563 C1555 1.433 . S
C1563 N1565 1.384 . S
N1564 C1560 1.427 . S
N1564 C1561 1.384 . S
N1565 C1557 1.427 . S
N1565 C1563 1.384 . S
H1566 C1572 0.930 . S
H1567 C1576 0.930 . S
H1568 C1581 0.929 . S
H1569 C1579 0.929 . S
H1570 C1574 0.929 . S
H1571 C1580 0.929 . S
C1572 H1566 0.930 . S
C1572 C1573 1.367 . S
C1572 C1580 1.378 . S
C1573 C1572 1.367 . S
C1573 C1581 1.433 . S
C1574 H1570 0.929 . S
C1574 C1576 1.378 . S
C1574 C1578 1.350 . S
C1575 C1578 1.463 . S
C1575 C1580 1.350 . S
C1575 N1583 1.427 . S
C1576 H1567 0.930 . S
C1576 C1574 1.378 . S
C1576 C1577 1.367 . S
C1577 C1576 1.367 . S
C1577 C1579 1.433 . S
C1578 C1574 1.350 . S
C1578 C1575 1.463 . S
C1578 N1582 1.427 . S
C1579 H1569 0.929 . S
C1579 C1577 1.433 . S
C1579 N1582 1.384 . S
C1580 H1571 0.929 . S
C1580 C1572 1.378 . S
C1580 C1575 1.350 . S
C1581 H1568 0.929 . S
C1581 C1573 1.433 . S
C1581 N1583 1.384 . S
N1582 C1578 1.427 . S
N1582 C1579 1.384 . S
N1583 C1575 1.427 . S
N1583 C1581 1.384 . S
H1584 C1590 0.930 . S
H1585 C1594 0.930 . S
H1586 C1599 0.929 . S
H1587 C1597 0.929 . S
H1588 C1592 0.929 . S
H1589 C1598 0.929 . S
C1590 H1584 0.930 . S
C1590 C1591 1.367 . S
C1590 C1598 1.378 . S
C1591 C1590 1.367 . S
C1591 C1599 1.433 . S
C1592 H1588 0.929 . S
C1592 C1594 1.378 . S
C1592 C1596 1.350 . S
C1593 C1596 1.463 . S
C1593 C1598 1.350 . S
C1593 N1601 1.427 . S
C1594 H1585 0.930 . S
C1594 C1592 1.378 . S
C1594 C1595 1.367 . S
C1595 C1594 1.367 . S
C1595 C1597 1.433 . S
C1596 C1592 1.350 . S
C1596 C1593 1.463 . S
C1596 N1600 1.427 . S
C1597 H1587 0.929 . S
C1597 C1595 1.433 . S
C1597 N1600 1.384 . S
C1598 H1589 0.929 . S
C1598 C1590 1.378 . S
C1598 C1593 1.350 . S
C1599 H1586 0.929 . S
C1599 C1591 1.433 . S
C1599 N1601 1.384 . S
N1600 C1596 1.427 . S
N1600 C1597 1.384 . S
N1601 C1593 1.427 . S
N1601 C1599 1.384 . S
H1602 C1608 0.930 . S
H1603 C1612 0.930 . S
H1604 C1617 0.929 . S
H1605 C1615 0.929 . S
H1606 C1610 0.929 . S
H1607 C1616 0.929 . S
C1608 H1602 0.930 . S
C1608 C1609 1.367 . S
C1608 C1616 1.378 . S
C1609 C1608 1.367 . S
C1609 C1617 1.433 . S
C1610 H1606 0.929 . S
C1610 C1612 1.378 . S
C1610 C1614 1.350 . S
C1611 C1614 1.463 . S
C1611 C1616 1.350 . S
C1611 N1619 1.427 . S
C1612 H1603 0.930 . S
C1612 C1610 1.378 . S
C1612 C1613 1.367 . S
C1613 C1612 1.367 . S
C1613 C1615 1.433 . S
C1614 C1610 1.350 . S
C1614 C1611 1.463 . S
C1614 N1618 1.427 . S
C1615 H1605 0.929 . S
C1615 C1613 1.433 . S
C1615 N1618 1.384 . S
C1616 H1607 0.929 . S
C1616 C1608 1.378 . S
C1616 C1611 1.350 . S
C1617 H1604 0.929 . S
C1617 C1609 1.433 . S
C1617 N1619 1.384 . S
N1618 C1614 1.427 . S
N1618 C1615 1.384 . S
N1619 C1611 1.427 . S
N1619 C1617 1.384 . S
H1620 C1626 0.930 . S
H1621 C1630 0.930 . S
H1622 C1635 0.929 . S
H1623 C1633 0.929 . S
H1624 C1628 0.929 . S
H1625 C1634 0.929 . S
C1626 H1620 0.930 . S
C1626 C1627 1.367 . S
C1626 C1634 1.378 . S
C1627 C1626 1.367 . S
C1627 C1635 1.433 . S
C1628 H1624 0.929 . S
C1628 C1630 1.378 . S
C1628 C1632 1.350 . S
C1629 C1632 1.463 . S
C1629 C1634 1.350 . S
C1629 N1637 1.427 . S
C1630 H1621 0.930 . S
C1630 C1628 1.378 . S
C1630 C1631 1.367 . S
C1631 C1630 1.367 . S
C1631 C1633 1.433 . S
C1632 C1628 1.350 . S
C1632 C1629 1.463 . S
C1632 N1636 1.427 . S
C1633 H1623 0.929 . S
C1633 C1631 1.433 . S
C1633 N1636 1.384 . S
C1634 H1625 0.929 . S
C1634 C1626 1.378 . S
C1634 C1629 1.350 . S
C1635 H1622 0.929 . S
C1635 C1627 1.433 . S
C1635 N1637 1.384 . S
N1636 C1632 1.427 . S
N1636 C1633 1.384 . S
N1637 C1629 1.427 . S
N1637 C1635 1.384 . S
H1638 C1644 0.930 . S
H1639 C1648 0.930 . S
H1640 C1653 0.929 . S
H1641 C1651 0.929 . S
H1642 C1646 0.929 . S
H1643 C1652 0.929 . S
C1644 H1638 0.930 . S
C1644 C1645 1.367 . S
C1644 C1652 1.378 . S
C1645 C1644 1.367 . S
C1645 C1653 1.433 . S
C1646 H1642 0.929 . S
C1646 C1648 1.378 . S
C1646 C1650 1.350 . S
C1647 C1650 1.463 . S
C1647 C1652 1.350 . S
C1647 N1655 1.427 . S
C1648 H1639 0.930 . S
C1648 C1646 1.378 . S
C1648 C1649 1.367 . S
C1649 C1648 1.367 . S
C1649 C1651 1.433 . S
C1650 C1646 1.350 . S
C1650 C1647 1.463 . S
C1650 N1654 1.427 . S
C1651 H1641 0.929 . S
C1651 C1649 1.433 . S
C1651 N1654 1.384 . S
C1652 H1643 0.929 . S
C1652 C1644 1.378 . S
C1652 C1647 1.350 . S
C1653 H1640 0.929 . S
C1653 C1645 1.433 . S
C1653 N1655 1.384 . S
N1654 C1650 1.427 . S
N1654 C1651 1.384 . S
N1655 C1647 1.427 . S
N1655 C1653 1.384 . S
H1656 C1662 0.930 . S
H1657 C1666 0.930 . S
H1658 C1671 0.929 . S
H1659 C1669 0.929 . S
H1660 C1664 0.929 . S
H1661 C1670 0.929 . S
C1662 H1656 0.930 . S
C1662 C1663 1.367 . S
C1662 C1670 1.378 . S
C1663 C1662 1.367 . S
C1663 C1671 1.433 . S
C1664 H1660 0.929 . S
C1664 C1666 1.378 . S
C1664 C1668 1.350 . S
C1665 C1668 1.463 . S
C1665 C1670 1.350 . S
C1665 N1673 1.427 . S
C1666 H1657 0.930 . S
C1666 C1664 1.378 . S
C1666 C1667 1.367 . S
C1667 C1666 1.367 . S
C1667 C1669 1.433 . S
C1668 C1664 1.350 . S
C1668 C1665 1.463 . S
C1668 N1672 1.427 . S
C1669 H1659 0.929 . S
C1669 C1667 1.433 . S
C1669 N1672 1.384 . S
C1670 H1661 0.929 . S
C1670 C1662 1.378 . S
C1670 C1665 1.350 . S
C1671 H1658 0.929 . S
C1671 C1663 1.433 . S
C1671 N1673 1.384 . S
N1672 C1668 1.427 . S
N1672 C1669 1.384 . S
N1673 C1665 1.427 . S
N1673 C1671 1.384 . S
H1674 C1680 0.930 . S
H1675 C1684 0.930 . S
H1676 C1689 0.929 . S
H1677 C1687 0.929 . S
H1678 C1682 0.929 . S
H1679 C1688 0.929 . S
C1680 H1674 0.930 . S
C1680 C1681 1.367 . S
C1680 C1688 1.378 . S
C1681 C1680 1.367 . S
C1681 C1689 1.433 . S
C1682 H1678 0.929 . S
C1682 C1684 1.378 . S
C1682 C1686 1.350 . S
C1683 C1686 1.463 . S
C1683 C1688 1.350 . S
C1683 N1691 1.427 . S
C1684 H1675 0.930 . S
C1684 C1682 1.378 . S
C1684 C1685 1.367 . S
C1685 C1684 1.367 . S
C1685 C1687 1.433 . S
C1686 C1682 1.350 . S
C1686 C1683 1.463 . S
C1686 N1690 1.427 . S
C1687 H1677 0.929 . S
C1687 C1685 1.433 . S
C1687 N1690 1.384 . S
C1688 H1679 0.929 . S
C1688 C1680 1.378 . S
C1688 C1683 1.350 . S
C1689 H1676 0.929 . S
C1689 C1681 1.433 . S
C1689 N1691 1.384 . S
N1690 C1686 1.427 . S
N1690 C1687 1.384 . S
N1691 C1683 1.427 . S
N1691 C1689 1.384 . S
H1692 C1698 0.930 . S
H1693 C1702 0.930 . S
H1694 C1707 0.929 . S
H1695 C1705 0.929 . S
H1696 C1700 0.929 . S
H1697 C1706 0.929 . S
C1698 H1692 0.930 . S
C1698 C1699 1.367 . S
C1698 C1706 1.378 . S
C1699 C1698 1.367 . S
C1699 C1707 1.433 . S
C1700 H1696 0.929 . S
C1700 C1702 1.378 . S
C1700 C1704 1.350 . S
C1701 C1704 1.463 . S
C1701 C1706 1.350 . S
C1701 N1709 1.427 . S
C1702 H1693 0.930 . S
C1702 C1700 1.378 . S
C1702 C1703 1.367 . S
C1703 C1702 1.367 . S
C1703 C1705 1.433 . S
C1704 C1700 1.350 . S
C1704 C1701 1.463 . S
C1704 N1708 1.427 . S
C1705 H1695 0.929 . S
C1705 C1703 1.433 . S
C1705 N1708 1.384 . S
C1706 H1697 0.929 . S
C1706 C1698 1.378 . S
C1706 C1701 1.350 . S
C1707 H1694 0.929 . S
C1707 C1699 1.433 . S
C1707 N1709 1.384 . S
N1708 C1704 1.427 . S
N1708 C1705 1.384 . S
N1709 C1701 1.427 . S
N1709 C1707 1.384 . S
H1710 C1716 0.930 . S
H1711 C1720 0.930 . S
H1712 C1725 0.929 . S
H1713 C1723 0.929 . S
H1714 C1718 0.929 . S
H1715 C1724 0.929 . S
C1716 H1710 0.930 . S
C1716 C1717 1.367 . S
C1716 C1724 1.378 . S
C1717 C1716 1.367 . S
C1717 C1725 1.433 . S
C1718 H1714 0.929 . S
C1718 C1720 1.378 . S
C1718 C1722 1.350 . S
C1719 C1722 1.463 . S
C1719 C1724 1.350 . S
C1719 N1727 1.427 . S
C1720 H1711 0.930 . S
C1720 C1718 1.378 . S
C1720 C1721 1.367 . S
C1721 C1720 1.367 . S
C1721 C1723 1.433 . S
C1722 C1718 1.350 . S
C1722 C1719 1.463 . S
C1722 N1726 1.427 . S
C1723 H1713 0.929 . S
C1723 C1721 1.433 . S
C1723 N1726 1.384 . S
C1724 H1715 0.929 . S
C1724 C1716 1.378 . S
C1724 C1719 1.350 . S
C1725 H1712 0.929 . S
C1725 C1717 1.433 . S
C1725 N1727 1.384 . S
N1726 C1722 1.427 . S
N1726 C1723 1.384 . S
N1727 C1719 1.427 . S
N1727 C1725 1.384 . S
H1728 C1734 0.930 . S
H1729 C1738 0.930 . S
H1730 C1743 0.929 . S
H1731 C1741 0.929 . S
H1732 C1736 0.929 . S
H1733 C1742 0.929 . S
C1734 H1728 0.930 . S
C1734 C1735 1.367 . S
C1734 C1742 1.378 . S
C1735 C1734 1.367 . S
C1735 C1743 1.433 . S
C1736 H1732 0.929 . S
C1736 C1738 1.378 . S
C1736 C1740 1.350 . S
C1737 C1740 1.463 . S
C1737 C1742 1.350 . S
C1737 N1745 1.427 . S
C1738 H1729 0.930 . S
C1738 C1736 1.378 . S
C1738 C1739 1.367 . S
C1739 C1738 1.367 . S
C1739 C1741 1.433 . S
C1740 C1736 1.350 . S
C1740 C1737 1.463 . S
C1740 N1744 1.427 . S
C1741 H1731 0.929 . S
C1741 C1739 1.433 . S
C1741 N1744 1.384 . S
C1742 H1733 0.929 . S
C1742 C1734 1.378 . S
C1742 C1737 1.350 . S
C1743 H1730 0.929 . S
C1743 C1735 1.433 . S
C1743 N1745 1.384 . S
N1744 C1740 1.427 . S
N1744 C1741 1.384 . S
N1745 C1737 1.427 . S
N1745 C1743 1.384 . S
H1746 C1752 0.930 . S
H1747 C1756 0.930 . S
H1748 C1761 0.929 . S
H1749 C1759 0.929 . S
H1750 C1754 0.929 . S
H1751 C1760 0.929 . S
C1752 H1746 0.930 . S
C1752 C1753 1.367 . S
C1752 C1760 1.378 . S
C1753 C1752 1.367 . S
C1753 C1761 1.433 . S
C1754 H1750 0.929 . S
C1754 C1756 1.378 . S
C1754 C1758 1.350 . S
C1755 C1758 1.463 . S
C1755 C1760 1.350 . S
C1755 N1763 1.427 . S
C1756 H1747 0.930 . S
C1756 C1754 1.378 . S
C1756 C1757 1.367 . S
C1757 C1756 1.367 . S
C1757 C1759 1.433 . S
C1758 C1754 1.350 . S
C1758 C1755 1.463 . S
C1758 N1762 1.427 . S
C1759 H1749 0.929 . S
C1759 C1757 1.433 . S
C1759 N1762 1.384 . S
C1760 H1751 0.929 . S
C1760 C1752 1.378 . S
C1760 C1755 1.350 . S
C1761 H1748 0.929 . S
C1761 C1753 1.433 . S
C1761 N1763 1.384 . S
N1762 C1758 1.427 . S
N1762 C1759 1.384 . S
N1763 C1755 1.427 . S
N1763 C1761 1.384 . S
H1764 C1770 0.930 . S
H1765 C1774 0.930 . S
H1766 C1779 0.929 . S
H1767 C1777 0.929 . S
H1768 C1772 0.929 . S
H1769 C1778 0.929 . S
C1770 H1764 0.930 . S
C1770 C1771 1.367 . S
C1770 C1778 1.378 . S
C1771 C1770 1.367 . S
C1771 C1779 1.433 . S
C1772 H1768 0.929 . S
C1772 C1774 1.378 . S
C1772 C1776 1.350 . S
C1773 C1776 1.463 . S
C1773 C1778 1.350 . S
C1773 N1781 1.427 . S
C1774 H1765 0.930 . S
C1774 C1772 1.378 . S
C1774 C1775 1.367 . S
C1775 C1774 1.367 . S
C1775 C1777 1.433 . S
C1776 C1772 1.350 . S
C1776 C1773 1.463 . S
C1776 N1780 1.427 . S
C1777 H1767 0.929 . S
C1777 C1775 1.433 . S
C1777 N1780 1.384 . S
C1778 H1769 0.929 . S
C1778 C1770 1.378 . S
C1778 C1773 1.350 . S
C1779 H1766 0.929 . S
C1779 C1771 1.433 . S
C1779 N1781 1.384 . S
N1780 C1776 1.427 . S
N1780 C1777 1.384 . S
N1781 C1773 1.427 . S
N1781 C1779 1.384 . S
H1782 C1788 0.930 . S
H1783 C1792 0.930 . S
H1784 C1797 0.929 . S
H1785 C1795 0.929 . S
H1786 C1790 0.929 . S
H1787 C1796 0.929 . S
C1788 H1782 0.930 . S
C1788 C1789 1.367 . S
C1788 C1796 1.378 . S
C1789 C1788 1.367 . S
C1789 C1797 1.433 . S
C1790 H1786 0.929 . S
C1790 C1792 1.378 . S
C1790 C1794 1.350 . S
C1791 C1794 1.463 . S
C1791 C1796 1.350 . S
C1791 N1799 1.427 . S
C1792 H1783 0.930 . S
C1792 C1790 1.378 . S
C1792 C1793 1.367 . S
C1793 C1792 1.367 . S
C1793 C1795 1.433 . S
C1794 C1790 1.350 . S
C1794 C1791 1.463 . S
C1794 N1798 1.427 . S
C1795 H1785 0.929 . S
C1795 C1793 1.433 . S
C1795 N1798 1.384 . S
C1796 H1787 0.929 . S
C1796 C1788 1.378 . S
C1796 C1791 1.350 . S
C1797 H1784 0.929 . S
C1797 C1789 1.433 . S
C1797 N1799 1.384 . S
N1798 C1794 1.427 . S
N1798 C1795 1.384 . S
N1799 C1791 1.427 . S
N1799 C1797 1.384 . S
C511 C7 1.407 . S
C515 C259 1.407 . S
C529 C273 1.398 . S
C533 C21 1.398 . S
C547 C287 1.395 . S
C551 C35 1.395 . S
C565 C49 1.400 . S
C569 C469 1.400 . S
C583 C63 1.407 . S
C587 C483 1.407 . S
C601 C77 1.407 . S
C605 C497 1.407 . S
C619 C343 1.404 . S
C623 C91 1.404 . S
C637 C105 1.399 . S
C641 C357 1.399 . S
C655 C119 1.395 . S
C659 C371 1.395 . S
C673 C217 1.404 . S
C677 C133 1.404 . S
C691 C231 1.395 . S
C695 C147 1.395 . S
C709 C245 1.395 . S
C713 C161 1.395 . S
C727 C427 1.398 . S
C731 C175 1.398 . S
C745 C441 1.407 . S
C749 C189 1.407 . S
C763 C203 1.400 . S
C767 C455 1.400 . S
C781 C385 1.398 . S
C785 C301 1.398 . S
C799 C315 1.395 . S
C803 C399 1.395 . S
C817 C329 1.395 . S
C821 C413 1.395 . S
C835 C8 1.408 . S
C839 C386 1.409 . S
C853 C400 1.407 . S
C857 C22 1.410 . S
C871 C414 1.407 . S
C875 C36 1.411 . S
C889 C176 1.409 . S
C893 C50 1.414 . S
C907 C190 1.414 . S
C911 C64 1.409 . S
C925 C204 1.413 . S
C929 C78 1.408 . S
C943 C92 1.413 . S
C947 C302 1.408 . S
C961 C316 1.414 . S
C965 C106 1.412 . S
C979 C330 1.413 . S
C983 C120 1.414 . S
C997 C134 1.411 . S
C1001 C428 1.415 . S
C1015 C148 1.408 . S
C1019 C442 1.409 . S
C1033 C162 1.412 . S
C1037 C456 1.414 . S
C1051 C218 1.408 . S
C1055 C344 1.410 . S
C1069 C232 1.408 . S
C1073 C358 1.410 . S
C1087 C246 1.407 . S
C1091 C372 1.412 . S
C1105 C260 1.414 . S
C1109 C470 1.412 . S
C1123 C484 1.412 . S
C1127 C274 1.414 . S
C1141 C288 1.411 . S
C1145 C498 1.407 . S
C1159 C17 1.066 . S
C1163 C9 0.998 . S
C1177 C23 1.004 . S
C1181 C31 1.073 . S
C1195 C37 1.000 . S
C1199 C3 1.063 . S
C1213 C51 1.006 . S
C1217 C73 1.074 . S
C1231 C45 1.074 . S
C1235 C65 1.027 . S
C1249 C79 1.020 . S
C1253 C59 1.077 . S
C1267 C93 0.999 . S
C1271 C101 1.065 . S
C1285 C107 1.000 . S
C1289 C115 1.063 . S
C1303 C121 0.998 . S
C1307 C87 1.065 . S
C1321 C157 1.061 . S
C1325 C135 1.009 . S
C1339 C149 0.998 . S
C1343 C129 1.065 . S
C1357 C143 1.076 . S
C1361 C163 1.021 . S
C1375 C185 1.061 . S
C1379 C177 1.009 . S
C1393 C199 1.077 . S
C1397 C191 1.017 . S
C1411 C171 1.061 . S
C1415 C205 1.007 . S
C1429 C219 1.005 . S
C1433 C241 1.061 . S
C1447 C233 1.025 . S
C1451 C213 1.076 . S
C1465 C247 1.028 . S
C1469 C227 1.073 . S
C1483 C269 1.062 . S
C1487 C261 1.017 . S
C1501 C275 1.028 . S
C1505 C283 1.069 . S
C1519 C289 1.025 . S
C1523 C255 1.065 . S
C1537 C303 1.004 . S
C1541 C325 1.061 . S
C1555 C317 1.023 . S
C1559 C297 1.065 . S
C1573 C311 1.068 . S
C1577 C331 0.999 . S
C1591 C353 1.062 . S
C1595 C345 1.018 . S
C1609 C359 1.027 . S
C1613 C367 1.074 . S
C1627 C339 1.064 . S
C1631 C373 0.999 . S
C1645 C387 1.011 . S
C1649 C409 1.076 . S
C1663 C401 1.004 . S
C1667 C381 1.061 . S
C1681 C415 1.020 . S
C1685 C395 1.077 . S
C1699 C429 1.007 . S
C1703 C437 1.075 . S
C1717 C443 1.000 . S
C1721 C451 1.063 . S
C1735 C457 1.004 . S
C1739 C423 1.073 . S
C1753 C471 1.001 . S
C1757 C493 1.063 . S
C1771 C485 0.998 . S
C1775 C465 1.068 . S
C1789 C479 1.065 . S
C1793 C499 0.998 . S
