# Generated by pormake.
# Topology vbj, (5)-cn, num edge types: 1
# Building blocks:
#     Node 0, Type 0, BuildingBlock: XOMCOT_clean_sbu_1, # of connection points: 5
#     Node 1, Type 0, BuildingBlock: XOMCOT_clean_sbu_1, # of connection points: 5
#     Node 2, Type 0, BuildingBlock: XOMCOT_clean_sbu_1, # of connection points: 5
#     Node 3, Type 0, BuildingBlock: XOMCOT_clean_sbu_1, # of connection points: 5
#     Node 4, Type 0, BuildingBlock: XOMCOT_clean_sbu_1, # of connection points: 5
#     Node 5, Type 0, BuildingBlock: XOMCOT_clean_sbu_1, # of connection points: 5
#     Node 6, Type 0, BuildingBlock: XOMCOT_clean_sbu_1, # of connection points: 5
#     Node 7, Type 0, BuildingBlock: XOMCOT_clean_sbu_1, # of connection points: 5
#     Node 8, Type 0, BuildingBlock: XOMCOT_clean_sbu_1, # of connection points: 5
#     Node 9, Type 0, BuildingBlock: XOMCOT_clean_sbu_1, # of connection points: 5
#     Node 10, Type 0, BuildingBlock: XOMCOT_clean_sbu_1, # of connection points: 5
#     Node 11, Type 0, BuildingBlock: XOMCOT_clean_sbu_1, # of connection points: 5
#     Node 12, Type 0, BuildingBlock: XOMCOT_clean_sbu_1, # of connection points: 5
#     Node 13, Type 0, BuildingBlock: XOMCOT_clean_sbu_1, # of connection points: 5
#     Node 14, Type 0, BuildingBlock: XOMCOT_clean_sbu_1, # of connection points: 5
#     Node 15, Type 0, BuildingBlock: XOMCOT_clean_sbu_1, # of connection points: 5
#     Edge 16, Type (0, 0), BuildingBlock: AJUNOK_clean_linker_0, # of connection points: 2
#     Edge 17, Type (0, 0), BuildingBlock: AJUNOK_clean_linker_0, # of connection points: 2
#     Edge 18, Type (0, 0), BuildingBlock: AJUNOK_clean_linker_0, # of connection points: 2
#     Edge 19, Type (0, 0), BuildingBlock: AJUNOK_clean_linker_0, # of connection points: 2
#     Edge 20, Type (0, 0), BuildingBlock: AJUNOK_clean_linker_0, # of connection points: 2
#     Edge 21, Type (0, 0), BuildingBlock: AJUNOK_clean_linker_0, # of connection points: 2
#     Edge 22, Type (0, 0), BuildingBlock: AJUNOK_clean_linker_0, # of connection points: 2
#     Edge 23, Type (0, 0), BuildingBlock: AJUNOK_clean_linker_0, # of connection points: 2
#     Edge 24, Type (0, 0), BuildingBlock: AJUNOK_clean_linker_0, # of connection points: 2
#     Edge 25, Type (0, 0), BuildingBlock: AJUNOK_clean_linker_0, # of connection points: 2
#     Edge 26, Type (0, 0), BuildingBlock: AJUNOK_clean_linker_0, # of connection points: 2
#     Edge 27, Type (0, 0), BuildingBlock: AJUNOK_clean_linker_0, # of connection points: 2
#     Edge 28, Type (0, 0), BuildingBlock: AJUNOK_clean_linker_0, # of connection points: 2
#     Edge 29, Type (0, 0), BuildingBlock: AJUNOK_clean_linker_0, # of connection points: 2
#     Edge 30, Type (0, 0), BuildingBlock: AJUNOK_clean_linker_0, # of connection points: 2
#     Edge 31, Type (0, 0), BuildingBlock: AJUNOK_clean_linker_0, # of connection points: 2
#     Edge 32, Type (0, 0), BuildingBlock: AJUNOK_clean_linker_0, # of connection points: 2
#     Edge 33, Type (0, 0), BuildingBlock: AJUNOK_clean_linker_0, # of connection points: 2
#     Edge 34, Type (0, 0), BuildingBlock: AJUNOK_clean_linker_0, # of connection points: 2
#     Edge 35, Type (0, 0), BuildingBlock: AJUNOK_clean_linker_0, # of connection points: 2
#     Edge 36, Type (0, 0), BuildingBlock: AJUNOK_clean_linker_0, # of connection points: 2
#     Edge 37, Type (0, 0), BuildingBlock: AJUNOK_clean_linker_0, # of connection points: 2
#     Edge 38, Type (0, 0), BuildingBlock: AJUNOK_clean_linker_0, # of connection points: 2
#     Edge 39, Type (0, 0), BuildingBlock: AJUNOK_clean_linker_0, # of connection points: 2
#     Edge 40, Type (0, 0), BuildingBlock: AJUNOK_clean_linker_0, # of connection points: 2
#     Edge 41, Type (0, 0), BuildingBlock: AJUNOK_clean_linker_0, # of connection points: 2
#     Edge 42, Type (0, 0), BuildingBlock: AJUNOK_clean_linker_0, # of connection points: 2
#     Edge 43, Type (0, 0), BuildingBlock: AJUNOK_clean_linker_0, # of connection points: 2
#     Edge 44, Type (0, 0), BuildingBlock: AJUNOK_clean_linker_0, # of connection points: 2
#     Edge 45, Type (0, 0), BuildingBlock: AJUNOK_clean_linker_0, # of connection points: 2
#     Edge 46, Type (0, 0), BuildingBlock: AJUNOK_clean_linker_0, # of connection points: 2
#     Edge 47, Type (0, 0), BuildingBlock: AJUNOK_clean_linker_0, # of connection points: 2
#     Edge 48, Type (0, 0), BuildingBlock: AJUNOK_clean_linker_0, # of connection points: 2
#     Edge 49, Type (0, 0), BuildingBlock: AJUNOK_clean_linker_0, # of connection points: 2
#     Edge 50, Type (0, 0), BuildingBlock: AJUNOK_clean_linker_0, # of connection points: 2
#     Edge 51, Type (0, 0), BuildingBlock: AJUNOK_clean_linker_0, # of connection points: 2
#     Edge 52, Type (0, 0), BuildingBlock: AJUNOK_clean_linker_0, # of connection points: 2
#     Edge 53, Type (0, 0), BuildingBlock: AJUNOK_clean_linker_0, # of connection points: 2
#     Edge 54, Type (0, 0), BuildingBlock: AJUNOK_clean_linker_0, # of connection points: 2
#     Edge 55, Type (0, 0), BuildingBlock: AJUNOK_clean_linker_0, # of connection points: 2
# Relax obj value: 0.097
# Max RMSD: 0.142
# Mean RMSD: 0.142
data_MOF--net-vbj--node1-XOMCOT_clean_sbu_1--edge1-AJUNOK_clean_linker_0
_symmetry_space_group_name_H-M    P1
_symmetry_Int_Tables_number       1
_symmetry_cell_setting            triclinic
loop_
_symmetry_equiv_pos_as_xyz
'x, y, z'
_cell_length_a     21.189457
_cell_length_b     49.012322
_cell_length_c     35.110445
_cell_angle_alpha  90.714923
_cell_angle_beta   90.041124
_cell_angle_gamma 89.950562
loop_
_atom_site_label
_atom_site_type_symbol
_atom_site_fract_x
_atom_site_fract_y
_atom_site_fract_z
_atom_type_partial_charge
C0 C 0.06276 0.20156 0.0619 0.0
C1 C 0.05988 0.22946 0.05991 0.0
N2 N 0.04399 0.23943 0.09447 0.0
N3 N 0.04914 0.1937 0.09763 0.0
C4 C 0.0375 0.21736 0.11696 0.0
H5 H 0.07327 0.18777 0.03849 0.0
Co6 Co 0.04815 0.15653 0.11068 0.0
C7 C -0.01647 0.15488 0.184 0.0
O8 O 0.94672 0.13628 0.16846 0.0
N9 N 0.05043 0.11775 0.12373 0.0
C10 C 0.04018 0.07225 0.12218 0.0
C11 C 0.01095 0.09685 0.11507 0.0
C12 C 0.10193 0.10478 0.13819 0.0
N13 N 0.09818 0.0772 0.13632 0.0
O14 O 0.13635 0.15883 0.11883 0.0
H15 H 0.96469 0.09884 0.10257 0.0
H16 H 0.14346 0.11529 0.14844 0.0
O17 O 0.02772 0.16549 0.16412 0.0
C18 C 0.15504 0.14939 0.08667 0.0
O19 O 0.11306 0.14042 0.06197 0.0
N20 N 0.96391 0.15539 0.0953 0.0
C21 C 0.8649 0.16885 0.04638 0.0
C22 C 0.87183 0.18209 0.08192 0.0
C23 C 0.92106 0.17481 0.10619 0.0
C24 C 0.95738 0.14218 0.06114 0.0
C25 C 0.90691 0.14771 0.0371 0.0
H26 H 0.92836 0.18689 0.13173 0.0
H27 H -0.00625 0.12838 0.05119 0.0
H28 H 0.02417 0.21845 0.14669 0.0
H29 H 0.06734 0.24155 0.03471 0.0
H30 H 0.02151 0.05236 0.11468 0.0
H31 H 0.84136 0.19884 0.09035 0.0
H32 H 0.90238 0.13591 1.01101 0.0
C33 C 0.43424 0.88407 0.06743 0.0
C34 C 0.45028 0.85691 0.06611 0.0
N35 N 0.44866 0.84732 0.10176 0.0
N36 N 0.42216 0.89167 0.1038 0.0
C37 C 0.43193 0.86873 0.12424 0.0
H38 H 0.43303 0.89765 0.04341 0.0
Co39 Co 0.39789 0.92758 0.11833 0.0
C40 C 0.45542 0.92956 0.1957 0.0
O41 O 0.49279 0.94924 0.18469 0.0
N42 N 0.37084 0.96427 0.13291 0.0
C43 C 0.36886 1.00842 0.14974 0.0
C44 C 0.40648 0.98593 0.14369 0.0
C45 C 0.31109 0.9747 0.13263 0.0
N46 N 0.3085 1.0015 0.14272 0.0
O47 O 0.3129 0.91518 0.12037 0.0
H48 H 0.45729 0.98616 0.1454 0.0
H49 H 0.27018 0.96324 0.12363 0.0
O50 O 0.41469 0.91935 0.17253 0.0
C51 C 0.30276 0.91837 0.0847 0.0
O52 O 0.34444 0.93185 0.06455 0.0
N53 N 0.48006 0.93902 0.10819 0.0
C54 C 0.58739 0.94228 0.06315 0.0
C55 C 0.58642 0.92532 0.09501 0.0
C56 C 0.53196 0.92376 0.11704 0.0
C57 C 0.48171 0.95661 0.07837 0.0
C58 C 0.53527 0.95885 0.05578 0.0
H59 H 0.5295 0.90837 0.13876 0.0
H60 H 0.43948 0.96732 0.0699 0.0
H61 H 0.42811 0.86778 0.15492 0.0
H62 H 0.46446 0.84529 0.04111 0.0
H63 H 0.3852 1.02856 0.158 0.0
H64 H 0.62588 0.91205 0.10134 0.0
H65 H 0.53482 0.97252 0.03178 0.0
C66 C 0.5203 0.88124 0.48414 0.0
C67 C 0.5011 0.85463 0.48685 0.0
N68 N 0.49601 0.84406 0.45145 0.0
N69 N 0.52723 0.88771 0.44711 0.0
C70 C 0.51275 0.86437 0.42773 0.0
H71 H 0.52552 0.89544 0.50773 0.0
Co72 Co 0.54479 0.92382 0.43131 0.0
C73 C 0.47279 0.91911 0.35746 0.0
O74 O 0.4251 0.93282 0.37177 0.0
N75 N 0.56429 0.96035 0.4151 0.0
C76 C 0.55761 1.00223 0.39099 0.0
C77 C 0.52589 0.97824 0.39741 0.0
C78 C 0.61932 0.97437 0.41912 0.0
N79 N 0.61645 0.99991 0.40501 0.0
O80 O 0.63139 0.91355 0.42521 0.0
H81 H 0.4772 0.97464 0.39023 0.0
H82 H 0.66102 0.96636 0.43264 0.0
O83 O 0.52211 0.91447 0.37771 0.0
C84 C 0.64573 0.91808 0.46026 0.0
O85 O 0.60409 0.93038 0.48234 0.0
N86 N 0.46311 0.93407 0.44625 0.0
C87 C 0.37045 0.93715 0.50223 0.0
C88 C 0.36521 0.91824 0.47215 0.0
C89 C 0.41253 0.91673 0.4447 0.0
C90 C 0.46619 0.9538 0.47401 0.0
C91 C 0.42059 0.95562 0.50231 0.0
H92 H 0.41149 0.89988 0.42457 0.0
H93 H 0.508 0.96617 0.47733 0.0
H94 H 0.51072 0.86273 0.39699 0.0
H95 H 0.48928 0.84409 0.51281 0.0
H96 H 0.53872 1.01979 0.3765 0.0
H97 H 0.3268 0.90367 0.47106 0.0
H98 H 0.42728 0.97005 0.52558 0.0
C99 C 0.95295 0.19096 0.47833 0.0
C100 C 0.97172 0.21755 0.48263 0.0
N101 N 0.96402 0.23024 0.44916 0.0
N102 N 0.93351 0.18653 0.44218 0.0
C103 C 0.94021 0.21103 0.42503 0.0
H104 H 0.95533 0.1755 0.49999 0.0
Co105 Co 0.90833 0.15149 0.42442 0.0
C106 C 0.96263 0.15614 0.34581 0.0
O107 O 0.00792 0.13916 0.35466 0.0
N108 N 0.88072 0.11592 0.40694 0.0
C109 C 0.87511 0.07426 0.38061 0.0
C110 C 0.91226 0.09697 0.38607 0.0
C111 C 0.82448 0.10366 0.41412 0.0
N112 N 0.81951 0.07844 0.3982 0.0
O113 O 0.82256 0.16366 0.42691 0.0
H114 H 0.96038 0.09862 0.37667 0.0
H115 H 0.78847 0.11255 0.43197 0.0
O116 O 0.91964 0.16256 0.37018 0.0
C117 C 0.81548 0.15923 0.46262 0.0
O118 O 0.85978 0.14557 0.48046 0.0
N119 N -0.00841 0.13947 0.43054 0.0
C120 C 0.09489 0.13624 0.4786 0.0
C121 C 0.09421 0.15521 0.44922 0.0
C122 C 0.04196 0.15651 0.42532 0.0
C123 C -0.00527 0.11923 0.45686 0.0
C124 C 0.04633 0.11714 0.48112 0.0
H125 H 0.03862 0.17353 0.40613 0.0
H126 H 0.95378 0.10689 0.46281 0.0
H127 H 0.93016 0.21444 0.39525 0.0
H128 H -0.00991 0.22684 0.50848 0.0
H129 H 0.88851 0.05593 0.36509 0.0
H130 H 0.13151 0.17017 0.44657 0.0
H131 H 0.04546 0.10238 0.50384 0.0
C132 C 0.91195 0.89481 0.98586 0.0
C133 C 0.91925 0.86718 0.9897 0.0
N134 N 0.92469 0.85583 0.95477 0.0
N135 N 0.91208 0.90114 0.9486 0.0
C136 C 0.91988 0.87682 0.93017 0.0
H137 H 0.90852 0.9095 1.00897 0.0
Co138 Co 0.90701 0.93773 0.93247 0.0
C139 C 0.95318 0.93639 0.85478 0.0
O140 O -0.00826 0.95589 0.8658 0.0
N141 N 0.89875 0.9756 0.9165 0.0
C142 C 0.90722 1.02089 0.91056 0.0
C143 C 0.93911 0.99701 0.91807 0.0
C144 C 0.84326 0.98737 0.90604 0.0
N145 N 0.8464 1.01485 0.90332 0.0
O146 O 0.8176 0.93464 0.93456 0.0
H147 H -0.01154 0.99592 0.92549 0.0
H148 H 0.79998 0.97615 0.90165 0.0
O149 O 0.91328 0.92647 0.87834 0.0
C150 C 0.81048 0.94423 0.96841 0.0
O151 O 0.85979 0.95492 0.98574 0.0
N152 N -0.00559 0.94007 0.93882 0.0
C153 C 0.09616 0.9252 0.98447 0.0
C154 C 0.08301 0.9109 0.95042 0.0
C155 C 0.03336 0.91932 0.92723 0.0
C156 C 0.00855 0.95495 0.97073 0.0
C157 C 0.06042 0.94855 0.99304 0.0
H158 H 0.02076 0.90641 0.90329 0.0
H159 H 0.97586 0.9701 0.98147 0.0
H160 H 0.9233 0.87457 0.89954 0.0
H161 H 0.92255 0.85629 1.01628 0.0
H162 H 0.9269 1.0412 0.91275 0.0
H163 H 0.10709 0.89215 0.94292 0.0
H164 H 0.06948 0.96078 1.01833 0.0
C165 C 0.50671 0.20242 0.97857 0.0
C166 C 0.48597 0.22875 0.98282 0.0
N167 N 0.48573 0.24053 0.94841 0.0
N168 N 0.5198 0.19726 0.94156 0.0
C169 C 0.50737 0.22115 0.92378 0.0
H170 H 0.51023 0.18762 1.00105 0.0
Co171 Co 0.54472 0.16187 0.92467 0.0
C172 C 0.47871 0.16099 0.84971 0.0
O173 O 0.43984 0.14243 0.86239 0.0
N174 N 0.57194 0.1258 0.90796 0.0
C175 C 0.57376 0.08167 0.89082 0.0
C176 C 0.53616 0.10419 0.89701 0.0
C177 C 0.63173 0.11552 0.9075 0.0
N178 N 0.63402 0.0888 0.89737 0.0
O179 O 0.62905 0.17505 0.92024 0.0
H180 H 0.48533 0.10397 0.89567 0.0
H181 H 0.67306 0.12687 0.9161 0.0
O182 O 0.5229 0.17048 0.87111 0.0
C183 C 0.64311 0.17122 0.95532 0.0
O184 O 0.60308 0.1578 0.97671 0.0
N185 N 0.46425 0.14929 0.93748 0.0
C186 C 0.36806 0.14638 0.99078 0.0
C187 C 0.36197 0.16339 0.95922 0.0
C188 C 0.41094 0.16468 0.93283 0.0
C189 C 0.46811 0.13109 0.96652 0.0
C190 C 0.42014 0.12906 0.99324 0.0
H191 H 0.40916 0.18035 0.91145 0.0
H192 H 0.51164 0.12028 0.97179 0.0
H193 H 0.51206 0.22402 0.8934 0.0
H194 H 0.47191 0.23852 1.00931 0.0
H195 H 0.55775 0.06137 0.8831 0.0
H196 H 0.32155 0.17675 0.95625 0.0
H197 H 0.42616 0.11568 1.01731 0.0
C198 C 0.42188 0.19565 0.55867 0.0
C199 C 0.43162 0.2232 0.55568 0.0
N200 N 0.43274 0.23427 0.59094 0.0
N201 N 0.41618 0.18909 0.59569 0.0
C202 C 0.42318 0.21317 0.61485 0.0
H203 H 0.42039 0.18118 0.5352 0.0
Co204 Co 0.40388 0.15272 0.61141 0.0
C205 C 0.4514 0.15182 0.68876 0.0
O206 O 0.48507 0.13072 0.67748 0.0
N207 N 0.38741 0.11519 0.62745 0.0
C208 C 0.38189 0.06971 0.63213 0.0
C209 C 0.41996 0.09157 0.62312 0.0
C210 C 0.33055 0.10666 0.64113 0.0
N211 N 0.32482 0.07916 0.64276 0.0
O212 O 0.31566 0.15892 0.61044 0.0
H213 H 0.4678 0.08976 0.61293 0.0
H214 H 0.29295 0.12045 0.6491 0.0
O215 O 0.41386 0.16347 0.66534 0.0
C216 C 0.30634 0.14891 0.57705 0.0
O217 O 0.35491 0.14029 0.55701 0.0
N218 N 0.49056 0.14695 0.6041 0.0
C219 C 0.59924 0.15549 0.56075 0.0
C220 C 0.58809 0.17072 0.5943 0.0
C221 C 0.53428 0.16569 0.61607 0.0
C222 C 0.50167 0.13152 0.57222 0.0
C223 C 0.55645 0.13479 0.55097 0.0
H224 H 0.5239 0.17951 0.63944 0.0
H225 H 0.46521 0.11839 0.5608 0.0
H226 H 0.42171 0.21521 0.64555 0.0
H227 H 0.43904 0.23423 0.52953 0.0
H228 H 0.39442 0.04838 0.62902 0.0
H229 H 0.61774 0.18778 0.60238 0.0
H230 H 0.56304 0.12225 0.52567 0.0
C231 C 0.05086 0.88458 0.56785 0.0
C232 C 0.03709 0.85749 0.56285 0.0
N233 N 0.02265 0.8469 0.59692 0.0
N234 N 0.04531 0.89147 0.60499 0.0
C235 C 0.02877 0.86783 0.62228 0.0
H236 H 0.06058 0.89876 0.54529 0.0
Co237 Co 0.05003 0.92855 0.62048 0.0
C238 C -0.01747 0.92977 0.69349 0.0
O239 O 0.94396 0.94754 0.6783 0.0
N240 N 0.05786 0.96703 0.63579 0.0
C241 C 0.04489 1.01208 0.64375 0.0
C242 C 0.0153 0.98761 0.63572 0.0
C243 C 0.1126 0.98002 0.64551 0.0
N244 N 0.10709 1.00749 0.64885 0.0
O245 O 0.13759 0.92367 0.62898 0.0
H246 H 0.9657 0.98544 0.62928 0.0
H247 H 0.15714 0.96974 0.64878 0.0
O248 O 0.02787 0.91967 0.6736 0.0
C249 C 0.1574 0.93159 0.59656 0.0
O250 O 0.11645 0.94064 0.57156 0.0
N251 N 0.96593 0.93248 0.60475 0.0
C252 C 0.86662 0.92261 0.55385 0.0
C253 C 0.87266 0.90759 0.58755 0.0
C254 C 0.9215 0.91326 0.61299 0.0
C255 C 0.95996 0.94782 0.57281 0.0
C256 C 0.90942 0.94397 0.54783 0.0
H257 H 0.92732 0.90006 0.6371 0.0
H258 H -0.00309 0.96192 0.56514 0.0
H259 H 0.01666 0.86648 0.65214 0.0
H260 H 0.03496 0.84661 0.53584 0.0
H261 H 0.02145 1.03163 0.64532 0.0
H262 H 0.84189 0.89059 0.59362 0.0
H263 H 0.90557 0.95716 0.52348 0.0
C264 C 0.61668 0.70924 0.09 0.0
C265 C 0.60612 0.73686 0.09181 0.0
N266 N 0.55501 0.74145 0.11363 0.0
N267 N 0.57296 0.69623 0.11097 0.0
C268 C 0.53528 0.7165 0.12466 0.0
H269 H 0.65278 0.69931 0.07316 0.0
Co270 Co 0.56796 0.658 0.11489 0.0
C271 C 0.49448 0.64859 0.18613 0.0
O272 O 0.46345 0.62878 0.16896 0.0
N273 N 0.56455 0.61859 0.11849 0.0
C274 C 0.55027 0.5746 0.10344 0.0
C275 C 0.52701 0.60073 0.09954 0.0
C276 C 0.60889 0.60232 0.13474 0.0
N277 N 0.60312 0.57566 0.12479 0.0
O278 O 0.65433 0.65742 0.13172 0.0
H279 H 0.4869 0.60619 0.08223 0.0
H280 H 0.64809 0.61005 0.15133 0.0
O281 O 0.53648 0.66187 0.16777 0.0
C282 C 0.68344 0.64954 0.10166 0.0
O283 O 0.65055 0.6437 0.07095 0.0
N284 N 0.48853 0.65958 0.09159 0.0
C285 C 0.39294 0.67007 0.03863 0.0
C286 C 0.38122 0.67186 0.07817 0.0
C287 C 0.43018 0.66717 0.1043 0.0
C288 C 0.50019 0.65768 0.05346 0.0
C289 C 0.45378 0.66313 0.02668 0.0
H290 H 0.42152 0.67097 0.13414 0.0
H291 H 0.54715 0.65312 0.04353 0.0
H292 H 0.49364 0.71309 0.14177 0.0
H293 H 0.63215 0.75235 0.0767 0.0
H294 H 0.53056 0.55643 0.09034 0.0
H295 H 0.33505 0.67749 0.08888 0.0
H296 H 0.46662 0.66286 0.99686 0.0
C297 C 0.96547 0.39062 0.06545 0.0
C298 C -0.01195 0.36452 0.06208 0.0
N299 N -0.02015 0.35194 0.09555 0.0
N300 N 0.94281 0.39484 0.10096 0.0
C301 C 0.95145 0.37061 0.11866 0.0
H302 H 0.96747 0.40595 0.04362 0.0
Co303 Co 0.91314 0.42976 0.11684 0.0
C304 C 0.95387 0.43117 0.1972 0.0
O305 O -0.01209 0.45265 0.18921 0.0
N306 N 0.88062 0.46557 0.13198 0.0
C307 C 0.87023 0.50971 0.1484 0.0
C308 C 0.91191 0.48839 0.14333 0.0
C309 C 0.81938 0.47411 0.13046 0.0
N310 N 0.81197 0.50077 0.13993 0.0
O311 O 0.82941 0.41642 0.11178 0.0
H312 H 0.96246 0.49019 0.14623 0.0
H313 H 0.78029 0.46127 0.1221 0.0
O314 O 0.92012 0.41955 0.17132 0.0
C315 C 0.82435 0.42117 0.07609 0.0
O316 O 0.86912 0.43521 0.0594 0.0
N317 N -0.00384 0.4424 0.11386 0.0
C318 C 0.10858 0.44323 0.07314 0.0
C319 C 0.10194 0.42641 0.10495 0.0
C320 C 0.04571 0.42665 0.12542 0.0
C321 C 0.0034 0.46017 0.08459 0.0
C322 C 0.05966 0.46127 0.06429 0.0
H323 H 0.03909 0.41124 0.1468 0.0
H324 H 0.96322 0.47137 0.07402 0.0
H325 H 0.93961 0.36705 0.14816 0.0
H326 H 0.00969 0.35549 0.03699 0.0
H327 H 0.88229 0.53056 0.1559 0.0
H328 H 0.1374 0.4114 0.11209 0.0
H329 H 0.06309 0.47474 0.04015 0.0
C330 C 0.01263 0.383 0.48227 0.0
C331 C 0.00114 0.35557 0.48461 0.0
N332 N 0.00863 0.34442 0.44977 0.0
N333 N 0.02778 0.3893 0.44606 0.0
C334 C 0.02492 0.36519 0.42673 0.0
H335 H 0.01043 0.3975 0.50569 0.0
Co336 Co 0.05004 0.42507 0.43138 0.0
C337 C -0.01401 0.4291 0.35737 0.0
O338 O 0.95549 0.45033 0.37115 0.0
N339 N 0.07529 0.46178 0.41653 0.0
C340 C 0.08002 0.50681 0.40734 0.0
C341 C 0.04135 0.48516 0.41569 0.0
C342 C 0.13462 0.4702 0.40716 0.0
N343 N 0.13934 0.49757 0.40224 0.0
O344 O 0.13459 0.41319 0.42533 0.0
H345 H -0.00848 0.48691 0.42166 0.0
H346 H 0.1739 0.45642 0.40377 0.0
O347 O 0.02683 0.4168 0.37795 0.0
C348 C 0.1511 0.41707 0.46009 0.0
O349 O 0.10899 0.426 0.4847 0.0
N350 N 0.96922 0.43635 0.44555 0.0
C351 C 0.87269 0.43522 0.49881 0.0
C352 C 0.86698 0.42061 0.46439 0.0
C353 C 0.91612 0.42139 0.43792 0.0
C354 C 0.97299 0.45206 0.47784 0.0
C355 C 0.92477 0.45216 0.50456 0.0
H356 H 0.91486 0.40733 0.41398 0.0
H357 H 0.0166 0.46229 0.48512 0.0
H358 H 0.03601 0.36277 0.39679 0.0
H359 H -0.0112 0.3445 0.51004 0.0
H360 H 0.06552 0.52797 0.4066 0.0
H361 H 0.82672 0.4075 0.45904 0.0
H362 H 0.93058 0.46363 0.53091 0.0
C363 C 0.39844 0.69582 0.47812 0.0
C364 C 0.40402 0.72359 0.48177 0.0
N365 N 0.41434 0.73398 0.44706 0.0
N366 N 0.40477 0.68844 0.44119 0.0
C367 C 0.41493 0.71227 0.4228 0.0
H368 H 0.3919 0.68179 0.50126 0.0
Co369 Co 0.40181 0.65145 0.42585 0.0
C370 C 0.46328 0.65215 0.35 0.0
O371 O 0.50758 0.63656 0.36413 0.0
N372 N 0.39613 0.61319 0.41031 0.0
C373 C 0.41341 0.56888 0.39798 0.0
C374 C 0.44104 0.59369 0.40655 0.0
C375 C 0.34185 0.59935 0.40242 0.0
N376 N 0.35041 0.57234 0.39614 0.0
O377 O 0.3123 0.65497 0.42116 0.0
H378 H 0.49107 0.59685 0.4105 0.0
H379 H 0.2957 0.60856 0.40226 0.0
O380 O 0.41788 0.66061 0.3714 0.0
C381 C 0.29636 0.64673 0.45431 0.0
O382 O 0.34047 0.63781 0.47736 0.0
N383 N 0.4875 0.6486 0.43911 0.0
C384 C 0.58847 0.65774 0.48917 0.0
C385 C 0.58126 0.67345 0.45616 0.0
C386 C 0.53077 0.66845 0.43134 0.0
C387 C 0.49535 0.6325 0.47019 0.0
C388 C 0.54633 0.63615 0.49482 0.0
H389 H 0.52313 0.68228 0.40806 0.0
H390 H 0.45926 0.61797 0.47772 0.0
H391 H 0.42368 0.71367 0.39252 0.0
H392 H 0.40288 0.73523 0.50818 0.0
H393 H 0.4384 0.54986 0.39361 0.0
H394 H 0.61235 0.69043 0.45047 0.0
H395 H 0.55112 0.62266 0.5188 0.0
C396 C 0.43733 0.39296 0.98307 0.0
C397 C 0.44323 0.36518 0.98565 0.0
N398 N 0.43681 0.35428 0.95055 0.0
N399 N 0.42667 0.39977 0.94651 0.0
C400 C 0.42689 0.3756 0.92712 0.0
H401 H 0.44126 0.40741 1.00647 0.0
Co402 Co 0.41615 0.43659 0.93231 0.0
C403 C 0.45605 0.43726 0.85288 0.0
O404 O 0.49472 0.45683 0.86338 0.0
N405 N 0.40268 0.4747 0.91863 0.0
C406 C 0.4108 0.5201 0.91297 0.0
C407 C 0.4435 0.49599 0.91704 0.0
C408 C 0.34538 0.48683 0.91369 0.0
N409 N 0.34909 0.51422 0.91098 0.0
O410 O 0.32727 0.43166 0.93747 0.0
H411 H 0.49415 0.49462 0.91969 0.0
H412 H 0.30079 0.47616 0.91397 0.0
O413 O 0.41878 0.42655 0.87735 0.0
C414 C 0.32473 0.43922 0.97258 0.0
O415 O 0.37503 0.4505 0.98794 0.0
N416 N 0.50354 0.44061 0.93603 0.0
C417 C 0.61215 0.42881 0.97723 0.0
C418 C 0.59831 0.41443 0.9434 0.0
C419 C 0.54416 0.42098 0.92274 0.0
C420 C 0.51856 0.45571 0.96761 0.0
C421 C 0.57324 0.45063 0.98798 0.0
H422 H 0.5306 0.40765 0.89942 0.0
H423 H 0.48493 0.46994 0.97965 0.0
H424 H 0.41988 0.37362 0.89668 0.0
H425 H 0.45225 0.35377 1.0113 0.0
H426 H 0.43064 0.54044 0.91249 0.0
H427 H 0.62586 0.39688 0.9345 0.0
H428 H 0.58242 0.46252 1.01356 0.0
C429 C 0.03012 0.70786 0.98646 0.0
C430 C 0.00873 0.73411 0.99019 0.0
N431 N 0.00312 0.7448 0.95525 0.0
N432 N 0.03798 0.70157 0.94923 0.0
C433 C 0.02162 0.72474 0.93071 0.0
H434 H 0.03669 0.69372 1.00953 0.0
Co435 Co 0.06033 0.66566 0.93324 0.0
C436 C 0.97953 0.66657 0.86093 0.0
O437 O 0.93379 0.65263 0.87661 0.0
N438 N 0.08438 0.62946 0.91761 0.0
C439 C 0.08695 0.58758 0.892 0.0
C440 C 0.05188 0.61107 0.89642 0.0
C441 C 0.13867 0.61616 0.92626 0.0
N442 N 0.14194 0.59072 0.91078 0.0
O443 O 0.14357 0.67842 0.92111 0.0
H444 H 0.00511 0.61401 0.88527 0.0
H445 H 0.17522 0.62502 0.94361 0.0
O446 O 0.02903 0.67266 0.88048 0.0
C447 C 0.16846 0.67857 0.95434 0.0
O448 O 0.13499 0.66942 0.98295 0.0
N449 N -0.01707 0.65302 0.95236 0.0
C450 C 0.89568 0.64749 1.01122 0.0
C451 C 0.88412 0.66543 0.98117 0.0
C452 C 0.92862 0.66812 0.95216 0.0
C453 C -0.00734 0.63426 0.98025 0.0
C454 C 0.94961 0.6311 1.00982 0.0
H455 H 0.92251 0.68444 0.93207 0.0
H456 H 0.03741 0.62385 0.98244 0.0
H457 H 0.02034 0.72645 0.90002 0.0
H458 H -0.00332 0.74444 1.01664 0.0
H459 H 0.07246 0.56942 0.87649 0.0
H460 H 0.84274 0.67843 0.98124 0.0
H461 H 0.96098 0.61745 0.03286 0.0
C462 C 0.93689 0.6956 0.56485 0.0
C463 C 0.94952 0.72278 0.56026 0.0
N464 N 0.94688 0.73525 0.59459 0.0
N465 N 0.92581 0.69066 0.60197 0.0
C466 C 0.93238 0.71534 0.61956 0.0
H467 H 0.93675 0.68024 0.54248 0.0
Co468 Co 0.90611 0.6553 0.61973 0.0
C469 C 0.97016 0.6621 0.69632 0.0
O470 O 0.01765 0.64705 0.68466 0.0
N471 N 0.88398 0.61943 0.63784 0.0
C472 C 0.88721 0.57849 0.66505 0.0
C473 C 0.92076 0.60174 0.65705 0.0
C474 C 0.82794 0.60599 0.63452 0.0
N475 N 0.82872 0.58098 0.65052 0.0
O476 O 0.81887 0.66594 0.62146 0.0
H477 H 0.96964 0.60492 0.66416 0.0
H478 H 0.78708 0.61401 0.62008 0.0
O479 O 0.92346 0.66683 0.67386 0.0
C480 C 0.80711 0.66039 0.58629 0.0
O481 O 0.85038 0.64744 0.5662 0.0
N482 N -0.01041 0.64445 0.60858 0.0
C483 C 0.08678 0.64081 0.55496 0.0
C484 C 0.08935 0.66015 0.58474 0.0
C485 C 0.03996 0.66188 0.61103 0.0
C486 C -0.01078 0.62417 0.58154 0.0
C487 C 0.037 0.62207 0.55444 0.0
H488 H 0.03892 0.67915 0.63047 0.0
H489 H 0.9478 0.61162 0.57755 0.0
H490 H 0.92616 0.71871 0.64985 0.0
H491 H 0.96076 0.73263 0.53369 0.0
H492 H 0.90481 0.56123 0.68076 0.0
H493 H 0.12717 0.67498 0.58628 0.0
H494 H 0.03193 0.60731 0.53145 0.0
C495 C 0.54672 0.38132 0.56691 0.0
C496 C 0.52913 0.35461 0.56251 0.0
N497 N 0.51349 0.34483 0.59683 0.0
N498 N 0.54237 0.38879 0.60393 0.0
C499 C 0.52224 0.36589 0.62173 0.0
H500 H 0.55846 0.39489 0.54398 0.0
Co501 Co 0.55295 0.42583 0.6184 0.0
C502 C 0.48681 0.43064 0.69136 0.0
O503 O 0.45414 0.45044 0.67604 0.0
N504 N 0.56612 0.46425 0.63245 0.0
C505 C 0.56333 0.50983 0.63365 0.0
C506 C 0.52943 0.48638 0.62654 0.0
C507 C 0.6212 0.47537 0.64536 0.0
N508 N 0.62213 0.50312 0.64493 0.0
O509 O 0.64026 0.41893 0.62658 0.0
H510 H 0.48136 0.48601 0.6164 0.0
H511 H 0.66022 0.46308 0.65456 0.0
O512 O 0.5295 0.41829 0.67177 0.0
C513 C 0.65972 0.42605 0.59365 0.0
O514 O 0.61882 0.43528 0.56885 0.0
N515 N 0.47031 0.43181 0.6025 0.0
C516 C 0.37078 0.42609 0.5517 0.0
C517 C 0.36946 0.41259 0.58662 0.0
C518 C 0.42018 0.41563 0.61179 0.0
C519 C 0.47091 0.44539 0.56883 0.0
C520 C 0.4211 0.4433 0.54342 0.0
H521 H 0.42163 0.40309 0.63685 0.0
H522 H 0.51231 0.45656 0.56027 0.0
H523 H 0.51019 0.36515 0.65165 0.0
H524 H 0.52555 0.34343 0.53579 0.0
H525 H 0.54614 0.53027 0.6288 0.0
H526 H 0.33077 0.39916 0.59374 0.0
H527 H 0.42349 0.45389 0.51654 0.0
C528 C 0.29282 0.12302 0.03348 0.0
C529 C 0.32156 0.14729 1.0219 0.0
C530 C 0.2427 0.12364 0.05918 0.0
C531 C 0.2208 0.14842 0.07478 0.0
H532 H 0.30611 0.10366 1.02056 0.0
H533 H 0.21724 0.10486 0.06417 0.0
S534 S 0.28609 0.21715 0.0577 0.0
N535 N 0.32967 0.1965 0.03101 0.0
N536 N 0.23477 0.19746 0.07969 0.0
C537 C 0.25259 0.17256 0.06605 0.0
C538 C 0.30319 0.17205 0.03936 0.0
C539 C 0.13621 0.92013 0.05155 0.0
C540 C 0.14508 0.91589 1.01191 0.0
C541 C 0.18626 0.9174 0.07738 0.0
C542 C 0.24592 0.90942 0.0644 0.0
H543 H 0.09137 0.92733 0.06252 0.0
H544 H 0.17968 0.92398 0.10669 0.0
S545 S 0.29095 0.88919 0.96604 0.0
N546 N 0.21708 0.89949 0.96254 0.0
N547 N 0.30849 0.89177 1.0117 0.0
C548 C 0.25287 0.90114 0.02616 0.0
C549 C 0.20314 0.90504 0.99962 0.0
C550 C 0.70375 0.9047 0.51702 0.0
C551 C 0.7063 0.91149 0.4783 0.0
C552 C 0.75605 0.90765 0.54062 0.0
C553 C 0.81443 0.91651 0.52635 0.0
H554 H 0.65921 0.89924 0.53008 0.0
H555 H 0.74889 0.90453 0.57076 0.0
S556 S 0.84908 0.93066 0.42449 0.0
N557 N 0.77263 0.9241 0.42517 0.0
N558 N 0.87405 0.92712 0.46877 0.0
C559 C 0.81939 0.9204 0.4865 0.0
C560 C 0.76476 0.91825 0.46257 0.0
C561 C 0.6981 0.16109 0.47027 0.0
C562 C 0.7586 0.166 0.48485 0.0
C563 C 0.64611 0.15918 0.49492 0.0
C564 C 0.65325 0.16156 0.53495 0.0
H565 H 0.69154 0.15685 0.44017 0.0
H566 H 0.6004 0.15475 0.48253 0.0
S567 S 0.80218 0.17813 0.58607 0.0
N568 N 0.82193 0.17713 0.54066 0.0
N569 N 0.726 0.17133 0.58709 0.0
C570 C 0.7132 0.16838 0.54931 0.0
C571 C 0.76537 0.17115 0.52418 0.0
C572 C 0.75611 0.94495 0.03044 0.0
C573 C 0.75163 0.94247 0.99048 0.0
C574 C 0.70276 0.94484 0.05344 0.0
C575 C 0.64251 0.94225 0.03753 0.0
H576 H 0.80147 0.94705 0.04444 0.0
H577 H 0.70875 0.94715 0.08397 0.0
S578 S 0.60447 0.93387 0.93478 0.0
N579 N 0.68218 0.93663 0.93593 0.0
N580 N 0.58067 0.93601 0.97953 0.0
C581 C 0.63687 0.93929 0.99765 0.0
C582 C 0.69176 0.93938 0.97403 0.0
C583 C 0.69987 0.1849 1.013 0.0
C584 C 0.70255 0.17933 0.97367 0.0
C585 C 0.75323 0.18289 0.03587 0.0
C586 C 0.8122 0.17605 1.0202 0.0
H587 H 0.65488 0.1885 0.02691 0.0
H588 H 0.74669 0.18476 0.06636 0.0
S589 S 0.84693 0.1673 0.91685 0.0
N590 N 0.76955 0.17128 0.91872 0.0
N591 N 0.87224 0.16982 0.96128 0.0
C592 C 0.81695 0.17404 0.98001 0.0
C593 C 0.7616 0.17532 0.95675 0.0
C594 C 0.15251 0.16266 0.52875 0.0
C595 C 0.1433 0.13799 0.50845 0.0
C596 C 0.20225 0.16554 0.55482 0.0
C597 C 0.24407 0.14386 0.56073 0.0
H598 H 0.12231 0.18007 0.52345 0.0
H599 H 0.21072 0.18526 0.56813 0.0
S600 S 0.23611 0.07447 0.51755 0.0
N601 N 0.17618 0.09101 0.49855 0.0
N602 N 0.27066 0.09648 0.54678 0.0
C603 C 0.23303 0.1187 0.5422 0.0
C604 C 0.18219 0.1157 0.51624 0.0
C605 C 0.25685 0.9103 0.57597 0.0
C606 C 0.22389 0.93397 0.58659 0.0
C607 C 0.30702 0.91166 0.55011 0.0
C608 C 0.32516 0.93672 0.53416 0.0
H609 H 0.23998 0.89046 0.58466 0.0
H610 H 0.32942 0.89282 0.54093 0.0
S611 S 0.25815 1.00483 0.55734 0.0
N612 N 0.21664 0.98329 0.58292 0.0
N613 N 0.31045 0.98596 0.53421 0.0
C614 C 0.29614 0.96075 0.54744 0.0
C615 C 0.24552 0.95932 0.5738 0.0
C616 C 0.78288 0.67234 0.08773 0.0
C617 C 0.75199 0.64817 0.09777 0.0
C618 C 0.83252 0.67182 0.06137 0.0
C619 C 0.85308 0.64708 0.04468 0.0
H620 H 0.76365 0.69193 0.09646 0.0
H621 H 0.85205 0.69105 0.05207 0.0
S622 S 0.79603 0.57788 0.06844 0.0
N623 N 0.75204 0.59875 0.09446 0.0
N624 N 0.84544 0.59757 0.04502 0.0
C625 C 0.82801 0.62259 0.05844 0.0
C626 C 0.77764 0.62321 0.08528 0.0
C627 C 0.70778 0.41886 0.0675 0.0
C628 C 0.76855 0.41461 0.05301 0.0
C629 C 0.65645 0.42165 0.04265 0.0
C630 C 0.66467 0.42071 1.00268 0.0
H631 H 0.70058 0.42213 0.09775 0.0
H632 H 0.61051 0.42593 0.05485 0.0
S633 S 0.81391 0.40531 0.9516 0.0
N634 N 0.83308 0.40508 0.99714 0.0
N635 N 0.73767 0.41211 0.95043 0.0
C636 C 0.72451 0.41405 0.98826 0.0
C637 C 0.77621 0.41055 1.01352 0.0
C638 C 0.23579 0.44409 0.48758 0.0
C639 C 0.21643 0.41872 0.47272 0.0
C640 C 0.2871 0.44625 0.51214 0.0
C641 C 0.31968 0.42292 0.52372 0.0
H642 H 0.20812 0.46228 0.4823 0.0
H643 H 0.29934 0.46616 0.5237 0.0
S644 S 0.28841 0.35164 0.49281 0.0
N645 N 0.23417 0.36981 0.47062 0.0
N646 N 0.33143 0.37369 0.51761 0.0
C647 C 0.30225 0.39739 0.50837 0.0
C648 C 0.25028 0.39531 0.48264 0.0
C649 C 0.19945 0.6681 0.48005 0.0
C650 C 0.23111 0.64447 0.46772 0.0
C651 C 0.15106 0.66662 0.50726 0.0
C652 C 0.13324 0.64148 0.52322 0.0
H653 H 0.21563 0.68798 0.47109 0.0
H654 H 0.12917 0.68544 0.51699 0.0
S655 S 0.19874 0.57348 0.49722 0.0
N656 N 0.23833 0.59514 0.47072 0.0
N657 N 0.14844 0.59224 0.52215 0.0
C658 C 0.16184 0.61755 0.50898 0.0
C659 C 0.21054 0.6191 0.48115 0.0
C660 C 0.20751 0.43817 0.98271 0.0
C661 C 0.26896 0.43636 0.99722 0.0
C662 C 0.15565 0.4401 1.0075 0.0
C663 C 0.16382 0.44047 0.04747 0.0
H664 H 0.19964 0.43912 0.95227 0.0
H665 H 0.10886 0.44155 0.99525 0.0
S666 S 0.31549 0.43401 0.09934 0.0
N667 N 0.33483 0.43243 0.0539 0.0
N668 N 0.23823 0.43795 0.10001 0.0
C669 C 0.22502 0.43775 0.06209 0.0
C670 C 0.27734 0.4352 0.03705 0.0
C671 C 0.24691 0.70151 0.99422 0.0
C672 C 0.23507 0.68443 0.96257 0.0
C673 C 0.29985 0.69765 1.01741 0.0
C674 C 0.34271 0.67629 1.01011 0.0
H675 H 0.21163 0.71623 1.00335 0.0
H676 H 0.30529 0.71066 0.04236 0.0
S677 S 0.33898 0.62945 0.92581 0.0
N678 N 0.27591 0.64887 0.92083 0.0
N679 N 0.3736 0.64007 0.96545 0.0
C680 C 0.33469 0.66084 0.97614 0.0
C681 C 0.28143 0.66542 0.95199 0.0
C682 C 0.70053 0.6704 0.50284 0.0
C683 C 0.64074 0.66331 0.5168 0.0
C684 C 0.75267 0.67226 0.527 0.0
C685 C 0.7479 0.66671 0.56613 0.0
H686 H 0.7083 0.67299 0.47263 0.0
H687 H 0.79828 0.67635 0.51431 0.0
S688 S 0.60084 0.65203 0.61865 0.0
N689 N 0.57804 0.65503 0.57387 0.0
N690 N 0.67797 0.65697 0.61882 0.0
C691 C 0.68802 0.66172 0.58129 0.0
C692 C 0.63409 0.66024 0.55668 0.0
C693 C 0.79638 0.45568 0.54441 0.0
C694 C 0.82583 0.4323 0.52946 0.0
C695 C 0.74658 0.45342 0.5701 0.0
C696 C 0.72585 0.42782 0.58265 0.0
H697 H 0.80889 0.47573 0.53417 0.0
H698 H 0.72023 0.47171 0.57738 0.0
S699 S 0.7931 0.36066 0.55574 0.0
N700 N 0.83555 0.38287 0.5317 0.0
N701 N 0.74144 0.37881 0.58061 0.0
C702 C 0.7582 0.40442 0.57033 0.0
C703 C 0.8084 0.40663 0.54351 0.0
C704 C 0.2127 0.06627 0.13351 0.0
C705 C 0.15011 0.05791 0.14034 0.0
C706 C 0.26341 0.04782 0.13426 0.0
C707 C 0.25463 1.01998 0.14237 0.0
H708 H 0.22292 0.08721 0.12661 0.0
H709 H 0.30992 0.05549 0.12763 0.0
S710 S 0.10148 0.98785 0.16692 0.0
N711 N 0.08308 1.01995 0.15838 0.0
N712 N 0.17844 0.98539 0.16036 0.0
C713 C 0.19261 1.01136 0.15043 0.0
C714 C 0.14057 1.03023 0.14938 0.0
C715 C 0.72996 1.01177 0.40081 0.0
C716 C 0.66658 1.02004 0.40434 0.0
C717 C 0.77924 1.03087 0.39907 0.0
C718 C 0.76758 0.05921 0.40079 0.0
H719 H 0.74167 0.9903 0.39875 0.0
H720 H 0.82703 1.02327 0.39658 0.0
S721 S 0.60991 0.09169 0.41168 0.0
N722 N 0.59513 0.05864 0.41152 0.0
N723 N 0.687 0.09446 0.40644 0.0
C724 C 0.70434 0.06779 0.40471 0.0
C725 C 0.65414 0.04828 0.40682 0.0
C726 C 0.68188 0.04417 0.91264 0.0
C727 C 0.68797 0.07064 0.89803 0.0
C728 C 0.73341 1.02615 0.91393 0.0
C729 C 0.7935 1.03363 0.90024 0.0
H730 H 0.63705 1.03749 0.92397 0.0
H731 H 0.72613 1.00639 0.92659 0.0
S732 S 0.833 0.10002 0.85618 0.0
N733 N 0.75793 0.10313 0.86809 0.0
N734 N 0.85454 0.06918 0.86951 0.0
C735 C 0.79991 0.05996 0.88488 0.0
C736 C 0.74734 0.07844 0.88401 0.0
C737 C 0.219 1.01907 0.66499 0.0
C738 C 0.15903 1.02714 0.65142 0.0
C739 C 0.27205 1.03636 0.66315 0.0
C740 C 0.26793 0.06294 0.64849 0.0
H741 H 0.22576 0.99894 0.67656 0.0
H742 H 0.31703 1.02869 0.67299 0.0
S743 S 0.12192 0.09527 0.61118 0.0
N744 N 0.0995 0.06438 0.6233 0.0
N745 N 0.19748 0.09702 0.62214 0.0
C746 C 0.20776 0.07187 0.63664 0.0
C747 C 0.15394 0.05403 0.63758 0.0
C748 C 0.74244 0.53737 0.16554 0.0
C749 C 0.75547 0.51737 0.13751 0.0
C750 C 0.69101 0.55539 0.16203 0.0
C751 C 0.65071 0.55455 0.13001 0.0
H752 H 0.7728 0.53926 0.19025 0.0
H753 H 0.68349 0.57051 0.1843 0.0
S754 S 0.66747 0.50689 0.04726 0.0
N755 N 0.72497 0.49807 0.07633 0.0
N756 N 0.62985 0.53218 0.0689 0.0
C757 C 0.66315 0.53437 0.10185 0.0
C758 C 0.71509 0.5158 0.10578 0.0
C759 C 0.24049 0.55895 0.37942 0.0
C760 C 0.30074 0.55187 0.39324 0.0
C761 C 0.18925 0.54077 0.38098 0.0
C762 C 0.19533 0.5144 0.39629 0.0
H763 H 0.23231 0.57898 0.36778 0.0
H764 H 0.1441 0.54772 0.37047 0.0
S765 S 0.34478 0.48461 0.43316 0.0
N766 N 0.36416 0.51587 0.42102 0.0
N767 N 0.26928 0.48154 0.42254 0.0
C768 C 0.25636 0.50646 0.40814 0.0
C769 C 0.30851 0.52517 0.40699 0.0
C770 C 0.25351 0.53377 0.88153 0.0
C771 C 0.29737 0.53337 0.91146 0.0
C772 C 0.20319 0.55253 0.88155 0.0
C773 C 0.19395 0.57134 0.9119 0.0
H774 H 0.25891 0.51975 0.85766 0.0
H775 H 0.1718 0.55249 0.85723 0.0
S776 S 0.29278 0.5759 0.99933 0.0
N777 N 0.32722 0.55199 0.97308 0.0
N778 N 0.23133 0.58629 0.97442 0.0
C779 C 0.23685 0.57039 0.94264 0.0
C780 C 0.28876 0.55164 0.94211 0.0
C781 C 0.7146 0.5694 0.65319 0.0
C782 C 0.778 0.56101 0.65107 0.0
C783 C 0.66474 0.55042 0.65283 0.0
C784 C 0.67539 0.52194 0.64989 0.0
H785 H 0.70328 0.59091 0.65531 0.0
H786 H 0.61731 0.55843 0.65467 0.0
S787 S 0.83449 0.48936 0.64451 0.0
N788 N 0.84928 0.52235 0.64621 0.0
N789 N 0.75703 0.48675 0.64668 0.0
C790 C 0.73928 0.51332 0.64891 0.0
C791 C 0.78999 0.53277 0.64909 0.0
C792 C 0.95814 0.30489 0.11746 0.0
C793 C 0.00055 0.32455 0.10368 0.0
C794 C 0.97416 0.27689 0.11723 0.0
C795 C 0.03298 0.26787 0.10321 0.0
H796 H 0.91106 0.31099 0.126 0.0
H797 H 0.939 0.26211 0.12558 0.0
S798 S 0.16388 0.31163 0.07015 0.0
N799 N 0.1064 0.33328 0.08043 0.0
N800 N 0.13595 0.28102 0.07971 0.0
C801 C 0.07711 0.28757 0.09218 0.0
C802 C 0.06105 0.31582 0.09251 0.0
C803 C 0.43521 0.79737 0.10328 0.0
C804 C 0.47053 0.82079 0.11276 0.0
C805 C 0.46137 0.77107 0.10656 0.0
C806 C 0.52424 0.76751 0.11845 0.0
H807 H 0.38814 0.79956 0.09167 0.0
H808 H 0.43389 0.75358 0.09733 0.0
S809 S 0.6351 0.82232 0.14781 0.0
N810 N 0.56986 0.83873 0.13614 0.0
N811 N 0.61978 0.78952 0.1414 0.0
C812 C 0.55897 0.79077 0.12932 0.0
C813 C 0.53194 0.81737 0.12667 0.0
C814 C 0.5053 0.79749 0.42362 0.0
C815 C 0.46933 0.81775 0.44233 0.0
C816 C 0.48478 0.77008 0.42238 0.0
C817 C 0.42784 0.76229 0.43986 0.0
H818 H 0.55121 0.80255 0.41221 0.0
H819 H 0.51551 0.75465 0.41012 0.0
S820 S 0.31268 0.8085 0.48701 0.0
N821 N 0.37123 0.82873 0.47453 0.0
N822 N 0.33291 0.77756 0.47229 0.0
C823 C 0.38968 0.7828 0.456 0.0
C824 C 0.41037 0.81045 0.45722 0.0
C825 C 0.04541 0.29779 0.46037 0.0
C826 C 0.00475 0.3157 0.44143 0.0
C827 C 0.03399 0.26966 0.46047 0.0
C828 C -0.01914 0.2583 0.44207 0.0
H829 H 0.0846 0.30586 0.4768 0.0
H830 H 0.06555 0.25677 0.47654 0.0
S831 S 0.86178 0.29666 0.38672 0.0
N832 N 0.91147 0.32034 0.40209 0.0
N833 N 0.88906 0.26729 0.40256 0.0
C834 C 0.94171 0.27588 0.42117 0.0
C835 C 0.95379 0.30465 0.4209 0.0
C836 C 0.90426 0.80757 0.96823 0.0
C837 C 0.93721 0.82728 0.9474 0.0
C838 C 0.92356 0.78024 0.96831 0.0
C839 C 0.97684 0.77139 0.94766 0.0
H840 H 0.86487 0.81366 0.98605 0.0
H841 H 0.89833 0.76606 0.98614 0.0
S842 S 0.07734 0.8145 0.88658 0.0
N843 N 0.0237 0.83583 0.9038 0.0
N844 N 0.06014 0.78421 0.904 0.0
C845 C 0.00803 0.79048 0.9248 0.0
C846 C -0.0118 0.8185 0.92467 0.0
C847 C 0.5046 0.28633 0.92115 0.0
C848 C 0.46569 0.26818 0.94121 0.0
C849 C 0.49221 0.31466 0.9215 0.0
C850 C 0.44047 0.32553 0.94178 0.0
H851 H 0.54705 0.27883 0.90742 0.0
H852 H 0.52546 0.3283 0.90814 0.0
S853 S 0.31936 0.28632 0.99367 0.0
N854 N 0.36919 0.26291 0.97769 0.0
N855 N 0.34694 0.31585 0.97879 0.0
C856 C 0.39903 0.30737 0.95945 0.0
C857 C 0.41132 0.27877 0.959 0.0
C858 C 0.41593 0.28274 0.57669 0.0
C859 C 0.44446 0.26275 0.59939 0.0
C860 C 0.43559 0.31001 0.57829 0.0
C861 C 0.48473 0.31852 0.60263 0.0
H862 H 0.38003 0.27693 0.55618 0.0
H863 H 0.41439 0.3244 0.5589 0.0
S864 S 0.57223 0.27476 0.66979 0.0
N865 N 0.52191 0.25369 0.64869 0.0
N866 N 0.55895 0.3052 0.65164 0.0
C867 C 0.51104 0.29921 0.62727 0.0
C868 C 0.49089 0.27125 0.62567 0.0
C869 C 0.93222 0.78288 0.57534 0.0
C870 C 0.95745 0.76405 0.60113 0.0
C871 C 0.95091 0.81026 0.57588 0.0
C872 C -0.00413 0.8201 0.60216 0.0
H873 H 0.89951 0.77606 0.55352 0.0
H874 H 0.93181 0.82372 0.55451 0.0
S875 S 0.07302 0.77973 0.67762 0.0
N876 N 0.02687 0.7575 0.65535 0.0
N877 N 0.06219 0.80927 0.65631 0.0
C878 C 0.01871 0.80198 0.62968 0.0
C879 C -0.00052 0.77387 0.62917 0.0
C880 C 0.91667 0.15511 0.24281 0.0
C881 C 0.97401 0.16208 0.22486 0.0
C882 C 0.90994 0.15651 0.28259 0.0
C883 C 0.96047 0.16477 0.30577 0.0
H884 H 0.87766 0.14705 0.2262 0.0
H885 H 0.86706 0.14879 0.29532 0.0
S886 S 0.11681 0.18913 0.27325 0.0
N887 N 0.07925 0.18089 0.23351 0.0
N888 N 0.06689 0.183 0.30822 0.0
C889 C 0.01595 0.17401 0.28815 0.0
C890 C 0.02267 0.17286 0.24767 0.0
C891 C 0.51985 0.9236 0.25447 0.0
C892 C 0.46159 0.92021 0.23548 0.0
C893 C 0.52507 0.92036 0.29398 0.0
C894 C 0.47195 0.91397 0.31592 0.0
H895 H 0.56122 0.93016 0.23896 0.0
H896 H 0.56967 0.92505 0.30768 0.0
S897 S 0.31109 0.8988 0.27952 0.0
N898 N 0.3518 0.90669 0.2411 0.0
N899 N 0.36119 0.90102 0.3155 0.0
C900 C 0.41474 0.9083 0.29694 0.0
C901 C 0.40964 0.91126 0.25663 0.0
C902 C 0.90613 0.92769 0.79074 0.0
C903 C 0.95849 0.92654 0.81506 0.0
C904 C 0.91408 0.92653 0.75105 0.0
C905 C 0.97448 0.92379 0.73446 0.0
H906 H 0.85958 0.93178 0.80224 0.0
H907 H 0.87293 0.92938 0.73319 0.0
S908 S 0.12517 0.91543 0.78657 0.0
N909 N 0.07159 0.91933 0.82036 0.0
N910 N 0.08631 0.91659 0.74582 0.0
C911 C 0.02631 0.91996 0.75868 0.0
C912 C 0.01833 0.92156 0.79903 0.0
C913 C 0.52693 0.16282 0.78527 0.0
C914 C 0.4745 0.16738 0.80886 0.0
C915 C 0.51937 0.15972 0.74573 0.0
C916 C 0.45941 0.16159 0.72847 0.0
H917 H 0.57301 0.15922 0.79764 0.0
H918 H 0.56033 0.15433 0.72876 0.0
S919 S 0.30896 0.17736 0.77751 0.0
N920 N 0.36186 0.17645 0.81208 0.0
N921 N 0.34815 0.17142 0.73759 0.0
C922 C 0.40772 0.16873 0.75139 0.0
C923 C 0.41518 0.17138 0.7917 0.0
C924 C 0.52432 0.66312 0.29134 0.0
C925 C 0.46569 0.65738 0.30842 0.0
C926 C 0.5323 0.66204 0.25156 0.0
C927 C 0.48239 0.65432 0.22731 0.0
H928 H 0.56514 0.66741 0.30902 0.0
H929 H 0.57887 0.66564 0.23996 0.0
S930 S 0.31816 0.63927 0.25749 0.0
N931 N 0.35583 0.64572 0.29782 0.0
N932 N 0.37083 0.64288 0.22323 0.0
C933 C 0.42275 0.64977 0.24394 0.0
C934 C 0.41436 0.65153 0.28442 0.0
C935 C 0.0258 0.41662 0.29251 0.0
C936 C 0.97465 0.42131 0.31711 0.0
C937 C 0.01736 0.41695 0.25283 0.0
C938 C 0.95739 0.42123 0.23656 0.0
H939 H 0.07326 0.41517 0.30381 0.0
H940 H 0.05873 0.41582 0.23473 0.0
S941 S 0.80709 0.42995 0.2888 0.0
N942 N 0.86097 0.4271 0.32256 0.0
N943 N 0.8454 0.42709 0.24797 0.0
C944 C 0.90517 0.42318 0.26082 0.0
C945 C 0.91379 0.42338 0.30118 0.0
C946 C 0.51993 0.42357 0.79647 0.0
C947 C 0.45989 0.4277 0.81287 0.0
C948 C 0.52795 0.42181 0.75681 0.0
C949 C 0.47628 0.42486 0.73219 0.0
H950 H 0.56155 0.42326 0.81443 0.0
H951 H 0.57535 0.42032 0.74541 0.0
S952 S 0.30854 0.43271 0.76087 0.0
N953 N 0.34745 0.43184 0.80164 0.0
N954 N 0.36222 0.42926 0.72702 0.0
C955 C 0.41551 0.42702 0.74831 0.0
C956 C 0.40733 0.42824 0.78872 0.0
C957 C 0.91835 0.6671 0.79946 0.0
C958 C 0.97597 0.67144 0.81901 0.0
C959 C 0.91515 0.66658 0.7594 0.0
C960 C 0.96958 0.67017 0.73728 0.0
H961 H 0.87561 0.66279 0.81518 0.0
H962 H 0.87075 0.66142 0.74581 0.0
S963 S 0.12999 0.68641 0.77364 0.0
N964 N 0.08713 0.6827 0.81249 0.0
N965 N 0.08124 0.68145 0.73751 0.0
C966 C 0.0264 0.67658 0.75629 0.0
C967 C 0.02959 0.67734 0.79703 0.0
loop_
_geom_bond_atom_site_label_1
_geom_bond_atom_site_label_2
_geom_bond_distance
_geom_bond_site_symmetry_2
_ccdc_geom_bond_type
C0 C1 1.351 . S
C0 N3 1.368 . S
C0 H5 0.931 . S
C1 C0 1.351 . S
C1 N2 1.373 . S
C1 H29 0.930 . S
N2 C1 1.373 . S
N2 C4 1.340 . S
N3 C0 1.368 . S
N3 C4 1.321 . S
N3 Co6 2.135 . S
C4 N2 1.340 . S
C4 N3 1.321 . S
C4 H28 0.930 . S
H5 C0 0.931 . S
Co6 N3 2.135 . S
Co6 N9 2.121 . S
Co6 O14 2.055 . S
Co6 O17 2.039 . S
Co6 N20 2.140 . S
C7 O8 1.227 1_455 S
C7 O17 1.265 . S
O8 C7 1.227 1_655 S
N9 Co6 2.121 . S
N9 C11 1.375 . S
N9 C12 1.313 . S
C10 C11 1.338 . S
C10 N13 1.377 . S
C10 H30 0.930 . S
C11 N9 1.375 . S
C11 C10 1.338 . S
C11 H15 0.931 . S
C12 N9 1.313 . S
C12 N13 1.344 . S
C12 H16 0.930 . S
N13 C10 1.377 . S
N13 C12 1.344 . S
O14 Co6 2.055 . S
O14 C18 1.253 . S
H15 C11 0.931 . S
H16 C12 0.930 . S
O17 Co6 2.039 . S
O17 C7 1.265 . S
C18 O14 1.253 . S
C18 O19 1.227 . S
O19 C18 1.227 . S
N20 Co6 2.140 . S
N20 C23 1.346 1_455 S
N20 C24 1.345 . S
C21 C22 1.387 . S
C21 C25 1.391 . S
C22 C21 1.387 . S
C22 C23 1.369 . S
C22 H31 0.929 . S
C23 N20 1.346 1_655 S
C23 C22 1.369 . S
C23 H26 0.928 . S
C24 N20 1.345 . S
C24 C25 1.371 1_455 S
C24 H27 0.931 . S
C25 C21 1.391 . S
C25 C24 1.371 1_655 S
C25 H32 0.930 . S
H26 C23 0.928 . S
H27 C24 0.931 . S
H28 C4 0.930 . S
H29 C1 0.930 . S
H30 C10 0.930 . S
H31 C22 0.929 . S
H32 C25 0.930 . S
C33 C34 1.351 . S
C33 N36 1.368 . S
C33 H38 0.931 . S
C34 C33 1.351 . S
C34 N35 1.373 . S
C34 H62 0.930 . S
N35 C34 1.373 . S
N35 C37 1.340 . S
N36 C33 1.368 . S
N36 C37 1.321 . S
N36 Co39 2.135 . S
C37 N35 1.340 . S
C37 N36 1.321 . S
C37 H61 0.930 . S
H38 C33 0.931 . S
Co39 N36 2.135 . S
Co39 N42 2.121 . S
Co39 O47 2.055 . S
Co39 O50 2.039 . S
Co39 N53 2.140 . S
C40 O41 1.227 . S
C40 O50 1.265 . S
O41 C40 1.227 . S
N42 Co39 2.121 . S
N42 C44 1.375 . S
N42 C45 1.313 . S
C43 C44 1.338 . S
C43 N46 1.377 . S
C43 H63 0.930 . S
C44 N42 1.375 . S
C44 C43 1.338 . S
C44 H48 0.931 . S
C45 N42 1.313 . S
C45 N46 1.344 . S
C45 H49 0.930 . S
N46 C43 1.377 . S
N46 C45 1.344 . S
O47 Co39 2.055 . S
O47 C51 1.253 . S
H48 C44 0.931 . S
H49 C45 0.930 . S
O50 Co39 2.039 . S
O50 C40 1.265 . S
C51 O47 1.253 . S
C51 O52 1.227 . S
O52 C51 1.227 . S
N53 Co39 2.140 . S
N53 C56 1.346 . S
N53 C57 1.345 . S
C54 C55 1.387 . S
C54 C58 1.391 . S
C55 C54 1.387 . S
C55 C56 1.369 . S
C55 H64 0.929 . S
C56 N53 1.346 . S
C56 C55 1.369 . S
C56 H59 0.928 . S
C57 N53 1.345 . S
C57 C58 1.371 . S
C57 H60 0.931 . S
C58 C54 1.391 . S
C58 C57 1.371 . S
C58 H65 0.930 . S
H59 C56 0.928 . S
H60 C57 0.931 . S
H61 C37 0.930 . S
H62 C34 0.930 . S
H63 C43 0.930 . S
H64 C55 0.929 . S
H65 C58 0.930 . S
C66 C67 1.351 . S
C66 N69 1.368 . S
C66 H71 0.931 . S
C67 C66 1.351 . S
C67 N68 1.373 . S
C67 H95 0.930 . S
N68 C67 1.373 . S
N68 C70 1.340 . S
N69 C66 1.368 . S
N69 C70 1.321 . S
N69 Co72 2.135 . S
C70 N68 1.340 . S
C70 N69 1.321 . S
C70 H94 0.930 . S
H71 C66 0.931 . S
Co72 N69 2.135 . S
Co72 N75 2.121 . S
Co72 O80 2.055 . S
Co72 O83 2.039 . S
Co72 N86 2.140 . S
C73 O74 1.227 . S
C73 O83 1.265 . S
O74 C73 1.227 . S
N75 Co72 2.121 . S
N75 C77 1.375 . S
N75 C78 1.313 . S
C76 C77 1.338 . S
C76 N79 1.377 . S
C76 H96 0.930 . S
C77 N75 1.375 . S
C77 C76 1.338 . S
C77 H81 0.931 . S
C78 N75 1.313 . S
C78 N79 1.344 . S
C78 H82 0.930 . S
N79 C76 1.377 . S
N79 C78 1.344 . S
O80 Co72 2.055 . S
O80 C84 1.253 . S
H81 C77 0.931 . S
H82 C78 0.930 . S
O83 Co72 2.039 . S
O83 C73 1.265 . S
C84 O80 1.253 . S
C84 O85 1.227 . S
O85 C84 1.227 . S
N86 Co72 2.140 . S
N86 C89 1.346 . S
N86 C90 1.345 . S
C87 C88 1.387 . S
C87 C91 1.391 . S
C88 C87 1.387 . S
C88 C89 1.369 . S
C88 H97 0.929 . S
C89 N86 1.346 . S
C89 C88 1.369 . S
C89 H92 0.928 . S
C90 N86 1.345 . S
C90 C91 1.371 . S
C90 H93 0.931 . S
C91 C87 1.391 . S
C91 C90 1.371 . S
C91 H98 0.930 . S
H92 C89 0.928 . S
H93 C90 0.931 . S
H94 C70 0.930 . S
H95 C67 0.930 . S
H96 C76 0.930 . S
H97 C88 0.929 . S
H98 C91 0.930 . S
C99 C100 1.351 . S
C99 N102 1.368 . S
C99 H104 0.931 . S
C100 C99 1.351 . S
C100 N101 1.373 . S
C100 H128 0.930 . S
N101 C100 1.373 . S
N101 C103 1.340 . S
N102 C99 1.368 . S
N102 C103 1.321 . S
N102 Co105 2.135 . S
C103 N101 1.340 . S
C103 N102 1.321 . S
C103 H127 0.930 . S
H104 C99 0.931 . S
Co105 N102 2.135 . S
Co105 N108 2.121 . S
Co105 O113 2.055 . S
Co105 O116 2.039 . S
Co105 N119 2.140 . S
C106 O107 1.227 1_655 S
C106 O116 1.265 . S
O107 C106 1.227 1_455 S
N108 Co105 2.121 . S
N108 C110 1.375 . S
N108 C111 1.313 . S
C109 C110 1.338 . S
C109 N112 1.377 . S
C109 H129 0.930 . S
C110 N108 1.375 . S
C110 C109 1.338 . S
C110 H114 0.931 . S
C111 N108 1.313 . S
C111 N112 1.344 . S
C111 H115 0.930 . S
N112 C109 1.377 . S
N112 C111 1.344 . S
O113 Co105 2.055 . S
O113 C117 1.253 . S
H114 C110 0.931 . S
H115 C111 0.930 . S
O116 Co105 2.039 . S
O116 C106 1.265 . S
C117 O113 1.253 . S
C117 O118 1.227 . S
O118 C117 1.227 . S
N119 Co105 2.140 . S
N119 C122 1.346 1_655 S
N119 C123 1.345 . S
C120 C121 1.387 . S
C120 C124 1.391 . S
C121 C120 1.387 . S
C121 C122 1.369 . S
C121 H130 0.929 . S
C122 N119 1.346 1_455 S
C122 C121 1.369 . S
C122 H125 0.928 . S
C123 N119 1.345 . S
C123 C124 1.371 1_655 S
C123 H126 0.931 . S
C124 C120 1.391 . S
C124 C123 1.371 1_455 S
C124 H131 0.930 . S
H125 C122 0.928 . S
H126 C123 0.931 . S
H127 C103 0.930 . S
H128 C100 0.930 . S
H129 C109 0.930 . S
H130 C121 0.929 . S
H131 C124 0.930 . S
C132 C133 1.351 . S
C132 N135 1.368 . S
C132 H137 0.931 . S
C133 C132 1.351 . S
C133 N134 1.373 . S
C133 H161 0.930 . S
N134 C133 1.373 . S
N134 C136 1.340 . S
N135 C132 1.368 . S
N135 C136 1.321 . S
N135 Co138 2.135 . S
C136 N134 1.340 . S
C136 N135 1.321 . S
C136 H160 0.930 . S
H137 C132 0.931 . S
Co138 N135 2.135 . S
Co138 N141 2.121 . S
Co138 O146 2.055 . S
Co138 O149 2.039 . S
Co138 N152 2.140 . S
C139 O140 1.227 1_655 S
C139 O149 1.265 . S
O140 C139 1.227 1_455 S
N141 Co138 2.121 . S
N141 C143 1.375 . S
N141 C144 1.313 . S
C142 C143 1.338 . S
C142 N145 1.377 . S
C142 H162 0.930 . S
C143 N141 1.375 . S
C143 C142 1.338 . S
C143 H147 0.931 . S
C144 N141 1.313 . S
C144 N145 1.344 . S
C144 H148 0.930 . S
N145 C142 1.377 . S
N145 C144 1.344 . S
O146 Co138 2.055 . S
O146 C150 1.253 . S
H147 C143 0.931 . S
H148 C144 0.930 . S
O149 Co138 2.039 . S
O149 C139 1.265 . S
C150 O146 1.253 . S
C150 O151 1.227 . S
O151 C150 1.227 . S
N152 Co138 2.140 . S
N152 C155 1.346 1_655 S
N152 C156 1.345 . S
C153 C154 1.387 . S
C153 C157 1.391 . S
C154 C153 1.387 . S
C154 C155 1.369 . S
C154 H163 0.929 . S
C155 N152 1.346 1_455 S
C155 C154 1.369 . S
C155 H158 0.928 . S
C156 N152 1.345 . S
C156 C157 1.371 1_655 S
C156 H159 0.931 . S
C157 C153 1.391 . S
C157 C156 1.371 1_455 S
C157 H164 0.930 . S
H158 C155 0.928 . S
H159 C156 0.931 . S
H160 C136 0.930 . S
H161 C133 0.930 . S
H162 C142 0.930 . S
H163 C154 0.929 . S
H164 C157 0.930 . S
C165 C166 1.351 . S
C165 N168 1.368 . S
C165 H170 0.931 . S
C166 C165 1.351 . S
C166 N167 1.373 . S
C166 H194 0.930 . S
N167 C166 1.373 . S
N167 C169 1.340 . S
N168 C165 1.368 . S
N168 C169 1.321 . S
N168 Co171 2.135 . S
C169 N167 1.340 . S
C169 N168 1.321 . S
C169 H193 0.930 . S
H170 C165 0.931 . S
Co171 N168 2.135 . S
Co171 N174 2.121 . S
Co171 O179 2.055 . S
Co171 O182 2.039 . S
Co171 N185 2.140 . S
C172 O173 1.227 . S
C172 O182 1.265 . S
O173 C172 1.227 . S
N174 Co171 2.121 . S
N174 C176 1.375 . S
N174 C177 1.313 . S
C175 C176 1.338 . S
C175 N178 1.377 . S
C175 H195 0.930 . S
C176 N174 1.375 . S
C176 C175 1.338 . S
C176 H180 0.931 . S
C177 N174 1.313 . S
C177 N178 1.344 . S
C177 H181 0.930 . S
N178 C175 1.377 . S
N178 C177 1.344 . S
O179 Co171 2.055 . S
O179 C183 1.253 . S
H180 C176 0.931 . S
H181 C177 0.930 . S
O182 Co171 2.039 . S
O182 C172 1.265 . S
C183 O179 1.253 . S
C183 O184 1.227 . S
O184 C183 1.227 . S
N185 Co171 2.140 . S
N185 C188 1.346 . S
N185 C189 1.345 . S
C186 C187 1.387 . S
C186 C190 1.391 . S
C187 C186 1.387 . S
C187 C188 1.369 . S
C187 H196 0.929 . S
C188 N185 1.346 . S
C188 C187 1.369 . S
C188 H191 0.928 . S
C189 N185 1.345 . S
C189 C190 1.371 . S
C189 H192 0.931 . S
C190 C186 1.391 . S
C190 C189 1.371 . S
C190 H197 0.930 . S
H191 C188 0.928 . S
H192 C189 0.931 . S
H193 C169 0.930 . S
H194 C166 0.930 . S
H195 C175 0.930 . S
H196 C187 0.929 . S
H197 C190 0.930 . S
C198 C199 1.351 . S
C198 N201 1.368 . S
C198 H203 0.931 . S
C199 C198 1.351 . S
C199 N200 1.373 . S
C199 H227 0.930 . S
N200 C199 1.373 . S
N200 C202 1.340 . S
N201 C198 1.368 . S
N201 C202 1.321 . S
N201 Co204 2.135 . S
C202 N200 1.340 . S
C202 N201 1.321 . S
C202 H226 0.930 . S
H203 C198 0.931 . S
Co204 N201 2.135 . S
Co204 N207 2.121 . S
Co204 O212 2.055 . S
Co204 O215 2.039 . S
Co204 N218 2.140 . S
C205 O206 1.227 . S
C205 O215 1.265 . S
O206 C205 1.227 . S
N207 Co204 2.121 . S
N207 C209 1.375 . S
N207 C210 1.313 . S
C208 C209 1.338 . S
C208 N211 1.377 . S
C208 H228 0.930 . S
C209 N207 1.375 . S
C209 C208 1.338 . S
C209 H213 0.931 . S
C210 N207 1.313 . S
C210 N211 1.344 . S
C210 H214 0.930 . S
N211 C208 1.377 . S
N211 C210 1.344 . S
O212 Co204 2.055 . S
O212 C216 1.253 . S
H213 C209 0.931 . S
H214 C210 0.930 . S
O215 Co204 2.039 . S
O215 C205 1.265 . S
C216 O212 1.253 . S
C216 O217 1.227 . S
O217 C216 1.227 . S
N218 Co204 2.140 . S
N218 C221 1.346 . S
N218 C222 1.345 . S
C219 C220 1.387 . S
C219 C223 1.391 . S
C220 C219 1.387 . S
C220 C221 1.369 . S
C220 H229 0.929 . S
C221 N218 1.346 . S
C221 C220 1.369 . S
C221 H224 0.928 . S
C222 N218 1.345 . S
C222 C223 1.371 . S
C222 H225 0.931 . S
C223 C219 1.391 . S
C223 C222 1.371 . S
C223 H230 0.930 . S
H224 C221 0.928 . S
H225 C222 0.931 . S
H226 C202 0.930 . S
H227 C199 0.930 . S
H228 C208 0.930 . S
H229 C220 0.929 . S
H230 C223 0.930 . S
C231 C232 1.351 . S
C231 N234 1.368 . S
C231 H236 0.931 . S
C232 C231 1.351 . S
C232 N233 1.373 . S
C232 H260 0.930 . S
N233 C232 1.373 . S
N233 C235 1.340 . S
N234 C231 1.368 . S
N234 C235 1.321 . S
N234 Co237 2.135 . S
C235 N233 1.340 . S
C235 N234 1.321 . S
C235 H259 0.930 . S
H236 C231 0.931 . S
Co237 N234 2.135 . S
Co237 N240 2.121 . S
Co237 O245 2.055 . S
Co237 O248 2.039 . S
Co237 N251 2.140 . S
C238 O239 1.227 1_455 S
C238 O248 1.265 . S
O239 C238 1.227 1_655 S
N240 Co237 2.121 . S
N240 C242 1.375 . S
N240 C243 1.313 . S
C241 C242 1.338 . S
C241 N244 1.377 . S
C241 H261 0.930 . S
C242 N240 1.375 . S
C242 C241 1.338 . S
C242 H246 0.931 . S
C243 N240 1.313 . S
C243 N244 1.344 . S
C243 H247 0.930 . S
N244 C241 1.377 . S
N244 C243 1.344 . S
O245 Co237 2.055 . S
O245 C249 1.253 . S
H246 C242 0.931 . S
H247 C243 0.930 . S
O248 Co237 2.039 . S
O248 C238 1.265 . S
C249 O245 1.253 . S
C249 O250 1.227 . S
O250 C249 1.227 . S
N251 Co237 2.140 . S
N251 C254 1.346 1_455 S
N251 C255 1.345 . S
C252 C253 1.387 . S
C252 C256 1.391 . S
C253 C252 1.387 . S
C253 C254 1.369 . S
C253 H262 0.929 . S
C254 N251 1.346 1_655 S
C254 C253 1.369 . S
C254 H257 0.928 . S
C255 N251 1.345 . S
C255 C256 1.371 1_455 S
C255 H258 0.931 . S
C256 C252 1.391 . S
C256 C255 1.371 1_655 S
C256 H263 0.930 . S
H257 C254 0.928 . S
H258 C255 0.931 . S
H259 C235 0.930 . S
H260 C232 0.930 . S
H261 C241 0.930 . S
H262 C253 0.929 . S
H263 C256 0.930 . S
C264 C265 1.351 . S
C264 N267 1.368 . S
C264 H269 0.931 . S
C265 C264 1.351 . S
C265 N266 1.373 . S
C265 H293 0.930 . S
N266 C265 1.373 . S
N266 C268 1.340 . S
N267 C264 1.368 . S
N267 C268 1.321 . S
N267 Co270 2.135 . S
C268 N266 1.340 . S
C268 N267 1.321 . S
C268 H292 0.930 . S
H269 C264 0.931 . S
Co270 N267 2.135 . S
Co270 N273 2.121 . S
Co270 O278 2.055 . S
Co270 O281 2.039 . S
Co270 N284 2.140 . S
C271 O272 1.227 . S
C271 O281 1.265 . S
O272 C271 1.227 . S
N273 Co270 2.121 . S
N273 C275 1.375 . S
N273 C276 1.313 . S
C274 C275 1.338 . S
C274 N277 1.377 . S
C274 H294 0.930 . S
C275 N273 1.375 . S
C275 C274 1.338 . S
C275 H279 0.931 . S
C276 N273 1.313 . S
C276 N277 1.344 . S
C276 H280 0.930 . S
N277 C274 1.377 . S
N277 C276 1.344 . S
O278 Co270 2.055 . S
O278 C282 1.253 . S
H279 C275 0.931 . S
H280 C276 0.930 . S
O281 Co270 2.039 . S
O281 C271 1.265 . S
C282 O278 1.253 . S
C282 O283 1.227 . S
O283 C282 1.227 . S
N284 Co270 2.140 . S
N284 C287 1.346 . S
N284 C288 1.345 . S
C285 C286 1.387 . S
C285 C289 1.391 . S
C286 C285 1.387 . S
C286 C287 1.369 . S
C286 H295 0.929 . S
C287 N284 1.346 . S
C287 C286 1.369 . S
C287 H290 0.928 . S
C288 N284 1.345 . S
C288 C289 1.371 . S
C288 H291 0.931 . S
C289 C285 1.391 . S
C289 C288 1.371 . S
C289 H296 0.930 . S
H290 C287 0.928 . S
H291 C288 0.931 . S
H292 C268 0.930 . S
H293 C265 0.930 . S
H294 C274 0.930 . S
H295 C286 0.929 . S
H296 C289 0.930 . S
C297 C298 1.351 . S
C297 N300 1.368 . S
C297 H302 0.931 . S
C298 C297 1.351 . S
C298 N299 1.373 . S
C298 H326 0.930 . S
N299 C298 1.373 . S
N299 C301 1.340 . S
N300 C297 1.368 . S
N300 C301 1.321 . S
N300 Co303 2.135 . S
C301 N299 1.340 . S
C301 N300 1.321 . S
C301 H325 0.930 . S
H302 C297 0.931 . S
Co303 N300 2.135 . S
Co303 N306 2.121 . S
Co303 O311 2.055 . S
Co303 O314 2.039 . S
Co303 N317 2.140 . S
C304 O305 1.227 1_655 S
C304 O314 1.265 . S
O305 C304 1.227 1_455 S
N306 Co303 2.121 . S
N306 C308 1.375 . S
N306 C309 1.313 . S
C307 C308 1.338 . S
C307 N310 1.377 . S
C307 H327 0.930 . S
C308 N306 1.375 . S
C308 C307 1.338 . S
C308 H312 0.931 . S
C309 N306 1.313 . S
C309 N310 1.344 . S
C309 H313 0.930 . S
N310 C307 1.377 . S
N310 C309 1.344 . S
O311 Co303 2.055 . S
O311 C315 1.253 . S
H312 C308 0.931 . S
H313 C309 0.930 . S
O314 Co303 2.039 . S
O314 C304 1.265 . S
C315 O311 1.253 . S
C315 O316 1.227 . S
O316 C315 1.227 . S
N317 Co303 2.140 . S
N317 C320 1.346 1_655 S
N317 C321 1.345 . S
C318 C319 1.387 . S
C318 C322 1.391 . S
C319 C318 1.387 . S
C319 C320 1.369 . S
C319 H328 0.929 . S
C320 N317 1.346 1_455 S
C320 C319 1.369 . S
C320 H323 0.928 . S
C321 N317 1.345 . S
C321 C322 1.371 1_655 S
C321 H324 0.931 . S
C322 C318 1.391 . S
C322 C321 1.371 1_455 S
C322 H329 0.930 . S
H323 C320 0.928 . S
H324 C321 0.931 . S
H325 C301 0.930 . S
H326 C298 0.930 . S
H327 C307 0.930 . S
H328 C319 0.929 . S
H329 C322 0.930 . S
C330 C331 1.351 . S
C330 N333 1.368 . S
C330 H335 0.931 . S
C331 C330 1.351 . S
C331 N332 1.373 . S
C331 H359 0.930 . S
N332 C331 1.373 . S
N332 C334 1.340 . S
N333 C330 1.368 . S
N333 C334 1.321 . S
N333 Co336 2.135 . S
C334 N332 1.340 . S
C334 N333 1.321 . S
C334 H358 0.930 . S
H335 C330 0.931 . S
Co336 N333 2.135 . S
Co336 N339 2.121 . S
Co336 O344 2.055 . S
Co336 O347 2.039 . S
Co336 N350 2.140 . S
C337 O338 1.227 1_455 S
C337 O347 1.265 . S
O338 C337 1.227 1_655 S
N339 Co336 2.121 . S
N339 C341 1.375 . S
N339 C342 1.313 . S
C340 C341 1.338 . S
C340 N343 1.377 . S
C340 H360 0.930 . S
C341 N339 1.375 . S
C341 C340 1.338 . S
C341 H345 0.931 . S
C342 N339 1.313 . S
C342 N343 1.344 . S
C342 H346 0.930 . S
N343 C340 1.377 . S
N343 C342 1.344 . S
O344 Co336 2.055 . S
O344 C348 1.253 . S
H345 C341 0.931 . S
H346 C342 0.930 . S
O347 Co336 2.039 . S
O347 C337 1.265 . S
C348 O344 1.253 . S
C348 O349 1.227 . S
O349 C348 1.227 . S
N350 Co336 2.140 . S
N350 C353 1.346 1_455 S
N350 C354 1.345 . S
C351 C352 1.387 . S
C351 C355 1.391 . S
C352 C351 1.387 . S
C352 C353 1.369 . S
C352 H361 0.929 . S
C353 N350 1.346 1_655 S
C353 C352 1.369 . S
C353 H356 0.928 . S
C354 N350 1.345 . S
C354 C355 1.371 1_455 S
C354 H357 0.931 . S
C355 C351 1.391 . S
C355 C354 1.371 1_655 S
C355 H362 0.930 . S
H356 C353 0.928 . S
H357 C354 0.931 . S
H358 C334 0.930 . S
H359 C331 0.930 . S
H360 C340 0.930 . S
H361 C352 0.929 . S
H362 C355 0.930 . S
C363 C364 1.351 . S
C363 N366 1.368 . S
C363 H368 0.931 . S
C364 C363 1.351 . S
C364 N365 1.373 . S
C364 H392 0.930 . S
N365 C364 1.373 . S
N365 C367 1.340 . S
N366 C363 1.368 . S
N366 C367 1.321 . S
N366 Co369 2.135 . S
C367 N365 1.340 . S
C367 N366 1.321 . S
C367 H391 0.930 . S
H368 C363 0.931 . S
Co369 N366 2.135 . S
Co369 N372 2.121 . S
Co369 O377 2.055 . S
Co369 O380 2.039 . S
Co369 N383 2.140 . S
C370 O371 1.227 . S
C370 O380 1.265 . S
O371 C370 1.227 . S
N372 Co369 2.121 . S
N372 C374 1.375 . S
N372 C375 1.313 . S
C373 C374 1.338 . S
C373 N376 1.377 . S
C373 H393 0.930 . S
C374 N372 1.375 . S
C374 C373 1.338 . S
C374 H378 0.931 . S
C375 N372 1.313 . S
C375 N376 1.344 . S
C375 H379 0.930 . S
N376 C373 1.377 . S
N376 C375 1.344 . S
O377 Co369 2.055 . S
O377 C381 1.253 . S
H378 C374 0.931 . S
H379 C375 0.930 . S
O380 Co369 2.039 . S
O380 C370 1.265 . S
C381 O377 1.253 . S
C381 O382 1.227 . S
O382 C381 1.227 . S
N383 Co369 2.140 . S
N383 C386 1.346 . S
N383 C387 1.345 . S
C384 C385 1.387 . S
C384 C388 1.391 . S
C385 C384 1.387 . S
C385 C386 1.369 . S
C385 H394 0.929 . S
C386 N383 1.346 . S
C386 C385 1.369 . S
C386 H389 0.928 . S
C387 N383 1.345 . S
C387 C388 1.371 . S
C387 H390 0.931 . S
C388 C384 1.391 . S
C388 C387 1.371 . S
C388 H395 0.930 . S
H389 C386 0.928 . S
H390 C387 0.931 . S
H391 C367 0.930 . S
H392 C364 0.930 . S
H393 C373 0.930 . S
H394 C385 0.929 . S
H395 C388 0.930 . S
C396 C397 1.351 . S
C396 N399 1.368 . S
C396 H401 0.931 . S
C397 C396 1.351 . S
C397 N398 1.373 . S
C397 H425 0.930 . S
N398 C397 1.373 . S
N398 C400 1.340 . S
N399 C396 1.368 . S
N399 C400 1.321 . S
N399 Co402 2.135 . S
C400 N398 1.340 . S
C400 N399 1.321 . S
C400 H424 0.930 . S
H401 C396 0.931 . S
Co402 N399 2.135 . S
Co402 N405 2.121 . S
Co402 O410 2.055 . S
Co402 O413 2.039 . S
Co402 N416 2.140 . S
C403 O404 1.227 . S
C403 O413 1.265 . S
O404 C403 1.227 . S
N405 Co402 2.121 . S
N405 C407 1.375 . S
N405 C408 1.313 . S
C406 C407 1.338 . S
C406 N409 1.377 . S
C406 H426 0.930 . S
C407 N405 1.375 . S
C407 C406 1.338 . S
C407 H411 0.931 . S
C408 N405 1.313 . S
C408 N409 1.344 . S
C408 H412 0.930 . S
N409 C406 1.377 . S
N409 C408 1.344 . S
O410 Co402 2.055 . S
O410 C414 1.253 . S
H411 C407 0.931 . S
H412 C408 0.930 . S
O413 Co402 2.039 . S
O413 C403 1.265 . S
C414 O410 1.253 . S
C414 O415 1.227 . S
O415 C414 1.227 . S
N416 Co402 2.140 . S
N416 C419 1.346 . S
N416 C420 1.345 . S
C417 C418 1.387 . S
C417 C421 1.391 . S
C418 C417 1.387 . S
C418 C419 1.369 . S
C418 H427 0.929 . S
C419 N416 1.346 . S
C419 C418 1.369 . S
C419 H422 0.928 . S
C420 N416 1.345 . S
C420 C421 1.371 . S
C420 H423 0.931 . S
C421 C417 1.391 . S
C421 C420 1.371 . S
C421 H428 0.930 . S
H422 C419 0.928 . S
H423 C420 0.931 . S
H424 C400 0.930 . S
H425 C397 0.930 . S
H426 C406 0.930 . S
H427 C418 0.929 . S
H428 C421 0.930 . S
C429 C430 1.351 . S
C429 N432 1.368 . S
C429 H434 0.931 . S
C430 C429 1.351 . S
C430 N431 1.373 . S
C430 H458 0.930 . S
N431 C430 1.373 . S
N431 C433 1.340 . S
N432 C429 1.368 . S
N432 C433 1.321 . S
N432 Co435 2.135 . S
C433 N431 1.340 . S
C433 N432 1.321 . S
C433 H457 0.930 . S
H434 C429 0.931 . S
Co435 N432 2.135 . S
Co435 N438 2.121 . S
Co435 O443 2.055 . S
Co435 O446 2.039 . S
Co435 N449 2.140 . S
C436 O437 1.227 1_455 S
C436 O446 1.265 . S
O437 C436 1.227 1_655 S
N438 Co435 2.121 . S
N438 C440 1.375 . S
N438 C441 1.313 . S
C439 C440 1.338 . S
C439 N442 1.377 . S
C439 H459 0.930 . S
C440 N438 1.375 . S
C440 C439 1.338 . S
C440 H444 0.931 . S
C441 N438 1.313 . S
C441 N442 1.344 . S
C441 H445 0.930 . S
N442 C439 1.377 . S
N442 C441 1.344 . S
O443 Co435 2.055 . S
O443 C447 1.253 . S
H444 C440 0.931 . S
H445 C441 0.930 . S
O446 Co435 2.039 . S
O446 C436 1.265 . S
C447 O443 1.253 . S
C447 O448 1.227 . S
O448 C447 1.227 . S
N449 Co435 2.140 . S
N449 C452 1.346 1_455 S
N449 C453 1.345 . S
C450 C451 1.387 . S
C450 C454 1.391 . S
C451 C450 1.387 . S
C451 C452 1.369 . S
C451 H460 0.929 . S
C452 N449 1.346 1_655 S
C452 C451 1.369 . S
C452 H455 0.928 . S
C453 N449 1.345 . S
C453 C454 1.371 1_455 S
C453 H456 0.931 . S
C454 C450 1.391 . S
C454 C453 1.371 1_655 S
C454 H461 0.930 . S
H455 C452 0.928 . S
H456 C453 0.931 . S
H457 C433 0.930 . S
H458 C430 0.930 . S
H459 C439 0.930 . S
H460 C451 0.929 . S
H461 C454 0.930 . S
C462 C463 1.351 . S
C462 N465 1.368 . S
C462 H467 0.931 . S
C463 C462 1.351 . S
C463 N464 1.373 . S
C463 H491 0.930 . S
N464 C463 1.373 . S
N464 C466 1.340 . S
N465 C462 1.368 . S
N465 C466 1.321 . S
N465 Co468 2.135 . S
C466 N464 1.340 . S
C466 N465 1.321 . S
C466 H490 0.930 . S
H467 C462 0.931 . S
Co468 N465 2.135 . S
Co468 N471 2.121 . S
Co468 O476 2.055 . S
Co468 O479 2.039 . S
Co468 N482 2.140 . S
C469 O470 1.227 1_655 S
C469 O479 1.265 . S
O470 C469 1.227 1_455 S
N471 Co468 2.121 . S
N471 C473 1.375 . S
N471 C474 1.313 . S
C472 C473 1.338 . S
C472 N475 1.377 . S
C472 H492 0.930 . S
C473 N471 1.375 . S
C473 C472 1.338 . S
C473 H477 0.931 . S
C474 N471 1.313 . S
C474 N475 1.344 . S
C474 H478 0.930 . S
N475 C472 1.377 . S
N475 C474 1.344 . S
O476 Co468 2.055 . S
O476 C480 1.253 . S
H477 C473 0.931 . S
H478 C474 0.930 . S
O479 Co468 2.039 . S
O479 C469 1.265 . S
C480 O476 1.253 . S
C480 O481 1.227 . S
O481 C480 1.227 . S
N482 Co468 2.140 . S
N482 C485 1.346 1_655 S
N482 C486 1.345 . S
C483 C484 1.387 . S
C483 C487 1.391 . S
C484 C483 1.387 . S
C484 C485 1.369 . S
C484 H493 0.929 . S
C485 N482 1.346 1_455 S
C485 C484 1.369 . S
C485 H488 0.928 . S
C486 N482 1.345 . S
C486 C487 1.371 1_655 S
C486 H489 0.931 . S
C487 C483 1.391 . S
C487 C486 1.371 1_455 S
C487 H494 0.930 . S
H488 C485 0.928 . S
H489 C486 0.931 . S
H490 C466 0.930 . S
H491 C463 0.930 . S
H492 C472 0.930 . S
H493 C484 0.929 . S
H494 C487 0.930 . S
C495 C496 1.351 . S
C495 N498 1.368 . S
C495 H500 0.931 . S
C496 C495 1.351 . S
C496 N497 1.373 . S
C496 H524 0.930 . S
N497 C496 1.373 . S
N497 C499 1.340 . S
N498 C495 1.368 . S
N498 C499 1.321 . S
N498 Co501 2.135 . S
C499 N497 1.340 . S
C499 N498 1.321 . S
C499 H523 0.930 . S
H500 C495 0.931 . S
Co501 N498 2.135 . S
Co501 N504 2.121 . S
Co501 O509 2.055 . S
Co501 O512 2.039 . S
Co501 N515 2.140 . S
C502 O503 1.227 . S
C502 O512 1.265 . S
O503 C502 1.227 . S
N504 Co501 2.121 . S
N504 C506 1.375 . S
N504 C507 1.313 . S
C505 C506 1.338 . S
C505 N508 1.377 . S
C505 H525 0.930 . S
C506 N504 1.375 . S
C506 C505 1.338 . S
C506 H510 0.931 . S
C507 N504 1.313 . S
C507 N508 1.344 . S
C507 H511 0.930 . S
N508 C505 1.377 . S
N508 C507 1.344 . S
O509 Co501 2.055 . S
O509 C513 1.253 . S
H510 C506 0.931 . S
H511 C507 0.930 . S
O512 Co501 2.039 . S
O512 C502 1.265 . S
C513 O509 1.253 . S
C513 O514 1.227 . S
O514 C513 1.227 . S
N515 Co501 2.140 . S
N515 C518 1.346 . S
N515 C519 1.345 . S
C516 C517 1.387 . S
C516 C520 1.391 . S
C517 C516 1.387 . S
C517 C518 1.369 . S
C517 H526 0.929 . S
C518 N515 1.346 . S
C518 C517 1.369 . S
C518 H521 0.928 . S
C519 N515 1.345 . S
C519 C520 1.371 . S
C519 H522 0.931 . S
C520 C516 1.391 . S
C520 C519 1.371 . S
C520 H527 0.930 . S
H521 C518 0.928 . S
H522 C519 0.931 . S
H523 C499 0.930 . S
H524 C496 0.930 . S
H525 C505 0.930 . S
H526 C517 0.929 . S
H527 C520 0.930 . S
C528 C529 1.369 1_554 S
C528 C530 1.419 . S
C528 H532 0.930 . S
C529 C528 1.369 1_556 S
C529 C538 1.429 . S
C530 C528 1.419 . S
C530 C531 1.363 . S
C530 H533 0.929 . S
C531 C530 1.363 . S
C531 C537 1.428 . S
H532 C528 0.930 . S
H533 C530 0.929 . S
S534 N535 1.613 . S
S534 N536 1.585 1_556 S
N535 S534 1.613 . S
N535 C538 1.350 . S
N536 S534 1.585 1_554 S
N536 C537 1.358 . S
C537 C531 1.428 . S
C537 N536 1.358 . S
C537 C538 1.434 1_554 S
C538 C529 1.429 . S
C538 N535 1.350 . S
C538 C537 1.434 1_556 S
C539 C540 1.369 1_554 S
C539 C541 1.419 . S
C539 H543 0.930 . S
C540 C539 1.369 1_556 S
C540 C549 1.429 . S
C541 C539 1.419 . S
C541 C542 1.363 . S
C541 H544 0.929 . S
C542 C541 1.363 . S
C542 C548 1.428 . S
H543 C539 0.930 . S
H544 C541 0.929 . S
S545 N546 1.613 . S
S545 N547 1.610 . S
N546 S545 1.613 . S
N546 C549 1.350 . S
N547 S545 1.610 . S
N547 C548 1.351 1_556 S
C548 C542 1.428 . S
C548 N547 1.351 1_554 S
C548 C549 1.434 1_554 S
C549 C540 1.429 . S
C549 N546 1.350 . S
C549 C548 1.434 1_556 S
C550 C551 1.369 . S
C550 C552 1.419 . S
C550 H554 0.930 . S
C551 C550 1.369 . S
C551 C560 1.429 . S
C552 C550 1.419 . S
C552 C553 1.363 . S
C552 H555 0.929 . S
C553 C552 1.363 . S
C553 C559 1.428 . S
H554 C550 0.930 . S
H555 C552 0.929 . S
S556 N557 1.613 . S
S556 N558 1.610 . S
N557 S556 1.613 . S
N557 C560 1.350 . S
N558 S556 1.610 . S
N558 C559 1.351 . S
C559 C553 1.428 . S
C559 N558 1.351 . S
C559 C560 1.434 . S
C560 C551 1.429 . S
C560 N557 1.350 . S
C560 C559 1.434 . S
C561 C562 1.369 . S
C561 C563 1.419 . S
C561 H565 0.930 . S
C562 C561 1.369 . S
C562 C571 1.429 . S
C563 C561 1.419 . S
C563 C564 1.363 . S
C563 H566 0.929 . S
C564 C563 1.363 . S
C564 C570 1.428 . S
H565 C561 0.930 . S
H566 C563 0.929 . S
S567 N568 1.613 . S
S567 N569 1.610 . S
N568 S567 1.613 . S
N568 C571 1.350 . S
N569 S567 1.610 . S
N569 C570 1.351 . S
C570 C564 1.428 . S
C570 N569 1.351 . S
C570 C571 1.434 . S
C571 C562 1.429 . S
C571 N568 1.350 . S
C571 C570 1.434 . S
C572 C573 1.369 . S
C572 C574 1.419 1_556 S
C572 H576 0.930 1_556 S
C573 C572 1.369 . S
C573 C582 1.429 . S
C574 C572 1.419 1_554 S
C574 C575 1.363 . S
C574 H577 0.929 . S
C575 C574 1.363 . S
C575 C581 1.428 1_554 S
H576 C572 0.930 1_554 S
H577 C574 0.929 . S
S578 N579 1.613 . S
S578 N580 1.610 . S
N579 S578 1.613 . S
N579 C582 1.350 . S
N580 S578 1.610 . S
N580 C581 1.351 . S
C581 C575 1.428 1_556 S
C581 N580 1.351 . S
C581 C582 1.434 . S
C582 C573 1.429 . S
C582 N579 1.350 . S
C582 C581 1.434 . S
C583 C584 1.369 . S
C583 C585 1.419 1_556 S
C583 H587 0.930 1_556 S
C584 C583 1.369 . S
C584 C593 1.429 . S
C585 C583 1.419 1_554 S
C585 C586 1.363 . S
C585 H588 0.929 . S
C586 C585 1.363 . S
C586 C592 1.428 1_554 S
H587 C583 0.930 1_554 S
H588 C585 0.929 . S
S589 N590 1.613 . S
S589 N591 1.610 . S
N590 S589 1.613 . S
N590 C593 1.350 . S
N591 S589 1.610 . S
N591 C592 1.351 . S
C592 C586 1.428 1_556 S
C592 N591 1.351 . S
C592 C593 1.434 . S
C593 C584 1.429 . S
C593 N590 1.350 . S
C593 C592 1.434 . S
C594 C595 1.369 . S
C594 C596 1.419 . S
C594 H598 0.930 . S
C595 C594 1.369 . S
C595 C604 1.429 . S
C596 C594 1.419 . S
C596 C597 1.363 . S
C596 H599 0.929 . S
C597 C596 1.363 . S
C597 C603 1.428 . S
H598 C594 0.930 . S
H599 C596 0.929 . S
S600 N601 1.613 . S
S600 N602 1.610 . S
N601 S600 1.613 . S
N601 C604 1.350 . S
N602 S600 1.610 . S
N602 C603 1.351 . S
C603 C597 1.428 . S
C603 N602 1.351 . S
C603 C604 1.434 . S
C604 C595 1.429 . S
C604 N601 1.350 . S
C604 C603 1.434 . S
C605 C606 1.369 . S
C605 C607 1.419 . S
C605 H609 0.930 . S
C606 C605 1.369 . S
C606 C615 1.429 . S
C607 C605 1.419 . S
C607 C608 1.363 . S
C607 H610 0.929 . S
C608 C607 1.363 . S
C608 C614 1.428 . S
H609 C605 0.930 . S
H610 C607 0.929 . S
S611 N612 1.613 . S
S611 N613 1.610 . S
N612 S611 1.613 . S
N612 C615 1.350 . S
N613 S611 1.610 . S
N613 C614 1.351 . S
C614 C608 1.428 . S
C614 N613 1.351 . S
C614 C615 1.434 . S
C615 C606 1.429 . S
C615 N612 1.350 . S
C615 C614 1.434 . S
C616 C617 1.369 . S
C616 C618 1.419 1_554 S
C616 H620 0.930 . S
C617 C616 1.369 . S
C617 C626 1.429 . S
C618 C616 1.419 1_556 S
C618 C619 1.363 . S
C618 H621 0.929 . S
C619 C618 1.363 . S
C619 C625 1.428 1_556 S
H620 C616 0.930 . S
H621 C618 0.929 . S
S622 N623 1.613 . S
S622 N624 1.597 1_554 S
N623 S622 1.613 . S
N623 C626 1.350 . S
N624 S622 1.597 1_556 S
N624 C625 1.349 1_556 S
C625 C619 1.428 1_554 S
C625 N624 1.349 1_554 S
C625 C626 1.434 . S
C626 C617 1.429 . S
C626 N623 1.350 . S
C626 C625 1.434 . S
C627 C628 1.369 . S
C627 C629 1.419 . S
C627 H631 0.930 . S
C628 C627 1.369 . S
C628 C637 1.429 . S
C629 C627 1.419 . S
C629 C630 1.363 1_554 S
C629 H632 0.929 . S
C630 C629 1.363 1_556 S
C630 C636 1.428 . S
H631 C627 0.930 . S
H632 C629 0.929 . S
S633 N634 1.613 . S
S633 N635 1.610 . S
N634 S633 1.613 . S
N634 C637 1.350 1_556 S
N635 S633 1.610 . S
N635 C636 1.351 . S
C636 C630 1.428 . S
C636 N635 1.351 . S
C636 C637 1.434 1_556 S
C637 C628 1.429 . S
C637 N634 1.350 1_554 S
C637 C636 1.434 1_554 S
C638 C639 1.369 . S
C638 C640 1.419 . S
C638 H642 0.930 . S
C639 C638 1.369 . S
C639 C648 1.429 . S
C640 C638 1.419 . S
C640 C641 1.363 . S
C640 H643 0.929 . S
C641 C640 1.363 . S
C641 C647 1.428 . S
H642 C638 0.930 . S
H643 C640 0.929 . S
S644 N645 1.613 . S
S644 N646 1.610 . S
N645 S644 1.613 . S
N645 C648 1.350 . S
N646 S644 1.610 . S
N646 C647 1.351 . S
C647 C641 1.428 . S
C647 N646 1.351 . S
C647 C648 1.434 . S
C648 C639 1.429 . S
C648 N645 1.350 . S
C648 C647 1.434 . S
C649 C650 1.369 . S
C649 C651 1.419 . S
C649 H653 0.930 . S
C650 C649 1.369 . S
C650 C659 1.429 . S
C651 C649 1.419 . S
C651 C652 1.363 . S
C651 H654 0.929 . S
C652 C651 1.363 . S
C652 C658 1.428 . S
H653 C649 0.930 . S
H654 C651 0.929 . S
S655 N656 1.613 . S
S655 N657 1.610 . S
N656 S655 1.613 . S
N656 C659 1.350 . S
N657 S655 1.610 . S
N657 C658 1.351 . S
C658 C652 1.428 . S
C658 N657 1.351 . S
C658 C659 1.434 . S
C659 C650 1.429 . S
C659 N656 1.350 . S
C659 C658 1.434 . S
C660 C661 1.369 . S
C660 C662 1.419 . S
C660 H664 0.930 . S
C661 C660 1.369 . S
C661 C670 1.429 . S
C662 C660 1.419 . S
C662 C663 1.363 1_556 S
C662 H665 0.929 . S
C663 C662 1.363 1_554 S
C663 C669 1.428 . S
H664 C660 0.930 . S
H665 C662 0.929 . S
S666 N667 1.613 . S
S666 N668 1.610 . S
N667 S666 1.613 . S
N667 C670 1.350 1_554 S
N668 S666 1.610 . S
N668 C669 1.351 . S
C669 C663 1.428 . S
C669 N668 1.351 . S
C669 C670 1.434 1_554 S
C670 C661 1.429 . S
C670 N667 1.350 1_556 S
C670 C669 1.434 1_556 S
C671 C672 1.369 . S
C671 C673 1.419 1_556 S
C671 H675 0.930 . S
C672 C671 1.369 . S
C672 C681 1.429 . S
C673 C671 1.419 1_554 S
C673 C674 1.363 . S
C673 H676 0.929 . S
C674 C673 1.363 . S
C674 C680 1.428 1_554 S
H675 C671 0.930 . S
H676 C673 0.929 . S
S677 N678 1.613 . S
S677 N679 1.610 . S
N678 S677 1.613 . S
N678 C681 1.350 . S
N679 S677 1.610 . S
N679 C680 1.351 . S
C680 C674 1.428 1_556 S
C680 N679 1.351 . S
C680 C681 1.434 . S
C681 C672 1.429 . S
C681 N678 1.350 . S
C681 C680 1.434 . S
C682 C683 1.369 . S
C682 C684 1.419 . S
C682 H686 0.930 . S
C683 C682 1.369 . S
C683 C692 1.429 . S
C684 C682 1.419 . S
C684 C685 1.363 . S
C684 H687 0.929 . S
C685 C684 1.363 . S
C685 C691 1.428 . S
H686 C682 0.930 . S
H687 C684 0.929 . S
S688 N689 1.613 . S
S688 N690 1.610 . S
N689 S688 1.613 . S
N689 C692 1.350 . S
N690 S688 1.610 . S
N690 C691 1.351 . S
C691 C685 1.428 . S
C691 N690 1.351 . S
C691 C692 1.434 . S
C692 C683 1.429 . S
C692 N689 1.350 . S
C692 C691 1.434 . S
C693 C694 1.369 . S
C693 C695 1.419 . S
C693 H697 0.930 . S
C694 C693 1.369 . S
C694 C703 1.429 . S
C695 C693 1.419 . S
C695 C696 1.363 . S
C695 H698 0.929 . S
C696 C695 1.363 . S
C696 C702 1.428 . S
H697 C693 0.930 . S
H698 C695 0.929 . S
S699 N700 1.613 . S
S699 N701 1.610 . S
N700 S699 1.613 . S
N700 C703 1.350 . S
N701 S699 1.610 . S
N701 C702 1.351 . S
C702 C696 1.428 . S
C702 N701 1.351 . S
C702 C703 1.434 . S
C703 C694 1.429 . S
C703 N700 1.350 . S
C703 C702 1.434 . S
C704 C705 1.369 . S
C704 C706 1.415 1_545 S
C704 H708 0.930 . S
C705 C704 1.369 . S
C705 C714 1.432 1_545 S
C706 C704 1.415 1_565 S
C706 C707 1.367 . S
C706 H709 0.928 1_565 S
C707 C706 1.367 . S
C707 C713 1.428 . S
H708 C704 0.930 . S
H709 C706 0.928 1_545 S
S710 N711 1.613 . S
S710 N712 1.610 . S
N711 S710 1.613 . S
N711 C714 1.350 . S
N712 S710 1.610 . S
N712 C713 1.351 . S
C713 C707 1.428 . S
C713 N712 1.351 . S
C713 C714 1.431 . S
C714 C705 1.432 1_565 S
C714 N711 1.350 . S
C714 C713 1.431 . S
C715 C716 1.369 . S
C715 C717 1.419 . S
C715 H719 0.930 . S
C716 C715 1.369 . S
C716 C725 1.429 1_565 S
C717 C715 1.419 . S
C717 C718 1.363 1_565 S
C717 H720 0.929 . S
C718 C717 1.363 1_545 S
C718 C724 1.428 . S
H719 C715 0.930 . S
H720 C717 0.929 . S
S721 N722 1.613 . S
S721 N723 1.610 . S
N722 S721 1.613 . S
N722 C725 1.350 . S
N723 S721 1.610 . S
N723 C724 1.351 . S
C724 C718 1.428 . S
C724 N723 1.351 . S
C724 C725 1.434 . S
C725 C716 1.429 1_545 S
C725 N722 1.350 . S
C725 C724 1.434 . S
C726 C727 1.369 1_565 S
C726 C728 1.419 . S
C726 H730 0.930 . S
C727 C726 1.369 1_545 S
C727 C736 1.429 . S
C728 C726 1.419 . S
C728 C729 1.363 . S
C728 H731 0.929 . S
C729 C728 1.363 . S
C729 C735 1.428 1_565 S
H730 C726 0.930 . S
H731 C728 0.929 . S
S732 N733 1.613 . S
S732 N734 1.610 . S
N733 S732 1.613 . S
N733 C736 1.350 . S
N734 S732 1.610 . S
N734 C735 1.351 . S
C735 C729 1.428 1_545 S
C735 N734 1.351 . S
C735 C736 1.434 . S
C736 C727 1.429 . S
C736 N733 1.350 . S
C736 C735 1.434 . S
C737 C738 1.369 . S
C737 C739 1.419 . S
C737 H741 0.930 . S
C738 C737 1.369 . S
C738 C747 1.429 1_565 S
C739 C737 1.419 . S
C739 C740 1.363 1_565 S
C739 H742 0.929 . S
C740 C739 1.363 1_545 S
C740 C746 1.428 . S
H741 C737 0.930 . S
H742 C739 0.929 . S
S743 N744 1.613 . S
S743 N745 1.610 . S
N744 S743 1.613 . S
N744 C747 1.350 . S
N745 S743 1.610 . S
N745 C746 1.351 . S
C746 C740 1.428 . S
C746 N745 1.351 . S
C746 C747 1.434 . S
C747 C738 1.429 1_545 S
C747 N744 1.350 . S
C747 C746 1.434 . S
C748 C749 1.369 . S
C748 C750 1.419 . S
C748 H752 0.930 . S
C749 C748 1.369 . S
C749 C758 1.429 . S
C750 C748 1.419 . S
C750 C751 1.363 . S
C750 H753 0.929 . S
C751 C750 1.363 . S
C751 C757 1.428 . S
H752 C748 0.930 . S
H753 C750 0.929 . S
S754 N755 1.613 . S
S754 N756 1.610 . S
N755 S754 1.613 . S
N755 C758 1.350 . S
N756 S754 1.610 . S
N756 C757 1.351 . S
C757 C751 1.428 . S
C757 N756 1.351 . S
C757 C758 1.434 . S
C758 C749 1.429 . S
C758 N755 1.350 . S
C758 C757 1.434 . S
C759 C760 1.369 . S
C759 C761 1.419 . S
C759 H763 0.930 . S
C760 C759 1.369 . S
C760 C769 1.429 . S
C761 C759 1.419 . S
C761 C762 1.363 . S
C761 H764 0.929 . S
C762 C761 1.363 . S
C762 C768 1.428 . S
H763 C759 0.930 . S
H764 C761 0.929 . S
S765 N766 1.613 . S
S765 N767 1.610 . S
N766 S765 1.613 . S
N766 C769 1.350 . S
N767 S765 1.610 . S
N767 C768 1.351 . S
C768 C762 1.428 . S
C768 N767 1.351 . S
C768 C769 1.434 . S
C769 C760 1.429 . S
C769 N766 1.350 . S
C769 C768 1.434 . S
C770 C771 1.369 . S
C770 C772 1.419 . S
C770 H774 0.930 . S
C771 C770 1.369 . S
C771 C780 1.429 . S
C772 C770 1.419 . S
C772 C773 1.363 . S
C772 H775 0.929 . S
C773 C772 1.363 . S
C773 C779 1.428 . S
H774 C770 0.930 . S
H775 C772 0.929 . S
S776 N777 1.613 . S
S776 N778 1.610 . S
N777 S776 1.613 . S
N777 C780 1.350 . S
N778 S776 1.610 . S
N778 C779 1.351 . S
C779 C773 1.428 . S
C779 N778 1.351 . S
C779 C780 1.434 . S
C780 C771 1.429 . S
C780 N777 1.350 . S
C780 C779 1.434 . S
C781 C782 1.369 . S
C781 C783 1.419 . S
C781 H785 0.930 . S
C782 C781 1.369 . S
C782 C791 1.429 . S
C783 C781 1.419 . S
C783 C784 1.363 . S
C783 H786 0.929 . S
C784 C783 1.363 . S
C784 C790 1.428 . S
H785 C781 0.930 . S
H786 C783 0.929 . S
S787 N788 1.613 . S
S787 N789 1.610 . S
N788 S787 1.613 . S
N788 C791 1.350 . S
N789 S787 1.610 . S
N789 C790 1.351 . S
C790 C784 1.428 . S
C790 N789 1.351 . S
C790 C791 1.434 . S
C791 C782 1.429 . S
C791 N788 1.350 . S
C791 C790 1.434 . S
C792 C793 1.369 . S
C792 C794 1.419 . S
C792 H796 0.930 . S
C793 C792 1.369 . S
C793 C802 1.429 1_655 S
C794 C792 1.419 . S
C794 C795 1.363 1_655 S
C794 H797 0.929 . S
C795 C794 1.363 1_455 S
C795 C801 1.428 . S
H796 C792 0.930 . S
H797 C794 0.929 . S
S798 N799 1.613 . S
S798 N800 1.610 . S
N799 S798 1.613 . S
N799 C802 1.350 . S
N800 S798 1.610 . S
N800 C801 1.351 . S
C801 C795 1.428 . S
C801 N800 1.351 . S
C801 C802 1.434 . S
C802 C793 1.429 1_455 S
C802 N799 1.350 . S
C802 C801 1.434 . S
C803 C804 1.369 . S
C803 C805 1.419 . S
C803 H807 0.930 . S
C804 C803 1.369 . S
C804 C813 1.429 . S
C805 C803 1.419 . S
C805 C806 1.363 . S
C805 H808 0.929 . S
C806 C805 1.363 . S
C806 C812 1.428 . S
H807 C803 0.930 . S
H808 C805 0.929 . S
S809 N810 1.613 . S
S809 N811 1.610 . S
N810 S809 1.613 . S
N810 C813 1.350 . S
N811 S809 1.610 . S
N811 C812 1.351 . S
C812 C806 1.428 . S
C812 N811 1.351 . S
C812 C813 1.434 . S
C813 C804 1.429 . S
C813 N810 1.350 . S
C813 C812 1.434 . S
C814 C815 1.369 . S
C814 C816 1.419 . S
C814 H818 0.930 . S
C815 C814 1.369 . S
C815 C824 1.429 . S
C816 C814 1.419 . S
C816 C817 1.363 . S
C816 H819 0.929 . S
C817 C816 1.363 . S
C817 C823 1.428 . S
H818 C814 0.930 . S
H819 C816 0.929 . S
S820 N821 1.613 . S
S820 N822 1.610 . S
N821 S820 1.613 . S
N821 C824 1.350 . S
N822 S820 1.610 . S
N822 C823 1.351 . S
C823 C817 1.428 . S
C823 N822 1.351 . S
C823 C824 1.434 . S
C824 C815 1.429 . S
C824 N821 1.350 . S
C824 C823 1.434 . S
C825 C826 1.369 . S
C825 C827 1.423 . S
C825 H829 0.930 . S
C826 C825 1.369 . S
C826 C835 1.429 1_455 S
C827 C825 1.423 . S
C827 C828 1.358 1_455 S
C827 H830 0.930 . S
C828 C827 1.358 1_655 S
C828 C834 1.428 . S
H829 C825 0.930 . S
H830 C827 0.930 . S
S831 N832 1.613 . S
S831 N833 1.610 . S
N832 S831 1.613 . S
N832 C835 1.350 . S
N833 S831 1.610 . S
N833 C834 1.351 . S
C834 C828 1.428 . S
C834 N833 1.351 . S
C834 C835 1.434 . S
C835 C826 1.429 1_655 S
C835 N832 1.350 . S
C835 C834 1.434 . S
C836 C837 1.369 . S
C836 C838 1.419 1_655 S
C836 H840 0.930 . S
C837 C836 1.369 . S
C837 C846 1.429 . S
C838 C836 1.419 1_455 S
C838 C839 1.363 . S
C838 H841 0.929 . S
C839 C838 1.363 . S
C839 C845 1.428 . S
H840 C836 0.930 . S
H841 C838 0.929 . S
S842 N843 1.613 1_455 S
S842 N844 1.610 . S
N843 S842 1.613 1_655 S
N843 C846 1.350 . S
N844 S842 1.610 . S
N844 C845 1.351 . S
C845 C839 1.428 . S
C845 N844 1.351 . S
C845 C846 1.434 1_455 S
C846 C837 1.429 . S
C846 N843 1.350 . S
C846 C845 1.434 1_655 S
C847 C848 1.369 . S
C847 C849 1.419 . S
C847 H851 0.930 . S
C848 C847 1.369 . S
C848 C857 1.429 . S
C849 C847 1.419 . S
C849 C850 1.363 . S
C849 H852 0.929 . S
C850 C849 1.363 . S
C850 C856 1.428 . S
H851 C847 0.930 . S
H852 C849 0.929 . S
S853 N854 1.613 . S
S853 N855 1.610 . S
N854 S853 1.613 . S
N854 C857 1.350 . S
N855 S853 1.610 . S
N855 C856 1.351 . S
C856 C850 1.428 . S
C856 N855 1.351 . S
C856 C857 1.434 . S
C857 C848 1.429 . S
C857 N854 1.350 . S
C857 C856 1.434 . S
C858 C859 1.369 . S
C858 C860 1.419 . S
C858 H862 0.930 . S
C859 C858 1.369 . S
C859 C868 1.429 . S
C860 C858 1.419 . S
C860 C861 1.363 . S
C860 H863 0.929 . S
C861 C860 1.363 . S
C861 C867 1.428 . S
H862 C858 0.930 . S
H863 C860 0.929 . S
S864 N865 1.613 . S
S864 N866 1.610 . S
N865 S864 1.613 . S
N865 C868 1.350 . S
N866 S864 1.610 . S
N866 C867 1.351 . S
C867 C861 1.428 . S
C867 N866 1.351 . S
C867 C868 1.434 . S
C868 C859 1.429 . S
C868 N865 1.350 . S
C868 C867 1.434 . S
C869 C870 1.369 . S
C869 C871 1.419 . S
C869 H873 0.930 . S
C870 C869 1.369 . S
C870 C879 1.429 1_655 S
C871 C869 1.419 . S
C871 C872 1.363 1_655 S
C871 H874 0.929 . S
C872 C871 1.363 1_455 S
C872 C878 1.428 . S
H873 C869 0.930 . S
H874 C871 0.929 . S
S875 N876 1.613 . S
S875 N877 1.610 . S
N876 S875 1.613 . S
N876 C879 1.350 . S
N877 S875 1.610 . S
N877 C878 1.351 . S
C878 C872 1.428 . S
C878 N877 1.351 . S
C878 C879 1.434 . S
C879 C870 1.429 1_455 S
C879 N876 1.350 . S
C879 C878 1.434 . S
C880 C881 1.369 1_655 S
C880 C882 1.419 . S
C880 H884 0.930 . S
C881 C880 1.369 1_455 S
C881 C890 1.429 . S
C882 C880 1.419 . S
C882 C883 1.363 . S
C882 H885 0.929 . S
C883 C882 1.363 . S
C883 C889 1.428 1_655 S
H884 C880 0.930 . S
H885 C882 0.929 . S
S886 N887 1.613 . S
S886 N888 1.610 . S
N887 S886 1.613 . S
N887 C890 1.350 . S
N888 S886 1.610 . S
N888 C889 1.351 . S
C889 C883 1.428 1_455 S
C889 N888 1.351 . S
C889 C890 1.434 . S
C890 C881 1.429 . S
C890 N887 1.350 . S
C890 C889 1.434 . S
C891 C892 1.369 . S
C891 C893 1.419 . S
C891 H895 0.930 . S
C892 C891 1.369 . S
C892 C901 1.429 . S
C893 C891 1.419 . S
C893 C894 1.363 . S
C893 H896 0.929 . S
C894 C893 1.363 . S
C894 C900 1.428 . S
H895 C891 0.930 . S
H896 C893 0.929 . S
S897 N898 1.613 . S
S897 N899 1.610 . S
N898 S897 1.613 . S
N898 C901 1.350 . S
N899 S897 1.610 . S
N899 C900 1.351 . S
C900 C894 1.428 . S
C900 N899 1.351 . S
C900 C901 1.434 . S
C901 C892 1.429 . S
C901 N898 1.350 . S
C901 C900 1.434 . S
C902 C903 1.369 . S
C902 C904 1.419 . S
C902 H906 0.930 . S
C903 C902 1.369 . S
C903 C912 1.429 1_655 S
C904 C902 1.419 . S
C904 C905 1.363 1_655 S
C904 H907 0.929 . S
C905 C904 1.363 1_455 S
C905 C911 1.428 . S
H906 C902 0.930 . S
H907 C904 0.929 . S
S908 N909 1.613 . S
S908 N910 1.610 . S
N909 S908 1.613 . S
N909 C912 1.350 . S
N910 S908 1.610 . S
N910 C911 1.351 . S
C911 C905 1.428 . S
C911 N910 1.351 . S
C911 C912 1.434 . S
C912 C903 1.429 1_455 S
C912 N909 1.350 . S
C912 C911 1.434 . S
C913 C914 1.369 . S
C913 C915 1.419 . S
C913 H917 0.930 . S
C914 C913 1.369 . S
C914 C923 1.429 . S
C915 C913 1.419 . S
C915 C916 1.363 . S
C915 H918 0.929 . S
C916 C915 1.363 . S
C916 C922 1.428 . S
H917 C913 0.930 . S
H918 C915 0.929 . S
S919 N920 1.613 . S
S919 N921 1.610 . S
N920 S919 1.613 . S
N920 C923 1.350 . S
N921 S919 1.610 . S
N921 C922 1.351 . S
C922 C916 1.428 . S
C922 N921 1.351 . S
C922 C923 1.434 . S
C923 C914 1.429 . S
C923 N920 1.350 . S
C923 C922 1.434 . S
C924 C925 1.369 . S
C924 C926 1.419 . S
C924 H928 0.930 . S
C925 C924 1.369 . S
C925 C934 1.429 . S
C926 C924 1.419 . S
C926 C927 1.363 . S
C926 H929 0.929 . S
C927 C926 1.363 . S
C927 C933 1.428 . S
H928 C924 0.930 . S
H929 C926 0.929 . S
S930 N931 1.613 . S
S930 N932 1.610 . S
N931 S930 1.613 . S
N931 C934 1.350 . S
N932 S930 1.610 . S
N932 C933 1.351 . S
C933 C927 1.428 . S
C933 N932 1.351 . S
C933 C934 1.434 . S
C934 C925 1.429 . S
C934 N931 1.350 . S
C934 C933 1.434 . S
C935 C936 1.369 . S
C935 C937 1.419 . S
C935 H939 0.930 . S
C936 C935 1.369 . S
C936 C945 1.429 1_455 S
C937 C935 1.419 . S
C937 C938 1.363 1_455 S
C937 H940 0.929 . S
C938 C937 1.363 1_655 S
C938 C944 1.428 . S
H939 C935 0.930 . S
H940 C937 0.929 . S
S941 N942 1.613 . S
S941 N943 1.610 . S
N942 S941 1.613 . S
N942 C945 1.350 . S
N943 S941 1.610 . S
N943 C944 1.351 . S
C944 C938 1.428 . S
C944 N943 1.351 . S
C944 C945 1.434 . S
C945 C936 1.429 1_655 S
C945 N942 1.350 . S
C945 C944 1.434 . S
C946 C947 1.369 . S
C946 C948 1.419 . S
C946 H950 0.930 . S
C947 C946 1.369 . S
C947 C956 1.429 . S
C948 C946 1.419 . S
C948 C949 1.363 . S
C948 H951 0.929 . S
C949 C948 1.363 . S
C949 C955 1.428 . S
H950 C946 0.930 . S
H951 C948 0.929 . S
S952 N953 1.613 . S
S952 N954 1.610 . S
N953 S952 1.613 . S
N953 C956 1.350 . S
N954 S952 1.610 . S
N954 C955 1.351 . S
C955 C949 1.428 . S
C955 N954 1.351 . S
C955 C956 1.434 . S
C956 C947 1.429 . S
C956 N953 1.350 . S
C956 C955 1.434 . S
C957 C958 1.369 1_655 S
C957 C959 1.419 . S
C957 H961 0.930 . S
C958 C957 1.369 1_455 S
C958 C967 1.429 . S
C959 C957 1.419 . S
C959 C960 1.363 . S
C959 H962 0.929 . S
C960 C959 1.363 . S
C960 C966 1.428 1_655 S
H961 C957 0.930 . S
H962 C959 0.929 . S
S963 N964 1.613 . S
S963 N965 1.610 . S
N964 S963 1.613 . S
N964 C967 1.350 . S
N965 S963 1.610 . S
N965 C966 1.351 . S
C966 C960 1.428 1_455 S
C966 N965 1.351 . S
C966 C967 1.434 . S
C967 C958 1.429 . S
C967 N964 1.350 . S
C967 C966 1.434 . S
C529 C186 1.216 . S
C531 C18 1.218 . S
C540 C153 1.220 . S
C542 C51 1.214 . S
C551 C84 1.219 . S
C553 C252 1.218 . S
C562 C117 1.211 . S
C564 C219 1.222 . S
C573 C150 1.216 . S
C575 C54 1.220 . S
C584 C183 1.213 . S
C586 C21 1.222 . S
C595 C120 1.225 . S
C597 C216 1.211 . S
C606 C249 1.210 . S
C608 C87 1.224 . S
C617 C282 1.212 . S
C619 C450 1.224 . S
C628 C315 1.210 . S
C630 C417 1.224 . S
C639 C348 1.220 . S
C641 C516 1.216 . S
C650 C381 1.210 . S
C652 C483 1.224 . S
C661 C414 1.217 . S
C663 C318 1.218 . S
C672 C447 1.211 . S
C674 C285 1.224 . S
C683 C384 1.219 . S
C685 C480 1.217 . S
C694 C351 1.215 . S
C696 C513 1.219 . S
C705 N13 1.702 . S
C707 N46 1.702 . S
C716 N79 1.705 . S
C718 N112 1.702 . S
C727 N178 1.702 . S
C729 N145 1.703 . S
C738 N244 1.708 . S
C740 N211 1.704 . S
C749 N310 1.706 . S
C751 N277 1.707 . S
C760 N376 1.707 . S
C762 N343 1.703 . S
C771 N409 1.706 . S
C773 N442 1.707 . S
C782 N475 1.707 . S
C784 N508 1.707 . S
C793 N299 1.528 . S
C795 N2 1.526 . S
C804 N35 1.530 . S
C806 N266 1.527 . S
C815 N68 1.529 . S
C817 N365 1.526 . S
C826 N332 1.533 . S
C828 N101 1.530 . S
C837 N134 1.531 . S
C839 N431 1.532 . S
C848 N167 1.532 . S
C850 N398 1.527 . S
C859 N200 1.532 . S
C861 N497 1.531 . S
C870 N464 1.533 . S
C872 N233 1.530 . S
C881 C7 1.479 . S
C883 C106 1.477 . S
C892 C40 1.480 . S
C894 C73 1.475 . S
C903 C139 1.474 . S
C905 C238 1.479 . S
C914 C172 1.476 . S
C916 C205 1.479 . S
C925 C370 1.479 . S
C927 C271 1.477 . S
C936 C337 1.475 . S
C938 C304 1.479 . S
C947 C403 1.476 . S
C949 C502 1.477 . S
C958 C436 1.481 . S
C960 C469 1.476 . S
