# Generated by pormake.
# Topology rob, (6)-cn, num edge types: 1
# Building blocks:
#     Node 0, Type 0, BuildingBlock: BETFEN_clean_sbu_0, # of connection points: 6
#     Node 1, Type 0, BuildingBlock: BETFEN_clean_sbu_0, # of connection points: 6
#     Node 2, Type 0, BuildingBlock: BETFEN_clean_sbu_0, # of connection points: 6
#     Node 3, Type 0, BuildingBlock: BETFEN_clean_sbu_0, # of connection points: 6
#     Edge 4, Type (0, 0), BuildingBlock: OJICUG_clean_linker_0, # of connection points: 2
#     Edge 5, Type (0, 0), BuildingBlock: OJICUG_clean_linker_0, # of connection points: 2
#     Edge 6, Type (0, 0), BuildingBlock: OJICUG_clean_linker_0, # of connection points: 2
#     Edge 7, Type (0, 0), BuildingBlock: OJICUG_clean_linker_0, # of connection points: 2
#     Edge 8, Type (0, 0), BuildingBlock: OJICUG_clean_linker_0, # of connection points: 2
#     Edge 9, Type (0, 0), BuildingBlock: OJICUG_clean_linker_0, # of connection points: 2
#     Edge 10, Type (0, 0), BuildingBlock: OJICUG_clean_linker_0, # of connection points: 2
#     Edge 11, Type (0, 0), BuildingBlock: OJICUG_clean_linker_0, # of connection points: 2
#     Edge 12, Type (0, 0), BuildingBlock: OJICUG_clean_linker_0, # of connection points: 2
#     Edge 13, Type (0, 0), BuildingBlock: OJICUG_clean_linker_0, # of connection points: 2
#     Edge 14, Type (0, 0), BuildingBlock: OJICUG_clean_linker_0, # of connection points: 2
#     Edge 15, Type (0, 0), BuildingBlock: OJICUG_clean_linker_0, # of connection points: 2
# Relax obj value: 0.054
# Max RMSD: 0.179
# Mean RMSD: 0.179
data_MOF--net-rob--node1-BETFEN_clean_sbu_0--edge1-OJICUG_clean_linker_0
_symmetry_space_group_name_H-M    P1
_symmetry_Int_Tables_number       1
_symmetry_cell_setting            triclinic
loop_
_symmetry_equiv_pos_as_xyz
'x, y, z'
_cell_length_a     12.180554
_cell_length_b     17.141291
_cell_length_c     29.238569
_cell_angle_alpha  97.743131
_cell_angle_beta   90.056595
_cell_angle_gamma 89.944486
loop_
_atom_site_label
_atom_site_type_symbol
_atom_site_fract_x
_atom_site_fract_y
_atom_site_fract_z
_atom_type_partial_charge
Pr0 Pr 0.13949 0.32887 0.05535 0.0
Pr1 Pr 0.33687 0.24173 1.01198 0.0
C2 C 0.9738 0.37964 0.1127 0.0
C3 C 0.95044 0.37061 0.16142 0.0
C4 C 0.93519 0.43755 0.19429 0.0
C5 C 0.9202 0.4299 0.24102 0.0
C6 C 0.91903 0.35505 0.25564 0.0
C7 C 0.93463 0.28824 0.2227 0.0
C8 C 0.9507 0.29589 0.1762 0.0
C9 C 0.31451 0.42642 0.03982 0.0
C10 C 0.3164 0.2432 0.12137 0.0
C11 C 0.50618 0.19304 0.95586 0.0
C12 C 0.52823 0.19811 0.90666 0.0
C13 C 0.58089 0.1359 0.87904 0.0
C14 C 0.59622 0.13857 0.83176 0.0
C15 C 0.55797 0.2032 0.81117 0.0
C16 C 0.50471 0.26515 0.83897 0.0
C17 C 0.49054 0.26278 0.88622 0.0
C18 C 0.16189 0.14396 1.02733 0.0
C19 C 0.15555 0.32443 0.9458 0.0
O20 O 0.96672 0.3165 0.08215 0.0
O21 O 0.05864 0.42324 0.10607 0.0
O22 O 0.32354 0.36206 0.05619 0.0
O23 O 0.21281 0.44289 1.03171 0.0
O24 O 0.39122 0.24105 0.08859 0.0
O25 O 0.21379 0.26271 0.11377 0.0
O26 O 0.50723 0.25927 0.984 0.0
O27 O 0.42504 0.14709 0.96393 0.0
O28 O 0.15295 0.20838 1.01105 0.0
O29 O 0.26374 0.12702 0.03492 0.0
O30 O 0.0821 0.32841 0.97916 0.0
O31 O 0.25831 0.30437 0.95279 0.0
H32 H 0.93574 0.49586 0.18385 0.0
H33 H 0.90764 0.48233 0.26557 0.0
H34 H 0.93538 0.22986 0.23302 0.0
H35 H 0.96437 0.24319 0.15196 0.0
H36 H 0.60943 0.08498 0.89395 0.0
H37 H 0.63689 0.08967 0.8112 0.0
H38 H 0.47571 0.31622 0.82435 0.0
H39 H 0.44992 0.31155 0.90681 0.0
Pr40 Pr 0.63278 0.82513 0.0557 0.0
Pr41 Pr 0.84239 0.74804 1.0149 0.0
C42 C 0.45673 0.86406 0.10993 0.0
C43 C 0.43475 0.86105 0.15944 0.0
C44 C 0.37963 0.92333 0.18599 0.0
C45 C 0.36395 0.92276 0.23345 0.0
C46 C 0.40411 0.86017 0.2554 0.0
C47 C 0.45958 0.79803 0.22863 0.0
C48 C 0.47427 0.79834 0.1812 0.0
C49 C 0.80333 0.92999 0.04651 0.0
C50 C 0.81559 0.74793 0.12373 0.0
C51 C 0.01964 0.71302 0.96105 0.0
C52 C 0.03847 0.7101 0.9109 0.0
C53 C 0.95619 0.68361 0.87874 0.0
C54 C 0.97274 0.6852 0.83146 0.0
C55 C 0.07155 0.71406 0.81529 0.0
C56 C 0.15332 0.74099 0.84783 0.0
C57 C 0.13701 0.73877 0.89501 0.0
C58 C 0.6718 0.64283 1.0236 0.0
C59 C 0.65925 0.82368 0.94614 0.0
O60 O 0.46592 0.79654 0.08331 0.0
O61 O 0.5302 0.91534 0.10097 0.0
O62 O 0.81386 0.86449 0.06137 0.0
O63 O 0.70168 0.94431 0.03691 0.0
O64 O 0.89226 0.75026 0.09209 0.0
O65 O 0.71164 0.76219 0.11484 0.0
O66 O 0.00245 0.78304 0.98374 0.0
O67 O 0.95487 0.6593 0.97406 0.0
O68 O 0.66126 0.70858 1.00902 0.0
O69 O 0.7737 0.62804 1.03259 0.0
O70 O 0.58306 0.82539 0.97839 0.0
O71 O 0.76226 0.80628 0.95461 0.0
H72 H 0.34944 0.97274 0.17008 0.0
H73 H 0.32152 0.9718 0.25307 0.0
H74 H 0.49009 0.74836 0.24419 0.0
H75 H 0.51678 0.74949 0.16152 0.0
H76 H 0.87858 0.66224 0.89017 0.0
H77 H 0.90825 0.66335 0.80763 0.0
H78 H 0.22948 0.76541 0.83705 0.0
H79 H 0.20085 0.7607 0.91921 0.0
Pr80 Pr 0.13027 0.74788 0.51421 0.0
Pr81 Pr 0.33886 0.82532 0.55517 0.0
C82 C 0.95417 0.70873 0.4601 0.0
C83 C 0.93293 0.71169 0.41056 0.0
C84 C 0.87902 0.64913 0.38377 0.0
C85 C 0.86442 0.6496 0.33625 0.0
C86 C 0.90465 0.7123 0.3145 0.0
C87 C 0.9589 0.77472 0.3415 0.0
C88 C 0.9724 0.77455 0.38898 0.0
C89 C 0.30124 0.64314 0.52335 0.0
C90 C 0.31242 0.82525 0.44618 0.0
C91 C 0.51588 0.86142 0.60911 0.0
C92 C 0.53604 0.86389 0.65921 0.0
C93 C 0.45793 0.89564 0.69199 0.0
C94 C 0.47556 0.89357 0.73919 0.0
C95 C 0.57121 0.85905 0.75465 0.0
C96 C 0.64878 0.827 0.72153 0.0
C97 C 0.6315 0.82969 0.67445 0.0
C98 C 0.16695 0.92989 0.54658 0.0
C99 C 0.15702 0.74882 0.62368 0.0
O100 O 0.96319 0.77633 0.48664 0.0
O101 O 0.02754 0.6574 0.46927 0.0
O102 O 0.3116 0.70872 0.50856 0.0
O103 O 0.19969 0.62881 0.53296 0.0
O104 O 0.38889 0.82338 0.47802 0.0
O105 O 0.20855 0.81067 0.45492 0.0
O106 O 0.50007 0.79148 0.58609 0.0
O107 O 0.44976 0.91472 0.59639 0.0
O108 O 0.15743 0.86413 0.56114 0.0
O109 O 0.26854 0.94504 0.5374 0.0
O110 O 0.08068 0.74776 0.59149 0.0
O111 O 0.26007 0.76588 0.61524 0.0
H112 H 0.84897 0.59959 0.39955 0.0
H113 H 0.82268 0.60045 0.31644 0.0
H114 H -0.01068 0.82449 0.32607 0.0
H115 H 0.01402 0.82362 0.40885 0.0
H116 H 0.38269 0.92152 0.68116 0.0
H117 H 0.41448 0.91947 0.76352 0.0
H118 H 0.72227 0.7983 0.7318 0.0
H119 H 0.69208 0.80378 0.64982 0.0
Pr120 Pr 0.63172 0.24105 0.51263 0.0
Pr121 Pr 0.83284 0.32827 0.55562 0.0
C122 C 0.46025 0.19823 0.45641 0.0
C123 C 0.44203 0.19912 0.40644 0.0
C124 C 0.37792 0.1407 0.38091 0.0
C125 C 0.36242 0.14075 0.33337 0.0
C126 C 0.412 0.19871 0.31037 0.0
C127 C 0.47737 0.25642 0.33602 0.0
C128 C 0.4916 0.25691 0.38352 0.0
C129 C 0.80596 0.14286 0.52824 0.0
C130 C 0.819 0.31601 0.44496 0.0
C131 C 0.00137 0.37701 0.61227 0.0
C132 C 0.02448 0.37176 0.6614 0.0
C133 C 0.07982 0.43312 0.6886 0.0
C134 C 0.09664 0.43037 0.73579 0.0
C135 C 0.05722 0.36656 0.75676 0.0
C136 C 0.00123 0.30547 0.72938 0.0
C137 C 0.98562 0.30787 0.68218 0.0
C138 C 0.65822 0.42574 0.53911 0.0
C139 C 0.65131 0.2464 0.62208 0.0
O140 O 0.46714 0.26692 0.48194 0.0
O141 O 0.5333 0.14801 0.46741 0.0
O142 O 0.81521 0.20745 0.51216 0.0
O143 O 0.70385 0.12554 0.53519 0.0
O144 O 0.8897 0.32882 0.4794 0.0
O145 O 0.71792 0.29201 0.45128 0.0
O146 O 0.00319 0.31101 0.58391 0.0
O147 O 0.91931 0.42254 0.60449 0.0
O148 O 0.64938 0.36198 0.55607 0.0
O149 O 0.76007 0.4422 0.53135 0.0
O150 O 0.57676 0.24336 0.58914 0.0
O151 O 0.75422 0.26543 0.61467 0.0
H152 H 0.33963 0.09515 0.39776 0.0
H153 H 0.31193 0.09528 0.31456 0.0
H154 H 0.51538 0.30254 0.31959 0.0
H155 H 0.54103 0.30293 0.40233 0.0
H156 H 0.10939 0.48342 0.67341 0.0
H157 H 0.13943 0.47863 0.75601 0.0
H158 H 0.97123 0.25502 0.74428 0.0
H159 H 0.94307 0.25975 0.66187 0.0
C160 C 0.4733 0.60589 1.01502 0.0
C161 C 0.58067 0.58709 1.02726 0.0
H162 H 0.3051 0.56949 1.00925 0.0
C163 C 0.60027 0.51456 0.04325 0.0
H164 H 0.45579 0.66132 1.00256 0.0
C165 C 0.514 0.46192 0.04709 0.0
C166 C 0.40654 0.48094 0.03507 0.0
H167 H 0.68227 0.49852 0.05295 0.0
H168 H 0.53136 0.40656 0.05966 0.0
C169 C 0.38711 0.55329 1.01885 0.0
C170 C 0.3729 0.51495 0.54319 0.0
C171 C 0.39234 0.58719 0.52687 0.0
H172 H 0.44182 0.40697 0.55975 0.0
C173 C 0.49946 0.60542 0.51414 0.0
H174 H 0.2911 0.49935 0.55328 0.0
C175 C 0.58557 0.55254 0.51781 0.0
C176 C 0.56628 0.48048 0.53436 0.0
H177 H 0.51683 0.66063 0.50142 0.0
H178 H 0.66741 0.56831 0.50786 0.0
C179 C 0.45906 0.46205 0.54688 0.0
C180 C 0.08872 1.01817 0.04957 0.0
C181 C 0.06955 0.09007 1.03279 0.0
H182 H 0.01951 0.91113 0.06707 0.0
C183 C 0.96199 0.10936 1.02105 0.0
H184 H 0.17078 1.00183 0.05902 0.0
C185 C 0.87538 0.05733 1.02564 0.0
C186 C 0.89473 0.98521 0.04216 0.0
H187 H 0.94483 0.16442 1.00811 0.0
H188 H 0.79332 0.07351 1.01611 0.0
C189 C 0.00218 0.96623 0.0542 0.0
C190 C 0.00604 0.10903 0.52209 0.0
C191 C 0.89868 0.08908 0.53362 0.0
H192 H 0.17509 0.07405 0.51706 0.0
C193 C 0.88034 1.01672 0.54993 0.0
H194 H 0.02261 0.16442 0.50946 0.0
C195 C 0.96756 0.96504 0.55432 0.0
C196 C 0.0748 0.98476 0.54252 0.0
H197 H 0.79845 0.99984 0.55917 0.0
H198 H 0.95093 0.90955 0.56684 0.0
C199 C 0.09325 0.05731 0.52645 0.0
C200 C 0.47569 0.21875 0.23056 0.0
C201 C 0.39069 0.20222 0.26048 0.0
H202 H 0.51962 0.2434 0.16277 0.0
C203 C 0.28324 0.1939 0.24309 0.0
H204 H 0.55957 0.22485 0.24287 0.0
C205 C 0.26045 0.20505 0.19757 0.0
C206 C 0.34465 0.22396 0.168 0.0
H207 H 0.21576 0.18188 0.26521 0.0
H208 H 0.17604 0.20021 0.18584 0.0
C209 C 0.45302 0.22892 0.18465 0.0
C210 C 0.28133 0.87776 0.32501 0.0
C211 C 0.38472 0.85786 0.30558 0.0
H212 H 0.17853 0.88423 0.38459 0.0
C213 C 0.46736 0.83251 0.334 0.0
H214 H 0.21562 0.89703 0.30419 0.0
C215 C 0.44589 0.82504 0.38037 0.0
C216 C 0.34094 0.84178 0.39907 0.0
H217 H 0.54837 0.81762 0.32023 0.0
H218 H 0.51019 0.8035 0.40103 0.0
C219 C 0.25972 0.86961 0.37107 0.0
C220 C 0.71808 0.85562 0.86905 0.0
C221 C 0.63243 0.83962 0.89868 0.0
H222 H 0.76593 0.8765 0.80159 0.0
C223 C 0.52464 0.83452 0.88136 0.0
H224 H 0.80214 0.8609 0.88124 0.0
C225 C 0.50394 0.84221 0.83487 0.0
C226 C 0.59055 0.85578 0.80489 0.0
H227 H 0.45693 0.82192 0.9032 0.0
H228 H 0.42059 0.83493 0.82213 0.0
C229 C 0.69743 0.86401 0.82304 0.0
C230 C 0.70385 0.20024 0.6965 0.0
C231 C 0.62234 0.2282 0.66871 0.0
H232 H 0.74749 0.17042 0.7629 0.0
C233 C 0.51681 0.24319 0.68716 0.0
H234 H 0.78553 0.18702 0.68309 0.0
C235 C 0.49494 0.23376 0.73322 0.0
C236 C 0.57773 0.20792 0.76137 0.0
H237 H 0.45244 0.26487 0.66659 0.0
H238 H 0.41359 0.24743 0.74698 0.0
C239 C 0.68178 0.18993 0.74216 0.0
C240 C 0.94839 0.74788 0.18983 0.0
C241 C 0.84377 0.73103 0.17078 0.0
H242 H 0.04993 0.75522 0.25032 0.0
C243 C 0.76233 0.70279 0.1984 0.0
H244 H 0.01283 0.76972 0.16944 0.0
C245 C 0.78327 0.6945 0.24448 0.0
C246 C 0.88624 0.71456 0.26428 0.0
H247 H 0.68142 0.68803 0.18459 0.0
H248 H 0.71732 0.67505 0.26504 0.0
C249 C 0.96922 0.74019 0.23623 0.0
C250 C 0.92955 0.38068 0.3873 0.0
C251 C 0.85054 0.32559 0.3971 0.0
H252 H 0.01219 0.43441 0.33449 0.0
C253 C 0.79598 0.28044 0.36023 0.0
H254 H 0.97222 0.41664 0.41504 0.0
C255 C 0.81899 0.29009 0.31466 0.0
C256 C 0.89667 0.34567 0.30458 0.0
H257 H 0.73514 0.2371 0.36653 0.0
H258 H 0.77446 0.25472 0.28722 0.0
C259 C 0.95164 0.39122 0.34134 0.0
C260 C -0.00401 0.33783 0.83531 0.0
C261 C 0.07854 0.36183 0.80648 0.0
H262 H 0.95473 0.30858 0.90246 0.0
C263 C 0.1837 0.37823 0.82501 0.0
H264 H 0.91383 0.32538 0.8221 0.0
C265 C 0.20693 0.36829 0.87065 0.0
C266 C 0.12553 0.34232 0.89916 0.0
H267 H 0.24929 0.39627 0.80374 0.0
H268 H 0.28941 0.38024 0.88349 0.0
C269 C 0.01904 0.3288 0.88136 0.0
C270 C 0.02363 0.74265 0.68923 0.0
C271 C 0.13019 0.73256 0.67102 0.0
H272 H 0.92163 0.74677 0.74926 0.0
C273 C 0.21503 0.71172 0.69973 0.0
H274 H 0.95667 0.75915 0.66808 0.0
C275 C 0.19498 0.70349 0.74581 0.0
C276 C 0.0897 0.71693 0.76493 0.0
H277 H 0.29797 0.70254 0.68674 0.0
H278 H 0.26277 0.6871 0.76654 0.0
C279 C 0.00368 0.73533 0.73579 0.0
loop_
_geom_bond_atom_site_label_1
_geom_bond_atom_site_label_2
_geom_bond_distance
_geom_bond_site_symmetry_2
_ccdc_geom_bond_type
Pr0 C2 2.880 . S
Pr0 O20 2.562 . S
Pr0 O21 2.490 . S
Pr0 O22 2.695 1_554 S
Pr0 O23 2.512 . S
Pr0 O25 2.437 . S
Pr0 O28 2.436 . S
Pr0 O30 2.438 1_554 S
Pr1 C11 2.880 . S
Pr1 O22 2.436 . S
Pr1 O24 2.438 1_556 S
Pr1 O26 2.562 . S
Pr1 O27 2.490 . S
Pr1 O28 2.695 1_556 S
Pr1 O29 2.512 . S
Pr1 O31 2.437 . S
C2 Pr0 2.880 . S
C2 C3 1.491 . S
C2 O20 1.254 . S
C2 O21 1.225 . S
C3 C2 1.491 . S
C3 C4 1.392 1_455 S
C3 C8 1.356 1_455 S
C4 C3 1.392 1_655 S
C4 C5 1.368 . S
C4 H32 0.929 1_655 S
C5 C4 1.368 . S
C5 C6 1.386 . S
C5 H33 0.929 . S
C6 C5 1.386 . S
C6 C7 1.373 . S
C7 C6 1.373 . S
C7 C8 1.409 . S
C7 H34 0.931 . S
C8 C3 1.356 1_655 S
C8 C7 1.409 . S
C8 H35 0.930 1_655 S
C9 O22 1.270 1_554 S
C9 O23 1.248 . S
C10 O24 1.267 . S
C10 O25 1.278 . S
C11 Pr1 2.880 . S
C11 C12 1.491 . S
C11 O26 1.254 . S
C11 O27 1.225 . S
C12 C11 1.491 . S
C12 C13 1.392 . S
C12 C17 1.356 . S
C13 C12 1.392 . S
C13 C14 1.368 . S
C13 H36 0.929 . S
C14 C13 1.368 . S
C14 C15 1.386 . S
C14 H37 0.929 . S
C15 C14 1.386 . S
C15 C16 1.373 . S
C16 C15 1.373 . S
C16 C17 1.409 . S
C16 H38 0.931 . S
C17 C12 1.356 . S
C17 C16 1.409 . S
C17 H39 0.930 . S
C18 O28 1.270 1_556 S
C18 O29 1.248 . S
C19 O30 1.267 . S
C19 O31 1.278 . S
O20 Pr0 2.562 . S
O20 C2 1.254 . S
O21 Pr0 2.490 . S
O21 C2 1.225 . S
O22 Pr0 2.695 1_556 S
O22 Pr1 2.436 . S
O22 C9 1.270 1_556 S
O23 Pr0 2.512 . S
O23 C9 1.248 . S
O24 Pr1 2.438 1_554 S
O24 C10 1.267 . S
O25 Pr0 2.437 . S
O25 C10 1.278 . S
O26 Pr1 2.562 . S
O26 C11 1.254 . S
O27 Pr1 2.490 . S
O27 C11 1.225 . S
O28 Pr0 2.436 . S
O28 Pr1 2.695 1_554 S
O28 C18 1.270 1_554 S
O29 Pr1 2.512 . S
O29 C18 1.248 . S
O30 Pr0 2.438 1_556 S
O30 C19 1.267 . S
O31 Pr1 2.437 . S
O31 C19 1.278 . S
H32 C4 0.929 1_455 S
H33 C5 0.929 . S
H34 C7 0.931 . S
H35 C8 0.930 1_455 S
H36 C13 0.929 . S
H37 C14 0.929 . S
H38 C16 0.931 . S
H39 C17 0.930 . S
Pr40 C42 2.880 . S
Pr40 O60 2.562 . S
Pr40 O61 2.490 . S
Pr40 O62 2.695 1_554 S
Pr40 O63 2.512 . S
Pr40 O65 2.437 . S
Pr40 O68 2.436 . S
Pr40 O70 2.438 1_554 S
Pr41 C51 2.880 . S
Pr41 O62 2.436 . S
Pr41 O64 2.438 1_556 S
Pr41 O66 2.562 . S
Pr41 O67 2.490 . S
Pr41 O68 2.695 1_556 S
Pr41 O69 2.512 . S
Pr41 O71 2.437 . S
C42 Pr40 2.880 . S
C42 C43 1.491 . S
C42 O60 1.254 . S
C42 O61 1.225 . S
C43 C42 1.491 . S
C43 C44 1.392 . S
C43 C48 1.356 . S
C44 C43 1.392 . S
C44 C45 1.368 . S
C44 H72 0.929 . S
C45 C44 1.368 . S
C45 C46 1.386 . S
C45 H73 0.929 . S
C46 C45 1.386 . S
C46 C47 1.373 . S
C47 C46 1.373 . S
C47 C48 1.409 . S
C47 H74 0.931 . S
C48 C43 1.356 . S
C48 C47 1.409 . S
C48 H75 0.930 . S
C49 O62 1.270 1_554 S
C49 O63 1.248 . S
C50 O64 1.267 . S
C50 O65 1.278 . S
C51 Pr41 2.880 . S
C51 C52 1.491 . S
C51 O66 1.254 . S
C51 O67 1.225 . S
C52 C51 1.491 . S
C52 C53 1.392 1_655 S
C52 C57 1.356 1_655 S
C53 C52 1.392 1_455 S
C53 C54 1.368 . S
C53 H76 0.929 1_455 S
C54 C53 1.368 . S
C54 C55 1.386 . S
C54 H77 0.929 . S
C55 C54 1.386 . S
C55 C56 1.373 . S
C56 C55 1.373 . S
C56 C57 1.409 . S
C56 H78 0.931 . S
C57 C52 1.356 1_455 S
C57 C56 1.409 . S
C57 H79 0.930 1_455 S
C58 O68 1.270 1_556 S
C58 O69 1.248 . S
C59 O70 1.267 . S
C59 O71 1.278 . S
O60 Pr40 2.562 . S
O60 C42 1.254 . S
O61 Pr40 2.490 . S
O61 C42 1.225 . S
O62 Pr40 2.695 1_556 S
O62 Pr41 2.436 . S
O62 C49 1.270 1_556 S
O63 Pr40 2.512 . S
O63 C49 1.248 . S
O64 Pr41 2.438 1_554 S
O64 C50 1.267 . S
O65 Pr40 2.437 . S
O65 C50 1.278 . S
O66 Pr41 2.562 . S
O66 C51 1.254 . S
O67 Pr41 2.490 . S
O67 C51 1.225 . S
O68 Pr40 2.436 . S
O68 Pr41 2.695 1_554 S
O68 C58 1.270 1_554 S
O69 Pr41 2.512 . S
O69 C58 1.248 . S
O70 Pr40 2.438 1_556 S
O70 C59 1.267 . S
O71 Pr41 2.437 . S
O71 C59 1.278 . S
H72 C44 0.929 . S
H73 C45 0.929 . S
H74 C47 0.931 . S
H75 C48 0.930 . S
H76 C53 0.929 1_655 S
H77 C54 0.929 . S
H78 C56 0.931 . S
H79 C57 0.930 1_655 S
Pr80 C82 2.880 . S
Pr80 O100 2.562 . S
Pr80 O101 2.490 . S
Pr80 O102 2.695 . S
Pr80 O103 2.512 . S
Pr80 O105 2.437 . S
Pr80 O108 2.436 . S
Pr80 O110 2.438 . S
Pr81 C91 2.880 . S
Pr81 O102 2.436 . S
Pr81 O104 2.438 . S
Pr81 O106 2.562 . S
Pr81 O107 2.490 . S
Pr81 O108 2.695 . S
Pr81 O109 2.512 . S
Pr81 O111 2.437 . S
C82 Pr80 2.880 . S
C82 C83 1.491 . S
C82 O100 1.254 . S
C82 O101 1.225 . S
C83 C82 1.491 . S
C83 C84 1.392 1_455 S
C83 C88 1.356 1_455 S
C84 C83 1.392 1_655 S
C84 C85 1.368 . S
C84 H112 0.929 1_655 S
C85 C84 1.368 . S
C85 C86 1.386 . S
C85 H113 0.929 . S
C86 C85 1.386 . S
C86 C87 1.373 . S
C87 C86 1.373 . S
C87 C88 1.409 . S
C87 H114 0.931 . S
C88 C83 1.356 1_655 S
C88 C87 1.409 . S
C88 H115 0.930 1_655 S
C89 O102 1.270 . S
C89 O103 1.248 . S
C90 O104 1.267 . S
C90 O105 1.278 . S
C91 Pr81 2.880 . S
C91 C92 1.491 . S
C91 O106 1.254 . S
C91 O107 1.225 . S
C92 C91 1.491 . S
C92 C93 1.392 . S
C92 C97 1.356 . S
C93 C92 1.392 . S
C93 C94 1.368 . S
C93 H116 0.929 . S
C94 C93 1.368 . S
C94 C95 1.386 . S
C94 H117 0.929 . S
C95 C94 1.386 . S
C95 C96 1.373 . S
C96 C95 1.373 . S
C96 C97 1.409 . S
C96 H118 0.931 . S
C97 C92 1.356 . S
C97 C96 1.409 . S
C97 H119 0.930 . S
C98 O108 1.270 . S
C98 O109 1.248 . S
C99 O110 1.267 . S
C99 O111 1.278 . S
O100 Pr80 2.562 . S
O100 C82 1.254 . S
O101 Pr80 2.490 . S
O101 C82 1.225 . S
O102 Pr80 2.695 . S
O102 Pr81 2.436 . S
O102 C89 1.270 . S
O103 Pr80 2.512 . S
O103 C89 1.248 . S
O104 Pr81 2.438 . S
O104 C90 1.267 . S
O105 Pr80 2.437 . S
O105 C90 1.278 . S
O106 Pr81 2.562 . S
O106 C91 1.254 . S
O107 Pr81 2.490 . S
O107 C91 1.225 . S
O108 Pr80 2.436 . S
O108 Pr81 2.695 . S
O108 C98 1.270 . S
O109 Pr81 2.512 . S
O109 C98 1.248 . S
O110 Pr80 2.438 . S
O110 C99 1.267 . S
O111 Pr81 2.437 . S
O111 C99 1.278 . S
H112 C84 0.929 1_455 S
H113 C85 0.929 . S
H114 C87 0.931 . S
H115 C88 0.930 1_455 S
H116 C93 0.929 . S
H117 C94 0.929 . S
H118 C96 0.931 . S
H119 C97 0.930 . S
Pr120 C122 2.880 . S
Pr120 O140 2.562 . S
Pr120 O141 2.490 . S
Pr120 O142 2.695 . S
Pr120 O143 2.512 . S
Pr120 O145 2.437 . S
Pr120 O148 2.436 . S
Pr120 O150 2.438 . S
Pr121 C131 2.880 . S
Pr121 O142 2.436 . S
Pr121 O144 2.438 . S
Pr121 O146 2.562 . S
Pr121 O147 2.490 . S
Pr121 O148 2.695 . S
Pr121 O149 2.512 . S
Pr121 O151 2.437 . S
C122 Pr120 2.880 . S
C122 C123 1.491 . S
C122 O140 1.254 . S
C122 O141 1.225 . S
C123 C122 1.491 . S
C123 C124 1.392 . S
C123 C128 1.356 . S
C124 C123 1.392 . S
C124 C125 1.368 . S
C124 H152 0.929 . S
C125 C124 1.368 . S
C125 C126 1.386 . S
C125 H153 0.929 . S
C126 C125 1.386 . S
C126 C127 1.373 . S
C127 C126 1.373 . S
C127 C128 1.409 . S
C127 H154 0.931 . S
C128 C123 1.356 . S
C128 C127 1.409 . S
C128 H155 0.930 . S
C129 O142 1.270 . S
C129 O143 1.248 . S
C130 O144 1.267 . S
C130 O145 1.278 . S
C131 Pr121 2.880 . S
C131 C132 1.491 . S
C131 O146 1.254 . S
C131 O147 1.225 . S
C132 C131 1.491 . S
C132 C133 1.392 1_655 S
C132 C137 1.356 1_655 S
C133 C132 1.392 1_455 S
C133 C134 1.368 . S
C133 H156 0.929 1_455 S
C134 C133 1.368 . S
C134 C135 1.386 . S
C134 H157 0.929 . S
C135 C134 1.386 . S
C135 C136 1.373 . S
C136 C135 1.373 . S
C136 C137 1.409 . S
C136 H158 0.931 . S
C137 C132 1.356 1_455 S
C137 C136 1.409 . S
C137 H159 0.930 1_455 S
C138 O148 1.270 . S
C138 O149 1.248 . S
C139 O150 1.267 . S
C139 O151 1.278 . S
O140 Pr120 2.562 . S
O140 C122 1.254 . S
O141 Pr120 2.490 . S
O141 C122 1.225 . S
O142 Pr120 2.695 . S
O142 Pr121 2.436 . S
O142 C129 1.270 . S
O143 Pr120 2.512 . S
O143 C129 1.248 . S
O144 Pr121 2.438 . S
O144 C130 1.267 . S
O145 Pr120 2.437 . S
O145 C130 1.278 . S
O146 Pr121 2.562 . S
O146 C131 1.254 . S
O147 Pr121 2.490 . S
O147 C131 1.225 . S
O148 Pr120 2.436 . S
O148 Pr121 2.695 . S
O148 C138 1.270 . S
O149 Pr121 2.512 . S
O149 C138 1.248 . S
O150 Pr120 2.438 . S
O150 C139 1.267 . S
O151 Pr121 2.437 . S
O151 C139 1.278 . S
H152 C124 0.929 . S
H153 C125 0.929 . S
H154 C127 0.931 . S
H155 C128 0.930 . S
H156 C133 0.929 1_655 S
H157 C134 0.929 . S
H158 C136 0.931 . S
H159 C137 0.930 1_655 S
C160 C161 1.390 . S
C160 H164 0.950 . S
C160 C169 1.390 . S
C161 C160 1.390 . S
C161 C163 1.385 1_554 S
H162 C169 0.950 . S
C163 C161 1.385 1_556 S
C163 C165 1.390 . S
C163 H167 0.950 . S
H164 C160 0.950 . S
C165 C163 1.390 . S
C165 C166 1.366 1_556 S
C165 H168 0.950 . S
C166 C165 1.366 1_554 S
C166 C169 1.408 . S
H167 C163 0.950 . S
H168 C165 0.950 . S
C169 C160 1.390 . S
C169 H162 0.950 . S
C169 C166 1.408 . S
C170 C171 1.387 . S
C170 H174 0.950 . S
C170 C179 1.390 . S
C171 C170 1.387 . S
C171 C173 1.387 . S
H172 C179 0.950 . S
C173 C171 1.387 . S
C173 C175 1.390 . S
C173 H177 0.950 . S
H174 C170 0.950 . S
C175 C173 1.390 . S
C175 C176 1.387 . S
C175 H178 0.950 . S
C176 C175 1.387 . S
C176 C179 1.387 . S
H177 C173 0.950 . S
H178 C175 0.950 . S
C179 C170 1.390 . S
C179 H172 0.950 . S
C179 C176 1.387 . S
C180 C181 1.386 1_556 S
C180 H184 0.950 . S
C180 C189 1.390 1_445 S
C181 C180 1.386 1_554 S
C181 C183 1.390 . S
H182 C189 0.950 . S
C183 C181 1.390 . S
C183 C185 1.390 1_445 S
C183 H187 0.950 . S
H184 C180 0.950 . S
C185 C183 1.390 1_665 S
C185 C186 1.408 . S
C185 H188 0.950 . S
C186 C185 1.408 . S
C186 C189 1.365 1_554 S
H187 C183 0.950 . S
H188 C185 0.950 . S
C189 C180 1.390 1_665 S
C189 H182 0.950 . S
C189 C186 1.365 1_556 S
C190 C191 1.387 . S
C190 H194 0.950 . S
C190 C199 1.390 1_645 S
C191 C190 1.387 . S
C191 C193 1.387 . S
H192 C199 0.950 . S
C193 C191 1.387 . S
C193 C195 1.390 1_645 S
C193 H197 0.950 . S
H194 C190 0.950 . S
C195 C193 1.390 1_465 S
C195 C196 1.387 . S
C195 H198 0.950 . S
C196 C195 1.387 . S
C196 C199 1.387 . S
H197 C193 0.950 . S
H198 C195 0.950 . S
C199 C190 1.390 1_465 S
C199 H192 0.950 . S
C199 C196 1.387 . S
C200 C201 1.387 . S
C200 H204 0.950 . S
C200 C209 1.390 . S
C201 C200 1.387 . S
C201 C203 1.387 . S
H202 C209 0.950 . S
C203 C201 1.387 . S
C203 C205 1.390 . S
C203 H207 0.950 . S
H204 C200 0.950 . S
C205 C203 1.390 . S
C205 C206 1.387 . S
C205 H208 0.950 . S
C206 C205 1.387 . S
C206 C209 1.387 . S
H207 C203 0.950 . S
H208 C205 0.950 . S
C209 C200 1.390 . S
C209 H202 0.950 . S
C209 C206 1.387 . S
C210 C211 1.387 . S
C210 H214 0.950 . S
C210 C219 1.390 . S
C211 C210 1.387 . S
C211 C213 1.387 . S
H212 C219 0.950 . S
C213 C211 1.387 . S
C213 C215 1.390 . S
C213 H217 0.950 . S
H214 C210 0.950 . S
C215 C213 1.390 . S
C215 C216 1.387 . S
C215 H218 0.950 . S
C216 C215 1.387 . S
C216 C219 1.387 . S
H217 C213 0.950 . S
H218 C215 0.950 . S
C219 C210 1.390 . S
C219 H212 0.950 . S
C219 C216 1.387 . S
C220 C221 1.387 . S
C220 H224 0.950 . S
C220 C229 1.390 . S
C221 C220 1.387 . S
C221 C223 1.387 . S
H222 C229 0.950 . S
C223 C221 1.387 . S
C223 C225 1.390 . S
C223 H227 0.950 . S
H224 C220 0.950 . S
C225 C223 1.390 . S
C225 C226 1.387 . S
C225 H228 0.950 . S
C226 C225 1.387 . S
C226 C229 1.387 . S
H227 C223 0.950 . S
H228 C225 0.950 . S
C229 C220 1.390 . S
C229 H222 0.950 . S
C229 C226 1.387 . S
C230 C231 1.387 . S
C230 H234 0.950 . S
C230 C239 1.390 . S
C231 C230 1.387 . S
C231 C233 1.387 . S
H232 C239 0.950 . S
C233 C231 1.387 . S
C233 C235 1.390 . S
C233 H237 0.950 . S
H234 C230 0.950 . S
C235 C233 1.390 . S
C235 C236 1.387 . S
C235 H238 0.950 . S
C236 C235 1.387 . S
C236 C239 1.387 . S
H237 C233 0.950 . S
H238 C235 0.950 . S
C239 C230 1.390 . S
C239 H232 0.950 . S
C239 C236 1.387 . S
C240 C241 1.387 . S
C240 H244 0.950 . S
C240 C249 1.390 . S
C241 C240 1.387 . S
C241 C243 1.387 . S
H242 C249 0.950 1_455 S
C243 C241 1.387 . S
C243 C245 1.390 . S
C243 H247 0.950 . S
H244 C240 0.950 . S
C245 C243 1.390 . S
C245 C246 1.387 . S
C245 H248 0.950 . S
C246 C245 1.387 . S
C246 C249 1.387 . S
H247 C243 0.950 . S
H248 C245 0.950 . S
C249 C240 1.390 . S
C249 H242 0.950 1_655 S
C249 C246 1.387 . S
C250 C251 1.387 . S
C250 H254 0.950 1_655 S
C250 C259 1.390 . S
C251 C250 1.387 . S
C251 C253 1.387 . S
H252 C259 0.950 1_455 S
C253 C251 1.387 . S
C253 C255 1.390 . S
C253 H257 0.950 . S
H254 C250 0.950 1_455 S
C255 C253 1.390 . S
C255 C256 1.387 . S
C255 H258 0.950 . S
C256 C255 1.387 . S
C256 C259 1.387 . S
H257 C253 0.950 . S
H258 C255 0.950 . S
C259 C250 1.390 . S
C259 H252 0.950 1_655 S
C259 C256 1.387 . S
C260 C261 1.383 1_655 S
C260 H264 0.955 . S
C260 C269 1.390 1_655 S
C261 C260 1.383 1_455 S
C261 C263 1.387 . S
H262 C269 0.950 1_655 S
C263 C261 1.387 . S
C263 C265 1.390 . S
C263 H267 0.950 . S
H264 C260 0.955 . S
C265 C263 1.390 . S
C265 C266 1.387 . S
C265 H268 0.950 . S
C266 C265 1.387 . S
C266 C269 1.387 . S
H267 C263 0.950 . S
H268 C265 0.950 . S
C269 C260 1.390 1_455 S
C269 H262 0.950 1_455 S
C269 C266 1.387 . S
C270 C271 1.387 . S
C270 H274 0.950 1_455 S
C270 C279 1.390 . S
C271 C270 1.387 . S
C271 C273 1.387 . S
H272 C279 0.950 1_655 S
C273 C271 1.387 . S
C273 C275 1.390 . S
C273 H277 0.950 . S
H274 C270 0.950 1_655 S
C275 C273 1.390 . S
C275 C276 1.387 . S
C275 H278 0.950 . S
C276 C275 1.387 . S
C276 C279 1.387 . S
H277 C273 0.950 . S
H278 C275 0.950 . S
C279 C270 1.390 . S
C279 H272 0.950 1_455 S
C279 C276 1.387 . S
C161 C58 1.555 1_554 S
C166 C9 1.561 . S
C171 C89 1.556 . S
C176 C138 1.556 . S
C181 C18 1.556 1_554 S
C186 C49 1.561 . S
C191 C129 1.557 . S
C196 C98 1.557 . S
C201 C126 1.406 . S
C206 C10 1.448 . S
C211 C46 1.406 . S
C216 C90 1.447 . S
C221 C59 1.448 . S
C226 C95 1.405 . S
C231 C139 1.448 . S
C236 C15 1.406 . S
C241 C50 1.448 . S
C246 C86 1.406 . S
C251 C130 1.448 . S
C256 C6 1.404 . S
C261 C135 1.407 . S
C266 C19 1.448 . S
C271 C99 1.448 . S
C276 C55 1.407 . S
