# Generated by pormake.
# Topology uoh, (4)-cn, num edge types: 1
# Building blocks:
#     Node 0, Type 0, BuildingBlock: QUQFOY_clean_sbu_1, # of connection points: 4
#     Node 1, Type 0, BuildingBlock: QUQFOY_clean_sbu_1, # of connection points: 4
#     Node 2, Type 0, BuildingBlock: QUQFOY_clean_sbu_1, # of connection points: 4
#     Node 3, Type 0, BuildingBlock: QUQFOY_clean_sbu_1, # of connection points: 4
#     Node 4, Type 0, BuildingBlock: QUQFOY_clean_sbu_1, # of connection points: 4
#     Node 5, Type 0, BuildingBlock: QUQFOY_clean_sbu_1, # of connection points: 4
#     Node 6, Type 0, BuildingBlock: QUQFOY_clean_sbu_1, # of connection points: 4
#     Node 7, Type 0, BuildingBlock: QUQFOY_clean_sbu_1, # of connection points: 4
#     Node 8, Type 0, BuildingBlock: QUQFOY_clean_sbu_1, # of connection points: 4
#     Node 9, Type 0, BuildingBlock: QUQFOY_clean_sbu_1, # of connection points: 4
#     Node 10, Type 0, BuildingBlock: QUQFOY_clean_sbu_1, # of connection points: 4
#     Node 11, Type 0, BuildingBlock: QUQFOY_clean_sbu_1, # of connection points: 4
#     Node 12, Type 0, BuildingBlock: QUQFOY_clean_sbu_1, # of connection points: 4
#     Node 13, Type 0, BuildingBlock: QUQFOY_clean_sbu_1, # of connection points: 4
#     Node 14, Type 0, BuildingBlock: QUQFOY_clean_sbu_1, # of connection points: 4
#     Node 15, Type 0, BuildingBlock: QUQFOY_clean_sbu_1, # of connection points: 4
#     Node 16, Type 0, BuildingBlock: QUQFOY_clean_sbu_1, # of connection points: 4
#     Node 17, Type 0, BuildingBlock: QUQFOY_clean_sbu_1, # of connection points: 4
#     Node 18, Type 0, BuildingBlock: QUQFOY_clean_sbu_1, # of connection points: 4
#     Node 19, Type 0, BuildingBlock: QUQFOY_clean_sbu_1, # of connection points: 4
#     Node 20, Type 0, BuildingBlock: QUQFOY_clean_sbu_1, # of connection points: 4
#     Node 21, Type 0, BuildingBlock: QUQFOY_clean_sbu_1, # of connection points: 4
#     Node 22, Type 0, BuildingBlock: QUQFOY_clean_sbu_1, # of connection points: 4
#     Node 23, Type 0, BuildingBlock: QUQFOY_clean_sbu_1, # of connection points: 4
#     Node 24, Type 0, BuildingBlock: QUQFOY_clean_sbu_1, # of connection points: 4
#     Node 25, Type 0, BuildingBlock: QUQFOY_clean_sbu_1, # of connection points: 4
#     Node 26, Type 0, BuildingBlock: QUQFOY_clean_sbu_1, # of connection points: 4
#     Node 27, Type 0, BuildingBlock: QUQFOY_clean_sbu_1, # of connection points: 4
#     Node 28, Type 0, BuildingBlock: QUQFOY_clean_sbu_1, # of connection points: 4
#     Node 29, Type 0, BuildingBlock: QUQFOY_clean_sbu_1, # of connection points: 4
#     Node 30, Type 0, BuildingBlock: QUQFOY_clean_sbu_1, # of connection points: 4
#     Node 31, Type 0, BuildingBlock: QUQFOY_clean_sbu_1, # of connection points: 4
#     Node 32, Type 0, BuildingBlock: QUQFOY_clean_sbu_1, # of connection points: 4
#     Node 33, Type 0, BuildingBlock: QUQFOY_clean_sbu_1, # of connection points: 4
#     Node 34, Type 0, BuildingBlock: QUQFOY_clean_sbu_1, # of connection points: 4
#     Node 35, Type 0, BuildingBlock: QUQFOY_clean_sbu_1, # of connection points: 4
#     Edge 36, Type (0, 0), BuildingBlock: KIFKEQ_clean_linker_1, # of connection points: 2
#     Edge 37, Type (0, 0), BuildingBlock: KIFKEQ_clean_linker_1, # of connection points: 2
#     Edge 38, Type (0, 0), BuildingBlock: KIFKEQ_clean_linker_1, # of connection points: 2
#     Edge 39, Type (0, 0), BuildingBlock: KIFKEQ_clean_linker_1, # of connection points: 2
#     Edge 40, Type (0, 0), BuildingBlock: KIFKEQ_clean_linker_1, # of connection points: 2
#     Edge 41, Type (0, 0), BuildingBlock: KIFKEQ_clean_linker_1, # of connection points: 2
#     Edge 42, Type (0, 0), BuildingBlock: KIFKEQ_clean_linker_1, # of connection points: 2
#     Edge 43, Type (0, 0), BuildingBlock: KIFKEQ_clean_linker_1, # of connection points: 2
#     Edge 44, Type (0, 0), BuildingBlock: KIFKEQ_clean_linker_1, # of connection points: 2
#     Edge 45, Type (0, 0), BuildingBlock: KIFKEQ_clean_linker_1, # of connection points: 2
#     Edge 46, Type (0, 0), BuildingBlock: KIFKEQ_clean_linker_1, # of connection points: 2
#     Edge 47, Type (0, 0), BuildingBlock: KIFKEQ_clean_linker_1, # of connection points: 2
#     Edge 48, Type (0, 0), BuildingBlock: KIFKEQ_clean_linker_1, # of connection points: 2
#     Edge 49, Type (0, 0), BuildingBlock: KIFKEQ_clean_linker_1, # of connection points: 2
#     Edge 50, Type (0, 0), BuildingBlock: KIFKEQ_clean_linker_1, # of connection points: 2
#     Edge 51, Type (0, 0), BuildingBlock: KIFKEQ_clean_linker_1, # of connection points: 2
#     Edge 52, Type (0, 0), BuildingBlock: KIFKEQ_clean_linker_1, # of connection points: 2
#     Edge 53, Type (0, 0), BuildingBlock: KIFKEQ_clean_linker_1, # of connection points: 2
#     Edge 54, Type (0, 0), BuildingBlock: KIFKEQ_clean_linker_1, # of connection points: 2
#     Edge 55, Type (0, 0), BuildingBlock: KIFKEQ_clean_linker_1, # of connection points: 2
#     Edge 56, Type (0, 0), BuildingBlock: KIFKEQ_clean_linker_1, # of connection points: 2
#     Edge 57, Type (0, 0), BuildingBlock: KIFKEQ_clean_linker_1, # of connection points: 2
#     Edge 58, Type (0, 0), BuildingBlock: KIFKEQ_clean_linker_1, # of connection points: 2
#     Edge 59, Type (0, 0), BuildingBlock: KIFKEQ_clean_linker_1, # of connection points: 2
#     Edge 60, Type (0, 0), BuildingBlock: KIFKEQ_clean_linker_1, # of connection points: 2
#     Edge 61, Type (0, 0), BuildingBlock: KIFKEQ_clean_linker_1, # of connection points: 2
#     Edge 62, Type (0, 0), BuildingBlock: KIFKEQ_clean_linker_1, # of connection points: 2
#     Edge 63, Type (0, 0), BuildingBlock: KIFKEQ_clean_linker_1, # of connection points: 2
#     Edge 64, Type (0, 0), BuildingBlock: KIFKEQ_clean_linker_1, # of connection points: 2
#     Edge 65, Type (0, 0), BuildingBlock: KIFKEQ_clean_linker_1, # of connection points: 2
#     Edge 66, Type (0, 0), BuildingBlock: KIFKEQ_clean_linker_1, # of connection points: 2
#     Edge 67, Type (0, 0), BuildingBlock: KIFKEQ_clean_linker_1, # of connection points: 2
#     Edge 68, Type (0, 0), BuildingBlock: KIFKEQ_clean_linker_1, # of connection points: 2
#     Edge 69, Type (0, 0), BuildingBlock: KIFKEQ_clean_linker_1, # of connection points: 2
#     Edge 70, Type (0, 0), BuildingBlock: KIFKEQ_clean_linker_1, # of connection points: 2
#     Edge 71, Type (0, 0), BuildingBlock: KIFKEQ_clean_linker_1, # of connection points: 2
#     Edge 72, Type (0, 0), BuildingBlock: KIFKEQ_clean_linker_1, # of connection points: 2
#     Edge 73, Type (0, 0), BuildingBlock: KIFKEQ_clean_linker_1, # of connection points: 2
#     Edge 74, Type (0, 0), BuildingBlock: KIFKEQ_clean_linker_1, # of connection points: 2
#     Edge 75, Type (0, 0), BuildingBlock: KIFKEQ_clean_linker_1, # of connection points: 2
#     Edge 76, Type (0, 0), BuildingBlock: KIFKEQ_clean_linker_1, # of connection points: 2
#     Edge 77, Type (0, 0), BuildingBlock: KIFKEQ_clean_linker_1, # of connection points: 2
#     Edge 78, Type (0, 0), BuildingBlock: KIFKEQ_clean_linker_1, # of connection points: 2
#     Edge 79, Type (0, 0), BuildingBlock: KIFKEQ_clean_linker_1, # of connection points: 2
#     Edge 80, Type (0, 0), BuildingBlock: KIFKEQ_clean_linker_1, # of connection points: 2
#     Edge 81, Type (0, 0), BuildingBlock: KIFKEQ_clean_linker_1, # of connection points: 2
#     Edge 82, Type (0, 0), BuildingBlock: KIFKEQ_clean_linker_1, # of connection points: 2
#     Edge 83, Type (0, 0), BuildingBlock: KIFKEQ_clean_linker_1, # of connection points: 2
#     Edge 84, Type (0, 0), BuildingBlock: KIFKEQ_clean_linker_1, # of connection points: 2
#     Edge 85, Type (0, 0), BuildingBlock: KIFKEQ_clean_linker_1, # of connection points: 2
#     Edge 86, Type (0, 0), BuildingBlock: KIFKEQ_clean_linker_1, # of connection points: 2
#     Edge 87, Type (0, 0), BuildingBlock: KIFKEQ_clean_linker_1, # of connection points: 2
#     Edge 88, Type (0, 0), BuildingBlock: KIFKEQ_clean_linker_1, # of connection points: 2
#     Edge 89, Type (0, 0), BuildingBlock: KIFKEQ_clean_linker_1, # of connection points: 2
#     Edge 90, Type (0, 0), BuildingBlock: KIFKEQ_clean_linker_1, # of connection points: 2
#     Edge 91, Type (0, 0), BuildingBlock: KIFKEQ_clean_linker_1, # of connection points: 2
#     Edge 92, Type (0, 0), BuildingBlock: KIFKEQ_clean_linker_1, # of connection points: 2
#     Edge 93, Type (0, 0), BuildingBlock: KIFKEQ_clean_linker_1, # of connection points: 2
#     Edge 94, Type (0, 0), BuildingBlock: KIFKEQ_clean_linker_1, # of connection points: 2
#     Edge 95, Type (0, 0), BuildingBlock: KIFKEQ_clean_linker_1, # of connection points: 2
#     Edge 96, Type (0, 0), BuildingBlock: KIFKEQ_clean_linker_1, # of connection points: 2
#     Edge 97, Type (0, 0), BuildingBlock: KIFKEQ_clean_linker_1, # of connection points: 2
#     Edge 98, Type (0, 0), BuildingBlock: KIFKEQ_clean_linker_1, # of connection points: 2
#     Edge 99, Type (0, 0), BuildingBlock: KIFKEQ_clean_linker_1, # of connection points: 2
#     Edge 100, Type (0, 0), BuildingBlock: KIFKEQ_clean_linker_1, # of connection points: 2
#     Edge 101, Type (0, 0), BuildingBlock: KIFKEQ_clean_linker_1, # of connection points: 2
#     Edge 102, Type (0, 0), BuildingBlock: KIFKEQ_clean_linker_1, # of connection points: 2
#     Edge 103, Type (0, 0), BuildingBlock: KIFKEQ_clean_linker_1, # of connection points: 2
#     Edge 104, Type (0, 0), BuildingBlock: KIFKEQ_clean_linker_1, # of connection points: 2
#     Edge 105, Type (0, 0), BuildingBlock: KIFKEQ_clean_linker_1, # of connection points: 2
#     Edge 106, Type (0, 0), BuildingBlock: KIFKEQ_clean_linker_1, # of connection points: 2
#     Edge 107, Type (0, 0), BuildingBlock: KIFKEQ_clean_linker_1, # of connection points: 2
# Relax obj value: 0.082
# Max RMSD: 0.126
# Mean RMSD: 0.126
data_MOF--net-uoh--node1-QUQFOY_clean_sbu_1--edge1-KIFKEQ_clean_linker_1
_symmetry_space_group_name_H-M    P1
_symmetry_Int_Tables_number       1
_symmetry_cell_setting            triclinic
loop_
_symmetry_equiv_pos_as_xyz
'x, y, z'
_cell_length_a     94.326112
_cell_length_b     94.34163
_cell_length_c     28.88717
_cell_angle_alpha  90.01793
_cell_angle_beta   89.988721
_cell_angle_gamma 120.00531
loop_
_atom_site_label
_atom_site_type_symbol
_atom_site_fract_x
_atom_site_fract_y
_atom_site_fract_z
_atom_type_partial_charge
O0 O 0.24783 0.1563 0.11262 0.0
Cd1 Cd 0.25915 0.16866 0.17308 0.0
Cd2 Cd 0.24992 0.13807 0.20131 0.0
O3 O 0.23761 0.13106 0.13898 0.0
O4 O 0.25961 0.19023 0.1722 0.0
O5 O 0.2447 0.17038 0.22156 0.0
C6 C 0.249 0.18474 0.20533 0.0
C7 C 0.23814 0.12722 0.27325 0.0
C8 C 0.23942 0.1409 0.10637 0.0
C9 C 0.28606 0.16105 0.19117 0.0
O10 O 0.27457 0.1464 0.19678 0.0
O11 O 0.28274 0.17247 0.18487 0.0
O12 O 0.24089 0.11868 0.24347 0.0
O13 O 0.24128 0.14168 0.2611 0.0
O14 O 0.86323 0.0949 0.11514 0.0
Cd15 Cd 0.84947 0.09295 0.17307 0.0
Cd16 Cd 0.87903 0.11543 0.20654 0.0
O17 O 0.88762 0.1123 0.14357 0.0
O18 O 0.82872 0.07115 0.1705 0.0
O19 O 0.84792 0.07743 0.22338 0.0
C20 C 0.83408 0.06672 0.20557 0.0
C21 C 0.89095 0.11553 0.27774 0.0
C22 C 0.87868 0.10354 0.11029 0.0
C23 C 0.85417 0.12629 0.19315 0.0
O24 O 0.86867 0.1301 0.20436 0.0
O25 O 0.8439 0.11165 0.18126 0.0
O26 O 0.89815 0.12747 0.24884 0.0
O27 O 0.87729 0.10299 0.2651 0.0
O28 O 0.92657 0.77071 0.11699 0.0
Cd29 Cd 0.92854 0.76021 0.17761 0.0
Cd30 Cd 0.90668 0.76873 0.20657 0.0
O31 O 0.91112 0.78046 0.14297 0.0
O32 O 0.95013 0.76076 0.17659 0.0
O33 O 0.94443 0.77512 0.22595 0.0
C34 C 0.95488 0.77134 0.20975 0.0
C35 C 0.90682 0.78094 0.27727 0.0
C36 C 0.91908 0.77861 0.11017 0.0
C37 C 0.89481 0.73257 0.19772 0.0
O38 O 0.89125 0.74371 0.20488 0.0
O39 O 0.90954 0.73636 0.18898 0.0
O40 O 0.8951 0.77669 0.24779 0.0
O41 O 0.91903 0.77915 0.26542 0.0
O42 O 0.16191 0.2439 0.3971 0.0
Cd43 Cd 0.17459 0.25542 0.33723 0.0
Cd44 Cd 0.14413 0.24633 0.30804 0.0
O45 O 0.13676 0.23433 0.37065 0.0
O46 O 0.19592 0.25542 0.33809 0.0
O47 O 0.1761 0.24108 0.28801 0.0
C48 C 0.19035 0.24501 0.30445 0.0
C49 C 0.13224 0.23426 0.23724 0.0
C50 C 0.14648 0.23582 0.40324 0.0
C51 C 0.16749 0.28255 0.31876 0.0
O52 O 0.15293 0.27108 0.31159 0.0
O53 O 0.1788 0.2792 0.32654 0.0
O54 O 0.12461 0.23825 0.26687 0.0
O55 O 0.14636 0.2363 0.2489 0.0
O56 O 0.77631 0.92064 0.40214 0.0
Cd57 Cd 0.76628 0.92187 0.33955 0.0
Cd58 Cd 0.77663 0.90119 0.31507 0.0
O59 O 0.78887 0.90759 0.37787 0.0
O60 O 0.76538 0.94276 0.33898 0.0
O61 O 0.7815 0.93836 0.29295 0.0
C62 C 0.77662 0.94815 0.30755 0.0
C63 C 0.78867 0.90247 0.24323 0.0
C64 C 0.78559 0.91472 0.41009 0.0
C65 C 0.74024 0.88723 0.32141 0.0
O66 O 0.75201 0.88433 0.3193 0.0
O67 O 0.74317 0.90193 0.32498 0.0
O68 O 0.78644 0.89142 0.2733 0.0
O69 O 0.7849 0.91338 0.25509 0.0
O70 O 0.10046 0.86106 0.40443 0.0
Cd71 Cd 0.09967 0.84869 0.34425 0.0
Cd72 Cd 0.12097 0.8793 0.31597 0.0
O73 O 0.11546 0.8863 0.378 0.0
O74 O 0.07861 0.82706 0.34483 0.0
O75 O 0.08363 0.84685 0.29521 0.0
C76 C 0.07357 0.83249 0.31138 0.0
C77 C 0.12007 0.89001 0.2438 0.0
C78 C 0.10738 0.87647 0.41057 0.0
C79 C 0.13433 0.85651 0.3272 0.0
O80 O 0.1374 0.87112 0.32118 0.0
O81 O 0.11961 0.84503 0.33336 0.0
O82 O 0.13131 0.89864 0.27362 0.0
O83 O 0.10879 0.87553 0.256 0.0
O84 O 0.77756 0.85957 0.90272 0.0
Cd85 Cd 0.76647 0.84757 0.84178 0.0
Cd86 Cd 0.77654 0.87849 0.81599 0.0
O87 O 0.78929 0.88507 0.87792 0.0
O88 O 0.76606 0.82605 0.84444 0.0
O89 O 0.78008 0.84502 0.79201 0.0
C90 C 0.77606 0.83095 0.80984 0.0
C91 C 0.78805 0.88919 0.74363 0.0
C92 C 0.78662 0.87484 0.91017 0.0
C93 C 0.74012 0.85582 0.82577 0.0
O94 O 0.75188 0.87043 0.82154 0.0
O95 O 0.74306 0.84408 0.83036 0.0
O96 O 0.78568 0.8979 0.77379 0.0
O97 O 0.78469 0.87465 0.75562 0.0
O98 O 0.1633 0.92139 0.90252 0.0
Cd99 Cd 0.1748 0.92277 0.84019 0.0
Cd100 Cd 0.14383 0.90192 0.81547 0.0
O101 O 0.13767 0.9078 0.87845 0.0
O102 O 0.19627 0.94396 0.83973 0.0
O103 O 0.17574 0.93896 0.79296 0.0
C104 C 0.1903 0.94906 0.80789 0.0
C105 C 0.13155 0.90173 0.74506 0.0
C106 C 0.14805 0.91517 0.91054 0.0
C107 C 0.16686 0.88847 0.82165 0.0
O108 O 0.1522 0.88555 0.81883 0.0
O109 O 0.17856 0.90316 0.82618 0.0
O110 O 0.1239 0.8905 0.77571 0.0
O111 O 0.14589 0.91371 0.75556 0.0
O112 O 0.1004 0.24242 0.89817 0.0
Cd113 Cd 0.09938 0.25504 0.84062 0.0
Cd114 Cd 0.12121 0.2467 0.8095 0.0
O115 O 0.11688 0.23408 0.87088 0.0
O116 O 0.07796 0.25465 0.84563 0.0
O117 O 0.08359 0.2425 0.78898 0.0
C118 C 0.07319 0.24562 0.80897 0.0
C119 C 0.12164 0.23545 0.73782 0.0
C120 C 0.10816 0.23471 0.90349 0.0
C121 C 0.13347 0.28273 0.82435 0.0
O122 O 0.1367 0.2715 0.81488 0.0
O123 O 0.11878 0.27911 0.83325 0.0
O124 O 0.13325 0.23958 0.76755 0.0
O125 O 0.10924 0.23692 0.74976 0.0
O126 O 0.86575 0.77475 0.61513 0.0
Cd127 Cd 0.85161 0.76212 0.67171 0.0
Cd128 Cd 0.8812 0.76932 0.7059 0.0
O129 O 0.89004 0.78156 0.64371 0.0
O130 O 0.83083 0.76297 0.66552 0.0
O131 O 0.84817 0.7745 0.72346 0.0
C132 C 0.8349 0.77174 0.70267 0.0
C133 C 0.89192 0.78093 0.77819 0.0
C134 C 0.8812 0.78164 0.61057 0.0
C135 C 0.85685 0.73363 0.6902 0.0
O136 O 0.87124 0.74434 0.70239 0.0
O137 O 0.84654 0.73792 0.67809 0.0
O138 O 0.90008 0.77723 0.74961 0.0
O139 O 0.87792 0.77878 0.76478 0.0
O140 O 0.25016 0.09565 0.6139 0.0
Cd141 Cd 0.26039 0.09429 0.67605 0.0
Cd142 Cd 0.25031 0.11514 0.701 0.0
O143 O 0.23811 0.10919 0.63831 0.0
O144 O 0.26068 0.07311 0.67633 0.0
O145 O 0.24523 0.07811 0.72345 0.0
C146 C 0.24966 0.06801 0.70836 0.0
C147 C 0.23842 0.11544 0.77171 0.0
C148 C 0.2411 0.10184 0.6061 0.0
C149 C 0.28679 0.12859 0.69406 0.0
O150 O 0.27505 0.13151 0.69699 0.0
O151 O 0.28379 0.1139 0.68977 0.0
O152 O 0.24193 0.12663 0.74097 0.0
O153 O 0.24074 0.10344 0.76116 0.0
O154 O 0.92656 0.1574 0.61467 0.0
Cd155 Cd 0.92869 0.17207 0.67053 0.0
Cd156 Cd 0.9058 0.14285 0.70595 0.0
O157 O 0.90832 0.13346 0.64368 0.0
O158 O 0.9507 0.19233 0.66392 0.0
O159 O 0.94431 0.17511 0.72246 0.0
C160 C 0.95514 0.18814 0.70134 0.0
C161 C 0.90515 0.13083 0.77742 0.0
C162 C 0.91746 0.14198 0.61043 0.0
C163 C 0.89569 0.16827 0.68993 0.0
O164 O 0.89178 0.15393 0.70318 0.0
O165 O 0.91026 0.17813 0.67642 0.0
O166 O 0.89316 0.124 0.74855 0.0
O167 O 0.91803 0.1442 0.7647 0.0
O168 O 0.9171 0.49259 0.44625 0.0
Cd169 Cd 0.92768 0.5051 0.5068 0.0
Cd170 Cd 0.91941 0.4747 0.53565 0.0
O171 O 0.90766 0.46742 0.4721 0.0
O172 O 0.92708 0.52609 0.50575 0.0
O173 O 0.91284 0.5061 0.55542 0.0
C174 C 0.91659 0.52031 0.53914 0.0
C175 C 0.90736 0.46193 0.60578 0.0
C176 C 0.90929 0.47719 0.43944 0.0
C177 C 0.95553 0.49938 0.52696 0.0
O178 O 0.94448 0.48464 0.53414 0.0
O179 O 0.95162 0.5102 0.51796 0.0
O180 O 0.91194 0.45495 0.57562 0.0
O181 O 0.9087 0.47583 0.59493 0.0
O182 O 0.52945 0.42936 0.44977 0.0
Cd183 Cd 0.51782 0.42803 0.51181 0.0
Cd184 Cd 0.54869 0.4489 0.53699 0.0
O185 O 0.55502 0.44294 0.47437 0.0
O186 O 0.4963 0.40691 0.51225 0.0
O187 O 0.51675 0.41189 0.55934 0.0
C188 C 0.50219 0.40183 0.54438 0.0
C189 C 0.5605 0.44886 0.60812 0.0
C190 C 0.54472 0.43558 0.44209 0.0
C191 C 0.5257 0.46235 0.52953 0.0
O192 O 0.54037 0.46531 0.5327 0.0
O193 O 0.51403 0.44764 0.52523 0.0
O194 O 0.56841 0.46012 0.57769 0.0
O195 O 0.54616 0.43702 0.59703 0.0
O196 O 0.59408 0.10636 0.44558 0.0
Cd197 Cd 0.59542 0.09533 0.5063 0.0
Cd198 Cd 0.57402 0.10447 0.53478 0.0
O199 O 0.57914 0.11665 0.47217 0.0
O200 O 0.61672 0.0952 0.5058 0.0
O201 O 0.61147 0.11004 0.55458 0.0
C202 C 0.62168 0.10588 0.53874 0.0
C203 C 0.57507 0.11624 0.60689 0.0
C204 C 0.58702 0.11471 0.43934 0.0
C205 C 0.56101 0.06833 0.52503 0.0
O206 O 0.55777 0.07978 0.53044 0.0
O207 O 0.57577 0.07171 0.51875 0.0
O208 O 0.56374 0.11354 0.57727 0.0
O209 O 0.58635 0.11308 0.59449 0.0
O210 O 0.82888 0.57853 0.73648 0.0
Cd211 Cd 0.84141 0.58976 0.67609 0.0
Cd212 Cd 0.81092 0.58102 0.64788 0.0
O213 O 0.80368 0.56916 0.7107 0.0
O214 O 0.86264 0.58958 0.67662 0.0
O215 O 0.84266 0.5752 0.62704 0.0
C216 C 0.85695 0.57912 0.64315 0.0
C217 C 0.79856 0.56902 0.57746 0.0
C218 C 0.81347 0.57061 0.74306 0.0
C219 C 0.83476 0.61718 0.65739 0.0
O220 O 0.82009 0.60584 0.65108 0.0
O221 O 0.84596 0.61363 0.66474 0.0
O222 O 0.79124 0.57323 0.60752 0.0
O223 O 0.81262 0.57076 0.5885 0.0
O224 O 0.44308 0.25555 0.73917 0.0
Cd225 Cd 0.43121 0.25729 0.68109 0.0
Cd226 Cd 0.43846 0.23481 0.64827 0.0
O227 O 0.45026 0.23824 0.71117 0.0
O228 O 0.43214 0.27902 0.6833 0.0
O229 O 0.44516 0.27277 0.63069 0.0
C230 C 0.44195 0.28346 0.6483 0.0
C231 C 0.45019 0.23439 0.57727 0.0
C232 C 0.45003 0.24705 0.74421 0.0
C233 C 0.40267 0.22385 0.66126 0.0
O234 O 0.41343 0.22009 0.6505 0.0
O235 O 0.40696 0.2385 0.67285 0.0
O236 O 0.44547 0.22258 0.6066 0.0
O237 O 0.44912 0.247 0.58938 0.0
O238 O 0.76738 0.19412 0.73428 0.0
Cd239 Cd 0.76648 0.18195 0.67356 0.0
Cd240 Cd 0.78774 0.21266 0.64578 0.0
O241 O 0.78239 0.21944 0.70844 0.0
O242 O 0.74539 0.16033 0.67366 0.0
O243 O 0.75044 0.18035 0.6249 0.0
C244 C 0.74036 0.16592 0.64061 0.0
C245 C 0.78663 0.22356 0.57412 0.0
C246 C 0.77435 0.20951 0.74086 0.0
C247 C 0.80112 0.18984 0.6552 0.0
O248 O 0.80418 0.20447 0.64968 0.0
O249 O 0.78641 0.17836 0.66166 0.0
O250 O 0.79794 0.23213 0.60384 0.0
O251 O 0.77539 0.20905 0.58622 0.0
O252 O 0.44301 0.19243 0.2386 0.0
Cd253 Cd 0.43137 0.17888 0.18019 0.0
Cd254 Cd 0.43832 0.20855 0.14774 0.0
O255 O 0.44987 0.21688 0.21099 0.0
O256 O 0.4325 0.15817 0.18204 0.0
O257 O 0.44553 0.17762 0.12992 0.0
C258 C 0.44238 0.1637 0.1472 0.0
C259 C 0.45026 0.2209 0.07713 0.0
C260 C 0.44973 0.20785 0.24392 0.0
C261 C 0.40261 0.1834 0.15971 0.0
O262 O 0.41326 0.19798 0.14915 0.0
O263 O 0.40706 0.17318 0.17151 0.0
O264 O 0.44532 0.22784 0.10632 0.0
O265 O 0.44929 0.20725 0.08921 0.0
O266 O 0.83006 0.25471 0.23372 0.0
Cd267 Cd 0.84167 0.25584 0.1718 0.0
Cd268 Cd 0.81074 0.23493 0.14689 0.0
O269 O 0.80448 0.24108 0.20928 0.0
O270 O 0.86314 0.27704 0.17096 0.0
O271 O 0.84263 0.2718 0.12379 0.0
C272 C 0.85717 0.28198 0.13869 0.0
C273 C 0.79864 0.23455 0.07595 0.0
C274 C 0.8148 0.24854 0.24143 0.0
C275 C 0.83373 0.22147 0.15495 0.0
O276 O 0.81909 0.21857 0.15164 0.0
O277 O 0.84544 0.23617 0.15902 0.0
O278 O 0.7909 0.2234 0.10675 0.0
O279 O 0.81296 0.24654 0.08652 0.0
O280 O 0.76648 0.57757 0.23759 0.0
Cd281 Cd 0.76544 0.58926 0.17789 0.0
Cd282 Cd 0.78716 0.58057 0.14931 0.0
O283 O 0.7821 0.56805 0.21111 0.0
O284 O 0.744 0.58903 0.17813 0.0
O285 O 0.74989 0.57503 0.12796 0.0
C286 C 0.73942 0.57878 0.14415 0.0
C287 C 0.78784 0.56929 0.07785 0.0
C288 C 0.77377 0.56943 0.24362 0.0
C289 C 0.79965 0.61667 0.1618 0.0
O290 O 0.8029 0.6053 0.15497 0.0
O291 O 0.78488 0.6132 0.16817 0.0
O292 O 0.79921 0.57313 0.10826 0.0
O293 O 0.77553 0.57101 0.08904 0.0
O294 O 0.53001 0.10542 0.94574 0.0
Cd295 Cd 0.51753 0.09473 1.00624 0.0
Cd296 Cd 0.54793 0.10291 0.03469 0.0
O297 O 0.55521 0.11486 0.97142 0.0
O298 O 0.49649 0.09524 1.0055 0.0
O299 O 0.51649 0.10942 0.05525 0.0
C300 C 0.50224 0.10563 0.03913 0.0
C301 C 0.5606 0.11464 0.10521 0.0
C302 C 0.5454 0.11325 0.93885 0.0
C303 C 0.52324 0.06683 0.0252 0.0
O304 O 0.538 0.07787 0.03227 0.0
O305 O 0.51239 0.07077 0.01681 0.0
O306 O 0.56763 0.11021 0.07478 0.0
O307 O 0.54671 0.11336 0.09441 0.0
O308 O 0.91477 0.42823 0.94555 0.0
Cd309 Cd 0.926 0.42702 1.00598 0.0
Cd310 Cd 0.91669 0.44822 0.03475 0.0
O311 O 0.90431 0.44297 0.97246 0.0
O312 O 0.92639 0.40587 1.00492 0.0
O313 O 0.91151 0.41084 0.05433 0.0
C314 C 0.91578 0.40076 0.03805 0.0
C315 C 0.90514 0.44715 0.10724 0.0
C316 C 0.90628 0.43515 0.93953 0.0
C317 C 0.95284 0.46153 0.02413 0.0
O318 O 0.94131 0.46463 0.02977 0.0
O319 O 0.94958 0.4468 0.01797 0.0
O320 O 0.90763 0.4584 0.07762 0.0
O321 O 0.90837 0.43593 0.09462 0.0
O322 O 0.5935 0.48991 0.94815 0.0
Cd323 Cd 0.59486 0.50296 1.00716 0.0
Cd324 Cd 0.57262 0.47286 0.03853 0.0
O325 O 0.57668 0.46514 0.97531 0.0
O326 O 0.61628 0.5242 1.00546 0.0
O327 O 0.6107 0.50473 0.0568 0.0
C328 C 0.62105 0.51884 0.03975 0.0
C329 C 0.57344 0.46154 0.10978 0.0
C330 C 0.58535 0.47446 0.94252 0.0
C331 C 0.56087 0.49697 0.02715 0.0
O332 O 0.55722 0.48238 0.0366 0.0
O333 O 0.57555 0.50761 0.01658 0.0
O334 O 0.56176 0.45349 0.08061 0.0
O335 O 0.58521 0.47575 0.09735 0.0
O336 O 0.58395 0.82623 0.77874 0.0
Cd337 Cd 0.59558 0.83975 0.83719 0.0
Cd338 Cd 0.58837 0.81002 0.86982 0.0
O339 O 0.57683 0.80172 0.8065 0.0
O340 O 0.59457 0.86052 0.83526 0.0
O341 O 0.58148 0.84111 0.88745 0.0
C342 C 0.5847 0.85504 0.87013 0.0
C343 C 0.57644 0.79766 0.94047 0.0
C344 C 0.57711 0.81079 0.77346 0.0
C345 C 0.62416 0.83502 0.8579 0.0
O346 O 0.61342 0.82046 0.8684 0.0
O347 O 0.61983 0.84532 0.84607 0.0
O348 O 0.58131 0.79068 0.91117 0.0
O349 O 0.57746 0.81133 0.92848 0.0
O350 O 0.19827 0.76227 0.78294 0.0
Cd351 Cd 0.18359 0.76031 0.8386 0.0
Cd352 Cd 0.21285 0.78312 0.87405 0.0
O353 O 0.22225 0.78041 0.81204 0.0
O354 O 0.16324 0.73837 0.83202 0.0
O355 O 0.18036 0.74473 0.89082 0.0
C356 C 0.16731 0.73394 0.86966 0.0
C357 C 0.22477 0.78392 0.94584 0.0
C358 C 0.21371 0.77128 0.77879 0.0
C359 C 0.18761 0.79342 0.85715 0.0
O360 O 0.20192 0.79726 0.87052 0.0
O361 O 0.17765 0.77885 0.84392 0.0
O362 O 0.23168 0.79582 0.9167 0.0
O363 O 0.21138 0.77104 0.9332 0.0
O364 O 0.2595 0.44023 0.78839 0.0
Cd365 Cd 0.26145 0.42756 0.84414 0.0
Cd366 Cd 0.23885 0.43419 0.87971 0.0
O367 O 0.24133 0.44604 0.81738 0.0
O368 O 0.28325 0.42887 0.83704 0.0
O369 O 0.27726 0.43991 0.89592 0.0
C370 C 0.28788 0.43746 0.87453 0.0
C371 C 0.23899 0.44588 0.9513 0.0
C372 C 0.25045 0.44659 0.78413 0.0
C373 C 0.22824 0.39861 0.86362 0.0
O374 O 0.22449 0.40912 0.87722 0.0
O375 O 0.24275 0.40317 0.84987 0.0
O376 O 0.22682 0.4409 0.92308 0.0
O377 O 0.25158 0.44499 0.93783 0.0
O378 O 0.49805 0.91404 0.07249 0.0
Cd379 Cd 0.50957 0.92416 0.01017 0.0
Cd380 Cd 0.4787 0.91427 0.9857 0.0
O381 O 0.47243 0.90198 0.0483 0.0
O382 O 0.53101 0.92439 0.00925 0.0
O383 O 0.51039 0.90895 0.96263 0.0
C384 C 0.52498 0.91338 0.97722 0.0
C385 C 0.46683 0.90261 0.91443 0.0
C386 C 0.48279 0.90501 0.08046 0.0
C387 C 0.50183 0.95068 0.99298 0.0
O388 O 0.48713 0.939 0.9904 0.0
O389 O 0.51349 0.94759 0.99654 0.0
O390 O 0.45896 0.90592 0.94509 0.0
O391 O 0.48114 0.90499 0.92538 0.0
O392 O 0.10869 0.58775 0.0694 0.0
Cd393 Cd 0.09731 0.58971 0.01062 0.0
Cd394 Cd 0.10507 0.56734 0.97996 0.0
O395 O 0.11704 0.57121 0.04296 0.0
O396 O 0.09851 0.61152 0.01523 0.0
O397 O 0.11072 0.60543 0.95977 0.0
C398 C 0.10784 0.61609 0.97918 0.0
C399 C 0.11692 0.56684 0.90917 0.0
C400 C 0.11606 0.57971 0.07572 0.0
C401 C 0.06904 0.55633 0.99161 0.0
O402 O 0.07994 0.55261 0.98222 0.0
O403 O 0.07315 0.57103 1.00202 0.0
O404 O 0.11213 0.55505 0.9386 0.0
O405 O 0.11581 0.57946 0.92099 0.0
O406 O 0.43365 0.52618 0.07054 0.0
Cd407 Cd 0.43233 0.5126 0.01249 0.0
Cd408 Cd 0.45416 0.5427 0.98158 0.0
O409 O 0.44995 0.55102 0.04316 0.0
O410 O 0.41077 0.49168 0.01732 0.0
O411 O 0.41653 0.5097 0.96128 0.0
C412 C 0.40605 0.49617 0.98101 0.0
C413 C 0.45427 0.55415 0.9097 0.0
C414 C 0.44139 0.54165 0.07594 0.0
C415 C 0.46629 0.51879 0.99558 0.0
O416 O 0.46961 0.53332 0.98677 0.0
O417 O 0.45157 0.50774 1.00409 0.0
O418 O 0.46596 0.56177 0.93913 0.0
O419 O 0.44198 0.54026 0.92206 0.0
O420 O 0.11093 0.52649 0.57017 0.0
Cd421 Cd 0.09882 0.51324 0.51157 0.0
Cd422 Cd 0.10775 0.54349 0.48089 0.0
O423 O 0.12044 0.55144 0.54249 0.0
O424 O 0.09881 0.49196 0.5163 0.0
O425 O 0.11173 0.51007 0.46093 0.0
C426 C 0.10822 0.49637 0.4804 0.0
C427 C 0.1191 0.55349 0.40791 0.0
C428 C 0.11909 0.54194 0.57555 0.0
C429 C 0.07166 0.52049 0.49476 0.0
O430 O 0.08307 0.53501 0.48677 0.0
O431 O 0.07503 0.50916 0.50229 0.0
O432 O 0.11649 0.56236 0.43683 0.0
O433 O 0.11601 0.53916 0.42135 0.0
O434 O 0.49523 0.58851 0.57068 0.0
Cd435 Cd 0.50884 0.59024 0.51261 0.0
Cd436 Cd 0.4792 0.56751 0.48003 0.0
O437 O 0.47081 0.57076 0.54309 0.0
O438 O 0.52965 0.61198 0.51456 0.0
O439 O 0.51037 0.60563 0.46193 0.0
C440 C 0.52429 0.61633 0.47937 0.0
C441 C 0.46684 0.56703 0.40939 0.0
C442 C 0.4798 0.57976 0.57594 0.0
C443 C 0.50428 0.55692 0.49303 0.0
O444 O 0.48975 0.553 0.48193 0.0
O445 O 0.51448 0.57158 0.50483 0.0
O446 O 0.45992 0.55513 0.43856 0.0
O447 O 0.48047 0.57972 0.42145 0.0
O448 O 0.43416 0.91184 0.57436 0.0
Cd449 Cd 0.43281 0.92354 0.51534 0.0
Cd450 Cd 0.4552 0.91585 0.48408 0.0
O451 O 0.45111 0.90405 0.54728 0.0
O452 O 0.41134 0.92325 0.51665 0.0
O453 O 0.41712 0.90946 0.46543 0.0
C454 C 0.40669 0.91316 0.48225 0.0
C455 C 0.45453 0.9037 0.41287 0.0
C456 C 0.44237 0.90461 0.58002 0.0
C457 C 0.46673 0.95168 0.49564 0.0
O458 O 0.47048 0.9408 0.48616 0.0
O459 O 0.45203 0.94755 0.50613 0.0
O460 O 0.4662 0.90743 0.44214 0.0
O461 O 0.4427 0.90608 0.42513 0.0
O462 O 0.19803 0.43994 0.28804 0.0
Cd463 Cd 0.18328 0.42693 0.34323 0.0
Cd464 Cd 0.21243 0.43348 0.3791 0.0
O465 O 0.22195 0.44566 0.31727 0.0
O466 O 0.16278 0.42823 0.33624 0.0
O467 O 0.17967 0.43899 0.39554 0.0
C468 C 0.16665 0.43665 0.37404 0.0
C469 C 0.22382 0.44494 0.45105 0.0
C470 C 0.21347 0.44636 0.28406 0.0
C471 C 0.18761 0.39794 0.36137 0.0
O472 O 0.2018 0.40842 0.37554 0.0
O473 O 0.17766 0.40253 0.34781 0.0
O474 O 0.23108 0.44007 0.42276 0.0
O475 O 0.21034 0.44404 0.43754 0.0
O476 O 0.58312 0.76208 0.27822 0.0
Cd477 Cd 0.59487 0.76009 0.33625 0.0
Cd478 Cd 0.58826 0.78299 0.36922 0.0
O479 O 0.57651 0.77981 0.3063 0.0
O480 O 0.59358 0.73819 0.33423 0.0
O481 O 0.58082 0.74478 0.38684 0.0
C482 C 0.58385 0.73395 0.36939 0.0
C483 C 0.57671 0.78377 0.44026 0.0
C484 C 0.57649 0.77088 0.27322 0.0
C485 C 0.62387 0.79321 0.35596 0.0
O486 O 0.61334 0.79727 0.36691 0.0
O487 O 0.61926 0.7785 0.34426 0.0
O488 O 0.58166 0.79559 0.41086 0.0
O489 O 0.57745 0.77096 0.42821 0.0
O490 O 0.26042 0.82625 0.28429 0.0
Cd491 Cd 0.2624 0.83986 0.3426 0.0
Cd492 Cd 0.23984 0.81024 0.37564 0.0
O493 O 0.24291 0.80182 0.3123 0.0
O494 O 0.28421 0.86063 0.34051 0.0
O495 O 0.27791 0.84124 0.39274 0.0
C496 C 0.28862 0.85516 0.37534 0.0
C497 C 0.23982 0.79814 0.44642 0.0
C498 C 0.2517 0.81081 0.27915 0.0
C499 C 0.22907 0.83521 0.36332 0.0
O500 O 0.22522 0.82068 0.37427 0.0
O501 O 0.24371 0.84544 0.35129 0.0
O502 O 0.22782 0.79103 0.41762 0.0
O503 O 0.25235 0.81182 0.4339 0.0
H504 H 0.22334 0.09187 0.83852 0.0
H505 H 0.24316 0.14342 0.81244 0.0
H506 H 0.21872 0.09596 0.9193 0.0
H507 H 0.23978 0.14783 0.89313 0.0
H508 H 0.23005 0.15444 0.03781 0.0
H509 H 0.22501 0.14625 0.95679 0.0
H510 H 0.2328 0.10569 0.98682 0.0
H511 H 0.23647 0.11323 0.068 0.0
C512 C 0.22663 0.10406 0.85006 0.0
C513 C 0.23365 0.11732 0.81916 0.0
C514 C 0.22415 0.10648 0.89657 0.0
C515 C 0.22905 0.1223 0.91358 0.0
C516 C 0.23551 0.13541 0.88186 0.0
C517 C 0.23759 0.13291 0.83528 0.0
C518 C 0.23026 0.14354 0.02705 0.0
C519 C 0.23372 0.13452 0.05914 0.0
C520 C 0.22757 0.13891 0.98041 0.0
C521 C 0.22885 0.12547 0.96439 0.0
C522 C 0.23148 0.11598 0.99728 0.0
C523 C 0.23369 0.12035 0.04411 0.0
H524 H 0.87744 0.10706 0.8182 0.0
H525 H 0.9288 0.13993 0.84459 0.0
H526 H 0.87327 0.09887 0.89856 0.0
H527 H 0.92487 0.13102 0.92529 0.0
H528 H 0.9058 0.1298 0.07419 0.0
H529 H 0.91395 0.13462 0.99332 0.0
H530 H 0.87621 0.0852 0.96023 0.0
H531 H 0.86744 0.08089 0.0408 0.0
C532 C 0.88797 0.11225 0.841 0.0
C533 C 0.90344 0.12425 0.82499 0.0
C534 C 0.88561 0.10742 0.88735 0.0
C535 C 0.89871 0.11426 0.91904 0.0
C536 C 0.9144 0.12569 0.90236 0.0
C537 C 0.9167 0.13072 0.85594 0.0
C538 C 0.89947 0.11987 0.04974 0.0
C539 C 0.88585 0.10504 0.06371 0.0
C540 C 0.90418 0.1226 1.00316 0.0
C541 C 0.89557 0.11043 0.96957 0.0
C542 C 0.88282 0.09509 0.98456 0.0
C543 C 0.87787 0.09252 0.03091 0.0
H544 H 0.90261 0.79406 0.07953 0.0
H545 H 0.93313 0.77484 0.03209 0.0
H546 H 0.89799 0.79893 0.99935 0.0
H547 H 0.92805 0.77906 0.95265 0.0
H548 H 0.92297 0.79287 0.81094 0.0
H549 H 0.9318 0.79681 0.89143 0.0
H550 H 0.88271 0.78303 0.93493 0.0
H551 H 0.87414 0.77988 0.85422 0.0
C552 C 0.90851 0.79107 0.05211 0.0
C553 C 0.91816 0.78395 0.06238 0.0
C554 C 0.90574 0.79373 1.00605 0.0
C555 C 0.91251 0.78928 0.9692 0.0
C556 C 0.92279 0.7829 0.9798 0.0
C557 C 0.92563 0.78035 0.02565 0.0
C558 C 0.91415 0.79101 0.8377 0.0
C559 C 0.89782 0.7859 0.82625 0.0
C560 C 0.91918 0.79314 0.88395 0.0
C561 C 0.90792 0.78993 0.92002 0.0
C562 C 0.89179 0.78576 0.90831 0.0
C563 C 0.88683 0.78387 0.86193 0.0
H564 H 0.11896 0.23329 0.44151 0.0
H565 H 0.15966 0.226 0.4716 0.0
H566 H 0.11144 0.22971 0.52276 0.0
H567 H 0.15149 0.22112 0.55265 0.0
H568 H 0.14951 0.24032 0.69611 0.0
H569 H 0.15362 0.23666 0.61542 0.0
H570 H 0.10165 0.21551 0.59066 0.0
H571 H 0.09783 0.22032 0.67156 0.0
C572 C 0.12596 0.23034 0.46538 0.0
C573 C 0.14001 0.23012 0.45036 0.0
C574 C 0.12161 0.22819 0.5122 0.0
C575 C 0.13099 0.2254 0.54503 0.0
C576 C 0.14426 0.22382 0.529 0.0
C577 C 0.14887 0.22642 0.48237 0.0
C578 C 0.13891 0.23468 0.67361 0.0
C579 C 0.12337 0.23074 0.69016 0.0
C580 C 0.14123 0.23243 0.62706 0.0
C581 C 0.128 0.22582 0.59579 0.0
C582 C 0.11224 0.22099 0.61314 0.0
C583 C 0.10999 0.2236 0.65968 0.0
H584 H 0.80283 0.90041 0.44298 0.0
H585 H 0.77996 0.92801 0.48702 0.0
H586 H 0.80757 0.89638 0.52378 0.0
H587 H 0.78422 0.9236 0.56724 0.0
H588 H 0.79878 0.92004 0.71036 0.0
H589 H 0.80246 0.92872 0.6297 0.0
H590 H 0.79093 0.88019 0.587 0.0
H591 H 0.78782 0.87172 0.66773 0.0
C592 C 0.79902 0.90582 0.46979 0.0
C593 C 0.79089 0.91443 0.45838 0.0
C594 C 0.80162 0.90339 0.51619 0.0
C595 C 0.79615 0.90951 0.55225 0.0
C596 C 0.7888 0.91885 0.54062 0.0
C597 C 0.78625 0.9213 0.49438 0.0
C598 C 0.79734 0.91131 0.68379 0.0
C599 C 0.79284 0.89514 0.69548 0.0
C600 C 0.79934 0.91626 0.63745 0.0
C601 C 0.79675 0.90511 0.60159 0.0
C602 C 0.79318 0.88918 0.61353 0.0
C603 C 0.79131 0.88428 0.65994 0.0
H604 H 0.14 0.92538 0.67853 0.0
H605 H 0.10826 0.87381 0.70423 0.0
H606 H 0.1313 0.92138 0.59776 0.0
H607 H 0.10047 0.86947 0.62355 0.0
H608 H 0.08433 0.86292 0.47881 0.0
H609 H 0.08734 0.8711 0.55982 0.0
H610 H 0.13572 0.91171 0.53023 0.0
H611 H 0.13199 0.90419 0.44905 0.0
C612 C 0.13108 0.9132 0.66691 0.0
C613 C 0.12485 0.89991 0.69769 0.0
C614 C 0.12619 0.91083 0.6204 0.0
C615 C 0.11528 0.89503 0.60328 0.0
C616 C 0.10862 0.88189 0.6349 0.0
C617 C 0.1132 0.88434 0.68148 0.0
C618 C 0.09541 0.87383 0.48965 0.0
C619 C 0.10794 0.88287 0.4577 0.0
C620 C 0.09727 0.87845 0.53629 0.0
C621 C 0.11197 0.8919 0.55245 0.0
C622 C 0.12412 0.90141 0.51967 0.0
C623 C 0.12204 0.89705 0.47284 0.0
H624 H 0.78808 0.91952 0.16744 0.0
H625 H 0.8004 0.88314 0.21012 0.0
H626 H 0.79155 0.91444 0.08678 0.0
H627 H 0.80449 0.87846 0.12948 0.0
H628 H 0.78224 0.85621 0.98693 0.0
H629 H 0.7866 0.86497 0.06704 0.0
H630 H 0.80818 0.91538 0.02333 0.0
H631 H 0.80328 0.9065 0.94261 0.0
C632 C 0.79196 0.91074 0.15967 0.0
C633 C 0.79375 0.90158 0.19521 0.0
C634 C 0.79404 0.90787 0.11329 0.0
C635 C 0.7981 0.89586 0.10133 0.0
C636 C 0.80099 0.88752 0.13722 0.0
C637 C 0.79875 0.89028 0.18355 0.0
C638 C 0.78818 0.86921 0.9942 0.0
C639 C 0.79222 0.88062 0.95817 0.0
C640 C 0.79079 0.87427 0.04039 0.0
C641 C 0.79763 0.89091 0.05196 0.0
C642 C 0.80261 0.90244 0.01581 0.0
C643 C 0.79993 0.89736 0.96945 0.0
H644 H 0.14009 0.92086 0.21046 0.0
H645 H 0.10272 0.8725 0.16814 0.0
H646 H 0.14503 0.92949 0.12975 0.0
H647 H 0.10804 0.8809 0.08737 0.0
H648 H 0.11648 0.90085 0.94319 0.0
H649 H 0.10764 0.89698 0.02392 0.0
H650 H 0.15819 0.9243 0.06762 0.0
H651 H 0.16693 0.92857 0.98747 0.0
C652 C 0.13279 0.91212 0.18394 0.0
C653 C 0.12113 0.89594 0.19571 0.0
C654 C 0.13569 0.91703 0.13759 0.0
C655 C 0.12714 0.90584 0.10182 0.0
C656 C 0.11479 0.88992 0.11384 0.0
C657 C 0.11178 0.88506 0.16026 0.0
C658 C 0.12568 0.90631 0.97004 0.0
C659 C 0.14243 0.91491 0.95874 0.0
C660 C 0.12061 0.90398 0.01639 0.0
C661 C 0.13218 0.91018 0.05249 0.0
C662 C 0.14887 0.9195 0.04095 0.0
C663 C 0.15392 0.92186 0.99476 0.0
H664 H 0.13349 0.23278 0.94178 0.0
H665 H 0.08466 0.22336 0.9707 0.0
H666 H 0.13724 0.22886 0.02289 0.0
H667 H 0.08781 0.21816 0.05156 0.0
H668 H 0.10835 0.23774 0.1956 0.0
H669 H 0.10062 0.23377 0.11488 0.0
H670 H 0.13308 0.2145 0.09045 0.0
H671 H 0.14162 0.21961 0.17136 0.0
C672 C 0.12332 0.22927 0.96531 0.0
C673 C 0.10886 0.22858 0.95005 0.0
C674 C 0.12543 0.22693 0.01206 0.0
C675 C 0.11296 0.22348 0.04456 0.0
C676 C 0.09794 0.22137 0.02819 0.0
C677 C 0.09601 0.22415 0.98165 0.0
C678 C 0.11367 0.23243 0.17318 0.0
C679 C 0.12571 0.22914 0.18981 0.0
C680 C 0.10912 0.23 0.12661 0.0
C681 C 0.11624 0.22387 0.0954 0.0
C682 C 0.12758 0.21962 0.11288 0.0
C683 C 0.1324 0.22239 0.15943 0.0
H684 H 0.87961 0.77825 0.31816 0.0
H685 H 0.93061 0.79483 0.34419 0.0
H686 H 0.87572 0.78234 0.39874 0.0
H687 H 0.92705 0.79996 0.42501 0.0
H688 H 0.90806 0.78219 0.57366 0.0
H689 H 0.91607 0.78565 0.49271 0.0
H690 H 0.87902 0.79848 0.46153 0.0
H691 H 0.87034 0.79384 0.54219 0.0
C692 C 0.89014 0.78322 0.34093 0.0
C693 C 0.90539 0.78608 0.32476 0.0
C694 C 0.88795 0.78572 0.38743 0.0
C695 C 0.90104 0.79145 0.4191 0.0
C696 C 0.91656 0.79519 0.40218 0.0
C697 C 0.91867 0.7924 0.35567 0.0
C698 C 0.90187 0.78609 0.54963 0.0
C699 C 0.88845 0.78755 0.56417 0.0
C700 C 0.9065 0.78814 0.50297 0.0
C701 C 0.89802 0.79205 0.46982 0.0
C702 C 0.88551 0.79491 0.48544 0.0
C703 C 0.88063 0.79245 0.53187 0.0
H704 H 0.24649 0.08847 0.52896 0.0
H705 H 0.22377 0.11613 0.57384 0.0
H706 H 0.24195 0.09278 0.44892 0.0
H707 H 0.21873 0.12004 0.49322 0.0
H708 H 0.23823 0.14464 0.34905 0.0
H709 H 0.23514 0.13616 0.42975 0.0
H710 H 0.22358 0.08763 0.38693 0.0
H711 H 0.22728 0.09634 0.3063 0.0
C712 C 0.24017 0.09517 0.52183 0.0
C713 C 0.23567 0.1021 0.55798 0.0
C714 C 0.23745 0.09756 0.4757 0.0
C715 C 0.23005 0.10687 0.46435 0.0
C716 C 0.22471 0.11304 0.5006 0.0
C717 C 0.22749 0.11069 0.54689 0.0
C718 C 0.23473 0.13208 0.35682 0.0
C719 C 0.23322 0.12123 0.32128 0.0
C720 C 0.23287 0.12716 0.4032 0.0
C721 C 0.22933 0.11124 0.41508 0.0
C722 C 0.22669 0.10009 0.37921 0.0
C723 C 0.22871 0.10505 0.3329 0.0
H724 H 0.89072 0.11536 0.57405 0.0
H725 H 0.9405 0.15202 0.54219 0.0
H726 H 0.88606 0.10702 0.49329 0.0
H727 H 0.9363 0.14303 0.46181 0.0
H728 H 0.91552 0.14272 0.31853 0.0
H729 H 0.92345 0.14667 0.39912 0.0
H730 H 0.88938 0.0955 0.42601 0.0
H731 H 0.88078 0.09183 0.34505 0.0
C732 C 0.90085 0.12125 0.55001 0.0
C733 C 0.91591 0.13449 0.56431 0.0
C734 C 0.89822 0.11643 0.5035 0.0
C735 C 0.91069 0.12454 0.47034 0.0
C736 C 0.9262 0.13684 0.48577 0.0
C737 C 0.9287 0.1419 0.53202 0.0
C738 C 0.90987 0.13223 0.34141 0.0
C739 C 0.89741 0.11699 0.32536 0.0
C740 C 0.91453 0.13446 0.38791 0.0
C741 C 0.90706 0.12144 0.41971 0.0
C742 C 0.8952 0.10593 0.40299 0.0
C743 C 0.89035 0.10377 0.35642 0.0
H744 H 0.90701 0.43087 0.18317 0.0
H745 H 0.89299 0.46603 0.14079 0.0
H746 H 0.9043 0.43643 0.264 0.0
H747 H 0.88956 0.47111 0.22158 0.0
H748 H 0.91255 0.4949 0.36145 0.0
H749 H 0.90783 0.48545 0.28204 0.0
H750 H 0.88849 0.43563 0.32903 0.0
H751 H 0.89382 0.44526 0.40907 0.0
C752 C 0.9029 0.43946 0.1911 0.0
C753 C 0.90044 0.44817 0.15557 0.0
C754 C 0.90126 0.44261 0.23758 0.0
C755 C 0.89694 0.45443 0.2496 0.0
C756 C 0.89333 0.46225 0.21379 0.0
C757 C 0.89517 0.45924 0.16738 0.0
C758 C 0.90706 0.48188 0.35508 0.0
C759 C 0.90374 0.47088 0.39181 0.0
C760 C 0.90422 0.47641 0.30927 0.0
C761 C 0.89785 0.45974 0.29878 0.0
C762 C 0.89368 0.44859 0.33567 0.0
C763 C 0.89662 0.4541 0.38165 0.0
H764 H 0.59108 0.47856 0.18567 0.0
H765 H 0.55307 0.43067 0.14222 0.0
H766 H 0.58558 0.46991 0.26623 0.0
H767 H 0.54798 0.42175 0.22265 0.0
H768 H 0.52603 0.42249 0.36471 0.0
H769 H 0.53498 0.42689 0.2848 0.0
H770 H 0.58544 0.45364 0.32958 0.0
H771 H 0.57638 0.44967 0.41012 0.0
C772 C 0.58185 0.46603 0.19325 0.0
C773 C 0.57236 0.45537 0.15758 0.0
C774 C 0.57873 0.46102 0.23956 0.0
C775 C 0.56614 0.44517 0.25122 0.0
C776 C 0.55749 0.43417 0.21515 0.0
C777 C 0.56048 0.43924 0.16894 0.0
C778 C 0.53906 0.42909 0.35772 0.0
C779 C 0.55046 0.43587 0.394 0.0
C780 C 0.54423 0.43154 0.31164 0.0
C781 C 0.56097 0.44074 0.30044 0.0
C782 C 0.57244 0.44674 0.33681 0.0
C783 C 0.56725 0.44435 0.38306 0.0
H784 H 0.56232 0.11801 0.40207 0.0
H785 H 0.60929 0.12317 0.36925 0.0
H786 H 0.55794 0.12127 0.32096 0.0
H787 H 0.6056 0.12773 0.28825 0.0
H788 H 0.58335 0.10902 0.14547 0.0
H789 H 0.59157 0.11254 0.22581 0.0
H790 H 0.56219 0.13514 0.25276 0.0
H791 H 0.55307 0.13046 0.1723 0.0
C792 C 0.57198 0.12042 0.3776 0.0
C793 C 0.58608 0.12016 0.39195 0.0
C794 C 0.56951 0.12238 0.33082 0.0
C795 C 0.58127 0.12451 0.29723 0.0
C796 C 0.59597 0.12555 0.31247 0.0
C797 C 0.59822 0.12314 0.35909 0.0
C798 C 0.57881 0.11495 0.16838 0.0
C799 C 0.56746 0.11935 0.15254 0.0
C800 C 0.58364 0.11711 0.21475 0.0
C801 C 0.57755 0.12408 0.24659 0.0
C802 C 0.56688 0.12935 0.22991 0.0
C803 C 0.56175 0.12683 0.18358 0.0
H804 H 0.78591 0.56795 0.78151 0.0
H805 H 0.82688 0.56111 0.81164 0.0
H806 H 0.77834 0.56424 0.86268 0.0
H807 H 0.81868 0.5561 0.89265 0.0
H808 H 0.81594 0.57443 0.03689 0.0
H809 H 0.82039 0.57116 0.95613 0.0
H810 H 0.76847 0.5498 0.93 0.0
H811 H 0.76432 0.55423 0.01091 0.0
C812 C 0.79298 0.56509 0.80538 0.0
C813 C 0.8071 0.56501 0.79034 0.0
C814 C 0.78859 0.56286 0.85217 0.0
C815 C 0.798 0.56011 0.88501 0.0
C816 C 0.8114 0.55874 0.86901 0.0
C817 C 0.81604 0.56142 0.82239 0.0
C818 C 0.80543 0.56882 0.01405 0.0
C819 C 0.7898 0.56472 0.03022 0.0
C820 C 0.80795 0.5668 0.96745 0.0
C821 C 0.79483 0.56027 0.93578 0.0
C822 C 0.77899 0.55526 0.95277 0.0
C823 C 0.77654 0.55764 0.99933 0.0
H824 H 0.4512 0.22106 0.78107 0.0
H825 H 0.46157 0.27002 0.81285 0.0
H826 H 0.45495 0.21669 0.86193 0.0
H827 H 0.46648 0.26618 0.89342 0.0
H828 H 0.44655 0.24483 0.03657 0.0
H829 H 0.45039 0.25287 0.95609 0.0
H830 H 0.46971 0.2206 0.92933 0.0
H831 H 0.46485 0.21182 0.01012 0.0
C832 C 0.45485 0.23111 0.80516 0.0
C833 C 0.45588 0.24581 0.79076 0.0
C834 C 0.45708 0.22864 0.85174 0.0
C835 C 0.46074 0.24096 0.88491 0.0
C836 C 0.46313 0.25617 0.86945 0.0
C837 C 0.4605 0.25848 0.8231 0.0
C838 C 0.45184 0.23961 0.01373 0.0
C839 C 0.45525 0.22757 0.02973 0.0
C840 C 0.4542 0.24433 0.9673 0.0
C841 C 0.46032 0.23738 0.93554 0.0
C842 C 0.46463 0.226 0.95228 0.0
C843 C 0.46199 0.22105 0.99875 0.0
H844 H 0.79898 0.23717 0.77957 0.0
H845 H 0.75147 0.19569 0.80946 0.0
H846 H 0.80281 0.24454 0.86085 0.0
H847 H 0.75458 0.20371 0.89063 0.0
H848 H 0.77556 0.20653 0.03496 0.0
H849 H 0.76782 0.20216 0.95422 0.0
H850 H 0.79838 0.25411 0.92852 0.0
H851 H 0.80705 0.25815 0.00932 0.0
C852 C 0.78909 0.22995 0.80343 0.0
C853 C 0.775 0.21576 0.78826 0.0
C854 C 0.79123 0.23422 0.85032 0.0
C855 C 0.77914 0.22462 0.88317 0.0
C856 C 0.76446 0.21114 0.86704 0.0
C857 C 0.76254 0.20661 0.82032 0.0
C858 C 0.78046 0.21706 0.0122 0.0
C859 C 0.79202 0.23266 0.02845 0.0
C860 C 0.77591 0.21459 0.9656 0.0
C861 C 0.78249 0.22773 0.934 0.0
C862 C 0.79333 0.24355 0.95114 0.0
C863 C 0.7982 0.24595 0.99767 0.0
H864 H 0.46443 0.25796 0.5099 0.0
H865 H 0.44651 0.20674 0.53671 0.0
H866 H 0.46911 0.25397 0.42901 0.0
H867 H 0.45018 0.20247 0.45613 0.0
H868 H 0.46132 0.1965 0.31266 0.0
H869 H 0.46618 0.20527 0.39323 0.0
H870 H 0.45428 0.24297 0.36181 0.0
H871 H 0.45057 0.23484 0.28094 0.0
C872 C 0.46161 0.24588 0.49858 0.0
C873 C 0.45504 0.23267 0.52971 0.0
C874 C 0.46414 0.24353 0.45205 0.0
C875 C 0.4599 0.22784 0.43539 0.0
C876 C 0.45393 0.21481 0.46727 0.0
C877 C 0.45168 0.21723 0.51376 0.0
C878 C 0.46014 0.20692 0.32293 0.0
C879 C 0.45545 0.2149 0.29059 0.0
C880 C 0.46275 0.21187 0.36928 0.0
C881 C 0.46026 0.22463 0.38476 0.0
C882 C 0.45649 0.23321 0.3516 0.0
C883 C 0.45428 0.2285 0.30502 0.0
H884 H 0.76922 0.20612 0.49848 0.0
H885 H 0.80652 0.25448 0.54104 0.0
H886 H 0.77453 0.21458 0.41777 0.0
H887 H 0.81144 0.26317 0.46037 0.0
H888 H 0.83355 0.26217 0.31843 0.0
H889 H 0.82469 0.25803 0.39845 0.0
H890 H 0.7742 0.2306 0.35419 0.0
H891 H 0.78317 0.23434 0.27359 0.0
C892 C 0.77825 0.21869 0.49067 0.0
C893 C 0.78761 0.22955 0.52615 0.0
C894 C 0.78126 0.22359 0.44428 0.0
C895 C 0.7936 0.23952 0.43232 0.0
C896 C 0.80212 0.2507 0.46815 0.0
C897 C 0.79922 0.24575 0.51448 0.0
C898 C 0.82053 0.25548 0.32556 0.0
C899 C 0.8091 0.24843 0.28944 0.0
C900 C 0.81541 0.25318 0.37168 0.0
C901 C 0.7987 0.24386 0.38304 0.0
C902 C 0.78719 0.23761 0.3468 0.0
C903 C 0.79233 0.23986 0.30053 0.0
H904 H 0.7753 0.57366 0.53649 0.0
H905 H 0.8068 0.55351 0.51128 0.0
H906 H 0.76732 0.56989 0.45597 0.0
H907 H 0.79794 0.54856 0.43062 0.0
H908 H 0.79855 0.56651 0.28176 0.0
H909 H 0.80239 0.56275 0.36289 0.0
H910 H 0.7539 0.5546 0.39292 0.0
H911 H 0.75073 0.55966 0.31195 0.0
C912 C 0.78016 0.56795 0.5139 0.0
C913 C 0.7918 0.56403 0.53019 0.0
C914 C 0.77546 0.56563 0.46744 0.0
C915 C 0.782 0.55898 0.43601 0.0
C916 C 0.79291 0.55411 0.45319 0.0
C917 C 0.79791 0.55679 0.4996 0.0
C918 C 0.7886 0.56361 0.30561 0.0
C919 C 0.77442 0.56357 0.29064 0.0
C920 C 0.79075 0.56136 0.35239 0.0
C921 C 0.77859 0.55864 0.38525 0.0
C922 C 0.76382 0.55723 0.36926 0.0
C923 C 0.76187 0.55994 0.32267 0.0
H924 H 0.55614 0.12845 0.63975 0.0
H925 H 0.59147 0.11477 0.68306 0.0
H926 H 0.55117 0.13225 0.72034 0.0
H927 H 0.58602 0.11784 0.7637 0.0
H928 H 0.57732 0.12873 0.90826 0.0
H929 H 0.58685 0.13384 0.82813 0.0
H930 H 0.53696 0.11436 0.78146 0.0
H931 H 0.52762 0.10988 0.86094 0.0
C932 C 0.56298 0.12642 0.6665 0.0
C933 C 0.57408 0.12114 0.65502 0.0
C934 C 0.56005 0.12848 0.7128 0.0
C935 C 0.56794 0.12507 0.74885 0.0
C936 C 0.57977 0.12073 0.73711 0.0
C937 C 0.58286 0.11888 0.69073 0.0
C938 C 0.56845 0.12587 0.88089 0.0
C939 C 0.55167 0.11876 0.89116 0.0
C940 C 0.57389 0.12867 0.83485 0.0
C941 C 0.5627 0.12438 0.79802 0.0
C942 C 0.54604 0.11805 0.80863 0.0
C943 C 0.54063 0.11536 0.85448 0.0
H944 H 0.91267 0.43902 0.64632 0.0
H945 H 0.8913 0.46942 0.67221 0.0
H946 H 0.90876 0.43066 0.72653 0.0
H947 H 0.88622 0.46015 0.75252 0.0
H948 H 0.90297 0.45984 0.90232 0.0
H949 H 0.89985 0.46428 0.82115 0.0
H950 H 0.89328 0.41657 0.78849 0.0
H951 H 0.89772 0.41284 0.86956 0.0
C952 C 0.90667 0.44356 0.66898 0.0
C953 C 0.90241 0.45499 0.65294 0.0
C954 C 0.90428 0.43864 0.71527 0.0
C955 C 0.89721 0.44472 0.74681 0.0
C956 C 0.89207 0.45546 0.7299 0.0
C957 C 0.89482 0.46068 0.68366 0.0
C958 C 0.90055 0.45018 0.87785 0.0
C959 C 0.90076 0.43607 0.89221 0.0
C960 C 0.89868 0.45268 0.83103 0.0
C961 C 0.89658 0.44094 0.79745 0.0
C962 C 0.89544 0.4262 0.81272 0.0
C963 C 0.89778 0.42392 0.85938 0.0
H964 H 0.58466 0.47632 0.64888 0.0
H965 H 0.55067 0.42526 0.67537 0.0
H966 H 0.59232 0.48049 0.7297 0.0
H967 H 0.55914 0.42907 0.75637 0.0
H968 H 0.55951 0.44753 0.9045 0.0
H969 H 0.55537 0.43973 0.82345 0.0
H970 H 0.60497 0.47785 0.79353 0.0
H971 H 0.60852 0.48633 0.87433 0.0
C972 C 0.57916 0.46584 0.67184 0.0
C973 C 0.56695 0.45049 0.65576 0.0
C974 C 0.58366 0.46819 0.71848 0.0
C975 C 0.57633 0.45516 0.75034 0.0
C976 C 0.5648 0.43954 0.73346 0.0
C977 C 0.56003 0.43727 0.68684 0.0
C978 C 0.56962 0.45404 0.88069 0.0
C979 C 0.58427 0.46765 0.89564 0.0
C980 C 0.56729 0.44952 0.83396 0.0
C981 C 0.57971 0.45829 0.80113 0.0
C982 C 0.59487 0.4711 0.81713 0.0
C983 C 0.59702 0.47588 0.86364 0.0
H984 H 0.57592 0.78357 0.73685 0.0
H985 H 0.56599 0.82239 0.70416 0.0
H986 H 0.57231 0.7754 0.656 0.0
H987 H 0.56123 0.81361 0.6236 0.0
H988 H 0.58091 0.81166 0.48056 0.0
H989 H 0.57728 0.81611 0.56104 0.0
H990 H 0.55752 0.76452 0.58862 0.0
H991 H 0.56215 0.76032 0.50783 0.0
C992 C 0.57241 0.79002 0.71256 0.0
C993 C 0.57144 0.80375 0.72674 0.0
C994 C 0.57026 0.78529 0.66598 0.0
C995 C 0.56675 0.79399 0.63257 0.0
C996 C 0.56446 0.80691 0.64776 0.0
C997 C 0.56701 0.81187 0.69412 0.0
C998 C 0.57557 0.80119 0.50359 0.0
C999 C 0.57195 0.78566 0.4878 0.0
C1000 C 0.57335 0.80372 0.55002 0.0
C1001 C 0.56714 0.79071 0.58199 0.0
C1002 C 0.56266 0.77494 0.5655 0.0
C1003 C 0.56517 0.77247 0.51902 0.0
H1004 H 0.26363 0.80808 0.51334 0.0
H1005 H 0.21266 0.77351 0.48719 0.0
H1006 H 0.26007 0.79933 0.59413 0.0
H1007 H 0.20882 0.76544 0.56766 0.0
H1008 H 0.20355 0.74825 0.71046 0.0
H1009 H 0.21247 0.75248 0.63002 0.0
H1010 H 0.24871 0.80261 0.66174 0.0
H1011 H 0.24044 0.79793 0.74252 0.0
C1012 C 0.2517 0.79852 0.52475 0.0
C1013 C 0.23842 0.79155 0.49386 0.0
C1014 C 0.2496 0.79358 0.57123 0.0
C1015 C 0.2341 0.78172 0.58803 0.0
C1016 C 0.22103 0.77435 0.55637 0.0
C1017 C 0.22319 0.7791 0.50995 0.0
C1018 C 0.21372 0.76003 0.70033 0.0
C1019 C 0.2212 0.77279 0.7327 0.0
C1020 C 0.21874 0.76255 0.65405 0.0
C1021 C 0.23107 0.77804 0.63866 0.0
C1022 C 0.23927 0.79047 0.67189 0.0
C1023 C 0.23449 0.78781 0.71843 0.0
H1024 H 0.21345 0.4586 0.5175 0.0
H1025 H 0.24826 0.44239 0.49293 0.0
H1026 H 0.22203 0.46396 0.59846 0.0
H1027 H 0.25618 0.44682 0.5735 0.0
H1028 H 0.27345 0.45954 0.71584 0.0
H1029 H 0.26912 0.46389 0.6352 0.0
H1030 H 0.21884 0.44952 0.66664 0.0
H1031 H 0.22362 0.44626 0.74762 0.0
C1032 C 0.22301 0.4563 0.5293 0.0
C1033 C 0.23012 0.45001 0.49879 0.0
C1034 C 0.22786 0.45925 0.57585 0.0
C1035 C 0.23977 0.45576 0.59308 0.0
C1036 C 0.24723 0.45001 0.56184 0.0
C1037 C 0.24257 0.44731 0.51538 0.0
C1038 C 0.26162 0.45775 0.7056 0.0
C1039 C 0.24885 0.45244 0.73793 0.0
C1040 C 0.25904 0.46006 0.65922 0.0
C1041 C 0.24348 0.45665 0.64373 0.0
C1042 C 0.23103 0.4524 0.6769 0.0
C1043 C 0.23374 0.45047 0.72353 0.0
H1044 H 0.4512 0.88757 0.11303 0.0
H1045 H 0.50164 0.91096 0.15766 0.0
H1046 H 0.44231 0.88292 0.19374 0.0
H1047 H 0.49287 0.90685 0.23773 0.0
H1048 H 0.47502 0.89327 0.38091 0.0
H1049 H 0.48003 0.88912 0.30067 0.0
H1050 H 0.44225 0.8993 0.25638 0.0
H1051 H 0.43683 0.90279 0.33678 0.0
C1052 C 0.46039 0.89152 0.13996 0.0
C1053 C 0.47715 0.89976 0.12874 0.0
C1054 C 0.4553 0.88897 0.18631 0.0
C1055 C 0.46684 0.89464 0.2225 0.0
C1056 C 0.48356 0.9021 0.21105 0.0
C1057 C 0.48863 0.90457 0.16488 0.0
C1058 C 0.46756 0.89429 0.35408 0.0
C1059 C 0.45565 0.89853 0.36519 0.0
C1060 C 0.47051 0.89203 0.30797 0.0
C1061 C 0.46177 0.89416 0.27174 0.0
C1062 C 0.44916 0.89742 0.28318 0.0
C1063 C 0.44609 0.8995 0.32939 0.0
H1064 H 0.13018 0.56192 0.10586 0.0
H1065 H 0.11427 0.59514 0.15348 0.0
H1066 H 0.13531 0.55737 0.18588 0.0
H1067 H 0.11871 0.59015 0.23278 0.0
H1068 H 0.13249 0.58458 0.37405 0.0
H1069 H 0.1364 0.59305 0.29322 0.0
H1070 H 0.11944 0.54309 0.25129 0.0
H1071 H 0.11633 0.53486 0.33224 0.0
C1072 C 0.12798 0.56842 0.13326 0.0
C1073 C 0.12169 0.5788 0.12312 0.0
C1074 C 0.13078 0.5657 0.17924 0.0
C1075 C 0.12729 0.57325 0.21614 0.0
C1076 C 0.12179 0.58426 0.20559 0.0
C1077 C 0.11911 0.58705 0.15982 0.0
C1078 C 0.12992 0.57548 0.34755 0.0
C1079 C 0.12394 0.55903 0.35952 0.0
C1080 C 0.13204 0.5803 0.3011 0.0
C1081 C 0.12794 0.56873 0.26539 0.0
C1082 C 0.12287 0.55242 0.2776 0.0
C1083 C 0.121 0.54765 0.32415 0.0
H1084 H 0.41836 0.5291 0.14438 0.0
H1085 H 0.46659 0.56926 0.11343 0.0
H1086 H 0.42185 0.53749 0.22526 0.0
H1087 H 0.47068 0.57702 0.19455 0.0
H1088 H 0.44351 0.5392 0.36805 0.0
H1089 H 0.43546 0.53514 0.28758 0.0
H1090 H 0.46638 0.58706 0.26263 0.0
H1091 H 0.47523 0.59086 0.34333 0.0
C1092 C 0.42965 0.53984 0.15489 0.0
C1093 C 0.44224 0.54845 0.12269 0.0
C1094 C 0.43177 0.54457 0.20142 0.0
C1095 C 0.44673 0.55773 0.21719 0.0
C1096 C 0.45892 0.56693 0.18416 0.0
C1097 C 0.45662 0.56244 0.13742 0.0
C1098 C 0.44843 0.54981 0.3456 0.0
C1099 C 0.46013 0.56533 0.36205 0.0
C1100 C 0.44369 0.54751 0.29917 0.0
C1101 C 0.45027 0.56074 0.2679 0.0
C1102 C 0.46129 0.57648 0.28515 0.0
C1103 C 0.46628 0.57872 0.33158 0.0
H1104 H 0.11226 0.53897 0.86776 0.0
H1105 H 0.13265 0.59069 0.84326 0.0
H1106 H 0.11662 0.53495 0.78755 0.0
H1107 H 0.13811 0.58694 0.76289 0.0
H1108 H 0.1217 0.5697 0.61253 0.0
H1109 H 0.12462 0.57724 0.69375 0.0
H1110 H 0.13283 0.53714 0.72629 0.0
H1111 H 0.12865 0.52898 0.64519 0.0
C1112 C 0.11812 0.5496 0.84541 0.0
C1113 C 0.12199 0.56513 0.86186 0.0
C1114 C 0.12078 0.54733 0.79913 0.0
C1115 C 0.12772 0.56059 0.76799 0.0
C1116 C 0.13241 0.57633 0.78524 0.0
C1117 C 0.12942 0.57854 0.83151 0.0
C1118 C 0.12446 0.56271 0.63696 0.0
C1119 C 0.12476 0.54864 0.62258 0.0
C1120 C 0.12621 0.56707 0.6838 0.0
C1121 C 0.12865 0.55765 0.71736 0.0
C1122 C 0.13038 0.54439 0.70204 0.0
C1123 C 0.1282 0.5398 0.65538 0.0
H1124 H 0.43051 0.54405 0.84265 0.0
H1125 H 0.48157 0.57834 0.86847 0.0
H1126 H 0.43413 0.55255 0.76165 0.0
H1127 H 0.4855 0.58611 0.78777 0.0
H1128 H 0.49083 0.60286 0.64423 0.0
H1129 H 0.48219 0.59895 0.72491 0.0
H1130 H 0.44515 0.549 0.69426 0.0
H1131 H 0.45312 0.55342 0.61329 0.0
C1132 C 0.44248 0.55348 0.83107 0.0
C1133 C 0.45576 0.56047 0.86195 0.0
C1134 C 0.44462 0.55828 0.78449 0.0
C1135 C 0.46016 0.56997 0.76753 0.0
C1136 C 0.47326 0.57733 0.79914 0.0
C1137 C 0.47104 0.57276 0.8457 0.0
C1138 C 0.48058 0.59119 0.65469 0.0
C1139 C 0.47273 0.57842 0.62256 0.0
C1140 C 0.47571 0.58885 0.70111 0.0
C1141 C 0.46319 0.5735 0.71684 0.0
C1142 C 0.45472 0.56105 0.68387 0.0
C1143 C 0.45933 0.56354 0.63722 0.0
H1144 H 0.44281 0.90623 0.87408 0.0
H1145 H 0.47658 0.88896 0.84653 0.0
H1146 H 0.43525 0.90312 0.79319 0.0
H1147 H 0.46821 0.8847 0.76545 0.0
H1148 H 0.46813 0.90334 0.61798 0.0
H1149 H 0.47215 0.89942 0.6989 0.0
H1150 H 0.42262 0.88815 0.72884 0.0
H1151 H 0.41919 0.89334 0.64819 0.0
C1152 C 0.44828 0.90129 0.85086 0.0
C1153 C 0.46039 0.89797 0.86669 0.0
C1154 C 0.44384 0.89936 0.80417 0.0
C1155 C 0.45114 0.89373 0.772 0.0
C1156 C 0.46258 0.88947 0.78861 0.0
C1157 C 0.46729 0.89175 0.83528 0.0
C1158 C 0.45801 0.89974 0.64176 0.0
C1159 C 0.44341 0.89882 0.62685 0.0
C1160 C 0.46027 0.89739 0.68842 0.0
C1161 C 0.44783 0.89371 0.72123 0.0
C1162 C 0.43274 0.89152 0.70526 0.0
C1163 C 0.43065 0.8943 0.65883 0.0
H1164 H 0.20358 0.45968 0.21641 0.0
H1165 H 0.24007 0.44627 0.24747 0.0
H1166 H 0.21246 0.46447 0.13595 0.0
H1167 H 0.2483 0.44996 0.16662 0.0
H1168 H 0.26298 0.45948 0.01787 0.0
H1169 H 0.25968 0.46467 0.09892 0.0
H1170 H 0.20843 0.44767 0.07364 0.0
H1171 H 0.21201 0.44342 0.993 0.0
C1172 C 0.21365 0.45796 0.20607 0.0
C1173 C 0.22103 0.45247 0.23812 0.0
C1174 C 0.21866 0.46052 0.15977 0.0
C1175 C 0.23085 0.45719 0.14408 0.0
C1176 C 0.23897 0.45278 0.17704 0.0
C1177 C 0.23421 0.4506 0.2236 0.0
C1178 C 0.25111 0.45719 0.02961 0.0
C1179 C 0.23775 0.45097 0.999 0.0
C1180 C 0.24916 0.46003 0.07622 0.0
C1181 C 0.23374 0.45651 0.0934 0.0
C1182 C 0.22059 0.45088 0.06204 0.0
C1183 C 0.2226 0.44828 0.01553 0.0
H1184 H 0.57991 0.77351 0.98064 0.0
H1185 H 0.56215 0.80692 1.00794 0.0
H1186 H 0.57609 0.7654 0.06107 0.0
H1187 H 0.55733 0.79808 0.08869 0.0
H1188 H 0.57575 0.79714 0.23674 0.0
H1189 H 0.5721 0.80173 0.15597 0.0
H1190 H 0.55995 0.75212 0.12373 0.0
H1191 H 0.56475 0.74803 0.2042 0.0
C1192 C 0.57474 0.77882 1.00365 0.0
C1193 C 0.57147 0.79097 0.98789 0.0
C1194 C 0.5724 0.77405 0.05006 0.0
C1195 C 0.56644 0.78109 0.08204 0.0
C1196 C 0.56228 0.79261 0.06556 0.0
C1197 C 0.5649 0.7976 0.01911 0.0
C1198 C 0.57199 0.78712 0.21251 0.0
C1199 C 0.57074 0.7723 0.22668 0.0
C1200 C 0.56981 0.78972 0.16598 0.0
C1201 C 0.56601 0.77742 0.13262 0.0
C1202 C 0.56342 0.7621 0.14785 0.0
C1203 C 0.56598 0.75966 0.19415 0.0
H1204 H 0.27433 0.82218 0.20958 0.0
H1205 H 0.22546 0.7837 0.24284 0.0
H1206 H 0.27009 0.81339 0.12903 0.0
H1207 H 0.2207 0.77552 0.16199 0.0
H1208 H 0.21561 0.76043 0.01347 0.0
H1209 H 0.2244 0.76455 0.0943 0.0
H1210 H 0.25647 0.81611 0.06694 0.0
H1211 H 0.24841 0.81175 0.98647 0.0
C1212 C 0.26272 0.81173 0.19967 0.0
C1213 C 0.2502 0.80371 0.23245 0.0
C1214 C 0.26018 0.80676 0.15332 0.0
C1215 C 0.24488 0.79395 0.1383 0.0
C1216 C 0.2327 0.78533 0.17185 0.0
C1217 C 0.2354 0.79006 0.21842 0.0
C1218 C 0.22478 0.77256 0.02473 0.0
C1219 C 0.23126 0.78576 0.99355 0.0
C1220 C 0.22974 0.77498 0.07122 0.0
C1221 C 0.24111 0.79071 0.08775 0.0
C1222 C 0.24796 0.80374 0.05586 0.0
C1223 C 0.24321 0.80127 0.00944 0.0
H1224 H 0.17869 0.21681 0.25406 0.0
H1225 H 0.22283 0.2551 0.31698 0.0
H1226 H 0.19331 0.20257 0.2314 0.0
H1227 H 0.23751 0.24097 0.29346 0.0
H1228 H 0.25974 0.21738 0.19331 0.0
H1229 H 0.246 0.23248 0.21658 0.0
H1230 H 0.20676 0.18846 0.27696 0.0
H1231 H 0.2206 0.17343 0.25457 0.0
C1232 C 0.19155 0.22229 0.26258 0.0
C1233 C 0.19959 0.2371 0.28734 0.0
C1234 C 0.19989 0.21407 0.2499 0.0
C1235 C 0.21654 0.22061 0.26087 0.0
C1236 C 0.2247 0.23565 0.28442 0.0
C1237 C 0.21628 0.24372 0.29793 0.0
C1238 C 0.24825 0.21096 0.21193 0.0
C1239 C 0.24128 0.1942 0.22214 0.0
C1240 C 0.24041 0.21962 0.22529 0.0
C1241 C 0.22525 0.21163 0.24831 0.0
C1242 C 0.21835 0.19491 0.25887 0.0
C1243 C 0.22635 0.18634 0.24633 0.0
H1244 H 0.80575 0.96575 0.26204 0.0
H1245 H 0.76502 0.96949 0.31573 0.0
H1246 H 0.81932 0.99456 0.23908 0.0
H1247 H 0.77851 0.99826 0.29188 0.0
H1248 H 0.80204 0.04358 0.19006 0.0
H1249 H 0.78771 0.01488 0.21456 0.0
H1250 H 0.83147 0.02227 0.28351 0.0
H1251 H 0.84574 0.05104 0.25983 0.0
C1252 C 0.79961 0.97266 0.26853 0.0
C1253 C 0.78429 0.96531 0.29072 0.0
C1254 C 0.80745 0.98919 0.25567 0.0
C1255 C 0.80002 0.99868 0.26389 0.0
C1256 C 0.78451 0.99124 0.285 0.0
C1257 C 0.77681 0.97478 0.2987 0.0
C1258 C 0.80857 0.03912 0.2108 0.0
C1259 C 0.82504 0.04961 0.22303 0.0
C1260 C 0.80034 0.0227 0.22489 0.0
C1261 C 0.8085 0.01631 0.2507 0.0
C1262 C 0.82491 0.02682 0.26328 0.0
C1263 C 0.83304 0.04332 0.24999 0.0
H1264 H 0.97119 0.79979 0.25928 0.0
H1265 H 0.97754 0.76155 0.19811 0.0
H1266 H 1.00001 0.81428 0.28245 0.0
H1267 H 1.0063 0.77593 0.22213 0.0
H1268 H 0.05172 0.79983 0.32341 0.0
H1269 H 0.02298 0.7846 0.29933 0.0
H1270 H 0.02776 0.82846 0.23791 0.0
H1271 H 0.05655 0.84364 0.26113 0.0
C1272 C 0.97868 0.79438 0.2512 0.0
C1273 C 0.97205 0.77951 0.22683 0.0
C1274 C 0.99521 0.80274 0.26419 0.0
C1275 C 1.00544 0.79628 0.25391 0.0
C1276 C 0.99871 0.78119 0.23065 0.0
C1277 C 0.98225 0.77298 0.21684 0.0
C1278 C 0.04668 0.80619 0.3044 0.0
C1279 C 0.05645 0.82295 0.29413 0.0
C1280 C 0.03023 0.79746 0.29057 0.0
C1281 C 0.02309 0.80536 0.267 0.0
C1282 C 0.03288 0.82208 0.25641 0.0
C1283 C 0.04941 0.83073 0.26942 0.0
H1284 H 0.83595 0.78516 0.78778 0.0
H1285 H 0.81187 0.77531 0.65489 0.0
H1286 H 0.82079 0.79859 0.81326 0.0
H1287 H 0.79698 0.78898 0.68016 0.0
H1288 H 0.79194 0.83406 0.72772 0.0
H1289 H 0.80529 0.81884 0.70209 0.0
H1290 H 0.7906 0.79084 0.82868 0.0
H1291 H 0.777 0.80581 0.85403 0.0
C1292 C 0.82738 0.78579 0.7641 0.0
C1293 C 0.82511 0.77912 0.71934 0.0
C1294 C 0.81867 0.79344 0.77874 0.0
C1295 C 0.80773 0.79489 0.74864 0.0
C1296 C 0.80541 0.78816 0.704 0.0
C1297 C 0.81387 0.78024 0.68967 0.0
C1298 C 0.79144 0.82456 0.7499 0.0
C1299 C 0.78337 0.82113 0.79287 0.0
C1300 C 0.79904 0.81582 0.73517 0.0
C1301 C 0.79904 0.80368 0.76345 0.0
C1302 C 0.79091 0.8002 0.80629 0.0
C1303 C 0.78303 0.80871 0.82063 0.0
H1304 H 0.22109 0.05116 0.75713 0.0
H1305 H 0.26009 0.04584 0.69701 0.0
H1306 H 0.20701 0.02232 0.77989 0.0
H1307 H 0.24609 0.01705 0.72042 0.0
H1308 H 0.22292 0.97125 0.81887 0.0
H1309 H 0.23765 1.00005 0.7955 0.0
H1310 H 0.19319 0.99474 0.73682 0.0
H1311 H 0.17848 0.9659 0.75954 0.0
C1312 C 0.22674 0.04389 0.74917 0.0
C1313 C 0.24173 0.05083 0.72524 0.0
C1314 C 0.21861 0.02734 0.76191 0.0
C1315 C 0.22539 0.01738 0.75174 0.0
C1316 C 0.24058 0.02441 0.72889 0.0
C1317 C 0.24858 0.0409 0.71542 0.0
C1318 C 0.21631 0.97619 0.80064 0.0
C1319 C 0.19951 0.96625 0.79103 0.0
C1320 C 0.22476 0.99267 0.78719 0.0
C1321 C 0.21656 0.9997 0.76457 0.0
C1322 C 0.19981 0.98973 0.75462 0.0
C1323 C 0.19141 0.97317 0.76733 0.0
H1324 H 0.98193 0.21117 0.65418 0.0
H1325 H 0.96738 0.18631 0.78592 0.0
H1326 H 1.01047 0.22562 0.67957 0.0
H1327 H 0.99596 0.20097 0.81148 0.0
H1328 H 0.04693 0.24377 0.8546 0.0
H1329 H 0.01842 0.23043 0.82909 0.0
H1330 H 0.03203 0.21763 0.69972 0.0
H1331 H 0.06058 0.2308 0.72542 0.0
C1332 C 0.98479 0.20888 0.68872 0.0
C1333 C 0.97234 0.19758 0.71804 0.0
C1334 C 1.00117 0.2171 0.70311 0.0
C1335 C 1.00549 0.21442 0.74747 0.0
C1336 C 0.99301 0.20338 0.77719 0.0
C1337 C 0.97665 0.19494 0.7625 0.0
C1338 C 0.04389 0.23821 0.82058 0.0
C1339 C 0.05606 0.23837 0.79203 0.0
C1340 C 0.02752 0.23047 0.80613 0.0
C1341 C 0.02296 0.22294 0.76245 0.0
C1342 C 0.03518 0.22341 0.73345 0.0
C1343 C 0.05152 0.23092 0.74823 0.0
H1344 H 0.8895 0.58939 0.65445 0.0
H1345 H 0.84518 0.55081 0.59307 0.0
H1346 H 0.90426 0.57548 0.6298 0.0
H1347 H 0.85991 0.53678 0.56924 0.0
H1348 H 0.8882 0.50833 0.589 0.0
H1349 H 0.87397 0.52288 0.61275 0.0
H1350 H 0.91248 0.56736 0.55229 0.0
H1351 H 0.92658 0.55278 0.52772 0.0
C1352 C 0.88292 0.57798 0.63553 0.0
C1353 C 0.86616 0.57123 0.62565 0.0
C1354 C 0.89139 0.57004 0.62137 0.0
C1355 C 0.88322 0.55499 0.59784 0.0
C1356 C 0.86649 0.54829 0.5877 0.0
C1357 C 0.8581 0.55639 0.60105 0.0
C1358 C 0.89369 0.52124 0.58101 0.0
C1359 C 0.90854 0.52939 0.55646 0.0
C1360 C 0.88548 0.52953 0.59432 0.0
C1361 C 0.89208 0.54624 0.58421 0.0
C1362 C 0.90712 0.5545 0.5607 0.0
C1363 C 0.91518 0.54614 0.54658 0.0
H1364 H 0.46943 0.29928 0.59458 0.0
H1365 H 0.43275 0.3064 0.66297 0.0
H1366 H 0.48377 0.32802 0.57062 0.0
H1367 H 0.44696 0.33507 0.63816 0.0
H1368 H 0.46935 0.38013 0.53592 0.0
H1369 H 0.45435 0.35143 0.56037 0.0
H1370 H 0.49902 0.35592 0.61469 0.0
H1371 H 0.51399 0.38469 0.59113 0.0
C1372 C 0.46433 0.30692 0.60406 0.0
C1373 C 0.44995 0.30054 0.63069 0.0
C1374 C 0.47261 0.3234 0.59062 0.0
C1375 C 0.46653 0.33381 0.6027 0.0
C1376 C 0.45191 0.32733 0.62822 0.0
C1377 C 0.4438 0.31093 0.64247 0.0
C1378 C 0.47595 0.37503 0.55342 0.0
C1379 C 0.49287 0.38471 0.56165 0.0
C1380 C 0.46735 0.35861 0.56747 0.0
C1381 C 0.47553 0.3514 0.58918 0.0
C1382 C 0.49242 0.3611 0.59765 0.0
C1383 C 0.50096 0.3776 0.58445 0.0
H1384 H 0.64403 0.09566 0.52699 0.0
H1385 H 0.63828 0.13422 0.58849 0.0
H1386 H 0.6728 0.10972 0.55103 0.0
H1387 H 0.66708 0.14837 0.61168 0.0
H1388 H 0.72351 0.17731 0.59059 0.0
H1389 H 0.69473 0.16234 0.56724 0.0
H1390 H 0.6896 0.11823 0.62796 0.0
H1391 H 0.71834 0.13326 0.65216 0.0
C1392 C 0.64887 0.10709 0.54581 0.0
C1393 C 0.63884 0.1138 0.55586 0.0
C1394 C 0.66533 0.11511 0.55963 0.0
C1395 C 0.67222 0.1302 0.58296 0.0
C1396 C 0.66216 0.13684 0.59335 0.0
C1397 C 0.64563 0.12867 0.58034 0.0
C1398 C 0.71629 0.1644 0.59871 0.0
C1399 C 0.72324 0.15649 0.62327 0.0
C1400 C 0.69978 0.15585 0.58561 0.0
C1401 C 0.68988 0.13913 0.59598 0.0
C1402 C 0.69693 0.1311 0.61937 0.0
C1403 C 0.71338 0.13972 0.63328 0.0
H1404 H 0.43304 0.13145 0.16003 0.0
H1405 H 0.47017 0.17572 0.09466 0.0
H1406 H 0.44723 0.11708 0.13432 0.0
H1407 H 0.48451 0.16139 0.06987 0.0
H1408 H 0.51415 0.13409 0.08857 0.0
H1409 H 0.49936 0.14797 0.11336 0.0
H1410 H 0.45478 0.10887 0.05506 0.0
H1411 H 0.4696 0.09513 0.02935 0.0
C1412 C 0.44419 0.1381 0.14005 0.0
C1413 C 0.45045 0.15473 0.12931 0.0
C1414 C 0.45229 0.12985 0.12529 0.0
C1415 C 0.46703 0.13814 0.10032 0.0
C1416 C 0.47325 0.15474 0.0894 0.0
C1417 C 0.46497 0.1629 0.10332 0.0
C1418 C 0.50118 0.1284 0.08126 0.0
C1419 C 0.49306 0.1135 0.05699 0.0
C1420 C 0.49275 0.13641 0.09517 0.0
C1421 C 0.47593 0.12953 0.08598 0.0
C1422 C 0.46772 0.11443 0.06274 0.0
C1423 C 0.47622 0.10659 0.04797 0.0
H1424 H 0.88765 0.38389 0.0886 0.0
H1425 H 0.92619 0.37864 0.02487 0.0
H1426 H 0.8738 0.35507 0.11137 0.0
H1427 H 0.91243 0.34985 0.04842 0.0
H1428 H 0.88984 0.30419 0.14862 0.0
H1429 H 0.90447 0.33295 0.12468 0.0
H1430 H 0.85978 0.32746 0.0672 0.0
H1431 H 0.84518 0.29866 0.09036 0.0
C1432 C 0.89327 0.37665 0.07986 0.0
C1433 C 0.90804 0.38359 0.0549 0.0
C1434 C 0.88526 0.3601 0.09262 0.0
C1435 C 0.89198 0.35017 0.08147 0.0
C1436 C 0.90698 0.3572 0.05762 0.0
C1437 C 0.91484 0.37369 0.04408 0.0
C1438 C 0.88316 0.30908 0.1305 0.0
C1439 C 0.86634 0.29911 0.12136 0.0
C1440 C 0.89156 0.32554 0.11673 0.0
C1441 C 0.88326 0.3325 0.09433 0.0
C1442 C 0.86648 0.32249 0.08481 0.0
C1443 C 0.85815 0.30596 0.09778 0.0
H1444 H 0.72312 0.55054 0.09377 0.0
H1445 H 0.71699 0.5889 0.15499 0.0
H1446 H 0.69438 0.53633 0.06978 0.0
H1447 H 0.68832 0.57482 0.13005 0.0
H1448 H 0.64328 0.55135 0.02698 0.0
H1449 H 0.67199 0.56632 0.05155 0.0
H1450 H 0.66643 0.52238 0.11465 0.0
H1451 H 0.63766 0.50747 0.09102 0.0
C1452 C 0.7157 0.55604 0.10163 0.0
C1453 C 0.72236 0.57086 0.1263 0.0
C1454 C 0.69922 0.54784 0.08818 0.0
C1455 C 0.68908 0.55442 0.09824 0.0
C1456 C 0.69584 0.56947 0.12172 0.0
C1457 C 0.71225 0.57751 0.13603 0.0
C1458 C 0.64814 0.54491 0.04645 0.0
C1459 C 0.63816 0.52821 0.05711 0.0
C1460 C 0.66457 0.5535 0.06055 0.0
C1461 C 0.67148 0.5455 0.08476 0.0
C1462 C 0.66148 0.52884 0.09568 0.0
C1463 C 0.64497 0.52033 0.08243 0.0
H1464 H 0.55779 0.92435 0.98501 0.0
H1465 H 0.51293 0.88444 0.93025 0.0
H1466 H 0.57263 0.91057 0.95973 0.0
H1467 H 0.52774 0.87056 0.90583 0.0
H1468 H 0.55722 0.84331 0.92395 0.0
H1469 H 0.54298 0.85773 0.94871 0.0
H1470 H 0.57981 0.90169 0.88163 0.0
H1471 H 0.59392 0.88722 0.85606 0.0
C1472 C 0.55111 0.91267 0.96744 0.0
C1473 C 0.53418 0.90551 0.95958 0.0
C1474 C 0.55962 0.90481 0.95292 0.0
C1475 C 0.55133 0.88945 0.93105 0.0
C1476 C 0.53443 0.88232 0.92298 0.0
C1477 C 0.52598 0.89033 0.93667 0.0
C1478 C 0.56235 0.85608 0.91473 0.0
C1479 C 0.57671 0.86411 0.88802 0.0
C1480 C 0.55413 0.86429 0.92864 0.0
C1481 C 0.56025 0.88082 0.91694 0.0
C1482 C 0.57484 0.88897 0.89129 0.0
C1483 C 0.58289 0.88067 0.87659 0.0
H1484 H 0.12324 0.62838 0.89609 0.0
H1485 H 0.11022 0.64271 0.02403 0.0
H1486 H 0.137 0.65689 0.86993 0.0
H1487 H 0.12415 0.67118 0.99808 0.0
H1488 H 0.16883 0.7218 0.95471 0.0
H1489 H 0.15382 0.69329 0.9808 0.0
H1490 H 0.12945 0.67869 0.84851 0.0
H1491 H 0.14423 0.70716 0.82259 0.0
C1492 C 0.12326 0.63758 0.91855 0.0
C1493 C 0.11559 0.63324 0.96211 0.0
C1494 C 0.1311 0.6539 0.90351 0.0
C1495 C 0.13171 0.6663 0.93201 0.0
C1496 C 0.12401 0.66194 0.97549 0.0
C1497 C 0.11594 0.6456 0.9902 0.0
C1498 C 0.16019 0.71253 0.93131 0.0
C1499 C 0.15772 0.71679 0.8866 0.0
C1500 C 0.15156 0.6962 0.9463 0.0
C1501 C 0.14048 0.68372 0.91665 0.0
C1502 C 0.13799 0.688 0.87202 0.0
C1503 C 0.1464 0.70433 0.85732 0.0
H1504 H 0.31441 0.4408 0.82681 0.0
H1505 H 0.30038 0.45126 0.9592 0.0
H1506 H 0.34297 0.45441 0.8519 0.0
H1507 H 0.32899 0.46469 0.98445 0.0
H1508 H 0.37967 0.47186 0.02649 0.0
H1509 H 0.35111 0.45711 1.00123 0.0
H1510 H 0.3649 0.48384 0.87242 0.0
H1511 H 0.39349 0.49879 0.89788 0.0
C1512 C 0.31739 0.44587 0.86142 0.0
C1513 C 0.30508 0.44492 0.89102 0.0
C1514 C 0.33378 0.45376 0.87565 0.0
C1515 C 0.33825 0.46065 0.9201 0.0
C1516 C 0.32591 0.45941 0.95009 0.0
C1517 C 0.30954 0.45176 0.93557 0.0
C1518 C 0.37665 0.47453 0.99264 0.0
C1519 C 0.38889 0.48651 0.96418 0.0
C1520 C 0.36026 0.46615 0.97833 0.0
C1521 C 0.35574 0.46933 0.9349 0.0
C1522 C 0.36802 0.48104 0.90597 0.0
C1523 C 0.38438 0.48964 0.92061 0.0
H1524 H 0.12347 0.4988 0.39756 0.0
H1525 H 0.10963 0.47168 0.52585 0.0
H1526 H 0.13673 0.48348 0.37227 0.0
H1527 H 0.12309 0.45656 0.50076 0.0
H1528 H 0.16781 0.45019 0.45906 0.0
H1529 H 0.15277 0.46375 0.48441 0.0
H1530 H 0.1288 0.45397 0.35149 0.0
H1531 H 0.14362 0.44023 0.32631 0.0
C1532 C 0.12317 0.48952 0.42025 0.0
C1533 C 0.11545 0.48645 0.46369 0.0
C1534 C 0.13073 0.48071 0.40571 0.0
C1535 C 0.131 0.46884 0.43459 0.0
C1536 C 0.1232 0.46571 0.47789 0.0
C1537 C 0.11539 0.47431 0.4921 0.0
C1538 C 0.15923 0.45081 0.43539 0.0
C1539 C 0.15691 0.4441 0.39068 0.0
C1540 C 0.15058 0.45854 0.44996 0.0
C1541 C 0.13964 0.45998 0.41988 0.0
C1542 C 0.13724 0.45317 0.37532 0.0
C1543 C 0.14567 0.44521 0.36104 0.0
H1544 H 0.51255 0.63243 0.42723 0.0
H1545 H 0.55674 0.63876 0.49115 0.0
H1546 H 0.52728 0.66105 0.40199 0.0
H1547 H 0.57152 0.66727 0.46488 0.0
H1548 H 0.59341 0.71117 0.35762 0.0
H1549 H 0.57932 0.68266 0.38386 0.0
H1550 H 0.54169 0.68953 0.44662 0.0
H1551 H 0.55595 0.71816 0.42142 0.0
C1552 C 0.52544 0.63987 0.43545 0.0
C1553 C 0.53348 0.63332 0.46119 0.0
C1554 C 0.53383 0.65627 0.42127 0.0
C1555 C 0.55052 0.66639 0.43163 0.0
C1556 C 0.55867 0.65974 0.45631 0.0
C1557 C 0.5502 0.64344 0.47138 0.0
C1558 C 0.58221 0.70664 0.37735 0.0
C1559 C 0.57582 0.71694 0.38753 0.0
C1560 C 0.57417 0.69033 0.3924 0.0
C1561 C 0.55937 0.68386 0.41704 0.0
C1562 C 0.55301 0.69416 0.42738 0.0
C1563 C 0.56124 0.71057 0.41322 0.0
H1564 H 0.38453 0.92359 0.49354 0.0
H1565 H 0.39016 0.88505 0.43144 0.0
H1566 H 0.35593 0.90994 0.46806 0.0
H1567 H 0.36147 0.87125 0.40697 0.0
H1568 H 0.30456 0.84319 0.42726 0.0
H1569 H 0.33327 0.85759 0.45173 0.0
H1570 H 0.34003 0.90194 0.38829 0.0
H1571 H 0.31142 0.88748 0.36282 0.0
C1572 C 0.37969 0.91225 0.47432 0.0
C1573 C 0.38964 0.90543 0.46444 0.0
C1574 C 0.36333 0.90446 0.4597 0.0
C1575 C 0.35645 0.88949 0.43578 0.0
C1576 C 0.36641 0.88271 0.42568 0.0
C1577 C 0.38286 0.89068 0.43942 0.0
C1578 C 0.31214 0.85604 0.41876 0.0
C1579 C 0.3057 0.86419 0.39309 0.0
C1580 C 0.32859 0.86424 0.4325 0.0
C1581 C 0.3389 0.88087 0.42175 0.0
C1582 C 0.33236 0.88914 0.39716 0.0
C1583 C 0.31599 0.88085 0.38255 0.0
H1584 H 0.29637 0.1387 0.189 0.0
H1585 H 0.31466 0.1908 0.18764 0.0
H1586 H 0.32399 0.14354 0.17982 0.0
H1587 H 0.34256 0.19573 0.18038 0.0
H1588 H 0.38848 0.19937 0.11901 0.0
H1589 H 0.36055 0.19393 0.12736 0.0
H1590 H 0.3494 0.15261 0.21553 0.0
H1591 H 0.37725 0.15773 0.20549 0.0
C1592 C 0.30633 0.15124 0.18742 0.0
C1593 C 0.30323 0.16437 0.18901 0.0
C1594 C 0.32226 0.15403 0.18237 0.0
C1595 C 0.33564 0.17004 0.1792 0.0
C1596 C 0.33258 0.18321 0.18177 0.0
C1597 C 0.31657 0.18041 0.18636 0.0
C1598 C 0.38002 0.18901 0.13982 0.0
C1599 C 0.38512 0.17897 0.16151 0.0
C1600 C 0.364 0.18599 0.14506 0.0
C1601 C 0.35264 0.17293 0.17261 0.0
C1602 C 0.35768 0.16268 0.1936 0.0
C1603 C 0.37369 0.1656 0.18789 0.0
H1604 H 0.8632 0.22203 0.15761 0.0
H1605 H 0.81093 0.18895 0.15879 0.0
H1606 H 0.86763 0.19878 0.16646 0.0
H1607 H 0.81529 0.16592 0.16944 0.0
H1608 H 0.82861 0.12601 0.1468 0.0
H1609 H 0.8239 0.14893 0.13482 0.0
H1610 H 0.86552 0.17938 0.22175 0.0
H1611 H 0.87052 0.15668 0.23217 0.0
C1612 C 0.85266 0.20982 0.1597 0.0
C1613 C 0.83673 0.20742 0.15743 0.0
C1614 C 0.85518 0.19647 0.16523 0.0
C1615 C 0.84182 0.18038 0.16905 0.0
C1616 C 0.8259 0.17802 0.16602 0.0
C1617 C 0.8234 0.19132 0.16011 0.0
C1618 C 0.83663 0.13755 0.16374 0.0
C1619 C 0.84995 0.13949 0.19038 0.0
C1620 C 0.83395 0.15074 0.15689 0.0
C1621 C 0.84443 0.16616 0.17692 0.0
C1622 C 0.85742 0.16788 0.20476 0.0
C1623 C 0.86019 0.15476 0.2112 0.0
H1624 H 0.79869 0.64543 0.16374 0.0
H1625 H 0.83208 0.62668 0.16933 0.0
H1626 H 0.82176 0.67326 0.17251 0.0
H1627 H 0.85485 0.65411 0.18032 0.0
H1628 H 0.89498 0.70658 0.15598 0.0
H1629 H 0.87196 0.67901 0.14518 0.0
H1630 H 0.84114 0.69173 0.2251 0.0
H1631 H 0.86401 0.71949 0.23384 0.0
C1632 C 0.81092 0.64723 0.16693 0.0
C1633 C 0.81349 0.63379 0.16552 0.0
C1634 C 0.82418 0.66319 0.17241 0.0
C1635 C 0.84031 0.66608 0.17724 0.0
C1636 C 0.84276 0.65256 0.17579 0.0
C1637 C 0.8296 0.63671 0.1697 0.0
C1638 C 0.88333 0.70343 0.17163 0.0
C1639 C 0.88137 0.71525 0.19581 0.0
C1640 C 0.87007 0.68757 0.16552 0.0
C1641 C 0.85452 0.68301 0.18405 0.0
C1642 C 0.85274 0.69478 0.20934 0.0
C1643 C 0.86594 0.7107 0.21485 0.0
H1644 H 0.1636 0.37355 0.30852 0.0
H1645 H 0.20261 0.38316 0.40405 0.0
H1646 H 0.15921 0.3461 0.29515 0.0
H1647 H 0.19784 0.35559 0.39228 0.0
H1648 H 0.19699 0.31118 0.3291 0.0
H1649 H 0.20145 0.33886 0.33858 0.0
H1650 H 0.14936 0.32002 0.32699 0.0
H1651 H 0.14503 0.2927 0.31561 0.0
C1652 C 0.17102 0.36969 0.32736 0.0
C1653 C 0.18345 0.38057 0.35733 0.0
C1654 C 0.16852 0.35392 0.31972 0.0
C1655 C 0.17826 0.34855 0.34229 0.0
C1656 C 0.19035 0.35933 0.37332 0.0
C1657 C 0.19297 0.37513 0.38052 0.0
C1658 C 0.18653 0.313 0.32808 0.0
C1659 C 0.17067 0.29966 0.32152 0.0
C1660 C 0.18905 0.32887 0.33397 0.0
C1661 C 0.17575 0.33178 0.33391 0.0
C1662 C 0.15995 0.31843 0.3266 0.0
C1663 C 0.15746 0.30265 0.32028 0.0
H1664 H 0.64911 0.7923 0.31115 0.0
H1665 H 0.6382 0.82368 0.3944 0.0
H1666 H 0.67702 0.81488 0.3 0.0
H1667 H 0.66612 0.846 0.38472 0.0
H1668 H 0.71149 0.88803 0.32102 0.0
H1669 H 0.68368 0.86501 0.32886 0.0
H1670 H 0.70262 0.83176 0.33586 0.0
H1671 H 0.73024 0.85462 0.32631 0.0
C1672 C 0.65275 0.80392 0.32776 0.0
C1673 C 0.64138 0.80617 0.35355 0.0
C1674 C 0.66878 0.8169 0.32139 0.0
C1675 C 0.67387 0.83241 0.341 0.0
C1676 C 0.6626 0.83442 0.36804 0.0
C1677 C 0.64659 0.82153 0.37404 0.0
C1678 C 0.7097 0.87579 0.3238 0.0
C1679 C 0.72315 0.87324 0.32305 0.0
C1680 C 0.69374 0.86256 0.32874 0.0
C1681 C 0.69082 0.84644 0.33347 0.0
C1682 C 0.70428 0.84391 0.3318 0.0
C1683 C 0.7202 0.8571 0.3265 0.0
H1684 H 0.1989 0.81918 0.40379 0.0
H1685 H 0.22927 0.86066 0.31669 0.0
H1686 H 0.17628 0.82437 0.39438 0.0
H1687 H 0.20641 0.86552 0.30561 0.0
H1688 H 0.16694 0.87906 0.3297 0.0
H1689 H 0.18983 0.87449 0.34017 0.0
H1690 H 0.15652 0.82223 0.34067 0.0
H1691 H 0.13342 0.8269 0.33212 0.0
C1692 C 0.20076 0.82945 0.38264 0.0
C1693 C 0.21594 0.83952 0.36107 0.0
C1694 C 0.18769 0.83233 0.37679 0.0
C1695 C 0.18933 0.84526 0.34874 0.0
C1696 C 0.20466 0.85555 0.32791 0.0
C1697 C 0.21781 0.85277 0.33422 0.0
C1698 C 0.16444 0.86656 0.33178 0.0
C1699 C 0.14826 0.85334 0.3301 0.0
C1700 C 0.17766 0.86393 0.33759 0.0
C1701 C 0.17516 0.84798 0.34143 0.0
C1702 C 0.15898 0.83471 0.33878 0.0
C1703 C 0.14569 0.83736 0.33343 0.0
H1704 H 0.73041 0.87863 0.83007 0.0
H1705 H 0.71121 0.82637 0.82754 0.0
H1706 H 0.70293 0.87422 0.83945 0.0
H1707 H 0.6835 0.82191 0.83513 0.0
H1708 H 0.63796 0.8186 0.89779 0.0
H1709 H 0.66578 0.82377 0.88935 0.0
H1710 H 0.67756 0.8657 0.8032 0.0
H1711 H 0.64978 0.86082 0.81321 0.0
C1712 C 0.72029 0.86616 0.83088 0.0
C1713 C 0.72308 0.85285 0.82813 0.0
C1714 C 0.70445 0.86363 0.83605 0.0
C1715 C 0.69087 0.8477 0.83826 0.0
C1716 C 0.69364 0.83437 0.83452 0.0
C1717 C 0.70954 0.8369 0.82974 0.0
C1718 C 0.64653 0.82903 0.87739 0.0
C1719 C 0.64161 0.83931 0.85619 0.0
C1720 C 0.66248 0.8319 0.87211 0.0
C1721 C 0.67398 0.84503 0.84506 0.0
C1722 C 0.66915 0.85555 0.82468 0.0
C1723 C 0.65319 0.85277 0.83038 0.0
H1724 H 0.16262 0.79335 0.80792 0.0
H1725 H 0.20318 0.82346 0.89828 0.0
H1726 H 0.15784 0.81627 0.7961 0.0
H1727 H 0.19812 0.84609 0.88784 0.0
H1728 H 0.19637 0.88914 0.82525 0.0
H1729 H 0.20086 0.8659 0.83281 0.0
H1730 H 0.14857 0.83281 0.83112 0.0
H1731 H 0.14414 0.85587 0.82188 0.0
C1732 C 0.17033 0.80476 0.82591 0.0
C1733 C 0.1833 0.80655 0.85395 0.0
C1734 C 0.16761 0.81793 0.81914 0.0
C1735 C 0.1777 0.83318 0.84059 0.0
C1736 C 0.19034 0.83474 0.86975 0.0
C1737 C 0.19314 0.82165 0.87617 0.0
C1738 C 0.18585 0.87689 0.82602 0.0
C1739 C 0.16991 0.87444 0.823 0.0
C1740 C 0.1884 0.86354 0.83079 0.0
C1741 C 0.17507 0.84739 0.83302 0.0
C1742 C 0.15916 0.84497 0.829 0.0
C1743 C 0.15662 0.85828 0.82391 0.0
H1744 H 0.22777 0.37403 0.81162 0.0
H1745 H 0.19867 0.38389 0.90759 0.0
H1746 H 0.2048 0.34644 0.79977 0.0
H1747 H 0.17596 0.35617 0.89741 0.0
H1748 H 0.13229 0.31116 0.83596 0.0
H1749 H 0.15536 0.33895 0.84507 0.0
H1750 H 0.18896 0.32056 0.83269 0.0
H1751 H 0.16611 0.29315 0.82163 0.0
C1752 C 0.21658 0.3702 0.8309 0.0
C1753 C 0.21509 0.38119 0.86052 0.0
C1754 C 0.20336 0.35434 0.82416 0.0
C1755 C 0.18836 0.34898 0.84734 0.0
C1756 C 0.1871 0.35989 0.87803 0.0
C1757 C 0.20023 0.37577 0.88431 0.0
C1758 C 0.14461 0.31311 0.83478 0.0
C1759 C 0.14728 0.29988 0.8279 0.0
C1760 C 0.15788 0.32904 0.84043 0.0
C1761 C 0.17415 0.33211 0.83985 0.0
C1762 C 0.17672 0.31884 0.83259 0.0
C1763 C 0.16352 0.30301 0.82646 0.0
H1764 H 0.87286 0.7195 0.7309 0.0
H1765 H 0.83185 0.70851 0.64192 0.0
H1766 H 0.86766 0.69168 0.72176 0.0
H1767 H 0.827 0.6808 0.63104 0.0
H1768 H 0.81264 0.62776 0.65728 0.0
H1769 H 0.8176 0.65538 0.66625 0.0
H1770 H 0.86974 0.67363 0.66965 0.0
H1771 H 0.86466 0.64565 0.66268 0.0
C1772 C 0.86271 0.71112 0.70931 0.0
C1773 C 0.85273 0.71624 0.68726 0.0
C1774 C 0.85983 0.69517 0.70363 0.0
C1775 C 0.847 0.68389 0.67527 0.0
C1776 C 0.83688 0.68899 0.65367 0.0
C1777 C 0.83965 0.70492 0.65983 0.0
C1778 C 0.82521 0.63763 0.65967 0.0
C1779 C 0.83826 0.63441 0.65929 0.0
C1780 C 0.82806 0.65358 0.66458 0.0
C1781 C 0.84408 0.66689 0.66876 0.0
C1782 C 0.8572 0.66371 0.66741 0.0
C1783 C 0.85432 0.64766 0.66298 0.0
H1784 H 0.3157 0.128 0.69293 0.0
H1785 H 0.29658 0.16113 0.69061 0.0
H1786 H 0.34344 0.15124 0.68562 0.0
H1787 H 0.32407 0.18417 0.68148 0.0
H1788 H 0.37714 0.224 0.7066 0.0
H1789 H 0.34944 0.20104 0.71739 0.0
H1790 H 0.36113 0.17079 0.63128 0.0
H1791 H 0.38888 0.19351 0.62207 0.0
C1792 C 0.31739 0.14021 0.6909 0.0
C1793 C 0.30386 0.14263 0.6924 0.0
C1794 C 0.33331 0.15357 0.68627 0.0
C1795 C 0.33609 0.16968 0.68259 0.0
C1796 C 0.32253 0.17205 0.68483 0.0
C1797 C 0.30668 0.15875 0.68986 0.0
C1798 C 0.37373 0.21249 0.68962 0.0
C1799 C 0.38526 0.21062 0.66354 0.0
C1800 C 0.35781 0.19928 0.69577 0.0
C1801 C 0.35298 0.18391 0.6756 0.0
C1802 C 0.36443 0.18225 0.64837 0.0
C1803 C 0.38035 0.19538 0.64263 0.0
H1804 H 0.89569 0.19308 0.64007 0.0
H1805 H 0.86594 0.15318 0.73273 0.0
H1806 H 0.87286 0.19802 0.6289 0.0
H1807 H 0.8434 0.15844 0.72304 0.0
H1808 H 0.80015 0.16024 0.66161 0.0
H1809 H 0.82325 0.15554 0.66931 0.0
H1810 H 0.85672 0.20772 0.66348 0.0
H1811 H 0.83378 0.21232 0.654 0.0
C1812 C 0.88439 0.18556 0.65872 0.0
C1813 C 0.88266 0.17272 0.6872 0.0
C1814 C 0.87126 0.18838 0.65234 0.0
C1815 C 0.85612 0.17853 0.67466 0.0
C1816 C 0.85465 0.16603 0.70428 0.0
C1817 C 0.86769 0.16312 0.71027 0.0
C1818 C 0.81244 0.17068 0.66154 0.0
C1819 C 0.81504 0.18664 0.65716 0.0
C1820 C 0.82573 0.16802 0.66639 0.0
C1821 C 0.84195 0.18126 0.6674 0.0
C1822 C 0.84449 0.19718 0.66225 0.0
C1823 C 0.83126 0.19982 0.65703 0.0
H1824 H 0.04292 0.49082 0.49724 0.0
H1825 H 0.06167 0.54299 0.50088 0.0
H1826 H 0.01509 0.48608 0.50517 0.0
H1827 H 0.03418 0.53834 0.51103 0.0
H1828 H 0.98153 0.52554 0.48511 0.0
H1829 H 1.00923 0.53029 0.47546 0.0
H1830 H 0.9966 0.48716 0.55711 0.0
H1831 H 0.96875 0.48205 0.56471 0.0
C1832 C 0.04112 0.50127 0.49987 0.0
C1833 C 0.05456 0.51727 0.49816 0.0
C1834 C 0.02515 0.49858 0.50486 0.0
C1835 C 0.02225 0.51182 0.50892 0.0
C1836 C 0.03576 0.5278 0.50714 0.0
C1837 C 0.05163 0.53047 0.50154 0.0
C1838 C 0.98473 0.51718 0.50136 0.0
C1839 C 0.97291 0.50342 0.52565 0.0
C1840 C 1.00067 0.5199 0.49592 0.0
C1841 C 1.00528 0.50906 0.51524 0.0
C1842 C 0.99351 0.49557 0.54072 0.0
C1843 C 0.97754 0.49273 0.54556 0.0
H1844 H 0.48808 0.52652 0.45403 0.0
H1845 H 0.53002 0.55744 0.53903 0.0
H1846 H 0.49335 0.50399 0.46412 0.0
H1847 H 0.535 0.53467 0.55067 0.0
H1848 H 0.54835 0.49493 0.52577 0.0
H1849 H 0.54376 0.51784 0.51563 0.0
H1850 H 0.49149 0.48468 0.51937 0.0
H1851 H 0.49614 0.46157 0.52771 0.0
C1852 C 0.49847 0.52853 0.47486 0.0
C1853 C 0.50864 0.54382 0.49568 0.0
C1854 C 0.5014 0.51551 0.4811 0.0
C1855 C 0.51448 0.51734 0.50875 0.0
C1856 C 0.52489 0.53278 0.52876 0.0
C1857 C 0.52205 0.54588 0.52211 0.0
C1858 C 0.53585 0.49248 0.52473 0.0
C1859 C 0.5226 0.47633 0.52745 0.0
C1860 C 0.53321 0.5057 0.51911 0.0
C1861 C 0.51725 0.50322 0.51641 0.0
C1862 C 0.50398 0.48709 0.52032 0.0
C1863 C 0.50662 0.47381 0.52556 0.0
H1864 H 0.56228 0.03977 0.52396 0.0
H1865 H 0.52836 0.05793 0.52082 0.0
H1866 H 0.53938 0.0118 0.51738 0.0
H1867 H 0.50568 0.03025 0.51219 0.0
H1868 H 0.46641 0.97738 0.53912 0.0
H1869 H 0.48919 1.0052 0.54874 0.0
H1870 H 0.51979 0.99324 0.46514 0.0
H1871 H 0.49724 0.96531 0.45735 0.0
C1872 C 0.54996 0.03781 0.52181 0.0
C1873 C 0.54722 0.05114 0.52308 0.0
C1874 C 0.5368 0.02176 0.5176 0.0
C1875 C 0.52056 0.01864 0.51401 0.0
C1876 C 0.51789 0.03202 0.51565 0.0
C1877 C 0.53099 0.04799 0.52037 0.0
C1878 C 0.47797 0.98075 0.52247 0.0
C1879 C 0.47998 0.96909 0.4975 0.0
C1880 C 0.49108 0.99675 0.52791 0.0
C1881 C 0.50649 1.00158 0.50799 0.0
C1882 C 0.5083 0.98997 0.48197 0.0
C1883 C 0.49527 0.97395 0.47705 0.0
H1884 H 0.5411 0.05369 0.05955 0.0
H1885 H 0.49649 0.04076 0.9855 0.0
H1886 H 0.53589 0.02584 0.05103 0.0
H1887 H 0.49157 0.01301 0.97512 0.0
H1888 H 0.47934 0.9606 1.00225 0.0
H1889 H 0.4841 0.98817 0.01173 0.0
H1890 H 0.53616 1.00733 0.99697 0.0
H1891 H 0.53138 0.97948 0.98951 0.0
C1892 C 0.53015 0.04487 0.04143 0.0
C1893 C 0.51918 0.04946 0.02332 0.0
C1894 C 0.52725 0.0289 0.03606 0.0
C1895 C 0.51339 0.01709 0.01192 0.0
C1896 C 0.50228 0.02164 0.99444 0.0
C1897 C 0.50509 0.03759 1.00034 0.0
C1898 C 0.49183 0.97068 1.00075 0.0
C1899 C 0.50499 0.96777 0.99514 0.0
C1900 C 0.49456 0.98658 1.00598 0.0
C1901 C 0.51053 1.00012 1.00524 0.0
C1902 C 0.5237 0.99723 0.99865 0.0
C1903 C 0.52097 0.98126 0.99393 0.0
H1904 H 0.96293 0.49409 0.0197 0.0
H1905 H 0.98156 0.46056 0.02216 0.0
H1906 H 0.99048 0.51693 0.01018 0.0
H1907 H 1.00941 0.48362 0.01468 0.0
H1908 H 0.05544 0.52585 0.95325 0.0
H1909 H 0.02761 0.50318 0.96173 0.0
H1910 H 0.01565 0.53366 0.04593 0.0
H1911 H 0.04337 0.55655 0.03561 0.0
C1912 C 0.97295 0.49158 0.01892 0.0
C1913 C 0.96997 0.47542 0.02169 0.0
C1914 C 0.98884 0.50477 0.01367 0.0
C1915 C 1.00232 0.50226 0.01155 0.0
C1916 C 0.99937 0.48609 0.01524 0.0
C1917 C 0.98339 0.47283 0.01998 0.0
C1918 C 0.04682 0.52777 0.9732 0.0
C1919 C 0.05165 0.54306 0.99364 0.0
C1920 C 0.03086 0.51467 0.97854 0.0
C1921 C 0.01928 0.51641 1.00497 0.0
C1922 C 0.02408 0.53183 0.02481 0.0
C1923 C 0.04002 0.54501 0.01896 0.0
H1924 H 0.56077 0.52248 0.98202 0.0
H1925 H 0.53062 0.48032 0.06707 0.0
H1926 H 0.53785 0.52726 0.97229 0.0
H1927 H 0.50791 0.48548 0.05931 0.0
H1928 H 0.46492 0.48892 1.0008 0.0
H1929 H 0.48786 0.48391 1.0082 0.0
H1930 H 0.52159 0.5361 1.00795 0.0
H1931 H 0.49891 0.54098 0.99838 0.0
C1932 C 0.54934 0.51442 0.9994 0.0
C1933 C 0.54756 0.50103 0.02532 0.0
C1934 C 0.53614 0.51716 0.99391 0.0
C1935 C 0.52086 0.50672 0.01481 0.0
C1936 C 0.51928 0.49358 0.04174 0.0
C1937 C 0.5324 0.49072 0.04666 0.0
C1938 C 0.47726 0.49928 1.00196 0.0
C1939 C 0.48002 0.51533 0.99873 0.0
C1940 C 0.49045 0.49644 1.00663 0.0
C1941 C 0.50672 0.50959 1.00879 0.0
C1942 C 0.50937 0.52561 1.00551 0.0
C1943 C 0.49626 0.52842 1.00025 0.0
loop_
_geom_bond_atom_site_label_1
_geom_bond_atom_site_label_2
_geom_bond_distance
_geom_bond_site_symmetry_2
_ccdc_geom_bond_type
O0 Cd1 2.223 . S
O0 C8 1.315 . S
Cd1 O0 2.223 . S
Cd1 O4 2.297 . S
Cd1 O5 2.439 . S
Cd1 O11 2.240 . S
Cd2 O3 2.240 . S
Cd2 O10 2.223 . S
Cd2 O12 2.297 . S
Cd2 O13 2.439 . S
O3 Cd2 2.240 . S
O3 C8 1.279 . S
O4 Cd1 2.297 . S
O4 C6 1.247 . S
O5 Cd1 2.439 . S
O5 C6 1.208 . S
C6 O4 1.247 . S
C6 O5 1.208 . S
C7 O12 1.247 . S
C7 O13 1.208 . S
C8 O0 1.315 . S
C8 O3 1.279 . S
C9 O10 1.315 . S
C9 O11 1.279 . S
O10 Cd2 2.223 . S
O10 C9 1.315 . S
O11 Cd1 2.240 . S
O11 C9 1.279 . S
O12 Cd2 2.297 . S
O12 C7 1.247 . S
O13 Cd2 2.439 . S
O13 C7 1.208 . S
O14 Cd15 2.223 . S
O14 C22 1.315 . S
Cd15 O14 2.223 . S
Cd15 O18 2.297 . S
Cd15 O19 2.439 . S
Cd15 O25 2.240 . S
Cd16 O17 2.240 . S
Cd16 O24 2.223 . S
Cd16 O26 2.297 . S
Cd16 O27 2.439 . S
O17 Cd16 2.240 . S
O17 C22 1.279 . S
O18 Cd15 2.297 . S
O18 C20 1.247 . S
O19 Cd15 2.439 . S
O19 C20 1.208 . S
C20 O18 1.247 . S
C20 O19 1.208 . S
C21 O26 1.247 . S
C21 O27 1.208 . S
C22 O14 1.315 . S
C22 O17 1.279 . S
C23 O24 1.315 . S
C23 O25 1.279 . S
O24 Cd16 2.223 . S
O24 C23 1.315 . S
O25 Cd15 2.240 . S
O25 C23 1.279 . S
O26 Cd16 2.297 . S
O26 C21 1.247 . S
O27 Cd16 2.439 . S
O27 C21 1.208 . S
O28 Cd29 2.223 . S
O28 C36 1.315 . S
Cd29 O28 2.223 . S
Cd29 O32 2.297 . S
Cd29 O33 2.439 . S
Cd29 O39 2.240 . S
Cd30 O31 2.240 . S
Cd30 O38 2.223 . S
Cd30 O40 2.297 . S
Cd30 O41 2.439 . S
O31 Cd30 2.240 . S
O31 C36 1.279 . S
O32 Cd29 2.297 . S
O32 C34 1.247 . S
O33 Cd29 2.439 . S
O33 C34 1.208 . S
C34 O32 1.247 . S
C34 O33 1.208 . S
C35 O40 1.247 . S
C35 O41 1.208 . S
C36 O28 1.315 . S
C36 O31 1.279 . S
C37 O38 1.315 . S
C37 O39 1.279 . S
O38 Cd30 2.223 . S
O38 C37 1.315 . S
O39 Cd29 2.240 . S
O39 C37 1.279 . S
O40 Cd30 2.297 . S
O40 C35 1.247 . S
O41 Cd30 2.439 . S
O41 C35 1.208 . S
O42 Cd43 2.223 . S
O42 C50 1.315 . S
Cd43 O42 2.223 . S
Cd43 O46 2.297 . S
Cd43 O47 2.439 . S
Cd43 O53 2.240 . S
Cd44 O45 2.240 . S
Cd44 O52 2.223 . S
Cd44 O54 2.297 . S
Cd44 O55 2.439 . S
O45 Cd44 2.240 . S
O45 C50 1.279 . S
O46 Cd43 2.297 . S
O46 C48 1.247 . S
O47 Cd43 2.439 . S
O47 C48 1.208 . S
C48 O46 1.247 . S
C48 O47 1.208 . S
C49 O54 1.247 . S
C49 O55 1.208 . S
C50 O42 1.315 . S
C50 O45 1.279 . S
C51 O52 1.315 . S
C51 O53 1.279 . S
O52 Cd44 2.223 . S
O52 C51 1.315 . S
O53 Cd43 2.240 . S
O53 C51 1.279 . S
O54 Cd44 2.297 . S
O54 C49 1.247 . S
O55 Cd44 2.439 . S
O55 C49 1.208 . S
O56 Cd57 2.223 . S
O56 C64 1.315 . S
Cd57 O56 2.223 . S
Cd57 O60 2.297 . S
Cd57 O61 2.439 . S
Cd57 O67 2.240 . S
Cd58 O59 2.240 . S
Cd58 O66 2.223 . S
Cd58 O68 2.297 . S
Cd58 O69 2.439 . S
O59 Cd58 2.240 . S
O59 C64 1.279 . S
O60 Cd57 2.297 . S
O60 C62 1.247 . S
O61 Cd57 2.439 . S
O61 C62 1.208 . S
C62 O60 1.247 . S
C62 O61 1.208 . S
C63 O68 1.247 . S
C63 O69 1.208 . S
C64 O56 1.315 . S
C64 O59 1.279 . S
C65 O66 1.315 . S
C65 O67 1.279 . S
O66 Cd58 2.223 . S
O66 C65 1.315 . S
O67 Cd57 2.240 . S
O67 C65 1.279 . S
O68 Cd58 2.297 . S
O68 C63 1.247 . S
O69 Cd58 2.439 . S
O69 C63 1.208 . S
O70 Cd71 2.223 . S
O70 C78 1.315 . S
Cd71 O70 2.223 . S
Cd71 O74 2.297 . S
Cd71 O75 2.439 . S
Cd71 O81 2.240 . S
Cd72 O73 2.240 . S
Cd72 O80 2.223 . S
Cd72 O82 2.297 . S
Cd72 O83 2.439 . S
O73 Cd72 2.240 . S
O73 C78 1.279 . S
O74 Cd71 2.297 . S
O74 C76 1.247 . S
O75 Cd71 2.439 . S
O75 C76 1.208 . S
C76 O74 1.247 . S
C76 O75 1.208 . S
C77 O82 1.247 . S
C77 O83 1.208 . S
C78 O70 1.315 . S
C78 O73 1.279 . S
C79 O80 1.315 . S
C79 O81 1.279 . S
O80 Cd72 2.223 . S
O80 C79 1.315 . S
O81 Cd71 2.240 . S
O81 C79 1.279 . S
O82 Cd72 2.297 . S
O82 C77 1.247 . S
O83 Cd72 2.439 . S
O83 C77 1.208 . S
O84 Cd85 2.223 . S
O84 C92 1.315 . S
Cd85 O84 2.223 . S
Cd85 O88 2.297 . S
Cd85 O89 2.439 . S
Cd85 O95 2.240 . S
Cd86 O87 2.240 . S
Cd86 O94 2.223 . S
Cd86 O96 2.297 . S
Cd86 O97 2.439 . S
O87 Cd86 2.240 . S
O87 C92 1.279 . S
O88 Cd85 2.297 . S
O88 C90 1.247 . S
O89 Cd85 2.439 . S
O89 C90 1.208 . S
C90 O88 1.247 . S
C90 O89 1.208 . S
C91 O96 1.247 . S
C91 O97 1.208 . S
C92 O84 1.315 . S
C92 O87 1.279 . S
C93 O94 1.315 . S
C93 O95 1.279 . S
O94 Cd86 2.223 . S
O94 C93 1.315 . S
O95 Cd85 2.240 . S
O95 C93 1.279 . S
O96 Cd86 2.297 . S
O96 C91 1.247 . S
O97 Cd86 2.439 . S
O97 C91 1.208 . S
O98 Cd99 2.223 . S
O98 C106 1.315 . S
Cd99 O98 2.223 . S
Cd99 O102 2.297 . S
Cd99 O103 2.439 . S
Cd99 O109 2.240 . S
Cd100 O101 2.240 . S
Cd100 O108 2.223 . S
Cd100 O110 2.297 . S
Cd100 O111 2.439 . S
O101 Cd100 2.240 . S
O101 C106 1.279 . S
O102 Cd99 2.297 . S
O102 C104 1.247 . S
O103 Cd99 2.439 . S
O103 C104 1.208 . S
C104 O102 1.247 . S
C104 O103 1.208 . S
C105 O110 1.247 . S
C105 O111 1.208 . S
C106 O98 1.315 . S
C106 O101 1.279 . S
C107 O108 1.315 . S
C107 O109 1.279 . S
O108 Cd100 2.223 . S
O108 C107 1.315 . S
O109 Cd99 2.240 . S
O109 C107 1.279 . S
O110 Cd100 2.297 . S
O110 C105 1.247 . S
O111 Cd100 2.439 . S
O111 C105 1.208 . S
O112 Cd113 2.223 . S
O112 C120 1.315 . S
Cd113 O112 2.223 . S
Cd113 O116 2.297 . S
Cd113 O117 2.439 . S
Cd113 O123 2.240 . S
Cd114 O115 2.240 . S
Cd114 O122 2.223 . S
Cd114 O124 2.297 . S
Cd114 O125 2.439 . S
O115 Cd114 2.240 . S
O115 C120 1.279 . S
O116 Cd113 2.297 . S
O116 C118 1.247 . S
O117 Cd113 2.439 . S
O117 C118 1.208 . S
C118 O116 1.247 . S
C118 O117 1.208 . S
C119 O124 1.247 . S
C119 O125 1.208 . S
C120 O112 1.315 . S
C120 O115 1.279 . S
C121 O122 1.315 . S
C121 O123 1.279 . S
O122 Cd114 2.223 . S
O122 C121 1.315 . S
O123 Cd113 2.240 . S
O123 C121 1.279 . S
O124 Cd114 2.297 . S
O124 C119 1.247 . S
O125 Cd114 2.439 . S
O125 C119 1.208 . S
O126 Cd127 2.223 . S
O126 C134 1.315 . S
Cd127 O126 2.223 . S
Cd127 O130 2.297 . S
Cd127 O131 2.439 . S
Cd127 O137 2.240 . S
Cd128 O129 2.240 . S
Cd128 O136 2.223 . S
Cd128 O138 2.297 . S
Cd128 O139 2.439 . S
O129 Cd128 2.240 . S
O129 C134 1.279 . S
O130 Cd127 2.297 . S
O130 C132 1.247 . S
O131 Cd127 2.439 . S
O131 C132 1.208 . S
C132 O130 1.247 . S
C132 O131 1.208 . S
C133 O138 1.247 . S
C133 O139 1.208 . S
C134 O126 1.315 . S
C134 O129 1.279 . S
C135 O136 1.315 . S
C135 O137 1.279 . S
O136 Cd128 2.223 . S
O136 C135 1.315 . S
O137 Cd127 2.240 . S
O137 C135 1.279 . S
O138 Cd128 2.297 . S
O138 C133 1.247 . S
O139 Cd128 2.439 . S
O139 C133 1.208 . S
O140 Cd141 2.223 . S
O140 C148 1.315 . S
Cd141 O140 2.223 . S
Cd141 O144 2.297 . S
Cd141 O145 2.439 . S
Cd141 O151 2.240 . S
Cd142 O143 2.240 . S
Cd142 O150 2.223 . S
Cd142 O152 2.297 . S
Cd142 O153 2.439 . S
O143 Cd142 2.240 . S
O143 C148 1.279 . S
O144 Cd141 2.297 . S
O144 C146 1.247 . S
O145 Cd141 2.439 . S
O145 C146 1.208 . S
C146 O144 1.247 . S
C146 O145 1.208 . S
C147 O152 1.247 . S
C147 O153 1.208 . S
C148 O140 1.315 . S
C148 O143 1.279 . S
C149 O150 1.315 . S
C149 O151 1.279 . S
O150 Cd142 2.223 . S
O150 C149 1.315 . S
O151 Cd141 2.240 . S
O151 C149 1.279 . S
O152 Cd142 2.297 . S
O152 C147 1.247 . S
O153 Cd142 2.439 . S
O153 C147 1.208 . S
O154 Cd155 2.223 . S
O154 C162 1.315 . S
Cd155 O154 2.223 . S
Cd155 O158 2.297 . S
Cd155 O159 2.439 . S
Cd155 O165 2.240 . S
Cd156 O157 2.240 . S
Cd156 O164 2.223 . S
Cd156 O166 2.297 . S
Cd156 O167 2.439 . S
O157 Cd156 2.240 . S
O157 C162 1.279 . S
O158 Cd155 2.297 . S
O158 C160 1.247 . S
O159 Cd155 2.439 . S
O159 C160 1.208 . S
C160 O158 1.247 . S
C160 O159 1.208 . S
C161 O166 1.247 . S
C161 O167 1.208 . S
C162 O154 1.315 . S
C162 O157 1.279 . S
C163 O164 1.315 . S
C163 O165 1.279 . S
O164 Cd156 2.223 . S
O164 C163 1.315 . S
O165 Cd155 2.240 . S
O165 C163 1.279 . S
O166 Cd156 2.297 . S
O166 C161 1.247 . S
O167 Cd156 2.439 . S
O167 C161 1.208 . S
O168 Cd169 2.223 . S
O168 C176 1.315 . S
Cd169 O168 2.223 . S
Cd169 O172 2.297 . S
Cd169 O173 2.439 . S
Cd169 O179 2.240 . S
Cd170 O171 2.240 . S
Cd170 O178 2.223 . S
Cd170 O180 2.297 . S
Cd170 O181 2.439 . S
O171 Cd170 2.240 . S
O171 C176 1.279 . S
O172 Cd169 2.297 . S
O172 C174 1.247 . S
O173 Cd169 2.439 . S
O173 C174 1.208 . S
C174 O172 1.247 . S
C174 O173 1.208 . S
C175 O180 1.247 . S
C175 O181 1.208 . S
C176 O168 1.315 . S
C176 O171 1.279 . S
C177 O178 1.315 . S
C177 O179 1.279 . S
O178 Cd170 2.223 . S
O178 C177 1.315 . S
O179 Cd169 2.240 . S
O179 C177 1.279 . S
O180 Cd170 2.297 . S
O180 C175 1.247 . S
O181 Cd170 2.439 . S
O181 C175 1.208 . S
O182 Cd183 2.223 . S
O182 C190 1.315 . S
Cd183 O182 2.223 . S
Cd183 O186 2.297 . S
Cd183 O187 2.439 . S
Cd183 O193 2.240 . S
Cd184 O185 2.240 . S
Cd184 O192 2.223 . S
Cd184 O194 2.297 . S
Cd184 O195 2.439 . S
O185 Cd184 2.240 . S
O185 C190 1.279 . S
O186 Cd183 2.297 . S
O186 C188 1.247 . S
O187 Cd183 2.439 . S
O187 C188 1.208 . S
C188 O186 1.247 . S
C188 O187 1.208 . S
C189 O194 1.247 . S
C189 O195 1.208 . S
C190 O182 1.315 . S
C190 O185 1.279 . S
C191 O192 1.315 . S
C191 O193 1.279 . S
O192 Cd184 2.223 . S
O192 C191 1.315 . S
O193 Cd183 2.240 . S
O193 C191 1.279 . S
O194 Cd184 2.297 . S
O194 C189 1.247 . S
O195 Cd184 2.439 . S
O195 C189 1.208 . S
O196 Cd197 2.223 . S
O196 C204 1.315 . S
Cd197 O196 2.223 . S
Cd197 O200 2.297 . S
Cd197 O201 2.439 . S
Cd197 O207 2.240 . S
Cd198 O199 2.240 . S
Cd198 O206 2.223 . S
Cd198 O208 2.297 . S
Cd198 O209 2.439 . S
O199 Cd198 2.240 . S
O199 C204 1.279 . S
O200 Cd197 2.297 . S
O200 C202 1.247 . S
O201 Cd197 2.439 . S
O201 C202 1.208 . S
C202 O200 1.247 . S
C202 O201 1.208 . S
C203 O208 1.247 . S
C203 O209 1.208 . S
C204 O196 1.315 . S
C204 O199 1.279 . S
C205 O206 1.315 . S
C205 O207 1.279 . S
O206 Cd198 2.223 . S
O206 C205 1.315 . S
O207 Cd197 2.240 . S
O207 C205 1.279 . S
O208 Cd198 2.297 . S
O208 C203 1.247 . S
O209 Cd198 2.439 . S
O209 C203 1.208 . S
O210 Cd211 2.223 . S
O210 C218 1.315 . S
Cd211 O210 2.223 . S
Cd211 O214 2.297 . S
Cd211 O215 2.439 . S
Cd211 O221 2.240 . S
Cd212 O213 2.240 . S
Cd212 O220 2.223 . S
Cd212 O222 2.297 . S
Cd212 O223 2.439 . S
O213 Cd212 2.240 . S
O213 C218 1.279 . S
O214 Cd211 2.297 . S
O214 C216 1.247 . S
O215 Cd211 2.439 . S
O215 C216 1.208 . S
C216 O214 1.247 . S
C216 O215 1.208 . S
C217 O222 1.247 . S
C217 O223 1.208 . S
C218 O210 1.315 . S
C218 O213 1.279 . S
C219 O220 1.315 . S
C219 O221 1.279 . S
O220 Cd212 2.223 . S
O220 C219 1.315 . S
O221 Cd211 2.240 . S
O221 C219 1.279 . S
O222 Cd212 2.297 . S
O222 C217 1.247 . S
O223 Cd212 2.439 . S
O223 C217 1.208 . S
O224 Cd225 2.223 . S
O224 C232 1.315 . S
Cd225 O224 2.223 . S
Cd225 O228 2.297 . S
Cd225 O229 2.439 . S
Cd225 O235 2.240 . S
Cd226 O227 2.240 . S
Cd226 O234 2.223 . S
Cd226 O236 2.297 . S
Cd226 O237 2.439 . S
O227 Cd226 2.240 . S
O227 C232 1.279 . S
O228 Cd225 2.297 . S
O228 C230 1.247 . S
O229 Cd225 2.439 . S
O229 C230 1.208 . S
C230 O228 1.247 . S
C230 O229 1.208 . S
C231 O236 1.247 . S
C231 O237 1.208 . S
C232 O224 1.315 . S
C232 O227 1.279 . S
C233 O234 1.315 . S
C233 O235 1.279 . S
O234 Cd226 2.223 . S
O234 C233 1.315 . S
O235 Cd225 2.240 . S
O235 C233 1.279 . S
O236 Cd226 2.297 . S
O236 C231 1.247 . S
O237 Cd226 2.439 . S
O237 C231 1.208 . S
O238 Cd239 2.223 . S
O238 C246 1.315 . S
Cd239 O238 2.223 . S
Cd239 O242 2.297 . S
Cd239 O243 2.439 . S
Cd239 O249 2.240 . S
Cd240 O241 2.240 . S
Cd240 O248 2.223 . S
Cd240 O250 2.297 . S
Cd240 O251 2.439 . S
O241 Cd240 2.240 . S
O241 C246 1.279 . S
O242 Cd239 2.297 . S
O242 C244 1.247 . S
O243 Cd239 2.439 . S
O243 C244 1.208 . S
C244 O242 1.247 . S
C244 O243 1.208 . S
C245 O250 1.247 . S
C245 O251 1.208 . S
C246 O238 1.315 . S
C246 O241 1.279 . S
C247 O248 1.315 . S
C247 O249 1.279 . S
O248 Cd240 2.223 . S
O248 C247 1.315 . S
O249 Cd239 2.240 . S
O249 C247 1.279 . S
O250 Cd240 2.297 . S
O250 C245 1.247 . S
O251 Cd240 2.439 . S
O251 C245 1.208 . S
O252 Cd253 2.223 . S
O252 C260 1.315 . S
Cd253 O252 2.223 . S
Cd253 O256 2.297 . S
Cd253 O257 2.439 . S
Cd253 O263 2.240 . S
Cd254 O255 2.240 . S
Cd254 O262 2.223 . S
Cd254 O264 2.297 . S
Cd254 O265 2.439 . S
O255 Cd254 2.240 . S
O255 C260 1.279 . S
O256 Cd253 2.297 . S
O256 C258 1.247 . S
O257 Cd253 2.439 . S
O257 C258 1.208 . S
C258 O256 1.247 . S
C258 O257 1.208 . S
C259 O264 1.247 1_556 S
C259 O265 1.208 1_556 S
C260 O252 1.315 . S
C260 O255 1.279 . S
C261 O262 1.315 . S
C261 O263 1.279 . S
O262 Cd254 2.223 . S
O262 C261 1.315 . S
O263 Cd253 2.240 . S
O263 C261 1.279 . S
O264 Cd254 2.297 . S
O264 C259 1.247 1_554 S
O265 Cd254 2.439 . S
O265 C259 1.208 1_554 S
O266 Cd267 2.223 . S
O266 C274 1.315 . S
Cd267 O266 2.223 . S
Cd267 O270 2.297 . S
Cd267 O271 2.439 . S
Cd267 O277 2.240 . S
Cd268 O269 2.240 . S
Cd268 O276 2.223 . S
Cd268 O278 2.297 . S
Cd268 O279 2.439 . S
O269 Cd268 2.240 . S
O269 C274 1.279 . S
O270 Cd267 2.297 . S
O270 C272 1.247 . S
O271 Cd267 2.439 . S
O271 C272 1.208 . S
C272 O270 1.247 . S
C272 O271 1.208 . S
C273 O278 1.247 1_556 S
C273 O279 1.208 1_556 S
C274 O266 1.315 . S
C274 O269 1.279 . S
C275 O276 1.315 . S
C275 O277 1.279 . S
O276 Cd268 2.223 . S
O276 C275 1.315 . S
O277 Cd267 2.240 . S
O277 C275 1.279 . S
O278 Cd268 2.297 . S
O278 C273 1.247 1_554 S
O279 Cd268 2.439 . S
O279 C273 1.208 1_554 S
O280 Cd281 2.223 . S
O280 C288 1.315 . S
Cd281 O280 2.223 . S
Cd281 O284 2.297 . S
Cd281 O285 2.439 . S
Cd281 O291 2.240 . S
Cd282 O283 2.240 . S
Cd282 O290 2.223 . S
Cd282 O292 2.297 . S
Cd282 O293 2.439 . S
O283 Cd282 2.240 . S
O283 C288 1.279 . S
O284 Cd281 2.297 . S
O284 C286 1.247 . S
O285 Cd281 2.439 . S
O285 C286 1.208 . S
C286 O284 1.247 . S
C286 O285 1.208 . S
C287 O292 1.247 1_556 S
C287 O293 1.208 1_556 S
C288 O280 1.315 . S
C288 O283 1.279 . S
C289 O290 1.315 . S
C289 O291 1.279 . S
O290 Cd282 2.223 . S
O290 C289 1.315 . S
O291 Cd281 2.240 . S
O291 C289 1.279 . S
O292 Cd282 2.297 . S
O292 C287 1.247 1_554 S
O293 Cd282 2.439 . S
O293 C287 1.208 1_554 S
O294 Cd295 2.223 1_556 S
O294 C302 1.315 . S
Cd295 O294 2.223 1_554 S
Cd295 O298 2.297 . S
Cd295 O299 2.439 . S
Cd295 O305 2.240 . S
Cd296 O297 2.240 . S
Cd296 O304 2.223 . S
Cd296 O306 2.297 . S
Cd296 O307 2.439 . S
O297 Cd296 2.240 . S
O297 C302 1.279 1_554 S
O298 Cd295 2.297 . S
O298 C300 1.247 . S
O299 Cd295 2.439 . S
O299 C300 1.208 . S
C300 O298 1.247 . S
C300 O299 1.208 . S
C301 O306 1.247 . S
C301 O307 1.208 . S
C302 O294 1.315 . S
C302 O297 1.279 1_556 S
C303 O304 1.315 . S
C303 O305 1.279 . S
O304 Cd296 2.223 . S
O304 C303 1.315 . S
O305 Cd295 2.240 . S
O305 C303 1.279 . S
O306 Cd296 2.297 . S
O306 C301 1.247 . S
O307 Cd296 2.439 . S
O307 C301 1.208 . S
O308 Cd309 2.223 1_556 S
O308 C316 1.315 . S
Cd309 O308 2.223 1_554 S
Cd309 O312 2.297 . S
Cd309 O313 2.439 . S
Cd309 O319 2.240 . S
Cd310 O311 2.240 . S
Cd310 O318 2.223 . S
Cd310 O320 2.297 . S
Cd310 O321 2.439 . S
O311 Cd310 2.240 . S
O311 C316 1.279 1_554 S
O312 Cd309 2.297 . S
O312 C314 1.247 . S
O313 Cd309 2.439 . S
O313 C314 1.208 . S
C314 O312 1.247 . S
C314 O313 1.208 . S
C315 O320 1.247 . S
C315 O321 1.208 . S
C316 O308 1.315 . S
C316 O311 1.279 1_556 S
C317 O318 1.315 . S
C317 O319 1.279 . S
O318 Cd310 2.223 . S
O318 C317 1.315 . S
O319 Cd309 2.240 . S
O319 C317 1.279 . S
O320 Cd310 2.297 . S
O320 C315 1.247 . S
O321 Cd310 2.439 . S
O321 C315 1.208 . S
O322 Cd323 2.223 1_556 S
O322 C330 1.315 . S
Cd323 O322 2.223 1_554 S
Cd323 O326 2.297 . S
Cd323 O327 2.439 . S
Cd323 O333 2.240 . S
Cd324 O325 2.240 . S
Cd324 O332 2.223 . S
Cd324 O334 2.297 . S
Cd324 O335 2.439 . S
O325 Cd324 2.240 . S
O325 C330 1.279 1_554 S
O326 Cd323 2.297 . S
O326 C328 1.247 . S
O327 Cd323 2.439 . S
O327 C328 1.208 . S
C328 O326 1.247 . S
C328 O327 1.208 . S
C329 O334 1.247 . S
C329 O335 1.208 . S
C330 O322 1.315 . S
C330 O325 1.279 1_556 S
C331 O332 1.315 . S
C331 O333 1.279 . S
O332 Cd324 2.223 . S
O332 C331 1.315 . S
O333 Cd323 2.240 . S
O333 C331 1.279 . S
O334 Cd324 2.297 . S
O334 C329 1.247 . S
O335 Cd324 2.439 . S
O335 C329 1.208 . S
O336 Cd337 2.223 . S
O336 C344 1.315 . S
Cd337 O336 2.223 . S
Cd337 O340 2.297 . S
Cd337 O341 2.439 . S
Cd337 O347 2.240 . S
Cd338 O339 2.240 . S
Cd338 O346 2.223 . S
Cd338 O348 2.297 . S
Cd338 O349 2.439 . S
O339 Cd338 2.240 . S
O339 C344 1.279 . S
O340 Cd337 2.297 . S
O340 C342 1.247 . S
O341 Cd337 2.439 . S
O341 C342 1.208 . S
C342 O340 1.247 . S
C342 O341 1.208 . S
C343 O348 1.247 1_554 S
C343 O349 1.208 1_554 S
C344 O336 1.315 . S
C344 O339 1.279 . S
C345 O346 1.315 . S
C345 O347 1.279 . S
O346 Cd338 2.223 . S
O346 C345 1.315 . S
O347 Cd337 2.240 . S
O347 C345 1.279 . S
O348 Cd338 2.297 . S
O348 C343 1.247 1_556 S
O349 Cd338 2.439 . S
O349 C343 1.208 1_556 S
O350 Cd351 2.223 . S
O350 C358 1.315 . S
Cd351 O350 2.223 . S
Cd351 O354 2.297 . S
Cd351 O355 2.439 . S
Cd351 O361 2.240 . S
Cd352 O353 2.240 . S
Cd352 O360 2.223 . S
Cd352 O362 2.297 . S
Cd352 O363 2.439 . S
O353 Cd352 2.240 . S
O353 C358 1.279 . S
O354 Cd351 2.297 . S
O354 C356 1.247 . S
O355 Cd351 2.439 . S
O355 C356 1.208 . S
C356 O354 1.247 . S
C356 O355 1.208 . S
C357 O362 1.247 1_554 S
C357 O363 1.208 1_554 S
C358 O350 1.315 . S
C358 O353 1.279 . S
C359 O360 1.315 . S
C359 O361 1.279 . S
O360 Cd352 2.223 . S
O360 C359 1.315 . S
O361 Cd351 2.240 . S
O361 C359 1.279 . S
O362 Cd352 2.297 . S
O362 C357 1.247 1_556 S
O363 Cd352 2.439 . S
O363 C357 1.208 1_556 S
O364 Cd365 2.223 . S
O364 C372 1.315 . S
Cd365 O364 2.223 . S
Cd365 O368 2.297 . S
Cd365 O369 2.439 . S
Cd365 O375 2.240 . S
Cd366 O367 2.240 . S
Cd366 O374 2.223 . S
Cd366 O376 2.297 . S
Cd366 O377 2.439 . S
O367 Cd366 2.240 . S
O367 C372 1.279 . S
O368 Cd365 2.297 . S
O368 C370 1.247 . S
O369 Cd365 2.439 . S
O369 C370 1.208 . S
C370 O368 1.247 . S
C370 O369 1.208 . S
C371 O376 1.247 1_554 S
C371 O377 1.208 1_554 S
C372 O364 1.315 . S
C372 O367 1.279 . S
C373 O374 1.315 . S
C373 O375 1.279 . S
O374 Cd366 2.223 . S
O374 C373 1.315 . S
O375 Cd365 2.240 . S
O375 C373 1.279 . S
O376 Cd366 2.297 . S
O376 C371 1.247 1_556 S
O377 Cd366 2.439 . S
O377 C371 1.208 1_556 S
O378 Cd379 2.223 1_554 S
O378 C386 1.315 . S
Cd379 O378 2.223 1_556 S
Cd379 O382 2.297 . S
Cd379 O383 2.439 . S
Cd379 O389 2.240 . S
Cd380 O381 2.240 . S
Cd380 O388 2.223 . S
Cd380 O390 2.297 . S
Cd380 O391 2.439 . S
O381 Cd380 2.240 . S
O381 C386 1.279 1_556 S
O382 Cd379 2.297 . S
O382 C384 1.247 . S
O383 Cd379 2.439 . S
O383 C384 1.208 . S
C384 O382 1.247 . S
C384 O383 1.208 . S
C385 O390 1.247 . S
C385 O391 1.208 . S
C386 O378 1.315 . S
C386 O381 1.279 1_554 S
C387 O388 1.315 . S
C387 O389 1.279 . S
O388 Cd380 2.223 . S
O388 C387 1.315 . S
O389 Cd379 2.240 . S
O389 C387 1.279 . S
O390 Cd380 2.297 . S
O390 C385 1.247 . S
O391 Cd380 2.439 . S
O391 C385 1.208 . S
O392 Cd393 2.223 1_554 S
O392 C400 1.315 . S
Cd393 O392 2.223 1_556 S
Cd393 O396 2.297 . S
Cd393 O397 2.439 . S
Cd393 O403 2.240 . S
Cd394 O395 2.240 . S
Cd394 O402 2.223 . S
Cd394 O404 2.297 . S
Cd394 O405 2.439 . S
O395 Cd394 2.240 . S
O395 C400 1.279 1_556 S
O396 Cd393 2.297 . S
O396 C398 1.247 . S
O397 Cd393 2.439 . S
O397 C398 1.208 . S
C398 O396 1.247 . S
C398 O397 1.208 . S
C399 O404 1.247 . S
C399 O405 1.208 . S
C400 O392 1.315 . S
C400 O395 1.279 1_554 S
C401 O402 1.315 . S
C401 O403 1.279 . S
O402 Cd394 2.223 . S
O402 C401 1.315 . S
O403 Cd393 2.240 . S
O403 C401 1.279 . S
O404 Cd394 2.297 . S
O404 C399 1.247 . S
O405 Cd394 2.439 . S
O405 C399 1.208 . S
O406 Cd407 2.223 1_554 S
O406 C414 1.315 . S
Cd407 O406 2.223 1_556 S
Cd407 O410 2.297 . S
Cd407 O411 2.439 . S
Cd407 O417 2.240 . S
Cd408 O409 2.240 . S
Cd408 O416 2.223 . S
Cd408 O418 2.297 . S
Cd408 O419 2.439 . S
O409 Cd408 2.240 . S
O409 C414 1.279 1_556 S
O410 Cd407 2.297 . S
O410 C412 1.247 . S
O411 Cd407 2.439 . S
O411 C412 1.208 . S
C412 O410 1.247 . S
C412 O411 1.208 . S
C413 O418 1.247 . S
C413 O419 1.208 . S
C414 O406 1.315 . S
C414 O409 1.279 1_554 S
C415 O416 1.315 . S
C415 O417 1.279 . S
O416 Cd408 2.223 . S
O416 C415 1.315 . S
O417 Cd407 2.240 . S
O417 C415 1.279 . S
O418 Cd408 2.297 . S
O418 C413 1.247 . S
O419 Cd408 2.439 . S
O419 C413 1.208 . S
O420 Cd421 2.223 . S
O420 C428 1.315 . S
Cd421 O420 2.223 . S
Cd421 O424 2.297 . S
Cd421 O425 2.439 . S
Cd421 O431 2.240 . S
Cd422 O423 2.240 . S
Cd422 O430 2.223 . S
Cd422 O432 2.297 . S
Cd422 O433 2.439 . S
O423 Cd422 2.240 . S
O423 C428 1.279 . S
O424 Cd421 2.297 . S
O424 C426 1.247 . S
O425 Cd421 2.439 . S
O425 C426 1.208 . S
C426 O424 1.247 . S
C426 O425 1.208 . S
C427 O432 1.247 . S
C427 O433 1.208 . S
C428 O420 1.315 . S
C428 O423 1.279 . S
C429 O430 1.315 . S
C429 O431 1.279 . S
O430 Cd422 2.223 . S
O430 C429 1.315 . S
O431 Cd421 2.240 . S
O431 C429 1.279 . S
O432 Cd422 2.297 . S
O432 C427 1.247 . S
O433 Cd422 2.439 . S
O433 C427 1.208 . S
O434 Cd435 2.223 . S
O434 C442 1.315 . S
Cd435 O434 2.223 . S
Cd435 O438 2.297 . S
Cd435 O439 2.439 . S
Cd435 O445 2.240 . S
Cd436 O437 2.240 . S
Cd436 O444 2.223 . S
Cd436 O446 2.297 . S
Cd436 O447 2.439 . S
O437 Cd436 2.240 . S
O437 C442 1.279 . S
O438 Cd435 2.297 . S
O438 C440 1.247 . S
O439 Cd435 2.439 . S
O439 C440 1.208 . S
C440 O438 1.247 . S
C440 O439 1.208 . S
C441 O446 1.247 . S
C441 O447 1.208 . S
C442 O434 1.315 . S
C442 O437 1.279 . S
C443 O444 1.315 . S
C443 O445 1.279 . S
O444 Cd436 2.223 . S
O444 C443 1.315 . S
O445 Cd435 2.240 . S
O445 C443 1.279 . S
O446 Cd436 2.297 . S
O446 C441 1.247 . S
O447 Cd436 2.439 . S
O447 C441 1.208 . S
O448 Cd449 2.223 . S
O448 C456 1.315 . S
Cd449 O448 2.223 . S
Cd449 O452 2.297 . S
Cd449 O453 2.439 . S
Cd449 O459 2.240 . S
Cd450 O451 2.240 . S
Cd450 O458 2.223 . S
Cd450 O460 2.297 . S
Cd450 O461 2.439 . S
O451 Cd450 2.240 . S
O451 C456 1.279 . S
O452 Cd449 2.297 . S
O452 C454 1.247 . S
O453 Cd449 2.439 . S
O453 C454 1.208 . S
C454 O452 1.247 . S
C454 O453 1.208 . S
C455 O460 1.247 . S
C455 O461 1.208 . S
C456 O448 1.315 . S
C456 O451 1.279 . S
C457 O458 1.315 . S
C457 O459 1.279 . S
O458 Cd450 2.223 . S
O458 C457 1.315 . S
O459 Cd449 2.240 . S
O459 C457 1.279 . S
O460 Cd450 2.297 . S
O460 C455 1.247 . S
O461 Cd450 2.439 . S
O461 C455 1.208 . S
O462 Cd463 2.223 . S
O462 C470 1.315 . S
Cd463 O462 2.223 . S
Cd463 O466 2.297 . S
Cd463 O467 2.439 . S
Cd463 O473 2.240 . S
Cd464 O465 2.240 . S
Cd464 O472 2.223 . S
Cd464 O474 2.297 . S
Cd464 O475 2.439 . S
O465 Cd464 2.240 . S
O465 C470 1.279 . S
O466 Cd463 2.297 . S
O466 C468 1.247 . S
O467 Cd463 2.439 . S
O467 C468 1.208 . S
C468 O466 1.247 . S
C468 O467 1.208 . S
C469 O474 1.247 . S
C469 O475 1.208 . S
C470 O462 1.315 . S
C470 O465 1.279 . S
C471 O472 1.315 . S
C471 O473 1.279 . S
O472 Cd464 2.223 . S
O472 C471 1.315 . S
O473 Cd463 2.240 . S
O473 C471 1.279 . S
O474 Cd464 2.297 . S
O474 C469 1.247 . S
O475 Cd464 2.439 . S
O475 C469 1.208 . S
O476 Cd477 2.223 . S
O476 C484 1.315 . S
Cd477 O476 2.223 . S
Cd477 O480 2.297 . S
Cd477 O481 2.439 . S
Cd477 O487 2.240 . S
Cd478 O479 2.240 . S
Cd478 O486 2.223 . S
Cd478 O488 2.297 . S
Cd478 O489 2.439 . S
O479 Cd478 2.240 . S
O479 C484 1.279 . S
O480 Cd477 2.297 . S
O480 C482 1.247 . S
O481 Cd477 2.439 . S
O481 C482 1.208 . S
C482 O480 1.247 . S
C482 O481 1.208 . S
C483 O488 1.247 . S
C483 O489 1.208 . S
C484 O476 1.315 . S
C484 O479 1.279 . S
C485 O486 1.315 . S
C485 O487 1.279 . S
O486 Cd478 2.223 . S
O486 C485 1.315 . S
O487 Cd477 2.240 . S
O487 C485 1.279 . S
O488 Cd478 2.297 . S
O488 C483 1.247 . S
O489 Cd478 2.439 . S
O489 C483 1.208 . S
O490 Cd491 2.223 . S
O490 C498 1.315 . S
Cd491 O490 2.223 . S
Cd491 O494 2.297 . S
Cd491 O495 2.439 . S
Cd491 O501 2.240 . S
Cd492 O493 2.240 . S
Cd492 O500 2.223 . S
Cd492 O502 2.297 . S
Cd492 O503 2.439 . S
O493 Cd492 2.240 . S
O493 C498 1.279 . S
O494 Cd491 2.297 . S
O494 C496 1.247 . S
O495 Cd491 2.439 . S
O495 C496 1.208 . S
C496 O494 1.247 . S
C496 O495 1.208 . S
C497 O502 1.247 . S
C497 O503 1.208 . S
C498 O490 1.315 . S
C498 O493 1.279 . S
C499 O500 1.315 . S
C499 O501 1.279 . S
O500 Cd492 2.223 . S
O500 C499 1.315 . S
O501 Cd491 2.240 . S
O501 C499 1.279 . S
O502 Cd492 2.297 . S
O502 C497 1.247 . S
O503 Cd492 2.439 . S
O503 C497 1.208 . S
H504 C512 0.950 . S
H505 C517 0.950 . S
H506 C514 0.950 . S
H507 C516 0.950 . S
H508 C518 0.950 . S
H509 C520 0.950 . S
H510 C522 0.950 . S
H511 C523 0.950 . S
C512 H504 0.950 . S
C512 C513 1.386 . S
C512 C514 1.391 . S
C513 C512 1.386 . S
C513 C517 1.393 . S
C514 H506 0.950 . S
C514 C512 1.391 . S
C514 C515 1.400 . S
C515 C514 1.400 . S
C515 C516 1.398 . S
C515 C521 1.491 1_556 S
C516 H507 0.950 . S
C516 C515 1.398 . S
C516 C517 1.391 . S
C517 H505 0.950 . S
C517 C513 1.393 . S
C517 C516 1.391 . S
C518 H508 0.950 . S
C518 C519 1.386 . S
C518 C520 1.391 . S
C519 C518 1.386 . S
C519 C523 1.393 . S
C520 H509 0.950 . S
C520 C518 1.391 . S
C520 C521 1.400 . S
C521 C515 1.491 1_554 S
C521 C520 1.400 . S
C521 C522 1.398 . S
C522 H510 0.950 . S
C522 C521 1.398 . S
C522 C523 1.391 . S
C523 H511 0.950 . S
C523 C519 1.393 . S
C523 C522 1.391 . S
H524 C532 0.950 . S
H525 C537 0.950 . S
H526 C534 0.950 . S
H527 C536 0.950 . S
H528 C538 0.950 . S
H529 C540 0.950 . S
H530 C542 0.950 . S
H531 C543 0.950 . S
C532 H524 0.950 . S
C532 C533 1.386 . S
C532 C534 1.391 . S
C533 C532 1.386 . S
C533 C537 1.393 . S
C534 H526 0.950 . S
C534 C532 1.391 . S
C534 C535 1.400 . S
C535 C534 1.400 . S
C535 C536 1.398 . S
C535 C541 1.491 1_556 S
C536 H527 0.950 . S
C536 C535 1.398 . S
C536 C537 1.391 . S
C537 H525 0.950 . S
C537 C533 1.393 . S
C537 C536 1.391 . S
C538 H528 0.950 . S
C538 C539 1.386 . S
C538 C540 1.391 . S
C539 C538 1.386 . S
C539 C543 1.393 . S
C540 H529 0.950 . S
C540 C538 1.391 . S
C540 C541 1.400 . S
C541 C535 1.491 1_554 S
C541 C540 1.400 . S
C541 C542 1.398 . S
C542 H530 0.950 . S
C542 C541 1.398 . S
C542 C543 1.391 . S
C543 H531 0.950 . S
C543 C539 1.393 . S
C543 C542 1.391 . S
H544 C552 0.950 . S
H545 C557 0.950 . S
H546 C554 0.950 . S
H547 C556 0.950 . S
H548 C558 0.950 . S
H549 C560 0.950 . S
H550 C562 0.950 . S
H551 C563 0.950 . S
C552 H544 0.950 . S
C552 C553 1.386 . S
C552 C554 1.391 . S
C553 C552 1.386 . S
C553 C557 1.393 . S
C554 H546 0.950 . S
C554 C552 1.391 . S
C554 C555 1.400 . S
C555 C554 1.400 . S
C555 C556 1.398 . S
C555 C561 1.491 1_554 S
C556 H547 0.950 . S
C556 C555 1.398 . S
C556 C557 1.391 . S
C557 H545 0.950 . S
C557 C553 1.393 . S
C557 C556 1.391 . S
C558 H548 0.950 . S
C558 C559 1.386 . S
C558 C560 1.391 . S
C559 C558 1.386 . S
C559 C563 1.393 . S
C560 H549 0.950 . S
C560 C558 1.391 . S
C560 C561 1.400 . S
C561 C555 1.491 1_556 S
C561 C560 1.400 . S
C561 C562 1.398 . S
C562 H550 0.950 . S
C562 C561 1.398 . S
C562 C563 1.391 . S
C563 H551 0.950 . S
C563 C559 1.393 . S
C563 C562 1.391 . S
H564 C572 0.950 . S
H565 C577 0.950 . S
H566 C574 0.950 . S
H567 C576 0.950 . S
H568 C578 0.950 . S
H569 C580 0.950 . S
H570 C582 0.950 . S
H571 C583 0.950 . S
C572 H564 0.950 . S
C572 C573 1.386 . S
C572 C574 1.391 . S
C573 C572 1.386 . S
C573 C577 1.393 . S
C574 H566 0.950 . S
C574 C572 1.391 . S
C574 C575 1.400 . S
C575 C574 1.400 . S
C575 C576 1.398 . S
C575 C581 1.491 . S
C576 H567 0.950 . S
C576 C575 1.398 . S
C576 C577 1.391 . S
C577 H565 0.950 . S
C577 C573 1.393 . S
C577 C576 1.391 . S
C578 H568 0.950 . S
C578 C579 1.386 . S
C578 C580 1.391 . S
C579 C578 1.386 . S
C579 C583 1.393 . S
C580 H569 0.950 . S
C580 C578 1.391 . S
C580 C581 1.400 . S
C581 C575 1.491 . S
C581 C580 1.400 . S
C581 C582 1.398 . S
C582 H570 0.950 . S
C582 C581 1.398 . S
C582 C583 1.391 . S
C583 H571 0.950 . S
C583 C579 1.393 . S
C583 C582 1.391 . S
H584 C592 0.950 . S
H585 C597 0.950 . S
H586 C594 0.950 . S
H587 C596 0.950 . S
H588 C598 0.950 . S
H589 C600 0.950 . S
H590 C602 0.950 . S
H591 C603 0.950 . S
C592 H584 0.950 . S
C592 C593 1.386 . S
C592 C594 1.391 . S
C593 C592 1.386 . S
C593 C597 1.393 . S
C594 H586 0.950 . S
C594 C592 1.391 . S
C594 C595 1.400 . S
C595 C594 1.400 . S
C595 C596 1.398 . S
C595 C601 1.491 . S
C596 H587 0.950 . S
C596 C595 1.398 . S
C596 C597 1.391 . S
C597 H585 0.950 . S
C597 C593 1.393 . S
C597 C596 1.391 . S
C598 H588 0.950 . S
C598 C599 1.386 . S
C598 C600 1.391 . S
C599 C598 1.386 . S
C599 C603 1.393 . S
C600 H589 0.950 . S
C600 C598 1.391 . S
C600 C601 1.400 . S
C601 C595 1.491 . S
C601 C600 1.400 . S
C601 C602 1.398 . S
C602 H590 0.950 . S
C602 C601 1.398 . S
C602 C603 1.391 . S
C603 H591 0.950 . S
C603 C599 1.393 . S
C603 C602 1.391 . S
H604 C612 0.950 . S
H605 C617 0.950 . S
H606 C614 0.950 . S
H607 C616 0.950 . S
H608 C618 0.950 . S
H609 C620 0.950 . S
H610 C622 0.950 . S
H611 C623 0.950 . S
C612 H604 0.950 . S
C612 C613 1.386 . S
C612 C614 1.391 . S
C613 C612 1.386 . S
C613 C617 1.393 . S
C614 H606 0.950 . S
C614 C612 1.391 . S
C614 C615 1.400 . S
C615 C614 1.400 . S
C615 C616 1.398 . S
C615 C621 1.491 . S
C616 H607 0.950 . S
C616 C615 1.398 . S
C616 C617 1.391 . S
C617 H605 0.950 . S
C617 C613 1.393 . S
C617 C616 1.391 . S
C618 H608 0.950 . S
C618 C619 1.386 . S
C618 C620 1.391 . S
C619 C618 1.386 . S
C619 C623 1.393 . S
C620 H609 0.950 . S
C620 C618 1.391 . S
C620 C621 1.400 . S
C621 C615 1.491 . S
C621 C620 1.400 . S
C621 C622 1.398 . S
C622 H610 0.950 . S
C622 C621 1.398 . S
C622 C623 1.391 . S
C623 H611 0.950 . S
C623 C619 1.393 . S
C623 C622 1.391 . S
H624 C632 0.950 . S
H625 C637 0.950 . S
H626 C634 0.950 . S
H627 C636 0.950 . S
H628 C638 0.950 . S
H629 C640 0.950 . S
H630 C642 0.950 . S
H631 C643 0.950 . S
C632 H624 0.950 . S
C632 C633 1.386 . S
C632 C634 1.391 . S
C633 C632 1.386 . S
C633 C637 1.393 . S
C634 H626 0.950 . S
C634 C632 1.391 . S
C634 C635 1.400 . S
C635 C634 1.400 . S
C635 C636 1.398 . S
C635 C641 1.491 1_554 S
C636 H627 0.950 . S
C636 C635 1.398 . S
C636 C637 1.391 . S
C637 H625 0.950 . S
C637 C633 1.393 . S
C637 C636 1.391 . S
C638 H628 0.950 . S
C638 C639 1.386 . S
C638 C640 1.391 . S
C639 C638 1.386 . S
C639 C643 1.393 . S
C640 H629 0.950 . S
C640 C638 1.391 . S
C640 C641 1.400 . S
C641 C635 1.491 1_556 S
C641 C640 1.400 . S
C641 C642 1.398 . S
C642 H630 0.950 . S
C642 C641 1.398 . S
C642 C643 1.391 . S
C643 H631 0.950 . S
C643 C639 1.393 . S
C643 C642 1.391 . S
H644 C652 0.950 . S
H645 C657 0.950 . S
H646 C654 0.950 . S
H647 C656 0.950 . S
H648 C658 0.950 . S
H649 C660 0.950 . S
H650 C662 0.950 . S
H651 C663 0.950 . S
C652 H644 0.950 . S
C652 C653 1.386 . S
C652 C654 1.391 . S
C653 C652 1.386 . S
C653 C657 1.393 . S
C654 H646 0.950 . S
C654 C652 1.391 . S
C654 C655 1.400 . S
C655 C654 1.400 . S
C655 C656 1.398 . S
C655 C661 1.491 1_554 S
C656 H647 0.950 . S
C656 C655 1.398 . S
C656 C657 1.391 . S
C657 H645 0.950 . S
C657 C653 1.393 . S
C657 C656 1.391 . S
C658 H648 0.950 . S
C658 C659 1.386 . S
C658 C660 1.391 . S
C659 C658 1.386 . S
C659 C663 1.393 . S
C660 H649 0.950 . S
C660 C658 1.391 . S
C660 C661 1.400 . S
C661 C655 1.491 1_556 S
C661 C660 1.400 . S
C661 C662 1.398 . S
C662 H650 0.950 . S
C662 C661 1.398 . S
C662 C663 1.391 . S
C663 H651 0.950 . S
C663 C659 1.393 . S
C663 C662 1.391 . S
H664 C672 0.950 . S
H665 C677 0.950 . S
H666 C674 0.950 . S
H667 C676 0.950 . S
H668 C678 0.950 . S
H669 C680 0.950 . S
H670 C682 0.950 . S
H671 C683 0.950 . S
C672 H664 0.950 . S
C672 C673 1.386 . S
C672 C674 1.391 . S
C673 C672 1.386 . S
C673 C677 1.393 . S
C674 H666 0.950 . S
C674 C672 1.391 . S
C674 C675 1.400 . S
C675 C674 1.400 . S
C675 C676 1.398 . S
C675 C681 1.491 1_556 S
C676 H667 0.950 . S
C676 C675 1.398 . S
C676 C677 1.391 . S
C677 H665 0.950 . S
C677 C673 1.393 . S
C677 C676 1.391 . S
C678 H668 0.950 . S
C678 C679 1.386 . S
C678 C680 1.391 . S
C679 C678 1.386 . S
C679 C683 1.393 . S
C680 H669 0.950 . S
C680 C678 1.391 . S
C680 C681 1.400 . S
C681 C675 1.491 1_554 S
C681 C680 1.400 . S
C681 C682 1.398 . S
C682 H670 0.950 . S
C682 C681 1.398 . S
C682 C683 1.391 . S
C683 H671 0.950 . S
C683 C679 1.393 . S
C683 C682 1.391 . S
H684 C692 0.950 . S
H685 C697 0.950 . S
H686 C694 0.950 . S
H687 C696 0.950 . S
H688 C698 0.950 . S
H689 C700 0.950 . S
H690 C702 0.950 . S
H691 C703 0.950 . S
C692 H684 0.950 . S
C692 C693 1.386 . S
C692 C694 1.391 . S
C693 C692 1.386 . S
C693 C697 1.393 . S
C694 H686 0.950 . S
C694 C692 1.391 . S
C694 C695 1.400 . S
C695 C694 1.400 . S
C695 C696 1.398 . S
C695 C701 1.491 . S
C696 H687 0.950 . S
C696 C695 1.398 . S
C696 C697 1.391 . S
C697 H685 0.950 . S
C697 C693 1.393 . S
C697 C696 1.391 . S
C698 H688 0.950 . S
C698 C699 1.386 . S
C698 C700 1.391 . S
C699 C698 1.386 . S
C699 C703 1.393 . S
C700 H689 0.950 . S
C700 C698 1.391 . S
C700 C701 1.400 . S
C701 C695 1.491 . S
C701 C700 1.400 . S
C701 C702 1.398 . S
C702 H690 0.950 . S
C702 C701 1.398 . S
C702 C703 1.391 . S
C703 H691 0.950 . S
C703 C699 1.393 . S
C703 C702 1.391 . S
H704 C712 0.950 . S
H705 C717 0.950 . S
H706 C714 0.950 . S
H707 C716 0.950 . S
H708 C718 0.950 . S
H709 C720 0.950 . S
H710 C722 0.950 . S
H711 C723 0.950 . S
C712 H704 0.950 . S
C712 C713 1.386 . S
C712 C714 1.391 . S
C713 C712 1.386 . S
C713 C717 1.393 . S
C714 H706 0.950 . S
C714 C712 1.391 . S
C714 C715 1.400 . S
C715 C714 1.400 . S
C715 C716 1.398 . S
C715 C721 1.491 . S
C716 H707 0.950 . S
C716 C715 1.398 . S
C716 C717 1.391 . S
C717 H705 0.950 . S
C717 C713 1.393 . S
C717 C716 1.391 . S
C718 H708 0.950 . S
C718 C719 1.386 . S
C718 C720 1.391 . S
C719 C718 1.386 . S
C719 C723 1.393 . S
C720 H709 0.950 . S
C720 C718 1.391 . S
C720 C721 1.400 . S
C721 C715 1.491 . S
C721 C720 1.400 . S
C721 C722 1.398 . S
C722 H710 0.950 . S
C722 C721 1.398 . S
C722 C723 1.391 . S
C723 H711 0.950 . S
C723 C719 1.393 . S
C723 C722 1.391 . S
H724 C732 0.950 . S
H725 C737 0.950 . S
H726 C734 0.950 . S
H727 C736 0.950 . S
H728 C738 0.950 . S
H729 C740 0.950 . S
H730 C742 0.950 . S
H731 C743 0.950 . S
C732 H724 0.950 . S
C732 C733 1.386 . S
C732 C734 1.391 . S
C733 C732 1.386 . S
C733 C737 1.393 . S
C734 H726 0.950 . S
C734 C732 1.391 . S
C734 C735 1.400 . S
C735 C734 1.400 . S
C735 C736 1.398 . S
C735 C741 1.491 . S
C736 H727 0.950 . S
C736 C735 1.398 . S
C736 C737 1.391 . S
C737 H725 0.950 . S
C737 C733 1.393 . S
C737 C736 1.391 . S
C738 H728 0.950 . S
C738 C739 1.386 . S
C738 C740 1.391 . S
C739 C738 1.386 . S
C739 C743 1.393 . S
C740 H729 0.950 . S
C740 C738 1.391 . S
C740 C741 1.400 . S
C741 C735 1.491 . S
C741 C740 1.400 . S
C741 C742 1.398 . S
C742 H730 0.950 . S
C742 C741 1.398 . S
C742 C743 1.391 . S
C743 H731 0.950 . S
C743 C739 1.393 . S
C743 C742 1.391 . S
H744 C752 0.950 . S
H745 C757 0.950 . S
H746 C754 0.950 . S
H747 C756 0.950 . S
H748 C758 0.950 . S
H749 C760 0.950 . S
H750 C762 0.950 . S
H751 C763 0.950 . S
C752 H744 0.950 . S
C752 C753 1.386 . S
C752 C754 1.391 . S
C753 C752 1.386 . S
C753 C757 1.393 . S
C754 H746 0.950 . S
C754 C752 1.391 . S
C754 C755 1.400 . S
C755 C754 1.400 . S
C755 C756 1.398 . S
C755 C761 1.491 . S
C756 H747 0.950 . S
C756 C755 1.398 . S
C756 C757 1.391 . S
C757 H745 0.950 . S
C757 C753 1.393 . S
C757 C756 1.391 . S
C758 H748 0.950 . S
C758 C759 1.386 . S
C758 C760 1.391 . S
C759 C758 1.386 . S
C759 C763 1.393 . S
C760 H749 0.950 . S
C760 C758 1.391 . S
C760 C761 1.400 . S
C761 C755 1.491 . S
C761 C760 1.400 . S
C761 C762 1.398 . S
C762 H750 0.950 . S
C762 C761 1.398 . S
C762 C763 1.391 . S
C763 H751 0.950 . S
C763 C759 1.393 . S
C763 C762 1.391 . S
H764 C772 0.950 . S
H765 C777 0.950 . S
H766 C774 0.950 . S
H767 C776 0.950 . S
H768 C778 0.950 . S
H769 C780 0.950 . S
H770 C782 0.950 . S
H771 C783 0.950 . S
C772 H764 0.950 . S
C772 C773 1.386 . S
C772 C774 1.391 . S
C773 C772 1.386 . S
C773 C777 1.393 . S
C774 H766 0.950 . S
C774 C772 1.391 . S
C774 C775 1.400 . S
C775 C774 1.400 . S
C775 C776 1.398 . S
C775 C781 1.491 . S
C776 H767 0.950 . S
C776 C775 1.398 . S
C776 C777 1.391 . S
C777 H765 0.950 . S
C777 C773 1.393 . S
C777 C776 1.391 . S
C778 H768 0.950 . S
C778 C779 1.386 . S
C778 C780 1.391 . S
C779 C778 1.386 . S
C779 C783 1.393 . S
C780 H769 0.950 . S
C780 C778 1.391 . S
C780 C781 1.400 . S
C781 C775 1.491 . S
C781 C780 1.400 . S
C781 C782 1.398 . S
C782 H770 0.950 . S
C782 C781 1.398 . S
C782 C783 1.391 . S
C783 H771 0.950 . S
C783 C779 1.393 . S
C783 C782 1.391 . S
H784 C792 0.950 . S
H785 C797 0.950 . S
H786 C794 0.950 . S
H787 C796 0.950 . S
H788 C798 0.950 . S
H789 C800 0.950 . S
H790 C802 0.950 . S
H791 C803 0.950 . S
C792 H784 0.950 . S
C792 C793 1.386 . S
C792 C794 1.391 . S
C793 C792 1.386 . S
C793 C797 1.393 . S
C794 H786 0.950 . S
C794 C792 1.391 . S
C794 C795 1.400 . S
C795 C794 1.400 . S
C795 C796 1.398 . S
C795 C801 1.491 . S
C796 H787 0.950 . S
C796 C795 1.398 . S
C796 C797 1.391 . S
C797 H785 0.950 . S
C797 C793 1.393 . S
C797 C796 1.391 . S
C798 H788 0.950 . S
C798 C799 1.386 . S
C798 C800 1.391 . S
C799 C798 1.386 . S
C799 C803 1.393 . S
C800 H789 0.950 . S
C800 C798 1.391 . S
C800 C801 1.400 . S
C801 C795 1.491 . S
C801 C800 1.400 . S
C801 C802 1.398 . S
C802 H790 0.950 . S
C802 C801 1.398 . S
C802 C803 1.391 . S
C803 H791 0.950 . S
C803 C799 1.393 . S
C803 C802 1.391 . S
H804 C812 0.950 . S
H805 C817 0.950 . S
H806 C814 0.950 . S
H807 C816 0.950 . S
H808 C818 0.950 . S
H809 C820 0.950 . S
H810 C822 0.950 . S
H811 C823 0.950 . S
C812 H804 0.950 . S
C812 C813 1.386 . S
C812 C814 1.391 . S
C813 C812 1.386 . S
C813 C817 1.393 . S
C814 H806 0.950 . S
C814 C812 1.391 . S
C814 C815 1.400 . S
C815 C814 1.400 . S
C815 C816 1.398 . S
C815 C821 1.491 . S
C816 H807 0.950 . S
C816 C815 1.398 . S
C816 C817 1.391 . S
C817 H805 0.950 . S
C817 C813 1.393 . S
C817 C816 1.391 . S
C818 H808 0.950 . S
C818 C819 1.386 . S
C818 C820 1.391 . S
C819 C818 1.386 . S
C819 C823 1.393 . S
C820 H809 0.950 . S
C820 C818 1.391 . S
C820 C821 1.400 . S
C821 C815 1.491 . S
C821 C820 1.400 . S
C821 C822 1.398 . S
C822 H810 0.950 . S
C822 C821 1.398 . S
C822 C823 1.391 . S
C823 H811 0.950 . S
C823 C819 1.393 . S
C823 C822 1.391 . S
H824 C832 0.950 . S
H825 C837 0.950 . S
H826 C834 0.950 . S
H827 C836 0.950 . S
H828 C838 0.950 . S
H829 C840 0.950 . S
H830 C842 0.950 . S
H831 C843 0.950 . S
C832 H824 0.950 . S
C832 C833 1.386 . S
C832 C834 1.391 . S
C833 C832 1.386 . S
C833 C837 1.393 . S
C834 H826 0.950 . S
C834 C832 1.391 . S
C834 C835 1.400 . S
C835 C834 1.400 . S
C835 C836 1.398 . S
C835 C841 1.491 . S
C836 H827 0.950 . S
C836 C835 1.398 . S
C836 C837 1.391 . S
C837 H825 0.950 . S
C837 C833 1.393 . S
C837 C836 1.391 . S
C838 H828 0.950 . S
C838 C839 1.386 . S
C838 C840 1.391 . S
C839 C838 1.386 . S
C839 C843 1.393 . S
C840 H829 0.950 . S
C840 C838 1.391 . S
C840 C841 1.400 . S
C841 C835 1.491 . S
C841 C840 1.400 . S
C841 C842 1.398 . S
C842 H830 0.950 . S
C842 C841 1.398 . S
C842 C843 1.391 . S
C843 H831 0.950 . S
C843 C839 1.393 . S
C843 C842 1.391 . S
H844 C852 0.950 . S
H845 C857 0.950 . S
H846 C854 0.950 . S
H847 C856 0.950 . S
H848 C858 0.950 . S
H849 C860 0.950 . S
H850 C862 0.950 . S
H851 C863 0.950 . S
C852 H844 0.950 . S
C852 C853 1.386 . S
C852 C854 1.391 . S
C853 C852 1.386 . S
C853 C857 1.393 . S
C854 H846 0.950 . S
C854 C852 1.391 . S
C854 C855 1.400 . S
C855 C854 1.400 . S
C855 C856 1.398 . S
C855 C861 1.491 . S
C856 H847 0.950 . S
C856 C855 1.398 . S
C856 C857 1.391 . S
C857 H845 0.950 . S
C857 C853 1.393 . S
C857 C856 1.391 . S
C858 H848 0.950 . S
C858 C859 1.386 . S
C858 C860 1.391 . S
C859 C858 1.386 . S
C859 C863 1.393 . S
C860 H849 0.950 . S
C860 C858 1.391 . S
C860 C861 1.400 . S
C861 C855 1.491 . S
C861 C860 1.400 . S
C861 C862 1.398 . S
C862 H850 0.950 . S
C862 C861 1.398 . S
C862 C863 1.391 . S
C863 H851 0.950 . S
C863 C859 1.393 . S
C863 C862 1.391 . S
H864 C872 0.950 . S
H865 C877 0.950 . S
H866 C874 0.950 . S
H867 C876 0.950 . S
H868 C878 0.950 . S
H869 C880 0.950 . S
H870 C882 0.950 . S
H871 C883 0.950 . S
C872 H864 0.950 . S
C872 C873 1.386 . S
C872 C874 1.391 . S
C873 C872 1.386 . S
C873 C877 1.393 . S
C874 H866 0.950 . S
C874 C872 1.391 . S
C874 C875 1.400 . S
C875 C874 1.400 . S
C875 C876 1.398 . S
C875 C881 1.491 . S
C876 H867 0.950 . S
C876 C875 1.398 . S
C876 C877 1.391 . S
C877 H865 0.950 . S
C877 C873 1.393 . S
C877 C876 1.391 . S
C878 H868 0.950 . S
C878 C879 1.386 . S
C878 C880 1.391 . S
C879 C878 1.386 . S
C879 C883 1.393 . S
C880 H869 0.950 . S
C880 C878 1.391 . S
C880 C881 1.400 . S
C881 C875 1.491 . S
C881 C880 1.400 . S
C881 C882 1.398 . S
C882 H870 0.950 . S
C882 C881 1.398 . S
C882 C883 1.391 . S
C883 H871 0.950 . S
C883 C879 1.393 . S
C883 C882 1.391 . S
H884 C892 0.950 . S
H885 C897 0.950 . S
H886 C894 0.950 . S
H887 C896 0.950 . S
H888 C898 0.950 . S
H889 C900 0.950 . S
H890 C902 0.950 . S
H891 C903 0.950 . S
C892 H884 0.950 . S
C892 C893 1.386 . S
C892 C894 1.391 . S
C893 C892 1.386 . S
C893 C897 1.393 . S
C894 H886 0.950 . S
C894 C892 1.391 . S
C894 C895 1.400 . S
C895 C894 1.400 . S
C895 C896 1.398 . S
C895 C901 1.491 . S
C896 H887 0.950 . S
C896 C895 1.398 . S
C896 C897 1.391 . S
C897 H885 0.950 . S
C897 C893 1.393 . S
C897 C896 1.391 . S
C898 H888 0.950 . S
C898 C899 1.386 . S
C898 C900 1.391 . S
C899 C898 1.386 . S
C899 C903 1.393 . S
C900 H889 0.950 . S
C900 C898 1.391 . S
C900 C901 1.400 . S
C901 C895 1.491 . S
C901 C900 1.400 . S
C901 C902 1.398 . S
C902 H890 0.950 . S
C902 C901 1.398 . S
C902 C903 1.391 . S
C903 H891 0.950 . S
C903 C899 1.393 . S
C903 C902 1.391 . S
H904 C912 0.950 . S
H905 C917 0.950 . S
H906 C914 0.950 . S
H907 C916 0.950 . S
H908 C918 0.950 . S
H909 C920 0.950 . S
H910 C922 0.950 . S
H911 C923 0.950 . S
C912 H904 0.950 . S
C912 C913 1.386 . S
C912 C914 1.391 . S
C913 C912 1.386 . S
C913 C917 1.393 . S
C914 H906 0.950 . S
C914 C912 1.391 . S
C914 C915 1.400 . S
C915 C914 1.400 . S
C915 C916 1.398 . S
C915 C921 1.491 . S
C916 H907 0.950 . S
C916 C915 1.398 . S
C916 C917 1.391 . S
C917 H905 0.950 . S
C917 C913 1.393 . S
C917 C916 1.391 . S
C918 H908 0.950 . S
C918 C919 1.386 . S
C918 C920 1.391 . S
C919 C918 1.386 . S
C919 C923 1.393 . S
C920 H909 0.950 . S
C920 C918 1.391 . S
C920 C921 1.400 . S
C921 C915 1.491 . S
C921 C920 1.400 . S
C921 C922 1.398 . S
C922 H910 0.950 . S
C922 C921 1.398 . S
C922 C923 1.391 . S
C923 H911 0.950 . S
C923 C919 1.393 . S
C923 C922 1.391 . S
H924 C932 0.950 . S
H925 C937 0.950 . S
H926 C934 0.950 . S
H927 C936 0.950 . S
H928 C938 0.950 . S
H929 C940 0.950 . S
H930 C942 0.950 . S
H931 C943 0.950 . S
C932 H924 0.950 . S
C932 C933 1.386 . S
C932 C934 1.391 . S
C933 C932 1.386 . S
C933 C937 1.393 . S
C934 H926 0.950 . S
C934 C932 1.391 . S
C934 C935 1.400 . S
C935 C934 1.400 . S
C935 C936 1.398 . S
C935 C941 1.491 . S
C936 H927 0.950 . S
C936 C935 1.398 . S
C936 C937 1.391 . S
C937 H925 0.950 . S
C937 C933 1.393 . S
C937 C936 1.391 . S
C938 H928 0.950 . S
C938 C939 1.386 . S
C938 C940 1.391 . S
C939 C938 1.386 . S
C939 C943 1.393 . S
C940 H929 0.950 . S
C940 C938 1.391 . S
C940 C941 1.400 . S
C941 C935 1.491 . S
C941 C940 1.400 . S
C941 C942 1.398 . S
C942 H930 0.950 . S
C942 C941 1.398 . S
C942 C943 1.391 . S
C943 H931 0.950 . S
C943 C939 1.393 . S
C943 C942 1.391 . S
H944 C952 0.950 . S
H945 C957 0.950 . S
H946 C954 0.950 . S
H947 C956 0.950 . S
H948 C958 0.950 . S
H949 C960 0.950 . S
H950 C962 0.950 . S
H951 C963 0.950 . S
C952 H944 0.950 . S
C952 C953 1.386 . S
C952 C954 1.391 . S
C953 C952 1.386 . S
C953 C957 1.393 . S
C954 H946 0.950 . S
C954 C952 1.391 . S
C954 C955 1.400 . S
C955 C954 1.400 . S
C955 C956 1.398 . S
C955 C961 1.491 . S
C956 H947 0.950 . S
C956 C955 1.398 . S
C956 C957 1.391 . S
C957 H945 0.950 . S
C957 C953 1.393 . S
C957 C956 1.391 . S
C958 H948 0.950 . S
C958 C959 1.386 . S
C958 C960 1.391 . S
C959 C958 1.386 . S
C959 C963 1.393 . S
C960 H949 0.950 . S
C960 C958 1.391 . S
C960 C961 1.400 . S
C961 C955 1.491 . S
C961 C960 1.400 . S
C961 C962 1.398 . S
C962 H950 0.950 . S
C962 C961 1.398 . S
C962 C963 1.391 . S
C963 H951 0.950 . S
C963 C959 1.393 . S
C963 C962 1.391 . S
H964 C972 0.950 . S
H965 C977 0.950 . S
H966 C974 0.950 . S
H967 C976 0.950 . S
H968 C978 0.950 . S
H969 C980 0.950 . S
H970 C982 0.950 . S
H971 C983 0.950 . S
C972 H964 0.950 . S
C972 C973 1.386 . S
C972 C974 1.391 . S
C973 C972 1.386 . S
C973 C977 1.393 . S
C974 H966 0.950 . S
C974 C972 1.391 . S
C974 C975 1.400 . S
C975 C974 1.400 . S
C975 C976 1.398 . S
C975 C981 1.491 . S
C976 H967 0.950 . S
C976 C975 1.398 . S
C976 C977 1.391 . S
C977 H965 0.950 . S
C977 C973 1.393 . S
C977 C976 1.391 . S
C978 H968 0.950 . S
C978 C979 1.386 . S
C978 C980 1.391 . S
C979 C978 1.386 . S
C979 C983 1.393 . S
C980 H969 0.950 . S
C980 C978 1.391 . S
C980 C981 1.400 . S
C981 C975 1.491 . S
C981 C980 1.400 . S
C981 C982 1.398 . S
C982 H970 0.950 . S
C982 C981 1.398 . S
C982 C983 1.391 . S
C983 H971 0.950 . S
C983 C979 1.393 . S
C983 C982 1.391 . S
H984 C992 0.950 . S
H985 C997 0.950 . S
H986 C994 0.950 . S
H987 C996 0.950 . S
H988 C998 0.950 . S
H989 C1000 0.950 . S
H990 C1002 0.950 . S
H991 C1003 0.950 . S
C992 H984 0.950 . S
C992 C993 1.386 . S
C992 C994 1.391 . S
C993 C992 1.386 . S
C993 C997 1.393 . S
C994 H986 0.950 . S
C994 C992 1.391 . S
C994 C995 1.400 . S
C995 C994 1.400 . S
C995 C996 1.398 . S
C995 C1001 1.491 . S
C996 H987 0.950 . S
C996 C995 1.398 . S
C996 C997 1.391 . S
C997 H985 0.950 . S
C997 C993 1.393 . S
C997 C996 1.391 . S
C998 H988 0.950 . S
C998 C999 1.386 . S
C998 C1000 1.391 . S
C999 C998 1.386 . S
C999 C1003 1.393 . S
C1000 H989 0.950 . S
C1000 C998 1.391 . S
C1000 C1001 1.400 . S
C1001 C995 1.491 . S
C1001 C1000 1.400 . S
C1001 C1002 1.398 . S
C1002 H990 0.950 . S
C1002 C1001 1.398 . S
C1002 C1003 1.391 . S
C1003 H991 0.950 . S
C1003 C999 1.393 . S
C1003 C1002 1.391 . S
H1004 C1012 0.950 . S
H1005 C1017 0.950 . S
H1006 C1014 0.950 . S
H1007 C1016 0.950 . S
H1008 C1018 0.950 . S
H1009 C1020 0.950 . S
H1010 C1022 0.950 . S
H1011 C1023 0.950 . S
C1012 H1004 0.950 . S
C1012 C1013 1.386 . S
C1012 C1014 1.391 . S
C1013 C1012 1.386 . S
C1013 C1017 1.393 . S
C1014 H1006 0.950 . S
C1014 C1012 1.391 . S
C1014 C1015 1.400 . S
C1015 C1014 1.400 . S
C1015 C1016 1.398 . S
C1015 C1021 1.491 . S
C1016 H1007 0.950 . S
C1016 C1015 1.398 . S
C1016 C1017 1.391 . S
C1017 H1005 0.950 . S
C1017 C1013 1.393 . S
C1017 C1016 1.391 . S
C1018 H1008 0.950 . S
C1018 C1019 1.386 . S
C1018 C1020 1.391 . S
C1019 C1018 1.386 . S
C1019 C1023 1.393 . S
C1020 H1009 0.950 . S
C1020 C1018 1.391 . S
C1020 C1021 1.400 . S
C1021 C1015 1.491 . S
C1021 C1020 1.400 . S
C1021 C1022 1.398 . S
C1022 H1010 0.950 . S
C1022 C1021 1.398 . S
C1022 C1023 1.391 . S
C1023 H1011 0.950 . S
C1023 C1019 1.393 . S
C1023 C1022 1.391 . S
H1024 C1032 0.950 . S
H1025 C1037 0.950 . S
H1026 C1034 0.950 . S
H1027 C1036 0.950 . S
H1028 C1038 0.950 . S
H1029 C1040 0.950 . S
H1030 C1042 0.950 . S
H1031 C1043 0.950 . S
C1032 H1024 0.950 . S
C1032 C1033 1.386 . S
C1032 C1034 1.391 . S
C1033 C1032 1.386 . S
C1033 C1037 1.393 . S
C1034 H1026 0.950 . S
C1034 C1032 1.391 . S
C1034 C1035 1.400 . S
C1035 C1034 1.400 . S
C1035 C1036 1.398 . S
C1035 C1041 1.491 . S
C1036 H1027 0.950 . S
C1036 C1035 1.398 . S
C1036 C1037 1.391 . S
C1037 H1025 0.950 . S
C1037 C1033 1.393 . S
C1037 C1036 1.391 . S
C1038 H1028 0.950 . S
C1038 C1039 1.386 . S
C1038 C1040 1.391 . S
C1039 C1038 1.386 . S
C1039 C1043 1.393 . S
C1040 H1029 0.950 . S
C1040 C1038 1.391 . S
C1040 C1041 1.400 . S
C1041 C1035 1.491 . S
C1041 C1040 1.400 . S
C1041 C1042 1.398 . S
C1042 H1030 0.950 . S
C1042 C1041 1.398 . S
C1042 C1043 1.391 . S
C1043 H1031 0.950 . S
C1043 C1039 1.393 . S
C1043 C1042 1.391 . S
H1044 C1052 0.950 . S
H1045 C1057 0.950 . S
H1046 C1054 0.950 . S
H1047 C1056 0.950 . S
H1048 C1058 0.950 . S
H1049 C1060 0.950 . S
H1050 C1062 0.950 . S
H1051 C1063 0.950 . S
C1052 H1044 0.950 . S
C1052 C1053 1.386 . S
C1052 C1054 1.391 . S
C1053 C1052 1.386 . S
C1053 C1057 1.393 . S
C1054 H1046 0.950 . S
C1054 C1052 1.391 . S
C1054 C1055 1.400 . S
C1055 C1054 1.400 . S
C1055 C1056 1.398 . S
C1055 C1061 1.491 . S
C1056 H1047 0.950 . S
C1056 C1055 1.398 . S
C1056 C1057 1.391 . S
C1057 H1045 0.950 . S
C1057 C1053 1.393 . S
C1057 C1056 1.391 . S
C1058 H1048 0.950 . S
C1058 C1059 1.386 . S
C1058 C1060 1.391 . S
C1059 C1058 1.386 . S
C1059 C1063 1.393 . S
C1060 H1049 0.950 . S
C1060 C1058 1.391 . S
C1060 C1061 1.400 . S
C1061 C1055 1.491 . S
C1061 C1060 1.400 . S
C1061 C1062 1.398 . S
C1062 H1050 0.950 . S
C1062 C1061 1.398 . S
C1062 C1063 1.391 . S
C1063 H1051 0.950 . S
C1063 C1059 1.393 . S
C1063 C1062 1.391 . S
H1064 C1072 0.950 . S
H1065 C1077 0.950 . S
H1066 C1074 0.950 . S
H1067 C1076 0.950 . S
H1068 C1078 0.950 . S
H1069 C1080 0.950 . S
H1070 C1082 0.950 . S
H1071 C1083 0.950 . S
C1072 H1064 0.950 . S
C1072 C1073 1.386 . S
C1072 C1074 1.391 . S
C1073 C1072 1.386 . S
C1073 C1077 1.393 . S
C1074 H1066 0.950 . S
C1074 C1072 1.391 . S
C1074 C1075 1.400 . S
C1075 C1074 1.400 . S
C1075 C1076 1.398 . S
C1075 C1081 1.491 . S
C1076 H1067 0.950 . S
C1076 C1075 1.398 . S
C1076 C1077 1.391 . S
C1077 H1065 0.950 . S
C1077 C1073 1.393 . S
C1077 C1076 1.391 . S
C1078 H1068 0.950 . S
C1078 C1079 1.386 . S
C1078 C1080 1.391 . S
C1079 C1078 1.386 . S
C1079 C1083 1.393 . S
C1080 H1069 0.950 . S
C1080 C1078 1.391 . S
C1080 C1081 1.400 . S
C1081 C1075 1.491 . S
C1081 C1080 1.400 . S
C1081 C1082 1.398 . S
C1082 H1070 0.950 . S
C1082 C1081 1.398 . S
C1082 C1083 1.391 . S
C1083 H1071 0.950 . S
C1083 C1079 1.393 . S
C1083 C1082 1.391 . S
H1084 C1092 0.950 . S
H1085 C1097 0.950 . S
H1086 C1094 0.950 . S
H1087 C1096 0.950 . S
H1088 C1098 0.950 . S
H1089 C1100 0.950 . S
H1090 C1102 0.950 . S
H1091 C1103 0.950 . S
C1092 H1084 0.950 . S
C1092 C1093 1.386 . S
C1092 C1094 1.391 . S
C1093 C1092 1.386 . S
C1093 C1097 1.393 . S
C1094 H1086 0.950 . S
C1094 C1092 1.391 . S
C1094 C1095 1.400 . S
C1095 C1094 1.400 . S
C1095 C1096 1.398 . S
C1095 C1101 1.491 . S
C1096 H1087 0.950 . S
C1096 C1095 1.398 . S
C1096 C1097 1.391 . S
C1097 H1085 0.950 . S
C1097 C1093 1.393 . S
C1097 C1096 1.391 . S
C1098 H1088 0.950 . S
C1098 C1099 1.386 . S
C1098 C1100 1.391 . S
C1099 C1098 1.386 . S
C1099 C1103 1.393 . S
C1100 H1089 0.950 . S
C1100 C1098 1.391 . S
C1100 C1101 1.400 . S
C1101 C1095 1.491 . S
C1101 C1100 1.400 . S
C1101 C1102 1.398 . S
C1102 H1090 0.950 . S
C1102 C1101 1.398 . S
C1102 C1103 1.391 . S
C1103 H1091 0.950 . S
C1103 C1099 1.393 . S
C1103 C1102 1.391 . S
H1104 C1112 0.950 . S
H1105 C1117 0.950 . S
H1106 C1114 0.950 . S
H1107 C1116 0.950 . S
H1108 C1118 0.950 . S
H1109 C1120 0.950 . S
H1110 C1122 0.950 . S
H1111 C1123 0.950 . S
C1112 H1104 0.950 . S
C1112 C1113 1.386 . S
C1112 C1114 1.391 . S
C1113 C1112 1.386 . S
C1113 C1117 1.393 . S
C1114 H1106 0.950 . S
C1114 C1112 1.391 . S
C1114 C1115 1.400 . S
C1115 C1114 1.400 . S
C1115 C1116 1.398 . S
C1115 C1121 1.491 . S
C1116 H1107 0.950 . S
C1116 C1115 1.398 . S
C1116 C1117 1.391 . S
C1117 H1105 0.950 . S
C1117 C1113 1.393 . S
C1117 C1116 1.391 . S
C1118 H1108 0.950 . S
C1118 C1119 1.386 . S
C1118 C1120 1.391 . S
C1119 C1118 1.386 . S
C1119 C1123 1.393 . S
C1120 H1109 0.950 . S
C1120 C1118 1.391 . S
C1120 C1121 1.400 . S
C1121 C1115 1.491 . S
C1121 C1120 1.400 . S
C1121 C1122 1.398 . S
C1122 H1110 0.950 . S
C1122 C1121 1.398 . S
C1122 C1123 1.391 . S
C1123 H1111 0.950 . S
C1123 C1119 1.393 . S
C1123 C1122 1.391 . S
H1124 C1132 0.950 . S
H1125 C1137 0.950 . S
H1126 C1134 0.950 . S
H1127 C1136 0.950 . S
H1128 C1138 0.950 . S
H1129 C1140 0.950 . S
H1130 C1142 0.950 . S
H1131 C1143 0.950 . S
C1132 H1124 0.950 . S
C1132 C1133 1.386 . S
C1132 C1134 1.391 . S
C1133 C1132 1.386 . S
C1133 C1137 1.393 . S
C1134 H1126 0.950 . S
C1134 C1132 1.391 . S
C1134 C1135 1.400 . S
C1135 C1134 1.400 . S
C1135 C1136 1.398 . S
C1135 C1141 1.491 . S
C1136 H1127 0.950 . S
C1136 C1135 1.398 . S
C1136 C1137 1.391 . S
C1137 H1125 0.950 . S
C1137 C1133 1.393 . S
C1137 C1136 1.391 . S
C1138 H1128 0.950 . S
C1138 C1139 1.386 . S
C1138 C1140 1.391 . S
C1139 C1138 1.386 . S
C1139 C1143 1.393 . S
C1140 H1129 0.950 . S
C1140 C1138 1.391 . S
C1140 C1141 1.400 . S
C1141 C1135 1.491 . S
C1141 C1140 1.400 . S
C1141 C1142 1.398 . S
C1142 H1130 0.950 . S
C1142 C1141 1.398 . S
C1142 C1143 1.391 . S
C1143 H1131 0.950 . S
C1143 C1139 1.393 . S
C1143 C1142 1.391 . S
H1144 C1152 0.950 . S
H1145 C1157 0.950 . S
H1146 C1154 0.950 . S
H1147 C1156 0.950 . S
H1148 C1158 0.950 . S
H1149 C1160 0.950 . S
H1150 C1162 0.950 . S
H1151 C1163 0.950 . S
C1152 H1144 0.950 . S
C1152 C1153 1.386 . S
C1152 C1154 1.391 . S
C1153 C1152 1.386 . S
C1153 C1157 1.393 . S
C1154 H1146 0.950 . S
C1154 C1152 1.391 . S
C1154 C1155 1.400 . S
C1155 C1154 1.400 . S
C1155 C1156 1.398 . S
C1155 C1161 1.491 . S
C1156 H1147 0.950 . S
C1156 C1155 1.398 . S
C1156 C1157 1.391 . S
C1157 H1145 0.950 . S
C1157 C1153 1.393 . S
C1157 C1156 1.391 . S
C1158 H1148 0.950 . S
C1158 C1159 1.386 . S
C1158 C1160 1.391 . S
C1159 C1158 1.386 . S
C1159 C1163 1.393 . S
C1160 H1149 0.950 . S
C1160 C1158 1.391 . S
C1160 C1161 1.400 . S
C1161 C1155 1.491 . S
C1161 C1160 1.400 . S
C1161 C1162 1.398 . S
C1162 H1150 0.950 . S
C1162 C1161 1.398 . S
C1162 C1163 1.391 . S
C1163 H1151 0.950 . S
C1163 C1159 1.393 . S
C1163 C1162 1.391 . S
H1164 C1172 0.950 . S
H1165 C1177 0.950 . S
H1166 C1174 0.950 . S
H1167 C1176 0.950 . S
H1168 C1178 0.950 . S
H1169 C1180 0.950 . S
H1170 C1182 0.950 . S
H1171 C1183 0.950 . S
C1172 H1164 0.950 . S
C1172 C1173 1.386 . S
C1172 C1174 1.391 . S
C1173 C1172 1.386 . S
C1173 C1177 1.393 . S
C1174 H1166 0.950 . S
C1174 C1172 1.391 . S
C1174 C1175 1.400 . S
C1175 C1174 1.400 . S
C1175 C1176 1.398 . S
C1175 C1181 1.491 . S
C1176 H1167 0.950 . S
C1176 C1175 1.398 . S
C1176 C1177 1.391 . S
C1177 H1165 0.950 . S
C1177 C1173 1.393 . S
C1177 C1176 1.391 . S
C1178 H1168 0.950 . S
C1178 C1179 1.386 . S
C1178 C1180 1.391 . S
C1179 C1178 1.386 . S
C1179 C1183 1.393 . S
C1180 H1169 0.950 . S
C1180 C1178 1.391 . S
C1180 C1181 1.400 . S
C1181 C1175 1.491 . S
C1181 C1180 1.400 . S
C1181 C1182 1.398 . S
C1182 H1170 0.950 . S
C1182 C1181 1.398 . S
C1182 C1183 1.391 . S
C1183 H1171 0.950 . S
C1183 C1179 1.393 . S
C1183 C1182 1.391 . S
H1184 C1192 0.950 . S
H1185 C1197 0.950 . S
H1186 C1194 0.950 . S
H1187 C1196 0.950 . S
H1188 C1198 0.950 . S
H1189 C1200 0.950 . S
H1190 C1202 0.950 . S
H1191 C1203 0.950 . S
C1192 H1184 0.950 . S
C1192 C1193 1.386 . S
C1192 C1194 1.391 . S
C1193 C1192 1.386 . S
C1193 C1197 1.393 . S
C1194 H1186 0.950 . S
C1194 C1192 1.391 . S
C1194 C1195 1.400 . S
C1195 C1194 1.400 . S
C1195 C1196 1.398 . S
C1195 C1201 1.491 . S
C1196 H1187 0.950 . S
C1196 C1195 1.398 . S
C1196 C1197 1.391 . S
C1197 H1185 0.950 . S
C1197 C1193 1.393 . S
C1197 C1196 1.391 . S
C1198 H1188 0.950 . S
C1198 C1199 1.386 . S
C1198 C1200 1.391 . S
C1199 C1198 1.386 . S
C1199 C1203 1.393 . S
C1200 H1189 0.950 . S
C1200 C1198 1.391 . S
C1200 C1201 1.400 . S
C1201 C1195 1.491 . S
C1201 C1200 1.400 . S
C1201 C1202 1.398 . S
C1202 H1190 0.950 . S
C1202 C1201 1.398 . S
C1202 C1203 1.391 . S
C1203 H1191 0.950 . S
C1203 C1199 1.393 . S
C1203 C1202 1.391 . S
H1204 C1212 0.950 . S
H1205 C1217 0.950 . S
H1206 C1214 0.950 . S
H1207 C1216 0.950 . S
H1208 C1218 0.950 . S
H1209 C1220 0.950 . S
H1210 C1222 0.950 . S
H1211 C1223 0.950 . S
C1212 H1204 0.950 . S
C1212 C1213 1.386 . S
C1212 C1214 1.391 . S
C1213 C1212 1.386 . S
C1213 C1217 1.393 . S
C1214 H1206 0.950 . S
C1214 C1212 1.391 . S
C1214 C1215 1.400 . S
C1215 C1214 1.400 . S
C1215 C1216 1.398 . S
C1215 C1221 1.491 . S
C1216 H1207 0.950 . S
C1216 C1215 1.398 . S
C1216 C1217 1.391 . S
C1217 H1205 0.950 . S
C1217 C1213 1.393 . S
C1217 C1216 1.391 . S
C1218 H1208 0.950 . S
C1218 C1219 1.386 . S
C1218 C1220 1.391 . S
C1219 C1218 1.386 . S
C1219 C1223 1.393 . S
C1220 H1209 0.950 . S
C1220 C1218 1.391 . S
C1220 C1221 1.400 . S
C1221 C1215 1.491 . S
C1221 C1220 1.400 . S
C1221 C1222 1.398 . S
C1222 H1210 0.950 . S
C1222 C1221 1.398 . S
C1222 C1223 1.391 . S
C1223 H1211 0.950 . S
C1223 C1219 1.393 . S
C1223 C1222 1.391 . S
H1224 C1232 0.950 . S
H1225 C1237 0.950 . S
H1226 C1234 0.950 . S
H1227 C1236 0.950 . S
H1228 C1238 0.950 . S
H1229 C1240 0.950 . S
H1230 C1242 0.950 . S
H1231 C1243 0.950 . S
C1232 H1224 0.950 . S
C1232 C1233 1.386 . S
C1232 C1234 1.391 . S
C1233 C1232 1.386 . S
C1233 C1237 1.393 . S
C1234 H1226 0.950 . S
C1234 C1232 1.391 . S
C1234 C1235 1.400 . S
C1235 C1234 1.400 . S
C1235 C1236 1.398 . S
C1235 C1241 1.491 . S
C1236 H1227 0.950 . S
C1236 C1235 1.398 . S
C1236 C1237 1.391 . S
C1237 H1225 0.950 . S
C1237 C1233 1.393 . S
C1237 C1236 1.391 . S
C1238 H1228 0.950 . S
C1238 C1239 1.386 . S
C1238 C1240 1.391 . S
C1239 C1238 1.386 . S
C1239 C1243 1.393 . S
C1240 H1229 0.950 . S
C1240 C1238 1.391 . S
C1240 C1241 1.400 . S
C1241 C1235 1.491 . S
C1241 C1240 1.400 . S
C1241 C1242 1.398 . S
C1242 H1230 0.950 . S
C1242 C1241 1.398 . S
C1242 C1243 1.391 . S
C1243 H1231 0.950 . S
C1243 C1239 1.393 . S
C1243 C1242 1.391 . S
H1244 C1252 0.950 . S
H1245 C1257 0.950 . S
H1246 C1254 0.950 . S
H1247 C1256 0.950 . S
H1248 C1258 0.950 . S
H1249 C1260 0.950 . S
H1250 C1262 0.950 . S
H1251 C1263 0.950 . S
C1252 H1244 0.950 . S
C1252 C1253 1.386 . S
C1252 C1254 1.391 . S
C1253 C1252 1.386 . S
C1253 C1257 1.393 . S
C1254 H1246 0.950 . S
C1254 C1252 1.391 . S
C1254 C1255 1.400 . S
C1255 C1254 1.400 . S
C1255 C1256 1.398 . S
C1255 C1261 1.491 1_565 S
C1256 H1247 0.950 . S
C1256 C1255 1.398 . S
C1256 C1257 1.391 . S
C1257 H1245 0.950 . S
C1257 C1253 1.393 . S
C1257 C1256 1.391 . S
C1258 H1248 0.950 . S
C1258 C1259 1.386 . S
C1258 C1260 1.391 . S
C1259 C1258 1.386 . S
C1259 C1263 1.393 . S
C1260 H1249 0.950 . S
C1260 C1258 1.391 . S
C1260 C1261 1.400 . S
C1261 C1255 1.491 1_545 S
C1261 C1260 1.400 . S
C1261 C1262 1.398 . S
C1262 H1250 0.950 . S
C1262 C1261 1.398 . S
C1262 C1263 1.391 . S
C1263 H1251 0.950 . S
C1263 C1259 1.393 . S
C1263 C1262 1.391 . S
H1264 C1272 0.950 . S
H1265 C1277 0.950 . S
H1266 C1274 0.950 . S
H1267 C1276 0.950 . S
H1268 C1278 0.950 . S
H1269 C1280 0.950 . S
H1270 C1282 0.950 . S
H1271 C1283 0.950 . S
C1272 H1264 0.950 . S
C1272 C1273 1.386 . S
C1272 C1274 1.391 . S
C1273 C1272 1.386 . S
C1273 C1277 1.393 . S
C1274 H1266 0.950 . S
C1274 C1272 1.391 . S
C1274 C1275 1.400 . S
C1275 C1274 1.400 . S
C1275 C1276 1.398 . S
C1275 C1281 1.491 1_655 S
C1276 H1267 0.950 . S
C1276 C1275 1.398 . S
C1276 C1277 1.391 . S
C1277 H1265 0.950 . S
C1277 C1273 1.393 . S
C1277 C1276 1.391 . S
C1278 H1268 0.950 . S
C1278 C1279 1.386 . S
C1278 C1280 1.391 . S
C1279 C1278 1.386 . S
C1279 C1283 1.393 . S
C1280 H1269 0.950 . S
C1280 C1278 1.391 . S
C1280 C1281 1.400 . S
C1281 C1275 1.491 1_455 S
C1281 C1280 1.400 . S
C1281 C1282 1.398 . S
C1282 H1270 0.950 . S
C1282 C1281 1.398 . S
C1282 C1283 1.391 . S
C1283 H1271 0.950 . S
C1283 C1279 1.393 . S
C1283 C1282 1.391 . S
H1284 C1292 0.950 . S
H1285 C1297 0.950 . S
H1286 C1294 0.950 . S
H1287 C1296 0.950 . S
H1288 C1298 0.950 . S
H1289 C1300 0.950 . S
H1290 C1302 0.950 . S
H1291 C1303 0.950 . S
C1292 H1284 0.950 . S
C1292 C1293 1.386 . S
C1292 C1294 1.391 . S
C1293 C1292 1.386 . S
C1293 C1297 1.393 . S
C1294 H1286 0.950 . S
C1294 C1292 1.391 . S
C1294 C1295 1.400 . S
C1295 C1294 1.400 . S
C1295 C1296 1.398 . S
C1295 C1301 1.491 . S
C1296 H1287 0.950 . S
C1296 C1295 1.398 . S
C1296 C1297 1.391 . S
C1297 H1285 0.950 . S
C1297 C1293 1.393 . S
C1297 C1296 1.391 . S
C1298 H1288 0.950 . S
C1298 C1299 1.386 . S
C1298 C1300 1.391 . S
C1299 C1298 1.386 . S
C1299 C1303 1.393 . S
C1300 H1289 0.950 . S
C1300 C1298 1.391 . S
C1300 C1301 1.400 . S
C1301 C1295 1.491 . S
C1301 C1300 1.400 . S
C1301 C1302 1.398 . S
C1302 H1290 0.950 . S
C1302 C1301 1.398 . S
C1302 C1303 1.391 . S
C1303 H1291 0.950 . S
C1303 C1299 1.393 . S
C1303 C1302 1.391 . S
H1304 C1312 0.950 . S
H1305 C1317 0.950 . S
H1306 C1314 0.950 . S
H1307 C1316 0.950 . S
H1308 C1318 0.950 . S
H1309 C1320 0.950 . S
H1310 C1322 0.950 . S
H1311 C1323 0.950 . S
C1312 H1304 0.950 . S
C1312 C1313 1.386 . S
C1312 C1314 1.391 . S
C1313 C1312 1.386 . S
C1313 C1317 1.393 . S
C1314 H1306 0.950 . S
C1314 C1312 1.391 . S
C1314 C1315 1.400 . S
C1315 C1314 1.400 . S
C1315 C1316 1.398 . S
C1315 C1321 1.491 1_545 S
C1316 H1307 0.950 . S
C1316 C1315 1.398 . S
C1316 C1317 1.391 . S
C1317 H1305 0.950 . S
C1317 C1313 1.393 . S
C1317 C1316 1.391 . S
C1318 H1308 0.950 . S
C1318 C1319 1.386 . S
C1318 C1320 1.391 . S
C1319 C1318 1.386 . S
C1319 C1323 1.393 . S
C1320 H1309 0.950 . S
C1320 C1318 1.391 . S
C1320 C1321 1.400 . S
C1321 C1315 1.491 1_565 S
C1321 C1320 1.400 . S
C1321 C1322 1.398 . S
C1322 H1310 0.950 . S
C1322 C1321 1.398 . S
C1322 C1323 1.391 . S
C1323 H1311 0.950 . S
C1323 C1319 1.393 . S
C1323 C1322 1.391 . S
H1324 C1332 0.950 . S
H1325 C1337 0.950 . S
H1326 C1334 0.950 . S
H1327 C1336 0.950 . S
H1328 C1338 0.950 . S
H1329 C1340 0.950 . S
H1330 C1342 0.950 . S
H1331 C1343 0.950 . S
C1332 H1324 0.950 . S
C1332 C1333 1.386 . S
C1332 C1334 1.391 . S
C1333 C1332 1.386 . S
C1333 C1337 1.393 . S
C1334 H1326 0.950 . S
C1334 C1332 1.391 . S
C1334 C1335 1.400 . S
C1335 C1334 1.400 . S
C1335 C1336 1.398 . S
C1335 C1341 1.491 1_655 S
C1336 H1327 0.950 . S
C1336 C1335 1.398 . S
C1336 C1337 1.391 . S
C1337 H1325 0.950 . S
C1337 C1333 1.393 . S
C1337 C1336 1.391 . S
C1338 H1328 0.950 . S
C1338 C1339 1.386 . S
C1338 C1340 1.391 . S
C1339 C1338 1.386 . S
C1339 C1343 1.393 . S
C1340 H1329 0.950 . S
C1340 C1338 1.391 . S
C1340 C1341 1.400 . S
C1341 C1335 1.491 1_455 S
C1341 C1340 1.400 . S
C1341 C1342 1.398 . S
C1342 H1330 0.950 . S
C1342 C1341 1.398 . S
C1342 C1343 1.391 . S
C1343 H1331 0.950 . S
C1343 C1339 1.393 . S
C1343 C1342 1.391 . S
H1344 C1352 0.950 . S
H1345 C1357 0.950 . S
H1346 C1354 0.950 . S
H1347 C1356 0.950 . S
H1348 C1358 0.950 . S
H1349 C1360 0.950 . S
H1350 C1362 0.950 . S
H1351 C1363 0.950 . S
C1352 H1344 0.950 . S
C1352 C1353 1.386 . S
C1352 C1354 1.391 . S
C1353 C1352 1.386 . S
C1353 C1357 1.393 . S
C1354 H1346 0.950 . S
C1354 C1352 1.391 . S
C1354 C1355 1.400 . S
C1355 C1354 1.400 . S
C1355 C1356 1.398 . S
C1355 C1361 1.491 . S
C1356 H1347 0.950 . S
C1356 C1355 1.398 . S
C1356 C1357 1.391 . S
C1357 H1345 0.950 . S
C1357 C1353 1.393 . S
C1357 C1356 1.391 . S
C1358 H1348 0.950 . S
C1358 C1359 1.386 . S
C1358 C1360 1.391 . S
C1359 C1358 1.386 . S
C1359 C1363 1.393 . S
C1360 H1349 0.950 . S
C1360 C1358 1.391 . S
C1360 C1361 1.400 . S
C1361 C1355 1.491 . S
C1361 C1360 1.400 . S
C1361 C1362 1.398 . S
C1362 H1350 0.950 . S
C1362 C1361 1.398 . S
C1362 C1363 1.391 . S
C1363 H1351 0.950 . S
C1363 C1359 1.393 . S
C1363 C1362 1.391 . S
H1364 C1372 0.950 . S
H1365 C1377 0.950 . S
H1366 C1374 0.950 . S
H1367 C1376 0.950 . S
H1368 C1378 0.950 . S
H1369 C1380 0.950 . S
H1370 C1382 0.950 . S
H1371 C1383 0.950 . S
C1372 H1364 0.950 . S
C1372 C1373 1.386 . S
C1372 C1374 1.391 . S
C1373 C1372 1.386 . S
C1373 C1377 1.393 . S
C1374 H1366 0.950 . S
C1374 C1372 1.391 . S
C1374 C1375 1.400 . S
C1375 C1374 1.400 . S
C1375 C1376 1.398 . S
C1375 C1381 1.491 . S
C1376 H1367 0.950 . S
C1376 C1375 1.398 . S
C1376 C1377 1.391 . S
C1377 H1365 0.950 . S
C1377 C1373 1.393 . S
C1377 C1376 1.391 . S
C1378 H1368 0.950 . S
C1378 C1379 1.386 . S
C1378 C1380 1.391 . S
C1379 C1378 1.386 . S
C1379 C1383 1.393 . S
C1380 H1369 0.950 . S
C1380 C1378 1.391 . S
C1380 C1381 1.400 . S
C1381 C1375 1.491 . S
C1381 C1380 1.400 . S
C1381 C1382 1.398 . S
C1382 H1370 0.950 . S
C1382 C1381 1.398 . S
C1382 C1383 1.391 . S
C1383 H1371 0.950 . S
C1383 C1379 1.393 . S
C1383 C1382 1.391 . S
H1384 C1392 0.950 . S
H1385 C1397 0.950 . S
H1386 C1394 0.950 . S
H1387 C1396 0.950 . S
H1388 C1398 0.950 . S
H1389 C1400 0.950 . S
H1390 C1402 0.950 . S
H1391 C1403 0.950 . S
C1392 H1384 0.950 . S
C1392 C1393 1.386 . S
C1392 C1394 1.391 . S
C1393 C1392 1.386 . S
C1393 C1397 1.393 . S
C1394 H1386 0.950 . S
C1394 C1392 1.391 . S
C1394 C1395 1.400 . S
C1395 C1394 1.400 . S
C1395 C1396 1.398 . S
C1395 C1401 1.491 . S
C1396 H1387 0.950 . S
C1396 C1395 1.398 . S
C1396 C1397 1.391 . S
C1397 H1385 0.950 . S
C1397 C1393 1.393 . S
C1397 C1396 1.391 . S
C1398 H1388 0.950 . S
C1398 C1399 1.386 . S
C1398 C1400 1.391 . S
C1399 C1398 1.386 . S
C1399 C1403 1.393 . S
C1400 H1389 0.950 . S
C1400 C1398 1.391 . S
C1400 C1401 1.400 . S
C1401 C1395 1.491 . S
C1401 C1400 1.400 . S
C1401 C1402 1.398 . S
C1402 H1390 0.950 . S
C1402 C1401 1.398 . S
C1402 C1403 1.391 . S
C1403 H1391 0.950 . S
C1403 C1399 1.393 . S
C1403 C1402 1.391 . S
H1404 C1412 0.950 . S
H1405 C1417 0.950 . S
H1406 C1414 0.950 . S
H1407 C1416 0.950 . S
H1408 C1418 0.950 . S
H1409 C1420 0.950 . S
H1410 C1422 0.950 . S
H1411 C1423 0.950 . S
C1412 H1404 0.950 . S
C1412 C1413 1.386 . S
C1412 C1414 1.391 . S
C1413 C1412 1.386 . S
C1413 C1417 1.393 . S
C1414 H1406 0.950 . S
C1414 C1412 1.391 . S
C1414 C1415 1.400 . S
C1415 C1414 1.400 . S
C1415 C1416 1.398 . S
C1415 C1421 1.491 . S
C1416 H1407 0.950 . S
C1416 C1415 1.398 . S
C1416 C1417 1.391 . S
C1417 H1405 0.950 . S
C1417 C1413 1.393 . S
C1417 C1416 1.391 . S
C1418 H1408 0.950 . S
C1418 C1419 1.386 . S
C1418 C1420 1.391 . S
C1419 C1418 1.386 . S
C1419 C1423 1.393 . S
C1420 H1409 0.950 . S
C1420 C1418 1.391 . S
C1420 C1421 1.400 . S
C1421 C1415 1.491 . S
C1421 C1420 1.400 . S
C1421 C1422 1.398 . S
C1422 H1410 0.950 . S
C1422 C1421 1.398 . S
C1422 C1423 1.391 . S
C1423 H1411 0.950 . S
C1423 C1419 1.393 . S
C1423 C1422 1.391 . S
H1424 C1432 0.950 . S
H1425 C1437 0.950 . S
H1426 C1434 0.950 . S
H1427 C1436 0.950 . S
H1428 C1438 0.950 . S
H1429 C1440 0.950 . S
H1430 C1442 0.950 . S
H1431 C1443 0.950 . S
C1432 H1424 0.950 . S
C1432 C1433 1.386 . S
C1432 C1434 1.391 . S
C1433 C1432 1.386 . S
C1433 C1437 1.393 . S
C1434 H1426 0.950 . S
C1434 C1432 1.391 . S
C1434 C1435 1.400 . S
C1435 C1434 1.400 . S
C1435 C1436 1.398 . S
C1435 C1441 1.491 . S
C1436 H1427 0.950 . S
C1436 C1435 1.398 . S
C1436 C1437 1.391 . S
C1437 H1425 0.950 . S
C1437 C1433 1.393 . S
C1437 C1436 1.391 . S
C1438 H1428 0.950 . S
C1438 C1439 1.386 . S
C1438 C1440 1.391 . S
C1439 C1438 1.386 . S
C1439 C1443 1.393 . S
C1440 H1429 0.950 . S
C1440 C1438 1.391 . S
C1440 C1441 1.400 . S
C1441 C1435 1.491 . S
C1441 C1440 1.400 . S
C1441 C1442 1.398 . S
C1442 H1430 0.950 . S
C1442 C1441 1.398 . S
C1442 C1443 1.391 . S
C1443 H1431 0.950 . S
C1443 C1439 1.393 . S
C1443 C1442 1.391 . S
H1444 C1452 0.950 . S
H1445 C1457 0.950 . S
H1446 C1454 0.950 . S
H1447 C1456 0.950 . S
H1448 C1458 0.950 . S
H1449 C1460 0.950 . S
H1450 C1462 0.950 . S
H1451 C1463 0.950 . S
C1452 H1444 0.950 . S
C1452 C1453 1.386 . S
C1452 C1454 1.391 . S
C1453 C1452 1.386 . S
C1453 C1457 1.393 . S
C1454 H1446 0.950 . S
C1454 C1452 1.391 . S
C1454 C1455 1.400 . S
C1455 C1454 1.400 . S
C1455 C1456 1.398 . S
C1455 C1461 1.491 . S
C1456 H1447 0.950 . S
C1456 C1455 1.398 . S
C1456 C1457 1.391 . S
C1457 H1445 0.950 . S
C1457 C1453 1.393 . S
C1457 C1456 1.391 . S
C1458 H1448 0.950 . S
C1458 C1459 1.386 . S
C1458 C1460 1.391 . S
C1459 C1458 1.386 . S
C1459 C1463 1.393 . S
C1460 H1449 0.950 . S
C1460 C1458 1.391 . S
C1460 C1461 1.400 . S
C1461 C1455 1.491 . S
C1461 C1460 1.400 . S
C1461 C1462 1.398 . S
C1462 H1450 0.950 . S
C1462 C1461 1.398 . S
C1462 C1463 1.391 . S
C1463 H1451 0.950 . S
C1463 C1459 1.393 . S
C1463 C1462 1.391 . S
H1464 C1472 0.950 . S
H1465 C1477 0.950 . S
H1466 C1474 0.950 . S
H1467 C1476 0.950 . S
H1468 C1478 0.950 . S
H1469 C1480 0.950 . S
H1470 C1482 0.950 . S
H1471 C1483 0.950 . S
C1472 H1464 0.950 . S
C1472 C1473 1.386 . S
C1472 C1474 1.391 . S
C1473 C1472 1.386 . S
C1473 C1477 1.393 . S
C1474 H1466 0.950 . S
C1474 C1472 1.391 . S
C1474 C1475 1.400 . S
C1475 C1474 1.400 . S
C1475 C1476 1.398 . S
C1475 C1481 1.491 . S
C1476 H1467 0.950 . S
C1476 C1475 1.398 . S
C1476 C1477 1.391 . S
C1477 H1465 0.950 . S
C1477 C1473 1.393 . S
C1477 C1476 1.391 . S
C1478 H1468 0.950 . S
C1478 C1479 1.386 . S
C1478 C1480 1.391 . S
C1479 C1478 1.386 . S
C1479 C1483 1.393 . S
C1480 H1469 0.950 . S
C1480 C1478 1.391 . S
C1480 C1481 1.400 . S
C1481 C1475 1.491 . S
C1481 C1480 1.400 . S
C1481 C1482 1.398 . S
C1482 H1470 0.950 . S
C1482 C1481 1.398 . S
C1482 C1483 1.391 . S
C1483 H1471 0.950 . S
C1483 C1479 1.393 . S
C1483 C1482 1.391 . S
H1484 C1492 0.950 . S
H1485 C1497 0.950 . S
H1486 C1494 0.950 . S
H1487 C1496 0.950 . S
H1488 C1498 0.950 . S
H1489 C1500 0.950 . S
H1490 C1502 0.950 . S
H1491 C1503 0.950 . S
C1492 H1484 0.950 . S
C1492 C1493 1.386 . S
C1492 C1494 1.391 . S
C1493 C1492 1.386 . S
C1493 C1497 1.393 . S
C1494 H1486 0.950 . S
C1494 C1492 1.391 . S
C1494 C1495 1.400 . S
C1495 C1494 1.400 . S
C1495 C1496 1.398 . S
C1495 C1501 1.491 . S
C1496 H1487 0.950 . S
C1496 C1495 1.398 . S
C1496 C1497 1.391 . S
C1497 H1485 0.950 . S
C1497 C1493 1.393 . S
C1497 C1496 1.391 . S
C1498 H1488 0.950 . S
C1498 C1499 1.386 . S
C1498 C1500 1.391 . S
C1499 C1498 1.386 . S
C1499 C1503 1.393 . S
C1500 H1489 0.950 . S
C1500 C1498 1.391 . S
C1500 C1501 1.400 . S
C1501 C1495 1.491 . S
C1501 C1500 1.400 . S
C1501 C1502 1.398 . S
C1502 H1490 0.950 . S
C1502 C1501 1.398 . S
C1502 C1503 1.391 . S
C1503 H1491 0.950 . S
C1503 C1499 1.393 . S
C1503 C1502 1.391 . S
H1504 C1512 0.950 . S
H1505 C1517 0.950 . S
H1506 C1514 0.950 . S
H1507 C1516 0.950 . S
H1508 C1518 0.950 . S
H1509 C1520 0.950 . S
H1510 C1522 0.950 . S
H1511 C1523 0.950 . S
C1512 H1504 0.950 . S
C1512 C1513 1.386 . S
C1512 C1514 1.391 . S
C1513 C1512 1.386 . S
C1513 C1517 1.393 . S
C1514 H1506 0.950 . S
C1514 C1512 1.391 . S
C1514 C1515 1.400 . S
C1515 C1514 1.400 . S
C1515 C1516 1.398 . S
C1515 C1521 1.491 . S
C1516 H1507 0.950 . S
C1516 C1515 1.398 . S
C1516 C1517 1.391 . S
C1517 H1505 0.950 . S
C1517 C1513 1.393 . S
C1517 C1516 1.391 . S
C1518 H1508 0.950 . S
C1518 C1519 1.386 . S
C1518 C1520 1.391 . S
C1519 C1518 1.386 . S
C1519 C1523 1.393 . S
C1520 H1509 0.950 . S
C1520 C1518 1.391 . S
C1520 C1521 1.400 . S
C1521 C1515 1.491 . S
C1521 C1520 1.400 . S
C1521 C1522 1.398 . S
C1522 H1510 0.950 . S
C1522 C1521 1.398 . S
C1522 C1523 1.391 . S
C1523 H1511 0.950 . S
C1523 C1519 1.393 . S
C1523 C1522 1.391 . S
H1524 C1532 0.950 . S
H1525 C1537 0.950 . S
H1526 C1534 0.950 . S
H1527 C1536 0.950 . S
H1528 C1538 0.950 . S
H1529 C1540 0.950 . S
H1530 C1542 0.950 . S
H1531 C1543 0.950 . S
C1532 H1524 0.950 . S
C1532 C1533 1.386 . S
C1532 C1534 1.391 . S
C1533 C1532 1.386 . S
C1533 C1537 1.393 . S
C1534 H1526 0.950 . S
C1534 C1532 1.391 . S
C1534 C1535 1.400 . S
C1535 C1534 1.400 . S
C1535 C1536 1.398 . S
C1535 C1541 1.491 . S
C1536 H1527 0.950 . S
C1536 C1535 1.398 . S
C1536 C1537 1.391 . S
C1537 H1525 0.950 . S
C1537 C1533 1.393 . S
C1537 C1536 1.391 . S
C1538 H1528 0.950 . S
C1538 C1539 1.386 . S
C1538 C1540 1.391 . S
C1539 C1538 1.386 . S
C1539 C1543 1.393 . S
C1540 H1529 0.950 . S
C1540 C1538 1.391 . S
C1540 C1541 1.400 . S
C1541 C1535 1.491 . S
C1541 C1540 1.400 . S
C1541 C1542 1.398 . S
C1542 H1530 0.950 . S
C1542 C1541 1.398 . S
C1542 C1543 1.391 . S
C1543 H1531 0.950 . S
C1543 C1539 1.393 . S
C1543 C1542 1.391 . S
H1544 C1552 0.950 . S
H1545 C1557 0.950 . S
H1546 C1554 0.950 . S
H1547 C1556 0.950 . S
H1548 C1558 0.950 . S
H1549 C1560 0.950 . S
H1550 C1562 0.950 . S
H1551 C1563 0.950 . S
C1552 H1544 0.950 . S
C1552 C1553 1.386 . S
C1552 C1554 1.391 . S
C1553 C1552 1.386 . S
C1553 C1557 1.393 . S
C1554 H1546 0.950 . S
C1554 C1552 1.391 . S
C1554 C1555 1.400 . S
C1555 C1554 1.400 . S
C1555 C1556 1.398 . S
C1555 C1561 1.491 . S
C1556 H1547 0.950 . S
C1556 C1555 1.398 . S
C1556 C1557 1.391 . S
C1557 H1545 0.950 . S
C1557 C1553 1.393 . S
C1557 C1556 1.391 . S
C1558 H1548 0.950 . S
C1558 C1559 1.386 . S
C1558 C1560 1.391 . S
C1559 C1558 1.386 . S
C1559 C1563 1.393 . S
C1560 H1549 0.950 . S
C1560 C1558 1.391 . S
C1560 C1561 1.400 . S
C1561 C1555 1.491 . S
C1561 C1560 1.400 . S
C1561 C1562 1.398 . S
C1562 H1550 0.950 . S
C1562 C1561 1.398 . S
C1562 C1563 1.391 . S
C1563 H1551 0.950 . S
C1563 C1559 1.393 . S
C1563 C1562 1.391 . S
H1564 C1572 0.950 . S
H1565 C1577 0.950 . S
H1566 C1574 0.950 . S
H1567 C1576 0.950 . S
H1568 C1578 0.950 . S
H1569 C1580 0.950 . S
H1570 C1582 0.950 . S
H1571 C1583 0.950 . S
C1572 H1564 0.950 . S
C1572 C1573 1.386 . S
C1572 C1574 1.391 . S
C1573 C1572 1.386 . S
C1573 C1577 1.393 . S
C1574 H1566 0.950 . S
C1574 C1572 1.391 . S
C1574 C1575 1.400 . S
C1575 C1574 1.400 . S
C1575 C1576 1.398 . S
C1575 C1581 1.491 . S
C1576 H1567 0.950 . S
C1576 C1575 1.398 . S
C1576 C1577 1.391 . S
C1577 H1565 0.950 . S
C1577 C1573 1.393 . S
C1577 C1576 1.391 . S
C1578 H1568 0.950 . S
C1578 C1579 1.386 . S
C1578 C1580 1.391 . S
C1579 C1578 1.386 . S
C1579 C1583 1.393 . S
C1580 H1569 0.950 . S
C1580 C1578 1.391 . S
C1580 C1581 1.400 . S
C1581 C1575 1.491 . S
C1581 C1580 1.400 . S
C1581 C1582 1.398 . S
C1582 H1570 0.950 . S
C1582 C1581 1.398 . S
C1582 C1583 1.391 . S
C1583 H1571 0.950 . S
C1583 C1579 1.393 . S
C1583 C1582 1.391 . S
H1584 C1592 0.950 . S
H1585 C1597 0.950 . S
H1586 C1594 0.950 . S
H1587 C1596 0.950 . S
H1588 C1598 0.950 . S
H1589 C1600 0.950 . S
H1590 C1602 0.950 . S
H1591 C1603 0.950 . S
C1592 H1584 0.950 . S
C1592 C1593 1.386 . S
C1592 C1594 1.391 . S
C1593 C1592 1.386 . S
C1593 C1597 1.393 . S
C1594 H1586 0.950 . S
C1594 C1592 1.391 . S
C1594 C1595 1.400 . S
C1595 C1594 1.400 . S
C1595 C1596 1.398 . S
C1595 C1601 1.491 . S
C1596 H1587 0.950 . S
C1596 C1595 1.398 . S
C1596 C1597 1.391 . S
C1597 H1585 0.950 . S
C1597 C1593 1.393 . S
C1597 C1596 1.391 . S
C1598 H1588 0.950 . S
C1598 C1599 1.386 . S
C1598 C1600 1.391 . S
C1599 C1598 1.386 . S
C1599 C1603 1.393 . S
C1600 H1589 0.950 . S
C1600 C1598 1.391 . S
C1600 C1601 1.400 . S
C1601 C1595 1.491 . S
C1601 C1600 1.400 . S
C1601 C1602 1.398 . S
C1602 H1590 0.950 . S
C1602 C1601 1.398 . S
C1602 C1603 1.391 . S
C1603 H1591 0.950 . S
C1603 C1599 1.393 . S
C1603 C1602 1.391 . S
H1604 C1612 0.950 . S
H1605 C1617 0.950 . S
H1606 C1614 0.950 . S
H1607 C1616 0.950 . S
H1608 C1618 0.950 . S
H1609 C1620 0.950 . S
H1610 C1622 0.950 . S
H1611 C1623 0.950 . S
C1612 H1604 0.950 . S
C1612 C1613 1.386 . S
C1612 C1614 1.391 . S
C1613 C1612 1.386 . S
C1613 C1617 1.393 . S
C1614 H1606 0.950 . S
C1614 C1612 1.391 . S
C1614 C1615 1.400 . S
C1615 C1614 1.400 . S
C1615 C1616 1.398 . S
C1615 C1621 1.491 . S
C1616 H1607 0.950 . S
C1616 C1615 1.398 . S
C1616 C1617 1.391 . S
C1617 H1605 0.950 . S
C1617 C1613 1.393 . S
C1617 C1616 1.391 . S
C1618 H1608 0.950 . S
C1618 C1619 1.386 . S
C1618 C1620 1.391 . S
C1619 C1618 1.386 . S
C1619 C1623 1.393 . S
C1620 H1609 0.950 . S
C1620 C1618 1.391 . S
C1620 C1621 1.400 . S
C1621 C1615 1.491 . S
C1621 C1620 1.400 . S
C1621 C1622 1.398 . S
C1622 H1610 0.950 . S
C1622 C1621 1.398 . S
C1622 C1623 1.391 . S
C1623 H1611 0.950 . S
C1623 C1619 1.393 . S
C1623 C1622 1.391 . S
H1624 C1632 0.950 . S
H1625 C1637 0.950 . S
H1626 C1634 0.950 . S
H1627 C1636 0.950 . S
H1628 C1638 0.950 . S
H1629 C1640 0.950 . S
H1630 C1642 0.950 . S
H1631 C1643 0.950 . S
C1632 H1624 0.950 . S
C1632 C1633 1.386 . S
C1632 C1634 1.391 . S
C1633 C1632 1.386 . S
C1633 C1637 1.393 . S
C1634 H1626 0.950 . S
C1634 C1632 1.391 . S
C1634 C1635 1.400 . S
C1635 C1634 1.400 . S
C1635 C1636 1.398 . S
C1635 C1641 1.491 . S
C1636 H1627 0.950 . S
C1636 C1635 1.398 . S
C1636 C1637 1.391 . S
C1637 H1625 0.950 . S
C1637 C1633 1.393 . S
C1637 C1636 1.391 . S
C1638 H1628 0.950 . S
C1638 C1639 1.386 . S
C1638 C1640 1.391 . S
C1639 C1638 1.386 . S
C1639 C1643 1.393 . S
C1640 H1629 0.950 . S
C1640 C1638 1.391 . S
C1640 C1641 1.400 . S
C1641 C1635 1.491 . S
C1641 C1640 1.400 . S
C1641 C1642 1.398 . S
C1642 H1630 0.950 . S
C1642 C1641 1.398 . S
C1642 C1643 1.391 . S
C1643 H1631 0.950 . S
C1643 C1639 1.393 . S
C1643 C1642 1.391 . S
H1644 C1652 0.950 . S
H1645 C1657 0.950 . S
H1646 C1654 0.950 . S
H1647 C1656 0.950 . S
H1648 C1658 0.950 . S
H1649 C1660 0.950 . S
H1650 C1662 0.950 . S
H1651 C1663 0.950 . S
C1652 H1644 0.950 . S
C1652 C1653 1.386 . S
C1652 C1654 1.391 . S
C1653 C1652 1.386 . S
C1653 C1657 1.393 . S
C1654 H1646 0.950 . S
C1654 C1652 1.391 . S
C1654 C1655 1.400 . S
C1655 C1654 1.400 . S
C1655 C1656 1.398 . S
C1655 C1661 1.491 . S
C1656 H1647 0.950 . S
C1656 C1655 1.398 . S
C1656 C1657 1.391 . S
C1657 H1645 0.950 . S
C1657 C1653 1.393 . S
C1657 C1656 1.391 . S
C1658 H1648 0.950 . S
C1658 C1659 1.386 . S
C1658 C1660 1.391 . S
C1659 C1658 1.386 . S
C1659 C1663 1.393 . S
C1660 H1649 0.950 . S
C1660 C1658 1.391 . S
C1660 C1661 1.400 . S
C1661 C1655 1.491 . S
C1661 C1660 1.400 . S
C1661 C1662 1.398 . S
C1662 H1650 0.950 . S
C1662 C1661 1.398 . S
C1662 C1663 1.391 . S
C1663 H1651 0.950 . S
C1663 C1659 1.393 . S
C1663 C1662 1.391 . S
H1664 C1672 0.950 . S
H1665 C1677 0.950 . S
H1666 C1674 0.950 . S
H1667 C1676 0.950 . S
H1668 C1678 0.950 . S
H1669 C1680 0.950 . S
H1670 C1682 0.950 . S
H1671 C1683 0.950 . S
C1672 H1664 0.950 . S
C1672 C1673 1.386 . S
C1672 C1674 1.391 . S
C1673 C1672 1.386 . S
C1673 C1677 1.393 . S
C1674 H1666 0.950 . S
C1674 C1672 1.391 . S
C1674 C1675 1.400 . S
C1675 C1674 1.400 . S
C1675 C1676 1.398 . S
C1675 C1681 1.491 . S
C1676 H1667 0.950 . S
C1676 C1675 1.398 . S
C1676 C1677 1.391 . S
C1677 H1665 0.950 . S
C1677 C1673 1.393 . S
C1677 C1676 1.391 . S
C1678 H1668 0.950 . S
C1678 C1679 1.386 . S
C1678 C1680 1.391 . S
C1679 C1678 1.386 . S
C1679 C1683 1.393 . S
C1680 H1669 0.950 . S
C1680 C1678 1.391 . S
C1680 C1681 1.400 . S
C1681 C1675 1.491 . S
C1681 C1680 1.400 . S
C1681 C1682 1.398 . S
C1682 H1670 0.950 . S
C1682 C1681 1.398 . S
C1682 C1683 1.391 . S
C1683 H1671 0.950 . S
C1683 C1679 1.393 . S
C1683 C1682 1.391 . S
H1684 C1692 0.950 . S
H1685 C1697 0.950 . S
H1686 C1694 0.950 . S
H1687 C1696 0.950 . S
H1688 C1698 0.950 . S
H1689 C1700 0.950 . S
H1690 C1702 0.950 . S
H1691 C1703 0.950 . S
C1692 H1684 0.950 . S
C1692 C1693 1.386 . S
C1692 C1694 1.391 . S
C1693 C1692 1.386 . S
C1693 C1697 1.393 . S
C1694 H1686 0.950 . S
C1694 C1692 1.391 . S
C1694 C1695 1.400 . S
C1695 C1694 1.400 . S
C1695 C1696 1.398 . S
C1695 C1701 1.491 . S
C1696 H1687 0.950 . S
C1696 C1695 1.398 . S
C1696 C1697 1.391 . S
C1697 H1685 0.950 . S
C1697 C1693 1.393 . S
C1697 C1696 1.391 . S
C1698 H1688 0.950 . S
C1698 C1699 1.386 . S
C1698 C1700 1.391 . S
C1699 C1698 1.386 . S
C1699 C1703 1.393 . S
C1700 H1689 0.950 . S
C1700 C1698 1.391 . S
C1700 C1701 1.400 . S
C1701 C1695 1.491 . S
C1701 C1700 1.400 . S
C1701 C1702 1.398 . S
C1702 H1690 0.950 . S
C1702 C1701 1.398 . S
C1702 C1703 1.391 . S
C1703 H1691 0.950 . S
C1703 C1699 1.393 . S
C1703 C1702 1.391 . S
H1704 C1712 0.950 . S
H1705 C1717 0.950 . S
H1706 C1714 0.950 . S
H1707 C1716 0.950 . S
H1708 C1718 0.950 . S
H1709 C1720 0.950 . S
H1710 C1722 0.950 . S
H1711 C1723 0.950 . S
C1712 H1704 0.950 . S
C1712 C1713 1.386 . S
C1712 C1714 1.391 . S
C1713 C1712 1.386 . S
C1713 C1717 1.393 . S
C1714 H1706 0.950 . S
C1714 C1712 1.391 . S
C1714 C1715 1.400 . S
C1715 C1714 1.400 . S
C1715 C1716 1.398 . S
C1715 C1721 1.491 . S
C1716 H1707 0.950 . S
C1716 C1715 1.398 . S
C1716 C1717 1.391 . S
C1717 H1705 0.950 . S
C1717 C1713 1.393 . S
C1717 C1716 1.391 . S
C1718 H1708 0.950 . S
C1718 C1719 1.386 . S
C1718 C1720 1.391 . S
C1719 C1718 1.386 . S
C1719 C1723 1.393 . S
C1720 H1709 0.950 . S
C1720 C1718 1.391 . S
C1720 C1721 1.400 . S
C1721 C1715 1.491 . S
C1721 C1720 1.400 . S
C1721 C1722 1.398 . S
C1722 H1710 0.950 . S
C1722 C1721 1.398 . S
C1722 C1723 1.391 . S
C1723 H1711 0.950 . S
C1723 C1719 1.393 . S
C1723 C1722 1.391 . S
H1724 C1732 0.950 . S
H1725 C1737 0.950 . S
H1726 C1734 0.950 . S
H1727 C1736 0.950 . S
H1728 C1738 0.950 . S
H1729 C1740 0.950 . S
H1730 C1742 0.950 . S
H1731 C1743 0.950 . S
C1732 H1724 0.950 . S
C1732 C1733 1.386 . S
C1732 C1734 1.391 . S
C1733 C1732 1.386 . S
C1733 C1737 1.393 . S
C1734 H1726 0.950 . S
C1734 C1732 1.391 . S
C1734 C1735 1.400 . S
C1735 C1734 1.400 . S
C1735 C1736 1.398 . S
C1735 C1741 1.491 . S
C1736 H1727 0.950 . S
C1736 C1735 1.398 . S
C1736 C1737 1.391 . S
C1737 H1725 0.950 . S
C1737 C1733 1.393 . S
C1737 C1736 1.391 . S
C1738 H1728 0.950 . S
C1738 C1739 1.386 . S
C1738 C1740 1.391 . S
C1739 C1738 1.386 . S
C1739 C1743 1.393 . S
C1740 H1729 0.950 . S
C1740 C1738 1.391 . S
C1740 C1741 1.400 . S
C1741 C1735 1.491 . S
C1741 C1740 1.400 . S
C1741 C1742 1.398 . S
C1742 H1730 0.950 . S
C1742 C1741 1.398 . S
C1742 C1743 1.391 . S
C1743 H1731 0.950 . S
C1743 C1739 1.393 . S
C1743 C1742 1.391 . S
H1744 C1752 0.950 . S
H1745 C1757 0.950 . S
H1746 C1754 0.950 . S
H1747 C1756 0.950 . S
H1748 C1758 0.950 . S
H1749 C1760 0.950 . S
H1750 C1762 0.950 . S
H1751 C1763 0.950 . S
C1752 H1744 0.950 . S
C1752 C1753 1.386 . S
C1752 C1754 1.391 . S
C1753 C1752 1.386 . S
C1753 C1757 1.393 . S
C1754 H1746 0.950 . S
C1754 C1752 1.391 . S
C1754 C1755 1.400 . S
C1755 C1754 1.400 . S
C1755 C1756 1.398 . S
C1755 C1761 1.491 . S
C1756 H1747 0.950 . S
C1756 C1755 1.398 . S
C1756 C1757 1.391 . S
C1757 H1745 0.950 . S
C1757 C1753 1.393 . S
C1757 C1756 1.391 . S
C1758 H1748 0.950 . S
C1758 C1759 1.386 . S
C1758 C1760 1.391 . S
C1759 C1758 1.386 . S
C1759 C1763 1.393 . S
C1760 H1749 0.950 . S
C1760 C1758 1.391 . S
C1760 C1761 1.400 . S
C1761 C1755 1.491 . S
C1761 C1760 1.400 . S
C1761 C1762 1.398 . S
C1762 H1750 0.950 . S
C1762 C1761 1.398 . S
C1762 C1763 1.391 . S
C1763 H1751 0.950 . S
C1763 C1759 1.393 . S
C1763 C1762 1.391 . S
H1764 C1772 0.950 . S
H1765 C1777 0.950 . S
H1766 C1774 0.950 . S
H1767 C1776 0.950 . S
H1768 C1778 0.950 . S
H1769 C1780 0.950 . S
H1770 C1782 0.950 . S
H1771 C1783 0.950 . S
C1772 H1764 0.950 . S
C1772 C1773 1.386 . S
C1772 C1774 1.391 . S
C1773 C1772 1.386 . S
C1773 C1777 1.393 . S
C1774 H1766 0.950 . S
C1774 C1772 1.391 . S
C1774 C1775 1.400 . S
C1775 C1774 1.400 . S
C1775 C1776 1.398 . S
C1775 C1781 1.491 . S
C1776 H1767 0.950 . S
C1776 C1775 1.398 . S
C1776 C1777 1.391 . S
C1777 H1765 0.950 . S
C1777 C1773 1.393 . S
C1777 C1776 1.391 . S
C1778 H1768 0.950 . S
C1778 C1779 1.386 . S
C1778 C1780 1.391 . S
C1779 C1778 1.386 . S
C1779 C1783 1.393 . S
C1780 H1769 0.950 . S
C1780 C1778 1.391 . S
C1780 C1781 1.400 . S
C1781 C1775 1.491 . S
C1781 C1780 1.400 . S
C1781 C1782 1.398 . S
C1782 H1770 0.950 . S
C1782 C1781 1.398 . S
C1782 C1783 1.391 . S
C1783 H1771 0.950 . S
C1783 C1779 1.393 . S
C1783 C1782 1.391 . S
H1784 C1792 0.950 . S
H1785 C1797 0.950 . S
H1786 C1794 0.950 . S
H1787 C1796 0.950 . S
H1788 C1798 0.950 . S
H1789 C1800 0.950 . S
H1790 C1802 0.950 . S
H1791 C1803 0.950 . S
C1792 H1784 0.950 . S
C1792 C1793 1.386 . S
C1792 C1794 1.391 . S
C1793 C1792 1.386 . S
C1793 C1797 1.393 . S
C1794 H1786 0.950 . S
C1794 C1792 1.391 . S
C1794 C1795 1.400 . S
C1795 C1794 1.400 . S
C1795 C1796 1.398 . S
C1795 C1801 1.491 . S
C1796 H1787 0.950 . S
C1796 C1795 1.398 . S
C1796 C1797 1.391 . S
C1797 H1785 0.950 . S
C1797 C1793 1.393 . S
C1797 C1796 1.391 . S
C1798 H1788 0.950 . S
C1798 C1799 1.386 . S
C1798 C1800 1.391 . S
C1799 C1798 1.386 . S
C1799 C1803 1.393 . S
C1800 H1789 0.950 . S
C1800 C1798 1.391 . S
C1800 C1801 1.400 . S
C1801 C1795 1.491 . S
C1801 C1800 1.400 . S
C1801 C1802 1.398 . S
C1802 H1790 0.950 . S
C1802 C1801 1.398 . S
C1802 C1803 1.391 . S
C1803 H1791 0.950 . S
C1803 C1799 1.393 . S
C1803 C1802 1.391 . S
H1804 C1812 0.950 . S
H1805 C1817 0.950 . S
H1806 C1814 0.950 . S
H1807 C1816 0.950 . S
H1808 C1818 0.950 . S
H1809 C1820 0.950 . S
H1810 C1822 0.950 . S
H1811 C1823 0.950 . S
C1812 H1804 0.950 . S
C1812 C1813 1.386 . S
C1812 C1814 1.391 . S
C1813 C1812 1.386 . S
C1813 C1817 1.393 . S
C1814 H1806 0.950 . S
C1814 C1812 1.391 . S
C1814 C1815 1.400 . S
C1815 C1814 1.400 . S
C1815 C1816 1.398 . S
C1815 C1821 1.491 . S
C1816 H1807 0.950 . S
C1816 C1815 1.398 . S
C1816 C1817 1.391 . S
C1817 H1805 0.950 . S
C1817 C1813 1.393 . S
C1817 C1816 1.391 . S
C1818 H1808 0.950 . S
C1818 C1819 1.386 . S
C1818 C1820 1.391 . S
C1819 C1818 1.386 . S
C1819 C1823 1.393 . S
C1820 H1809 0.950 . S
C1820 C1818 1.391 . S
C1820 C1821 1.400 . S
C1821 C1815 1.491 . S
C1821 C1820 1.400 . S
C1821 C1822 1.398 . S
C1822 H1810 0.950 . S
C1822 C1821 1.398 . S
C1822 C1823 1.391 . S
C1823 H1811 0.950 . S
C1823 C1819 1.393 . S
C1823 C1822 1.391 . S
H1824 C1832 0.950 . S
H1825 C1837 0.950 . S
H1826 C1834 0.950 . S
H1827 C1836 1.003 . S
H1828 C1838 0.950 . S
H1829 C1840 0.950 . S
H1830 C1842 1.003 . S
H1831 C1843 0.950 . S
C1832 H1824 0.950 . S
C1832 C1833 1.386 . S
C1832 C1834 1.391 . S
C1833 C1832 1.386 . S
C1833 C1837 1.393 . S
C1834 H1826 0.950 . S
C1834 C1832 1.391 . S
C1834 C1835 1.400 . S
C1835 C1834 1.400 . S
C1835 C1836 1.398 . S
C1835 C1841 1.491 1_455 S
C1836 H1827 1.003 . S
C1836 C1835 1.398 . S
C1836 C1837 1.391 . S
C1837 H1825 0.950 . S
C1837 C1833 1.393 . S
C1837 C1836 1.391 . S
C1838 H1828 0.950 . S
C1838 C1839 1.386 . S
C1838 C1840 1.391 . S
C1839 C1838 1.386 . S
C1839 C1843 1.393 . S
C1840 H1829 0.950 . S
C1840 C1838 1.391 . S
C1840 C1841 1.400 . S
C1841 C1835 1.491 1_655 S
C1841 C1840 1.400 . S
C1841 C1842 1.398 . S
C1842 H1830 1.003 . S
C1842 C1841 1.398 . S
C1842 C1843 1.391 . S
C1843 H1831 0.950 . S
C1843 C1839 1.393 . S
C1843 C1842 1.391 . S
H1844 C1852 0.950 . S
H1845 C1857 0.950 . S
H1846 C1854 0.950 . S
H1847 C1856 0.950 . S
H1848 C1858 0.950 . S
H1849 C1860 0.950 . S
H1850 C1862 0.950 . S
H1851 C1863 0.950 . S
C1852 H1844 0.950 . S
C1852 C1853 1.386 . S
C1852 C1854 1.391 . S
C1853 C1852 1.386 . S
C1853 C1857 1.393 . S
C1854 H1846 0.950 . S
C1854 C1852 1.391 . S
C1854 C1855 1.400 . S
C1855 C1854 1.400 . S
C1855 C1856 1.398 . S
C1855 C1861 1.491 . S
C1856 H1847 0.950 . S
C1856 C1855 1.398 . S
C1856 C1857 1.391 . S
C1857 H1845 0.950 . S
C1857 C1853 1.393 . S
C1857 C1856 1.391 . S
C1858 H1848 0.950 . S
C1858 C1859 1.386 . S
C1858 C1860 1.391 . S
C1859 C1858 1.386 . S
C1859 C1863 1.393 . S
C1860 H1849 0.950 . S
C1860 C1858 1.391 . S
C1860 C1861 1.400 . S
C1861 C1855 1.491 . S
C1861 C1860 1.400 . S
C1861 C1862 1.398 . S
C1862 H1850 0.950 . S
C1862 C1861 1.398 . S
C1862 C1863 1.391 . S
C1863 H1851 0.950 . S
C1863 C1859 1.393 . S
C1863 C1862 1.391 . S
H1864 C1872 0.950 . S
H1865 C1877 0.950 . S
H1866 C1874 0.950 . S
H1867 C1876 0.950 . S
H1868 C1878 0.950 . S
H1869 C1880 0.950 . S
H1870 C1882 0.950 . S
H1871 C1883 0.950 . S
C1872 H1864 0.950 . S
C1872 C1873 1.386 . S
C1872 C1874 1.391 . S
C1873 C1872 1.386 . S
C1873 C1877 1.393 . S
C1874 H1866 0.950 . S
C1874 C1872 1.391 . S
C1874 C1875 1.400 . S
C1875 C1874 1.400 . S
C1875 C1876 1.398 . S
C1875 C1881 1.491 1_545 S
C1876 H1867 0.950 . S
C1876 C1875 1.398 . S
C1876 C1877 1.391 . S
C1877 H1865 0.950 . S
C1877 C1873 1.393 . S
C1877 C1876 1.391 . S
C1878 H1868 0.950 . S
C1878 C1879 1.386 . S
C1878 C1880 1.391 . S
C1879 C1878 1.386 . S
C1879 C1883 1.393 . S
C1880 H1869 0.950 . S
C1880 C1878 1.391 . S
C1880 C1881 1.400 . S
C1881 C1875 1.491 1_565 S
C1881 C1880 1.400 . S
C1881 C1882 1.398 . S
C1882 H1870 0.950 . S
C1882 C1881 1.398 . S
C1882 C1883 1.391 . S
C1883 H1871 0.950 . S
C1883 C1879 1.393 . S
C1883 C1882 1.391 . S
H1884 C1892 0.950 . S
H1885 C1897 0.950 1_556 S
H1886 C1894 0.950 . S
H1887 C1896 0.950 . S
H1888 C1898 0.950 . S
H1889 C1900 0.950 . S
H1890 C1902 0.950 . S
H1891 C1903 0.950 1_554 S
C1892 H1884 0.950 . S
C1892 C1893 1.386 . S
C1892 C1894 1.391 . S
C1893 C1892 1.386 . S
C1893 C1897 1.393 . S
C1894 H1886 0.950 . S
C1894 C1892 1.391 . S
C1894 C1895 1.400 . S
C1895 C1894 1.400 . S
C1895 C1896 1.398 1_554 S
C1895 C1901 1.491 1_544 S
C1896 H1887 0.950 . S
C1896 C1895 1.398 1_556 S
C1896 C1897 1.391 1_556 S
C1897 H1885 0.950 1_554 S
C1897 C1893 1.393 . S
C1897 C1896 1.391 1_554 S
C1898 H1888 0.950 . S
C1898 C1899 1.386 . S
C1898 C1900 1.391 . S
C1899 C1898 1.386 . S
C1899 C1903 1.393 . S
C1900 H1889 0.950 . S
C1900 C1898 1.391 . S
C1900 C1901 1.400 . S
C1901 C1895 1.491 1_566 S
C1901 C1900 1.400 . S
C1901 C1902 1.398 1_556 S
C1902 H1890 0.950 . S
C1902 C1901 1.398 1_554 S
C1902 C1903 1.391 1_554 S
C1903 H1891 0.950 1_556 S
C1903 C1899 1.393 . S
C1903 C1902 1.391 1_556 S
H1904 C1912 0.950 . S
H1905 C1917 0.961 . S
H1906 C1914 0.950 . S
H1907 C1916 0.950 . S
H1908 C1918 0.950 . S
H1909 C1920 0.950 . S
H1910 C1922 0.950 . S
H1911 C1923 0.961 . S
C1912 H1904 0.950 . S
C1912 C1913 1.386 . S
C1912 C1914 1.391 . S
C1913 C1912 1.386 . S
C1913 C1917 1.375 1_554 S
C1914 H1906 0.950 . S
C1914 C1912 1.391 . S
C1914 C1915 1.400 . S
C1915 C1914 1.400 . S
C1915 C1916 1.398 1_554 S
C1915 C1921 1.491 1_654 S
C1916 H1907 0.950 . S
C1916 C1915 1.398 1_556 S
C1916 C1917 1.397 . S
C1917 H1905 0.961 . S
C1917 C1913 1.375 1_556 S
C1917 C1916 1.397 . S
C1918 H1908 0.950 . S
C1918 C1919 1.386 . S
C1918 C1920 1.391 . S
C1919 C1918 1.386 . S
C1919 C1923 1.375 1_556 S
C1920 H1909 0.950 . S
C1920 C1918 1.391 . S
C1920 C1921 1.400 . S
C1921 C1915 1.491 1_456 S
C1921 C1920 1.400 . S
C1921 C1922 1.398 1_556 S
C1922 H1910 0.950 . S
C1922 C1921 1.398 1_554 S
C1922 C1923 1.397 . S
C1923 H1911 0.961 . S
C1923 C1919 1.375 1_554 S
C1923 C1922 1.397 . S
H1924 C1932 0.951 . S
H1925 C1937 0.950 . S
H1926 C1934 0.950 . S
H1927 C1936 0.950 . S
H1928 C1938 0.951 . S
H1929 C1940 0.950 . S
H1930 C1942 0.950 . S
H1931 C1943 0.950 . S
C1932 H1924 0.951 . S
C1932 C1933 1.384 1_556 S
C1932 C1934 1.392 . S
C1933 C1932 1.384 1_554 S
C1933 C1937 1.393 . S
C1934 H1926 0.950 . S
C1934 C1932 1.392 . S
C1934 C1935 1.400 1_556 S
C1935 C1934 1.400 1_554 S
C1935 C1936 1.398 . S
C1935 C1941 1.491 1_554 S
C1936 H1927 0.950 . S
C1936 C1935 1.398 . S
C1936 C1937 1.391 . S
C1937 H1925 0.950 . S
C1937 C1933 1.393 . S
C1937 C1936 1.391 . S
C1938 H1928 0.951 . S
C1938 C1939 1.384 1_554 S
C1938 C1940 1.392 . S
C1939 C1938 1.384 1_556 S
C1939 C1943 1.393 . S
C1940 H1929 0.950 . S
C1940 C1938 1.392 . S
C1940 C1941 1.400 1_554 S
C1941 C1935 1.491 1_556 S
C1941 C1940 1.400 1_556 S
C1941 C1942 1.398 . S
C1942 H1930 0.950 . S
C1942 C1941 1.398 . S
C1942 C1943 1.391 . S
C1943 H1931 0.950 . S
C1943 C1939 1.393 . S
C1943 C1942 1.391 . S
C513 C147 1.234 . S
C519 C8 1.207 . S
C533 C161 1.239 . S
C539 C22 1.180 . S
C553 C36 1.189 . S
C559 C133 1.239 . S
C573 C50 1.199 . S
C579 C119 1.237 . S
C593 C64 1.186 . S
C599 C91 1.239 . S
C613 C105 1.236 . S
C619 C78 1.200 . S
C633 C63 1.227 . S
C639 C92 1.202 . S
C653 C77 1.239 . S
C659 C106 1.186 . S
C673 C120 1.179 . S
C679 C49 1.236 . S
C693 C35 1.234 . S
C699 C134 1.205 . S
C713 C148 1.188 . S
C719 C7 1.239 . S
C733 C162 1.178 . S
C739 C21 1.237 . S
C753 C315 1.239 . S
C759 C176 1.186 . S
C773 C329 1.240 . S
C779 C190 1.183 . S
C793 C204 1.211 . S
C799 C301 1.229 . S
C813 C218 1.201 . S
C819 C287 1.236 . S
C833 C232 1.211 . S
C839 C259 1.229 . S
C853 C246 1.200 . S
C859 C273 1.236 . S
C873 C231 1.236 . S
C879 C260 1.179 . S
C893 C245 1.227 . S
C899 C274 1.205 . S
C913 C217 1.232 . S
C919 C288 1.209 . S
C933 C203 1.239 . S
C939 C302 1.189 . S
C953 C175 1.237 . S
C959 C316 1.198 . S
C973 C189 1.233 . S
C979 C330 1.208 . S
C993 C344 1.198 . S
C999 C483 1.237 . S
C1013 C497 1.234 . S
C1019 C358 1.206 . S
C1033 C469 1.231 . S
C1039 C372 1.210 . S
C1053 C386 1.185 . S
C1059 C455 1.240 . S
C1073 C400 1.189 . S
C1079 C427 1.239 . S
C1093 C414 1.181 . S
C1099 C441 1.239 . S
C1113 C399 1.231 . S
C1119 C428 1.210 . S
C1133 C413 1.238 . S
C1139 C442 1.178 . S
C1153 C385 1.237 . S
C1159 C456 1.197 . S
C1173 C470 1.208 . S
C1179 C371 1.232 . S
C1193 C343 1.233 . S
C1199 C484 1.208 . S
C1213 C498 1.208 . S
C1219 C357 1.233 . S
C1233 C48 1.519 . S
C1239 C6 1.526 . S
C1253 C62 1.522 . S
C1259 C20 1.522 . S
C1273 C34 1.517 . S
C1279 C76 1.527 . S
C1293 C132 1.529 . S
C1299 C90 1.513 . S
C1313 C146 1.523 . S
C1319 C104 1.516 . S
C1333 C160 1.514 . S
C1339 C118 1.527 . S
C1353 C216 1.525 . S
C1359 C174 1.516 . S
C1373 C230 1.519 . S
C1379 C188 1.525 . S
C1393 C202 1.521 . S
C1399 C244 1.519 . S
C1413 C258 1.527 . S
C1419 C300 1.518 . S
C1433 C314 1.520 . S
C1439 C272 1.520 . S
C1453 C286 1.521 . S
C1459 C328 1.518 . S
C1473 C384 1.523 . S
C1479 C342 1.517 . S
C1493 C398 1.514 . S
C1499 C356 1.529 . S
C1513 C370 1.527 . S
C1519 C412 1.514 . S
C1533 C426 1.529 . S
C1539 C468 1.515 . S
C1553 C440 1.517 . S
C1559 C482 1.522 . S
C1573 C454 1.527 . S
C1579 C496 1.517 . S
C1593 C9 1.529 . S
C1599 C261 1.529 . S
C1613 C275 1.516 . S
C1619 C23 1.516 . S
C1633 C289 1.517 . S
C1639 C37 1.517 . S
C1653 C471 1.524 . S
C1659 C51 1.524 . S
C1673 C485 1.518 . S
C1679 C65 1.518 . S
C1693 C499 1.522 . S
C1699 C79 1.522 . S
C1713 C93 1.533 . S
C1719 C345 1.533 . S
C1733 C359 1.521 . S
C1739 C107 1.521 . S
C1753 C373 1.522 . S
C1759 C121 1.522 . S
C1773 C135 1.520 . S
C1779 C219 1.520 . S
C1793 C149 1.516 . S
C1799 C233 1.516 . S
C1813 C163 1.516 . S
C1819 C247 1.516 . S
C1833 C429 1.518 . S
C1839 C177 1.518 . S
C1853 C443 1.529 . S
C1859 C191 1.529 . S
C1873 C205 1.527 . S
C1879 C457 1.527 . S
C1893 C303 1.533 . S
C1899 C387 1.533 . S
C1913 C317 1.533 . S
C1919 C401 1.533 . S
C1933 C331 1.516 . S
C1939 C415 1.516 . S
