# Generated by pormake.
# Topology yff, (5)-cn, num edge types: 1
# Building blocks:
#     Node 0, Type 0, BuildingBlock: XOMCOT_clean_sbu_0, # of connection points: 5
#     Node 1, Type 0, BuildingBlock: XOMCOT_clean_sbu_0, # of connection points: 5
#     Node 2, Type 0, BuildingBlock: XOMCOT_clean_sbu_0, # of connection points: 5
#     Node 3, Type 0, BuildingBlock: XOMCOT_clean_sbu_0, # of connection points: 5
#     Node 4, Type 0, BuildingBlock: XOMCOT_clean_sbu_0, # of connection points: 5
#     Node 5, Type 0, BuildingBlock: XOMCOT_clean_sbu_0, # of connection points: 5
#     Node 6, Type 0, BuildingBlock: XOMCOT_clean_sbu_0, # of connection points: 5
#     Node 7, Type 0, BuildingBlock: XOMCOT_clean_sbu_0, # of connection points: 5
#     Node 8, Type 0, BuildingBlock: XOMCOT_clean_sbu_0, # of connection points: 5
#     Node 9, Type 0, BuildingBlock: XOMCOT_clean_sbu_0, # of connection points: 5
#     Node 10, Type 0, BuildingBlock: XOMCOT_clean_sbu_0, # of connection points: 5
#     Node 11, Type 0, BuildingBlock: XOMCOT_clean_sbu_0, # of connection points: 5
#     Node 12, Type 0, BuildingBlock: XOMCOT_clean_sbu_0, # of connection points: 5
#     Node 13, Type 0, BuildingBlock: XOMCOT_clean_sbu_0, # of connection points: 5
#     Node 14, Type 0, BuildingBlock: XOMCOT_clean_sbu_0, # of connection points: 5
#     Node 15, Type 0, BuildingBlock: XOMCOT_clean_sbu_0, # of connection points: 5
#     Edge 16, Type (0, 0), BuildingBlock: XIVTED_clean_linker_0, # of connection points: 2
#     Edge 17, Type (0, 0), BuildingBlock: XIVTED_clean_linker_0, # of connection points: 2
#     Edge 18, Type (0, 0), BuildingBlock: XIVTED_clean_linker_0, # of connection points: 2
#     Edge 19, Type (0, 0), BuildingBlock: XIVTED_clean_linker_0, # of connection points: 2
#     Edge 20, Type (0, 0), BuildingBlock: XIVTED_clean_linker_0, # of connection points: 2
#     Edge 21, Type (0, 0), BuildingBlock: XIVTED_clean_linker_0, # of connection points: 2
#     Edge 22, Type (0, 0), BuildingBlock: XIVTED_clean_linker_0, # of connection points: 2
#     Edge 23, Type (0, 0), BuildingBlock: XIVTED_clean_linker_0, # of connection points: 2
#     Edge 24, Type (0, 0), BuildingBlock: XIVTED_clean_linker_0, # of connection points: 2
#     Edge 25, Type (0, 0), BuildingBlock: XIVTED_clean_linker_0, # of connection points: 2
#     Edge 26, Type (0, 0), BuildingBlock: XIVTED_clean_linker_0, # of connection points: 2
#     Edge 27, Type (0, 0), BuildingBlock: XIVTED_clean_linker_0, # of connection points: 2
#     Edge 28, Type (0, 0), BuildingBlock: XIVTED_clean_linker_0, # of connection points: 2
#     Edge 29, Type (0, 0), BuildingBlock: XIVTED_clean_linker_0, # of connection points: 2
#     Edge 30, Type (0, 0), BuildingBlock: XIVTED_clean_linker_0, # of connection points: 2
#     Edge 31, Type (0, 0), BuildingBlock: XIVTED_clean_linker_0, # of connection points: 2
#     Edge 32, Type (0, 0), BuildingBlock: XIVTED_clean_linker_0, # of connection points: 2
#     Edge 33, Type (0, 0), BuildingBlock: XIVTED_clean_linker_0, # of connection points: 2
#     Edge 34, Type (0, 0), BuildingBlock: XIVTED_clean_linker_0, # of connection points: 2
#     Edge 35, Type (0, 0), BuildingBlock: XIVTED_clean_linker_0, # of connection points: 2
#     Edge 36, Type (0, 0), BuildingBlock: XIVTED_clean_linker_0, # of connection points: 2
#     Edge 37, Type (0, 0), BuildingBlock: XIVTED_clean_linker_0, # of connection points: 2
#     Edge 38, Type (0, 0), BuildingBlock: XIVTED_clean_linker_0, # of connection points: 2
#     Edge 39, Type (0, 0), BuildingBlock: XIVTED_clean_linker_0, # of connection points: 2
#     Edge 40, Type (0, 0), BuildingBlock: XIVTED_clean_linker_0, # of connection points: 2
#     Edge 41, Type (0, 0), BuildingBlock: XIVTED_clean_linker_0, # of connection points: 2
#     Edge 42, Type (0, 0), BuildingBlock: XIVTED_clean_linker_0, # of connection points: 2
#     Edge 43, Type (0, 0), BuildingBlock: XIVTED_clean_linker_0, # of connection points: 2
#     Edge 44, Type (0, 0), BuildingBlock: XIVTED_clean_linker_0, # of connection points: 2
#     Edge 45, Type (0, 0), BuildingBlock: XIVTED_clean_linker_0, # of connection points: 2
#     Edge 46, Type (0, 0), BuildingBlock: XIVTED_clean_linker_0, # of connection points: 2
#     Edge 47, Type (0, 0), BuildingBlock: XIVTED_clean_linker_0, # of connection points: 2
#     Edge 48, Type (0, 0), BuildingBlock: XIVTED_clean_linker_0, # of connection points: 2
#     Edge 49, Type (0, 0), BuildingBlock: XIVTED_clean_linker_0, # of connection points: 2
#     Edge 50, Type (0, 0), BuildingBlock: XIVTED_clean_linker_0, # of connection points: 2
#     Edge 51, Type (0, 0), BuildingBlock: XIVTED_clean_linker_0, # of connection points: 2
#     Edge 52, Type (0, 0), BuildingBlock: XIVTED_clean_linker_0, # of connection points: 2
#     Edge 53, Type (0, 0), BuildingBlock: XIVTED_clean_linker_0, # of connection points: 2
#     Edge 54, Type (0, 0), BuildingBlock: XIVTED_clean_linker_0, # of connection points: 2
#     Edge 55, Type (0, 0), BuildingBlock: XIVTED_clean_linker_0, # of connection points: 2
# Relax obj value: 0.396
# Max RMSD: 0.366
# Mean RMSD: 0.295
data_MOF--net-yff--node1-XOMCOT_clean_sbu_0--edge1-XIVTED_clean_linker_0
_symmetry_space_group_name_H-M    P1
_symmetry_Int_Tables_number       1
_symmetry_cell_setting            triclinic
loop_
_symmetry_equiv_pos_as_xyz
'x, y, z'
_cell_length_a     59.769913
_cell_length_b     59.77107
_cell_length_c     30.151361
_cell_angle_alpha  90.383666
_cell_angle_beta   90.279353
_cell_angle_gamma 106.73397
loop_
_atom_site_label
_atom_site_type_symbol
_atom_site_fract_x
_atom_site_fract_y
_atom_site_fract_z
_atom_type_partial_charge
Co0 Co 0.10817 0.06774 0.43651 0.0
C1 C 0.10377 0.09518 0.51593 0.0
C2 C 0.12563 0.11669 0.46735 0.0
C3 C 0.12718 0.12946 0.50616 0.0
N4 N 0.11096 0.09512 0.47357 0.0
N5 N 0.11348 0.11579 0.53672 0.0
H6 H 0.09342 0.07981 0.53274 0.0
H7 H 0.13597 0.12223 0.43796 0.0
C8 C 0.1057 0.09853 0.36191 0.0
O9 O 0.08589 0.1 0.3785 0.0
N10 N 0.10567 0.04048 0.40024 0.0
C11 C 0.11451 0.02274 0.40981 0.0
C12 C 0.10484 0.00451 0.38112 0.0
C13 C 0.0907 0.03287 0.36619 0.0
N14 N 0.0897 0.01081 0.354 0.0
C15 C 0.1477 0.06982 0.49216 0.0
C16 C 0.17953 0.07546 0.42386 0.0
C17 C 0.18747 0.07611 0.46775 0.0
C18 C 0.17124 0.07281 0.50224 0.0
C19 C 0.15595 0.07227 0.41528 0.0
N20 N 0.14049 0.0701 0.44922 0.0
H21 H 0.13524 0.06757 0.51882 0.0
H22 H 0.15013 0.07134 0.3812 0.0
H23 H 0.12596 0.02247 0.43757 0.0
H24 H 0.07988 0.04284 0.3524 0.0
O25 O 0.09307 0.04703 0.4835 0.0
O26 O 0.07474 0.06183 0.43242 0.0
O27 O 0.11774 0.08757 0.38279 0.0
C28 C 0.07339 0.04795 0.46593 0.0
H29 H 0.13847 0.14696 0.51204 0.0
H30 H 0.10751 0.98736 0.38236 0.0
H31 H 0.19143 0.07717 0.39626 0.0
H32 H 0.17673 0.073 0.53655 0.0
Co33 Co 0.47988 0.10312 0.92703 0.0
C34 C 0.45012 0.09685 0.0058 0.0
C35 C 0.43117 0.10457 0.95056 0.0
C36 C 0.41771 0.10315 0.98832 0.0
N37 N 0.45187 0.10121 0.96188 0.0
N38 N 0.4298 0.09821 0.02284 0.0
H39 H 0.46405 0.09404 0.02595 0.0
H40 H 0.42587 0.10777 0.91758 0.0
C41 C 0.45661 0.12451 0.85356 0.0
O42 O 0.45379 0.14174 0.87808 0.0
N43 N 0.50767 0.10435 0.894 0.0
C44 C 0.52983 0.11521 0.90647 0.0
C45 C 0.54468 0.10809 0.87874 0.0
C46 C 0.50925 0.09059 0.85942 0.0
N47 N 0.53171 0.09236 0.84949 0.0
C48 C 0.48994 0.1449 0.98136 0.0
C49 C 0.50256 0.17512 0.91093 0.0
C50 C 0.49541 0.18323 0.95055 0.0
C51 C 0.49098 0.16836 0.98725 0.0
C52 C 0.50079 0.1515 0.90634 0.0
N53 N 0.49211 0.13637 0.94003 0.0
H54 H 0.48562 0.1334 0.00931 0.0
H55 H 0.50388 0.14506 0.87406 0.0
H56 H 0.53482 0.12653 0.93519 0.0
H57 H 0.49423 0.07815 0.84446 0.0
O58 O 0.49319 0.08961 0.97543 0.0
O59 O 0.47031 0.06989 0.92151 0.0
O60 O 0.46489 0.10892 0.87006 0.0
C61 C 0.48281 0.06951 0.95658 0.0
H62 H 0.40047 0.10555 0.99023 0.0
H63 H 0.56352 0.11333 0.88146 0.0
H64 H 0.50706 0.18634 0.88229 0.0
H65 H 0.48614 0.1741 0.01898 0.0
Co66 Co 0.38122 0.4206 0.43104 0.0
C67 C 0.37833 0.39437 0.51377 0.0
C68 C 0.36994 0.37029 0.45935 0.0
C69 C 0.36826 0.35778 0.49834 0.0
N70 N 0.37577 0.39335 0.46927 0.0
N71 N 0.37369 0.37314 0.53236 0.0
H72 H 0.38319 0.41044 0.53279 0.0
H73 H 0.36754 0.3628 0.42642 0.0
C74 C 0.35453 0.38582 0.36088 0.0
O75 O 0.33559 0.37868 0.38499 0.0
N76 N 0.38726 0.44815 0.39458 0.0
C77 C 0.38121 0.46757 0.40506 0.0
C78 C 0.39197 0.48497 0.37638 0.0
C79 C 0.40214 0.45416 0.36025 0.0
N80 N 0.40524 0.47662 0.34838 0.0
C81 C 0.34253 0.42506 0.48197 0.0
C82 C 0.31725 0.43404 0.41076 0.0
C83 C 0.31086 0.4385 0.45382 0.0
C84 C 0.32312 0.43296 0.48973 0.0
C85 C 0.33672 0.42606 0.40445 0.0
N86 N 0.34951 0.4222 0.43981 0.0
H87 H 0.35307 0.42342 0.51001 0.0
H88 H 0.34278 0.42521 0.37097 0.0
H89 H 0.37076 0.46938 0.43331 0.0
H90 H 0.4113 0.4427 0.34581 0.0
O91 O 0.39651 0.44092 0.47896 0.0
O92 O 0.41407 0.42342 0.43082 0.0
O93 O 0.37281 0.4008 0.37601 0.0
C94 C 0.41586 0.43806 0.46371 0.0
H95 H 0.3639 0.33898 0.50133 0.0
H96 H 0.39132 0.50287 0.37801 0.0
H97 H 0.30816 0.43807 0.3821 0.0
H98 H 0.31901 0.43656 0.52351 0.0
Co99 Co 0.06325 0.42963 0.94362 0.0
C100 C 0.09474 0.43788 0.02141 0.0
C101 C 0.11148 0.45826 0.96638 0.0
C102 C 0.1257 0.46464 0.00346 0.0
N103 N 0.09212 0.44119 0.97757 0.0
N104 N 0.11511 0.45158 0.03783 0.0
H105 H 0.08112 0.42757 0.04234 0.0
H106 H 0.1144 0.46667 0.93445 0.0
C107 C 0.09742 0.43274 0.86668 0.0
O108 O 0.11031 0.42206 0.88874 0.0
N109 N 0.03435 0.41836 0.9113 0.0
C110 C 0.01694 0.39882 0.91958 0.0
C111 C -0.0015 0.39819 0.89168 0.0
C112 C 0.02629 0.42956 0.87922 0.0
N113 N 0.00441 0.41759 0.86663 0.0
C114 C 0.06483 0.38646 0.98337 0.0
C115 C 0.0666 0.36313 0.90465 0.0
C116 C 0.06721 0.35169 0.94478 0.0
C117 C 0.06595 0.3635 0.98453 0.0
C118 C 0.06536 0.38603 0.90507 0.0
N119 N 0.06573 0.39789 0.94412 0.0
H120 H 0.0623 0.39461 0.01403 0.0
H121 H 0.06329 0.39391 0.87381 0.0
H122 H 0.01735 0.38628 0.94504 0.0
H123 H 0.03603 0.44634 0.86614 0.0
O124 O 0.04498 0.42957 0.99696 0.0
O125 O 0.05755 0.4593 0.95095 0.0
O126 O 0.07981 0.43693 0.88496 0.0
C127 C 0.04555 0.45079 0.98585 0.0
H128 H 0.14199 0.47849 0.00545 0.0
H129 H 0.98169 0.38506 0.89122 0.0
H130 H 0.06636 0.35423 0.87316 0.0
H131 H 0.0657 0.35505 0.01627 0.0
Co132 Co 0.569 0.92219 0.58126 0.0
C133 C 0.55441 0.89546 0.49902 0.0
C134 C 0.54643 0.87186 0.55347 0.0
C135 C 0.53994 0.85926 0.51426 0.0
N136 N 0.55607 0.89464 0.54366 0.0
N137 N 0.54494 0.87437 0.48028 0.0
H138 H 0.56019 0.91127 0.47988 0.0
H139 H 0.54359 0.86477 0.58644 0.0
C140 C 0.57212 0.88713 0.65409 0.0
O141 O 0.58236 0.87502 0.62894 0.0
N142 N 0.58177 0.95007 0.61629 0.0
C143 C 0.60113 0.96753 0.60697 0.0
C144 C 0.60244 0.98585 0.63552 0.0
C145 C 0.57127 0.95813 0.64962 0.0
N146 N 0.58357 0.97996 0.66196 0.0
C147 C 0.6089 0.91997 0.5298 0.0
C148 C 0.63797 0.92073 0.60171 0.0
C149 C 0.6466 0.9198 0.55889 0.0
C150 C 0.6318 0.91939 0.52258 0.0
C151 C 0.61504 0.92117 0.60741 0.0
N152 N 0.60053 0.92016 0.57181 0.0
H153 H 0.59825 0.92104 0.50151 0.0
H154 H 0.6092 0.92314 0.64064 0.0
H155 H 0.61282 0.96745 0.57974 0.0
H156 H 0.55447 0.94868 0.66303 0.0
O157 O 0.56596 0.94244 0.53276 0.0
O158 O 0.53889 0.92752 0.58297 0.0
O159 O 0.56539 0.90387 0.63812 0.0
C160 C 0.54534 0.94092 0.54887 0.0
H161 H 0.53155 0.84068 0.5111 0.0
H162 H 0.61534 0.0028 0.63481 0.0
H163 H 0.64888 0.92127 0.63072 0.0
H164 H 0.63806 0.91938 0.48893 0.0
Co165 Co 0.57441 0.60582 0.06649 0.0
C166 C 0.59921 0.60809 0.98185 0.0
C167 C 0.62403 0.61472 0.03506 0.0
C168 C 0.63585 0.61575 0.99534 0.0
N169 N 0.60096 0.61041 0.02643 0.0
N170 N 0.62004 0.61145 0.96201 0.0
H171 H 0.58288 0.60406 0.96377 0.0
H172 H 0.63191 0.61639 0.06764 0.0
C173 C 0.61088 0.63242 0.13342 0.0
O174 O 0.61762 0.65077 0.1077 0.0
N175 N 0.54744 0.60065 0.10447 0.0
C176 C 0.52832 0.6074 0.09489 0.0
C177 C 0.51121 0.59759 0.12476 0.0
C178 C 0.54146 0.58619 0.13943 0.0
N179 N 0.51937 0.58417 0.15263 0.0
C180 C 0.56994 0.64475 0.01632 0.0
C181 C 0.56253 0.67038 0.08846 0.0
C182 C 0.55721 0.67661 0.04586 0.0
C183 C 0.56199 0.6642 0.0094 0.0
C184 C 0.57046 0.65082 0.09393 0.0
N185 N 0.5735 0.63782 0.05816 0.0
H186 H 0.57091 0.63409 0.98802 0.0
H187 H 0.57184 0.64484 0.12728 0.0
H188 H 0.52648 0.61775 0.06656 0.0
H189 H 0.55262 0.57663 0.15349 0.0
O190 O 0.5532 0.591 0.01959 0.0
O191 O 0.57058 0.57271 0.06642 0.0
O192 O 0.59527 0.61401 0.12052 0.0
C193 C 0.55569 0.5714 0.03416 0.0
H194 H 0.65447 0.61878 0.99142 0.0
H195 H 0.49355 0.59899 0.12413 0.0
H196 H 0.55916 0.67962 0.11754 0.0
H197 H 0.55775 0.66819 0.97596 0.0
Co198 Co 0.88375 0.51787 0.58462 0.0
C199 C 0.87219 0.5464 0.51411 0.0
C200 C 0.8956 0.56805 0.5611 0.0
C201 C 0.89396 0.58135 0.52444 0.0
N202 N 0.88171 0.54603 0.55469 0.0
N203 N 0.87915 0.56754 0.49492 0.0
H204 H 0.86284 0.53107 0.49597 0.0
H205 H 0.90755 0.57359 0.58876 0.0
C206 C 0.86877 0.54505 0.66009 0.0
O207 O 0.86329 0.56017 0.63395 0.0
N208 N 0.88608 0.48985 0.61279 0.0
C209 C 0.8759 0.4676 0.59999 0.0
C210 C 0.88384 0.45307 0.62704 0.0
C211 C 0.90015 0.48864 0.64705 0.0
N212 N 0.89924 0.46633 0.65645 0.0
C213 C 0.84465 0.49266 0.53025 0.0
C214 C 0.81061 0.49286 0.59153 0.0
C215 C 0.80405 0.48716 0.54733 0.0
C216 C 0.82123 0.48581 0.51692 0.0
C217 C 0.83416 0.50004 0.60302 0.0
N218 N 0.85094 0.5021 0.57147 0.0
H219 H 0.85783 0.49211 0.50625 0.0
H220 H 0.83849 0.50446 0.6372 0.0
H221 H 0.86408 0.4622 0.57218 0.0
H222 H 0.91158 0.50392 0.66322 0.0
O223 O 0.89866 0.50966 0.53243 0.0
O224 O 0.91696 0.53093 0.58943 0.0
O225 O 0.87634 0.52874 0.64449 0.0
C226 C 0.91831 0.5211 0.55146 0.0
H227 H 0.90412 0.59924 0.51877 0.0
H228 H 0.87891 0.43423 0.62446 0.0
H229 H 0.79785 0.49356 0.61649 0.0
H230 H 0.81675 0.48078 0.4827 0.0
Co231 Co 0.91954 0.88431 0.06647 0.0
C232 C 0.89253 0.88334 0.98469 0.0
C233 C 0.86889 0.87402 0.03891 0.0
C234 C 0.85606 0.87206 0.99994 0.0
N235 N 0.8919 0.8805 0.02905 0.0
N236 N 0.87113 0.87803 0.96604 0.0
H237 H 0.90844 0.88814 0.96565 0.0
H238 H 0.86162 0.8709 0.07169 0.0
C239 C 0.8851 0.85784 0.13611 0.0
O240 O 0.87678 0.8393 0.11076 0.0
N241 N 0.94747 0.88861 0.10192 0.0
C242 C 0.96626 0.88198 0.08959 0.0
C243 C 0.98404 0.891 0.11931 0.0
C244 C 0.95418 0.90201 0.1385 0.0
N245 N 0.97652 0.90368 0.14993 0.0
C246 C 0.91859 0.8439 0.01274 0.0
C247 C 0.92419 0.81625 0.08259 0.0
C248 C 0.92265 0.80728 0.03937 0.0
C249 C 0.91973 0.82128 0.00411 0.0
C250 C 0.92266 0.83875 0.08976 0.0
N251 N 0.91932 0.85216 0.05522 0.0
H252 H 0.91792 0.8549 0.98503 0.0
H253 H 0.92463 0.84559 0.12326 0.0
H254 H 0.9673 0.87219 0.05976 0.0
H255 H 0.94328 0.91106 0.15514 0.0
O256 O 0.93963 0.89982 0.01902 0.0
O257 O 0.92357 0.9173 0.06983 0.0
O258 O 0.90038 0.8759 0.12171 0.0
C259 C 0.93748 0.91918 0.03621 0.0
H260 H 0.83721 0.86667 0.99682 0.0
H261 H 0.00163 0.88954 0.11686 0.0
H262 H 0.92659 0.80596 0.11071 0.0
H263 H 0.91911 0.81509 0.97015 0.0
Co264 Co 0.88882 0.9084 0.57009 0.0
C265 C 0.8863 0.88356 0.48531 0.0
C266 C 0.88391 0.8594 0.53819 0.0
C267 C 0.8829 0.84753 0.49825 0.0
N268 N 0.88549 0.88199 0.52987 0.0
N269 N 0.88457 0.86297 0.46524 0.0
H270 H 0.88818 0.89959 0.46745 0.0
H271 H 0.88421 0.85198 0.57064 0.0
C272 C 0.86641 0.87094 0.6377 0.0
O273 O 0.84812 0.86148 0.61239 0.0
N274 N 0.89262 0.93499 0.60883 0.0
C275 C 0.88379 0.95306 0.60199 0.0
C276 C 0.89208 0.96952 0.63461 0.0
C277 C 0.90663 0.94088 0.6447 0.0
N278 N 0.90649 0.96188 0.66117 0.0
C279 C 0.84643 0.90739 0.52277 0.0
C280 C 0.8202 0.9085 0.59755 0.0
C281 C 0.81027 0.90934 0.55572 0.0
C282 C 0.82352 0.90849 0.51795 0.0
C283 C 0.84304 0.90731 0.60086 0.0
N284 N 0.85585 0.90639 0.5638 0.0
H285 H 0.85683 0.90854 0.49347 0.0
H286 H 0.85076 0.90815 0.63351 0.0
H287 H 0.87267 0.95447 0.57437 0.0
H288 H 0.9172 0.93039 0.6576 0.0
O289 O 0.90187 0.93019 0.52309 0.0
O290 O 0.92215 0.91445 0.56892 0.0
O291 O 0.88319 0.88785 0.62378 0.0
C292 C 0.92218 0.92893 0.53693 0.0
H293 H 0.88181 0.82926 0.49389 0.0
H294 H 0.8888 0.98637 0.63725 0.0
H295 H 0.81059 0.90927 0.62761 0.0
H296 H 0.81665 0.90977 0.48506 0.0
Co297 Co 0.51052 0.885 0.07209 0.0
C298 C 0.53947 0.87646 0.99872 0.0
C299 C 0.56091 0.89339 0.05321 0.0
C300 C 0.57511 0.89279 0.01729 0.0
N301 N 0.53848 0.88296 0.04153 0.0
N302 N 0.56145 0.88189 0.98332 0.0
H303 H 0.52452 0.87034 0.97722 0.0
H304 H 0.56642 0.90233 0.08444 0.0
C305 C 0.53559 0.86785 0.1486 0.0
O306 O 0.54374 0.85395 0.12356 0.0
N307 N 0.48268 0.88728 0.10118 0.0
C308 C 0.46038 0.87599 0.09015 0.0
C309 C 0.4458 0.88454 0.11615 0.0
C310 C 0.48145 0.90266 0.13318 0.0
N311 N 0.45912 0.90139 0.14282 0.0
C312 C 0.48854 0.84408 0.01975 0.0
C313 C 0.48674 0.81252 0.08689 0.0
C314 C 0.48454 0.80458 0.04278 0.0
C315 C 0.48366 0.8204 0.00921 0.0
C316 C 0.49169 0.83635 0.09564 0.0
N317 N 0.49543 0.85191 0.06164 0.0
H318 H 0.488 0.85623 0.99376 0.0
H319 H 0.49345 0.84218 0.12969 0.0
H320 H 0.45503 0.86314 0.06387 0.0
H321 H 0.4966 0.91495 0.14816 0.0
O322 O 0.50083 0.89852 0.0195 0.0
O323 O 0.523 0.91825 0.07421 0.0
O324 O 0.52302 0.87973 0.13195 0.0
C325 C 0.51218 0.91866 0.03701 0.0
H326 H 0.59379 0.90081 0.01553 0.0
H327 H 0.42692 0.87961 0.11401 0.0
H328 H 0.48661 0.80084 0.11424 0.0
H329 H 0.48067 0.81476 0.97492 0.0
Co330 Co 0.60248 0.57214 0.55724 0.0
C331 C 0.61131 0.60048 0.47661 0.0
C332 C 0.61573 0.62315 0.53305 0.0
C333 C 0.62064 0.63664 0.49509 0.0
N334 N 0.61046 0.60036 0.52131 0.0
N335 N 0.61815 0.62216 0.4598 0.0
H336 H 0.60655 0.58493 0.45609 0.0
H337 H 0.61588 0.62973 0.5665 0.0
C338 C 0.62856 0.60475 0.63151 0.0
O339 O 0.64779 0.61251 0.6084 0.0
N340 N 0.59417 0.54368 0.59111 0.0
C341 C 0.59888 0.52379 0.57894 0.0
C342 C 0.58806 0.50648 0.60773 0.0
C343 C 0.58009 0.53813 0.62665 0.0
N344 N 0.57621 0.51543 0.63765 0.0
C345 C 0.64098 0.56511 0.50886 0.0
C346 C 0.66461 0.55541 0.58176 0.0
C347 C 0.67157 0.55076 0.53922 0.0
C348 C 0.66001 0.55646 0.50249 0.0
C349 C 0.6455 0.56414 0.58667 0.0
N350 N 0.63369 0.56868 0.55047 0.0
H351 H 0.63094 0.56671 0.48014 0.0
H352 H 0.63897 0.56515 0.61971 0.0
H353 H 0.60879 0.5218 0.55002 0.0
H354 H 0.57241 0.55022 0.64321 0.0
O355 O 0.58744 0.55374 0.50687 0.0
O356 O 0.5701 0.57126 0.55532 0.0
O357 O 0.61047 0.59031 0.61445 0.0
C358 C 0.56827 0.55737 0.52123 0.0
H359 H 0.62594 0.65553 0.49366 0.0
H360 H 0.58797 0.48837 0.60543 0.0
H361 H 0.67308 0.55119 0.61108 0.0
H362 H 0.66442 0.55258 0.46907 0.0
Co363 Co 0.91517 0.56443 0.09462 0.0
C364 C 0.88897 0.55905 0.01157 0.0
C365 C 0.86957 0.5349 0.0596 0.0
C366 C 0.85754 0.53093 0.01968 0.0
N367 N 0.88926 0.55254 0.05422 0.0
N368 N 0.8698 0.54624 0.98968 0.0
H369 H 0.90318 0.57214 0.99628 0.0
H370 H 0.86467 0.52505 0.08969 0.0
C371 C 0.88564 0.55041 0.17328 0.0
O372 O 0.88718 0.52923 0.16605 0.0
N373 N 0.94125 0.57701 0.13491 0.0
C374 C 0.94337 0.59518 0.16293 0.0
C375 C 0.96384 0.59899 0.18665 0.0
C376 C 0.96059 0.57012 0.14186 0.0
N377 N 0.97464 0.58319 0.17336 0.0
C378 C 0.93703 0.60912 0.05925 0.0
C379 C 0.89927 0.62681 0.06806 0.0
C380 C 0.92029 0.6411 0.05092 0.0
C381 C 0.93923 0.63191 0.04608 0.0
C382 C 0.89781 0.60407 0.08088 0.0
N383 N 0.91669 0.59573 0.07698 0.0
H384 H 0.95178 0.60222 0.05587 0.0
H385 H 0.88154 0.59312 0.09386 0.0
H386 H 0.93086 0.60504 0.16588 0.0
H387 H 0.96453 0.55599 0.1243 0.0
O388 O 0.93562 0.55773 0.05052 0.0
O389 O 0.91798 0.53308 0.10247 0.0
O390 O 0.894 0.56646 0.14522 0.0
C391 C 0.93194 0.53734 0.06858 0.0
H392 H 0.84133 0.5175 0.013 0.0
H393 H 0.96995 0.61207 0.21236 0.0
H394 H 0.88428 0.63331 0.07259 0.0
H395 H 0.95565 0.64226 0.03243 0.0
Co396 Co 0.42648 0.06573 0.42833 0.0
C397 C 0.44669 0.09427 0.50636 0.0
C398 C 0.44508 0.11681 0.45251 0.0
C399 C 0.45231 0.13032 0.49027 0.0
N400 N 0.44103 0.09402 0.46291 0.0
N401 N 0.4533 0.11594 0.5239 0.0
H402 H 0.44444 0.07877 0.52609 0.0
H403 H 0.44273 0.12349 0.42034 0.0
C404 C 0.4197 0.09811 0.35284 0.0
O405 O 0.40637 0.1081 0.37537 0.0
N406 N 0.41231 0.03742 0.39543 0.0
C407 C 0.39393 0.01972 0.40809 0.0
C408 C 0.39138 0.0014 0.3789 0.0
C409 C 0.42095 0.02959 0.35932 0.0
N410 N 0.40853 0.00751 0.34843 0.0
C411 C 0.38991 0.07118 0.48517 0.0
C412 C 0.35724 0.06836 0.41859 0.0
C413 C 0.3517 0.07289 0.46214 0.0
C414 C 0.36805 0.07369 0.49592 0.0
C415 C 0.37913 0.06571 0.40943 0.0
N416 N 0.3956 0.06833 0.44212 0.0
H417 H 0.40218 0.07141 0.51157 0.0
H418 H 0.38294 0.06178 0.37576 0.0
H419 H 0.38366 0.0198 0.43749 0.0
H420 H 0.43687 0.03941 0.34332 0.0
O421 O 0.43081 0.04623 0.47696 0.0
O422 O 0.45627 0.05981 0.42328 0.0
O423 O 0.42865 0.08341 0.37105 0.0
C424 C 0.45076 0.04707 0.45851 0.0
H425 H 0.45615 0.14911 0.49293 0.0
H426 H 0.37829 0.98465 0.38111 0.0
H427 H 0.34471 0.06676 0.39181 0.0
H428 H 0.36416 0.07663 0.53015 0.0
Co429 Co 0.41317 0.38937 0.93241 0.0
C430 C 0.38641 0.38525 0.01466 0.0
C431 C 0.36325 0.38266 0.95947 0.0
C432 C 0.35055 0.38121 0.99824 0.0
N433 N 0.38575 0.38466 0.96996 0.0
N434 N 0.36536 0.38301 0.03276 0.0
H435 H 0.40214 0.38757 0.03408 0.0
H436 H 0.35645 0.38309 0.92637 0.0
C437 C 0.37744 0.366 0.86139 0.0
O438 O 0.36841 0.34744 0.88565 0.0
N439 N 0.44084 0.39459 0.89662 0.0
C440 C 0.45958 0.38735 0.90687 0.0
C441 C 0.47708 0.39697 0.87753 0.0
C442 C 0.44732 0.40897 0.86174 0.0
N443 N 0.46944 0.41062 0.84928 0.0
C444 C 0.41471 0.34822 0.97929 0.0
C445 C 0.42032 0.3232 0.90489 0.0
C446 C 0.42317 0.31451 0.94692 0.0
C447 C 0.41965 0.32697 0.98443 0.0
C448 C 0.41531 0.34445 0.90124 0.0
N449 N 0.4127 0.35685 0.93814 0.0
H450 H 0.41427 0.35838 0.00857 0.0
H451 H 0.41547 0.35182 0.8686 0.0
H452 H 0.46076 0.37659 0.93498 0.0
H453 H 0.43638 0.41853 0.84686 0.0
O454 O 0.43352 0.40265 0.98174 0.0
O455 O 0.41785 0.42251 0.9349 0.0
O456 O 0.39375 0.38317 0.8767 0.0
C457 C 0.43189 0.42277 0.96813 0.0
H458 H 0.33214 0.37982 1.00081 0.0
H459 H 0.49455 0.39507 0.87847 0.0
H460 H 0.42357 0.31454 0.87496 0.0
H461 H 0.42176 0.32091 0.01753 0.0
Co462 Co 0.10695 0.50017 0.43399 0.0
C463 C 0.10143 0.47373 0.51723 0.0
C464 C 0.10253 0.45075 0.46323 0.0
C465 C 0.10081 0.43848 0.50258 0.0
N466 N 0.10366 0.47318 0.47262 0.0
N467 N 0.10009 0.45311 0.5364 0.0
H468 H 0.10102 0.48909 0.53588 0.0
H469 H 0.10237 0.44344 0.43039 0.0
C470 C 0.12635 0.47163 0.36569 0.0
O471 O 0.14046 0.46535 0.39331 0.0
N472 N 0.10986 0.52712 0.39746 0.0
C473 C 0.12194 0.54939 0.40684 0.0
C474 C 0.11664 0.56361 0.37523 0.0
C475 C 0.09735 0.52801 0.3607 0.0
N476 N 0.10104 0.55013 0.34641 0.0
C477 C 0.14726 0.51437 0.49169 0.0
C478 C 0.17945 0.51833 0.42466 0.0
C479 C 0.18649 0.51674 0.46868 0.0
C480 C 0.17047 0.51642 0.50263 0.0
C481 C 0.15609 0.51616 0.41539 0.0
N482 N 0.13999 0.51173 0.44854 0.0
H483 H 0.13503 0.51381 0.51798 0.0
H484 H 0.1507 0.51643 0.38121 0.0
H485 H 0.13298 0.555 0.43574 0.0
H486 H 0.08456 0.51291 0.34672 0.0
O487 O 0.0934 0.51522 0.47977 0.0
O488 O 0.07382 0.49157 0.42672 0.0
O489 O 0.11297 0.4835 0.37892 0.0
C490 C 0.0734 0.50488 0.46063 0.0
H491 H 0.09967 0.42017 0.50593 0.0
H492 H 0.12304 0.58248 0.37471 0.0
H493 H 0.1913 0.51915 0.39726 0.0
H494 H 0.17549 0.51635 0.53718 0.0
Co495 Co 0.07013 0.10574 0.93609 0.0
C496 C 0.0979 0.11747 0.01778 0.0
C497 C 0.11814 0.10768 0.96697 0.0
C498 C 0.13088 0.11111 0.00622 0.0
N499 N 0.09756 0.11213 0.97423 0.0
N500 N 0.11803 0.11748 0.0379 0.0
H501 H 0.08291 0.11897 0.03586 0.0
H502 H 0.12308 0.10112 0.93615 0.0
C503 C 0.10765 0.12487 0.8665 0.0
O504 O 0.11927 0.14242 0.89173 0.0
N505 N 0.04246 0.09903 0.89939 0.0
C506 C 0.02465 0.10846 0.90399 0.0
C507 C 0.00629 0.09607 0.87804 0.0
C508 C 0.03464 0.0809 0.87107 0.0
N509 N 0.01246 0.07855 0.85781 0.0
C510 C 0.06586 0.14789 0.9771 0.0
C511 C 0.07214 0.17425 0.90085 0.0
C512 C 0.0692 0.18471 0.94123 0.0
C513 C 0.06567 0.17112 0.97962 0.0
C514 C 0.07225 0.15097 0.8999 0.0
N515 N 0.07043 0.13841 0.93811 0.0
H516 H 0.06132 0.13738 0.00625 0.0
H517 H 0.07283 0.14289 0.86803 0.0
H518 H 0.02444 0.12253 0.92654 0.0
H519 H 0.04437 0.0687 0.86305 0.0
O520 O 0.05005 0.09348 0.98603 0.0
O521 O 0.06637 0.07301 0.94157 0.0
O522 O 0.08928 0.11002 0.88072 0.0
C523 C 0.05242 0.07323 0.97432 0.0
H524 H 0.14778 0.10827 0.01139 0.0
H525 H 0.9894 0.09925 0.87569 0.0
H526 H 0.07366 0.18373 0.86999 0.0
H527 H 0.06265 0.17827 0.01137 0.0
H528 H 0.92847 0.96427 0.47634 0.0
H529 H 0.06541 0.01447 0.52998 0.0
H530 H 0.96626 0.93131 0.56454 0.0
H531 H 0.03005 0.04423 0.43148 0.0
H532 H 0.02857 0.98491 0.54541 0.0
H533 H 0.96516 0.99412 0.45979 0.0
C534 C 0.94451 0.96314 0.49176 0.0
C535 C 0.94432 0.94528 0.52183 0.0
C536 C 0.02882 -0.00203 0.52055 0.0
C537 C 0.9862 0.97953 0.50375 0.0
C538 C 0.04983 0.01495 0.51198 0.0
C539 C 0.05079 0.03185 0.47946 0.0
C540 C 0.0086 -0.00215 0.49644 0.0
C541 C 0.03008 0.03156 0.45694 0.0
C542 C 0.96542 0.98025 0.48253 0.0
C543 C 0.96558 0.94474 0.54111 0.0
N544 N 0.00984 0.01478 0.46575 0.0
N545 N 0.9856 0.96167 0.53194 0.0
H546 H 0.45924 0.02604 0.92754 0.0
H547 H 0.53793 0.96213 0.06276 0.0
H548 H 0.51486 0.0623 0.01651 0.0
H549 H 0.4823 0.92635 0.97341 0.0
H550 H 0.53097 -0.00086 0.04384 0.0
H551 H 0.46779 0.98954 0.9436 0.0
C552 C 0.47317 0.02629 0.95083 0.0
C553 C 0.48639 0.04725 0.97078 0.0
C554 C 0.5204 0.98325 0.02806 0.0
C555 C 0.49645 0.0054 0.98891 0.0
C556 C 0.52443 0.9621 0.03863 0.0
C557 C 0.51058 0.94113 0.01969 0.0
C558 C 0.50231 0.98345 0.99845 0.0
C559 C 0.49341 0.94213 0.98864 0.0
C560 C 0.47811 0.00541 0.9598 0.0
C561 C 0.50418 0.04651 1.00064 0.0
N562 N 0.48962 0.96296 0.97924 0.0
N563 N 0.50877 0.02588 0.00871 0.0
H564 H 0.5589 0.52376 0.45639 0.0
H565 H 0.4249 0.47294 0.52609 0.0
H566 H 0.52545 0.5564 0.55371 0.0
H567 H 0.45855 0.44021 0.42927 0.0
H568 H 0.4617 0.50357 0.53716 0.0
H569 H 0.52176 0.49393 0.44354 0.0
C570 C 0.54363 0.52491 0.47442 0.0
C571 C 0.54526 0.54253 0.50626 0.0
C572 C 0.46108 0.48959 0.51372 0.0
C573 C 0.50288 0.50817 0.49253 0.0
C574 C 0.44014 0.47198 0.50772 0.0
C575 C 0.43869 0.45401 0.47675 0.0
C576 C 0.48066 0.48924 0.48846 0.0
C577 C 0.45891 0.45371 0.45361 0.0
C578 C 0.52249 0.50774 0.4674 0.0
C579 C 0.52497 0.54312 0.52883 0.0
N580 N 0.47903 0.47116 0.45974 0.0
N581 N 0.50465 0.52604 0.52182 0.0
H582 H 0.93305 0.49585 0.10658 0.0
H583 H 0.04927 0.49672 0.97686 0.0
H584 H 0.9644 0.54439 0.00352 0.0
H585 H 0.00782 0.43433 0.04112 0.0
H586 H 0.02087 0.5167 0.99844 0.0
H587 H 0.96167 0.47428 0.09162 0.0
C588 C 0.94569 0.50176 0.08043 0.0
C589 C 0.94636 0.52195 0.05624 0.0
C590 C 0.01798 0.49867 0.00814 0.0
C591 C 0.9793 0.49786 0.03996 0.0
C592 C 0.03431 0.4873 0.99613 0.0
C593 C 0.03079 0.46377 0.0069 0.0
C594 C -0.00215 0.48651 0.03115 0.0
C595 C 0.01116 0.45251 0.03222 0.0
C596 C 0.96206 0.48955 0.07216 0.0
C597 C 0.9632 0.52896 0.02303 0.0
N598 N -0.00477 0.46395 0.04325 0.0
N599 N 0.97907 0.51706 0.01618 0.0
H600 H 0.50206 0.94022 0.57752 0.0
H601 H 0.49336 0.04699 0.42682 0.0
H602 H 0.55539 0.97477 0.48471 0.0
H603 H 0.44189 0.01422 0.52425 0.0
H604 H 0.51626 0.02076 0.44724 0.0
H605 H 0.4794 0.96652 0.55679 0.0
C606 C 0.50894 0.95324 0.55242 0.0
C607 C 0.53068 0.95531 0.53277 0.0
C608 C 0.50003 0.01935 0.46433 0.0
C609 C 0.50482 0.98573 0.50919 0.0
C610 C 0.48696 0.03439 0.45282 0.0
C611 C 0.46566 0.03278 0.47391 0.0
C612 C 0.49173 0.00249 0.49708 0.0
C613 C 0.45823 0.0161 0.50725 0.0
C614 C 0.496 0.96834 0.54077 0.0
C615 C 0.53869 0.97253 0.50057 0.0
N616 N 0.47121 0.00153 0.51769 0.0
N617 N 0.52578 0.98715 0.48986 0.0
H618 H 0.52203 0.56364 0.96986 0.0
H619 H 0.46671 0.42892 0.03031 0.0
H620 H 0.55156 0.52817 0.06848 0.0
H621 H 0.43508 0.46676 0.93977 0.0
H622 H 0.49796 0.46491 0.04526 0.0
H623 H 0.49095 0.52755 0.95623 0.0
C624 C 0.52217 0.54815 0.98818 0.0
C625 C 0.53938 0.54888 0.02035 0.0
C626 C 0.48406 0.46536 0.02243 0.0
C627 C 0.5036 0.50763 0.00557 0.0
C628 C 0.46612 0.44488 0.01418 0.0
C629 C 0.44831 0.44487 0.98372 0.0
C630 C 0.4842 0.48588 0.99986 0.0
C631 C 0.44847 0.46598 0.96352 0.0
C632 C 0.5043 0.52759 0.98067 0.0
C633 C 0.53866 0.52833 0.04324 0.0
N634 N 0.46624 0.48559 0.9717 0.0
N635 N 0.52095 0.50854 0.03559 0.0
H636 H 0.92767 0.49831 0.47781 0.0
H637 H 0.06533 0.53248 0.52866 0.0
H638 H 0.96116 0.54414 0.5851 0.0
H639 H 0.0307 0.48575 0.42342 0.0
H640 H 0.02768 0.53858 0.54827 0.0
H641 H 0.96595 0.49564 0.45442 0.0
C642 C 0.9431 0.508 0.49611 0.0
C643 C 0.94125 0.52133 0.53353 0.0
C644 C 0.02839 0.52701 0.52087 0.0
C645 C 0.98501 0.51819 0.50747 0.0
C646 C 0.04983 0.52349 0.50982 0.0
C647 C 0.05111 0.50854 0.47454 0.0
C648 C 0.00821 0.5155 0.49635 0.0
C649 C 0.03054 0.49738 0.45101 0.0
C650 C 0.96494 0.50641 0.48293 0.0
C651 C 0.96179 0.53354 0.55614 0.0
N652 N 0.00998 0.50107 0.46235 0.0
N653 N 0.98281 0.53156 0.54293 0.0
H654 H 0.97373 0.92863 0.97775 0.0
H655 H 0.01386 0.06622 0.02744 0.0
H656 H 0.93665 0.96202 0.06676 0.0
H657 H 0.05557 0.0296 0.95713 0.0
H658 H 0.98479 0.02866 0.04167 0.0
H659 H 0.00256 0.96638 0.96597 0.0
C660 C 0.97146 0.94396 0.99428 0.0
C661 C 0.95281 0.94221 0.02327 0.0
C662 C 0.00044 0.02888 0.02354 0.0
C663 C 0.98592 0.98537 0.01068 0.0
C664 C 0.01712 0.05027 0.01581 0.0
C665 C 0.03709 0.05101 0.99101 0.0
C666 C 0.0038 0.00823 0.00605 0.0
C667 C 0.04036 0.02986 0.97627 0.0
C668 C 0.98805 0.96548 0.98793 0.0
C669 C 0.9508 0.96262 0.04411 0.0
N670 N 0.0238 0.00937 0.98368 0.0
N671 N 0.96722 0.98337 0.03754 0.0
H672 H 0.14071 0.09048 0.31167 0.0
H673 H 0.10288 0.14561 0.09316 0.0
H674 H 0.08619 0.12466 0.30767 0.0
H675 H 0.14272 0.09589 0.09027 0.0
H676 H 0.10386 0.14529 0.17407 0.0
H677 H 0.14843 0.09939 0.23331 0.0
C678 C 0.13057 0.10017 0.29457 0.0
C679 C 0.11258 0.10664 0.31629 0.0
C680 C 0.1126 0.13462 0.15582 0.0
C681 C 0.12141 0.11686 0.22644 0.0
C682 C 0.11205 0.13478 0.10964 0.0
C683 C 0.12235 0.1204 0.08496 0.0
C684 C 0.12361 0.12001 0.17771 0.0
C685 C 0.1345 0.10717 0.10799 0.0
C686 C 0.13496 0.10515 0.24973 0.0
C687 C 0.10008 0.11916 0.29226 0.0
N688 N 0.13456 0.10706 0.15317 0.0
N689 N 0.10464 0.12374 0.24858 0.0
H690 H 0.44785 0.15851 0.79974 0.0
H691 H 0.47492 0.09478 0.58126 0.0
H692 H 0.45968 0.09055 0.79557 0.0
H693 H 0.44022 0.14861 0.57269 0.0
H694 H 0.47536 0.09826 0.66174 0.0
H695 H 0.44871 0.15917 0.71798 0.0
C696 C 0.45032 0.14366 0.78179 0.0
C697 C 0.4538 0.12449 0.80468 0.0
C698 C 0.46772 0.10945 0.64243 0.0
C699 C 0.45537 0.12545 0.71182 0.0
C700 C 0.46759 0.10752 0.59649 0.0
C701 C 0.45727 0.1212 0.57043 0.0
C702 C 0.45743 0.12519 0.66283 0.0
C703 C 0.44837 0.13778 0.59175 0.0
C704 C 0.45096 0.14413 0.73525 0.0
C705 C 0.45707 0.1058 0.77966 0.0
N706 N 0.44844 0.13919 0.63694 0.0
N707 N 0.45795 0.10686 0.73486 0.0
H708 H 0.39206 0.38887 0.30887 0.0
H709 H 0.32559 0.35986 0.07655 0.0
H710 H 0.31671 0.36973 0.30411 0.0
H711 H 0.39482 0.40676 0.09624 0.0
H712 H 0.32094 0.3571 0.15795 0.0
H713 H 0.39279 0.38679 0.22852 0.0
C714 C 0.3756 0.38391 0.29089 0.0
C715 C 0.3543 0.37978 0.31323 0.0
C716 C 0.33706 0.36799 0.14412 0.0
C717 C 0.35505 0.37772 0.2207 0.0
C718 C 0.33966 0.3697 0.09788 0.0
C719 C 0.36081 0.38318 0.07963 0.0
C720 C 0.35584 0.37969 0.17177 0.0
C721 C 0.37851 0.39557 0.10868 0.0
C722 C 0.37604 0.38289 0.24493 0.0
C723 C 0.33351 0.37311 0.2881 0.0
N724 N 0.3757 0.39334 0.15307 0.0
N725 N 0.33438 0.37251 0.24289 0.0
H726 H 0.07823 0.47237 0.59766 0.0
H727 H 0.12324 0.41486 0.80738 0.0
H728 H 0.11903 0.42394 0.58309 0.0
H729 H 0.07769 0.45916 0.81474 0.0
H730 H 0.1238 0.41877 0.72613 0.0
H731 H 0.07902 0.46796 0.67775 0.0
C732 C 0.08738 0.46076 0.61138 0.0
C733 C 0.09872 0.44864 0.58354 0.0
C734 C 0.11379 0.42769 0.74566 0.0
C735 C 0.09975 0.44343 0.67601 0.0
C736 C 0.11362 0.42563 0.79207 0.0
C737 C 0.10041 0.4367 0.8181 0.0
C738 C 0.10075 0.44101 0.72521 0.0
C739 C 0.08809 0.45023 0.79627 0.0
C740 C 0.0878 0.45819 0.65726 0.0
C741 C 0.10995 0.4335 0.60331 0.0
N742 N 0.08855 0.45194 0.75138 0.0
N743 N 0.11032 0.43142 0.64839 0.0
H744 H 0.57738 0.92212 0.71455 0.0
H745 H 0.54536 0.84509 0.9278 0.0
H746 H 0.56848 0.84801 0.70545 0.0
H747 H 0.59027 0.91576 0.93383 0.0
H748 H 0.55054 0.84495 0.84689 0.0
H749 H 0.57841 0.91976 0.79515 0.0
C750 C 0.57548 0.90526 0.72953 0.0
C751 C 0.57258 0.88515 0.70313 0.0
C752 C 0.55959 0.86032 0.86602 0.0
C753 C 0.57372 0.88239 0.7959 0.0
C754 C 0.55665 0.86041 0.91203 0.0
C755 C 0.5675 0.88043 0.93738 0.0
C756 C 0.57294 0.88066 0.84509 0.0
C757 C 0.58183 0.89992 0.91552 0.0
C758 C 0.57632 0.90401 0.77561 0.0
C759 C 0.57065 0.8639 0.72456 0.0
N760 N 0.5838 0.89969 0.87054 0.0
N761 N 0.57091 0.86298 0.76982 0.0
H762 H 0.61722 0.59723 0.1835 0.0
H763 H 0.6124 0.65956 0.41435 0.0
H764 H 0.62066 0.67022 0.19009 0.0
H765 H 0.6343 0.59721 0.39946 0.0
H766 H 0.61558 0.66503 0.33335 0.0
H767 H 0.6235 0.59749 0.26347 0.0
C768 C 0.61969 0.61343 0.20183 0.0
C769 C 0.61852 0.63373 0.18024 0.0
C770 C 0.61993 0.65033 0.34806 0.0
C771 C 0.6251 0.63409 0.2722 0.0
C772 C 0.61814 0.64724 0.39418 0.0
C773 C 0.62253 0.6276 0.41351 0.0
C774 C 0.62606 0.63359 0.32144 0.0
C775 C 0.63 0.61218 0.38589 0.0
C776 C 0.62326 0.6136 0.24752 0.0
C777 C 0.6217 0.65425 0.20556 0.0
N778 N 0.63124 0.61535 0.34141 0.0
N779 N 0.62447 0.65384 0.25045 0.0
H780 H 0.88107 0.58437 0.93697 0.0
H781 H 0.861 0.50847 0.71663 0.0
H782 H 0.84875 0.50992 0.93518 0.0
H783 H 0.86807 0.58236 0.71393 0.0
H784 H 0.85756 0.50911 0.79698 0.0
H785 H 0.87742 0.58471 0.8559 0.0
C786 C 0.87304 0.56814 0.9195 0.0
C787 C 0.86534 0.54705 0.94277 0.0
C788 C 0.85963 0.52518 0.77892 0.0
C789 C 0.86127 0.54728 0.85022 0.0
C790 C 0.86172 0.52486 0.73298 0.0
C791 C 0.86496 0.54545 0.70852 0.0
C792 C 0.86124 0.54631 0.80099 0.0
C793 C 0.86557 0.56611 0.73154 0.0
C794 C 0.87086 0.56836 0.87333 0.0
C795 C 0.85481 0.52655 0.91862 0.0
N796 N 0.86405 0.5661 0.77666 0.0
N797 N 0.85338 0.52713 0.87365 0.0
H798 H 0.89141 0.8949 0.1918 0.0
H799 H 0.86123 0.8242 0.41759 0.0
H800 H 0.86781 0.8195 0.18979 0.0
H801 H 0.90848 0.89357 0.405 0.0
H802 H 0.8583 0.82124 0.33586 0.0
H803 H 0.89031 0.8944 0.27217 0.0
C804 C 0.88571 0.87818 0.20831 0.0
C805 C 0.87996 0.8572 0.18404 0.0
C806 C 0.86934 0.83701 0.35127 0.0
C807 C 0.87902 0.8565 0.27661 0.0
C808 C 0.87115 0.83864 0.39769 0.0
C809 C 0.88479 0.85933 0.41802 0.0
C810 C 0.88113 0.8563 0.32555 0.0
C811 C 0.89725 0.87756 0.39085 0.0
C812 C 0.88524 0.87791 0.2543 0.0
C813 C 0.87242 0.83607 0.20732 0.0
N814 N 0.89495 0.87569 0.34622 0.0
N815 N 0.87236 0.83622 0.25258 0.0
H816 H 0.83524 0.84759 0.92074 0.0
H817 H 0.90342 0.88121 0.69421 0.0
H818 H 0.89689 0.90579 0.90374 0.0
H819 H 0.82859 0.85065 0.69107 0.0
H820 H 0.90237 0.88188 0.77469 0.0
H821 H 0.83245 0.84239 0.83934 0.0
C822 C 0.84792 0.85946 0.89995 0.0
C823 C 0.86657 0.87692 0.919 0.0
C824 C 0.88616 0.87483 0.75648 0.0
C825 C 0.86387 0.87064 0.82691 0.0
C826 C 0.88676 0.87426 0.71048 0.0
C827 C 0.86602 0.86614 0.6858 0.0
C828 C 0.86469 0.86718 0.77836 0.0
C829 C 0.84498 0.8571 0.70887 0.0
C830 C 0.84643 0.85636 0.85371 0.0
C831 C 0.8826 0.89174 0.89061 0.0
N832 N 0.84478 0.85805 0.75411 0.0
N833 N 0.88104 0.88809 0.84621 0.0
H834 H 0.55186 0.8387 0.43029 0.0
H835 H 0.52582 0.89877 0.20622 0.0
H836 H 0.52941 0.9009 0.42314 0.0
H837 H 0.55037 0.83755 0.20344 0.0
H838 H 0.52645 0.8983 0.28636 0.0
H839 H 0.5499 0.83578 0.34841 0.0
C840 C 0.54617 0.85147 0.41151 0.0
C841 C 0.54092 0.87016 0.43335 0.0
C842 C 0.53178 0.88491 0.26855 0.0
C843 C 0.53893 0.86717 0.34037 0.0
C844 C 0.53147 0.88519 0.22246 0.0
C845 C 0.53802 0.86814 0.19774 0.0
C846 C 0.53869 0.86743 0.29088 0.0
C847 C 0.54526 0.8511 0.22111 0.0
C848 C 0.54527 0.84995 0.36491 0.0
C849 C 0.53389 0.88641 0.40761 0.0
N850 N 0.54535 0.85113 0.26646 0.0
N851 N 0.53319 0.88458 0.36276 0.0
H852 H 0.65836 0.63506 0.91456 0.0
H853 H 0.59068 0.59467 0.68533 0.0
H854 H 0.59007 0.58547 0.90115 0.0
H855 H 0.66556 0.625 0.68842 0.0
H856 H 0.59007 0.59692 0.76555 0.0
H857 H 0.66183 0.63565 0.83302 0.0
C858 C 0.64423 0.62419 0.89462 0.0
C859 C 0.62372 0.6105 0.91479 0.0
C860 C 0.6067 0.60318 0.74887 0.0
C861 C 0.62739 0.61143 0.82203 0.0
C862 C 0.60706 0.60202 0.70284 0.0
C863 C 0.62826 0.60945 0.67989 0.0
C864 C 0.62766 0.61189 0.77273 0.0
C865 C 0.64883 0.61903 0.70473 0.0
C866 C 0.64616 0.62465 0.84818 0.0
C867 C 0.60591 0.59681 0.88729 0.0
N868 N 0.64806 0.61987 0.74996 0.0
N869 N 0.60811 0.59777 0.8426 0.0
H870 H 0.85731 0.52143 0.23266 0.0
H871 H 0.90889 0.59787 0.43926 0.0
H872 H 0.89842 0.59304 0.21575 0.0
H873 H 0.84164 0.54605 0.44385 0.0
H874 H 0.90607 0.59741 0.35802 0.0
H875 H 0.85167 0.52998 0.31058 0.0
C876 C 0.86484 0.53904 0.24516 0.0
C877 C 0.87852 0.55647 0.21772 0.0
C878 C 0.89175 0.58649 0.37697 0.0
C879 C 0.87268 0.56624 0.30716 0.0
C880 C 0.8933 0.58683 0.42338 0.0
C881 C 0.87571 0.57159 0.44849 0.0
C882 C 0.87268 0.57056 0.35569 0.0
C883 C 0.85593 0.55759 0.42584 0.0
C884 C 0.86161 0.54393 0.28962 0.0
C885 C 0.88786 0.57903 0.23573 0.0
N886 N 0.85519 0.55702 0.38081 0.0
N887 N 0.88522 0.58316 0.27959 0.0
H888 H 0.40619 0.1234 0.0694 0.0
H889 H 0.44749 0.08142 0.2985 0.0
H890 H 0.44119 0.07001 0.08254 0.0
H891 H 0.39658 0.12008 0.29551 0.0
H892 H 0.44767 0.08084 0.21824 0.0
H893 H 0.40305 0.12471 0.15091 0.0
C894 C 0.41281 0.1117 0.08937 0.0
C895 C 0.42421 0.09675 0.06934 0.0
C896 C 0.43644 0.08951 0.23492 0.0
C897 C 0.42118 0.09849 0.16189 0.0
C898 C 0.43643 0.09 0.28099 0.0
C899 C 0.42188 0.10071 0.30403 0.0
C900 C 0.42186 0.09989 0.21112 0.0
C901 C 0.40808 0.11164 0.27914 0.0
C902 C 0.41121 0.11258 0.13576 0.0
C903 C 0.43268 0.08209 0.09665 0.0
N904 N 0.40835 0.1109 0.23389 0.0
N905 N 0.43118 0.08348 0.14134 0.0
H906 H 0.38757 0.40347 0.80704 0.0
H907 H 0.34624 0.33634 0.57867 0.0
H908 H 0.35585 0.32879 0.80613 0.0
H909 H 0.40225 0.40027 0.59337 0.0
H910 H 0.34427 0.33305 0.6603 0.0
H911 H 0.38572 0.40333 0.72669 0.0
C912 C 0.37994 0.38702 0.78994 0.0
C913 C 0.37213 0.36606 0.81342 0.0
C914 C 0.35702 0.34768 0.64536 0.0
C915 C 0.37022 0.36576 0.72077 0.0
C916 C 0.35826 0.34948 0.59896 0.0
C917 C 0.37415 0.36885 0.57927 0.0
C918 C 0.37162 0.3655 0.67174 0.0
C919 C 0.38929 0.38542 0.60703 0.0
C920 C 0.37904 0.38693 0.74393 0.0
C921 C 0.36213 0.34533 0.78928 0.0
N922 N 0.38748 0.38348 0.65164 0.0
N923 N 0.36161 0.34564 0.74403 0.0
H924 H 0.10947 0.41702 0.0978 0.0
H925 H 0.12332 0.50244 0.30219 0.0
H926 H 0.13475 0.49173 0.08365 0.0
H927 H 0.13387 0.43457 0.31865 0.0
H928 H 0.12453 0.49777 0.22196 0.0
H929 H 0.1158 0.42171 0.17838 0.0
C930 C 0.11663 0.43438 0.11172 0.0
C931 C 0.12158 0.45404 0.08414 0.0
C932 C 0.12676 0.48394 0.243 0.0
C933 C 0.12843 0.45955 0.17605 0.0
C934 C 0.12589 0.4865 0.28885 0.0
C935 C 0.12831 0.46875 0.31715 0.0
C936 C 0.12955 0.46325 0.22492 0.0
C937 C 0.13192 0.44863 0.29796 0.0
C938 C 0.1203 0.43703 0.15755 0.0
C939 C 0.13087 0.47615 0.10367 0.0
N940 N 0.13207 0.44624 0.25289 0.0
N941 N 0.13363 0.47834 0.1485 0.0
H942 H 0.07817 0.09563 0.59225 0.0
H943 H 0.13784 0.15828 0.81452 0.0
H944 H 0.1466 0.14559 0.58913 0.0
H945 H 0.08756 0.08995 0.80819 0.0
H946 H 0.13995 0.15804 0.73285 0.0
H947 H 0.07872 0.09854 0.67275 0.0
C948 C 0.09333 0.10726 0.60847 0.0
C949 C 0.11252 0.12004 0.58377 0.0
C950 C 0.12865 0.1431 0.74967 0.0
C951 C 0.11321 0.12363 0.67639 0.0
C952 C 0.12753 0.14315 0.79617 0.0
C953 C 0.11236 0.12421 0.81834 0.0
C954 C 0.11427 0.12412 0.72553 0.0
C955 C 0.09933 0.1051 0.79279 0.0
C956 C 0.09364 0.10891 0.6545 0.0
C957 C 0.1314 0.1354 0.60675 0.0
N958 N 0.10042 0.10568 0.74796 0.0
N959 N 0.13134 0.13669 0.65192 0.0
H960 H 0.97185 0.94426 0.18475 0.0
H961 H 0.09471 0.97257 0.31121 0.0
H962 H 0.01419 0.89682 0.19129 0.0
H963 H 0.04715 0.01433 0.32765 0.0
H964 H 0.06589 0.94565 0.26401 0.0
H965 H -0.00079 0.97081 0.23565 0.0
C966 C 0.98669 0.93927 0.19733 0.0
C967 C 0.99086 0.91837 0.18343 0.0
C968 C 0.06174 0.96071 0.27794 0.0
C969 C 0.0224 0.94881 0.24085 0.0
C970 C 0.07821 0.97609 0.30495 0.0
C971 C 0.07339 0.99574 0.32361 0.0
C972 C 0.04025 0.965 0.26925 0.0
C973 C 0.0518 -0.0004 0.31362 0.0
C974 C 0.0024 0.95451 0.2261 0.0
C975 C 0.01054 0.91294 0.20042 0.0
N976 N 0.03601 0.98434 0.28714 0.0
N977 N 0.02564 0.92811 0.22796 0.0
H978 H 0.61118 0.0134 0.71456 0.0
H979 H 0.50814 0.0671 0.77962 0.0
H980 H 0.5395 0.98224 0.67476 0.0
H981 H 0.57375 0.08304 0.85123 0.0
H982 H 0.52067 0.03896 0.73447 0.0
H983 H 0.59892 0.042 0.75953 0.0
C984 C 0.59285 0.01256 0.71559 0.0
C985 C 0.5763 0.99548 0.69125 0.0
C986 C 0.53228 0.04868 0.7601 0.0
C987 C 0.56219 0.0281 0.74183 0.0
C988 C 0.52515 0.06475 0.78597 0.0
C989 C 0.53976 0.0774 0.81976 0.0
C990 C 0.55429 0.04541 0.76771 0.0
C991 C 0.56188 0.07394 0.82554 0.0
C992 C 0.58586 0.0288 0.74118 0.0
C993 C 0.55273 0.99497 0.69362 0.0
N994 N 0.56843 0.05825 0.79983 0.0
N995 N 0.54637 0.01119 0.71826 0.0
H996 H 0.40072 0.51383 0.30326 0.0
H997 H 0.52268 0.5415 0.17808 0.0
H998 H 0.44696 0.47097 0.32218 0.0
H999 H 0.48425 0.59147 0.20067 0.0
H1000 H 0.49494 0.51364 0.22583 0.0
H1001 H 0.43006 0.54006 0.25752 0.0
C1002 C 0.41709 0.50993 0.2977 0.0
C1003 C 0.4215 0.49036 0.31703 0.0
C1004 C 0.49278 0.53079 0.2205 0.0
C1005 C 0.45533 0.52037 0.26441 0.0
C1006 C 0.50867 0.54673 0.19361 0.0
C1007 C 0.50557 0.56873 0.18506 0.0
C1008 C 0.4737 0.53696 0.23846 0.0
C1009 C 0.487 0.57455 0.20564 0.0
C1010 C 0.43388 0.52493 0.27161 0.0
C1011 C 0.44282 0.48583 0.30776 0.0
N1012 N 0.47171 0.55873 0.23099 0.0
N1013 N 0.45907 0.50083 0.28218 0.0
H1014 H 0.90816 0.4241 0.65861 0.0
H1015 H 0.00351 0.46183 0.85077 0.0
H1016 H 0.92325 0.49064 0.72703 0.0
H1017 H 0.97139 0.38996 0.813 0.0
H1018 H 0.97717 0.47375 0.79976 0.0
H1019 H 0.93365 0.41205 0.71038 0.0
C1020 C 0.91658 0.43617 0.68461 0.0
C1021 C 0.91348 0.45854 0.68811 0.0
C1022 C 0.97589 0.45537 0.80268 0.0
C1023 C 0.94318 0.44486 0.74707 0.0
C1024 C 0.99103 0.4486 0.83141 0.0
C1025 C 0.98958 0.42489 0.83588 0.0
C1026 C 0.95941 0.43831 0.77795 0.0
C1027 C 0.97288 0.40839 0.81065 0.0
C1028 C 0.93128 0.42925 0.71408 0.0
C1029 C 0.92533 0.47341 0.72235 0.0
N1030 N 0.95848 0.41541 0.78256 0.0
N1031 N 0.93976 0.46635 0.75034 0.0
H1032 H 0.0253 0.05053 0.79758 0.0
H1033 H 0.89427 0.9898 0.72077 0.0
H1034 H 0.96512 0.0628 0.86056 0.0
H1035 H 0.95163 0.96463 0.67933 0.0
H1036 H 0.92028 0.01645 0.77311 0.0
H1037 H -0.00089 0.01876 0.75428 0.0
C1038 C 0.00664 0.0465 0.8025 0.0
C1039 C -0.00257 0.05962 0.83236 0.0
C1040 C 0.92719 0.00494 0.75301 0.0
C1041 C 0.96744 0.02346 0.78286 0.0
C1042 C 0.91236 0.9898 0.72318 0.0
C1043 C 0.92093 0.97519 0.6958 0.0
C1044 C 0.9509 0.00574 0.75493 0.0
C1045 C 0.94441 0.97559 0.7002 0.0
C1046 C 0.99172 0.02838 0.77779 0.0
C1047 C 0.97307 0.05367 0.83719 0.0
N1048 N 0.95873 0.9909 0.72885 0.0
N1049 N 0.95897 0.03615 0.81254 0.0
H1050 H 0.41973 0.8901 0.19159 0.0
H1051 H 0.43795 0.02057 0.27825 0.0
H1052 H 0.48009 0.94722 0.15946 0.0
H1053 H 0.39254 0.95996 0.34228 0.0
H1054 H 0.44997 0.9947 0.22673 0.0
H1055 H 0.40587 0.91644 0.2397 0.0
C1056 C 0.43001 0.90821 0.1947 0.0
C1057 C 0.45111 0.91652 0.1719 0.0
C1058 C 0.43734 0.98716 0.25211 0.0
C1059 C 0.43541 0.94668 0.22631 0.0
C1060 C 0.43048 0.00191 0.28171 0.0
C1061 C 0.41436 0.99258 0.31535 0.0
C1062 C 0.42782 0.9629 0.25574 0.0
C1063 C 0.40489 0.96816 0.31708 0.0
C1064 C 0.42217 0.92318 0.22217 0.0
C1065 C 0.46391 0.94007 0.17709 0.0
N1066 N 0.41181 0.9542 0.28778 0.0
N1067 N 0.4558 0.95439 0.20366 0.0
H1068 H 0.53664 0.52303 0.6709 0.0
H1069 H 0.50485 0.4026 0.80299 0.0
H1070 H 0.58106 0.47773 0.68077 0.0
H1071 H 0.46589 0.45257 0.82011 0.0
H1072 H 0.53101 0.42928 0.75279 0.0
H1073 H 0.50922 0.49754 0.72248 0.0
C1074 C 0.54076 0.50792 0.6843 0.0
C1075 C 0.56103 0.50233 0.67119 0.0
C1076 C 0.51677 0.43451 0.76744 0.0
C1077 C 0.52972 0.47304 0.72924 0.0
C1078 C 0.50182 0.41924 0.79615 0.0
C1079 C 0.48333 0.42547 0.81616 0.0
C1080 C 0.51328 0.45627 0.75837 0.0
C1081 C 0.47988 0.44706 0.80522 0.0
C1082 C 0.52505 0.49331 0.71341 0.0
C1083 C 0.56542 0.48244 0.68923 0.0
N1084 N 0.49483 0.4618 0.77714 0.0
N1085 N 0.54987 0.46849 0.71703 0.0
H1086 H 0.98913 0.54397 0.16844 0.0
H1087 H 0.09215 0.59223 0.34159 0.0
H1088 H 0.00925 0.61493 0.21855 0.0
H1089 H 0.07884 0.52542 0.27512 0.0
H1090 H 0.06446 0.60232 0.2918 0.0
H1091 H 0.02388 0.53812 0.20237 0.0
C1092 C 0.00093 0.55848 0.18602 0.0
C1093 C -0.00402 0.57997 0.19088 0.0
C1094 C 0.0678 0.58556 0.28774 0.0
C1095 C 0.03583 0.57313 0.23069 0.0
C1096 C 0.08377 0.57981 0.31605 0.0
C1097 C 0.08756 0.55773 0.31312 0.0
C1098 C 0.0554 0.56906 0.25647 0.0
C1099 C 0.07599 0.54237 0.27939 0.0
C1100 C 0.02082 0.55506 0.20561 0.0
C1101 C 0.01199 0.59792 0.21468 0.0
N1102 N 0.06021 0.5482 0.25276 0.0
N1103 N 0.03107 0.59402 0.23405 0.0
H1104 H 0.22393 0.10896 0.43141 0.0
H1105 H 0.32054 0.05321 0.52741 0.0
H1106 H 0.20811 0.05196 0.5241 0.0
H1107 H 0.33121 0.10149 0.41849 0.0
H1108 H 0.28126 0.05758 0.53751 0.0
H1109 H 0.2653 0.11172 0.43783 0.0
C1110 C 0.22925 0.09712 0.45339 0.0
C1111 C 0.21262 0.07993 0.47665 0.0
C1112 C 0.29232 0.06736 0.5117 0.0
C1113 C 0.2599 0.08289 0.48408 0.0
C1114 C 0.31469 0.06494 0.50605 0.0
C1115 C 0.3289 0.07677 0.47168 0.0
C1116 C 0.28432 0.08186 0.48297 0.0
C1117 C 0.32059 0.09173 0.44484 0.0
C1118 C 0.25285 0.09872 0.45711 0.0
C1119 C 0.22043 0.06539 0.50547 0.0
N1120 N 0.29881 0.09374 0.45091 0.0
N1121 N 0.24356 0.06698 0.50795 0.0
H1122 H 0.50134 0.21724 0.01561 0.0
H1123 H 0.41129 0.27419 0.89753 0.0
H1124 H 0.47055 0.19699 0.88623 0.0
H1125 H 0.45623 0.30856 0.00535 0.0
H1126 H 0.43002 0.24297 0.89899 0.0
H1127 H 0.48288 0.24906 0.01745 0.0
C1128 C 0.49101 0.21969 0.98744 0.0
C1129 C 0.48772 0.20464 0.95053 0.0
C1130 C 0.43574 0.25731 0.92245 0.0
C1131 C 0.46626 0.24038 0.95282 0.0
C1132 C 0.42502 0.27511 0.92165 0.0
C1133 C 0.43229 0.29407 0.95115 0.0
C1134 C 0.4538 0.25841 0.95309 0.0
C1135 C 0.4499 0.29414 0.98229 0.0
C1136 C 0.48046 0.23775 0.98854 0.0
C1137 C 0.47404 0.20846 0.91497 0.0
N1138 N 0.46015 0.2766 0.98234 0.0
N1139 N 0.46372 0.22582 0.91717 0.0
H1140 H 0.27618 0.43066 0.51605 0.0
H1141 H 0.22941 0.53532 0.43023 0.0
H1142 H 0.30719 0.47679 0.40932 0.0
H1143 H 0.19367 0.48473 0.5268 0.0
H1144 H 0.26204 0.51838 0.43212 0.0
H1145 H 0.24906 0.45388 0.5288 0.0
C1146 C 0.27724 0.44565 0.49531 0.0
C1147 C 0.29364 0.45159 0.4611 0.0
C1148 C 0.24721 0.51124 0.45343 0.0
C1149 C 0.26298 0.47831 0.4757 0.0
C1150 C 0.22863 0.52096 0.45245 0.0
C1151 C 0.20865 0.51121 0.47787 0.0
C1152 C 0.24571 0.4916 0.47985 0.0
C1153 C 0.20873 0.49287 0.50669 0.0
C1154 C 0.26183 0.45893 0.50264 0.0
C1155 C 0.29439 0.47124 0.4353 0.0
N1156 N 0.22681 0.48341 0.50637 0.0
N1157 N 0.27923 0.48385 0.44304 0.0
H1158 H 0.09448 0.3323 0.8937 0.0
H1159 H 0.04022 0.20372 0.98917 0.0
H1160 H 0.04211 0.31557 0.99594 0.0
H1161 H 0.09756 0.22186 0.89693 0.0
H1162 H 0.04023 0.24453 0.99127 0.0
H1163 H 0.09522 0.29166 0.89307 0.0
C1164 C 0.08311 0.32004 0.91596 0.0
C1165 C 0.06822 0.32728 0.94492 0.0
C1166 C 0.05285 0.2396 0.97065 0.0
C1167 C 0.06904 0.28084 0.94456 0.0
C1168 C 0.05294 0.21632 0.96962 0.0
C1169 C 0.06897 0.20939 0.94292 0.0
C1170 C 0.06884 0.25606 0.94469 0.0
C1171 C 0.08472 0.22639 0.91759 0.0
C1172 C 0.08362 0.29688 0.91575 0.0
C1173 C 0.05406 0.31077 0.97346 0.0
N1174 N 0.08426 0.24895 0.91908 0.0
N1175 N 0.05477 0.28828 0.97246 0.0
H1176 H 0.66389 0.89303 0.50175 0.0
H1177 H 0.79306 0.93969 0.60257 0.0
H1178 H 0.68518 0.94716 0.60166 0.0
H1179 H 0.77424 0.88676 0.50003 0.0
H1180 H 0.75382 0.94394 0.59905 0.0
H1181 H 0.7045 0.89196 0.49633 0.0
C1182 C 0.67715 0.90483 0.52219 0.0
C1183 C 0.67117 0.91999 0.5526 0.0
C1184 C 0.7582 0.93142 0.57716 0.0
C1185 C 0.71741 0.91878 0.54683 0.0
C1186 C 0.78057 0.92889 0.57938 0.0
C1187 C 0.78675 0.91262 0.55198 0.0
C1188 C 0.74176 0.9175 0.54744 0.0
C1189 C 0.77011 0.89949 0.52175 0.0
C1190 C 0.70027 0.90415 0.51923 0.0
C1191 C 0.68896 0.93485 0.57845 0.0
N1192 N 0.74824 0.90208 0.52051 0.0
N1193 N 0.71122 0.93378 0.57513 0.0
H1194 H 0.56348 0.71067 0.98267 0.0
H1195 H 0.46604 0.76271 0.08499 0.0
H1196 H 0.5203 0.68109 0.0942 0.0
H1197 H 0.51117 0.79424 0.97714 0.0
H1198 H 0.48076 0.72866 0.07976 0.0
H1199 H 0.54045 0.73813 0.97258 0.0
C1200 C 0.54916 0.70997 0.00499 0.0
C1201 C 0.54407 0.6939 0.03982 0.0
C1202 C 0.48712 0.74285 0.05669 0.0
C1203 C 0.51757 0.72504 0.02835 0.0
C1204 C 0.47865 0.76223 0.05958 0.0
C1205 C 0.48767 0.78149 0.032 0.0
C1206 C 0.50484 0.74287 0.02624 0.0
C1207 C 0.50369 0.7798 0.99913 0.0
C1208 C 0.53598 0.72557 0.99917 0.0
C1209 C 0.52525 0.69364 0.06769 0.0
N1210 N 0.51209 0.76102 0.9977 0.0
N1211 N 0.51277 0.70905 0.06149 0.0
H1212 H 0.76189 0.46539 0.58534 0.0
H1213 H 0.70653 0.5583 0.47765 0.0
H1214 H 0.79298 0.51027 0.47707 0.0
H1215 H 0.6757 0.51314 0.58583 0.0
H1216 H 0.73486 0.53623 0.46815 0.0
H1217 H 0.72609 0.47677 0.57538 0.0
C1218 C 0.7609 0.47711 0.55863 0.0
C1219 C 0.78049 0.48723 0.53251 0.0
C1220 C 0.72179 0.53106 0.49378 0.0
C1221 C 0.73998 0.50079 0.52164 0.0
C1222 C 0.70569 0.54369 0.49929 0.0
C1223 C 0.68905 0.53783 0.53314 0.0
C1224 C 0.72126 0.51245 0.52238 0.0
C1225 C 0.68867 0.5187 0.56015 0.0
C1226 C 0.74055 0.48373 0.55311 0.0
C1227 C 0.77827 0.50211 0.49803 0.0
N1228 N 0.70465 0.50681 0.55439 0.0
N1229 N 0.75855 0.50887 0.49422 0.0
H1230 H 0.95747 0.67883 0.06985 0.0
H1231 H 0.89411 0.77235 0.98877 0.0
H1232 H 0.88902 0.65971 0.00876 0.0
H1233 H 0.95553 0.78847 0.07242 0.0
H1234 H 0.89545 0.73177 0.98319 0.0
H1235 H 0.96046 0.71984 0.05803 0.0
C1236 C 0.94319 0.68325 0.05335 0.0
C1237 C 0.92289 0.66585 0.04054 0.0
C1238 C 0.90873 0.74426 1.00241 0.0
C1239 C 0.92604 0.71281 0.02759 0.0
C1240 C 0.90804 0.76736 0.00541 0.0
C1241 C 0.92456 0.78354 0.03158 0.0
C1242 C 0.92618 0.73751 0.02549 0.0
C1243 C 0.94224 0.77634 0.05258 0.0
C1244 C 0.94485 0.70668 0.04688 0.0
C1245 C 0.90481 0.67262 0.01981 0.0
N1246 N 0.94251 0.75381 0.04929 0.0
N1247 N 0.90675 0.69563 0.01421 0.0
loop_
_geom_bond_atom_site_label_1
_geom_bond_atom_site_label_2
_geom_bond_distance
_geom_bond_site_symmetry_2
_ccdc_geom_bond_type
Co0 N4 2.148 . S
Co0 N10 2.128 . S
Co0 N20 2.194 . S
Co0 O25 2.351 . S
Co0 O26 2.155 . S
Co0 O27 2.096 . S
C1 N4 1.301 . S
C1 N5 1.328 . S
C1 H6 0.930 . S
C2 C3 1.333 . S
C2 N4 1.317 . S
C2 H7 0.930 . S
C3 C2 1.333 . S
C3 N5 1.350 . S
C3 H29 0.931 . S
N4 Co0 2.148 . S
N4 C1 1.301 . S
N4 C2 1.317 . S
N5 C1 1.328 . S
N5 C3 1.350 . S
H6 C1 0.930 . S
H7 C2 0.930 . S
C8 O9 1.224 . S
C8 O27 1.247 . S
O9 C8 1.224 . S
N10 Co0 2.128 . S
N10 C11 1.355 1_545 S
N10 C13 1.311 . S
C11 N10 1.355 1_565 S
C11 C12 1.363 . S
C11 H23 0.929 . S
C12 C11 1.363 . S
C12 N14 1.375 . S
C12 H30 0.931 . S
C13 N10 1.311 . S
C13 N14 1.347 1_545 S
C13 H24 0.929 . S
N14 C12 1.375 . S
N14 C13 1.347 1_565 S
C15 C18 1.365 . S
C15 N20 1.328 . S
C15 H21 0.929 . S
C16 C17 1.362 . S
C16 C19 1.378 . S
C16 H31 0.929 . S
C17 C16 1.362 . S
C17 C18 1.366 . S
C18 C15 1.365 . S
C18 C17 1.366 . S
C18 H32 0.930 . S
C19 C16 1.378 . S
C19 N20 1.315 . S
C19 H22 0.930 . S
N20 Co0 2.194 . S
N20 C15 1.328 . S
N20 C19 1.315 . S
H21 C15 0.929 . S
H22 C19 0.930 . S
H23 C11 0.929 . S
H24 C13 0.929 . S
O25 Co0 2.351 . S
O25 C28 1.244 . S
O26 Co0 2.155 . S
O26 C28 1.240 . S
O27 Co0 2.096 . S
O27 C8 1.247 . S
C28 O25 1.244 . S
C28 O26 1.240 . S
H29 C3 0.931 . S
H30 C12 0.931 . S
H31 C16 0.929 . S
H32 C18 0.930 . S
Co33 N37 2.148 . S
Co33 N43 2.128 . S
Co33 N53 2.194 . S
Co33 O58 2.351 1_556 S
Co33 O59 2.155 . S
Co33 O60 2.096 . S
C34 N37 1.301 1_554 S
C34 N38 1.328 . S
C34 H39 0.930 . S
C35 C36 1.333 1_556 S
C35 N37 1.317 . S
C35 H40 0.930 . S
C36 C35 1.333 1_554 S
C36 N38 1.350 . S
C36 H62 0.931 . S
N37 Co33 2.148 . S
N37 C34 1.301 1_556 S
N37 C35 1.317 . S
N38 C34 1.328 . S
N38 C36 1.350 . S
H39 C34 0.930 . S
H40 C35 0.930 . S
C41 O42 1.224 . S
C41 O60 1.247 . S
O42 C41 1.224 . S
N43 Co33 2.128 . S
N43 C44 1.355 . S
N43 C46 1.311 . S
C44 N43 1.355 . S
C44 C45 1.363 . S
C44 H56 0.929 . S
C45 C44 1.363 . S
C45 N47 1.375 . S
C45 H63 0.931 . S
C46 N43 1.311 . S
C46 N47 1.347 . S
C46 H57 0.929 . S
N47 C45 1.375 . S
N47 C46 1.347 . S
C48 C51 1.365 . S
C48 N53 1.328 1_554 S
C48 H54 0.929 . S
C49 C50 1.362 . S
C49 C52 1.378 . S
C49 H64 0.929 . S
C50 C49 1.362 . S
C50 C51 1.366 1_556 S
C51 C48 1.365 . S
C51 C50 1.366 1_554 S
C51 H65 0.930 . S
C52 C49 1.378 . S
C52 N53 1.315 . S
C52 H55 0.930 . S
N53 Co33 2.194 . S
N53 C48 1.328 1_556 S
N53 C52 1.315 . S
H54 C48 0.929 . S
H55 C52 0.930 . S
H56 C44 0.929 . S
H57 C46 0.929 . S
O58 Co33 2.351 1_554 S
O58 C61 1.244 . S
O59 Co33 2.155 . S
O59 C61 1.240 1_556 S
O60 Co33 2.096 . S
O60 C41 1.247 . S
C61 O58 1.244 . S
C61 O59 1.240 1_554 S
H62 C36 0.931 . S
H63 C45 0.931 . S
H64 C49 0.929 . S
H65 C51 0.930 . S
Co66 N70 2.148 . S
Co66 N76 2.128 . S
Co66 N86 2.194 . S
Co66 O91 2.351 . S
Co66 O92 2.155 . S
Co66 O93 2.096 . S
C67 N70 1.301 . S
C67 N71 1.328 . S
C67 H72 0.930 . S
C68 C69 1.333 . S
C68 N70 1.317 . S
C68 H73 0.930 . S
C69 C68 1.333 . S
C69 N71 1.350 . S
C69 H95 0.931 . S
N70 Co66 2.148 . S
N70 C67 1.301 . S
N70 C68 1.317 . S
N71 C67 1.328 . S
N71 C69 1.350 . S
H72 C67 0.930 . S
H73 C68 0.930 . S
C74 O75 1.224 . S
C74 O93 1.247 . S
O75 C74 1.224 . S
N76 Co66 2.128 . S
N76 C77 1.355 . S
N76 C79 1.311 . S
C77 N76 1.355 . S
C77 C78 1.363 . S
C77 H89 0.929 . S
C78 C77 1.363 . S
C78 N80 1.375 . S
C78 H96 0.931 . S
C79 N76 1.311 . S
C79 N80 1.347 . S
C79 H90 0.929 . S
N80 C78 1.375 . S
N80 C79 1.347 . S
C81 C84 1.365 . S
C81 N86 1.328 . S
C81 H87 0.929 . S
C82 C83 1.362 . S
C82 C85 1.378 . S
C82 H97 0.929 . S
C83 C82 1.362 . S
C83 C84 1.366 . S
C84 C81 1.365 . S
C84 C83 1.366 . S
C84 H98 0.930 . S
C85 C82 1.378 . S
C85 N86 1.315 . S
C85 H88 0.930 . S
N86 Co66 2.194 . S
N86 C81 1.328 . S
N86 C85 1.315 . S
H87 C81 0.929 . S
H88 C85 0.930 . S
H89 C77 0.929 . S
H90 C79 0.929 . S
O91 Co66 2.351 . S
O91 C94 1.244 . S
O92 Co66 2.155 . S
O92 C94 1.240 . S
O93 Co66 2.096 . S
O93 C74 1.247 . S
C94 O91 1.244 . S
C94 O92 1.240 . S
H95 C69 0.931 . S
H96 C78 0.931 . S
H97 C82 0.929 . S
H98 C84 0.930 . S
Co99 N103 2.148 . S
Co99 N109 2.128 1_455 S
Co99 N119 2.194 1_455 S
Co99 O124 2.351 1_456 S
Co99 O125 2.155 1_455 S
Co99 O126 2.096 . S
C100 N103 1.301 1_554 S
C100 N104 1.328 . S
C100 H105 0.930 . S
C101 C102 1.333 1_556 S
C101 N103 1.317 . S
C101 H106 0.930 . S
C102 C101 1.333 1_554 S
C102 N104 1.350 . S
C102 H128 0.931 . S
N103 Co99 2.148 . S
N103 C100 1.301 1_556 S
N103 C101 1.317 . S
N104 C100 1.328 . S
N104 C102 1.350 . S
H105 C100 0.930 . S
H106 C101 0.930 . S
C107 O108 1.224 . S
C107 O126 1.247 . S
O108 C107 1.224 . S
N109 Co99 2.128 1_655 S
N109 C110 1.355 . S
N109 C112 1.311 . S
C110 N109 1.355 . S
C110 C111 1.363 . S
C110 H122 0.929 . S
C111 C110 1.363 . S
C111 N113 1.375 . S
C111 H129 0.931 . S
C112 N109 1.311 . S
C112 N113 1.347 . S
C112 H123 0.929 . S
N113 C111 1.375 . S
N113 C112 1.347 . S
C114 C117 1.365 . S
C114 N119 1.328 1_554 S
C114 H120 0.929 . S
C115 C116 1.361 1_455 S
C115 C118 1.377 . S
C115 H130 0.930 . S
C116 C115 1.361 1_655 S
C116 C117 1.366 1_556 S
C117 C114 1.365 . S
C117 C116 1.366 1_554 S
C117 H131 0.930 . S
C118 C115 1.377 . S
C118 N119 1.315 1_455 S
C118 H121 0.930 . S
N119 Co99 2.194 1_655 S
N119 C114 1.328 1_556 S
N119 C118 1.315 1_655 S
H120 C114 0.929 . S
H121 C118 0.930 . S
H122 C110 0.929 . S
H123 C112 0.929 . S
O124 Co99 2.351 1_654 S
O124 C127 1.244 . S
O125 Co99 2.155 1_655 S
O125 C127 1.240 1_556 S
O126 Co99 2.096 . S
O126 C107 1.247 . S
C127 O124 1.244 . S
C127 O125 1.240 1_554 S
H128 C102 0.931 . S
H129 C111 0.931 . S
H130 C115 0.930 . S
H131 C117 0.930 . S
Co132 N136 2.148 . S
Co132 N142 2.128 1_565 S
Co132 N152 2.194 1_565 S
Co132 O157 2.351 1_565 S
Co132 O158 2.155 1_565 S
Co132 O159 2.096 . S
C133 N136 1.301 . S
C133 N137 1.328 . S
C133 H138 0.930 . S
C134 C135 1.333 . S
C134 N136 1.317 . S
C134 H139 0.930 . S
C135 C134 1.333 . S
C135 N137 1.350 . S
C135 H161 0.931 . S
N136 Co132 2.148 . S
N136 C133 1.301 . S
N136 C134 1.317 . S
N137 C133 1.328 . S
N137 C135 1.350 . S
H138 C133 0.930 . S
H139 C134 0.930 . S
C140 O141 1.224 . S
C140 O159 1.247 . S
O141 C140 1.224 . S
N142 Co132 2.128 1_545 S
N142 C143 1.355 . S
N142 C145 1.311 . S
C143 N142 1.355 . S
C143 C144 1.363 . S
C143 H155 0.929 . S
C144 C143 1.363 . S
C144 N146 1.375 . S
C144 H162 0.931 . S
C145 N142 1.311 . S
C145 N146 1.347 . S
C145 H156 0.929 . S
N146 C144 1.375 . S
N146 C145 1.347 . S
C147 C150 1.365 . S
C147 N152 1.328 . S
C147 H153 0.929 . S
C148 C149 1.361 1_565 S
C148 C151 1.377 . S
C148 H163 0.930 . S
C149 C148 1.361 1_545 S
C149 C150 1.366 . S
C150 C147 1.365 . S
C150 C149 1.366 . S
C150 H164 0.930 . S
C151 C148 1.377 . S
C151 N152 1.315 1_565 S
C151 H154 0.930 . S
N152 Co132 2.194 1_545 S
N152 C147 1.328 . S
N152 C151 1.315 1_545 S
H153 C147 0.929 . S
H154 C151 0.930 . S
H155 C143 0.929 . S
H156 C145 0.929 . S
O157 Co132 2.351 1_545 S
O157 C160 1.244 . S
O158 Co132 2.155 1_545 S
O158 C160 1.240 . S
O159 Co132 2.096 . S
O159 C140 1.247 . S
C160 O157 1.244 . S
C160 O158 1.240 . S
H161 C135 0.931 . S
H162 C144 0.931 . S
H163 C148 0.930 . S
H164 C150 0.930 . S
Co165 N169 2.148 . S
Co165 N175 2.128 . S
Co165 N185 2.194 . S
Co165 O190 2.351 . S
Co165 O191 2.155 . S
Co165 O192 2.096 . S
C166 N169 1.301 1_556 S
C166 N170 1.328 . S
C166 H171 0.930 . S
C167 C168 1.333 1_554 S
C167 N169 1.317 . S
C167 H172 0.930 . S
C168 C167 1.333 1_556 S
C168 N170 1.350 . S
C168 H194 0.931 . S
N169 Co165 2.148 . S
N169 C166 1.301 1_554 S
N169 C167 1.317 . S
N170 C166 1.328 . S
N170 C168 1.350 . S
H171 C166 0.930 . S
H172 C167 0.930 . S
C173 O174 1.224 . S
C173 O192 1.247 . S
O174 C173 1.224 . S
N175 Co165 2.128 . S
N175 C176 1.355 . S
N175 C178 1.311 . S
C176 N175 1.355 . S
C176 C177 1.363 . S
C176 H188 0.929 . S
C177 C176 1.363 . S
C177 N179 1.375 . S
C177 H195 0.931 . S
C178 N175 1.311 . S
C178 N179 1.347 . S
C178 H189 0.929 . S
N179 C177 1.375 . S
N179 C178 1.347 . S
C180 C183 1.365 . S
C180 N185 1.328 . S
C180 H186 0.929 1_554 S
C181 C182 1.362 . S
C181 C184 1.378 . S
C181 H196 0.929 . S
C182 C181 1.362 . S
C182 C183 1.366 . S
C183 C180 1.365 . S
C183 C182 1.366 . S
C183 H197 0.930 1_554 S
C184 C181 1.378 . S
C184 N185 1.315 . S
C184 H187 0.930 . S
N185 Co165 2.194 . S
N185 C180 1.328 . S
N185 C184 1.315 . S
H186 C180 0.929 1_556 S
H187 C184 0.930 . S
H188 C176 0.929 . S
H189 C178 0.929 . S
O190 Co165 2.351 . S
O190 C193 1.244 . S
O191 Co165 2.155 . S
O191 C193 1.240 . S
O192 Co165 2.096 . S
O192 C173 1.247 . S
C193 O190 1.244 . S
C193 O191 1.240 . S
H194 C168 0.931 . S
H195 C177 0.931 . S
H196 C181 0.929 . S
H197 C183 0.930 1_556 S
Co198 N202 2.148 . S
Co198 N208 2.128 . S
Co198 N218 2.194 . S
Co198 O223 2.351 . S
Co198 O224 2.155 . S
Co198 O225 2.096 . S
C199 N202 1.301 . S
C199 N203 1.328 . S
C199 H204 0.930 . S
C200 C201 1.333 . S
C200 N202 1.317 . S
C200 H205 0.930 . S
C201 C200 1.333 . S
C201 N203 1.350 . S
C201 H227 0.931 . S
N202 Co198 2.148 . S
N202 C199 1.301 . S
N202 C200 1.317 . S
N203 C199 1.328 . S
N203 C201 1.350 . S
H204 C199 0.930 . S
H205 C200 0.930 . S
C206 O207 1.224 . S
C206 O225 1.247 . S
O207 C206 1.224 . S
N208 Co198 2.128 . S
N208 C209 1.355 . S
N208 C211 1.311 . S
C209 N208 1.355 . S
C209 C210 1.363 . S
C209 H221 0.929 . S
C210 C209 1.363 . S
C210 N212 1.375 . S
C210 H228 0.931 . S
C211 N208 1.311 . S
C211 N212 1.347 . S
C211 H222 0.929 . S
N212 C210 1.375 . S
N212 C211 1.347 . S
C213 C216 1.365 . S
C213 N218 1.328 . S
C213 H219 0.929 . S
C214 C215 1.362 . S
C214 C217 1.378 . S
C214 H229 0.929 . S
C215 C214 1.362 . S
C215 C216 1.366 . S
C216 C213 1.365 . S
C216 C215 1.366 . S
C216 H230 0.930 . S
C217 C214 1.378 . S
C217 N218 1.315 . S
C217 H220 0.930 . S
N218 Co198 2.194 . S
N218 C213 1.328 . S
N218 C217 1.315 . S
H219 C213 0.929 . S
H220 C217 0.930 . S
H221 C209 0.929 . S
H222 C211 0.929 . S
O223 Co198 2.351 . S
O223 C226 1.244 . S
O224 Co198 2.155 . S
O224 C226 1.240 . S
O225 Co198 2.096 . S
O225 C206 1.247 . S
C226 O223 1.244 . S
C226 O224 1.240 . S
H227 C201 0.931 . S
H228 C210 0.931 . S
H229 C214 0.929 . S
H230 C216 0.930 . S
Co231 N235 2.148 . S
Co231 N241 2.128 . S
Co231 N251 2.194 . S
Co231 O256 2.351 . S
Co231 O257 2.155 . S
Co231 O258 2.096 . S
C232 N235 1.301 1_556 S
C232 N236 1.328 . S
C232 H237 0.930 . S
C233 C234 1.333 1_554 S
C233 N235 1.317 . S
C233 H238 0.930 . S
C234 C233 1.333 1_556 S
C234 N236 1.350 . S
C234 H260 0.931 . S
N235 Co231 2.148 . S
N235 C232 1.301 1_554 S
N235 C233 1.317 . S
N236 C232 1.328 . S
N236 C234 1.350 . S
H237 C232 0.930 . S
H238 C233 0.930 . S
C239 O240 1.224 . S
C239 O258 1.247 . S
O240 C239 1.224 . S
N241 Co231 2.128 . S
N241 C242 1.355 1_655 S
N241 C244 1.311 . S
C242 N241 1.355 1_455 S
C242 C243 1.363 . S
C242 H254 0.929 . S
C243 C242 1.363 . S
C243 N245 1.375 . S
C243 H261 0.931 . S
C244 N241 1.311 . S
C244 N245 1.347 1_655 S
C244 H255 0.929 . S
N245 C243 1.375 . S
N245 C244 1.347 1_455 S
C246 C249 1.365 . S
C246 N251 1.328 . S
C246 H252 0.929 1_554 S
C247 C248 1.362 . S
C247 C250 1.378 . S
C247 H262 0.929 . S
C248 C247 1.362 . S
C248 C249 1.366 . S
C249 C246 1.365 . S
C249 C248 1.366 . S
C249 H263 0.930 1_554 S
C250 C247 1.378 . S
C250 N251 1.315 . S
C250 H253 0.930 . S
N251 Co231 2.194 . S
N251 C246 1.328 . S
N251 C250 1.315 . S
H252 C246 0.929 1_556 S
H253 C250 0.930 . S
H254 C242 0.929 . S
H255 C244 0.929 . S
O256 Co231 2.351 . S
O256 C259 1.244 . S
O257 Co231 2.155 . S
O257 C259 1.240 . S
O258 Co231 2.096 . S
O258 C239 1.247 . S
C259 O256 1.244 . S
C259 O257 1.240 . S
H260 C234 0.931 . S
H261 C243 0.931 . S
H262 C247 0.929 . S
H263 C249 0.930 1_556 S
Co264 N268 2.148 . S
Co264 N274 2.128 . S
Co264 N284 2.194 . S
Co264 O289 2.351 . S
Co264 O290 2.155 . S
Co264 O291 2.096 . S
C265 N268 1.301 . S
C265 N269 1.328 . S
C265 H270 0.930 . S
C266 C267 1.333 . S
C266 N268 1.317 . S
C266 H271 0.930 . S
C267 C266 1.333 . S
C267 N269 1.350 . S
C267 H293 0.931 . S
N268 Co264 2.148 . S
N268 C265 1.301 . S
N268 C266 1.317 . S
N269 C265 1.328 . S
N269 C267 1.350 . S
H270 C265 0.930 . S
H271 C266 0.930 . S
C272 O273 1.224 . S
C272 O291 1.247 . S
O273 C272 1.224 . S
N274 Co264 2.128 . S
N274 C275 1.355 1_565 S
N274 C277 1.311 . S
C275 N274 1.355 1_545 S
C275 C276 1.363 . S
C275 H287 0.929 . S
C276 C275 1.363 . S
C276 N278 1.375 . S
C276 H294 0.931 . S
C277 N274 1.311 . S
C277 N278 1.347 1_565 S
C277 H288 0.929 . S
N278 C276 1.375 . S
N278 C277 1.347 1_545 S
C279 C282 1.365 . S
C279 N284 1.328 . S
C279 H285 0.929 . S
C280 C281 1.362 . S
C280 C283 1.378 . S
C280 H295 0.929 . S
C281 C280 1.362 . S
C281 C282 1.366 . S
C282 C279 1.365 . S
C282 C281 1.366 . S
C282 H296 0.930 . S
C283 C280 1.378 . S
C283 N284 1.315 . S
C283 H286 0.930 . S
N284 Co264 2.194 . S
N284 C279 1.328 . S
N284 C283 1.315 . S
H285 C279 0.929 . S
H286 C283 0.930 . S
H287 C275 0.929 . S
H288 C277 0.929 . S
O289 Co264 2.351 . S
O289 C292 1.244 . S
O290 Co264 2.155 . S
O290 C292 1.240 . S
O291 Co264 2.096 . S
O291 C272 1.247 . S
C292 O289 1.244 . S
C292 O290 1.240 . S
H293 C267 0.931 . S
H294 C276 0.931 . S
H295 C280 0.929 . S
H296 C282 0.930 . S
Co297 N301 2.148 . S
Co297 N307 2.128 . S
Co297 N317 2.194 . S
Co297 O322 2.351 1_554 S
Co297 O323 2.155 . S
Co297 O324 2.096 . S
C298 N301 1.301 1_556 S
C298 N302 1.328 . S
C298 H303 0.930 . S
C299 C300 1.333 1_554 S
C299 N301 1.317 . S
C299 H304 0.930 . S
C300 C299 1.333 1_556 S
C300 N302 1.350 . S
C300 H326 0.931 . S
N301 Co297 2.148 . S
N301 C298 1.301 1_554 S
N301 C299 1.317 . S
N302 C298 1.328 . S
N302 C300 1.350 . S
H303 C298 0.930 . S
H304 C299 0.930 . S
C305 O306 1.224 . S
C305 O324 1.247 . S
O306 C305 1.224 . S
N307 Co297 2.128 . S
N307 C308 1.355 . S
N307 C310 1.311 . S
C308 N307 1.355 . S
C308 C309 1.363 . S
C308 H320 0.929 . S
C309 C308 1.363 . S
C309 N311 1.375 . S
C309 H327 0.931 . S
C310 N307 1.311 . S
C310 N311 1.347 . S
C310 H321 0.929 . S
N311 C309 1.375 . S
N311 C310 1.347 . S
C312 C315 1.365 . S
C312 N317 1.328 1_556 S
C312 H318 0.929 . S
C313 C314 1.362 . S
C313 C316 1.378 . S
C313 H328 0.929 . S
C314 C313 1.362 . S
C314 C315 1.366 1_554 S
C315 C312 1.365 . S
C315 C314 1.366 1_556 S
C315 H329 0.930 . S
C316 C313 1.378 . S
C316 N317 1.315 . S
C316 H319 0.930 . S
N317 Co297 2.194 . S
N317 C312 1.328 1_554 S
N317 C316 1.315 . S
H318 C312 0.929 . S
H319 C316 0.930 . S
H320 C308 0.929 . S
H321 C310 0.929 . S
O322 Co297 2.351 1_556 S
O322 C325 1.244 . S
O323 Co297 2.155 . S
O323 C325 1.240 1_554 S
O324 Co297 2.096 . S
O324 C305 1.247 . S
C325 O322 1.244 . S
C325 O323 1.240 1_556 S
H326 C300 0.931 . S
H327 C309 0.931 . S
H328 C313 0.929 . S
H329 C315 0.930 . S
Co330 N334 2.148 . S
Co330 N340 2.128 . S
Co330 N350 2.194 . S
Co330 O355 2.351 . S
Co330 O356 2.155 . S
Co330 O357 2.096 . S
C331 N334 1.301 . S
C331 N335 1.328 . S
C331 H336 0.930 . S
C332 C333 1.333 . S
C332 N334 1.317 . S
C332 H337 0.930 . S
C333 C332 1.333 . S
C333 N335 1.350 . S
C333 H359 0.931 . S
N334 Co330 2.148 . S
N334 C331 1.301 . S
N334 C332 1.317 . S
N335 C331 1.328 . S
N335 C333 1.350 . S
H336 C331 0.930 . S
H337 C332 0.930 . S
C338 O339 1.224 . S
C338 O357 1.247 . S
O339 C338 1.224 . S
N340 Co330 2.128 . S
N340 C341 1.355 . S
N340 C343 1.311 . S
C341 N340 1.355 . S
C341 C342 1.363 . S
C341 H353 0.929 . S
C342 C341 1.363 . S
C342 N344 1.375 . S
C342 H360 0.931 . S
C343 N340 1.311 . S
C343 N344 1.347 . S
C343 H354 0.929 . S
N344 C342 1.375 . S
N344 C343 1.347 . S
C345 C348 1.365 . S
C345 N350 1.328 . S
C345 H351 0.929 . S
C346 C347 1.362 . S
C346 C349 1.378 . S
C346 H361 0.929 . S
C347 C346 1.362 . S
C347 C348 1.366 . S
C348 C345 1.365 . S
C348 C347 1.366 . S
C348 H362 0.930 . S
C349 C346 1.378 . S
C349 N350 1.315 . S
C349 H352 0.930 . S
N350 Co330 2.194 . S
N350 C345 1.328 . S
N350 C349 1.315 . S
H351 C345 0.929 . S
H352 C349 0.930 . S
H353 C341 0.929 . S
H354 C343 0.929 . S
O355 Co330 2.351 . S
O355 C358 1.244 . S
O356 Co330 2.155 . S
O356 C358 1.240 . S
O357 Co330 2.096 . S
O357 C338 1.247 . S
C358 O355 1.244 . S
C358 O356 1.240 . S
H359 C333 0.931 . S
H360 C342 0.931 . S
H361 C346 0.929 . S
H362 C348 0.930 . S
Co363 N367 2.148 . S
Co363 N373 2.128 1_655 S
Co363 N383 2.194 1_655 S
Co363 O388 2.351 1_654 S
Co363 O389 2.155 1_655 S
Co363 O390 2.096 . S
C364 N367 1.301 1_556 S
C364 N368 1.328 . S
C364 H369 0.930 . S
C365 C366 1.333 1_554 S
C365 N367 1.317 . S
C365 H370 0.930 . S
C366 C365 1.333 1_556 S
C366 N368 1.350 . S
C366 H392 0.931 . S
N367 Co363 2.148 . S
N367 C364 1.301 1_554 S
N367 C365 1.317 . S
N368 C364 1.328 . S
N368 C366 1.350 . S
H369 C364 0.930 . S
H370 C365 0.930 . S
C371 O372 1.224 . S
C371 O390 1.247 . S
O372 C371 1.224 . S
N373 Co363 2.128 1_455 S
N373 C374 1.355 . S
N373 C376 1.311 . S
C374 N373 1.355 . S
C374 C375 1.363 . S
C374 H386 0.929 . S
C375 C374 1.363 . S
C375 N377 1.375 . S
C375 H393 0.931 . S
C376 N373 1.311 . S
C376 N377 1.347 . S
C376 H387 0.929 . S
N377 C375 1.375 . S
N377 C376 1.347 . S
C378 C381 1.365 . S
C378 N383 1.328 1_556 S
C378 H384 0.929 . S
C379 C380 1.361 1_655 S
C379 C382 1.377 . S
C379 H394 0.930 . S
C380 C379 1.361 1_455 S
C380 C381 1.366 1_554 S
C381 C378 1.365 . S
C381 C380 1.366 1_556 S
C381 H395 0.930 . S
C382 C379 1.377 . S
C382 N383 1.315 1_655 S
C382 H385 0.930 . S
N383 Co363 2.194 1_455 S
N383 C378 1.328 1_554 S
N383 C382 1.315 1_455 S
H384 C378 0.929 . S
H385 C382 0.930 . S
H386 C374 0.929 . S
H387 C376 0.929 . S
O388 Co363 2.351 1_456 S
O388 C391 1.244 . S
O389 Co363 2.155 1_455 S
O389 C391 1.240 1_554 S
O390 Co363 2.096 . S
O390 C371 1.247 . S
C391 O388 1.244 . S
C391 O389 1.240 1_556 S
H392 C366 0.931 . S
H393 C375 0.931 . S
H394 C379 0.930 . S
H395 C381 0.930 . S
Co396 N400 2.148 . S
Co396 N406 2.128 1_545 S
Co396 N416 2.194 1_545 S
Co396 O421 2.351 1_545 S
Co396 O422 2.155 1_545 S
Co396 O423 2.096 . S
C397 N400 1.301 . S
C397 N401 1.328 . S
C397 H402 0.930 . S
C398 C399 1.333 . S
C398 N400 1.317 . S
C398 H403 0.930 . S
C399 C398 1.333 . S
C399 N401 1.350 . S
C399 H425 0.931 . S
N400 Co396 2.148 . S
N400 C397 1.301 . S
N400 C398 1.317 . S
N401 C397 1.328 . S
N401 C399 1.350 . S
H402 C397 0.930 . S
H403 C398 0.930 . S
C404 O405 1.224 . S
C404 O423 1.247 . S
O405 C404 1.224 . S
N406 Co396 2.128 1_565 S
N406 C407 1.355 . S
N406 C409 1.311 . S
C407 N406 1.355 . S
C407 C408 1.363 . S
C407 H419 0.929 . S
C408 C407 1.363 . S
C408 N410 1.375 . S
C408 H426 0.931 . S
C409 N406 1.311 . S
C409 N410 1.347 . S
C409 H420 0.929 . S
N410 C408 1.375 . S
N410 C409 1.347 . S
C411 C414 1.365 . S
C411 N416 1.328 . S
C411 H417 0.929 . S
C412 C413 1.361 1_545 S
C412 C415 1.377 . S
C412 H427 0.930 . S
C413 C412 1.361 1_565 S
C413 C414 1.366 . S
C414 C411 1.365 . S
C414 C413 1.366 . S
C414 H428 0.930 . S
C415 C412 1.377 . S
C415 N416 1.315 1_545 S
C415 H418 0.930 . S
N416 Co396 2.194 1_565 S
N416 C411 1.328 . S
N416 C415 1.315 1_565 S
H417 C411 0.929 . S
H418 C415 0.930 . S
H419 C407 0.929 . S
H420 C409 0.929 . S
O421 Co396 2.351 1_565 S
O421 C424 1.244 . S
O422 Co396 2.155 1_565 S
O422 C424 1.240 . S
O423 Co396 2.096 . S
O423 C404 1.247 . S
C424 O421 1.244 . S
C424 O422 1.240 . S
H425 C399 0.931 . S
H426 C408 0.931 . S
H427 C412 0.930 . S
H428 C414 0.930 . S
Co429 N433 2.148 . S
Co429 N439 2.128 . S
Co429 N449 2.194 . S
Co429 O454 2.351 . S
Co429 O455 2.155 . S
Co429 O456 2.096 . S
C430 N433 1.301 1_554 S
C430 N434 1.328 . S
C430 H435 0.930 . S
C431 C432 1.333 1_556 S
C431 N433 1.317 . S
C431 H436 0.930 . S
C432 C431 1.333 1_554 S
C432 N434 1.350 . S
C432 H458 0.931 . S
N433 Co429 2.148 . S
N433 C430 1.301 1_556 S
N433 C431 1.317 . S
N434 C430 1.328 . S
N434 C432 1.350 . S
H435 C430 0.930 . S
H436 C431 0.930 . S
C437 O438 1.224 . S
C437 O456 1.247 . S
O438 C437 1.224 . S
N439 Co429 2.128 . S
N439 C440 1.355 . S
N439 C442 1.311 . S
C440 N439 1.355 . S
C440 C441 1.363 . S
C440 H452 0.929 . S
C441 C440 1.363 . S
C441 N443 1.375 . S
C441 H459 0.931 . S
C442 N439 1.311 . S
C442 N443 1.347 . S
C442 H453 0.929 . S
N443 C441 1.375 . S
N443 C442 1.347 . S
C444 C447 1.365 . S
C444 N449 1.328 . S
C444 H450 0.929 1_556 S
C445 C446 1.362 . S
C445 C448 1.378 . S
C445 H460 0.929 . S
C446 C445 1.362 . S
C446 C447 1.366 . S
C447 C444 1.365 . S
C447 C446 1.366 . S
C447 H461 0.930 1_556 S
C448 C445 1.378 . S
C448 N449 1.315 . S
C448 H451 0.930 . S
N449 Co429 2.194 . S
N449 C444 1.328 . S
N449 C448 1.315 . S
H450 C444 0.929 1_554 S
H451 C448 0.930 . S
H452 C440 0.929 . S
H453 C442 0.929 . S
O454 Co429 2.351 . S
O454 C457 1.244 . S
O455 Co429 2.155 . S
O455 C457 1.240 . S
O456 Co429 2.096 . S
O456 C437 1.247 . S
C457 O454 1.244 . S
C457 O455 1.240 . S
H458 C432 0.931 . S
H459 C441 0.931 . S
H460 C445 0.929 . S
H461 C447 0.930 1_554 S
Co462 N466 2.148 . S
Co462 N472 2.128 . S
Co462 N482 2.194 . S
Co462 O487 2.351 . S
Co462 O488 2.155 . S
Co462 O489 2.096 . S
C463 N466 1.301 . S
C463 N467 1.328 . S
C463 H468 0.930 . S
C464 C465 1.333 . S
C464 N466 1.317 . S
C464 H469 0.930 . S
C465 C464 1.333 . S
C465 N467 1.350 . S
C465 H491 0.931 . S
N466 Co462 2.148 . S
N466 C463 1.301 . S
N466 C464 1.317 . S
N467 C463 1.328 . S
N467 C465 1.350 . S
H468 C463 0.930 . S
H469 C464 0.930 . S
C470 O471 1.224 . S
C470 O489 1.247 . S
O471 C470 1.224 . S
N472 Co462 2.128 . S
N472 C473 1.355 . S
N472 C475 1.311 . S
C473 N472 1.355 . S
C473 C474 1.363 . S
C473 H485 0.929 . S
C474 C473 1.363 . S
C474 N476 1.375 . S
C474 H492 0.931 . S
C475 N472 1.311 . S
C475 N476 1.347 . S
C475 H486 0.929 . S
N476 C474 1.375 . S
N476 C475 1.347 . S
C477 C480 1.365 . S
C477 N482 1.328 . S
C477 H483 0.929 . S
C478 C479 1.362 . S
C478 C481 1.378 . S
C478 H493 0.929 . S
C479 C478 1.362 . S
C479 C480 1.366 . S
C480 C477 1.365 . S
C480 C479 1.366 . S
C480 H494 0.930 . S
C481 C478 1.378 . S
C481 N482 1.315 . S
C481 H484 0.930 . S
N482 Co462 2.194 . S
N482 C477 1.328 . S
N482 C481 1.315 . S
H483 C477 0.929 . S
H484 C481 0.930 . S
H485 C473 0.929 . S
H486 C475 0.929 . S
O487 Co462 2.351 . S
O487 C490 1.244 . S
O488 Co462 2.155 . S
O488 C490 1.240 . S
O489 Co462 2.096 . S
O489 C470 1.247 . S
C490 O487 1.244 . S
C490 O488 1.240 . S
H491 C465 0.931 . S
H492 C474 0.931 . S
H493 C478 0.929 . S
H494 C480 0.930 . S
Co495 N499 2.148 . S
Co495 N505 2.128 . S
Co495 N515 2.194 . S
Co495 O520 2.351 . S
Co495 O521 2.155 . S
Co495 O522 2.096 . S
C496 N499 1.301 1_554 S
C496 N500 1.328 . S
C496 H501 0.930 . S
C497 C498 1.333 1_556 S
C497 N499 1.317 . S
C497 H502 0.930 . S
C498 C497 1.333 1_554 S
C498 N500 1.350 . S
C498 H524 0.931 . S
N499 Co495 2.148 . S
N499 C496 1.301 1_556 S
N499 C497 1.317 . S
N500 C496 1.328 . S
N500 C498 1.350 . S
H501 C496 0.930 . S
H502 C497 0.930 . S
C503 O504 1.224 . S
C503 O522 1.247 . S
O504 C503 1.224 . S
N505 Co495 2.128 . S
N505 C506 1.355 1_455 S
N505 C508 1.311 . S
C506 N505 1.355 1_655 S
C506 C507 1.363 . S
C506 H518 0.929 . S
C507 C506 1.363 . S
C507 N509 1.375 . S
C507 H525 0.931 . S
C508 N505 1.311 . S
C508 N509 1.347 1_455 S
C508 H519 0.929 . S
N509 C507 1.375 . S
N509 C508 1.347 1_655 S
C510 C513 1.365 . S
C510 N515 1.328 . S
C510 H516 0.929 1_556 S
C511 C512 1.362 . S
C511 C514 1.378 . S
C511 H526 0.929 . S
C512 C511 1.362 . S
C512 C513 1.366 . S
C513 C510 1.365 . S
C513 C512 1.366 . S
C513 H527 0.930 1_556 S
C514 C511 1.378 . S
C514 N515 1.315 . S
C514 H517 0.930 . S
N515 Co495 2.194 . S
N515 C510 1.328 . S
N515 C514 1.315 . S
H516 C510 0.929 1_554 S
H517 C514 0.930 . S
H518 C506 0.929 . S
H519 C508 0.929 . S
O520 Co495 2.351 . S
O520 C523 1.244 . S
O521 Co495 2.155 . S
O521 C523 1.240 . S
O522 Co495 2.096 . S
O522 C503 1.247 . S
C523 O520 1.244 . S
C523 O521 1.240 . S
H524 C498 0.931 . S
H525 C507 0.931 . S
H526 C511 0.929 . S
H527 C513 0.930 1_554 S
H528 C534 0.930 . S
H529 C538 0.930 . S
H530 C543 0.929 . S
H531 C541 0.929 . S
H532 C536 0.930 . S
H533 C542 0.930 . S
C534 H528 0.930 . S
C534 C535 1.367 . S
C534 C542 1.378 1_565 S
C535 C534 1.367 . S
C535 C543 1.433 . S
C536 H532 0.930 . S
C536 C538 1.378 1_565 S
C536 C540 1.348 1_565 S
C537 C540 1.463 1_665 S
C537 C542 1.348 1_565 S
C537 N545 1.427 . S
C538 H529 0.930 . S
C538 C536 1.378 1_545 S
C538 C539 1.367 . S
C539 C538 1.367 . S
C539 C541 1.433 . S
C540 C536 1.348 1_545 S
C540 C537 1.463 1_445 S
C540 N544 1.427 . S
C541 H531 0.929 . S
C541 C539 1.433 . S
C541 N544 1.384 . S
C542 H533 0.930 . S
C542 C534 1.378 1_545 S
C542 C537 1.348 1_545 S
C543 H530 0.929 . S
C543 C535 1.433 . S
C543 N545 1.384 . S
N544 C540 1.427 . S
N544 C541 1.384 . S
N545 C537 1.427 . S
N545 C543 1.384 . S
H546 C552 0.930 . S
H547 C556 0.930 . S
H548 C561 0.929 . S
H549 C559 0.929 . S
H550 C554 0.929 . S
H551 C560 0.929 . S
C552 H546 0.930 . S
C552 C553 1.367 . S
C552 C560 1.378 . S
C553 C552 1.367 . S
C553 C561 1.433 1_554 S
C554 H550 0.929 . S
C554 C556 1.378 . S
C554 C558 1.350 . S
C555 C558 1.463 1_544 S
C555 C560 1.350 . S
C555 N563 1.427 1_554 S
C556 H547 0.930 . S
C556 C554 1.378 . S
C556 C557 1.367 . S
C557 C556 1.367 . S
C557 C559 1.433 1_556 S
C558 C554 1.350 . S
C558 C555 1.463 1_566 S
C558 N562 1.427 1_556 S
C559 H549 0.929 . S
C559 C557 1.433 1_554 S
C559 N562 1.384 . S
C560 H551 0.929 . S
C560 C552 1.378 . S
C560 C555 1.350 . S
C561 H548 0.929 . S
C561 C553 1.433 1_556 S
C561 N563 1.384 . S
N562 C558 1.427 1_554 S
N562 C559 1.384 . S
N563 C555 1.427 1_556 S
N563 C561 1.384 . S
H564 C570 0.930 . S
H565 C574 0.930 . S
H566 C579 0.929 . S
H567 C577 0.929 . S
H568 C572 0.929 . S
H569 C578 0.929 . S
C570 H564 0.930 . S
C570 C571 1.367 . S
C570 C578 1.378 . S
C571 C570 1.367 . S
C571 C579 1.433 . S
C572 H568 0.929 . S
C572 C574 1.378 . S
C572 C576 1.350 . S
C573 C576 1.463 . S
C573 C578 1.350 . S
C573 N581 1.427 . S
C574 H565 0.930 . S
C574 C572 1.378 . S
C574 C575 1.367 . S
C575 C574 1.367 . S
C575 C577 1.433 . S
C576 C572 1.350 . S
C576 C573 1.463 . S
C576 N580 1.427 . S
C577 H567 0.929 . S
C577 C575 1.433 . S
C577 N580 1.384 . S
C578 H569 0.929 . S
C578 C570 1.378 . S
C578 C573 1.350 . S
C579 H566 0.929 . S
C579 C571 1.433 . S
C579 N581 1.384 . S
N580 C576 1.427 . S
N580 C577 1.384 . S
N581 C573 1.427 . S
N581 C579 1.384 . S
H582 C588 0.930 . S
H583 C592 0.930 . S
H584 C597 0.889 1_655 S
H585 C595 0.929 1_455 S
H586 C590 0.929 . S
H587 C596 0.929 . S
C588 H582 0.930 . S
C588 C589 1.367 . S
C588 C596 1.378 . S
C589 C588 1.367 . S
C589 C597 1.483 . S
C590 H586 0.929 . S
C590 C592 1.378 . S
C590 C594 1.350 . S
C591 C594 1.463 1_456 S
C591 C596 1.350 . S
C591 N599 1.427 1_455 S
C592 H583 0.930 . S
C592 C590 1.378 . S
C592 C593 1.367 . S
C593 C592 1.367 . S
C593 C595 1.433 . S
C594 C590 1.350 . S
C594 C591 1.463 1_654 S
C594 N598 1.427 1_655 S
C595 H585 0.929 1_655 S
C595 C593 1.433 . S
C595 N598 1.384 1_655 S
C596 H587 0.929 . S
C596 C588 1.378 . S
C596 C591 1.350 . S
C597 H584 0.889 1_455 S
C597 C589 1.483 . S
C597 N599 1.377 1_455 S
N598 C594 1.427 1_455 S
N598 C595 1.384 1_455 S
N599 C591 1.427 1_655 S
N599 C597 1.377 1_655 S
H600 C606 0.930 1_565 S
H601 C610 0.930 1_545 S
H602 C615 0.929 . S
H603 C613 0.929 . S
H604 C608 0.929 . S
H605 C614 0.929 . S
C606 H600 0.930 1_545 S
C606 C607 1.367 . S
C606 C614 1.378 1_545 S
C607 C606 1.367 . S
C607 C615 1.433 . S
C608 H604 0.929 . S
C608 C610 1.378 1_545 S
C608 C612 1.350 1_545 S
C609 C612 1.463 1_545 S
C609 C614 1.350 1_545 S
C609 N617 1.427 . S
C610 H601 0.930 1_565 S
C610 C608 1.378 1_565 S
C610 C611 1.367 . S
C611 C610 1.367 . S
C611 C613 1.433 . S
C612 C608 1.350 1_565 S
C612 C609 1.463 1_565 S
C612 N616 1.427 . S
C613 H603 0.929 . S
C613 C611 1.433 . S
C613 N616 1.384 . S
C614 H605 0.929 . S
C614 C606 1.378 1_565 S
C614 C609 1.350 1_565 S
C615 H602 0.929 . S
C615 C607 1.433 . S
C615 N617 1.384 . S
N616 C612 1.427 . S
N616 C613 1.384 . S
N617 C609 1.427 . S
N617 C615 1.384 . S
H618 C624 0.930 . S
H619 C628 0.930 . S
H620 C633 0.929 . S
H621 C631 0.929 . S
H622 C626 0.929 . S
H623 C632 0.929 . S
C624 H618 0.930 . S
C624 C625 1.367 . S
C624 C632 1.378 . S
C625 C624 1.367 . S
C625 C633 1.433 1_556 S
C626 H622 0.929 . S
C626 C628 1.378 . S
C626 C630 1.353 . S
C627 C630 1.462 1_556 S
C627 C632 1.353 . S
C627 N635 1.425 1_556 S
C628 H619 0.930 . S
C628 C626 1.378 . S
C628 C629 1.367 . S
C629 C628 1.367 . S
C629 C631 1.433 1_554 S
C630 C626 1.353 . S
C630 C627 1.462 1_554 S
C630 N634 1.425 1_554 S
C631 H621 0.929 . S
C631 C629 1.433 1_556 S
C631 N634 1.384 . S
C632 H623 0.929 . S
C632 C624 1.378 . S
C632 C627 1.353 . S
C633 H620 0.929 . S
C633 C625 1.433 1_554 S
C633 N635 1.384 . S
N634 C630 1.425 1_556 S
N634 C631 1.384 . S
N635 C627 1.425 1_554 S
N635 C633 1.384 . S
H636 C642 0.930 . S
H637 C646 0.930 . S
H638 C651 0.929 . S
H639 C649 0.929 . S
H640 C644 0.929 . S
H641 C650 0.929 . S
C642 H636 0.930 . S
C642 C643 1.367 . S
C642 C650 1.378 . S
C643 C642 1.367 . S
C643 C651 1.433 . S
C644 H640 0.929 . S
C644 C646 1.378 . S
C644 C648 1.350 . S
C645 C648 1.463 1_655 S
C645 C650 1.350 . S
C645 N653 1.427 . S
C646 H637 0.930 . S
C646 C644 1.378 . S
C646 C647 1.367 . S
C647 C646 1.367 . S
C647 C649 1.433 . S
C648 C644 1.350 . S
C648 C645 1.463 1_455 S
C648 N652 1.427 . S
C649 H639 0.929 . S
C649 C647 1.433 . S
C649 N652 1.384 . S
C650 H641 0.929 . S
C650 C642 1.378 . S
C650 C645 1.350 . S
C651 H638 0.929 . S
C651 C643 1.433 . S
C651 N653 1.384 . S
N652 C648 1.427 . S
N652 C649 1.384 . S
N653 C645 1.427 . S
N653 C651 1.384 . S
H654 C660 0.930 1_455 S
H655 C664 0.930 1_655 S
H656 C669 0.929 . S
H657 C667 0.929 . S
H658 C662 0.929 . S
H659 C668 0.929 . S
C660 H654 0.930 1_655 S
C660 C661 1.367 1_554 S
C660 C668 1.378 1_655 S
C661 C660 1.367 1_556 S
C661 C669 1.433 . S
C662 H658 0.929 . S
C662 C664 1.378 1_655 S
C662 C666 1.352 1_656 S
C663 C666 1.462 1_666 S
C663 C668 1.352 1_656 S
C663 N671 1.425 . S
C664 H655 0.930 1_455 S
C664 C662 1.378 1_455 S
C664 C665 1.367 1_556 S
C665 C664 1.367 1_554 S
C665 C667 1.433 . S
C666 C662 1.352 1_454 S
C666 C663 1.462 1_444 S
C666 N670 1.425 . S
C667 H657 0.929 . S
C667 C665 1.433 . S
C667 N670 1.384 . S
C668 H659 0.929 . S
C668 C660 1.378 1_455 S
C668 C663 1.352 1_454 S
C669 H656 0.929 . S
C669 C661 1.433 . S
C669 N671 1.384 . S
N670 C666 1.425 . S
N670 C667 1.384 . S
N671 C663 1.425 . S
N671 C669 1.384 . S
H672 C678 0.930 . S
H673 C682 0.930 . S
H674 C687 0.929 . S
H675 C685 0.929 . S
H676 C680 0.929 . S
H677 C686 0.929 . S
C678 H672 0.930 . S
C678 C679 1.367 . S
C678 C686 1.378 . S
C679 C678 1.367 . S
C679 C687 1.433 . S
C680 H676 0.929 . S
C680 C682 1.378 . S
C680 C684 1.350 . S
C681 C684 1.463 . S
C681 C686 1.350 . S
C681 N689 1.427 . S
C682 H673 0.930 . S
C682 C680 1.378 . S
C682 C683 1.367 . S
C683 C682 1.367 . S
C683 C685 1.433 . S
C684 C680 1.350 . S
C684 C681 1.463 . S
C684 N688 1.427 . S
C685 H675 0.929 . S
C685 C683 1.433 . S
C685 N688 1.384 . S
C686 H677 0.929 . S
C686 C678 1.378 . S
C686 C681 1.350 . S
C687 H674 0.929 . S
C687 C679 1.433 . S
C687 N689 1.384 . S
N688 C684 1.427 . S
N688 C685 1.384 . S
N689 C681 1.427 . S
N689 C687 1.384 . S
H690 C696 0.930 . S
H691 C700 0.930 . S
H692 C705 0.929 . S
H693 C703 0.929 . S
H694 C698 0.929 . S
H695 C704 0.929 . S
C696 H690 0.930 . S
C696 C697 1.367 . S
C696 C704 1.378 . S
C697 C696 1.367 . S
C697 C705 1.433 . S
C698 H694 0.929 . S
C698 C700 1.378 . S
C698 C702 1.350 . S
C699 C702 1.463 . S
C699 C704 1.350 . S
C699 N707 1.427 . S
C700 H691 0.930 . S
C700 C698 1.378 . S
C700 C701 1.367 . S
C701 C700 1.367 . S
C701 C703 1.433 . S
C702 C698 1.350 . S
C702 C699 1.463 . S
C702 N706 1.427 . S
C703 H693 0.929 . S
C703 C701 1.433 . S
C703 N706 1.384 . S
C704 H695 0.929 . S
C704 C696 1.378 . S
C704 C699 1.350 . S
C705 H692 0.929 . S
C705 C697 1.433 . S
C705 N707 1.384 . S
N706 C702 1.427 . S
N706 C703 1.384 . S
N707 C699 1.427 . S
N707 C705 1.384 . S
H708 C714 0.930 . S
H709 C718 0.930 . S
H710 C723 0.929 . S
H711 C721 0.929 . S
H712 C716 0.929 . S
H713 C722 0.929 . S
C714 H708 0.930 . S
C714 C715 1.367 . S
C714 C722 1.378 . S
C715 C714 1.367 . S
C715 C723 1.433 . S
C716 H712 0.929 . S
C716 C718 1.378 . S
C716 C720 1.350 . S
C717 C720 1.463 . S
C717 C722 1.350 . S
C717 N725 1.427 . S
C718 H709 0.930 . S
C718 C716 1.378 . S
C718 C719 1.367 . S
C719 C718 1.367 . S
C719 C721 1.433 . S
C720 C716 1.350 . S
C720 C717 1.463 . S
C720 N724 1.427 . S
C721 H711 0.929 . S
C721 C719 1.433 . S
C721 N724 1.384 . S
C722 H713 0.929 . S
C722 C714 1.378 . S
C722 C717 1.350 . S
C723 H710 0.929 . S
C723 C715 1.433 . S
C723 N725 1.384 . S
N724 C720 1.427 . S
N724 C721 1.384 . S
N725 C717 1.427 . S
N725 C723 1.384 . S
H726 C732 0.930 . S
H727 C736 0.930 . S
H728 C741 0.929 . S
H729 C739 0.929 . S
H730 C734 0.929 . S
H731 C740 0.929 . S
C732 H726 0.930 . S
C732 C733 1.367 . S
C732 C740 1.378 . S
C733 C732 1.367 . S
C733 C741 1.433 . S
C734 H730 0.929 . S
C734 C736 1.378 . S
C734 C738 1.350 . S
C735 C738 1.463 . S
C735 C740 1.350 . S
C735 N743 1.427 . S
C736 H727 0.930 . S
C736 C734 1.378 . S
C736 C737 1.367 . S
C737 C736 1.367 . S
C737 C739 1.433 . S
C738 C734 1.350 . S
C738 C735 1.463 . S
C738 N742 1.427 . S
C739 H729 0.929 . S
C739 C737 1.433 . S
C739 N742 1.384 . S
C740 H731 0.929 . S
C740 C732 1.378 . S
C740 C735 1.350 . S
C741 H728 0.929 . S
C741 C733 1.433 . S
C741 N743 1.384 . S
N742 C738 1.427 . S
N742 C739 1.384 . S
N743 C735 1.427 . S
N743 C741 1.384 . S
H744 C750 0.930 . S
H745 C754 0.930 . S
H746 C759 0.929 . S
H747 C757 0.929 . S
H748 C752 0.929 . S
H749 C758 0.929 . S
C750 H744 0.930 . S
C750 C751 1.367 . S
C750 C758 1.378 . S
C751 C750 1.367 . S
C751 C759 1.433 . S
C752 H748 0.929 . S
C752 C754 1.378 . S
C752 C756 1.350 . S
C753 C756 1.463 . S
C753 C758 1.350 . S
C753 N761 1.427 . S
C754 H745 0.930 . S
C754 C752 1.378 . S
C754 C755 1.367 . S
C755 C754 1.367 . S
C755 C757 1.433 . S
C756 C752 1.350 . S
C756 C753 1.463 . S
C756 N760 1.427 . S
C757 H747 0.929 . S
C757 C755 1.433 . S
C757 N760 1.384 . S
C758 H749 0.929 . S
C758 C750 1.378 . S
C758 C753 1.350 . S
C759 H746 0.929 . S
C759 C751 1.433 . S
C759 N761 1.384 . S
N760 C756 1.427 . S
N760 C757 1.384 . S
N761 C753 1.427 . S
N761 C759 1.384 . S
H762 C768 0.930 . S
H763 C772 0.930 . S
H764 C777 0.929 . S
H765 C775 0.929 . S
H766 C770 0.929 . S
H767 C776 0.929 . S
C768 H762 0.930 . S
C768 C769 1.367 . S
C768 C776 1.378 . S
C769 C768 1.367 . S
C769 C777 1.433 . S
C770 H766 0.929 . S
C770 C772 1.378 . S
C770 C774 1.350 . S
C771 C774 1.463 . S
C771 C776 1.350 . S
C771 N779 1.427 . S
C772 H763 0.930 . S
C772 C770 1.378 . S
C772 C773 1.367 . S
C773 C772 1.367 . S
C773 C775 1.433 . S
C774 C770 1.350 . S
C774 C771 1.463 . S
C774 N778 1.427 . S
C775 H765 0.929 . S
C775 C773 1.433 . S
C775 N778 1.384 . S
C776 H767 0.929 . S
C776 C768 1.378 . S
C776 C771 1.350 . S
C777 H764 0.929 . S
C777 C769 1.433 . S
C777 N779 1.384 . S
N778 C774 1.427 . S
N778 C775 1.384 . S
N779 C771 1.427 . S
N779 C777 1.384 . S
H780 C786 0.930 . S
H781 C790 0.930 . S
H782 C795 0.929 . S
H783 C793 0.929 . S
H784 C788 0.929 . S
H785 C794 0.929 . S
C786 H780 0.930 . S
C786 C787 1.367 . S
C786 C794 1.378 . S
C787 C786 1.367 . S
C787 C795 1.433 . S
C788 H784 0.929 . S
C788 C790 1.378 . S
C788 C792 1.350 . S
C789 C792 1.463 . S
C789 C794 1.350 . S
C789 N797 1.427 . S
C790 H781 0.930 . S
C790 C788 1.378 . S
C790 C791 1.367 . S
C791 C790 1.367 . S
C791 C793 1.433 . S
C792 C788 1.350 . S
C792 C789 1.463 . S
C792 N796 1.427 . S
C793 H783 0.929 . S
C793 C791 1.433 . S
C793 N796 1.384 . S
C794 H785 0.929 . S
C794 C786 1.378 . S
C794 C789 1.350 . S
C795 H782 0.929 . S
C795 C787 1.433 . S
C795 N797 1.384 . S
N796 C792 1.427 . S
N796 C793 1.384 . S
N797 C789 1.427 . S
N797 C795 1.384 . S
H798 C804 0.930 . S
H799 C808 0.930 . S
H800 C813 0.929 . S
H801 C811 0.929 . S
H802 C806 0.929 . S
H803 C812 0.929 . S
C804 H798 0.930 . S
C804 C805 1.367 . S
C804 C812 1.378 . S
C805 C804 1.367 . S
C805 C813 1.433 . S
C806 H802 0.929 . S
C806 C808 1.378 . S
C806 C810 1.350 . S
C807 C810 1.463 . S
C807 C812 1.350 . S
C807 N815 1.427 . S
C808 H799 0.930 . S
C808 C806 1.378 . S
C808 C809 1.367 . S
C809 C808 1.367 . S
C809 C811 1.433 . S
C810 C806 1.350 . S
C810 C807 1.463 . S
C810 N814 1.427 . S
C811 H801 0.929 . S
C811 C809 1.433 . S
C811 N814 1.384 . S
C812 H803 0.929 . S
C812 C804 1.378 . S
C812 C807 1.350 . S
C813 H800 0.929 . S
C813 C805 1.433 . S
C813 N815 1.384 . S
N814 C810 1.427 . S
N814 C811 1.384 . S
N815 C807 1.427 . S
N815 C813 1.384 . S
H816 C822 0.930 . S
H817 C826 0.930 . S
H818 C831 0.929 . S
H819 C829 0.929 . S
H820 C824 0.929 . S
H821 C830 0.929 . S
C822 H816 0.930 . S
C822 C823 1.367 . S
C822 C830 1.378 . S
C823 C822 1.367 . S
C823 C831 1.433 . S
C824 H820 0.929 . S
C824 C826 1.378 . S
C824 C828 1.350 . S
C825 C828 1.463 . S
C825 C830 1.350 . S
C825 N833 1.427 . S
C826 H817 0.930 . S
C826 C824 1.378 . S
C826 C827 1.367 . S
C827 C826 1.367 . S
C827 C829 1.433 . S
C828 C824 1.350 . S
C828 C825 1.463 . S
C828 N832 1.427 . S
C829 H819 0.929 . S
C829 C827 1.433 . S
C829 N832 1.384 . S
C830 H821 0.929 . S
C830 C822 1.378 . S
C830 C825 1.350 . S
C831 H818 0.929 . S
C831 C823 1.433 . S
C831 N833 1.384 . S
N832 C828 1.427 . S
N832 C829 1.384 . S
N833 C825 1.427 . S
N833 C831 1.384 . S
H834 C840 0.930 . S
H835 C844 0.930 . S
H836 C849 0.929 . S
H837 C847 0.929 . S
H838 C842 0.929 . S
H839 C848 0.929 . S
C840 H834 0.930 . S
C840 C841 1.367 . S
C840 C848 1.378 . S
C841 C840 1.367 . S
C841 C849 1.433 . S
C842 H838 0.929 . S
C842 C844 1.378 . S
C842 C846 1.350 . S
C843 C846 1.463 . S
C843 C848 1.350 . S
C843 N851 1.427 . S
C844 H835 0.930 . S
C844 C842 1.378 . S
C844 C845 1.367 . S
C845 C844 1.367 . S
C845 C847 1.433 . S
C846 C842 1.350 . S
C846 C843 1.463 . S
C846 N850 1.427 . S
C847 H837 0.929 . S
C847 C845 1.433 . S
C847 N850 1.384 . S
C848 H839 0.929 . S
C848 C840 1.378 . S
C848 C843 1.350 . S
C849 H836 0.929 . S
C849 C841 1.433 . S
C849 N851 1.384 . S
N850 C846 1.427 . S
N850 C847 1.384 . S
N851 C843 1.427 . S
N851 C849 1.384 . S
H852 C858 0.930 . S
H853 C862 0.930 . S
H854 C867 0.929 . S
H855 C865 0.929 . S
H856 C860 0.929 . S
H857 C866 0.929 . S
C858 H852 0.930 . S
C858 C859 1.367 . S
C858 C866 1.378 . S
C859 C858 1.367 . S
C859 C867 1.433 . S
C860 H856 0.929 . S
C860 C862 1.378 . S
C860 C864 1.350 . S
C861 C864 1.463 . S
C861 C866 1.350 . S
C861 N869 1.427 . S
C862 H853 0.930 . S
C862 C860 1.378 . S
C862 C863 1.367 . S
C863 C862 1.367 . S
C863 C865 1.433 . S
C864 C860 1.350 . S
C864 C861 1.463 . S
C864 N868 1.427 . S
C865 H855 0.929 . S
C865 C863 1.433 . S
C865 N868 1.384 . S
C866 H857 0.929 . S
C866 C858 1.378 . S
C866 C861 1.350 . S
C867 H854 0.929 . S
C867 C859 1.433 . S
C867 N869 1.384 . S
N868 C864 1.427 . S
N868 C865 1.384 . S
N869 C861 1.427 . S
N869 C867 1.384 . S
H870 C876 0.930 . S
H871 C880 0.930 . S
H872 C885 0.929 . S
H873 C883 0.929 . S
H874 C878 0.929 . S
H875 C884 0.929 . S
C876 H870 0.930 . S
C876 C877 1.367 . S
C876 C884 1.378 . S
C877 C876 1.367 . S
C877 C885 1.433 . S
C878 H874 0.929 . S
C878 C880 1.378 . S
C878 C882 1.350 . S
C879 C882 1.463 . S
C879 C884 1.350 . S
C879 N887 1.427 . S
C880 H871 0.930 . S
C880 C878 1.378 . S
C880 C881 1.367 . S
C881 C880 1.367 . S
C881 C883 1.433 . S
C882 C878 1.350 . S
C882 C879 1.463 . S
C882 N886 1.427 . S
C883 H873 0.929 . S
C883 C881 1.433 . S
C883 N886 1.384 . S
C884 H875 0.929 . S
C884 C876 1.378 . S
C884 C879 1.350 . S
C885 H872 0.929 . S
C885 C877 1.433 . S
C885 N887 1.384 . S
N886 C882 1.427 . S
N886 C883 1.384 . S
N887 C879 1.427 . S
N887 C885 1.384 . S
H888 C894 0.930 . S
H889 C898 0.930 . S
H890 C903 0.929 . S
H891 C901 0.929 . S
H892 C896 0.929 . S
H893 C902 0.929 . S
C894 H888 0.930 . S
C894 C895 1.367 . S
C894 C902 1.378 . S
C895 C894 1.367 . S
C895 C903 1.433 . S
C896 H892 0.929 . S
C896 C898 1.378 . S
C896 C900 1.350 . S
C897 C900 1.463 . S
C897 C902 1.350 . S
C897 N905 1.427 . S
C898 H889 0.930 . S
C898 C896 1.378 . S
C898 C899 1.367 . S
C899 C898 1.367 . S
C899 C901 1.433 . S
C900 C896 1.350 . S
C900 C897 1.463 . S
C900 N904 1.427 . S
C901 H891 0.929 . S
C901 C899 1.433 . S
C901 N904 1.384 . S
C902 H893 0.929 . S
C902 C894 1.378 . S
C902 C897 1.350 . S
C903 H890 0.929 . S
C903 C895 1.433 . S
C903 N905 1.384 . S
N904 C900 1.427 . S
N904 C901 1.384 . S
N905 C897 1.427 . S
N905 C903 1.384 . S
H906 C912 0.930 . S
H907 C916 0.930 . S
H908 C921 0.929 . S
H909 C919 0.929 . S
H910 C914 0.929 . S
H911 C920 0.929 . S
C912 H906 0.930 . S
C912 C913 1.367 . S
C912 C920 1.378 . S
C913 C912 1.367 . S
C913 C921 1.433 . S
C914 H910 0.929 . S
C914 C916 1.378 . S
C914 C918 1.350 . S
C915 C918 1.463 . S
C915 C920 1.350 . S
C915 N923 1.427 . S
C916 H907 0.930 . S
C916 C914 1.378 . S
C916 C917 1.367 . S
C917 C916 1.367 . S
C917 C919 1.433 . S
C918 C914 1.350 . S
C918 C915 1.463 . S
C918 N922 1.427 . S
C919 H909 0.929 . S
C919 C917 1.433 . S
C919 N922 1.384 . S
C920 H911 0.929 . S
C920 C912 1.378 . S
C920 C915 1.350 . S
C921 H908 0.929 . S
C921 C913 1.433 . S
C921 N923 1.384 . S
N922 C918 1.427 . S
N922 C919 1.384 . S
N923 C915 1.427 . S
N923 C921 1.384 . S
H924 C930 0.930 . S
H925 C934 0.930 . S
H926 C939 0.929 . S
H927 C937 0.929 . S
H928 C932 0.929 . S
H929 C938 0.929 . S
C930 H924 0.930 . S
C930 C931 1.367 . S
C930 C938 1.378 . S
C931 C930 1.367 . S
C931 C939 1.433 . S
C932 H928 0.929 . S
C932 C934 1.378 . S
C932 C936 1.350 . S
C933 C936 1.463 . S
C933 C938 1.350 . S
C933 N941 1.427 . S
C934 H925 0.930 . S
C934 C932 1.378 . S
C934 C935 1.367 . S
C935 C934 1.367 . S
C935 C937 1.433 . S
C936 C932 1.350 . S
C936 C933 1.463 . S
C936 N940 1.427 . S
C937 H927 0.929 . S
C937 C935 1.433 . S
C937 N940 1.384 . S
C938 H929 0.929 . S
C938 C930 1.378 . S
C938 C933 1.350 . S
C939 H926 0.929 . S
C939 C931 1.433 . S
C939 N941 1.384 . S
N940 C936 1.427 . S
N940 C937 1.384 . S
N941 C933 1.427 . S
N941 C939 1.384 . S
H942 C948 0.930 . S
H943 C952 0.930 . S
H944 C957 0.929 . S
H945 C955 0.929 . S
H946 C950 0.929 . S
H947 C956 0.929 . S
C948 H942 0.930 . S
C948 C949 1.367 . S
C948 C956 1.378 . S
C949 C948 1.367 . S
C949 C957 1.433 . S
C950 H946 0.929 . S
C950 C952 1.378 . S
C950 C954 1.350 . S
C951 C954 1.463 . S
C951 C956 1.350 . S
C951 N959 1.427 . S
C952 H943 0.930 . S
C952 C950 1.378 . S
C952 C953 1.367 . S
C953 C952 1.367 . S
C953 C955 1.433 . S
C954 C950 1.350 . S
C954 C951 1.463 . S
C954 N958 1.427 . S
C955 H945 0.929 . S
C955 C953 1.433 . S
C955 N958 1.384 . S
C956 H947 0.929 . S
C956 C948 1.378 . S
C956 C951 1.350 . S
C957 H944 0.929 . S
C957 C949 1.433 . S
C957 N959 1.384 . S
N958 C954 1.427 . S
N958 C955 1.384 . S
N959 C951 1.427 . S
N959 C957 1.384 . S
H960 C966 0.930 1_655 S
H961 C970 0.930 . S
H962 C975 0.929 . S
H963 C973 0.927 1_545 S
H964 C968 0.929 . S
H965 C974 0.929 . S
C966 H960 0.930 1_455 S
C966 C967 1.367 . S
C966 C974 1.378 . S
C967 C966 1.367 . S
C967 C975 1.433 . S
C968 H964 0.929 . S
C968 C970 1.378 . S
C968 C972 1.350 . S
C969 C972 1.463 . S
C969 C974 1.350 . S
C969 N977 1.427 . S
C970 H961 0.930 . S
C970 C968 1.378 . S
C970 C971 1.367 . S
C971 C970 1.367 . S
C971 C973 1.435 . S
C972 C968 1.350 . S
C972 C969 1.463 . S
C972 N976 1.427 . S
C973 H963 0.927 1_565 S
C973 C971 1.435 . S
C973 N976 1.385 . S
C974 H965 0.929 . S
C974 C966 1.378 . S
C974 C969 1.350 . S
C975 H962 0.929 . S
C975 C967 1.433 . S
C975 N977 1.384 . S
N976 C972 1.427 . S
N976 C973 1.385 . S
N977 C969 1.427 . S
N977 C975 1.384 . S
H978 C984 0.930 . S
H979 C988 0.930 . S
H980 C993 0.929 . S
H981 C991 0.929 . S
H982 C986 0.929 . S
H983 C992 0.929 . S
C984 H978 0.930 . S
C984 C985 1.367 . S
C984 C992 1.378 . S
C985 C984 1.367 . S
C985 C993 1.433 . S
C986 H982 0.929 . S
C986 C988 1.378 . S
C986 C990 1.350 . S
C987 C990 1.463 . S
C987 C992 1.350 . S
C987 N995 1.427 . S
C988 H979 0.930 . S
C988 C986 1.378 . S
C988 C989 1.367 . S
C989 C988 1.367 . S
C989 C991 1.433 . S
C990 C986 1.350 . S
C990 C987 1.463 . S
C990 N994 1.427 . S
C991 H981 0.929 . S
C991 C989 1.433 . S
C991 N994 1.384 . S
C992 H983 0.929 . S
C992 C984 1.378 . S
C992 C987 1.350 . S
C993 H980 0.929 . S
C993 C985 1.433 . S
C993 N995 1.384 . S
N994 C990 1.427 . S
N994 C991 1.384 . S
N995 C987 1.427 . S
N995 C993 1.384 . S
H996 C1002 0.930 . S
H997 C1006 0.930 . S
H998 C1011 0.929 . S
H999 C1009 0.929 . S
H1000 C1004 0.929 . S
H1001 C1010 0.929 . S
C1002 H996 0.930 . S
C1002 C1003 1.367 . S
C1002 C1010 1.378 . S
C1003 C1002 1.367 . S
C1003 C1011 1.433 . S
C1004 H1000 0.929 . S
C1004 C1006 1.378 . S
C1004 C1008 1.350 . S
C1005 C1008 1.463 . S
C1005 C1010 1.350 . S
C1005 N1013 1.427 . S
C1006 H997 0.930 . S
C1006 C1004 1.378 . S
C1006 C1007 1.367 . S
C1007 C1006 1.367 . S
C1007 C1009 1.433 . S
C1008 C1004 1.350 . S
C1008 C1005 1.463 . S
C1008 N1012 1.427 . S
C1009 H999 0.929 . S
C1009 C1007 1.433 . S
C1009 N1012 1.384 . S
C1010 H1001 0.929 . S
C1010 C1002 1.378 . S
C1010 C1005 1.350 . S
C1011 H998 0.929 . S
C1011 C1003 1.433 . S
C1011 N1013 1.384 . S
N1012 C1008 1.427 . S
N1012 C1009 1.384 . S
N1013 C1005 1.427 . S
N1013 C1011 1.384 . S
H1014 C1020 0.930 . S
H1015 C1024 0.930 . S
H1016 C1029 0.929 . S
H1017 C1027 0.929 . S
H1018 C1022 0.929 . S
H1019 C1028 0.929 . S
C1020 H1014 0.930 . S
C1020 C1021 1.367 . S
C1020 C1028 1.378 . S
C1021 C1020 1.367 . S
C1021 C1029 1.433 . S
C1022 H1018 0.929 . S
C1022 C1024 1.378 . S
C1022 C1026 1.350 . S
C1023 C1026 1.463 . S
C1023 C1028 1.350 . S
C1023 N1031 1.427 . S
C1024 H1015 0.930 . S
C1024 C1022 1.378 . S
C1024 C1025 1.367 . S
C1025 C1024 1.367 . S
C1025 C1027 1.433 . S
C1026 C1022 1.350 . S
C1026 C1023 1.463 . S
C1026 N1030 1.427 . S
C1027 H1017 0.929 . S
C1027 C1025 1.433 . S
C1027 N1030 1.384 . S
C1028 H1019 0.929 . S
C1028 C1020 1.378 . S
C1028 C1023 1.350 . S
C1029 H1016 0.929 . S
C1029 C1021 1.433 . S
C1029 N1031 1.384 . S
N1030 C1026 1.427 . S
N1030 C1027 1.384 . S
N1031 C1023 1.427 . S
N1031 C1029 1.384 . S
H1032 C1038 0.930 1_455 S
H1033 C1042 0.930 . S
H1034 C1047 0.929 . S
H1035 C1045 0.929 . S
H1036 C1040 0.929 . S
H1037 C1046 0.929 . S
C1038 H1032 0.930 1_655 S
C1038 C1039 1.367 . S
C1038 C1046 1.378 . S
C1039 C1038 1.367 . S
C1039 C1047 1.433 . S
C1040 H1036 0.929 . S
C1040 C1042 1.378 . S
C1040 C1044 1.350 . S
C1041 C1044 1.463 . S
C1041 C1046 1.350 . S
C1041 N1049 1.427 . S
C1042 H1033 0.930 . S
C1042 C1040 1.378 . S
C1042 C1043 1.367 . S
C1043 C1042 1.367 . S
C1043 C1045 1.433 . S
C1044 C1040 1.350 . S
C1044 C1041 1.463 . S
C1044 N1048 1.427 . S
C1045 H1035 0.929 . S
C1045 C1043 1.433 . S
C1045 N1048 1.384 . S
C1046 H1037 0.929 . S
C1046 C1038 1.378 . S
C1046 C1041 1.350 . S
C1047 H1034 0.929 . S
C1047 C1039 1.433 . S
C1047 N1049 1.384 . S
N1048 C1044 1.427 . S
N1048 C1045 1.384 . S
N1049 C1041 1.427 . S
N1049 C1047 1.384 . S
H1050 C1056 0.930 . S
H1051 C1060 0.930 . S
H1052 C1065 0.929 . S
H1053 C1063 0.929 . S
H1054 C1058 0.929 . S
H1055 C1064 0.929 . S
C1056 H1050 0.930 . S
C1056 C1057 1.367 . S
C1056 C1064 1.378 . S
C1057 C1056 1.367 . S
C1057 C1065 1.433 . S
C1058 H1054 0.929 . S
C1058 C1060 1.378 . S
C1058 C1062 1.350 . S
C1059 C1062 1.463 . S
C1059 C1064 1.350 . S
C1059 N1067 1.427 . S
C1060 H1051 0.930 . S
C1060 C1058 1.378 . S
C1060 C1061 1.367 . S
C1061 C1060 1.367 . S
C1061 C1063 1.433 . S
C1062 C1058 1.350 . S
C1062 C1059 1.463 . S
C1062 N1066 1.427 . S
C1063 H1053 0.929 . S
C1063 C1061 1.433 . S
C1063 N1066 1.384 . S
C1064 H1055 0.929 . S
C1064 C1056 1.378 . S
C1064 C1059 1.350 . S
C1065 H1052 0.929 . S
C1065 C1057 1.433 . S
C1065 N1067 1.384 . S
N1066 C1062 1.427 . S
N1066 C1063 1.384 . S
N1067 C1059 1.427 . S
N1067 C1065 1.384 . S
H1068 C1074 0.930 . S
H1069 C1078 0.930 . S
H1070 C1083 0.929 . S
H1071 C1081 0.929 . S
H1072 C1076 0.929 . S
H1073 C1082 0.929 . S
C1074 H1068 0.930 . S
C1074 C1075 1.367 . S
C1074 C1082 1.378 . S
C1075 C1074 1.367 . S
C1075 C1083 1.433 . S
C1076 H1072 0.929 . S
C1076 C1078 1.378 . S
C1076 C1080 1.350 . S
C1077 C1080 1.463 . S
C1077 C1082 1.350 . S
C1077 N1085 1.427 . S
C1078 H1069 0.930 . S
C1078 C1076 1.378 . S
C1078 C1079 1.367 . S
C1079 C1078 1.367 . S
C1079 C1081 1.433 . S
C1080 C1076 1.350 . S
C1080 C1077 1.463 . S
C1080 N1084 1.427 . S
C1081 H1071 0.929 . S
C1081 C1079 1.433 . S
C1081 N1084 1.384 . S
C1082 H1073 0.929 . S
C1082 C1074 1.378 . S
C1082 C1077 1.350 . S
C1083 H1070 0.929 . S
C1083 C1075 1.433 . S
C1083 N1085 1.384 . S
N1084 C1080 1.427 . S
N1084 C1081 1.384 . S
N1085 C1077 1.427 . S
N1085 C1083 1.384 . S
H1086 C1092 0.930 . S
H1087 C1096 0.930 . S
H1088 C1101 0.929 . S
H1089 C1099 0.929 . S
H1090 C1094 0.929 . S
H1091 C1100 0.929 . S
C1092 H1086 0.930 . S
C1092 C1093 1.367 . S
C1092 C1100 1.378 . S
C1093 C1092 1.367 . S
C1093 C1101 1.433 . S
C1094 H1090 0.929 . S
C1094 C1096 1.378 . S
C1094 C1098 1.350 . S
C1095 C1098 1.463 . S
C1095 C1100 1.350 . S
C1095 N1103 1.427 . S
C1096 H1087 0.930 . S
C1096 C1094 1.378 . S
C1096 C1097 1.367 . S
C1097 C1096 1.367 . S
C1097 C1099 1.433 . S
C1098 C1094 1.350 . S
C1098 C1095 1.463 . S
C1098 N1102 1.427 . S
C1099 H1089 0.929 . S
C1099 C1097 1.433 . S
C1099 N1102 1.384 . S
C1100 H1091 0.929 . S
C1100 C1092 1.378 . S
C1100 C1095 1.350 . S
C1101 H1088 0.929 . S
C1101 C1093 1.433 . S
C1101 N1103 1.384 . S
N1102 C1098 1.427 . S
N1102 C1099 1.384 . S
N1103 C1095 1.427 . S
N1103 C1101 1.384 . S
H1104 C1110 0.930 . S
H1105 C1114 0.930 . S
H1106 C1119 0.929 1_565 S
H1107 C1117 0.929 . S
H1108 C1112 0.929 . S
H1109 C1118 0.929 . S
C1110 H1104 0.930 . S
C1110 C1111 1.367 . S
C1110 C1118 1.378 . S
C1111 C1110 1.367 . S
C1111 C1119 1.433 . S
C1112 H1108 0.929 . S
C1112 C1114 1.378 . S
C1112 C1116 1.365 . S
C1113 C1116 1.450 1_545 S
C1113 C1118 1.350 . S
C1113 N1121 1.427 1_545 S
C1114 H1105 0.930 . S
C1114 C1112 1.378 . S
C1114 C1115 1.367 . S
C1115 C1114 1.367 . S
C1115 C1117 1.433 1_565 S
C1116 C1112 1.365 . S
C1116 C1113 1.450 1_565 S
C1116 N1120 1.423 1_565 S
C1117 H1107 0.929 . S
C1117 C1115 1.433 1_545 S
C1117 N1120 1.384 . S
C1118 H1109 0.929 . S
C1118 C1110 1.378 . S
C1118 C1113 1.350 . S
C1119 H1106 0.929 1_545 S
C1119 C1111 1.433 . S
C1119 N1121 1.384 1_545 S
N1120 C1116 1.423 1_545 S
N1120 C1117 1.384 . S
N1121 C1113 1.427 1_565 S
N1121 C1119 1.384 1_565 S
H1122 C1128 0.930 . S
H1123 C1132 0.930 . S
H1124 C1137 0.929 . S
H1125 C1135 0.929 1_554 S
H1126 C1130 0.929 . S
H1127 C1136 0.929 . S
C1128 H1122 0.930 . S
C1128 C1129 1.367 1_554 S
C1128 C1136 1.378 . S
C1129 C1128 1.367 1_556 S
C1129 C1137 1.433 . S
C1130 H1126 0.929 . S
C1130 C1132 1.378 . S
C1130 C1134 1.350 . S
C1131 C1134 1.463 . S
C1131 C1136 1.350 1_556 S
C1131 N1139 1.427 . S
C1132 H1123 0.930 . S
C1132 C1130 1.378 . S
C1132 C1133 1.367 . S
C1133 C1132 1.367 . S
C1133 C1135 1.433 . S
C1134 C1130 1.350 . S
C1134 C1131 1.463 . S
C1134 N1138 1.431 . S
C1135 H1125 0.929 1_556 S
C1135 C1133 1.433 . S
C1135 N1138 1.384 . S
C1136 H1127 0.929 . S
C1136 C1128 1.378 . S
C1136 C1131 1.350 1_554 S
C1137 H1124 0.929 . S
C1137 C1129 1.433 . S
C1137 N1139 1.384 . S
N1138 C1134 1.431 . S
N1138 C1135 1.384 . S
N1139 C1131 1.427 . S
N1139 C1137 1.384 . S
H1140 C1146 0.930 . S
H1141 C1150 0.930 . S
H1142 C1155 0.929 . S
H1143 C1153 0.929 . S
H1144 C1148 0.929 . S
H1145 C1154 0.929 . S
C1146 H1140 0.930 . S
C1146 C1147 1.367 . S
C1146 C1154 1.378 . S
C1147 C1146 1.367 . S
C1147 C1155 1.433 . S
C1148 H1144 0.929 . S
C1148 C1150 1.378 . S
C1148 C1152 1.350 . S
C1149 C1152 1.463 . S
C1149 C1154 1.350 . S
C1149 N1157 1.427 . S
C1150 H1141 0.930 . S
C1150 C1148 1.378 . S
C1150 C1151 1.367 . S
C1151 C1150 1.367 . S
C1151 C1153 1.433 . S
C1152 C1148 1.350 . S
C1152 C1149 1.463 . S
C1152 N1156 1.427 . S
C1153 H1143 0.929 . S
C1153 C1151 1.433 . S
C1153 N1156 1.384 . S
C1154 H1145 0.929 . S
C1154 C1146 1.378 . S
C1154 C1149 1.350 . S
C1155 H1142 0.929 . S
C1155 C1147 1.433 . S
C1155 N1157 1.384 . S
N1156 C1152 1.427 . S
N1156 C1153 1.384 . S
N1157 C1149 1.427 . S
N1157 C1155 1.384 . S
H1158 C1164 0.930 . S
H1159 C1168 0.930 1_654 S
H1160 C1173 0.929 . S
H1161 C1171 0.929 . S
H1162 C1166 0.928 . S
H1163 C1172 0.929 . S
C1164 H1158 0.930 . S
C1164 C1165 1.367 1_455 S
C1164 C1172 1.378 . S
C1165 C1164 1.367 1_655 S
C1165 C1173 1.433 1_556 S
C1166 H1162 0.928 . S
C1166 C1168 1.378 1_654 S
C1166 C1170 1.350 1_654 S
C1167 C1170 1.478 . S
C1167 C1172 1.359 . S
C1167 N1175 1.403 1_456 S
C1168 H1159 0.930 1_456 S
C1168 C1166 1.378 1_456 S
C1168 C1169 1.367 . S
C1169 C1168 1.367 . S
C1169 C1171 1.433 . S
C1170 C1166 1.350 1_456 S
C1170 C1167 1.478 . S
C1170 N1174 1.427 . S
C1171 H1161 0.929 . S
C1171 C1169 1.433 . S
C1171 N1174 1.384 . S
C1172 H1163 0.929 . S
C1172 C1164 1.378 . S
C1172 C1167 1.359 . S
C1173 H1160 0.929 . S
C1173 C1165 1.433 1_554 S
C1173 N1175 1.384 . S
N1174 C1170 1.427 . S
N1174 C1171 1.384 . S
N1175 C1167 1.403 1_654 S
N1175 C1173 1.384 . S
H1176 C1182 0.930 . S
H1177 C1186 0.930 . S
H1178 C1191 0.929 . S
H1179 C1189 0.929 . S
H1180 C1184 0.929 . S
H1181 C1190 0.929 . S
C1182 H1176 0.930 . S
C1182 C1183 1.367 1_565 S
C1182 C1190 1.378 . S
C1183 C1182 1.367 1_545 S
C1183 C1191 1.433 . S
C1184 H1180 0.929 . S
C1184 C1186 1.378 . S
C1184 C1188 1.350 1_545 S
C1185 C1188 1.481 . S
C1185 C1190 1.365 . S
C1185 N1193 1.393 1_565 S
C1186 H1177 0.930 . S
C1186 C1184 1.378 . S
C1186 C1187 1.367 1_545 S
C1187 C1186 1.367 1_565 S
C1187 C1189 1.433 . S
C1188 C1184 1.350 1_565 S
C1188 C1185 1.481 . S
C1188 N1192 1.427 . S
C1189 H1179 0.929 . S
C1189 C1187 1.433 . S
C1189 N1192 1.384 . S
C1190 H1181 0.929 . S
C1190 C1182 1.378 . S
C1190 C1185 1.365 . S
C1191 H1178 0.929 . S
C1191 C1183 1.433 . S
C1191 N1193 1.384 . S
N1192 C1188 1.427 . S
N1192 C1189 1.384 . S
N1193 C1185 1.393 1_545 S
N1193 C1191 1.384 . S
H1194 C1200 0.930 . S
H1195 C1204 0.930 . S
H1196 C1209 0.929 . S
H1197 C1207 0.929 . S
H1198 C1202 0.929 . S
H1199 C1208 0.929 . S
C1200 H1194 0.930 . S
C1200 C1201 1.367 1_556 S
C1200 C1208 1.378 . S
C1201 C1200 1.367 1_554 S
C1201 C1209 1.433 . S
C1202 H1198 0.929 . S
C1202 C1204 1.378 . S
C1202 C1206 1.350 . S
C1203 C1206 1.463 . S
C1203 C1208 1.350 1_554 S
C1203 N1211 1.427 . S
C1204 H1195 0.930 . S
C1204 C1202 1.378 . S
C1204 C1205 1.367 . S
C1205 C1204 1.367 . S
C1205 C1207 1.433 1_554 S
C1206 C1202 1.350 . S
C1206 C1203 1.463 . S
C1206 N1210 1.427 1_554 S
C1207 H1197 0.929 . S
C1207 C1205 1.433 1_556 S
C1207 N1210 1.384 . S
C1208 H1199 0.929 . S
C1208 C1200 1.378 . S
C1208 C1203 1.350 1_556 S
C1209 H1196 0.929 . S
C1209 C1201 1.433 . S
C1209 N1211 1.384 . S
N1210 C1206 1.427 1_556 S
N1210 C1207 1.384 . S
N1211 C1203 1.427 . S
N1211 C1209 1.384 . S
H1212 C1218 0.930 . S
H1213 C1222 0.930 . S
H1214 C1227 0.929 . S
H1215 C1225 0.929 . S
H1216 C1220 0.929 . S
H1217 C1226 0.929 . S
C1218 H1212 0.930 . S
C1218 C1219 1.367 . S
C1218 C1226 1.378 . S
C1219 C1218 1.367 . S
C1219 C1227 1.433 . S
C1220 H1216 0.929 . S
C1220 C1222 1.378 . S
C1220 C1224 1.350 . S
C1221 C1224 1.463 . S
C1221 C1226 1.350 . S
C1221 N1229 1.427 . S
C1222 H1213 0.930 . S
C1222 C1220 1.378 . S
C1222 C1223 1.367 . S
C1223 C1222 1.367 . S
C1223 C1225 1.433 . S
C1224 C1220 1.350 . S
C1224 C1221 1.463 . S
C1224 N1228 1.427 . S
C1225 H1215 0.929 . S
C1225 C1223 1.433 . S
C1225 N1228 1.384 . S
C1226 H1217 0.929 . S
C1226 C1218 1.378 . S
C1226 C1221 1.350 . S
C1227 H1214 0.929 . S
C1227 C1219 1.433 . S
C1227 N1229 1.384 . S
N1228 C1224 1.427 . S
N1228 C1225 1.384 . S
N1229 C1221 1.427 . S
N1229 C1227 1.384 . S
H1230 C1236 0.930 . S
H1231 C1240 0.930 . S
H1232 C1245 0.929 1_655 S
H1233 C1243 0.929 . S
H1234 C1238 0.929 . S
H1235 C1244 0.929 . S
C1236 H1230 0.930 . S
C1236 C1237 1.367 . S
C1236 C1244 1.378 . S
C1237 C1236 1.367 . S
C1237 C1245 1.433 1_554 S
C1238 H1234 0.929 . S
C1238 C1240 1.378 . S
C1238 C1242 1.350 1_556 S
C1239 C1242 1.458 1_455 S
C1239 C1244 1.355 . S
C1239 N1247 1.427 1_454 S
C1240 H1231 0.930 . S
C1240 C1238 1.378 . S
C1240 C1241 1.367 1_556 S
C1241 C1240 1.367 1_554 S
C1241 C1243 1.433 . S
C1242 C1238 1.350 1_554 S
C1242 C1239 1.458 1_655 S
C1242 N1246 1.427 . S
C1243 H1233 0.929 . S
C1243 C1241 1.433 . S
C1243 N1246 1.384 . S
C1244 H1235 0.929 . S
C1244 C1236 1.378 . S
C1244 C1239 1.355 . S
C1245 H1232 0.929 1_455 S
C1245 C1237 1.433 1_556 S
C1245 N1247 1.384 1_455 S
N1246 C1242 1.427 . S
N1246 C1243 1.384 . S
N1247 C1239 1.427 1_656 S
N1247 C1245 1.384 1_655 S
C535 C292 0.766 . S
C539 C28 0.766 . S
C553 C61 1.164 . S
C557 C325 1.164 . S
C571 C358 0.762 . S
C575 C94 0.762 . S
C589 C391 0.804 . S
C593 C127 0.810 . S
C607 C160 0.770 . S
C611 C424 0.776 . S
C625 C193 0.755 1_556 S
C629 C457 0.755 1_554 S
C643 C226 1.174 . S
C647 C490 1.174 . S
C661 C259 0.734 1_556 S
C665 C523 0.734 1_554 S
C679 C8 1.732 . S
C683 N500 1.753 . S
C697 C41 1.844 . S
C701 N401 1.841 . S
C715 C74 1.739 . S
C719 N434 1.760 . S
C733 N467 1.881 . S
C737 C107 1.871 . S
C751 C140 1.874 . S
C755 N302 1.884 . S
C769 C173 1.746 . S
C773 N335 1.756 . S
C787 N368 1.843 . S
C791 C206 1.843 . S
C805 C239 1.739 . S
C809 N269 1.751 . S
C823 N236 1.754 . S
C827 C272 1.734 . S
C841 N137 1.843 . S
C845 C305 1.850 . S
C859 N170 1.760 . S
C863 C338 1.739 . S
C877 C371 1.881 . S
C881 N203 1.877 . S
C895 N38 1.881 . S
C899 C404 1.878 . S
C913 C437 1.740 . S
C917 N71 1.760 . S
C931 N104 1.847 . S
C935 C470 1.844 . S
C949 N5 1.750 . S
C953 C503 1.734 . S
C967 N245 0.711 . S
C971 N14 0.713 . S
C985 N146 0.547 . S
C989 N47 0.545 . S
C1003 N80 0.736 . S
C1007 N179 0.734 . S
C1021 N212 0.538 . S
C1025 N113 0.526 . S
C1039 N509 0.739 . S
C1043 N278 0.739 . S
C1057 N311 0.566 . S
C1061 N410 0.548 . S
C1075 N344 0.723 . S
C1079 N443 0.725 . S
C1093 N377 0.561 . S
C1097 N476 0.571 . S
C1111 C17 1.410 . S
C1115 C413 1.358 . S
C1129 C50 1.505 . S
C1133 C446 1.627 . S
C1147 C83 1.626 . S
C1151 C479 1.496 . S
C1165 C116 1.345 . S
C1169 C512 1.407 . S
C1183 C149 1.344 . S
C1187 C281 1.406 . S
C1201 C182 1.625 . S
C1205 C314 1.490 . S
C1219 C215 1.506 . S
C1223 C347 1.628 . S
C1237 C380 1.354 . S
C1241 C248 1.407 . S
