# Generated by pormake.
# Topology vby, (6)-cn, num edge types: 1
# Building blocks:
#     Node 0, Type 0, BuildingBlock: JUFBIX_clean_sbu_0, # of connection points: 6
#     Node 1, Type 0, BuildingBlock: JUFBIX_clean_sbu_0, # of connection points: 6
#     Node 2, Type 0, BuildingBlock: JUFBIX_clean_sbu_0, # of connection points: 6
#     Node 3, Type 0, BuildingBlock: JUFBIX_clean_sbu_0, # of connection points: 6
#     Node 4, Type 0, BuildingBlock: JUFBIX_clean_sbu_0, # of connection points: 6
#     Node 5, Type 0, BuildingBlock: JUFBIX_clean_sbu_0, # of connection points: 6
#     Node 6, Type 0, BuildingBlock: JUFBIX_clean_sbu_0, # of connection points: 6
#     Node 7, Type 0, BuildingBlock: JUFBIX_clean_sbu_0, # of connection points: 6
#     Edge 8, Type (0, 0), BuildingBlock: EZIPEK_clean_linker_0, # of connection points: 2
#     Edge 9, Type (0, 0), BuildingBlock: EZIPEK_clean_linker_0, # of connection points: 2
#     Edge 10, Type (0, 0), BuildingBlock: EZIPEK_clean_linker_0, # of connection points: 2
#     Edge 11, Type (0, 0), BuildingBlock: EZIPEK_clean_linker_0, # of connection points: 2
#     Edge 12, Type (0, 0), BuildingBlock: EZIPEK_clean_linker_0, # of connection points: 2
#     Edge 13, Type (0, 0), BuildingBlock: EZIPEK_clean_linker_0, # of connection points: 2
#     Edge 14, Type (0, 0), BuildingBlock: EZIPEK_clean_linker_0, # of connection points: 2
#     Edge 15, Type (0, 0), BuildingBlock: EZIPEK_clean_linker_0, # of connection points: 2
#     Edge 16, Type (0, 0), BuildingBlock: EZIPEK_clean_linker_0, # of connection points: 2
#     Edge 17, Type (0, 0), BuildingBlock: EZIPEK_clean_linker_0, # of connection points: 2
#     Edge 18, Type (0, 0), BuildingBlock: EZIPEK_clean_linker_0, # of connection points: 2
#     Edge 19, Type (0, 0), BuildingBlock: EZIPEK_clean_linker_0, # of connection points: 2
#     Edge 20, Type (0, 0), BuildingBlock: EZIPEK_clean_linker_0, # of connection points: 2
#     Edge 21, Type (0, 0), BuildingBlock: EZIPEK_clean_linker_0, # of connection points: 2
#     Edge 22, Type (0, 0), BuildingBlock: EZIPEK_clean_linker_0, # of connection points: 2
#     Edge 23, Type (0, 0), BuildingBlock: EZIPEK_clean_linker_0, # of connection points: 2
#     Edge 24, Type (0, 0), BuildingBlock: EZIPEK_clean_linker_0, # of connection points: 2
#     Edge 25, Type (0, 0), BuildingBlock: EZIPEK_clean_linker_0, # of connection points: 2
#     Edge 26, Type (0, 0), BuildingBlock: EZIPEK_clean_linker_0, # of connection points: 2
#     Edge 27, Type (0, 0), BuildingBlock: EZIPEK_clean_linker_0, # of connection points: 2
#     Edge 28, Type (0, 0), BuildingBlock: EZIPEK_clean_linker_0, # of connection points: 2
#     Edge 29, Type (0, 0), BuildingBlock: EZIPEK_clean_linker_0, # of connection points: 2
#     Edge 30, Type (0, 0), BuildingBlock: EZIPEK_clean_linker_0, # of connection points: 2
#     Edge 31, Type (0, 0), BuildingBlock: EZIPEK_clean_linker_0, # of connection points: 2
# Relax obj value: 0.194
# Max RMSD: 0.177
# Mean RMSD: 0.177
data_MOF--net-vby--node1-JUFBIX_clean_sbu_0--edge1-EZIPEK_clean_linker_0
_symmetry_space_group_name_H-M    P1
_symmetry_Int_Tables_number       1
_symmetry_cell_setting            triclinic
loop_
_symmetry_equiv_pos_as_xyz
'x, y, z'
_cell_length_a     15.248447
_cell_length_b     39.668872
_cell_length_c     21.097352
_cell_angle_alpha  90.244447
_cell_angle_beta   93.679709
_cell_angle_gamma 89.789865
loop_
_atom_site_label
_atom_site_type_symbol
_atom_site_fract_x
_atom_site_fract_y
_atom_site_fract_z
_atom_type_partial_charge
Co0 Co 1.0303 0.36698 0.04169 0.0
C1 C 0.08981 0.37763 0.92305 0.0
Co2 Co 0.16443 0.3874 0.04671 0.0
C3 C 0.84415 0.36666 0.05394 0.0
C4 C 0.88594 0.32354 1.00226 0.0
N5 N 0.91648 0.35089 0.03492 0.0
N6 N 0.77003 0.35054 0.03369 0.0
C7 C 0.79547 0.32334 1.00122 0.0
H8 H 0.84519 0.39049 0.07917 0.0
H9 H 0.92641 0.30596 0.97777 0.0
C10 C 0.09081 0.37709 0.16494 0.0
N11 N 0.27888 0.4031 0.0532 0.0
C12 C 0.34992 0.38813 0.03024 0.0
C13 C 0.31159 0.42848 0.09039 0.0
N14 N 0.42523 0.4027 0.05257 0.0
C15 C 0.40197 0.42823 0.0902 0.0
C16 C 0.04347 0.43801 0.04036 0.0
O17 O 1.02644 0.36772 0.12867 0.0
O18 O 0.16161 0.38637 0.14046 0.0
O19 O 0.1243 0.43122 0.04615 0.0
O20 O 0.98765 0.41396 0.03745 0.0
O21 O 0.16069 0.38806 0.95277 0.0
H22 H 0.27266 0.44477 0.11887 0.0
H23 H 0.34721 0.36556 1.00113 0.0
O24 O 1.02917 0.36636 0.95473 0.0
O25 O 0.07942 0.32043 0.04584 0.0
O26 O 0.20859 0.3439 0.04711 0.0
C27 C 0.16327 0.31747 0.04711 0.0
H28 H 0.75165 0.30565 0.97623 0.0
H29 H 0.44723 0.44411 0.11829 0.0
Co30 Co 0.89787 0.63331 1.00716 0.0
C31 C 0.98002 0.64298 0.89174 0.0
Co32 Co 0.03252 0.65278 1.01534 0.0
C33 C 0.71312 0.63238 0.0233 0.0
C34 C 0.74985 0.59508 0.95613 0.0
N35 N 0.78339 0.61846 0.99752 0.0
N36 N 0.63735 0.61913 0.99863 0.0
C37 C 0.65957 0.59558 0.95651 0.0
H38 H 0.71686 0.65344 0.05616 0.0
H39 H 0.78821 0.58007 0.92507 0.0
C40 C 0.96797 0.64258 0.1316 0.0
N41 N 0.14659 0.66803 0.02546 0.0
C42 C 0.21924 0.65233 1.00702 0.0
C43 C 0.17644 0.69548 0.05819 0.0
N44 N 0.29283 0.66869 0.02744 0.0
C45 C 0.26687 0.6959 0.05957 0.0
C46 C 0.90151 0.70292 1.00911 0.0
O47 O 0.89543 0.63446 0.10117 0.0
O48 O 0.03211 0.65099 0.10089 0.0
O49 O 0.98526 0.69969 1.01644 0.0
O50 O 0.8554 0.67685 1.00183 0.0
O51 O 0.0397 0.65477 0.92922 0.0
H52 H 0.13539 0.7133 0.08163 0.0
H53 H 0.2187 0.62874 0.981 0.0
O54 O 0.90889 0.63218 0.91383 0.0
O55 O 0.93373 0.58973 1.01241 0.0
O56 O 0.0719 0.60488 1.01489 0.0
C57 C 1.01346 0.58164 1.01426 0.0
H58 H 0.61368 0.58119 0.92599 0.0
H59 H 0.31027 0.71399 0.08387 0.0
Co60 Co 0.16833 0.6351 0.51934 0.0
C61 C 0.09265 0.64775 0.63572 0.0
Co62 Co 0.03365 0.65513 0.5123 0.0
C63 C 0.35337 0.6338 0.5016 0.0
C64 C 0.31723 0.59738 0.56983 0.0
N65 N 0.28323 0.62011 0.52745 0.0
N66 N 0.42936 0.62109 0.52733 0.0
C67 C 0.40747 0.59807 0.57004 0.0
H68 H 0.34938 0.65454 0.46833 0.0
H69 H 0.27916 0.58292 0.60156 0.0
C70 C 0.09162 0.64097 0.39531 0.0
N71 N 0.9194 0.67062 0.50445 0.0
C72 C 0.84715 0.65486 0.52273 0.0
C73 C 0.88895 0.69837 0.47317 0.0
N74 N 0.77319 0.67145 0.50344 0.0
C75 C 0.79857 0.69889 0.47236 0.0
C76 C 0.16394 0.70482 0.51401 0.0
O77 O 0.16322 0.63121 0.42523 0.0
O78 O 0.03179 0.65385 0.42579 0.0
O79 O 0.08019 0.70193 0.5131 0.0
O80 O 0.21021 0.67854 0.51552 0.0
O81 O 1.0289 0.65639 0.59845 0.0
H82 H 0.92951 0.71626 0.45 0.0
H83 H 0.84815 0.63097 0.54737 0.0
O84 O 0.16495 0.63875 0.61266 0.0
O85 O 0.13267 0.59179 0.5237 0.0
O86 O 0.99468 0.60738 0.51215 0.0
C87 C 0.05293 0.58398 0.51846 0.0
H88 H 0.45348 0.58436 0.60161 0.0
H89 H 0.75477 0.71711 0.44882 0.0
Co90 Co 1.02727 0.36832 0.54332 0.0
C91 C 0.96518 0.38186 0.65906 0.0
Co92 Co 0.8933 0.38892 0.53322 0.0
C93 C 0.21408 0.369 0.53449 0.0
C94 C 0.17285 0.32532 0.58376 0.0
N95 N 0.14195 0.35303 0.5526 0.0
N96 N 0.28835 0.35258 0.55363 0.0
C97 C 0.26334 0.32502 0.58457 0.0
H98 H 0.21273 0.39278 0.50956 0.0
H99 H 0.13245 0.30719 0.60643 0.0
C100 C 0.97265 0.37636 0.4185 0.0
N101 N 0.77799 0.40376 0.52396 0.0
C102 C 0.70786 0.3902 0.55018 0.0
C103 C 0.74379 0.42627 0.48125 0.0
N104 N 0.63168 0.40285 0.52458 0.0
C105 C 0.65347 0.42564 0.48136 0.0
C106 C 1.00906 0.43979 0.53809 0.0
O107 O 0.03547 0.36809 0.45691 0.0
O108 O 0.89909 0.38517 0.43988 0.0
O109 O 0.92944 0.43226 0.52857 0.0
O110 O 0.06601 0.4161 0.54711 0.0
O111 O 0.89612 0.39291 0.62759 0.0
H112 H 0.7818 0.4406 0.44927 0.0
H113 H 0.71203 0.36971 0.58399 0.0
O114 O 1.02541 0.36836 0.62981 0.0
O115 O 0.98065 0.32157 0.53936 0.0
O116 O 0.85134 0.3455 0.5372 0.0
C117 C 0.89674 0.31899 0.53808 0.0
H118 H 0.30741 0.30673 0.60762 0.0
H119 H 0.60733 0.43929 0.44979 0.0
Co120 Co 0.53139 0.86783 1.0049 0.0
C121 C 0.59295 0.87946 0.88777 0.0
Co122 Co 0.66612 0.88743 1.01265 0.0
C123 C 0.34496 0.8674 1.01534 0.0
C124 C 0.38747 0.82421 0.96419 0.0
N125 N 0.41754 0.85181 0.9963 0.0
N126 N 0.27118 0.85092 0.99573 0.0
C127 C 0.297 0.82366 0.96364 0.0
H128 H 0.34555 0.89111 0.04094 0.0
H129 H 0.4283 0.80648 0.94035 0.0
C130 C 0.58703 0.8758 0.12924 0.0
N131 N 0.78052 0.90301 0.02147 0.0
C132 C 0.85126 0.88906 0.99616 0.0
C133 C 0.81374 0.92631 0.06313 0.0
N134 N 0.92691 0.90212 0.02155 0.0
C135 C 0.90415 0.92568 0.06351 0.0
C136 C 0.54638 0.93859 1.01072 0.0
O137 O 0.52567 0.86637 0.09063 0.0
O138 O 0.65918 0.88548 0.10686 0.0
O139 O 0.62678 0.93119 1.01307 0.0
O140 O 0.48924 0.915 1.00641 0.0
O141 O 0.66478 0.8887 0.91803 0.0
H142 H 0.77509 0.94125 0.09411 0.0
H143 H 0.84794 0.86797 0.96335 0.0
O144 O 0.53052 0.86959 0.91901 0.0
O145 O 0.58153 0.82089 1.00365 0.0
O146 O 0.71098 0.84438 1.01252 0.0
C147 C 0.66569 0.81809 1.00707 0.0
H148 H 0.25345 0.80555 0.93957 0.0
H149 H 0.94969 0.9399 0.0946 0.0
Co150 Co 0.39851 0.13211 0.03586 0.0
C151 C 0.47408 0.14407 0.91803 0.0
Co152 Co 0.53222 0.1531 0.04135 0.0
C153 C 0.21261 0.13142 0.05076 0.0
C154 C 0.25108 0.09184 0.98891 0.0
N155 N 0.28379 0.11659 0.02763 0.0
N156 N 0.13725 0.11736 0.02713 0.0
C157 C 0.1606 0.09231 0.98843 0.0
H158 H 0.21537 0.15351 0.08112 0.0
H159 H 0.29017 0.07587 0.95996 0.0
C160 C 0.47035 0.14145 0.16019 0.0
N161 N 0.64629 0.16905 0.04962 0.0
C162 C 0.71839 0.15364 0.02925 0.0
C163 C 0.67727 0.19581 0.08383 0.0
N164 N 0.79279 0.16938 0.05012 0.0
C165 C 0.76777 0.19599 0.08441 0.0
C166 C 0.39876 0.20228 0.03719 0.0
O167 O 0.39977 0.13116 0.12993 0.0
O168 O 0.53207 0.15219 0.12879 0.0
O169 O 0.48278 0.19966 0.03983 0.0
O170 O 0.35428 0.17561 0.03564 0.0
O171 O 0.53713 0.15419 0.95461 0.0
H172 H 0.63705 0.213 0.10945 0.0
H173 H 0.71699 0.13033 1.00235 0.0
O174 O 0.40398 0.13344 0.94186 0.0
O175 O 0.43869 0.08827 0.03601 0.0
O176 O 0.57505 0.10588 0.042 0.0
C177 C 0.5197 0.08164 0.0385 0.0
H178 H 0.11541 0.07688 0.95935 0.0
H179 H 0.81189 0.21325 0.11026 0.0
Co180 Co 0.66875 0.13336 0.54665 0.0
C181 C 0.59083 0.14517 0.66356 0.0
Co182 Co 0.53438 0.15409 0.53864 0.0
C183 C 0.85393 0.13189 0.53025 0.0
C184 C 0.81736 0.09453 0.59655 0.0
N185 N 0.78356 0.1179 0.55547 0.0
N186 N 0.92998 0.11875 0.55503 0.0
C187 C 0.90778 0.09513 0.5966 0.0
H188 H 0.85002 0.15303 0.49787 0.0
H189 H 0.77906 0.07955 0.62732 0.0
C190 C 0.59894 0.14174 0.42159 0.0
N191 N 0.41991 0.16982 0.52975 0.0
C192 C 0.34789 0.15404 0.54865 0.0
C193 C 0.38871 0.19698 0.497 0.0
N194 N 0.27336 0.16998 0.52834 0.0
C195 C 0.29815 0.19708 0.49594 0.0
C196 C 0.66589 0.20334 0.54524 0.0
O197 O 0.66873 0.1316 0.45302 0.0
O198 O 0.53633 0.15359 0.45105 0.0
O199 O 0.58201 0.20051 0.54181 0.0
O200 O 0.7121 0.17697 0.54751 0.0
O201 O 0.52783 0.15457 0.62596 0.0
H202 H 0.42893 0.21467 0.47305 0.0
H203 H 0.34951 0.13054 0.57457 0.0
O204 O 0.66216 0.13512 0.64035 0.0
O205 O 0.62949 0.08968 0.54544 0.0
O206 O 0.49305 0.10716 0.5356 0.0
C207 C 0.54867 0.08294 0.53865 0.0
H208 H 0.95371 0.08081 0.62719 0.0
H209 H 0.25389 0.2148 0.47142 0.0
Co210 Co 0.52697 0.86866 0.51128 0.0
C211 C 0.4608 0.88091 0.62788 0.0
Co212 Co 0.39276 0.88947 0.50322 0.0
C213 C 0.71357 0.86886 0.50177 0.0
C214 C 0.67261 0.82669 0.5555 0.0
N215 N 0.64155 0.85338 0.52132 0.0
N216 N 0.78799 0.85314 0.523 0.0
C217 C 0.76312 0.82653 0.55673 0.0
H218 H 0.71199 0.89199 0.47467 0.0
H219 H 0.6323 0.80934 0.58018 0.0
C220 C 0.47452 0.87996 0.38728 0.0
N221 N 0.27783 0.90437 0.49335 0.0
C222 C 0.20775 0.89034 0.51876 0.0
C223 C 0.24374 0.92744 0.45173 0.0
N224 N 0.13156 0.90319 0.49362 0.0
C225 C 0.15337 0.92662 0.45159 0.0
C226 C 0.51053 0.93992 0.51052 0.0
O227 O 0.53461 0.86757 0.42405 0.0
O228 O 0.4032 0.89006 0.41032 0.0
O229 O 0.42983 0.93307 0.50727 0.0
O230 O 0.56664 0.91582 0.51244 0.0
O231 O 0.38985 0.88979 0.59648 0.0
H232 H 0.28186 0.9424 0.42082 0.0
H233 H 0.21205 0.86944 0.55167 0.0
O234 O 0.52465 0.87011 0.59856 0.0
O235 O 0.48087 0.82208 0.51006 0.0
O236 O 0.35062 0.84532 0.49911 0.0
C237 C 0.39713 0.81904 0.50444 0.0
H238 H 0.8073 0.80912 0.58215 0.0
H239 H 0.10722 0.94076 0.42085 0.0
C240 C 0.56365 0.40126 0.9989 0.0
C241 C 0.51209 0.38932 0.0474 0.0
C242 C 0.62961 0.35056 0.08484 0.0
C243 C 0.682 0.36303 0.03729 0.0
N244 N 0.7012 0.39784 0.94642 0.0
N245 N 0.49388 0.35491 0.13899 0.0
C246 C 0.6496 0.38785 0.99353 0.0
C247 C 0.5444 0.36441 0.09094 0.0
N248 N 0.52961 0.42564 0.95875 0.0
N249 N 0.66174 0.32511 0.12324 0.0
H250 H 0.43051 0.36418 0.14353 0.0
H251 H 0.51524 0.33914 0.17609 0.0
H252 H 0.72506 0.31538 0.12047 0.0
H253 H 0.62546 0.31252 0.1558 0.0
H254 H 0.56303 0.43675 0.92292 0.0
H255 H 0.46638 0.43537 0.96202 0.0
H256 H 0.68265 0.41529 0.91147 0.0
H257 H 0.76365 0.38782 0.94112 0.0
C258 C 0.41526 0.63127 0.06242 0.0
C259 C 0.38118 0.65717 0.02185 0.0
C260 C 0.51906 0.65957 0.96902 0.0
C261 C 0.55088 0.63209 1.00665 0.0
N262 N 0.53107 0.58997 0.08555 0.0
N263 N 0.39401 0.69443 0.93372 0.0
C264 C 0.49935 0.61742 0.05248 0.0
C265 C 0.43156 0.67107 0.97452 0.0
N266 N 0.36751 0.6207 0.1112 0.0
N267 N 0.57331 0.67472 0.92872 0.0
H268 H 0.33011 0.70338 0.9375 0.0
H269 H 0.42353 0.70353 0.89414 0.0
H270 H 0.63659 0.66591 0.92201 0.0
H271 H 0.55799 0.69699 0.90452 0.0
H272 H 0.39072 0.60384 0.14604 0.0
H273 H 0.30575 0.63063 0.11929 0.0
H274 H 0.49449 0.57588 0.11582 0.0
H275 H 0.59367 0.5801 0.07995 0.0
C276 C 0.65341 0.63317 0.46751 0.0
C277 C 0.68506 0.65968 0.50785 0.0
C278 C 0.54462 0.66253 0.55741 0.0
C279 C 0.51543 0.63438 0.52032 0.0
N280 N 0.54069 0.59094 0.44422 0.0
N281 N 0.6673 0.69797 0.59444 0.0
C282 C 0.56961 0.61913 0.47643 0.0
C283 C 0.63214 0.6741 0.55352 0.0
N284 N 0.70295 0.62231 0.41966 0.0
N285 N 0.488 0.6782 0.59576 0.0
H286 H 0.73134 0.70684 0.59207 0.0
H287 H 0.63565 0.70751 0.63295 0.0
H288 H 0.42471 0.66934 0.60148 0.0
H289 H 0.50146 0.70092 0.61914 0.0
H290 H 0.68124 0.60504 0.38493 0.0
H291 H 0.76429 0.63251 0.41192 0.0
H292 H 0.57958 0.57641 0.41584 0.0
H293 H 0.47826 0.58091 0.4489 0.0
C294 C 0.51429 0.36215 0.49475 0.0
C295 C 0.54549 0.38975 0.53256 0.0
C296 C 0.4099 0.39038 0.58854 0.0
C297 C 0.37641 0.3643 0.54789 0.0
N298 N 0.39015 0.32705 0.45919 0.0
N299 N 0.52409 0.43216 0.61138 0.0
C300 C 0.42711 0.35048 0.50027 0.0
C301 C 0.49345 0.40444 0.57845 0.0
N302 N 0.56888 0.34703 0.45424 0.0
N303 N 0.3622 0.40089 0.63765 0.0
H304 H 0.58619 0.44223 0.60556 0.0
H305 H 0.48692 0.44628 0.64158 0.0
H306 H 0.30096 0.39076 0.64598 0.0
H307 H 0.38516 0.41784 0.67258 0.0
H308 H 0.5542 0.3247 0.42987 0.0
H309 H 0.63181 0.35599 0.44757 0.0
H310 H 0.41988 0.31799 0.41946 0.0
H311 H 0.32648 0.31804 0.46287 0.0
C312 C 0.04473 0.86175 0.0535 0.0
C313 C 1.01345 0.88883 1.01455 0.0
C314 C 0.14931 0.88831 0.9589 0.0
C315 C 0.18289 0.86283 1.00069 0.0
N316 N 0.16922 0.82707 0.09084 0.0
N317 N 0.03478 0.92992 0.93408 0.0
C318 C 0.13215 0.84989 0.04874 0.0
C319 C 0.06556 0.90268 0.96821 0.0
N320 N 0.98997 0.84725 0.09424 0.0
N321 N 0.19719 0.89798 0.90957 0.0
H322 H 0.97256 0.94021 0.93935 0.0
H323 H 0.07195 0.94349 0.90341 0.0
H324 H 0.25873 0.88772 0.90193 0.0
H325 H 0.17417 0.91438 0.87386 0.0
H326 H 1.00493 0.82529 0.11952 0.0
H327 H 0.92663 0.85623 0.10012 0.0
H328 H 0.13949 0.81876 0.13095 0.0
H329 H 0.23294 0.81783 0.08754 0.0
C330 C 1.01742 0.15585 0.99048 0.0
C331 C 0.05034 0.1306 0.03311 0.0
C332 C 0.91369 0.1317 0.08815 0.0
C333 C 0.88071 0.15689 0.04537 0.0
N334 N 0.89964 0.19535 0.96007 0.0
N335 N 0.03383 0.09351 0.12077 0.0
C336 C 0.93233 0.16965 0.9976 0.0
C337 C 0.99944 0.11828 0.08166 0.0
N338 N 0.06731 0.16576 0.94237 0.0
N339 N 0.86283 0.12133 0.1354 0.0
H340 H 0.09685 0.08373 0.11665 0.0
H341 H 1.00084 0.08207 0.15645 0.0
H342 H 0.80044 0.13124 0.14136 0.0
H343 H 0.88196 0.10368 0.16984 0.0
H344 H 0.04558 0.18186 0.90588 0.0
H345 H 0.1306 0.15653 0.9372 0.0
H346 H 0.93524 0.20807 0.92728 0.0
H347 H 0.83652 0.20512 0.96376 0.0
C348 C 0.15331 0.13143 0.4933 0.0
C349 C 0.18544 0.15789 0.53363 0.0
C350 C 0.04655 0.15971 0.58572 0.0
C351 C 1.01639 0.13195 0.54789 0.0
N352 N 0.03977 0.08945 0.46961 0.0
N353 N 0.16918 0.1957 0.62108 0.0
C354 C 0.06959 0.11725 0.50268 0.0
C355 C 0.13354 0.17176 0.58051 0.0
N356 N 0.2025 0.12066 0.44517 0.0
N357 N 0.99122 0.17456 0.62606 0.0
H358 H 0.2326 0.205 0.6175 0.0
H359 H 0.13866 0.20508 0.6602 0.0
H360 H 0.92836 0.16543 0.63244 0.0
H361 H 1.00536 0.19673 0.65104 0.0
H362 H 0.18091 0.10332 0.41054 0.0
H363 H 0.26388 0.13082 0.43741 0.0
H364 H 0.07752 0.07534 0.43978 0.0
H365 H 0.97755 0.07934 0.47478 0.0
C366 C 0.92858 0.84967 0.47218 0.0
C367 C 0.87595 0.86496 0.51713 0.0
C368 C 0.99136 0.90623 0.54487 0.0
C369 C 0.04523 0.89021 0.50162 0.0
N370 N 0.07164 0.84536 0.42815 0.0
N371 N 0.85788 0.90446 0.60192 0.0
C372 C 1.0157 0.86141 0.4665 0.0
C373 C 0.90755 0.89242 0.55507 0.0
N374 N 0.89344 0.82473 0.43367 0.0
N375 N 1.02071 0.93488 0.57538 0.0
H376 H 0.79655 0.89449 0.61046 0.0
H377 H 0.87913 0.92266 0.635 0.0
H378 H 0.08316 0.9447 0.56992 0.0
H379 H 0.98236 0.94989 0.60328 0.0
H380 H 0.92464 0.81425 0.39581 0.0
H381 H 0.82982 0.8157 0.43748 0.0
H382 H 0.05812 0.82236 0.40587 0.0
H383 H 0.13436 0.85436 0.42088 0.0
C384 C 0.9921 0.52375 0.96782 0.0
C385 C 0.03186 0.54486 1.01669 0.0
C386 C 0.04826 0.49567 0.08636 0.0
C387 C 1.01962 0.47424 0.03533 0.0
N388 N 0.9685 0.46717 0.9259 0.0
N389 N 0.10469 0.55026 0.12108 0.0
C390 C 0.99228 0.4881 0.97564 0.0
C391 C 0.06284 0.53052 0.07538 0.0
N392 N 0.95116 0.53785 0.9147 0.0
N393 N 0.05725 0.48262 0.14615 0.0
H394 H 0.11487 0.57599 0.11527 0.0
H395 H 0.13565 0.54067 0.16262 0.0
H396 H 0.04047 0.45768 0.15499 0.0
H397 H 0.07062 0.49704 0.18695 0.0
H398 H 0.91145 0.52436 0.88166 0.0
H399 H 0.95157 0.56359 0.90546 0.0
H400 H 0.95851 0.47531 0.87913 0.0
H401 H 0.96308 0.44114 0.93083 0.0
C402 C 0.9792 0.49858 0.5766 0.0
C403 C 1.02955 0.47646 0.53909 0.0
C404 C 0.08009 0.52523 0.48064 0.0
C405 C 0.03377 0.54736 0.5205 0.0
N406 N 0.95581 0.55527 0.61531 0.0
N407 N 0.13714 0.46927 0.46111 0.0
C408 C 0.98747 0.5341 0.57069 0.0
C409 C 0.08321 0.48999 0.49317 0.0
N410 N 0.92179 0.48576 0.61747 0.0
N411 N 0.11953 0.53787 0.42936 0.0
H412 H 0.13775 0.44317 0.46545 0.0
H413 H 0.18613 0.47798 0.43324 0.0
H414 H 0.12293 0.56347 0.41945 0.0
H415 H 0.14329 0.52294 0.39352 0.0
H416 H 0.87431 0.50033 0.63821 0.0
H417 H 0.91764 0.4603 0.62839 0.0
H418 H 0.93268 0.5469 0.65787 0.0
H419 H 0.95916 0.58145 0.61273 0.0
C420 C 0.55167 0.99637 0.96702 0.0
C421 C 0.52514 0.97498 1.01595 0.0
C422 C 0.51465 0.02421 0.08608 0.0
C423 C 0.54408 0.0453 0.03748 0.0
N424 N 0.61333 0.05019 0.93902 0.0
N425 N 0.48907 0.9675 0.12432 0.0
C426 C 0.56977 0.03094 0.98017 0.0
C427 C 0.5082 0.98867 0.07617 0.0
N428 N 0.55685 0.98357 0.90722 0.0
N429 N 0.4933 0.03859 0.14191 0.0
H430 H 0.47933 0.9417 0.11743 0.0
H431 H 0.48552 0.97502 0.17138 0.0
H432 H 0.50753 0.06378 0.15231 0.0
H433 H 0.46154 0.02605 0.17703 0.0
H434 H 0.56859 0.99826 0.86788 0.0
H435 H 0.5398 0.95866 0.89623 0.0
H436 H 0.64175 0.04036 0.8993 0.0
H437 H 0.62808 0.07548 0.94803 0.0
C438 C 0.57155 0.02472 0.57896 0.0
C439 C 0.52528 0.04652 0.53518 0.0
C440 C 0.48462 0.99783 0.46796 0.0
C441 C 0.53325 0.97629 0.51141 0.0
N442 N 0.64138 0.97065 0.59929 0.0
N443 N 0.42129 0.05311 0.44517 0.0
C444 C 0.58261 0.99014 0.56409 0.0
C445 C 0.47693 0.03292 0.48158 0.0
N446 N 0.5998 0.03707 0.63709 0.0
N447 N 0.44959 0.98469 0.4119 0.0
H448 H 0.41377 0.07878 0.45355 0.0
H449 H 0.37706 0.04417 0.40948 0.0
H450 H 0.45655 0.95937 0.39972 0.0
H451 H 0.42108 0.99908 0.37491 0.0
H452 H 0.62697 0.0223 0.67408 0.0
H453 H 0.58492 0.06164 0.65023 0.0
H454 H 0.68563 0.9804 0.63427 0.0
H455 H 0.65214 0.94526 0.58993 0.0
C456 C 0.29 0.28304 0.09317 0.0
C457 C 0.21415 0.28486 0.04999 0.0
C458 C 0.27019 0.2363 0.99161 0.0
C459 C 0.34665 0.23469 0.03454 0.0
N460 N 0.43799 0.26174 0.1169 0.0
N461 N 0.12349 0.25881 0.9663 0.0
C462 C 0.35911 0.2596 0.08265 0.0
C463 C 0.20176 0.26018 1.00154 0.0
N464 N 0.29344 0.30288 0.14647 0.0
N465 N 0.26551 0.21591 0.93903 0.0
H466 H 0.0713 0.27496 0.97375 0.0
H467 H 0.1063 0.23974 0.93395 0.0
H468 H 0.31524 0.19903 0.9289 0.0
H469 H 0.21717 0.21777 0.90212 0.0
H470 H 0.3418 0.30088 0.18337 0.0
H471 H 0.24222 0.31903 0.15713 0.0
H472 H 0.45448 0.28112 0.14877 0.0
H473 H 0.49112 0.24618 0.10876 0.0
C474 C 0.7242 0.76417 0.05746 0.0
C475 C 0.7169 0.78577 1.004 0.0
C476 C 0.84823 0.75826 0.96238 0.0
C477 C 0.85169 0.73536 1.01374 0.0
N478 N 0.79155 0.7153 0.10954 0.0
N479 N 0.76764 0.80205 0.90268 0.0
C480 C 0.78927 0.73814 0.06112 0.0
C481 C 0.77805 0.78237 0.95572 0.0
N482 N 0.67157 0.76965 0.10645 0.0
N483 N 0.9126 0.757 0.92018 0.0
H484 H 0.71831 0.82018 0.89666 0.0
H485 H 0.80342 0.79915 0.86268 0.0
H486 H 0.96388 0.73952 0.92386 0.0
H487 H 0.91964 0.77455 0.88441 0.0
H488 H 0.6807 0.75833 0.1508 0.0
H489 H 0.6203 0.78699 0.10343 0.0
H490 H 0.74142 0.71235 0.14026 0.0
H491 H 0.84291 0.69817 0.11765 0.0
C492 C 0.21583 0.75668 0.45962 0.0
C493 C 0.21353 0.73734 0.51576 0.0
C494 C 0.34569 0.76734 0.5613 0.0
C495 C 0.34856 0.7862 0.5045 0.0
N496 N 0.30032 0.79359 0.39508 0.0
N497 N 0.27529 0.7234 0.62032 0.0
C498 C 0.28707 0.77938 0.4525 0.0
C499 C 0.27846 0.74255 0.56672 0.0
N500 N 0.15005 0.75317 0.41296 0.0
N501 N 0.40649 0.77364 0.61033 0.0
H502 H 0.22275 0.70747 0.62796 0.0
H503 H 0.32389 0.72273 0.65714 0.0
H504 H 0.45861 0.79026 0.60645 0.0
H505 H 0.40606 0.76291 0.65513 0.0
H506 H 0.1432 0.76832 0.37281 0.0
H507 H 0.0977 0.73662 0.41672 0.0
H508 H 0.26295 0.7883 0.35326 0.0
H509 H 0.35574 0.80814 0.38831 0.0
C510 C 0.77652 0.28276 0.4875 0.0
C511 C 0.84598 0.28664 0.5359 0.0
C512 C 0.78175 0.24099 0.59657 0.0
C513 C 0.71506 0.23602 0.54686 0.0
N514 N 0.64854 0.25153 0.44473 0.0
N515 N 0.91881 0.26802 0.63414 0.0
C516 C 0.71189 0.257 0.49251 0.0
C517 C 0.85001 0.26513 0.58958 0.0
N518 N 0.77228 0.3042 0.43672 0.0
N519 N 0.77743 0.22316 0.65166 0.0
H520 H 0.96857 0.28575 0.63119 0.0
H521 H 0.93046 0.25173 0.67221 0.0
H522 H 0.72704 0.20616 0.65886 0.0
H523 H 0.81867 0.22685 0.69224 0.0
H524 H 0.71971 0.30583 0.40302 0.0
H525 H 0.82156 0.32145 0.42856 0.0
H526 H 0.64659 0.26308 0.40056 0.0
H527 H 0.5977 0.23433 0.44831 0.0
C528 C 0.07562 0.40565 0.27067 0.0
C529 C 0.07842 0.37553 0.23457 0.0
C530 C 1.00732 0.34545 0.31945 0.0
C531 C 0.99214 0.37666 0.35033 0.0
N532 N 1.00436 0.43715 0.35197 0.0
N533 N 0.04841 0.31605 0.22474 0.0
C534 C 1.02386 0.40698 0.32467 0.0
C535 C 0.04473 0.34521 0.25927 0.0
N536 N 0.12507 0.43257 0.25495 0.0
N537 N 0.98921 0.31587 0.34892 0.0
H538 H 0.08369 0.31404 0.18412 0.0
H539 H 1.01426 0.29426 0.23501 0.0
H540 H 0.95964 0.31496 0.39204 0.0
H541 H 1.00855 0.29229 0.33295 0.0
H542 H 0.1324 0.45421 0.28288 0.0
H543 H 0.16611 0.4318 0.21733 0.0
H544 H 1.01878 0.46036 0.33229 0.0
H545 H 0.96653 0.43895 0.39134 0.0
C546 C 0.9769 0.61282 0.23787 0.0
C547 C 0.98562 0.64254 0.2019 0.0
C548 C 0.08668 0.66553 0.28728 0.0
C549 C 0.07067 0.63748 0.32582 0.0
N550 N 0.9776 0.58942 0.3431 0.0
N551 N 0.03203 0.70065 0.19978 0.0
C552 C 1.00929 0.61248 0.30267 0.0
C553 C 0.03542 0.66998 0.22913 0.0
N554 N 0.94092 0.58445 0.21026 0.0
N555 N 0.15019 0.6882 0.3067 0.0
H556 H 0.99282 0.70513 0.1583 0.0
H557 H 0.06053 0.72235 0.21986 0.0
H558 H 0.1885 0.68548 0.34921 0.0
H559 H 0.17032 0.70771 0.27816 0.0
H560 H 0.94283 0.56112 0.23291 0.0
H561 H 0.91549 0.58352 0.16328 0.0
H562 H 0.92646 0.57296 0.32979 0.0
H563 H 0.99599 0.58905 0.39134 0.0
C564 C 0.05931 0.61619 0.80341 0.0
C565 C 0.99999 0.64125 0.82383 0.0
C566 C 1.02747 0.67434 0.72941 0.0
C567 C 0.07543 0.64696 0.70444 0.0
N568 N 0.11995 0.58847 0.71381 0.0
N569 N 0.91977 0.69266 0.80236 0.0
C570 C 0.08683 0.61691 0.74029 0.0
C571 C 0.98121 0.66976 0.78526 0.0
N572 N 0.09308 0.59248 0.84495 0.0
N573 N 1.0286 0.70514 0.70064 0.0
H574 H 0.88532 0.68996 0.84322 0.0
H575 H 0.89737 0.71247 0.77331 0.0
H576 H 0.06504 0.70976 0.66139 0.0
H577 H 1.00149 0.72681 0.71954 0.0
H578 H 0.14324 0.57591 0.83409 0.0
H579 H 0.07741 0.59155 0.89213 0.0
H580 H 0.11973 0.56504 0.73601 0.0
H581 H 0.1402 0.58741 0.66767 0.0
C582 C 0.97092 0.35606 0.76597 0.0
C583 C 0.98359 0.38504 0.72899 0.0
C584 C 0.07669 0.4094 0.81794 0.0
C585 C 0.06997 0.37901 0.85262 0.0
N586 N 1.03115 0.32017 0.85056 0.0
N587 N 0.06817 0.43553 0.71447 0.0
C588 C 1.0229 0.35139 0.82375 0.0
C589 C 0.04191 0.41071 0.75355 0.0
N590 N 0.91018 0.33262 0.74513 0.0
N591 N 0.11364 0.4374 0.8463 0.0
H592 H 0.04515 0.43732 0.66723 0.0
H593 H 0.1183 0.45247 0.72742 0.0
H594 H 0.14135 0.43776 0.89265 0.0
H595 H 0.1105 0.46113 0.82525 0.0
H596 H 0.89253 0.31221 0.77245 0.0
H597 H 0.87147 0.33551 0.70282 0.0
H598 H 1.00453 0.2984 0.82942 0.0
H599 H 0.07363 0.3156 0.89035 0.0
C600 C 0.59382 0.90389 0.2396 0.0
C601 C 0.56602 0.87703 0.19812 0.0
C602 C 0.45599 0.86165 0.27389 0.0
C603 C 0.49413 0.88406 0.31937 0.0
N604 N 0.60923 0.92413 0.34805 0.0
N605 N 0.48476 0.82443 0.18762 0.0
C606 C 0.56636 0.90433 0.30306 0.0
C607 C 0.50117 0.85418 0.21882 0.0
N608 N 0.64139 0.93017 0.21834 0.0
N609 N 0.37654 0.84738 0.28296 0.0
H610 H 0.52037 0.81638 0.15 0.0
H611 H 0.4435 0.80598 0.20418 0.0
H612 H 0.34004 0.85394 0.3213 0.0
H613 H 0.34267 0.83262 0.24854 0.0
H614 H 0.65457 0.95187 0.24526 0.0
H615 H 0.65952 0.93237 0.17192 0.0
H616 H 0.66855 0.93607 0.34087 0.0
H617 H 0.58824 0.92696 0.39371 0.0
C618 C 0.53061 0.17128 0.2576 0.0
C619 C 0.48739 0.14224 0.23111 0.0
C620 C 0.53841 0.11006 0.32603 0.0
C621 C 0.58295 0.13892 0.35141 0.0
N622 N 0.63693 0.19463 0.33659 0.0
N623 N 0.42852 0.08723 0.24924 0.0
C624 C 0.58326 0.16889 0.31565 0.0
C625 C 0.48524 0.11242 0.26781 0.0
N626 N 0.5169 0.20164 0.22823 0.0
N627 N 0.5502 0.08002 0.3567 0.0
H628 H 0.38566 0.08905 0.20893 0.0
H629 H 0.41751 0.06616 0.27686 0.0
H630 H 0.59044 0.07776 0.3984 0.0
H631 H 0.52774 0.0571 0.33785 0.0
H632 H 0.54023 0.22451 0.24673 0.0
H633 H 0.47348 0.20419 0.18827 0.0
H634 H 0.64716 0.21632 0.31051 0.0
H635 H 0.67839 0.19249 0.37775 0.0
C636 C 0.50282 0.17587 0.81896 0.0
C637 C 0.48883 0.14444 0.84887 0.0
C638 C 0.57332 0.11642 0.76848 0.0
C639 C 0.57565 0.14661 0.73307 0.0
N640 N 0.53955 0.20578 0.72425 0.0
N641 N 0.49461 0.08395 0.8433 0.0
C642 C 0.53917 0.17655 0.75829 0.0
C643 C 0.51858 0.11445 0.82055 0.0
N644 N 0.48407 0.20521 0.84955 0.0
N645 N 0.6271 0.09022 0.75503 0.0
H646 H 0.45423 0.08172 0.88116 0.0
H647 H 0.50792 0.06128 0.82058 0.0
H648 H 0.6739 0.09218 0.72137 0.0
H649 H 0.63262 0.06845 0.78253 0.0
H650 H 0.50263 0.22891 0.83423 0.0
H651 H 0.45442 0.20573 0.8927 0.0
H652 H 0.50378 0.22716 0.73552 0.0
H653 H 0.57329 0.20822 0.68306 0.0
C654 C 0.47186 0.85445 0.73402 0.0
C655 C 0.47664 0.88402 0.69786 0.0
C656 C 0.57757 0.90922 0.78116 0.0
C657 C 0.57396 0.87914 0.81718 0.0
N658 N 0.53365 0.82038 0.82071 0.0
N659 N 0.51675 0.94207 0.69122 0.0
C660 C 0.52561 0.85097 0.79122 0.0
C661 C 0.52501 0.91212 0.72267 0.0
N662 N 0.41246 0.83029 0.71455 0.0
N663 N 0.63343 0.9344 0.80149 0.0
H664 H 0.47639 0.94466 0.64965 0.0
H665 H 0.54222 0.96476 0.70896 0.0
H666 H 0.6742 0.93263 0.84285 0.0
H667 H 0.64522 0.9558 0.77505 0.0
H668 H 0.39816 0.80937 0.74162 0.0
H669 H 0.37048 0.83331 0.67385 0.0
H670 H 0.50745 0.79812 0.80144 0.0
H671 H 0.57375 0.81663 0.86195 0.0
loop_
_geom_bond_atom_site_label_1
_geom_bond_atom_site_label_2
_geom_bond_distance
_geom_bond_site_symmetry_2
_ccdc_geom_bond_type
Co0 N5 2.057 1_554 S
Co0 O17 2.021 . S
Co0 O20 2.062 . S
Co0 O24 2.117 1_654 S
Co0 O25 2.020 1_655 S
C1 O21 1.259 . S
C1 O24 1.258 . S
Co2 N11 2.057 . S
Co2 O18 2.117 . S
Co2 O19 2.020 . S
Co2 O21 2.021 1_554 S
Co2 O26 2.062 . S
C3 N5 1.316 1_554 S
C3 N6 1.347 1_554 S
C3 H8 0.931 . S
C4 N5 1.375 . S
C4 C7 1.350 . S
C4 H9 0.930 . S
N5 Co0 2.057 1_556 S
N5 C3 1.316 1_556 S
N5 C4 1.375 . S
N6 C3 1.347 1_556 S
N6 C7 1.373 . S
C7 C4 1.350 . S
C7 N6 1.373 . S
C7 H28 0.931 . S
H8 C3 0.931 . S
H9 C4 0.930 . S
C10 O17 1.259 1_455 S
C10 O18 1.258 . S
N11 Co2 2.057 . S
N11 C12 1.316 1_554 S
N11 C13 1.375 . S
C12 N11 1.316 1_556 S
C12 N14 1.347 1_556 S
C12 H23 0.931 . S
C13 N11 1.375 . S
C13 C15 1.350 . S
C13 H22 0.930 . S
N14 C12 1.347 1_554 S
N14 C15 1.373 . S
C15 C13 1.350 . S
C15 N14 1.373 . S
C15 H29 0.931 . S
C16 O19 1.256 . S
C16 O20 1.255 1_455 S
O17 Co0 2.021 . S
O17 C10 1.259 1_655 S
O18 Co2 2.117 . S
O18 C10 1.258 . S
O19 Co2 2.020 . S
O19 C16 1.256 . S
O20 Co0 2.062 . S
O20 C16 1.255 1_655 S
O21 C1 1.259 . S
O21 Co2 2.021 1_556 S
H22 C13 0.930 . S
H23 C12 0.931 . S
O24 Co0 2.117 1_456 S
O24 C1 1.258 . S
O25 Co0 2.020 1_455 S
O25 C27 1.256 . S
O26 Co2 2.062 . S
O26 C27 1.255 . S
C27 O25 1.256 . S
C27 O26 1.255 . S
H28 C7 0.931 . S
H29 C15 0.931 . S
Co30 N35 2.057 1_554 S
Co30 O47 2.021 . S
Co30 O50 2.062 . S
Co30 O54 2.117 1_554 S
Co30 O55 2.020 . S
C31 O51 1.259 1_655 S
C31 O54 1.258 . S
Co32 N41 2.057 . S
Co32 O48 2.117 1_455 S
Co32 O49 2.020 1_455 S
Co32 O51 2.021 1_554 S
Co32 O56 2.061 1_554 S
C33 N35 1.316 1_554 S
C33 N36 1.347 1_554 S
C33 H38 0.931 . S
C34 N35 1.375 . S
C34 C37 1.350 . S
C34 H39 0.930 . S
N35 Co30 2.057 1_556 S
N35 C33 1.316 1_556 S
N35 C34 1.375 . S
N36 C33 1.347 1_556 S
N36 C37 1.373 . S
C37 C34 1.350 . S
C37 N36 1.373 . S
C37 H58 0.931 . S
H38 C33 0.931 . S
H39 C34 0.930 . S
C40 O47 1.259 . S
C40 O48 1.258 . S
N41 Co32 2.057 . S
N41 C42 1.316 1_554 S
N41 C43 1.375 . S
C42 N41 1.316 1_556 S
C42 N44 1.347 1_556 S
C42 H53 0.931 . S
C43 N41 1.375 . S
C43 C45 1.350 . S
C43 H52 0.930 . S
N44 C42 1.347 1_554 S
N44 C45 1.373 . S
C45 C43 1.350 . S
C45 N44 1.373 . S
C45 H59 0.931 . S
C46 O49 1.256 . S
C46 O50 1.255 . S
O47 Co30 2.021 . S
O47 C40 1.259 . S
O48 Co32 2.117 1_655 S
O48 C40 1.258 . S
O49 Co32 2.020 1_655 S
O49 C46 1.256 . S
O50 Co30 2.062 . S
O50 C46 1.255 . S
O51 C31 1.259 1_455 S
O51 Co32 2.021 1_556 S
H52 C43 0.930 . S
H53 C42 0.931 . S
O54 Co30 2.117 1_556 S
O54 C31 1.258 . S
O55 Co30 2.020 . S
O55 C57 1.256 . S
O56 Co32 2.061 1_556 S
O56 C57 1.254 1_456 S
C57 O55 1.256 . S
C57 O56 1.254 1_654 S
H58 C37 0.931 . S
H59 C45 0.931 . S
Co60 N65 2.057 . S
Co60 O77 2.021 . S
Co60 O80 2.062 . S
Co60 O84 2.117 . S
Co60 O85 2.020 . S
C61 O81 1.259 1_455 S
C61 O84 1.258 . S
Co62 N71 2.057 . S
Co62 O78 2.117 1_655 S
Co62 O79 2.020 1_655 S
Co62 O81 2.021 . S
Co62 O86 2.062 . S
C63 N65 1.316 . S
C63 N66 1.347 . S
C63 H68 0.931 . S
C64 N65 1.375 . S
C64 C67 1.350 . S
C64 H69 0.930 . S
N65 Co60 2.057 . S
N65 C63 1.316 . S
N65 C64 1.375 . S
N66 C63 1.347 . S
N66 C67 1.373 . S
C67 C64 1.350 . S
C67 N66 1.373 . S
C67 H88 0.931 . S
H68 C63 0.931 . S
H69 C64 0.930 . S
C70 O77 1.259 . S
C70 O78 1.258 . S
N71 Co62 2.057 . S
N71 C72 1.316 . S
N71 C73 1.375 . S
C72 N71 1.316 . S
C72 N74 1.347 . S
C72 H83 0.931 . S
C73 N71 1.375 . S
C73 C75 1.350 . S
C73 H82 0.930 . S
N74 C72 1.347 . S
N74 C75 1.373 . S
C75 C73 1.350 . S
C75 N74 1.373 . S
C75 H89 0.931 . S
C76 O79 1.256 . S
C76 O80 1.255 . S
O77 Co60 2.021 . S
O77 C70 1.259 . S
O78 Co62 2.117 1_455 S
O78 C70 1.258 . S
O79 Co62 2.020 1_455 S
O79 C76 1.256 . S
O80 Co60 2.062 . S
O80 C76 1.255 . S
O81 C61 1.259 1_655 S
O81 Co62 2.021 . S
H82 C73 0.930 . S
H83 C72 0.931 . S
O84 Co60 2.117 . S
O84 C61 1.258 . S
O85 Co60 2.020 . S
O85 C87 1.256 . S
O86 Co62 2.062 . S
O86 C87 1.255 1_655 S
C87 O85 1.256 . S
C87 O86 1.255 1_455 S
H88 C67 0.931 . S
H89 C75 0.931 . S
Co90 N95 2.057 . S
Co90 O107 2.021 . S
Co90 O110 2.062 . S
Co90 O114 2.117 1_455 S
Co90 O115 2.020 1_455 S
C91 O111 1.259 . S
C91 O114 1.258 . S
Co92 N101 2.057 . S
Co92 O108 2.117 . S
Co92 O109 2.020 . S
Co92 O111 2.021 . S
Co92 O116 2.062 . S
C93 N95 1.316 . S
C93 N96 1.347 . S
C93 H98 0.931 . S
C94 N95 1.375 . S
C94 C97 1.350 . S
C94 H99 0.930 . S
N95 Co90 2.057 . S
N95 C93 1.316 . S
N95 C94 1.375 . S
N96 C93 1.347 . S
N96 C97 1.373 . S
C97 C94 1.350 . S
C97 N96 1.373 . S
C97 H118 0.931 . S
H98 C93 0.931 . S
H99 C94 0.930 . S
C100 O107 1.259 1_655 S
C100 O108 1.258 . S
N101 Co92 2.057 . S
N101 C102 1.316 . S
N101 C103 1.375 . S
C102 N101 1.316 . S
C102 N104 1.347 . S
C102 H113 0.931 . S
C103 N101 1.375 . S
C103 C105 1.350 . S
C103 H112 0.930 . S
N104 C102 1.347 . S
N104 C105 1.373 . S
C105 C103 1.350 . S
C105 N104 1.373 . S
C105 H119 0.931 . S
C106 O109 1.256 . S
C106 O110 1.255 1_655 S
O107 Co90 2.021 . S
O107 C100 1.259 1_455 S
O108 Co92 2.117 . S
O108 C100 1.258 . S
O109 Co92 2.020 . S
O109 C106 1.256 . S
O110 Co90 2.062 . S
O110 C106 1.255 1_455 S
O111 C91 1.259 . S
O111 Co92 2.021 . S
H112 C103 0.930 . S
H113 C102 0.931 . S
O114 Co90 2.117 1_655 S
O114 C91 1.258 . S
O115 Co90 2.020 1_655 S
O115 C117 1.256 . S
O116 Co92 2.062 . S
O116 C117 1.255 . S
C117 O115 1.256 . S
C117 O116 1.255 . S
H118 C97 0.931 . S
H119 C105 0.931 . S
Co120 N125 2.057 1_554 S
Co120 O137 2.021 . S
Co120 O140 2.062 . S
Co120 O144 2.117 1_554 S
Co120 O145 2.020 . S
C121 O141 1.259 . S
C121 O144 1.258 . S
Co122 N131 2.057 . S
Co122 O138 2.117 . S
Co122 O139 2.020 . S
Co122 O141 2.021 1_554 S
Co122 O146 2.062 . S
C123 N125 1.316 1_554 S
C123 N126 1.347 1_554 S
C123 H128 0.931 . S
C124 N125 1.375 . S
C124 C127 1.350 . S
C124 H129 0.930 . S
N125 Co120 2.057 1_556 S
N125 C123 1.316 1_556 S
N125 C124 1.375 . S
N126 C123 1.347 1_556 S
N126 C127 1.373 . S
C127 C124 1.350 . S
C127 N126 1.373 . S
C127 H148 0.931 . S
H128 C123 0.931 . S
H129 C124 0.930 . S
C130 O137 1.259 . S
C130 O138 1.258 . S
N131 Co122 2.057 . S
N131 C132 1.316 1_554 S
N131 C133 1.375 . S
C132 N131 1.316 1_556 S
C132 N134 1.347 1_556 S
C132 H143 0.931 . S
C133 N131 1.375 . S
C133 C135 1.350 . S
C133 H142 0.930 . S
N134 C132 1.347 1_554 S
N134 C135 1.373 . S
C135 C133 1.350 . S
C135 N134 1.373 . S
C135 H149 0.931 . S
C136 O139 1.256 . S
C136 O140 1.255 . S
O137 Co120 2.021 . S
O137 C130 1.259 . S
O138 Co122 2.117 . S
O138 C130 1.258 . S
O139 Co122 2.020 . S
O139 C136 1.256 . S
O140 Co120 2.062 . S
O140 C136 1.255 . S
O141 C121 1.259 . S
O141 Co122 2.021 1_556 S
H142 C133 0.930 . S
H143 C132 0.931 . S
O144 Co120 2.117 1_556 S
O144 C121 1.258 . S
O145 Co120 2.020 . S
O145 C147 1.256 . S
O146 Co122 2.062 . S
O146 C147 1.255 . S
C147 O145 1.256 . S
C147 O146 1.255 . S
H148 C127 0.931 . S
H149 C135 0.931 . S
Co150 N155 2.057 1_554 S
Co150 O167 2.021 . S
Co150 O170 2.062 . S
Co150 O174 2.117 1_554 S
Co150 O175 2.020 . S
C151 O171 1.259 . S
C151 O174 1.258 . S
Co152 N161 2.057 . S
Co152 O168 2.117 . S
Co152 O169 2.020 . S
Co152 O171 2.021 1_554 S
Co152 O176 2.061 1_554 S
C153 N155 1.316 1_554 S
C153 N156 1.347 1_554 S
C153 H158 0.931 . S
C154 N155 1.375 . S
C154 C157 1.350 . S
C154 H159 0.930 . S
N155 Co150 2.057 1_556 S
N155 C153 1.316 1_556 S
N155 C154 1.375 . S
N156 C153 1.347 1_556 S
N156 C157 1.373 . S
C157 C154 1.350 . S
C157 N156 1.373 . S
C157 H178 0.931 . S
H158 C153 0.931 . S
H159 C154 0.930 . S
C160 O167 1.259 . S
C160 O168 1.258 . S
N161 Co152 2.057 . S
N161 C162 1.316 1_554 S
N161 C163 1.375 . S
C162 N161 1.316 1_556 S
C162 N164 1.347 1_556 S
C162 H173 0.931 . S
C163 N161 1.375 . S
C163 C165 1.350 . S
C163 H172 0.930 . S
N164 C162 1.347 1_554 S
N164 C165 1.373 . S
C165 C163 1.350 . S
C165 N164 1.373 . S
C165 H179 0.931 . S
C166 O169 1.256 . S
C166 O170 1.255 . S
O167 Co150 2.021 . S
O167 C160 1.259 . S
O168 Co152 2.117 . S
O168 C160 1.258 . S
O169 Co152 2.020 . S
O169 C166 1.256 . S
O170 Co150 2.062 . S
O170 C166 1.255 . S
O171 C151 1.259 . S
O171 Co152 2.021 1_556 S
H172 C163 0.930 . S
H173 C162 0.931 . S
O174 Co150 2.117 1_556 S
O174 C151 1.258 . S
O175 Co150 2.020 . S
O175 C177 1.256 . S
O176 Co152 2.061 1_556 S
O176 C177 1.254 1_556 S
C177 O175 1.256 . S
C177 O176 1.254 1_554 S
H178 C157 0.931 . S
H179 C165 0.931 . S
Co180 N185 2.057 . S
Co180 O197 2.021 . S
Co180 O200 2.062 . S
Co180 O204 2.117 . S
Co180 O205 2.020 . S
C181 O201 1.259 . S
C181 O204 1.258 . S
Co182 N191 2.057 . S
Co182 O198 2.117 . S
Co182 O199 2.020 . S
Co182 O201 2.021 . S
Co182 O206 2.062 . S
C183 N185 1.316 . S
C183 N186 1.347 . S
C183 H188 0.931 . S
C184 N185 1.375 . S
C184 C187 1.350 . S
C184 H189 0.930 . S
N185 Co180 2.057 . S
N185 C183 1.316 . S
N185 C184 1.375 . S
N186 C183 1.347 . S
N186 C187 1.373 . S
C187 C184 1.350 . S
C187 N186 1.373 . S
C187 H208 0.931 . S
H188 C183 0.931 . S
H189 C184 0.930 . S
C190 O197 1.259 . S
C190 O198 1.258 . S
N191 Co182 2.057 . S
N191 C192 1.316 . S
N191 C193 1.375 . S
C192 N191 1.316 . S
C192 N194 1.347 . S
C192 H203 0.931 . S
C193 N191 1.375 . S
C193 C195 1.350 . S
C193 H202 0.930 . S
N194 C192 1.347 . S
N194 C195 1.373 . S
C195 C193 1.350 . S
C195 N194 1.373 . S
C195 H209 0.931 . S
C196 O199 1.256 . S
C196 O200 1.255 . S
O197 Co180 2.021 . S
O197 C190 1.259 . S
O198 Co182 2.117 . S
O198 C190 1.258 . S
O199 Co182 2.020 . S
O199 C196 1.256 . S
O200 Co180 2.062 . S
O200 C196 1.255 . S
O201 C181 1.259 . S
O201 Co182 2.021 . S
H202 C193 0.930 . S
H203 C192 0.931 . S
O204 Co180 2.117 . S
O204 C181 1.258 . S
O205 Co180 2.020 . S
O205 C207 1.256 . S
O206 Co182 2.062 . S
O206 C207 1.255 . S
C207 O205 1.256 . S
C207 O206 1.255 . S
H208 C187 0.931 . S
H209 C195 0.931 . S
Co210 N215 2.057 . S
Co210 O227 2.021 . S
Co210 O230 2.062 . S
Co210 O234 2.117 . S
Co210 O235 2.020 . S
C211 O231 1.259 . S
C211 O234 1.258 . S
Co212 N221 2.057 . S
Co212 O228 2.117 . S
Co212 O229 2.020 . S
Co212 O231 2.021 . S
Co212 O236 2.062 . S
C213 N215 1.316 . S
C213 N216 1.347 . S
C213 H218 0.931 . S
C214 N215 1.375 . S
C214 C217 1.350 . S
C214 H219 0.930 . S
N215 Co210 2.057 . S
N215 C213 1.316 . S
N215 C214 1.375 . S
N216 C213 1.347 . S
N216 C217 1.373 . S
C217 C214 1.350 . S
C217 N216 1.373 . S
C217 H238 0.931 . S
H218 C213 0.931 . S
H219 C214 0.930 . S
C220 O227 1.259 . S
C220 O228 1.258 . S
N221 Co212 2.057 . S
N221 C222 1.316 . S
N221 C223 1.375 . S
C222 N221 1.316 . S
C222 N224 1.347 . S
C222 H233 0.931 . S
C223 N221 1.375 . S
C223 C225 1.350 . S
C223 H232 0.930 . S
N224 C222 1.347 . S
N224 C225 1.373 . S
C225 C223 1.350 . S
C225 N224 1.373 . S
C225 H239 0.931 . S
C226 O229 1.256 . S
C226 O230 1.255 . S
O227 Co210 2.021 . S
O227 C220 1.259 . S
O228 Co212 2.117 . S
O228 C220 1.258 . S
O229 Co212 2.020 . S
O229 C226 1.256 . S
O230 Co210 2.062 . S
O230 C226 1.255 . S
O231 C211 1.259 . S
O231 Co212 2.021 . S
H232 C223 0.930 . S
H233 C222 0.931 . S
O234 Co210 2.117 . S
O234 C211 1.258 . S
O235 Co210 2.020 . S
O235 C237 1.256 . S
O236 Co212 2.062 . S
O236 C237 1.255 . S
C237 O235 1.256 . S
C237 O236 1.255 . S
H238 C217 0.931 . S
H239 C225 0.931 . S
C240 C241 1.363 . S
C240 C246 1.379 . S
C240 N248 1.356 . S
C241 C240 1.363 . S
C241 C247 1.363 1_554 S
C242 C243 1.363 1_556 S
C242 C247 1.379 . S
C242 N249 1.356 . S
C243 C242 1.363 1_554 S
C243 C246 1.363 . S
N244 C246 1.356 . S
N244 H256 0.984 . S
N244 H257 0.985 . S
N245 C247 1.356 . S
N245 H250 0.984 . S
N245 H251 0.985 . S
C246 C240 1.379 . S
C246 C243 1.363 . S
C246 N244 1.356 . S
C247 C241 1.363 1_556 S
C247 C242 1.379 . S
C247 N245 1.356 . S
N248 C240 1.356 . S
N248 H254 0.984 . S
N248 H255 0.984 . S
N249 C242 1.356 . S
N249 H252 0.984 . S
N249 H253 0.985 . S
H250 N245 0.984 . S
H251 N245 0.985 . S
H252 N249 0.984 . S
H253 N249 0.985 . S
H254 N248 0.984 . S
H255 N248 0.984 . S
H256 N244 0.984 . S
H257 N244 0.985 . S
C258 C259 1.363 1_556 S
C258 C264 1.379 . S
C258 N266 1.356 . S
C259 C258 1.363 1_554 S
C259 C265 1.363 . S
C260 C261 1.363 . S
C260 C265 1.379 . S
C260 N267 1.356 . S
C261 C260 1.363 . S
C261 C264 1.363 1_554 S
N262 C264 1.356 . S
N262 H274 0.984 . S
N262 H275 0.985 . S
N263 C265 1.356 . S
N263 H268 0.984 . S
N263 H269 0.985 . S
C264 C258 1.379 . S
C264 C261 1.363 1_556 S
C264 N262 1.356 . S
C265 C259 1.363 . S
C265 C260 1.379 . S
C265 N263 1.356 . S
N266 C258 1.356 . S
N266 H272 0.984 . S
N266 H273 0.984 . S
N267 C260 1.356 . S
N267 H270 0.984 . S
N267 H271 0.985 . S
H268 N263 0.984 . S
H269 N263 0.985 . S
H270 N267 0.984 . S
H271 N267 0.985 . S
H272 N266 0.984 . S
H273 N266 0.984 . S
H274 N262 0.984 . S
H275 N262 0.985 . S
C276 C277 1.363 . S
C276 C282 1.379 . S
C276 N284 1.356 . S
C277 C276 1.363 . S
C277 C283 1.363 . S
C278 C279 1.363 . S
C278 C283 1.379 . S
C278 N285 1.356 . S
C279 C278 1.363 . S
C279 C282 1.363 . S
N280 C282 1.356 . S
N280 H292 0.984 . S
N280 H293 0.985 . S
N281 C283 1.356 . S
N281 H286 0.984 . S
N281 H287 0.985 . S
C282 C276 1.379 . S
C282 C279 1.363 . S
C282 N280 1.356 . S
C283 C277 1.363 . S
C283 C278 1.379 . S
C283 N281 1.356 . S
N284 C276 1.356 . S
N284 H290 0.984 . S
N284 H291 0.984 . S
N285 C278 1.356 . S
N285 H288 0.984 . S
N285 H289 0.985 . S
H286 N281 0.984 . S
H287 N281 0.985 . S
H288 N285 0.984 . S
H289 N285 0.985 . S
H290 N284 0.984 . S
H291 N284 0.984 . S
H292 N280 0.984 . S
H293 N280 0.985 . S
C294 C295 1.363 . S
C294 C300 1.379 . S
C294 N302 1.356 . S
C295 C294 1.363 . S
C295 C301 1.363 . S
C296 C297 1.363 . S
C296 C301 1.379 . S
C296 N303 1.356 . S
C297 C296 1.363 . S
C297 C300 1.363 . S
N298 C300 1.356 . S
N298 H310 0.984 . S
N298 H311 0.985 . S
N299 C301 1.356 . S
N299 H304 0.984 . S
N299 H305 0.985 . S
C300 C294 1.379 . S
C300 C297 1.363 . S
C300 N298 1.356 . S
C301 C295 1.363 . S
C301 C296 1.379 . S
C301 N299 1.356 . S
N302 C294 1.356 . S
N302 H308 0.984 . S
N302 H309 0.984 . S
N303 C296 1.356 . S
N303 H306 0.984 . S
N303 H307 0.985 . S
H304 N299 0.984 . S
H305 N299 0.985 . S
H306 N303 0.984 . S
H307 N303 0.985 . S
H308 N302 0.984 . S
H309 N302 0.984 . S
H310 N298 0.984 . S
H311 N298 0.985 . S
C312 C313 1.363 1_456 S
C312 C318 1.378 . S
C312 N320 1.357 1_455 S
C313 C312 1.363 1_654 S
C313 C319 1.363 1_655 S
C314 C315 1.363 . S
C314 C319 1.379 . S
C314 N321 1.356 . S
C315 C314 1.363 . S
C315 C318 1.363 1_554 S
N316 C318 1.356 . S
N316 H328 0.984 . S
N316 H329 0.985 . S
N317 C319 1.363 . S
N317 H322 0.972 1_455 S
N317 H323 0.990 . S
C318 C312 1.378 . S
C318 C315 1.363 1_556 S
C318 N316 1.356 . S
C319 C313 1.363 1_455 S
C319 C314 1.379 . S
C319 N317 1.363 . S
N320 C312 1.357 1_655 S
N320 H326 0.984 . S
N320 H327 0.984 . S
N321 C314 1.356 . S
N321 H324 0.984 . S
N321 H325 0.985 . S
H322 N317 0.972 1_655 S
H323 N317 0.990 . S
H324 N321 0.984 . S
H325 N321 0.985 . S
H326 N320 0.984 . S
H327 N320 0.984 . S
H328 N316 0.984 . S
H329 N316 0.985 . S
C330 C331 1.363 1_656 S
C330 C336 1.379 . S
C330 N338 1.356 1_655 S
C331 C330 1.363 1_454 S
C331 C337 1.363 1_455 S
C332 C333 1.363 . S
C332 C337 1.379 . S
C332 N339 1.356 . S
C333 C332 1.363 . S
C333 C336 1.363 1_554 S
N334 C336 1.356 . S
N334 H346 0.984 . S
N334 H347 0.985 . S
N335 C337 1.356 1_455 S
N335 H340 0.984 . S
N335 H341 0.985 1_455 S
C336 C330 1.379 . S
C336 C333 1.363 1_556 S
C336 N334 1.356 . S
C337 C331 1.363 1_655 S
C337 C332 1.379 . S
C337 N335 1.356 1_655 S
N338 C330 1.356 1_455 S
N338 H344 0.984 . S
N338 H345 0.984 . S
N339 C332 1.356 . S
N339 H342 0.984 . S
N339 H343 0.985 . S
H340 N335 0.984 . S
H341 N335 0.985 1_655 S
H342 N339 0.984 . S
H343 N339 0.985 . S
H344 N338 0.984 . S
H345 N338 0.984 . S
H346 N334 0.984 . S
H347 N334 0.985 . S
C348 C349 1.363 . S
C348 C354 1.379 . S
C348 N356 1.356 . S
C349 C348 1.363 . S
C349 C355 1.363 . S
C350 C351 1.363 1_455 S
C350 C355 1.379 . S
C350 N357 1.356 1_455 S
C351 C350 1.363 1_655 S
C351 C354 1.363 1_655 S
N352 C354 1.356 1_655 S
N352 H364 0.984 1_655 S
N352 H365 0.985 . S
N353 C355 1.356 . S
N353 H358 0.984 . S
N353 H359 0.985 . S
C354 C348 1.379 . S
C354 C351 1.363 1_455 S
C354 N352 1.356 1_455 S
C355 C349 1.363 . S
C355 C350 1.379 . S
C355 N353 1.356 . S
N356 C348 1.356 . S
N356 H362 0.984 . S
N356 H363 0.984 . S
N357 C350 1.356 1_655 S
N357 H360 0.984 . S
N357 H361 0.985 . S
H358 N353 0.984 . S
H359 N353 0.985 . S
H360 N357 0.984 . S
H361 N357 0.985 . S
H362 N356 0.984 . S
H363 N356 0.984 . S
H364 N352 0.984 1_455 S
H365 N352 0.985 . S
C366 C367 1.363 . S
C366 C372 1.379 . S
C366 N374 1.356 . S
C367 C366 1.363 . S
C367 C373 1.363 . S
C368 C369 1.363 1_655 S
C368 C373 1.379 . S
C368 N375 1.356 1_655 S
C369 C368 1.363 1_455 S
C369 C372 1.363 1_455 S
N370 C372 1.356 1_455 S
N370 H382 0.984 . S
N370 H383 0.985 . S
N371 C373 1.356 . S
N371 H376 0.984 . S
N371 H377 0.985 . S
C372 C366 1.379 . S
C372 C369 1.363 1_655 S
C372 N370 1.356 1_655 S
C373 C367 1.363 . S
C373 C368 1.379 . S
C373 N371 1.356 . S
N374 C366 1.356 . S
N374 H380 0.984 . S
N374 H381 0.984 . S
N375 C368 1.356 1_455 S
N375 H378 0.984 . S
N375 H379 0.985 1_455 S
H376 N371 0.984 . S
H377 N371 0.985 . S
H378 N375 0.984 . S
H379 N375 0.985 1_655 S
H380 N374 0.984 . S
H381 N374 0.984 . S
H382 N370 0.984 . S
H383 N370 0.985 . S
C384 C385 1.363 1_556 S
C384 C390 1.379 . S
C384 N392 1.356 . S
C385 C384 1.363 1_554 S
C385 C391 1.363 1_655 S
C386 C387 1.363 . S
C386 C391 1.379 . S
C386 N393 1.356 . S
C387 C386 1.363 . S
C387 C390 1.363 1_454 S
N388 C390 1.356 . S
N388 H400 0.984 . S
N388 H401 0.985 . S
N389 C391 1.356 . S
N389 H394 0.984 . S
N389 H395 0.985 . S
C390 C384 1.379 . S
C390 C387 1.363 1_656 S
C390 N388 1.356 . S
C391 C385 1.363 1_455 S
C391 C386 1.379 . S
C391 N389 1.356 . S
N392 C384 1.356 . S
N392 H398 0.984 . S
N392 H399 0.984 . S
N393 C386 1.356 . S
N393 H396 0.984 . S
N393 H397 0.985 . S
H394 N389 0.984 . S
H395 N389 0.985 . S
H396 N393 0.984 . S
H397 N393 0.985 . S
H398 N392 0.984 . S
H399 N392 0.984 . S
H400 N388 0.984 . S
H401 N388 0.985 . S
C402 C403 1.363 . S
C402 C408 1.379 . S
C402 N410 1.356 . S
C403 C402 1.363 . S
C403 C409 1.363 1_655 S
C404 C405 1.363 . S
C404 C409 1.379 . S
C404 N411 1.356 . S
C405 C404 1.363 . S
C405 C408 1.363 1_455 S
N406 C408 1.356 . S
N406 H418 0.984 . S
N406 H419 0.985 . S
N407 C409 1.356 . S
N407 H412 0.984 . S
N407 H413 0.985 . S
C408 C402 1.379 . S
C408 C405 1.363 1_655 S
C408 N406 1.356 . S
C409 C403 1.363 1_455 S
C409 C404 1.379 . S
C409 N407 1.356 . S
N410 C402 1.356 . S
N410 H416 0.984 . S
N410 H417 0.984 . S
N411 C404 1.356 . S
N411 H414 0.984 . S
N411 H415 0.985 . S
H412 N407 0.984 . S
H413 N407 0.985 . S
H414 N411 0.984 . S
H415 N411 0.985 . S
H416 N410 0.984 . S
H417 N410 0.984 . S
H418 N406 0.984 . S
H419 N406 0.985 . S
C420 C421 1.363 1_556 S
C420 C426 1.379 1_565 S
C420 N428 1.356 . S
C421 C420 1.363 1_554 S
C421 C427 1.363 . S
C422 C423 1.363 . S
C422 C427 1.379 1_545 S
C422 N429 1.356 . S
C423 C422 1.363 . S
C423 C426 1.363 1_554 S
N424 C426 1.356 . S
N424 H436 0.984 . S
N424 H437 0.985 . S
N425 C427 1.356 . S
N425 H430 0.984 . S
N425 H431 0.985 . S
C426 C420 1.379 1_545 S
C426 C423 1.363 1_556 S
C426 N424 1.356 . S
C427 C421 1.363 . S
C427 C422 1.379 1_565 S
C427 N425 1.356 . S
N428 C420 1.356 . S
N428 H434 0.984 . S
N428 H435 0.984 . S
N429 C422 1.356 . S
N429 H432 0.984 . S
N429 H433 0.985 . S
H430 N425 0.984 . S
H431 N425 0.985 . S
H432 N429 0.984 . S
H433 N429 0.985 . S
H434 N428 0.984 . S
H435 N428 0.984 . S
H436 N424 0.984 . S
H437 N424 0.985 . S
C438 C439 1.363 . S
C438 C444 1.379 1_545 S
C438 N446 1.356 . S
C439 C438 1.363 . S
C439 C445 1.363 . S
C440 C441 1.363 . S
C440 C445 1.379 1_565 S
C440 N447 1.356 . S
C441 C440 1.363 . S
C441 C444 1.363 . S
N442 C444 1.356 . S
N442 H454 0.984 . S
N442 H455 0.985 . S
N443 C445 1.356 . S
N443 H448 0.984 . S
N443 H449 0.985 . S
C444 C438 1.379 1_565 S
C444 C441 1.363 . S
C444 N442 1.356 . S
C445 C439 1.363 . S
C445 C440 1.379 1_545 S
C445 N443 1.356 . S
N446 C438 1.356 . S
N446 H452 0.984 . S
N446 H453 0.984 . S
N447 C440 1.356 . S
N447 H450 0.984 . S
N447 H451 0.985 . S
H448 N443 0.984 . S
H449 N443 0.985 . S
H450 N447 0.984 . S
H451 N447 0.985 . S
H452 N446 0.984 . S
H453 N446 0.984 . S
H454 N442 0.984 . S
H455 N442 0.985 . S
C456 C457 1.363 . S
C456 C462 1.379 . S
C456 N464 1.356 . S
C457 C456 1.363 . S
C457 C463 1.363 1_554 S
C458 C459 1.363 1_556 S
C458 C463 1.379 . S
C458 N465 1.356 . S
C459 C458 1.363 1_554 S
C459 C462 1.363 . S
N460 C462 1.356 . S
N460 H472 0.984 . S
N460 H473 0.985 . S
N461 C463 1.356 . S
N461 H466 0.984 . S
N461 H467 0.985 . S
C462 C456 1.379 . S
C462 C459 1.363 . S
C462 N460 1.356 . S
C463 C457 1.363 1_556 S
C463 C458 1.379 . S
C463 N461 1.356 . S
N464 C456 1.356 . S
N464 H470 0.984 . S
N464 H471 0.984 . S
N465 C458 1.356 . S
N465 H468 0.984 . S
N465 H469 0.985 . S
H466 N461 0.984 . S
H467 N461 0.985 . S
H468 N465 0.984 . S
H469 N465 0.985 . S
H470 N464 0.984 . S
H471 N464 0.984 . S
H472 N460 0.984 . S
H473 N460 0.985 . S
C474 C475 1.363 . S
C474 C480 1.379 . S
C474 N482 1.356 . S
C475 C474 1.363 . S
C475 C481 1.363 1_554 S
C476 C477 1.363 1_556 S
C476 C481 1.379 . S
C476 N483 1.356 . S
C477 C476 1.363 1_554 S
C477 C480 1.363 . S
N478 C480 1.356 . S
N478 H490 0.984 . S
N478 H491 0.985 . S
N479 C481 1.356 . S
N479 H484 0.984 . S
N479 H485 0.985 . S
C480 C474 1.379 . S
C480 C477 1.363 . S
C480 N478 1.356 . S
C481 C475 1.363 1_556 S
C481 C476 1.379 . S
C481 N479 1.356 . S
N482 C474 1.356 . S
N482 H488 0.984 . S
N482 H489 0.984 . S
N483 C476 1.356 . S
N483 H486 0.984 . S
N483 H487 0.985 . S
H484 N479 0.984 . S
H485 N479 0.985 . S
H486 N483 0.984 . S
H487 N483 0.985 . S
H488 N482 0.984 . S
H489 N482 0.984 . S
H490 N478 0.984 . S
H491 N478 0.985 . S
C492 C493 1.363 . S
C492 C498 1.379 . S
C492 N500 1.356 . S
C493 C492 1.363 . S
C493 C499 1.363 . S
C494 C495 1.363 . S
C494 C499 1.379 . S
C494 N501 1.356 . S
C495 C494 1.363 . S
C495 C498 1.363 . S
N496 C498 1.356 . S
N496 H508 0.984 . S
N496 H509 0.985 . S
N497 C499 1.356 . S
N497 H502 0.984 . S
N497 H503 0.985 . S
C498 C492 1.379 . S
C498 C495 1.363 . S
C498 N496 1.356 . S
C499 C493 1.363 . S
C499 C494 1.379 . S
C499 N497 1.356 . S
N500 C492 1.356 . S
N500 H506 0.984 . S
N500 H507 0.984 . S
N501 C494 1.356 . S
N501 H504 0.984 . S
N501 H505 0.985 . S
H502 N497 0.984 . S
H503 N497 0.985 . S
H504 N501 0.984 . S
H505 N501 0.985 . S
H506 N500 0.984 . S
H507 N500 0.984 . S
H508 N496 0.984 . S
H509 N496 0.985 . S
C510 C511 1.363 . S
C510 C516 1.379 . S
C510 N518 1.356 . S
C511 C510 1.363 . S
C511 C517 1.363 . S
C512 C513 1.363 . S
C512 C517 1.379 . S
C512 N519 1.356 . S
C513 C512 1.363 . S
C513 C516 1.363 . S
N514 C516 1.356 . S
N514 H526 0.984 . S
N514 H527 0.985 . S
N515 C517 1.356 . S
N515 H520 0.984 . S
N515 H521 0.985 . S
C516 C510 1.379 . S
C516 C513 1.363 . S
C516 N514 1.356 . S
C517 C511 1.363 . S
C517 C512 1.379 . S
C517 N515 1.356 . S
N518 C510 1.356 . S
N518 H524 0.984 . S
N518 H525 0.984 . S
N519 C512 1.356 . S
N519 H522 0.984 . S
N519 H523 0.985 . S
H520 N515 0.984 . S
H521 N515 0.985 . S
H522 N519 0.984 . S
H523 N519 0.985 . S
H524 N518 0.984 . S
H525 N518 0.984 . S
H526 N514 0.984 . S
H527 N514 0.985 . S
C528 C529 1.363 . S
C528 C534 1.379 . S
C528 N536 1.356 . S
C529 C528 1.363 . S
C529 C535 1.363 1_455 S
C530 C531 1.363 . S
C530 C535 1.379 . S
C530 N537 1.356 . S
C531 C530 1.363 . S
C531 C534 1.363 1_655 S
N532 C534 1.356 . S
N532 H544 0.984 . S
N532 H545 0.985 1_455 S
N533 C535 1.356 . S
N533 H538 0.984 1_655 S
N533 H539 0.985 . S
C534 C528 1.379 . S
C534 C531 1.363 1_455 S
C534 N532 1.356 . S
C535 C529 1.363 1_655 S
C535 C530 1.379 . S
C535 N533 1.356 . S
N536 C528 1.356 . S
N536 H542 0.984 . S
N536 H543 0.984 . S
N537 C530 1.356 . S
N537 H540 0.984 . S
N537 H541 0.985 . S
H538 N533 0.984 1_455 S
H539 N533 0.985 . S
H540 N537 0.984 . S
H541 N537 0.985 . S
H542 N536 0.984 . S
H543 N536 0.984 . S
H544 N532 0.984 . S
H545 N532 0.985 1_655 S
C546 C547 1.363 . S
C546 C552 1.379 . S
C546 N554 1.356 . S
C547 C546 1.363 . S
C547 C553 1.363 1_655 S
C548 C549 1.363 . S
C548 C553 1.379 . S
C548 N555 1.356 . S
C549 C548 1.363 . S
C549 C552 1.363 1_455 S
N550 C552 1.356 . S
N550 H562 0.984 . S
N550 H563 0.985 1_655 S
N551 C553 1.356 . S
N551 H556 0.984 1_455 S
N551 H557 0.985 . S
C552 C546 1.379 . S
C552 C549 1.363 1_655 S
C552 N550 1.356 . S
C553 C547 1.363 1_455 S
C553 C548 1.379 . S
C553 N551 1.356 . S
N554 C546 1.356 . S
N554 H560 0.984 . S
N554 H561 0.984 . S
N555 C548 1.356 . S
N555 H558 0.984 . S
N555 H559 0.985 . S
H556 N551 0.984 1_655 S
H557 N551 0.985 . S
H558 N555 0.984 . S
H559 N555 0.985 . S
H560 N554 0.984 . S
H561 N554 0.984 . S
H562 N550 0.984 . S
H563 N550 0.985 1_455 S
C564 C565 1.363 1_455 S
C564 C570 1.379 . S
C564 N572 1.356 . S
C565 C564 1.363 1_655 S
C565 C571 1.363 . S
C566 C567 1.363 1_655 S
C566 C571 1.379 . S
C566 N573 1.356 . S
C567 C566 1.363 1_455 S
C567 C570 1.363 . S
N568 C570 1.356 . S
N568 H580 0.984 . S
N568 H581 0.985 . S
N569 C571 1.356 . S
N569 H574 0.984 . S
N569 H575 0.985 . S
C570 C564 1.379 . S
C570 C567 1.363 . S
C570 N568 1.356 . S
C571 C565 1.363 . S
C571 C566 1.379 . S
C571 N569 1.356 . S
N572 C564 1.356 . S
N572 H578 0.984 . S
N572 H579 0.984 1_455 S
N573 C566 1.356 . S
N573 H576 0.984 1_655 S
N573 H577 0.985 . S
H574 N569 0.984 . S
H575 N569 0.985 . S
H576 N573 0.984 1_455 S
H577 N573 0.985 . S
H578 N572 0.984 . S
H579 N572 0.984 1_655 S
H580 N568 0.984 . S
H581 N568 0.985 . S
C582 C583 1.363 . S
C582 C588 1.379 . S
C582 N590 1.356 . S
C583 C582 1.363 . S
C583 C589 1.363 1_655 S
C584 C585 1.363 . S
C584 C589 1.379 . S
C584 N591 1.356 . S
C585 C584 1.363 . S
C585 C588 1.363 1_455 S
N586 C588 1.356 . S
N586 H598 0.984 . S
N586 H599 0.985 1_655 S
N587 C589 1.356 . S
N587 H592 0.984 1_455 S
N587 H593 0.985 . S
C588 C582 1.379 . S
C588 C585 1.363 1_655 S
C588 N586 1.356 . S
C589 C583 1.363 1_455 S
C589 C584 1.379 . S
C589 N587 1.356 . S
N590 C582 1.356 . S
N590 H596 0.984 . S
N590 H597 0.984 . S
N591 C584 1.356 . S
N591 H594 0.984 . S
N591 H595 0.985 . S
H592 N587 0.984 1_655 S
H593 N587 0.985 . S
H594 N591 0.984 . S
H595 N591 0.985 . S
H596 N590 0.984 . S
H597 N590 0.984 . S
H598 N586 0.984 . S
H599 N586 0.985 1_455 S
C600 C601 1.363 . S
C600 C606 1.379 . S
C600 N608 1.356 . S
C601 C600 1.363 . S
C601 C607 1.363 . S
C602 C603 1.363 . S
C602 C607 1.379 . S
C602 N609 1.356 . S
C603 C602 1.363 . S
C603 C606 1.363 . S
N604 C606 1.356 . S
N604 H616 0.984 . S
N604 H617 0.985 . S
N605 C607 1.356 . S
N605 H610 0.984 . S
N605 H611 0.985 . S
C606 C600 1.379 . S
C606 C603 1.363 . S
C606 N604 1.356 . S
C607 C601 1.363 . S
C607 C602 1.379 . S
C607 N605 1.356 . S
N608 C600 1.356 . S
N608 H614 0.984 . S
N608 H615 0.984 . S
N609 C602 1.356 . S
N609 H612 0.984 . S
N609 H613 0.985 . S
H610 N605 0.984 . S
H611 N605 0.985 . S
H612 N609 0.984 . S
H613 N609 0.985 . S
H614 N608 0.984 . S
H615 N608 0.984 . S
H616 N604 0.984 . S
H617 N604 0.985 . S
C618 C619 1.363 . S
C618 C624 1.379 . S
C618 N626 1.356 . S
C619 C618 1.363 . S
C619 C625 1.363 . S
C620 C621 1.363 . S
C620 C625 1.379 . S
C620 N627 1.356 . S
C621 C620 1.363 . S
C621 C624 1.363 . S
N622 C624 1.356 . S
N622 H634 0.984 . S
N622 H635 0.985 . S
N623 C625 1.356 . S
N623 H628 0.984 . S
N623 H629 0.985 . S
C624 C618 1.379 . S
C624 C621 1.363 . S
C624 N622 1.356 . S
C625 C619 1.363 . S
C625 C620 1.379 . S
C625 N623 1.356 . S
N626 C618 1.356 . S
N626 H632 0.984 . S
N626 H633 0.984 . S
N627 C620 1.356 . S
N627 H630 0.984 . S
N627 H631 0.985 . S
H628 N623 0.984 . S
H629 N623 0.985 . S
H630 N627 0.984 . S
H631 N627 0.985 . S
H632 N626 0.984 . S
H633 N626 0.984 . S
H634 N622 0.984 . S
H635 N622 0.985 . S
C636 C637 1.363 . S
C636 C642 1.379 . S
C636 N644 1.356 . S
C637 C636 1.363 . S
C637 C643 1.363 . S
C638 C639 1.363 . S
C638 C643 1.379 . S
C638 N645 1.356 . S
C639 C638 1.363 . S
C639 C642 1.363 . S
N640 C642 1.356 . S
N640 H652 0.984 . S
N640 H653 0.985 . S
N641 C643 1.356 . S
N641 H646 0.984 . S
N641 H647 0.985 . S
C642 C636 1.379 . S
C642 C639 1.363 . S
C642 N640 1.356 . S
C643 C637 1.363 . S
C643 C638 1.379 . S
C643 N641 1.356 . S
N644 C636 1.356 . S
N644 H650 0.984 . S
N644 H651 0.984 . S
N645 C638 1.356 . S
N645 H648 0.984 . S
N645 H649 0.985 . S
H646 N641 0.984 . S
H647 N641 0.985 . S
H648 N645 0.984 . S
H649 N645 0.985 . S
H650 N644 0.984 . S
H651 N644 0.984 . S
H652 N640 0.984 . S
H653 N640 0.985 . S
C654 C655 1.363 . S
C654 C660 1.379 . S
C654 N662 1.356 . S
C655 C654 1.363 . S
C655 C661 1.363 . S
C656 C657 1.363 . S
C656 C661 1.379 . S
C656 N663 1.356 . S
C657 C656 1.363 . S
C657 C660 1.363 . S
N658 C660 1.356 . S
N658 H670 0.984 . S
N658 H671 0.985 . S
N659 C661 1.356 . S
N659 H664 0.984 . S
N659 H665 0.985 . S
C660 C654 1.379 . S
C660 C657 1.363 . S
C660 N658 1.356 . S
C661 C655 1.363 . S
C661 C656 1.379 . S
C661 N659 1.356 . S
N662 C654 1.356 . S
N662 H668 0.984 . S
N662 H669 0.984 . S
N663 C656 1.356 . S
N663 H666 0.984 . S
N663 H667 0.985 . S
H664 N659 0.984 . S
H665 N659 0.985 . S
H666 N663 0.984 . S
H667 N663 0.985 . S
H668 N662 0.984 . S
H669 N662 0.984 . S
H670 N658 0.984 . S
H671 N658 0.985 . S
C241 N14 1.277 . S
C243 N6 1.277 1_554 S
C259 N44 1.277 . S
C261 N36 1.277 1_554 S
C277 N74 1.277 . S
C279 N66 1.277 . S
C295 N104 1.277 . S
C297 N96 1.277 . S
C313 N134 1.277 . S
C315 N126 1.277 1_554 S
C331 N156 1.277 1_554 S
C333 N164 1.277 . S
C349 N194 1.277 . S
C351 N186 1.277 . S
C367 N216 1.277 . S
C369 N224 1.277 . S
C385 C57 1.585 . S
C387 C16 1.585 . S
C403 C106 1.585 . S
C405 C87 1.585 . S
C421 C136 1.585 . S
C423 C177 1.585 . S
C439 C207 1.585 . S
C441 C226 1.585 . S
C457 C27 1.851 . S
C459 C166 1.851 . S
C475 C147 1.851 . S
C477 C46 1.851 . S
C493 C76 1.851 . S
C495 C237 1.851 . S
C511 C117 1.851 . S
C513 C196 1.851 . S
C529 C10 1.655 . S
C531 C100 1.655 . S
C547 C40 1.633 . S
C549 C70 1.633 . S
C565 C31 1.655 . S
C567 C61 1.655 . S
C583 C91 1.633 . S
C585 C1 1.633 . S
C601 C130 1.655 . S
C603 C220 1.655 . S
C619 C160 1.633 . S
C621 C190 1.633 . S
C637 C151 1.655 . S
C639 C181 1.655 . S
C655 C211 1.633 . S
C657 C121 1.633 . S
