# Generated by pormake.
# Topology wje, (4)-cn, num edge types: 1
# Building blocks:
#     Node 0, Type 0, BuildingBlock: QUQFOY_clean_sbu_3, # of connection points: 4
#     Node 1, Type 0, BuildingBlock: QUQFOY_clean_sbu_3, # of connection points: 4
#     Node 2, Type 0, BuildingBlock: QUQFOY_clean_sbu_3, # of connection points: 4
#     Node 3, Type 0, BuildingBlock: QUQFOY_clean_sbu_3, # of connection points: 4
#     Node 4, Type 0, BuildingBlock: QUQFOY_clean_sbu_3, # of connection points: 4
#     Node 5, Type 0, BuildingBlock: QUQFOY_clean_sbu_3, # of connection points: 4
#     Node 6, Type 0, BuildingBlock: QUQFOY_clean_sbu_3, # of connection points: 4
#     Node 7, Type 0, BuildingBlock: QUQFOY_clean_sbu_3, # of connection points: 4
#     Node 8, Type 0, BuildingBlock: QUQFOY_clean_sbu_3, # of connection points: 4
#     Node 9, Type 0, BuildingBlock: QUQFOY_clean_sbu_3, # of connection points: 4
#     Node 10, Type 0, BuildingBlock: QUQFOY_clean_sbu_3, # of connection points: 4
#     Node 11, Type 0, BuildingBlock: QUQFOY_clean_sbu_3, # of connection points: 4
#     Edge 12, Type (0, 0), BuildingBlock: UVAHIK_clean_linker_0, # of connection points: 2
#     Edge 13, Type (0, 0), BuildingBlock: UVAHIK_clean_linker_0, # of connection points: 2
#     Edge 14, Type (0, 0), BuildingBlock: UVAHIK_clean_linker_0, # of connection points: 2
#     Edge 15, Type (0, 0), BuildingBlock: UVAHIK_clean_linker_0, # of connection points: 2
#     Edge 16, Type (0, 0), BuildingBlock: UVAHIK_clean_linker_0, # of connection points: 2
#     Edge 17, Type (0, 0), BuildingBlock: UVAHIK_clean_linker_0, # of connection points: 2
#     Edge 18, Type (0, 0), BuildingBlock: UVAHIK_clean_linker_0, # of connection points: 2
#     Edge 19, Type (0, 0), BuildingBlock: UVAHIK_clean_linker_0, # of connection points: 2
#     Edge 20, Type (0, 0), BuildingBlock: UVAHIK_clean_linker_0, # of connection points: 2
#     Edge 21, Type (0, 0), BuildingBlock: UVAHIK_clean_linker_0, # of connection points: 2
#     Edge 22, Type (0, 0), BuildingBlock: UVAHIK_clean_linker_0, # of connection points: 2
#     Edge 23, Type (0, 0), BuildingBlock: UVAHIK_clean_linker_0, # of connection points: 2
#     Edge 24, Type (0, 0), BuildingBlock: UVAHIK_clean_linker_0, # of connection points: 2
#     Edge 25, Type (0, 0), BuildingBlock: UVAHIK_clean_linker_0, # of connection points: 2
#     Edge 26, Type (0, 0), BuildingBlock: UVAHIK_clean_linker_0, # of connection points: 2
#     Edge 27, Type (0, 0), BuildingBlock: UVAHIK_clean_linker_0, # of connection points: 2
#     Edge 28, Type (0, 0), BuildingBlock: UVAHIK_clean_linker_0, # of connection points: 2
#     Edge 29, Type (0, 0), BuildingBlock: UVAHIK_clean_linker_0, # of connection points: 2
#     Edge 30, Type (0, 0), BuildingBlock: UVAHIK_clean_linker_0, # of connection points: 2
#     Edge 31, Type (0, 0), BuildingBlock: UVAHIK_clean_linker_0, # of connection points: 2
#     Edge 32, Type (0, 0), BuildingBlock: UVAHIK_clean_linker_0, # of connection points: 2
#     Edge 33, Type (0, 0), BuildingBlock: UVAHIK_clean_linker_0, # of connection points: 2
#     Edge 34, Type (0, 0), BuildingBlock: UVAHIK_clean_linker_0, # of connection points: 2
#     Edge 35, Type (0, 0), BuildingBlock: UVAHIK_clean_linker_0, # of connection points: 2
# Relax obj value: 0.150
# Max RMSD: 0.092
# Mean RMSD: 0.092
data_MOF--net-wje--node1-QUQFOY_clean_sbu_3--edge1-UVAHIK_clean_linker_0
_symmetry_space_group_name_H-M    P1
_symmetry_Int_Tables_number       1
_symmetry_cell_setting            triclinic
loop_
_symmetry_equiv_pos_as_xyz
'x, y, z'
_cell_length_a     54.781482
_cell_length_b     54.730498
_cell_length_c     51.344252
_cell_angle_alpha  89.812833
_cell_angle_beta   89.846478
_cell_angle_gamma 120.23752
loop_
_atom_site_label
_atom_site_type_symbol
_atom_site_fract_x
_atom_site_fract_y
_atom_site_fract_z
_atom_type_partial_charge
C0 C 0.24023 0.94073 0.27514 0.0
O1 O 0.25444 0.9282 0.27468 0.0
Cd2 Cd 0.30239 0.94985 0.28765 0.0
O3 O 0.2523 0.96748 0.27799 0.0
Cd4 Cd 0.30109 0.00981 0.27832 0.0
C5 C 0.29726 -0.01242 0.34076 0.0
O6 O 0.32541 -0.01162 0.25921 0.0
O7 O 0.35295 0.02801 0.27786 0.0
O8 O 0.28947 0.02346 0.23756 0.0
C9 C 0.35031 0.00685 0.26533 0.0
O10 O 0.29931 0.96744 0.33058 0.0
C11 C 0.29547 0.04817 0.2442 0.0
O12 O 0.29742 0.00694 0.3266 0.0
O13 O 0.30363 0.0554 0.26758 0.0
C14 C 0.27974 0.25529 0.60941 0.0
O15 O 0.30647 0.27081 0.60991 0.0
Cd16 Cd 0.33171 0.32003 0.61943 0.0
O17 O 0.26378 0.26599 0.61072 0.0
Cd18 Cd 0.2684 0.31373 0.61028 0.0
C19 C 0.28988 0.31627 0.67272 0.0
O20 O 0.31381 0.33944 0.58986 0.0
O21 O 0.30066 0.36591 0.60877 0.0
O22 O 0.24204 0.3002 0.57022 0.0
C23 C 0.31935 0.36415 0.59559 0.0
O24 O 0.31314 0.32107 0.66249 0.0
C25 C 0.22348 0.30636 0.57692 0.0
O26 O 0.26859 0.31117 0.65866 0.0
O27 O 0.22483 0.31513 0.60014 0.0
C28 C -0.0009 0.28496 0.9429 0.0
O29 O 0.01255 0.31182 0.94232 0.0
Cd30 Cd -0.00849 0.33883 0.95533 0.0
O31 O -0.02769 0.27106 0.9457 0.0
Cd32 Cd 0.93096 0.2785 0.94639 0.0
C33 C 0.95307 0.29613 0.00866 0.0
O34 O 0.95278 0.325 0.92758 0.0
O35 O 0.9133 0.31213 0.94723 0.0
O36 O 0.917 0.2539 0.90539 0.0
C37 C 0.93425 0.33106 0.93449 0.0
O38 O -0.02645 0.31825 -0.00162 0.0
C39 C 0.89217 0.23521 0.91213 0.0
O40 O 0.93352 0.2771 -0.00539 0.0
O41 O 0.88504 0.23581 0.93567 0.0
C42 C 0.68508 0.01439 0.27575 0.0
O43 O 0.66984 0.02582 0.27607 0.0
Cd44 Cd 0.62071 0.00196 0.28608 0.0
O45 O 0.67406 -0.01239 0.27733 0.0
Cd46 Cd 0.62627 0.94429 0.27723 0.0
C47 C 0.62439 0.96395 0.33957 0.0
O48 O 0.6011 0.96429 0.25695 0.0
O49 O 0.57413 0.92448 0.27594 0.0
O50 O 0.63985 0.93133 0.23719 0.0
C51 C 0.57627 0.9452 0.26284 0.0
O52 O 0.61994 -0.01741 0.32926 0.0
C53 C 0.63396 0.90668 0.24418 0.0
O54 O 0.62892 0.94734 0.32555 0.0
O55 O 0.62513 0.8993 0.26748 0.0
C56 C 0.65179 0.70187 0.61582 0.0
O57 O 0.62495 0.68784 0.61644 0.0
Cd58 Cd 0.59746 0.63815 0.62456 0.0
O59 O 0.66624 0.68949 0.61613 0.0
Cd60 Cd 0.65906 0.64088 0.6141 0.0
C61 C 0.63775 0.63712 0.67689 0.0
O62 O 0.61355 0.61787 0.59395 0.0
O63 O 0.62502 0.58929 0.61139 0.0
O64 O 0.68585 0.65494 0.57399 0.0
C65 C 0.60694 0.5926 0.59886 0.0
O66 O 0.61498 0.63401 0.66711 0.0
C67 C 0.70356 0.64747 0.58021 0.0
O68 O 0.65874 0.64167 0.66249 0.0
O69 O 0.7015 0.63761 0.60315 0.0
C70 C 0.92615 0.66422 0.94347 0.0
O71 O 0.91257 0.63735 0.94335 0.0
Cd72 Cd 0.93345 0.61026 0.9566 0.0
O73 O 0.95296 0.67802 0.94592 0.0
Cd74 Cd -0.00586 0.67029 0.94655 0.0
C75 C -0.02789 0.65325 0.00918 0.0
O76 O -0.02804 0.62375 0.92831 0.0
O77 O 0.01139 0.63626 0.94758 0.0
O78 O 0.00831 0.69481 0.90524 0.0
C79 C -0.00967 0.61747 0.9351 0.0
O80 O 0.95155 0.63109 -0.00068 0.0
C81 C 0.03318 0.71338 0.91174 0.0
O82 O -0.00833 0.67208 -0.00524 0.0
O83 O 0.04022 0.71272 0.93527 0.0
C84 C 0.00048 0.70198 0.35702 0.0
O85 O 0.01301 0.68778 0.35782 0.0
Cd86 Cd -0.00798 0.64054 0.34262 0.0
O87 O -0.02604 0.68997 0.35293 0.0
Cd88 Cd 0.93177 0.64124 0.3507 0.0
C89 C 0.95634 0.64807 0.28895 0.0
O90 O 0.95209 0.61548 0.36908 0.0
O91 O 0.91321 0.58945 0.34865 0.0
O92 O 0.9174 0.65074 0.392 0.0
C93 C 0.93374 0.59107 0.36151 0.0
O94 O -0.02382 0.64584 0.29954 0.0
C95 C 0.89298 0.64546 0.38519 0.0
O96 O 0.93622 0.64695 0.30259 0.0
O97 O 0.88626 0.63874 0.36144 0.0
C98 C 0.27603 0.01325 0.68866 0.0
O99 O 0.30281 0.02597 0.68979 0.0
Cd100 Cd 0.3293 0.00538 0.67453 0.0
O101 O 0.26156 -0.01326 0.68432 0.0
Cd102 Cd 0.26841 0.94488 0.68231 0.0
C103 C 0.28657 0.96969 0.62065 0.0
O104 O 0.31447 0.96551 0.70105 0.0
O105 O 0.30195 0.92692 0.68025 0.0
O106 O 0.24374 0.93039 0.72343 0.0
C107 C 0.32069 0.94736 0.69339 0.0
O108 O 0.30857 -0.01036 0.63133 0.0
C109 C 0.22494 0.9057 0.7167 0.0
O110 O 0.26743 0.94937 0.6342 0.0
O111 O 0.2255 0.89887 0.69307 0.0
C112 C 0.2381 0.28875 0.0099 0.0
O113 O 0.25253 0.31549 0.00752 0.0
Cd114 Cd 0.30233 0.34189 -0.00026 0.0
O115 O 0.25006 0.27394 0.0113 0.0
Cd116 Cd 0.2985 0.28083 0.01401 0.0
C117 C 0.30328 0.29912 0.95004 0.0
O118 O 0.32195 0.32733 0.03262 0.0
O119 O 0.35011 0.3146 0.01654 0.0
O120 O 0.28502 0.25528 0.055 0.0
C121 C 0.34711 0.3333 0.0283 0.0
O122 O 0.30696 0.32268 0.95831 0.0
C123 C 0.292 0.23712 0.04911 0.0
O124 O 0.29803 0.2788 0.96568 0.0
O125 O 0.30132 0.23839 0.02608 0.0
C126 C 0.92614 0.25188 0.35672 0.0
O127 O 0.91349 0.26594 0.35794 0.0
Cd128 Cd 0.93422 0.31319 0.34238 0.0
O129 O 0.95263 0.26405 0.35215 0.0
Cd130 Cd -0.00538 0.31288 0.3497 0.0
C131 C -0.0302 0.30597 0.2883 0.0
O132 O -0.02586 0.33831 0.36843 0.0
O133 O 0.0129 0.36463 0.34753 0.0
O134 O 0.00877 0.30269 0.39075 0.0
C135 C -0.00763 0.36281 0.36068 0.0
O136 O 0.94993 0.30806 0.29911 0.0
C137 C 0.03333 0.30836 0.38383 0.0
O138 O -0.00995 0.30722 0.3017 0.0
O139 O 0.04026 0.31567 0.36013 0.0
C140 C 0.65117 0.94044 0.67809 0.0
O141 O 0.62458 0.9283 0.67509 0.0
Cd142 Cd 0.59892 0.95193 0.6658 0.0
O143 O 0.6663 0.96731 0.6792 0.0
Cd144 Cd 0.66043 0.00952 0.68044 0.0
C145 C 0.64364 -0.00447 0.61634 0.0
O146 O 0.61342 -0.01325 0.69792 0.0
O147 O 0.62728 0.02804 0.68181 0.0
O148 O 0.68458 0.02137 0.72188 0.0
C149 C 0.60788 0.0061 0.69306 0.0
O150 O 0.61975 0.97575 0.62447 0.0
C151 C 0.70337 0.04647 0.71597 0.0
O152 O 0.66365 0.01062 0.6321 0.0
O153 O 0.70306 0.05461 0.69276 0.0
C154 C 0.68843 0.66225 0.01391 0.0
O155 O 0.67376 0.63549 0.01221 0.0
Cd156 Cd 0.62391 0.60953 0.00484 0.0
O157 O 0.67672 0.6773 0.01497 0.0
Cd158 Cd 0.62866 0.67122 0.01793 0.0
C159 C 0.62385 0.65231 0.95435 0.0
O160 O 0.60414 0.62472 0.03704 0.0
O161 O 0.57695 0.63841 0.02045 0.0
O162 O 0.64222 0.69684 0.05859 0.0
C163 C 0.57923 0.61931 0.03241 0.0
O164 O 0.61982 0.6287 0.96308 0.0
C165 C 0.63589 0.71542 0.05235 0.0
O166 O 0.62932 0.67285 0.96961 0.0
O167 O 0.62687 0.71429 0.02928 0.0
C168 C 0.29568 0.09308 0.23253 0.0
C169 C 0.29383 0.06756 0.22495 0.0
C170 C 0.29437 0.11116 0.21386 0.0
C171 C 0.27402 0.11259 0.14444 0.0
H172 H 0.31942 0.1938 0.15302 0.0
C173 C 0.29415 0.19374 0.06184 0.0
C174 C 0.29055 0.21655 0.06882 0.0
C175 C 0.29364 0.1751 0.08093 0.0
C176 C 0.30651 0.17114 0.15045 0.0
H177 H 0.2896 0.04126 0.1918 0.0
H178 H 0.28835 0.07292 0.15945 0.0
H179 H 0.32029 0.16251 0.18647 0.0
H180 H 0.28361 0.23764 0.10132 0.0
H181 H 0.28318 0.20546 0.13447 0.0
H182 H 0.26096 0.12145 0.10799 0.0
C183 C 0.28987 0.07877 0.17975 0.0
C184 C 0.30685 0.15316 0.1697 0.0
C185 C 0.2908 0.06062 0.19837 0.0
C186 C 0.28638 0.22026 0.09524 0.0
C187 C 0.28631 0.20194 0.11429 0.0
C188 C 0.27402 0.13059 0.12503 0.0
C189 C 0.29152 0.10428 0.18716 0.0
C190 C 0.29063 0.12358 0.16698 0.0
C191 C 0.29 0.17921 0.10739 0.0
C192 C 0.29024 0.16005 0.12783 0.0
H193 H 0.29794 0.09898 0.25287 0.0
H194 H 0.29532 0.1304 0.22042 0.0
H195 H 0.26075 0.09 0.14181 0.0
H196 H 0.29743 0.19034 0.04168 0.0
H197 H 0.29667 0.15781 0.07508 0.0
C198 C 0.20587 0.30069 0.53127 0.0
C199 C 0.20252 0.3048 0.55778 0.0
C200 C 0.18739 0.30074 0.51263 0.0
C201 C 0.1162 0.28889 0.50321 0.0
H202 H 0.14787 0.33476 0.44099 0.0
C203 C 0.04609 0.30485 0.42977 0.0
C204 C 0.05287 0.30725 0.4031 0.0
C205 C 0.06432 0.30432 0.4484 0.0
C206 C 0.13859 0.32145 0.458 0.0
H207 H 0.17675 0.31167 0.58555 0.0
H208 H 0.14389 0.31116 0.55285 0.0
H209 H 0.17925 0.33408 0.47421 0.0
H210 H 0.08409 0.31074 0.37507 0.0
H211 H 0.11567 0.30886 0.40759 0.0
H212 H 0.07559 0.27557 0.48688 0.0
C213 C 0.16105 0.30807 0.54661 0.0
C214 C 0.15662 0.32122 0.47712 0.0
C215 C 0.17986 0.30842 0.5653 0.0
C216 C 0.07832 0.30895 0.39547 0.0
C217 C 0.09649 0.30807 0.41417 0.0
C218 C 0.09815 0.28881 0.48394 0.0
C219 C 0.16486 0.30455 0.52005 0.0
C220 C 0.14562 0.30501 0.49996 0.0
C221 C 0.08974 0.30579 0.44093 0.0
C222 C 0.10907 0.30522 0.4611 0.0
H223 H 0.22312 0.29789 0.52475 0.0
H224 H 0.19065 0.29766 0.49237 0.0
H225 H 0.10714 0.2759 0.52045 0.0
H226 H 0.02678 0.30379 0.43638 0.0
H227 H 0.05859 0.30323 0.46875 0.0
C228 C 0.747 0.0917 0.72895 0.0
C229 C 0.72367 0.06539 0.73582 0.0
C230 C 0.76545 0.10962 0.74813 0.0
C231 C 0.78581 0.11021 0.81784 0.0
H232 H 0.81888 0.19128 0.80988 0.0
C233 C 0.8465 0.19127 0.90033 0.0
C234 C 0.87252 0.21467 0.8928 0.0
C235 C 0.82809 0.17248 0.88156 0.0
C236 C 0.80988 0.16867 0.81231 0.0
H237 H 0.7013 0.03737 0.76826 0.0
H238 H 0.73267 0.06875 0.80154 0.0
H239 H 0.78767 0.15987 0.77624 0.0
H240 H 0.89952 0.2367 0.85966 0.0
H241 H 0.86736 0.20431 0.82716 0.0
H242 H 0.80766 0.11926 0.85431 0.0
C243 C 0.7374 0.07539 0.78138 0.0
C244 C 0.79212 0.15062 0.79293 0.0
C245 C 0.71923 0.0574 0.76223 0.0
C246 C 0.87967 0.21888 0.86618 0.0
C247 C 0.86118 0.20042 0.84749 0.0
C248 C 0.80329 0.12829 0.83739 0.0
C249 C 0.7608 0.10179 0.77467 0.0
C250 C 0.77991 0.12111 0.79532 0.0
C251 C 0.83517 0.17706 0.85492 0.0
C252 C 0.81565 0.15771 0.83475 0.0
H253 H 0.75105 0.09843 0.70876 0.0
H254 H 0.78348 0.12954 0.74207 0.0
H255 H 0.77729 0.08769 0.82026 0.0
H256 H 0.84039 0.18746 0.92068 0.0
H257 H 0.80811 0.15468 0.88783 0.0
C258 C 0.63484 0.75948 0.06433 0.0
C259 C 0.63776 0.73633 0.07171 0.0
C260 C 0.63572 0.77845 0.08311 0.0
C261 C 0.62255 0.78304 0.15243 0.0
H262 H 0.66989 0.86402 0.14289 0.0
C263 C 0.63386 0.86174 0.23331 0.0
C264 C 0.63618 0.88741 0.22534 0.0
C265 C 0.63525 0.84353 0.21497 0.0
C266 C 0.65619 0.84149 0.14577 0.0
H267 H 0.6439 0.71498 0.10459 0.0
H268 H 0.64497 0.74775 0.1372 0.0
H269 H 0.66921 0.83209 0.10955 0.0
H270 H 0.64149 0.91392 0.19182 0.0
H271 H 0.64288 0.88204 0.16003 0.0
H272 H 0.60879 0.79222 0.1882 0.0
C273 C 0.64209 0.75128 0.11695 0.0
C274 C 0.65592 0.82322 0.12664 0.0
C275 C 0.64165 0.73262 0.0982 0.0
C276 C 0.6399 0.89444 0.1987 0.0
C277 C 0.64091 0.87616 0.1804 0.0
C278 C 0.62249 0.80131 0.1714 0.0
C279 C 0.63906 0.77434 0.10964 0.0
C280 C 0.63913 0.79381 0.12978 0.0
C281 C 0.63863 0.85043 0.1882 0.0
C282 C 0.63929 0.83083 0.16835 0.0
H283 H 0.6318 0.76289 0.0441 0.0
H284 H 0.6332 0.796 0.07697 0.0
H285 H 0.60919 0.76044 0.15525 0.0
H286 H 0.63105 0.85577 0.2537 0.0
H287 H 0.63384 0.82414 0.22184 0.0
C288 C 0.87954 0.64741 0.43131 0.0
C289 C 0.87334 0.64629 0.40462 0.0
C290 C 0.86116 0.6476 0.45007 0.0
C291 C 0.8068 0.6663 0.46089 0.0
H292 H 0.78555 0.61532 0.52013 0.0
C293 C 0.72184 0.65449 0.53456 0.0
C294 C 0.72442 0.64896 0.56085 0.0
C295 C 0.7403 0.65457 0.51572 0.0
C296 C 0.79161 0.63006 0.50399 0.0
H297 H 0.84302 0.64477 0.3767 0.0
H298 H 0.81097 0.64572 0.4097 0.0
H299 H 0.81662 0.61441 0.48653 0.0
H300 H 0.74887 0.63971 0.58807 0.0
H301 H 0.78189 0.64084 0.5553 0.0
H302 H 0.78259 0.68262 0.47852 0.0
C303 C 0.83011 0.64627 0.41595 0.0
C304 C 0.80927 0.62937 0.48463 0.0
C305 C 0.84837 0.64564 0.3971 0.0
C306 C 0.74627 0.64396 0.56796 0.0
C307 C 0.76505 0.64439 0.54909 0.0
C308 C 0.78945 0.66728 0.48042 0.0
C309 C 0.83626 0.64706 0.44264 0.0
C310 C 0.81698 0.64742 0.46285 0.0
C311 C 0.76218 0.6495 0.52264 0.0
C312 C 0.78147 0.64908 0.50222 0.0
H313 H 0.89856 0.64786 0.43781 0.0
H314 H 0.8666 0.6485 0.47045 0.0
H315 H 0.81274 0.68075 0.44451 0.0
H316 H 0.70508 0.65818 0.52833 0.0
H317 H 0.73692 0.65801 0.49559 0.0
C318 C 0.18095 0.85993 0.72872 0.0
C319 C 0.20428 0.88588 0.73612 0.0
C320 C 0.162 0.84142 0.74756 0.0
C321 C 0.14025 0.8391 0.81718 0.0
H322 H 0.1068 0.75815 0.8086 0.0
C323 C 0.07894 0.75725 0.89956 0.0
C324 C 0.05295 0.7339 0.89222 0.0
C325 C 0.09743 0.77612 0.88066 0.0
C326 C 0.11589 0.78072 0.81119 0.0
H327 H 0.22619 0.91255 0.76915 0.0
H328 H 0.19399 0.8802 0.80176 0.0
H329 H 0.13853 0.79016 0.77509 0.0
H330 H 0.02611 0.71199 0.85926 0.0
H331 H 0.05842 0.74457 0.8265 0.0
H332 H 0.118 0.82947 0.85363 0.0
C333 C 0.18962 0.87429 0.78148 0.0
C334 C 0.13396 0.79911 0.7919 0.0
C335 C 0.20828 0.89284 0.7627 0.0
C336 C 0.04593 0.72979 0.86563 0.0
C337 C 0.06451 0.74835 0.84679 0.0
C338 C 0.12247 0.8207 0.83661 0.0
C339 C 0.16614 0.84832 0.77425 0.0
C340 C 0.1464 0.82859 0.79458 0.0
C341 C 0.09046 0.77171 0.85405 0.0
C342 C 0.11003 0.79132 0.83379 0.0
H343 H 0.17725 0.85399 0.70839 0.0
H344 H 0.14397 0.82181 0.74115 0.0
H345 H 0.1489 0.86159 0.81979 0.0
H346 H 0.08495 0.76098 0.91987 0.0
H347 H 0.11737 0.7939 0.8868 0.0
C348 C 0.36789 0.97334 0.25779 0.0
C349 C 0.37379 0.00107 0.26263 0.0
C350 C 0.38967 0.96718 0.25668 0.0
C351 C 0.46375 -0.00377 0.24228 0.0
H352 H 0.45947 0.93787 0.28833 0.0
C353 C 0.55758 -0.02235 0.25442 0.0
C354 C 0.55234 0.95028 0.26003 0.0
C355 C 0.53547 -0.01667 0.25361 0.0
C356 C 0.46081 0.95383 0.27494 0.0
H357 H 0.40714 0.0442 0.26942 0.0
H358 H 0.44552 0.03345 0.26665 0.0
H359 H 0.42172 0.94913 0.28881 0.0
H360 H 0.51972 0.90713 0.26828 0.0
H361 H 0.48077 0.91666 0.26564 0.0
H362 H 0.50218 0.00041 0.22761 0.0
C363 C 0.4239 0.01655 0.26406 0.0
C364 C 0.43927 0.96041 0.27542 0.0
C365 C 0.40201 0.02266 0.2657 0.0
C366 C 0.52438 0.92847 0.26406 0.0
C367 C 0.50212 0.93404 0.26278 0.0
C368 C 0.48504 -0.01071 0.2414 0.0
C369 C 0.41783 -0.01132 0.25988 0.0
C370 C 0.44067 -0.01821 0.25923 0.0
C371 C 0.50741 0.96166 0.25788 0.0
C372 C 0.48402 0.96815 0.25789 0.0
H373 H 0.34636 0.95622 0.25538 0.0
H374 H 0.38452 0.94557 0.25326 0.0
H375 H 0.46506 0.01257 0.22939 0.0
H376 H 0.57894 -0.005 0.2514 0.0
H377 H 0.54061 0.00495 0.25032 0.0
C378 C 0.5559 0.57509 0.59059 0.0
C379 C 0.57769 0.56916 0.59523 0.0
C380 C 0.52789 0.55322 0.58897 0.0
C381 C 0.48283 0.47919 0.57357 0.0
H382 H 0.4283 0.48183 0.62006 0.0
C383 C 0.37067 0.38378 0.58665 0.0
C384 C 0.34828 0.38846 0.59241 0.0
C385 C 0.39841 0.40629 0.58553 0.0
C386 C 0.44303 0.48096 0.60655 0.0
H387 H 0.58735 0.5357 0.60104 0.0
H388 H 0.53816 0.49723 0.59742 0.0
H389 H 0.47733 0.52011 0.62045 0.0
H390 H 0.33722 0.42049 0.6006 0.0
H391 H 0.38561 0.46012 0.59747 0.0
H392 H 0.44866 0.44062 0.55897 0.0
C393 C 0.54293 0.5189 0.59536 0.0
C394 C 0.47117 0.50281 0.60695 0.0
C395 C 0.57098 0.54085 0.59748 0.0
C396 C 0.35411 0.41626 0.59628 0.0
C397 C 0.38189 0.43892 0.5947 0.0
C398 C 0.45458 0.45757 0.57279 0.0
C399 C 0.52115 0.52497 0.59146 0.0
C400 C 0.49132 0.50199 0.59063 0.0
C401 C 0.40449 0.43419 0.58965 0.0
C402 C 0.43431 0.458 0.58946 0.0
H403 H 0.56038 0.59669 0.58882 0.0
H404 H 0.51144 0.55836 0.58578 0.0
H405 H 0.49799 0.4783 0.56059 0.0
H406 H 0.36691 0.36256 0.58376 0.0
H407 H 0.41514 0.40161 0.58213 0.0
C408 C 0.95755 0.56597 0.92764 0.0
C409 C -0.01496 0.58834 0.9325 0.0
C410 C 0.952 0.53814 0.92665 0.0
C411 C -0.01697 0.49462 0.91329 0.0
H412 H 0.92455 0.43927 0.9588 0.0
C413 C -0.03335 0.38271 0.92684 0.0
C414 C 0.93927 0.3601 0.93181 0.0
C415 C -0.02807 0.41045 0.92588 0.0
C416 C 0.94057 0.45424 0.94556 0.0
H417 H 0.02839 0.59927 0.93943 0.0
H418 H 0.01872 0.55044 0.93693 0.0
H419 H 0.93443 0.48794 0.95859 0.0
H420 H 0.89577 0.34863 0.93881 0.0
H421 H 0.90463 0.39691 0.93593 0.0
H422 H -0.01129 0.46101 0.89954 0.0
C423 C 0.00152 0.55458 0.93419 0.0
C424 C 0.94634 0.48217 0.94563 0.0
C425 C 0.00701 0.58242 0.9357 0.0
C426 C 0.91712 0.3657 0.93513 0.0
C427 C 0.9223 0.39343 0.93369 0.0
C428 C -0.02307 0.46656 0.91284 0.0
C429 C -0.0261 0.5322 0.92998 0.0
C430 C -0.03229 0.50261 0.92961 0.0
C431 C 0.94986 0.41625 0.92937 0.0
C432 C 0.95573 0.44599 0.92912 0.0
H433 H 0.94017 0.56986 0.92517 0.0
H434 H 0.93056 0.52123 0.92322 0.0
H435 H -0.00057 0.51001 0.90057 0.0
H436 H -0.01579 0.37907 0.92442 0.0
H437 H -0.0065 0.42737 0.92303 0.0
C438 C -0.03359 0.57234 0.36815 0.0
C439 C 0.93897 0.56716 0.36323 0.0
C440 C -0.02797 0.55015 0.36838 0.0
C441 C 0.94172 0.47562 0.38071 0.0
H442 H -0.00031 0.47988 0.33423 0.0
C443 C 0.95964 0.38134 0.36794 0.0
C444 C -0.01295 0.38663 0.36264 0.0
C445 C 0.95393 0.40346 0.36848 0.0
C446 C -0.01619 0.47851 0.34771 0.0
H447 H 0.89578 0.53468 0.35534 0.0
H448 H 0.90553 0.49555 0.35663 0.0
H449 H -0.01082 0.51819 0.33466 0.0
H450 H 0.03017 0.41925 0.35444 0.0
H451 H 0.02061 0.4582 0.35664 0.0
H452 H 0.93695 0.43666 0.39465 0.0
C453 C 0.92264 0.51692 0.35993 0.0
C454 C -0.02233 0.50038 0.34775 0.0
C455 C 0.9171 0.53924 0.35915 0.0
C456 C 0.00881 0.41458 0.35842 0.0
C457 C 0.00322 0.43685 0.35947 0.0
C458 C 0.94823 0.45401 0.38108 0.0
C459 C 0.95023 0.5223 0.36423 0.0
C460 C 0.95649 0.49902 0.36414 0.0
C461 C -0.02439 0.43155 0.36426 0.0
C462 C -0.03074 0.45504 0.36446 0.0
H463 H -0.01627 0.59364 0.37129 0.0
H464 H -0.00658 0.55473 0.3719 0.0
H465 H 0.92552 0.47434 0.39373 0.0
H466 H 0.94234 0.35996 0.37103 0.0
H467 H 0.93231 0.39834 0.37166 0.0
C468 C 0.57296 0.023 0.69331 0.0
C469 C 0.57871 0.00078 0.69535 0.0
C470 C 0.54508 0.01744 0.69436 0.0
C471 C 0.47321 0.96296 0.67994 0.0
H472 H 0.44982 0.0014 0.72852 0.0
C473 C 0.35598 0.9311 0.69074 0.0
C474 C 0.34985 0.95268 0.6955 0.0
C475 C 0.38386 0.93671 0.69181 0.0
C476 C 0.45601 -0.00924 0.71451 0.0
H477 H 0.55984 0.95537 0.70017 0.0
H478 H 0.51126 0.94572 0.70137 0.0
H479 H 0.49899 0.01279 0.72763 0.0
H480 H 0.36802 -0.00293 0.70496 0.0
H481 H 0.4165 0.00714 0.70573 0.0
H482 H 0.43077 0.94162 0.66604 0.0
C483 C 0.5283 0.96738 0.69915 0.0
C484 C 0.48417 -0.00275 0.71414 0.0
C485 C 0.55611 0.97297 0.6986 0.0
C486 C 0.37205 -0.02009 0.70143 0.0
C487 C 0.39991 -0.01436 0.70204 0.0
C488 C 0.44518 0.95682 0.67996 0.0
C489 C 0.52253 -0.01048 0.69695 0.0
C490 C 0.49294 -0.01672 0.69695 0.0
C491 C 0.40626 0.96415 0.6972 0.0
C492 C 0.43613 0.97054 0.69733 0.0
H493 H 0.58998 0.04463 0.69081 0.0
H494 H 0.54108 0.03484 0.69255 0.0
H495 H 0.47959 0.95211 0.66633 0.0
H496 H 0.33924 0.90987 0.68627 0.0
H497 H 0.38778 0.91945 0.68849 0.0
C498 C 0.36575 0.38459 0.0367 0.0
C499 C 0.37099 0.36233 0.03206 0.0
C500 C 0.38808 0.41238 0.03858 0.0
C501 C 0.4628 0.45583 0.05368 0.0
H502 H 0.46042 0.51203 0.00926 0.0
C503 C 0.55934 0.56764 0.0403 0.0
C504 C 0.55487 0.59042 0.03577 0.0
C505 C 0.53657 0.53998 0.0415 0.0
C506 C 0.46125 0.49681 0.0222 0.0
H507 H 0.40371 0.3516 0.02651 0.0
H508 H 0.44295 0.40038 0.03044 0.0
H509 H 0.42144 0.46335 0.00864 0.0
H510 H 0.52303 0.60224 0.02992 0.0
H511 H 0.48309 0.55406 0.03309 0.0
H512 H 0.50219 0.48922 0.06781 0.0
C513 C 0.42147 0.39617 0.03238 0.0
C514 C 0.43896 0.46887 0.02168 0.0
C515 C 0.39907 0.36835 0.03006 0.0
C516 C 0.5271 0.58506 0.03326 0.0
C517 C 0.50425 0.55739 0.03486 0.0
C518 C 0.48492 0.48389 0.05454 0.0
C519 C 0.41612 0.41846 0.0363 0.0
C520 C 0.43962 0.44811 0.03728 0.0
C521 C 0.5087 0.53442 0.0386 0.0
C522 C 0.48456 0.50474 0.03865 0.0
H523 H 0.34434 0.38065 0.03829 0.0
H524 H 0.38343 0.42918 0.04181 0.0
H525 H 0.46363 0.44022 0.0661 0.0
H526 H 0.58053 0.57106 0.04213 0.0
H527 H 0.54098 0.52293 0.04394 0.0
C528 C 0.04407 0.74615 0.36951 0.0
C529 C 0.01801 0.73304 0.35664 0.0
C530 C 0.06451 0.77385 0.36327 0.0
C531 C 0.08212 0.83772 0.32378 0.0
H532 H 0.14914 0.83335 0.30822 0.0
C533 C 0.19588 0.89631 0.26491 0.0
C534 C 0.20923 0.92312 0.27644 0.0
C535 C 0.16842 0.87616 0.27211 0.0
C536 C 0.13051 0.83487 0.31218 0.0
H537 H -0.0084 0.73938 0.3293 0.0
H538 H 0.02776 0.78772 0.31779 0.0
H539 H 0.10972 0.79431 0.33028 0.0
H540 H 0.20349 0.95103 0.30238 0.0
H541 H 0.15547 0.91539 0.31549 0.0
H542 H 0.10347 0.8786 0.30515 0.0
C543 C 0.03227 0.77675 0.33293 0.0
C544 C 0.10808 0.81268 0.3253 0.0
C545 C 0.01158 0.74906 0.33951 0.0
C546 C 0.19362 0.93046 0.29319 0.0
C547 C 0.16614 0.91009 0.3007 0.0
C548 C 0.10491 0.86027 0.3107 0.0
C549 C 0.05946 0.78872 0.34365 0.0
C550 C 0.08362 0.81376 0.33129 0.0
C551 C 0.15401 0.88231 0.29132 0.0
C552 C 0.12917 0.85881 0.30453 0.0
H553 H 0.04938 0.73434 0.38307 0.0
H554 H 0.08508 0.78286 0.37234 0.0
H555 H 0.06344 0.83901 0.32807 0.0
H556 H 0.20735 0.89027 0.25167 0.0
H557 H 0.15926 0.85506 0.26411 0.0
C558 C 0.24325 0.20761 0.62596 0.0
C559 C 0.26755 0.22441 0.61085 0.0
C560 C 0.23628 0.18016 0.63324 0.0
C561 C 0.27595 0.14529 0.64744 0.0
H562 H 0.20375 0.07664 0.65763 0.0
C563 C 0.24112 0.02495 0.67008 0.0
C564 C 0.26247 0.03061 0.68824 0.0
C565 C 0.23455 0.04587 0.66374 0.0
C566 C 0.224 0.09575 0.65494 0.0
H567 H 0.30144 0.22472 0.58874 0.0
H568 H 0.28883 0.17668 0.60074 0.0
H569 H 0.20571 0.11758 0.63549 0.0
H570 H 0.29082 0.06064 0.71656 0.0
H571 H 0.27856 0.09664 0.70634 0.0
H572 H 0.29453 0.12398 0.66623 0.0
C573 C 0.27571 0.18491 0.60771 0.0
C574 C 0.22511 0.11908 0.64232 0.0
C575 C 0.28287 0.21235 0.60076 0.0
C576 C 0.27457 0.05597 0.70223 0.0
C577 C 0.26765 0.07659 0.69626 0.0
C578 C 0.27484 0.12228 0.66006 0.0
C579 C 0.25341 0.1692 0.62527 0.0
C580 C 0.25122 0.14393 0.63819 0.0
C581 C 0.24905 0.07249 0.67573 0.0
C582 C 0.24894 0.09722 0.66398 0.0
H583 H 0.23109 0.21647 0.63399 0.0
H584 H 0.21895 0.16848 0.64675 0.0
H585 H 0.29633 0.16432 0.64507 0.0
H586 H 0.23153 0.00553 0.65898 0.0
H587 H 0.22009 0.04207 0.64788 0.0
C588 C 0.19145 0.24841 -0.00394 0.0
C589 C 0.20707 0.27476 0.00836 0.0
C590 C 0.16292 0.23771 -0.0098 0.0
C591 C 0.10067 0.24451 0.00383 0.0
H592 H 0.08967 0.24041 0.929 0.0
C593 C 0.04256 0.28284 0.93304 0.0
C594 C 0.01534 0.27018 0.94396 0.0
C595 C 0.0604 0.27226 0.93867 0.0
C596 C 0.09218 0.24086 0.94995 0.0
H597 H 0.20481 0.30949 0.02597 0.0
H598 H 0.15487 0.29043 0.01644 0.0
H599 H 0.13171 0.24192 0.94704 0.0
H600 H -0.01528 0.23546 0.96795 0.0
H601 H 0.01639 0.21744 0.97842 0.0
H602 H 0.06199 0.24509 0.00668 0.0
C603 C 0.16466 0.27819 0.0111 0.0
C604 C 0.1161 0.24158 0.96027 0.0
C605 C 0.19326 0.28918 0.01641 0.0
C606 C 0.00558 0.24556 0.95917 0.0
C607 C 0.02368 0.23531 0.96525 0.0
C608 C 0.07653 0.24332 -0.00646 0.0
C609 C 0.1495 0.25285 -0.00281 0.0
C610 C 0.12114 0.24469 -0.0128 0.0
C611 C 0.05153 0.24914 0.9557 0.0
C612 C 0.07273 0.24276 0.96645 0.0
H613 H 0.20168 0.23696 -0.01049 0.0
H614 H 0.15162 0.21816 0.97941 0.0
H615 H 0.10413 0.24688 0.02466 0.0
H616 H 0.05055 0.3018 0.9212 0.0
H617 H 0.08186 0.28348 0.93124 0.0
C618 C 0.91454 0.20526 0.33818 0.0
C619 C 0.90876 0.22084 0.35635 0.0
C620 C 0.89365 0.1777 0.3318 0.0
C621 C 0.81739 0.14154 0.32805 0.0
H622 H 0.82213 0.0774 0.30261 0.0
C623 C 0.73225 0.02504 0.29238 0.0
C624 C 0.71595 0.03297 0.2773 0.0
C625 C 0.7596 0.04538 0.29994 0.0
C626 C 0.82062 0.09521 0.30969 0.0
H627 H 0.87852 0.21887 0.38474 0.0
H628 H 0.84254 0.17047 0.37447 0.0
H629 H 0.86273 0.11605 0.32523 0.0
H630 H 0.71647 0.06718 0.2555 0.0
H631 H 0.76433 0.10238 0.26802 0.0
H632 H 0.77567 0.12124 0.31279 0.0
C633 C 0.86268 0.17976 0.36439 0.0
C634 C 0.84376 0.11724 0.32259 0.0
C635 C 0.88328 0.20738 0.37039 0.0
C636 C 0.72845 0.06065 0.26748 0.0
C637 C 0.75578 0.08079 0.27473 0.0
C638 C 0.79458 0.11984 0.31515 0.0
C639 C 0.86692 0.16539 0.3438 0.0
C640 C 0.84228 0.14062 0.33192 0.0
C641 C 0.77094 0.07374 0.29229 0.0
C642 C 0.79597 0.09659 0.30556 0.0
H643 H 0.93406 0.21525 0.32706 0.0
H644 H 0.89756 0.16716 0.3159 0.0
H645 H 0.8157 0.15948 0.33444 0.0
H646 H 0.72306 0.00379 0.30021 0.0
H647 H 0.77086 0.03938 0.31344 0.0
C648 C 0.69085 0.74784 0.63239 0.0
C649 C 0.66611 0.73291 0.61759 0.0
C650 C 0.7012 0.77627 0.63849 0.0
C651 C 0.69361 0.82191 0.66649 0.0
H652 H 0.69728 0.8787 0.6187 0.0
C653 C 0.64966 0.89483 0.68625 0.0
C654 C 0.66473 0.92304 0.67768 0.0
C655 C 0.6603 0.8768 0.6819 0.0
C656 C 0.697 0.86338 0.63229 0.0
H657 H 0.63413 0.73631 0.59581 0.0
H658 H 0.65269 0.78614 0.60576 0.0
H659 H 0.69772 0.83724 0.60163 0.0
H660 H 0.70331 0.95499 0.65899 0.0
H661 H 0.7215 0.92296 0.65053 0.0
H662 H 0.69037 0.84681 0.69699 0.0
C663 C 0.66391 0.77588 0.61286 0.0
C664 C 0.69712 0.83966 0.62252 0.0
C665 C 0.6532 0.74736 0.6073 0.0
C666 C 0.69136 0.93334 0.66591 0.0
C667 C 0.70172 0.91508 0.661 0.0
C668 C 0.69299 0.84538 0.67623 0.0
C669 C 0.68737 0.79029 0.62927 0.0
C670 C 0.69439 0.81826 0.6395 0.0
C671 C 0.68593 0.88651 0.66843 0.0
C672 C 0.69364 0.86577 0.65913 0.0
H673 H 0.70108 0.73709 0.64069 0.0
H674 H 0.71927 0.78699 0.65123 0.0
H675 H 0.69122 0.80555 0.67995 0.0
H676 H 0.62912 0.88642 0.69543 0.0
H677 H 0.64757 0.85477 0.68756 0.0
C678 C 0.73315 0.66142 0.01975 0.0
C679 C 0.71943 0.67598 0.0118 0.0
C680 C 0.76163 0.67215 0.01387 0.0
C681 C 0.80966 0.70813 0.96197 0.0
H682 H 0.86424 0.70479 0.00756 0.0
C683 C 0.92003 0.70389 0.9593 0.0
C684 C 0.91005 0.67914 0.94448 0.0
C685 C 0.90205 0.71426 0.96551 0.0
C686 C 0.84957 0.7065 -0.00536 0.0
H687 H 0.72492 0.71377 -0.00746 0.0
H688 H 0.77476 0.73209 -0.01852 0.0
H689 H 0.82238 0.70324 0.02621 0.0
H690 H 0.87458 0.64743 0.92246 0.0
H691 H 0.84348 0.66594 0.93271 0.0
H692 H 0.83568 0.70901 0.93028 0.0
C693 C 0.76347 0.71264 -0.00739 0.0
C694 C 0.82558 0.70545 0.00531 0.0
C695 C 0.73507 0.7022 -0.00098 0.0
C696 C 0.88275 0.66648 0.934 0.0
C697 C 0.86501 0.67717 0.93975 0.0
C698 C 0.83342 0.70871 0.95127 0.0
C699 C 0.77678 0.69735 -0.0005 0.0
C700 C 0.80496 0.70523 -0.011 0.0
C701 C 0.8741 0.70041 0.95647 0.0
C702 C 0.85304 0.70688 0.96748 0.0
H703 H 0.72158 0.64119 0.02966 0.0
H704 H 0.77134 0.65981 0.01916 0.0
H705 H 0.79392 0.70776 0.94898 0.0
H706 H 0.94096 0.714 0.96773 0.0
H707 H 0.9095 0.73222 0.97842 0.0
C708 C 0.28325 0.96151 0.38318 0.0
C709 C 0.29336 -0.01287 0.36941 0.0
C710 C 0.2798 0.96044 0.41017 0.0
C711 C 0.30741 0.00303 0.4683 0.0
H712 H 0.24 0.94339 0.50188 0.0
C713 C 0.29674 -0.00199 0.57982 0.0
C714 C 0.28343 0.97139 0.59213 0.0
C715 C 0.29555 0.00037 0.55286 0.0
C716 C 0.25914 0.95997 0.49289 0.0
H717 H 0.30753 0.03173 0.3733 0.0
H718 H 0.30217 0.02997 0.42094 0.0
H719 H 0.24237 0.94722 0.45443 0.0
H720 H 0.2579 0.9263 0.5858 0.0
H721 H 0.25672 0.9302 0.53836 0.0
H722 H 0.32487 0.01515 0.50636 0.0
C723 C 0.29674 0.0107 0.41056 0.0
C724 C 0.26038 0.96227 0.46568 0.0
C725 C 0.29973 0.01169 0.38335 0.0
C726 C 0.26831 0.9471 0.57685 0.0
C727 C 0.26755 0.94941 0.54965 0.0
C728 C 0.30636 0.0005 0.49545 0.0
C729 C 0.28675 -0.01498 0.42422 0.0
C730 C 0.28458 -0.01623 0.45311 0.0
C731 C 0.2815 0.97613 0.53724 0.0
C732 C 0.28223 -0.0211 0.5082 0.0
H733 H 0.27791 0.94212 0.37308 0.0
H734 H 0.27234 0.94042 0.42016 0.0
H735 H 0.32651 0.0195 0.45914 0.0
H736 H 0.30815 0.01721 0.5911 0.0
H737 H 0.3058 0.02134 0.54429 0.0
C738 C 0.32232 0.31821 0.90591 0.0
C739 C 0.30324 0.29539 0.92155 0.0
C740 C 0.31997 0.31678 0.87882 0.0
C741 C 0.26856 0.28791 0.82763 0.0
H742 H 0.3331 0.30941 0.78244 0.0
C743 C 0.2632 0.29426 0.71427 0.0
C744 C 0.2878 0.31477 0.70149 0.0
C745 C 0.26341 0.28981 0.74121 0.0
C746 C 0.31491 0.30377 0.79473 0.0
H747 H 0.26691 0.25302 0.9212 0.0
H748 H 0.26229 0.25081 0.87346 0.0
H749 H 0.3373 0.30415 0.82903 0.0
H750 H 0.33119 0.34797 0.70698 0.0
H751 H 0.3312 0.34141 0.75376 0.0
H752 H 0.24649 0.28885 0.79359 0.0
C753 C 0.27931 0.26959 0.88233 0.0
C754 C 0.3173 0.30046 0.82141 0.0
C755 C 0.28212 0.27075 0.90954 0.0
C756 C 0.31199 0.33181 0.71629 0.0
C757 C 0.31207 0.32775 0.74311 0.0
C758 C 0.26626 0.29167 0.8009 0.0
C759 C 0.29806 0.29276 0.86678 0.0
C760 C 0.29431 0.2929 0.83818 0.0
C761 C 0.28814 0.30606 0.75588 0.0
C762 C 0.28961 0.3002 0.78414 0.0
H763 H 0.33869 0.3375 0.9147 0.0
H764 H 0.3346 0.335 0.86731 0.0
H765 H 0.25058 0.2823 0.84023 0.0
H766 H 0.24433 0.28063 0.70327 0.0
H767 H 0.24457 0.27287 0.75027 0.0
C768 C 0.9415 0.28788 0.24771 0.0
C769 C -0.03194 0.30093 0.25983 0.0
C770 C 0.93916 0.28401 0.2208 0.0
C771 C -0.02088 0.28606 0.16095 0.0
H772 H 0.92108 0.29519 0.12681 0.0
C773 C -0.0211 0.30767 0.0509 0.0
C774 C 0.95327 0.2926 0.03731 0.0
C775 C -0.02027 0.30544 0.07792 0.0
C776 C 0.93712 0.29219 0.13609 0.0
H777 H 0.01304 0.31969 0.25324 0.0
H778 H 0.00917 0.31401 0.20588 0.0
H779 H 0.92529 0.29857 0.17398 0.0
H780 H 0.9084 0.26303 0.04151 0.0
H781 H 0.90976 0.25966 0.08919 0.0
H782 H -0.00838 0.28099 0.12263 0.0
C783 C -0.01001 0.3061 0.21729 0.0
C784 C 0.93956 0.29406 0.16321 0.0
C785 C -0.00771 0.30953 0.24443 0.0
C786 C 0.92845 0.27492 0.05143 0.0
C787 C 0.92922 0.27306 0.07866 0.0
C788 C -0.02309 0.2846 0.13376 0.0
C789 C 0.96336 0.29356 0.20506 0.0
C790 C 0.96064 0.29109 0.17608 0.0
C791 C 0.95491 0.28838 0.09215 0.0
C792 C 0.95595 0.28777 0.12105 0.0
H793 H 0.92235 0.28054 0.25907 0.0
H794 H 0.91823 0.27349 0.21238 0.0
H795 H -0.00472 0.28315 0.17006 0.0
H796 H -0.00153 0.32133 0.04065 0.0
H797 H -0.00023 0.3177 0.08776 0.0
C798 C 0.61102 0.97291 0.38337 0.0
C799 C 0.62629 0.96373 0.36834 0.0
C800 C 0.61562 -0.02279 0.41008 0.0
C801 C 0.64894 0.96396 0.46747 0.0
H802 H 0.6436 0.02697 0.49525 0.0
C803 C 0.67171 0.00056 0.57597 0.0
C804 C 0.64797 -0.00074 0.58789 0.0
C805 C 0.67296 -0.00123 0.54877 0.0
C806 C 0.64531 0.00941 0.48773 0.0
H807 H 0.65776 0.9509 0.36969 0.0
H808 H 0.66641 0.95905 0.41653 0.0
H809 H 0.63772 0.01736 0.44874 0.0
H810 H 0.60762 -0.00366 0.58097 0.0
H811 H 0.6104 -0.0054 0.53358 0.0
H812 H 0.65688 0.95645 0.50682 0.0
C813 C 0.65048 0.96251 0.40769 0.0
C814 C 0.64164 0.00365 0.4611 0.0
C815 C 0.64551 0.95777 0.38085 0.0
C816 C 0.62623 -0.00242 0.57221 0.0
C817 C 0.62782 -0.00344 0.54513 0.0
C818 C 0.65305 0.97003 0.49416 0.0
C819 C 0.63608 0.97301 0.42253 0.0
C820 C 0.64257 -0.01965 0.45065 0.0
C821 C 0.65084 -0.00355 0.53316 0.0
C822 C 0.6506 -0.00758 0.50459 0.0
H823 H 0.59583 -0.02261 0.37433 0.0
H824 H 0.60335 -0.01571 0.4209 0.0
H825 H 0.64972 0.9458 0.46024 0.0
H826 H 0.68853 0.00142 0.5877 0.0
H827 H 0.69095 -0.00123 0.53996 0.0
C828 C 0.60491 0.63281 0.91056 0.0
C829 C 0.62396 0.65578 0.92581 0.0
C830 C 0.60727 0.63403 0.88345 0.0
C831 C 0.65864 0.66269 0.83172 0.0
H832 H 0.59413 0.64117 0.787 0.0
C833 C 0.66439 0.6577 0.71836 0.0
C834 C 0.6398 0.63757 0.7056 0.0
C835 C 0.66408 0.66153 0.74537 0.0
C836 C 0.61231 0.64678 0.79916 0.0
H837 H 0.66023 0.69817 0.92476 0.0
H838 H 0.66487 0.70002 0.87699 0.0
H839 H 0.58986 0.64632 0.83357 0.0
H840 H 0.59636 0.60433 0.7111 0.0
H841 H 0.5962 0.60973 0.75802 0.0
H842 H 0.68078 0.66187 0.79756 0.0
C843 C 0.64788 0.68129 0.88617 0.0
C844 C 0.60987 0.65004 0.82583 0.0
C845 C 0.64506 0.68034 0.91339 0.0
C846 C 0.61554 0.62018 0.72044 0.0
C847 C 0.61538 0.6236 0.74734 0.0
C848 C 0.66098 0.65897 0.805 0.0
C849 C 0.62916 0.65798 0.87102 0.0
C850 C 0.63287 0.65768 0.84242 0.0
C851 C 0.63928 0.64501 0.76011 0.0
C852 C 0.63766 0.65047 0.7884 0.0
H853 H 0.58855 0.61358 0.91967 0.0
H854 H 0.59267 0.61572 0.87224 0.0
H855 H 0.67662 0.66834 0.84418 0.0
H856 H 0.68328 0.67159 0.70731 0.0
H857 H 0.68289 0.67828 0.75441 0.0
C858 C -0.01554 0.66636 0.24803 0.0
C859 C 0.95793 0.653 0.26044 0.0
C860 C -0.01332 0.66988 0.22104 0.0
C861 C 0.94616 0.66573 0.16114 0.0
H862 H 0.00491 0.65718 0.12746 0.0
C863 C 0.94643 0.64198 0.05175 0.0
C864 C -0.02802 0.65713 0.03777 0.0
C865 C 0.94566 0.64472 0.0787 0.0
C866 C -0.01134 0.66001 0.1366 0.0
H867 H 0.91286 0.63339 0.25429 0.0
H868 H 0.91653 0.63843 0.20682 0.0
H869 H 0.0009 0.65485 0.17471 0.0
H870 H 0.01674 0.68731 0.04124 0.0
H871 H 0.01545 0.69156 0.0888 0.0
H872 H 0.93327 0.66957 0.12264 0.0
C873 C 0.93577 0.64686 0.21804 0.0
C874 C -0.01367 0.65875 0.16376 0.0
C875 C 0.93359 0.64381 0.24525 0.0
C876 C -0.00325 0.67534 0.05145 0.0
C877 C -0.00396 0.67772 0.07862 0.0
C878 C 0.94826 0.66658 0.13392 0.0
C879 C 0.96239 0.65962 0.20552 0.0
C880 C -0.03499 0.66152 0.17647 0.0
C881 C -0.02956 0.66237 0.0925 0.0
C882 C -0.03054 0.6636 0.12137 0.0
H883 H 0.00368 0.67417 0.25923 0.0
H884 H 0.00759 0.6806 0.21238 0.0
H885 H 0.92979 0.66846 0.17011 0.0
H886 H 0.9269 0.62793 0.04185 0.0
H887 H 0.92569 0.63241 0.08885 0.0
loop_
_geom_bond_atom_site_label_1
_geom_bond_atom_site_label_2
_geom_bond_distance
_geom_bond_site_symmetry_2
_ccdc_geom_bond_type
C0 O1 1.306 . S
C0 O3 1.160 . S
O1 C0 1.306 . S
O1 Cd2 2.228 . S
Cd2 O1 2.228 . S
Cd2 O6 2.273 . S
Cd2 O10 2.277 . S
O3 C0 1.160 . S
O3 Cd4 2.203 1_565 S
Cd4 O3 2.203 1_545 S
Cd4 O6 2.411 1_545 S
Cd4 O7 2.333 . S
Cd4 O8 2.352 . S
Cd4 O12 2.277 . S
Cd4 O13 2.356 . S
C5 O10 1.209 1_545 S
C5 O12 1.226 . S
O6 Cd2 2.273 . S
O6 Cd4 2.411 1_565 S
O6 C9 1.320 1_565 S
O7 Cd4 2.333 . S
O7 C9 1.214 . S
O8 Cd4 2.352 . S
O8 C11 1.258 . S
C9 O6 1.320 1_545 S
C9 O7 1.214 . S
O10 Cd2 2.277 . S
O10 C5 1.209 1_565 S
C11 O8 1.258 . S
C11 O13 1.282 . S
O12 Cd4 2.277 . S
O12 C5 1.226 . S
O13 Cd4 2.356 . S
O13 C11 1.282 . S
C14 O15 1.306 . S
C14 O17 1.160 . S
O15 C14 1.306 . S
O15 Cd16 2.228 . S
Cd16 O15 2.228 . S
Cd16 O20 2.273 . S
Cd16 O24 2.277 . S
O17 C14 1.160 . S
O17 Cd18 2.203 . S
Cd18 O17 2.203 . S
Cd18 O20 2.411 . S
Cd18 O21 2.333 . S
Cd18 O22 2.352 . S
Cd18 O26 2.277 . S
Cd18 O27 2.356 . S
C19 O24 1.209 . S
C19 O26 1.226 . S
O20 Cd16 2.273 . S
O20 Cd18 2.411 . S
O20 C23 1.320 . S
O21 Cd18 2.333 . S
O21 C23 1.214 . S
O22 Cd18 2.352 . S
O22 C25 1.258 . S
C23 O20 1.320 . S
C23 O21 1.214 . S
O24 Cd16 2.277 . S
O24 C19 1.209 . S
C25 O22 1.258 . S
C25 O27 1.282 . S
O26 Cd18 2.277 . S
O26 C19 1.226 . S
O27 Cd18 2.356 . S
O27 C25 1.282 . S
C28 O29 1.306 . S
C28 O31 1.160 . S
O29 C28 1.306 . S
O29 Cd30 2.228 1_556 S
Cd30 O29 2.228 1_554 S
Cd30 O34 2.273 1_554 S
Cd30 O38 2.277 . S
O31 C28 1.160 . S
O31 Cd32 2.203 1_455 S
Cd32 O31 2.203 1_655 S
Cd32 O34 2.411 1_655 S
Cd32 O35 2.333 . S
Cd32 O36 2.352 . S
Cd32 O40 2.277 1_556 S
Cd32 O41 2.356 . S
C33 O38 1.209 1_655 S
C33 O40 1.226 . S
O34 Cd30 2.273 1_556 S
O34 Cd32 2.411 1_455 S
O34 C37 1.320 1_455 S
O35 Cd32 2.333 . S
O35 C37 1.214 . S
O36 Cd32 2.352 . S
O36 C39 1.258 . S
C37 O34 1.320 1_655 S
C37 O35 1.214 . S
O38 Cd30 2.277 . S
O38 C33 1.209 1_455 S
C39 O36 1.258 . S
C39 O41 1.282 . S
O40 Cd32 2.277 1_554 S
O40 C33 1.226 . S
O41 Cd32 2.356 . S
O41 C39 1.282 . S
C42 O43 1.306 . S
C42 O45 1.160 . S
O43 C42 1.306 . S
O43 Cd44 2.228 . S
Cd44 O43 2.228 . S
Cd44 O48 2.273 . S
Cd44 O52 2.277 . S
O45 C42 1.160 . S
O45 Cd46 2.203 1_545 S
Cd46 O45 2.203 1_565 S
Cd46 O48 2.411 1_565 S
Cd46 O49 2.333 . S
Cd46 O50 2.352 . S
Cd46 O54 2.277 . S
Cd46 O55 2.356 . S
C47 O52 1.209 1_565 S
C47 O54 1.226 . S
O48 Cd44 2.273 . S
O48 Cd46 2.411 1_545 S
O48 C51 1.320 1_545 S
O49 Cd46 2.333 . S
O49 C51 1.214 . S
O50 Cd46 2.352 . S
O50 C53 1.258 . S
C51 O48 1.320 1_565 S
C51 O49 1.214 . S
O52 Cd44 2.277 . S
O52 C47 1.209 1_545 S
C53 O50 1.258 . S
C53 O55 1.282 . S
O54 Cd46 2.277 . S
O54 C47 1.226 . S
O55 Cd46 2.356 . S
O55 C53 1.282 . S
C56 O57 1.306 . S
C56 O59 1.160 . S
O57 C56 1.306 . S
O57 Cd58 2.228 . S
Cd58 O57 2.228 . S
Cd58 O62 2.273 . S
Cd58 O66 2.277 . S
O59 C56 1.160 . S
O59 Cd60 2.203 . S
Cd60 O59 2.203 . S
Cd60 O62 2.411 . S
Cd60 O63 2.333 . S
Cd60 O64 2.352 . S
Cd60 O68 2.277 . S
Cd60 O69 2.356 . S
C61 O66 1.209 . S
C61 O68 1.226 . S
O62 Cd58 2.273 . S
O62 Cd60 2.411 . S
O62 C65 1.320 . S
O63 Cd60 2.333 . S
O63 C65 1.214 . S
O64 Cd60 2.352 . S
O64 C67 1.258 . S
C65 O62 1.320 . S
C65 O63 1.214 . S
O66 Cd58 2.277 . S
O66 C61 1.209 . S
C67 O64 1.258 . S
C67 O69 1.282 . S
O68 Cd60 2.277 . S
O68 C61 1.226 . S
O69 Cd60 2.356 . S
O69 C67 1.282 . S
C70 O71 1.306 . S
C70 O73 1.160 . S
O71 C70 1.306 . S
O71 Cd72 2.228 1_556 S
Cd72 O71 2.228 1_554 S
Cd72 O76 2.273 1_554 S
Cd72 O80 2.277 . S
O73 C70 1.160 . S
O73 Cd74 2.203 1_655 S
Cd74 O73 2.203 1_455 S
Cd74 O76 2.411 1_455 S
Cd74 O77 2.333 . S
Cd74 O78 2.352 . S
Cd74 O82 2.277 1_556 S
Cd74 O83 2.356 . S
C75 O80 1.209 1_455 S
C75 O82 1.226 . S
O76 Cd72 2.273 1_556 S
O76 Cd74 2.411 1_655 S
O76 C79 1.320 1_655 S
O77 Cd74 2.333 . S
O77 C79 1.214 . S
O78 Cd74 2.352 . S
O78 C81 1.258 . S
C79 O76 1.320 1_455 S
C79 O77 1.214 . S
O80 Cd72 2.277 . S
O80 C75 1.209 1_655 S
C81 O78 1.258 . S
C81 O83 1.282 . S
O82 Cd74 2.277 1_554 S
O82 C75 1.226 . S
O83 Cd74 2.356 . S
O83 C81 1.282 . S
C84 O85 1.306 . S
C84 O87 1.160 . S
O85 C84 1.306 . S
O85 Cd86 2.228 . S
Cd86 O85 2.228 . S
Cd86 O90 2.273 . S
Cd86 O94 2.277 . S
O87 C84 1.160 . S
O87 Cd88 2.203 1_455 S
Cd88 O87 2.203 1_655 S
Cd88 O90 2.411 1_655 S
Cd88 O91 2.333 . S
Cd88 O92 2.352 . S
Cd88 O96 2.277 . S
Cd88 O97 2.356 . S
C89 O94 1.209 1_655 S
C89 O96 1.226 . S
O90 Cd86 2.273 . S
O90 Cd88 2.411 1_455 S
O90 C93 1.320 1_455 S
O91 Cd88 2.333 . S
O91 C93 1.214 . S
O92 Cd88 2.352 . S
O92 C95 1.258 . S
C93 O90 1.320 1_655 S
C93 O91 1.214 . S
O94 Cd86 2.277 . S
O94 C89 1.209 1_455 S
C95 O92 1.258 . S
C95 O97 1.282 . S
O96 Cd88 2.277 . S
O96 C89 1.226 . S
O97 Cd88 2.356 . S
O97 C95 1.282 . S
C98 O99 1.306 . S
C98 O101 1.160 . S
O99 C98 1.306 . S
O99 Cd100 2.228 . S
Cd100 O99 2.228 . S
Cd100 O104 2.273 . S
Cd100 O108 2.277 . S
O101 C98 1.160 . S
O101 Cd102 2.203 1_545 S
Cd102 O101 2.203 1_565 S
Cd102 O104 2.411 1_565 S
Cd102 O105 2.333 . S
Cd102 O106 2.352 . S
Cd102 O110 2.277 . S
Cd102 O111 2.356 . S
C103 O108 1.209 1_565 S
C103 O110 1.226 . S
O104 Cd100 2.273 . S
O104 Cd102 2.411 1_545 S
O104 C107 1.320 1_545 S
O105 Cd102 2.333 . S
O105 C107 1.214 . S
O106 Cd102 2.352 . S
O106 C109 1.258 . S
C107 O104 1.320 1_565 S
C107 O105 1.214 . S
O108 Cd100 2.277 . S
O108 C103 1.209 1_545 S
C109 O106 1.258 . S
C109 O111 1.282 . S
O110 Cd102 2.277 . S
O110 C103 1.226 . S
O111 Cd102 2.356 . S
O111 C109 1.282 . S
C112 O113 1.306 . S
C112 O115 1.160 . S
O113 C112 1.306 . S
O113 Cd114 2.228 1_554 S
Cd114 O113 2.228 1_556 S
Cd114 O118 2.273 1_556 S
Cd114 O122 2.277 . S
O115 C112 1.160 . S
O115 Cd116 2.203 . S
Cd116 O115 2.203 . S
Cd116 O118 2.411 . S
Cd116 O119 2.333 . S
Cd116 O120 2.352 . S
Cd116 O124 2.277 1_554 S
Cd116 O125 2.356 . S
C117 O122 1.209 . S
C117 O124 1.226 . S
O118 Cd114 2.273 1_554 S
O118 Cd116 2.411 . S
O118 C121 1.320 . S
O119 Cd116 2.333 . S
O119 C121 1.214 . S
O120 Cd116 2.352 . S
O120 C123 1.258 . S
C121 O118 1.320 . S
C121 O119 1.214 . S
O122 Cd114 2.277 . S
O122 C117 1.209 . S
C123 O120 1.258 . S
C123 O125 1.282 . S
O124 Cd116 2.277 1_556 S
O124 C117 1.226 . S
O125 Cd116 2.356 . S
O125 C123 1.282 . S
C126 O127 1.306 . S
C126 O129 1.160 . S
O127 C126 1.306 . S
O127 Cd128 2.228 . S
Cd128 O127 2.228 . S
Cd128 O132 2.273 . S
Cd128 O136 2.277 . S
O129 C126 1.160 . S
O129 Cd130 2.203 1_655 S
Cd130 O129 2.203 1_455 S
Cd130 O132 2.411 1_455 S
Cd130 O133 2.333 . S
Cd130 O134 2.352 . S
Cd130 O138 2.277 . S
Cd130 O139 2.356 . S
C131 O136 1.209 1_455 S
C131 O138 1.226 . S
O132 Cd128 2.273 . S
O132 Cd130 2.411 1_655 S
O132 C135 1.320 1_655 S
O133 Cd130 2.333 . S
O133 C135 1.214 . S
O134 Cd130 2.352 . S
O134 C137 1.258 . S
C135 O132 1.320 1_455 S
C135 O133 1.214 . S
O136 Cd128 2.277 . S
O136 C131 1.209 1_655 S
C137 O134 1.258 . S
C137 O139 1.282 . S
O138 Cd130 2.277 . S
O138 C131 1.226 . S
O139 Cd130 2.356 . S
O139 C137 1.282 . S
C140 O141 1.306 . S
C140 O143 1.160 . S
O141 C140 1.306 . S
O141 Cd142 2.228 . S
Cd142 O141 2.228 . S
Cd142 O146 2.273 . S
Cd142 O150 2.277 . S
O143 C140 1.160 . S
O143 Cd144 2.203 1_565 S
Cd144 O143 2.203 1_545 S
Cd144 O146 2.411 1_545 S
Cd144 O147 2.333 . S
Cd144 O148 2.352 . S
Cd144 O152 2.277 . S
Cd144 O153 2.356 . S
C145 O150 1.209 1_545 S
C145 O152 1.226 . S
O146 Cd142 2.273 . S
O146 Cd144 2.411 1_565 S
O146 C149 1.320 1_565 S
O147 Cd144 2.333 . S
O147 C149 1.214 . S
O148 Cd144 2.352 . S
O148 C151 1.258 . S
C149 O146 1.320 1_545 S
C149 O147 1.214 . S
O150 Cd142 2.277 . S
O150 C145 1.209 1_565 S
C151 O148 1.258 . S
C151 O153 1.282 . S
O152 Cd144 2.277 . S
O152 C145 1.226 . S
O153 Cd144 2.356 . S
O153 C151 1.282 . S
C154 O155 1.306 . S
C154 O157 1.160 . S
O155 C154 1.306 . S
O155 Cd156 2.228 1_554 S
Cd156 O155 2.228 1_556 S
Cd156 O160 2.273 1_556 S
Cd156 O164 2.277 . S
O157 C154 1.160 . S
O157 Cd158 2.203 . S
Cd158 O157 2.203 . S
Cd158 O160 2.411 . S
Cd158 O161 2.333 . S
Cd158 O162 2.352 . S
Cd158 O166 2.277 1_554 S
Cd158 O167 2.356 . S
C159 O164 1.209 . S
C159 O166 1.226 . S
O160 Cd156 2.273 1_554 S
O160 Cd158 2.411 . S
O160 C163 1.320 . S
O161 Cd158 2.333 . S
O161 C163 1.214 . S
O162 Cd158 2.352 . S
O162 C165 1.258 . S
C163 O160 1.320 . S
C163 O161 1.214 . S
O164 Cd156 2.277 . S
O164 C159 1.209 . S
C165 O162 1.258 . S
C165 O167 1.282 . S
O166 Cd158 2.277 1_556 S
O166 C159 1.226 . S
O167 Cd158 2.356 . S
O167 C165 1.282 . S
C168 C169 1.349 . S
C168 C170 1.327 . S
C168 H193 0.950 . S
C169 C168 1.349 . S
C169 C185 1.349 . S
C170 C168 1.327 . S
C170 C189 1.429 . S
C170 H194 0.950 . S
C171 C188 1.574 . S
C171 C190 1.368 . S
C171 H195 0.949 . S
H172 C176 0.949 . S
C173 C174 1.349 . S
C173 C175 1.327 . S
C173 H196 0.950 . S
C174 C173 1.349 . S
C174 C186 1.349 . S
C175 C173 1.327 . S
C175 C191 1.429 . S
C175 H197 0.950 . S
C176 H172 0.949 . S
C176 C184 1.574 . S
C176 C192 1.368 . S
H177 C185 0.950 . S
H178 C183 0.950 . S
H179 C184 0.949 . S
H180 C186 0.950 . S
H181 C187 0.950 . S
H182 C188 0.949 . S
C183 H178 0.950 . S
C183 C185 1.327 . S
C183 C189 1.429 . S
C184 C176 1.574 . S
C184 H179 0.949 . S
C184 C190 1.368 . S
C185 C169 1.349 . S
C185 H177 0.950 . S
C185 C183 1.327 . S
C186 C174 1.349 . S
C186 H180 0.950 . S
C186 C187 1.327 . S
C187 H181 0.950 . S
C187 C186 1.327 . S
C187 C191 1.429 . S
C188 C171 1.574 . S
C188 H182 0.949 . S
C188 C192 1.368 . S
C189 C170 1.429 . S
C189 C183 1.429 . S
C189 C190 1.523 . S
C190 C171 1.368 . S
C190 C184 1.368 . S
C190 C189 1.523 . S
C191 C175 1.429 . S
C191 C187 1.429 . S
C191 C192 1.523 . S
C192 C176 1.368 . S
C192 C188 1.368 . S
C192 C191 1.523 . S
H193 C168 0.950 . S
H194 C170 0.950 . S
H195 C171 0.949 . S
H196 C173 0.950 . S
H197 C175 0.950 . S
C198 C199 1.349 . S
C198 C200 1.327 . S
C198 H223 0.950 . S
C199 C198 1.349 . S
C199 C215 1.349 . S
C200 C198 1.327 . S
C200 C219 1.429 . S
C200 H224 0.950 . S
C201 C218 1.574 . S
C201 C220 1.368 . S
C201 H225 0.949 . S
H202 C206 0.949 . S
C203 C204 1.349 . S
C203 C205 1.327 . S
C203 H226 0.950 . S
C204 C203 1.349 . S
C204 C216 1.349 . S
C205 C203 1.327 . S
C205 C221 1.429 . S
C205 H227 0.950 . S
C206 H202 0.949 . S
C206 C214 1.574 . S
C206 C222 1.368 . S
H207 C215 0.950 . S
H208 C213 0.950 . S
H209 C214 0.949 . S
H210 C216 0.950 . S
H211 C217 0.950 . S
H212 C218 0.949 . S
C213 H208 0.950 . S
C213 C215 1.327 . S
C213 C219 1.429 . S
C214 C206 1.574 . S
C214 H209 0.949 . S
C214 C220 1.368 . S
C215 C199 1.349 . S
C215 H207 0.950 . S
C215 C213 1.327 . S
C216 C204 1.349 . S
C216 H210 0.950 . S
C216 C217 1.327 . S
C217 H211 0.950 . S
C217 C216 1.327 . S
C217 C221 1.429 . S
C218 C201 1.574 . S
C218 H212 0.949 . S
C218 C222 1.368 . S
C219 C200 1.429 . S
C219 C213 1.429 . S
C219 C220 1.523 . S
C220 C201 1.368 . S
C220 C214 1.368 . S
C220 C219 1.523 . S
C221 C205 1.429 . S
C221 C217 1.429 . S
C221 C222 1.523 . S
C222 C206 1.368 . S
C222 C218 1.368 . S
C222 C221 1.523 . S
H223 C198 0.950 . S
H224 C200 0.950 . S
H225 C201 0.949 . S
H226 C203 0.950 . S
H227 C205 0.950 . S
C228 C229 1.349 . S
C228 C230 1.327 . S
C228 H253 0.950 . S
C229 C228 1.349 . S
C229 C245 1.349 . S
C230 C228 1.327 . S
C230 C249 1.429 . S
C230 H254 0.950 . S
C231 C248 1.574 . S
C231 C250 1.368 . S
C231 H255 0.949 . S
H232 C236 0.949 . S
C233 C234 1.349 . S
C233 C235 1.327 . S
C233 H256 0.950 . S
C234 C233 1.349 . S
C234 C246 1.349 . S
C235 C233 1.327 . S
C235 C251 1.429 . S
C235 H257 0.950 . S
C236 H232 0.949 . S
C236 C244 1.574 . S
C236 C252 1.368 . S
H237 C245 0.950 . S
H238 C243 0.950 . S
H239 C244 0.949 . S
H240 C246 0.950 . S
H241 C247 0.950 . S
H242 C248 0.949 . S
C243 H238 0.950 . S
C243 C245 1.327 . S
C243 C249 1.429 . S
C244 C236 1.574 . S
C244 H239 0.949 . S
C244 C250 1.368 . S
C245 C229 1.349 . S
C245 H237 0.950 . S
C245 C243 1.327 . S
C246 C234 1.349 . S
C246 H240 0.950 . S
C246 C247 1.327 . S
C247 H241 0.950 . S
C247 C246 1.327 . S
C247 C251 1.429 . S
C248 C231 1.574 . S
C248 H242 0.949 . S
C248 C252 1.368 . S
C249 C230 1.429 . S
C249 C243 1.429 . S
C249 C250 1.523 . S
C250 C231 1.368 . S
C250 C244 1.368 . S
C250 C249 1.523 . S
C251 C235 1.429 . S
C251 C247 1.429 . S
C251 C252 1.523 . S
C252 C236 1.368 . S
C252 C248 1.368 . S
C252 C251 1.523 . S
H253 C228 0.950 . S
H254 C230 0.950 . S
H255 C231 0.949 . S
H256 C233 0.950 . S
H257 C235 0.950 . S
C258 C259 1.349 . S
C258 C260 1.327 . S
C258 H283 0.950 . S
C259 C258 1.349 . S
C259 C275 1.349 . S
C260 C258 1.327 . S
C260 C279 1.429 . S
C260 H284 0.950 . S
C261 C278 1.574 . S
C261 C280 1.368 . S
C261 H285 0.949 . S
H262 C266 0.949 . S
C263 C264 1.349 . S
C263 C265 1.327 . S
C263 H286 0.950 . S
C264 C263 1.349 . S
C264 C276 1.349 . S
C265 C263 1.327 . S
C265 C281 1.429 . S
C265 H287 0.950 . S
C266 H262 0.949 . S
C266 C274 1.574 . S
C266 C282 1.368 . S
H267 C275 0.950 . S
H268 C273 0.950 . S
H269 C274 0.949 . S
H270 C276 0.950 . S
H271 C277 0.950 . S
H272 C278 0.949 . S
C273 H268 0.950 . S
C273 C275 1.327 . S
C273 C279 1.429 . S
C274 C266 1.574 . S
C274 H269 0.949 . S
C274 C280 1.368 . S
C275 C259 1.349 . S
C275 H267 0.950 . S
C275 C273 1.327 . S
C276 C264 1.349 . S
C276 H270 0.950 . S
C276 C277 1.327 . S
C277 H271 0.950 . S
C277 C276 1.327 . S
C277 C281 1.429 . S
C278 C261 1.574 . S
C278 H272 0.949 . S
C278 C282 1.368 . S
C279 C260 1.429 . S
C279 C273 1.429 . S
C279 C280 1.523 . S
C280 C261 1.368 . S
C280 C274 1.368 . S
C280 C279 1.523 . S
C281 C265 1.429 . S
C281 C277 1.429 . S
C281 C282 1.523 . S
C282 C266 1.368 . S
C282 C278 1.368 . S
C282 C281 1.523 . S
H283 C258 0.950 . S
H284 C260 0.950 . S
H285 C261 0.949 . S
H286 C263 0.950 . S
H287 C265 0.950 . S
C288 C289 1.349 . S
C288 C290 1.327 . S
C288 H313 0.950 . S
C289 C288 1.349 . S
C289 C305 1.349 . S
C290 C288 1.327 . S
C290 C309 1.429 . S
C290 H314 0.950 . S
C291 C308 1.574 . S
C291 C310 1.368 . S
C291 H315 0.949 . S
H292 C296 0.949 . S
C293 C294 1.349 . S
C293 C295 1.327 . S
C293 H316 0.950 . S
C294 C293 1.349 . S
C294 C306 1.349 . S
C295 C293 1.327 . S
C295 C311 1.429 . S
C295 H317 0.950 . S
C296 H292 0.949 . S
C296 C304 1.574 . S
C296 C312 1.368 . S
H297 C305 0.950 . S
H298 C303 0.950 . S
H299 C304 0.949 . S
H300 C306 0.950 . S
H301 C307 0.950 . S
H302 C308 0.949 . S
C303 H298 0.950 . S
C303 C305 1.327 . S
C303 C309 1.429 . S
C304 C296 1.574 . S
C304 H299 0.949 . S
C304 C310 1.368 . S
C305 C289 1.349 . S
C305 H297 0.950 . S
C305 C303 1.327 . S
C306 C294 1.349 . S
C306 H300 0.950 . S
C306 C307 1.327 . S
C307 H301 0.950 . S
C307 C306 1.327 . S
C307 C311 1.429 . S
C308 C291 1.574 . S
C308 H302 0.949 . S
C308 C312 1.368 . S
C309 C290 1.429 . S
C309 C303 1.429 . S
C309 C310 1.523 . S
C310 C291 1.368 . S
C310 C304 1.368 . S
C310 C309 1.523 . S
C311 C295 1.429 . S
C311 C307 1.429 . S
C311 C312 1.523 . S
C312 C296 1.368 . S
C312 C308 1.368 . S
C312 C311 1.523 . S
H313 C288 0.950 . S
H314 C290 0.950 . S
H315 C291 0.949 . S
H316 C293 0.950 . S
H317 C295 0.950 . S
C318 C319 1.349 . S
C318 C320 1.327 . S
C318 H343 0.950 . S
C319 C318 1.349 . S
C319 C335 1.349 . S
C320 C318 1.327 . S
C320 C339 1.429 . S
C320 H344 0.950 . S
C321 C338 1.574 . S
C321 C340 1.368 . S
C321 H345 0.949 . S
H322 C326 0.949 . S
C323 C324 1.349 . S
C323 C325 1.327 . S
C323 H346 0.950 . S
C324 C323 1.349 . S
C324 C336 1.349 . S
C325 C323 1.327 . S
C325 C341 1.429 . S
C325 H347 0.950 . S
C326 H322 0.949 . S
C326 C334 1.574 . S
C326 C342 1.368 . S
H327 C335 0.950 . S
H328 C333 0.950 . S
H329 C334 0.949 . S
H330 C336 0.950 . S
H331 C337 0.950 . S
H332 C338 0.949 . S
C333 H328 0.950 . S
C333 C335 1.327 . S
C333 C339 1.429 . S
C334 C326 1.574 . S
C334 H329 0.949 . S
C334 C340 1.368 . S
C335 C319 1.349 . S
C335 H327 0.950 . S
C335 C333 1.327 . S
C336 C324 1.349 . S
C336 H330 0.950 . S
C336 C337 1.327 . S
C337 H331 0.950 . S
C337 C336 1.327 . S
C337 C341 1.429 . S
C338 C321 1.574 . S
C338 H332 0.949 . S
C338 C342 1.368 . S
C339 C320 1.429 . S
C339 C333 1.429 . S
C339 C340 1.523 . S
C340 C321 1.368 . S
C340 C334 1.368 . S
C340 C339 1.523 . S
C341 C325 1.429 . S
C341 C337 1.429 . S
C341 C342 1.523 . S
C342 C326 1.368 . S
C342 C338 1.368 . S
C342 C341 1.523 . S
H343 C318 0.950 . S
H344 C320 0.950 . S
H345 C321 0.949 . S
H346 C323 0.950 . S
H347 C325 0.950 . S
C348 C349 1.354 . S
C348 C350 1.323 1_545 S
C348 H373 0.949 1_545 S
C349 C348 1.354 . S
C349 C365 1.349 . S
C350 C348 1.323 1_565 S
C350 C369 1.429 1_565 S
C350 H374 0.950 . S
C351 C368 1.574 . S
C351 C370 1.368 . S
C351 H375 0.949 . S
H352 C356 0.949 . S
C353 C354 1.354 . S
C353 C355 1.323 1_565 S
C353 H376 0.949 1_565 S
C354 C353 1.354 . S
C354 C366 1.349 . S
C355 C353 1.323 1_545 S
C355 C371 1.429 1_545 S
C355 H377 0.950 . S
C356 H352 0.949 . S
C356 C364 1.574 . S
C356 C372 1.368 . S
H357 C365 0.950 . S
H358 C363 0.950 . S
H359 C364 0.949 . S
H360 C366 0.950 . S
H361 C367 0.950 . S
H362 C368 0.949 . S
C363 H358 0.950 . S
C363 C365 1.327 . S
C363 C369 1.429 . S
C364 C356 1.574 . S
C364 H359 0.949 . S
C364 C370 1.368 1_565 S
C365 C349 1.349 . S
C365 H357 0.950 . S
C365 C363 1.327 . S
C366 C354 1.349 . S
C366 H360 0.950 . S
C366 C367 1.327 . S
C367 H361 0.950 . S
C367 C366 1.327 . S
C367 C371 1.429 . S
C368 C351 1.574 . S
C368 H362 0.949 . S
C368 C372 1.368 1_545 S
C369 C350 1.429 1_545 S
C369 C363 1.429 . S
C369 C370 1.523 . S
C370 C351 1.368 . S
C370 C364 1.368 1_545 S
C370 C369 1.523 . S
C371 C355 1.429 1_565 S
C371 C367 1.429 . S
C371 C372 1.523 . S
C372 C356 1.368 . S
C372 C368 1.368 1_565 S
C372 C371 1.523 . S
H373 C348 0.949 1_565 S
H374 C350 0.950 . S
H375 C351 0.949 . S
H376 C353 0.949 1_545 S
H377 C355 0.950 . S
C378 C379 1.349 . S
C378 C380 1.327 . S
C378 H403 0.950 . S
C379 C378 1.349 . S
C379 C395 1.349 . S
C380 C378 1.327 . S
C380 C399 1.429 . S
C380 H404 0.950 . S
C381 C398 1.574 . S
C381 C400 1.368 . S
C381 H405 0.949 . S
H382 C386 0.949 . S
C383 C384 1.349 . S
C383 C385 1.327 . S
C383 H406 0.950 . S
C384 C383 1.349 . S
C384 C396 1.349 . S
C385 C383 1.327 . S
C385 C401 1.429 . S
C385 H407 0.950 . S
C386 H382 0.949 . S
C386 C394 1.574 . S
C386 C402 1.368 . S
H387 C395 0.950 . S
H388 C393 0.950 . S
H389 C394 0.949 . S
H390 C396 0.950 . S
H391 C397 0.950 . S
H392 C398 0.949 . S
C393 H388 0.950 . S
C393 C395 1.327 . S
C393 C399 1.429 . S
C394 C386 1.574 . S
C394 H389 0.949 . S
C394 C400 1.368 . S
C395 C379 1.349 . S
C395 H387 0.950 . S
C395 C393 1.327 . S
C396 C384 1.349 . S
C396 H390 0.950 . S
C396 C397 1.327 . S
C397 H391 0.950 . S
C397 C396 1.327 . S
C397 C401 1.429 . S
C398 C381 1.574 . S
C398 H392 0.949 . S
C398 C402 1.368 . S
C399 C380 1.429 . S
C399 C393 1.429 . S
C399 C400 1.523 . S
C400 C381 1.368 . S
C400 C394 1.368 . S
C400 C399 1.523 . S
C401 C385 1.429 . S
C401 C397 1.429 . S
C401 C402 1.523 . S
C402 C386 1.368 . S
C402 C398 1.368 . S
C402 C401 1.523 . S
H403 C378 0.950 . S
H404 C380 0.950 . S
H405 C381 0.949 . S
H406 C383 0.950 . S
H407 C385 0.950 . S
C408 C409 1.351 . S
C408 C410 1.330 1_455 S
C408 H433 0.945 1_456 S
C409 C408 1.351 . S
C409 C425 1.349 . S
C410 C408 1.330 1_655 S
C410 C429 1.429 1_655 S
C410 H434 0.950 1_556 S
C411 C428 1.574 . S
C411 C430 1.368 . S
C411 H435 0.949 . S
H412 C416 0.949 1_554 S
C413 C414 1.351 . S
C413 C415 1.330 1_655 S
C413 H436 0.945 1_655 S
C414 C413 1.351 . S
C414 C426 1.349 . S
C415 C413 1.330 1_455 S
C415 C431 1.429 1_455 S
C415 H437 0.950 . S
C416 H412 0.949 1_556 S
C416 C424 1.574 . S
C416 C432 1.368 . S
H417 C425 0.950 . S
H418 C423 0.950 . S
H419 C424 0.949 1_554 S
H420 C426 0.950 1_554 S
H421 C427 0.950 1_554 S
H422 C428 0.949 . S
C423 H418 0.950 . S
C423 C425 1.327 . S
C423 C429 1.429 . S
C424 C416 1.574 . S
C424 H419 0.949 1_556 S
C424 C430 1.368 1_655 S
C425 C409 1.349 . S
C425 H417 0.950 . S
C425 C423 1.327 . S
C426 C414 1.349 . S
C426 H420 0.950 1_556 S
C426 C427 1.327 . S
C427 H421 0.950 1_556 S
C427 C426 1.327 . S
C427 C431 1.429 . S
C428 C411 1.574 . S
C428 H422 0.949 . S
C428 C432 1.368 1_455 S
C429 C410 1.429 1_455 S
C429 C423 1.429 . S
C429 C430 1.523 . S
C430 C411 1.368 . S
C430 C424 1.368 1_455 S
C430 C429 1.523 . S
C431 C415 1.429 1_655 S
C431 C427 1.429 . S
C431 C432 1.523 . S
C432 C416 1.368 . S
C432 C428 1.368 1_655 S
C432 C431 1.523 . S
H433 C408 0.945 1_654 S
H434 C410 0.950 1_554 S
H435 C411 0.949 . S
H436 C413 0.945 1_455 S
H437 C415 0.950 . S
C438 C439 1.354 . S
C438 C440 1.323 1_655 S
C438 H463 0.949 1_655 S
C439 C438 1.354 . S
C439 C455 1.349 . S
C440 C438 1.323 1_455 S
C440 C459 1.429 1_455 S
C440 H464 0.950 . S
C441 C458 1.574 . S
C441 C460 1.368 . S
C441 H465 0.949 . S
H442 C446 0.949 . S
C443 C444 1.354 . S
C443 C445 1.323 1_455 S
C443 H466 0.949 1_455 S
C444 C443 1.354 . S
C444 C456 1.349 . S
C445 C443 1.323 1_655 S
C445 C461 1.429 1_655 S
C445 H467 0.950 . S
C446 H442 0.949 . S
C446 C454 1.574 . S
C446 C462 1.368 . S
H447 C455 0.950 . S
H448 C453 0.950 . S
H449 C454 0.949 . S
H450 C456 0.950 . S
H451 C457 0.950 . S
H452 C458 0.949 . S
C453 H448 0.950 . S
C453 C455 1.327 . S
C453 C459 1.429 . S
C454 C446 1.574 . S
C454 H449 0.949 . S
C454 C460 1.368 1_455 S
C455 C439 1.349 . S
C455 H447 0.950 . S
C455 C453 1.327 . S
C456 C444 1.349 . S
C456 H450 0.950 . S
C456 C457 1.327 . S
C457 H451 0.950 . S
C457 C456 1.327 . S
C457 C461 1.429 . S
C458 C441 1.574 . S
C458 H452 0.949 . S
C458 C462 1.368 1_655 S
C459 C440 1.429 1_655 S
C459 C453 1.429 . S
C459 C460 1.523 . S
C460 C441 1.368 . S
C460 C454 1.368 1_655 S
C460 C459 1.523 . S
C461 C445 1.429 1_455 S
C461 C457 1.429 . S
C461 C462 1.523 . S
C462 C446 1.368 . S
C462 C458 1.368 1_455 S
C462 C461 1.523 . S
H463 C438 0.949 1_455 S
H464 C440 0.950 . S
H465 C441 0.949 . S
H466 C443 0.949 1_655 S
H467 C445 0.950 . S
C468 C469 1.349 . S
C468 C470 1.327 . S
C468 H493 0.950 . S
C469 C468 1.349 . S
C469 C485 1.351 . S
C470 C468 1.327 . S
C470 C489 1.429 . S
C470 H494 0.950 . S
C471 C488 1.574 . S
C471 C490 1.368 1_565 S
C471 H495 0.949 . S
H472 C476 0.949 . S
C473 C474 1.349 . S
C473 C475 1.327 . S
C473 H496 0.950 . S
C474 C473 1.349 . S
C474 C486 1.351 . S
C475 C473 1.327 . S
C475 C491 1.429 . S
C475 H497 0.950 . S
C476 H472 0.949 . S
C476 C484 1.574 . S
C476 C492 1.368 1_545 S
H477 C485 0.945 1_565 S
H478 C483 0.950 . S
H479 C484 0.949 . S
H480 C486 0.945 1_545 S
H481 C487 0.950 . S
H482 C488 0.949 . S
C483 H478 0.950 . S
C483 C485 1.330 1_565 S
C483 C489 1.429 1_565 S
C484 C476 1.574 . S
C484 H479 0.949 . S
C484 C490 1.368 . S
C485 C469 1.351 . S
C485 H477 0.945 1_545 S
C485 C483 1.330 1_545 S
C486 C474 1.351 . S
C486 H480 0.945 1_565 S
C486 C487 1.330 1_565 S
C487 H481 0.950 . S
C487 C486 1.330 1_545 S
C487 C491 1.429 1_545 S
C488 C471 1.574 . S
C488 H482 0.949 . S
C488 C492 1.368 . S
C489 C470 1.429 . S
C489 C483 1.429 1_545 S
C489 C490 1.523 . S
C490 C471 1.368 1_545 S
C490 C484 1.368 . S
C490 C489 1.523 . S
C491 C475 1.429 . S
C491 C487 1.429 1_565 S
C491 C492 1.523 . S
C492 C476 1.368 1_565 S
C492 C488 1.368 . S
C492 C491 1.523 . S
H493 C468 0.950 . S
H494 C470 0.950 . S
H495 C471 0.949 . S
H496 C473 0.950 . S
H497 C475 0.950 . S
C498 C499 1.349 . S
C498 C500 1.327 . S
C498 H523 0.950 1_554 S
C499 C498 1.349 . S
C499 C515 1.349 . S
C500 C498 1.327 . S
C500 C519 1.429 . S
C500 H524 0.950 1_554 S
C501 C518 1.574 . S
C501 C520 1.368 . S
C501 H525 0.949 . S
H502 C506 0.949 1_556 S
C503 C504 1.349 . S
C503 C505 1.327 . S
C503 H526 0.950 . S
C504 C503 1.349 . S
C504 C516 1.349 . S
C505 C503 1.327 . S
C505 C521 1.429 . S
C505 H527 0.950 . S
C506 H502 0.949 1_554 S
C506 C514 1.574 . S
C506 C522 1.368 . S
H507 C515 0.950 . S
H508 C513 0.950 . S
H509 C514 0.949 1_556 S
H510 C516 0.950 1_556 S
H511 C517 0.950 1_556 S
H512 C518 0.949 . S
C513 H508 0.950 . S
C513 C515 1.327 . S
C513 C519 1.429 . S
C514 C506 1.574 . S
C514 H509 0.949 1_554 S
C514 C520 1.368 . S
C515 C499 1.349 . S
C515 H507 0.950 . S
C515 C513 1.327 . S
C516 C504 1.349 . S
C516 H510 0.950 1_554 S
C516 C517 1.327 . S
C517 H511 0.950 1_554 S
C517 C516 1.327 . S
C517 C521 1.429 . S
C518 C501 1.574 . S
C518 H512 0.949 . S
C518 C522 1.368 . S
C519 C500 1.429 . S
C519 C513 1.429 . S
C519 C520 1.523 . S
C520 C501 1.368 . S
C520 C514 1.368 . S
C520 C519 1.523 . S
C521 C505 1.429 . S
C521 C517 1.429 . S
C521 C522 1.523 . S
C522 C506 1.368 . S
C522 C518 1.368 . S
C522 C521 1.523 . S
H523 C498 0.950 1_556 S
H524 C500 0.950 1_556 S
H525 C501 0.949 . S
H526 C503 0.950 . S
H527 C505 0.950 . S
C528 C529 1.349 . S
C528 C530 1.327 . S
C528 H553 0.950 . S
C529 C528 1.349 . S
C529 C545 1.349 . S
C530 C528 1.327 . S
C530 C549 1.429 . S
C530 H554 0.950 . S
C531 C548 1.574 . S
C531 C550 1.368 . S
C531 H555 0.949 . S
H532 C536 0.949 . S
C533 C534 1.349 . S
C533 C535 1.327 . S
C533 H556 0.950 . S
C534 C533 1.349 . S
C534 C546 1.349 . S
C535 C533 1.327 . S
C535 C551 1.429 . S
C535 H557 0.950 . S
C536 H532 0.949 . S
C536 C544 1.574 . S
C536 C552 1.368 . S
H537 C545 0.950 . S
H538 C543 0.950 . S
H539 C544 0.949 . S
H540 C546 0.950 . S
H541 C547 0.950 . S
H542 C548 0.949 . S
C543 H538 0.950 . S
C543 C545 1.327 . S
C543 C549 1.429 . S
C544 C536 1.574 . S
C544 H539 0.949 . S
C544 C550 1.368 . S
C545 C529 1.349 . S
C545 H537 0.950 . S
C545 C543 1.327 . S
C546 C534 1.349 . S
C546 H540 0.950 . S
C546 C547 1.327 . S
C547 H541 0.950 . S
C547 C546 1.327 . S
C547 C551 1.429 . S
C548 C531 1.574 . S
C548 H542 0.949 . S
C548 C552 1.368 . S
C549 C530 1.429 . S
C549 C543 1.429 . S
C549 C550 1.523 . S
C550 C531 1.368 . S
C550 C544 1.368 . S
C550 C549 1.523 . S
C551 C535 1.429 . S
C551 C547 1.429 . S
C551 C552 1.523 . S
C552 C536 1.368 . S
C552 C548 1.368 . S
C552 C551 1.523 . S
H553 C528 0.950 . S
H554 C530 0.950 . S
H555 C531 0.949 . S
H556 C533 0.950 . S
H557 C535 0.950 . S
C558 C559 1.349 . S
C558 C560 1.327 . S
C558 H583 0.950 . S
C559 C558 1.349 . S
C559 C575 1.349 . S
C560 C558 1.327 . S
C560 C579 1.429 . S
C560 H584 0.950 . S
C561 C578 1.574 . S
C561 C580 1.368 . S
C561 H585 0.949 . S
H562 C566 0.949 . S
C563 C564 1.349 . S
C563 C565 1.327 . S
C563 H586 0.950 . S
C564 C563 1.349 . S
C564 C576 1.349 . S
C565 C563 1.327 . S
C565 C581 1.429 . S
C565 H587 0.950 . S
C566 H562 0.949 . S
C566 C574 1.574 . S
C566 C582 1.368 . S
H567 C575 0.950 . S
H568 C573 0.950 . S
H569 C574 0.949 . S
H570 C576 0.950 . S
H571 C577 0.950 . S
H572 C578 0.949 . S
C573 H568 0.950 . S
C573 C575 1.327 . S
C573 C579 1.429 . S
C574 C566 1.574 . S
C574 H569 0.949 . S
C574 C580 1.368 . S
C575 C559 1.349 . S
C575 H567 0.950 . S
C575 C573 1.327 . S
C576 C564 1.349 . S
C576 H570 0.950 . S
C576 C577 1.327 . S
C577 H571 0.950 . S
C577 C576 1.327 . S
C577 C581 1.429 . S
C578 C561 1.574 . S
C578 H572 0.949 . S
C578 C582 1.368 . S
C579 C560 1.429 . S
C579 C573 1.429 . S
C579 C580 1.523 . S
C580 C561 1.368 . S
C580 C574 1.368 . S
C580 C579 1.523 . S
C581 C565 1.429 . S
C581 C577 1.429 . S
C581 C582 1.523 . S
C582 C566 1.368 . S
C582 C578 1.368 . S
C582 C581 1.523 . S
H583 C558 0.950 . S
H584 C560 0.950 . S
H585 C561 0.949 . S
H586 C563 0.950 . S
H587 C565 0.950 . S
C588 C589 1.349 . S
C588 C590 1.327 . S
C588 H613 0.950 . S
C589 C588 1.349 . S
C589 C605 1.349 . S
C590 C588 1.327 . S
C590 C609 1.429 . S
C590 H614 0.950 . S
C591 C608 1.574 . S
C591 C610 1.368 1_556 S
C591 H615 0.949 . S
H592 C596 0.949 . S
C593 C594 1.349 . S
C593 C595 1.327 . S
C593 H616 0.950 . S
C594 C593 1.349 . S
C594 C606 1.349 . S
C595 C593 1.327 . S
C595 C611 1.429 . S
C595 H617 0.950 . S
C596 H592 0.949 . S
C596 C604 1.574 . S
C596 C612 1.368 1_554 S
H597 C605 0.950 . S
H598 C603 0.950 1_556 S
H599 C604 0.949 . S
H600 C606 0.950 . S
H601 C607 0.950 1_554 S
H602 C608 0.949 . S
C603 H598 0.950 1_554 S
C603 C605 1.327 . S
C603 C609 1.429 . S
C604 C596 1.574 . S
C604 H599 0.949 . S
C604 C610 1.368 . S
C605 C589 1.349 . S
C605 H597 0.950 . S
C605 C603 1.327 . S
C606 C594 1.349 . S
C606 H600 0.950 . S
C606 C607 1.327 . S
C607 H601 0.950 1_556 S
C607 C606 1.327 . S
C607 C611 1.429 . S
C608 C591 1.574 . S
C608 H602 0.949 . S
C608 C612 1.368 . S
C609 C590 1.429 . S
C609 C603 1.429 . S
C609 C610 1.523 . S
C610 C591 1.368 1_554 S
C610 C604 1.368 . S
C610 C609 1.523 . S
C611 C595 1.429 . S
C611 C607 1.429 . S
C611 C612 1.523 . S
C612 C596 1.368 1_556 S
C612 C608 1.368 . S
C612 C611 1.523 . S
H613 C588 0.950 . S
H614 C590 0.950 . S
H615 C591 0.949 . S
H616 C593 0.950 . S
H617 C595 0.950 . S
C618 C619 1.349 . S
C618 C620 1.327 . S
C618 H643 0.950 . S
C619 C618 1.349 . S
C619 C635 1.349 . S
C620 C618 1.327 . S
C620 C639 1.429 . S
C620 H644 0.950 . S
C621 C638 1.574 . S
C621 C640 1.368 . S
C621 H645 0.949 . S
H622 C626 0.949 . S
C623 C624 1.349 . S
C623 C625 1.327 . S
C623 H646 0.950 . S
C624 C623 1.349 . S
C624 C636 1.349 . S
C625 C623 1.327 . S
C625 C641 1.429 . S
C625 H647 0.950 . S
C626 H622 0.949 . S
C626 C634 1.574 . S
C626 C642 1.368 . S
H627 C635 0.950 . S
H628 C633 0.950 . S
H629 C634 0.949 . S
H630 C636 0.950 . S
H631 C637 0.950 . S
H632 C638 0.949 . S
C633 H628 0.950 . S
C633 C635 1.327 . S
C633 C639 1.429 . S
C634 C626 1.574 . S
C634 H629 0.949 . S
C634 C640 1.368 . S
C635 C619 1.349 . S
C635 H627 0.950 . S
C635 C633 1.327 . S
C636 C624 1.349 . S
C636 H630 0.950 . S
C636 C637 1.327 . S
C637 H631 0.950 . S
C637 C636 1.327 . S
C637 C641 1.429 . S
C638 C621 1.574 . S
C638 H632 0.949 . S
C638 C642 1.368 . S
C639 C620 1.429 . S
C639 C633 1.429 . S
C639 C640 1.523 . S
C640 C621 1.368 . S
C640 C634 1.368 . S
C640 C639 1.523 . S
C641 C625 1.429 . S
C641 C637 1.429 . S
C641 C642 1.523 . S
C642 C626 1.368 . S
C642 C638 1.368 . S
C642 C641 1.523 . S
H643 C618 0.950 . S
H644 C620 0.950 . S
H645 C621 0.949 . S
H646 C623 0.950 . S
H647 C625 0.950 . S
C648 C649 1.349 . S
C648 C650 1.327 . S
C648 H673 0.950 . S
C649 C648 1.349 . S
C649 C665 1.349 . S
C650 C648 1.327 . S
C650 C669 1.429 . S
C650 H674 0.950 . S
C651 C668 1.574 . S
C651 C670 1.368 . S
C651 H675 0.949 . S
H652 C656 0.949 . S
C653 C654 1.349 . S
C653 C655 1.327 . S
C653 H676 0.950 . S
C654 C653 1.349 . S
C654 C666 1.349 . S
C655 C653 1.327 . S
C655 C671 1.429 . S
C655 H677 0.950 . S
C656 H652 0.949 . S
C656 C664 1.574 . S
C656 C672 1.368 . S
H657 C665 0.950 . S
H658 C663 0.950 . S
H659 C664 0.949 . S
H660 C666 0.950 . S
H661 C667 0.950 . S
H662 C668 0.949 . S
C663 H658 0.950 . S
C663 C665 1.327 . S
C663 C669 1.429 . S
C664 C656 1.574 . S
C664 H659 0.949 . S
C664 C670 1.368 . S
C665 C649 1.349 . S
C665 H657 0.950 . S
C665 C663 1.327 . S
C666 C654 1.349 . S
C666 H660 0.950 . S
C666 C667 1.327 . S
C667 H661 0.950 . S
C667 C666 1.327 . S
C667 C671 1.429 . S
C668 C651 1.574 . S
C668 H662 0.949 . S
C668 C672 1.368 . S
C669 C650 1.429 . S
C669 C663 1.429 . S
C669 C670 1.523 . S
C670 C651 1.368 . S
C670 C664 1.368 . S
C670 C669 1.523 . S
C671 C655 1.429 . S
C671 C667 1.429 . S
C671 C672 1.523 . S
C672 C656 1.368 . S
C672 C668 1.368 . S
C672 C671 1.523 . S
H673 C648 0.950 . S
H674 C650 0.950 . S
H675 C651 0.949 . S
H676 C653 0.950 . S
H677 C655 0.950 . S
C678 C679 1.349 . S
C678 C680 1.327 . S
C678 H703 0.950 . S
C679 C678 1.349 . S
C679 C695 1.349 . S
C680 C678 1.327 . S
C680 C699 1.429 . S
C680 H704 0.950 1_554 S
C681 C698 1.574 . S
C681 C700 1.368 . S
C681 H705 0.949 . S
H682 C686 0.949 . S
C683 C684 1.349 . S
C683 C685 1.327 . S
C683 H706 0.950 . S
C684 C683 1.349 . S
C684 C696 1.349 . S
C685 C683 1.327 . S
C685 C701 1.429 . S
C685 H707 0.950 1_556 S
C686 H682 0.949 . S
C686 C694 1.574 . S
C686 C702 1.368 . S
H687 C695 0.950 . S
H688 C693 0.950 . S
H689 C694 0.949 . S
H690 C696 0.950 . S
H691 C697 0.950 . S
H692 C698 0.949 . S
C693 H688 0.950 . S
C693 C695 1.327 . S
C693 C699 1.429 . S
C694 C686 1.574 . S
C694 H689 0.949 . S
C694 C700 1.368 1_556 S
C695 C679 1.349 . S
C695 H687 0.950 . S
C695 C693 1.327 . S
C696 C684 1.349 . S
C696 H690 0.950 . S
C696 C697 1.327 . S
C697 H691 0.950 . S
C697 C696 1.327 . S
C697 C701 1.429 . S
C698 C681 1.574 . S
C698 H692 0.949 . S
C698 C702 1.368 1_554 S
C699 C680 1.429 . S
C699 C693 1.429 . S
C699 C700 1.523 . S
C700 C681 1.368 . S
C700 C694 1.368 1_554 S
C700 C699 1.523 . S
C701 C685 1.429 . S
C701 C697 1.429 . S
C701 C702 1.523 . S
C702 C686 1.368 . S
C702 C698 1.368 1_556 S
C702 C701 1.523 . S
H703 C678 0.950 . S
H704 C680 0.950 1_556 S
H705 C681 0.949 . S
H706 C683 0.950 . S
H707 C685 0.950 1_554 S
C708 C709 1.349 1_565 S
C708 C710 1.327 . S
C708 H733 0.950 . S
C709 C708 1.349 1_545 S
C709 C725 1.349 . S
C710 C708 1.327 . S
C710 C729 1.429 1_565 S
C710 H734 0.950 . S
C711 C728 1.574 . S
C711 C730 1.368 . S
C711 H735 0.949 . S
H712 C716 0.949 . S
C713 C714 1.349 1_545 S
C713 C715 1.327 . S
C713 H736 0.950 . S
C714 C713 1.349 1_565 S
C714 C726 1.349 . S
C715 C713 1.327 . S
C715 C731 1.429 1_545 S
C715 H737 0.950 . S
C716 H712 0.949 . S
C716 C724 1.574 . S
C716 C732 1.368 . S
H717 C725 0.950 . S
H718 C723 0.950 . S
H719 C724 0.949 . S
H720 C726 0.950 . S
H721 C727 0.950 . S
H722 C728 0.949 . S
C723 H718 0.950 . S
C723 C725 1.327 . S
C723 C729 1.429 . S
C724 C716 1.574 . S
C724 H719 0.949 . S
C724 C730 1.368 1_565 S
C725 C709 1.349 . S
C725 H717 0.950 . S
C725 C723 1.327 . S
C726 C714 1.349 . S
C726 H720 0.950 . S
C726 C727 1.327 . S
C727 H721 0.950 . S
C727 C726 1.327 . S
C727 C731 1.429 . S
C728 C711 1.574 . S
C728 H722 0.949 . S
C728 C732 1.368 1_545 S
C729 C710 1.429 1_545 S
C729 C723 1.429 . S
C729 C730 1.523 . S
C730 C711 1.368 . S
C730 C724 1.368 1_545 S
C730 C729 1.523 . S
C731 C715 1.429 1_565 S
C731 C727 1.429 . S
C731 C732 1.523 . S
C732 C716 1.368 . S
C732 C728 1.368 1_565 S
C732 C731 1.523 . S
H733 C708 0.950 . S
H734 C710 0.950 . S
H735 C711 0.949 . S
H736 C713 0.950 . S
H737 C715 0.950 . S
C738 C739 1.349 . S
C738 C740 1.327 . S
C738 H763 0.950 . S
C739 C738 1.349 . S
C739 C755 1.349 . S
C740 C738 1.327 . S
C740 C759 1.429 . S
C740 H764 0.950 . S
C741 C758 1.574 . S
C741 C760 1.368 . S
C741 H765 0.949 . S
H742 C746 0.949 . S
C743 C744 1.349 . S
C743 C745 1.327 . S
C743 H766 0.950 . S
C744 C743 1.349 . S
C744 C756 1.349 . S
C745 C743 1.327 . S
C745 C761 1.429 . S
C745 H767 0.950 . S
C746 H742 0.949 . S
C746 C754 1.574 . S
C746 C762 1.368 . S
H747 C755 0.950 . S
H748 C753 0.950 . S
H749 C754 0.949 . S
H750 C756 0.950 . S
H751 C757 0.950 . S
H752 C758 0.949 . S
C753 H748 0.950 . S
C753 C755 1.327 . S
C753 C759 1.429 . S
C754 C746 1.574 . S
C754 H749 0.949 . S
C754 C760 1.368 . S
C755 C739 1.349 . S
C755 H747 0.950 . S
C755 C753 1.327 . S
C756 C744 1.349 . S
C756 H750 0.950 . S
C756 C757 1.327 . S
C757 H751 0.950 . S
C757 C756 1.327 . S
C757 C761 1.429 . S
C758 C741 1.574 . S
C758 H752 0.949 . S
C758 C762 1.368 . S
C759 C740 1.429 . S
C759 C753 1.429 . S
C759 C760 1.523 . S
C760 C741 1.368 . S
C760 C754 1.368 . S
C760 C759 1.523 . S
C761 C745 1.429 . S
C761 C757 1.429 . S
C761 C762 1.523 . S
C762 C746 1.368 . S
C762 C758 1.368 . S
C762 C761 1.523 . S
H763 C738 0.950 . S
H764 C740 0.950 . S
H765 C741 0.949 . S
H766 C743 0.950 . S
H767 C745 0.950 . S
C768 C769 1.349 1_655 S
C768 C770 1.327 . S
C768 H793 0.950 . S
C769 C768 1.349 1_455 S
C769 C785 1.349 . S
C770 C768 1.327 . S
C770 C789 1.429 1_655 S
C770 H794 0.950 . S
C771 C788 1.574 . S
C771 C790 1.368 . S
C771 H795 0.949 . S
H772 C776 0.949 . S
C773 C774 1.349 1_455 S
C773 C775 1.327 . S
C773 H796 0.950 . S
C774 C773 1.349 1_655 S
C774 C786 1.349 . S
C775 C773 1.327 . S
C775 C791 1.429 1_455 S
C775 H797 0.950 . S
C776 H772 0.949 . S
C776 C784 1.574 . S
C776 C792 1.368 . S
H777 C785 0.950 . S
H778 C783 0.950 . S
H779 C784 0.949 . S
H780 C786 0.950 . S
H781 C787 0.950 . S
H782 C788 0.949 . S
C783 H778 0.950 . S
C783 C785 1.327 . S
C783 C789 1.429 . S
C784 C776 1.574 . S
C784 H779 0.949 . S
C784 C790 1.368 1_655 S
C785 C769 1.349 . S
C785 H777 0.950 . S
C785 C783 1.327 . S
C786 C774 1.349 . S
C786 H780 0.950 . S
C786 C787 1.327 . S
C787 H781 0.950 . S
C787 C786 1.327 . S
C787 C791 1.429 . S
C788 C771 1.574 . S
C788 H782 0.949 . S
C788 C792 1.368 1_455 S
C789 C770 1.429 1_455 S
C789 C783 1.429 . S
C789 C790 1.523 . S
C790 C771 1.368 . S
C790 C784 1.368 1_455 S
C790 C789 1.523 . S
C791 C775 1.429 1_655 S
C791 C787 1.429 . S
C791 C792 1.523 . S
C792 C776 1.368 . S
C792 C788 1.368 1_655 S
C792 C791 1.523 . S
H793 C768 0.950 . S
H794 C770 0.950 . S
H795 C771 0.949 . S
H796 C773 0.950 . S
H797 C775 0.950 . S
C798 C799 1.349 1_545 S
C798 C800 1.327 . S
C798 H823 0.950 . S
C799 C798 1.349 1_565 S
C799 C815 1.349 . S
C800 C798 1.327 . S
C800 C819 1.429 1_545 S
C800 H824 0.950 . S
C801 C818 1.574 . S
C801 C820 1.368 . S
C801 H825 0.949 . S
H802 C806 0.949 . S
C803 C804 1.349 1_565 S
C803 C805 1.327 . S
C803 H826 0.950 . S
C804 C803 1.349 1_545 S
C804 C816 1.349 . S
C805 C803 1.327 . S
C805 C821 1.429 1_565 S
C805 H827 0.950 . S
C806 H802 0.949 . S
C806 C814 1.574 . S
C806 C822 1.368 . S
H807 C815 0.950 . S
H808 C813 0.950 . S
H809 C814 0.949 . S
H810 C816 0.950 . S
H811 C817 0.950 . S
H812 C818 0.949 . S
C813 H808 0.950 . S
C813 C815 1.327 . S
C813 C819 1.429 . S
C814 C806 1.574 . S
C814 H809 0.949 . S
C814 C820 1.368 1_545 S
C815 C799 1.349 . S
C815 H807 0.950 . S
C815 C813 1.327 . S
C816 C804 1.349 . S
C816 H810 0.950 . S
C816 C817 1.327 . S
C817 H811 0.950 . S
C817 C816 1.327 . S
C817 C821 1.429 . S
C818 C801 1.574 . S
C818 H812 0.949 . S
C818 C822 1.368 1_565 S
C819 C800 1.429 1_565 S
C819 C813 1.429 . S
C819 C820 1.523 . S
C820 C801 1.368 . S
C820 C814 1.368 1_565 S
C820 C819 1.523 . S
C821 C805 1.429 1_545 S
C821 C817 1.429 . S
C821 C822 1.523 . S
C822 C806 1.368 . S
C822 C818 1.368 1_545 S
C822 C821 1.523 . S
H823 C798 0.950 . S
H824 C800 0.950 . S
H825 C801 0.949 . S
H826 C803 0.950 . S
H827 C805 0.950 . S
C828 C829 1.349 . S
C828 C830 1.327 . S
C828 H853 0.950 . S
C829 C828 1.349 . S
C829 C845 1.349 . S
C830 C828 1.327 . S
C830 C849 1.429 . S
C830 H854 0.950 . S
C831 C848 1.574 . S
C831 C850 1.368 . S
C831 H855 0.949 . S
H832 C836 0.949 . S
C833 C834 1.349 . S
C833 C835 1.327 . S
C833 H856 0.950 . S
C834 C833 1.349 . S
C834 C846 1.349 . S
C835 C833 1.327 . S
C835 C851 1.429 . S
C835 H857 0.950 . S
C836 H832 0.949 . S
C836 C844 1.574 . S
C836 C852 1.368 . S
H837 C845 0.950 . S
H838 C843 0.950 . S
H839 C844 0.949 . S
H840 C846 0.950 . S
H841 C847 0.950 . S
H842 C848 0.949 . S
C843 H838 0.950 . S
C843 C845 1.327 . S
C843 C849 1.429 . S
C844 C836 1.574 . S
C844 H839 0.949 . S
C844 C850 1.368 . S
C845 C829 1.349 . S
C845 H837 0.950 . S
C845 C843 1.327 . S
C846 C834 1.349 . S
C846 H840 0.950 . S
C846 C847 1.327 . S
C847 H841 0.950 . S
C847 C846 1.327 . S
C847 C851 1.429 . S
C848 C831 1.574 . S
C848 H842 0.949 . S
C848 C852 1.368 . S
C849 C830 1.429 . S
C849 C843 1.429 . S
C849 C850 1.523 . S
C850 C831 1.368 . S
C850 C844 1.368 . S
C850 C849 1.523 . S
C851 C835 1.429 . S
C851 C847 1.429 . S
C851 C852 1.523 . S
C852 C836 1.368 . S
C852 C848 1.368 . S
C852 C851 1.523 . S
H853 C828 0.950 . S
H854 C830 0.950 . S
H855 C831 0.949 . S
H856 C833 0.950 . S
H857 C835 0.950 . S
C858 C859 1.349 1_455 S
C858 C860 1.327 . S
C858 H883 0.950 . S
C859 C858 1.349 1_655 S
C859 C875 1.349 . S
C860 C858 1.327 . S
C860 C879 1.429 1_455 S
C860 H884 0.950 . S
C861 C878 1.574 . S
C861 C880 1.368 . S
C861 H885 0.949 . S
H862 C866 0.949 . S
C863 C864 1.349 1_655 S
C863 C865 1.327 . S
C863 H886 0.950 . S
C864 C863 1.349 1_455 S
C864 C876 1.349 . S
C865 C863 1.327 . S
C865 C881 1.429 1_655 S
C865 H887 0.950 . S
C866 H862 0.949 . S
C866 C874 1.574 . S
C866 C882 1.368 . S
H867 C875 0.950 . S
H868 C873 0.950 . S
H869 C874 0.949 . S
H870 C876 0.950 . S
H871 C877 0.950 . S
H872 C878 0.949 . S
C873 H868 0.950 . S
C873 C875 1.327 . S
C873 C879 1.429 . S
C874 C866 1.574 . S
C874 H869 0.949 . S
C874 C880 1.368 1_455 S
C875 C859 1.349 . S
C875 H867 0.950 . S
C875 C873 1.327 . S
C876 C864 1.349 . S
C876 H870 0.950 . S
C876 C877 1.327 . S
C877 H871 0.950 . S
C877 C876 1.327 . S
C877 C881 1.429 . S
C878 C861 1.574 . S
C878 H872 0.949 . S
C878 C882 1.368 1_655 S
C879 C860 1.429 1_655 S
C879 C873 1.429 . S
C879 C880 1.523 . S
C880 C861 1.368 . S
C880 C874 1.368 1_655 S
C880 C879 1.523 . S
C881 C865 1.429 1_455 S
C881 C877 1.429 . S
C881 C882 1.523 . S
C882 C866 1.368 . S
C882 C878 1.368 1_455 S
C882 C881 1.523 . S
H883 C858 0.950 . S
H884 C860 0.950 . S
H885 C861 0.949 . S
H886 C863 0.950 . S
H887 C865 0.950 . S
C169 C11 1.876 . S
C174 C123 1.876 . S
C199 C25 1.876 . S
C204 C137 1.876 . S
C229 C151 1.876 . S
C234 C39 1.876 . S
C259 C165 1.876 . S
C264 C53 1.876 . S
C289 C95 1.876 . S
C294 C67 1.876 . S
C319 C109 1.876 . S
C324 C81 1.876 . S
C349 C9 1.592 . S
C354 C51 1.592 . S
C379 C65 1.592 . S
C384 C23 1.592 . S
C409 C79 1.592 . S
C414 C37 1.592 . S
C439 C93 1.592 . S
C444 C135 1.592 . S
C469 C149 1.592 . S
C474 C107 1.592 . S
C499 C121 1.592 . S
C504 C163 1.592 . S
C529 C84 0.686 . S
C534 C0 0.686 . S
C559 C14 0.686 . S
C564 C98 0.686 . S
C589 C112 0.686 . S
C594 C28 0.686 . S
C619 C126 0.686 . S
C624 C42 0.686 . S
C649 C56 0.686 . S
C654 C140 0.686 . S
C679 C154 0.686 . S
C684 C70 0.686 . S
C709 C5 0.901 . S
C714 C103 0.901 . S
C739 C117 0.901 . S
C744 C19 0.901 . S
C769 C131 0.901 . S
C774 C33 0.901 . S
C799 C47 0.901 . S
C804 C145 0.901 . S
C829 C159 0.901 . S
C834 C61 0.901 . S
C859 C89 0.901 . S
C864 C75 0.901 . S
