# Generated by pormake.
# Topology smw, (6)-cn, num edge types: 1
# Building blocks:
#     Node 0, Type 0, BuildingBlock: IZENUY_clean_sbu_0, # of connection points: 6
#     Node 1, Type 0, BuildingBlock: IZENUY_clean_sbu_0, # of connection points: 6
#     Node 2, Type 0, BuildingBlock: IZENUY_clean_sbu_0, # of connection points: 6
#     Node 3, Type 0, BuildingBlock: IZENUY_clean_sbu_0, # of connection points: 6
#     Node 4, Type 0, BuildingBlock: IZENUY_clean_sbu_0, # of connection points: 6
#     Node 5, Type 0, BuildingBlock: IZENUY_clean_sbu_0, # of connection points: 6
#     Node 6, Type 0, BuildingBlock: IZENUY_clean_sbu_0, # of connection points: 6
#     Node 7, Type 0, BuildingBlock: IZENUY_clean_sbu_0, # of connection points: 6
#     Node 8, Type 0, BuildingBlock: IZENUY_clean_sbu_0, # of connection points: 6
#     Node 9, Type 0, BuildingBlock: IZENUY_clean_sbu_0, # of connection points: 6
#     Node 10, Type 0, BuildingBlock: IZENUY_clean_sbu_0, # of connection points: 6
#     Node 11, Type 0, BuildingBlock: IZENUY_clean_sbu_0, # of connection points: 6
#     Edge 12, Type (0, 0), BuildingBlock: XUDNAN_clean_linker_2, # of connection points: 2
#     Edge 13, Type (0, 0), BuildingBlock: XUDNAN_clean_linker_2, # of connection points: 2
#     Edge 14, Type (0, 0), BuildingBlock: XUDNAN_clean_linker_2, # of connection points: 2
#     Edge 15, Type (0, 0), BuildingBlock: XUDNAN_clean_linker_2, # of connection points: 2
#     Edge 16, Type (0, 0), BuildingBlock: XUDNAN_clean_linker_2, # of connection points: 2
#     Edge 17, Type (0, 0), BuildingBlock: XUDNAN_clean_linker_2, # of connection points: 2
#     Edge 18, Type (0, 0), BuildingBlock: XUDNAN_clean_linker_2, # of connection points: 2
#     Edge 19, Type (0, 0), BuildingBlock: XUDNAN_clean_linker_2, # of connection points: 2
#     Edge 20, Type (0, 0), BuildingBlock: XUDNAN_clean_linker_2, # of connection points: 2
#     Edge 21, Type (0, 0), BuildingBlock: XUDNAN_clean_linker_2, # of connection points: 2
#     Edge 22, Type (0, 0), BuildingBlock: XUDNAN_clean_linker_2, # of connection points: 2
#     Edge 23, Type (0, 0), BuildingBlock: XUDNAN_clean_linker_2, # of connection points: 2
#     Edge 24, Type (0, 0), BuildingBlock: XUDNAN_clean_linker_2, # of connection points: 2
#     Edge 25, Type (0, 0), BuildingBlock: XUDNAN_clean_linker_2, # of connection points: 2
#     Edge 26, Type (0, 0), BuildingBlock: XUDNAN_clean_linker_2, # of connection points: 2
#     Edge 27, Type (0, 0), BuildingBlock: XUDNAN_clean_linker_2, # of connection points: 2
#     Edge 28, Type (0, 0), BuildingBlock: XUDNAN_clean_linker_2, # of connection points: 2
#     Edge 29, Type (0, 0), BuildingBlock: XUDNAN_clean_linker_2, # of connection points: 2
#     Edge 30, Type (0, 0), BuildingBlock: XUDNAN_clean_linker_2, # of connection points: 2
#     Edge 31, Type (0, 0), BuildingBlock: XUDNAN_clean_linker_2, # of connection points: 2
#     Edge 32, Type (0, 0), BuildingBlock: XUDNAN_clean_linker_2, # of connection points: 2
#     Edge 33, Type (0, 0), BuildingBlock: XUDNAN_clean_linker_2, # of connection points: 2
#     Edge 34, Type (0, 0), BuildingBlock: XUDNAN_clean_linker_2, # of connection points: 2
#     Edge 35, Type (0, 0), BuildingBlock: XUDNAN_clean_linker_2, # of connection points: 2
#     Edge 36, Type (0, 0), BuildingBlock: XUDNAN_clean_linker_2, # of connection points: 2
#     Edge 37, Type (0, 0), BuildingBlock: XUDNAN_clean_linker_2, # of connection points: 2
#     Edge 38, Type (0, 0), BuildingBlock: XUDNAN_clean_linker_2, # of connection points: 2
#     Edge 39, Type (0, 0), BuildingBlock: XUDNAN_clean_linker_2, # of connection points: 2
#     Edge 40, Type (0, 0), BuildingBlock: XUDNAN_clean_linker_2, # of connection points: 2
#     Edge 41, Type (0, 0), BuildingBlock: XUDNAN_clean_linker_2, # of connection points: 2
#     Edge 42, Type (0, 0), BuildingBlock: XUDNAN_clean_linker_2, # of connection points: 2
#     Edge 43, Type (0, 0), BuildingBlock: XUDNAN_clean_linker_2, # of connection points: 2
#     Edge 44, Type (0, 0), BuildingBlock: XUDNAN_clean_linker_2, # of connection points: 2
#     Edge 45, Type (0, 0), BuildingBlock: XUDNAN_clean_linker_2, # of connection points: 2
#     Edge 46, Type (0, 0), BuildingBlock: XUDNAN_clean_linker_2, # of connection points: 2
#     Edge 47, Type (0, 0), BuildingBlock: XUDNAN_clean_linker_2, # of connection points: 2
# Relax obj value: 0.142
# Max RMSD: 0.113
# Mean RMSD: 0.113
data_MOF--net-smw--node1-IZENUY_clean_sbu_0--edge1-XUDNAN_clean_linker_2
_symmetry_space_group_name_H-M    P1
_symmetry_Int_Tables_number       1
_symmetry_cell_setting            triclinic
loop_
_symmetry_equiv_pos_as_xyz
'x, y, z'
_cell_length_a     56.922653
_cell_length_b     56.928824
_cell_length_c     19.96415
_cell_angle_alpha  89.909889
_cell_angle_beta   90.10457
_cell_angle_gamma 119.96631
loop_
_atom_site_label
_atom_site_type_symbol
_atom_site_fract_x
_atom_site_fract_y
_atom_site_fract_z
_atom_type_partial_charge
Fe0 Fe 0.49266 0.16333 0.00395 0.0
Fe1 Fe 0.47517 0.10258 0.00595 0.0
O2 O 0.4666 0.12867 0.00443 0.0
Fe3 Fe 0.43197 0.12006 1.00334 0.0
O4 O 0.43612 0.13795 0.92496 0.0
O5 O 0.4739 0.1751 0.95173 0.0
O6 O 0.50718 0.15915 0.92724 0.0
C7 C 0.51464 0.14192 0.9184 0.0
C8 C 0.45642 0.16574 0.08984 0.0
O9 O 0.50617 0.12133 0.95596 0.0
C10 C 0.42937 0.08212 0.09251 0.0
O11 O 0.51624 0.15797 0.0558 0.0
O12 O 0.49363 0.11487 0.08391 0.0
O13 O 0.43723 0.14945 0.05237 0.0
O14 O 0.48029 0.17037 0.08083 0.0
C15 C 0.43274 0.08062 0.9178 0.0
O16 O 0.44576 0.07887 0.05628 0.0
O17 O 0.42491 0.1014 0.08167 0.0
C18 C 0.51291 0.13864 0.09355 0.0
O19 O 0.45737 0.08822 0.92807 0.0
O20 O 0.42032 0.08906 0.95414 0.0
C21 C 0.45324 0.16258 0.91452 0.0
Fe22 Fe 0.33849 0.49171 0.00826 0.0
Fe23 Fe 0.37641 0.46848 0.01475 0.0
O24 O 0.34319 0.46331 0.00817 0.0
Fe25 Fe 0.31447 0.43009 1.00199 0.0
O26 O 0.29506 0.44064 0.94644 0.0
O27 O 0.32448 0.48351 0.92472 0.0
O28 O 0.37106 0.51518 0.971 0.0
C29 C 0.38701 0.51136 0.9351 0.0
C30 C 0.29556 0.45462 0.08675 0.0
O31 O 0.3878 0.48971 0.94012 0.0
C32 C 0.349 0.42377 0.09498 0.0
O33 O 0.35265 0.50137 0.09202 0.0
O34 O 0.38876 0.49797 0.07074 0.0
O35 O 0.29965 0.43498 0.07859 0.0
O36 O 0.3049 0.47391 0.04546 0.0
C37 C 0.35093 0.42578 0.91973 0.0
O38 O 0.36781 0.44798 0.08939 0.0
O39 O 0.32903 0.41384 0.05485 0.0
C40 C 0.37621 0.50623 0.10755 0.0
O41 O 0.36977 0.43986 0.96076 0.0
O42 O 0.3275 0.42285 0.92627 0.0
C43 C 0.30367 0.46144 0.90886 0.0
Fe44 Fe 0.90061 0.30955 0.00698 0.0
Fe45 Fe 0.85727 0.32693 1.00188 0.0
O46 O 0.89191 0.33556 0.00507 0.0
Fe47 Fe 0.91779 0.37025 0.00633 0.0
O48 O 0.93287 0.36642 0.93055 0.0
O49 O 0.93198 0.32863 0.9588 0.0
O50 O 0.88323 0.2952 0.92811 0.0
C51 C 0.85873 0.28789 0.91608 0.0
C52 C 0.9376 0.34557 0.09719 0.0
O53 O 0.84602 0.29619 0.9518 0.0
C54 C 0.88073 0.37185 0.09032 0.0
O55 O 0.87082 0.28575 0.05558 0.0
O56 O 0.84968 0.3081 0.0798 0.0
O57 O 0.94106 0.36497 0.05964 0.0
O58 O 0.91876 0.32165 0.086 0.0
C59 C 0.87923 0.3698 0.91454 0.0
O60 O 0.86197 0.35603 0.05126 0.0
O61 O 0.90469 0.37668 0.08247 0.0
C62 C 0.85416 0.28888 0.09098 0.0
O63 O 0.86211 0.34511 0.92381 0.0
O64 O 0.89943 0.3822 0.95319 0.0
C65 C 0.94074 0.34949 0.92222 0.0
Fe66 Fe 0.54325 0.90908 1.00226 0.0
Fe67 Fe 0.58436 0.88914 0.01305 0.0
O68 O 0.5503 0.88212 0.00545 0.0
Fe69 Fe 0.52318 0.8482 1.00096 0.0
O70 O 0.51246 0.85366 0.92001 0.0
O71 O 0.51349 0.89154 0.94688 0.0
O72 O 0.56325 0.92247 0.92777 0.0
C73 C 0.58798 0.92969 0.92294 0.0
C74 C 0.50191 0.87429 0.08232 0.0
O75 O 0.59897 0.92081 0.96343 0.0
C76 C 0.55438 0.84219 0.09492 0.0
O77 O 0.57164 0.93189 0.05678 0.0
O78 O 0.58938 0.90741 0.09112 0.0
O79 O 0.49854 0.85482 0.04511 0.0
O80 O 0.52268 0.89733 0.07668 0.0
C81 C 0.56467 0.84731 0.92286 0.0
O82 O 0.57573 0.85851 0.0633 0.0
O83 O 0.53195 0.8404 0.08132 0.0
C84 C 0.58598 0.92755 0.09801 0.0
O85 O 0.58213 0.87158 0.9356 0.0
O86 O 0.54267 0.83529 0.95562 0.0
C87 C 0.50579 0.87129 0.90847 0.0
Fe88 Fe 0.64091 0.54396 0.99272 0.0
Fe89 Fe 0.702 0.58345 0.0085 0.0
O90 O 0.67427 0.54964 1.0028 0.0
Fe91 Fe 0.67976 0.5216 0.00691 0.0
O92 O 0.65261 0.50072 0.94835 0.0
O93 O 0.63665 0.5267 0.91317 0.0
O94 O 0.65102 0.57491 0.94555 0.0
C95 C 0.67166 0.58946 0.91025 0.0
C96 C 0.63256 0.5007 0.07872 0.0
O97 O 0.69451 0.5924 0.92602 0.0
C98 C 0.71525 0.55755 0.1051 0.0
O99 O 0.64288 0.5608 0.0716 0.0
O100 O 0.68255 0.59674 0.05116 0.0
O101 O 0.65715 0.50675 0.07921 0.0
O102 O 0.62431 0.5118 0.03749 0.0
C103 C 0.72336 0.55696 0.92994 0.0
O104 O 0.71147 0.57706 0.09107 0.0
O105 O 0.70782 0.53763 0.06604 0.0
C106 C 0.66055 0.58511 0.08386 0.0
O107 O 0.72644 0.57625 0.96721 0.0
O108 O 0.70254 0.53377 0.93508 0.0
C109 C 0.63972 0.50635 0.90563 0.0
Fe110 Fe 0.09688 0.64092 0.99205 0.0
Fe111 Fe 0.11699 0.70171 0.99774 0.0
O112 O 0.12404 0.67463 1.00046 0.0
Fe113 Fe 0.15773 0.6809 0.01158 0.0
O114 O 0.15657 0.66325 0.93508 0.0
O115 O 0.11666 0.62755 0.95158 0.0
O116 O 0.08898 0.64784 0.90957 0.0
C117 C 0.08214 0.66534 0.89801 0.0
C118 C 0.1253 0.63528 0.09497 0.0
O119 O 0.08838 0.68471 0.93862 0.0
C120 C 0.15888 0.71947 0.09581 0.0
O121 O 0.07143 0.64708 0.03185 0.0
O122 O 0.09458 0.68864 0.07025 0.0
O123 O 0.14749 0.65037 0.06448 0.0
O124 O 0.10324 0.63244 0.07366 0.0
C125 C 0.16336 0.72261 0.92143 0.0
O126 O 0.14433 0.72378 0.0553 0.0
O127 O 0.16222 0.69935 0.08877 0.0
C128 C 0.07431 0.66501 0.07361 0.0
O129 O 0.13886 0.71667 0.92593 0.0
O130 O 0.17339 0.71234 0.96088 0.0
C131 C 0.139 0.63926 0.92086 0.0
Fe132 Fe 0.88924 0.57816 0.49523 0.0
Fe133 Fe 0.84992 0.5167 0.50768 0.0
O134 O 0.88343 0.54443 0.50014 0.0
Fe135 Fe 0.91117 0.53841 0.49806 0.0
O136 O 0.92583 0.55864 0.57214 0.0
O137 O 0.92179 0.59345 0.54021 0.0
O138 O 0.87311 0.575 0.5758 0.0
C139 C 0.84941 0.55678 0.59135 0.0
C140 C 0.92647 0.58128 0.40358 0.0
O141 O 0.83722 0.53507 0.55777 0.0
C142 C 0.87516 0.49713 0.4186 0.0
O143 O 0.85752 0.56898 0.44973 0.0
O144 O 0.83969 0.52536 0.43033 0.0
O145 O 0.93212 0.56713 0.44231 0.0
O146 O 0.90611 0.58403 0.41451 0.0
C147 C 0.87572 0.49965 0.59357 0.0
O148 O 0.85636 0.49317 0.4589 0.0
O149 O 0.89838 0.51777 0.42367 0.0
C150 C 0.84081 0.54764 0.41886 0.0
O151 O 0.85749 0.5058 0.58587 0.0
O152 O 0.89554 0.50842 0.55339 0.0
C153 C 0.93214 0.58313 0.57802 0.0
Fe154 Fe 0.3148 0.89334 0.50507 0.0
Fe155 Fe 0.33247 0.85013 0.49719 0.0
O156 O 0.34071 0.88469 0.50107 0.0
Fe157 Fe 0.37516 0.91094 0.50046 0.0
O158 O 0.37201 0.9232 0.58159 0.0
O159 O 0.33452 0.92358 0.55714 0.0
O160 O 0.30147 0.87433 0.58196 0.0
C161 C 0.29433 0.84968 0.59094 0.0
C162 C 0.34997 0.93248 0.41845 0.0
O163 O 0.30251 0.83755 0.55228 0.0
C164 C 0.37539 0.87705 0.40393 0.0
O165 O 0.29032 0.86464 0.45442 0.0
O166 O 0.31211 0.84382 0.42222 0.0
O167 O 0.36914 0.93569 0.45639 0.0
O168 O 0.32619 0.91308 0.42788 0.0
C169 C 0.37659 0.87057 0.58043 0.0
O170 O 0.36106 0.85675 0.44121 0.0
O171 O 0.38014 0.90044 0.41934 0.0
C172 C 0.29272 0.84838 0.41575 0.0
O173 O 0.35195 0.85331 0.5719 0.0
O174 O 0.38824 0.89145 0.54396 0.0
C175 C 0.35515 0.93084 0.5941 0.0
Fe176 Fe 0.48778 0.33229 0.50147 0.0
Fe177 Fe 0.46712 0.37289 0.50476 0.0
O178 O 0.46042 0.33897 0.50409 0.0
Fe179 Fe 0.42634 0.31194 0.50542 0.0
O180 O 0.43185 0.2984 0.58236 0.0
O181 O 0.47064 0.30142 0.55349 0.0
O182 O 0.50214 0.35089 0.57814 0.0
C183 C 0.50882 0.37532 0.58714 0.0
C184 C 0.45209 0.29293 0.41615 0.0
O185 O 0.49925 0.38666 0.55051 0.0
C186 C 0.42138 0.34671 0.41975 0.0
O187 O 0.50989 0.36208 0.44884 0.0
O188 O 0.48393 0.37947 0.42454 0.0
O189 O 0.43273 0.28895 0.45441 0.0
O190 O 0.47551 0.313 0.42452 0.0
C191 C 0.42578 0.35074 0.59484 0.0
O192 O 0.43641 0.36583 0.45889 0.0
O193 O 0.41827 0.32335 0.42795 0.0
C194 C 0.50389 0.37638 0.41152 0.0
O195 O 0.45035 0.36819 0.58492 0.0
O196 O 0.41375 0.33013 0.55711 0.0
C197 C 0.44994 0.29202 0.59114 0.0
Fe198 Fe 0.12939 0.43331 0.50568 0.0
Fe199 Fe 0.16344 0.49538 0.4917 0.0
O200 O 0.13178 0.46575 0.50474 0.0
Fe201 Fe 0.10252 0.46854 0.51638 0.0
O202 O 0.09651 0.45257 0.59703 0.0
O203 O 0.10103 0.4181 0.56606 0.0
O204 O 0.15278 0.44276 0.57667 0.0
C205 C 0.17658 0.46296 0.57557 0.0
C206 C 0.08427 0.42262 0.43202 0.0
O207 O 0.18298 0.48201 0.5338 0.0
C208 C 0.12718 0.50657 0.41913 0.0
O209 O 0.15735 0.44259 0.44537 0.0
O210 O 0.16682 0.48306 0.41123 0.0
O211 O 0.07957 0.43657 0.47358 0.0
O212 O 0.10604 0.42176 0.43479 0.0
C213 C 0.14293 0.51335 0.58993 0.0
O214 O 0.14985 0.5144 0.44717 0.0
O215 O 0.10657 0.48481 0.43647 0.0
C216 C 0.16853 0.46199 0.40383 0.0
O217 O 0.16203 0.50965 0.57165 0.0
O218 O 0.12006 0.50113 0.56104 0.0
C219 C 0.0923 0.42898 0.60696 0.0
Fe220 Fe 0.68673 0.16052 0.50859 0.0
Fe221 Fe 0.6425 0.10024 0.50911 0.0
O222 O 0.67737 0.12565 0.50804 0.0
Fe223 Fe 0.7028 0.11616 0.5065 0.0
O224 O 0.71808 0.13431 0.58368 0.0
O225 O 0.71781 0.17176 0.55794 0.0
O226 O 0.66922 0.15702 0.58706 0.0
C227 C 0.64453 0.14026 0.59762 0.0
C228 C 0.7237 0.16164 0.41902 0.0
O229 O 0.63158 0.11976 0.56036 0.0
C230 C 0.66558 0.07845 0.41994 0.0
O231 O 0.6574 0.15575 0.45945 0.0
O232 O 0.63577 0.11261 0.43187 0.0
O233 O 0.72658 0.14504 0.45546 0.0
O234 O 0.705 0.16689 0.4301 0.0
C235 C 0.66342 0.078 0.59562 0.0
O236 O 0.64671 0.07583 0.45809 0.0
O237 O 0.68971 0.09717 0.4291 0.0
C238 C 0.64078 0.13657 0.42235 0.0
O239 O 0.64662 0.08599 0.58638 0.0
O240 O 0.68366 0.08557 0.55742 0.0
C241 C 0.72616 0.15907 0.59388 0.0
Fe242 Fe 0.59056 0.70072 0.4989 0.0
Fe243 Fe 0.52958 0.67948 0.51822 0.0
O244 O 0.55692 0.67325 0.50953 0.0
Fe245 Fe 0.55014 0.63935 0.51151 0.0
O246 O 0.57195 0.64632 0.58304 0.0
O247 O 0.60661 0.68459 0.54723 0.0
O248 O 0.58925 0.71667 0.57685 0.0
C249 C 0.57132 0.7227 0.59123 0.0
C250 C 0.59068 0.66343 0.41181 0.0
O251 O 0.54937 0.71255 0.55871 0.0
C252 C 0.50678 0.63222 0.4379 0.0
O253 O 0.58009 0.72128 0.44808 0.0
O254 O 0.53594 0.69444 0.43624 0.0
O255 O 0.5772 0.64484 0.45363 0.0
O256 O 0.59473 0.68712 0.42033 0.0
C257 C 0.51621 0.64059 0.61283 0.0
O258 O 0.50413 0.64762 0.47903 0.0
O259 O 0.52774 0.63002 0.43934 0.0
C260 C 0.55812 0.71398 0.41623 0.0
O261 O 0.52189 0.66462 0.60098 0.0
O262 O 0.52187 0.62754 0.57075 0.0
C263 C 0.59665 0.66425 0.58642 0.0
H264 H 0.49315 0.21162 0.15887 0.0
H265 H 0.40692 0.1553 0.1347 0.0
H266 H 0.39676 0.18208 0.214 0.0
H267 H 0.49092 0.22439 0.33608 0.0
H268 H 0.51609 0.25983 0.33004 0.0
H269 H 0.51677 0.23586 0.27242 0.0
H270 H 0.51517 0.26419 0.17263 0.0
H271 H 0.51427 0.28813 0.22995 0.0
H272 H 0.48805 0.27182 0.16765 0.0
H273 H 0.39557 0.21476 0.29441 0.0
H274 H 0.40352 0.25118 0.37351 0.0
H275 H 0.49044 0.28715 0.34508 0.0
C276 C 0.47215 0.2048 0.17069 0.0
C277 C 0.45084 0.18132 0.14044 0.0
C278 C 0.42361 0.17324 0.15694 0.0
C279 C 0.4176 0.18831 0.20198 0.0
C280 C 0.439 0.2115 0.23009 0.0
C281 C 0.46573 0.21974 0.21536 0.0
C282 C 0.48481 0.2457 0.25217 0.0
C283 C 0.50323 0.24116 0.30055 0.0
C284 C 0.50156 0.26883 0.20263 0.0
C285 C 0.46459 0.25068 0.2898 0.0
C286 C 0.43829 0.23066 0.27629 0.0
C287 C 0.41607 0.23058 0.30547 0.0
C288 C 0.42081 0.25138 0.35036 0.0
C289 C 0.44759 0.27207 0.36558 0.0
C290 C 0.46972 0.27176 0.33424 0.0
H291 H 0.17107 0.42121 0.33315 0.0
H292 H 0.21553 0.50754 0.37664 0.0
H293 H 0.25395 0.51247 0.31083 0.0
H294 H 0.22953 0.41044 0.33208 0.0
H295 H 0.21776 0.38771 0.26142 0.0
H296 H 0.19368 0.3896 0.31647 0.0
H297 H 0.17211 0.40057 0.21558 0.0
H298 H 0.1959 0.3984 0.16023 0.0
H299 H 0.19332 0.42869 0.16158 0.0
H300 H 0.28676 0.50955 0.2414 0.0
H301 H 0.31155 0.50015 0.15585 0.0
H302 H 0.24748 0.41589 0.14822 0.0
C303 C 0.18896 0.44106 0.32862 0.0
C304 C 0.19027 0.46402 0.35983 0.0
C305 C 0.21388 0.48973 0.35257 0.0
C306 C 0.236 0.49272 0.31593 0.0
C307 C 0.23422 0.46988 0.28604 0.0
C308 C 0.21129 0.4446 0.29056 0.0
C309 C 0.21446 0.42412 0.24818 0.0
C310 C 0.21382 0.40163 0.29219 0.0
C311 C 0.19265 0.41225 0.19312 0.0
C312 C 0.24256 0.44211 0.21874 0.0
C313 C 0.25352 0.46826 0.24289 0.0
C314 C 0.27855 0.48916 0.22224 0.0
C315 C 0.29251 0.48356 0.17363 0.0
C316 C 0.28155 0.4573 0.14575 0.0
C317 C 0.2565 0.43601 0.16969 0.0
H318 H 0.80976 0.28273 0.16164 0.0
H319 H 0.86121 0.24725 0.1337 0.0
H320 H 0.83285 0.21072 0.21256 0.0
H321 H 0.79731 0.26759 0.33867 0.0
H322 H 0.76255 0.25992 0.33428 0.0
H323 H 0.78717 0.28371 0.27625 0.0
H324 H 0.75701 0.25534 0.17696 0.0
H325 H 0.7324 0.23134 0.23468 0.0
H326 H 0.74679 0.2199 0.17104 0.0
H327 H 0.79912 0.17786 0.29259 0.0
H328 H 0.76254 0.15111 0.37275 0.0
H329 H 0.73222 0.20719 0.34925 0.0
C330 C 0.81517 0.26739 0.17243 0.0
C331 C 0.83774 0.26788 0.14128 0.0
C332 C 0.84402 0.24731 0.15665 0.0
C333 C 0.82802 0.22643 0.20139 0.0
C334 C 0.80577 0.22633 0.2304 0.0
C335 C 0.79933 0.24626 0.21691 0.0
C336 C 0.77416 0.24118 0.25493 0.0
C337 C 0.7807 0.26449 0.30395 0.0
C338 C 0.75124 0.23667 0.2065 0.0
C339 C 0.76754 0.21529 0.29184 0.0
C340 C 0.78606 0.20714 0.27679 0.0
C341 C 0.78448 0.18402 0.3049 0.0
C342 C 0.76359 0.16896 0.35041 0.0
C343 C 0.74448 0.17702 0.36745 0.0
C344 C 0.7464 0.20039 0.33706 0.0
H345 H 0.59254 0.76801 0.38263 0.0
H346 H 0.52115 0.69406 0.3167 0.0
H347 H 0.51508 0.71884 0.22397 0.0
H348 H 0.56667 0.81152 0.3518 0.0
H349 H 0.59773 0.83978 0.3211 0.0
H350 H 0.59893 0.8161 0.37895 0.0
H351 H 0.62829 0.80704 0.29558 0.0
H352 H 0.62739 0.83089 0.23761 0.0
H353 H 0.61635 0.79667 0.21114 0.0
H354 H 0.51293 0.75097 0.14796 0.0
H355 H 0.51656 0.78963 0.08459 0.0
H356 H 0.59011 0.8442 0.19292 0.0
C357 C 0.57606 0.75702 0.34763 0.0
C358 C 0.55726 0.72911 0.35698 0.0
C359 C 0.53567 0.71546 0.31086 0.0
C360 C 0.53209 0.72931 0.25779 0.0
C361 C 0.55035 0.75686 0.25101 0.0
C362 C 0.57209 0.77068 0.29388 0.0
C363 C 0.58765 0.80072 0.27644 0.0
C364 C 0.58774 0.81804 0.3356 0.0
C365 C 0.61665 0.80933 0.25384 0.0
C366 C 0.57071 0.80153 0.21845 0.0
C367 C 0.54938 0.77585 0.20499 0.0
C368 C 0.52975 0.77115 0.15718 0.0
C369 C 0.53187 0.79327 0.12188 0.0
C370 C 0.55357 0.81982 0.13402 0.0
C371 C 0.5735 0.82403 0.18236 0.0
H372 H 0.7667 0.5937 0.15042 0.0
H373 H 0.69363 0.51821 0.19716 0.0
H374 H 0.71741 0.50981 0.28907 0.0
H375 H 0.81103 0.56977 0.17094 0.0
H376 H 0.8384 0.59953 0.20941 0.0
H377 H 0.81495 0.60272 0.15483 0.0
H378 H 0.80363 0.62689 0.24846 0.0
H379 H 0.82745 0.62424 0.30312 0.0
H380 H 0.79279 0.61092 0.3293 0.0
H381 H 0.74976 0.50534 0.36064 0.0
H382 H 0.78861 0.50737 0.41991 0.0
H383 H 0.84195 0.58646 0.33289 0.0
C384 C 0.75557 0.5761 0.18217 0.0
C385 C 0.72826 0.55679 0.16802 0.0
C386 C 0.71444 0.53335 0.20828 0.0
C387 C 0.72779 0.52839 0.26037 0.0
C388 C 0.755 0.54713 0.27161 0.0
C389 C 0.76874 0.57077 0.2347 0.0
C390 C 0.79857 0.58622 0.25417 0.0
C391 C 0.8168 0.58975 0.19373 0.0
C392 C 0.80605 0.6137 0.28565 0.0
C393 C 0.79946 0.56704 0.3058 0.0
C394 C 0.774 0.54468 0.31481 0.0
C395 C 0.76972 0.52299 0.35524 0.0
C396 C 0.79198 0.52421 0.38811 0.0
C397 C 0.81823 0.54707 0.381 0.0
C398 C 0.822 0.5689 0.33972 0.0
H399 H 0.28293 0.80242 0.34692 0.0
H400 H 0.2526 0.85822 0.37465 0.0
H401 H 0.21458 0.83074 0.29811 0.0
H402 H 0.26566 0.78865 0.17151 0.0
H403 H 0.25593 0.75336 0.17817 0.0
H404 H 0.28112 0.77781 0.23404 0.0
H405 H 0.25269 0.74979 0.33583 0.0
H406 H 0.22729 0.72538 0.28025 0.0
H407 H 0.2179 0.74179 0.34335 0.0
H408 H 0.17988 0.79737 0.21853 0.0
H409 H 0.15122 0.76064 0.13987 0.0
H410 H 0.20324 0.72574 0.16629 0.0
C411 C 0.26843 0.809 0.33649 0.0
C412 C 0.27081 0.83255 0.36679 0.0
C413 C 0.25122 0.84027 0.3522 0.0
C414 C 0.22951 0.82477 0.3088 0.0
C415 C 0.22756 0.80151 0.28056 0.0
C416 C 0.24648 0.79364 0.29368 0.0
C417 C 0.23946 0.76758 0.25731 0.0
C418 C 0.26187 0.77213 0.20728 0.0
C419 C 0.23401 0.74479 0.30718 0.0
C420 C 0.2137 0.76211 0.22156 0.0
C421 C 0.20723 0.78196 0.2356 0.0
C422 C 0.18469 0.78165 0.20729 0.0
C423 C 0.16852 0.76069 0.16271 0.0
C424 C 0.17486 0.74021 0.14709 0.0
C425 C 0.19763 0.74088 0.1777 0.0
H426 H 0.53358 0.72856 0.66222 0.0
H427 H 0.62043 0.76359 0.63732 0.0
H428 H 0.62825 0.79945 0.71924 0.0
H429 H 0.53237 0.79023 0.67827 0.0
H430 H 0.5063 0.77747 0.74147 0.0
H431 H 0.50764 0.75458 0.68147 0.0
H432 H 0.50972 0.72516 0.77792 0.0
H433 H 0.50821 0.74787 0.83826 0.0
H434 H 0.5357 0.74075 0.84108 0.0
H435 H 0.62623 0.83306 0.79913 0.0
H436 H 0.61494 0.85922 0.8784 0.0
H437 H 0.52936 0.80056 0.85576 0.0
C438 C 0.55427 0.74377 0.67402 0.0
C439 C 0.57643 0.74342 0.64296 0.0
C440 C 0.60317 0.76345 0.6605 0.0
C441 C 0.60778 0.78394 0.70678 0.0
C442 C 0.58544 0.78385 0.73582 0.0
C443 C 0.55922 0.76404 0.72079 0.0
C444 C 0.53871 0.76813 0.75987 0.0
C445 C 0.52017 0.77289 0.71242 0.0
C446 C 0.52211 0.74405 0.80709 0.0
C447 C 0.55745 0.79358 0.79874 0.0
C448 C 0.58432 0.80246 0.78375 0.0
C449 C 0.60528 0.82612 0.81167 0.0
C450 C 0.59864 0.84091 0.85646 0.0
C451 C 0.57126 0.83189 0.87368 0.0
C452 C 0.55048 0.80786 0.84421 0.0
H453 H 0.72433 0.52186 0.83545 0.0
H454 H 0.77301 0.60271 0.91852 0.0
H455 H 0.81036 0.61106 0.84248 0.0
H456 H 0.77919 0.50792 0.8135 0.0
H457 H 0.76637 0.49015 0.73541 0.0
H458 H 0.74324 0.49019 0.79684 0.0
H459 H 0.72387 0.50941 0.70854 0.0
H460 H 0.7469 0.50939 0.64683 0.0
H461 H 0.74657 0.54024 0.66471 0.0
H462 H 0.84274 0.61093 0.75799 0.0
H463 H 0.86748 0.6025 0.66852 0.0
H464 H 0.79799 0.52206 0.6387 0.0
C465 C 0.74286 0.54129 0.83778 0.0
C466 C 0.74564 0.56157 0.88335 0.0
C467 C 0.77025 0.58678 0.88429 0.0
C468 C 0.79168 0.59176 0.84127 0.0
C469 C 0.7883 0.5714 0.79717 0.0
C470 C 0.76452 0.54669 0.79486 0.0
C471 C 0.76615 0.52844 0.74199 0.0
C472 C 0.76359 0.50265 0.77386 0.0
C473 C 0.74459 0.52147 0.68728 0.0
C474 C 0.79453 0.54678 0.71512 0.0
C475 C 0.80696 0.57143 0.74782 0.0
C476 C 0.83321 0.5917 0.73192 0.0
C477 C 0.84712 0.58671 0.68099 0.0
C478 C 0.83475 0.56165 0.64625 0.0
C479 C 0.80808 0.54146 0.66403 0.0
H480 H 0.28362 0.80201 0.65444 0.0
H481 H 0.25806 0.86218 0.64524 0.0
H482 H 0.22233 0.8362 0.72814 0.0
H483 H 0.2175 0.74332 0.67353 0.0
H484 H 0.22811 0.72651 0.73274 0.0
H485 H 0.25184 0.74961 0.6721 0.0
H486 H 0.28487 0.77756 0.76753 0.0
H487 H 0.26127 0.7545 0.82848 0.0
H488 H 0.2731 0.79029 0.83446 0.0
H489 H 0.18778 0.80286 0.8063 0.0
H490 H 0.1588 0.76602 0.88403 0.0
H491 H 0.20794 0.72839 0.85144 0.0
C492 C 0.2705 0.80969 0.67001 0.0
C493 C 0.27363 0.83414 0.643 0.0
C494 C 0.2562 0.84362 0.66521 0.0
C495 C 0.23574 0.82894 0.71218 0.0
C496 C 0.23311 0.80495 0.73754 0.0
C497 C 0.25019 0.7955 0.71812 0.0
C498 C 0.24321 0.76938 0.75489 0.0
C499 C 0.23466 0.74581 0.70535 0.0
C500 C 0.26703 0.77317 0.79896 0.0
C501 C 0.21937 0.76554 0.79727 0.0
C502 C 0.21381 0.78621 0.78571 0.0
C503 C 0.1921 0.78671 0.81634 0.0
C504 C 0.17567 0.76561 0.86022 0.0
C505 C 0.18118 0.74442 0.87415 0.0
C506 C 0.20346 0.74451 0.84239 0.0
H507 H 0.48787 0.28424 0.65809 0.0
H508 H 0.40114 0.25122 0.63565 0.0
H509 H 0.39267 0.21385 0.71281 0.0
H510 H 0.4875 0.22111 0.66879 0.0
H511 H 0.51343 0.23253 0.73236 0.0
H512 H 0.51287 0.2565 0.67428 0.0
H513 H 0.51147 0.28519 0.77315 0.0
H514 H 0.51224 0.26143 0.83152 0.0
H515 H 0.48532 0.26935 0.83569 0.0
H516 H 0.39356 0.17871 0.78784 0.0
H517 H 0.40365 0.15137 0.86659 0.0
H518 H 0.48969 0.20884 0.84761 0.0
C519 C 0.46711 0.26914 0.66953 0.0
C520 C 0.44515 0.27058 0.64057 0.0
C521 C 0.41828 0.25061 0.65739 0.0
C522 C 0.41326 0.22921 0.70089 0.0
C523 C 0.43532 0.22824 0.72813 0.0
C524 C 0.46172 0.24791 0.71407 0.0
C525 C 0.48173 0.24269 0.75233 0.0
C526 C 0.49996 0.23792 0.70404 0.0
C527 C 0.49869 0.26605 0.80107 0.0
C528 C 0.46246 0.21691 0.78962 0.0
C529 C 0.43579 0.20872 0.77417 0.0
C530 C 0.41436 0.18505 0.80078 0.0
C531 C 0.42029 0.16957 0.84519 0.0
C532 C 0.44743 0.17801 0.86353 0.0
C533 C 0.46873 0.20197 0.83497 0.0
H534 H 0.17301 0.4332 0.69035 0.0
H535 H 0.23061 0.49408 0.5533 0.0
H536 H 0.26829 0.4972 0.61956 0.0
H537 H 0.21086 0.46397 0.83926 0.0
H538 H 0.2028 0.43263 0.88046 0.0
H539 H 0.17962 0.43335 0.82009 0.0
H540 H 0.18109 0.39538 0.75228 0.0
H541 H 0.20435 0.39459 0.81243 0.0
H542 H 0.21331 0.40001 0.72496 0.0
H543 H 0.29993 0.4964 0.70132 0.0
H544 H 0.32444 0.49204 0.79772 0.0
H545 H 0.24813 0.43149 0.88523 0.0
C546 C 0.19356 0.44693 0.67404 0.0
C547 C 0.1987 0.4634 0.6164 0.0
C548 C 0.22595 0.48134 0.59726 0.0
C549 C 0.24763 0.4832 0.63442 0.0
C550 C 0.24197 0.46702 0.691 0.0
C551 C 0.21572 0.44921 0.71113 0.0
C552 C 0.21577 0.43521 0.77616 0.0
C553 C 0.20141 0.44169 0.83231 0.0
C554 C 0.20286 0.40447 0.76582 0.0
C555 C 0.2461 0.44832 0.78948 0.0
C556 C 0.26067 0.46646 0.73915 0.0
C557 C 0.28882 0.4821 0.74083 0.0
C558 C 0.30255 0.47951 0.79592 0.0
C559 C 0.28825 0.46136 0.84882 0.0
C560 C 0.25962 0.4452 0.84499 0.0
H561 H 0.81425 0.28056 0.84642 0.0
H562 H 0.86827 0.24797 0.86988 0.0
H563 H 0.83977 0.21075 0.79139 0.0
H564 H 0.75233 0.21806 0.83721 0.0
H565 H 0.73746 0.22929 0.77405 0.0
H566 H 0.76226 0.25342 0.83118 0.0
H567 H 0.79188 0.28186 0.7313 0.0
H568 H 0.76703 0.25797 0.67383 0.0
H569 H 0.80182 0.26584 0.66843 0.0
H570 H 0.80309 0.17518 0.71609 0.0
H571 H 0.76486 0.1476 0.63934 0.0
H572 H 0.73679 0.20541 0.66021 0.0
C573 C 0.82018 0.26568 0.83473 0.0
C574 C 0.8434 0.26705 0.86447 0.0
C575 C 0.85064 0.24736 0.84743 0.0
C576 C 0.83448 0.22608 0.80324 0.0
C577 C 0.81142 0.22506 0.77572 0.0
C578 C 0.8046 0.24466 0.78992 0.0
C579 C 0.77922 0.2394 0.75266 0.0
C580 C 0.75648 0.23476 0.80172 0.0
C581 C 0.78537 0.26265 0.70364 0.0
C582 C 0.77257 0.21358 0.71578 0.0
C583 C 0.79118 0.20542 0.73028 0.0
C584 C 0.78859 0.18156 0.70387 0.0
C585 C 0.76672 0.16594 0.66066 0.0
C586 C 0.74795 0.17444 0.6435 0.0
C587 C 0.75096 0.19853 0.67187 0.0
H588 H 0.39687 0.96181 0.34879 0.0
H589 H 0.31615 0.9505 0.37213 0.0
H590 H 0.32786 0.98841 0.29288 0.0
H591 H 0.43325 0.0337 0.33759 0.0
H592 H 0.45645 0.03505 0.27434 0.0
H593 H 0.44161 0.0071 0.33237 0.0
H594 H 0.42294 0.97307 0.23359 0.0
H595 H 0.43802 1.00091 0.17526 0.0
H596 H 0.40225 0.97672 0.17061 0.0
H597 H 0.35007 0.03002 0.21654 0.0
H598 H 0.37843 0.06747 0.13859 0.0
H599 H 0.44336 0.04904 0.16015 0.0
C600 C 0.38162 0.96726 0.33702 0.0
C601 C 0.35566 0.9534 0.36691 0.0
C602 C 0.33612 0.96083 0.34962 0.0
C603 C 0.34266 0.98242 0.30501 0.0
C604 C 0.36866 0.996 0.27731 0.0
C605 C 0.38763 0.98832 0.29177 0.0
C606 C 0.41383 1.00551 0.25395 0.0
C607 C 0.43768 0.02127 0.30247 0.0
C608 C 0.41959 0.98801 0.20547 0.0
C609 C 0.40686 0.02438 0.2165 0.0
C610 C 0.38084 0.01883 0.23116 0.0
C611 C 0.37034 0.03431 0.20422 0.0
C612 C 0.38666 0.05566 0.16034 0.0
C613 C 0.41304 0.06108 0.143 0.0
C614 C 0.42319 0.04523 0.17193 0.0
H615 H 0.42839 0.39571 0.38146 0.0
H616 H 0.37921 0.30957 0.34065 0.0
H617 H 0.35304 0.31932 0.25664 0.0
H618 H 0.37556 0.4124 0.36661 0.0
H619 H 0.39734 0.44461 0.32708 0.0
H620 H 0.4114 0.43049 0.3846 0.0
H621 H 0.44535 0.43366 0.29361 0.0
H622 H 0.43151 0.44799 0.23614 0.0
H623 H 0.43269 0.41798 0.21321 0.0
H624 H 0.33247 0.33945 0.17576 0.0
H625 H 0.32183 0.36785 0.10153 0.0
H626 H 0.38525 0.44015 0.198 0.0
C627 C 0.41203 0.37877 0.35528 0.0
C628 C 0.40573 0.35183 0.36805 0.0
C629 C 0.38438 0.33038 0.33181 0.0
C630 C 0.36935 0.33573 0.28423 0.0
C631 C 0.37602 0.36261 0.27347 0.0
C632 C 0.39702 0.38373 0.30785 0.0
C633 C 0.40097 0.4109 0.2861 0.0
C634 C 0.39601 0.42544 0.34458 0.0
C635 C 0.4293 0.42867 0.25543 0.0
C636 C 0.37897 0.4019 0.23374 0.0
C637 C 0.36459 0.37401 0.22722 0.0
C638 C 0.34359 0.36129 0.18068 0.0
C639 C 0.33759 0.37758 0.13895 0.0
C640 C 0.3527 0.40624 0.14384 0.0
C641 C 0.3733 0.41832 0.19279 0.0
H642 H 0.05009 0.43593 0.36851 0.0
H643 H 0.07078 0.37241 0.38223 0.0
H644 H 0.03392 0.34458 0.30191 0.0
H645 H 0.97783 0.39385 0.35248 0.0
H646 H 0.9746 0.41555 0.2918 0.0
H647 H 1.00169 0.42976 0.35235 0.0
H648 H 0.03697 0.45055 0.25668 0.0
H649 H 0.00996 0.43657 0.19592 0.0
H650 H 0.03703 0.42889 0.19097 0.0
H651 H 0.99299 0.32295 0.22313 0.0
H652 H 0.95607 0.31202 0.14145 0.0
H653 H 0.96523 0.39154 0.1725 0.0
C654 C 0.04675 0.41609 0.35483 0.0
C655 C 0.06304 0.40613 0.38213 0.0
C656 C 0.05848 0.38036 0.36196 0.0
C657 C 0.03751 0.36439 0.31668 0.0
C658 C 0.02165 0.37473 0.29107 0.0
C659 C 0.0264 0.40023 0.30858 0.0
C660 C 1.00764 0.4074 0.2711 0.0
C661 C 0.98936 0.41189 0.31985 0.0
C662 C 0.02387 0.43232 0.22599 0.0
C663 C 0.9914 0.38189 0.23005 0.0
C664 C 0.99943 0.36307 0.24302 0.0
C665 C 0.98673 0.33765 0.21226 0.0
C666 C 0.96568 0.33154 0.16625 0.0
C667 C 0.9579 0.35096 0.15042 0.0
C668 C 0.9709 0.37636 0.18323 0.0
H669 H 0.57213 0.96159 0.16115 0.0
H670 H 0.63582 0.94104 0.14922 0.0
H671 H 0.66397 0.9786 0.22696 0.0
H672 H 0.61423 0.03361 0.17028 0.0
H673 H 0.59328 0.03812 0.23061 0.0
H674 H 0.5783 0.00993 0.17336 0.0
H675 H 0.55848 0.97645 0.27307 0.0
H676 H 0.57317 1.00457 0.33053 0.0
H677 H 0.5808 0.97754 0.33871 0.0
H678 H 0.68631 0.02047 0.30075 0.0
H679 H 0.69839 0.05897 0.37768 0.0
H680 H 0.61868 0.0497 0.34843 0.0
C681 C 0.59197 0.96495 0.17516 0.0
C682 C 0.60187 0.94849 0.14895 0.0
C683 C 0.62779 0.95332 0.16896 0.0
C684 C 0.64399 0.97472 0.2127 0.0
C685 C 0.63378 0.99082 0.23692 0.0
C686 C 0.60814 0.98583 0.2199 0.0
C687 C 0.60146 1.00535 0.25512 0.0
C688 C 0.59653 0.02278 0.2043 0.0
C689 C 0.57703 0.99006 0.30216 0.0
C690 C 0.62744 0.02226 0.29416 0.0
C691 C 0.64601 0.01386 0.28218 0.0
C692 C 0.67181 0.02703 0.311 0.0
C693 C 0.67857 0.04898 0.35425 0.0
C694 C 0.65943 0.05718 0.36922 0.0
C695 C 0.63363 0.04369 0.3383 0.0
H696 H 0.61815 0.56748 0.17319 0.0
H697 H 0.68842 0.64023 0.09774 0.0
H698 H 0.67712 0.66827 0.16965 0.0
H699 H 0.57355 0.59524 0.18598 0.0
H700 H 0.55805 0.57771 0.26281 0.0
H701 H 0.57119 0.56311 0.20425 0.0
H702 H 0.6015 0.56031 0.29739 0.0
H703 H 0.5883 0.5747 0.35631 0.0
H704 H 0.62437 0.59048 0.34325 0.0
H705 H 0.65784 0.6887 0.24829 0.0
H706 H 0.63393 0.69956 0.3356 0.0
H707 H 0.57727 0.61361 0.3621 0.0
C708 C 0.63115 0.58929 0.17176 0.0
C709 C 0.65412 0.6016 0.12956 0.0
C710 C 0.67072 0.63025 0.12965 0.0
C711 C 0.66442 0.64642 0.1701 0.0
C712 C 0.64154 0.63369 0.21061 0.0
C713 C 0.62529 0.60578 0.21229 0.0
C714 C 0.60237 0.5972 0.26199 0.0
C715 C 0.57465 0.58244 0.22663 0.0
C716 C 0.60426 0.57964 0.31806 0.0
C717 C 0.60839 0.62463 0.28806 0.0
C718 C 0.63087 0.64544 0.25727 0.0
C719 C 0.64023 0.67257 0.27296 0.0
C720 C 0.62649 0.67856 0.32236 0.0
C721 C 0.60387 0.65746 0.35588 0.0
C722 C 0.59463 0.63021 0.33773 0.0
H723 H 0.95968 0.56841 0.33288 0.0
H724 H 0.9383 0.63118 0.35546 0.0
H725 H 0.97447 0.66017 0.2752 0.0
H726 H 0.03124 0.61136 0.31849 0.0
H727 H 0.03531 0.59103 0.25548 0.0
H728 H 1.0079 0.57536 0.31475 0.0
H729 H 0.9732 0.55575 0.21742 0.0
H730 H 1.00055 0.57115 0.15791 0.0
H731 H 0.97308 0.57828 0.15403 0.0
H732 H 0.01597 0.68379 0.19869 0.0
H733 H 0.05435 0.6971 0.12001 0.0
H734 H 0.04524 0.61715 0.13987 0.0
C735 C 0.9625 0.5882 0.32057 0.0
C736 C 0.94624 0.5976 0.3506 0.0
C737 C 0.95041 0.62351 0.33278 0.0
C738 C 0.97103 0.64019 0.2876 0.0
C739 C 0.98701 0.63047 0.25968 0.0
C740 C 0.98256 0.60482 0.2745 0.0
C741 C 1.00186 0.59875 0.23606 0.0
C742 C 0.02016 0.59384 0.28407 0.0
C743 C 0.98623 0.57455 0.18853 0.0
C744 C 0.018 0.62503 0.19763 0.0
C745 C 0.00952 0.64331 0.21275 0.0
C746 C 0.02249 0.66947 0.18581 0.0
C747 C 0.04434 0.67693 0.14151 0.0
C748 C 0.05256 0.65809 0.12352 0.0
C749 C 0.03918 0.63188 0.15221 0.0
H750 H 0.6161 0.04713 0.66432 0.0
H751 H 0.69815 0.06153 0.64254 0.0
H752 H 0.68818 0.02519 0.72462 0.0
H753 H 0.60925 0.03235 0.84145 0.0
H754 H 0.57416 0.0063 0.83441 0.0
H755 H 0.58832 0.03415 0.77604 0.0
H756 H 0.57312 1.00012 0.67723 0.0
H757 H 0.55908 0.97218 0.73532 0.0
H758 H 0.5839 0.97526 0.67474 0.0
H759 H 0.66879 0.98667 0.80896 0.0
H760 H 0.64137 0.94913 0.88772 0.0
H761 H 0.57213 0.95983 0.84957 0.0
C762 C 0.63209 0.04286 0.67719 0.0
C763 C 0.65792 0.05721 0.64715 0.0
C764 C 0.67817 0.05076 0.66491 0.0
C765 C 0.67272 0.03018 0.71149 0.0
C766 C 0.64691 0.01619 0.73953 0.0
C767 C 0.62694 0.02227 0.72296 0.0
C768 C 0.60066 1.00383 0.7587 0.0
C769 C 0.59264 0.02013 0.80543 0.0
C770 C 0.57785 0.98684 0.70849 0.0
C771 C 0.60894 0.98639 0.79789 0.0
C772 C 0.63569 0.99383 0.78661 0.0
C773 C 0.64779 0.98064 0.81814 0.0
C774 C 0.63209 0.95935 0.86269 0.0
C775 C 0.6046 0.95145 0.87469 0.0
C776 C 0.59303 0.96518 0.84136 0.0
H777 H 0.62448 0.57707 0.84974 0.0
H778 H 0.71041 0.63617 0.84493 0.0
H779 H 0.70137 0.66269 0.75963 0.0
H780 H 0.61053 0.57924 0.67446 0.0
H781 H 0.57756 0.57507 0.69125 0.0
H782 H 0.59185 0.56079 0.74757 0.0
H783 H 0.58577 0.58687 0.84631 0.0
H784 H 0.57179 0.60147 0.79015 0.0
H785 H 0.60078 0.62319 0.84118 0.0
H786 H 0.68093 0.68356 0.67691 0.0
H787 H 0.65241 0.69488 0.60447 0.0
H788 H 0.58079 0.62149 0.67127 0.0
C789 C 0.64159 0.59552 0.83072 0.0
C790 C 0.66817 0.60464 0.85433 0.0
C791 C 0.68989 0.62875 0.82736 0.0
C792 C 0.68488 0.64396 0.77921 0.0
C793 C 0.65812 0.63462 0.75863 0.0
C794 C 0.63697 0.61075 0.78352 0.0
C795 C 0.60993 0.60491 0.75564 0.0
C796 C 0.5967 0.57845 0.71479 0.0
C797 C 0.59097 0.60408 0.81166 0.0
C798 C 0.6189 0.62935 0.71125 0.0
C799 C 0.6467 0.64636 0.71297 0.0
C800 C 0.65917 0.67026 0.6753 0.0
C801 C 0.64281 0.6766 0.6345 0.0
C802 C 0.6143 0.65914 0.63201 0.0
C803 C 0.60246 0.6354 0.67163 0.0
H804 H 0.96702 0.57084 0.64232 0.0
H805 H 0.94777 0.63515 0.61704 0.0
H806 H 0.98595 0.66464 0.69185 0.0
H807 H 0.98491 0.58232 0.81451 0.0
H808 H 0.01196 0.57471 0.80683 0.0
H809 H 0.98341 0.55921 0.75075 0.0
H810 H 0.01607 0.57792 0.64921 0.0
H811 H 0.04471 0.59368 0.70513 0.0
H812 H 0.03965 0.61381 0.64321 0.0
H813 H 0.02549 0.68636 0.77302 0.0
H814 H 0.06252 0.69815 0.85462 0.0
H815 H 0.05603 0.61974 0.82121 0.0
C816 C 0.97072 0.5911 0.65248 0.0
C817 C 0.95438 0.6007 0.62398 0.0
C818 C 0.96007 0.62741 0.63833 0.0
C819 C 0.98172 0.6443 0.68059 0.0
C820 C 0.99756 0.63421 0.70741 0.0
C821 C 0.99231 0.60824 0.69375 0.0
C822 C 0.01204 0.60202 0.72916 0.0
C823 C 0.99719 0.57816 0.77823 0.0
C824 C 0.02913 0.59655 0.67865 0.0
C825 C 0.02905 0.62845 0.7657 0.0
C826 C 0.02049 0.64683 0.75259 0.0
C827 C 0.03251 0.67221 0.78324 0.0
C828 C 0.05353 0.67874 0.8294 0.0
C829 C 0.06225 0.65994 0.84415 0.0
C830 C 0.05008 0.63472 0.81071 0.0
H831 H 0.40297 0.9605 0.66353 0.0
H832 H 0.32181 0.94868 0.64112 0.0
H833 H 0.33316 0.98586 0.72079 0.0
H834 H 0.41036 0.97688 0.84112 0.0
H835 H 0.44574 1.00208 0.83389 0.0
H836 H 0.4309 0.97375 0.77702 0.0
H837 H 0.44718 0.00699 0.67647 0.0
H838 H 0.46183 0.03543 0.733 0.0
H839 H 0.43742 0.03259 0.67121 0.0
H840 H 0.35337 0.0249 0.79934 0.0
H841 H 0.38076 0.06258 0.87643 0.0
H842 H 0.44915 0.04968 0.84749 0.0
C843 C 0.38747 0.96551 0.67592 0.0
C844 C 0.36148 0.95167 0.64599 0.0
C845 C 0.34187 0.95901 0.66324 0.0
C846 C 0.34812 0.98012 0.70841 0.0
C847 C 0.37405 0.99369 0.73589 0.0
C848 C 0.3934 0.98664 0.72072 0.0
C849 C 0.41989 1.00487 0.75656 0.0
C850 C 0.42714 0.98841 0.80503 0.0
C851 C 0.44293 0.02092 0.7063 0.0
C852 C 0.41237 0.0233 0.79399 0.0
C853 C 0.38583 0.01644 0.78129 0.0
C854 C 0.37416 0.03044 0.80994 0.0
C855 C 0.38993 0.05185 0.8536 0.0
C856 C 0.41711 0.0591 0.86816 0.0
C857 C 0.42848 0.04473 0.83727 0.0
H858 H 0.40034 0.43649 0.87244 0.0
H859 H 0.31397 0.38151 0.84721 0.0
H860 H 0.32381 0.3555 0.76361 0.0
H861 H 0.41809 0.4377 0.69838 0.0
H862 H 0.44994 0.43952 0.71724 0.0
H863 H 0.43586 0.45353 0.77479 0.0
H864 H 0.43821 0.42371 0.8699 0.0
H865 H 0.45207 0.40945 0.81242 0.0
H866 H 0.42174 0.38748 0.85886 0.0
H867 H 0.34337 0.33466 0.68574 0.0
H868 H 0.37065 0.32279 0.61224 0.0
H869 H 0.44427 0.39238 0.68659 0.0
C870 C 0.38344 0.41897 0.84938 0.0
C871 C 0.35635 0.4109 0.86672 0.0
C872 C 0.33486 0.38808 0.83469 0.0
C873 C 0.34027 0.37313 0.7874 0.0
C874 C 0.36725 0.38144 0.77228 0.0
C875 C 0.38846 0.40404 0.80175 0.0
C876 C 0.41561 0.40913 0.77577 0.0
C877 C 0.43076 0.43659 0.73937 0.0
C878 C 0.43292 0.40732 0.83263 0.0
C879 C 0.40641 0.3857 0.72734 0.0
C880 C 0.37846 0.36987 0.72637 0.0
C881 C 0.36526 0.34698 0.68589 0.0
C882 C 0.38099 0.34035 0.64448 0.0
C883 C 0.40967 0.35665 0.64337 0.0
C884 C 0.42243 0.37948 0.68605 0.0
H885 H 0.97395 0.39812 0.86176 0.0
H886 H 0.95827 0.31542 0.87664 0.0
H887 H 0.99711 0.327 0.80162 0.0
H888 H 0.99311 0.40854 0.68939 0.0
H889 H 0.019 0.44341 0.70152 0.0
H890 H 0.98993 0.42816 0.75587 0.0
H891 H 0.02185 0.4413 0.85898 0.0
H892 H 0.051 0.45631 0.80475 0.0
H893 H 0.04651 0.43029 0.86343 0.0
H894 H 0.03736 0.34784 0.72191 0.0
H895 H 0.07472 0.37596 0.6434 0.0
H896 H 0.06426 0.44488 0.68764 0.0
C897 C 0.97852 0.38235 0.84905 0.0
C898 C 0.96303 0.35585 0.87486 0.0
C899 C 0.9699 0.33589 0.85739 0.0
C900 C 0.99193 0.34227 0.81498 0.0
C901 C 1.007 0.36874 0.79111 0.0
C902 C 1.00054 0.38842 0.80764 0.0
C903 C 0.01977 0.41532 0.7756 0.0
C904 C 1.00454 0.42437 0.72775 0.0
C905 C 0.03573 0.43708 0.82888 0.0
C906 C 0.03794 0.40767 0.73787 0.0
C907 C 0.03036 0.38077 0.74719 0.0
C908 C 0.04362 0.36901 0.71465 0.0
C909 C 0.06485 0.38513 0.67036 0.0
C910 C 0.07253 0.41264 0.65947 0.0
C911 C 0.05915 0.424 0.69501 0.0
H912 H 0.51986 0.10088 0.16404 0.0
H913 H 0.55337 0.18763 0.13828 0.0
H914 H 0.58973 0.19628 0.21871 0.0
H915 H 0.53415 0.10262 0.34146 0.0
H916 H 0.5428 0.07623 0.33621 0.0
H917 H 0.51889 0.0768 0.27792 0.0
H918 H 0.54822 0.07666 0.17897 0.0
H919 H 0.57231 0.07629 0.23695 0.0
H920 H 0.58345 0.10257 0.17439 0.0
H921 H 0.62273 0.19573 0.30008 0.0
H922 H 0.64998 0.18606 0.37959 0.0
H923 H 0.59569 0.09963 0.3516 0.0
C924 C 0.53469 0.1217 0.17571 0.0
C925 C 0.53373 0.14359 0.14479 0.0
C926 C 0.55369 0.17053 0.16114 0.0
C927 C 0.57444 0.17566 0.20677 0.0
C928 C 0.57503 0.15367 0.23553 0.0
C929 C 0.55569 0.12722 0.22087 0.0
C930 C 0.56127 0.10729 0.25819 0.0
C931 C 0.53789 0.0897 0.30631 0.0
C932 C 0.56663 0.08967 0.20919 0.0
C933 C 0.58677 0.12671 0.29607 0.0
C934 C 0.5943 0.15335 0.28225 0.0
C935 C 0.61705 0.17496 0.31141 0.0
C936 C 0.6324 0.16924 0.35652 0.0
C937 C 0.62501 0.14209 0.37198 0.0
C938 C 0.60197 0.1206 0.34071 0.0
H939 H 0.42702 0.52085 0.15488 0.0
H940 H 0.35903 0.53402 0.1874 0.0
H941 H 0.38486 0.56702 0.27638 0.0
H942 H 0.4474 0.52614 0.32959 0.0
H943 H 0.48307 0.54332 0.31004 0.0
H944 H 0.45874 0.51989 0.25086 0.0
H945 H 0.47775 0.55743 0.1599 0.0
H946 H 0.502 0.58096 0.21896 0.0
H947 H 0.47913 0.58924 0.17624 0.0
H948 H 0.41876 0.60007 0.35793 0.0
H949 H 0.45759 0.62962 0.42992 0.0
H950 H 0.50368 0.59492 0.34481 0.0
C951 C 0.41742 0.53049 0.18095 0.0
C952 C 0.39091 0.52478 0.16395 0.0
C953 C 0.3792 0.53791 0.1995 0.0
C954 C 0.39376 0.55676 0.25007 0.0
C955 C 0.41996 0.56218 0.26473 0.0
C956 C 0.43163 0.54932 0.23156 0.0
C957 C 0.46025 0.55907 0.25632 0.0
C958 C 0.46249 0.53572 0.28863 0.0
C959 C 0.481 0.57247 0.19946 0.0
C960 C 0.46298 0.57971 0.30811 0.0
C961 C 0.43948 0.58114 0.31216 0.0
C962 C 0.4372 0.59901 0.35551 0.0
C963 C 0.45945 0.61577 0.39614 0.0
C964 C 0.48374 0.61459 0.39336 0.0
C965 C 0.48542 0.59629 0.34844 0.0
H966 H 0.91337 0.49186 0.34666 0.0
H967 H 0.82658 0.45409 0.3803 0.0
H968 H 0.8188 0.41762 0.30125 0.0
H969 H 0.91007 0.47684 0.17086 0.0
H970 H 0.93784 0.47014 0.1737 0.0
H971 H 0.93657 0.49349 0.23235 0.0
H972 H 0.93987 0.46557 0.33089 0.0
H973 H 0.94098 0.44204 0.27255 0.0
H974 H 0.91548 0.4299 0.33713 0.0
H975 H 0.82029 0.38563 0.21851 0.0
H976 H 0.83093 0.35986 0.1368 0.0
H977 H 0.91686 0.4177 0.15915 0.0
C978 C 0.89271 0.47601 0.33717 0.0
C979 C 0.87056 0.47584 0.36958 0.0
C980 C 0.84386 0.4546 0.35616 0.0
C981 C 0.83923 0.43381 0.31137 0.0
C982 C 0.86151 0.43447 0.28078 0.0
C983 C 0.88773 0.45496 0.29309 0.0
C984 C 0.9081 0.45069 0.25408 0.0
C985 C 0.92408 0.47418 0.20482 0.0
C986 C 0.92723 0.44681 0.3015 0.0
C987 C 0.88917 0.42466 0.21761 0.0
C988 C 0.86241 0.4157 0.23372 0.0
C989 C 0.84117 0.39238 0.20555 0.0
C990 C 0.84743 0.37792 0.15915 0.0
C991 C 0.87471 0.38676 0.14161 0.0
C992 C 0.89582 0.41032 0.17185 0.0
H993 H 0.39874 0.84521 0.38351 0.0
H994 H 0.38234 0.90407 0.28814 0.0
H995 H 0.4088 0.90513 0.18969 0.0
H996 H 0.46627 0.87595 0.33499 0.0
H997 H 0.46735 0.84526 0.32046 0.0
H998 H 0.44343 0.84528 0.37924 0.0
H999 H 0.40389 0.80587 0.31482 0.0
H1000 H 0.42774 0.80561 0.25594 0.0
H1001 H 0.39987 0.8094 0.22643 0.0
H1002 H 0.44088 0.90467 0.10929 0.0
H1003 H 0.47751 0.90247 0.04907 0.0
H1004 H 0.47459 0.84411 0.19343 0.0
C1005 C 0.40007 0.85759 0.34084 0.0
C1006 C 0.3883 0.87433 0.3428 0.0
C1007 C 0.39113 0.89101 0.28725 0.0
C1008 C 0.40601 0.89167 0.23104 0.0
C1009 C 0.41804 0.87557 0.23115 0.0
C1010 C 0.41527 0.85875 0.28426 0.0
C1011 C 0.4327 0.84575 0.27386 0.0
C1012 C 0.45368 0.85354 0.3305 0.0
C1013 C 0.41499 0.81482 0.26737 0.0
C1014 C 0.44624 0.85857 0.20775 0.0
C1015 C 0.43712 0.87544 0.18392 0.0
C1016 C 0.44785 0.89117 0.12664 0.0
C1017 C 0.46867 0.88989 0.093 0.0
C1018 C 0.47849 0.87297 0.11655 0.0
C1019 C 0.46693 0.85677 0.17401 0.0
H1020 H 0.6364 0.48144 0.20501 0.0
H1021 H 0.58081 0.46772 0.04072 0.0
H1022 H 0.5434 0.43227 0.10546 0.0
H1023 H 0.60331 0.40892 0.26005 0.0
H1024 H 0.60847 0.41753 0.34775 0.0
H1025 H 0.63218 0.4404 0.2866 0.0
H1026 H 0.62492 0.47898 0.3311 0.0
H1027 H 0.60114 0.45625 0.39211 0.0
H1028 H 0.59108 0.47401 0.33441 0.0
H1029 H 0.51097 0.40274 0.18925 0.0
H1030 H 0.48495 0.37766 0.28884 0.0
H1031 H 0.55977 0.40707 0.40106 0.0
C1032 C 0.61646 0.4705 0.18242 0.0
C1033 C 0.61158 0.47752 0.11781 0.0
C1034 C 0.58509 0.463 0.09029 0.0
C1035 C 0.56362 0.44266 0.12652 0.0
C1036 C 0.56877 0.43672 0.19047 0.0
C1037 C 0.59446 0.44989 0.21837 0.0
C1038 C 0.59361 0.44015 0.28988 0.0
C1039 C 0.61039 0.4259 0.29644 0.0
C1040 C 0.60326 0.46375 0.33981 0.0
C1041 C 0.56342 0.4201 0.29772 0.0
C1042 C 0.54965 0.41856 0.23937 0.0
C1043 C 0.5215 0.40327 0.2349 0.0
C1044 C 0.50689 0.38919 0.29168 0.0
C1045 C 0.52039 0.39014 0.35195 0.0
C1046 C 0.54907 0.40553 0.3549 0.0
H1047 H 0.16405 0.54551 0.33283 0.0
H1048 H 0.08147 0.50966 0.40688 0.0
H1049 H 0.07441 0.54157 0.33881 0.0
H1050 H 0.17806 0.61534 0.32119 0.0
H1051 H 0.19643 0.62233 0.24345 0.0
H1052 H 0.19627 0.59789 0.30126 0.0
H1053 H 0.17804 0.56139 0.20803 0.0
H1054 H 0.17838 0.58577 0.14985 0.0
H1055 H 0.14751 0.5541 0.16369 0.0
H1056 H 0.07578 0.57663 0.2668 0.0
H1057 H 0.08285 0.60966 0.17966 0.0
H1058 H 0.16357 0.6222 0.14193 0.0
C1059 C 0.14458 0.54457 0.33469 0.0
C1060 C 0.12333 0.52523 0.3753 0.0
C1061 C 0.09797 0.52422 0.37593 0.0
C1062 C 0.09382 0.5424 0.33791 0.0
C1063 C 0.1151 0.56128 0.2988 0.0
C1064 C 0.13983 0.56231 0.29565 0.0
C1065 C 0.15841 0.58352 0.24526 0.0
C1066 C 0.1838 0.60611 0.27988 0.0
C1067 C 0.16602 0.57041 0.18833 0.0
C1068 C 0.14004 0.59396 0.22045 0.0
C1069 C 0.11541 0.58106 0.25341 0.0
C1070 C 0.09486 0.58676 0.24015 0.0
C1071 C 0.09914 0.60559 0.19023 0.0
C1072 C 0.12364 0.6183 0.15299 0.0
C1073 C 0.14466 0.61284 0.16942 0.0
H1074 H 0.4965 0.90832 0.84277 0.0
H1075 H 0.46872 0.82224 0.85626 0.0
H1076 H 0.43235 0.81272 0.77493 0.0
H1077 H 0.43163 0.9032 0.82757 0.0
H1078 H 0.44238 0.93016 0.76702 0.0
H1079 H 0.46637 0.93041 0.82637 0.0
H1080 H 0.49784 0.93329 0.72923 0.0
H1081 H 0.47403 0.93326 0.6696 0.0
H1082 H 0.48452 0.90825 0.66353 0.0
H1083 H 0.39708 0.8122 0.69848 0.0
H1084 H 0.36861 0.82122 0.62077 0.0
H1085 H 0.42118 0.90772 0.65006 0.0
C1086 C 0.48281 0.8875 0.82832 0.0
C1087 C 0.48535 0.866 0.85603 0.0
C1088 C 0.46723 0.83903 0.83548 0.0
C1089 C 0.44641 0.8334 0.78959 0.0
C1090 C 0.44424 0.85499 0.76385 0.0
C1091 C 0.46221 0.88154 0.78152 0.0
C1092 C 0.45582 0.90103 0.74489 0.0
C1093 C 0.44862 0.91714 0.79443 0.0
C1094 C 0.47946 0.92007 0.69909 0.0
C1095 C 0.43126 0.88123 0.70456 0.0
C1096 C 0.42472 0.85476 0.71691 0.0
C1097 C 0.40217 0.83285 0.68774 0.0
C1098 C 0.38605 0.83815 0.64401 0.0
C1099 C 0.39286 0.86513 0.62909 0.0
C1100 C 0.41574 0.8869 0.65995 0.0
H1101 H 0.59927 0.50282 0.82212 0.0
H1102 H 0.64633 0.46394 0.86991 0.0
H1103 H 0.61836 0.4268 0.7925 0.0
H1104 H 0.53564 0.44312 0.81337 0.0
H1105 H 0.52305 0.4537 0.74347 0.0
H1106 H 0.5479 0.47866 0.79904 0.0
H1107 H 0.57987 0.50274 0.69879 0.0
H1108 H 0.55498 0.47806 0.64267 0.0
H1109 H 0.58902 0.48355 0.64364 0.0
H1110 H 0.58324 0.39193 0.71905 0.0
H1111 H 0.54534 0.36326 0.64336 0.0
H1112 H 0.52155 0.42485 0.63926 0.0
C1113 C 0.60399 0.48676 0.81532 0.0
C1114 C 0.62491 0.48625 0.85244 0.0
C1115 C 0.63031 0.46473 0.84244 0.0
C1116 C 0.61454 0.4435 0.79855 0.0
C1117 C 0.59357 0.44413 0.76444 0.0
C1118 C 0.58845 0.46532 0.77136 0.0
C1119 C 0.56419 0.46055 0.72961 0.0
C1120 C 0.54135 0.4589 0.77404 0.0
C1121 C 0.57252 0.48253 0.67545 0.0
C1122 C 0.55636 0.43322 0.69915 0.0
C1123 C 0.57354 0.42411 0.72024 0.0
C1124 C 0.56981 0.39894 0.70135 0.0
C1125 C 0.54814 0.38273 0.65873 0.0
C1126 C 0.53063 0.3919 0.6351 0.0
C1127 C 0.5348 0.41744 0.65594 0.0
H1128 H 0.10533 0.51985 0.66094 0.0
H1129 H 0.19208 0.55428 0.63411 0.0
H1130 H 0.20053 0.59044 0.71509 0.0
H1131 H 0.10519 0.5824 0.6763 0.0
H1132 H 0.07934 0.57008 0.74003 0.0
H1133 H 0.08007 0.54688 0.67997 0.0
H1134 H 0.08191 0.51731 0.77641 0.0
H1135 H 0.08106 0.54035 0.83678 0.0
H1136 H 0.10817 0.53266 0.83899 0.0
H1137 H 0.19946 0.62415 0.79504 0.0
H1138 H 0.18904 0.65069 0.87533 0.0
H1139 H 0.1031 0.59301 0.85396 0.0
C1140 C 0.12612 0.53498 0.67211 0.0
C1141 C 0.14806 0.5343 0.64087 0.0
C1142 C 0.17495 0.55433 0.65744 0.0
C1143 C 0.17995 0.57502 0.7032 0.0
C1144 C 0.15787 0.57524 0.73256 0.0
C1145 C 0.13149 0.55557 0.71827 0.0
C1146 C 0.11137 0.56011 0.75773 0.0
C1147 C 0.09291 0.56517 0.71069 0.0
C1148 C 0.09465 0.53619 0.8053 0.0
C1149 C 0.13058 0.58552 0.79612 0.0
C1150 C 0.15729 0.59406 0.78046 0.0
C1151 C 0.17862 0.61753 0.80813 0.0
C1152 C 0.1725 0.63252 0.8535 0.0
C1153 C 0.14528 0.62382 0.87135 0.0
C1154 C 0.12413 0.60002 0.84196 0.0
H1155 H 0.59906 0.10386 0.66552 0.0
H1156 H 0.65568 0.19 0.64439 0.0
H1157 H 0.62802 0.19991 0.72243 0.0
H1158 H 0.53836 0.10717 0.67484 0.0
H1159 H 0.52269 0.08108 0.73767 0.0
H1160 H 0.54693 0.08072 0.68045 0.0
H1161 H 0.57593 0.08038 0.78023 0.0
H1162 H 0.55164 0.08047 0.83777 0.0
H1163 H 0.58684 0.10635 0.84344 0.0
H1164 H 0.59226 0.20036 0.7965 0.0
H1165 H 0.55453 0.19127 0.87315 0.0
H1166 H 0.52316 0.10478 0.8521 0.0
C1167 C 0.60569 0.12481 0.67761 0.0
C1168 C 0.62942 0.1462 0.64869 0.0
C1169 C 0.63763 0.17332 0.66622 0.0
C1170 C 0.62196 0.17914 0.71014 0.0
C1171 C 0.59843 0.15758 0.73693 0.0
C1172 C 0.59061 0.13094 0.72232 0.0
C1173 C 0.56491 0.11146 0.75936 0.0
C1174 C 0.54186 0.09409 0.71013 0.0
C1175 C 0.57016 0.09362 0.8081 0.0
C1176 C 0.5593 0.13133 0.79651 0.0
C1177 C 0.57866 0.15783 0.78222 0.0
C1178 C 0.57716 0.1797 0.80865 0.0
C1179 C 0.55558 0.17434 0.85177 0.0
C1180 C 0.53606 0.14735 0.86884 0.0
C1181 C 0.53797 0.12563 0.84046 0.0
H1182 H 0.49696 0.58758 0.64862 0.0
H1183 H 0.49711 0.66101 0.70891 0.0
H1184 H 0.46596 0.63595 0.80145 0.0
H1185 H 0.42796 0.54258 0.67691 0.0
H1186 H 0.43228 0.51533 0.70881 0.0
H1187 H 0.45653 0.53938 0.65069 0.0
H1188 H 0.49544 0.55045 0.73482 0.0
H1189 H 0.47128 0.52625 0.79303 0.0
H1190 H 0.49331 0.56085 0.81877 0.0
H1191 H 0.43235 0.60288 0.87976 0.0
H1192 H 0.39915 0.56381 0.94478 0.0
H1193 H 0.42073 0.51124 0.8358 0.0
C1194 C 0.49075 0.59851 0.68179 0.0
C1195 C 0.49937 0.62624 0.67139 0.0
C1196 C 0.49072 0.63977 0.7158 0.0
C1197 C 0.47308 0.62574 0.76855 0.0
C1198 C 0.46452 0.59832 0.77639 0.0
C1199 C 0.47319 0.58484 0.73476 0.0
C1200 C 0.45998 0.55503 0.7527 0.0
C1201 C 0.44319 0.53703 0.69377 0.0
C1202 C 0.48127 0.54772 0.77625 0.0
C1203 C 0.44197 0.55375 0.80991 0.0
C1204 C 0.4451 0.57903 0.82271 0.0
C1205 C 0.4299 0.58303 0.87086 0.0
C1206 C 0.41096 0.5606 0.90722 0.0
C1207 C 0.40735 0.53441 0.89539 0.0
C1208 C 0.42322 0.53101 0.84629 0.0
H1209 H 0.9141 0.492 0.65927 0.0
H1210 H 0.82728 0.45907 0.63913 0.0
H1211 H 0.81903 0.42169 0.71563 0.0
H1212 H 0.91367 0.42874 0.6693 0.0
H1213 H 0.9397 0.44002 0.73257 0.0
H1214 H 0.93913 0.4641 0.67489 0.0
H1215 H 0.93801 0.49275 0.77422 0.0
H1216 H 0.9388 0.46886 0.83218 0.0
H1217 H 0.91197 0.4769 0.83701 0.0
H1218 H 0.81989 0.38648 0.7888 0.0
H1219 H 0.82983 0.35887 0.86679 0.0
H1220 H 0.91597 0.41613 0.84815 0.0
C1221 C 0.89339 0.47692 0.67117 0.0
C1222 C 0.87132 0.47839 0.64302 0.0
C1223 C 0.8445 0.45845 0.66031 0.0
C1224 C 0.83958 0.43703 0.7034 0.0
C1225 C 0.8617 0.436 0.72983 0.0
C1226 C 0.88809 0.45564 0.71549 0.0
C1227 C 0.90813 0.45029 0.75329 0.0
C1228 C 0.92622 0.4455 0.70459 0.0
C1229 C 0.92523 0.47358 0.80207 0.0
C1230 C 0.88884 0.42447 0.79051 0.0
C1231 C 0.86217 0.4164 0.77533 0.0
C1232 C 0.84068 0.39272 0.80163 0.0
C1233 C 0.84653 0.37708 0.84558 0.0
C1234 C 0.87364 0.38541 0.86382 0.0
C1235 C 0.89504 0.40939 0.83554 0.0
loop_
_geom_bond_atom_site_label_1
_geom_bond_atom_site_label_2
_geom_bond_distance
_geom_bond_site_symmetry_2
_ccdc_geom_bond_type
Fe0 O2 1.918 . S
Fe0 O5 1.997 1_554 S
Fe0 O6 2.002 1_554 S
Fe0 O11 1.976 . S
Fe0 O14 1.996 . S
Fe1 O2 1.918 . S
Fe1 O9 1.997 1_554 S
Fe1 O12 1.996 . S
Fe1 O16 1.976 . S
Fe1 O19 2.002 1_554 S
O2 Fe0 1.918 . S
O2 Fe1 1.918 . S
O2 Fe3 1.918 . S
Fe3 O2 1.918 . S
Fe3 O4 2.002 1_554 S
Fe3 O13 1.976 . S
Fe3 O17 1.996 . S
Fe3 O20 1.997 1_554 S
O4 Fe3 2.002 1_556 S
O4 C21 1.295 . S
O5 Fe0 1.997 1_556 S
O5 C21 1.235 . S
O6 Fe0 2.002 1_556 S
O6 C7 1.295 . S
C7 O6 1.295 . S
C7 O9 1.235 . S
C8 O13 1.287 . S
C8 O14 1.255 . S
O9 Fe1 1.997 1_556 S
O9 C7 1.235 . S
C10 O16 1.287 . S
C10 O17 1.255 . S
O11 Fe0 1.976 . S
O11 C18 1.287 . S
O12 Fe1 1.996 . S
O12 C18 1.255 . S
O13 Fe3 1.976 . S
O13 C8 1.287 . S
O14 Fe0 1.996 . S
O14 C8 1.255 . S
C15 O19 1.295 . S
C15 O20 1.235 . S
O16 Fe1 1.976 . S
O16 C10 1.287 . S
O17 Fe3 1.996 . S
O17 C10 1.255 . S
C18 O11 1.287 . S
C18 O12 1.255 . S
O19 Fe1 2.002 1_556 S
O19 C15 1.295 . S
O20 Fe3 1.997 1_556 S
O20 C15 1.235 . S
C21 O4 1.295 . S
C21 O5 1.235 . S
Fe22 O24 1.918 . S
Fe22 O27 1.997 1_554 S
Fe22 O28 2.002 1_554 S
Fe22 O33 1.976 . S
Fe22 O36 1.996 . S
Fe23 O24 1.918 . S
Fe23 O31 1.997 1_554 S
Fe23 O34 1.996 . S
Fe23 O38 1.976 . S
Fe23 O41 2.002 1_554 S
O24 Fe22 1.918 . S
O24 Fe23 1.918 . S
O24 Fe25 1.918 . S
Fe25 O24 1.918 . S
Fe25 O26 2.002 1_554 S
Fe25 O35 1.976 . S
Fe25 O39 1.996 . S
Fe25 O42 1.997 1_554 S
O26 Fe25 2.002 1_556 S
O26 C43 1.295 . S
O27 Fe22 1.997 1_556 S
O27 C43 1.235 . S
O28 Fe22 2.002 1_556 S
O28 C29 1.295 . S
C29 O28 1.295 . S
C29 O31 1.235 . S
C30 O35 1.287 . S
C30 O36 1.255 . S
O31 Fe23 1.997 1_556 S
O31 C29 1.235 . S
C32 O38 1.287 . S
C32 O39 1.255 . S
O33 Fe22 1.976 . S
O33 C40 1.287 . S
O34 Fe23 1.996 . S
O34 C40 1.255 . S
O35 Fe25 1.976 . S
O35 C30 1.287 . S
O36 Fe22 1.996 . S
O36 C30 1.255 . S
C37 O41 1.295 . S
C37 O42 1.235 . S
O38 Fe23 1.976 . S
O38 C32 1.287 . S
O39 Fe25 1.996 . S
O39 C32 1.255 . S
C40 O33 1.287 . S
C40 O34 1.255 . S
O41 Fe23 2.002 1_556 S
O41 C37 1.295 . S
O42 Fe25 1.997 1_556 S
O42 C37 1.235 . S
C43 O26 1.295 . S
C43 O27 1.235 . S
Fe44 O46 1.918 . S
Fe44 O49 1.997 1_554 S
Fe44 O50 2.002 1_554 S
Fe44 O55 1.976 . S
Fe44 O58 1.996 . S
Fe45 O46 1.918 . S
Fe45 O53 1.997 1_554 S
Fe45 O56 1.996 . S
Fe45 O60 1.976 . S
Fe45 O63 2.002 1_554 S
O46 Fe44 1.918 . S
O46 Fe45 1.918 . S
O46 Fe47 1.918 . S
Fe47 O46 1.918 . S
Fe47 O48 2.002 1_554 S
Fe47 O57 1.976 . S
Fe47 O61 1.996 . S
Fe47 O64 1.997 1_554 S
O48 Fe47 2.002 1_556 S
O48 C65 1.295 . S
O49 Fe44 1.997 1_556 S
O49 C65 1.235 . S
O50 Fe44 2.002 1_556 S
O50 C51 1.295 . S
C51 O50 1.295 . S
C51 O53 1.235 . S
C52 O57 1.287 . S
C52 O58 1.255 . S
O53 Fe45 1.997 1_556 S
O53 C51 1.235 . S
C54 O60 1.287 . S
C54 O61 1.255 . S
O55 Fe44 1.976 . S
O55 C62 1.287 . S
O56 Fe45 1.996 . S
O56 C62 1.255 . S
O57 Fe47 1.976 . S
O57 C52 1.287 . S
O58 Fe44 1.996 . S
O58 C52 1.255 . S
C59 O63 1.295 . S
C59 O64 1.235 . S
O60 Fe45 1.976 . S
O60 C54 1.287 . S
O61 Fe47 1.996 . S
O61 C54 1.255 . S
C62 O55 1.287 . S
C62 O56 1.255 . S
O63 Fe45 2.002 1_556 S
O63 C59 1.295 . S
O64 Fe47 1.997 1_556 S
O64 C59 1.235 . S
C65 O48 1.295 . S
C65 O49 1.235 . S
Fe66 O68 1.918 . S
Fe66 O71 1.997 1_554 S
Fe66 O72 2.002 1_554 S
Fe66 O77 1.976 . S
Fe66 O80 1.996 . S
Fe67 O68 1.918 . S
Fe67 O75 1.997 1_554 S
Fe67 O78 1.996 . S
Fe67 O82 1.976 . S
Fe67 O85 2.002 1_554 S
O68 Fe66 1.918 . S
O68 Fe67 1.918 . S
O68 Fe69 1.918 . S
Fe69 O68 1.918 . S
Fe69 O70 2.002 1_554 S
Fe69 O79 1.976 . S
Fe69 O83 1.996 . S
Fe69 O86 1.997 1_554 S
O70 Fe69 2.002 1_556 S
O70 C87 1.295 . S
O71 Fe66 1.997 1_556 S
O71 C87 1.235 . S
O72 Fe66 2.002 1_556 S
O72 C73 1.295 . S
C73 O72 1.295 . S
C73 O75 1.235 . S
C74 O79 1.287 . S
C74 O80 1.255 . S
O75 Fe67 1.997 1_556 S
O75 C73 1.235 . S
C76 O82 1.287 . S
C76 O83 1.255 . S
O77 Fe66 1.976 . S
O77 C84 1.287 . S
O78 Fe67 1.996 . S
O78 C84 1.255 . S
O79 Fe69 1.976 . S
O79 C74 1.287 . S
O80 Fe66 1.996 . S
O80 C74 1.255 . S
C81 O85 1.295 . S
C81 O86 1.235 . S
O82 Fe67 1.976 . S
O82 C76 1.287 . S
O83 Fe69 1.996 . S
O83 C76 1.255 . S
C84 O77 1.287 . S
C84 O78 1.255 . S
O85 Fe67 2.002 1_556 S
O85 C81 1.295 . S
O86 Fe69 1.997 1_556 S
O86 C81 1.235 . S
C87 O70 1.295 . S
C87 O71 1.235 . S
Fe88 O90 1.918 . S
Fe88 O93 1.997 1_554 S
Fe88 O94 2.002 1_554 S
Fe88 O99 1.976 . S
Fe88 O102 1.996 . S
Fe89 O90 1.918 . S
Fe89 O97 1.997 1_554 S
Fe89 O100 1.996 . S
Fe89 O104 1.976 . S
Fe89 O107 2.002 1_554 S
O90 Fe88 1.918 . S
O90 Fe89 1.918 . S
O90 Fe91 1.918 . S
Fe91 O90 1.918 . S
Fe91 O92 2.002 1_554 S
Fe91 O101 1.976 . S
Fe91 O105 1.996 . S
Fe91 O108 1.997 1_554 S
O92 Fe91 2.002 1_556 S
O92 C109 1.295 . S
O93 Fe88 1.997 1_556 S
O93 C109 1.235 . S
O94 Fe88 2.002 1_556 S
O94 C95 1.295 . S
C95 O94 1.295 . S
C95 O97 1.235 . S
C96 O101 1.287 . S
C96 O102 1.255 . S
O97 Fe89 1.997 1_556 S
O97 C95 1.235 . S
C98 O104 1.287 . S
C98 O105 1.255 . S
O99 Fe88 1.976 . S
O99 C106 1.287 . S
O100 Fe89 1.996 . S
O100 C106 1.255 . S
O101 Fe91 1.976 . S
O101 C96 1.287 . S
O102 Fe88 1.996 . S
O102 C96 1.255 . S
C103 O107 1.295 . S
C103 O108 1.235 . S
O104 Fe89 1.976 . S
O104 C98 1.287 . S
O105 Fe91 1.996 . S
O105 C98 1.255 . S
C106 O99 1.287 . S
C106 O100 1.255 . S
O107 Fe89 2.002 1_556 S
O107 C103 1.295 . S
O108 Fe91 1.997 1_556 S
O108 C103 1.235 . S
C109 O92 1.295 . S
C109 O93 1.235 . S
Fe110 O112 1.918 . S
Fe110 O115 1.997 1_554 S
Fe110 O116 2.002 1_554 S
Fe110 O121 1.976 . S
Fe110 O124 1.996 . S
Fe111 O112 1.918 . S
Fe111 O119 1.997 1_554 S
Fe111 O122 1.996 . S
Fe111 O126 1.976 . S
Fe111 O129 2.002 1_554 S
O112 Fe110 1.918 . S
O112 Fe111 1.918 . S
O112 Fe113 1.918 . S
Fe113 O112 1.918 . S
Fe113 O114 2.002 1_554 S
Fe113 O123 1.976 . S
Fe113 O127 1.996 . S
Fe113 O130 1.997 1_554 S
O114 Fe113 2.002 1_556 S
O114 C131 1.295 . S
O115 Fe110 1.997 1_556 S
O115 C131 1.235 . S
O116 Fe110 2.002 1_556 S
O116 C117 1.295 . S
C117 O116 1.295 . S
C117 O119 1.235 . S
C118 O123 1.287 . S
C118 O124 1.255 . S
O119 Fe111 1.997 1_556 S
O119 C117 1.235 . S
C120 O126 1.287 . S
C120 O127 1.255 . S
O121 Fe110 1.976 . S
O121 C128 1.287 . S
O122 Fe111 1.996 . S
O122 C128 1.255 . S
O123 Fe113 1.976 . S
O123 C118 1.287 . S
O124 Fe110 1.996 . S
O124 C118 1.255 . S
C125 O129 1.295 . S
C125 O130 1.235 . S
O126 Fe111 1.976 . S
O126 C120 1.287 . S
O127 Fe113 1.996 . S
O127 C120 1.255 . S
C128 O121 1.287 . S
C128 O122 1.255 . S
O129 Fe111 2.002 1_556 S
O129 C125 1.295 . S
O130 Fe113 1.997 1_556 S
O130 C125 1.235 . S
C131 O114 1.295 . S
C131 O115 1.235 . S
Fe132 O134 1.918 . S
Fe132 O137 1.997 . S
Fe132 O138 2.002 . S
Fe132 O143 1.976 . S
Fe132 O146 1.996 . S
Fe133 O134 1.918 . S
Fe133 O141 1.997 . S
Fe133 O144 1.996 . S
Fe133 O148 1.976 . S
Fe133 O151 2.002 . S
O134 Fe132 1.918 . S
O134 Fe133 1.918 . S
O134 Fe135 1.918 . S
Fe135 O134 1.918 . S
Fe135 O136 2.002 . S
Fe135 O145 1.976 . S
Fe135 O149 1.996 . S
Fe135 O152 1.997 . S
O136 Fe135 2.002 . S
O136 C153 1.295 . S
O137 Fe132 1.997 . S
O137 C153 1.235 . S
O138 Fe132 2.002 . S
O138 C139 1.295 . S
C139 O138 1.295 . S
C139 O141 1.235 . S
C140 O145 1.287 . S
C140 O146 1.255 . S
O141 Fe133 1.997 . S
O141 C139 1.235 . S
C142 O148 1.287 . S
C142 O149 1.255 . S
O143 Fe132 1.976 . S
O143 C150 1.287 . S
O144 Fe133 1.996 . S
O144 C150 1.255 . S
O145 Fe135 1.976 . S
O145 C140 1.287 . S
O146 Fe132 1.996 . S
O146 C140 1.255 . S
C147 O151 1.295 . S
C147 O152 1.235 . S
O148 Fe133 1.976 . S
O148 C142 1.287 . S
O149 Fe135 1.996 . S
O149 C142 1.255 . S
C150 O143 1.287 . S
C150 O144 1.255 . S
O151 Fe133 2.002 . S
O151 C147 1.295 . S
O152 Fe135 1.997 . S
O152 C147 1.235 . S
C153 O136 1.295 . S
C153 O137 1.235 . S
Fe154 O156 1.918 . S
Fe154 O159 1.997 . S
Fe154 O160 2.002 . S
Fe154 O165 1.976 . S
Fe154 O168 1.996 . S
Fe155 O156 1.918 . S
Fe155 O163 1.997 . S
Fe155 O166 1.996 . S
Fe155 O170 1.976 . S
Fe155 O173 2.002 . S
O156 Fe154 1.918 . S
O156 Fe155 1.918 . S
O156 Fe157 1.918 . S
Fe157 O156 1.918 . S
Fe157 O158 2.002 . S
Fe157 O167 1.976 . S
Fe157 O171 1.996 . S
Fe157 O174 1.997 . S
O158 Fe157 2.002 . S
O158 C175 1.295 . S
O159 Fe154 1.997 . S
O159 C175 1.235 . S
O160 Fe154 2.002 . S
O160 C161 1.295 . S
C161 O160 1.295 . S
C161 O163 1.235 . S
C162 O167 1.287 . S
C162 O168 1.255 . S
O163 Fe155 1.997 . S
O163 C161 1.235 . S
C164 O170 1.287 . S
C164 O171 1.255 . S
O165 Fe154 1.976 . S
O165 C172 1.287 . S
O166 Fe155 1.996 . S
O166 C172 1.255 . S
O167 Fe157 1.976 . S
O167 C162 1.287 . S
O168 Fe154 1.996 . S
O168 C162 1.255 . S
C169 O173 1.295 . S
C169 O174 1.235 . S
O170 Fe155 1.976 . S
O170 C164 1.287 . S
O171 Fe157 1.996 . S
O171 C164 1.255 . S
C172 O165 1.287 . S
C172 O166 1.255 . S
O173 Fe155 2.002 . S
O173 C169 1.295 . S
O174 Fe157 1.997 . S
O174 C169 1.235 . S
C175 O158 1.295 . S
C175 O159 1.235 . S
Fe176 O178 1.918 . S
Fe176 O181 1.997 . S
Fe176 O182 2.002 . S
Fe176 O187 1.976 . S
Fe176 O190 1.996 . S
Fe177 O178 1.918 . S
Fe177 O185 1.997 . S
Fe177 O188 1.996 . S
Fe177 O192 1.976 . S
Fe177 O195 2.002 . S
O178 Fe176 1.918 . S
O178 Fe177 1.918 . S
O178 Fe179 1.918 . S
Fe179 O178 1.918 . S
Fe179 O180 2.002 . S
Fe179 O189 1.976 . S
Fe179 O193 1.996 . S
Fe179 O196 1.997 . S
O180 Fe179 2.002 . S
O180 C197 1.295 . S
O181 Fe176 1.997 . S
O181 C197 1.235 . S
O182 Fe176 2.002 . S
O182 C183 1.295 . S
C183 O182 1.295 . S
C183 O185 1.235 . S
C184 O189 1.287 . S
C184 O190 1.255 . S
O185 Fe177 1.997 . S
O185 C183 1.235 . S
C186 O192 1.287 . S
C186 O193 1.255 . S
O187 Fe176 1.976 . S
O187 C194 1.287 . S
O188 Fe177 1.996 . S
O188 C194 1.255 . S
O189 Fe179 1.976 . S
O189 C184 1.287 . S
O190 Fe176 1.996 . S
O190 C184 1.255 . S
C191 O195 1.295 . S
C191 O196 1.235 . S
O192 Fe177 1.976 . S
O192 C186 1.287 . S
O193 Fe179 1.996 . S
O193 C186 1.255 . S
C194 O187 1.287 . S
C194 O188 1.255 . S
O195 Fe177 2.002 . S
O195 C191 1.295 . S
O196 Fe179 1.997 . S
O196 C191 1.235 . S
C197 O180 1.295 . S
C197 O181 1.235 . S
Fe198 O200 1.918 . S
Fe198 O203 1.997 . S
Fe198 O204 2.002 . S
Fe198 O209 1.976 . S
Fe198 O212 1.996 . S
Fe199 O200 1.918 . S
Fe199 O207 1.997 . S
Fe199 O210 1.996 . S
Fe199 O214 1.976 . S
Fe199 O217 2.002 . S
O200 Fe198 1.918 . S
O200 Fe199 1.918 . S
O200 Fe201 1.918 . S
Fe201 O200 1.918 . S
Fe201 O202 2.002 . S
Fe201 O211 1.976 . S
Fe201 O215 1.996 . S
Fe201 O218 1.997 . S
O202 Fe201 2.002 . S
O202 C219 1.295 . S
O203 Fe198 1.997 . S
O203 C219 1.235 . S
O204 Fe198 2.002 . S
O204 C205 1.295 . S
C205 O204 1.295 . S
C205 O207 1.235 . S
C206 O211 1.287 . S
C206 O212 1.255 . S
O207 Fe199 1.997 . S
O207 C205 1.235 . S
C208 O214 1.287 . S
C208 O215 1.255 . S
O209 Fe198 1.976 . S
O209 C216 1.287 . S
O210 Fe199 1.996 . S
O210 C216 1.255 . S
O211 Fe201 1.976 . S
O211 C206 1.287 . S
O212 Fe198 1.996 . S
O212 C206 1.255 . S
C213 O217 1.295 . S
C213 O218 1.235 . S
O214 Fe199 1.976 . S
O214 C208 1.287 . S
O215 Fe201 1.996 . S
O215 C208 1.255 . S
C216 O209 1.287 . S
C216 O210 1.255 . S
O217 Fe199 2.002 . S
O217 C213 1.295 . S
O218 Fe201 1.997 . S
O218 C213 1.235 . S
C219 O202 1.295 . S
C219 O203 1.235 . S
Fe220 O222 1.918 . S
Fe220 O225 1.997 . S
Fe220 O226 2.002 . S
Fe220 O231 1.976 . S
Fe220 O234 1.996 . S
Fe221 O222 1.918 . S
Fe221 O229 1.997 . S
Fe221 O232 1.996 . S
Fe221 O236 1.976 . S
Fe221 O239 2.002 . S
O222 Fe220 1.918 . S
O222 Fe221 1.918 . S
O222 Fe223 1.918 . S
Fe223 O222 1.918 . S
Fe223 O224 2.002 . S
Fe223 O233 1.976 . S
Fe223 O237 1.996 . S
Fe223 O240 1.997 . S
O224 Fe223 2.002 . S
O224 C241 1.295 . S
O225 Fe220 1.997 . S
O225 C241 1.235 . S
O226 Fe220 2.002 . S
O226 C227 1.295 . S
C227 O226 1.295 . S
C227 O229 1.235 . S
C228 O233 1.287 . S
C228 O234 1.255 . S
O229 Fe221 1.997 . S
O229 C227 1.235 . S
C230 O236 1.287 . S
C230 O237 1.255 . S
O231 Fe220 1.976 . S
O231 C238 1.287 . S
O232 Fe221 1.996 . S
O232 C238 1.255 . S
O233 Fe223 1.976 . S
O233 C228 1.287 . S
O234 Fe220 1.996 . S
O234 C228 1.255 . S
C235 O239 1.295 . S
C235 O240 1.235 . S
O236 Fe221 1.976 . S
O236 C230 1.287 . S
O237 Fe223 1.996 . S
O237 C230 1.255 . S
C238 O231 1.287 . S
C238 O232 1.255 . S
O239 Fe221 2.002 . S
O239 C235 1.295 . S
O240 Fe223 1.997 . S
O240 C235 1.235 . S
C241 O224 1.295 . S
C241 O225 1.235 . S
Fe242 O244 1.918 . S
Fe242 O247 1.997 . S
Fe242 O248 2.002 . S
Fe242 O253 1.976 . S
Fe242 O256 1.996 . S
Fe243 O244 1.918 . S
Fe243 O251 1.997 . S
Fe243 O254 1.996 . S
Fe243 O258 1.976 . S
Fe243 O261 2.002 . S
O244 Fe242 1.918 . S
O244 Fe243 1.918 . S
O244 Fe245 1.918 . S
Fe245 O244 1.918 . S
Fe245 O246 2.002 . S
Fe245 O255 1.976 . S
Fe245 O259 1.996 . S
Fe245 O262 1.997 . S
O246 Fe245 2.002 . S
O246 C263 1.295 . S
O247 Fe242 1.997 . S
O247 C263 1.235 . S
O248 Fe242 2.002 . S
O248 C249 1.295 . S
C249 O248 1.295 . S
C249 O251 1.235 . S
C250 O255 1.287 . S
C250 O256 1.255 . S
O251 Fe243 1.997 . S
O251 C249 1.235 . S
C252 O258 1.287 . S
C252 O259 1.255 . S
O253 Fe242 1.976 . S
O253 C260 1.287 . S
O254 Fe243 1.996 . S
O254 C260 1.255 . S
O255 Fe245 1.976 . S
O255 C250 1.287 . S
O256 Fe242 1.996 . S
O256 C250 1.255 . S
C257 O261 1.295 . S
C257 O262 1.235 . S
O258 Fe243 1.976 . S
O258 C252 1.287 . S
O259 Fe245 1.996 . S
O259 C252 1.255 . S
C260 O253 1.287 . S
C260 O254 1.255 . S
O261 Fe243 2.002 . S
O261 C257 1.295 . S
O262 Fe245 1.997 . S
O262 C257 1.235 . S
C263 O246 1.295 . S
C263 O247 1.235 . S
H264 C276 0.930 . S
H265 C278 0.930 . S
H266 C279 0.930 . S
H267 C283 0.959 . S
H268 C283 0.959 . S
H269 C283 0.961 . S
H270 C284 0.960 . S
H271 C284 0.961 . S
H272 C284 0.959 . S
H273 C287 0.929 . S
H274 C288 0.931 . S
H275 C290 0.930 . S
C276 H264 0.930 . S
C276 C277 1.399 . S
C276 C281 1.399 . S
C277 C276 1.399 . S
C277 C278 1.376 . S
C278 H265 0.930 . S
C278 C277 1.376 . S
C278 C279 1.388 . S
C279 H266 0.930 . S
C279 C278 1.388 . S
C279 C280 1.390 . S
C280 C279 1.390 . S
C280 C281 1.394 . S
C280 C286 1.465 . S
C281 C276 1.399 . S
C281 C280 1.394 . S
C281 C282 1.516 . S
C282 C281 1.516 . S
C282 C283 1.502 . S
C282 C284 1.561 . S
C282 C285 1.526 . S
C283 H267 0.959 . S
C283 H268 0.959 . S
C283 H269 0.961 . S
C283 C282 1.502 . S
C284 H270 0.960 . S
C284 H271 0.961 . S
C284 H272 0.959 . S
C284 C282 1.561 . S
C285 C282 1.526 . S
C285 C286 1.396 . S
C285 C290 1.390 . S
C286 C280 1.465 . S
C286 C285 1.396 . S
C286 C287 1.399 . S
C287 H273 0.929 . S
C287 C286 1.399 . S
C287 C288 1.385 . S
C288 H274 0.931 . S
C288 C287 1.385 . S
C288 C289 1.389 . S
C289 C288 1.389 . S
C289 C290 1.387 . S
C290 H275 0.930 . S
C290 C285 1.390 . S
C290 C289 1.387 . S
H291 C303 0.930 . S
H292 C305 0.930 . S
H293 C306 0.930 . S
H294 C310 0.959 . S
H295 C310 0.959 . S
H296 C310 0.961 . S
H297 C311 0.960 . S
H298 C311 0.961 . S
H299 C311 0.959 . S
H300 C314 0.929 . S
H301 C315 0.931 . S
H302 C317 0.930 . S
C303 H291 0.930 . S
C303 C304 1.399 . S
C303 C308 1.399 . S
C304 C303 1.399 . S
C304 C305 1.376 . S
C305 H292 0.930 . S
C305 C304 1.376 . S
C305 C306 1.388 . S
C306 H293 0.930 . S
C306 C305 1.388 . S
C306 C307 1.390 . S
C307 C306 1.390 . S
C307 C308 1.394 . S
C307 C313 1.465 . S
C308 C303 1.399 . S
C308 C307 1.394 . S
C308 C309 1.516 . S
C309 C308 1.516 . S
C309 C310 1.502 . S
C309 C311 1.561 . S
C309 C312 1.526 . S
C310 H294 0.959 . S
C310 H295 0.959 . S
C310 H296 0.961 . S
C310 C309 1.502 . S
C311 H297 0.960 . S
C311 H298 0.961 . S
C311 H299 0.959 . S
C311 C309 1.561 . S
C312 C309 1.526 . S
C312 C313 1.396 . S
C312 C317 1.390 . S
C313 C307 1.465 . S
C313 C312 1.396 . S
C313 C314 1.399 . S
C314 H300 0.929 . S
C314 C313 1.399 . S
C314 C315 1.385 . S
C315 H301 0.931 . S
C315 C314 1.385 . S
C315 C316 1.389 . S
C316 C315 1.389 . S
C316 C317 1.387 . S
C317 H302 0.930 . S
C317 C312 1.390 . S
C317 C316 1.387 . S
H318 C330 0.930 . S
H319 C332 0.930 . S
H320 C333 0.930 . S
H321 C337 0.959 . S
H322 C337 0.959 . S
H323 C337 0.961 . S
H324 C338 0.960 . S
H325 C338 0.961 . S
H326 C338 0.959 . S
H327 C341 0.929 . S
H328 C342 0.931 . S
H329 C344 0.930 . S
C330 H318 0.930 . S
C330 C331 1.399 . S
C330 C335 1.399 . S
C331 C330 1.399 . S
C331 C332 1.376 . S
C332 H319 0.930 . S
C332 C331 1.376 . S
C332 C333 1.388 . S
C333 H320 0.930 . S
C333 C332 1.388 . S
C333 C334 1.390 . S
C334 C333 1.390 . S
C334 C335 1.394 . S
C334 C340 1.465 . S
C335 C330 1.399 . S
C335 C334 1.394 . S
C335 C336 1.516 . S
C336 C335 1.516 . S
C336 C337 1.502 . S
C336 C338 1.561 . S
C336 C339 1.526 . S
C337 H321 0.959 . S
C337 H322 0.959 . S
C337 H323 0.961 . S
C337 C336 1.502 . S
C338 H324 0.960 . S
C338 H325 0.961 . S
C338 H326 0.959 . S
C338 C336 1.561 . S
C339 C336 1.526 . S
C339 C340 1.396 . S
C339 C344 1.390 . S
C340 C334 1.465 . S
C340 C339 1.396 . S
C340 C341 1.399 . S
C341 H327 0.929 . S
C341 C340 1.399 . S
C341 C342 1.385 . S
C342 H328 0.931 . S
C342 C341 1.385 . S
C342 C343 1.389 . S
C343 C342 1.389 . S
C343 C344 1.387 . S
C344 H329 0.930 . S
C344 C339 1.390 . S
C344 C343 1.387 . S
H345 C357 0.930 . S
H346 C359 0.930 . S
H347 C360 0.930 . S
H348 C364 0.959 . S
H349 C364 0.959 . S
H350 C364 0.961 . S
H351 C365 0.960 . S
H352 C365 0.961 . S
H353 C365 0.959 . S
H354 C368 0.929 . S
H355 C369 0.931 . S
H356 C371 0.930 . S
C357 H345 0.930 . S
C357 C358 1.399 . S
C357 C362 1.399 . S
C358 C357 1.399 . S
C358 C359 1.376 . S
C359 H346 0.930 . S
C359 C358 1.376 . S
C359 C360 1.388 . S
C360 H347 0.930 . S
C360 C359 1.388 . S
C360 C361 1.390 . S
C361 C360 1.390 . S
C361 C362 1.394 . S
C361 C367 1.465 . S
C362 C357 1.399 . S
C362 C361 1.394 . S
C362 C363 1.516 . S
C363 C362 1.516 . S
C363 C364 1.502 . S
C363 C365 1.561 . S
C363 C366 1.526 . S
C364 H348 0.959 . S
C364 H349 0.959 . S
C364 H350 0.961 . S
C364 C363 1.502 . S
C365 H351 0.960 . S
C365 H352 0.961 . S
C365 H353 0.959 . S
C365 C363 1.561 . S
C366 C363 1.526 . S
C366 C367 1.396 . S
C366 C371 1.390 . S
C367 C361 1.465 . S
C367 C366 1.396 . S
C367 C368 1.399 . S
C368 H354 0.929 . S
C368 C367 1.399 . S
C368 C369 1.385 . S
C369 H355 0.931 . S
C369 C368 1.385 . S
C369 C370 1.389 . S
C370 C369 1.389 . S
C370 C371 1.387 . S
C371 H356 0.930 . S
C371 C366 1.390 . S
C371 C370 1.387 . S
H372 C384 0.930 . S
H373 C386 0.930 . S
H374 C387 0.930 . S
H375 C391 0.959 . S
H376 C391 0.959 . S
H377 C391 0.961 . S
H378 C392 0.960 . S
H379 C392 0.961 . S
H380 C392 0.959 . S
H381 C395 0.929 . S
H382 C396 0.931 . S
H383 C398 0.930 . S
C384 H372 0.930 . S
C384 C385 1.399 . S
C384 C389 1.399 . S
C385 C384 1.399 . S
C385 C386 1.376 . S
C386 H373 0.930 . S
C386 C385 1.376 . S
C386 C387 1.388 . S
C387 H374 0.930 . S
C387 C386 1.388 . S
C387 C388 1.390 . S
C388 C387 1.390 . S
C388 C389 1.394 . S
C388 C394 1.465 . S
C389 C384 1.399 . S
C389 C388 1.394 . S
C389 C390 1.516 . S
C390 C389 1.516 . S
C390 C391 1.502 . S
C390 C392 1.561 . S
C390 C393 1.526 . S
C391 H375 0.959 . S
C391 H376 0.959 . S
C391 H377 0.961 . S
C391 C390 1.502 . S
C392 H378 0.960 . S
C392 H379 0.961 . S
C392 H380 0.959 . S
C392 C390 1.561 . S
C393 C390 1.526 . S
C393 C394 1.396 . S
C393 C398 1.390 . S
C394 C388 1.465 . S
C394 C393 1.396 . S
C394 C395 1.399 . S
C395 H381 0.929 . S
C395 C394 1.399 . S
C395 C396 1.385 . S
C396 H382 0.931 . S
C396 C395 1.385 . S
C396 C397 1.389 . S
C397 C396 1.389 . S
C397 C398 1.387 . S
C398 H383 0.930 . S
C398 C393 1.390 . S
C398 C397 1.387 . S
H399 C411 0.930 . S
H400 C413 0.930 . S
H401 C414 0.930 . S
H402 C418 0.959 . S
H403 C418 0.959 . S
H404 C418 0.961 . S
H405 C419 0.960 . S
H406 C419 0.961 . S
H407 C419 0.959 . S
H408 C422 0.929 . S
H409 C423 0.931 . S
H410 C425 0.930 . S
C411 H399 0.930 . S
C411 C412 1.399 . S
C411 C416 1.399 . S
C412 C411 1.399 . S
C412 C413 1.376 . S
C413 H400 0.930 . S
C413 C412 1.376 . S
C413 C414 1.388 . S
C414 H401 0.930 . S
C414 C413 1.388 . S
C414 C415 1.390 . S
C415 C414 1.390 . S
C415 C416 1.394 . S
C415 C421 1.465 . S
C416 C411 1.399 . S
C416 C415 1.394 . S
C416 C417 1.516 . S
C417 C416 1.516 . S
C417 C418 1.502 . S
C417 C419 1.561 . S
C417 C420 1.526 . S
C418 H402 0.959 . S
C418 H403 0.959 . S
C418 H404 0.961 . S
C418 C417 1.502 . S
C419 H405 0.960 . S
C419 H406 0.961 . S
C419 H407 0.959 . S
C419 C417 1.561 . S
C420 C417 1.526 . S
C420 C421 1.396 . S
C420 C425 1.390 . S
C421 C415 1.465 . S
C421 C420 1.396 . S
C421 C422 1.399 . S
C422 H408 0.929 . S
C422 C421 1.399 . S
C422 C423 1.385 . S
C423 H409 0.931 . S
C423 C422 1.385 . S
C423 C424 1.389 . S
C424 C423 1.389 . S
C424 C425 1.387 . S
C425 H410 0.930 . S
C425 C420 1.390 . S
C425 C424 1.387 . S
H426 C438 0.930 . S
H427 C440 0.930 . S
H428 C441 0.930 . S
H429 C445 0.959 . S
H430 C445 0.959 . S
H431 C445 0.961 . S
H432 C446 0.960 . S
H433 C446 0.961 . S
H434 C446 0.959 . S
H435 C449 0.929 . S
H436 C450 0.931 . S
H437 C452 0.930 . S
C438 H426 0.930 . S
C438 C439 1.399 . S
C438 C443 1.399 . S
C439 C438 1.399 . S
C439 C440 1.376 . S
C440 H427 0.930 . S
C440 C439 1.376 . S
C440 C441 1.388 . S
C441 H428 0.930 . S
C441 C440 1.388 . S
C441 C442 1.390 . S
C442 C441 1.390 . S
C442 C443 1.394 . S
C442 C448 1.465 . S
C443 C438 1.399 . S
C443 C442 1.394 . S
C443 C444 1.516 . S
C444 C443 1.516 . S
C444 C445 1.502 . S
C444 C446 1.561 . S
C444 C447 1.526 . S
C445 H429 0.959 . S
C445 H430 0.959 . S
C445 H431 0.961 . S
C445 C444 1.502 . S
C446 H432 0.960 . S
C446 H433 0.961 . S
C446 H434 0.959 . S
C446 C444 1.561 . S
C447 C444 1.526 . S
C447 C448 1.396 . S
C447 C452 1.390 . S
C448 C442 1.465 . S
C448 C447 1.396 . S
C448 C449 1.399 . S
C449 H435 0.929 . S
C449 C448 1.399 . S
C449 C450 1.385 . S
C450 H436 0.931 . S
C450 C449 1.385 . S
C450 C451 1.389 . S
C451 C450 1.389 . S
C451 C452 1.387 . S
C452 H437 0.930 . S
C452 C447 1.390 . S
C452 C451 1.387 . S
H453 C465 0.930 . S
H454 C467 0.930 . S
H455 C468 0.930 . S
H456 C472 0.959 . S
H457 C472 0.959 . S
H458 C472 0.961 . S
H459 C473 0.960 . S
H460 C473 0.961 . S
H461 C473 0.959 . S
H462 C476 0.929 . S
H463 C477 0.931 . S
H464 C479 0.930 . S
C465 H453 0.930 . S
C465 C466 1.399 . S
C465 C470 1.399 . S
C466 C465 1.399 . S
C466 C467 1.376 . S
C467 H454 0.930 . S
C467 C466 1.376 . S
C467 C468 1.388 . S
C468 H455 0.930 . S
C468 C467 1.388 . S
C468 C469 1.390 . S
C469 C468 1.390 . S
C469 C470 1.394 . S
C469 C475 1.465 . S
C470 C465 1.399 . S
C470 C469 1.394 . S
C470 C471 1.516 . S
C471 C470 1.516 . S
C471 C472 1.502 . S
C471 C473 1.561 . S
C471 C474 1.526 . S
C472 H456 0.959 . S
C472 H457 0.959 . S
C472 H458 0.961 . S
C472 C471 1.502 . S
C473 H459 0.960 . S
C473 H460 0.961 . S
C473 H461 0.959 . S
C473 C471 1.561 . S
C474 C471 1.526 . S
C474 C475 1.396 . S
C474 C479 1.390 . S
C475 C469 1.465 . S
C475 C474 1.396 . S
C475 C476 1.399 . S
C476 H462 0.929 . S
C476 C475 1.399 . S
C476 C477 1.385 . S
C477 H463 0.931 . S
C477 C476 1.385 . S
C477 C478 1.389 . S
C478 C477 1.389 . S
C478 C479 1.387 . S
C479 H464 0.930 . S
C479 C474 1.390 . S
C479 C478 1.387 . S
H480 C492 0.930 . S
H481 C494 0.930 . S
H482 C495 0.930 . S
H483 C499 0.959 . S
H484 C499 0.959 . S
H485 C499 0.961 . S
H486 C500 0.960 . S
H487 C500 0.961 . S
H488 C500 0.959 . S
H489 C503 0.929 . S
H490 C504 0.931 . S
H491 C506 0.930 . S
C492 H480 0.930 . S
C492 C493 1.399 . S
C492 C497 1.399 . S
C493 C492 1.399 . S
C493 C494 1.376 . S
C494 H481 0.930 . S
C494 C493 1.376 . S
C494 C495 1.388 . S
C495 H482 0.930 . S
C495 C494 1.388 . S
C495 C496 1.390 . S
C496 C495 1.390 . S
C496 C497 1.394 . S
C496 C502 1.465 . S
C497 C492 1.399 . S
C497 C496 1.394 . S
C497 C498 1.516 . S
C498 C497 1.516 . S
C498 C499 1.502 . S
C498 C500 1.561 . S
C498 C501 1.526 . S
C499 H483 0.959 . S
C499 H484 0.959 . S
C499 H485 0.961 . S
C499 C498 1.502 . S
C500 H486 0.960 . S
C500 H487 0.961 . S
C500 H488 0.959 . S
C500 C498 1.561 . S
C501 C498 1.526 . S
C501 C502 1.396 . S
C501 C506 1.390 . S
C502 C496 1.465 . S
C502 C501 1.396 . S
C502 C503 1.399 . S
C503 H489 0.929 . S
C503 C502 1.399 . S
C503 C504 1.385 . S
C504 H490 0.931 . S
C504 C503 1.385 . S
C504 C505 1.389 . S
C505 C504 1.389 . S
C505 C506 1.387 . S
C506 H491 0.930 . S
C506 C501 1.390 . S
C506 C505 1.387 . S
H507 C519 0.930 . S
H508 C521 0.930 . S
H509 C522 0.930 . S
H510 C526 0.959 . S
H511 C526 0.959 . S
H512 C526 0.961 . S
H513 C527 0.960 . S
H514 C527 0.961 . S
H515 C527 0.959 . S
H516 C530 0.929 . S
H517 C531 0.931 . S
H518 C533 0.930 . S
C519 H507 0.930 . S
C519 C520 1.399 . S
C519 C524 1.399 . S
C520 C519 1.399 . S
C520 C521 1.376 . S
C521 H508 0.930 . S
C521 C520 1.376 . S
C521 C522 1.388 . S
C522 H509 0.930 . S
C522 C521 1.388 . S
C522 C523 1.390 . S
C523 C522 1.390 . S
C523 C524 1.394 . S
C523 C529 1.465 . S
C524 C519 1.399 . S
C524 C523 1.394 . S
C524 C525 1.516 . S
C525 C524 1.516 . S
C525 C526 1.502 . S
C525 C527 1.561 . S
C525 C528 1.526 . S
C526 H510 0.959 . S
C526 H511 0.959 . S
C526 H512 0.961 . S
C526 C525 1.502 . S
C527 H513 0.960 . S
C527 H514 0.961 . S
C527 H515 0.959 . S
C527 C525 1.561 . S
C528 C525 1.526 . S
C528 C529 1.396 . S
C528 C533 1.390 . S
C529 C523 1.465 . S
C529 C528 1.396 . S
C529 C530 1.399 . S
C530 H516 0.929 . S
C530 C529 1.399 . S
C530 C531 1.385 . S
C531 H517 0.931 . S
C531 C530 1.385 . S
C531 C532 1.389 . S
C532 C531 1.389 . S
C532 C533 1.387 . S
C533 H518 0.930 . S
C533 C528 1.390 . S
C533 C532 1.387 . S
H534 C546 0.930 . S
H535 C548 0.930 . S
H536 C549 0.930 . S
H537 C553 0.959 . S
H538 C553 0.959 . S
H539 C553 0.961 . S
H540 C554 0.960 . S
H541 C554 0.961 . S
H542 C554 0.959 . S
H543 C557 0.929 . S
H544 C558 0.931 . S
H545 C560 0.930 . S
C546 H534 0.930 . S
C546 C547 1.399 . S
C546 C551 1.399 . S
C547 C546 1.399 . S
C547 C548 1.376 . S
C548 H535 0.930 . S
C548 C547 1.376 . S
C548 C549 1.388 . S
C549 H536 0.930 . S
C549 C548 1.388 . S
C549 C550 1.390 . S
C550 C549 1.390 . S
C550 C551 1.394 . S
C550 C556 1.465 . S
C551 C546 1.399 . S
C551 C550 1.394 . S
C551 C552 1.516 . S
C552 C551 1.516 . S
C552 C553 1.502 . S
C552 C554 1.561 . S
C552 C555 1.526 . S
C553 H537 0.959 . S
C553 H538 0.959 . S
C553 H539 0.961 . S
C553 C552 1.502 . S
C554 H540 0.960 . S
C554 H541 0.961 . S
C554 H542 0.959 . S
C554 C552 1.561 . S
C555 C552 1.526 . S
C555 C556 1.396 . S
C555 C560 1.390 . S
C556 C550 1.465 . S
C556 C555 1.396 . S
C556 C557 1.399 . S
C557 H543 0.929 . S
C557 C556 1.399 . S
C557 C558 1.385 . S
C558 H544 0.931 . S
C558 C557 1.385 . S
C558 C559 1.389 . S
C559 C558 1.389 . S
C559 C560 1.387 . S
C560 H545 0.930 . S
C560 C555 1.390 . S
C560 C559 1.387 . S
H561 C573 0.930 . S
H562 C575 0.930 . S
H563 C576 0.930 . S
H564 C580 0.959 . S
H565 C580 0.959 . S
H566 C580 0.961 . S
H567 C581 0.960 . S
H568 C581 0.961 . S
H569 C581 0.959 . S
H570 C584 0.929 . S
H571 C585 0.931 . S
H572 C587 0.930 . S
C573 H561 0.930 . S
C573 C574 1.399 . S
C573 C578 1.399 . S
C574 C573 1.399 . S
C574 C575 1.376 . S
C575 H562 0.930 . S
C575 C574 1.376 . S
C575 C576 1.388 . S
C576 H563 0.930 . S
C576 C575 1.388 . S
C576 C577 1.390 . S
C577 C576 1.390 . S
C577 C578 1.394 . S
C577 C583 1.465 . S
C578 C573 1.399 . S
C578 C577 1.394 . S
C578 C579 1.516 . S
C579 C578 1.516 . S
C579 C580 1.502 . S
C579 C581 1.561 . S
C579 C582 1.526 . S
C580 H564 0.959 . S
C580 H565 0.959 . S
C580 H566 0.961 . S
C580 C579 1.502 . S
C581 H567 0.960 . S
C581 H568 0.961 . S
C581 H569 0.959 . S
C581 C579 1.561 . S
C582 C579 1.526 . S
C582 C583 1.396 . S
C582 C587 1.390 . S
C583 C577 1.465 . S
C583 C582 1.396 . S
C583 C584 1.399 . S
C584 H570 0.929 . S
C584 C583 1.399 . S
C584 C585 1.385 . S
C585 H571 0.931 . S
C585 C584 1.385 . S
C585 C586 1.389 . S
C586 C585 1.389 . S
C586 C587 1.387 . S
C587 H572 0.930 . S
C587 C582 1.390 . S
C587 C586 1.387 . S
H588 C600 0.930 . S
H589 C602 0.930 . S
H590 C603 0.930 1_545 S
H591 C607 0.959 . S
H592 C607 0.959 . S
H593 C607 0.961 . S
H594 C608 0.960 . S
H595 C608 0.961 . S
H596 C608 0.959 . S
H597 C611 0.929 . S
H598 C612 0.931 . S
H599 C614 0.930 . S
C600 H588 0.930 . S
C600 C601 1.399 . S
C600 C605 1.399 . S
C601 C600 1.399 . S
C601 C602 1.376 . S
C602 H589 0.930 . S
C602 C601 1.376 . S
C602 C603 1.388 . S
C603 H590 0.930 1_565 S
C603 C602 1.388 . S
C603 C604 1.390 . S
C604 C603 1.390 . S
C604 C605 1.394 . S
C604 C610 1.465 1_565 S
C605 C600 1.399 . S
C605 C604 1.394 . S
C605 C606 1.516 . S
C606 C605 1.516 . S
C606 C607 1.502 . S
C606 C608 1.561 . S
C606 C609 1.526 1_565 S
C607 H591 0.959 . S
C607 H592 0.959 . S
C607 H593 0.961 . S
C607 C606 1.502 . S
C608 H594 0.960 . S
C608 H595 0.961 . S
C608 H596 0.959 . S
C608 C606 1.561 . S
C609 C606 1.526 1_545 S
C609 C610 1.396 . S
C609 C614 1.390 . S
C610 C604 1.465 1_545 S
C610 C609 1.396 . S
C610 C611 1.399 . S
C611 H597 0.929 . S
C611 C610 1.399 . S
C611 C612 1.385 . S
C612 H598 0.931 . S
C612 C611 1.385 . S
C612 C613 1.389 . S
C613 C612 1.389 . S
C613 C614 1.387 . S
C614 H599 0.930 . S
C614 C609 1.390 . S
C614 C613 1.387 . S
H615 C627 0.930 . S
H616 C629 0.930 . S
H617 C630 0.930 . S
H618 C634 0.959 . S
H619 C634 0.959 . S
H620 C634 0.961 . S
H621 C635 0.960 . S
H622 C635 0.961 . S
H623 C635 0.959 . S
H624 C638 0.929 . S
H625 C639 0.931 . S
H626 C641 0.930 . S
C627 H615 0.930 . S
C627 C628 1.399 . S
C627 C632 1.399 . S
C628 C627 1.399 . S
C628 C629 1.376 . S
C629 H616 0.930 . S
C629 C628 1.376 . S
C629 C630 1.388 . S
C630 H617 0.930 . S
C630 C629 1.388 . S
C630 C631 1.390 . S
C631 C630 1.390 . S
C631 C632 1.394 . S
C631 C637 1.465 . S
C632 C627 1.399 . S
C632 C631 1.394 . S
C632 C633 1.516 . S
C633 C632 1.516 . S
C633 C634 1.502 . S
C633 C635 1.561 . S
C633 C636 1.526 . S
C634 H618 0.959 . S
C634 H619 0.959 . S
C634 H620 0.961 . S
C634 C633 1.502 . S
C635 H621 0.960 . S
C635 H622 0.961 . S
C635 H623 0.959 . S
C635 C633 1.561 . S
C636 C633 1.526 . S
C636 C637 1.396 . S
C636 C641 1.390 . S
C637 C631 1.465 . S
C637 C636 1.396 . S
C637 C638 1.399 . S
C638 H624 0.929 . S
C638 C637 1.399 . S
C638 C639 1.385 . S
C639 H625 0.931 . S
C639 C638 1.385 . S
C639 C640 1.389 . S
C640 C639 1.389 . S
C640 C641 1.387 . S
C641 H626 0.930 . S
C641 C636 1.390 . S
C641 C640 1.387 . S
H642 C654 0.930 . S
H643 C656 0.930 . S
H644 C657 0.930 . S
H645 C661 0.959 . S
H646 C661 0.959 1_655 S
H647 C661 0.961 . S
H648 C662 0.960 . S
H649 C662 0.961 . S
H650 C662 0.959 . S
H651 C665 0.929 . S
H652 C666 0.931 . S
H653 C668 0.930 . S
C654 H642 0.930 . S
C654 C655 1.399 . S
C654 C659 1.399 . S
C655 C654 1.399 . S
C655 C656 1.376 . S
C656 H643 0.930 . S
C656 C655 1.376 . S
C656 C657 1.388 . S
C657 H644 0.930 . S
C657 C656 1.388 . S
C657 C658 1.390 . S
C658 C657 1.390 . S
C658 C659 1.394 . S
C658 C664 1.465 1_455 S
C659 C654 1.399 . S
C659 C658 1.394 . S
C659 C660 1.516 1_455 S
C660 C659 1.516 1_655 S
C660 C661 1.502 1_655 S
C660 C662 1.561 . S
C660 C663 1.526 . S
C661 H645 0.959 . S
C661 H646 0.959 1_455 S
C661 H647 0.961 . S
C661 C660 1.502 1_455 S
C662 H648 0.960 . S
C662 H649 0.961 . S
C662 H650 0.959 . S
C662 C660 1.561 . S
C663 C660 1.526 . S
C663 C664 1.396 . S
C663 C668 1.390 . S
C664 C658 1.465 1_655 S
C664 C663 1.396 . S
C664 C665 1.399 . S
C665 H651 0.929 . S
C665 C664 1.399 . S
C665 C666 1.385 . S
C666 H652 0.931 . S
C666 C665 1.385 . S
C666 C667 1.389 . S
C667 C666 1.389 . S
C667 C668 1.387 . S
C668 H653 0.930 . S
C668 C663 1.390 . S
C668 C667 1.387 . S
H669 C681 0.930 . S
H670 C683 0.930 . S
H671 C684 0.930 1_545 S
H672 C688 0.959 . S
H673 C688 0.959 . S
H674 C688 0.961 . S
H675 C689 0.960 . S
H676 C689 0.961 . S
H677 C689 0.959 . S
H678 C692 0.929 . S
H679 C693 0.931 . S
H680 C695 0.930 . S
C681 H669 0.930 . S
C681 C682 1.399 . S
C681 C686 1.399 . S
C682 C681 1.399 . S
C682 C683 1.376 . S
C683 H670 0.930 . S
C683 C682 1.376 . S
C683 C684 1.388 . S
C684 H671 0.930 1_565 S
C684 C683 1.388 . S
C684 C685 1.390 . S
C685 C684 1.390 . S
C685 C686 1.394 . S
C685 C691 1.465 1_565 S
C686 C681 1.399 . S
C686 C685 1.394 . S
C686 C687 1.516 . S
C687 C686 1.516 . S
C687 C688 1.502 . S
C687 C689 1.561 . S
C687 C690 1.526 1_565 S
C688 H672 0.959 . S
C688 H673 0.959 . S
C688 H674 0.961 . S
C688 C687 1.502 . S
C689 H675 0.960 . S
C689 H676 0.961 . S
C689 H677 0.959 . S
C689 C687 1.561 . S
C690 C687 1.526 1_545 S
C690 C691 1.396 . S
C690 C695 1.390 . S
C691 C685 1.465 1_545 S
C691 C690 1.396 . S
C691 C692 1.399 . S
C692 H678 0.929 . S
C692 C691 1.399 . S
C692 C693 1.385 . S
C693 H679 0.931 . S
C693 C692 1.385 . S
C693 C694 1.389 . S
C694 C693 1.389 . S
C694 C695 1.387 . S
C695 H680 0.930 . S
C695 C690 1.390 . S
C695 C694 1.387 . S
H696 C708 0.930 . S
H697 C710 0.930 . S
H698 C711 0.930 . S
H699 C715 0.959 . S
H700 C715 0.959 . S
H701 C715 0.961 . S
H702 C716 0.960 . S
H703 C716 0.961 . S
H704 C716 0.959 . S
H705 C719 0.929 . S
H706 C720 0.931 . S
H707 C722 0.930 . S
C708 H696 0.930 . S
C708 C709 1.399 . S
C708 C713 1.399 . S
C709 C708 1.399 . S
C709 C710 1.376 . S
C710 H697 0.930 . S
C710 C709 1.376 . S
C710 C711 1.388 . S
C711 H698 0.930 . S
C711 C710 1.388 . S
C711 C712 1.390 . S
C712 C711 1.390 . S
C712 C713 1.394 . S
C712 C718 1.465 . S
C713 C708 1.399 . S
C713 C712 1.394 . S
C713 C714 1.516 . S
C714 C713 1.516 . S
C714 C715 1.502 . S
C714 C716 1.561 . S
C714 C717 1.526 . S
C715 H699 0.959 . S
C715 H700 0.959 . S
C715 H701 0.961 . S
C715 C714 1.502 . S
C716 H702 0.960 . S
C716 H703 0.961 . S
C716 H704 0.959 . S
C716 C714 1.561 . S
C717 C714 1.526 . S
C717 C718 1.396 . S
C717 C722 1.390 . S
C718 C712 1.465 . S
C718 C717 1.396 . S
C718 C719 1.399 . S
C719 H705 0.929 . S
C719 C718 1.399 . S
C719 C720 1.385 . S
C720 H706 0.931 . S
C720 C719 1.385 . S
C720 C721 1.389 . S
C721 C720 1.389 . S
C721 C722 1.387 . S
C722 H707 0.930 . S
C722 C717 1.390 . S
C722 C721 1.387 . S
H723 C735 0.930 . S
H724 C737 0.930 . S
H725 C738 0.930 . S
H726 C742 0.959 . S
H727 C742 0.959 1_455 S
H728 C742 0.961 . S
H729 C743 0.960 . S
H730 C743 0.961 . S
H731 C743 0.959 . S
H732 C746 0.929 . S
H733 C747 0.931 . S
H734 C749 0.930 . S
C735 H723 0.930 . S
C735 C736 1.399 . S
C735 C740 1.399 . S
C736 C735 1.399 . S
C736 C737 1.376 . S
C737 H724 0.930 . S
C737 C736 1.376 . S
C737 C738 1.388 . S
C738 H725 0.930 . S
C738 C737 1.388 . S
C738 C739 1.390 . S
C739 C738 1.390 . S
C739 C740 1.394 . S
C739 C745 1.465 1_655 S
C740 C735 1.399 . S
C740 C739 1.394 . S
C740 C741 1.516 1_655 S
C741 C740 1.516 1_455 S
C741 C742 1.502 1_455 S
C741 C743 1.561 . S
C741 C744 1.526 . S
C742 H726 0.959 . S
C742 H727 0.959 1_655 S
C742 H728 0.961 . S
C742 C741 1.502 1_655 S
C743 H729 0.960 . S
C743 H730 0.961 . S
C743 H731 0.959 . S
C743 C741 1.561 . S
C744 C741 1.526 . S
C744 C745 1.396 . S
C744 C749 1.390 . S
C745 C739 1.465 1_455 S
C745 C744 1.396 . S
C745 C746 1.399 . S
C746 H732 0.929 . S
C746 C745 1.399 . S
C746 C747 1.385 . S
C747 H733 0.931 . S
C747 C746 1.385 . S
C747 C748 1.389 . S
C748 C747 1.389 . S
C748 C749 1.387 . S
C749 H734 0.930 . S
C749 C744 1.390 . S
C749 C748 1.387 . S
H750 C762 0.930 . S
H751 C764 0.930 . S
H752 C765 0.930 . S
H753 C769 0.959 . S
H754 C769 0.959 . S
H755 C769 0.961 . S
H756 C770 0.960 . S
H757 C770 0.961 . S
H758 C770 0.959 . S
H759 C773 0.929 1_545 S
H760 C774 0.931 . S
H761 C776 0.930 . S
C762 H750 0.930 . S
C762 C763 1.399 . S
C762 C767 1.399 . S
C763 C762 1.399 . S
C763 C764 1.376 . S
C764 H751 0.930 . S
C764 C763 1.376 . S
C764 C765 1.388 . S
C765 H752 0.930 . S
C765 C764 1.388 . S
C765 C766 1.390 . S
C766 C765 1.390 . S
C766 C767 1.394 . S
C766 C772 1.465 1_545 S
C767 C762 1.399 . S
C767 C766 1.394 . S
C767 C768 1.516 1_545 S
C768 C767 1.516 1_565 S
C768 C769 1.502 . S
C768 C770 1.561 . S
C768 C771 1.526 . S
C769 H753 0.959 . S
C769 H754 0.959 . S
C769 H755 0.961 . S
C769 C768 1.502 . S
C770 H756 0.960 . S
C770 H757 0.961 . S
C770 H758 0.959 . S
C770 C768 1.561 . S
C771 C768 1.526 . S
C771 C772 1.396 . S
C771 C776 1.390 . S
C772 C766 1.465 1_565 S
C772 C771 1.396 . S
C772 C773 1.399 . S
C773 H759 0.929 1_565 S
C773 C772 1.399 . S
C773 C774 1.385 . S
C774 H760 0.931 . S
C774 C773 1.385 . S
C774 C775 1.389 . S
C775 C774 1.389 . S
C775 C776 1.387 . S
C776 H761 0.930 . S
C776 C771 1.390 . S
C776 C775 1.387 . S
H777 C789 0.930 . S
H778 C791 0.930 . S
H779 C792 0.930 . S
H780 C796 0.959 . S
H781 C796 0.959 . S
H782 C796 0.961 . S
H783 C797 0.960 . S
H784 C797 0.961 . S
H785 C797 0.959 . S
H786 C800 0.929 . S
H787 C801 0.931 . S
H788 C803 0.930 . S
C789 H777 0.930 . S
C789 C790 1.399 . S
C789 C794 1.399 . S
C790 C789 1.399 . S
C790 C791 1.376 . S
C791 H778 0.930 . S
C791 C790 1.376 . S
C791 C792 1.388 . S
C792 H779 0.930 . S
C792 C791 1.388 . S
C792 C793 1.390 . S
C793 C792 1.390 . S
C793 C794 1.394 . S
C793 C799 1.465 . S
C794 C789 1.399 . S
C794 C793 1.394 . S
C794 C795 1.516 . S
C795 C794 1.516 . S
C795 C796 1.502 . S
C795 C797 1.561 . S
C795 C798 1.526 . S
C796 H780 0.959 . S
C796 H781 0.959 . S
C796 H782 0.961 . S
C796 C795 1.502 . S
C797 H783 0.960 . S
C797 H784 0.961 . S
C797 H785 0.959 . S
C797 C795 1.561 . S
C798 C795 1.526 . S
C798 C799 1.396 . S
C798 C803 1.390 . S
C799 C793 1.465 . S
C799 C798 1.396 . S
C799 C800 1.399 . S
C800 H786 0.929 . S
C800 C799 1.399 . S
C800 C801 1.385 . S
C801 H787 0.931 . S
C801 C800 1.385 . S
C801 C802 1.389 . S
C802 C801 1.389 . S
C802 C803 1.387 . S
C803 H788 0.930 . S
C803 C798 1.390 . S
C803 C802 1.387 . S
H804 C816 0.930 . S
H805 C818 0.930 . S
H806 C819 0.930 . S
H807 C823 0.959 . S
H808 C823 0.959 . S
H809 C823 0.961 . S
H810 C824 0.960 . S
H811 C824 0.961 . S
H812 C824 0.977 . S
H813 C827 0.929 1_655 S
H814 C828 0.931 . S
H815 C830 0.930 . S
C816 H804 0.930 . S
C816 C817 1.399 . S
C816 C821 1.399 . S
C817 C816 1.399 . S
C817 C818 1.376 . S
C818 H805 0.930 . S
C818 C817 1.376 . S
C818 C819 1.388 . S
C819 H806 0.930 . S
C819 C818 1.388 . S
C819 C820 1.390 . S
C820 C819 1.390 . S
C820 C821 1.394 . S
C820 C826 1.465 1_655 S
C821 C816 1.399 . S
C821 C820 1.394 . S
C821 C822 1.516 1_655 S
C822 C821 1.516 1_455 S
C822 C823 1.502 . S
C822 C824 1.561 . S
C822 C825 1.526 . S
C823 H807 0.959 . S
C823 H808 0.959 . S
C823 H809 0.961 . S
C823 C822 1.502 . S
C824 H810 0.960 . S
C824 H811 0.961 . S
C824 H812 0.977 . S
C824 C822 1.561 . S
C825 C822 1.526 . S
C825 C826 1.396 . S
C825 C830 1.390 . S
C826 C820 1.465 1_455 S
C826 C825 1.396 . S
C826 C827 1.399 . S
C827 H813 0.929 1_455 S
C827 C826 1.399 . S
C827 C828 1.385 . S
C828 H814 0.931 . S
C828 C827 1.385 . S
C828 C829 1.389 . S
C829 C828 1.389 . S
C829 C830 1.387 . S
C830 H815 0.930 . S
C830 C825 1.390 . S
C830 C829 1.387 . S
H831 C843 0.930 . S
H832 C845 0.930 . S
H833 C846 0.930 1_545 S
H834 C850 0.959 . S
H835 C850 0.959 . S
H836 C850 0.961 . S
H837 C851 0.960 . S
H838 C851 0.961 . S
H839 C851 0.959 . S
H840 C854 0.929 . S
H841 C855 0.931 . S
H842 C857 0.930 . S
C843 H831 0.930 . S
C843 C844 1.399 . S
C843 C848 1.399 . S
C844 C843 1.399 . S
C844 C845 1.376 . S
C845 H832 0.930 . S
C845 C844 1.376 . S
C845 C846 1.388 . S
C846 H833 0.930 1_565 S
C846 C845 1.388 . S
C846 C847 1.390 . S
C847 C846 1.390 . S
C847 C848 1.394 . S
C847 C853 1.465 1_565 S
C848 C843 1.399 . S
C848 C847 1.394 . S
C848 C849 1.516 . S
C849 C848 1.516 . S
C849 C850 1.502 . S
C849 C851 1.561 . S
C849 C852 1.526 1_565 S
C850 H834 0.959 . S
C850 H835 0.959 . S
C850 H836 0.961 . S
C850 C849 1.502 . S
C851 H837 0.960 . S
C851 H838 0.961 . S
C851 H839 0.959 . S
C851 C849 1.561 . S
C852 C849 1.526 1_545 S
C852 C853 1.396 . S
C852 C857 1.390 . S
C853 C847 1.465 1_545 S
C853 C852 1.396 . S
C853 C854 1.399 . S
C854 H840 0.929 . S
C854 C853 1.399 . S
C854 C855 1.385 . S
C855 H841 0.931 . S
C855 C854 1.385 . S
C855 C856 1.389 . S
C856 C855 1.389 . S
C856 C857 1.387 . S
C857 H842 0.930 . S
C857 C852 1.390 . S
C857 C856 1.387 . S
H858 C870 0.930 . S
H859 C872 0.930 . S
H860 C873 0.930 . S
H861 C877 0.959 . S
H862 C877 0.959 . S
H863 C877 0.961 . S
H864 C878 0.960 . S
H865 C878 0.961 . S
H866 C878 0.959 . S
H867 C881 0.929 . S
H868 C882 0.931 . S
H869 C884 0.930 . S
C870 H858 0.930 . S
C870 C871 1.399 . S
C870 C875 1.399 . S
C871 C870 1.399 . S
C871 C872 1.376 . S
C872 H859 0.930 . S
C872 C871 1.376 . S
C872 C873 1.388 . S
C873 H860 0.930 . S
C873 C872 1.388 . S
C873 C874 1.390 . S
C874 C873 1.390 . S
C874 C875 1.394 . S
C874 C880 1.465 . S
C875 C870 1.399 . S
C875 C874 1.394 . S
C875 C876 1.516 . S
C876 C875 1.516 . S
C876 C877 1.502 . S
C876 C878 1.561 . S
C876 C879 1.526 . S
C877 H861 0.959 . S
C877 H862 0.959 . S
C877 H863 0.961 . S
C877 C876 1.502 . S
C878 H864 0.960 . S
C878 H865 0.961 . S
C878 H866 0.959 . S
C878 C876 1.561 . S
C879 C876 1.526 . S
C879 C880 1.396 . S
C879 C884 1.390 . S
C880 C874 1.465 . S
C880 C879 1.396 . S
C880 C881 1.399 . S
C881 H867 0.929 . S
C881 C880 1.399 . S
C881 C882 1.385 . S
C882 H868 0.931 . S
C882 C881 1.385 . S
C882 C883 1.389 . S
C883 C882 1.389 . S
C883 C884 1.387 . S
C884 H869 0.930 . S
C884 C879 1.390 . S
C884 C883 1.387 . S
H885 C897 0.930 . S
H886 C899 0.930 . S
H887 C900 0.930 . S
H888 C904 0.959 . S
H889 C904 0.959 . S
H890 C904 0.961 . S
H891 C905 0.960 . S
H892 C905 0.961 . S
H893 C905 0.959 . S
H894 C908 0.929 1_655 S
H895 C909 0.931 . S
H896 C911 0.930 . S
C897 H885 0.930 . S
C897 C898 1.399 . S
C897 C902 1.399 . S
C898 C897 1.399 . S
C898 C899 1.376 . S
C899 H886 0.930 . S
C899 C898 1.376 . S
C899 C900 1.388 . S
C900 H887 0.930 . S
C900 C899 1.388 . S
C900 C901 1.390 . S
C901 C900 1.390 . S
C901 C902 1.394 . S
C901 C907 1.465 1_655 S
C902 C897 1.399 . S
C902 C901 1.394 . S
C902 C903 1.516 1_655 S
C903 C902 1.516 1_455 S
C903 C904 1.502 . S
C903 C905 1.561 . S
C903 C906 1.526 . S
C904 H888 0.959 . S
C904 H889 0.959 . S
C904 H890 0.961 . S
C904 C903 1.502 . S
C905 H891 0.960 . S
C905 H892 0.961 . S
C905 H893 0.959 . S
C905 C903 1.561 . S
C906 C903 1.526 . S
C906 C907 1.396 . S
C906 C911 1.390 . S
C907 C901 1.465 1_455 S
C907 C906 1.396 . S
C907 C908 1.399 . S
C908 H894 0.929 1_455 S
C908 C907 1.399 . S
C908 C909 1.385 . S
C909 H895 0.931 . S
C909 C908 1.385 . S
C909 C910 1.389 . S
C910 C909 1.389 . S
C910 C911 1.387 . S
C911 H896 0.930 . S
C911 C906 1.390 . S
C911 C910 1.387 . S
H912 C924 0.930 . S
H913 C926 0.930 . S
H914 C927 0.930 . S
H915 C931 0.959 . S
H916 C931 0.959 . S
H917 C931 0.961 . S
H918 C932 0.960 . S
H919 C932 0.961 . S
H920 C932 0.959 . S
H921 C935 0.929 . S
H922 C936 0.931 . S
H923 C938 0.930 . S
C924 H912 0.930 . S
C924 C925 1.399 . S
C924 C929 1.399 . S
C925 C924 1.399 . S
C925 C926 1.376 . S
C926 H913 0.930 . S
C926 C925 1.376 . S
C926 C927 1.388 . S
C927 H914 0.930 . S
C927 C926 1.388 . S
C927 C928 1.390 . S
C928 C927 1.390 . S
C928 C929 1.394 . S
C928 C934 1.465 . S
C929 C924 1.399 . S
C929 C928 1.394 . S
C929 C930 1.516 . S
C930 C929 1.516 . S
C930 C931 1.502 . S
C930 C932 1.561 . S
C930 C933 1.526 . S
C931 H915 0.959 . S
C931 H916 0.959 . S
C931 H917 0.961 . S
C931 C930 1.502 . S
C932 H918 0.960 . S
C932 H919 0.961 . S
C932 H920 0.959 . S
C932 C930 1.561 . S
C933 C930 1.526 . S
C933 C934 1.396 . S
C933 C938 1.390 . S
C934 C928 1.465 . S
C934 C933 1.396 . S
C934 C935 1.399 . S
C935 H921 0.929 . S
C935 C934 1.399 . S
C935 C936 1.385 . S
C936 H922 0.931 . S
C936 C935 1.385 . S
C936 C937 1.389 . S
C937 C936 1.389 . S
C937 C938 1.387 . S
C938 H923 0.930 . S
C938 C933 1.390 . S
C938 C937 1.387 . S
H939 C951 0.930 . S
H940 C953 0.930 . S
H941 C954 0.930 . S
H942 C958 0.959 . S
H943 C958 0.959 . S
H944 C958 0.961 . S
H945 C959 0.960 . S
H946 C959 0.961 . S
H947 C959 0.959 . S
H948 C962 0.929 . S
H949 C963 0.931 . S
H950 C965 0.930 . S
C951 H939 0.930 . S
C951 C952 1.399 . S
C951 C956 1.399 . S
C952 C951 1.399 . S
C952 C953 1.376 . S
C953 H940 0.930 . S
C953 C952 1.376 . S
C953 C954 1.388 . S
C954 H941 0.930 . S
C954 C953 1.388 . S
C954 C955 1.390 . S
C955 C954 1.390 . S
C955 C956 1.394 . S
C955 C961 1.465 . S
C956 C951 1.399 . S
C956 C955 1.394 . S
C956 C957 1.516 . S
C957 C956 1.516 . S
C957 C958 1.502 . S
C957 C959 1.561 . S
C957 C960 1.526 . S
C958 H942 0.959 . S
C958 H943 0.959 . S
C958 H944 0.961 . S
C958 C957 1.502 . S
C959 H945 0.960 . S
C959 H946 0.961 . S
C959 H947 0.959 . S
C959 C957 1.561 . S
C960 C957 1.526 . S
C960 C961 1.396 . S
C960 C965 1.390 . S
C961 C955 1.465 . S
C961 C960 1.396 . S
C961 C962 1.399 . S
C962 H948 0.929 . S
C962 C961 1.399 . S
C962 C963 1.385 . S
C963 H949 0.931 . S
C963 C962 1.385 . S
C963 C964 1.389 . S
C964 C963 1.389 . S
C964 C965 1.387 . S
C965 H950 0.930 . S
C965 C960 1.390 . S
C965 C964 1.387 . S
H966 C978 0.930 . S
H967 C980 0.930 . S
H968 C981 0.930 . S
H969 C985 0.959 . S
H970 C985 0.959 . S
H971 C985 0.961 . S
H972 C986 0.960 . S
H973 C986 0.961 . S
H974 C986 0.959 . S
H975 C989 0.929 . S
H976 C990 0.931 . S
H977 C992 0.930 . S
C978 H966 0.930 . S
C978 C979 1.399 . S
C978 C983 1.399 . S
C979 C978 1.399 . S
C979 C980 1.376 . S
C980 H967 0.930 . S
C980 C979 1.376 . S
C980 C981 1.388 . S
C981 H968 0.930 . S
C981 C980 1.388 . S
C981 C982 1.390 . S
C982 C981 1.390 . S
C982 C983 1.394 . S
C982 C988 1.465 . S
C983 C978 1.399 . S
C983 C982 1.394 . S
C983 C984 1.516 . S
C984 C983 1.516 . S
C984 C985 1.502 . S
C984 C986 1.561 . S
C984 C987 1.526 . S
C985 H969 0.959 . S
C985 H970 0.959 . S
C985 H971 0.961 . S
C985 C984 1.502 . S
C986 H972 0.960 . S
C986 H973 0.961 . S
C986 H974 0.959 . S
C986 C984 1.561 . S
C987 C984 1.526 . S
C987 C988 1.396 . S
C987 C992 1.390 . S
C988 C982 1.465 . S
C988 C987 1.396 . S
C988 C989 1.399 . S
C989 H975 0.929 . S
C989 C988 1.399 . S
C989 C990 1.385 . S
C990 H976 0.931 . S
C990 C989 1.385 . S
C990 C991 1.389 . S
C991 C990 1.389 . S
C991 C992 1.387 . S
C992 H977 0.930 . S
C992 C987 1.390 . S
C992 C991 1.387 . S
H993 C1005 0.930 . S
H994 C1007 0.930 . S
H995 C1008 0.930 . S
H996 C1012 0.959 . S
H997 C1012 0.959 . S
H998 C1012 0.961 . S
H999 C1013 0.960 . S
H1000 C1013 0.961 . S
H1001 C1013 0.959 . S
H1002 C1016 0.929 . S
H1003 C1017 0.931 . S
H1004 C1019 0.930 . S
C1005 H993 0.930 . S
C1005 C1006 1.399 . S
C1005 C1010 1.399 . S
C1006 C1005 1.399 . S
C1006 C1007 1.376 . S
C1007 H994 0.930 . S
C1007 C1006 1.376 . S
C1007 C1008 1.388 . S
C1008 H995 0.930 . S
C1008 C1007 1.388 . S
C1008 C1009 1.390 . S
C1009 C1008 1.390 . S
C1009 C1010 1.394 . S
C1009 C1015 1.465 . S
C1010 C1005 1.399 . S
C1010 C1009 1.394 . S
C1010 C1011 1.516 . S
C1011 C1010 1.516 . S
C1011 C1012 1.502 . S
C1011 C1013 1.561 . S
C1011 C1014 1.526 . S
C1012 H996 0.959 . S
C1012 H997 0.959 . S
C1012 H998 0.961 . S
C1012 C1011 1.502 . S
C1013 H999 0.960 . S
C1013 H1000 0.961 . S
C1013 H1001 0.959 . S
C1013 C1011 1.561 . S
C1014 C1011 1.526 . S
C1014 C1015 1.396 . S
C1014 C1019 1.390 . S
C1015 C1009 1.465 . S
C1015 C1014 1.396 . S
C1015 C1016 1.399 . S
C1016 H1002 0.929 . S
C1016 C1015 1.399 . S
C1016 C1017 1.385 . S
C1017 H1003 0.931 . S
C1017 C1016 1.385 . S
C1017 C1018 1.389 . S
C1018 C1017 1.389 . S
C1018 C1019 1.387 . S
C1019 H1004 0.930 . S
C1019 C1014 1.390 . S
C1019 C1018 1.387 . S
H1020 C1032 0.930 . S
H1021 C1034 0.930 . S
H1022 C1035 0.930 . S
H1023 C1039 0.959 . S
H1024 C1039 0.959 . S
H1025 C1039 0.961 . S
H1026 C1040 0.960 . S
H1027 C1040 0.961 . S
H1028 C1040 0.959 . S
H1029 C1043 0.929 . S
H1030 C1044 0.931 . S
H1031 C1046 0.930 . S
C1032 H1020 0.930 . S
C1032 C1033 1.399 . S
C1032 C1037 1.399 . S
C1033 C1032 1.399 . S
C1033 C1034 1.376 . S
C1034 H1021 0.930 . S
C1034 C1033 1.376 . S
C1034 C1035 1.388 . S
C1035 H1022 0.930 . S
C1035 C1034 1.388 . S
C1035 C1036 1.390 . S
C1036 C1035 1.390 . S
C1036 C1037 1.394 . S
C1036 C1042 1.465 . S
C1037 C1032 1.399 . S
C1037 C1036 1.394 . S
C1037 C1038 1.516 . S
C1038 C1037 1.516 . S
C1038 C1039 1.502 . S
C1038 C1040 1.561 . S
C1038 C1041 1.526 . S
C1039 H1023 0.959 . S
C1039 H1024 0.959 . S
C1039 H1025 0.961 . S
C1039 C1038 1.502 . S
C1040 H1026 0.960 . S
C1040 H1027 0.961 . S
C1040 H1028 0.959 . S
C1040 C1038 1.561 . S
C1041 C1038 1.526 . S
C1041 C1042 1.396 . S
C1041 C1046 1.390 . S
C1042 C1036 1.465 . S
C1042 C1041 1.396 . S
C1042 C1043 1.399 . S
C1043 H1029 0.929 . S
C1043 C1042 1.399 . S
C1043 C1044 1.385 . S
C1044 H1030 0.931 . S
C1044 C1043 1.385 . S
C1044 C1045 1.389 . S
C1045 C1044 1.389 . S
C1045 C1046 1.387 . S
C1046 H1031 0.930 . S
C1046 C1041 1.390 . S
C1046 C1045 1.387 . S
H1047 C1059 0.930 . S
H1048 C1061 0.930 . S
H1049 C1062 0.930 . S
H1050 C1066 0.959 . S
H1051 C1066 0.959 . S
H1052 C1066 0.961 . S
H1053 C1067 0.960 . S
H1054 C1067 0.961 . S
H1055 C1067 0.959 . S
H1056 C1070 0.929 . S
H1057 C1071 0.931 . S
H1058 C1073 0.930 . S
C1059 H1047 0.930 . S
C1059 C1060 1.399 . S
C1059 C1064 1.399 . S
C1060 C1059 1.399 . S
C1060 C1061 1.376 . S
C1061 H1048 0.930 . S
C1061 C1060 1.376 . S
C1061 C1062 1.388 . S
C1062 H1049 0.930 . S
C1062 C1061 1.388 . S
C1062 C1063 1.390 . S
C1063 C1062 1.390 . S
C1063 C1064 1.394 . S
C1063 C1069 1.465 . S
C1064 C1059 1.399 . S
C1064 C1063 1.394 . S
C1064 C1065 1.516 . S
C1065 C1064 1.516 . S
C1065 C1066 1.502 . S
C1065 C1067 1.561 . S
C1065 C1068 1.526 . S
C1066 H1050 0.959 . S
C1066 H1051 0.959 . S
C1066 H1052 0.961 . S
C1066 C1065 1.502 . S
C1067 H1053 0.960 . S
C1067 H1054 0.961 . S
C1067 H1055 0.959 . S
C1067 C1065 1.561 . S
C1068 C1065 1.526 . S
C1068 C1069 1.396 . S
C1068 C1073 1.390 . S
C1069 C1063 1.465 . S
C1069 C1068 1.396 . S
C1069 C1070 1.399 . S
C1070 H1056 0.929 . S
C1070 C1069 1.399 . S
C1070 C1071 1.385 . S
C1071 H1057 0.931 . S
C1071 C1070 1.385 . S
C1071 C1072 1.389 . S
C1072 C1071 1.389 . S
C1072 C1073 1.387 . S
C1073 H1058 0.930 . S
C1073 C1068 1.390 . S
C1073 C1072 1.387 . S
H1074 C1086 0.930 . S
H1075 C1088 0.930 . S
H1076 C1089 0.930 . S
H1077 C1093 0.959 . S
H1078 C1093 0.959 . S
H1079 C1093 0.961 . S
H1080 C1094 0.960 . S
H1081 C1094 0.961 . S
H1082 C1094 0.959 . S
H1083 C1097 0.929 . S
H1084 C1098 0.931 . S
H1085 C1100 0.930 . S
C1086 H1074 0.930 . S
C1086 C1087 1.399 . S
C1086 C1091 1.399 . S
C1087 C1086 1.399 . S
C1087 C1088 1.376 . S
C1088 H1075 0.930 . S
C1088 C1087 1.376 . S
C1088 C1089 1.388 . S
C1089 H1076 0.930 . S
C1089 C1088 1.388 . S
C1089 C1090 1.390 . S
C1090 C1089 1.390 . S
C1090 C1091 1.394 . S
C1090 C1096 1.465 . S
C1091 C1086 1.399 . S
C1091 C1090 1.394 . S
C1091 C1092 1.516 . S
C1092 C1091 1.516 . S
C1092 C1093 1.502 . S
C1092 C1094 1.561 . S
C1092 C1095 1.526 . S
C1093 H1077 0.959 . S
C1093 H1078 0.959 . S
C1093 H1079 0.961 . S
C1093 C1092 1.502 . S
C1094 H1080 0.960 . S
C1094 H1081 0.961 . S
C1094 H1082 0.959 . S
C1094 C1092 1.561 . S
C1095 C1092 1.526 . S
C1095 C1096 1.396 . S
C1095 C1100 1.390 . S
C1096 C1090 1.465 . S
C1096 C1095 1.396 . S
C1096 C1097 1.399 . S
C1097 H1083 0.929 . S
C1097 C1096 1.399 . S
C1097 C1098 1.385 . S
C1098 H1084 0.931 . S
C1098 C1097 1.385 . S
C1098 C1099 1.389 . S
C1099 C1098 1.389 . S
C1099 C1100 1.387 . S
C1100 H1085 0.930 . S
C1100 C1095 1.390 . S
C1100 C1099 1.387 . S
H1101 C1113 0.930 . S
H1102 C1115 0.930 . S
H1103 C1116 0.930 . S
H1104 C1120 0.959 . S
H1105 C1120 0.959 . S
H1106 C1120 0.961 . S
H1107 C1121 0.960 . S
H1108 C1121 0.961 . S
H1109 C1121 0.959 . S
H1110 C1124 0.929 . S
H1111 C1125 0.931 . S
H1112 C1127 0.930 . S
C1113 H1101 0.930 . S
C1113 C1114 1.399 . S
C1113 C1118 1.399 . S
C1114 C1113 1.399 . S
C1114 C1115 1.376 . S
C1115 H1102 0.930 . S
C1115 C1114 1.376 . S
C1115 C1116 1.388 . S
C1116 H1103 0.930 . S
C1116 C1115 1.388 . S
C1116 C1117 1.390 . S
C1117 C1116 1.390 . S
C1117 C1118 1.394 . S
C1117 C1123 1.465 . S
C1118 C1113 1.399 . S
C1118 C1117 1.394 . S
C1118 C1119 1.516 . S
C1119 C1118 1.516 . S
C1119 C1120 1.502 . S
C1119 C1121 1.561 . S
C1119 C1122 1.526 . S
C1120 H1104 0.959 . S
C1120 H1105 0.959 . S
C1120 H1106 0.961 . S
C1120 C1119 1.502 . S
C1121 H1107 0.960 . S
C1121 H1108 0.961 . S
C1121 H1109 0.959 . S
C1121 C1119 1.561 . S
C1122 C1119 1.526 . S
C1122 C1123 1.396 . S
C1122 C1127 1.390 . S
C1123 C1117 1.465 . S
C1123 C1122 1.396 . S
C1123 C1124 1.399 . S
C1124 H1110 0.929 . S
C1124 C1123 1.399 . S
C1124 C1125 1.385 . S
C1125 H1111 0.931 . S
C1125 C1124 1.385 . S
C1125 C1126 1.389 . S
C1126 C1125 1.389 . S
C1126 C1127 1.387 . S
C1127 H1112 0.930 . S
C1127 C1122 1.390 . S
C1127 C1126 1.387 . S
H1128 C1140 0.930 . S
H1129 C1142 0.930 . S
H1130 C1143 0.930 . S
H1131 C1147 0.959 . S
H1132 C1147 0.959 . S
H1133 C1147 0.961 . S
H1134 C1148 0.960 . S
H1135 C1148 0.961 . S
H1136 C1148 0.959 . S
H1137 C1151 0.929 . S
H1138 C1152 0.931 . S
H1139 C1154 0.930 . S
C1140 H1128 0.930 . S
C1140 C1141 1.399 . S
C1140 C1145 1.399 . S
C1141 C1140 1.399 . S
C1141 C1142 1.376 . S
C1142 H1129 0.930 . S
C1142 C1141 1.376 . S
C1142 C1143 1.388 . S
C1143 H1130 0.930 . S
C1143 C1142 1.388 . S
C1143 C1144 1.390 . S
C1144 C1143 1.390 . S
C1144 C1145 1.394 . S
C1144 C1150 1.465 . S
C1145 C1140 1.399 . S
C1145 C1144 1.394 . S
C1145 C1146 1.516 . S
C1146 C1145 1.516 . S
C1146 C1147 1.502 . S
C1146 C1148 1.561 . S
C1146 C1149 1.526 . S
C1147 H1131 0.959 . S
C1147 H1132 0.959 . S
C1147 H1133 0.961 . S
C1147 C1146 1.502 . S
C1148 H1134 0.960 . S
C1148 H1135 0.961 . S
C1148 H1136 0.959 . S
C1148 C1146 1.561 . S
C1149 C1146 1.526 . S
C1149 C1150 1.396 . S
C1149 C1154 1.390 . S
C1150 C1144 1.465 . S
C1150 C1149 1.396 . S
C1150 C1151 1.399 . S
C1151 H1137 0.929 . S
C1151 C1150 1.399 . S
C1151 C1152 1.385 . S
C1152 H1138 0.931 . S
C1152 C1151 1.385 . S
C1152 C1153 1.389 . S
C1153 C1152 1.389 . S
C1153 C1154 1.387 . S
C1154 H1139 0.930 . S
C1154 C1149 1.390 . S
C1154 C1153 1.387 . S
H1155 C1167 0.930 . S
H1156 C1169 0.930 . S
H1157 C1170 0.930 . S
H1158 C1174 0.959 . S
H1159 C1174 0.959 . S
H1160 C1174 0.961 . S
H1161 C1175 0.960 . S
H1162 C1175 0.961 . S
H1163 C1175 0.959 . S
H1164 C1178 0.929 . S
H1165 C1179 0.931 . S
H1166 C1181 0.930 . S
C1167 H1155 0.930 . S
C1167 C1168 1.399 . S
C1167 C1172 1.399 . S
C1168 C1167 1.399 . S
C1168 C1169 1.376 . S
C1169 H1156 0.930 . S
C1169 C1168 1.376 . S
C1169 C1170 1.388 . S
C1170 H1157 0.930 . S
C1170 C1169 1.388 . S
C1170 C1171 1.390 . S
C1171 C1170 1.390 . S
C1171 C1172 1.394 . S
C1171 C1177 1.465 . S
C1172 C1167 1.399 . S
C1172 C1171 1.394 . S
C1172 C1173 1.516 . S
C1173 C1172 1.516 . S
C1173 C1174 1.502 . S
C1173 C1175 1.561 . S
C1173 C1176 1.526 . S
C1174 H1158 0.959 . S
C1174 H1159 0.959 . S
C1174 H1160 0.961 . S
C1174 C1173 1.502 . S
C1175 H1161 0.960 . S
C1175 H1162 0.961 . S
C1175 H1163 0.959 . S
C1175 C1173 1.561 . S
C1176 C1173 1.526 . S
C1176 C1177 1.396 . S
C1176 C1181 1.390 . S
C1177 C1171 1.465 . S
C1177 C1176 1.396 . S
C1177 C1178 1.399 . S
C1178 H1164 0.929 . S
C1178 C1177 1.399 . S
C1178 C1179 1.385 . S
C1179 H1165 0.931 . S
C1179 C1178 1.385 . S
C1179 C1180 1.389 . S
C1180 C1179 1.389 . S
C1180 C1181 1.387 . S
C1181 H1166 0.930 . S
C1181 C1176 1.390 . S
C1181 C1180 1.387 . S
H1182 C1194 0.930 . S
H1183 C1196 0.930 . S
H1184 C1197 0.930 . S
H1185 C1201 0.959 . S
H1186 C1201 0.959 . S
H1187 C1201 0.961 . S
H1188 C1202 0.960 . S
H1189 C1202 0.961 . S
H1190 C1202 0.959 . S
H1191 C1205 0.929 . S
H1192 C1206 0.931 . S
H1193 C1208 0.930 . S
C1194 H1182 0.930 . S
C1194 C1195 1.399 . S
C1194 C1199 1.399 . S
C1195 C1194 1.399 . S
C1195 C1196 1.376 . S
C1196 H1183 0.930 . S
C1196 C1195 1.376 . S
C1196 C1197 1.388 . S
C1197 H1184 0.930 . S
C1197 C1196 1.388 . S
C1197 C1198 1.390 . S
C1198 C1197 1.390 . S
C1198 C1199 1.394 . S
C1198 C1204 1.465 . S
C1199 C1194 1.399 . S
C1199 C1198 1.394 . S
C1199 C1200 1.516 . S
C1200 C1199 1.516 . S
C1200 C1201 1.502 . S
C1200 C1202 1.561 . S
C1200 C1203 1.526 . S
C1201 H1185 0.959 . S
C1201 H1186 0.959 . S
C1201 H1187 0.961 . S
C1201 C1200 1.502 . S
C1202 H1188 0.960 . S
C1202 H1189 0.961 . S
C1202 H1190 0.959 . S
C1202 C1200 1.561 . S
C1203 C1200 1.526 . S
C1203 C1204 1.396 . S
C1203 C1208 1.390 . S
C1204 C1198 1.465 . S
C1204 C1203 1.396 . S
C1204 C1205 1.399 . S
C1205 H1191 0.929 . S
C1205 C1204 1.399 . S
C1205 C1206 1.385 . S
C1206 H1192 0.931 . S
C1206 C1205 1.385 . S
C1206 C1207 1.389 . S
C1207 C1206 1.389 . S
C1207 C1208 1.387 . S
C1208 H1193 0.930 . S
C1208 C1203 1.390 . S
C1208 C1207 1.387 . S
H1209 C1221 0.930 . S
H1210 C1223 0.930 . S
H1211 C1224 0.930 . S
H1212 C1228 0.959 . S
H1213 C1228 0.959 . S
H1214 C1228 0.961 . S
H1215 C1229 0.960 . S
H1216 C1229 0.961 . S
H1217 C1229 0.959 . S
H1218 C1232 0.929 . S
H1219 C1233 0.931 . S
H1220 C1235 0.930 . S
C1221 H1209 0.930 . S
C1221 C1222 1.399 . S
C1221 C1226 1.399 . S
C1222 C1221 1.399 . S
C1222 C1223 1.376 . S
C1223 H1210 0.930 . S
C1223 C1222 1.376 . S
C1223 C1224 1.388 . S
C1224 H1211 0.930 . S
C1224 C1223 1.388 . S
C1224 C1225 1.390 . S
C1225 C1224 1.390 . S
C1225 C1226 1.394 . S
C1225 C1231 1.465 . S
C1226 C1221 1.399 . S
C1226 C1225 1.394 . S
C1226 C1227 1.516 . S
C1227 C1226 1.516 . S
C1227 C1228 1.502 . S
C1227 C1229 1.561 . S
C1227 C1230 1.526 . S
C1228 H1212 0.959 . S
C1228 H1213 0.959 . S
C1228 H1214 0.961 . S
C1228 C1227 1.502 . S
C1229 H1215 0.960 . S
C1229 H1216 0.961 . S
C1229 H1217 0.959 . S
C1229 C1227 1.561 . S
C1230 C1227 1.526 . S
C1230 C1231 1.396 . S
C1230 C1235 1.390 . S
C1231 C1225 1.465 . S
C1231 C1230 1.396 . S
C1231 C1232 1.399 . S
C1232 H1218 0.929 . S
C1232 C1231 1.399 . S
C1232 C1233 1.385 . S
C1233 H1219 0.931 . S
C1233 C1232 1.385 . S
C1233 C1234 1.389 . S
C1234 C1233 1.389 . S
C1234 C1235 1.387 . S
C1235 H1220 0.930 . S
C1235 C1230 1.390 . S
C1235 C1234 1.387 . S
C277 C8 1.174 . S
C289 C184 1.176 . S
C304 C216 1.150 . S
C316 C30 1.148 . S
C331 C62 1.159 . S
C343 C228 1.167 . S
C358 C260 1.157 . S
C370 C76 1.151 . S
C385 C98 1.149 . S
C397 C150 1.147 . S
C412 C172 1.174 . S
C424 C120 1.176 . S
C439 C249 1.269 . S
C451 C81 1.260 . S
C466 C103 1.285 . S
C478 C139 1.277 . S
C493 C161 1.272 . S
C505 C125 1.288 . S
C520 C197 1.274 . S
C532 C21 1.287 . S
C547 C205 1.259 . S
C559 C43 1.289 . S
C574 C51 1.257 . S
C586 C241 1.272 . S
C601 C162 1.239 . S
C613 C10 1.243 . S
C628 C186 1.250 . S
C640 C32 1.247 . S
C655 C206 1.222 . S
C667 C52 1.223 . S
C682 C84 1.253 . S
C694 C230 1.255 . S
C709 C106 1.257 . S
C721 C250 1.259 . S
C736 C140 1.222 . S
C748 C128 1.223 . S
C763 C235 1.354 . S
C775 C73 1.310 . S
C790 C95 1.353 . S
C802 C263 1.310 . S
C817 C153 1.345 . S
C829 C117 1.304 . S
C844 C175 1.302 . S
C856 C15 1.341 . S
C871 C37 1.337 . S
C883 C191 1.303 . S
C898 C65 1.358 . S
C910 C219 1.323 . S
C925 C18 1.514 . S
C937 C238 1.521 . S
C952 C40 1.519 . S
C964 C252 1.519 . S
C979 C142 1.497 . S
C991 C54 1.513 . S
C1006 C164 1.515 . S
C1018 C74 1.498 . S
C1033 C96 1.495 . S
C1045 C194 1.509 . S
C1060 C208 1.496 . S
C1072 C118 1.511 . S
C1087 C87 1.605 . S
C1099 C169 1.624 . S
C1114 C109 1.630 . S
C1126 C183 1.627 . S
C1141 C213 1.604 . S
C1153 C131 1.625 . S
C1168 C227 1.636 . S
C1180 C7 1.619 . S
C1195 C257 1.634 . S
C1207 C29 1.603 . S
C1222 C147 1.626 . S
C1234 C59 1.605 . S
