# Generated by pormake.
# Topology lcy-e, (6)-cn, num edge types: 1
# Building blocks:
#     Node 0, Type 0, BuildingBlock: BETFAJ_clean_sbu_0, # of connection points: 6
#     Node 1, Type 0, BuildingBlock: BETFAJ_clean_sbu_0, # of connection points: 6
#     Node 2, Type 0, BuildingBlock: BETFAJ_clean_sbu_0, # of connection points: 6
#     Node 3, Type 0, BuildingBlock: BETFAJ_clean_sbu_0, # of connection points: 6
#     Node 4, Type 0, BuildingBlock: BETFAJ_clean_sbu_0, # of connection points: 6
#     Node 5, Type 0, BuildingBlock: BETFAJ_clean_sbu_0, # of connection points: 6
#     Node 6, Type 0, BuildingBlock: BETFAJ_clean_sbu_0, # of connection points: 6
#     Node 7, Type 0, BuildingBlock: BETFAJ_clean_sbu_0, # of connection points: 6
#     Node 8, Type 0, BuildingBlock: BETFAJ_clean_sbu_0, # of connection points: 6
#     Node 9, Type 0, BuildingBlock: BETFAJ_clean_sbu_0, # of connection points: 6
#     Node 10, Type 0, BuildingBlock: BETFAJ_clean_sbu_0, # of connection points: 6
#     Node 11, Type 0, BuildingBlock: BETFAJ_clean_sbu_0, # of connection points: 6
#     Edge 12, Type (0, 0), BuildingBlock: MIFKUJ_clean_linker_0, # of connection points: 2
#     Edge 13, Type (0, 0), BuildingBlock: MIFKUJ_clean_linker_0, # of connection points: 2
#     Edge 14, Type (0, 0), BuildingBlock: MIFKUJ_clean_linker_0, # of connection points: 2
#     Edge 15, Type (0, 0), BuildingBlock: MIFKUJ_clean_linker_0, # of connection points: 2
#     Edge 16, Type (0, 0), BuildingBlock: MIFKUJ_clean_linker_0, # of connection points: 2
#     Edge 17, Type (0, 0), BuildingBlock: MIFKUJ_clean_linker_0, # of connection points: 2
#     Edge 18, Type (0, 0), BuildingBlock: MIFKUJ_clean_linker_0, # of connection points: 2
#     Edge 19, Type (0, 0), BuildingBlock: MIFKUJ_clean_linker_0, # of connection points: 2
#     Edge 20, Type (0, 0), BuildingBlock: MIFKUJ_clean_linker_0, # of connection points: 2
#     Edge 21, Type (0, 0), BuildingBlock: MIFKUJ_clean_linker_0, # of connection points: 2
#     Edge 22, Type (0, 0), BuildingBlock: MIFKUJ_clean_linker_0, # of connection points: 2
#     Edge 23, Type (0, 0), BuildingBlock: MIFKUJ_clean_linker_0, # of connection points: 2
#     Edge 24, Type (0, 0), BuildingBlock: MIFKUJ_clean_linker_0, # of connection points: 2
#     Edge 25, Type (0, 0), BuildingBlock: MIFKUJ_clean_linker_0, # of connection points: 2
#     Edge 26, Type (0, 0), BuildingBlock: MIFKUJ_clean_linker_0, # of connection points: 2
#     Edge 27, Type (0, 0), BuildingBlock: MIFKUJ_clean_linker_0, # of connection points: 2
#     Edge 28, Type (0, 0), BuildingBlock: MIFKUJ_clean_linker_0, # of connection points: 2
#     Edge 29, Type (0, 0), BuildingBlock: MIFKUJ_clean_linker_0, # of connection points: 2
#     Edge 30, Type (0, 0), BuildingBlock: MIFKUJ_clean_linker_0, # of connection points: 2
#     Edge 31, Type (0, 0), BuildingBlock: MIFKUJ_clean_linker_0, # of connection points: 2
#     Edge 32, Type (0, 0), BuildingBlock: MIFKUJ_clean_linker_0, # of connection points: 2
#     Edge 33, Type (0, 0), BuildingBlock: MIFKUJ_clean_linker_0, # of connection points: 2
#     Edge 34, Type (0, 0), BuildingBlock: MIFKUJ_clean_linker_0, # of connection points: 2
#     Edge 35, Type (0, 0), BuildingBlock: MIFKUJ_clean_linker_0, # of connection points: 2
#     Edge 36, Type (0, 0), BuildingBlock: MIFKUJ_clean_linker_0, # of connection points: 2
#     Edge 37, Type (0, 0), BuildingBlock: MIFKUJ_clean_linker_0, # of connection points: 2
#     Edge 38, Type (0, 0), BuildingBlock: MIFKUJ_clean_linker_0, # of connection points: 2
#     Edge 39, Type (0, 0), BuildingBlock: MIFKUJ_clean_linker_0, # of connection points: 2
#     Edge 40, Type (0, 0), BuildingBlock: MIFKUJ_clean_linker_0, # of connection points: 2
#     Edge 41, Type (0, 0), BuildingBlock: MIFKUJ_clean_linker_0, # of connection points: 2
#     Edge 42, Type (0, 0), BuildingBlock: MIFKUJ_clean_linker_0, # of connection points: 2
#     Edge 43, Type (0, 0), BuildingBlock: MIFKUJ_clean_linker_0, # of connection points: 2
#     Edge 44, Type (0, 0), BuildingBlock: MIFKUJ_clean_linker_0, # of connection points: 2
#     Edge 45, Type (0, 0), BuildingBlock: MIFKUJ_clean_linker_0, # of connection points: 2
#     Edge 46, Type (0, 0), BuildingBlock: MIFKUJ_clean_linker_0, # of connection points: 2
#     Edge 47, Type (0, 0), BuildingBlock: MIFKUJ_clean_linker_0, # of connection points: 2
# Relax obj value: 0.203
# Max RMSD: 0.305
# Mean RMSD: 0.281
data_MOF--net-lcy-e--node1-BETFAJ_clean_sbu_0--edge1-MIFKUJ_clean_linker_0
_symmetry_space_group_name_H-M    P1
_symmetry_Int_Tables_number       1
_symmetry_cell_setting            triclinic
loop_
_symmetry_equiv_pos_as_xyz
'x, y, z'
_cell_length_a     56.65952
_cell_length_b     51.994271
_cell_length_c     56.620375
_cell_angle_alpha  89.509288
_cell_angle_beta   90.750372
_cell_angle_gamma 88.595993
loop_
_atom_site_label
_atom_site_type_symbol
_atom_site_fract_x
_atom_site_fract_y
_atom_site_fract_z
_atom_type_partial_charge
Sm0 Sm 0.1379 0.24629 0.46496 0.0
Sm1 Sm 0.15382 0.20293 0.49649 0.0
C2 C 0.13481 0.28753 0.43709 0.0
C3 C 0.14312 0.29472 0.41349 0.0
C4 C 0.14257 0.32064 0.4066 0.0
C5 C 0.15077 0.32793 0.38442 0.0
C6 C 0.15957 0.30937 0.36864 0.0
C7 C 0.15994 0.28331 0.37555 0.0
C8 C 0.15188 0.27605 0.39788 0.0
C9 C 0.1097 0.20448 0.4605 0.0
C10 C 0.18388 0.20919 0.44942 0.0
C11 C 0.15985 0.16208 0.52446 0.0
C12 C 0.14735 0.14483 0.54033 0.0
C13 C 0.12262 0.14386 0.54025 0.0
C14 C 0.11135 0.12622 0.55487 0.0
C15 C 0.1247 0.10945 0.56979 0.0
C16 C 0.14946 0.11085 0.56988 0.0
C17 C 0.16064 0.12839 0.5553 0.0
C18 C 0.17761 0.24834 0.50298 0.0
C19 C 0.11076 0.24006 0.51406 0.0
O20 O 0.15114 0.28423 0.45343 0.0
O21 O 0.11866 0.27003 0.43784 0.0
O22 O 0.13209 0.20291 0.46247 0.0
O23 O 0.10219 0.2282 0.45928 0.0
O24 O 0.17158 0.23087 0.44599 0.0
O25 O 0.17898 0.19335 0.46676 0.0
O26 O 0.15463 0.16068 0.50197 0.0
O27 O 0.16286 0.18561 0.5316 0.0
O28 O 0.15581 0.24597 0.50026 0.0
O29 O 0.18826 0.22597 0.50256 0.0
O30 O 0.11848 0.21592 0.51298 0.0
O31 O 0.11848 0.25746 0.49902 0.0
H32 H 0.13576 0.33526 0.41837 0.0
H33 H 0.14994 0.34811 0.37951 0.0
H34 H 0.16679 0.26861 0.36387 0.0
H35 H 0.15254 0.25591 0.40297 0.0
H36 H 0.1121 0.15652 0.52877 0.0
H37 H 0.09225 0.12574 0.55454 0.0
H38 H 0.16029 0.09794 0.5808 0.0
H39 H 0.17975 0.12884 0.55545 0.0
Sm40 Sm 1.00619 0.85787 0.73112 0.0
Sm41 Sm 0.04926 0.86931 0.76355 0.0
C42 C 0.96789 0.85903 0.70362 0.0
C43 C 0.95983 0.86865 0.68003 0.0
C44 C 0.94808 0.89269 0.67771 0.0
C45 C 0.93931 0.90124 0.65573 0.0
C46 C 0.94184 0.88588 0.63552 0.0
C47 C 0.95381 0.86194 0.63783 0.0
C48 C 0.96264 0.8534 0.65981 0.0
C49 C 0.04332 0.82332 0.7281 0.0
C50 C 0.04376 0.90253 0.715 0.0
C51 C 0.08929 0.86846 0.78851 0.0
C52 C 0.10767 0.8536 0.80196 0.0
C53 C 0.11794 0.83072 0.79326 0.0
C54 C 0.1379 0.81942 0.80453 0.0
C55 C 0.14804 0.83092 0.82454 0.0
C56 C 0.13701 0.85315 0.83372 0.0
C57 C 0.11709 0.86433 0.82255 0.0
C58 C 0.01082 0.90243 0.76783 0.0
C59 C 0.00948 0.82942 0.78165 0.0
O60 O 0.97203 0.87619 0.71985 0.0
O61 O 0.98307 0.83964 0.70438 0.0
O62 O 0.04527 0.84741 0.72957 0.0
O63 O 0.02132 0.81695 0.7269 0.0
O64 O 0.02329 0.89148 0.71132 0.0
O65 O 0.05784 0.89613 0.73294 0.0
O66 O 0.08818 0.86533 0.76563 0.0
O67 O 0.06864 0.87271 0.79805 0.0
O68 O 0.01038 0.87855 0.76516 0.0
O69 O 0.03237 0.9096 0.77145 0.0
O70 O 0.03243 0.83372 0.78097 0.0
O71 O 0.99462 0.84006 0.76602 0.0
H72 H 0.94539 0.90481 0.69295 0.0
H73 H 0.93042 0.9199 0.6546 0.0
H74 H 0.95575 0.84939 0.62277 0.0
H75 H 0.97131 0.83463 0.66099 0.0
H76 H 0.1111 0.82208 0.77731 0.0
H77 H 0.14599 0.80235 0.79696 0.0
H78 H 0.1441 0.86226 0.84933 0.0
H79 H 0.10955 0.882 0.82954 0.0
Sm80 Sm 0.38233 0.76662 1.00148 0.0
Sm81 Sm 0.39524 0.72915 0.95702 0.0
C82 C 0.38421 0.78863 0.04335 0.0
C83 C 0.38877 0.81386 0.05379 0.0
C84 C 0.40281 0.83174 0.04215 0.0
C85 C 0.40928 0.85436 0.05346 0.0
C86 C 0.40173 0.85954 0.07656 0.0
C87 C 0.38694 0.84198 0.08777 0.0
C88 C 0.38059 0.8193 0.07649 0.0
C89 C 0.35556 0.77992 0.9616 0.0
C90 C 0.42561 0.78125 0.96479 0.0
C91 C 0.39799 0.70243 0.9175 0.0
C92 C 0.38635 0.6883 0.89832 0.0
C93 C 0.36241 0.69226 0.89227 0.0
C94 C 0.35264 0.67968 0.8727 0.0
C95 C 0.36668 0.66302 0.85885 0.0
C96 C 0.39062 0.65919 0.86524 0.0
C97 C 0.40026 0.6716 0.88474 0.0
C98 C 0.42039 0.72191 0.999 0.0
C99 C 0.35267 0.71376 0.99289 0.0
O100 O 0.40238 0.77718 0.03344 0.0
O101 O 0.36437 0.78617 0.03144 0.0
O102 O 0.37207 0.76341 0.9636 0.0
O103 O 0.35366 0.79175 0.98168 0.0
O104 O 0.41554 0.78487 0.98557 0.0
O105 O 0.41901 0.76323 0.9499 0.0
O106 O 0.39485 0.72749 0.91795 0.0
O107 O 0.39969 0.69169 0.93852 0.0
O108 O 0.39894 0.7277 0.99639 0.0
O109 O 0.42974 0.71768 0.97847 0.0
O110 O 0.36045 0.71282 0.97088 0.0
O111 O 0.36047 0.73058 0.00853 0.0
H112 H 0.40927 0.8279 0.02457 0.0
H113 H 0.42042 0.86767 0.04425 0.0
H114 H 0.38101 0.84528 0.10562 0.0
H115 H 0.36985 0.80564 0.08577 0.0
H116 H 0.35139 0.7052 0.90249 0.0
H117 H 0.33411 0.68294 0.86847 0.0
H118 H 0.40218 0.64704 0.85482 0.0
H119 H 0.41884 0.66855 0.88894 0.0
Sm120 Sm 0.5368 0.1059 0.22681 0.0
Sm121 Sm 0.49368 0.1041 0.26136 0.0
C122 C 0.57636 0.10349 0.20202 0.0
C123 C 0.58448 0.0976 0.17772 0.0
C124 C 0.59319 0.07272 0.17259 0.0
C125 C 0.60124 0.06668 0.15004 0.0
C126 C 0.60108 0.0854 0.13198 0.0
C127 C 0.59268 0.11042 0.13713 0.0
C128 C 0.58443 0.11646 0.15975 0.0
C129 C 0.4978 0.13594 0.2144 0.0
C130 C 0.49601 0.06529 0.21501 0.0
C131 C 0.4507 0.10676 0.27954 0.0
C132 C 0.4333 0.11809 0.29601 0.0
C133 C 0.42989 0.1448 0.29843 0.0
C134 C 0.4113 0.1547 0.3121 0.0
C135 C 0.39561 0.13809 0.32344 0.0
C136 C 0.39953 0.11137 0.3213 0.0
C137 C 0.41813 0.10156 0.30781 0.0
C138 C 0.53297 0.07625 0.27645 0.0
C139 C 0.53637 0.14001 0.27613 0.0
O140 O 0.56806 0.08416 0.21392 0.0
O141 O 0.56459 0.12509 0.20571 0.0
O142 O 0.50625 0.13293 0.2349 0.0
O143 O 0.51058 0.12364 0.19915 0.0
O144 O 0.51814 0.07131 0.21145 0.0
O145 O 0.48301 0.07666 0.2313 0.0
O146 O 0.45717 0.12052 0.26136 0.0
O147 O 0.46746 0.09131 0.28789 0.0
O148 O 0.52569 0.07842 0.25523 0.0
O149 O 0.51775 0.08647 0.29084 0.0
O150 O 0.51315 0.13803 0.27682 0.0
O151 O 0.54944 0.12741 0.26044 0.0
H152 H 0.59393 0.05783 0.1861 0.0
H153 H 0.60804 0.04738 0.14688 0.0
H154 H 0.59225 0.12528 0.1236 0.0
H155 H 0.57808 0.13588 0.16313 0.0
H156 H 0.44124 0.15803 0.28937 0.0
H157 H 0.40905 0.17536 0.31353 0.0
H158 H 0.38771 0.09792 0.32937 0.0
H159 H 0.42018 0.0809 0.30596 0.0
Sm160 Sm 0.64609 0.23777 0.54799 0.0
Sm161 Sm 0.64831 0.28849 0.51866 0.0
C162 C 0.64744 0.19155 0.56809 0.0
C163 C 0.65355 0.18074 0.59175 0.0
C164 C 0.67095 0.16118 0.59391 0.0
C165 C 0.67712 0.15074 0.61607 0.0
C166 C 0.6659 0.15951 0.63665 0.0
C167 C 0.64856 0.17927 0.63445 0.0
C168 C 0.64249 0.18982 0.61227 0.0
C169 C 0.61417 0.27607 0.55957 0.0
C170 C 0.68017 0.28131 0.56847 0.0
C171 C 0.64494 0.33731 0.50475 0.0
C172 C 0.63207 0.35634 0.48975 0.0
C173 C 0.61008 0.35126 0.47934 0.0
C174 C 0.59842 0.37007 0.46523 0.0
C175 C 0.60854 0.39426 0.46148 0.0
C176 C 0.63052 0.39911 0.47216 0.0
C177 C 0.64212 0.38036 0.48612 0.0
C178 C 0.67978 0.2504 0.50595 0.0
C179 C 0.62109 0.24214 0.49477 0.0
O180 O 0.66492 0.20057 0.5559 0.0
O181 O 0.62813 0.20582 0.56612 0.0
O182 O 0.61968 0.26965 0.53897 0.0
O183 O 0.62522 0.26172 0.57523 0.0
O184 O 0.67486 0.2568 0.56952 0.0
O185 O 0.67085 0.29711 0.55218 0.0
O186 O 0.63391 0.3282 0.52309 0.0
O187 O 0.65826 0.32006 0.49425 0.0
O188 O 0.67422 0.25625 0.52673 0.0
O189 O 0.66992 0.26636 0.49074 0.0
O190 O 0.6212 0.2675 0.49632 0.0
O191 O 0.63162 0.227 0.51092 0.0
H192 H 0.67986 0.15398 0.57839 0.0
H193 H 0.69084 0.13589 0.61705 0.0
H194 H 0.63932 0.18632 0.64981 0.0
H195 H 0.62907 0.205 0.61124 0.0
H196 H 0.60198 0.33283 0.48209 0.0
H197 H 0.58142 0.36578 0.45744 0.0
H198 H 0.63905 0.41728 0.46935 0.0
H199 H 0.65908 0.38461 0.49403 0.0
Sm200 Sm 0.99072 0.37504 0.74033 0.0
Sm201 Sm 0.02112 0.35395 0.78068 0.0
C202 C 0.96384 0.38296 0.70215 0.0
C203 C 0.94071 0.37463 0.69362 0.0
C204 C 0.92806 0.35636 0.70632 0.0
C205 C 0.90605 0.34854 0.69806 0.0
C206 C 0.89626 0.35902 0.67704 0.0
C207 C 0.90901 0.37741 0.66444 0.0
C208 C 0.93108 0.38511 0.67267 0.0
C209 C 0.9869 0.40293 0.781 0.0
C210 C 0.97267 0.32481 0.77146 0.0
C211 C 0.04676 0.34507 0.81959 0.0
C212 C 0.06203 0.35722 0.8372 0.0
C213 C 0.06599 0.38377 0.83686 0.0
C214 C 0.07944 0.39487 0.85489 0.0
C215 C 0.08898 0.37959 0.87352 0.0
C216 C 0.0851 0.35297 0.87346 0.0
C217 C 0.07179 0.34194 0.85547 0.0
C218 C 0.0269 0.32927 0.73794 0.0
C219 C 0.04104 0.40085 0.74842 0.0
O220 O 0.98046 0.36509 0.70363 0.0
O221 O 0.96361 0.39822 0.72037 0.0
O222 O 0.98751 0.37858 0.78022 0.0
O223 O 0.9876 0.41309 0.76003 0.0
O224 O 0.97065 0.33855 0.75175 0.0
O225 O 0.98963 0.32871 0.78698 0.0
O226 O 0.02444 0.352 0.81968 0.0
O227 O 0.05504 0.342 0.79833 0.0
O228 O 0.02487 0.35299 0.74123 0.0
O229 O 0.02695 0.31698 0.75803 0.0
O230 O 0.03992 0.39133 0.77011 0.0
O231 O 0.02548 0.39454 0.732 0.0
H232 H 0.93514 0.34824 0.72265 0.0
H233 H 0.89653 0.33457 0.7083 0.0
H234 H 0.90206 0.38561 0.64806 0.0
H235 H 0.94065 0.39923 0.66266 0.0
H236 H 0.05848 0.39587 0.82287 0.0
H237 H 0.08233 0.41537 0.85429 0.0
H238 H 0.09182 0.34068 0.88768 0.0
H239 H 0.06873 0.32145 0.85608 0.0
Sm240 Sm 0.88977 0.7389 0.04917 0.0
Sm241 Sm 0.8834 0.68918 0.02016 0.0
C242 C 0.88942 0.78075 0.07554 0.0
C243 C 0.87654 0.79401 0.09442 0.0
C244 C 0.85851 0.78199 0.10683 0.0
C245 C 0.84906 0.79347 0.12706 0.0
C246 C 0.85771 0.81699 0.13522 0.0
C247 C 0.87503 0.8294 0.12204 0.0
C248 C 0.88434 0.818 0.10185 0.0
C249 C 0.92718 0.70426 0.05077 0.0
C250 C 0.85244 0.69587 0.06836 0.0
C251 C 0.88502 0.64142 1.00404 0.0
C252 C 0.89256 0.62464 0.98444 0.0
C253 C 0.91513 0.62619 0.97461 0.0
C254 C 0.92294 0.60785 0.95829 0.0
C255 C 0.90841 0.58751 0.95154 0.0
C256 C 0.88547 0.5867 0.96076 0.0
C257 C 0.87769 0.60501 0.97706 0.0
C258 C 0.85607 0.73099 1.00528 0.0
C259 C 0.91348 0.73498 0.99776 0.0
O260 O 0.87966 0.7802 0.05444 0.0
O261 O 0.90019 0.75911 0.08165 0.0
O262 O 0.90572 0.69853 0.05201 0.0
O263 O 0.92947 0.7289 0.04886 0.0
O264 O 0.86204 0.71851 0.07168 0.0
O265 O 0.85807 0.68103 0.05038 0.0
O266 O 0.90167 0.65135 0.01711 0.0
O267 O 0.8667 0.65695 1.00069 0.0
O268 O 0.8604 0.72445 0.02642 0.0
O269 O 0.86527 0.71429 0.99081 0.0
O270 O 0.91278 0.7097 1.00032 0.0
O271 O 0.90235 0.75087 0.01226 0.0
H272 H 0.85237 0.76337 0.10138 0.0
H273 H 0.83579 0.78342 0.13688 0.0
H274 H 0.88176 0.84773 0.12764 0.0
H275 H 0.89829 0.82751 0.09251 0.0
H276 H 0.92702 0.64109 0.98006 0.0
H277 H 0.94073 0.60907 0.95169 0.0
H278 H 0.87356 0.57172 0.9556 0.0
H279 H 0.86023 0.60341 0.98441 0.0
Sm280 Sm 0.54169 0.60637 0.24019 0.0
Sm281 Sm 0.50819 0.62742 0.27694 0.0
C282 C 0.57057 0.59935 0.20425 0.0
C283 C 0.59368 0.60866 0.19631 0.0
C284 C 0.5962 0.63389 0.18768 0.0
C285 C 0.61812 0.64216 0.17993 0.0
C286 C 0.638 0.62542 0.18071 0.0
C287 C 0.63546 0.60024 0.18936 0.0
C288 C 0.61352 0.59192 0.19696 0.0
C289 C 0.54269 0.57818 0.28128 0.0
C290 C 0.55738 0.65663 0.27214 0.0
C291 C 0.47945 0.63584 0.31293 0.0
C292 C 0.46812 0.62322 0.33323 0.0
C293 C 0.47225 0.63287 0.35593 0.0
C294 C 0.46082 0.62268 0.37546 0.0
C295 C 0.44482 0.60263 0.3728 0.0
C296 C 0.44111 0.59248 0.35009 0.0
C297 C 0.45263 0.60271 0.33046 0.0
C298 C 0.50403 0.65054 0.23253 0.0
C299 C 0.49248 0.57813 0.24618 0.0
O300 O 0.55266 0.61576 0.20371 0.0
O301 O 0.57077 0.5844 0.22297 0.0
O302 O 0.54163 0.6026 0.28045 0.0
O303 O 0.54459 0.56837 0.26037 0.0
O304 O 0.5611 0.64262 0.25311 0.0
O305 O 0.53906 0.65299 0.28567 0.0
O306 O 0.50231 0.63828 0.31427 0.0
O307 O 0.47194 0.63078 0.29156 0.0
O308 O 0.50695 0.62714 0.23723 0.0
O309 O 0.50176 0.66332 0.25201 0.0
O310 O 0.49279 0.588 0.26761 0.0
O311 O 0.50794 0.58524 0.23024 0.0
H312 H 0.58127 0.6473 0.18687 0.0
H313 H 0.61956 0.66174 0.17352 0.0
H314 H 0.65035 0.58678 0.18986 0.0
H315 H 0.61206 0.5723 0.20328 0.0
H316 H 0.48415 0.64862 0.35854 0.0
H317 H 0.46456 0.63057 0.39271 0.0
H318 H 0.42885 0.57709 0.34739 0.0
H319 H 0.44913 0.59482 0.31316 0.0
Sm320 Sm 0.22989 0.48204 0.13078 0.0
Sm321 Sm 0.25918 0.43586 0.11624 0.0
C322 C 0.20289 0.52421 0.13381 0.0
C323 C 0.18024 0.53441 0.12369 0.0
C324 C 0.1786 0.54389 0.10036 0.0
C325 C 0.15717 0.55407 0.0914 0.0
C326 C 0.13693 0.55491 0.10552 0.0
C327 C 0.13855 0.54519 0.12873 0.0
C328 C 0.15998 0.53519 0.13774 0.0
C329 C 0.22624 0.44079 0.1606 0.0
C330 C 0.21158 0.44604 0.08631 0.0
C331 C 0.28435 0.39253 0.11155 0.0
C332 C 0.2997 0.37322 0.12361 0.0
C333 C 0.31344 0.37911 0.14355 0.0
C334 C 0.32837 0.36021 0.15402 0.0
C335 C 0.32963 0.33515 0.14473 0.0
C336 C 0.31563 0.32948 0.12485 0.0
C337 C 0.30083 0.34831 0.11445 0.0
C338 C 0.26585 0.48007 0.08985 0.0
C339 C 0.27938 0.47286 0.15788 0.0
O340 O 0.22103 0.52231 0.11976 0.0
O341 O 0.2016 0.5047 0.14841 0.0
O342 O 0.22614 0.43911 0.13826 0.0
O343 O 0.22733 0.46443 0.16748 0.0
O344 O 0.21005 0.46836 0.09722 0.0
O345 O 0.22767 0.4285 0.09235 0.0
O346 O 0.26206 0.39315 0.11723 0.0
O347 O 0.29282 0.41535 0.1078 0.0
O348 O 0.26409 0.47855 0.11185 0.0
O349 O 0.26476 0.4574 0.08052 0.0
O350 O 0.27801 0.4489 0.15039 0.0
O351 O 0.26447 0.49105 0.15005 0.0
H352 H 0.19386 0.54362 0.08904 0.0
H353 H 0.15643 0.56129 0.0734 0.0
H354 H 0.12339 0.54595 0.14018 0.0
H355 H 0.16074 0.52827 0.15585 0.0
H356 H 0.31272 0.39826 0.15092 0.0
H357 H 0.33878 0.36515 0.16942 0.0
H358 H 0.31646 0.31058 0.11696 0.0
H359 H 0.29041 0.34346 0.099 0.0
Sm360 Sm 0.73395 0.97088 0.87489 0.0
Sm361 Sm 0.76302 0.01829 0.88451 0.0
C362 C 0.71017 0.92758 0.87759 0.0
C363 C 0.68719 0.91853 0.88572 0.0
C364 C 0.68289 0.89213 0.88579 0.0
C365 C 0.6611 0.88303 0.89304 0.0
C366 C 0.64307 0.9002 0.90036 0.0
C367 C 0.64761 0.92673 0.90054 0.0
C368 C 0.66949 0.93581 0.89327 0.0
C369 C 0.72539 0.00996 0.84306 0.0
C370 C 0.7171 0.01247 0.91658 0.0
C371 C 0.78787 0.06092 0.88302 0.0
C372 C 0.80249 0.07739 0.86782 0.0
C373 C 0.79219 0.09388 0.85051 0.0
C374 C 0.80585 0.11188 0.83866 0.0
C375 C 0.83007 0.1139 0.84394 0.0
C376 C 0.8405 0.09663 0.86051 0.0
C377 C 0.82685 0.0787 0.87236 0.0
C378 C 0.7736 0.97545 0.91255 0.0
C379 C 0.78134 0.97772 0.845 0.0
O380 O 0.72502 0.9349 0.89394 0.0
O381 O 0.70982 0.94261 0.85894 0.0
O382 O 0.72812 0.01327 0.86511 0.0
O383 O 0.72547 0.98572 0.83781 0.0
O384 O 0.71481 0.98952 0.90693 0.0
O385 O 0.73329 0.02846 0.90957 0.0
O386 O 0.76513 0.06042 0.87867 0.0
O387 O 0.79678 0.03861 0.88992 0.0
O388 O 0.76952 0.97599 0.8908 0.0
O389 O 0.77308 0.99868 0.92087 0.0
O390 O 0.7783 0.00239 0.84981 0.0
O391 O 0.76851 0.96024 0.85569 0.0
H392 H 0.69641 0.87849 0.88018 0.0
H393 H 0.65845 0.86248 0.89309 0.0
H394 H 0.63411 0.94052 0.90587 0.0
H395 H 0.67253 0.95631 0.89337 0.0
H396 H 0.77342 0.09352 0.84665 0.0
H397 H 0.79721 0.12497 0.82613 0.0
H398 H 0.85918 0.09731 0.86469 0.0
H399 H 0.83526 0.06639 0.88569 0.0
Sm400 Sm 0.76455 0.95337 0.40002 0.0
Sm401 Sm 0.80599 0.98879 0.38818 0.0
C402 C 0.72792 0.92254 0.40151 0.0
C403 C 0.71754 0.90164 0.38765 0.0
C404 C 0.72107 0.89956 0.36321 0.0
C405 C 0.71106 0.8794 0.35052 0.0
C406 C 0.69747 0.8609 0.36208 0.0
C407 C 0.69416 0.86309 0.38658 0.0
C408 C 0.70409 0.88324 0.3992 0.0
C409 C 0.80214 0.94945 0.4308 0.0
C410 C 0.79822 0.94029 0.35413 0.0
C411 C 0.84534 0.01574 0.38713 0.0
C412 C 0.86493 0.02856 0.39986 0.0
C413 C 0.88414 0.01416 0.40957 0.0
C414 C 0.90447 0.02638 0.41768 0.0
C415 C 0.90622 0.05332 0.41625 0.0
C416 C 0.88654 0.06773 0.40753 0.0
C417 C 0.86625 0.05551 0.39935 0.0
C418 C 0.76477 0.99751 0.36181 0.0
C419 C 0.76835 0.00622 0.42882 0.0
O420 O 0.72686 0.94568 0.39219 0.0
O421 O 0.74814 0.91721 0.41205 0.0
O422 O 0.80406 0.9512 0.40856 0.0
O423 O 0.78024 0.9485 0.43704 0.0
O424 O 0.77768 0.93753 0.36447 0.0
O425 O 0.81379 0.95681 0.36176 0.0
O426 O 0.845 0.99059 0.38741 0.0
O427 O 0.82419 0.0265 0.38663 0.0
O428 O 0.76668 0.99209 0.3833 0.0
O429 O 0.78566 1.00063 0.3531 0.0
O430 O 0.79092 0.00584 0.42287 0.0
O431 O 0.75329 0.98983 0.4197 0.0
H432 H 0.73154 0.91349 0.35397 0.0
H433 H 0.71416 0.87815 0.33173 0.0
H434 H 0.68353 0.84945 0.396 0.0
H435 H 0.70119 0.8845 0.41803 0.0
H436 H 0.88392 0.99334 0.41003 0.0
H437 H 0.91924 0.01454 0.42405 0.0
H438 H 0.88696 0.08852 0.40653 0.0
H439 H 0.8519 0.06717 0.39179 0.0
Sm440 Sm 0.30366 0.47969 0.62117 0.0
Sm441 Sm 0.27303 0.53215 0.61033 0.0
C442 C 0.32319 0.43335 0.61766 0.0
C443 C 0.34725 0.42329 0.61313 0.0
C444 C 0.36081 0.43361 0.59487 0.0
C445 C 0.3837 0.4242 0.59094 0.0
C446 C 0.3936 0.4045 0.60533 0.0
C447 C 0.38006 0.39428 0.62366 0.0
C448 C 0.35705 0.40355 0.62746 0.0
C449 C 0.31838 0.51949 0.64989 0.0
C450 C 0.32098 0.52171 0.58062 0.0
C451 C 0.24941 0.57665 0.61106 0.0
C452 C 0.23521 0.59396 0.62615 0.0
C453 C 0.24478 0.60567 0.64631 0.0
C454 C 0.23127 0.62354 0.65908 0.0
C455 C 0.20796 0.62997 0.65195 0.0
C456 C 0.19842 0.6179 0.63198 0.0
C457 C 0.2119 0.60016 0.61924 0.0
C458 C 0.26503 0.49028 0.58196 0.0
C459 C 0.2556 0.49132 0.65099 0.0
O460 O 0.31242 0.44537 0.59998 0.0
O461 O 0.31991 0.4446 0.63805 0.0
O462 O 0.30308 0.52016 0.63365 0.0
O463 O 0.32788 0.4965 0.65059 0.0
O464 O 0.32173 0.49768 0.5887 0.0
O465 O 0.30595 0.53941 0.5885 0.0
O466 O 0.2722 0.57443 0.61528 0.0
O467 O 0.23985 0.55505 0.60466 0.0
O468 O 0.26889 0.48991 0.60382 0.0
O469 O 0.263 0.51387 0.57425 0.0
O470 O 0.25615 0.51566 0.64386 0.0
O471 O 0.27018 0.47326 0.64277 0.0
H472 H 0.35381 0.44907 0.58369 0.0
H473 H 0.39381 0.43262 0.57686 0.0
H474 H 0.38718 0.37891 0.63488 0.0
H475 H 0.34692 0.39537 0.64165 0.0
H476 H 0.26277 0.60137 0.65203 0.0
H477 H 0.23907 0.63237 0.67448 0.0
H478 H 0.1807 0.62273 0.62572 0.0
H479 H 0.20422 0.59167 0.6036 0.0
H480 H 0.15458 0.2911 0.51851 0.0
H481 H 0.17114 0.33188 0.53027 0.0
H482 H 0.24117 0.30231 0.51547 0.0
H483 H 0.22454 0.2607 0.50446 0.0
H484 H 0.2418 0.33024 0.55482 0.0
H485 H 0.21037 0.34364 0.47654 0.0
H486 H 0.18009 0.3428 0.44486 0.0
H487 H 0.13515 0.39351 0.48466 0.0
H488 H 0.16496 0.39429 0.51676 0.0
H489 H 0.29095 0.45534 0.55733 0.0
H490 H 0.27752 0.41411 0.5417 0.0
H491 H 0.20654 0.43299 0.5635 0.0
H492 H 0.22008 0.474 0.57938 0.0
H493 H 0.20867 0.41064 0.51828 0.0
H494 H 0.23823 0.39468 0.59729 0.0
H495 H 0.26824 0.39657 0.62913 0.0
H496 H 0.31659 0.35156 0.58768 0.0
H497 H 0.28696 0.34973 0.5554 0.0
C498 C 0.17352 0.29322 0.51772 0.0
C499 C 0.18827 0.27278 0.51031 0.0
C500 C 0.18298 0.31664 0.52438 0.0
C501 C 0.20738 0.3205 0.52322 0.0
C502 C 0.22227 0.29989 0.51636 0.0
C503 C 0.21279 0.27617 0.51 0.0
C504 C 0.21707 0.34615 0.52903 0.0
C505 C 0.23484 0.34775 0.54649 0.0
C506 C 0.20773 0.36917 0.51854 0.0
C507 C 0.18987 0.36891 0.49912 0.0
C508 C 0.19397 0.35449 0.4786 0.0
C509 C 0.17689 0.35402 0.46057 0.0
C510 C 0.15571 0.36809 0.46277 0.0
C511 C 0.15157 0.38263 0.48299 0.0
C512 C 0.16855 0.38311 0.5011 0.0
C513 C 0.27245 0.45074 0.55842 0.0
C514 C 0.25645 0.46771 0.56931 0.0
C515 C 0.26481 0.42723 0.54959 0.0
C516 C 0.24104 0.42042 0.55155 0.0
C517 C 0.2249 0.4379 0.56169 0.0
C518 C 0.2326 0.46129 0.57067 0.0
C519 C 0.23318 0.39462 0.54406 0.0
C520 C 0.21576 0.39305 0.52636 0.0
C521 C 0.24282 0.37168 0.55429 0.0
C522 C 0.26047 0.37225 0.57385 0.0
C523 C 0.25532 0.38531 0.5949 0.0
C524 C 0.27224 0.38635 0.61304 0.0
C525 C 0.2943 0.37419 0.61042 0.0
C526 C 0.29948 0.36095 0.58967 0.0
C527 C 0.28263 0.35988 0.57146 0.0
H528 H 0.30737 0.37499 0.62449 0.0
H529 H 0.14253 0.3678 0.44879 0.0
H530 H 0.80214 0.9297 0.84172 0.0
H531 H 0.84082 0.91908 0.82509 0.0
H532 H 0.8465 0.99727 0.8002 0.0
H533 H 0.80811 0.00813 0.81699 0.0
H534 H 0.8625 0.92102 0.78219 0.0
H535 H 0.90203 0.01683 0.81123 0.0
H536 H 0.89437 0.05117 0.84019 0.0
H537 H 0.86224 0.99683 0.88654 0.0
H538 H 0.86996 0.96213 0.85801 0.0
H539 H 0.97815 0.92372 0.73787 0.0
H540 H 0.93855 0.93988 0.7481 0.0
H541 H 0.95551 0.92887 0.8221 0.0
H542 H 0.9952 0.91304 0.81177 0.0
H543 H 0.92813 0.97169 0.81529 0.0
H544 H 0.92693 0.8826 0.79129 0.0
H545 H 0.93525 0.84726 0.76356 0.0
H546 H 0.89159 0.88503 0.71061 0.0
H547 H 0.88318 0.92073 0.73796 0.0
C548 C 0.81137 0.94449 0.83223 0.0
C549 C 0.80214 0.96984 0.83093 0.0
C550 C 0.83351 0.93839 0.82275 0.0
C551 C 0.84678 0.9575 0.81182 0.0
C552 C 0.83679 0.98232 0.80895 0.0
C553 C 0.81477 0.98847 0.81851 0.0
C554 C 0.87172 0.95209 0.8052 0.0
C555 C 0.87682 0.93218 0.78934 0.0
C556 C 0.89051 0.96641 0.81476 0.0
C557 C 0.8864 0.98695 0.83238 0.0
C558 C 0.89345 0.0122 0.82766 0.0
C559 C 0.88907 0.03172 0.84398 0.0
C560 C 0.87779 0.02619 0.86516 0.0
C561 C 0.87093 1.0011 0.87011 0.0
C562 C 0.87529 0.9815 0.85386 0.0
C563 C 0.97351 0.92541 0.7563 0.0
C564 C 0.98956 0.91739 0.77409 0.0
C565 C 0.95091 0.93448 0.76214 0.0
C566 C 0.94391 0.93518 0.78587 0.0
C567 C 0.9605 0.92852 0.8037 0.0
C568 C 0.98316 0.9196 0.79783 0.0
C569 C 0.91889 0.94085 0.79204 0.0
C570 C 0.91379 0.96072 0.80794 0.0
C571 C 0.90015 0.92626 0.78277 0.0
C572 C 0.90451 0.90438 0.76662 0.0
C573 C 0.91912 0.88337 0.77373 0.0
C574 C 0.92385 0.86328 0.75809 0.0
C575 C 0.91393 0.86389 0.73536 0.0
C576 C 0.89921 0.88456 0.72824 0.0
C577 C 0.89442 0.9047 0.74381 0.0
H578 H 0.91765 0.84836 0.72326 0.0
H579 H 0.87443 0.04133 0.87777 0.0
H580 H 0.32839 0.67888 0.96647 0.0
H581 H 0.3105 0.63933 0.98071 0.0
H582 H 0.3267 0.66031 0.05253 0.0
H583 H 0.34448 0.69977 0.03857 0.0
H584 H 0.34375 0.61201 0.04096 0.0
H585 H 0.2704 0.66064 0.03446 0.0
H586 H 0.24064 0.68799 0.01348 0.0
H587 H 0.23131 0.62914 0.96167 0.0
H588 H 0.26112 0.60144 0.98235 0.0
H589 H 0.28172 0.5236 0.11 0.0
H590 H 0.29471 0.56264 0.09038 0.0
H591 H 0.27911 0.52967 0.02249 0.0
H592 H 0.26634 0.49 0.04216 0.0
H593 H 0.26223 0.58191 0.02802 0.0
H594 H 0.33244 0.53114 0.03806 0.0
H595 H 0.36388 0.50499 0.05771 0.0
H596 H 0.38149 0.56889 0.10153 0.0
H597 H 0.34938 0.59504 0.083 0.0
C598 C 0.3277 0.67534 0.98532 0.0
C599 C 0.33796 0.69247 1.00136 0.0
C600 C 0.31745 0.65274 0.99342 0.0
C601 C 0.31737 0.64685 0.01767 0.0
C602 C 0.32662 0.66447 0.03374 0.0
C603 C 0.33665 0.68714 0.02571 0.0
C604 C 0.30943 0.62149 0.02627 0.0
C605 C 0.32582 0.60556 0.03851 0.0
C606 C 0.28635 0.61271 0.02204 0.0
C607 C 0.26815 0.62909 0.00981 0.0
C608 C 0.26211 0.6536 0.01851 0.0
C609 C 0.24522 0.66915 1.00669 0.0
C610 C 0.2342 0.66038 0.98617 0.0
C611 C 0.23991 0.63594 0.97754 0.0
C612 C 0.25675 0.62027 0.98934 0.0
C613 C 0.28101 0.5246 0.09088 0.0
C614 C 0.27309 0.50372 0.07756 0.0
C615 C 0.28852 0.54691 0.07971 0.0
C616 C 0.28804 0.54897 0.055 0.0
C617 C 0.27966 0.52839 0.04159 0.0
C618 C 0.27246 0.50578 0.0528 0.0
C619 C 0.2964 0.57274 0.04348 0.0
C620 C 0.28016 0.58831 0.03054 0.0
C621 C 0.31971 0.58126 0.04712 0.0
C622 C 0.33827 0.56505 0.05922 0.0
C623 C 0.34267 0.5395 0.05221 0.0
C624 C 0.36066 0.52466 0.06314 0.0
C625 C 0.37467 0.53526 0.08087 0.0
C626 C 0.37067 0.56071 0.08775 0.0
C627 C 0.35248 0.5755 0.07713 0.0
H628 H 0.38864 0.52376 0.08927 0.0
H629 H 0.22118 0.6725 0.977 0.0
H630 H 0.57459 0.08404 0.25457 0.0
H631 H 0.61423 0.07011 0.26696 0.0
H632 H 0.58573 0.03757 0.33049 0.0
H633 H 0.54569 0.0509 0.31726 0.0
H634 H 0.62484 0.06733 0.3387 0.0
H635 H 0.60416 0.9983 0.286 0.0
H636 H 0.59014 0.98113 0.24799 0.0
H637 H 0.64781 0.01611 0.21245 0.0
H638 H 0.66204 0.03373 0.25023 0.0
H639 H 0.72185 0.99588 0.38197 0.0
H640 H 0.68383 0.00995 0.36576 0.0
H641 H 0.71702 0.0323 0.30084 0.0
H642 H 0.75562 0.01729 0.31701 0.0
H643 H 0.67652 0.00978 0.29134 0.0
H644 H 0.69892 0.07732 0.34163 0.0
H645 H 0.71225 0.1001 0.37722 0.0
H646 H 0.65222 0.07361 0.41506 0.0
H647 H 0.63873 0.05026 0.37986 0.0
C648 C 0.57661 0.07276 0.27041 0.0
C649 C 0.55692 0.06726 0.28409 0.0
C650 C 0.59937 0.06525 0.27785 0.0
C651 C 0.60298 0.0522 0.29941 0.0
C652 C 0.58337 0.04732 0.31361 0.0
C653 C 0.56053 0.05484 0.30603 0.0
C654 C 0.62729 0.04443 0.30736 0.0
C655 C 0.63602 0.05438 0.3286 0.0
C656 C 0.64228 0.02859 0.29353 0.0
C657 C 0.63406 0.01748 0.27092 0.0
C658 C 0.61379 0.00242 0.27006 0.0
C659 C 0.60581 0.9926 0.24856 0.0
C660 C 0.61805 0.99757 0.22781 0.0
C661 C 0.63835 0.01228 0.22854 0.0
C662 C 0.6464 0.02215 0.25 0.0
C663 C 0.72118 0.00354 0.36414 0.0
C664 C 0.74182 0.0054 0.35075 0.0
C665 C 0.69934 0.01188 0.35496 0.0
C666 C 0.69749 0.02274 0.33224 0.0
C667 C 0.71799 0.02416 0.3185 0.0
C668 C 0.74003 0.0156 0.32772 0.0
C669 C 0.674 0.03219 0.3231 0.0
C670 C 0.66541 0.02268 0.30156 0.0
C671 C 0.65925 0.04886 0.33647 0.0
C672 C 0.66789 0.06186 0.35809 0.0
C673 C 0.68872 0.07604 0.35763 0.0
C674 C 0.69627 0.08913 0.37772 0.0
C675 C 0.68305 0.08836 0.39836 0.0
C676 C 0.66242 0.07423 0.39905 0.0
C677 C 0.65482 0.06106 0.37903 0.0
H678 H 0.68873 0.09884 0.41377 0.0
H679 H 0.61182 0.98999 0.21118 0.0
H680 H 0.70926 0.22015 0.53307 0.0
H681 H 0.72522 0.17716 0.52359 0.0
H682 H 0.68953 0.18099 0.45585 0.0
H683 H 0.67401 0.22418 0.46499 0.0
H684 H 0.6835 0.13342 0.48778 0.0
H685 H 0.74227 0.18882 0.45189 0.0
H686 H 0.77073 0.22386 0.45452 0.0
H687 H 0.80881 0.18291 0.50973 0.0
H688 H 0.78039 0.14773 0.50757 0.0
H689 H 0.72596 0.03005 0.42197 0.0
H690 H 0.71185 0.06998 0.43906 0.0
H691 H 0.77468 0.07262 0.48291 0.0
H692 H 0.78978 0.03319 0.46422 0.0
H693 H 0.76762 0.11667 0.46852 0.0
H694 H 0.71407 0.05974 0.50392 0.0
H695 H 0.68555 0.02478 0.50643 0.0
H696 H 0.63763 0.06694 0.46026 0.0
H697 H 0.66599 0.102 0.45719 0.0
C698 C 0.70507 0.21187 0.51608 0.0
C699 C 0.69061 0.22543 0.49967 0.0
C700 C 0.71411 0.18738 0.51073 0.0
C701 C 0.70847 0.17602 0.48907 0.0
C702 C 0.69402 0.18953 0.47266 0.0
C703 C 0.68536 0.21421 0.47781 0.0
C704 C 0.71758 0.14993 0.48351 0.0
C705 C 0.70182 0.12962 0.48335 0.0
C706 C 0.74168 0.14502 0.47893 0.0
C707 C 0.75912 0.16578 0.47971 0.0
C708 C 0.75665 0.18736 0.46467 0.0
C709 C 0.77278 0.20723 0.46606 0.0
C710 C 0.79153 0.20565 0.48233 0.0
C711 C 0.79427 0.18412 0.49715 0.0
C712 C 0.77818 0.16419 0.49582 0.0
C713 C 0.73661 0.03885 0.43559 0.0
C714 C 0.75885 0.02839 0.44201 0.0
C715 C 0.72843 0.06176 0.44549 0.0
C716 C 0.74183 0.07431 0.46277 0.0
C717 C 0.7639 0.06343 0.46966 0.0
C718 C 0.77247 0.04082 0.45914 0.0
C719 C 0.73343 0.09961 0.4722 0.0
C720 C 0.7493 0.11999 0.47318 0.0
C721 C 0.70948 0.1044 0.47829 0.0
C722 C 0.69224 0.08345 0.48024 0.0
C723 C 0.6975 0.0615 0.49421 0.0
C724 C 0.68136 0.04167 0.49573 0.0
C725 C 0.65981 0.04362 0.48348 0.0
C726 C 0.65433 0.06545 0.46974 0.0
C727 C 0.67041 0.08534 0.46814 0.0
H728 H 0.64735 0.02823 0.48466 0.0
H729 H 0.80397 0.22108 0.48342 0.0
H730 H 0.08167 0.40782 0.77403 0.0
H731 H 0.11845 0.42559 0.75996 0.0
H732 H 0.08497 0.44426 0.69288 0.0
H733 H 0.04829 0.42588 0.7066 0.0
H734 H 0.12537 0.42088 0.68567 0.0
H735 H 0.09962 0.49123 0.73367 0.0
H736 H 0.0853 0.51203 0.76994 0.0
H737 H 0.14847 0.4871 0.80707 0.0
H738 H 0.16304 0.46587 0.77109 0.0
H739 H 0.22064 0.52218 0.66922 0.0
H740 H 0.18489 0.50865 0.68876 0.0
H741 H 0.21006 0.42971 0.68741 0.0
H742 H 0.24575 0.44297 0.66734 0.0
H743 H 0.17336 0.4846 0.72837 0.0
H744 H 0.16281 0.39145 0.67406 0.0
H745 H 0.17559 0.37354 0.63594 0.0
H746 H 0.18166 0.44986 0.60748 0.0
H747 H 0.16837 0.46821 0.64521 0.0
C748 C 0.08198 0.41612 0.75643 0.0
C749 C 0.06203 0.41538 0.74142 0.0
C750 C 0.10306 0.4263 0.74839 0.0
C751 C 0.10451 0.43632 0.72535 0.0
C752 C 0.08434 0.4365 0.71068 0.0
C753 C 0.06332 0.42613 0.71861 0.0
C754 C 0.12732 0.44541 0.71611 0.0
C755 C 0.13584 0.43483 0.69502 0.0
C756 C 0.14092 0.4638 0.72814 0.0
C757 C 0.13232 0.47677 0.74974 0.0
C758 C 0.11039 0.49005 0.74961 0.0
C759 C 0.10224 0.50194 0.77011 0.0
C760 C 0.11594 0.50083 0.79081 0.0
C761 C 0.13786 0.48792 0.79103 0.0
C762 C 0.14609 0.47598 0.77058 0.0
C763 C 0.21881 0.50195 0.67334 0.0
C764 C 0.23598 0.48362 0.66639 0.0
C765 C 0.19833 0.49427 0.6846 0.0
C766 C 0.1946 0.46813 0.68915 0.0
C767 C 0.21239 0.44995 0.68367 0.0
C768 C 0.23285 0.4576 0.67229 0.0
C769 C 0.17145 0.45988 0.6981 0.0
C770 C 0.1629 0.47059 0.7191 0.0
C771 C 0.15754 0.44205 0.68568 0.0
C772 C 0.16488 0.4312 0.66261 0.0
C773 C 0.16674 0.40441 0.65963 0.0
C774 C 0.17407 0.39418 0.63809 0.0
C775 C 0.17956 0.41055 0.61935 0.0
C776 C 0.1775 0.43719 0.62204 0.0
C777 C 0.17005 0.44752 0.6435 0.0
H778 H 0.18534 0.4026 0.60273 0.0
H779 H 0.10959 0.51003 0.80667 0.0
H780 H 0.78453 0.96841 0.95994 0.0
H781 H 0.79679 0.92776 0.97975 0.0
H782 H 0.79159 0.88825 0.91323 0.0
H783 H 0.77899 0.92811 0.89379 0.0
H784 H 0.77291 0.86024 0.94542 0.0
H785 H 0.84543 0.90579 0.93842 0.0
H786 H 0.87242 0.94175 0.94429 0.0
H787 H 0.86763 0.9325 0.0195 0.0
H788 H 0.84036 0.89666 0.01406 0.0
H789 H 0.84924 0.74978 0.96047 0.0
H790 H 0.8332 0.79226 0.94861 0.0
H791 H 0.82383 0.81195 0.02175 0.0
H792 H 0.83898 0.76911 0.0337 0.0
H793 H 0.84786 0.85051 0.99125 0.0
H794 H 0.77746 0.80068 0.99585 0.0
H795 H 0.7528 0.76338 0.98731 0.0
H796 H 0.75618 0.77987 0.91301 0.0
H797 H 0.78118 0.81706 0.92109 0.0
C798 C 0.78598 0.95098 0.94967 0.0
C799 C 0.78081 0.95148 0.92533 0.0
C800 C 0.79307 0.92779 0.96094 0.0
C801 C 0.79527 0.90486 0.94797 0.0
C802 C 0.78994 0.90552 0.92371 0.0
C803 C 0.7828 0.92846 0.91257 0.0
C804 C 0.8031 0.87997 0.95919 0.0
C805 C 0.78937 0.85819 0.95534 0.0
C806 C 0.82437 0.87716 0.97252 0.0
C807 C 0.84061 0.8988 0.97584 0.0
C808 C 0.84996 0.91159 0.95621 0.0
C809 C 0.86535 0.93191 0.95945 0.0
C810 C 0.87167 0.93947 0.98225 0.0
C811 C 0.86267 0.92667 1.00185 0.0
C812 C 0.84725 0.90635 0.9987 0.0
C813 C 0.84357 0.76307 0.97401 0.0
C814 C 0.84549 0.75619 0.99802 0.0
C815 C 0.8345 0.78735 0.96722 0.0
C816 C 0.82743 0.80526 0.98432 0.0
C817 C 0.82934 0.79846 0.0083 0.0
C818 C 0.83801 0.77401 0.01508 0.0
C819 C 0.81787 0.83099 0.977 0.0
C820 C 0.83126 0.85279 0.98159 0.0
C821 C 0.79651 0.83379 0.96397 0.0
C822 C 0.78138 0.81151 0.95907 0.0
C823 C 0.77313 0.79622 0.97768 0.0
C824 C 0.75905 0.77512 0.97292 0.0
C825 C 0.75297 0.76922 0.94963 0.0
C826 C 0.76092 0.78445 0.93104 0.0
C827 C 0.77503 0.80555 0.9357 0.0
H828 H 0.74206 0.75289 0.94599 0.0
H829 H 0.8836 0.95519 0.98473 0.0
H830 H 0.45678 0.56106 0.27385 0.0
H831 H 0.42125 0.53928 0.261 0.0
H832 H 0.44738 0.53649 0.18982 0.0
H833 H 0.48289 0.55865 0.20243 0.0
H834 H 0.40304 0.55478 0.19023 0.0
H835 H 0.44501 0.482 0.2235 0.0
H836 H 0.46759 0.45751 0.25407 0.0
H837 H 0.40884 0.46364 0.301 0.0
H838 H 0.38601 0.48848 0.27081 0.0
H839 H 0.31927 0.44404 0.16777 0.0
H840 H 0.3556 0.4586 0.18631 0.0
H841 H 0.32182 0.53187 0.20108 0.0
H842 H 0.28557 0.51775 0.18179 0.0
H843 H 0.37112 0.47647 0.22759 0.0
H844 H 0.36141 0.57955 0.18895 0.0
H845 H 0.33806 0.60225 0.15778 0.0
H846 H 0.33389 0.53232 0.11835 0.0
H847 H 0.35816 0.50948 0.14869 0.0
C848 C 0.45519 0.55547 0.25552 0.0
C849 C 0.47268 0.56166 0.23915 0.0
C850 C 0.43484 0.54296 0.24821 0.0
C851 C 0.43167 0.53621 0.22445 0.0
C852 C 0.44944 0.5416 0.20823 0.0
C853 C 0.4698 0.55413 0.21551 0.0
C854 C 0.40923 0.52485 0.21632 0.0
C855 C 0.39611 0.53762 0.19836 0.0
C856 C 0.40025 0.50236 0.2268 0.0
C857 C 0.41387 0.48729 0.24496 0.0
C858 C 0.43696 0.47829 0.2404 0.0
C859 C 0.4498 0.46431 0.25765 0.0
C860 C 0.43968 0.45907 0.27949 0.0
C861 C 0.41667 0.46773 0.28409 0.0
C862 C 0.40376 0.48174 0.2669 0.0
C863 C 0.31939 0.46311 0.17532 0.0
C864 C 0.29967 0.47993 0.17292 0.0
C865 C 0.34019 0.47136 0.186 0.0
C866 C 0.34158 0.4965 0.19461 0.0
C867 C 0.32127 0.51256 0.19409 0.0
C868 C 0.30056 0.50446 0.18309 0.0
C869 C 0.3648 0.50665 0.20182 0.0
C870 C 0.37807 0.49365 0.21952 0.0
C871 C 0.37414 0.52869 0.19078 0.0
C872 C 0.36132 0.54271 0.17133 0.0
C873 C 0.3558 0.56909 0.17348 0.0
C874 C 0.34242 0.58199 0.15593 0.0
C875 C 0.33437 0.56869 0.13619 0.0
C876 C 0.34006 0.54257 0.13371 0.0
C877 C 0.35378 0.52969 0.15099 0.0
H878 H 0.3238 0.57866 0.12276 0.0
H879 H 0.44964 0.44825 0.29282 0.0
H880 H 0.5828 0.13641 0.29051 0.0
H881 H 0.59975 0.15287 0.3273 0.0
H882 H 0.5332 0.19048 0.34305 0.0
H883 H 0.51612 0.17409 0.30658 0.0
H884 H 0.60579 0.20026 0.34804 0.0
H885 H 0.52066 0.17861 0.40024 0.0
H886 H 0.48756 0.14871 0.39798 0.0
H887 H 0.53119 0.09423 0.36088 0.0
H888 H 0.56464 0.12357 0.36329 0.0
H889 H 0.60348 0.26696 0.45532 0.0
H890 H 0.59141 0.24786 0.41799 0.0
H891 H 0.60457 0.17196 0.44726 0.0
H892 H 0.61685 0.19088 0.4848 0.0
H893 H 0.56306 0.17543 0.42048 0.0
H894 H 0.64397 0.19392 0.41289 0.0
H895 H 0.67944 0.22026 0.4157 0.0
H896 H 0.64945 0.27361 0.36464 0.0
H897 H 0.61357 0.2478 0.36184 0.0
C898 C 0.57194 0.14871 0.30153 0.0
C899 C 0.54804 0.15378 0.2957 0.0
C900 C 0.58165 0.15803 0.32258 0.0
C901 C 0.5676 0.17248 0.33811 0.0
C902 C 0.54423 0.17897 0.33152 0.0
C903 C 0.53452 0.16965 0.3106 0.0
C904 C 0.5766 0.17939 0.36191 0.0
C905 C 0.59647 0.19484 0.36387 0.0
C906 C 0.56493 0.17154 0.38265 0.0
C907 C 0.54509 0.15342 0.38178 0.0
C908 C 0.52323 0.16018 0.39175 0.0
C909 C 0.5044 0.14333 0.39041 0.0
C910 C 0.50725 0.11962 0.37924 0.0
C911 C 0.52898 0.11263 0.36948 0.0
C912 C 0.54787 0.12937 0.37081 0.0
C913 C 0.60357 0.24619 0.454 0.0
C914 C 0.61119 0.23047 0.4731 0.0
C915 C 0.59678 0.23532 0.43257 0.0
C916 C 0.59737 0.20852 0.42978 0.0
C917 C 0.60404 0.1927 0.44905 0.0
C918 C 0.61104 0.20357 0.47049 0.0
C919 C 0.59159 0.19724 0.40649 0.0
C920 C 0.5724 0.18083 0.40466 0.0
C921 C 0.6043 0.2036 0.38597 0.0
C922 C 0.62598 0.21903 0.3873 0.0
C923 C 0.64485 0.21137 0.40239 0.0
C924 C 0.66505 0.2262 0.40397 0.0
C925 C 0.66668 0.24863 0.39039 0.0
C926 C 0.64815 0.25624 0.37516 0.0
C927 C 0.62788 0.2415 0.37355 0.0
H928 H 0.68233 0.26009 0.39164 0.0
H929 H 0.49263 0.10665 0.37817 0.0
H930 H 0.09487 0.28868 0.52518 0.0
H931 H 0.07753 0.30266 0.5624 0.0
H932 H 0.0786 0.22409 0.58755 0.0
H933 H 0.09533 0.20988 0.55025 0.0
H934 H 0.03983 0.24864 0.60223 0.0
H935 H 0.12272 0.26556 0.60109 0.0
H936 H 0.15906 0.28379 0.58518 0.0
H937 H 0.12978 0.36015 0.59289 0.0
H938 H 0.09299 0.34235 0.60828 0.0
H939 H 0.0356 0.27856 0.72637 0.0
H940 H 0.04747 0.26185 0.68761 0.0
H941 H 0.04398 0.33889 0.65867 0.0
H942 H 0.03231 0.35552 0.69696 0.0
H943 H 0.08439 0.31402 0.64648 0.0
H944 H 1.00127 0.29711 0.64644 0.0
H945 H 0.96479 0.27896 0.66211 0.0
H946 H 0.99511 0.20271 0.65729 0.0
H947 H 0.03194 0.22046 0.64192 0.0
C948 C 0.09098 0.2743 0.53843 0.0
C949 C 0.09672 0.24818 0.53477 0.0
C950 C 0.08122 0.28235 0.55979 0.0
C951 C 0.07726 0.26449 0.57802 0.0
C952 C 0.08162 0.23825 0.57385 0.0
C953 C 0.09124 0.23017 0.55246 0.0
C954 C 0.0699 0.27321 0.60186 0.0
C955 C 0.04973 0.26273 0.61201 0.0
C956 C 0.08268 0.29182 0.61458 0.0
C957 C 0.10495 0.30258 0.6056 0.0
C958 C 0.12393 0.28623 0.59921 0.0
C959 C 0.14462 0.29649 0.59027 0.0
C960 C 0.14669 0.32311 0.58795 0.0
C961 C 0.12811 0.33953 0.59462 0.0
C962 C 0.10732 0.32936 0.60343 0.0
C963 C 0.03728 0.29183 0.71166 0.0
C964 C 0.03306 0.31832 0.71471 0.0
C965 C 0.044 0.2823 0.68955 0.0
C966 C 0.0466 0.29915 0.6702 0.0
C967 C 0.04222 0.32554 0.6733 0.0
C968 C 0.03544 0.335 0.69523 0.0
C969 C 0.05421 0.28964 0.64672 0.0
C970 C 0.07451 0.29992 0.63669 0.0
C971 C 0.04161 0.27085 0.63416 0.0
C972 C 0.01945 0.26013 0.64328 0.0
C973 C 1.00024 0.27649 0.64891 0.0
C974 C 0.97948 0.26628 0.6577 0.0
C975 C 0.97766 0.23971 0.66076 0.0
C976 C 0.99657 0.22329 0.65496 0.0
C977 C 0.01738 0.23342 0.64619 0.0
H978 H 0.96157 0.23183 0.66757 0.0
H979 H 0.16273 0.33101 0.58103 0.0
H980 H 0.03281 0.79699 0.81303 0.0
H981 H 0.01729 0.77913 0.84983 0.0
H982 H 0.94932 0.81485 0.83435 0.0
H983 H 0.96438 0.83226 0.7975 0.0
H984 H 0.97074 0.82567 0.88087 0.0
H985 H 0.95105 0.75577 0.82892 0.0
H986 H 0.96002 0.72202 0.79983 0.0
H987 H 0.00931 0.6858 0.84866 0.0
H988 H 1.00088 0.71959 0.87793 0.0
H989 H 0.89939 0.77615 0.9709 0.0
H990 H 0.91671 0.79097 0.9341 0.0
H991 H 0.97208 0.73271 0.94142 0.0
H992 H 0.95368 0.71673 0.9774 0.0
H993 H 0.95921 0.73338 0.89903 0.0
H994 H 0.97966 0.80132 0.95152 0.0
H995 H 0.97267 0.83514 0.98108 0.0
H996 H 0.9256 0.87546 0.93273 0.0
H997 H 0.93211 0.84173 0.90296 0.0
C998 C 0.01446 0.80067 0.8173 0.0
C999 C 0.99981 0.81596 0.80234 0.0
C1000 C 1.00566 0.79049 0.8383 0.0
C1001 C 0.98222 0.79581 0.84475 0.0
C1002 C 0.96746 0.8106 0.82963 0.0
C1003 C 0.97609 0.82036 0.8085 0.0
C1004 C 0.97329 0.787 0.86777 0.0
C1005 C 0.968 0.80552 0.88488 0.0
C1006 C 0.97048 0.7607 0.87307 0.0
C1007 C 0.97555 0.74038 0.8555 0.0
C1008 C 0.96399 0.74076 0.83336 0.0
C1009 C 0.96893 0.72159 0.81686 0.0
C1010 C 0.98529 0.70182 0.82236 0.0
C1011 C 0.99668 0.70115 0.8444 0.0
C1012 C 0.99181 0.7203 0.86096 0.0
C1013 C 0.91543 0.76676 0.96475 0.0
C1014 C 0.92537 0.74548 0.97699 0.0
C1015 C 0.92541 0.7753 0.94376 0.0
C1016 C 0.94606 0.76335 0.93511 0.0
C1017 C 0.95618 0.7423 0.94766 0.0
C1018 C 0.94577 0.73326 0.96826 0.0
C1019 C 0.95651 0.77206 0.91249 0.0
C1020 C 0.96211 0.75355 0.89534 0.0
C1021 C 0.96 0.79842 0.9073 0.0
C1022 C 0.95624 0.81888 0.92508 0.0
C1023 C 0.96773 0.81733 0.94724 0.0
C1024 C 0.96386 0.8365 0.96402 0.0
C1025 C 0.94867 0.85741 0.9588 0.0
C1026 C 0.93736 0.85924 0.93675 0.0
C1027 C 0.94116 0.84013 0.9199 0.0
H1028 H 0.94568 0.87221 0.97183 0.0
H1029 H 0.98908 0.68699 0.80957 0.0
H1030 H 0.50044 0.62194 0.19297 0.0
H1031 H 0.48879 0.63585 0.15325 0.0
H1032 H 0.48248 0.7143 0.1769 0.0
H1033 H 0.49407 0.7003 0.21723 0.0
H1034 H 0.44722 0.65857 0.13873 0.0
H1035 H 0.49865 0.75249 0.12771 0.0
H1036 H 0.5355 0.77152 0.1423 0.0
H1037 H 0.5662 0.696 0.15356 0.0
H1038 H 0.5297 0.67656 0.13869 0.0
H1039 H 0.39961 0.72616 0.04166 0.0
H1040 H 0.41656 0.71696 0.08058 0.0
H1041 H 0.48313 0.69614 0.049 0.0
H1042 H 0.46633 0.70657 0.0096 0.0
H1043 H 0.48998 0.72191 0.09034 0.0
H1044 H 0.44444 0.64998 0.06521 0.0
H1045 H 0.40868 0.62986 0.04927 0.0
H1046 H 0.3691 0.65663 0.10873 0.0
H1047 H 0.40455 0.67726 0.12488 0.0
C1048 C 0.49668 0.64221 0.18981 0.0
C1049 C 0.4981 0.66003 0.20832 0.0
C1050 C 0.48994 0.65011 0.16704 0.0
C1051 C 0.48471 0.67609 0.16203 0.0
C1052 C 0.48653 0.69414 0.18033 0.0
C1053 C 0.49311 0.68615 0.20334 0.0
C1054 C 0.47677 0.68381 0.13772 0.0
C1055 C 0.45654 0.6725 0.12822 0.0
C1056 C 0.48915 0.70159 0.12376 0.0
C1057 C 0.51133 0.7131 0.13234 0.0
C1058 C 0.5133 0.73996 0.13322 0.0
C1059 C 0.53413 0.75082 0.14154 0.0
C1060 C 0.55315 0.73498 0.14893 0.0
C1061 C 0.55142 0.70825 0.14792 0.0
C1062 C 0.53066 0.69731 0.13957 0.0
C1063 C 0.418 0.72005 0.04291 0.0
C1064 C 0.43165 0.71716 0.0225 0.0
C1065 C 0.42763 0.7146 0.06525 0.0
C1066 C 0.45103 0.70541 0.0678 0.0
C1067 C 0.46501 0.70315 0.04751 0.0
C1068 C 0.45539 0.70897 0.02501 0.0
C1069 C 0.4602 0.69697 0.09154 0.0
C1070 C 0.48063 0.70807 0.10091 0.0
C1071 C 0.44822 0.67864 0.10533 0.0
C1072 C 0.42711 0.66535 0.09615 0.0
C1073 C 0.4281 0.65164 0.07486 0.0
C1074 C 0.40788 0.64016 0.06578 0.0
C1075 C 0.38662 0.64208 0.07793 0.0
C1076 C 0.38558 0.65523 0.09932 0.0
C1077 C 0.40574 0.66678 0.10846 0.0
H1078 H 0.37095 0.63342 0.07075 0.0
H1079 H 0.56924 0.74342 0.15539 0.0
H1080 H 0.15082 0.28761 0.32545 0.0
H1081 H 0.16275 0.30346 0.28654 0.0
H1082 H 0.20004 0.36499 0.32001 0.0
H1083 H 0.18806 0.34941 0.3587 0.0
H1084 H 0.17187 0.38324 0.28617 0.0
H1085 H 0.22831 0.31204 0.294 0.0
H1086 H 0.24121 0.26661 0.2987 0.0
H1087 H 0.2026 0.24722 0.23583 0.0
H1088 H 0.18919 0.29248 0.23094 0.0
H1089 H 0.24289 0.43879 0.20506 0.0
H1090 H 0.23204 0.40929 0.23649 0.0
H1091 H 0.19091 0.36596 0.18684 0.0
H1092 H 0.20226 0.39558 0.15481 0.0
H1093 H 0.21564 0.33528 0.22451 0.0
H1094 H 0.16166 0.40723 0.21538 0.0
H1095 H 0.15088 0.45313 0.20979 0.0
H1096 H 0.18546 0.47097 0.27536 0.0
H1097 H 0.19679 0.42522 0.28115 0.0
C1098 C 0.16186 0.30429 0.32447 0.0
C1099 C 0.16831 0.31743 0.34512 0.0
C1100 C 0.16868 0.31331 0.30223 0.0
C1101 C 0.1823 0.33544 0.30031 0.0
C1102 C 0.18938 0.348 0.321 0.0
C1103 C 0.18246 0.33913 0.34312 0.0
C1104 C 0.18801 0.3468 0.27693 0.0
C1105 C 0.18156 0.3727 0.27281 0.0
C1106 C 0.19984 0.33287 0.259 0.0
C1107 C 0.20752 0.30559 0.26226 0.0
C1108 C 0.22235 0.29804 0.28133 0.0
C1109 C 0.22981 0.27233 0.28399 0.0
C1110 C 0.2227 0.25404 0.26758 0.0
C1111 C 0.20807 0.2614 0.24853 0.0
C1112 C 0.20054 0.28707 0.24581 0.0
C1113 C 0.23195 0.42265 0.20069 0.0
C1114 C 0.22311 0.41961 0.17764 0.0
C1115 C 0.22579 0.40581 0.21866 0.0
C1116 C 0.21031 0.38578 0.21409 0.0
C1117 C 0.20283 0.3814 0.19071 0.0
C1118 C 0.20928 0.39826 0.17248 0.0
C1119 C 0.20019 0.37177 0.23437 0.0
C1120 C 0.20564 0.34554 0.23783 0.0
C1121 C 0.18737 0.3853 0.2518 0.0
C1122 C 0.18018 0.41279 0.24862 0.0
C1123 C 0.16708 0.42096 0.22854 0.0
C1124 C 0.16087 0.44695 0.22534 0.0
C1125 C 0.16751 0.46496 0.24219 0.0
C1126 C 0.18032 0.457 0.26232 0.0
C1127 C 0.18662 0.43103 0.26558 0.0
H1128 H 0.16269 0.48508 0.23967 0.0
H1129 H 0.22861 0.23418 0.26956 0.0
H1130 H 0.95994 0.88017 0.59089 0.0
H1131 H 0.94073 0.89155 0.55307 0.0
H1132 H 0.8804 0.9222 0.59011 0.0
H1133 H 0.899 0.9101 0.62776 0.0
H1134 H 0.86704 0.89108 0.55579 0.0
H1135 H 0.92119 0.96118 0.56315 0.0
H1136 H 0.96036 0.98036 0.56758 0.0
H1137 H 0.98291 0.94435 0.50346 0.0
H1138 H 0.94394 0.92467 0.49882 0.0
H1139 H 0.80012 0.9624 0.4765 0.0
H1140 H 0.82898 0.9527 0.50772 0.0
H1141 H 0.87689 0.92071 0.45652 0.0
H1142 H 0.84786 0.9311 0.42471 0.0
H1143 H 0.89991 0.94773 0.49403 0.0
H1144 H 0.84458 0.88033 0.48526 0.0
H1145 H 0.80501 0.86218 0.4806 0.0
H1146 H 0.78483 0.89311 0.54766 0.0
H1147 H 0.82417 0.91179 0.55256 0.0
C1148 C 0.94256 0.88929 0.59097 0.0
C1149 C 0.93104 0.8942 0.61244 0.0
C1150 C 0.93171 0.89603 0.56933 0.0
C1151 C 0.90916 0.90789 0.56871 0.0
C1152 C 0.89781 0.9131 0.59011 0.0
C1153 C 0.90859 0.90637 0.61168 0.0
C1154 C 0.89667 0.91382 0.54595 0.0
C1155 C 0.87421 0.90362 0.54241 0.0
C1156 C 0.90634 0.92939 0.52799 0.0
C1157 C 0.92975 0.9412 0.5308 0.0
C1158 C 0.93457 0.95716 0.55011 0.0
C1159 C 0.95672 0.96816 0.55263 0.0
C1160 C 0.97414 0.96351 0.53585 0.0
C1161 C 0.96942 0.9479 0.51647 0.0
C1162 C 0.9473 0.93683 0.51388 0.0
C1163 C 0.81695 0.95366 0.47178 0.0
C1164 C 0.82164 0.94709 0.44828 0.0
C1165 C 0.83343 0.94812 0.48965 0.0
C1166 C 0.85484 0.9354 0.48455 0.0
C1167 C 0.86037 0.93036 0.46085 0.0
C1168 C 0.84384 0.93627 0.44273 0.0
C1169 C 0.87006 0.92566 0.50442 0.0
C1170 C 0.89295 0.93495 0.50734 0.0
C1171 C 0.86088 0.90917 0.5219 0.0
C1172 C 0.8373 0.89758 0.51921 0.0
C1173 C 0.83167 0.88338 0.49896 0.0
C1174 C 0.80927 0.87299 0.49628 0.0
C1175 C 0.79241 0.87652 0.51381 0.0
C1176 C 0.79792 0.89039 0.53409 0.0
C1177 C 0.82027 0.90085 0.53684 0.0
H1178 H 0.77507 0.86847 0.5117 0.0
H1179 H 0.99127 0.97205 0.53783 0.0
H1180 H 0.29319 0.56467 0.65746 0.0
H1181 H 0.29639 0.593 0.69198 0.0
H1182 H 0.35329 0.5447 0.71991 0.0
H1183 H 0.35035 0.51684 0.68564 0.0
H1184 H 0.31714 0.55413 0.75227 0.0
H1185 H 0.36501 0.60179 0.69656 0.0
H1186 H 0.37091 0.6254 0.65921 0.0
H1187 H 0.31536 0.6792 0.67695 0.0
H1188 H 0.30895 0.6557 0.7143 0.0
H1189 H 0.37691 0.61418 0.84356 0.0
H1190 H 0.3639 0.59384 0.80737 0.0
H1191 H 0.32017 0.66058 0.78996 0.0
H1192 H 0.33434 0.68188 0.82573 0.0
H1193 H 0.34132 0.64517 0.75179 0.0
H1194 H 0.29612 0.60256 0.80905 0.0
H1195 H 0.28774 0.57954 0.84614 0.0
H1196 H 0.33349 0.51685 0.82553 0.0
H1197 H 0.34242 0.53964 0.78846 0.0
C1198 C 0.30664 0.56049 0.67076 0.0
C1199 C 0.32156 0.53862 0.66882 0.0
C1200 C 0.3084 0.57658 0.69051 0.0
C1201 C 0.32502 0.57087 0.7086 0.0
C1202 C 0.34024 0.5494 0.70628 0.0
C1203 C 0.33861 0.53354 0.6866 0.0
C1204 C 0.32635 0.58639 0.73052 0.0
C1205 C 0.32253 0.57401 0.75221 0.0
C1206 C 0.33232 0.61264 0.73039 0.0
C1207 C 0.33634 0.62684 0.70807 0.0
C1208 C 0.35394 0.61854 0.6924 0.0
C1209 C 0.3574 0.63192 0.67125 0.0
C1210 C 0.34347 0.65374 0.66568 0.0
C1211 C 0.32611 0.66227 0.68128 0.0
C1212 C 0.32257 0.64895 0.70244 0.0
C1213 C 0.36465 0.62473 0.83204 0.0
C1214 C 0.35685 0.64983 0.83764 0.0
C1215 C 0.35692 0.61286 0.8114 0.0
C1216 C 0.34071 0.62543 0.79597 0.0
C1217 C 0.33259 0.65038 0.80158 0.0
C1218 C 0.34054 0.66244 0.82221 0.0
C1219 C 0.33304 0.61258 0.77374 0.0
C1220 C 0.33556 0.62543 0.75198 0.0
C1221 C 0.32542 0.58681 0.77377 0.0
C1222 C 0.32004 0.57291 0.79601 0.0
C1223 C 0.30451 0.58394 0.81249 0.0
C1224 C 0.29965 0.57091 0.8335 0.0
C1225 C 0.3101 0.54676 0.8382 0.0
C1226 C 0.3254 0.53556 0.82187 0.0
C1227 C 0.33034 0.54851 0.80083 0.0
H1228 H 0.30631 0.53671 0.85449 0.0
H1229 H 0.34617 0.66407 0.64929 0.0
H1230 H 0.59296 0.04189 0.10647 0.0
H1231 H 0.60967 0.0296 0.0685 0.0
H1232 H 0.6464 0.10121 0.06539 0.0
H1233 H 0.62958 0.11371 0.10337 0.0
H1234 H 0.62863 0.09 0.02296 0.0
H1235 H 0.67467 0.04415 0.08228 0.0
H1236 H 0.68111 0.01536 0.11673 0.0
H1237 H 0.65009 0.95329 0.07871 0.0
H1238 H 0.64316 0.98182 0.04413 0.0
H1239 H 0.71709 0.05793 0.94053 0.0
H1240 H 0.69435 0.06985 0.97509 0.0
H1241 H 0.65975 0.99692 0.97318 0.0
H1242 H 0.68285 0.98455 0.93858 0.0
H1243 H 0.6742 0.00763 0.01719 0.0
H1244 H 0.63041 0.05342 0.95676 0.0
H1245 H 0.62469 0.08252 0.92243 0.0
H1246 H 0.65223 0.14503 0.96253 0.0
H1247 H 0.65842 0.11622 0.99701 0.0
C1248 C 0.60463 0.05503 0.09774 0.0
C1249 C 0.61009 0.07871 0.1081 0.0
C1250 C 0.61419 0.04796 0.076 0.0
C1251 C 0.62965 0.06426 0.0642 0.0
C1252 C 0.63455 0.08827 0.07413 0.0
C1253 C 0.62488 0.09542 0.09584 0.0
C1254 C 0.64108 0.05607 0.0418 0.0
C1255 C 0.6388 0.07212 0.02178 0.0
C1256 C 0.6539 0.03242 0.03999 0.0
C1257 C 0.65817 0.01519 0.06071 0.0
C1258 C 0.66906 0.02441 0.08133 0.0
C1259 C 0.67282 0.00813 0.10087 0.0
C1260 C 0.66595 0.98253 0.09993 0.0
C1261 C 0.65537 0.97314 0.07942 0.0
C1262 C 0.65153 0.98934 0.05984 0.0
C1263 C 0.70452 0.04441 0.94725 0.0
C1264 C 0.70184 0.02023 0.93665 0.0
C1265 C 0.6914 0.05136 0.96703 0.0
C1266 C 0.67508 0.03445 0.97667 0.0
C1267 C 0.67218 0.01035 0.96606 0.0
C1268 C 0.68536 0.00334 0.9462 0.0
C1269 C 0.66187 0.04163 0.99836 0.0
C1270 C 0.66386 0.02542 0.01828 0.0
C1271 C 0.64887 0.06517 1.00009 0.0
C1272 C 0.64505 0.08259 0.97942 0.0
C1273 C 0.6354 0.07333 0.95821 0.0
C1274 C 0.63205 0.08978 0.93873 0.0
C1275 C 0.63814 0.1156 0.94029 0.0
C1276 C 0.64753 0.12503 0.96135 0.0
C1277 C 0.65094 0.10865 0.98087 0.0
H1278 H 0.63553 0.1283 0.92519 0.0
H1279 H 0.66888 0.96996 0.11507 0.0
H1280 H 0.66935 0.18319 0.67993 0.0
H1281 H 0.67809 0.16311 0.71843 0.0
H1282 H 0.68557 0.08913 0.68508 0.0
H1283 H 0.6758 0.10875 0.64688 0.0
H1284 H 0.65998 0.08509 0.7231 0.0
H1285 H 0.73374 0.12563 0.70429 0.0
H1286 H 0.75879 0.16232 0.6947 0.0
H1287 H 0.73924 0.19892 0.75952 0.0
H1288 H 0.71381 0.16258 0.76934 0.0
H1289 H 0.72515 0.00359 0.79599 0.0
H1290 H 0.71422 0.03459 0.76521 0.0
H1291 H 0.70343 0.09325 0.81764 0.0
H1292 H 0.71482 0.06186 0.84905 0.0
H1293 H 0.72612 0.11087 0.7754 0.0
H1294 H 0.65627 0.06695 0.79621 0.0
H1295 H 0.63261 0.02916 0.80576 0.0
H1296 H 0.6454 0.99845 0.73682 0.0
H1297 H 0.66943 0.03587 0.72696 0.0
C1298 C 0.67267 0.16261 0.6808 0.0
C1299 C 0.6719 0.14764 0.66018 0.0
C1300 C 0.67793 0.15119 0.70284 0.0
C1301 C 0.68273 0.1246 0.7047 0.0
C1302 C 0.68199 0.10969 0.68415 0.0
C1303 C 0.67662 0.12102 0.66221 0.0
C1304 C 0.68799 0.11188 0.72795 0.0
C1305 C 0.67452 0.09072 0.73443 0.0
C1306 C 0.70638 0.11974 0.74332 0.0
C1307 C 0.72165 0.14155 0.7374 0.0
C1308 C 0.73462 0.14161 0.71639 0.0
C1309 C 0.74892 0.16232 0.71094 0.0
C1310 C 0.75054 0.18298 0.72645 0.0
C1311 C 0.73792 0.18294 0.74749 0.0
C1312 C 0.72358 0.16229 0.75301 0.0
C1313 C 0.72056 0.0231 0.8011 0.0
C1314 C 0.72045 0.03019 0.82499 0.0
C1315 C 0.71431 0.04082 0.78342 0.0
C1316 C 0.70752 0.06609 0.78912 0.0
C1317 C 0.70843 0.07375 0.81289 0.0
C1318 C 0.71486 0.05585 0.83078 0.0
C1319 C 0.69864 0.08361 0.76991 0.0
C1320 C 0.71132 0.10563 0.76423 0.0
C1321 C 0.67952 0.07657 0.75517 0.0
C1322 C 0.66474 0.0542 0.76089 0.0
C1323 C 0.65414 0.05208 0.78312 0.0
C1324 C 0.64065 0.03073 0.78859 0.0
C1325 C 0.63752 0.01141 0.77192 0.0
C1326 C 0.64782 0.01344 0.74971 0.0
C1327 C 0.66135 0.03474 0.74416 0.0
H1328 H 0.62709 0.99488 0.77619 0.0
H1329 H 0.76163 0.19899 0.7222 0.0
H1330 H 0.17575 0.4769 0.06753 0.0
H1331 H 0.15355 0.47022 0.03067 0.0
H1332 H 0.19131 0.39822 0.02062 0.0
H1333 H 0.21337 0.40454 0.0572 0.0
H1334 H 0.19113 0.42982 0.98087 0.0
H1335 H 0.13575 0.39792 0.038 0.0
H1336 H 0.11041 0.40147 0.07296 0.0
H1337 H 0.07165 0.4646 0.04037 0.0
H1338 H 0.09698 0.46163 1.00531 0.0
H1339 H 0.12902 0.36055 0.89555 0.0
H1340 H 0.14858 0.37696 0.93073 0.0
H1341 H 0.09921 0.44141 0.93175 0.0
H1342 H 0.07899 0.42456 0.89692 0.0
H1343 H 0.10432 0.42058 0.97489 0.0
H1344 H 0.15643 0.44988 0.91603 0.0
H1345 H 0.18164 0.44711 0.88094 0.0
H1346 H 0.22668 0.39096 0.91626 0.0
H1347 H 0.20155 0.3931 0.95146 0.0
C1348 C 0.17913 0.4595 0.05761 0.0
C1349 C 0.19638 0.44127 0.06536 0.0
C1350 C 0.16644 0.45574 0.03655 0.0
C1351 C 0.17087 0.43376 0.02289 0.0
C1352 C 0.18772 0.41538 0.03082 0.0
C1353 C 0.20023 0.419 0.05186 0.0
C1354 C 0.15852 0.42994 0.99997 0.0
C1355 C 0.17216 0.42763 0.97955 0.0
C1356 C 0.13371 0.42804 0.99816 0.0
C1357 C 0.11844 0.42976 0.01917 0.0
C1358 C 0.12196 0.41271 0.03838 0.0
C1359 C 0.10757 0.41458 0.05819 0.0
C1360 C 0.08948 0.4333 0.05892 0.0
C1361 C 0.0857 0.45014 0.0398 0.0
C1362 C 0.10005 0.44836 0.01995 0.0
C1363 C 0.12229 0.37823 0.90322 0.0
C1364 C 0.10232 0.39115 0.89345 0.0
C1365 C 0.13365 0.38774 0.92323 0.0
C1366 C 0.1255 0.41056 0.93381 0.0
C1367 C 0.10584 0.4238 0.92387 0.0
C1368 C 0.09443 0.41426 0.90381 0.0
C1369 C 0.13701 0.41976 0.95581 0.0
C1370 C 0.12325 0.42313 0.97607 0.0
C1371 C 0.16173 0.42284 0.95745 0.0
C1372 C 0.17699 0.42154 0.93635 0.0
C1373 C 0.17162 0.4368 0.91627 0.0
C1374 C 0.18591 0.43537 0.89636 0.0
C1375 C 0.20572 0.41884 0.89635 0.0
C1376 C 0.21132 0.40375 0.91628 0.0
C1377 C 0.19707 0.4051 0.93623 0.0
H1378 H 0.21677 0.41775 0.88092 0.0
H1379 H 0.07836 0.43472 0.07427 0.0
H1380 H 0.7667 0.91658 0.32512 0.0
H1381 H 0.77468 0.89463 0.28805 0.0
H1382 H 0.84912 0.9079 0.29726 0.0
H1383 H 0.8411 0.93086 0.3339 0.0
H1384 H 0.83658 0.91897 0.25419 0.0
H1385 H 0.82211 0.84614 0.30608 0.0
H1386 H 0.79828 0.82189 0.3344 0.0
H1387 H 0.74177 0.81854 0.28332 0.0
H1388 H 0.76524 0.84284 0.25474 0.0
H1389 H 0.88533 0.8363 0.1702 0.0
H1390 H 0.87298 0.85564 0.20725 0.0
H1391 H 0.80016 0.84185 0.18935 0.0
H1392 H 0.81255 0.82202 0.15212 0.0
H1393 H 0.80868 0.8317 0.23534 0.0
H1394 H 0.8227 0.90183 0.18296 0.0
H1395 H 0.84486 0.92732 0.15422 0.0
H1396 H 0.9001 0.93755 0.20568 0.0
H1397 H 0.87843 0.9118 0.23464 0.0
C1398 C 0.78481 0.91461 0.31939 0.0
C1399 C 0.80329 0.92542 0.33251 0.0
C1400 C 0.78936 0.90193 0.29818 0.0
C1401 C 0.81256 0.89921 0.28994 0.0
C1402 C 0.83106 0.90972 0.30321 0.0
C1403 C 0.82647 0.92279 0.3242 0.0
C1404 C 0.81759 0.88641 0.26704 0.0
C1405 C 0.83077 0.89972 0.25027 0.0
C1406 C 0.80917 0.86172 0.26139 0.0
C1407 C 0.79536 0.84645 0.27834 0.0
C1408 C 0.80458 0.84026 0.30091 0.0
C1409 C 0.79115 0.82649 0.317 0.0
C1410 C 0.76851 0.8187 0.31068 0.0
C1411 C 0.75931 0.82454 0.2882 0.0
C1412 C 0.7727 0.83825 0.27202 0.0
C1413 C 0.86666 0.83751 0.17405 0.0
C1414 C 0.84987 0.82801 0.15805 0.0
C1415 C 0.85962 0.84855 0.19527 0.0
C1416 C 0.8356 0.8507 0.20091 0.0
C1417 C 0.81879 0.84052 0.18533 0.0
C1418 C 0.82587 0.82922 0.16408 0.0
C1419 C 0.82826 0.86401 0.22288 0.0
C1420 C 0.81452 0.85091 0.23934 0.0
C1421 C 0.83599 0.88902 0.22823 0.0
C1422 C 0.84901 0.9047 0.21091 0.0
C1423 C 0.83965 0.90937 0.1881 0.0
C1424 C 0.85211 0.92388 0.17178 0.0
C1425 C 0.8739 0.934 0.1781 0.0
C1426 C 0.88323 0.92968 0.2008 0.0
C1427 C 0.87085 0.91515 0.21718 0.0
H1428 H 0.88352 0.94523 0.16544 0.0
H1429 H 0.7581 0.80812 0.32318 0.0
H1430 H 0.33277 0.56993 0.56601 0.0
H1431 H 0.3551 0.58172 0.53116 0.0
H1432 H 0.36585 0.50145 0.5147 0.0
H1433 H 0.34418 0.48947 0.5501 0.0
H1434 H 0.40432 0.52652 0.50457 0.0
H1435 H 0.32202 0.53963 0.48671 0.0
H1436 H 0.28151 0.55646 0.49282 0.0
H1437 H 0.30594 0.63386 0.48828 0.0
H1438 H 0.34667 0.61748 0.48247 0.0
H1439 H 0.43448 0.55255 0.38422 0.0
H1440 H 0.4142 0.53699 0.41931 0.0
H1441 H 0.40573 0.61495 0.44378 0.0
H1442 H 0.42547 0.63066 0.40865 0.0
H1443 H 0.3655 0.58858 0.44849 0.0
H1444 H 0.44815 0.57486 0.46814 0.0
H1445 H 0.48834 0.55773 0.46095 0.0
H1446 H 0.46249 0.4808 0.46029 0.0
H1447 H 0.42207 0.49752 0.46746 0.0
C1448 C 0.34005 0.55475 0.55511 0.0
C1449 C 0.33648 0.52875 0.56075 0.0
C1450 C 0.35274 0.56152 0.53508 0.0
C1451 C 0.36168 0.54251 0.51988 0.0
C1452 C 0.35902 0.5165 0.52602 0.0
C1453 C 0.3466 0.50968 0.54629 0.0
C1454 C 0.37305 0.54985 0.49726 0.0
C1455 C 0.39566 0.53981 0.49217 0.0
C1456 C 0.36195 0.5674 0.48107 0.0
C1457 C 0.33743 0.57731 0.48435 0.0
C1458 C 0.31878 0.56023 0.48716 0.0
C1459 C 0.29578 0.5697 0.49055 0.0
C1460 C 0.29117 0.59621 0.49099 0.0
C1461 C 0.30954 0.61332 0.48796 0.0
C1462 C 0.33259 0.60396 0.4846 0.0
C1463 C 0.42818 0.5664 0.39698 0.0
C1464 C 0.43187 0.59286 0.39369 0.0
C1465 C 0.41674 0.55745 0.41714 0.0
C1466 C 0.40869 0.57478 0.43434 0.0
C1467 C 0.41188 0.6012 0.43083 0.0
C1468 C 0.42337 0.61013 0.41079 0.0
C1469 C 0.39683 0.56559 0.45603 0.0
C1470 C 0.37408 0.57522 0.46088 0.0
C1471 C 0.40774 0.54759 0.47187 0.0
C1472 C 0.43208 0.53745 0.46812 0.0
C1473 C 0.45103 0.5543 0.46635 0.0
C1474 C 0.47385 0.54467 0.46228 0.0
C1475 C 0.47796 0.51821 0.45999 0.0
C1476 C 0.45927 0.5013 0.462 0.0
C1477 C 0.43641 0.51083 0.46614 0.0
H1478 H 0.49563 0.51081 0.45673 0.0
H1479 H 0.27335 0.6035 0.49363 0.0
H1480 H 0.20077 0.23655 0.41152 0.0
H1481 H 0.23682 0.22744 0.38921 0.0
H1482 H 0.25042 0.15925 0.43159 0.0
H1483 H 0.21472 0.16815 0.4539 0.0
H1484 H 0.28978 0.18789 0.42757 0.0
H1485 H 0.23022 0.15405 0.37472 0.0
H1486 H 0.19334 0.15763 0.35113 0.0
H1487 H 0.22158 0.22001 0.31117 0.0
H1488 H 0.25866 0.2168 0.33452 0.0
H1489 H 0.37676 0.11923 0.36445 0.0
H1490 H 0.34109 0.13393 0.38438 0.0
H1491 H 0.33154 0.19529 0.33315 0.0
H1492 H 0.36662 0.17987 0.31243 0.0
H1493 H 0.2906 0.17464 0.34092 0.0
H1494 H 0.3515 0.20632 0.39069 0.0
H1495 H 0.38804 0.20463 0.41484 0.0
H1496 H 0.35742 0.14952 0.46151 0.0
H1497 H 0.32079 0.15061 0.43745 0.0
C1498 C 0.21133 0.2195 0.41597 0.0
C1499 C 0.20474 0.2031 0.43454 0.0
C1500 C 0.23195 0.2143 0.40317 0.0
C1501 C 0.24637 0.19261 0.40869 0.0
C1502 C 0.23968 0.17614 0.42705 0.0
C1503 C 0.21911 0.18124 0.43973 0.0
C1504 C 0.26866 0.18704 0.39573 0.0
C1505 C 0.28994 0.18474 0.40865 0.0
C1506 C 0.26905 0.1838 0.37095 0.0
C1507 C 0.24711 0.18529 0.35644 0.0
C1508 C 0.22853 0.16855 0.36091 0.0
C1509 C 0.20763 0.17049 0.34756 0.0
C1510 C 0.20513 0.18904 0.32964 0.0
C1511 C 0.22359 0.20561 0.32498 0.0
C1512 C 0.24457 0.20369 0.33822 0.0
C1513 C 0.36707 0.13578 0.35728 0.0
C1514 C 0.37473 0.14831 0.3367 0.0
C1515 C 0.34673 0.14438 0.3689 0.0
C1516 C 0.33365 0.16598 0.36052 0.0
C1517 C 0.34129 0.17864 0.34008 0.0
C1518 C 0.36159 0.16995 0.32836 0.0
C1519 C 0.31179 0.17493 0.37284 0.0
C1520 C 0.29057 0.17794 0.35981 0.0
C1521 C 0.31149 0.17907 0.39756 0.0
C1522 C 0.33346 0.17839 0.41214 0.0
C1523 C 0.35262 0.1937 0.40601 0.0
C1524 C 0.37334 0.19287 0.4197 0.0
C1525 C 0.37507 0.17693 0.43967 0.0
C1526 C 0.35606 0.16184 0.44602 0.0
C1527 C 0.3353 0.16257 0.43238 0.0
H1528 H 0.39113 0.17632 0.45025 0.0
H1529 H 0.1889 0.19059 0.31937 0.0
H1530 H 0.0876 0.07888 0.55807 0.0
H1531 H 0.07133 0.04396 0.58166 0.0
H1532 H 0.11983 0.06056 0.63855 0.0
H1533 H 0.1359 0.09564 0.61532 0.0
H1534 H 0.12072 0.00955 0.62672 0.0
H1535 H 0.06202 0.07597 0.64306 0.0
H1536 H 0.03192 0.10913 0.63201 0.0
H1537 H 0.9911 0.05229 0.59649 0.0
H1538 H 0.02112 0.01883 0.6071 0.0
H1539 H 0.08001 0.93557 0.72097 0.0
H1540 H 0.09139 0.97044 0.69484 0.0
H1541 H 0.03554 0.95147 0.64596 0.0
H1542 H 0.02353 0.91684 0.67245 0.0
H1543 H 0.03721 1.00185 0.65053 0.0
H1544 H 0.09379 0.93511 0.63487 0.0
H1545 H 0.1237 0.9012 0.64434 0.0
H1546 H 0.16841 0.95723 0.67594 0.0
H1547 H 0.13862 0.99144 0.66696 0.0
C1548 C 0.09447 0.07542 0.57579 0.0
C1549 C 0.11316 0.08993 0.58476 0.0
C1550 C 0.08522 0.05541 0.5892 0.0
C1551 C 0.09443 0.04966 0.61182 0.0
C1552 C 0.1126 0.06456 0.62105 0.0
C1553 C 0.1218 0.08456 0.60772 0.0
C1554 C 0.08601 0.02738 0.62557 0.0
C1555 C 0.10251 0.00799 0.63217 0.0
C1556 C 0.06209 0.0249 0.63184 0.0
C1557 C 0.04393 0.04496 0.62567 0.0
C1558 C 0.04671 0.07058 0.63275 0.0
C1559 C 0.02965 0.08942 0.62659 0.0
C1560 C 0.00965 0.08284 0.6135 0.0
C1561 C 1.00662 0.05737 0.60661 0.0
C1562 C 0.02364 0.03846 0.61271 0.0
C1563 C 0.07018 0.93867 0.70462 0.0
C1564 C 0.05097 0.92326 0.69873 0.0
C1565 C 0.07676 0.95861 0.68964 0.0
C1566 C 0.06458 0.96332 0.66822 0.0
C1567 C 0.04524 0.94814 0.66235 0.0
C1568 C 0.03847 0.9283 0.67748 0.0
C1569 C 0.07205 0.98424 0.65215 0.0
C1570 C 0.05539 0.00331 0.645 0.0
C1571 C 0.09582 0.98631 0.64509 0.0
C1572 C 0.11388 0.96581 0.6504 0.0
C1573 C 0.10993 0.94018 0.64398 0.0
C1574 C 0.12687 0.92091 0.64924 0.0
C1575 C 0.14792 0.92705 0.66078 0.0
C1576 C 0.15209 0.9525 0.66702 0.0
C1577 C 0.13519 0.97184 0.66182 0.0
H1578 H 0.16101 0.9121 0.66484 0.0
H1579 H 0.99646 0.09745 0.60874 0.0
H1580 H 0.18596 0.85846 0.83888 0.0
H1581 H 0.22289 0.84259 0.85695 0.0
H1582 H 0.19901 0.76469 0.85197 0.0
H1583 H 0.16162 0.78059 0.83404 0.0
H1584 H 0.21825 0.77429 0.89544 0.0
H1585 H 0.24144 0.78378 0.81577 0.0
H1586 H 0.24489 0.80535 0.77707 0.0
H1587 H 0.28491 0.86517 0.80909 0.0
H1588 H 0.2814 0.84417 0.84806 0.0
H1589 H 0.35255 0.75275 0.91991 0.0
H1590 H 0.31934 0.75395 0.89123 0.0
H1591 H 0.28354 0.81126 0.93317 0.0
H1592 H 0.31649 0.81061 0.96124 0.0
H1593 H 0.29621 0.80054 0.86573 0.0
H1594 H 0.22711 0.78687 0.93912 0.0
H1595 H 0.2242 0.76422 0.97739 0.0
H1596 H 0.27667 0.70859 0.95579 0.0
H1597 H 0.27963 0.73065 0.91724 0.0
C1598 C 0.18846 0.83794 0.84171 0.0
C1599 C 0.17072 0.82082 0.83514 0.0
C1600 C 0.20973 0.82886 0.85183 0.0
C1601 C 0.21389 0.8024 0.85562 0.0
C1602 C 0.19625 0.78518 0.84912 0.0
C1603 C 0.17495 0.79427 0.83879 0.0
C1604 C 0.23636 0.79317 0.8672 0.0
C1605 C 0.23529 0.77974 0.88876 0.0
C1606 C 0.25871 0.79978 0.85831 0.0
C1607 C 0.26105 0.81243 0.83488 0.0
C1608 C 0.25085 0.80162 0.81459 0.0
C1609 C 0.25283 0.81374 0.7926 0.0
C1610 C 0.26509 0.83663 0.79063 0.0
C1611 C 0.27543 0.84743 0.81065 0.0
C1612 C 0.27348 0.8354 0.83269 0.0
C1613 C 0.33774 0.76584 0.92272 0.0
C1614 C 0.33714 0.78159 0.94279 0.0
C1615 C 0.31879 0.76648 0.9064 0.0
C1616 C 0.2989 0.78254 0.91024 0.0
C1617 C 0.29862 0.79861 0.92997 0.0
C1618 C 0.31754 0.79824 0.94598 0.0
C1619 C 0.27789 0.78261 0.89426 0.0
C1620 C 0.27919 0.79453 0.87203 0.0
C1621 C 0.25579 0.77429 0.90237 0.0
C1622 C 0.2537 0.76056 0.92533 0.0
C1623 C 0.23792 0.76972 0.94246 0.0
C1624 C 0.23628 0.75699 0.96421 0.0
C1625 C 0.25029 0.73503 0.96903 0.0
C1626 C 0.26589 0.72566 0.95206 0.0
C1627 C 0.26758 0.73829 0.93027 0.0
H1628 H 0.24905 0.72529 0.98591 0.0
H1629 H 0.2666 0.84599 0.77359 0.0
H1630 H 0.44977 0.05099 0.2131 0.0
H1631 H 0.43254 0.01747 0.18883 0.0
H1632 H 0.50097 0.99977 0.15973 0.0
H1633 H 0.51825 0.03361 0.1835 0.0
H1634 H 0.46846 1.00073 0.12586 0.0
H1635 H 0.47613 0.96162 0.20297 0.0
H1636 H 0.47035 0.95839 0.24598 0.0
H1637 H 0.39517 0.9595 0.23523 0.0
H1638 H 0.4005 0.96308 0.19215 0.0
H1639 H 0.44646 0.87795 0.07802 0.0
H1640 H 0.46094 0.91429 0.10056 0.0
H1641 H 0.39087 0.92915 0.12694 0.0
H1642 H 0.37628 0.8926 0.1045 0.0
H1643 H 0.42259 0.93076 0.1618 0.0
H1644 H 0.41534 0.968 0.08416 0.0
H1645 H 0.42163 0.97065 0.0412 0.0
H1646 H 0.49659 0.97256 0.05296 0.0
H1647 H 0.49076 0.96956 0.09598 0.0
C1648 C 0.46119 0.03996 0.20156 0.0
C1649 C 0.48544 0.04496 0.20034 0.0
C1650 C 0.4513 0.02072 0.18774 0.0
C1651 C 0.4655 0.00585 0.17266 0.0
C1652 C 0.48965 0.01098 0.17124 0.0
C1653 C 0.49952 0.03032 0.18491 0.0
C1654 C 0.45525 0.98499 0.15828 0.0
C1655 C 0.45866 0.98527 0.13376 0.0
C1656 C 0.44195 0.96514 0.16847 0.0
C1657 C 0.43871 0.96289 0.19436 0.0
C1658 C 0.45836 0.96137 0.20979 0.0
C1659 C 0.45517 0.95945 0.23418 0.0
C1660 C 0.43241 0.95881 0.24334 0.0
C1661 C 0.41279 0.96003 0.22812 0.0
C1662 C 0.41589 0.96199 0.20372 0.0
C1663 C 0.43404 0.88919 0.08833 0.0
C1664 C 0.41018 0.88247 0.08937 0.0
C1665 C 0.44236 0.90996 0.10123 0.0
C1666 C 0.42695 0.92468 0.11524 0.0
C1667 C 0.40309 0.91808 0.11626 0.0
C1668 C 0.39478 0.89719 0.10345 0.0
C1669 C 0.43592 0.94642 0.12939 0.0
C1670 C 0.43228 0.94629 0.15387 0.0
C1671 C 0.44907 0.96637 0.11917 0.0
C1672 C 0.45261 0.96834 0.09329 0.0
C1673 C 0.43317 0.9688 0.07758 0.0
C1674 C 0.43666 0.9704 0.05322 0.0
C1675 C 0.4595 0.97171 0.04435 0.0
C1676 C 0.47891 0.97151 0.05984 0.0
C1677 C 0.47552 0.96989 0.08422 0.0
H1678 H 0.46216 0.97294 0.02549 0.0
H1679 H 0.42997 0.95732 0.26222 0.0
H1680 H 0.86016 0.38941 0.65915 0.0
H1681 H 0.82197 0.37585 0.64372 0.0
H1682 H 0.84103 0.29677 0.65995 0.0
H1683 H 0.87949 0.31017 0.67505 0.0
H1684 H 0.82211 0.30236 0.61562 0.0
H1685 H 0.80239 0.32734 0.69367 0.0
H1686 H 0.80087 0.35553 0.72842 0.0
H1687 H 0.76111 0.41251 0.68829 0.0
H1688 H 0.76271 0.38481 0.65315 0.0
H1689 H 0.70876 0.25245 0.59806 0.0
H1690 H 0.74384 0.2662 0.61938 0.0
H1691 H 0.73053 0.34427 0.59565 0.0
H1692 H 0.69532 0.3307 0.57393 0.0
H1693 H 0.74605 0.33827 0.64489 0.0
H1694 H 0.76757 0.31217 0.56621 0.0
H1695 H 0.76866 0.28234 0.5326 0.0
H1696 H 0.80495 0.22534 0.57578 0.0
H1697 H 0.80372 0.2547 0.60979 0.0
C1698 C 0.85626 0.36912 0.65934 0.0
C1699 C 0.87285 0.35085 0.66826 0.0
C1700 C 0.83437 0.36143 0.65071 0.0
C1701 C 0.82862 0.33533 0.65086 0.0
C1702 C 0.84512 0.31701 0.65973 0.0
C1703 C 0.867 0.32471 0.66849 0.0
C1704 C 0.80558 0.32717 0.64118 0.0
C1705 C 0.80548 0.30992 0.62226 0.0
C1706 C 0.78391 0.33736 0.64962 0.0
C1707 C 0.78287 0.3541 0.6707 0.0
C1708 C 0.7935 0.34598 0.69218 0.0
C1709 C 0.79259 0.36186 0.71196 0.0
C1710 C 0.78095 0.38583 0.71054 0.0
C1711 C 0.77015 0.39395 0.68935 0.0
C1712 C 0.77103 0.37816 0.66949 0.0
C1713 C 0.71299 0.27265 0.59761 0.0
C1714 C 0.69932 0.29045 0.58408 0.0
C1715 C 0.7331 0.28042 0.60979 0.0
C1716 C 0.73985 0.30615 0.60883 0.0
C1717 C 0.72557 0.3243 0.59652 0.0
C1718 C 0.70551 0.31649 0.58409 0.0
C1719 C 0.76268 0.31364 0.61933 0.0
C1720 C 0.76272 0.33072 0.63835 0.0
C1721 C 0.78431 0.30312 0.61114 0.0
C1722 C 0.78532 0.28554 0.59063 0.0
C1723 C 0.7756 0.29319 0.56861 0.0
C1724 C 0.77627 0.27638 0.54947 0.0
C1725 C 0.78681 0.25192 0.55207 0.0
C1726 C 0.79676 0.24427 0.5738 0.0
C1727 C 0.79609 0.26099 0.59301 0.0
H1728 H 0.78731 0.23893 0.53723 0.0
H1729 H 0.78025 0.39809 0.72588 0.0
H1730 H 0.99489 0.45344 0.78671 0.0
H1731 H 0.98302 0.48096 0.81943 0.0
H1732 H 0.95396 0.41564 0.85523 0.0
H1733 H 0.96632 0.38768 0.82244 0.0
H1734 H 0.92282 0.46043 0.85169 0.0
H1735 H 0.99989 0.43737 0.87812 0.0
H1736 H 0.04256 0.42944 0.87431 0.0
H1737 H 0.05231 0.50955 0.85923 0.0
H1738 H 0.00939 0.51786 0.86233 0.0
H1739 H 0.90022 0.53575 0.95426 0.0
H1740 H 0.9145 0.50177 0.92819 0.0
H1741 H 0.95187 0.55761 0.88732 0.0
H1742 H 0.93721 0.59192 0.91298 0.0
H1743 H 0.97903 0.51362 0.89676 0.0
H1744 H 0.9009 0.53511 0.86682 0.0
H1745 H 0.8578 0.54194 0.86947 0.0
H1746 H 0.85033 0.46344 0.89175 0.0
H1747 H 0.89346 0.45625 0.88955 0.0
C1748 C 0.98621 0.44485 0.80167 0.0
C1749 C 0.98149 0.41846 0.80206 0.0
C1750 C 0.97945 0.4606 0.82035 0.0
C1751 C 0.96759 0.45037 0.83974 0.0
C1752 C 0.96308 0.4239 0.84039 0.0
C1753 C 0.97025 0.40796 0.82178 0.0
C1754 C 0.95943 0.46782 0.85877 0.0
C1755 C 0.9351 0.47167 0.86194 0.0
C1756 C 0.97547 0.48284 0.87176 0.0
C1757 C 1.00136 0.47819 0.87026 0.0
C1758 C 0.01108 0.45328 0.87379 0.0
C1759 C 0.03535 0.44872 0.87177 0.0
C1760 C 0.05021 0.46898 0.86652 0.0
C1761 C 0.04078 0.49387 0.86329 0.0
C1762 C 0.01645 0.49852 0.86517 0.0
C1763 C 0.9112 0.54095 0.93955 0.0
C1764 C 0.91733 0.56673 0.93565 0.0
C1765 C 0.91949 0.52141 0.92474 0.0
C1766 C 0.93412 0.52714 0.90569 0.0
C1767 C 0.94064 0.55272 0.90195 0.0
C1768 C 0.93227 0.57233 0.9167 0.0
C1769 C 0.94237 0.50652 0.88947 0.0
C1770 C 0.96674 0.50216 0.88676 0.0
C1771 C 0.92635 0.49094 0.87698 0.0
C1772 C 0.90043 0.49523 0.87829 0.0
C1773 C 0.89009 0.51937 0.87249 0.0
C1774 C 0.86565 0.52329 0.87387 0.0
C1775 C 0.85134 0.50316 0.88085 0.0
C1776 C 0.86144 0.47903 0.8864 0.0
C1777 C 0.88588 0.47502 0.88508 0.0
H1778 H 0.83242 0.50623 0.8819 0.0
H1779 H 0.06903 0.46539 0.865 0.0
H1780 H 0.83746 0.71833 0.10947 0.0
H1781 H 0.80356 0.70658 0.13329 0.0
H1782 H 0.7893 0.64416 0.08587 0.0
H1783 H 0.82333 0.65525 0.06247 0.0
H1784 H 0.75871 0.70698 0.12279 0.0
H1785 H 0.76319 0.59569 0.11308 0.0
H1786 H 0.79333 0.56089 0.11004 0.0
H1787 H 0.84374 0.60734 0.14614 0.0
H1788 H 0.81381 0.64228 0.14969 0.0
H1789 H 0.64712 0.65282 0.14055 0.0
H1790 H 0.68549 0.66569 0.12588 0.0
H1791 H 0.71979 0.63037 0.18689 0.0
H1792 H 0.68143 0.61718 0.20149 0.0
H1793 H 0.74298 0.61785 0.14911 0.0
H1794 H 0.71368 0.69665 0.18097 0.0
H1795 H 0.68491 0.73221 0.18724 0.0
H1796 H 0.68706 0.75224 0.11359 0.0
H1797 H 0.71561 0.71656 0.1068 0.0
C1798 C 0.82728 0.7019 0.10429 0.0
C1799 C 0.8332 0.68772 0.08407 0.0
C1800 C 0.80785 0.69525 0.11789 0.0
C1801 C 0.79396 0.67432 0.11154 0.0
C1802 C 0.79999 0.66003 0.09148 0.0
C1803 C 0.81948 0.6665 0.07803 0.0
C1804 C 0.77252 0.66804 0.12512 0.0
C1805 C 0.75534 0.68752 0.12867 0.0
C1806 C 0.76824 0.64275 0.13323 0.0
C1807 C 0.78628 0.62168 0.13149 0.0
C1808 C 0.78066 0.59843 0.12048 0.0
C1809 C 0.79772 0.57869 0.11864 0.0
C1810 C 0.82045 0.58193 0.12784 0.0
C1811 C 0.82615 0.60488 0.13896 0.0
C1812 C 0.80915 0.62468 0.14087 0.0
C1813 C 0.66281 0.64806 0.15097 0.0
C1814 C 0.66124 0.63402 0.1722 0.0
C1815 C 0.68475 0.65544 0.14258 0.0
C1816 C 0.70556 0.64928 0.15541 0.0
C1817 C 0.70401 0.63533 0.17666 0.0
C1818 C 0.68209 0.62777 0.18497 0.0
C1819 C 0.72895 0.65665 0.14624 0.0
C1820 C 0.74645 0.63737 0.14346 0.0
C1821 C 0.73373 0.68222 0.13933 0.0
C1822 C 0.71666 0.7038 0.14335 0.0
C1823 C 0.7079 0.70853 0.16608 0.0
C1824 C 0.69165 0.72872 0.16973 0.0
C1825 C 0.68413 0.74444 0.15082 0.0
C1826 C 0.69289 0.74003 0.12822 0.0
C1827 C 0.70913 0.71985 0.12446 0.0
H1828 H 0.67154 0.76006 0.15368 0.0
H1829 H 0.83364 0.56663 0.12637 0.0
H1830 H 0.58583 0.38741 0.41901 0.0
H1831 H 0.57072 0.4206 0.39153 0.0
H1832 H 0.59047 0.47947 0.44066 0.0
H1833 H 0.6049 0.44633 0.4686 0.0
H1834 H 0.54895 0.49236 0.4183 0.0
H1835 H 0.62658 0.46385 0.396 0.0
H1836 H 0.65772 0.43207 0.38574 0.0
H1837 H 0.61638 0.4079 0.32621 0.0
H1838 H 0.58483 0.4393 0.33631 0.0
H1839 H 0.55266 0.59251 0.32725 0.0
H1840 H 0.56027 0.56336 0.36124 0.0
H1841 H 0.54421 0.49835 0.3175 0.0
H1842 H 0.53713 0.527 0.28387 0.0
H1843 H 0.58524 0.49084 0.33908 0.0
H1844 H 0.50739 0.52044 0.36154 0.0
H1845 H 0.47678 0.55252 0.3723 0.0
H1846 H 0.51898 0.57565 0.4316 0.0
H1847 H 0.55007 0.54398 0.42094 0.0
C1848 C 0.5865 0.40737 0.42421 0.0
C1849 C 0.59688 0.41419 0.4459 0.0
C1850 C 0.57803 0.42637 0.40839 0.0
C1851 C 0.57987 0.45259 0.41383 0.0
C1852 C 0.589 0.45941 0.43599 0.0
C1853 C 0.59745 0.44043 0.45184 0.0
C1854 C 0.57378 0.47278 0.39579 0.0
C1855 C 0.55704 0.49223 0.40104 0.0
C1856 C 0.58425 0.47258 0.37324 0.0
C1857 C 0.60325 0.45376 0.36705 0.0
C1858 C 0.62406 0.45163 0.38082 0.0
C1859 C 0.64179 0.4337 0.37502 0.0
C1860 C 0.63901 0.41793 0.35537 0.0
C1861 C 0.6185 0.42011 0.34144 0.0
C1862 C 0.60069 0.43798 0.34719 0.0
C1863 C 0.5505 0.57202 0.3251 0.0
C1864 C 0.54464 0.56198 0.30287 0.0
C1865 C 0.55477 0.55539 0.34449 0.0
C1866 C 0.55294 0.52857 0.34191 0.0
C1867 C 0.54598 0.51886 0.31993 0.0
C1868 C 0.54193 0.53532 0.30069 0.0
C1869 C 0.55987 0.51014 0.36123 0.0
C1870 C 0.57704 0.49105 0.35629 0.0
C1871 C 0.54982 0.51084 0.384 0.0
C1872 C 0.53119 0.53002 0.39028 0.0
C1873 C 0.51026 0.53254 0.37674 0.0
C1874 C 0.49277 0.5506 0.38288 0.0
C1875 C 0.49589 0.56609 0.40267 0.0
C1876 C 0.51656 0.56361 0.4163 0.0
C1877 C 0.53413 0.54561 0.41022 0.0
H1878 H 0.48231 0.57996 0.40752 0.0
H1879 H 0.65276 0.40407 0.35091 0.0
H1880 H 0.37516 0.34041 0.16084 0.0
H1881 H 0.4027 0.30637 0.1747 0.0
H1882 H 0.34868 0.25022 0.16508 0.0
H1883 H 0.32085 0.28421 0.1521 0.0
H1884 H 0.37313 0.23975 0.2042 0.0
H1885 H 0.3913 0.25919 0.12344 0.0
H1886 H 0.4016 0.28719 0.08994 0.0
H1887 H 0.46589 0.30726 0.1255 0.0
H1888 H 0.45579 0.27963 0.15937 0.0
H1889 H 0.47753 0.14521 0.17111 0.0
H1890 H 0.44752 0.17822 0.16062 0.0
H1891 H 0.44636 0.2033 0.23308 0.0
H1892 H 0.47581 0.16992 0.24371 0.0
H1893 H 0.44872 0.22842 0.16182 0.0
H1894 H 0.39266 0.22847 0.24634 0.0
H1895 H 0.38077 0.19854 0.27762 0.0
H1896 H 0.38955 0.13488 0.23045 0.0
H1897 H 0.40121 0.16458 0.19869 0.0
C1898 C 0.36901 0.32089 0.1621 0.0
C1899 C 0.34586 0.31501 0.15512 0.0
C1900 C 0.38485 0.30141 0.1698 0.0
C1901 C 0.37789 0.27566 0.17053 0.0
C1902 C 0.35451 0.26991 0.16454 0.0
C1903 C 0.33868 0.28935 0.15691 0.0
C1904 C 0.39509 0.25453 0.17671 0.0
C1905 C 0.38969 0.23731 0.19498 0.0
C1906 C 0.41652 0.25102 0.16441 0.0
C1907 C 0.42268 0.26754 0.14403 0.0
C1908 C 0.40755 0.26972 0.12418 0.0
C1909 C 0.41336 0.2855 0.10512 0.0
C1910 C 0.43436 0.29904 0.10562 0.0
C1911 C 0.44961 0.29678 0.12516 0.0
C1912 C 0.44386 0.28105 0.14428 0.0
C1913 C 0.47068 0.15763 0.18481 0.0
C1914 C 0.47892 0.15498 0.20821 0.0
C1915 C 0.45362 0.17655 0.17879 0.0
C1916 C 0.44452 0.19317 0.19607 0.0
C1917 C 0.45276 0.19046 0.2195 0.0
C1918 C 0.46966 0.17142 0.22554 0.0
C1919 C 0.42687 0.21371 0.18947 0.0
C1920 C 0.4322 0.23086 0.17111 0.0
C1921 C 0.40518 0.21683 0.20138 0.0
C1922 C 0.39796 0.19875 0.22021 0.0
C1923 C 0.39194 0.2081 0.2426 0.0
C1924 C 0.38524 0.19115 0.26043 0.0
C1925 C 0.38436 0.16477 0.25606 0.0
C1926 C 0.39024 0.1553 0.23383 0.0
C1927 C 0.39693 0.17219 0.2159 0.0
H1928 H 0.37908 0.15168 0.26987 0.0
H1929 H 0.43883 0.31125 0.09084 0.0
H1930 H 0.94143 0.3024 0.74064 0.0
H1931 H 0.91615 0.26576 0.74854 0.0
H1932 H 0.94101 0.26332 0.82089 0.0
H1933 H 0.9665 0.29932 0.81307 0.0
H1934 H 0.94215 0.21672 0.80302 0.0
H1935 H 0.88469 0.28804 0.80339 0.0
H1936 H 0.86386 0.3256 0.7852 0.0
H1937 H 0.8394 0.27843 0.72848 0.0
H1938 H 0.86028 0.24062 0.74624 0.0
H1939 H 0.86228 0.14381 0.86619 0.0
H1940 H 0.88516 0.17847 0.84955 0.0
H1941 H 0.85236 0.16704 0.7814 0.0
H1942 H 0.82921 0.13211 0.79806 0.0
H1943 H 0.85528 0.21775 0.79077 0.0
H1944 H 0.90866 0.14579 0.79181 0.0
H1945 H 0.92991 0.10781 0.80864 0.0
H1946 H 0.96299 0.15534 0.86047 0.0
H1947 H 0.94164 0.19356 0.84419 0.0
C1948 C 0.94133 0.29419 0.75827 0.0
C1949 C 0.95604 0.30381 0.7762 0.0
C1950 C 0.92684 0.27325 0.76278 0.0
C1951 C 0.92657 0.26178 0.78537 0.0
C1952 C 0.94097 0.27169 0.8033 0.0
C1953 C 0.95553 0.29238 0.79879 0.0
C1954 C 0.91191 0.23905 0.79055 0.0
C1955 C 0.92313 0.21707 0.80052 0.0
C1956 C 0.8872 0.23898 0.78638 0.0
C1957 C 0.87422 0.26157 0.77602 0.0
C1958 C 0.87495 0.28571 0.78698 0.0
C1959 C 0.86313 0.30704 0.77676 0.0
C1960 C 0.85037 0.30442 0.75566 0.0
C1961 C 0.84931 0.28043 0.74481 0.0
C1962 C 0.86111 0.25904 0.75496 0.0
C1963 C 0.86011 0.14837 0.84758 0.0
C1964 C 0.84412 0.13489 0.8334 0.0
C1965 C 0.87317 0.16831 0.83808 0.0
C1966 C 0.8708 0.17514 0.8141 0.0
C1967 C 0.85455 0.16208 0.79993 0.0
C1968 C 0.84134 0.14212 0.80948 0.0
C1969 C 0.88548 0.19588 0.8041 0.0
C1970 C 0.87432 0.21734 0.79309 0.0
C1971 C 0.91033 0.19545 0.80713 0.0
C1972 C 0.92341 0.17254 0.81686 0.0
C1973 C 0.92035 0.14813 0.80689 0.0
C1974 C 0.93242 0.12656 0.81633 0.0
C1975 C 0.94776 0.12916 0.83564 0.0
C1976 C 0.95109 0.15335 0.84552 0.0
C1977 C 0.93903 0.17499 0.83618 0.0
H1978 H 0.95709 0.11243 0.84292 0.0
H1979 H 0.84127 0.32096 0.74775 0.0
H1980 H 0.13109 0.59998 0.08077 0.0
H1981 H 0.09401 0.6218 0.06902 0.0
H1982 H 0.05484 0.55947 0.09863 0.0
H1983 H 0.09198 0.53731 0.11024 0.0
H1984 H 0.03586 0.57879 0.05467 0.0
H1985 H 0.06026 0.6097 0.13068 0.0
H1986 H 0.08823 0.62755 0.15958 0.0
H1987 H 0.0947 0.69519 0.11633 0.0
H1988 H 0.06703 0.67755 0.08697 0.0
H1989 H 0.92685 0.65303 0.06295 0.0
H1990 H 0.96134 0.62425 0.06984 0.0
H1991 H 1.00739 0.68568 0.05054 0.0
H1992 H 0.97321 0.71441 0.04405 0.0
H1993 H 0.02159 0.66433 0.09072 0.0
H1994 H 0.99842 0.63377 0.01419 0.0
H1995 H 0.97113 0.61632 0.9845 0.0
H1996 H 0.96233 0.54896 0.02761 0.0
H1997 H 0.9895 0.56615 0.05769 0.0
C1998 C 0.11462 0.59067 0.0844 0.0
C1999 C 0.11446 0.56699 0.09657 0.0
C2000 C 0.09344 0.60322 0.07778 0.0
C2001 C 0.07169 0.59235 0.08315 0.0
C2002 C 0.07144 0.56819 0.09435 0.0
C2003 C 0.09265 0.55568 0.10114 0.0
C2004 C 0.04936 0.60712 0.0785 0.0
C2005 C 0.03253 0.59735 0.06275 0.0
C2006 C 0.04522 0.63146 0.08883 0.0
C2007 C 0.06174 0.64219 0.10653 0.0
C2008 C 0.06779 0.62829 0.12724 0.0
C2009 C 0.08357 0.63838 0.14372 0.0
C2010 C 0.09328 0.66246 0.13976 0.0
C2011 C 0.08718 0.67653 0.11935 0.0
C2012 C 0.07144 0.6665 0.1028 0.0
C2013 C 0.94435 0.66023 0.05996 0.0
C2014 C 0.94741 0.68596 0.05313 0.0
C2015 C 0.96403 0.64378 0.06382 0.0
C2016 C 0.98699 0.6528 0.06069 0.0
C2017 C 0.98989 0.67832 0.05321 0.0
C2018 C 0.97033 0.69471 0.04948 0.0
C2019 C 0.00817 0.63637 0.06642 0.0
C2020 C 0.02479 0.64577 0.08258 0.0
C2021 C 0.01207 0.61181 0.05636 0.0
C2022 C 0.99579 0.60138 0.0383 0.0
C2023 C 0.99052 0.61533 0.01743 0.0
C2024 C 0.97509 0.60547 1.00051 0.0
C2025 C 0.9649 0.58159 1.0042 0.0
C2026 C 0.9702 0.56748 0.02479 0.0
C2027 C 0.98565 0.57726 0.04177 0.0
H2028 H 0.95297 0.57395 0.99107 0.0
H2029 H 0.10549 0.67025 0.15254 0.0
H2030 H 0.69459 0.81024 0.37524 0.0
H2031 H 0.67366 0.77615 0.35499 0.0
H2032 H 0.65454 0.82891 0.29833 0.0
H2033 H 0.67498 0.86336 0.31885 0.0
H2034 H 0.6171 0.8033 0.31206 0.0
H2035 H 0.69539 0.78032 0.28957 0.0
H2036 H 0.73789 0.77043 0.29523 0.0
H2037 H 0.72189 0.70615 0.3398 0.0
H2038 H 0.67928 0.71571 0.33454 0.0
H2039 H 0.59699 0.67194 0.24856 0.0
H2040 H 0.62317 0.70713 0.25898 0.0
H2041 H 0.58152 0.72303 0.3206 0.0
H2042 H 0.5553 0.68836 0.31031 0.0
H2043 H 0.65116 0.71618 0.29721 0.0
H2044 H 0.5777 0.78666 0.32984 0.0
H2045 H 0.53576 0.79719 0.32124 0.0
H2046 H 0.54345 0.76871 0.25073 0.0
H2047 H 0.58551 0.75836 0.25879 0.0
C2048 C 0.68596 0.81462 0.35845 0.0
C2049 C 0.68637 0.83962 0.34875 0.0
C2050 C 0.67419 0.79501 0.34675 0.0
C2051 C 0.66264 0.79985 0.32501 0.0
C2052 C 0.66336 0.82467 0.31505 0.0
C2053 C 0.6752 0.84431 0.32673 0.0
C2054 C 0.64869 0.7794 0.31347 0.0
C2055 C 0.62461 0.78431 0.3087 0.0
C2056 C 0.65851 0.75472 0.30861 0.0
C2057 C 0.68413 0.74885 0.31178 0.0
C2058 C 0.70093 0.76418 0.30071 0.0
C2059 C 0.72504 0.75862 0.30383 0.0
C2060 C 0.73258 0.73776 0.31794 0.0
C2061 C 0.71602 0.72233 0.32889 0.0
C2062 C 0.69188 0.72776 0.3258 0.0
C2063 C 0.59342 0.68292 0.26434 0.0
C2064 C 0.57391 0.67735 0.27849 0.0
C2065 C 0.60844 0.703 0.2703 0.0
C2066 C 0.60414 0.71799 0.29041 0.0
C2067 C 0.58498 0.71208 0.30477 0.0
C2068 C 0.57002 0.69211 0.29887 0.0
C2069 C 0.61947 0.7399 0.29655 0.0
C2070 C 0.64374 0.73526 0.30035 0.0
C2071 C 0.60993 0.76499 0.30015 0.0
C2072 C 0.58473 0.77156 0.295 0.0
C2073 C 0.57048 0.78278 0.31246 0.0
C2074 C 0.54668 0.78869 0.30769 0.0
C2075 C 0.53694 0.78356 0.28547 0.0
C2076 C 0.551 0.77259 0.26795 0.0
C2077 C 0.57481 0.76668 0.27262 0.0
H2078 H 0.5185 0.78812 0.28183 0.0
H2079 H 0.75126 0.73351 0.32034 0.0
H2080 H 0.58264 0.2978 0.52831 0.0
H2081 H 0.54749 0.32376 0.53717 0.0
H2082 H 0.56618 0.32124 0.61135 0.0
H2083 H 0.60091 0.29414 0.60258 0.0
H2084 H 0.52229 0.31057 0.60616 0.0
H2085 H 0.57022 0.37732 0.57526 0.0
H2086 H 0.59612 0.39747 0.54611 0.0
H2087 H 0.5405 0.39622 0.49396 0.0
H2088 H 0.51434 0.37571 0.52268 0.0
H2089 H 0.42875 0.39524 0.63801 0.0
H2090 H 0.46863 0.378 0.63116 0.0
H2091 H 0.4532 0.37401 0.55646 0.0
H2092 H 0.41345 0.39169 0.5632 0.0
H2093 H 0.4969 0.39055 0.56362 0.0
H2094 H 0.45078 0.32054 0.59291 0.0
H2095 H 0.42498 0.29886 0.62119 0.0
H2096 H 0.47782 0.3055 0.67572 0.0
H2097 H 0.50381 0.32753 0.64781 0.0
C2098 C 0.57937 0.303 0.54649 0.0
C2099 C 0.59437 0.29389 0.56481 0.0
C2100 C 0.55935 0.31802 0.55152 0.0
C2101 C 0.55429 0.32479 0.57492 0.0
C2102 C 0.56971 0.31629 0.59317 0.0
C2103 C 0.58955 0.30087 0.58817 0.0
C2104 C 0.53206 0.3391 0.58048 0.0
C2105 C 0.51702 0.32837 0.5972 0.0
C2106 C 0.52481 0.36194 0.56831 0.0
C2107 C 0.54034 0.37484 0.55113 0.0
C2108 C 0.56353 0.38124 0.55755 0.0
C2109 C 0.57826 0.39272 0.5411 0.0
C2110 C 0.56995 0.39813 0.51821 0.0
C2111 C 0.54689 0.39206 0.51171 0.0
C2112 C 0.53209 0.38054 0.52809 0.0
C2113 C 0.43388 0.39063 0.62015 0.0
C2114 C 0.41795 0.3946 0.60116 0.0
C2115 C 0.45666 0.38084 0.61624 0.0
C2116 C 0.46381 0.37438 0.59333 0.0
C2117 C 0.4481 0.3789 0.57428 0.0
C2118 C 0.42539 0.38895 0.57815 0.0
C2119 C 0.48727 0.36196 0.58929 0.0
C2120 C 0.50243 0.37297 0.57279 0.0
C2121 C 0.49469 0.33931 0.60161 0.0
C2122 C 0.47913 0.32591 0.61834 0.0
C2123 C 0.45682 0.31753 0.61097 0.0
C2124 C 0.44218 0.30516 0.62693 0.0
C2125 C 0.44973 0.30087 0.65025 0.0
C2126 C 0.47198 0.30887 0.65765 0.0
C2127 C 0.48668 0.32129 0.64178 0.0
H2128 H 0.43836 0.29129 0.66258 0.0
H2129 H 0.58137 0.40708 0.50554 0.0
H2130 H 0.22241 0.67638 0.66901 0.0
H2131 H 0.19771 0.71091 0.68564 0.0
H2132 H 0.13671 0.6633 0.6794 0.0
H2133 H 0.16123 0.6287 0.66312 0.0
H2134 H 0.12939 0.71018 0.65893 0.0
H2135 H 0.1611 0.67622 0.73258 0.0
H2136 H 0.19252 0.66337 0.76112 0.0
H2137 H 0.21734 0.74073 0.76185 0.0
H2138 H 0.18628 0.75397 0.73298 0.0
H2139 H 0.04034 0.77205 0.7213 0.0
H2140 H 0.072 0.74157 0.71143 0.0
H2141 H 0.12263 0.80199 0.71603 0.0
H2142 H 0.09073 0.8329 0.72588 0.0
H2143 H 0.13858 0.75313 0.73634 0.0
H2144 H 0.10632 0.78761 0.66418 0.0
H2145 H 0.07468 0.80096 0.63605 0.0
H2146 H 0.05148 0.72308 0.63237 0.0
H2147 H 0.08276 0.70931 0.66079 0.0
C2148 C 0.20383 0.67307 0.67167 0.0
C2149 C 0.19374 0.64986 0.66453 0.0
C2150 C 0.18974 0.69285 0.68112 0.0
C2151 C 0.16536 0.6897 0.68368 0.0
C2152 C 0.15545 0.66621 0.67741 0.0
C2153 C 0.16948 0.64648 0.66802 0.0
C2154 C 0.14972 0.71131 0.69131 0.0
C2155 C 0.13131 0.71938 0.67596 0.0
C2156 C 0.15277 0.724 0.71314 0.0
C2157 C 0.17155 0.71601 0.73036 0.0
C2158 C 0.17342 0.69044 0.73861 0.0
C2159 C 0.19113 0.68309 0.75489 0.0
C2160 C 0.20698 0.7012 0.76322 0.0
C2161 C 0.2051 0.72671 0.75533 0.0
C2162 C 0.18744 0.73414 0.739 0.0
C2163 C 0.05822 0.77887 0.72039 0.0
C2164 C 0.06305 0.8049 0.7241 0.0
C2165 C 0.07629 0.76142 0.71477 0.0
C2166 C 0.09958 0.76961 0.71273 0.0
C2167 C 0.10473 0.79535 0.71748 0.0
C2168 C 0.08653 0.81295 0.72302 0.0
C2169 C 0.11798 0.75133 0.70421 0.0
C2170 C 0.13689 0.74402 0.71925 0.0
C2171 C 0.11554 0.73933 0.68202 0.0
C2172 C 0.09678 0.74747 0.66478 0.0
C2173 C 0.09436 0.77336 0.65752 0.0
C2174 C 0.07651 0.78099 0.6415 0.0
C2175 C 0.06105 0.76289 0.63247 0.0
C2176 C 0.06346 0.73709 0.6394 0.0
C2177 C 0.08126 0.72935 0.65545 0.0
H2178 H 0.04724 0.76884 0.62006 0.0
H2179 H 0.22066 0.69548 0.77585 0.0
H2180 H 0.4535 0.77632 0.92594 0.0
H2181 H 0.48928 0.79926 0.91691 0.0
H2182 H 0.48079 0.84467 0.97971 0.0
H2183 H 0.44472 0.82169 0.98905 0.0
H2184 H 0.49506 0.87365 0.93987 0.0
H2185 H 0.51886 0.7972 0.98209 0.0
H2186 H 0.51983 0.7507 0.99107 0.0
H2187 H 0.54866 0.73512 0.92276 0.0
H2188 H 0.54748 0.78152 0.91321 0.0
H2189 H 0.61492 0.91635 0.93691 0.0
H2190 H 0.57709 0.89902 0.94904 0.0
H2191 H 0.5805 0.84424 0.89235 0.0
H2192 H 0.61807 0.86156 0.88 0.0
H2193 H 0.56892 0.82115 0.93274 0.0
H2194 H 0.5433 0.8973 0.88975 0.0
H2195 H 0.54167 0.94371 0.88034 0.0
H2196 H 0.51623 0.95992 0.94988 0.0
H2197 H 0.51803 0.9136 0.95982 0.0
C2198 C 0.459 0.79133 0.93781 0.0
C2199 C 0.4462 0.79698 0.95835 0.0
C2200 C 0.47957 0.80439 0.93261 0.0
C2201 C 0.48789 0.82346 0.94777 0.0
C2202 C 0.47472 0.82996 0.9678 0.0
C2203 C 0.45413 0.81675 0.97313 0.0
C2204 C 0.51084 0.83568 0.94301 0.0
C2205 C 0.51131 0.86228 0.93869 0.0
C2206 C 0.53196 0.82077 0.94112 0.0
C2207 C 0.53289 0.79284 0.94686 0.0
C2208 C 0.52523 0.78385 0.96891 0.0
C2209 C 0.52584 0.75751 0.97411 0.0
C2210 C 0.53426 0.73996 0.95748 0.0
C2211 C 0.54213 0.74873 0.93562 0.0
C2212 C 0.5415 0.77505 0.93031 0.0
C2213 C 0.60748 0.90083 0.92684 0.0
C2214 C 0.61966 0.89031 0.90751 0.0
C2215 C 0.58585 0.8909 0.93383 0.0
C2216 C 0.57585 0.87036 0.92157 0.0
C2217 C 0.58789 0.85998 0.9022 0.0
C2218 C 0.60946 0.86987 0.89521 0.0
C2219 C 0.55316 0.85913 0.92911 0.0
C2220 C 0.55274 0.83263 0.93404 0.0
C2221 C 0.53214 0.87417 0.93155 0.0
C2222 C 0.53107 0.90202 0.92562 0.0
C2223 C 0.53756 0.91078 0.9031 0.0
C2224 C 0.53657 0.93706 0.89766 0.0
C2225 C 0.52892 0.95476 0.91453 0.0
C2226 C 0.5222 0.9462 0.93685 0.0
C2227 C 0.52319 0.91993 0.9424 0.0
H2228 H 0.52815 0.9751 0.91027 0.0
H2229 H 0.53472 0.71958 0.96154 0.0
H2230 H 0.93802 0.04138 0.45237 0.0
H2231 H 0.97586 0.06131 0.46085 0.0
H2232 H 0.9635 0.11464 0.40299 0.0
H2233 H 0.92629 0.09419 0.39379 0.0
H2234 H 1.00722 0.09746 0.40188 0.0
H2235 H 0.95668 0.13134 0.46262 0.0
H2236 H 0.92974 0.12906 0.49639 0.0
H2237 H 0.98325 0.08841 0.5373 0.0
H2238 H 0.01042 0.09015 0.50363 0.0
H2239 H 0.07368 0.20592 0.42901 0.0
H2240 H 0.04348 0.17401 0.42266 0.0
H2241 H 0.07815 0.12347 0.47374 0.0
H2242 H 0.10908 0.15557 0.47982 0.0
H2243 H 0.02755 0.13253 0.48056 0.0
H2244 H 0.07983 0.10459 0.4203 0.0
H2245 H 0.10636 0.10957 0.3865 0.0
H2246 H 0.04892 0.14136 0.34453 0.0
H2247 H 0.0221 0.13694 0.3782 0.0
C2248 C 0.94338 0.05726 0.44135 0.0
C2249 C 0.92887 0.06618 0.42243 0.0
C2250 C 0.965 0.06883 0.44637 0.0
C2251 C 0.97259 0.08971 0.43271 0.0
C2252 C 0.95814 0.0986 0.41385 0.0
C2253 C 0.93662 0.08704 0.40878 0.0
C2254 C 0.99561 0.10226 0.43769 0.0
C2255 C 0.01154 0.10522 0.41908 0.0
C2256 C 1.0018 0.11175 0.46031 0.0
C2257 C 0.98546 0.11057 0.48051 0.0
C2258 C 0.96262 0.1217 0.47874 0.0
C2259 C 0.94733 0.12055 0.49788 0.0
C2260 C 0.95475 0.10851 0.51895 0.0
C2261 C 0.9775 0.09766 0.52094 0.0
C2262 C 0.99286 0.09873 0.50185 0.0
C2263 C 0.07518 0.1878 0.43858 0.0
C2264 C 0.09385 0.18311 0.45474 0.0
C2265 C 0.05787 0.16957 0.43494 0.0
C2266 C 0.05852 0.14629 0.44765 0.0
C2267 C 0.07735 0.14128 0.46366 0.0
C2268 C 0.09509 0.15946 0.46697 0.0
C2269 C 0.03873 0.12817 0.44462 0.0
C2270 C 0.02339 0.12426 0.46352 0.0
C2271 C 0.03295 0.11798 0.42224 0.0
C2272 C 0.04897 0.12057 0.40185 0.0
C2273 C 0.07288 0.11282 0.40392 0.0
C2274 C 0.08797 0.11551 0.38477 0.0
C2275 C 0.07934 0.12581 0.36339 0.0
C2276 C 0.05558 0.13339 0.36111 0.0
C2277 C 0.04042 0.13076 0.38021 0.0
H2278 H 0.09105 0.12788 0.34858 0.0
H2279 H 0.94288 0.10765 0.53375 0.0
loop_
_geom_bond_atom_site_label_1
_geom_bond_atom_site_label_2
_geom_bond_distance
_geom_bond_site_symmetry_2
_ccdc_geom_bond_type
Sm0 C2 2.846 . S
Sm0 O20 2.543 . S
Sm0 O21 2.450 . S
Sm0 O22 2.681 . S
Sm0 O23 2.464 . S
Sm0 O24 2.396 . S
Sm0 O28 2.386 . S
Sm0 O31 2.408 . S
Sm1 C11 2.846 . S
Sm1 O22 2.386 . S
Sm1 O25 2.408 . S
Sm1 O26 2.543 . S
Sm1 O27 2.450 . S
Sm1 O28 2.681 . S
Sm1 O29 2.464 . S
Sm1 O30 2.396 . S
C2 Sm0 2.846 . S
C2 C3 1.506 . S
C2 O20 1.261 . S
C2 O21 1.242 . S
C3 C2 1.506 . S
C3 C4 1.358 . S
C3 C8 1.382 . S
C4 C3 1.358 . S
C4 C5 1.385 . S
C4 H32 0.930 . S
C5 C4 1.385 . S
C5 C6 1.395 . S
C5 H33 0.929 . S
C6 C5 1.395 . S
C6 C7 1.335 . S
C7 C6 1.335 . S
C7 C8 1.398 . S
C7 H34 0.930 . S
C8 C3 1.382 . S
C8 C7 1.398 . S
C8 H35 0.929 . S
C9 O22 1.271 . S
C9 O23 1.251 . S
C10 O24 1.252 . S
C10 O25 1.272 . S
C11 Sm1 2.846 . S
C11 C12 1.506 . S
C11 O26 1.261 . S
C11 O27 1.242 . S
C12 C11 1.506 . S
C12 C13 1.358 . S
C12 C17 1.382 . S
C13 C12 1.358 . S
C13 C14 1.385 . S
C13 H36 0.930 . S
C14 C13 1.385 . S
C14 C15 1.395 . S
C14 H37 0.929 . S
C15 C14 1.395 . S
C15 C16 1.335 . S
C16 C15 1.335 . S
C16 C17 1.398 . S
C16 H38 0.930 . S
C17 C12 1.382 . S
C17 C16 1.398 . S
C17 H39 0.929 . S
C18 O28 1.271 . S
C18 O29 1.251 . S
C19 O30 1.252 . S
C19 O31 1.272 . S
O20 Sm0 2.543 . S
O20 C2 1.261 . S
O21 Sm0 2.450 . S
O21 C2 1.242 . S
O22 Sm0 2.681 . S
O22 Sm1 2.386 . S
O22 C9 1.271 . S
O23 Sm0 2.464 . S
O23 C9 1.251 . S
O24 Sm0 2.396 . S
O24 C10 1.252 . S
O25 Sm1 2.408 . S
O25 C10 1.272 . S
O26 Sm1 2.543 . S
O26 C11 1.261 . S
O27 Sm1 2.450 . S
O27 C11 1.242 . S
O28 Sm0 2.386 . S
O28 Sm1 2.681 . S
O28 C18 1.271 . S
O29 Sm1 2.464 . S
O29 C18 1.251 . S
O30 Sm1 2.396 . S
O30 C19 1.252 . S
O31 Sm0 2.408 . S
O31 C19 1.272 . S
H32 C4 0.930 . S
H33 C5 0.929 . S
H34 C7 0.930 . S
H35 C8 0.929 . S
H36 C13 0.930 . S
H37 C14 0.929 . S
H38 C16 0.930 . S
H39 C17 0.929 . S
Sm40 C42 2.846 . S
Sm40 O60 2.543 . S
Sm40 O61 2.450 . S
Sm40 O62 2.681 1_655 S
Sm40 O63 2.464 1_655 S
Sm40 O64 2.396 1_655 S
Sm40 O68 2.386 1_655 S
Sm40 O71 2.408 . S
Sm41 C51 2.846 . S
Sm41 O62 2.386 . S
Sm41 O65 2.408 . S
Sm41 O66 2.543 . S
Sm41 O67 2.450 . S
Sm41 O68 2.680 . S
Sm41 O69 2.464 . S
Sm41 O70 2.396 . S
C42 Sm40 2.846 . S
C42 C43 1.506 . S
C42 O60 1.261 . S
C42 O61 1.242 . S
C43 C42 1.506 . S
C43 C44 1.358 . S
C43 C48 1.382 . S
C44 C43 1.358 . S
C44 C45 1.385 . S
C44 H72 0.930 . S
C45 C44 1.385 . S
C45 C46 1.395 . S
C45 H73 0.929 . S
C46 C45 1.395 . S
C46 C47 1.335 . S
C47 C46 1.335 . S
C47 C48 1.398 . S
C47 H74 0.930 . S
C48 C43 1.382 . S
C48 C47 1.398 . S
C48 H75 0.929 . S
C49 O62 1.271 . S
C49 O63 1.251 . S
C50 O64 1.252 . S
C50 O65 1.272 . S
C51 Sm41 2.846 . S
C51 C52 1.506 . S
C51 O66 1.261 . S
C51 O67 1.242 . S
C52 C51 1.506 . S
C52 C53 1.358 . S
C52 C57 1.382 . S
C53 C52 1.358 . S
C53 C54 1.385 . S
C53 H76 0.930 . S
C54 C53 1.385 . S
C54 C55 1.395 . S
C54 H77 0.929 . S
C55 C54 1.395 . S
C55 C56 1.335 . S
C56 C55 1.335 . S
C56 C57 1.398 . S
C56 H78 0.930 . S
C57 C52 1.382 . S
C57 C56 1.398 . S
C57 H79 0.929 . S
C58 O68 1.272 1_655 S
C58 O69 1.251 1_655 S
C59 O70 1.252 . S
C59 O71 1.272 1_455 S
O60 Sm40 2.543 . S
O60 C42 1.261 . S
O61 Sm40 2.450 . S
O61 C42 1.242 . S
O62 Sm40 2.681 1_455 S
O62 Sm41 2.386 . S
O62 C49 1.271 . S
O63 Sm40 2.464 1_455 S
O63 C49 1.251 . S
O64 Sm40 2.396 1_455 S
O64 C50 1.252 . S
O65 Sm41 2.408 . S
O65 C50 1.272 . S
O66 Sm41 2.543 . S
O66 C51 1.261 . S
O67 Sm41 2.450 . S
O67 C51 1.242 . S
O68 Sm40 2.386 1_455 S
O68 Sm41 2.680 . S
O68 C58 1.272 1_455 S
O69 Sm41 2.464 . S
O69 C58 1.251 1_455 S
O70 Sm41 2.396 . S
O70 C59 1.252 . S
O71 Sm40 2.408 . S
O71 C59 1.272 1_655 S
H72 C44 0.930 . S
H73 C45 0.929 . S
H74 C47 0.930 . S
H75 C48 0.929 . S
H76 C53 0.930 . S
H77 C54 0.929 . S
H78 C56 0.930 . S
H79 C57 0.929 . S
Sm80 C82 2.846 . S
Sm80 O100 2.543 . S
Sm80 O101 2.450 . S
Sm80 O102 2.681 1_554 S
Sm80 O103 2.464 1_554 S
Sm80 O104 2.396 1_554 S
Sm80 O108 2.386 . S
Sm80 O111 2.408 . S
Sm81 C91 2.846 . S
Sm81 O102 2.386 . S
Sm81 O105 2.408 . S
Sm81 O106 2.543 . S
Sm81 O107 2.450 . S
Sm81 O108 2.681 1_556 S
Sm81 O109 2.464 . S
Sm81 O110 2.396 . S
C82 Sm80 2.846 . S
C82 C83 1.506 . S
C82 O100 1.261 . S
C82 O101 1.242 . S
C83 C82 1.506 . S
C83 C84 1.358 . S
C83 C88 1.382 . S
C84 C83 1.358 . S
C84 C85 1.385 . S
C84 H112 0.930 . S
C85 C84 1.385 . S
C85 C86 1.395 . S
C85 H113 0.929 . S
C86 C85 1.395 . S
C86 C87 1.335 . S
C87 C86 1.335 . S
C87 C88 1.398 . S
C87 H114 0.930 . S
C88 C83 1.382 . S
C88 C87 1.398 . S
C88 H115 0.929 . S
C89 O102 1.271 . S
C89 O103 1.251 . S
C90 O104 1.252 . S
C90 O105 1.272 . S
C91 Sm81 2.846 . S
C91 C92 1.506 . S
C91 O106 1.261 . S
C91 O107 1.242 . S
C92 C91 1.506 . S
C92 C93 1.358 . S
C92 C97 1.382 . S
C93 C92 1.358 . S
C93 C94 1.385 . S
C93 H116 0.930 . S
C94 C93 1.385 . S
C94 C95 1.395 . S
C94 H117 0.929 . S
C95 C94 1.395 . S
C95 C96 1.335 . S
C96 C95 1.335 . S
C96 C97 1.398 . S
C96 H118 0.930 . S
C97 C92 1.382 . S
C97 C96 1.398 . S
C97 H119 0.929 . S
C98 O108 1.271 . S
C98 O109 1.251 1_554 S
C99 O110 1.252 . S
C99 O111 1.272 1_556 S
O100 Sm80 2.543 . S
O100 C82 1.261 . S
O101 Sm80 2.450 . S
O101 C82 1.242 . S
O102 Sm80 2.681 1_556 S
O102 Sm81 2.386 . S
O102 C89 1.271 . S
O103 Sm80 2.464 1_556 S
O103 C89 1.251 . S
O104 Sm80 2.396 1_556 S
O104 C90 1.252 . S
O105 Sm81 2.408 . S
O105 C90 1.272 . S
O106 Sm81 2.543 . S
O106 C91 1.261 . S
O107 Sm81 2.450 . S
O107 C91 1.242 . S
O108 Sm80 2.386 . S
O108 Sm81 2.681 1_554 S
O108 C98 1.271 . S
O109 Sm81 2.464 . S
O109 C98 1.251 1_556 S
O110 Sm81 2.396 . S
O110 C99 1.252 . S
O111 Sm80 2.408 . S
O111 C99 1.272 1_554 S
H112 C84 0.930 . S
H113 C85 0.929 . S
H114 C87 0.930 . S
H115 C88 0.929 . S
H116 C93 0.930 . S
H117 C94 0.929 . S
H118 C96 0.930 . S
H119 C97 0.929 . S
Sm120 C122 2.846 . S
Sm120 O140 2.543 . S
Sm120 O141 2.450 . S
Sm120 O142 2.681 . S
Sm120 O143 2.464 . S
Sm120 O144 2.396 . S
Sm120 O148 2.386 . S
Sm120 O151 2.408 . S
Sm121 C131 2.846 . S
Sm121 O142 2.386 . S
Sm121 O145 2.408 . S
Sm121 O146 2.543 . S
Sm121 O147 2.450 . S
Sm121 O148 2.681 . S
Sm121 O149 2.464 . S
Sm121 O150 2.396 . S
C122 Sm120 2.846 . S
C122 C123 1.506 . S
C122 O140 1.261 . S
C122 O141 1.242 . S
C123 C122 1.506 . S
C123 C124 1.358 . S
C123 C128 1.382 . S
C124 C123 1.358 . S
C124 C125 1.385 . S
C124 H152 0.930 . S
C125 C124 1.385 . S
C125 C126 1.395 . S
C125 H153 0.929 . S
C126 C125 1.395 . S
C126 C127 1.335 . S
C127 C126 1.335 . S
C127 C128 1.398 . S
C127 H154 0.930 . S
C128 C123 1.382 . S
C128 C127 1.398 . S
C128 H155 0.929 . S
C129 O142 1.271 . S
C129 O143 1.251 . S
C130 O144 1.252 . S
C130 O145 1.272 . S
C131 Sm121 2.846 . S
C131 C132 1.506 . S
C131 O146 1.261 . S
C131 O147 1.242 . S
C132 C131 1.506 . S
C132 C133 1.358 . S
C132 C137 1.382 . S
C133 C132 1.358 . S
C133 C134 1.385 . S
C133 H156 0.930 . S
C134 C133 1.385 . S
C134 C135 1.395 . S
C134 H157 0.929 . S
C135 C134 1.395 . S
C135 C136 1.335 . S
C136 C135 1.335 . S
C136 C137 1.398 . S
C136 H158 0.930 . S
C137 C132 1.382 . S
C137 C136 1.398 . S
C137 H159 0.929 . S
C138 O148 1.271 . S
C138 O149 1.251 . S
C139 O150 1.252 . S
C139 O151 1.272 . S
O140 Sm120 2.543 . S
O140 C122 1.261 . S
O141 Sm120 2.450 . S
O141 C122 1.242 . S
O142 Sm120 2.681 . S
O142 Sm121 2.386 . S
O142 C129 1.271 . S
O143 Sm120 2.464 . S
O143 C129 1.251 . S
O144 Sm120 2.396 . S
O144 C130 1.252 . S
O145 Sm121 2.408 . S
O145 C130 1.272 . S
O146 Sm121 2.543 . S
O146 C131 1.261 . S
O147 Sm121 2.450 . S
O147 C131 1.242 . S
O148 Sm120 2.386 . S
O148 Sm121 2.681 . S
O148 C138 1.271 . S
O149 Sm121 2.464 . S
O149 C138 1.251 . S
O150 Sm121 2.396 . S
O150 C139 1.252 . S
O151 Sm120 2.408 . S
O151 C139 1.272 . S
H152 C124 0.930 . S
H153 C125 0.929 . S
H154 C127 0.930 . S
H155 C128 0.929 . S
H156 C133 0.930 . S
H157 C134 0.929 . S
H158 C136 0.930 . S
H159 C137 0.929 . S
Sm160 C162 2.846 . S
Sm160 O180 2.543 . S
Sm160 O181 2.450 . S
Sm160 O182 2.681 . S
Sm160 O183 2.464 . S
Sm160 O184 2.396 . S
Sm160 O188 2.386 . S
Sm160 O191 2.408 . S
Sm161 C171 2.846 . S
Sm161 O182 2.386 . S
Sm161 O185 2.408 . S
Sm161 O186 2.543 . S
Sm161 O187 2.450 . S
Sm161 O188 2.681 . S
Sm161 O189 2.464 . S
Sm161 O190 2.396 . S
C162 Sm160 2.846 . S
C162 C163 1.506 . S
C162 O180 1.261 . S
C162 O181 1.242 . S
C163 C162 1.506 . S
C163 C164 1.358 . S
C163 C168 1.382 . S
C164 C163 1.358 . S
C164 C165 1.385 . S
C164 H192 0.930 . S
C165 C164 1.385 . S
C165 C166 1.395 . S
C165 H193 0.929 . S
C166 C165 1.395 . S
C166 C167 1.335 . S
C167 C166 1.335 . S
C167 C168 1.398 . S
C167 H194 0.930 . S
C168 C163 1.382 . S
C168 C167 1.398 . S
C168 H195 0.929 . S
C169 O182 1.271 . S
C169 O183 1.251 . S
C170 O184 1.252 . S
C170 O185 1.272 . S
C171 Sm161 2.846 . S
C171 C172 1.506 . S
C171 O186 1.261 . S
C171 O187 1.242 . S
C172 C171 1.506 . S
C172 C173 1.358 . S
C172 C177 1.382 . S
C173 C172 1.358 . S
C173 C174 1.385 . S
C173 H196 0.930 . S
C174 C173 1.385 . S
C174 C175 1.395 . S
C174 H197 0.929 . S
C175 C174 1.395 . S
C175 C176 1.335 . S
C176 C175 1.335 . S
C176 C177 1.398 . S
C176 H198 0.930 . S
C177 C172 1.382 . S
C177 C176 1.398 . S
C177 H199 0.929 . S
C178 O188 1.271 . S
C178 O189 1.251 . S
C179 O190 1.252 . S
C179 O191 1.272 . S
O180 Sm160 2.543 . S
O180 C162 1.261 . S
O181 Sm160 2.450 . S
O181 C162 1.242 . S
O182 Sm160 2.681 . S
O182 Sm161 2.386 . S
O182 C169 1.271 . S
O183 Sm160 2.464 . S
O183 C169 1.251 . S
O184 Sm160 2.396 . S
O184 C170 1.252 . S
O185 Sm161 2.408 . S
O185 C170 1.272 . S
O186 Sm161 2.543 . S
O186 C171 1.261 . S
O187 Sm161 2.450 . S
O187 C171 1.242 . S
O188 Sm160 2.386 . S
O188 Sm161 2.681 . S
O188 C178 1.271 . S
O189 Sm161 2.464 . S
O189 C178 1.251 . S
O190 Sm161 2.396 . S
O190 C179 1.252 . S
O191 Sm160 2.408 . S
O191 C179 1.272 . S
H192 C164 0.930 . S
H193 C165 0.929 . S
H194 C167 0.930 . S
H195 C168 0.929 . S
H196 C173 0.930 . S
H197 C174 0.929 . S
H198 C176 0.930 . S
H199 C177 0.929 . S
Sm200 C202 2.846 . S
Sm200 O220 2.543 . S
Sm200 O221 2.450 . S
Sm200 O222 2.681 . S
Sm200 O223 2.464 . S
Sm200 O224 2.396 . S
Sm200 O228 2.386 . S
Sm200 O231 2.408 1_655 S
Sm201 C211 2.846 . S
Sm201 O222 2.386 1_455 S
Sm201 O225 2.408 1_455 S
Sm201 O226 2.543 . S
Sm201 O227 2.450 . S
Sm201 O228 2.681 1_455 S
Sm201 O229 2.464 . S
Sm201 O230 2.396 . S
C202 Sm200 2.846 . S
C202 C203 1.506 . S
C202 O220 1.261 . S
C202 O221 1.242 . S
C203 C202 1.506 . S
C203 C204 1.358 . S
C203 C208 1.382 . S
C204 C203 1.358 . S
C204 C205 1.385 . S
C204 H232 0.930 . S
C205 C204 1.385 . S
C205 C206 1.395 . S
C205 H233 0.929 . S
C206 C205 1.395 . S
C206 C207 1.335 . S
C207 C206 1.335 . S
C207 C208 1.398 . S
C207 H234 0.930 . S
C208 C203 1.382 . S
C208 C207 1.398 . S
C208 H235 0.929 . S
C209 O222 1.271 . S
C209 O223 1.251 . S
C210 O224 1.252 . S
C210 O225 1.272 . S
C211 Sm201 2.846 . S
C211 C212 1.506 . S
C211 O226 1.261 . S
C211 O227 1.242 . S
C212 C211 1.506 . S
C212 C213 1.358 . S
C212 C217 1.382 . S
C213 C212 1.358 . S
C213 C214 1.385 . S
C213 H236 0.930 . S
C214 C213 1.385 . S
C214 C215 1.395 . S
C214 H237 0.929 . S
C215 C214 1.395 . S
C215 C216 1.335 . S
C216 C215 1.335 . S
C216 C217 1.398 . S
C216 H238 0.930 . S
C217 C212 1.382 . S
C217 C216 1.398 . S
C217 H239 0.929 . S
C218 O228 1.271 1_455 S
C218 O229 1.251 . S
C219 O230 1.252 . S
C219 O231 1.272 . S
O220 Sm200 2.543 . S
O220 C202 1.261 . S
O221 Sm200 2.450 . S
O221 C202 1.242 . S
O222 Sm200 2.681 . S
O222 Sm201 2.386 1_655 S
O222 C209 1.271 . S
O223 Sm200 2.464 . S
O223 C209 1.251 . S
O224 Sm200 2.396 . S
O224 C210 1.252 . S
O225 Sm201 2.408 1_655 S
O225 C210 1.272 . S
O226 Sm201 2.543 . S
O226 C211 1.261 . S
O227 Sm201 2.450 . S
O227 C211 1.242 . S
O228 Sm200 2.386 . S
O228 Sm201 2.681 1_655 S
O228 C218 1.271 1_655 S
O229 Sm201 2.464 . S
O229 C218 1.251 . S
O230 Sm201 2.396 . S
O230 C219 1.252 . S
O231 Sm200 2.408 1_455 S
O231 C219 1.272 . S
H232 C204 0.930 . S
H233 C205 0.929 . S
H234 C207 0.930 . S
H235 C208 0.929 . S
H236 C213 0.930 . S
H237 C214 0.929 . S
H238 C216 0.930 . S
H239 C217 0.929 . S
Sm240 C242 2.846 . S
Sm240 O260 2.543 . S
Sm240 O261 2.450 . S
Sm240 O262 2.681 . S
Sm240 O263 2.464 . S
Sm240 O264 2.396 . S
Sm240 O268 2.386 . S
Sm240 O271 2.408 1_554 S
Sm241 C251 2.846 . S
Sm241 O262 2.386 1_556 S
Sm241 O265 2.408 1_556 S
Sm241 O266 2.543 . S
Sm241 O267 2.450 . S
Sm241 O268 2.681 1_556 S
Sm241 O269 2.464 . S
Sm241 O270 2.396 . S
C242 Sm240 2.846 . S
C242 C243 1.506 . S
C242 O260 1.261 . S
C242 O261 1.242 . S
C243 C242 1.506 . S
C243 C244 1.358 . S
C243 C248 1.382 . S
C244 C243 1.358 . S
C244 C245 1.385 . S
C244 H272 0.930 . S
C245 C244 1.385 . S
C245 C246 1.395 . S
C245 H273 0.929 . S
C246 C245 1.395 . S
C246 C247 1.335 . S
C247 C246 1.335 . S
C247 C248 1.398 . S
C247 H274 0.930 . S
C248 C243 1.382 . S
C248 C247 1.398 . S
C248 H275 0.929 . S
C249 O262 1.271 . S
C249 O263 1.251 . S
C250 O264 1.252 . S
C250 O265 1.272 . S
C251 Sm241 2.846 . S
C251 C252 1.506 . S
C251 O266 1.261 . S
C251 O267 1.242 . S
C252 C251 1.506 . S
C252 C253 1.358 . S
C252 C257 1.382 . S
C253 C252 1.358 . S
C253 C254 1.385 . S
C253 H276 0.930 . S
C254 C253 1.385 . S
C254 C255 1.395 . S
C254 H277 0.929 . S
C255 C254 1.395 . S
C255 C256 1.335 . S
C256 C255 1.335 . S
C256 C257 1.398 . S
C256 H278 0.930 . S
C257 C252 1.382 . S
C257 C256 1.398 . S
C257 H279 0.929 . S
C258 O268 1.271 1_556 S
C258 O269 1.251 . S
C259 O270 1.252 . S
C259 O271 1.272 . S
O260 Sm240 2.543 . S
O260 C242 1.261 . S
O261 Sm240 2.450 . S
O261 C242 1.242 . S
O262 Sm240 2.681 . S
O262 Sm241 2.386 1_554 S
O262 C249 1.271 . S
O263 Sm240 2.464 . S
O263 C249 1.251 . S
O264 Sm240 2.396 . S
O264 C250 1.252 . S
O265 Sm241 2.408 1_554 S
O265 C250 1.272 . S
O266 Sm241 2.543 . S
O266 C251 1.261 . S
O267 Sm241 2.450 . S
O267 C251 1.242 . S
O268 Sm240 2.386 . S
O268 Sm241 2.681 1_554 S
O268 C258 1.271 1_554 S
O269 Sm241 2.464 . S
O269 C258 1.251 . S
O270 Sm241 2.396 . S
O270 C259 1.252 . S
O271 Sm240 2.408 1_556 S
O271 C259 1.272 . S
H272 C244 0.930 . S
H273 C245 0.929 . S
H274 C247 0.930 . S
H275 C248 0.929 . S
H276 C253 0.930 . S
H277 C254 0.929 . S
H278 C256 0.930 . S
H279 C257 0.929 . S
Sm280 C282 2.846 . S
Sm280 O300 2.543 . S
Sm280 O301 2.450 . S
Sm280 O302 2.681 . S
Sm280 O303 2.464 . S
Sm280 O304 2.396 . S
Sm280 O308 2.386 . S
Sm280 O311 2.408 . S
Sm281 C291 2.846 . S
Sm281 O302 2.386 . S
Sm281 O305 2.408 . S
Sm281 O306 2.543 . S
Sm281 O307 2.450 . S
Sm281 O308 2.681 . S
Sm281 O309 2.464 . S
Sm281 O310 2.396 . S
C282 Sm280 2.846 . S
C282 C283 1.506 . S
C282 O300 1.261 . S
C282 O301 1.242 . S
C283 C282 1.506 . S
C283 C284 1.358 . S
C283 C288 1.382 . S
C284 C283 1.358 . S
C284 C285 1.385 . S
C284 H312 0.930 . S
C285 C284 1.385 . S
C285 C286 1.395 . S
C285 H313 0.929 . S
C286 C285 1.395 . S
C286 C287 1.335 . S
C287 C286 1.335 . S
C287 C288 1.398 . S
C287 H314 0.930 . S
C288 C283 1.382 . S
C288 C287 1.398 . S
C288 H315 0.929 . S
C289 O302 1.271 . S
C289 O303 1.251 . S
C290 O304 1.252 . S
C290 O305 1.272 . S
C291 Sm281 2.846 . S
C291 C292 1.506 . S
C291 O306 1.261 . S
C291 O307 1.242 . S
C292 C291 1.506 . S
C292 C293 1.358 . S
C292 C297 1.382 . S
C293 C292 1.358 . S
C293 C294 1.385 . S
C293 H316 0.930 . S
C294 C293 1.385 . S
C294 C295 1.395 . S
C294 H317 0.929 . S
C295 C294 1.395 . S
C295 C296 1.335 . S
C296 C295 1.335 . S
C296 C297 1.398 . S
C296 H318 0.930 . S
C297 C292 1.382 . S
C297 C296 1.398 . S
C297 H319 0.929 . S
C298 O308 1.271 . S
C298 O309 1.251 . S
C299 O310 1.252 . S
C299 O311 1.272 . S
O300 Sm280 2.543 . S
O300 C282 1.261 . S
O301 Sm280 2.450 . S
O301 C282 1.242 . S
O302 Sm280 2.681 . S
O302 Sm281 2.386 . S
O302 C289 1.271 . S
O303 Sm280 2.464 . S
O303 C289 1.251 . S
O304 Sm280 2.396 . S
O304 C290 1.252 . S
O305 Sm281 2.408 . S
O305 C290 1.272 . S
O306 Sm281 2.543 . S
O306 C291 1.261 . S
O307 Sm281 2.450 . S
O307 C291 1.242 . S
O308 Sm280 2.386 . S
O308 Sm281 2.681 . S
O308 C298 1.271 . S
O309 Sm281 2.464 . S
O309 C298 1.251 . S
O310 Sm281 2.396 . S
O310 C299 1.252 . S
O311 Sm280 2.408 . S
O311 C299 1.272 . S
H312 C284 0.930 . S
H313 C285 0.929 . S
H314 C287 0.930 . S
H315 C288 0.929 . S
H316 C293 0.930 . S
H317 C294 0.929 . S
H318 C296 0.930 . S
H319 C297 0.929 . S
Sm320 C322 2.846 . S
Sm320 O340 2.543 . S
Sm320 O341 2.450 . S
Sm320 O342 2.681 . S
Sm320 O343 2.464 . S
Sm320 O344 2.396 . S
Sm320 O348 2.386 . S
Sm320 O351 2.408 . S
Sm321 C331 2.846 . S
Sm321 O342 2.386 . S
Sm321 O345 2.408 . S
Sm321 O346 2.543 . S
Sm321 O347 2.450 . S
Sm321 O348 2.681 . S
Sm321 O349 2.464 . S
Sm321 O350 2.396 . S
C322 Sm320 2.846 . S
C322 C323 1.506 . S
C322 O340 1.261 . S
C322 O341 1.242 . S
C323 C322 1.506 . S
C323 C324 1.358 . S
C323 C328 1.382 . S
C324 C323 1.358 . S
C324 C325 1.385 . S
C324 H352 0.930 . S
C325 C324 1.385 . S
C325 C326 1.395 . S
C325 H353 0.929 . S
C326 C325 1.395 . S
C326 C327 1.335 . S
C327 C326 1.335 . S
C327 C328 1.398 . S
C327 H354 0.930 . S
C328 C323 1.382 . S
C328 C327 1.398 . S
C328 H355 0.929 . S
C329 O342 1.271 . S
C329 O343 1.251 . S
C330 O344 1.252 . S
C330 O345 1.272 . S
C331 Sm321 2.846 . S
C331 C332 1.506 . S
C331 O346 1.261 . S
C331 O347 1.242 . S
C332 C331 1.506 . S
C332 C333 1.358 . S
C332 C337 1.382 . S
C333 C332 1.358 . S
C333 C334 1.385 . S
C333 H356 0.930 . S
C334 C333 1.385 . S
C334 C335 1.395 . S
C334 H357 0.929 . S
C335 C334 1.395 . S
C335 C336 1.335 . S
C336 C335 1.335 . S
C336 C337 1.398 . S
C336 H358 0.930 . S
C337 C332 1.382 . S
C337 C336 1.398 . S
C337 H359 0.929 . S
C338 O348 1.271 . S
C338 O349 1.251 . S
C339 O350 1.252 . S
C339 O351 1.272 . S
O340 Sm320 2.543 . S
O340 C322 1.261 . S
O341 Sm320 2.450 . S
O341 C322 1.242 . S
O342 Sm320 2.681 . S
O342 Sm321 2.386 . S
O342 C329 1.271 . S
O343 Sm320 2.464 . S
O343 C329 1.251 . S
O344 Sm320 2.396 . S
O344 C330 1.252 . S
O345 Sm321 2.408 . S
O345 C330 1.272 . S
O346 Sm321 2.543 . S
O346 C331 1.261 . S
O347 Sm321 2.450 . S
O347 C331 1.242 . S
O348 Sm320 2.386 . S
O348 Sm321 2.681 . S
O348 C338 1.271 . S
O349 Sm321 2.464 . S
O349 C338 1.251 . S
O350 Sm321 2.396 . S
O350 C339 1.252 . S
O351 Sm320 2.408 . S
O351 C339 1.272 . S
H352 C324 0.930 . S
H353 C325 0.929 . S
H354 C327 0.930 . S
H355 C328 0.929 . S
H356 C333 0.930 . S
H357 C334 0.929 . S
H358 C336 0.930 . S
H359 C337 0.929 . S
Sm360 C362 2.846 . S
Sm360 O380 2.543 . S
Sm360 O381 2.450 . S
Sm360 O382 2.681 1_565 S
Sm360 O383 2.464 1_565 S
Sm360 O384 2.396 1_565 S
Sm360 O388 2.386 . S
Sm360 O391 2.408 . S
Sm361 C371 2.846 . S
Sm361 O382 2.386 . S
Sm361 O385 2.408 . S
Sm361 O386 2.543 . S
Sm361 O387 2.450 . S
Sm361 O388 2.681 1_545 S
Sm361 O389 2.464 1_545 S
Sm361 O390 2.396 1_545 S
C362 Sm360 2.846 . S
C362 C363 1.506 . S
C362 O380 1.261 . S
C362 O381 1.242 . S
C363 C362 1.506 . S
C363 C364 1.358 . S
C363 C368 1.382 . S
C364 C363 1.358 . S
C364 C365 1.385 . S
C364 H392 0.930 . S
C365 C364 1.385 . S
C365 C366 1.395 . S
C365 H393 0.929 . S
C366 C365 1.395 . S
C366 C367 1.335 . S
C367 C366 1.335 . S
C367 C368 1.398 . S
C367 H394 0.930 . S
C368 C363 1.382 . S
C368 C367 1.398 . S
C368 H395 0.929 . S
C369 O382 1.271 . S
C369 O383 1.251 . S
C370 O384 1.252 . S
C370 O385 1.272 . S
C371 Sm361 2.846 . S
C371 C372 1.506 . S
C371 O386 1.261 . S
C371 O387 1.242 . S
C372 C371 1.506 . S
C372 C373 1.358 . S
C372 C377 1.382 . S
C373 C372 1.358 . S
C373 C374 1.385 . S
C373 H396 0.930 . S
C374 C373 1.385 . S
C374 C375 1.395 . S
C374 H397 0.929 . S
C375 C374 1.395 . S
C375 C376 1.335 . S
C376 C375 1.335 . S
C376 C377 1.398 . S
C376 H398 0.930 . S
C377 C372 1.382 . S
C377 C376 1.398 . S
C377 H399 0.929 . S
C378 O388 1.271 . S
C378 O389 1.251 . S
C379 O390 1.252 . S
C379 O391 1.272 . S
O380 Sm360 2.543 . S
O380 C362 1.261 . S
O381 Sm360 2.450 . S
O381 C362 1.242 . S
O382 Sm360 2.681 1_545 S
O382 Sm361 2.386 . S
O382 C369 1.271 . S
O383 Sm360 2.464 1_545 S
O383 C369 1.251 . S
O384 Sm360 2.396 1_545 S
O384 C370 1.252 . S
O385 Sm361 2.408 . S
O385 C370 1.272 . S
O386 Sm361 2.543 . S
O386 C371 1.261 . S
O387 Sm361 2.450 . S
O387 C371 1.242 . S
O388 Sm360 2.386 . S
O388 Sm361 2.681 1_565 S
O388 C378 1.271 . S
O389 Sm361 2.464 1_565 S
O389 C378 1.251 . S
O390 Sm361 2.396 1_565 S
O390 C379 1.252 . S
O391 Sm360 2.408 . S
O391 C379 1.272 . S
H392 C364 0.930 . S
H393 C365 0.929 . S
H394 C367 0.930 . S
H395 C368 0.929 . S
H396 C373 0.930 . S
H397 C374 0.929 . S
H398 C376 0.930 . S
H399 C377 0.929 . S
Sm400 C402 2.846 . S
Sm400 O420 2.543 . S
Sm400 O421 2.450 . S
Sm400 O422 2.681 . S
Sm400 O423 2.464 . S
Sm400 O424 2.396 . S
Sm400 O428 2.386 . S
Sm400 O431 2.404 . S
Sm401 C411 2.846 . S
Sm401 O422 2.386 1_545 S
Sm401 O425 2.408 1_545 S
Sm401 O426 2.543 . S
Sm401 O427 2.450 . S
Sm401 O428 2.681 1_545 S
Sm401 O429 2.464 . S
Sm401 O430 2.396 . S
C402 Sm400 2.846 . S
C402 C403 1.506 . S
C402 O420 1.261 . S
C402 O421 1.242 . S
C403 C402 1.506 . S
C403 C404 1.358 . S
C403 C408 1.382 . S
C404 C403 1.358 . S
C404 C405 1.385 . S
C404 H432 0.930 . S
C405 C404 1.385 . S
C405 C406 1.395 . S
C405 H433 0.929 . S
C406 C405 1.395 . S
C406 C407 1.335 . S
C407 C406 1.335 . S
C407 C408 1.398 . S
C407 H434 0.930 . S
C408 C403 1.382 . S
C408 C407 1.398 . S
C408 H435 0.929 . S
C409 O422 1.271 . S
C409 O423 1.251 . S
C410 O424 1.252 . S
C410 O425 1.272 . S
C411 Sm401 2.846 . S
C411 C412 1.506 . S
C411 O426 1.261 . S
C411 O427 1.242 . S
C412 C411 1.506 . S
C412 C413 1.358 . S
C412 C417 1.382 . S
C413 C412 1.358 . S
C413 C414 1.385 . S
C413 H436 0.930 . S
C414 C413 1.385 . S
C414 C415 1.395 . S
C414 H437 0.929 . S
C415 C414 1.395 . S
C415 C416 1.335 . S
C416 C415 1.335 . S
C416 C417 1.398 . S
C416 H438 0.930 . S
C417 C412 1.382 . S
C417 C416 1.398 . S
C417 H439 0.929 . S
C418 O428 1.271 1_545 S
C418 O429 1.251 . S
C419 O430 1.252 . S
C419 O431 1.276 1_545 S
O420 Sm400 2.543 . S
O420 C402 1.261 . S
O421 Sm400 2.450 . S
O421 C402 1.242 . S
O422 Sm400 2.681 . S
O422 Sm401 2.386 1_565 S
O422 C409 1.271 . S
O423 Sm400 2.464 . S
O423 C409 1.251 . S
O424 Sm400 2.396 . S
O424 C410 1.252 . S
O425 Sm401 2.408 1_565 S
O425 C410 1.272 . S
O426 Sm401 2.543 . S
O426 C411 1.261 . S
O427 Sm401 2.450 . S
O427 C411 1.242 . S
O428 Sm400 2.386 . S
O428 Sm401 2.681 1_565 S
O428 C418 1.271 1_565 S
O429 Sm401 2.464 . S
O429 C418 1.251 . S
O430 Sm401 2.396 . S
O430 C419 1.252 . S
O431 Sm400 2.404 . S
O431 C419 1.276 1_565 S
H432 C404 0.930 . S
H433 C405 0.929 . S
H434 C407 0.930 . S
H435 C408 0.929 . S
H436 C413 0.930 . S
H437 C414 0.929 . S
H438 C416 0.930 . S
H439 C417 0.929 . S
Sm440 C442 2.846 . S
Sm440 O460 2.543 . S
Sm440 O461 2.450 . S
Sm440 O462 2.681 . S
Sm440 O463 2.464 . S
Sm440 O464 2.396 . S
Sm440 O468 2.386 . S
Sm440 O471 2.408 . S
Sm441 C451 2.846 . S
Sm441 O462 2.386 . S
Sm441 O465 2.408 . S
Sm441 O466 2.543 . S
Sm441 O467 2.450 . S
Sm441 O468 2.681 . S
Sm441 O469 2.464 . S
Sm441 O470 2.396 . S
C442 Sm440 2.846 . S
C442 C443 1.506 . S
C442 O460 1.261 . S
C442 O461 1.242 . S
C443 C442 1.506 . S
C443 C444 1.358 . S
C443 C448 1.382 . S
C444 C443 1.358 . S
C444 C445 1.385 . S
C444 H472 0.930 . S
C445 C444 1.385 . S
C445 C446 1.395 . S
C445 H473 0.929 . S
C446 C445 1.395 . S
C446 C447 1.335 . S
C447 C446 1.335 . S
C447 C448 1.398 . S
C447 H474 0.930 . S
C448 C443 1.382 . S
C448 C447 1.398 . S
C448 H475 0.929 . S
C449 O462 1.271 . S
C449 O463 1.251 . S
C450 O464 1.252 . S
C450 O465 1.272 . S
C451 Sm441 2.846 . S
C451 C452 1.506 . S
C451 O466 1.261 . S
C451 O467 1.242 . S
C452 C451 1.506 . S
C452 C453 1.358 . S
C452 C457 1.382 . S
C453 C452 1.358 . S
C453 C454 1.385 . S
C453 H476 0.930 . S
C454 C453 1.385 . S
C454 C455 1.395 . S
C454 H477 0.929 . S
C455 C454 1.395 . S
C455 C456 1.335 . S
C456 C455 1.335 . S
C456 C457 1.398 . S
C456 H478 0.930 . S
C457 C452 1.382 . S
C457 C456 1.398 . S
C457 H479 0.929 . S
C458 O468 1.271 . S
C458 O469 1.251 . S
C459 O470 1.252 . S
C459 O471 1.272 . S
O460 Sm440 2.543 . S
O460 C442 1.261 . S
O461 Sm440 2.450 . S
O461 C442 1.242 . S
O462 Sm440 2.681 . S
O462 Sm441 2.386 . S
O462 C449 1.271 . S
O463 Sm440 2.464 . S
O463 C449 1.251 . S
O464 Sm440 2.396 . S
O464 C450 1.252 . S
O465 Sm441 2.408 . S
O465 C450 1.272 . S
O466 Sm441 2.543 . S
O466 C451 1.261 . S
O467 Sm441 2.450 . S
O467 C451 1.242 . S
O468 Sm440 2.386 . S
O468 Sm441 2.681 . S
O468 C458 1.271 . S
O469 Sm441 2.464 . S
O469 C458 1.251 . S
O470 Sm441 2.396 . S
O470 C459 1.252 . S
O471 Sm440 2.408 . S
O471 C459 1.272 . S
H472 C444 0.930 . S
H473 C445 0.929 . S
H474 C447 0.930 . S
H475 C448 0.929 . S
H476 C453 0.930 . S
H477 C454 0.929 . S
H478 C456 0.930 . S
H479 C457 0.929 . S
H480 C498 0.951 . S
H481 C500 0.951 . S
H482 C502 0.950 . S
H483 C503 0.950 . S
H484 C505 0.950 . S
H485 C508 0.950 . S
H486 C509 0.950 . S
H487 C511 0.950 . S
H488 C512 0.950 . S
H489 C513 0.951 . S
H490 C515 0.951 . S
H491 C517 0.950 . S
H492 C518 0.950 . S
H493 C520 0.950 . S
H494 C523 0.950 . S
H495 C524 0.950 . S
H496 C526 0.950 . S
H497 C527 0.950 . S
C498 H480 0.951 . S
C498 C499 1.366 . S
C498 C500 1.388 . S
C499 C498 1.366 . S
C499 C503 1.385 . S
C500 H481 0.951 . S
C500 C498 1.388 . S
C500 C501 1.366 . S
C501 C500 1.366 . S
C501 C502 1.414 . S
C501 C504 1.499 . S
C502 H482 0.950 . S
C502 C501 1.414 . S
C502 C503 1.374 . S
C503 H483 0.950 . S
C503 C499 1.385 . S
C503 C502 1.374 . S
C504 C501 1.499 . S
C504 C505 1.373 . S
C504 C506 1.389 . S
C505 H484 0.950 . S
C505 C504 1.373 . S
C505 C521 1.377 . S
C506 C504 1.389 . S
C506 C507 1.524 . S
C506 C520 1.377 . S
C507 C506 1.524 . S
C507 C508 1.397 . S
C507 C512 1.363 . S
C508 H485 0.950 . S
C508 C507 1.397 . S
C508 C509 1.334 . S
C509 H486 0.950 . S
C509 C508 1.334 . S
C509 C510 1.287 . S
C510 C509 1.287 . S
C510 C511 1.524 . S
C510 H529 0.913 . S
C511 H487 0.950 . S
C511 C510 1.524 . S
C511 C512 1.415 . S
C512 H488 0.950 . S
C512 C507 1.363 . S
C512 C511 1.415 . S
C513 H489 0.951 . S
C513 C514 1.366 . S
C513 C515 1.388 . S
C514 C513 1.366 . S
C514 C518 1.385 . S
C515 H490 0.951 . S
C515 C513 1.388 . S
C515 C516 1.366 . S
C516 C515 1.366 . S
C516 C517 1.414 . S
C516 C519 1.499 . S
C517 H491 0.950 . S
C517 C516 1.414 . S
C517 C518 1.374 . S
C518 H492 0.950 . S
C518 C514 1.385 . S
C518 C517 1.374 . S
C519 C516 1.499 . S
C519 C520 1.373 . S
C519 C521 1.389 . S
C520 H493 0.950 . S
C520 C506 1.377 . S
C520 C519 1.373 . S
C521 C505 1.377 . S
C521 C519 1.389 . S
C521 C522 1.524 . S
C522 C521 1.524 . S
C522 C523 1.397 . S
C522 C527 1.363 . S
C523 H494 0.950 . S
C523 C522 1.397 . S
C523 C524 1.334 . S
C524 H495 0.950 . S
C524 C523 1.334 . S
C524 C525 1.287 . S
C525 C524 1.287 . S
C525 C526 1.524 . S
C525 H528 0.999 . S
C526 H496 0.950 . S
C526 C525 1.524 . S
C526 C527 1.415 . S
C527 H497 0.950 . S
C527 C522 1.363 . S
C527 C526 1.415 . S
H528 C525 0.999 . S
H529 C510 0.913 . S
H530 C548 0.951 . S
H531 C550 0.951 . S
H532 C552 0.950 . S
H533 C553 0.950 . S
H534 C555 0.950 . S
H535 C558 0.950 . S
H536 C559 0.950 . S
H537 C561 0.950 . S
H538 C562 0.950 . S
H539 C563 0.951 . S
H540 C565 0.951 . S
H541 C567 0.950 . S
H542 C568 0.950 . S
H543 C570 0.950 . S
H544 C573 0.950 . S
H545 C574 0.950 . S
H546 C576 0.950 . S
H547 C577 0.950 . S
C548 H530 0.951 . S
C548 C549 1.366 . S
C548 C550 1.388 . S
C549 C548 1.366 . S
C549 C553 1.385 . S
C550 H531 0.951 . S
C550 C548 1.388 . S
C550 C551 1.366 . S
C551 C550 1.366 . S
C551 C552 1.414 . S
C551 C554 1.499 . S
C552 H532 0.950 . S
C552 C551 1.414 . S
C552 C553 1.374 . S
C553 H533 0.950 . S
C553 C549 1.385 . S
C553 C552 1.374 . S
C554 C551 1.499 . S
C554 C555 1.373 . S
C554 C556 1.389 . S
C555 H534 0.950 . S
C555 C554 1.373 . S
C555 C571 1.377 . S
C556 C554 1.389 . S
C556 C557 1.524 . S
C556 C570 1.377 . S
C557 C556 1.524 . S
C557 C558 1.397 1_565 S
C557 C562 1.363 . S
C558 H535 0.950 . S
C558 C557 1.397 1_545 S
C558 C559 1.334 . S
C559 H536 0.950 . S
C559 C558 1.334 . S
C559 C560 1.287 . S
C560 C559 1.287 . S
C560 C561 1.524 1_545 S
C560 H579 0.913 . S
C561 H537 0.950 . S
C561 C560 1.524 1_565 S
C561 C562 1.415 . S
C562 H538 0.950 . S
C562 C557 1.363 . S
C562 C561 1.415 . S
C563 H539 0.951 . S
C563 C564 1.366 . S
C563 C565 1.388 . S
C564 C563 1.366 . S
C564 C568 1.385 . S
C565 H540 0.951 . S
C565 C563 1.388 . S
C565 C566 1.366 . S
C566 C565 1.366 . S
C566 C567 1.414 . S
C566 C569 1.499 . S
C567 H541 0.950 . S
C567 C566 1.414 . S
C567 C568 1.374 . S
C568 H542 0.950 . S
C568 C564 1.385 . S
C568 C567 1.374 . S
C569 C566 1.499 . S
C569 C570 1.373 . S
C569 C571 1.389 . S
C570 H543 0.950 . S
C570 C556 1.377 . S
C570 C569 1.373 . S
C571 C555 1.377 . S
C571 C569 1.389 . S
C571 C572 1.524 . S
C572 C571 1.524 . S
C572 C573 1.397 . S
C572 C577 1.363 . S
C573 H544 0.950 . S
C573 C572 1.397 . S
C573 C574 1.334 . S
C574 H545 0.950 . S
C574 C573 1.334 . S
C574 C575 1.287 . S
C575 C574 1.287 . S
C575 C576 1.524 . S
C575 H578 0.999 . S
C576 H546 0.950 . S
C576 C575 1.524 . S
C576 C577 1.415 . S
C577 H547 0.950 . S
C577 C572 1.363 . S
C577 C576 1.415 . S
H578 C575 0.999 . S
H579 C560 0.913 . S
H580 C598 0.951 . S
H581 C600 0.951 . S
H582 C602 0.950 . S
H583 C603 0.950 . S
H584 C605 0.950 . S
H585 C608 0.950 . S
H586 C609 0.950 . S
H587 C611 0.950 . S
H588 C612 0.950 . S
H589 C613 0.951 . S
H590 C615 0.951 . S
H591 C617 0.950 . S
H592 C618 0.950 . S
H593 C620 0.950 . S
H594 C623 0.950 . S
H595 C624 0.950 . S
H596 C626 0.950 . S
H597 C627 0.950 . S
C598 H580 0.951 . S
C598 C599 1.366 . S
C598 C600 1.388 1_556 S
C599 C598 1.366 . S
C599 C603 1.385 1_556 S
C600 H581 0.951 . S
C600 C598 1.388 1_554 S
C600 C601 1.366 . S
C601 C600 1.366 . S
C601 C602 1.414 . S
C601 C604 1.499 . S
C602 H582 0.950 . S
C602 C601 1.414 . S
C602 C603 1.374 . S
C603 H583 0.950 . S
C603 C599 1.385 1_554 S
C603 C602 1.374 . S
C604 C601 1.499 . S
C604 C605 1.373 . S
C604 C606 1.389 . S
C605 H584 0.950 . S
C605 C604 1.373 . S
C605 C621 1.377 . S
C606 C604 1.389 . S
C606 C607 1.524 . S
C606 C620 1.377 . S
C607 C606 1.524 . S
C607 C608 1.397 . S
C607 C612 1.363 . S
C608 H585 0.950 . S
C608 C607 1.397 . S
C608 C609 1.334 . S
C609 H586 0.950 . S
C609 C608 1.334 . S
C609 C610 1.287 . S
C610 C609 1.287 . S
C610 C611 1.524 . S
C610 H629 0.913 . S
C611 H587 0.950 . S
C611 C610 1.524 . S
C611 C612 1.415 . S
C612 H588 0.950 . S
C612 C607 1.363 . S
C612 C611 1.415 . S
C613 H589 0.951 . S
C613 C614 1.366 . S
C613 C615 1.388 . S
C614 C613 1.366 . S
C614 C618 1.385 . S
C615 H590 0.951 . S
C615 C613 1.388 . S
C615 C616 1.366 . S
C616 C615 1.366 . S
C616 C617 1.414 . S
C616 C619 1.499 . S
C617 H591 0.950 . S
C617 C616 1.414 . S
C617 C618 1.374 . S
C618 H592 0.950 . S
C618 C614 1.385 . S
C618 C617 1.374 . S
C619 C616 1.499 . S
C619 C620 1.373 . S
C619 C621 1.389 . S
C620 H593 0.950 . S
C620 C606 1.377 . S
C620 C619 1.373 . S
C621 C605 1.377 . S
C621 C619 1.389 . S
C621 C622 1.524 . S
C622 C621 1.524 . S
C622 C623 1.397 . S
C622 C627 1.363 . S
C623 H594 0.950 . S
C623 C622 1.397 . S
C623 C624 1.334 1_554 S
C624 H595 0.950 . S
C624 C623 1.334 1_556 S
C624 C625 1.287 . S
C625 C624 1.287 . S
C625 C626 1.524 1_556 S
C625 H628 0.999 . S
C626 H596 0.950 . S
C626 C625 1.524 1_554 S
C626 C627 1.415 . S
C627 H597 0.950 . S
C627 C622 1.363 . S
C627 C626 1.415 . S
H628 C625 0.999 . S
H629 C610 0.913 . S
H630 C648 0.951 . S
H631 C650 0.951 . S
H632 C652 0.950 . S
H633 C653 0.950 . S
H634 C655 0.950 . S
H635 C658 0.950 . S
H636 C659 0.950 . S
H637 C661 0.950 . S
H638 C662 0.950 . S
H639 C663 0.951 . S
H640 C665 0.951 . S
H641 C667 0.950 . S
H642 C668 0.950 . S
H643 C670 0.950 . S
H644 C673 0.950 . S
H645 C674 0.950 . S
H646 C676 0.950 . S
H647 C677 0.950 . S
C648 H630 0.951 . S
C648 C649 1.366 . S
C648 C650 1.388 . S
C649 C648 1.366 . S
C649 C653 1.385 . S
C650 H631 0.951 . S
C650 C648 1.388 . S
C650 C651 1.366 . S
C651 C650 1.366 . S
C651 C652 1.414 . S
C651 C654 1.499 . S
C652 H632 0.950 . S
C652 C651 1.414 . S
C652 C653 1.374 . S
C653 H633 0.950 . S
C653 C649 1.385 . S
C653 C652 1.374 . S
C654 C651 1.499 . S
C654 C655 1.373 . S
C654 C656 1.389 . S
C655 H634 0.950 . S
C655 C654 1.373 . S
C655 C671 1.377 . S
C656 C654 1.389 . S
C656 C657 1.524 . S
C656 C670 1.377 . S
C657 C656 1.524 . S
C657 C658 1.397 . S
C657 C662 1.363 . S
C658 H635 0.950 . S
C658 C657 1.397 . S
C658 C659 1.334 . S
C659 H636 0.950 . S
C659 C658 1.334 . S
C659 C660 1.287 . S
C660 C659 1.287 . S
C660 C661 1.524 . S
C660 H679 0.913 . S
C661 H637 0.950 . S
C661 C660 1.524 . S
C661 C662 1.415 . S
C662 H638 0.950 . S
C662 C657 1.363 . S
C662 C661 1.415 . S
C663 H639 0.951 . S
C663 C664 1.366 . S
C663 C665 1.388 . S
C664 C663 1.366 . S
C664 C668 1.385 . S
C665 H640 0.951 . S
C665 C663 1.388 . S
C665 C666 1.366 . S
C666 C665 1.366 . S
C666 C667 1.414 . S
C666 C669 1.499 . S
C667 H641 0.950 . S
C667 C666 1.414 . S
C667 C668 1.374 . S
C668 H642 0.950 . S
C668 C664 1.385 . S
C668 C667 1.374 . S
C669 C666 1.499 . S
C669 C670 1.373 . S
C669 C671 1.389 . S
C670 H643 0.950 . S
C670 C656 1.377 . S
C670 C669 1.373 . S
C671 C655 1.377 . S
C671 C669 1.389 . S
C671 C672 1.524 . S
C672 C671 1.524 . S
C672 C673 1.397 . S
C672 C677 1.363 . S
C673 H644 0.950 . S
C673 C672 1.397 . S
C673 C674 1.334 . S
C674 H645 0.950 . S
C674 C673 1.334 . S
C674 C675 1.287 . S
C675 C674 1.287 . S
C675 C676 1.524 . S
C675 H678 0.999 . S
C676 H646 0.950 . S
C676 C675 1.524 . S
C676 C677 1.415 . S
C677 H647 0.950 . S
C677 C672 1.363 . S
C677 C676 1.415 . S
H678 C675 0.999 . S
H679 C660 0.913 . S
H680 C698 0.951 . S
H681 C700 0.951 . S
H682 C702 0.950 . S
H683 C703 0.950 . S
H684 C705 0.950 . S
H685 C708 0.950 . S
H686 C709 0.950 . S
H687 C711 0.950 . S
H688 C712 0.950 . S
H689 C713 0.951 . S
H690 C715 0.951 . S
H691 C717 0.950 . S
H692 C718 0.950 . S
H693 C720 0.950 . S
H694 C723 0.950 . S
H695 C724 0.950 . S
H696 C726 0.950 . S
H697 C727 0.950 . S
C698 H680 0.951 . S
C698 C699 1.366 . S
C698 C700 1.388 . S
C699 C698 1.366 . S
C699 C703 1.385 . S
C700 H681 0.951 . S
C700 C698 1.388 . S
C700 C701 1.366 . S
C701 C700 1.366 . S
C701 C702 1.414 . S
C701 C704 1.499 . S
C702 H682 0.950 . S
C702 C701 1.414 . S
C702 C703 1.374 . S
C703 H683 0.950 . S
C703 C699 1.385 . S
C703 C702 1.374 . S
C704 C701 1.499 . S
C704 C705 1.373 . S
C704 C706 1.389 . S
C705 H684 0.950 . S
C705 C704 1.373 . S
C705 C721 1.377 . S
C706 C704 1.389 . S
C706 C707 1.524 . S
C706 C720 1.377 . S
C707 C706 1.524 . S
C707 C708 1.397 . S
C707 C712 1.363 . S
C708 H685 0.950 . S
C708 C707 1.397 . S
C708 C709 1.334 . S
C709 H686 0.950 . S
C709 C708 1.334 . S
C709 C710 1.287 . S
C710 C709 1.287 . S
C710 C711 1.524 . S
C710 H729 0.913 . S
C711 H687 0.950 . S
C711 C710 1.524 . S
C711 C712 1.415 . S
C712 H688 0.950 . S
C712 C707 1.363 . S
C712 C711 1.415 . S
C713 H689 0.951 . S
C713 C714 1.366 . S
C713 C715 1.388 . S
C714 C713 1.366 . S
C714 C718 1.385 . S
C715 H690 0.951 . S
C715 C713 1.388 . S
C715 C716 1.366 . S
C716 C715 1.366 . S
C716 C717 1.414 . S
C716 C719 1.499 . S
C717 H691 0.950 . S
C717 C716 1.414 . S
C717 C718 1.374 . S
C718 H692 0.950 . S
C718 C714 1.385 . S
C718 C717 1.374 . S
C719 C716 1.499 . S
C719 C720 1.373 . S
C719 C721 1.389 . S
C720 H693 0.950 . S
C720 C706 1.377 . S
C720 C719 1.373 . S
C721 C705 1.377 . S
C721 C719 1.389 . S
C721 C722 1.524 . S
C722 C721 1.524 . S
C722 C723 1.397 . S
C722 C727 1.363 . S
C723 H694 0.950 . S
C723 C722 1.397 . S
C723 C724 1.334 . S
C724 H695 0.950 . S
C724 C723 1.334 . S
C724 C725 1.287 . S
C725 C724 1.287 . S
C725 C726 1.524 . S
C725 H728 0.999 . S
C726 H696 0.950 . S
C726 C725 1.524 . S
C726 C727 1.415 . S
C727 H697 0.950 . S
C727 C722 1.363 . S
C727 C726 1.415 . S
H728 C725 0.999 . S
H729 C710 0.913 . S
H730 C748 0.951 . S
H731 C750 0.951 . S
H732 C752 0.950 . S
H733 C753 0.950 . S
H734 C755 0.950 . S
H735 C758 0.950 . S
H736 C759 0.950 . S
H737 C761 0.950 . S
H738 C762 0.950 . S
H739 C763 0.951 . S
H740 C765 0.951 . S
H741 C767 0.950 . S
H742 C768 0.950 . S
H743 C770 0.950 . S
H744 C773 0.950 . S
H745 C774 0.950 . S
H746 C776 0.950 . S
H747 C777 0.950 . S
C748 H730 0.951 . S
C748 C749 1.366 . S
C748 C750 1.388 . S
C749 C748 1.366 . S
C749 C753 1.385 . S
C750 H731 0.951 . S
C750 C748 1.388 . S
C750 C751 1.366 . S
C751 C750 1.366 . S
C751 C752 1.414 . S
C751 C754 1.499 . S
C752 H732 0.950 . S
C752 C751 1.414 . S
C752 C753 1.374 . S
C753 H733 0.950 . S
C753 C749 1.385 . S
C753 C752 1.374 . S
C754 C751 1.499 . S
C754 C755 1.373 . S
C754 C756 1.389 . S
C755 H734 0.950 . S
C755 C754 1.373 . S
C755 C771 1.377 . S
C756 C754 1.389 . S
C756 C757 1.524 . S
C756 C770 1.377 . S
C757 C756 1.524 . S
C757 C758 1.397 . S
C757 C762 1.363 . S
C758 H735 0.950 . S
C758 C757 1.397 . S
C758 C759 1.334 . S
C759 H736 0.950 . S
C759 C758 1.334 . S
C759 C760 1.287 . S
C760 C759 1.287 . S
C760 C761 1.524 . S
C760 H779 0.913 . S
C761 H737 0.950 . S
C761 C760 1.524 . S
C761 C762 1.415 . S
C762 H738 0.950 . S
C762 C757 1.363 . S
C762 C761 1.415 . S
C763 H739 0.951 . S
C763 C764 1.366 . S
C763 C765 1.388 . S
C764 C763 1.366 . S
C764 C768 1.385 . S
C765 H740 0.951 . S
C765 C763 1.388 . S
C765 C766 1.366 . S
C766 C765 1.366 . S
C766 C767 1.414 . S
C766 C769 1.499 . S
C767 H741 0.950 . S
C767 C766 1.414 . S
C767 C768 1.374 . S
C768 H742 0.950 . S
C768 C764 1.385 . S
C768 C767 1.374 . S
C769 C766 1.499 . S
C769 C770 1.373 . S
C769 C771 1.389 . S
C770 H743 0.950 . S
C770 C756 1.377 . S
C770 C769 1.373 . S
C771 C755 1.377 . S
C771 C769 1.389 . S
C771 C772 1.524 . S
C772 C771 1.524 . S
C772 C773 1.397 . S
C772 C777 1.363 . S
C773 H744 0.950 . S
C773 C772 1.397 . S
C773 C774 1.334 . S
C774 H745 0.950 . S
C774 C773 1.334 . S
C774 C775 1.287 . S
C775 C774 1.287 . S
C775 C776 1.524 . S
C775 H778 0.999 . S
C776 H746 0.950 . S
C776 C775 1.524 . S
C776 C777 1.415 . S
C777 H747 0.950 . S
C777 C772 1.363 . S
C777 C776 1.415 . S
H778 C775 0.999 . S
H779 C760 0.913 . S
H780 C798 0.951 . S
H781 C800 0.951 . S
H782 C802 0.950 . S
H783 C803 0.950 . S
H784 C805 0.950 . S
H785 C808 0.950 . S
H786 C809 0.950 . S
H787 C811 0.950 1_554 S
H788 C812 0.950 . S
H789 C813 0.951 . S
H790 C815 0.951 . S
H791 C817 0.950 1_554 S
H792 C818 0.930 1_554 S
H793 C820 0.950 . S
H794 C823 0.950 . S
H795 C824 0.950 . S
H796 C826 0.950 . S
H797 C827 0.950 . S
C798 H780 0.951 . S
C798 C799 1.366 . S
C798 C800 1.388 . S
C799 C798 1.366 . S
C799 C803 1.385 . S
C800 H781 0.951 . S
C800 C798 1.388 . S
C800 C801 1.366 . S
C801 C800 1.366 . S
C801 C802 1.414 . S
C801 C804 1.499 . S
C802 H782 0.950 . S
C802 C801 1.414 . S
C802 C803 1.374 . S
C803 H783 0.950 . S
C803 C799 1.385 . S
C803 C802 1.374 . S
C804 C801 1.499 . S
C804 C805 1.373 . S
C804 C806 1.389 . S
C805 H784 0.950 . S
C805 C804 1.373 . S
C805 C821 1.377 . S
C806 C804 1.389 . S
C806 C807 1.524 . S
C806 C820 1.377 . S
C807 C806 1.524 . S
C807 C808 1.397 . S
C807 C812 1.363 . S
C808 H785 0.950 . S
C808 C807 1.397 . S
C808 C809 1.334 . S
C809 H786 0.950 . S
C809 C808 1.334 . S
C809 C810 1.287 . S
C810 C809 1.287 . S
C810 C811 1.524 . S
C810 H829 0.913 . S
C811 H787 0.950 1_556 S
C811 C810 1.524 . S
C811 C812 1.415 . S
C812 H788 0.950 . S
C812 C807 1.363 . S
C812 C811 1.415 . S
C813 H789 0.951 . S
C813 C814 1.366 . S
C813 C815 1.388 . S
C814 C813 1.366 . S
C814 C818 1.398 . S
C815 H790 0.951 . S
C815 C813 1.388 . S
C815 C816 1.366 . S
C816 C815 1.366 . S
C816 C817 1.414 . S
C816 C819 1.499 . S
C817 H791 0.950 1_556 S
C817 C816 1.414 . S
C817 C818 1.381 . S
C818 H792 0.930 1_556 S
C818 C814 1.398 . S
C818 C817 1.381 . S
C819 C816 1.499 . S
C819 C820 1.373 . S
C819 C821 1.389 . S
C820 H793 0.950 . S
C820 C806 1.377 . S
C820 C819 1.373 . S
C821 C805 1.377 . S
C821 C819 1.389 . S
C821 C822 1.524 . S
C822 C821 1.524 . S
C822 C823 1.397 . S
C822 C827 1.363 . S
C823 H794 0.950 . S
C823 C822 1.397 . S
C823 C824 1.334 . S
C824 H795 0.950 . S
C824 C823 1.334 . S
C824 C825 1.287 . S
C825 C824 1.287 . S
C825 C826 1.524 . S
C825 H828 0.999 . S
C826 H796 0.950 . S
C826 C825 1.524 . S
C826 C827 1.415 . S
C827 H797 0.950 . S
C827 C822 1.363 . S
C827 C826 1.415 . S
H828 C825 0.999 . S
H829 C810 0.913 . S
H830 C848 0.951 . S
H831 C850 0.951 . S
H832 C852 0.950 . S
H833 C853 0.950 . S
H834 C855 0.950 . S
H835 C858 0.950 . S
H836 C859 0.950 . S
H837 C861 0.950 . S
H838 C862 0.950 . S
H839 C863 0.951 . S
H840 C865 0.951 . S
H841 C867 0.950 . S
H842 C868 0.950 . S
H843 C870 0.950 . S
H844 C873 0.950 . S
H845 C874 0.950 . S
H846 C876 0.950 . S
H847 C877 0.950 . S
C848 H830 0.951 . S
C848 C849 1.366 . S
C848 C850 1.388 . S
C849 C848 1.366 . S
C849 C853 1.385 . S
C850 H831 0.951 . S
C850 C848 1.388 . S
C850 C851 1.366 . S
C851 C850 1.366 . S
C851 C852 1.414 . S
C851 C854 1.499 . S
C852 H832 0.950 . S
C852 C851 1.414 . S
C852 C853 1.374 . S
C853 H833 0.950 . S
C853 C849 1.385 . S
C853 C852 1.374 . S
C854 C851 1.499 . S
C854 C855 1.373 . S
C854 C856 1.389 . S
C855 H834 0.950 . S
C855 C854 1.373 . S
C855 C871 1.377 . S
C856 C854 1.389 . S
C856 C857 1.524 . S
C856 C870 1.377 . S
C857 C856 1.524 . S
C857 C858 1.397 . S
C857 C862 1.363 . S
C858 H835 0.950 . S
C858 C857 1.397 . S
C858 C859 1.334 . S
C859 H836 0.950 . S
C859 C858 1.334 . S
C859 C860 1.287 . S
C860 C859 1.287 . S
C860 C861 1.524 . S
C860 H879 0.913 . S
C861 H837 0.950 . S
C861 C860 1.524 . S
C861 C862 1.415 . S
C862 H838 0.950 . S
C862 C857 1.363 . S
C862 C861 1.415 . S
C863 H839 0.951 . S
C863 C864 1.366 . S
C863 C865 1.388 . S
C864 C863 1.366 . S
C864 C868 1.385 . S
C865 H840 0.951 . S
C865 C863 1.388 . S
C865 C866 1.366 . S
C866 C865 1.366 . S
C866 C867 1.414 . S
C866 C869 1.499 . S
C867 H841 0.950 . S
C867 C866 1.414 . S
C867 C868 1.374 . S
C868 H842 0.950 . S
C868 C864 1.385 . S
C868 C867 1.374 . S
C869 C866 1.499 . S
C869 C870 1.373 . S
C869 C871 1.389 . S
C870 H843 0.950 . S
C870 C856 1.377 . S
C870 C869 1.373 . S
C871 C855 1.377 . S
C871 C869 1.389 . S
C871 C872 1.524 . S
C872 C871 1.524 . S
C872 C873 1.397 . S
C872 C877 1.363 . S
C873 H844 0.950 . S
C873 C872 1.397 . S
C873 C874 1.334 . S
C874 H845 0.950 . S
C874 C873 1.334 . S
C874 C875 1.287 . S
C875 C874 1.287 . S
C875 C876 1.524 . S
C875 H878 0.999 . S
C876 H846 0.950 . S
C876 C875 1.524 . S
C876 C877 1.415 . S
C877 H847 0.950 . S
C877 C872 1.363 . S
C877 C876 1.415 . S
H878 C875 0.999 . S
H879 C860 0.913 . S
H880 C898 0.951 . S
H881 C900 0.951 . S
H882 C902 0.950 . S
H883 C903 0.950 . S
H884 C905 0.950 . S
H885 C908 0.950 . S
H886 C909 0.950 . S
H887 C911 0.950 . S
H888 C912 0.950 . S
H889 C913 0.951 . S
H890 C915 0.951 . S
H891 C917 0.950 . S
H892 C918 0.950 . S
H893 C920 0.950 . S
H894 C923 0.950 . S
H895 C924 0.950 . S
H896 C926 0.950 . S
H897 C927 0.950 . S
C898 H880 0.951 . S
C898 C899 1.366 . S
C898 C900 1.388 . S
C899 C898 1.366 . S
C899 C903 1.385 . S
C900 H881 0.951 . S
C900 C898 1.388 . S
C900 C901 1.366 . S
C901 C900 1.366 . S
C901 C902 1.414 . S
C901 C904 1.499 . S
C902 H882 0.950 . S
C902 C901 1.414 . S
C902 C903 1.374 . S
C903 H883 0.950 . S
C903 C899 1.385 . S
C903 C902 1.374 . S
C904 C901 1.499 . S
C904 C905 1.373 . S
C904 C906 1.389 . S
C905 H884 0.950 . S
C905 C904 1.373 . S
C905 C921 1.377 . S
C906 C904 1.389 . S
C906 C907 1.524 . S
C906 C920 1.377 . S
C907 C906 1.524 . S
C907 C908 1.397 . S
C907 C912 1.363 . S
C908 H885 0.950 . S
C908 C907 1.397 . S
C908 C909 1.334 . S
C909 H886 0.950 . S
C909 C908 1.334 . S
C909 C910 1.287 . S
C910 C909 1.287 . S
C910 C911 1.524 . S
C910 H929 0.913 . S
C911 H887 0.950 . S
C911 C910 1.524 . S
C911 C912 1.415 . S
C912 H888 0.950 . S
C912 C907 1.363 . S
C912 C911 1.415 . S
C913 H889 0.951 . S
C913 C914 1.366 . S
C913 C915 1.388 . S
C914 C913 1.366 . S
C914 C918 1.385 . S
C915 H890 0.951 . S
C915 C913 1.388 . S
C915 C916 1.366 . S
C916 C915 1.366 . S
C916 C917 1.414 . S
C916 C919 1.499 . S
C917 H891 0.950 . S
C917 C916 1.414 . S
C917 C918 1.374 . S
C918 H892 0.950 . S
C918 C914 1.385 . S
C918 C917 1.374 . S
C919 C916 1.499 . S
C919 C920 1.373 . S
C919 C921 1.389 . S
C920 H893 0.950 . S
C920 C906 1.377 . S
C920 C919 1.373 . S
C921 C905 1.377 . S
C921 C919 1.389 . S
C921 C922 1.524 . S
C922 C921 1.524 . S
C922 C923 1.397 . S
C922 C927 1.363 . S
C923 H894 0.950 . S
C923 C922 1.397 . S
C923 C924 1.334 . S
C924 H895 0.950 . S
C924 C923 1.334 . S
C924 C925 1.287 . S
C925 C924 1.287 . S
C925 C926 1.524 . S
C925 H928 0.999 . S
C926 H896 0.950 . S
C926 C925 1.524 . S
C926 C927 1.415 . S
C927 H897 0.950 . S
C927 C922 1.363 . S
C927 C926 1.415 . S
H928 C925 0.999 . S
H929 C910 0.913 . S
H930 C948 0.951 . S
H931 C950 0.951 . S
H932 C952 0.950 . S
H933 C953 0.950 . S
H934 C955 0.950 . S
H935 C958 0.950 . S
H936 C959 0.950 . S
H937 C961 0.950 . S
H938 C962 0.950 . S
H939 C963 0.951 1_655 S
H940 C965 0.951 . S
H941 C967 0.950 . S
H942 C968 0.950 . S
H943 C970 0.950 . S
H944 C973 0.950 1_455 S
H945 C974 0.950 . S
H946 C976 0.950 . S
H947 C977 0.950 . S
C948 H930 0.951 . S
C948 C949 1.366 . S
C948 C950 1.388 . S
C949 C948 1.366 . S
C949 C953 1.385 . S
C950 H931 0.951 . S
C950 C948 1.388 . S
C950 C951 1.366 . S
C951 C950 1.366 . S
C951 C952 1.414 . S
C951 C954 1.499 . S
C952 H932 0.950 . S
C952 C951 1.414 . S
C952 C953 1.374 . S
C953 H933 0.950 . S
C953 C949 1.385 . S
C953 C952 1.374 . S
C954 C951 1.499 . S
C954 C955 1.373 . S
C954 C956 1.389 . S
C955 H934 0.950 . S
C955 C954 1.373 . S
C955 C971 1.377 . S
C956 C954 1.389 . S
C956 C957 1.524 . S
C956 C970 1.377 . S
C957 C956 1.524 . S
C957 C958 1.397 . S
C957 C962 1.363 . S
C958 H935 0.950 . S
C958 C957 1.397 . S
C958 C959 1.334 . S
C959 H936 0.950 . S
C959 C958 1.334 . S
C959 C960 1.287 . S
C960 C959 1.287 . S
C960 C961 1.524 . S
C960 H979 0.913 . S
C961 H937 0.950 . S
C961 C960 1.524 . S
C961 C962 1.415 . S
C962 H938 0.950 . S
C962 C957 1.363 . S
C962 C961 1.415 . S
C963 H939 0.951 1_455 S
C963 C964 1.366 . S
C963 C965 1.388 . S
C964 C963 1.366 . S
C964 C968 1.385 . S
C965 H940 0.951 . S
C965 C963 1.388 . S
C965 C966 1.366 . S
C966 C965 1.366 . S
C966 C967 1.414 . S
C966 C969 1.499 . S
C967 H941 0.950 . S
C967 C966 1.414 . S
C967 C968 1.374 . S
C968 H942 0.950 . S
C968 C964 1.385 . S
C968 C967 1.374 . S
C969 C966 1.499 . S
C969 C970 1.373 . S
C969 C971 1.389 . S
C970 H943 0.950 . S
C970 C956 1.377 . S
C970 C969 1.373 . S
C971 C955 1.377 . S
C971 C969 1.389 . S
C971 C972 1.524 1_455 S
C972 C971 1.524 1_655 S
C972 C973 1.397 . S
C972 C977 1.363 . S
C973 H944 0.950 1_655 S
C973 C972 1.397 . S
C973 C974 1.334 . S
C974 H945 0.950 . S
C974 C973 1.334 . S
C974 C975 1.287 . S
C975 C974 1.287 . S
C975 C976 1.524 . S
C975 H978 0.999 . S
C976 H946 0.950 . S
C976 C975 1.524 . S
C976 C977 1.415 . S
C977 H947 0.950 . S
C977 C972 1.363 . S
C977 C976 1.415 . S
H978 C975 0.999 . S
H979 C960 0.913 . S
H980 C998 0.951 . S
H981 C1000 0.951 . S
H982 C1002 0.950 . S
H983 C1003 0.950 . S
H984 C1005 0.950 . S
H985 C1008 0.950 . S
H986 C1009 0.950 . S
H987 C1011 0.950 1_455 S
H988 C1012 0.972 . S
H989 C1013 0.951 . S
H990 C1015 0.951 . S
H991 C1017 0.950 . S
H992 C1018 0.950 . S
H993 C1020 0.950 . S
H994 C1023 0.950 . S
H995 C1024 0.950 . S
H996 C1026 0.950 . S
H997 C1027 0.950 . S
C998 H980 0.951 . S
C998 C999 1.366 . S
C998 C1000 1.388 . S
C999 C998 1.366 . S
C999 C1003 1.385 1_455 S
C1000 H981 0.951 . S
C1000 C998 1.388 . S
C1000 C1001 1.366 1_455 S
C1001 C1000 1.366 1_655 S
C1001 C1002 1.414 . S
C1001 C1004 1.499 . S
C1002 H982 0.950 . S
C1002 C1001 1.414 . S
C1002 C1003 1.374 . S
C1003 H983 0.950 . S
C1003 C999 1.385 1_655 S
C1003 C1002 1.374 . S
C1004 C1001 1.499 . S
C1004 C1005 1.373 . S
C1004 C1006 1.389 . S
C1005 H984 0.950 . S
C1005 C1004 1.373 . S
C1005 C1021 1.377 . S
C1006 C1004 1.389 . S
C1006 C1007 1.524 . S
C1006 C1020 1.377 . S
C1007 C1006 1.524 . S
C1007 C1008 1.397 . S
C1007 C1012 1.363 . S
C1008 H985 0.950 . S
C1008 C1007 1.397 . S
C1008 C1009 1.334 . S
C1009 H986 0.950 . S
C1009 C1008 1.334 . S
C1009 C1010 1.287 . S
C1010 C1009 1.287 . S
C1010 C1011 1.524 . S
C1010 H1029 0.913 . S
C1011 H987 0.950 1_655 S
C1011 C1010 1.524 . S
C1011 C1012 1.415 . S
C1012 H988 0.972 . S
C1012 C1007 1.363 . S
C1012 C1011 1.415 . S
C1013 H989 0.951 . S
C1013 C1014 1.366 . S
C1013 C1015 1.388 . S
C1014 C1013 1.366 . S
C1014 C1018 1.385 . S
C1015 H990 0.951 . S
C1015 C1013 1.388 . S
C1015 C1016 1.366 . S
C1016 C1015 1.366 . S
C1016 C1017 1.414 . S
C1016 C1019 1.499 . S
C1017 H991 0.950 . S
C1017 C1016 1.414 . S
C1017 C1018 1.374 . S
C1018 H992 0.950 . S
C1018 C1014 1.385 . S
C1018 C1017 1.374 . S
C1019 C1016 1.499 . S
C1019 C1020 1.373 . S
C1019 C1021 1.389 . S
C1020 H993 0.950 . S
C1020 C1006 1.377 . S
C1020 C1019 1.373 . S
C1021 C1005 1.377 . S
C1021 C1019 1.389 . S
C1021 C1022 1.524 . S
C1022 C1021 1.524 . S
C1022 C1023 1.397 . S
C1022 C1027 1.363 . S
C1023 H994 0.950 . S
C1023 C1022 1.397 . S
C1023 C1024 1.334 . S
C1024 H995 0.950 . S
C1024 C1023 1.334 . S
C1024 C1025 1.287 . S
C1025 C1024 1.287 . S
C1025 C1026 1.524 . S
C1025 H1028 0.999 . S
C1026 H996 0.950 . S
C1026 C1025 1.524 . S
C1026 C1027 1.415 . S
C1027 H997 0.950 . S
C1027 C1022 1.363 . S
C1027 C1026 1.415 . S
H1028 C1025 0.999 . S
H1029 C1010 0.913 . S
H1030 C1048 0.951 . S
H1031 C1050 0.951 . S
H1032 C1052 0.950 . S
H1033 C1053 0.950 . S
H1034 C1055 0.950 . S
H1035 C1058 0.950 . S
H1036 C1059 0.950 . S
H1037 C1061 0.950 . S
H1038 C1062 0.950 . S
H1039 C1063 0.951 . S
H1040 C1065 0.951 . S
H1041 C1067 0.950 . S
H1042 C1068 0.950 . S
H1043 C1070 0.950 . S
H1044 C1073 0.950 . S
H1045 C1074 0.950 . S
H1046 C1076 0.950 . S
H1047 C1077 0.950 . S
C1048 H1030 0.951 . S
C1048 C1049 1.366 . S
C1048 C1050 1.388 . S
C1049 C1048 1.366 . S
C1049 C1053 1.385 . S
C1050 H1031 0.951 . S
C1050 C1048 1.388 . S
C1050 C1051 1.366 . S
C1051 C1050 1.366 . S
C1051 C1052 1.414 . S
C1051 C1054 1.499 . S
C1052 H1032 0.950 . S
C1052 C1051 1.414 . S
C1052 C1053 1.374 . S
C1053 H1033 0.950 . S
C1053 C1049 1.385 . S
C1053 C1052 1.374 . S
C1054 C1051 1.499 . S
C1054 C1055 1.373 . S
C1054 C1056 1.389 . S
C1055 H1034 0.950 . S
C1055 C1054 1.373 . S
C1055 C1071 1.377 . S
C1056 C1054 1.389 . S
C1056 C1057 1.524 . S
C1056 C1070 1.377 . S
C1057 C1056 1.524 . S
C1057 C1058 1.397 . S
C1057 C1062 1.363 . S
C1058 H1035 0.950 . S
C1058 C1057 1.397 . S
C1058 C1059 1.334 . S
C1059 H1036 0.950 . S
C1059 C1058 1.334 . S
C1059 C1060 1.287 . S
C1060 C1059 1.287 . S
C1060 C1061 1.524 . S
C1060 H1079 0.913 . S
C1061 H1037 0.950 . S
C1061 C1060 1.524 . S
C1061 C1062 1.415 . S
C1062 H1038 0.950 . S
C1062 C1057 1.363 . S
C1062 C1061 1.415 . S
C1063 H1039 0.951 . S
C1063 C1064 1.366 . S
C1063 C1065 1.388 . S
C1064 C1063 1.366 . S
C1064 C1068 1.385 . S
C1065 H1040 0.951 . S
C1065 C1063 1.388 . S
C1065 C1066 1.366 . S
C1066 C1065 1.366 . S
C1066 C1067 1.414 . S
C1066 C1069 1.499 . S
C1067 H1041 0.950 . S
C1067 C1066 1.414 . S
C1067 C1068 1.374 . S
C1068 H1042 0.950 . S
C1068 C1064 1.385 . S
C1068 C1067 1.374 . S
C1069 C1066 1.499 . S
C1069 C1070 1.373 . S
C1069 C1071 1.389 . S
C1070 H1043 0.950 . S
C1070 C1056 1.377 . S
C1070 C1069 1.373 . S
C1071 C1055 1.377 . S
C1071 C1069 1.389 . S
C1071 C1072 1.524 . S
C1072 C1071 1.524 . S
C1072 C1073 1.397 . S
C1072 C1077 1.363 . S
C1073 H1044 0.950 . S
C1073 C1072 1.397 . S
C1073 C1074 1.334 . S
C1074 H1045 0.950 . S
C1074 C1073 1.334 . S
C1074 C1075 1.287 . S
C1075 C1074 1.287 . S
C1075 C1076 1.524 . S
C1075 H1078 0.999 . S
C1076 H1046 0.950 . S
C1076 C1075 1.524 . S
C1076 C1077 1.415 . S
C1077 H1047 0.950 . S
C1077 C1072 1.363 . S
C1077 C1076 1.415 . S
H1078 C1075 0.999 . S
H1079 C1060 0.913 . S
H1080 C1098 0.951 . S
H1081 C1100 0.951 . S
H1082 C1102 0.950 . S
H1083 C1103 0.950 . S
H1084 C1105 0.950 . S
H1085 C1108 0.950 . S
H1086 C1109 0.950 . S
H1087 C1111 0.950 . S
H1088 C1112 0.950 . S
H1089 C1113 0.951 . S
H1090 C1115 0.951 . S
H1091 C1117 0.950 . S
H1092 C1118 0.950 . S
H1093 C1120 0.950 . S
H1094 C1123 0.950 . S
H1095 C1124 0.950 . S
H1096 C1126 0.950 . S
H1097 C1127 0.950 . S
C1098 H1080 0.951 . S
C1098 C1099 1.366 . S
C1098 C1100 1.388 . S
C1099 C1098 1.366 . S
C1099 C1103 1.385 . S
C1100 H1081 0.951 . S
C1100 C1098 1.388 . S
C1100 C1101 1.366 . S
C1101 C1100 1.366 . S
C1101 C1102 1.414 . S
C1101 C1104 1.499 . S
C1102 H1082 0.950 . S
C1102 C1101 1.414 . S
C1102 C1103 1.374 . S
C1103 H1083 0.950 . S
C1103 C1099 1.385 . S
C1103 C1102 1.374 . S
C1104 C1101 1.499 . S
C1104 C1105 1.373 . S
C1104 C1106 1.389 . S
C1105 H1084 0.950 . S
C1105 C1104 1.373 . S
C1105 C1121 1.377 . S
C1106 C1104 1.389 . S
C1106 C1107 1.524 . S
C1106 C1120 1.377 . S
C1107 C1106 1.524 . S
C1107 C1108 1.397 . S
C1107 C1112 1.363 . S
C1108 H1085 0.950 . S
C1108 C1107 1.397 . S
C1108 C1109 1.334 . S
C1109 H1086 0.950 . S
C1109 C1108 1.334 . S
C1109 C1110 1.287 . S
C1110 C1109 1.287 . S
C1110 C1111 1.524 . S
C1110 H1129 0.913 . S
C1111 H1087 0.950 . S
C1111 C1110 1.524 . S
C1111 C1112 1.415 . S
C1112 H1088 0.950 . S
C1112 C1107 1.363 . S
C1112 C1111 1.415 . S
C1113 H1089 0.951 . S
C1113 C1114 1.366 . S
C1113 C1115 1.388 . S
C1114 C1113 1.366 . S
C1114 C1118 1.385 . S
C1115 H1090 0.951 . S
C1115 C1113 1.388 . S
C1115 C1116 1.366 . S
C1116 C1115 1.366 . S
C1116 C1117 1.414 . S
C1116 C1119 1.499 . S
C1117 H1091 0.950 . S
C1117 C1116 1.414 . S
C1117 C1118 1.374 . S
C1118 H1092 0.950 . S
C1118 C1114 1.385 . S
C1118 C1117 1.374 . S
C1119 C1116 1.499 . S
C1119 C1120 1.373 . S
C1119 C1121 1.389 . S
C1120 H1093 0.950 . S
C1120 C1106 1.377 . S
C1120 C1119 1.373 . S
C1121 C1105 1.377 . S
C1121 C1119 1.389 . S
C1121 C1122 1.524 . S
C1122 C1121 1.524 . S
C1122 C1123 1.397 . S
C1122 C1127 1.363 . S
C1123 H1094 0.950 . S
C1123 C1122 1.397 . S
C1123 C1124 1.334 . S
C1124 H1095 0.950 . S
C1124 C1123 1.334 . S
C1124 C1125 1.287 . S
C1125 C1124 1.287 . S
C1125 C1126 1.524 . S
C1125 H1128 0.999 . S
C1126 H1096 0.950 . S
C1126 C1125 1.524 . S
C1126 C1127 1.415 . S
C1127 H1097 0.950 . S
C1127 C1122 1.363 . S
C1127 C1126 1.415 . S
H1128 C1125 0.999 . S
H1129 C1110 0.913 . S
H1130 C1148 0.951 . S
H1131 C1150 0.951 . S
H1132 C1152 0.950 . S
H1133 C1153 0.950 . S
H1134 C1155 0.950 . S
H1135 C1158 0.950 . S
H1136 C1159 0.950 . S
H1137 C1161 0.950 . S
H1138 C1162 0.950 . S
H1139 C1163 0.951 . S
H1140 C1165 0.951 . S
H1141 C1167 0.950 . S
H1142 C1168 0.950 . S
H1143 C1170 0.950 . S
H1144 C1173 0.950 . S
H1145 C1174 0.950 . S
H1146 C1176 0.950 . S
H1147 C1177 0.950 . S
C1148 H1130 0.951 . S
C1148 C1149 1.366 . S
C1148 C1150 1.388 . S
C1149 C1148 1.366 . S
C1149 C1153 1.385 . S
C1150 H1131 0.951 . S
C1150 C1148 1.388 . S
C1150 C1151 1.366 . S
C1151 C1150 1.366 . S
C1151 C1152 1.414 . S
C1151 C1154 1.499 . S
C1152 H1132 0.950 . S
C1152 C1151 1.414 . S
C1152 C1153 1.374 . S
C1153 H1133 0.950 . S
C1153 C1149 1.385 . S
C1153 C1152 1.374 . S
C1154 C1151 1.499 . S
C1154 C1155 1.373 . S
C1154 C1156 1.389 . S
C1155 H1134 0.950 . S
C1155 C1154 1.373 . S
C1155 C1171 1.377 . S
C1156 C1154 1.389 . S
C1156 C1157 1.524 . S
C1156 C1170 1.377 . S
C1157 C1156 1.524 . S
C1157 C1158 1.397 . S
C1157 C1162 1.363 . S
C1158 H1135 0.950 . S
C1158 C1157 1.397 . S
C1158 C1159 1.334 . S
C1159 H1136 0.950 . S
C1159 C1158 1.334 . S
C1159 C1160 1.287 . S
C1160 C1159 1.287 . S
C1160 C1161 1.524 . S
C1160 H1179 0.913 . S
C1161 H1137 0.950 . S
C1161 C1160 1.524 . S
C1161 C1162 1.415 . S
C1162 H1138 0.950 . S
C1162 C1157 1.363 . S
C1162 C1161 1.415 . S
C1163 H1139 0.951 . S
C1163 C1164 1.366 . S
C1163 C1165 1.388 . S
C1164 C1163 1.366 . S
C1164 C1168 1.385 . S
C1165 H1140 0.951 . S
C1165 C1163 1.388 . S
C1165 C1166 1.366 . S
C1166 C1165 1.366 . S
C1166 C1167 1.414 . S
C1166 C1169 1.499 . S
C1167 H1141 0.950 . S
C1167 C1166 1.414 . S
C1167 C1168 1.374 . S
C1168 H1142 0.950 . S
C1168 C1164 1.385 . S
C1168 C1167 1.374 . S
C1169 C1166 1.499 . S
C1169 C1170 1.373 . S
C1169 C1171 1.389 . S
C1170 H1143 0.950 . S
C1170 C1156 1.377 . S
C1170 C1169 1.373 . S
C1171 C1155 1.377 . S
C1171 C1169 1.389 . S
C1171 C1172 1.524 . S
C1172 C1171 1.524 . S
C1172 C1173 1.397 . S
C1172 C1177 1.363 . S
C1173 H1144 0.950 . S
C1173 C1172 1.397 . S
C1173 C1174 1.334 . S
C1174 H1145 0.950 . S
C1174 C1173 1.334 . S
C1174 C1175 1.287 . S
C1175 C1174 1.287 . S
C1175 C1176 1.524 . S
C1175 H1178 0.999 . S
C1176 H1146 0.950 . S
C1176 C1175 1.524 . S
C1176 C1177 1.415 . S
C1177 H1147 0.950 . S
C1177 C1172 1.363 . S
C1177 C1176 1.415 . S
H1178 C1175 0.999 . S
H1179 C1160 0.913 . S
H1180 C1198 0.951 . S
H1181 C1200 0.951 . S
H1182 C1202 0.950 . S
H1183 C1203 0.950 . S
H1184 C1205 0.950 . S
H1185 C1208 0.950 . S
H1186 C1209 0.950 . S
H1187 C1211 0.950 . S
H1188 C1212 0.950 . S
H1189 C1213 0.951 . S
H1190 C1215 0.951 . S
H1191 C1217 0.950 . S
H1192 C1218 0.950 . S
H1193 C1220 0.950 . S
H1194 C1223 0.950 . S
H1195 C1224 0.950 . S
H1196 C1226 0.950 . S
H1197 C1227 0.950 . S
C1198 H1180 0.951 . S
C1198 C1199 1.366 . S
C1198 C1200 1.388 . S
C1199 C1198 1.366 . S
C1199 C1203 1.385 . S
C1200 H1181 0.951 . S
C1200 C1198 1.388 . S
C1200 C1201 1.366 . S
C1201 C1200 1.366 . S
C1201 C1202 1.414 . S
C1201 C1204 1.499 . S
C1202 H1182 0.950 . S
C1202 C1201 1.414 . S
C1202 C1203 1.374 . S
C1203 H1183 0.950 . S
C1203 C1199 1.385 . S
C1203 C1202 1.374 . S
C1204 C1201 1.499 . S
C1204 C1205 1.373 . S
C1204 C1206 1.389 . S
C1205 H1184 0.950 . S
C1205 C1204 1.373 . S
C1205 C1221 1.377 . S
C1206 C1204 1.389 . S
C1206 C1207 1.524 . S
C1206 C1220 1.377 . S
C1207 C1206 1.524 . S
C1207 C1208 1.397 . S
C1207 C1212 1.363 . S
C1208 H1185 0.950 . S
C1208 C1207 1.397 . S
C1208 C1209 1.334 . S
C1209 H1186 0.950 . S
C1209 C1208 1.334 . S
C1209 C1210 1.287 . S
C1210 C1209 1.287 . S
C1210 C1211 1.524 . S
C1210 H1229 0.913 . S
C1211 H1187 0.950 . S
C1211 C1210 1.524 . S
C1211 C1212 1.415 . S
C1212 H1188 0.950 . S
C1212 C1207 1.363 . S
C1212 C1211 1.415 . S
C1213 H1189 0.951 . S
C1213 C1214 1.366 . S
C1213 C1215 1.388 . S
C1214 C1213 1.366 . S
C1214 C1218 1.385 . S
C1215 H1190 0.951 . S
C1215 C1213 1.388 . S
C1215 C1216 1.366 . S
C1216 C1215 1.366 . S
C1216 C1217 1.414 . S
C1216 C1219 1.499 . S
C1217 H1191 0.950 . S
C1217 C1216 1.414 . S
C1217 C1218 1.374 . S
C1218 H1192 0.950 . S
C1218 C1214 1.385 . S
C1218 C1217 1.374 . S
C1219 C1216 1.499 . S
C1219 C1220 1.373 . S
C1219 C1221 1.389 . S
C1220 H1193 0.950 . S
C1220 C1206 1.377 . S
C1220 C1219 1.373 . S
C1221 C1205 1.377 . S
C1221 C1219 1.389 . S
C1221 C1222 1.524 . S
C1222 C1221 1.524 . S
C1222 C1223 1.397 . S
C1222 C1227 1.363 . S
C1223 H1194 0.950 . S
C1223 C1222 1.397 . S
C1223 C1224 1.334 . S
C1224 H1195 0.950 . S
C1224 C1223 1.334 . S
C1224 C1225 1.287 . S
C1225 C1224 1.287 . S
C1225 C1226 1.524 . S
C1225 H1228 0.999 . S
C1226 H1196 0.950 . S
C1226 C1225 1.524 . S
C1226 C1227 1.415 . S
C1227 H1197 0.950 . S
C1227 C1222 1.363 . S
C1227 C1226 1.415 . S
H1228 C1225 0.999 . S
H1229 C1210 0.913 . S
H1230 C1248 0.951 . S
H1231 C1250 0.951 . S
H1232 C1252 0.950 . S
H1233 C1253 0.950 . S
H1234 C1255 0.950 . S
H1235 C1258 0.950 . S
H1236 C1259 0.950 . S
H1237 C1261 0.950 . S
H1238 C1262 0.950 1_565 S
H1239 C1263 0.951 . S
H1240 C1265 0.951 . S
H1241 C1267 0.950 . S
H1242 C1268 0.950 1_565 S
H1243 C1270 0.950 . S
H1244 C1273 0.950 . S
H1245 C1274 0.950 . S
H1246 C1276 0.950 . S
H1247 C1277 0.950 . S
C1248 H1230 0.951 . S
C1248 C1249 1.366 . S
C1248 C1250 1.388 . S
C1249 C1248 1.366 . S
C1249 C1253 1.385 . S
C1250 H1231 0.951 . S
C1250 C1248 1.388 . S
C1250 C1251 1.366 . S
C1251 C1250 1.366 . S
C1251 C1252 1.414 . S
C1251 C1254 1.499 . S
C1252 H1232 0.950 . S
C1252 C1251 1.414 . S
C1252 C1253 1.374 . S
C1253 H1233 0.950 . S
C1253 C1249 1.385 . S
C1253 C1252 1.374 . S
C1254 C1251 1.499 . S
C1254 C1255 1.373 . S
C1254 C1256 1.389 . S
C1255 H1234 0.950 . S
C1255 C1254 1.373 . S
C1255 C1271 1.377 1_554 S
C1256 C1254 1.389 . S
C1256 C1257 1.524 . S
C1256 C1270 1.412 . S
C1257 C1256 1.524 . S
C1257 C1258 1.397 . S
C1257 C1262 1.363 . S
C1258 H1235 0.950 . S
C1258 C1257 1.397 . S
C1258 C1259 1.334 . S
C1259 H1236 0.950 . S
C1259 C1258 1.334 . S
C1259 C1260 1.287 1_545 S
C1260 C1259 1.287 1_565 S
C1260 C1261 1.524 . S
C1260 H1279 0.913 . S
C1261 H1237 0.950 . S
C1261 C1260 1.524 . S
C1261 C1262 1.415 1_565 S
C1262 H1238 0.950 1_545 S
C1262 C1257 1.363 . S
C1262 C1261 1.415 1_545 S
C1263 H1239 0.951 . S
C1263 C1264 1.366 . S
C1263 C1265 1.388 . S
C1264 C1263 1.366 . S
C1264 C1268 1.385 . S
C1265 H1240 0.951 . S
C1265 C1263 1.388 . S
C1265 C1266 1.366 . S
C1266 C1265 1.366 . S
C1266 C1267 1.414 . S
C1266 C1269 1.499 . S
C1267 H1241 0.950 . S
C1267 C1266 1.414 . S
C1267 C1268 1.374 . S
C1268 H1242 0.950 1_545 S
C1268 C1264 1.385 . S
C1268 C1267 1.374 . S
C1269 C1266 1.499 . S
C1269 C1270 1.339 1_556 S
C1269 C1271 1.389 . S
C1270 H1243 0.950 . S
C1270 C1256 1.412 . S
C1270 C1269 1.339 1_554 S
C1271 C1255 1.377 1_556 S
C1271 C1269 1.389 . S
C1271 C1272 1.524 . S
C1272 C1271 1.524 . S
C1272 C1273 1.397 . S
C1272 C1277 1.363 . S
C1273 H1244 0.950 . S
C1273 C1272 1.397 . S
C1273 C1274 1.334 . S
C1274 H1245 0.950 . S
C1274 C1273 1.334 . S
C1274 C1275 1.287 . S
C1275 C1274 1.287 . S
C1275 C1276 1.524 . S
C1275 H1278 0.999 . S
C1276 H1246 0.950 . S
C1276 C1275 1.524 . S
C1276 C1277 1.415 . S
C1277 H1247 0.950 . S
C1277 C1272 1.363 . S
C1277 C1276 1.415 . S
H1278 C1275 0.999 . S
H1279 C1260 0.913 . S
H1280 C1298 0.951 . S
H1281 C1300 0.951 . S
H1282 C1302 0.950 . S
H1283 C1303 0.950 . S
H1284 C1305 0.950 . S
H1285 C1308 0.950 . S
H1286 C1309 0.950 . S
H1287 C1311 0.950 . S
H1288 C1312 0.950 . S
H1289 C1313 0.951 . S
H1290 C1315 0.951 . S
H1291 C1317 0.950 . S
H1292 C1318 0.950 . S
H1293 C1320 0.950 . S
H1294 C1323 0.950 . S
H1295 C1324 0.950 . S
H1296 C1326 0.950 1_565 S
H1297 C1327 0.950 . S
C1298 H1280 0.951 . S
C1298 C1299 1.366 . S
C1298 C1300 1.388 . S
C1299 C1298 1.366 . S
C1299 C1303 1.385 . S
C1300 H1281 0.951 . S
C1300 C1298 1.388 . S
C1300 C1301 1.366 . S
C1301 C1300 1.366 . S
C1301 C1302 1.414 . S
C1301 C1304 1.499 . S
C1302 H1282 0.950 . S
C1302 C1301 1.414 . S
C1302 C1303 1.374 . S
C1303 H1283 0.950 . S
C1303 C1299 1.385 . S
C1303 C1302 1.374 . S
C1304 C1301 1.499 . S
C1304 C1305 1.373 . S
C1304 C1306 1.389 . S
C1305 H1284 0.950 . S
C1305 C1304 1.373 . S
C1305 C1321 1.377 . S
C1306 C1304 1.389 . S
C1306 C1307 1.524 . S
C1306 C1320 1.377 . S
C1307 C1306 1.524 . S
C1307 C1308 1.397 . S
C1307 C1312 1.363 . S
C1308 H1285 0.950 . S
C1308 C1307 1.397 . S
C1308 C1309 1.334 . S
C1309 H1286 0.950 . S
C1309 C1308 1.334 . S
C1309 C1310 1.287 . S
C1310 C1309 1.287 . S
C1310 C1311 1.524 . S
C1310 H1329 0.913 . S
C1311 H1287 0.950 . S
C1311 C1310 1.524 . S
C1311 C1312 1.415 . S
C1312 H1288 0.950 . S
C1312 C1307 1.363 . S
C1312 C1311 1.415 . S
C1313 H1289 0.951 . S
C1313 C1314 1.366 . S
C1313 C1315 1.388 . S
C1314 C1313 1.366 . S
C1314 C1318 1.385 . S
C1315 H1290 0.951 . S
C1315 C1313 1.388 . S
C1315 C1316 1.366 . S
C1316 C1315 1.366 . S
C1316 C1317 1.414 . S
C1316 C1319 1.499 . S
C1317 H1291 0.950 . S
C1317 C1316 1.414 . S
C1317 C1318 1.374 . S
C1318 H1292 0.950 . S
C1318 C1314 1.385 . S
C1318 C1317 1.374 . S
C1319 C1316 1.499 . S
C1319 C1320 1.373 . S
C1319 C1321 1.389 . S
C1320 H1293 0.950 . S
C1320 C1306 1.377 . S
C1320 C1319 1.373 . S
C1321 C1305 1.377 . S
C1321 C1319 1.389 . S
C1321 C1322 1.524 . S
C1322 C1321 1.524 . S
C1322 C1323 1.397 . S
C1322 C1327 1.363 . S
C1323 H1294 0.950 . S
C1323 C1322 1.397 . S
C1323 C1324 1.334 . S
C1324 H1295 0.950 . S
C1324 C1323 1.334 . S
C1324 C1325 1.287 1_545 S
C1325 C1324 1.287 1_565 S
C1325 C1326 1.524 1_565 S
C1325 H1328 0.999 . S
C1326 H1296 0.950 1_545 S
C1326 C1325 1.524 1_545 S
C1326 C1327 1.415 . S
C1327 H1297 0.950 . S
C1327 C1322 1.363 . S
C1327 C1326 1.415 . S
H1328 C1325 0.999 . S
H1329 C1310 0.913 . S
H1330 C1348 0.951 . S
H1331 C1350 0.951 . S
H1332 C1352 0.950 . S
H1333 C1353 0.950 . S
H1334 C1355 0.950 . S
H1335 C1358 0.950 . S
H1336 C1359 0.950 . S
H1337 C1361 0.950 . S
H1338 C1362 0.969 . S
H1339 C1363 0.951 . S
H1340 C1365 0.951 . S
H1341 C1367 0.950 . S
H1342 C1368 0.950 . S
H1343 C1370 0.950 . S
H1344 C1373 0.950 . S
H1345 C1374 0.950 . S
H1346 C1376 0.950 . S
H1347 C1377 0.950 . S
C1348 H1330 0.951 . S
C1348 C1349 1.366 . S
C1348 C1350 1.388 . S
C1349 C1348 1.366 . S
C1349 C1353 1.385 . S
C1350 H1331 0.951 . S
C1350 C1348 1.388 . S
C1350 C1351 1.366 . S
C1351 C1350 1.366 . S
C1351 C1352 1.414 . S
C1351 C1354 1.499 1_554 S
C1352 H1332 0.950 . S
C1352 C1351 1.414 . S
C1352 C1353 1.374 . S
C1353 H1333 0.950 . S
C1353 C1349 1.385 . S
C1353 C1352 1.374 . S
C1354 C1351 1.499 1_556 S
C1354 C1355 1.373 . S
C1354 C1356 1.389 . S
C1355 H1334 0.950 . S
C1355 C1354 1.373 . S
C1355 C1371 1.377 . S
C1356 C1354 1.389 . S
C1356 C1357 1.524 . S
C1356 C1370 1.377 . S
C1357 C1356 1.524 . S
C1357 C1358 1.397 1_556 S
C1357 C1362 1.364 . S
C1358 H1335 0.950 . S
C1358 C1357 1.397 1_554 S
C1358 C1359 1.334 . S
C1359 H1336 0.950 . S
C1359 C1358 1.334 . S
C1359 C1360 1.287 . S
C1360 C1359 1.287 . S
C1360 C1361 1.524 . S
C1360 H1379 0.913 . S
C1361 H1337 0.950 . S
C1361 C1360 1.524 . S
C1361 C1362 1.396 1_554 S
C1362 H1338 0.969 . S
C1362 C1357 1.364 . S
C1362 C1361 1.396 1_556 S
C1363 H1339 0.951 . S
C1363 C1364 1.366 . S
C1363 C1365 1.388 . S
C1364 C1363 1.366 . S
C1364 C1368 1.385 . S
C1365 H1340 0.951 . S
C1365 C1363 1.388 . S
C1365 C1366 1.366 . S
C1366 C1365 1.366 . S
C1366 C1367 1.414 . S
C1366 C1369 1.499 . S
C1367 H1341 0.950 . S
C1367 C1366 1.414 . S
C1367 C1368 1.374 . S
C1368 H1342 0.950 . S
C1368 C1364 1.385 . S
C1368 C1367 1.374 . S
C1369 C1366 1.499 . S
C1369 C1370 1.373 . S
C1369 C1371 1.389 . S
C1370 H1343 0.950 . S
C1370 C1356 1.377 . S
C1370 C1369 1.373 . S
C1371 C1355 1.377 . S
C1371 C1369 1.389 . S
C1371 C1372 1.524 . S
C1372 C1371 1.524 . S
C1372 C1373 1.397 . S
C1372 C1377 1.363 . S
C1373 H1344 0.950 . S
C1373 C1372 1.397 . S
C1373 C1374 1.334 . S
C1374 H1345 0.950 . S
C1374 C1373 1.334 . S
C1374 C1375 1.287 . S
C1375 C1374 1.287 . S
C1375 C1376 1.524 . S
C1375 H1378 0.999 . S
C1376 H1346 0.950 . S
C1376 C1375 1.524 . S
C1376 C1377 1.415 . S
C1377 H1347 0.950 . S
C1377 C1372 1.363 . S
C1377 C1376 1.415 . S
H1378 C1375 0.999 . S
H1379 C1360 0.913 . S
H1380 C1398 0.951 . S
H1381 C1400 0.951 . S
H1382 C1402 0.950 . S
H1383 C1403 0.950 . S
H1384 C1405 0.950 . S
H1385 C1408 0.950 . S
H1386 C1409 0.950 . S
H1387 C1411 0.950 . S
H1388 C1412 0.950 . S
H1389 C1413 0.951 . S
H1390 C1415 0.951 . S
H1391 C1417 0.950 . S
H1392 C1418 0.950 . S
H1393 C1420 0.950 . S
H1394 C1423 0.950 . S
H1395 C1424 0.950 . S
H1396 C1426 0.950 . S
H1397 C1427 0.950 . S
C1398 H1380 0.951 . S
C1398 C1399 1.366 . S
C1398 C1400 1.388 . S
C1399 C1398 1.366 . S
C1399 C1403 1.385 . S
C1400 H1381 0.951 . S
C1400 C1398 1.388 . S
C1400 C1401 1.366 . S
C1401 C1400 1.366 . S
C1401 C1402 1.414 . S
C1401 C1404 1.499 . S
C1402 H1382 0.950 . S
C1402 C1401 1.414 . S
C1402 C1403 1.374 . S
C1403 H1383 0.950 . S
C1403 C1399 1.385 . S
C1403 C1402 1.374 . S
C1404 C1401 1.499 . S
C1404 C1405 1.373 . S
C1404 C1406 1.389 . S
C1405 H1384 0.950 . S
C1405 C1404 1.373 . S
C1405 C1421 1.377 . S
C1406 C1404 1.389 . S
C1406 C1407 1.524 . S
C1406 C1420 1.377 . S
C1407 C1406 1.524 . S
C1407 C1408 1.397 . S
C1407 C1412 1.363 . S
C1408 H1385 0.950 . S
C1408 C1407 1.397 . S
C1408 C1409 1.334 . S
C1409 H1386 0.950 . S
C1409 C1408 1.334 . S
C1409 C1410 1.287 . S
C1410 C1409 1.287 . S
C1410 C1411 1.524 . S
C1410 H1429 0.913 . S
C1411 H1387 0.950 . S
C1411 C1410 1.524 . S
C1411 C1412 1.415 . S
C1412 H1388 0.950 . S
C1412 C1407 1.363 . S
C1412 C1411 1.415 . S
C1413 H1389 0.951 . S
C1413 C1414 1.366 . S
C1413 C1415 1.388 . S
C1414 C1413 1.366 . S
C1414 C1418 1.385 . S
C1415 H1390 0.951 . S
C1415 C1413 1.388 . S
C1415 C1416 1.366 . S
C1416 C1415 1.366 . S
C1416 C1417 1.414 . S
C1416 C1419 1.499 . S
C1417 H1391 0.950 . S
C1417 C1416 1.414 . S
C1417 C1418 1.374 . S
C1418 H1392 0.950 . S
C1418 C1414 1.385 . S
C1418 C1417 1.374 . S
C1419 C1416 1.499 . S
C1419 C1420 1.373 . S
C1419 C1421 1.389 . S
C1420 H1393 0.950 . S
C1420 C1406 1.377 . S
C1420 C1419 1.373 . S
C1421 C1405 1.377 . S
C1421 C1419 1.389 . S
C1421 C1422 1.524 . S
C1422 C1421 1.524 . S
C1422 C1423 1.397 . S
C1422 C1427 1.363 . S
C1423 H1394 0.950 . S
C1423 C1422 1.397 . S
C1423 C1424 1.334 . S
C1424 H1395 0.950 . S
C1424 C1423 1.334 . S
C1424 C1425 1.287 . S
C1425 C1424 1.287 . S
C1425 C1426 1.524 . S
C1425 H1428 0.999 . S
C1426 H1396 0.950 . S
C1426 C1425 1.524 . S
C1426 C1427 1.415 . S
C1427 H1397 0.950 . S
C1427 C1422 1.363 . S
C1427 C1426 1.415 . S
H1428 C1425 0.999 . S
H1429 C1410 0.913 . S
H1430 C1448 0.951 . S
H1431 C1450 0.951 . S
H1432 C1452 0.950 . S
H1433 C1453 0.950 . S
H1434 C1455 0.950 . S
H1435 C1458 0.950 . S
H1436 C1459 0.950 . S
H1437 C1461 0.950 . S
H1438 C1462 0.950 . S
H1439 C1463 0.951 . S
H1440 C1465 0.951 . S
H1441 C1467 0.950 . S
H1442 C1468 0.950 . S
H1443 C1470 0.950 . S
H1444 C1473 0.950 . S
H1445 C1474 0.950 . S
H1446 C1476 0.950 . S
H1447 C1477 0.950 . S
C1448 H1430 0.951 . S
C1448 C1449 1.366 . S
C1448 C1450 1.388 . S
C1449 C1448 1.366 . S
C1449 C1453 1.385 . S
C1450 H1431 0.951 . S
C1450 C1448 1.388 . S
C1450 C1451 1.366 . S
C1451 C1450 1.366 . S
C1451 C1452 1.414 . S
C1451 C1454 1.499 . S
C1452 H1432 0.950 . S
C1452 C1451 1.414 . S
C1452 C1453 1.374 . S
C1453 H1433 0.950 . S
C1453 C1449 1.385 . S
C1453 C1452 1.374 . S
C1454 C1451 1.499 . S
C1454 C1455 1.373 . S
C1454 C1456 1.389 . S
C1455 H1434 0.950 . S
C1455 C1454 1.373 . S
C1455 C1471 1.377 . S
C1456 C1454 1.389 . S
C1456 C1457 1.524 . S
C1456 C1470 1.377 . S
C1457 C1456 1.524 . S
C1457 C1458 1.397 . S
C1457 C1462 1.363 . S
C1458 H1435 0.950 . S
C1458 C1457 1.397 . S
C1458 C1459 1.334 . S
C1459 H1436 0.950 . S
C1459 C1458 1.334 . S
C1459 C1460 1.287 . S
C1460 C1459 1.287 . S
C1460 C1461 1.524 . S
C1460 H1479 0.913 . S
C1461 H1437 0.950 . S
C1461 C1460 1.524 . S
C1461 C1462 1.415 . S
C1462 H1438 0.950 . S
C1462 C1457 1.363 . S
C1462 C1461 1.415 . S
C1463 H1439 0.951 . S
C1463 C1464 1.366 . S
C1463 C1465 1.388 . S
C1464 C1463 1.366 . S
C1464 C1468 1.385 . S
C1465 H1440 0.951 . S
C1465 C1463 1.388 . S
C1465 C1466 1.366 . S
C1466 C1465 1.366 . S
C1466 C1467 1.414 . S
C1466 C1469 1.499 . S
C1467 H1441 0.950 . S
C1467 C1466 1.414 . S
C1467 C1468 1.374 . S
C1468 H1442 0.950 . S
C1468 C1464 1.385 . S
C1468 C1467 1.374 . S
C1469 C1466 1.499 . S
C1469 C1470 1.373 . S
C1469 C1471 1.389 . S
C1470 H1443 0.950 . S
C1470 C1456 1.377 . S
C1470 C1469 1.373 . S
C1471 C1455 1.377 . S
C1471 C1469 1.389 . S
C1471 C1472 1.524 . S
C1472 C1471 1.524 . S
C1472 C1473 1.397 . S
C1472 C1477 1.363 . S
C1473 H1444 0.950 . S
C1473 C1472 1.397 . S
C1473 C1474 1.334 . S
C1474 H1445 0.950 . S
C1474 C1473 1.334 . S
C1474 C1475 1.287 . S
C1475 C1474 1.287 . S
C1475 C1476 1.524 . S
C1475 H1478 0.999 . S
C1476 H1446 0.950 . S
C1476 C1475 1.524 . S
C1476 C1477 1.415 . S
C1477 H1447 0.950 . S
C1477 C1472 1.363 . S
C1477 C1476 1.415 . S
H1478 C1475 0.999 . S
H1479 C1460 0.913 . S
H1480 C1498 0.951 . S
H1481 C1500 0.951 . S
H1482 C1502 0.950 . S
H1483 C1503 0.950 . S
H1484 C1505 0.950 . S
H1485 C1508 0.950 . S
H1486 C1509 0.950 . S
H1487 C1511 0.950 . S
H1488 C1512 0.950 . S
H1489 C1513 0.951 . S
H1490 C1515 0.951 . S
H1491 C1517 0.950 . S
H1492 C1518 0.950 . S
H1493 C1520 0.950 . S
H1494 C1523 0.950 . S
H1495 C1524 0.950 . S
H1496 C1526 0.950 . S
H1497 C1527 0.950 . S
C1498 H1480 0.951 . S
C1498 C1499 1.366 . S
C1498 C1500 1.388 . S
C1499 C1498 1.366 . S
C1499 C1503 1.385 . S
C1500 H1481 0.951 . S
C1500 C1498 1.388 . S
C1500 C1501 1.366 . S
C1501 C1500 1.366 . S
C1501 C1502 1.414 . S
C1501 C1504 1.499 . S
C1502 H1482 0.950 . S
C1502 C1501 1.414 . S
C1502 C1503 1.374 . S
C1503 H1483 0.950 . S
C1503 C1499 1.385 . S
C1503 C1502 1.374 . S
C1504 C1501 1.499 . S
C1504 C1505 1.373 . S
C1504 C1506 1.389 . S
C1505 H1484 0.950 . S
C1505 C1504 1.373 . S
C1505 C1521 1.377 . S
C1506 C1504 1.389 . S
C1506 C1507 1.524 . S
C1506 C1520 1.377 . S
C1507 C1506 1.524 . S
C1507 C1508 1.397 . S
C1507 C1512 1.363 . S
C1508 H1485 0.950 . S
C1508 C1507 1.397 . S
C1508 C1509 1.334 . S
C1509 H1486 0.950 . S
C1509 C1508 1.334 . S
C1509 C1510 1.287 . S
C1510 C1509 1.287 . S
C1510 C1511 1.524 . S
C1510 H1529 0.913 . S
C1511 H1487 0.950 . S
C1511 C1510 1.524 . S
C1511 C1512 1.415 . S
C1512 H1488 0.950 . S
C1512 C1507 1.363 . S
C1512 C1511 1.415 . S
C1513 H1489 0.951 . S
C1513 C1514 1.366 . S
C1513 C1515 1.388 . S
C1514 C1513 1.366 . S
C1514 C1518 1.385 . S
C1515 H1490 0.951 . S
C1515 C1513 1.388 . S
C1515 C1516 1.366 . S
C1516 C1515 1.366 . S
C1516 C1517 1.414 . S
C1516 C1519 1.499 . S
C1517 H1491 0.950 . S
C1517 C1516 1.414 . S
C1517 C1518 1.374 . S
C1518 H1492 0.950 . S
C1518 C1514 1.385 . S
C1518 C1517 1.374 . S
C1519 C1516 1.499 . S
C1519 C1520 1.373 . S
C1519 C1521 1.389 . S
C1520 H1493 0.950 . S
C1520 C1506 1.377 . S
C1520 C1519 1.373 . S
C1521 C1505 1.377 . S
C1521 C1519 1.389 . S
C1521 C1522 1.524 . S
C1522 C1521 1.524 . S
C1522 C1523 1.397 . S
C1522 C1527 1.363 . S
C1523 H1494 0.950 . S
C1523 C1522 1.397 . S
C1523 C1524 1.334 . S
C1524 H1495 0.950 . S
C1524 C1523 1.334 . S
C1524 C1525 1.287 . S
C1525 C1524 1.287 . S
C1525 C1526 1.524 . S
C1525 H1528 0.999 . S
C1526 H1496 0.950 . S
C1526 C1525 1.524 . S
C1526 C1527 1.415 . S
C1527 H1497 0.950 . S
C1527 C1522 1.363 . S
C1527 C1526 1.415 . S
H1528 C1525 0.999 . S
H1529 C1510 0.913 . S
H1530 C1548 0.951 . S
H1531 C1550 0.951 . S
H1532 C1552 0.950 . S
H1533 C1553 0.950 . S
H1534 C1555 0.950 . S
H1535 C1558 0.950 . S
H1536 C1559 0.950 . S
H1537 C1561 0.950 . S
H1538 C1562 0.950 . S
H1539 C1563 0.951 . S
H1540 C1565 0.951 . S
H1541 C1567 0.950 . S
H1542 C1568 0.950 . S
H1543 C1570 0.950 . S
H1544 C1573 0.950 . S
H1545 C1574 0.950 . S
H1546 C1576 0.950 . S
H1547 C1577 0.963 . S
C1548 H1530 0.951 . S
C1548 C1549 1.366 . S
C1548 C1550 1.388 . S
C1549 C1548 1.366 . S
C1549 C1553 1.385 . S
C1550 H1531 0.951 . S
C1550 C1548 1.388 . S
C1550 C1551 1.366 . S
C1551 C1550 1.366 . S
C1551 C1552 1.414 . S
C1551 C1554 1.499 . S
C1552 H1532 0.950 . S
C1552 C1551 1.414 . S
C1552 C1553 1.374 . S
C1553 H1533 0.950 . S
C1553 C1549 1.385 . S
C1553 C1552 1.374 . S
C1554 C1551 1.499 . S
C1554 C1555 1.373 . S
C1554 C1556 1.389 . S
C1555 H1534 0.950 . S
C1555 C1554 1.373 . S
C1555 C1571 1.377 . S
C1556 C1554 1.389 . S
C1556 C1557 1.524 . S
C1556 C1570 1.377 . S
C1557 C1556 1.524 . S
C1557 C1558 1.397 . S
C1557 C1562 1.363 . S
C1558 H1535 0.950 . S
C1558 C1557 1.397 . S
C1558 C1559 1.334 . S
C1559 H1536 0.950 . S
C1559 C1558 1.334 . S
C1559 C1560 1.287 1_455 S
C1560 C1559 1.287 1_655 S
C1560 C1561 1.524 . S
C1560 H1579 0.913 . S
C1561 H1537 0.950 . S
C1561 C1560 1.524 . S
C1561 C1562 1.415 1_655 S
C1562 H1538 0.950 . S
C1562 C1557 1.363 . S
C1562 C1561 1.415 1_455 S
C1563 H1539 0.951 . S
C1563 C1564 1.366 . S
C1563 C1565 1.388 . S
C1564 C1563 1.366 . S
C1564 C1568 1.385 . S
C1565 H1540 0.951 . S
C1565 C1563 1.388 . S
C1565 C1566 1.366 . S
C1566 C1565 1.366 . S
C1566 C1567 1.414 . S
C1566 C1569 1.499 1_565 S
C1567 H1541 0.950 . S
C1567 C1566 1.414 . S
C1567 C1568 1.374 . S
C1568 H1542 0.950 . S
C1568 C1564 1.385 . S
C1568 C1567 1.374 . S
C1569 C1566 1.499 1_545 S
C1569 C1570 1.373 . S
C1569 C1571 1.389 . S
C1570 H1543 0.950 . S
C1570 C1556 1.377 . S
C1570 C1569 1.373 . S
C1571 C1555 1.377 . S
C1571 C1569 1.389 . S
C1571 C1572 1.524 1_545 S
C1572 C1571 1.524 1_565 S
C1572 C1573 1.397 . S
C1572 C1577 1.358 1_565 S
C1573 H1544 0.950 . S
C1573 C1572 1.397 . S
C1573 C1574 1.334 . S
C1574 H1545 0.950 . S
C1574 C1573 1.334 . S
C1574 C1575 1.287 . S
C1575 C1574 1.287 . S
C1575 C1576 1.524 . S
C1575 H1578 0.999 . S
C1576 H1546 0.950 . S
C1576 C1575 1.524 . S
C1576 C1577 1.407 1_565 S
C1577 H1547 0.963 . S
C1577 C1572 1.358 1_545 S
C1577 C1576 1.407 1_545 S
H1578 C1575 0.999 . S
H1579 C1560 0.913 . S
H1580 C1598 0.951 . S
H1581 C1600 0.951 . S
H1582 C1602 0.950 . S
H1583 C1603 0.950 . S
H1584 C1605 0.950 . S
H1585 C1608 0.950 . S
H1586 C1609 0.950 . S
H1587 C1611 0.950 . S
H1588 C1612 0.950 . S
H1589 C1613 0.951 . S
H1590 C1615 0.951 . S
H1591 C1617 0.950 . S
H1592 C1618 0.950 . S
H1593 C1620 0.950 . S
H1594 C1623 0.950 . S
H1595 C1624 0.955 . S
H1596 C1626 0.950 . S
H1597 C1627 0.950 . S
C1598 H1580 0.951 . S
C1598 C1599 1.366 . S
C1598 C1600 1.388 . S
C1599 C1598 1.366 . S
C1599 C1603 1.385 . S
C1600 H1581 0.951 . S
C1600 C1598 1.388 . S
C1600 C1601 1.366 . S
C1601 C1600 1.366 . S
C1601 C1602 1.414 . S
C1601 C1604 1.499 . S
C1602 H1582 0.950 . S
C1602 C1601 1.414 . S
C1602 C1603 1.374 . S
C1603 H1583 0.950 . S
C1603 C1599 1.385 . S
C1603 C1602 1.374 . S
C1604 C1601 1.499 . S
C1604 C1605 1.373 . S
C1604 C1606 1.389 . S
C1605 H1584 0.950 . S
C1605 C1604 1.373 . S
C1605 C1621 1.377 . S
C1606 C1604 1.389 . S
C1606 C1607 1.524 . S
C1606 C1620 1.377 . S
C1607 C1606 1.524 . S
C1607 C1608 1.397 . S
C1607 C1612 1.363 . S
C1608 H1585 0.950 . S
C1608 C1607 1.397 . S
C1608 C1609 1.334 . S
C1609 H1586 0.950 . S
C1609 C1608 1.334 . S
C1609 C1610 1.287 . S
C1610 C1609 1.287 . S
C1610 C1611 1.524 . S
C1610 H1629 0.913 . S
C1611 H1587 0.950 . S
C1611 C1610 1.524 . S
C1611 C1612 1.415 . S
C1612 H1588 0.950 . S
C1612 C1607 1.363 . S
C1612 C1611 1.415 . S
C1613 H1589 0.951 . S
C1613 C1614 1.366 . S
C1613 C1615 1.388 . S
C1614 C1613 1.366 . S
C1614 C1618 1.385 . S
C1615 H1590 0.951 . S
C1615 C1613 1.388 . S
C1615 C1616 1.366 . S
C1616 C1615 1.366 . S
C1616 C1617 1.414 . S
C1616 C1619 1.499 . S
C1617 H1591 0.950 . S
C1617 C1616 1.414 . S
C1617 C1618 1.374 . S
C1618 H1592 0.950 . S
C1618 C1614 1.385 . S
C1618 C1617 1.374 . S
C1619 C1616 1.499 . S
C1619 C1620 1.373 . S
C1619 C1621 1.389 . S
C1620 H1593 0.950 . S
C1620 C1606 1.377 . S
C1620 C1619 1.373 . S
C1621 C1605 1.377 . S
C1621 C1619 1.389 . S
C1621 C1622 1.524 . S
C1622 C1621 1.524 . S
C1622 C1623 1.397 . S
C1622 C1627 1.363 . S
C1623 H1594 0.950 . S
C1623 C1622 1.397 . S
C1623 C1624 1.334 . S
C1624 H1595 0.955 . S
C1624 C1623 1.334 . S
C1624 C1625 1.287 1_556 S
C1625 C1624 1.287 1_554 S
C1625 C1626 1.524 . S
C1625 H1628 0.999 . S
C1626 H1596 0.950 . S
C1626 C1625 1.524 . S
C1626 C1627 1.415 1_554 S
C1627 H1597 0.950 . S
C1627 C1622 1.363 . S
C1627 C1626 1.415 1_556 S
H1628 C1625 0.999 . S
H1629 C1610 0.913 . S
H1630 C1648 0.951 . S
H1631 C1650 0.951 . S
H1632 C1652 0.950 . S
H1633 C1653 0.950 . S
H1634 C1655 0.950 . S
H1635 C1658 0.950 . S
H1636 C1659 0.950 . S
H1637 C1661 0.950 . S
H1638 C1662 0.950 . S
H1639 C1663 0.951 . S
H1640 C1665 0.951 . S
H1641 C1667 0.950 . S
H1642 C1668 0.950 . S
H1643 C1670 0.950 . S
H1644 C1673 0.950 . S
H1645 C1674 0.950 . S
H1646 C1676 0.950 . S
H1647 C1677 0.950 . S
C1648 H1630 0.951 . S
C1648 C1649 1.366 . S
C1648 C1650 1.388 . S
C1649 C1648 1.366 . S
C1649 C1653 1.385 . S
C1650 H1631 0.951 . S
C1650 C1648 1.388 . S
C1650 C1651 1.366 . S
C1651 C1650 1.366 . S
C1651 C1652 1.414 . S
C1651 C1654 1.499 . S
C1652 H1632 0.950 . S
C1652 C1651 1.414 . S
C1652 C1653 1.374 . S
C1653 H1633 0.950 . S
C1653 C1649 1.385 . S
C1653 C1652 1.374 . S
C1654 C1651 1.499 . S
C1654 C1655 1.373 1_545 S
C1654 C1656 1.389 . S
C1655 H1634 0.950 . S
C1655 C1654 1.373 1_565 S
C1655 C1671 1.377 . S
C1656 C1654 1.389 . S
C1656 C1657 1.524 . S
C1656 C1670 1.377 1_545 S
C1657 C1656 1.524 . S
C1657 C1658 1.397 . S
C1657 C1662 1.363 . S
C1658 H1635 0.950 . S
C1658 C1657 1.397 . S
C1658 C1659 1.334 . S
C1659 H1636 0.950 . S
C1659 C1658 1.334 . S
C1659 C1660 1.287 . S
C1660 C1659 1.287 . S
C1660 C1661 1.524 . S
C1660 H1679 0.913 . S
C1661 H1637 0.950 . S
C1661 C1660 1.524 . S
C1661 C1662 1.415 . S
C1662 H1638 0.950 . S
C1662 C1657 1.363 . S
C1662 C1661 1.415 . S
C1663 H1639 0.951 . S
C1663 C1664 1.366 . S
C1663 C1665 1.388 . S
C1664 C1663 1.366 . S
C1664 C1668 1.385 . S
C1665 H1640 0.951 . S
C1665 C1663 1.388 . S
C1665 C1666 1.366 . S
C1666 C1665 1.366 . S
C1666 C1667 1.414 . S
C1666 C1669 1.499 . S
C1667 H1641 0.950 . S
C1667 C1666 1.414 . S
C1667 C1668 1.374 . S
C1668 H1642 0.950 . S
C1668 C1664 1.385 . S
C1668 C1667 1.374 . S
C1669 C1666 1.499 . S
C1669 C1670 1.373 . S
C1669 C1671 1.389 . S
C1670 H1643 0.950 . S
C1670 C1656 1.377 1_565 S
C1670 C1669 1.373 . S
C1671 C1655 1.377 . S
C1671 C1669 1.389 . S
C1671 C1672 1.524 . S
C1672 C1671 1.524 . S
C1672 C1673 1.397 . S
C1672 C1677 1.363 . S
C1673 H1644 0.950 . S
C1673 C1672 1.397 . S
C1673 C1674 1.334 . S
C1674 H1645 0.950 . S
C1674 C1673 1.334 . S
C1674 C1675 1.287 . S
C1675 C1674 1.287 . S
C1675 C1676 1.524 . S
C1675 H1678 0.999 . S
C1676 H1646 0.950 . S
C1676 C1675 1.524 . S
C1676 C1677 1.415 . S
C1677 H1647 0.950 . S
C1677 C1672 1.363 . S
C1677 C1676 1.415 . S
H1678 C1675 0.999 . S
H1679 C1660 0.913 . S
H1680 C1698 0.951 . S
H1681 C1700 0.951 . S
H1682 C1702 0.950 . S
H1683 C1703 0.950 . S
H1684 C1705 0.950 . S
H1685 C1708 0.950 . S
H1686 C1709 0.950 . S
H1687 C1711 0.950 . S
H1688 C1712 0.950 . S
H1689 C1713 0.951 . S
H1690 C1715 0.951 . S
H1691 C1717 0.950 . S
H1692 C1718 0.950 . S
H1693 C1720 0.950 . S
H1694 C1723 0.950 . S
H1695 C1724 0.950 . S
H1696 C1726 0.950 . S
H1697 C1727 0.950 . S
C1698 H1680 0.951 . S
C1698 C1699 1.366 . S
C1698 C1700 1.388 . S
C1699 C1698 1.366 . S
C1699 C1703 1.385 . S
C1700 H1681 0.951 . S
C1700 C1698 1.388 . S
C1700 C1701 1.366 . S
C1701 C1700 1.366 . S
C1701 C1702 1.414 . S
C1701 C1704 1.499 . S
C1702 H1682 0.950 . S
C1702 C1701 1.414 . S
C1702 C1703 1.374 . S
C1703 H1683 0.950 . S
C1703 C1699 1.385 . S
C1703 C1702 1.374 . S
C1704 C1701 1.499 . S
C1704 C1705 1.373 . S
C1704 C1706 1.389 . S
C1705 H1684 0.950 . S
C1705 C1704 1.373 . S
C1705 C1721 1.377 . S
C1706 C1704 1.389 . S
C1706 C1707 1.524 . S
C1706 C1720 1.377 . S
C1707 C1706 1.524 . S
C1707 C1708 1.397 . S
C1707 C1712 1.363 . S
C1708 H1685 0.950 . S
C1708 C1707 1.397 . S
C1708 C1709 1.334 . S
C1709 H1686 0.950 . S
C1709 C1708 1.334 . S
C1709 C1710 1.287 . S
C1710 C1709 1.287 . S
C1710 C1711 1.524 . S
C1710 H1729 0.913 . S
C1711 H1687 0.950 . S
C1711 C1710 1.524 . S
C1711 C1712 1.415 . S
C1712 H1688 0.950 . S
C1712 C1707 1.363 . S
C1712 C1711 1.415 . S
C1713 H1689 0.951 . S
C1713 C1714 1.366 . S
C1713 C1715 1.388 . S
C1714 C1713 1.366 . S
C1714 C1718 1.385 . S
C1715 H1690 0.951 . S
C1715 C1713 1.388 . S
C1715 C1716 1.366 . S
C1716 C1715 1.366 . S
C1716 C1717 1.414 . S
C1716 C1719 1.499 . S
C1717 H1691 0.950 . S
C1717 C1716 1.414 . S
C1717 C1718 1.374 . S
C1718 H1692 0.950 . S
C1718 C1714 1.385 . S
C1718 C1717 1.374 . S
C1719 C1716 1.499 . S
C1719 C1720 1.373 . S
C1719 C1721 1.389 . S
C1720 H1693 0.950 . S
C1720 C1706 1.377 . S
C1720 C1719 1.373 . S
C1721 C1705 1.377 . S
C1721 C1719 1.389 . S
C1721 C1722 1.524 . S
C1722 C1721 1.524 . S
C1722 C1723 1.397 . S
C1722 C1727 1.363 . S
C1723 H1694 0.950 . S
C1723 C1722 1.397 . S
C1723 C1724 1.334 . S
C1724 H1695 0.950 . S
C1724 C1723 1.334 . S
C1724 C1725 1.287 . S
C1725 C1724 1.287 . S
C1725 C1726 1.524 . S
C1725 H1728 0.999 . S
C1726 H1696 0.950 . S
C1726 C1725 1.524 . S
C1726 C1727 1.415 . S
C1727 H1697 0.950 . S
C1727 C1722 1.363 . S
C1727 C1726 1.415 . S
H1728 C1725 0.999 . S
H1729 C1710 0.913 . S
H1730 C1748 0.982 . S
H1731 C1750 0.951 . S
H1732 C1752 0.950 . S
H1733 C1753 0.950 . S
H1734 C1755 0.950 . S
H1735 C1758 0.950 . S
H1736 C1759 0.950 . S
H1737 C1761 0.950 . S
H1738 C1762 0.950 . S
H1739 C1763 0.951 . S
H1740 C1765 0.951 . S
H1741 C1767 0.950 . S
H1742 C1768 0.950 . S
H1743 C1770 0.950 . S
H1744 C1773 0.950 . S
H1745 C1774 0.950 . S
H1746 C1776 0.950 . S
H1747 C1777 0.950 . S
C1748 H1730 0.982 . S
C1748 C1749 1.366 . S
C1748 C1750 1.388 . S
C1749 C1748 1.366 . S
C1749 C1753 1.385 . S
C1750 H1731 0.951 . S
C1750 C1748 1.388 . S
C1750 C1751 1.366 . S
C1751 C1750 1.366 . S
C1751 C1752 1.414 . S
C1751 C1754 1.499 . S
C1752 H1732 0.950 . S
C1752 C1751 1.414 . S
C1752 C1753 1.374 . S
C1753 H1733 0.950 . S
C1753 C1749 1.385 . S
C1753 C1752 1.374 . S
C1754 C1751 1.499 . S
C1754 C1755 1.373 . S
C1754 C1756 1.389 . S
C1755 H1734 0.950 . S
C1755 C1754 1.373 . S
C1755 C1771 1.377 . S
C1756 C1754 1.389 . S
C1756 C1757 1.524 . S
C1756 C1770 1.377 . S
C1757 C1756 1.524 . S
C1757 C1758 1.397 . S
C1757 C1762 1.363 1_655 S
C1758 H1735 0.950 . S
C1758 C1757 1.397 . S
C1758 C1759 1.334 . S
C1759 H1736 0.950 . S
C1759 C1758 1.334 . S
C1759 C1760 1.287 1_655 S
C1760 C1759 1.287 1_455 S
C1760 C1761 1.524 . S
C1760 H1779 0.913 . S
C1761 H1737 0.950 . S
C1761 C1760 1.524 . S
C1761 C1762 1.415 . S
C1762 H1738 0.950 . S
C1762 C1757 1.363 1_455 S
C1762 C1761 1.415 . S
C1763 H1739 0.951 . S
C1763 C1764 1.366 . S
C1763 C1765 1.388 . S
C1764 C1763 1.366 . S
C1764 C1768 1.385 . S
C1765 H1740 0.951 . S
C1765 C1763 1.388 . S
C1765 C1766 1.366 . S
C1766 C1765 1.366 . S
C1766 C1767 1.414 . S
C1766 C1769 1.499 . S
C1767 H1741 0.950 . S
C1767 C1766 1.414 . S
C1767 C1768 1.374 . S
C1768 H1742 0.950 . S
C1768 C1764 1.385 . S
C1768 C1767 1.374 . S
C1769 C1766 1.499 . S
C1769 C1770 1.373 . S
C1769 C1771 1.389 . S
C1770 H1743 0.950 . S
C1770 C1756 1.377 . S
C1770 C1769 1.373 . S
C1771 C1755 1.377 . S
C1771 C1769 1.389 . S
C1771 C1772 1.524 . S
C1772 C1771 1.524 . S
C1772 C1773 1.397 . S
C1772 C1777 1.363 . S
C1773 H1744 0.950 . S
C1773 C1772 1.397 . S
C1773 C1774 1.334 . S
C1774 H1745 0.950 . S
C1774 C1773 1.334 . S
C1774 C1775 1.287 . S
C1775 C1774 1.287 . S
C1775 C1776 1.524 . S
C1775 H1778 0.999 . S
C1776 H1746 0.950 . S
C1776 C1775 1.524 . S
C1776 C1777 1.415 . S
C1777 H1747 0.950 . S
C1777 C1772 1.363 . S
C1777 C1776 1.415 . S
H1778 C1775 0.999 . S
H1779 C1760 0.913 . S
H1780 C1798 0.951 . S
H1781 C1800 0.951 . S
H1782 C1802 0.950 . S
H1783 C1803 0.950 . S
H1784 C1805 0.950 . S
H1785 C1808 0.950 . S
H1786 C1809 0.950 . S
H1787 C1811 0.950 . S
H1788 C1812 0.950 . S
H1789 C1813 0.951 . S
H1790 C1815 0.951 . S
H1791 C1817 0.950 . S
H1792 C1818 0.950 . S
H1793 C1820 0.950 . S
H1794 C1823 0.950 . S
H1795 C1824 0.950 . S
H1796 C1826 0.950 . S
H1797 C1827 0.950 . S
C1798 H1780 0.951 . S
C1798 C1799 1.366 . S
C1798 C1800 1.388 . S
C1799 C1798 1.366 . S
C1799 C1803 1.385 . S
C1800 H1781 0.951 . S
C1800 C1798 1.388 . S
C1800 C1801 1.366 . S
C1801 C1800 1.366 . S
C1801 C1802 1.414 . S
C1801 C1804 1.499 . S
C1802 H1782 0.950 . S
C1802 C1801 1.414 . S
C1802 C1803 1.374 . S
C1803 H1783 0.950 . S
C1803 C1799 1.385 . S
C1803 C1802 1.374 . S
C1804 C1801 1.499 . S
C1804 C1805 1.373 . S
C1804 C1806 1.389 . S
C1805 H1784 0.950 . S
C1805 C1804 1.373 . S
C1805 C1821 1.377 . S
C1806 C1804 1.389 . S
C1806 C1807 1.524 . S
C1806 C1820 1.377 . S
C1807 C1806 1.524 . S
C1807 C1808 1.397 . S
C1807 C1812 1.363 . S
C1808 H1785 0.950 . S
C1808 C1807 1.397 . S
C1808 C1809 1.334 . S
C1809 H1786 0.950 . S
C1809 C1808 1.334 . S
C1809 C1810 1.287 . S
C1810 C1809 1.287 . S
C1810 C1811 1.524 . S
C1810 H1829 0.913 . S
C1811 H1787 0.950 . S
C1811 C1810 1.524 . S
C1811 C1812 1.415 . S
C1812 H1788 0.950 . S
C1812 C1807 1.363 . S
C1812 C1811 1.415 . S
C1813 H1789 0.951 . S
C1813 C1814 1.366 . S
C1813 C1815 1.388 . S
C1814 C1813 1.366 . S
C1814 C1818 1.385 . S
C1815 H1790 0.951 . S
C1815 C1813 1.388 . S
C1815 C1816 1.366 . S
C1816 C1815 1.366 . S
C1816 C1817 1.414 . S
C1816 C1819 1.499 . S
C1817 H1791 0.950 . S
C1817 C1816 1.414 . S
C1817 C1818 1.374 . S
C1818 H1792 0.950 . S
C1818 C1814 1.385 . S
C1818 C1817 1.374 . S
C1819 C1816 1.499 . S
C1819 C1820 1.373 . S
C1819 C1821 1.389 . S
C1820 H1793 0.950 . S
C1820 C1806 1.377 . S
C1820 C1819 1.373 . S
C1821 C1805 1.377 . S
C1821 C1819 1.389 . S
C1821 C1822 1.524 . S
C1822 C1821 1.524 . S
C1822 C1823 1.397 . S
C1822 C1827 1.363 . S
C1823 H1794 0.950 . S
C1823 C1822 1.397 . S
C1823 C1824 1.334 . S
C1824 H1795 0.950 . S
C1824 C1823 1.334 . S
C1824 C1825 1.287 . S
C1825 C1824 1.287 . S
C1825 C1826 1.524 . S
C1825 H1828 0.999 . S
C1826 H1796 0.950 . S
C1826 C1825 1.524 . S
C1826 C1827 1.415 . S
C1827 H1797 0.950 . S
C1827 C1822 1.363 . S
C1827 C1826 1.415 . S
H1828 C1825 0.999 . S
H1829 C1810 0.913 . S
H1830 C1848 0.951 . S
H1831 C1850 0.951 . S
H1832 C1852 0.950 . S
H1833 C1853 0.950 . S
H1834 C1855 0.950 . S
H1835 C1858 0.950 . S
H1836 C1859 0.950 . S
H1837 C1861 0.950 . S
H1838 C1862 0.950 . S
H1839 C1863 0.951 . S
H1840 C1865 0.951 . S
H1841 C1867 0.950 . S
H1842 C1868 0.950 . S
H1843 C1870 0.950 . S
H1844 C1873 0.950 . S
H1845 C1874 0.950 . S
H1846 C1876 0.950 . S
H1847 C1877 0.950 . S
C1848 H1830 0.951 . S
C1848 C1849 1.366 . S
C1848 C1850 1.388 . S
C1849 C1848 1.366 . S
C1849 C1853 1.385 . S
C1850 H1831 0.951 . S
C1850 C1848 1.388 . S
C1850 C1851 1.366 . S
C1851 C1850 1.366 . S
C1851 C1852 1.414 . S
C1851 C1854 1.499 . S
C1852 H1832 0.950 . S
C1852 C1851 1.414 . S
C1852 C1853 1.374 . S
C1853 H1833 0.950 . S
C1853 C1849 1.385 . S
C1853 C1852 1.374 . S
C1854 C1851 1.499 . S
C1854 C1855 1.373 . S
C1854 C1856 1.389 . S
C1855 H1834 0.950 . S
C1855 C1854 1.373 . S
C1855 C1871 1.377 . S
C1856 C1854 1.389 . S
C1856 C1857 1.524 . S
C1856 C1870 1.377 . S
C1857 C1856 1.524 . S
C1857 C1858 1.397 . S
C1857 C1862 1.363 . S
C1858 H1835 0.950 . S
C1858 C1857 1.397 . S
C1858 C1859 1.334 . S
C1859 H1836 0.950 . S
C1859 C1858 1.334 . S
C1859 C1860 1.287 . S
C1860 C1859 1.287 . S
C1860 C1861 1.524 . S
C1860 H1879 0.913 . S
C1861 H1837 0.950 . S
C1861 C1860 1.524 . S
C1861 C1862 1.415 . S
C1862 H1838 0.950 . S
C1862 C1857 1.363 . S
C1862 C1861 1.415 . S
C1863 H1839 0.951 . S
C1863 C1864 1.366 . S
C1863 C1865 1.388 . S
C1864 C1863 1.366 . S
C1864 C1868 1.385 . S
C1865 H1840 0.951 . S
C1865 C1863 1.388 . S
C1865 C1866 1.366 . S
C1866 C1865 1.366 . S
C1866 C1867 1.414 . S
C1866 C1869 1.499 . S
C1867 H1841 0.950 . S
C1867 C1866 1.414 . S
C1867 C1868 1.374 . S
C1868 H1842 0.950 . S
C1868 C1864 1.385 . S
C1868 C1867 1.374 . S
C1869 C1866 1.499 . S
C1869 C1870 1.373 . S
C1869 C1871 1.389 . S
C1870 H1843 0.950 . S
C1870 C1856 1.377 . S
C1870 C1869 1.373 . S
C1871 C1855 1.377 . S
C1871 C1869 1.389 . S
C1871 C1872 1.524 . S
C1872 C1871 1.524 . S
C1872 C1873 1.397 . S
C1872 C1877 1.363 . S
C1873 H1844 0.950 . S
C1873 C1872 1.397 . S
C1873 C1874 1.334 . S
C1874 H1845 0.950 . S
C1874 C1873 1.334 . S
C1874 C1875 1.287 . S
C1875 C1874 1.287 . S
C1875 C1876 1.524 . S
C1875 H1878 0.999 . S
C1876 H1846 0.950 . S
C1876 C1875 1.524 . S
C1876 C1877 1.415 . S
C1877 H1847 0.950 . S
C1877 C1872 1.363 . S
C1877 C1876 1.415 . S
H1878 C1875 0.999 . S
H1879 C1860 0.913 . S
H1880 C1898 0.951 . S
H1881 C1900 0.951 . S
H1882 C1902 0.950 . S
H1883 C1903 0.950 . S
H1884 C1905 0.950 . S
H1885 C1908 0.950 . S
H1886 C1909 0.950 . S
H1887 C1911 0.950 . S
H1888 C1912 0.950 . S
H1889 C1913 0.951 . S
H1890 C1915 0.951 . S
H1891 C1917 0.950 . S
H1892 C1918 0.950 . S
H1893 C1920 0.950 . S
H1894 C1923 0.950 . S
H1895 C1924 0.950 . S
H1896 C1926 0.950 . S
H1897 C1927 0.950 . S
C1898 H1880 0.951 . S
C1898 C1899 1.366 . S
C1898 C1900 1.388 . S
C1899 C1898 1.366 . S
C1899 C1903 1.385 . S
C1900 H1881 0.951 . S
C1900 C1898 1.388 . S
C1900 C1901 1.366 . S
C1901 C1900 1.366 . S
C1901 C1902 1.414 . S
C1901 C1904 1.499 . S
C1902 H1882 0.950 . S
C1902 C1901 1.414 . S
C1902 C1903 1.374 . S
C1903 H1883 0.950 . S
C1903 C1899 1.385 . S
C1903 C1902 1.374 . S
C1904 C1901 1.499 . S
C1904 C1905 1.373 . S
C1904 C1906 1.389 . S
C1905 H1884 0.950 . S
C1905 C1904 1.373 . S
C1905 C1921 1.377 . S
C1906 C1904 1.389 . S
C1906 C1907 1.524 . S
C1906 C1920 1.377 . S
C1907 C1906 1.524 . S
C1907 C1908 1.397 . S
C1907 C1912 1.363 . S
C1908 H1885 0.950 . S
C1908 C1907 1.397 . S
C1908 C1909 1.334 . S
C1909 H1886 0.950 . S
C1909 C1908 1.334 . S
C1909 C1910 1.287 . S
C1910 C1909 1.287 . S
C1910 C1911 1.524 . S
C1910 H1929 0.913 . S
C1911 H1887 0.950 . S
C1911 C1910 1.524 . S
C1911 C1912 1.415 . S
C1912 H1888 0.950 . S
C1912 C1907 1.363 . S
C1912 C1911 1.415 . S
C1913 H1889 0.951 . S
C1913 C1914 1.366 . S
C1913 C1915 1.388 . S
C1914 C1913 1.366 . S
C1914 C1918 1.385 . S
C1915 H1890 0.951 . S
C1915 C1913 1.388 . S
C1915 C1916 1.366 . S
C1916 C1915 1.366 . S
C1916 C1917 1.414 . S
C1916 C1919 1.499 . S
C1917 H1891 0.950 . S
C1917 C1916 1.414 . S
C1917 C1918 1.374 . S
C1918 H1892 0.950 . S
C1918 C1914 1.385 . S
C1918 C1917 1.374 . S
C1919 C1916 1.499 . S
C1919 C1920 1.373 . S
C1919 C1921 1.389 . S
C1920 H1893 0.950 . S
C1920 C1906 1.377 . S
C1920 C1919 1.373 . S
C1921 C1905 1.377 . S
C1921 C1919 1.389 . S
C1921 C1922 1.524 . S
C1922 C1921 1.524 . S
C1922 C1923 1.397 . S
C1922 C1927 1.363 . S
C1923 H1894 0.950 . S
C1923 C1922 1.397 . S
C1923 C1924 1.334 . S
C1924 H1895 0.950 . S
C1924 C1923 1.334 . S
C1924 C1925 1.287 . S
C1925 C1924 1.287 . S
C1925 C1926 1.524 . S
C1925 H1928 0.999 . S
C1926 H1896 0.950 . S
C1926 C1925 1.524 . S
C1926 C1927 1.415 . S
C1927 H1897 0.950 . S
C1927 C1922 1.363 . S
C1927 C1926 1.415 . S
H1928 C1925 0.999 . S
H1929 C1910 0.913 . S
H1930 C1948 0.951 . S
H1931 C1950 0.951 . S
H1932 C1952 0.950 . S
H1933 C1953 0.950 . S
H1934 C1955 0.950 . S
H1935 C1958 0.950 . S
H1936 C1959 0.950 . S
H1937 C1961 0.950 . S
H1938 C1962 0.950 . S
H1939 C1963 0.951 . S
H1940 C1965 0.951 . S
H1941 C1967 0.950 . S
H1942 C1968 0.950 . S
H1943 C1970 0.950 . S
H1944 C1973 0.950 . S
H1945 C1974 0.950 . S
H1946 C1976 0.950 . S
H1947 C1977 0.950 . S
C1948 H1930 0.951 . S
C1948 C1949 1.366 . S
C1948 C1950 1.388 . S
C1949 C1948 1.366 . S
C1949 C1953 1.385 . S
C1950 H1931 0.951 . S
C1950 C1948 1.388 . S
C1950 C1951 1.366 . S
C1951 C1950 1.366 . S
C1951 C1952 1.414 . S
C1951 C1954 1.499 . S
C1952 H1932 0.950 . S
C1952 C1951 1.414 . S
C1952 C1953 1.374 . S
C1953 H1933 0.950 . S
C1953 C1949 1.385 . S
C1953 C1952 1.374 . S
C1954 C1951 1.499 . S
C1954 C1955 1.373 . S
C1954 C1956 1.389 . S
C1955 H1934 0.950 . S
C1955 C1954 1.373 . S
C1955 C1971 1.377 . S
C1956 C1954 1.389 . S
C1956 C1957 1.524 . S
C1956 C1970 1.377 . S
C1957 C1956 1.524 . S
C1957 C1958 1.397 . S
C1957 C1962 1.363 . S
C1958 H1935 0.950 . S
C1958 C1957 1.397 . S
C1958 C1959 1.334 . S
C1959 H1936 0.950 . S
C1959 C1958 1.334 . S
C1959 C1960 1.287 . S
C1960 C1959 1.287 . S
C1960 C1961 1.524 . S
C1960 H1979 0.913 . S
C1961 H1937 0.950 . S
C1961 C1960 1.524 . S
C1961 C1962 1.415 . S
C1962 H1938 0.950 . S
C1962 C1957 1.363 . S
C1962 C1961 1.415 . S
C1963 H1939 0.951 . S
C1963 C1964 1.366 . S
C1963 C1965 1.388 . S
C1964 C1963 1.366 . S
C1964 C1968 1.385 . S
C1965 H1940 0.951 . S
C1965 C1963 1.388 . S
C1965 C1966 1.366 . S
C1966 C1965 1.366 . S
C1966 C1967 1.414 . S
C1966 C1969 1.499 . S
C1967 H1941 0.950 . S
C1967 C1966 1.414 . S
C1967 C1968 1.374 . S
C1968 H1942 0.950 . S
C1968 C1964 1.385 . S
C1968 C1967 1.374 . S
C1969 C1966 1.499 . S
C1969 C1970 1.373 . S
C1969 C1971 1.389 . S
C1970 H1943 0.950 . S
C1970 C1956 1.377 . S
C1970 C1969 1.373 . S
C1971 C1955 1.377 . S
C1971 C1969 1.389 . S
C1971 C1972 1.524 . S
C1972 C1971 1.524 . S
C1972 C1973 1.397 . S
C1972 C1977 1.363 . S
C1973 H1944 0.950 . S
C1973 C1972 1.397 . S
C1973 C1974 1.334 . S
C1974 H1945 0.950 . S
C1974 C1973 1.334 . S
C1974 C1975 1.287 . S
C1975 C1974 1.287 . S
C1975 C1976 1.524 . S
C1975 H1978 0.999 . S
C1976 H1946 0.950 . S
C1976 C1975 1.524 . S
C1976 C1977 1.415 . S
C1977 H1947 0.950 . S
C1977 C1972 1.363 . S
C1977 C1976 1.415 . S
H1978 C1975 0.999 . S
H1979 C1960 0.913 . S
H1980 C1998 0.951 . S
H1981 C2000 0.951 . S
H1982 C2002 0.950 . S
H1983 C2003 0.950 . S
H1984 C2005 0.950 . S
H1985 C2008 0.950 . S
H1986 C2009 0.950 . S
H1987 C2011 0.950 . S
H1988 C2012 0.950 . S
H1989 C2013 0.951 . S
H1990 C2015 0.951 . S
H1991 C2017 0.950 . S
H1992 C2018 0.950 . S
H1993 C2020 0.950 . S
H1994 C2023 0.950 . S
H1995 C2024 0.950 . S
H1996 C2026 0.950 . S
H1997 C2027 0.950 . S
C1998 H1980 0.951 . S
C1998 C1999 1.366 . S
C1998 C2000 1.388 . S
C1999 C1998 1.366 . S
C1999 C2003 1.385 . S
C2000 H1981 0.951 . S
C2000 C1998 1.388 . S
C2000 C2001 1.366 . S
C2001 C2000 1.366 . S
C2001 C2002 1.414 . S
C2001 C2004 1.499 . S
C2002 H1982 0.950 . S
C2002 C2001 1.414 . S
C2002 C2003 1.374 . S
C2003 H1983 0.950 . S
C2003 C1999 1.385 . S
C2003 C2002 1.374 . S
C2004 C2001 1.499 . S
C2004 C2005 1.373 . S
C2004 C2006 1.389 . S
C2005 H1984 0.950 . S
C2005 C2004 1.373 . S
C2005 C2021 1.377 . S
C2006 C2004 1.389 . S
C2006 C2007 1.524 . S
C2006 C2020 1.377 . S
C2007 C2006 1.524 . S
C2007 C2008 1.397 . S
C2007 C2012 1.363 . S
C2008 H1985 0.950 . S
C2008 C2007 1.397 . S
C2008 C2009 1.334 . S
C2009 H1986 0.950 . S
C2009 C2008 1.334 . S
C2009 C2010 1.287 . S
C2010 C2009 1.287 . S
C2010 C2011 1.524 . S
C2010 H2029 0.913 . S
C2011 H1987 0.950 . S
C2011 C2010 1.524 . S
C2011 C2012 1.415 . S
C2012 H1988 0.950 . S
C2012 C2007 1.363 . S
C2012 C2011 1.415 . S
C2013 H1989 0.951 . S
C2013 C2014 1.366 . S
C2013 C2015 1.388 . S
C2014 C2013 1.366 . S
C2014 C2018 1.385 . S
C2015 H1990 0.951 . S
C2015 C2013 1.388 . S
C2015 C2016 1.366 . S
C2016 C2015 1.366 . S
C2016 C2017 1.414 . S
C2016 C2019 1.499 . S
C2017 H1991 0.950 . S
C2017 C2016 1.414 . S
C2017 C2018 1.374 . S
C2018 H1992 0.950 . S
C2018 C2014 1.385 . S
C2018 C2017 1.374 . S
C2019 C2016 1.499 . S
C2019 C2020 1.373 1_655 S
C2019 C2021 1.389 1_655 S
C2020 H1993 0.950 . S
C2020 C2006 1.377 . S
C2020 C2019 1.373 1_455 S
C2021 C2005 1.377 . S
C2021 C2019 1.389 1_455 S
C2021 C2022 1.524 1_455 S
C2022 C2021 1.524 1_655 S
C2022 C2023 1.397 . S
C2022 C2027 1.363 . S
C2023 H1994 0.950 . S
C2023 C2022 1.397 . S
C2023 C2024 1.334 1_554 S
C2024 H1995 0.950 . S
C2024 C2023 1.334 1_556 S
C2024 C2025 1.287 . S
C2025 C2024 1.287 . S
C2025 C2026 1.524 1_556 S
C2025 H2028 0.999 . S
C2026 H1996 0.950 . S
C2026 C2025 1.524 1_554 S
C2026 C2027 1.415 . S
C2027 H1997 0.950 . S
C2027 C2022 1.363 . S
C2027 C2026 1.415 . S
H2028 C2025 0.999 . S
H2029 C2010 0.913 . S
H2030 C2048 0.951 . S
H2031 C2050 0.951 . S
H2032 C2052 0.950 . S
H2033 C2053 0.950 . S
H2034 C2055 0.950 . S
H2035 C2058 0.950 . S
H2036 C2059 0.950 . S
H2037 C2061 0.950 . S
H2038 C2062 0.950 . S
H2039 C2063 0.951 . S
H2040 C2065 0.951 . S
H2041 C2067 0.950 . S
H2042 C2068 0.950 . S
H2043 C2070 0.950 . S
H2044 C2073 0.950 . S
H2045 C2074 0.950 . S
H2046 C2076 0.950 . S
H2047 C2077 0.950 . S
C2048 H2030 0.951 . S
C2048 C2049 1.366 . S
C2048 C2050 1.388 . S
C2049 C2048 1.366 . S
C2049 C2053 1.385 . S
C2050 H2031 0.951 . S
C2050 C2048 1.388 . S
C2050 C2051 1.366 . S
C2051 C2050 1.366 . S
C2051 C2052 1.414 . S
C2051 C2054 1.499 . S
C2052 H2032 0.950 . S
C2052 C2051 1.414 . S
C2052 C2053 1.374 . S
C2053 H2033 0.950 . S
C2053 C2049 1.385 . S
C2053 C2052 1.374 . S
C2054 C2051 1.499 . S
C2054 C2055 1.373 . S
C2054 C2056 1.389 . S
C2055 H2034 0.950 . S
C2055 C2054 1.373 . S
C2055 C2071 1.377 . S
C2056 C2054 1.389 . S
C2056 C2057 1.524 . S
C2056 C2070 1.377 . S
C2057 C2056 1.524 . S
C2057 C2058 1.397 . S
C2057 C2062 1.363 . S
C2058 H2035 0.950 . S
C2058 C2057 1.397 . S
C2058 C2059 1.334 . S
C2059 H2036 0.950 . S
C2059 C2058 1.334 . S
C2059 C2060 1.287 . S
C2060 C2059 1.287 . S
C2060 C2061 1.524 . S
C2060 H2079 0.913 . S
C2061 H2037 0.950 . S
C2061 C2060 1.524 . S
C2061 C2062 1.415 . S
C2062 H2038 0.950 . S
C2062 C2057 1.363 . S
C2062 C2061 1.415 . S
C2063 H2039 0.951 . S
C2063 C2064 1.366 . S
C2063 C2065 1.388 . S
C2064 C2063 1.366 . S
C2064 C2068 1.385 . S
C2065 H2040 0.951 . S
C2065 C2063 1.388 . S
C2065 C2066 1.366 . S
C2066 C2065 1.366 . S
C2066 C2067 1.414 . S
C2066 C2069 1.499 . S
C2067 H2041 0.950 . S
C2067 C2066 1.414 . S
C2067 C2068 1.374 . S
C2068 H2042 0.950 . S
C2068 C2064 1.385 . S
C2068 C2067 1.374 . S
C2069 C2066 1.499 . S
C2069 C2070 1.373 . S
C2069 C2071 1.389 . S
C2070 H2043 0.950 . S
C2070 C2056 1.377 . S
C2070 C2069 1.373 . S
C2071 C2055 1.377 . S
C2071 C2069 1.389 . S
C2071 C2072 1.524 . S
C2072 C2071 1.524 . S
C2072 C2073 1.397 . S
C2072 C2077 1.363 . S
C2073 H2044 0.950 . S
C2073 C2072 1.397 . S
C2073 C2074 1.334 . S
C2074 H2045 0.950 . S
C2074 C2073 1.334 . S
C2074 C2075 1.287 . S
C2075 C2074 1.287 . S
C2075 C2076 1.524 . S
C2075 H2078 0.999 . S
C2076 H2046 0.950 . S
C2076 C2075 1.524 . S
C2076 C2077 1.415 . S
C2077 H2047 0.950 . S
C2077 C2072 1.363 . S
C2077 C2076 1.415 . S
H2078 C2075 0.999 . S
H2079 C2060 0.913 . S
H2080 C2098 0.951 . S
H2081 C2100 0.951 . S
H2082 C2102 0.950 . S
H2083 C2103 0.950 . S
H2084 C2105 0.950 . S
H2085 C2108 0.950 . S
H2086 C2109 0.950 . S
H2087 C2111 0.950 . S
H2088 C2112 0.950 . S
H2089 C2113 0.951 . S
H2090 C2115 0.951 . S
H2091 C2117 0.950 . S
H2092 C2118 0.950 . S
H2093 C2120 0.950 . S
H2094 C2123 0.950 . S
H2095 C2124 0.950 . S
H2096 C2126 0.950 . S
H2097 C2127 0.950 . S
C2098 H2080 0.951 . S
C2098 C2099 1.366 . S
C2098 C2100 1.388 . S
C2099 C2098 1.366 . S
C2099 C2103 1.385 . S
C2100 H2081 0.951 . S
C2100 C2098 1.388 . S
C2100 C2101 1.366 . S
C2101 C2100 1.366 . S
C2101 C2102 1.414 . S
C2101 C2104 1.499 . S
C2102 H2082 0.950 . S
C2102 C2101 1.414 . S
C2102 C2103 1.374 . S
C2103 H2083 0.950 . S
C2103 C2099 1.385 . S
C2103 C2102 1.374 . S
C2104 C2101 1.499 . S
C2104 C2105 1.373 . S
C2104 C2106 1.389 . S
C2105 H2084 0.950 . S
C2105 C2104 1.373 . S
C2105 C2121 1.377 . S
C2106 C2104 1.389 . S
C2106 C2107 1.524 . S
C2106 C2120 1.377 . S
C2107 C2106 1.524 . S
C2107 C2108 1.397 . S
C2107 C2112 1.363 . S
C2108 H2085 0.950 . S
C2108 C2107 1.397 . S
C2108 C2109 1.334 . S
C2109 H2086 0.950 . S
C2109 C2108 1.334 . S
C2109 C2110 1.287 . S
C2110 C2109 1.287 . S
C2110 C2111 1.524 . S
C2110 H2129 0.913 . S
C2111 H2087 0.950 . S
C2111 C2110 1.524 . S
C2111 C2112 1.415 . S
C2112 H2088 0.950 . S
C2112 C2107 1.363 . S
C2112 C2111 1.415 . S
C2113 H2089 0.951 . S
C2113 C2114 1.366 . S
C2113 C2115 1.388 . S
C2114 C2113 1.366 . S
C2114 C2118 1.385 . S
C2115 H2090 0.951 . S
C2115 C2113 1.388 . S
C2115 C2116 1.366 . S
C2116 C2115 1.366 . S
C2116 C2117 1.414 . S
C2116 C2119 1.499 . S
C2117 H2091 0.950 . S
C2117 C2116 1.414 . S
C2117 C2118 1.374 . S
C2118 H2092 0.950 . S
C2118 C2114 1.385 . S
C2118 C2117 1.374 . S
C2119 C2116 1.499 . S
C2119 C2120 1.373 . S
C2119 C2121 1.389 . S
C2120 H2093 0.950 . S
C2120 C2106 1.377 . S
C2120 C2119 1.373 . S
C2121 C2105 1.377 . S
C2121 C2119 1.389 . S
C2121 C2122 1.524 . S
C2122 C2121 1.524 . S
C2122 C2123 1.397 . S
C2122 C2127 1.363 . S
C2123 H2094 0.950 . S
C2123 C2122 1.397 . S
C2123 C2124 1.334 . S
C2124 H2095 0.950 . S
C2124 C2123 1.334 . S
C2124 C2125 1.287 . S
C2125 C2124 1.287 . S
C2125 C2126 1.524 . S
C2125 H2128 0.999 . S
C2126 H2096 0.950 . S
C2126 C2125 1.524 . S
C2126 C2127 1.415 . S
C2127 H2097 0.950 . S
C2127 C2122 1.363 . S
C2127 C2126 1.415 . S
H2128 C2125 0.999 . S
H2129 C2110 0.913 . S
H2130 C2148 0.951 . S
H2131 C2150 0.951 . S
H2132 C2152 0.950 . S
H2133 C2153 0.950 . S
H2134 C2155 0.950 . S
H2135 C2158 0.950 . S
H2136 C2159 0.950 . S
H2137 C2161 0.950 . S
H2138 C2162 0.950 . S
H2139 C2163 0.951 . S
H2140 C2165 0.951 . S
H2141 C2167 0.950 . S
H2142 C2168 0.950 . S
H2143 C2170 0.950 . S
H2144 C2173 0.950 . S
H2145 C2174 0.950 . S
H2146 C2176 0.950 . S
H2147 C2177 0.950 . S
C2148 H2130 0.951 . S
C2148 C2149 1.366 . S
C2148 C2150 1.388 . S
C2149 C2148 1.366 . S
C2149 C2153 1.385 . S
C2150 H2131 0.951 . S
C2150 C2148 1.388 . S
C2150 C2151 1.366 . S
C2151 C2150 1.366 . S
C2151 C2152 1.414 . S
C2151 C2154 1.499 . S
C2152 H2132 0.950 . S
C2152 C2151 1.414 . S
C2152 C2153 1.374 . S
C2153 H2133 0.950 . S
C2153 C2149 1.385 . S
C2153 C2152 1.374 . S
C2154 C2151 1.499 . S
C2154 C2155 1.373 . S
C2154 C2156 1.389 . S
C2155 H2134 0.950 . S
C2155 C2154 1.373 . S
C2155 C2171 1.377 . S
C2156 C2154 1.389 . S
C2156 C2157 1.524 . S
C2156 C2170 1.377 . S
C2157 C2156 1.524 . S
C2157 C2158 1.397 . S
C2157 C2162 1.363 . S
C2158 H2135 0.950 . S
C2158 C2157 1.397 . S
C2158 C2159 1.334 . S
C2159 H2136 0.950 . S
C2159 C2158 1.334 . S
C2159 C2160 1.287 . S
C2160 C2159 1.287 . S
C2160 C2161 1.524 . S
C2160 H2179 0.913 . S
C2161 H2137 0.950 . S
C2161 C2160 1.524 . S
C2161 C2162 1.415 . S
C2162 H2138 0.950 . S
C2162 C2157 1.363 . S
C2162 C2161 1.415 . S
C2163 H2139 0.951 . S
C2163 C2164 1.366 . S
C2163 C2165 1.388 . S
C2164 C2163 1.366 . S
C2164 C2168 1.385 . S
C2165 H2140 0.951 . S
C2165 C2163 1.388 . S
C2165 C2166 1.366 . S
C2166 C2165 1.366 . S
C2166 C2167 1.414 . S
C2166 C2169 1.499 . S
C2167 H2141 0.950 . S
C2167 C2166 1.414 . S
C2167 C2168 1.374 . S
C2168 H2142 0.950 . S
C2168 C2164 1.385 . S
C2168 C2167 1.374 . S
C2169 C2166 1.499 . S
C2169 C2170 1.373 . S
C2169 C2171 1.389 . S
C2170 H2143 0.950 . S
C2170 C2156 1.377 . S
C2170 C2169 1.373 . S
C2171 C2155 1.377 . S
C2171 C2169 1.389 . S
C2171 C2172 1.524 . S
C2172 C2171 1.524 . S
C2172 C2173 1.397 . S
C2172 C2177 1.363 . S
C2173 H2144 0.950 . S
C2173 C2172 1.397 . S
C2173 C2174 1.334 . S
C2174 H2145 0.950 . S
C2174 C2173 1.334 . S
C2174 C2175 1.287 . S
C2175 C2174 1.287 . S
C2175 C2176 1.524 . S
C2175 H2178 0.999 . S
C2176 H2146 0.950 . S
C2176 C2175 1.524 . S
C2176 C2177 1.415 . S
C2177 H2147 0.950 . S
C2177 C2172 1.363 . S
C2177 C2176 1.415 . S
H2178 C2175 0.999 . S
H2179 C2160 0.913 . S
H2180 C2198 0.951 . S
H2181 C2200 0.951 . S
H2182 C2202 0.950 . S
H2183 C2203 0.950 . S
H2184 C2205 0.950 . S
H2185 C2208 0.950 . S
H2186 C2209 0.950 . S
H2187 C2211 0.950 . S
H2188 C2212 0.950 . S
H2189 C2213 0.951 . S
H2190 C2215 0.951 . S
H2191 C2217 0.950 . S
H2192 C2218 0.950 . S
H2193 C2220 0.950 . S
H2194 C2223 0.950 . S
H2195 C2224 0.950 . S
H2196 C2226 0.950 . S
H2197 C2227 0.950 . S
C2198 H2180 0.951 . S
C2198 C2199 1.366 . S
C2198 C2200 1.388 . S
C2199 C2198 1.366 . S
C2199 C2203 1.385 . S
C2200 H2181 0.951 . S
C2200 C2198 1.388 . S
C2200 C2201 1.366 . S
C2201 C2200 1.366 . S
C2201 C2202 1.414 . S
C2201 C2204 1.499 . S
C2202 H2182 0.950 . S
C2202 C2201 1.414 . S
C2202 C2203 1.374 . S
C2203 H2183 0.950 . S
C2203 C2199 1.385 . S
C2203 C2202 1.374 . S
C2204 C2201 1.499 . S
C2204 C2205 1.373 . S
C2204 C2206 1.389 . S
C2205 H2184 0.950 . S
C2205 C2204 1.373 . S
C2205 C2221 1.377 . S
C2206 C2204 1.389 . S
C2206 C2207 1.524 . S
C2206 C2220 1.377 . S
C2207 C2206 1.524 . S
C2207 C2208 1.397 . S
C2207 C2212 1.363 . S
C2208 H2185 0.950 . S
C2208 C2207 1.397 . S
C2208 C2209 1.334 1_556 S
C2209 H2186 0.950 . S
C2209 C2208 1.334 1_554 S
C2209 C2210 1.287 1_554 S
C2210 C2209 1.287 1_556 S
C2210 C2211 1.524 . S
C2210 H2229 0.913 1_556 S
C2211 H2187 0.950 . S
C2211 C2210 1.524 . S
C2211 C2212 1.415 . S
C2212 H2188 0.950 . S
C2212 C2207 1.363 . S
C2212 C2211 1.415 . S
C2213 H2189 0.951 . S
C2213 C2214 1.366 . S
C2213 C2215 1.388 . S
C2214 C2213 1.366 . S
C2214 C2218 1.385 . S
C2215 H2190 0.951 . S
C2215 C2213 1.388 . S
C2215 C2216 1.366 . S
C2216 C2215 1.366 . S
C2216 C2217 1.414 . S
C2216 C2219 1.499 . S
C2217 H2191 0.950 . S
C2217 C2216 1.414 . S
C2217 C2218 1.374 . S
C2218 H2192 0.950 . S
C2218 C2214 1.385 . S
C2218 C2217 1.374 . S
C2219 C2216 1.499 . S
C2219 C2220 1.373 . S
C2219 C2221 1.389 . S
C2220 H2193 0.950 . S
C2220 C2206 1.377 . S
C2220 C2219 1.373 . S
C2221 C2205 1.377 . S
C2221 C2219 1.389 . S
C2221 C2222 1.524 . S
C2222 C2221 1.524 . S
C2222 C2223 1.397 . S
C2222 C2227 1.363 . S
C2223 H2194 0.950 . S
C2223 C2222 1.397 . S
C2223 C2224 1.334 . S
C2224 H2195 0.950 . S
C2224 C2223 1.334 . S
C2224 C2225 1.287 . S
C2225 C2224 1.287 . S
C2225 C2226 1.524 . S
C2225 H2228 0.999 . S
C2226 H2196 0.950 . S
C2226 C2225 1.524 . S
C2226 C2227 1.415 . S
C2227 H2197 0.950 . S
C2227 C2222 1.363 . S
C2227 C2226 1.415 . S
H2228 C2225 0.999 . S
H2229 C2210 0.913 1_554 S
H2230 C2248 0.951 . S
H2231 C2250 0.951 . S
H2232 C2252 0.950 . S
H2233 C2253 0.950 . S
H2234 C2255 0.950 . S
H2235 C2258 0.950 . S
H2236 C2259 0.950 . S
H2237 C2261 0.950 . S
H2238 C2262 0.950 . S
H2239 C2263 0.951 . S
H2240 C2265 0.951 . S
H2241 C2267 0.950 . S
H2242 C2268 0.950 . S
H2243 C2270 0.950 . S
H2244 C2273 0.950 . S
H2245 C2274 0.950 . S
H2246 C2276 0.950 . S
H2247 C2277 0.950 . S
C2248 H2230 0.951 . S
C2248 C2249 1.366 . S
C2248 C2250 1.388 . S
C2249 C2248 1.366 . S
C2249 C2253 1.385 . S
C2250 H2231 0.951 . S
C2250 C2248 1.388 . S
C2250 C2251 1.366 . S
C2251 C2250 1.366 . S
C2251 C2252 1.414 . S
C2251 C2254 1.499 . S
C2252 H2232 0.950 . S
C2252 C2251 1.414 . S
C2252 C2253 1.374 . S
C2253 H2233 0.950 . S
C2253 C2249 1.385 . S
C2253 C2252 1.374 . S
C2254 C2251 1.499 . S
C2254 C2255 1.373 . S
C2254 C2256 1.389 . S
C2255 H2234 0.950 . S
C2255 C2254 1.373 . S
C2255 C2271 1.377 . S
C2256 C2254 1.389 . S
C2256 C2257 1.524 . S
C2256 C2270 1.377 . S
C2257 C2256 1.524 . S
C2257 C2258 1.397 . S
C2257 C2262 1.363 . S
C2258 H2235 0.950 . S
C2258 C2257 1.397 . S
C2258 C2259 1.334 . S
C2259 H2236 0.950 . S
C2259 C2258 1.334 . S
C2259 C2260 1.287 . S
C2260 C2259 1.287 . S
C2260 C2261 1.524 . S
C2260 H2279 0.913 . S
C2261 H2237 0.950 . S
C2261 C2260 1.524 . S
C2261 C2262 1.415 . S
C2262 H2238 0.950 . S
C2262 C2257 1.363 . S
C2262 C2261 1.415 . S
C2263 H2239 0.951 . S
C2263 C2264 1.366 . S
C2263 C2265 1.388 . S
C2264 C2263 1.366 . S
C2264 C2268 1.385 . S
C2265 H2240 0.951 . S
C2265 C2263 1.388 . S
C2265 C2266 1.366 . S
C2266 C2265 1.366 . S
C2266 C2267 1.414 . S
C2266 C2269 1.499 . S
C2267 H2241 0.950 . S
C2267 C2266 1.414 . S
C2267 C2268 1.374 . S
C2268 H2242 0.950 . S
C2268 C2264 1.385 . S
C2268 C2267 1.374 . S
C2269 C2266 1.499 . S
C2269 C2270 1.373 1_455 S
C2269 C2271 1.389 1_455 S
C2270 H2243 0.950 . S
C2270 C2256 1.377 . S
C2270 C2269 1.373 1_655 S
C2271 C2255 1.377 . S
C2271 C2269 1.389 1_655 S
C2271 C2272 1.524 1_655 S
C2272 C2271 1.524 1_455 S
C2272 C2273 1.397 . S
C2272 C2277 1.363 . S
C2273 H2244 0.950 . S
C2273 C2272 1.397 . S
C2273 C2274 1.334 . S
C2274 H2245 0.950 . S
C2274 C2273 1.334 . S
C2274 C2275 1.287 . S
C2275 C2274 1.287 . S
C2275 C2276 1.524 . S
C2275 H2278 0.999 . S
C2276 H2246 0.950 . S
C2276 C2275 1.524 . S
C2276 C2277 1.415 . S
C2277 H2247 0.950 . S
C2277 C2272 1.363 . S
C2277 C2276 1.415 . S
H2278 C2275 0.999 . S
H2279 C2260 0.913 . S
C499 C18 0.842 . S
C514 C458 0.843 . S
C549 C379 1.581 . S
C564 C58 1.652 . S
C599 C99 1.120 . S
C614 C338 1.162 . S
C649 C138 1.947 . S
C664 C418 1.941 . S
C699 C178 1.616 . S
C714 C419 1.569 . S
C749 C219 1.373 . S
C764 C459 1.393 . S
C799 C378 1.710 . S
C814 C258 1.709 . S
C849 C299 1.646 . S
C864 C339 1.699 . S
C899 C139 1.703 . S
C914 C179 1.739 . S
C949 C19 1.424 . S
C964 C218 1.488 . S
C999 C59 1.571 . S
C1014 C259 1.576 . S
C1049 C298 1.806 . S
C1064 C98 1.812 . S
C1099 C6 1.522 . S
C1114 C329 1.428 . S
C1149 C46 1.845 . S
C1164 C409 1.765 . S
C1199 C449 1.796 . S
C1214 C95 1.821 . S
C1249 C126 1.501 . S
C1264 C370 1.477 . S
C1299 C166 1.139 . S
C1314 C369 1.103 . S
C1349 C330 1.769 . S
C1364 C215 1.710 . S
C1399 C410 1.301 . S
C1414 C246 1.307 . S
C1449 C450 2.724 . S
C1464 C295 2.649 . S
C1499 C10 2.783 . S
C1514 C135 2.701 . S
C1549 C15 1.902 . S
C1564 C50 1.949 . S
C1599 C55 2.197 . S
C1614 C89 2.171 . S
C1649 C130 1.698 . S
C1664 C86 1.728 . S
C1699 C206 1.427 . S
C1714 C170 1.412 . S
C1749 C209 1.088 . S
C1764 C255 1.118 . S
C1799 C250 1.438 . S
C1814 C286 1.455 . S
C1849 C175 0.585 . S
C1864 C289 0.604 . S
C1899 C335 0.489 . S
C1914 C129 0.538 . S
C1949 C210 1.488 . S
C1964 C375 1.456 . S
C1999 C326 1.294 . S
C2014 C249 1.241 . S
C2049 C406 1.877 . S
C2064 C290 1.860 . S
C2099 C169 1.152 . S
C2114 C446 1.209 . S
C2149 C455 1.540 . S
C2164 C49 1.500 . S
C2199 C90 1.488 . S
C2214 C366 1.507 . S
C2249 C415 1.620 . S
C2264 C9 1.593 . S
