# Generated by pormake.
# Topology whc, (6)-cn, num edge types: 1
# Building blocks:
#     Node 0, Type 0, BuildingBlock: OJICUG_clean_sbu_0, # of connection points: 6
#     Node 1, Type 0, BuildingBlock: OJICUG_clean_sbu_0, # of connection points: 6
#     Node 2, Type 0, BuildingBlock: OJICUG_clean_sbu_0, # of connection points: 6
#     Node 3, Type 0, BuildingBlock: OJICUG_clean_sbu_0, # of connection points: 6
#     Node 4, Type 0, BuildingBlock: OJICUG_clean_sbu_0, # of connection points: 6
#     Node 5, Type 0, BuildingBlock: OJICUG_clean_sbu_0, # of connection points: 6
#     Node 6, Type 0, BuildingBlock: OJICUG_clean_sbu_0, # of connection points: 6
#     Node 7, Type 0, BuildingBlock: OJICUG_clean_sbu_0, # of connection points: 6
#     Edge 8, Type (0, 0), BuildingBlock: OJICUG_clean_linker_0, # of connection points: 2
#     Edge 9, Type (0, 0), BuildingBlock: OJICUG_clean_linker_0, # of connection points: 2
#     Edge 10, Type (0, 0), BuildingBlock: OJICUG_clean_linker_0, # of connection points: 2
#     Edge 11, Type (0, 0), BuildingBlock: OJICUG_clean_linker_0, # of connection points: 2
#     Edge 12, Type (0, 0), BuildingBlock: OJICUG_clean_linker_0, # of connection points: 2
#     Edge 13, Type (0, 0), BuildingBlock: OJICUG_clean_linker_0, # of connection points: 2
#     Edge 14, Type (0, 0), BuildingBlock: OJICUG_clean_linker_0, # of connection points: 2
#     Edge 15, Type (0, 0), BuildingBlock: OJICUG_clean_linker_0, # of connection points: 2
#     Edge 16, Type (0, 0), BuildingBlock: OJICUG_clean_linker_0, # of connection points: 2
#     Edge 17, Type (0, 0), BuildingBlock: OJICUG_clean_linker_0, # of connection points: 2
#     Edge 18, Type (0, 0), BuildingBlock: OJICUG_clean_linker_0, # of connection points: 2
#     Edge 19, Type (0, 0), BuildingBlock: OJICUG_clean_linker_0, # of connection points: 2
#     Edge 20, Type (0, 0), BuildingBlock: OJICUG_clean_linker_0, # of connection points: 2
#     Edge 21, Type (0, 0), BuildingBlock: OJICUG_clean_linker_0, # of connection points: 2
#     Edge 22, Type (0, 0), BuildingBlock: OJICUG_clean_linker_0, # of connection points: 2
#     Edge 23, Type (0, 0), BuildingBlock: OJICUG_clean_linker_0, # of connection points: 2
#     Edge 24, Type (0, 0), BuildingBlock: OJICUG_clean_linker_0, # of connection points: 2
#     Edge 25, Type (0, 0), BuildingBlock: OJICUG_clean_linker_0, # of connection points: 2
#     Edge 26, Type (0, 0), BuildingBlock: OJICUG_clean_linker_0, # of connection points: 2
#     Edge 27, Type (0, 0), BuildingBlock: OJICUG_clean_linker_0, # of connection points: 2
#     Edge 28, Type (0, 0), BuildingBlock: OJICUG_clean_linker_0, # of connection points: 2
#     Edge 29, Type (0, 0), BuildingBlock: OJICUG_clean_linker_0, # of connection points: 2
#     Edge 30, Type (0, 0), BuildingBlock: OJICUG_clean_linker_0, # of connection points: 2
#     Edge 31, Type (0, 0), BuildingBlock: OJICUG_clean_linker_0, # of connection points: 2
# Relax obj value: 0.339
# Max RMSD: 0.283
# Mean RMSD: 0.283
data_MOF--net-whc--node1-OJICUG_clean_sbu_0--edge1-OJICUG_clean_linker_0
_symmetry_space_group_name_H-M    P1
_symmetry_Int_Tables_number       1
_symmetry_cell_setting            triclinic
loop_
_symmetry_equiv_pos_as_xyz
'x, y, z'
_cell_length_a     26.921718
_cell_length_b     26.924981
_cell_length_c     22.931453
_cell_angle_alpha  90.501688
_cell_angle_beta   89.529312
_cell_angle_gamma 90.031442
loop_
_atom_site_label
_atom_site_type_symbol
_atom_site_fract_x
_atom_site_fract_y
_atom_site_fract_z
_atom_type_partial_charge
Sc0 Sc 0.4446 0.28272 0.167 0.0
Sc1 Sc 0.40884 0.17525 0.09168 0.0
Sc2 Sc 0.52978 0.19232 0.1351 0.0
O3 O 0.4599 0.2166 0.13278 0.0
C4 C 0.55206 0.30436 0.12276 0.0
C5 C 0.38987 0.28375 0.04403 0.0
C6 C 0.49813 0.17711 0.00737 0.0
C7 C 0.34548 0.22485 0.19463 0.0
C8 C 0.5028 0.22269 0.2634 0.0
C9 C 0.47022 0.09241 0.14647 0.0
O10 O 0.50672 0.31667 0.1229 0.0
O11 O 0.39115 0.23686 0.03513 0.0
O12 O 0.52983 0.19894 0.04015 0.0
O13 O 0.37979 0.25449 0.21003 0.0
O14 O 0.52107 0.18942 0.22905 0.0
O15 O 0.42693 0.1118 0.14555 0.0
O16 O 0.4854 0.26388 0.24503 0.0
O17 O 0.34851 0.19669 0.1499 0.0
O18 O 0.5083 0.11601 0.12938 0.0
O19 O 0.40305 0.30417 0.09178 0.0
O20 O 0.56575 0.26321 0.143 0.0
O21 O 0.46385 0.15042 0.02907 0.0
Sc22 Sc 0.28455 0.52761 0.8382 0.0
Sc23 Sc 0.17629 0.56268 0.91318 0.0
Sc24 Sc 0.1947 0.4418 0.86801 0.0
O25 O 0.21833 0.51191 0.87166 0.0
C26 C 0.2251 0.46921 0.74041 0.0
C27 C 0.22549 0.62585 0.81099 0.0
C28 C 0.09389 0.49989 0.85828 0.0
C29 C 0.28448 0.58338 0.96161 0.0
C30 C 0.3066 0.42051 0.88088 0.0
C31 C 0.17924 0.47358 0.99644 0.0
O32 O 0.26635 0.48635 0.75937 0.0
O33 O 0.19678 0.62265 0.85517 0.0
O34 O 0.11811 0.46214 0.8743 0.0
O35 O 0.30537 0.56963 0.91412 0.0
O36 O 0.26596 0.40659 0.8592 0.0
O37 O 0.15245 0.50783 0.97549 0.0
O38 O 0.31859 0.46595 0.8819 0.0
O39 O 0.23754 0.58195 0.96995 0.0
O40 O 0.20126 0.44199 0.96304 0.0
O41 O 0.25611 0.59209 0.79594 0.0
O42 O 0.19178 0.45076 0.77422 0.0
O43 O 0.11293 0.54335 0.85937 0.0
Sc44 Sc 0.52674 0.69073 0.17081 0.0
Sc45 Sc 0.56391 0.79832 0.09788 0.0
Sc46 Sc 0.44223 0.7815 0.14122 0.0
O47 O 0.51211 0.75705 0.13804 0.0
C48 C 0.41983 0.66954 0.12614 0.0
C49 C 0.58386 0.6897 0.04834 0.0
C50 C 0.47506 0.79688 0.0134 0.0
C51 C 0.62549 0.74859 0.20028 0.0
C52 C 0.46796 0.75096 0.26856 0.0
C53 C 0.50169 0.88197 0.15259 0.0
O54 O 0.46514 0.65712 0.12594 0.0
O55 O 0.58308 0.73661 0.04069 0.0
O56 O 0.44303 0.77537 0.04622 0.0
O57 O 0.59115 0.71851 0.21444 0.0
O58 O 0.45014 0.78429 0.23504 0.0
O59 O 0.54494 0.8625 0.15174 0.0
O60 O 0.48492 0.70953 0.24926 0.0
O61 O 0.623 0.77731 0.1566 0.0
O62 O 0.46359 0.85778 0.13707 0.0
O63 O 0.56927 0.66913 0.09524 0.0
O64 O 0.40597 0.71064 0.1475 0.0
O65 O 0.51025 0.82254 0.0348 0.0
Sc66 Sc 0.69235 0.44593 0.83798 0.0
Sc67 Sc 0.799 0.40802 0.91134 0.0
Sc68 Sc 0.78391 0.52969 0.86965 0.0
O69 O 0.75859 0.4601 0.87152 0.0
C70 C 0.75338 0.50444 0.74161 0.0
C71 C 0.74875 0.34626 0.80823 0.0
C72 C 0.88329 0.46864 0.85664 0.0
C73 C 0.69 0.38991 0.96007 0.0
C74 C 0.67187 0.55323 0.88413 0.0
C75 C 0.7989 0.49703 0.99677 0.0
O76 O 0.71196 0.48721 0.7603 0.0
O77 O 0.77689 0.34857 0.8525 0.0
O78 O 0.85984 0.50711 0.87321 0.0
O79 O 0.66994 0.40393 0.91286 0.0
O80 O 0.71352 0.56677 0.86426 0.0
O81 O 0.82442 0.46183 0.97462 0.0
O82 O 0.65898 0.50804 0.88317 0.0
O83 O 0.73685 0.39056 0.96832 0.0
O84 O 0.77766 0.52916 0.96456 0.0
O85 O 0.71978 0.38116 0.79363 0.0
O86 O 0.78669 0.52204 0.77567 0.0
O87 O 0.86331 0.4256 0.85738 0.0
Sc88 Sc 0.44142 0.19349 0.63616 0.0
Sc89 Sc 0.56281 0.17588 0.59235 0.0
Sc90 Sc 0.52658 0.28384 0.66716 0.0
O91 O 0.51143 0.21761 0.63328 0.0
C92 C 0.41963 0.30548 0.62338 0.0
C93 C 0.47407 0.17784 0.5081 0.0
C94 C 0.58319 0.28413 0.54428 0.0
C95 C 0.50015 0.09325 0.64706 0.0
C96 C 0.46762 0.22402 0.76411 0.0
C97 C 0.62516 0.22567 0.69502 0.0
O98 O 0.40562 0.26452 0.64411 0.0
O99 O 0.50867 0.1516 0.52927 0.0
O100 O 0.56893 0.30493 0.59163 0.0
O101 O 0.46239 0.11709 0.63033 0.0
O102 O 0.48495 0.2653 0.74552 0.0
O103 O 0.62234 0.19692 0.65082 0.0
O104 O 0.44951 0.19074 0.72999 0.0
O105 O 0.54352 0.1125 0.64613 0.0
O106 O 0.59099 0.25585 0.70999 0.0
O107 O 0.44218 0.19969 0.54124 0.0
O108 O 0.46502 0.31768 0.62318 0.0
O109 O 0.58211 0.2372 0.53583 0.0
Sc110 Sc 0.19483 0.53194 0.36896 0.0
Sc111 Sc 0.17607 0.41129 0.41227 0.0
Sc112 Sc 0.28426 0.44573 0.33746 0.0
O113 O 0.21819 0.46178 0.37137 0.0
C114 C 0.22493 0.50418 0.24079 0.0
C115 C 0.09389 0.47393 0.35823 0.0
C116 C 0.22497 0.34747 0.3092 0.0
C117 C 0.17935 0.50054 0.49682 0.0
C118 C 0.30692 0.5529 0.38171 0.0
C119 C 0.28423 0.39072 0.4602 0.0
O120 O 0.19176 0.52283 0.27501 0.0
O121 O 0.11281 0.43044 0.35862 0.0
O122 O 0.25541 0.38124 0.29429 0.0
O123 O 0.20156 0.53197 0.46401 0.0
O124 O 0.31872 0.50743 0.38194 0.0
O125 O 0.23733 0.39242 0.46878 0.0
O126 O 0.2662 0.56691 0.36063 0.0
O127 O 0.15224 0.46654 0.47515 0.0
O128 O 0.30503 0.40394 0.41271 0.0
O129 O 0.11818 0.51169 0.37496 0.0
O130 O 0.26608 0.48678 0.25935 0.0
O131 O 0.19653 0.35089 0.35365 0.0
Sc132 Sc 0.5296 0.78283 0.64014 0.0
Sc133 Sc 0.40861 0.79889 0.5963 0.0
Sc134 Sc 0.44484 0.69182 0.67004 0.0
O135 O 0.45986 0.75805 0.63707 0.0
C136 C 0.5527 0.67067 0.62607 0.0
C137 C 0.4983 0.79801 0.51254 0.0
C138 C 0.39069 0.69006 0.54672 0.0
C139 C 0.46901 0.88273 0.65202 0.0
C140 C 0.5026 0.75226 0.76779 0.0
C141 C 0.34517 0.74898 0.69802 0.0
O142 O 0.56619 0.71226 0.64617 0.0
O143 O 0.46358 0.8242 0.53451 0.0
O144 O 0.40389 0.66982 0.59415 0.0
O145 O 0.50756 0.85895 0.63637 0.0
O146 O 0.48502 0.71112 0.74868 0.0
O147 O 0.3482 0.77715 0.65387 0.0
O148 O 0.52089 0.7855 0.7341 0.0
O149 O 0.42587 0.86296 0.65074 0.0
O150 O 0.37961 0.71962 0.71304 0.0
O151 O 0.52999 0.77641 0.54505 0.0
O152 O 0.50742 0.65805 0.62611 0.0
O153 O 0.39164 0.73694 0.53871 0.0
Sc154 Sc 0.78392 0.44416 0.36878 0.0
Sc155 Sc 0.79932 0.56585 0.41304 0.0
Sc156 Sc 0.69224 0.52794 0.3395 0.0
O157 O 0.75865 0.51376 0.37231 0.0
C158 C 0.75289 0.4696 0.24137 0.0
C159 C 0.88337 0.50528 0.35662 0.0
C160 C 0.74854 0.62785 0.31181 0.0
C161 C 0.79948 0.47676 0.49654 0.0
C162 C 0.67183 0.42036 0.38307 0.0
C163 C 0.69051 0.58367 0.46296 0.0
O164 O 0.78618 0.45178 0.27494 0.0
O165 O 0.86344 0.54832 0.35843 0.0
O166 O 0.71926 0.59308 0.29686 0.0
O167 O 0.77815 0.44463 0.46372 0.0
O168 O 0.65894 0.46554 0.38298 0.0
O169 O 0.73743 0.58337 0.47072 0.0
O170 O 0.71359 0.40685 0.36325 0.0
O171 O 0.82491 0.51201 0.47506 0.0
O172 O 0.67015 0.5694 0.41575 0.0
O173 O 0.85988 0.46677 0.37223 0.0
O174 O 0.71169 0.48721 0.26055 0.0
O175 O 0.77714 0.62538 0.3556 0.0
C176 C 0.2315 0.29547 0.2204 0.0
C177 C 0.2331 0.29899 0.28139 0.0
H178 H 0.26571 0.26471 0.14376 0.0
C179 C 0.26054 0.26396 0.31266 0.0
H180 H 0.2111 0.32266 0.19557 0.0
C181 C 0.29317 0.23206 0.28309 0.0
C182 C 0.29704 0.23387 0.22214 0.0
H183 H 0.2628 0.26661 0.35977 0.0
H184 H 0.31977 0.21093 0.30798 0.0
C185 C 0.26279 0.26225 0.19082 0.0
C186 C 0.26029 0.70977 0.81526 0.0
C187 C 0.23341 0.67411 0.78354 0.0
H188 H 0.31882 0.76361 0.81136 0.0
C189 C 0.23204 0.67705 0.72256 0.0
H190 H 0.26239 0.70758 0.86236 0.0
C191 C 0.263 0.71047 0.69344 0.0
C192 C 0.29672 0.73964 0.72518 0.0
H193 H 0.21208 0.64937 0.69738 0.0
H194 H 0.26615 0.70763 0.64636 0.0
C195 C 0.2926 0.74191 0.78614 0.0
C196 C 0.74079 0.67994 0.22431 0.0
C197 C 0.73862 0.67605 0.28521 0.0
H198 H 0.70679 0.71032 0.14858 0.0
C199 C 0.70951 0.70987 0.31749 0.0
H200 H 0.76239 0.65359 0.19867 0.0
C201 C 0.67633 0.74102 0.28887 0.0
C202 C 0.67352 0.73975 0.22785 0.0
H203 H 0.70669 0.70684 0.36452 0.0
H204 H 0.64881 0.76122 0.31438 0.0
C205 C 0.70892 0.71245 0.19572 0.0
C206 C 0.71 0.26409 0.81232 0.0
C207 C 0.73881 0.29809 0.78057 0.0
H208 H 0.64932 0.21265 0.80857 0.0
C209 C 0.74057 0.29435 0.71956 0.0
H210 H 0.70753 0.26699 0.85944 0.0
C211 C 0.70853 0.26187 0.69051 0.0
C212 C 0.67338 0.23443 0.72233 0.0
H213 H 0.76196 0.32081 0.69435 0.0
H214 H 0.70604 0.26411 0.64344 0.0
C215 C 0.67664 0.23297 0.78328 0.0
C216 C 0.45749 0.16751 0.85007 0.0
C217 C 0.47436 0.21264 0.82696 0.0
H218 H 0.45314 0.12035 0.9244 0.0
C219 C 0.50258 0.24453 0.86304 0.0
H220 H 0.43643 0.14165 0.82358 0.0
C221 C 0.51308 0.23183 0.92079 0.0
C222 C 0.49538 0.18708 0.94397 0.0
H223 H 0.51696 0.27933 0.84663 0.0
H224 H 0.53359 0.2578 0.94777 0.0
C225 C 0.46771 0.15501 0.90777 0.0
C226 C 0.23352 0.4586 0.0832 0.0
C227 C 0.18882 0.47611 0.06004 0.0
H228 H 0.2807 0.45493 0.15764 0.0
C229 C 0.15643 0.50351 0.09665 0.0
H230 H 0.25973 0.43829 0.05596 0.0
C231 C 0.16861 0.51375 0.15468 0.0
C232 C 0.21373 0.49716 0.17775 0.0
H233 H 0.12178 0.51791 0.08009 0.0
H234 H 0.14253 0.53466 0.18142 0.0
C235 C 0.24589 0.46911 0.1413 0.0
C236 C 0.45786 0.74388 0.92531 0.0
C237 C 0.47671 0.78795 0.94955 0.0
H238 H 0.45246 0.69731 0.84965 0.0
C239 C 0.50456 0.82 0.91363 0.0
H240 H 0.43714 0.71796 0.952 0.0
C241 C 0.51402 0.808 0.85517 0.0
C242 C 0.49619 0.7634 0.83106 0.0
H243 H 0.51996 0.85416 0.93107 0.0
H244 H 0.53536 0.83373 0.82894 0.0
C245 C 0.46761 0.73167 0.86682 0.0
C246 C 0.73283 0.50446 0.14288 0.0
C247 C 0.7642 0.4757 0.17827 0.0
H248 H 0.71982 0.53515 0.05829 0.0
C249 C 0.80876 0.45754 0.15412 0.0
H250 H 0.69852 0.51985 0.16014 0.0
C251 C 0.82113 0.46698 0.09596 0.0
C252 C 0.78951 0.49513 0.06045 0.0
H253 H 0.83421 0.43601 0.18009 0.0
H254 H 0.85527 0.45138 0.07844 0.0
C255 C 0.74542 0.5142 0.08472 0.0
C256 C 0.51385 0.16695 0.34976 0.0
C257 C 0.49626 0.2116 0.32649 0.0
H258 H 0.51934 0.12071 0.42471 0.0
C259 C 0.46775 0.24342 0.36284 0.0
H260 H 0.53515 0.14115 0.32307 0.0
C261 C 0.45776 0.2312 0.42105 0.0
C262 C 0.47629 0.18702 0.44445 0.0
H263 H 0.45278 0.27782 0.34634 0.0
H264 H 0.43703 0.25715 0.44818 0.0
C265 C 0.50417 0.15495 0.40796 0.0
C266 C 0.23398 0.51486 0.58378 0.0
C267 C 0.18905 0.49782 0.56033 0.0
H268 H 0.28131 0.51797 0.6582 0.0
C269 C 0.15645 0.47066 0.5964 0.0
H270 H 0.26035 0.53495 0.55692 0.0
C271 C 0.16862 0.46021 0.65416 0.0
C272 C 0.21394 0.47635 0.67751 0.0
H273 H 0.12162 0.45661 0.57961 0.0
H274 H 0.14236 0.43952 0.68049 0.0
C275 C 0.24634 0.50415 0.64161 0.0
C276 C 0.50274 0.73043 0.36708 0.0
C277 C 0.47481 0.76246 0.33156 0.0
H278 H 0.53348 0.7171 0.45165 0.0
C279 C 0.45839 0.80782 0.35536 0.0
H280 H 0.51679 0.69546 0.3501 0.0
C281 C 0.46869 0.82038 0.41327 0.0
C282 C 0.49597 0.78813 0.44895 0.0
H283 H 0.4376 0.83379 0.32929 0.0
H284 H 0.45441 0.85519 0.43049 0.0
C285 C 0.51331 0.74319 0.42505 0.0
C286 C 0.80946 0.51623 0.6547 0.0
C287 C 0.7648 0.49821 0.67844 0.0
H288 H 0.85603 0.52226 0.57917 0.0
C289 C 0.73338 0.46948 0.64246 0.0
H290 H 0.83494 0.53772 0.68113 0.0
C291 C 0.746 0.45967 0.58413 0.0
C292 C 0.79014 0.47865 0.56026 0.0
H293 H 0.69901 0.45417 0.65936 0.0
H294 H 0.72034 0.43876 0.55726 0.0
C295 C 0.82184 0.50674 0.59636 0.0
C296 C 0.32471 0.33296 0.91049 0.0
C297 C 0.33536 0.3841 0.91474 0.0
H298 H 0.33372 0.2608 0.94795 0.0
C299 C 0.36797 0.40076 0.95813 0.0
H300 H 0.29982 0.31894 0.8773 0.0
C301 C 0.38657 0.36768 0.99895 0.0
C302 C 0.37345 0.31708 0.99702 0.0
H303 H 0.37692 0.43982 0.96276 0.0
H304 H 0.4103 0.38215 0.03305 0.0
C305 C 0.34388 0.29966 0.95105 0.0
C306 C 0.29956 0.63163 0.05411 0.0
C307 C 0.31729 0.60066 0.00903 0.0
H308 H 0.31829 0.67751 0.12745 0.0
C309 C 0.36775 0.58701 0.00831 0.0
H310 H 0.26078 0.64225 0.05622 0.0
C311 C 0.40045 0.6064 0.04947 0.0
C312 C 0.38356 0.64034 0.09195 0.0
H313 H 0.38241 0.56223 0.97491 0.0
H314 H 0.43947 0.59693 0.04579 0.0
C315 C 0.33249 0.6516 0.09499 0.0
C316 C 0.58746 0.60629 1.0004 0.0
C317 C 0.60158 0.65662 1.00082 0.0
H318 H 0.59749 0.53438 0.9621 0.0
C319 C 0.63355 0.67397 0.95686 0.0
H320 H 0.56194 0.59195 0.03293 0.0
C321 C 0.654 0.64076 0.91602 0.0
C322 C 0.64227 0.5898 0.918 0.0
H323 H 0.64458 0.71264 0.95564 0.0
H324 H 0.68065 0.65465 0.88449 0.0
C325 C 0.60735 0.57331 0.95927 0.0
C326 C 0.6734 0.34255 0.05212 0.0
C327 C 0.65635 0.37298 0.00714 0.0
H328 H 0.65356 0.29726 0.12497 0.0
C329 C 0.60581 0.38634 0.00618 0.0
H330 H 0.71219 0.33217 0.05446 0.0
C331 C 0.57244 0.36713 0.04695 0.0
C332 C 0.58874 0.33367 0.08926 0.0
H333 H 0.59163 0.41069 0.97285 0.0
H334 H 0.53343 0.37626 0.04303 0.0
C335 C 0.63982 0.32279 0.09262 0.0
C336 C 0.63325 0.29965 0.45332 0.0
C337 C 0.60093 0.31703 0.49725 0.0
H338 H 0.68086 0.31893 0.38178 0.0
C339 C 0.5866 0.36728 0.49744 0.0
H340 H 0.64444 0.26103 0.45166 0.0
C341 C 0.60668 0.40021 0.45704 0.0
C342 C 0.64201 0.38375 0.41592 0.0
H343 H 0.56079 0.38161 0.52995 0.0
H344 H 0.59666 0.43911 0.4604 0.0
C345 C 0.6539 0.33282 0.41322 0.0
C346 C 0.33231 0.3238 0.59302 0.0
C347 C 0.38345 0.33463 0.58967 0.0
H348 H 0.26049 0.33319 0.55477 0.0
C349 C 0.40043 0.36795 0.54722 0.0
H350 H 0.31805 0.29838 0.62547 0.0
C351 C 0.36769 0.38706 0.50635 0.0
C352 C 0.31712 0.37377 0.50733 0.0
H353 H 0.43951 0.37707 0.54331 0.0
H354 H 0.3824 0.41133 0.47294 0.0
C355 C 0.29934 0.3435 0.55243 0.0
C356 C 0.34497 0.6739 0.45334 0.0
C357 C 0.37439 0.65659 0.49911 0.0
H358 H 0.30085 0.65446 0.3793 0.0
C359 C 0.38732 0.60595 0.50032 0.0
H360 H 0.33496 0.71278 0.45078 0.0
C361 C 0.36858 0.57276 0.45901 0.0
C362 C 0.33603 0.58934 0.41588 0.0
H363 H 0.41094 0.59155 0.53426 0.0
H364 H 0.37731 0.53367 0.46312 0.0
C365 C 0.32567 0.6405 0.41229 0.0
C366 C 0.60685 0.5864 0.5104 0.0
C367 C 0.65714 0.6007 0.51055 0.0
H368 H 0.5346 0.59618 0.54788 0.0
C369 C 0.67409 0.63245 0.55496 0.0
H370 H 0.59281 0.561 0.47753 0.0
C371 C 0.64053 0.65267 0.59555 0.0
C372 C 0.58958 0.64094 0.59282 0.0
H373 H 0.71273 0.6436 0.55665 0.0
H374 H 0.65413 0.67925 0.62736 0.0
C375 C 0.5735 0.60607 0.55125 0.0
C376 C 0.52634 0.01982 0.16182 0.0
C377 C 0.4776 0.03916 0.15935 0.0
H378 H 0.57251 0.95501 0.16182 0.0
C379 C 0.43739 0.00648 0.16386 0.0
H380 H 0.5584 0.0441 0.15973 0.0
C381 C 0.44574 0.95535 0.16584 0.0
C382 C 0.49445 0.93583 0.16292 0.0
H383 H 0.39956 0.02009 0.1629 0.0
H384 H 0.4137 0.93101 0.16674 0.0
C385 C 0.53469 0.96869 0.16339 0.0
C386 C 0.96975 0.43501 0.84522 0.0
C387 C 0.93702 0.47531 0.84511 0.0
H388 H 0.04515 0.41129 0.84842 0.0
C389 C 0.95664 0.52384 0.84053 0.0
H390 H 0.95595 0.3973 0.84811 0.0
C391 C 0.0078 0.53215 0.84149 0.0
C392 C 0.04045 0.49207 0.8466 0.0
H393 H 0.93236 0.55587 0.8391 0.0
H394 H 0.02151 0.56998 0.84114 0.0
C395 C 0.02095 0.4433 0.84577 0.0
C396 C 0.52428 0.95626 0.66694 0.0
C397 C 0.47574 0.93657 0.66277 0.0
H398 H 0.57039 0.02115 0.66518 0.0
C399 C 0.43542 0.96927 0.6622 0.0
H400 H 0.55633 0.93203 0.66868 0.0
C401 C 0.44368 0.02043 0.66081 0.0
C402 C 0.49244 0.03995 0.65957 0.0
H403 H 0.3977 0.95544 0.65961 0.0
H404 H 0.41165 0.04458 0.65787 0.0
C405 C 0.53256 0.00741 0.66514 0.0
C406 C 0.95666 0.45012 0.33921 0.0
C407 C 0.9371 0.49864 0.34498 0.0
H408 H 0.02147 0.40394 0.33894 0.0
C409 C 0.96988 0.53892 0.3463 0.0
H410 H 0.93234 0.41811 0.33684 0.0
C411 C 0.02106 0.5306 0.34688 0.0
C412 C 0.04049 0.48182 0.34654 0.0
H413 H 0.95613 0.57662 0.35013 0.0
H414 H 0.04529 0.56259 0.35048 0.0
C415 C 0.00781 0.44178 0.34022 0.0
loop_
_geom_bond_atom_site_label_1
_geom_bond_atom_site_label_2
_geom_bond_distance
_geom_bond_site_symmetry_2
_ccdc_geom_bond_type
Sc0 O3 2.025 . S
Sc0 O10 2.105 . S
Sc0 O13 2.105 . S
Sc0 O16 2.105 . S
Sc0 O19 2.105 . S
Sc1 O3 2.025 . S
Sc1 O11 2.105 . S
Sc1 O15 2.105 . S
Sc1 O17 2.105 . S
Sc1 O21 2.105 1_554 S
Sc2 O3 2.025 . S
Sc2 O12 2.105 1_554 S
Sc2 O14 2.105 . S
Sc2 O18 2.105 . S
Sc2 O20 2.105 . S
O3 Sc0 2.025 . S
O3 Sc1 2.025 . S
O3 Sc2 2.025 . S
C4 O10 1.268 . S
C4 O20 1.268 . S
C5 O11 1.268 . S
C5 O19 1.268 . S
C6 O12 1.268 . S
C6 O21 1.268 . S
C7 O13 1.268 . S
C7 O17 1.268 . S
C8 O14 1.268 . S
C8 O16 1.268 . S
C9 O15 1.268 . S
C9 O18 1.268 . S
O10 Sc0 2.105 . S
O10 C4 1.268 . S
O11 Sc1 2.105 . S
O11 C5 1.268 . S
O12 Sc2 2.105 1_556 S
O12 C6 1.268 . S
O13 Sc0 2.105 . S
O13 C7 1.268 . S
O14 Sc2 2.105 . S
O14 C8 1.268 . S
O15 Sc1 2.105 . S
O15 C9 1.268 . S
O16 Sc0 2.105 . S
O16 C8 1.268 . S
O17 Sc1 2.105 . S
O17 C7 1.268 . S
O18 Sc2 2.105 . S
O18 C9 1.268 . S
O19 Sc0 2.105 . S
O19 C5 1.268 . S
O20 Sc2 2.105 . S
O20 C4 1.268 . S
O21 Sc1 2.105 1_556 S
O21 C6 1.268 . S
Sc22 O25 2.025 . S
Sc22 O32 2.105 . S
Sc22 O35 2.105 . S
Sc22 O38 2.105 . S
Sc22 O41 2.105 . S
Sc23 O25 2.025 . S
Sc23 O33 2.105 . S
Sc23 O37 2.105 1_556 S
Sc23 O39 2.105 . S
Sc23 O43 2.105 . S
Sc24 O25 2.025 . S
Sc24 O34 2.105 . S
Sc24 O36 2.105 . S
Sc24 O40 2.105 1_556 S
Sc24 O42 2.105 . S
O25 Sc22 2.025 . S
O25 Sc23 2.025 . S
O25 Sc24 2.025 . S
C26 O32 1.268 . S
C26 O42 1.268 . S
C27 O33 1.268 . S
C27 O41 1.268 . S
C28 O34 1.268 . S
C28 O43 1.268 . S
C29 O35 1.268 . S
C29 O39 1.268 . S
C30 O36 1.268 . S
C30 O38 1.268 . S
C31 O37 1.268 . S
C31 O40 1.268 . S
O32 Sc22 2.105 . S
O32 C26 1.268 . S
O33 Sc23 2.105 . S
O33 C27 1.268 . S
O34 Sc24 2.105 . S
O34 C28 1.268 . S
O35 Sc22 2.105 . S
O35 C29 1.268 . S
O36 Sc24 2.105 . S
O36 C30 1.268 . S
O37 Sc23 2.105 1_554 S
O37 C31 1.268 . S
O38 Sc22 2.105 . S
O38 C30 1.268 . S
O39 Sc23 2.105 . S
O39 C29 1.268 . S
O40 Sc24 2.105 1_554 S
O40 C31 1.268 . S
O41 Sc22 2.105 . S
O41 C27 1.268 . S
O42 Sc24 2.105 . S
O42 C26 1.268 . S
O43 Sc23 2.105 . S
O43 C28 1.268 . S
Sc44 O47 2.025 . S
Sc44 O54 2.105 . S
Sc44 O57 2.105 . S
Sc44 O60 2.105 . S
Sc44 O63 2.105 . S
Sc45 O47 2.025 . S
Sc45 O55 2.105 . S
Sc45 O59 2.105 . S
Sc45 O61 2.105 . S
Sc45 O65 2.105 1_554 S
Sc46 O47 2.025 . S
Sc46 O56 2.105 1_554 S
Sc46 O58 2.105 . S
Sc46 O62 2.105 . S
Sc46 O64 2.105 . S
O47 Sc44 2.025 . S
O47 Sc45 2.025 . S
O47 Sc46 2.025 . S
C48 O54 1.268 . S
C48 O64 1.268 . S
C49 O55 1.268 . S
C49 O63 1.268 . S
C50 O56 1.268 . S
C50 O65 1.268 . S
C51 O57 1.268 . S
C51 O61 1.268 . S
C52 O58 1.268 . S
C52 O60 1.268 . S
C53 O59 1.268 . S
C53 O62 1.268 . S
O54 Sc44 2.105 . S
O54 C48 1.268 . S
O55 Sc45 2.105 . S
O55 C49 1.268 . S
O56 Sc46 2.105 1_556 S
O56 C50 1.268 . S
O57 Sc44 2.105 . S
O57 C51 1.268 . S
O58 Sc46 2.105 . S
O58 C52 1.268 . S
O59 Sc45 2.105 . S
O59 C53 1.268 . S
O60 Sc44 2.105 . S
O60 C52 1.268 . S
O61 Sc45 2.105 . S
O61 C51 1.268 . S
O62 Sc46 2.105 . S
O62 C53 1.268 . S
O63 Sc44 2.105 . S
O63 C49 1.268 . S
O64 Sc46 2.105 . S
O64 C48 1.268 . S
O65 Sc45 2.105 1_556 S
O65 C50 1.268 . S
Sc66 O69 2.025 . S
Sc66 O76 2.105 . S
Sc66 O79 2.105 . S
Sc66 O82 2.105 . S
Sc66 O85 2.105 . S
Sc67 O69 2.025 . S
Sc67 O77 2.105 . S
Sc67 O81 2.105 1_556 S
Sc67 O83 2.105 . S
Sc67 O87 2.105 . S
Sc68 O69 2.025 . S
Sc68 O78 2.105 . S
Sc68 O80 2.105 . S
Sc68 O84 2.105 1_556 S
Sc68 O86 2.105 . S
O69 Sc66 2.025 . S
O69 Sc67 2.025 . S
O69 Sc68 2.025 . S
C70 O76 1.268 . S
C70 O86 1.268 . S
C71 O77 1.268 . S
C71 O85 1.268 . S
C72 O78 1.268 . S
C72 O87 1.268 . S
C73 O79 1.268 . S
C73 O83 1.268 . S
C74 O80 1.268 . S
C74 O82 1.268 . S
C75 O81 1.268 . S
C75 O84 1.268 . S
O76 Sc66 2.105 . S
O76 C70 1.268 . S
O77 Sc67 2.105 . S
O77 C71 1.268 . S
O78 Sc68 2.105 . S
O78 C72 1.268 . S
O79 Sc66 2.105 . S
O79 C73 1.268 . S
O80 Sc68 2.105 . S
O80 C74 1.268 . S
O81 Sc67 2.105 1_554 S
O81 C75 1.268 . S
O82 Sc66 2.105 . S
O82 C74 1.268 . S
O83 Sc67 2.105 . S
O83 C73 1.268 . S
O84 Sc68 2.105 1_554 S
O84 C75 1.268 . S
O85 Sc66 2.105 . S
O85 C71 1.268 . S
O86 Sc68 2.105 . S
O86 C70 1.268 . S
O87 Sc67 2.105 . S
O87 C72 1.268 . S
Sc88 O91 2.025 . S
Sc88 O98 2.105 . S
Sc88 O101 2.105 . S
Sc88 O104 2.105 . S
Sc88 O107 2.105 . S
Sc89 O91 2.025 . S
Sc89 O99 2.105 . S
Sc89 O103 2.105 . S
Sc89 O105 2.105 . S
Sc89 O109 2.105 . S
Sc90 O91 2.025 . S
Sc90 O100 2.105 . S
Sc90 O102 2.105 . S
Sc90 O106 2.105 . S
Sc90 O108 2.105 . S
O91 Sc88 2.025 . S
O91 Sc89 2.025 . S
O91 Sc90 2.025 . S
C92 O98 1.268 . S
C92 O108 1.268 . S
C93 O99 1.268 . S
C93 O107 1.268 . S
C94 O100 1.268 . S
C94 O109 1.268 . S
C95 O101 1.268 . S
C95 O105 1.268 . S
C96 O102 1.268 . S
C96 O104 1.268 . S
C97 O103 1.268 . S
C97 O106 1.268 . S
O98 Sc88 2.105 . S
O98 C92 1.268 . S
O99 Sc89 2.105 . S
O99 C93 1.268 . S
O100 Sc90 2.105 . S
O100 C94 1.268 . S
O101 Sc88 2.105 . S
O101 C95 1.268 . S
O102 Sc90 2.105 . S
O102 C96 1.268 . S
O103 Sc89 2.105 . S
O103 C97 1.268 . S
O104 Sc88 2.105 . S
O104 C96 1.268 . S
O105 Sc89 2.105 . S
O105 C95 1.268 . S
O106 Sc90 2.105 . S
O106 C97 1.268 . S
O107 Sc88 2.105 . S
O107 C93 1.268 . S
O108 Sc90 2.105 . S
O108 C92 1.268 . S
O109 Sc89 2.105 . S
O109 C94 1.268 . S
Sc110 O113 2.025 . S
Sc110 O120 2.105 . S
Sc110 O123 2.105 . S
Sc110 O126 2.105 . S
Sc110 O129 2.105 . S
Sc111 O113 2.025 . S
Sc111 O121 2.105 . S
Sc111 O125 2.105 . S
Sc111 O127 2.105 . S
Sc111 O131 2.105 . S
Sc112 O113 2.025 . S
Sc112 O122 2.105 . S
Sc112 O124 2.105 . S
Sc112 O128 2.105 . S
Sc112 O130 2.105 . S
O113 Sc110 2.025 . S
O113 Sc111 2.025 . S
O113 Sc112 2.025 . S
C114 O120 1.268 . S
C114 O130 1.268 . S
C115 O121 1.268 . S
C115 O129 1.268 . S
C116 O122 1.268 . S
C116 O131 1.268 . S
C117 O123 1.268 . S
C117 O127 1.268 . S
C118 O124 1.268 . S
C118 O126 1.268 . S
C119 O125 1.268 . S
C119 O128 1.268 . S
O120 Sc110 2.105 . S
O120 C114 1.268 . S
O121 Sc111 2.105 . S
O121 C115 1.268 . S
O122 Sc112 2.105 . S
O122 C116 1.268 . S
O123 Sc110 2.105 . S
O123 C117 1.268 . S
O124 Sc112 2.105 . S
O124 C118 1.268 . S
O125 Sc111 2.105 . S
O125 C119 1.268 . S
O126 Sc110 2.105 . S
O126 C118 1.268 . S
O127 Sc111 2.105 . S
O127 C117 1.268 . S
O128 Sc112 2.105 . S
O128 C119 1.268 . S
O129 Sc110 2.105 . S
O129 C115 1.268 . S
O130 Sc112 2.105 . S
O130 C114 1.268 . S
O131 Sc111 2.105 . S
O131 C116 1.268 . S
Sc132 O135 2.025 . S
Sc132 O142 2.105 . S
Sc132 O145 2.105 . S
Sc132 O148 2.105 . S
Sc132 O151 2.105 . S
Sc133 O135 2.025 . S
Sc133 O143 2.105 . S
Sc133 O147 2.105 . S
Sc133 O149 2.105 . S
Sc133 O153 2.105 . S
Sc134 O135 2.025 . S
Sc134 O144 2.105 . S
Sc134 O146 2.105 . S
Sc134 O150 2.105 . S
Sc134 O152 2.105 . S
O135 Sc132 2.025 . S
O135 Sc133 2.025 . S
O135 Sc134 2.025 . S
C136 O142 1.268 . S
C136 O152 1.268 . S
C137 O143 1.268 . S
C137 O151 1.268 . S
C138 O144 1.268 . S
C138 O153 1.268 . S
C139 O145 1.268 . S
C139 O149 1.268 . S
C140 O146 1.268 . S
C140 O148 1.268 . S
C141 O147 1.268 . S
C141 O150 1.268 . S
O142 Sc132 2.105 . S
O142 C136 1.268 . S
O143 Sc133 2.105 . S
O143 C137 1.268 . S
O144 Sc134 2.105 . S
O144 C138 1.268 . S
O145 Sc132 2.105 . S
O145 C139 1.268 . S
O146 Sc134 2.105 . S
O146 C140 1.268 . S
O147 Sc133 2.105 . S
O147 C141 1.268 . S
O148 Sc132 2.105 . S
O148 C140 1.268 . S
O149 Sc133 2.105 . S
O149 C139 1.268 . S
O150 Sc134 2.105 . S
O150 C141 1.268 . S
O151 Sc132 2.105 . S
O151 C137 1.268 . S
O152 Sc134 2.105 . S
O152 C136 1.268 . S
O153 Sc133 2.105 . S
O153 C138 1.268 . S
Sc154 O157 2.025 . S
Sc154 O164 2.105 . S
Sc154 O167 2.105 . S
Sc154 O170 2.105 . S
Sc154 O173 2.105 . S
Sc155 O157 2.025 . S
Sc155 O165 2.105 . S
Sc155 O169 2.105 . S
Sc155 O171 2.105 . S
Sc155 O175 2.105 . S
Sc156 O157 2.025 . S
Sc156 O166 2.105 . S
Sc156 O168 2.105 . S
Sc156 O172 2.105 . S
Sc156 O174 2.105 . S
O157 Sc154 2.025 . S
O157 Sc155 2.025 . S
O157 Sc156 2.025 . S
C158 O164 1.268 . S
C158 O174 1.268 . S
C159 O165 1.268 . S
C159 O173 1.268 . S
C160 O166 1.268 . S
C160 O175 1.268 . S
C161 O167 1.268 . S
C161 O171 1.268 . S
C162 O168 1.268 . S
C162 O170 1.268 . S
C163 O169 1.268 . S
C163 O172 1.268 . S
O164 Sc154 2.105 . S
O164 C158 1.268 . S
O165 Sc155 2.105 . S
O165 C159 1.268 . S
O166 Sc156 2.105 . S
O166 C160 1.268 . S
O167 Sc154 2.105 . S
O167 C161 1.268 . S
O168 Sc156 2.105 . S
O168 C162 1.268 . S
O169 Sc155 2.105 . S
O169 C163 1.268 . S
O170 Sc154 2.105 . S
O170 C162 1.268 . S
O171 Sc155 2.105 . S
O171 C161 1.268 . S
O172 Sc156 2.105 . S
O172 C163 1.268 . S
O173 Sc154 2.105 . S
O173 C159 1.268 . S
O174 Sc156 2.105 . S
O174 C158 1.268 . S
O175 Sc155 2.105 . S
O175 C160 1.268 . S
C176 C177 1.387 . S
C176 H180 0.950 . S
C176 C185 1.390 . S
C177 C176 1.387 . S
C177 C179 1.387 . S
H178 C185 0.950 . S
C179 C177 1.387 . S
C179 C181 1.390 . S
C179 H183 0.950 . S
H180 C176 0.950 . S
C181 C179 1.390 . S
C181 C182 1.387 . S
C181 H184 0.950 . S
C182 C181 1.387 . S
C182 C185 1.387 . S
H183 C179 0.950 . S
H184 C181 0.950 . S
C185 C176 1.390 . S
C185 H178 0.950 . S
C185 C182 1.387 . S
C186 C187 1.387 . S
C186 H190 0.950 . S
C186 C195 1.390 . S
C187 C186 1.387 . S
C187 C189 1.387 . S
H188 C195 0.950 . S
C189 C187 1.387 . S
C189 C191 1.390 . S
C189 H193 0.950 . S
H190 C186 0.950 . S
C191 C189 1.390 . S
C191 C192 1.387 . S
C191 H194 0.950 . S
C192 C191 1.387 . S
C192 C195 1.387 . S
H193 C189 0.950 . S
H194 C191 0.950 . S
C195 C186 1.390 . S
C195 H188 0.950 . S
C195 C192 1.387 . S
C196 C197 1.387 . S
C196 H200 0.950 . S
C196 C205 1.390 . S
C197 C196 1.387 . S
C197 C199 1.387 . S
H198 C205 0.950 . S
C199 C197 1.387 . S
C199 C201 1.390 . S
C199 H203 0.950 . S
H200 C196 0.950 . S
C201 C199 1.390 . S
C201 C202 1.387 . S
C201 H204 0.950 . S
C202 C201 1.387 . S
C202 C205 1.387 . S
H203 C199 0.950 . S
H204 C201 0.950 . S
C205 C196 1.390 . S
C205 H198 0.950 . S
C205 C202 1.387 . S
C206 C207 1.387 . S
C206 H210 0.950 . S
C206 C215 1.390 . S
C207 C206 1.387 . S
C207 C209 1.387 . S
H208 C215 0.950 . S
C209 C207 1.387 . S
C209 C211 1.390 . S
C209 H213 0.950 . S
H210 C206 0.950 . S
C211 C209 1.390 . S
C211 C212 1.387 . S
C211 H214 0.950 . S
C212 C211 1.387 . S
C212 C215 1.387 . S
H213 C209 0.950 . S
H214 C211 0.950 . S
C215 C206 1.390 . S
C215 H208 0.950 . S
C215 C212 1.387 . S
C216 C217 1.387 . S
C216 H220 0.950 . S
C216 C225 1.390 . S
C217 C216 1.387 . S
C217 C219 1.387 . S
H218 C225 0.950 . S
C219 C217 1.387 . S
C219 C221 1.390 . S
C219 H223 0.950 . S
H220 C216 0.950 . S
C221 C219 1.390 . S
C221 C222 1.387 . S
C221 H224 0.950 . S
C222 C221 1.387 . S
C222 C225 1.387 . S
H223 C219 0.950 . S
H224 C221 0.950 . S
C225 C216 1.390 . S
C225 H218 0.950 . S
C225 C222 1.387 . S
C226 C227 1.387 . S
C226 H230 0.950 . S
C226 C235 1.390 . S
C227 C226 1.387 . S
C227 C229 1.387 . S
H228 C235 0.950 . S
C229 C227 1.387 . S
C229 C231 1.390 . S
C229 H233 0.950 . S
H230 C226 0.950 . S
C231 C229 1.390 . S
C231 C232 1.387 . S
C231 H234 0.950 . S
C232 C231 1.387 . S
C232 C235 1.387 . S
H233 C229 0.950 . S
H234 C231 0.950 . S
C235 C226 1.390 . S
C235 H228 0.950 . S
C235 C232 1.387 . S
C236 C237 1.387 . S
C236 H240 0.950 . S
C236 C245 1.390 . S
C237 C236 1.387 . S
C237 C239 1.387 . S
H238 C245 0.950 . S
C239 C237 1.387 . S
C239 C241 1.390 . S
C239 H243 0.950 . S
H240 C236 0.950 . S
C241 C239 1.390 . S
C241 C242 1.387 . S
C241 H244 0.950 . S
C242 C241 1.387 . S
C242 C245 1.387 . S
H243 C239 0.950 . S
H244 C241 0.950 . S
C245 C236 1.390 . S
C245 H238 0.950 . S
C245 C242 1.387 . S
C246 C247 1.387 . S
C246 H250 0.950 . S
C246 C255 1.390 . S
C247 C246 1.387 . S
C247 C249 1.387 . S
H248 C255 0.950 . S
C249 C247 1.387 . S
C249 C251 1.390 . S
C249 H253 0.950 . S
H250 C246 0.950 . S
C251 C249 1.390 . S
C251 C252 1.387 . S
C251 H254 0.950 . S
C252 C251 1.387 . S
C252 C255 1.387 . S
H253 C249 0.950 . S
H254 C251 0.950 . S
C255 C246 1.390 . S
C255 H248 0.950 . S
C255 C252 1.387 . S
C256 C257 1.387 . S
C256 H260 0.950 . S
C256 C265 1.390 . S
C257 C256 1.387 . S
C257 C259 1.387 . S
H258 C265 0.950 . S
C259 C257 1.387 . S
C259 C261 1.390 . S
C259 H263 0.950 . S
H260 C256 0.950 . S
C261 C259 1.390 . S
C261 C262 1.387 . S
C261 H264 0.950 . S
C262 C261 1.387 . S
C262 C265 1.387 . S
H263 C259 0.950 . S
H264 C261 0.950 . S
C265 C256 1.390 . S
C265 H258 0.950 . S
C265 C262 1.387 . S
C266 C267 1.387 . S
C266 H270 0.950 . S
C266 C275 1.390 . S
C267 C266 1.387 . S
C267 C269 1.387 . S
H268 C275 0.950 . S
C269 C267 1.387 . S
C269 C271 1.390 . S
C269 H273 0.950 . S
H270 C266 0.950 . S
C271 C269 1.390 . S
C271 C272 1.387 . S
C271 H274 0.950 . S
C272 C271 1.387 . S
C272 C275 1.387 . S
H273 C269 0.950 . S
H274 C271 0.950 . S
C275 C266 1.390 . S
C275 H268 0.950 . S
C275 C272 1.387 . S
C276 C277 1.387 . S
C276 H280 0.950 . S
C276 C285 1.390 . S
C277 C276 1.387 . S
C277 C279 1.387 . S
H278 C285 0.950 . S
C279 C277 1.387 . S
C279 C281 1.390 . S
C279 H283 0.950 . S
H280 C276 0.950 . S
C281 C279 1.390 . S
C281 C282 1.387 . S
C281 H284 0.950 . S
C282 C281 1.387 . S
C282 C285 1.387 . S
H283 C279 0.950 . S
H284 C281 0.950 . S
C285 C276 1.390 . S
C285 H278 0.950 . S
C285 C282 1.387 . S
C286 C287 1.387 . S
C286 H290 0.950 . S
C286 C295 1.390 . S
C287 C286 1.387 . S
C287 C289 1.387 . S
H288 C295 0.950 . S
C289 C287 1.387 . S
C289 C291 1.390 . S
C289 H293 0.950 . S
H290 C286 0.950 . S
C291 C289 1.390 . S
C291 C292 1.387 . S
C291 H294 0.950 . S
C292 C291 1.387 . S
C292 C295 1.387 . S
H293 C289 0.950 . S
H294 C291 0.950 . S
C295 C286 1.390 . S
C295 H288 0.950 . S
C295 C292 1.387 . S
C296 C297 1.387 . S
C296 H300 0.950 . S
C296 C305 1.390 . S
C297 C296 1.387 . S
C297 C299 1.387 . S
H298 C305 0.950 . S
C299 C297 1.387 . S
C299 C301 1.390 1_556 S
C299 H303 0.950 . S
H300 C296 0.950 . S
C301 C299 1.390 1_554 S
C301 C302 1.387 . S
C301 H304 0.950 . S
C302 C301 1.387 . S
C302 C305 1.387 1_554 S
H303 C299 0.950 . S
H304 C301 0.950 . S
C305 C296 1.390 . S
C305 H298 0.950 . S
C305 C302 1.387 1_556 S
C306 C307 1.387 . S
C306 H310 0.950 . S
C306 C315 1.390 . S
C307 C306 1.387 . S
C307 C309 1.387 1_556 S
H308 C315 0.950 . S
C309 C307 1.387 1_554 S
C309 C311 1.390 . S
C309 H313 0.950 . S
H310 C306 0.950 . S
C311 C309 1.390 . S
C311 C312 1.387 . S
C311 H314 0.950 . S
C312 C311 1.387 . S
C312 C315 1.387 1_554 S
H313 C309 0.950 . S
H314 C311 0.950 . S
C315 C306 1.390 . S
C315 H308 0.950 . S
C315 C312 1.387 1_556 S
C316 C317 1.387 . S
C316 H320 0.950 . S
C316 C325 1.390 . S
C317 C316 1.387 . S
C317 C319 1.387 1_554 S
H318 C325 0.950 . S
C319 C317 1.387 1_556 S
C319 C321 1.390 . S
C319 H323 0.950 . S
H320 C316 0.950 . S
C321 C319 1.390 . S
C321 C322 1.387 . S
C321 H324 0.950 . S
C322 C321 1.387 . S
C322 C325 1.387 1_556 S
H323 C319 0.950 . S
H324 C321 0.950 . S
C325 C316 1.390 . S
C325 H318 0.950 . S
C325 C322 1.387 1_554 S
C326 C327 1.387 . S
C326 H330 0.950 . S
C326 C335 1.390 . S
C327 C326 1.387 . S
C327 C329 1.387 1_556 S
H328 C335 0.950 . S
C329 C327 1.387 1_554 S
C329 C331 1.390 . S
C329 H333 0.950 . S
H330 C326 0.950 . S
C331 C329 1.390 . S
C331 C332 1.387 . S
C331 H334 0.950 . S
C332 C331 1.387 . S
C332 C335 1.387 1_554 S
H333 C329 0.950 . S
H334 C331 0.950 . S
C335 C326 1.390 . S
C335 H328 0.950 . S
C335 C332 1.387 1_556 S
C336 C337 1.387 . S
C336 H340 0.950 . S
C336 C345 1.390 . S
C337 C336 1.387 . S
C337 C339 1.387 . S
H338 C345 0.950 . S
C339 C337 1.387 . S
C339 C341 1.390 . S
C339 H343 0.950 . S
H340 C336 0.950 . S
C341 C339 1.390 . S
C341 C342 1.387 . S
C341 H344 0.950 . S
C342 C341 1.387 . S
C342 C345 1.387 . S
H343 C339 0.950 . S
H344 C341 0.950 . S
C345 C336 1.390 . S
C345 H338 0.950 . S
C345 C342 1.387 . S
C346 C347 1.387 . S
C346 H350 0.950 . S
C346 C355 1.390 . S
C347 C346 1.387 . S
C347 C349 1.387 . S
H348 C355 0.950 . S
C349 C347 1.387 . S
C349 C351 1.390 . S
C349 H353 0.950 . S
H350 C346 0.950 . S
C351 C349 1.390 . S
C351 C352 1.387 . S
C351 H354 0.950 . S
C352 C351 1.387 . S
C352 C355 1.387 . S
H353 C349 0.950 . S
H354 C351 0.950 . S
C355 C346 1.390 . S
C355 H348 0.950 . S
C355 C352 1.387 . S
C356 C357 1.387 . S
C356 H360 0.950 . S
C356 C365 1.390 . S
C357 C356 1.387 . S
C357 C359 1.387 . S
H358 C365 0.950 . S
C359 C357 1.387 . S
C359 C361 1.390 . S
C359 H363 0.950 . S
H360 C356 0.950 . S
C361 C359 1.390 . S
C361 C362 1.387 . S
C361 H364 0.950 . S
C362 C361 1.387 . S
C362 C365 1.387 . S
H363 C359 0.950 . S
H364 C361 0.950 . S
C365 C356 1.390 . S
C365 H358 0.950 . S
C365 C362 1.387 . S
C366 C367 1.387 . S
C366 H370 0.950 . S
C366 C375 1.390 . S
C367 C366 1.387 . S
C367 C369 1.387 . S
H368 C375 0.950 . S
C369 C367 1.387 . S
C369 C371 1.390 . S
C369 H373 0.950 . S
H370 C366 0.950 . S
C371 C369 1.390 . S
C371 C372 1.387 . S
C371 H374 0.950 . S
C372 C371 1.387 . S
C372 C375 1.387 . S
H373 C369 0.950 . S
H374 C371 0.950 . S
C375 C366 1.390 . S
C375 H368 0.950 . S
C375 C372 1.387 . S
C376 C377 1.387 . S
C376 H380 0.950 . S
C376 C385 1.390 1_545 S
C377 C376 1.387 . S
C377 C379 1.387 . S
H378 C385 0.950 . S
C379 C377 1.387 . S
C379 C381 1.390 1_545 S
C379 H383 0.950 . S
H380 C376 0.950 . S
C381 C379 1.390 1_565 S
C381 C382 1.387 . S
C381 H384 0.950 . S
C382 C381 1.387 . S
C382 C385 1.387 . S
H383 C379 0.950 . S
H384 C381 0.950 . S
C385 C376 1.390 1_565 S
C385 H378 0.950 . S
C385 C382 1.387 . S
C386 C387 1.387 . S
C386 H390 0.950 . S
C386 C395 1.390 1_655 S
C387 C386 1.387 . S
C387 C389 1.387 . S
H388 C395 0.950 . S
C389 C387 1.387 . S
C389 C391 1.390 1_655 S
C389 H393 0.950 . S
H390 C386 0.950 . S
C391 C389 1.390 1_455 S
C391 C392 1.387 . S
C391 H394 0.950 . S
C392 C391 1.387 . S
C392 C395 1.387 . S
H393 C389 0.950 . S
H394 C391 0.950 . S
C395 C386 1.390 1_455 S
C395 H388 0.950 . S
C395 C392 1.387 . S
C396 C397 1.387 . S
C396 H400 0.950 . S
C396 C405 1.390 1_565 S
C397 C396 1.387 . S
C397 C399 1.387 . S
H398 C405 0.950 . S
C399 C397 1.387 . S
C399 C401 1.390 1_565 S
C399 H403 0.950 . S
H400 C396 0.950 . S
C401 C399 1.390 1_545 S
C401 C402 1.387 . S
C401 H404 0.950 . S
C402 C401 1.387 . S
C402 C405 1.387 . S
H403 C399 0.950 . S
H404 C401 0.950 . S
C405 C396 1.390 1_545 S
C405 H398 0.950 . S
C405 C402 1.387 . S
C406 C407 1.387 . S
C406 H410 0.950 . S
C406 C415 1.390 1_655 S
C407 C406 1.387 . S
C407 C409 1.387 . S
H408 C415 0.950 . S
C409 C407 1.387 . S
C409 C411 1.390 1_655 S
C409 H413 0.950 . S
H410 C406 0.950 . S
C411 C409 1.390 1_455 S
C411 C412 1.387 . S
C411 H414 0.950 . S
C412 C411 1.387 . S
C412 C415 1.387 . S
H413 C409 0.950 . S
H414 C411 0.950 . S
C415 C406 1.390 1_455 S
C415 H408 0.950 . S
C415 C412 1.387 . S
C177 C116 1.389 . S
C182 C7 1.386 . S
C187 C27 1.389 . S
C192 C141 1.386 . S
C197 C160 1.389 . S
C202 C51 1.386 . S
C207 C71 1.388 . S
C212 C97 1.385 . S
C217 C96 1.543 . S
C222 C6 1.544 . S
C227 C31 1.545 . S
C232 C114 1.543 . S
C237 C50 1.544 . S
C242 C140 1.544 . S
C247 C158 1.543 . S
C252 C75 1.545 . S
C257 C8 1.543 . S
C262 C93 1.544 . S
C267 C117 1.544 . S
C272 C26 1.543 . S
C277 C52 1.543 . S
C282 C137 1.545 . S
C287 C70 1.543 . S
C292 C161 1.545 . S
C297 C30 1.150 . S
C302 C5 1.147 . S
C307 C29 1.145 . S
C312 C48 1.149 . S
C317 C49 1.145 . S
C322 C74 1.151 . S
C327 C73 1.145 . S
C332 C4 1.149 . S
C337 C94 1.146 . S
C342 C162 1.149 . S
C347 C92 1.150 . S
C352 C119 1.147 . S
C357 C138 1.145 . S
C362 C118 1.149 . S
C367 C163 1.145 . S
C372 C136 1.151 . S
C377 C9 1.761 . S
C382 C53 1.761 . S
C387 C72 1.761 . S
C392 C28 1.761 . S
C397 C139 1.761 . S
C402 C95 1.761 . S
C407 C159 1.757 . S
C412 C115 1.757 . S
