# Generated by pormake.
# Topology ict, (4)-cn, num edge types: 1
# Building blocks:
#     Node 0, Type 0, BuildingBlock: UXUYUI_clean_sbu_0, # of connection points: 4
#     Node 1, Type 0, BuildingBlock: UXUYUI_clean_sbu_0, # of connection points: 4
#     Node 2, Type 0, BuildingBlock: UXUYUI_clean_sbu_0, # of connection points: 4
#     Node 3, Type 0, BuildingBlock: UXUYUI_clean_sbu_0, # of connection points: 4
#     Node 4, Type 0, BuildingBlock: UXUYUI_clean_sbu_0, # of connection points: 4
#     Node 5, Type 0, BuildingBlock: UXUYUI_clean_sbu_0, # of connection points: 4
#     Node 6, Type 0, BuildingBlock: UXUYUI_clean_sbu_0, # of connection points: 4
#     Node 7, Type 0, BuildingBlock: UXUYUI_clean_sbu_0, # of connection points: 4
#     Node 8, Type 0, BuildingBlock: UXUYUI_clean_sbu_0, # of connection points: 4
#     Node 9, Type 0, BuildingBlock: UXUYUI_clean_sbu_0, # of connection points: 4
#     Node 10, Type 0, BuildingBlock: UXUYUI_clean_sbu_0, # of connection points: 4
#     Node 11, Type 0, BuildingBlock: UXUYUI_clean_sbu_0, # of connection points: 4
#     Node 12, Type 0, BuildingBlock: UXUYUI_clean_sbu_0, # of connection points: 4
#     Node 13, Type 0, BuildingBlock: UXUYUI_clean_sbu_0, # of connection points: 4
#     Node 14, Type 0, BuildingBlock: UXUYUI_clean_sbu_0, # of connection points: 4
#     Node 15, Type 0, BuildingBlock: UXUYUI_clean_sbu_0, # of connection points: 4
#     Node 16, Type 0, BuildingBlock: UXUYUI_clean_sbu_0, # of connection points: 4
#     Node 17, Type 0, BuildingBlock: UXUYUI_clean_sbu_0, # of connection points: 4
#     Node 18, Type 0, BuildingBlock: UXUYUI_clean_sbu_0, # of connection points: 4
#     Node 19, Type 0, BuildingBlock: UXUYUI_clean_sbu_0, # of connection points: 4
#     Node 20, Type 0, BuildingBlock: UXUYUI_clean_sbu_0, # of connection points: 4
#     Node 21, Type 0, BuildingBlock: UXUYUI_clean_sbu_0, # of connection points: 4
#     Node 22, Type 0, BuildingBlock: UXUYUI_clean_sbu_0, # of connection points: 4
#     Node 23, Type 0, BuildingBlock: UXUYUI_clean_sbu_0, # of connection points: 4
#     Node 24, Type 0, BuildingBlock: UXUYUI_clean_sbu_0, # of connection points: 4
#     Node 25, Type 0, BuildingBlock: UXUYUI_clean_sbu_0, # of connection points: 4
#     Node 26, Type 0, BuildingBlock: UXUYUI_clean_sbu_0, # of connection points: 4
#     Node 27, Type 0, BuildingBlock: UXUYUI_clean_sbu_0, # of connection points: 4
#     Node 28, Type 0, BuildingBlock: UXUYUI_clean_sbu_0, # of connection points: 4
#     Node 29, Type 0, BuildingBlock: UXUYUI_clean_sbu_0, # of connection points: 4
#     Node 30, Type 0, BuildingBlock: UXUYUI_clean_sbu_0, # of connection points: 4
#     Node 31, Type 0, BuildingBlock: UXUYUI_clean_sbu_0, # of connection points: 4
#     Node 32, Type 0, BuildingBlock: UXUYUI_clean_sbu_0, # of connection points: 4
#     Node 33, Type 0, BuildingBlock: UXUYUI_clean_sbu_0, # of connection points: 4
#     Node 34, Type 0, BuildingBlock: UXUYUI_clean_sbu_0, # of connection points: 4
#     Node 35, Type 0, BuildingBlock: UXUYUI_clean_sbu_0, # of connection points: 4
#     Edge 36, Type (0, 0), BuildingBlock: KIFKEQ_clean_linker_1, # of connection points: 2
#     Edge 37, Type (0, 0), BuildingBlock: KIFKEQ_clean_linker_1, # of connection points: 2
#     Edge 38, Type (0, 0), BuildingBlock: KIFKEQ_clean_linker_1, # of connection points: 2
#     Edge 39, Type (0, 0), BuildingBlock: KIFKEQ_clean_linker_1, # of connection points: 2
#     Edge 40, Type (0, 0), BuildingBlock: KIFKEQ_clean_linker_1, # of connection points: 2
#     Edge 41, Type (0, 0), BuildingBlock: KIFKEQ_clean_linker_1, # of connection points: 2
#     Edge 42, Type (0, 0), BuildingBlock: KIFKEQ_clean_linker_1, # of connection points: 2
#     Edge 43, Type (0, 0), BuildingBlock: KIFKEQ_clean_linker_1, # of connection points: 2
#     Edge 44, Type (0, 0), BuildingBlock: KIFKEQ_clean_linker_1, # of connection points: 2
#     Edge 45, Type (0, 0), BuildingBlock: KIFKEQ_clean_linker_1, # of connection points: 2
#     Edge 46, Type (0, 0), BuildingBlock: KIFKEQ_clean_linker_1, # of connection points: 2
#     Edge 47, Type (0, 0), BuildingBlock: KIFKEQ_clean_linker_1, # of connection points: 2
#     Edge 48, Type (0, 0), BuildingBlock: KIFKEQ_clean_linker_1, # of connection points: 2
#     Edge 49, Type (0, 0), BuildingBlock: KIFKEQ_clean_linker_1, # of connection points: 2
#     Edge 50, Type (0, 0), BuildingBlock: KIFKEQ_clean_linker_1, # of connection points: 2
#     Edge 51, Type (0, 0), BuildingBlock: KIFKEQ_clean_linker_1, # of connection points: 2
#     Edge 52, Type (0, 0), BuildingBlock: KIFKEQ_clean_linker_1, # of connection points: 2
#     Edge 53, Type (0, 0), BuildingBlock: KIFKEQ_clean_linker_1, # of connection points: 2
#     Edge 54, Type (0, 0), BuildingBlock: KIFKEQ_clean_linker_1, # of connection points: 2
#     Edge 55, Type (0, 0), BuildingBlock: KIFKEQ_clean_linker_1, # of connection points: 2
#     Edge 56, Type (0, 0), BuildingBlock: KIFKEQ_clean_linker_1, # of connection points: 2
#     Edge 57, Type (0, 0), BuildingBlock: KIFKEQ_clean_linker_1, # of connection points: 2
#     Edge 58, Type (0, 0), BuildingBlock: KIFKEQ_clean_linker_1, # of connection points: 2
#     Edge 59, Type (0, 0), BuildingBlock: KIFKEQ_clean_linker_1, # of connection points: 2
#     Edge 60, Type (0, 0), BuildingBlock: KIFKEQ_clean_linker_1, # of connection points: 2
#     Edge 61, Type (0, 0), BuildingBlock: KIFKEQ_clean_linker_1, # of connection points: 2
#     Edge 62, Type (0, 0), BuildingBlock: KIFKEQ_clean_linker_1, # of connection points: 2
#     Edge 63, Type (0, 0), BuildingBlock: KIFKEQ_clean_linker_1, # of connection points: 2
#     Edge 64, Type (0, 0), BuildingBlock: KIFKEQ_clean_linker_1, # of connection points: 2
#     Edge 65, Type (0, 0), BuildingBlock: KIFKEQ_clean_linker_1, # of connection points: 2
#     Edge 66, Type (0, 0), BuildingBlock: KIFKEQ_clean_linker_1, # of connection points: 2
#     Edge 67, Type (0, 0), BuildingBlock: KIFKEQ_clean_linker_1, # of connection points: 2
#     Edge 68, Type (0, 0), BuildingBlock: KIFKEQ_clean_linker_1, # of connection points: 2
#     Edge 69, Type (0, 0), BuildingBlock: KIFKEQ_clean_linker_1, # of connection points: 2
#     Edge 70, Type (0, 0), BuildingBlock: KIFKEQ_clean_linker_1, # of connection points: 2
#     Edge 71, Type (0, 0), BuildingBlock: KIFKEQ_clean_linker_1, # of connection points: 2
#     Edge 72, Type (0, 0), BuildingBlock: KIFKEQ_clean_linker_1, # of connection points: 2
#     Edge 73, Type (0, 0), BuildingBlock: KIFKEQ_clean_linker_1, # of connection points: 2
#     Edge 74, Type (0, 0), BuildingBlock: KIFKEQ_clean_linker_1, # of connection points: 2
#     Edge 75, Type (0, 0), BuildingBlock: KIFKEQ_clean_linker_1, # of connection points: 2
#     Edge 76, Type (0, 0), BuildingBlock: KIFKEQ_clean_linker_1, # of connection points: 2
#     Edge 77, Type (0, 0), BuildingBlock: KIFKEQ_clean_linker_1, # of connection points: 2
#     Edge 78, Type (0, 0), BuildingBlock: KIFKEQ_clean_linker_1, # of connection points: 2
#     Edge 79, Type (0, 0), BuildingBlock: KIFKEQ_clean_linker_1, # of connection points: 2
#     Edge 80, Type (0, 0), BuildingBlock: KIFKEQ_clean_linker_1, # of connection points: 2
#     Edge 81, Type (0, 0), BuildingBlock: KIFKEQ_clean_linker_1, # of connection points: 2
#     Edge 82, Type (0, 0), BuildingBlock: KIFKEQ_clean_linker_1, # of connection points: 2
#     Edge 83, Type (0, 0), BuildingBlock: KIFKEQ_clean_linker_1, # of connection points: 2
#     Edge 84, Type (0, 0), BuildingBlock: KIFKEQ_clean_linker_1, # of connection points: 2
#     Edge 85, Type (0, 0), BuildingBlock: KIFKEQ_clean_linker_1, # of connection points: 2
#     Edge 86, Type (0, 0), BuildingBlock: KIFKEQ_clean_linker_1, # of connection points: 2
#     Edge 87, Type (0, 0), BuildingBlock: KIFKEQ_clean_linker_1, # of connection points: 2
#     Edge 88, Type (0, 0), BuildingBlock: KIFKEQ_clean_linker_1, # of connection points: 2
#     Edge 89, Type (0, 0), BuildingBlock: KIFKEQ_clean_linker_1, # of connection points: 2
#     Edge 90, Type (0, 0), BuildingBlock: KIFKEQ_clean_linker_1, # of connection points: 2
#     Edge 91, Type (0, 0), BuildingBlock: KIFKEQ_clean_linker_1, # of connection points: 2
#     Edge 92, Type (0, 0), BuildingBlock: KIFKEQ_clean_linker_1, # of connection points: 2
#     Edge 93, Type (0, 0), BuildingBlock: KIFKEQ_clean_linker_1, # of connection points: 2
#     Edge 94, Type (0, 0), BuildingBlock: KIFKEQ_clean_linker_1, # of connection points: 2
#     Edge 95, Type (0, 0), BuildingBlock: KIFKEQ_clean_linker_1, # of connection points: 2
#     Edge 96, Type (0, 0), BuildingBlock: KIFKEQ_clean_linker_1, # of connection points: 2
#     Edge 97, Type (0, 0), BuildingBlock: KIFKEQ_clean_linker_1, # of connection points: 2
#     Edge 98, Type (0, 0), BuildingBlock: KIFKEQ_clean_linker_1, # of connection points: 2
#     Edge 99, Type (0, 0), BuildingBlock: KIFKEQ_clean_linker_1, # of connection points: 2
#     Edge 100, Type (0, 0), BuildingBlock: KIFKEQ_clean_linker_1, # of connection points: 2
#     Edge 101, Type (0, 0), BuildingBlock: KIFKEQ_clean_linker_1, # of connection points: 2
#     Edge 102, Type (0, 0), BuildingBlock: KIFKEQ_clean_linker_1, # of connection points: 2
#     Edge 103, Type (0, 0), BuildingBlock: KIFKEQ_clean_linker_1, # of connection points: 2
#     Edge 104, Type (0, 0), BuildingBlock: KIFKEQ_clean_linker_1, # of connection points: 2
#     Edge 105, Type (0, 0), BuildingBlock: KIFKEQ_clean_linker_1, # of connection points: 2
#     Edge 106, Type (0, 0), BuildingBlock: KIFKEQ_clean_linker_1, # of connection points: 2
#     Edge 107, Type (0, 0), BuildingBlock: KIFKEQ_clean_linker_1, # of connection points: 2
# Relax obj value: 0.166
# Max RMSD: 0.166
# Mean RMSD: 0.165
data_MOF--net-ict--node1-UXUYUI_clean_sbu_0--edge1-KIFKEQ_clean_linker_1
_symmetry_space_group_name_H-M    P1
_symmetry_Int_Tables_number       1
_symmetry_cell_setting            triclinic
loop_
_symmetry_equiv_pos_as_xyz
'x, y, z'
_cell_length_a     97.79717
_cell_length_b     97.858826
_cell_length_c     52.896611
_cell_angle_alpha  89.902519
_cell_angle_beta   90.001181
_cell_angle_gamma 119.9771
loop_
_atom_site_label
_atom_site_type_symbol
_atom_site_fract_x
_atom_site_fract_y
_atom_site_fract_z
_atom_type_partial_charge
Li0 Li 0.22696 0.20364 0.03506 0.0
Li1 Li 0.23266 0.2238 0.06765 0.0
Li2 Li 0.21507 0.2208 0.03106 0.0
Li3 Li 0.24364 0.23278 0.02623 0.0
C4 C 0.19766 0.19285 0.06405 0.0
N5 N 0.16846 0.1674 0.07595 0.0
C6 C 0.19427 0.18718 0.08886 0.0
C7 C 0.18614 0.18565 0.04535 0.0
C8 C 0.17946 0.17428 0.09448 0.0
C9 C 0.17147 0.17279 0.05172 0.0
C10 C 0.25752 0.21936 0.06787 0.0
C11 C 0.27827 0.23332 0.0983 0.0
N12 N 0.27685 0.21939 0.10596 0.0
C13 C 0.25633 0.20519 0.07591 0.0
C14 C 0.26864 0.23356 0.07901 0.0
C15 C 0.26619 0.20545 0.09524 0.0
C16 C 0.2352 0.18319 0.01199 0.0
N17 N 0.22479 0.18354 0.02863 0.0
C18 C 0.21293 0.15581 0.03592 0.0
C19 C 0.21382 0.17026 0.04066 0.0
C20 C 0.22362 0.15512 0.01899 0.0
C21 C 0.23487 0.16903 0.00694 0.0
H22 H 0.24385 0.19398 0.00284 0.0
H23 H 0.20587 0.17083 0.05417 0.0
C24 C 0.2369 0.24044 0.11366 0.0
N25 N 0.23533 0.22708 0.10307 0.0
C26 C 0.23791 0.24228 0.13992 0.0
C27 C 0.2361 0.21681 0.14367 0.0
C28 C 0.2349 0.21537 0.11746 0.0
C29 C 0.23736 0.23029 0.15535 0.0
H30 H 0.23701 0.24948 0.10175 0.0
H31 H 0.23336 0.20476 0.10856 0.0
C32 C 0.21971 0.20978 0.9826 0.0
N33 N 0.20549 0.1972 0.93672 0.0
C34 C 0.22451 0.21912 0.9608 0.0
C35 C 0.20784 0.19397 0.98098 0.0
C36 C 0.21713 0.21257 0.9378 0.0
C37 C 0.20076 0.18785 0.95764 0.0
C38 C 0.23915 0.25606 0.04143 0.0
C39 C 0.23201 0.26172 0.02479 0.0
C40 C 0.25385 0.2665 0.05192 0.0
C41 C 0.23983 0.27775 0.01865 0.0
C42 C 0.2613 0.28244 0.04526 0.0
N43 N 0.2542 0.28769 0.0289 0.0
C44 C 0.18722 0.22088 0.04137 0.0
C45 C 0.19251 0.22192 0.99747 0.0
C46 C 0.17317 0.22085 0.03663 0.0
N47 N 0.19648 0.22128 0.0219 0.0
C48 C 0.17852 0.22184 0.99185 0.0
C49 C 0.16862 0.22125 0.01158 0.0
H50 H 0.19072 0.22045 0.06062 0.0
H51 H 0.20018 0.22257 0.98232 0.0
C52 C 0.27544 0.24825 0.01117 0.0
N53 N 0.26146 0.24773 0.00734 0.0
C54 C 0.28853 0.25798 0.99627 0.0
C55 C 0.27269 0.26673 0.97403 0.0
C56 C 0.25988 0.25677 0.98932 0.0
C57 C 0.28721 0.26724 0.97714 0.0
H58 H 0.27631 0.24073 0.02527 0.0
H59 H 0.24857 0.25597 0.98639 0.0
O60 O 0.21213 0.20548 0.05829 0.0
O61 O 0.24787 0.21932 0.04913 0.0
O62 O 0.22689 0.21602 0.00523 0.0
O63 O 0.23173 0.2404 0.04752 0.0
H64 H 0.20299 0.19266 0.10363 0.0
H65 H 0.18841 0.19003 0.02617 0.0
H66 H 0.17671 0.16973 0.11359 0.0
H67 H 0.16245 0.16712 0.03742 0.0
H68 H 0.28687 0.24421 0.1072 0.0
H69 H 0.2478 0.1941 0.06746 0.0
H70 H 0.26975 0.24462 0.07291 0.0
H71 H 0.26535 0.19457 0.10175 0.0
H72 H 0.20423 0.14536 0.04582 0.0
H73 H 0.24324 0.16894 0.99365 0.0
H74 H 0.23861 0.25277 0.14801 0.0
H75 H 0.2359 0.20736 0.15464 0.0
H76 H 0.23378 0.23133 0.96162 0.0
H77 H 0.20421 0.18644 0.99747 0.0
H78 H 0.22066 0.2197 0.92082 0.0
H79 H 0.19153 0.17565 0.95614 0.0
H80 H 0.22061 0.25379 0.01657 0.0
H81 H 0.25947 0.26231 0.06494 0.0
H82 H 0.23449 0.28229 0.0057 0.0
H83 H 0.27273 0.29064 0.05311 0.0
H84 H 0.16582 0.22024 0.0524 0.0
H85 H 0.17557 0.22243 0.97229 0.0
H86 H 0.29937 0.25772 0.99906 0.0
H87 H 0.27116 0.27375 0.95967 0.0
Li88 Li 0.79346 0.02057 0.03607 0.0
Li89 Li 0.77274 0.00626 0.06858 0.0
Li90 Li 0.77589 0.99174 0.03202 0.0
Li91 Li 0.76442 0.00889 0.02598 0.0
C92 C 0.80411 0.00312 0.06631 0.0
N93 N 0.83082 0.00206 0.07997 0.0
C94 C 0.80941 0.00601 0.09132 0.0
C95 C 0.81233 0.99959 0.04828 0.0
C96 C 0.82296 0.00545 0.09784 0.0
C97 C 0.82582 0.99914 0.05555 0.0
C98 C 0.77852 0.03768 0.06479 0.0
C99 C 0.76571 0.05001 0.08616 0.0
N100 N 0.78001 0.06163 0.09439 0.0
C101 C 0.7931 0.04983 0.07326 0.0
C102 C 0.76472 0.03783 0.07111 0.0
C103 C 0.7936 0.06179 0.08829 0.0
C104 C 0.81487 0.04763 0.00993 0.0
N105 N 0.81381 0.03815 0.02952 0.0
C106 C 0.84111 0.05492 0.03922 0.0
C107 C 0.82653 0.04156 0.04419 0.0
C108 C 0.84258 0.06507 0.01924 0.0
C109 C 0.82917 0.06122 0.00447 0.0
H110 H 0.80449 0.04473 0.9988 0.0
H111 H 0.82539 0.03409 0.05999 0.0
C112 C 0.75774 0.99042 0.11345 0.0
N113 N 0.76844 0.00476 0.10389 0.0
C114 C 0.75482 0.98846 0.13942 0.0
C115 C 0.77391 0.01607 0.14523 0.0
C116 C 0.77659 0.01744 0.1192 0.0
C117 C 0.76299 0.00141 0.15564 0.0
H118 H 0.75167 0.98043 0.10093 0.0
H119 H 0.7855 0.02853 0.11138 0.0
C120 C 0.78601 0.00594 0.98306 0.0
N121 N 0.79548 0.00112 0.93633 0.0
C122 C 0.77547 0.00071 0.96275 0.0
C123 C 0.80144 0.00898 0.97951 0.0
C124 C 0.78046 0.99827 0.9393 0.0
C125 C 0.80598 0.0064 0.95576 0.0
C126 C 0.74026 0.98318 0.04975 0.0
C127 C 0.72979 0.96902 0.03782 0.0
C128 C 0.73441 0.99094 0.06449 0.0
C129 C 0.71356 0.96292 0.04069 0.0
C130 C 0.7181 0.98447 0.06691 0.0
N131 N 0.7081 0.97071 0.05504 0.0
C132 C 0.77838 0.96497 0.04142 0.0
C133 C 0.77098 0.96637 0.99926 0.0
C134 C 0.77826 0.95094 0.03625 0.0
N135 N 0.775 0.97249 0.02293 0.0
C136 C 0.77072 0.95234 0.99323 0.0
C137 C 0.77445 0.94446 0.01185 0.0
H138 H 0.78123 0.96993 0.06022 0.0
H139 H 0.76786 0.97226 0.98508 0.0
C140 C 0.75255 0.02722 0.00565 0.0
N141 N 0.75002 0.01227 0.00668 0.0
C142 C 0.74285 0.03071 0.99096 0.0
C143 C 0.72815 0.00333 0.97837 0.0
C144 C 0.73814 0.00036 0.99342 0.0
C145 C 0.73049 0.0187 0.97695 0.0
H146 H 0.76234 0.03654 0.01585 0.0
H147 H 0.73661 0.98864 0.99413 0.0
O148 O 0.79089 0.00366 0.05967 0.0
O149 O 0.77784 0.02599 0.04977 0.0
O150 O 0.78134 0.00849 0.00608 0.0
O151 O 0.75618 0.98936 0.04705 0.0
H152 H 0.80313 0.00871 0.10551 0.0
H153 H 0.80826 0.99712 0.02894 0.0
H154 H 0.82723 0.0077 0.1171 0.0
H155 H 0.8323 0.99642 0.04179 0.0
H156 H 0.75512 0.05026 0.09122 0.0
H157 H 0.80391 0.04995 0.06848 0.0
H158 H 0.75337 0.02873 0.06428 0.0
H159 H 0.80479 0.07121 0.0951 0.0
H160 H 0.85111 0.05724 0.05096 0.0
H161 H 0.8296 0.0688 0.98918 0.0
H162 H 0.74633 0.97695 0.14676 0.0
H163 H 0.78072 0.02625 0.15717 0.0
H164 H 0.76353 0.99845 0.96514 0.0
H165 H 0.80986 0.0134 0.99485 0.0
H166 H 0.77239 0.99411 0.92346 0.0
H167 H 0.81787 0.00865 0.95276 0.0
H168 H 0.73417 0.96286 0.02638 0.0
H169 H 0.74237 0.00181 0.07407 0.0
H170 H 0.7053 0.952 0.03151 0.0
H171 H 0.7134 0.99037 0.07824 0.0
H172 H 0.78131 0.94534 0.05115 0.0
H173 H 0.76741 0.9476 0.97431 0.0
H174 H 0.74532 0.04279 0.98996 0.0
H175 H 0.71877 0.99373 0.96788 0.0
Li176 Li 0.97605 0.77277 0.03255 0.0
Li177 Li 0.99031 0.76712 0.06567 0.0
Li178 Li 0.00508 0.78439 0.02886 0.0
Li179 Li 0.98823 0.75581 0.02454 0.0
C180 C 0.99419 0.80197 0.06149 0.0
N181 N 0.99731 0.83088 0.07352 0.0
C182 C 0.99029 0.80465 0.08569 0.0
C183 C -0.00021 0.81405 0.04346 0.0
C184 C 0.99191 0.81933 0.09138 0.0
C185 C 0.00126 0.82856 0.0499 0.0
C186 C 0.96105 0.7425 0.06631 0.0
C187 C 0.95436 0.72204 0.09739 0.0
N188 N 0.94191 0.72359 0.10495 0.0
C189 C 0.94814 0.74383 0.07429 0.0
C190 C 0.96415 0.73146 0.07783 0.0
C191 C 0.93862 0.73418 0.09388 0.0
C192 C 0.94637 0.76264 0.01226 0.0
N193 N 0.95811 0.77482 0.02525 0.0
C194 C 0.94305 0.78792 0.02734 0.0
C195 C 0.95671 0.78734 0.03284 0.0
C196 C 0.93065 0.77541 0.01421 0.0
C197 C 0.93243 0.76264 0.00662 0.0
H198 H 0.94781 0.75282 0.00652 0.0
H199 H 0.96609 0.79685 0.04329 0.0
C200 C 0.00287 0.76286 0.11136 0.0
N201 N 0.99103 0.76451 0.10115 0.0
C202 C 0.00371 0.76139 0.13752 0.0
C203 C 0.97998 0.76305 0.14199 0.0
C204 C 0.97975 0.76472 0.11586 0.0
C205 C 0.99217 0.76152 0.15327 0.0
H206 H 0.0118 0.76292 0.09923 0.0
H207 H 0.97059 0.76628 0.10727 0.0
C208 C 0.98961 0.77998 0.98054 0.0
N209 N 0.99166 0.79485 0.93509 0.0
C210 C 0.99369 0.77503 0.95846 0.0
C211 C 0.98639 0.79236 0.97945 0.0
C212 C 0.99472 0.78273 0.93568 0.0
C213 C 0.98753 0.79976 0.95631 0.0
C214 C 0.01588 0.76014 0.03956 0.0
C215 C 0.02843 0.76708 0.02244 0.0
C216 C 0.01171 0.74552 0.05033 0.0
C217 C 0.03651 0.75915 0.01614 0.0
C218 C 0.02006 0.73795 0.0435 0.0
N219 N 0.03218 0.74487 0.02668 0.0
C220 C 0.0337 0.81091 0.03985 0.0
C221 C 0.02856 0.80797 0.99584 0.0
C222 C 0.04783 0.82497 0.03587 0.0
N223 N 0.02435 0.80282 0.02001 0.0
C224 C 0.04256 0.82205 0.99098 0.0
C225 C 0.05238 0.83082 0.01116 0.0
H226 H 0.03007 0.80647 0.05886 0.0
H227 H 0.02107 0.80131 0.98031 0.0
C228 C 0.9717 0.72386 0.01117 0.0
N229 N 0.98509 0.73772 0.0063 0.0
C230 C 0.96813 0.71039 0.99728 0.0
C231 C 0.9923 0.72561 0.97367 0.0
C232 C 0.99538 0.73884 0.98801 0.0
C233 C 0.97842 0.71116 0.97807 0.0
H234 H 0.96353 0.72335 0.02537 0.0
H235 H 0.00581 0.75006 0.98421 0.0
O236 O 0.99275 0.78768 0.0557 0.0
O237 O 0.9706 0.75194 0.04731 0.0
O238 O 0.98855 0.77253 0.00297 0.0
O239 O 0.00774 0.76765 0.04579 0.0
H240 H 0.98604 0.7955 0.09994 0.0
H241 H 0.003 0.8123 0.02472 0.0
H242 H 0.9889 0.82154 0.11002 0.0
H243 H 0.00556 0.838 0.03611 0.0
H244 H 0.95667 0.71352 0.10657 0.0
H245 H 0.94559 0.75233 0.06562 0.0
H246 H 0.97408 0.73027 0.07184 0.0
H247 H 0.92864 0.73514 0.10034 0.0
H248 H 0.94206 0.7979 0.03375 0.0
H249 H 0.92318 0.75282 0.99628 0.0
H250 H 0.01348 0.76052 0.1453 0.0
H251 H 0.97068 0.76296 0.15319 0.0
H252 H 0.99612 0.76539 0.95892 0.0
H253 H 0.98299 0.7962 0.99623 0.0
H254 H 0.99794 0.77908 0.91846 0.0
H255 H 0.98512 0.80939 0.95522 0.0
H256 H 0.03182 0.77841 0.01397 0.0
H257 H 0.00207 0.74004 0.0637 0.0
H258 H 0.0462 0.76434 0.00282 0.0
H259 H 0.01691 0.72659 0.05157 0.0
H260 H 0.05513 0.83114 0.05199 0.0
H261 H 0.04548 0.82613 0.97164 0.0
H262 H 0.95712 0.69964 0.00098 0.0
H263 H 0.00061 0.72675 0.95916 0.0
Li264 Li 0.23302 0.24352 0.47461 0.0
Li265 Li 0.22035 0.21485 0.46981 0.0
Li266 Li 0.22494 0.23177 0.43308 0.0
Li267 Li 0.2047 0.22779 0.46355 0.0
C268 C 0.25584 0.24122 0.4464 0.0
N269 N 0.28566 0.26115 0.42735 0.0
C270 C 0.26667 0.23595 0.44384 0.0
C271 C 0.26017 0.25662 0.43928 0.0
C272 C 0.2817 0.24621 0.43417 0.0
C273 C 0.2753 0.26652 0.42968 0.0
C274 C 0.21172 0.22201 0.51871 0.0
C275 C 0.19241 0.2069 0.5507 0.0
N276 N 0.20412 0.21204 0.56824 0.0
C277 C 0.22353 0.22731 0.53711 0.0
C278 C 0.196 0.21186 0.52559 0.0
C279 C 0.21946 0.22207 0.56202 0.0
C280 C 0.24438 0.27306 0.49638 0.0
N281 N 0.24759 0.26115 0.49376 0.0
C282 C 0.27055 0.27469 0.51968 0.0
C283 C 0.2604 0.26172 0.50487 0.0
C284 C 0.26749 0.28717 0.52284 0.0
C285 C 0.25424 0.28627 0.51083 0.0
H286 H 0.23401 0.27217 0.4875 0.0
H287 H 0.2626 0.25201 0.50248 0.0
C288 C 0.21648 0.18493 0.46246 0.0
N289 N 0.22007 0.1961 0.48048 0.0
C290 C 0.21594 0.17078 0.46845 0.0
C291 C 0.22329 0.18005 0.51134 0.0
C292 C 0.22361 0.19401 0.50452 0.0
C293 C 0.21935 0.16818 0.49318 0.0
H294 H 0.21408 0.18704 0.44333 0.0
H295 H 0.2268 0.20317 0.51838 0.0
C296 C 0.21423 0.25328 0.43121 0.0
N297 N 0.20022 0.26361 0.39655 0.0
C298 C 0.20278 0.24261 0.41456 0.0
C299 C 0.21858 0.26922 0.43018 0.0
C300 C 0.19583 0.24805 0.3972 0.0
C301 C 0.21136 0.27421 0.41253 0.0
C302 C 0.19158 0.19797 0.4403 0.0
C303 C 0.18413 0.19259 0.41693 0.0
C304 C 0.18455 0.18918 0.46212 0.0
C305 C 0.16968 0.17852 0.41584 0.0
C306 C 0.17011 0.17515 0.46024 0.0
N307 N 0.16303 0.17016 0.43734 0.0
C308 C 0.22452 0.22001 0.38523 0.0
C309 C 0.23701 0.24794 0.38603 0.0
C310 C 0.22616 0.22016 0.35905 0.0
N311 N 0.22968 0.23374 0.39805 0.0
C312 C 0.23909 0.24865 0.35982 0.0
C313 C 0.23336 0.2346 0.34602 0.0
H314 H 0.21884 0.20892 0.39536 0.0
H315 H 0.2409 0.25868 0.39668 0.0
C316 C 0.18435 0.2353 0.48886 0.0
N317 N 0.18491 0.22661 0.46929 0.0
C318 C 0.17038 0.23526 0.49444 0.0
C319 C 0.1578 0.21734 0.45958 0.0
C320 C 0.17206 0.21787 0.45451 0.0
C321 C 0.15685 0.22612 0.47978 0.0
H322 H 0.1948 0.24225 0.50015 0.0
H323 H 0.17285 0.21142 0.43861 0.0
O324 O 0.2411 0.23126 0.45584 0.0
O325 O 0.21547 0.22718 0.49429 0.0
O326 O 0.22129 0.24829 0.44835 0.0
O327 O 0.20567 0.2118 0.44163 0.0
H328 H 0.26349 0.22405 0.44928 0.0
H329 H 0.25197 0.26093 0.44112 0.0
H330 H 0.2902 0.24229 0.43209 0.0
H331 H 0.2788 0.27846 0.42409 0.0
H332 H 0.18031 0.199 0.55627 0.0
H333 H 0.23573 0.23526 0.53216 0.0
H334 H 0.18664 0.20795 0.51177 0.0
H335 H 0.22849 0.22599 0.57642 0.0
H336 H 0.28068 0.27497 0.52853 0.0
H337 H 0.25128 0.29549 0.51312 0.0
H338 H 0.21317 0.1621 0.45374 0.0
H339 H 0.22599 0.17851 0.53063 0.0
H340 H 0.19932 0.23026 0.41491 0.0
H341 H 0.22748 0.27765 0.44285 0.0
H342 H 0.18696 0.23992 0.38421 0.0
H343 H 0.21461 0.28651 0.41153 0.0
H344 H 0.18937 0.1993 0.39985 0.0
H345 H 0.19024 0.19307 0.48026 0.0
H346 H 0.16375 0.17424 0.3979 0.0
H347 H 0.16455 0.16823 0.477 0.0
H348 H 0.22175 0.20909 0.34906 0.0
H349 H 0.24462 0.25999 0.35036 0.0
H350 H 0.17009 0.24215 0.51024 0.0
H351 H 0.1477 0.21037 0.44758 0.0
Li352 Li 0.78479 0.00563 0.4683 0.0
Li353 Li 0.75691 0.98883 0.4745 0.0
Li354 Li 0.77311 0.97752 0.46328 0.0
Li355 Li 0.76785 0.9925 0.43277 0.0
C356 C 0.77477 0.99541 0.51786 0.0
N357 N 0.77581 0.00807 0.56494 0.0
C358 C 0.77447 0.00949 0.52 0.0
C359 C 0.77559 0.98776 0.53964 0.0
C360 C 0.77501 0.0157 0.54397 0.0
C361 C 0.77612 0.99435 0.56328 0.0
C362 C 0.75694 0.01273 0.44568 0.0
C363 C 0.73094 0.00518 0.43007 0.0
N364 N 0.73537 0.02067 0.4273 0.0
C365 C 0.76123 0.02857 0.44269 0.0
C366 C 0.74167 0.00093 0.43934 0.0
C367 C 0.75016 0.03234 0.43336 0.0
C368 C 0.80815 0.03692 0.46141 0.0
N369 N 0.80334 0.0246 0.47766 0.0
C370 C 0.82556 0.03979 0.5044 0.0
C371 C 0.81174 0.02573 0.49881 0.0
C372 C 0.83089 0.05277 0.48791 0.0
C373 C 0.82195 0.05116 0.46614 0.0
H374 H 0.80132 0.03558 0.44455 0.0
H375 H 0.80779 0.01569 0.51128 0.0
C376 C 0.72923 0.96942 0.50031 0.0
N377 N 0.73909 0.98479 0.49433 0.0
C378 C 0.71596 0.96512 0.51529 0.0
C379 C 0.72325 0.99261 0.51779 0.0
C380 C 0.73642 0.99638 0.50271 0.0
C381 C 0.7128 0.97678 0.52425 0.0
H382 H 0.73179 0.9605 0.4936 0.0
H383 H 0.74452 0.00855 0.49778 0.0
C384 C 0.8032 0.99597 0.44327 0.0
N385 N 0.8329 0.99948 0.44878 0.0
C386 C 0.81322 0.99975 0.42238 0.0
C387 C 0.80829 0.99394 0.46697 0.0
C388 C 0.82818 0.00148 0.42555 0.0
C389 C 0.82334 0.99578 0.46936 0.0
C390 C 0.74743 0.96008 0.43234 0.0
C391 C 0.75797 0.95981 0.41476 0.0
C392 C 0.73179 0.94775 0.43286 0.0
C393 C 0.75266 0.94716 0.39798 0.0
C394 C 0.72694 0.9353 0.41576 0.0
N395 N 0.73739 0.93527 0.39882 0.0
C396 C 0.7667 0.94976 0.48788 0.0
C397 C 0.78394 0.95571 0.45288 0.0
C398 C 0.7669 0.93581 0.4924 0.0
N399 N 0.77514 0.95936 0.46841 0.0
C400 C 0.78463 0.94196 0.4569 0.0
C401 C 0.77596 0.93177 0.4768 0.0
H402 H 0.7597 0.95292 0.49974 0.0
H403 H 0.79027 0.96334 0.43717 0.0
C404 C 0.77815 0.00347 0.38396 0.0
N405 N 0.7649 0.99449 0.39775 0.0
C406 C 0.77723 0.00447 0.35777 0.0
C407 C 0.74893 0.98744 0.36056 0.0
C408 C 0.75042 0.98665 0.38671 0.0
C409 C 0.7625 0.99623 0.34574 0.0
H410 H 0.78948 0.00962 0.3933 0.0
H411 H 0.74007 0.97948 0.3981 0.0
O412 O 0.77413 0.98897 0.49465 0.0
O413 O 0.76772 0.00895 0.45486 0.0
O414 O 0.78855 0.99432 0.44034 0.0
O415 O 0.75226 0.97233 0.44898 0.0
H416 H 0.77385 0.01559 0.50336 0.0
H417 H 0.7758 0.97683 0.53828 0.0
H418 H 0.77478 0.02659 0.54591 0.0
H419 H 0.77675 0.98856 0.58031 0.0
H420 H 0.71909 0.99617 0.4251 0.0
H421 H 0.77301 0.03784 0.44755 0.0
H422 H 0.73809 0.98861 0.44161 0.0
H423 H 0.75332 0.04456 0.43096 0.0
H424 H 0.83193 0.0405 0.52154 0.0
H425 H 0.82571 0.06068 0.45261 0.0
H426 H 0.70841 0.95282 0.52018 0.0
H427 H 0.72122 0.00196 0.52415 0.0
H428 H 0.80946 0.00131 0.40389 0.0
H429 H 0.80072 0.99093 0.48335 0.0
H430 H 0.83605 0.0044 0.40954 0.0
H431 H 0.82742 0.99425 0.48759 0.0
H432 H 0.7701 0.96926 0.41396 0.0
H433 H 0.72349 0.9478 0.44633 0.0
H434 H 0.76069 0.9468 0.38428 0.0
H435 H 0.71487 0.92568 0.41595 0.0
H436 H 0.76013 0.92831 0.50803 0.0
H437 H 0.79158 0.93914 0.44426 0.0
H438 H 0.78794 0.01153 0.34702 0.0
H439 H 0.73738 0.98082 0.35194 0.0
Li440 Li 0.99238 0.77681 0.46693 0.0
Li441 Li 0.00864 0.76445 0.47166 0.0
Li442 Li 0.02126 0.79338 0.46113 0.0
Li443 Li 0.00603 0.77272 0.4298 0.0
C444 C 0.00681 0.78715 0.51442 0.0
N445 N 0.00174 0.79784 0.55986 0.0
C446 C 0.00056 0.77691 0.53505 0.0
C447 C 0.01077 0.80292 0.51708 0.0
C448 C 0.99799 0.7825 0.55781 0.0
C449 C 0.00804 0.80807 0.54015 0.0
C450 C 0.98087 0.74094 0.4569 0.0
C451 C 0.97731 0.71487 0.45173 0.0
N452 N 0.96503 0.70912 0.46831 0.0
C453 C 0.96813 0.73475 0.4737 0.0
C454 C 0.98542 0.73091 0.44563 0.0
C455 C 0.96031 0.71863 0.47929 0.0
C456 C 0.9675 0.78301 0.46068 0.0
N457 N 0.97378 0.777 0.47724 0.0
C458 C 0.95321 0.77132 0.50704 0.0
C459 C 0.96684 0.77105 0.49999 0.0
C460 C 0.94676 0.77787 0.49055 0.0
C461 C 0.95406 0.78375 0.4671 0.0
H462 H 0.97288 0.78716 0.44235 0.0
H463 H 0.97173 0.76588 0.51251 0.0
C464 C 0.02569 0.74983 0.4864 0.0
N465 N 0.01192 0.74972 0.49058 0.0
C466 C 0.02952 0.74022 0.50062 0.0
C467 C 0.00488 0.73038 0.52322 0.0
C468 C 0.00151 0.7402 0.50847 0.0
C469 C 0.01913 0.73042 0.51951 0.0
H470 H 0.03393 0.75773 0.47247 0.0
H471 H 0.99072 0.74043 0.51166 0.0
C472 C 0.00554 0.8056 0.43204 0.0
N473 N 0.00835 0.83424 0.41885 0.0
C474 C 0.00899 0.811 0.40709 0.0
C475 C 0.0033 0.81466 0.45018 0.0
C476 C 0.01043 0.82554 0.40082 0.0
C477 C 0.00482 0.82913 0.44317 0.0
C478 C 0.03532 0.77679 0.4287 0.0
C479 C 0.04825 0.79076 0.41991 0.0
C480 C 0.03214 0.76235 0.41839 0.0
C481 C 0.05763 0.79006 0.4006 0.0
C482 C 0.04178 0.76215 0.39908 0.0
N483 N 0.05421 0.77589 0.39065 0.0
C484 C 0.04738 0.81562 0.48851 0.0
C485 C 0.04437 0.82517 0.44892 0.0
C486 C 0.06095 0.82999 0.49357 0.0
N487 N 0.03934 0.81353 0.46658 0.0
C488 C 0.05782 0.83976 0.45326 0.0
C489 C 0.06634 0.84234 0.47585 0.0
H490 H 0.04328 0.80605 0.502 0.0
H491 H 0.03811 0.82309 0.43128 0.0
C492 C 0.99154 0.75503 0.38572 0.0
N493 N 0.00435 0.76825 0.39463 0.0
C494 C 0.98974 0.752 0.35978 0.0
C495 C 0.01448 0.77608 0.35278 0.0
C496 C 0.0157 0.77875 0.37878 0.0
C497 C 0.00129 0.76265 0.34299 0.0
H498 H 0.98259 0.74698 0.39872 0.0
H499 H 0.02554 0.78938 0.38628 0.0
O500 O 0.00947 0.78186 0.49203 0.0
O501 O 0.98877 0.75671 0.45137 0.0
O502 O 0.00418 0.79141 0.43851 0.0
O503 O 0.02592 0.77725 0.44746 0.0
H504 H 0.9976 0.76472 0.53347 0.0
H505 H 0.01607 0.81115 0.50164 0.0
H506 H 0.99303 0.77466 0.57385 0.0
H507 H 0.01102 0.82024 0.54242 0.0
H508 H 0.98076 0.707 0.44327 0.0
H509 H 0.96438 0.7423 0.48243 0.0
H510 H 0.99511 0.73548 0.43236 0.0
H511 H 0.95048 0.7137 0.49237 0.0
H512 H 0.94783 0.76658 0.52525 0.0
H513 H 0.94923 0.78858 0.45367 0.0
H514 H 0.04078 0.7409 0.49745 0.0
H515 H 0.99651 0.72295 0.5375 0.0
H516 H 0.0106 0.80409 0.39273 0.0
H517 H 0.00018 0.81048 0.46937 0.0
H518 H 0.01319 0.82991 0.38162 0.0
H519 H 0.00313 0.83626 0.45704 0.0
H520 H 0.05097 0.80202 0.42779 0.0
H521 H 0.0223 0.75143 0.42516 0.0
H522 H 0.06762 0.80078 0.39351 0.0
H523 H 0.03939 0.75107 0.39082 0.0
H524 H 0.0673 0.83129 0.511 0.0
H525 H 0.06144 0.84894 0.4391 0.0
H526 H 0.97939 0.74151 0.35289 0.0
H527 H 0.02349 0.78472 0.3404 0.0
Li528 Li 0.77156 0.7946 0.96108 0.0
Li529 Li 0.78346 0.77869 0.96429 0.0
Li530 Li 0.76559 0.77511 0.92913 0.0
Li531 Li 0.75543 0.76777 0.97332 0.0
C532 C 0.8012 0.80656 0.93816 0.0
N533 N 0.83129 0.83234 0.94118 0.0
C534 C 0.80706 0.81411 0.96133 0.0
C535 C 0.81064 0.81211 0.91655 0.0
C536 C 0.8223 0.82712 0.96245 0.0
C537 C 0.82583 0.82517 0.91846 0.0
C538 C 0.77546 0.77851 0.01432 0.0
C539 C 0.77499 0.75728 0.03826 0.0
N540 N 0.77887 0.76629 0.05948 0.0
C541 C 0.77942 0.78755 0.03635 0.0
C542 C 0.77321 0.76323 0.01525 0.0
C543 C 0.78109 0.78116 0.059 0.0
C544 C 0.76862 0.81707 0.98939 0.0
N545 N 0.77423 0.81498 0.96711 0.0
C546 C 0.78117 0.84095 0.95355 0.0
C547 C 0.78058 0.82658 0.94936 0.0
C548 C 0.77511 0.84333 0.97618 0.0
C549 C 0.76893 0.83121 0.99433 0.0
H550 H 0.76357 0.80757 0.00308 0.0
H551 H 0.78476 0.82451 0.93166 0.0
C552 C 0.80618 0.76981 0.95598 0.0
N553 N 0.80206 0.77797 0.97202 0.0
C554 C 0.81999 0.76923 0.96005 0.0
C555 C 0.82497 0.78537 0.99724 0.0
C556 C 0.81115 0.78575 0.99231 0.0
C557 C 0.82962 0.77709 0.98093 0.0
H558 H 0.79879 0.76389 0.93982 0.0
H559 H 0.80776 0.79236 0.0046 0.0
C560 C 0.74387 0.78856 0.9451 0.0
N561 N 0.73185 0.80873 0.94134 0.0
C562 C 0.73355 0.78836 0.96356 0.0
C563 C 0.74798 0.79893 0.92461 0.0
C564 C 0.72763 0.79867 0.96135 0.0
C565 C 0.7418 0.80905 0.92307 0.0
C566 C 0.75624 0.74346 0.94406 0.0
C567 C 0.74255 0.73933 0.93018 0.0
C568 C 0.76029 0.732 0.94983 0.0
C569 C 0.73309 0.72371 0.92235 0.0
C570 C 0.75049 0.7165 0.94172 0.0
N571 N 0.73722 0.71272 0.92825 0.0
C572 C 0.77211 0.76668 0.88199 0.0
C573 C 0.74985 0.77027 0.88203 0.0
C574 C 0.77054 0.76376 0.85602 0.0
N575 N 0.76194 0.77003 0.8943 0.0
C576 C 0.748 0.76766 0.85601 0.0
C577 C 0.75852 0.76451 0.84268 0.0
H578 H 0.78159 0.76655 0.89233 0.0
H579 H 0.74176 0.77266 0.89239 0.0
C580 C 0.73638 0.76238 0.01488 0.0
N581 N 0.73826 0.75451 0.99527 0.0
C582 C 0.72414 0.75449 0.03217 0.0
C583 C 0.71578 0.7304 0.00886 0.0
C584 C 0.72839 0.73875 0.99218 0.0
C585 C 0.71343 0.73831 0.02912 0.0
H586 H 0.74437 0.77492 0.01695 0.0
H587 H 0.73007 0.7326 0.97672 0.0
O588 O 0.78635 0.79373 0.93649 0.0
O589 O 0.77375 0.7847 0.9921 0.0
O590 O 0.75012 0.77884 0.94728 0.0
O591 O 0.76592 0.75872 0.95144 0.0
H592 H 0.79994 0.81 0.97827 0.0
H593 H 0.80628 0.80637 0.89849 0.0
H594 H 0.82698 0.83307 0.98025 0.0
H595 H 0.83327 0.8296 0.90188 0.0
H596 H 0.77329 0.74549 0.03926 0.0
H597 H 0.78118 0.79938 0.03593 0.0
H598 H 0.77012 0.75602 0.99847 0.0
H599 H 0.78416 0.78804 0.0762 0.0
H600 H 0.78587 0.84991 0.93893 0.0
H601 H 0.76433 0.83262 0.01216 0.0
H602 H 0.8232 0.76294 0.9467 0.0
H603 H 0.83187 0.79144 0.01375 0.0
H604 H 0.7302 0.78039 0.97949 0.0
H605 H 0.75614 0.79941 0.91035 0.0
H606 H 0.71969 0.7987 0.97557 0.0
H607 H 0.745 0.81724 0.90745 0.0
H608 H 0.73915 0.74802 0.9258 0.0
H609 H 0.7709 0.73506 0.96045 0.0
H610 H 0.72244 0.72032 0.91167 0.0
H611 H 0.75346 0.70749 0.94609 0.0
H612 H 0.77894 0.76145 0.84633 0.0
H613 H 0.73848 0.76816 0.84637 0.0
H614 H 0.72311 0.76108 0.04776 0.0
H615 H 0.70779 0.71797 0.00554 0.0
Li616 Li 0.22 0.0055 0.96608 0.0
Li617 Li 0.22269 0.99108 0.93072 0.0
Li618 Li 0.20332 0.97725 0.96434 0.0
Li619 Li 0.23165 0.98864 0.97168 0.0
C620 C 0.19764 0.00187 0.93379 0.0
N621 N 0.18577 0.02146 0.92196 0.0
C622 C 0.20219 0.01066 0.9114 0.0
C623 C 0.18696 0.00296 0.95007 0.0
C624 C 0.19606 0.0205 0.90577 0.0
C625 C 0.18113 0.01297 0.94379 0.0
C626 C 0.25506 0.01599 0.95778 0.0
C627 C 0.28119 0.01927 0.95708 0.0
N628 N 0.28608 0.03136 0.9738 0.0
C629 C 0.26035 0.02847 0.9749 0.0
C630 C 0.26556 0.01137 0.94869 0.0
C631 C 0.27608 0.0361 0.98278 0.0
C632 C 0.2171 0.02708 0.99862 0.0
N633 N 0.22109 0.0248 0.97501 0.0
C634 C 0.22594 0.05019 0.96178 0.0
C635 C 0.22577 0.03611 0.95685 0.0
C636 C 0.22165 0.05278 0.98584 0.0
C637 C 0.21739 0.04113 0.00453 0.0
H638 H 0.21363 0.01796 0.01278 0.0
H639 H 0.22919 0.03408 0.93841 0.0
C640 C 0.21293 0.98305 0.88063 0.0
N641 N 0.22585 0.99162 0.8953 0.0
C642 C 0.21436 0.98343 0.85439 0.0
C643 C 0.24239 0.00143 0.8588 0.0
C644 C 0.24042 0.00068 0.88503 0.0
C645 C 0.22921 0.99283 0.84312 0.0
H646 H 0.20148 0.97605 0.88939 0.0
H647 H 0.25045 0.00751 0.89717 0.0
C648 C 0.2069 0.98222 0.01357 0.0
N649 N 0.18767 0.96478 0.05324 0.0
C650 C 0.21068 0.9726 0.02802 0.0
C651 C 0.1934 0.98307 0.01941 0.0
C652 C 0.2008 0.96386 0.04799 0.0
C653 C 0.1838 0.97412 0.03949 0.0
C654 C 0.21702 0.9621 0.92887 0.0
C655 C 0.20225 0.95073 0.91975 0.0
C656 C 0.23072 0.9643 0.91688 0.0
C657 C 0.20143 0.94179 0.89864 0.0
C658 C 0.2294 0.95515 0.89579 0.0
N659 N 0.2149 0.94418 0.88719 0.0
C660 C 0.16984 0.95866 0.96251 0.0
C661 C 0.18283 0.94747 0.98505 0.0
C662 C 0.15519 0.94524 0.967 0.0
N663 N 0.18324 0.95952 0.97163 0.0
C664 C 0.16845 0.93394 0.99026 0.0
C665 C 0.1544 0.93268 0.98106 0.0
H666 H 0.17053 0.96828 0.95144 0.0
H667 H 0.19373 0.94831 0.99143 0.0
C668 C 0.25432 0.99463 0.01018 0.0
N669 N 0.2463 0.98523 0.9903 0.0
C670 C 0.26331 0.99066 0.0259 0.0
C671 C 0.25575 0.96759 0.00011 0.0
C672 C 0.24704 0.97206 0.98483 0.0
C673 C 0.26374 0.97676 0.02126 0.0
H674 H 0.25318 0.00481 0.01447 0.0
H675 H 0.24032 0.96463 0.96923 0.0
O676 O 0.2037 0.99236 0.93985 0.0
O677 O 0.23966 0.00825 0.95007 0.0
O678 O 0.21629 0.99069 0.9937 0.0
O679 O 0.21808 0.97121 0.94918 0.0
H680 H 0.21051 0.01004 0.89865 0.0
H681 H 0.18335 0.99627 0.96749 0.0
H682 H 0.19954 0.02743 0.88858 0.0
H683 H 0.17295 0.01401 0.9563 0.0
H684 H 0.28942 0.01576 0.95033 0.0
H685 H 0.25237 0.03218 0.98218 0.0
H686 H 0.26162 0.00166 0.93556 0.0
H687 H 0.28033 0.04574 0.9961 0.0
H688 H 0.22952 0.05901 0.94702 0.0
H689 H 0.21401 0.04274 0.0233 0.0
H690 H 0.20392 0.97645 0.84306 0.0
H691 H 0.25401 0.00897 0.8509 0.0
H692 H 0.22103 0.97174 0.02374 0.0
H693 H 0.19029 0.99044 0.00841 0.0
H694 H 0.20353 0.9563 0.05925 0.0
H695 H 0.17327 0.97459 0.04412 0.0
H696 H 0.19153 0.94892 0.92871 0.0
H697 H 0.24225 0.97314 0.9236 0.0
H698 H 0.19008 0.93299 0.89131 0.0
H699 H 0.2399 0.9568 0.88622 0.0
H700 H 0.1446 0.9447 0.95961 0.0
H701 H 0.16836 0.92439 0.00079 0.0
H702 H 0.26915 0.99791 0.04223 0.0
H703 H 0.25586 0.95682 0.99587 0.0
Li704 Li 0.00643 0.22941 0.93153 0.0
Li705 Li 0.01011 0.23987 0.9729 0.0
Li706 Li 0.02094 0.22351 0.96299 0.0
Li707 Li 0.99217 0.21235 0.96699 0.0
C708 C 0.03914 0.24854 0.93172 0.0
N709 N 0.06422 0.2574 0.89901 0.0
C710 C 0.05187 0.26398 0.93202 0.0
C711 C 0.03918 0.23759 0.91482 0.0
C712 C 0.06443 0.26823 0.91531 0.0
C713 C 0.05197 0.2423 0.89843 0.0
C714 C 0.98703 0.24139 0.94435 0.0
C715 C 0.96851 0.25016 0.93489 0.0
N716 N 0.98062 0.26417 0.92657 0.0
C717 C 0.99929 0.25588 0.93572 0.0
C718 C 0.97152 0.23849 0.94394 0.0
C719 C 0.9958 0.26723 0.9268 0.0
C720 C 0.99171 0.22001 0.8848 0.0
N721 N 0.00417 0.23222 0.89649 0.0
C722 C 0.01268 0.24649 0.85756 0.0
C723 C 0.0144 0.24547 0.88359 0.0
C724 C 0.0001 0.23389 0.84473 0.0
C725 C 0.98936 0.22064 0.8589 0.0
H726 H 0.98364 0.20972 0.89565 0.0
H727 H 0.02406 0.25518 0.89337 0.0
C728 C 0.03057 0.26663 0.99901 0.0
N729 N 0.01515 0.25817 0.9922 0.0
C730 C 0.03597 0.28024 0.01345 0.0
C731 C 0.0095 0.27626 0.0137 0.0
C732 C 0.00457 0.26261 0.99929 0.0
C733 C 0.02544 0.28532 0.02086 0.0
H734 H 0.03864 0.26265 0.99336 0.0
H735 H 0.99231 0.25554 0.99388 0.0
C736 C 0.0013 0.19353 0.94104 0.0
N737 N 0.99561 0.16294 0.94382 0.0
C738 C 0.00225 0.18722 0.96427 0.0
C739 C 0.99742 0.18429 0.91926 0.0
C740 C 0.99934 0.17172 0.96527 0.0
C741 C 0.9946 0.16884 0.92104 0.0
C742 C 0.00637 0.22653 0.01688 0.0
C743 C 0.01838 0.23189 0.03494 0.0
C744 C 0.99231 0.22631 0.02256 0.0
C745 C 0.01616 0.23709 0.05835 0.0
C746 C 0.99053 0.23158 0.04619 0.0
N747 N 0.0024 0.23684 0.06344 0.0
C748 C 0.04905 0.23045 0.98638 0.0
C749 C 0.04171 0.21098 0.9546 0.0
C750 C 0.06283 0.23002 0.99133 0.0
N751 N 0.03874 0.22089 0.96852 0.0
C752 C 0.05542 0.21022 0.95884 0.0
C753 C 0.06617 0.2198 0.97748 0.0
H754 H 0.04668 0.23865 0.99643 0.0
H755 H 0.0336 0.20384 0.93993 0.0
C756 C 0.96229 0.18703 0.95666 0.0
N757 N 0.973 0.19394 0.97553 0.0
C758 C 0.94822 0.17298 0.96109 0.0
C759 C 0.9564 0.17355 0.00441 0.0
C760 C 0.97043 0.18748 0.99904 0.0
C761 C 0.94514 0.1661 0.98525 0.0
H762 H 0.9648 0.19238 0.93807 0.0
H763 H 0.97933 0.19302 0.01352 0.0
O764 O 0.02685 0.24429 0.94815 0.0
O765 O 0.99006 0.23006 0.95337 0.0
O766 O 0.0039 0.2086 0.93954 0.0
O767 O 0.00845 0.22179 0.99356 0.0
H768 H 0.05201 0.27258 0.94503 0.0
H769 H 0.02945 0.2256 0.91423 0.0
H770 H 0.07435 0.28014 0.91532 0.0
H771 H 0.05215 0.23396 0.88524 0.0
H772 H 0.95656 0.24808 0.93449 0.0
H773 H 0.01138 0.2584 0.93601 0.0
H774 H 0.9619 0.22734 0.9506 0.0
H775 H 0.00517 0.2785 0.92009 0.0
H776 H 0.02138 0.25689 0.84759 0.0
H777 H 0.97923 0.2108 0.85013 0.0
H778 H 0.04827 0.28658 0.01903 0.0
H779 H 0.00098 0.27976 0.01891 0.0
H780 H 0.00521 0.19418 0.98135 0.0
H781 H 0.99658 0.18901 0.90116 0.0
H782 H 3e-05 0.16668 0.98311 0.0
H783 H 0.99159 0.16155 0.90433 0.0
H784 H 0.0293 0.23206 0.03097 0.0
H785 H 0.98295 0.22235 0.00869 0.0
H786 H 0.02538 0.24132 0.07248 0.0
H787 H 0.97975 0.23158 0.05077 0.0
H788 H 0.07097 0.23788 0.00545 0.0
H789 H 0.05755 0.20219 0.94771 0.0
H790 H 0.93978 0.16762 0.94587 0.0
H791 H 0.95453 0.16847 0.02318 0.0
Li792 Li 0.77778 0.78426 0.52996 0.0
Li793 Li 0.79468 0.77172 0.53523 0.0
Li794 Li 0.76758 0.75658 0.52376 0.0
Li795 Li 0.77346 0.76622 0.56598 0.0
C796 C 0.78154 0.76802 0.48078 0.0
N797 N 0.77372 0.75385 0.43383 0.0
C798 C 0.7893 0.76038 0.47138 0.0
C799 C 0.76987 0.76856 0.46626 0.0
C800 C 0.78516 0.75326 0.4476 0.0
C801 C 0.76607 0.7613 0.44258 0.0
C802 C 0.80494 0.80014 0.56641 0.0
C803 C 0.82321 0.81535 0.59947 0.0
N804 N 0.8305 0.82783 0.58338 0.0
C805 C 0.81253 0.81315 0.55026 0.0
C806 C 0.81024 0.80127 0.59128 0.0
C807 C 0.82546 0.82702 0.55917 0.0
C808 C 0.77502 0.81065 0.54046 0.0
N809 N 0.77764 0.80297 0.52138 0.0
C810 C 0.78021 0.82251 0.49162 0.0
C811 C 0.78032 0.80861 0.49733 0.0
C812 C 0.77748 0.83073 0.51093 0.0
C813 C 0.77494 0.82464 0.53567 0.0
H814 H 0.7731 0.80593 0.55946 0.0
H815 H 0.78256 0.80235 0.48258 0.0
C816 C 0.81618 0.76083 0.52866 0.0
N817 N 0.81522 0.77419 0.53048 0.0
C818 C 0.83078 0.76173 0.52577 0.0
C819 C 0.84317 0.79015 0.525 0.0
C820 C 0.82832 0.7887 0.52833 0.0
C821 C 0.84451 0.77654 0.524 0.0
H822 H 0.80559 0.74941 0.52928 0.0
H823 H 0.82727 0.79914 0.52897 0.0
C824 C 0.74269 0.75584 0.55108 0.0
N825 N 0.71279 0.73407 0.56772 0.0
C826 C 0.73939 0.74084 0.55888 0.0
C827 C 0.73079 0.75977 0.55174 0.0
C828 C 0.7242 0.73 0.56724 0.0
C829 C 0.71574 0.7486 0.56021 0.0
C830 C 0.78498 0.74542 0.56682 0.0
C831 C 0.77939 0.72923 0.5686 0.0
C832 C 0.79707 0.75582 0.58285 0.0
C833 C 0.786 0.72369 0.58646 0.0
C834 C 0.80338 0.74982 0.60045 0.0
N835 N 0.79776 0.73402 0.60188 0.0
C836 C 0.75874 0.72821 0.49981 0.0
C837 C 0.74019 0.73679 0.49365 0.0
C838 C 0.74979 0.71492 0.48498 0.0
N839 N 0.75385 0.7388 0.50379 0.0
C840 C 0.73081 0.72359 0.47868 0.0
C841 C 0.73558 0.71242 0.47423 0.0
H842 H 0.76975 0.73024 0.50791 0.0
H843 H 0.73665 0.74548 0.49704 0.0
C844 C 0.76923 0.77593 0.61352 0.0
N845 N 0.76789 0.76326 0.60082 0.0
C846 C 0.76626 0.77497 0.63947 0.0
C847 C 0.76036 0.74785 0.6387 0.0
C848 C 0.7632 0.74926 0.6127 0.0
C849 C 0.76203 0.76086 0.6524 0.0
H850 H 0.77289 0.78688 0.60352 0.0
H851 H 0.76184 0.73923 0.60213 0.0
O852 O 0.78514 0.77469 0.50429 0.0
O853 O 0.79209 0.78652 0.55821 0.0
O854 O 0.75745 0.7667 0.54275 0.0
O855 O 0.77846 0.75092 0.54955 0.0
H856 H 0.79832 0.75982 0.48242 0.0
H857 H 0.76362 0.77427 0.47341 0.0
H858 H 0.791 0.74722 0.44014 0.0
H859 H 0.75698 0.7615 0.43122 0.0
H860 H 0.82747 0.81637 0.61864 0.0
H861 H 0.80862 0.81248 0.53094 0.0
H862 H 0.80438 0.79139 0.60416 0.0
H863 H 0.8315 0.83715 0.54683 0.0
H864 H 0.78206 0.82663 0.47224 0.0
H865 H 0.77311 0.83069 0.55127 0.0
H866 H 0.83131 0.75096 0.52448 0.0
H867 H 0.8535 0.80178 0.5235 0.0
H868 H 0.74841 0.73753 0.55843 0.0
H869 H 0.73316 0.77134 0.54574 0.0
H870 H 0.72149 0.71835 0.57331 0.0
H871 H 0.70641 0.75148 0.5608 0.0
H872 H 0.77 0.72103 0.55636 0.0
H873 H 0.80158 0.76836 0.58166 0.0
H874 H 0.78177 0.71119 0.58807 0.0
H875 H 0.81275 0.75774 0.61296 0.0
H876 H 0.75411 0.70682 0.48165 0.0
H877 H 0.7199 0.72208 0.47088 0.0
H878 H 0.76774 0.78527 0.64945 0.0
H879 H 0.75693 0.73672 0.64802 0.0
Li880 Li 0.22481 0.02178 0.53499 0.0
Li881 Li 0.24068 0.01004 0.52277 0.0
Li882 Li 0.21162 0.9928 0.53169 0.0
Li883 Li 0.23064 0.00566 0.56612 0.0
C884 C 0.21589 0.01311 0.48518 0.0
N885 N 0.203 0.02197 0.44636 0.0
C886 C 0.22535 0.02225 0.4651 0.0
C887 C 0.1998 0.00822 0.48522 0.0
C888 C 0.21864 0.02669 0.44574 0.0
C889 C 0.19352 0.01288 0.46551 0.0
C890 C 0.26132 0.03597 0.55019 0.0
C891 C 0.28728 0.04175 0.56336 0.0
N892 N 0.29365 0.05589 0.55124 0.0
C893 C 0.2681 0.05066 0.5382 0.0
C894 C 0.27097 0.03156 0.56315 0.0
C895 C 0.28447 0.06052 0.53881 0.0
C896 C 0.21438 0.04335 0.54745 0.0
N897 N 0.22291 0.04006 0.53077 0.0
C898 C 0.2303 0.06384 0.50793 0.0
C899 C 0.23088 0.05001 0.51138 0.0
C900 C 0.22148 0.06751 0.52471 0.0
C901 C 0.21339 0.05704 0.54465 0.0
H902 H 0.20853 0.03549 0.56316 0.0
H903 H 0.23792 0.04732 0.4988 0.0
C904 C 0.26185 0.00229 0.49766 0.0
N905 N 0.25756 0.01341 0.50111 0.0
C906 C 0.27403 0.00509 0.48088 0.0
C907 C 0.27689 0.03056 0.47131 0.0
C908 C 0.26476 0.02731 0.48832 0.0
C909 C 0.28163 0.01936 0.46734 0.0
H910 H 0.25568 0.99118 0.50761 0.0
H911 H 0.26095 0.03583 0.49115 0.0
C912 C 0.19564 0.00046 0.56863 0.0
N913 N 0.16533 0.98971 0.58629 0.0
C914 C 0.19081 0.9924 0.59168 0.0
C915 C 0.18513 0.00333 0.55485 0.0
C916 C 0.17542 0.98698 0.6002 0.0
C917 C 0.16984 0.99773 0.56401 0.0
C918 C 0.2332 0.97947 0.55303 0.0
C919 C 0.22139 0.96392 0.55775 0.0
C920 C 0.24876 0.98438 0.55997 0.0
C921 C 0.22531 0.95363 0.56983 0.0
C922 C 0.25221 0.97375 0.572 0.0
N923 N 0.24051 0.95872 0.57668 0.0
C924 C 0.18933 0.96946 0.49861 0.0
C925 C 0.18347 0.96463 0.54227 0.0
C926 C 0.17571 0.95534 0.49243 0.0
N927 N 0.19284 0.97386 0.52318 0.0
C928 C 0.16971 0.9505 0.53699 0.0
C929 C 0.16567 0.94564 0.51179 0.0
H930 H 0.19721 0.97682 0.48381 0.0
H931 H 0.18682 0.96807 0.56165 0.0
C932 C 0.24334 0.01634 0.61493 0.0
N933 N 0.23414 0.00333 0.6008 0.0
C934 C 0.24455 0.01498 0.64103 0.0
C935 C 0.22702 0.98684 0.63739 0.0
C936 C 0.22613 0.98875 0.61144 0.0
C937 C 0.23608 9e-05 0.65264 0.0
H938 H 0.24928 0.02784 0.60607 0.0
H939 H 0.21846 0.97868 0.59999 0.0
O940 O 0.2223 0.00876 0.50442 0.0
O941 O 0.24531 0.02612 0.54969 0.0
O942 O 0.21067 0.00578 0.55996 0.0
O943 O 0.22954 0.98972 0.54132 0.0
H944 H 0.23777 0.02595 0.46448 0.0
H945 H 0.1922 0.00074 0.50013 0.0
H946 H 0.22587 0.03387 0.4302 0.0
H947 H 0.18109 0.00921 0.46538 0.0
H948 H 0.29489 0.03845 0.57325 0.0
H949 H 0.26081 0.05437 0.52836 0.0
H950 H 0.26591 0.02046 0.57316 0.0
H951 H 0.28987 0.07187 0.52941 0.0
H952 H 0.23664 0.07154 0.49224 0.0
H953 H 0.20669 0.05957 0.55825 0.0
H954 H 0.27725 0.99609 0.47814 0.0
H955 H 0.28256 0.04178 0.46148 0.0
H956 H 0.1988 0.99024 0.60279 0.0
H957 H 0.18879 0.01 0.53746 0.0
H958 H 0.1715 0.98061 0.61789 0.0
H959 H 0.16159 -0.00016 0.55347 0.0
H960 H 0.20931 0.95985 0.55227 0.0
H961 H 0.2581 0.99623 0.55591 0.0
H962 H 0.21626 0.9416 0.57375 0.0
H963 H 0.26421 0.97742 0.57754 0.0
H964 H 0.17324 0.95193 0.47277 0.0
H965 H 0.16232 0.9435 0.55254 0.0
H966 H 0.25146 0.02554 0.65211 0.0
H967 H 0.22038 0.97513 0.6455 0.0
Li968 Li 0.98827 0.23158 0.52572 0.0
Li969 Li 0.99131 0.22464 0.56739 0.0
Li970 Li 0.0064 0.22227 0.53232 0.0
Li971 Li 0.97736 0.20428 0.53518 0.0
C972 C 0.0114 0.2563 0.55445 0.0
N973 N 0.01856 0.28601 0.57037 0.0
C974 C 0.99946 0.25892 0.5634 0.0
C975 C 0.02696 0.26877 0.55354 0.0
C976 C 0.00333 0.27403 0.57141 0.0
C977 C 0.03035 0.28372 0.56167 0.0
C978 C 0.95867 0.21079 0.5658 0.0
C979 C 0.94535 0.19104 0.59807 0.0
N980 N 0.93322 0.19408 0.59767 0.0
C981 C 0.94606 0.21369 0.56567 0.0
C982 C 0.95832 0.19935 0.5821 0.0
C983 C 0.9333 0.20513 0.58194 0.0
C984 C 0.96827 0.23917 0.5003 0.0
N985 N 0.98371 0.24528 0.50645 0.0
C986 C 0.99055 0.26916 0.48426 0.0
C987 C 0.99486 0.25996 0.49878 0.0
C988 C 0.97463 0.26314 0.47762 0.0
C989 C 0.96346 0.2479 0.48581 0.0
H990 H 0.95972 0.22738 0.50642 0.0
H991 H 0.00711 0.26447 0.50372 0.0
C992 C 0.00442 0.22889 0.61562 0.0
N993 N 0.99263 0.22925 0.60256 0.0
C994 C 0.00562 0.23118 0.64176 0.0
C995 C 0.98263 0.23433 0.64047 0.0
C996 C 0.98204 0.23226 0.6143 0.0
C997 C 0.99446 0.23365 0.65449 0.0
H998 H 0.01272 0.22656 0.60573 0.0
H999 H 0.97297 0.23283 0.60348 0.0
C1000 C 0.99072 0.22139 0.48178 0.0
N1001 N 0.99122 0.23427 0.43505 0.0
C1002 C 0.97736 0.21443 0.46634 0.0
C1003 C 0.00439 0.23483 0.47339 0.0
C1004 C 0.97783 0.22115 0.4428 0.0
C1005 C 0.00439 0.24118 0.44971 0.0
C1006 C 0.99775 0.19476 0.55986 0.0
C1007 C 0.99888 0.18793 0.53733 0.0
C1008 C 0.00068 0.18972 0.58291 0.0
C1009 C 0.00287 0.17608 0.53829 0.0
C1010 C 0.0046 0.17782 0.58307 0.0
N1011 N 0.00561 0.17131 0.56095 0.0
C1012 C 0.03625 0.22679 0.5437 0.0
C1013 C 0.02895 0.22038 0.50077 0.0
C1014 C 0.05052 0.22716 0.53945 0.0
N1015 N 0.02586 0.22346 0.52447 0.0
C1016 C 0.04316 0.2208 0.49559 0.0
C1017 C 0.05417 0.22417 0.51509 0.0
H1018 H 0.03332 0.22893 0.56245 0.0
H1019 H 0.02034 0.21747 0.48593 0.0
C1020 C 0.94774 0.1837 0.51572 0.0
N1021 N 0.95961 0.18382 0.52922 0.0
C1022 C 0.93385 0.16955 0.511 0.0
C1023 C 0.94456 0.15581 0.53437 0.0
C1024 C 0.9582 0.17027 0.53884 0.0
C1025 C 0.93212 0.1553 0.52028 0.0
H1026 H 0.94897 0.19471 0.509 0.0
H1027 H 0.96749 0.17061 0.55027 0.0
O1028 O 0.00794 0.24173 0.54596 0.0
O1029 O 0.97113 0.21904 0.54973 0.0
O1030 O 0.99038 0.21528 0.5052 0.0
O1031 O 0.99421 0.20662 0.55938 0.0
H1032 H 0.98733 0.24946 0.56392 0.0
H1033 H 0.03631 0.26692 0.54648 0.0
H1034 H 0.99422 0.27625 0.57835 0.0
H1035 H 0.04234 0.29349 0.56101 0.0
H1036 H 0.94493 0.18217 0.61079 0.0
H1037 H 0.94613 0.22248 0.55311 0.0
H1038 H 0.96792 0.19688 0.58251 0.0
H1039 H 0.92347 0.20727 0.58205 0.0
H1040 H 0.99954 0.28087 0.47845 0.0
H1041 H 0.95112 0.24261 0.48069 0.0
H1042 H 0.01486 0.23051 0.65201 0.0
H1043 H 0.97392 0.23637 0.64967 0.0
H1044 H 0.96671 0.204 0.4725 0.0
H1045 H 0.01477 0.24048 0.48526 0.0
H1046 H 0.96754 0.21593 0.43069 0.0
H1047 H 0.01484 0.25165 0.44306 0.0
H1048 H 0.99667 0.19173 0.51932 0.0
H1049 H -9e-05 0.19496 0.60048 0.0
H1050 H 0.00378 0.17068 0.52102 0.0
H1051 H 0.00687 0.17377 0.60078 0.0
H1052 H 0.05845 0.22948 0.5552 0.0
H1053 H 0.04548 0.21859 0.47646 0.0
H1054 H 0.92446 0.16984 0.50062 0.0
H1055 H 0.94383 0.14516 0.54183 0.0
Li1056 Li 0.89939 0.55872 0.40152 0.0
Li1057 Li 0.89405 0.53761 0.37202 0.0
Li1058 Li 0.90999 0.56558 0.35889 0.0
Li1059 Li 0.8815 0.55356 0.36574 0.0
C1060 C 0.92053 0.54744 0.40235 0.0
N1061 N 0.93164 0.53399 0.43674 0.0
C1062 C 0.91037 0.53673 0.42041 0.0
C1063 C 0.93637 0.55135 0.40187 0.0
C1064 C 0.9162 0.53005 0.43761 0.0
C1065 C 0.94175 0.54442 0.41939 0.0
C1066 C 0.86569 0.52546 0.39933 0.0
C1067 C 0.84195 0.50254 0.38478 0.0
N1068 N 0.83901 0.4967 0.40875 0.0
C1069 C 0.86238 0.51929 0.42386 0.0
C1070 C 0.85536 0.51708 0.37965 0.0
C1071 C 0.84886 0.50471 0.42822 0.0
C1072 C 0.88946 0.56103 0.44987 0.0
N1073 N 0.90254 0.56457 0.43612 0.0
C1074 C 0.91883 0.57461 0.47279 0.0
C1075 C 0.91709 0.57139 0.4469 0.0
C1076 C 0.90545 0.57073 0.48766 0.0
C1077 C 0.89063 0.56398 0.47579 0.0
H1078 H 0.87804 0.55561 0.44073 0.0
H1079 H 0.92732 0.57411 0.4355 0.0
C1080 C 0.89916 0.51587 0.34598 0.0
N1081 N 0.8922 0.51744 0.36714 0.0
C1082 C 0.89865 0.50164 0.3408 0.0
C1083 C 0.88385 0.49088 0.37936 0.0
C1084 C 0.88476 0.50536 0.38389 0.0
C1085 C 0.89086 0.48885 0.35756 0.0
H1086 H 0.9052 0.52575 0.33317 0.0
H1087 H 0.87961 0.50692 0.40088 0.0
C1088 C 0.90897 0.58937 0.3862 0.0
N1089 N 0.92979 0.61955 0.40274 0.0
C1090 C 0.90409 0.60052 0.38816 0.0
C1091 C 0.92444 0.59356 0.39264 0.0
C1092 C 0.91479 0.61572 0.39656 0.0
C1093 C 0.93479 0.60887 0.40097 0.0
C1094 C 0.88615 0.54364 0.3173 0.0
C1095 C 0.89101 0.55496 0.2981 0.0
C1096 C 0.87474 0.52801 0.31217 0.0
C1097 C 0.88405 0.55053 0.27424 0.0
C1098 C 0.86807 0.52405 0.28806 0.0
N1099 N 0.8728 0.5353 0.26976 0.0
C1100 C 0.93929 0.57637 0.33633 0.0
C1101 C 0.92776 0.59205 0.32646 0.0
C1102 C 0.95246 0.58598 0.32153 0.0
N1103 N 0.92734 0.57955 0.33851 0.0
C1104 C 0.94067 0.60191 0.31119 0.0
C1105 C 0.95324 0.59891 0.30866 0.0
H1106 H 0.9385 0.56623 0.34591 0.0
H1107 H 0.91803 0.59426 0.32855 0.0
C1108 C 0.85121 0.54899 0.3738 0.0
N1109 N 0.86271 0.55357 0.35599 0.0
C1110 C 0.83721 0.5489 0.36837 0.0
C1111 C 0.84727 0.55875 0.32654 0.0
C1112 C 0.86109 0.55861 0.33279 0.0
C1113 C 0.83509 0.55385 0.34447 0.0
H1114 H 0.85294 0.54548 0.39236 0.0
H1115 H 0.8706 0.5628 0.31928 0.0
O1116 O 0.91514 0.55422 0.38538 0.0
O1117 O 0.87898 0.53965 0.39473 0.0
O1118 O 0.89858 0.57445 0.37798 0.0
O1119 O 0.89294 0.54775 0.3407 0.0
H1120 H 0.89813 0.53367 0.42128 0.0
H1121 H 0.94444 0.55971 0.38815 0.0
H1122 H 0.90845 0.52175 0.45167 0.0
H1123 H 0.95398 0.54734 0.41922 0.0
H1124 H 0.83387 0.49592 0.36971 0.0
H1125 H 0.87026 0.52563 0.43932 0.0
H1126 H 0.85761 0.52181 0.36068 0.0
H1127 H 0.8462 0.49976 0.44708 0.0
H1128 H 0.93051 0.58001 0.48106 0.0
H1129 H 0.87997 0.56058 0.48651 0.0
H1130 H 0.90452 0.50079 0.32402 0.0
H1131 H 0.87759 0.48135 0.39274 0.0
H1132 H 0.89214 0.59745 0.38322 0.0
H1133 H 0.92846 0.58511 0.39122 0.0
H1134 H 0.91117 0.62448 0.39817 0.0
H1135 H 0.94679 0.61227 0.40602 0.0
H1136 H 0.89994 0.56707 0.30167 0.0
H1137 H 0.87117 0.51899 0.32655 0.0
H1138 H 0.88759 0.5592 0.25928 0.0
H1139 H 0.85917 0.51201 0.28386 0.0
H1140 H 0.96177 0.58311 0.31972 0.0
H1141 H 0.94087 0.61179 0.30161 0.0
H1142 H 0.82813 0.54494 0.38274 0.0
H1143 H 0.84629 0.56298 0.30808 0.0
Li1144 Li 0.46227 0.35607 0.36676 0.0
Li1145 Li 0.44238 0.34135 0.40142 0.0
Li1146 Li 0.44525 0.32766 0.3656 0.0
Li1147 Li 0.43249 0.34274 0.3598 0.0
C1148 C 0.46694 0.33059 0.39783 0.0
N1149 N 0.47676 0.30929 0.40926 0.0
C1150 C 0.45889 0.31889 0.41603 0.0
C1151 C 0.48001 0.3315 0.3855 0.0
C1152 C 0.46403 0.30822 0.42152 0.0
C1153 C 0.48479 0.32062 0.39154 0.0
C1154 C 0.44697 0.37169 0.39874 0.0
C1155 C 0.43408 0.38201 0.42503 0.0
N1156 N 0.44843 0.39411 0.43204 0.0
C1157 C 0.46158 0.38431 0.40603 0.0
C1158 C 0.43309 0.37059 0.40815 0.0
C1159 C 0.46208 0.39549 0.42295 0.0
C1160 C 0.48204 0.38507 0.34321 0.0
N1161 N 0.48193 0.37404 0.35896 0.0
C1162 C 0.50984 0.38951 0.36455 0.0
C1163 C 0.4954 0.376 0.36972 0.0
C1164 C 0.51039 0.40125 0.34849 0.0
C1165 C 0.49618 0.39885 0.33776 0.0
H1166 H 0.47107 0.38324 0.33522 0.0
H1167 H 0.49492 0.36716 0.38252 0.0
C1168 C 0.42711 0.32794 0.44789 0.0
N1169 N 0.43923 0.34096 0.43701 0.0
C1170 C 0.42497 0.32719 0.47406 0.0
C1171 C 0.44789 0.35322 0.47736 0.0
C1172 C 0.44969 0.35337 0.45119 0.0
C1173 C 0.43545 0.33995 0.48922 0.0
H1174 H 0.41928 0.31799 0.43629 0.0
H1175 H 0.45957 0.36332 0.44224 0.0
C1176 C 0.45035 0.33639 0.31629 0.0
N1177 N 0.45266 0.32266 0.27213 0.0
C1178 C 0.43723 0.32279 0.30703 0.0
C1179 C 0.46462 0.34308 0.30304 0.0
C1180 C 0.43865 0.316 0.2847 0.0
C1181 C 0.46555 0.33594 0.28075 0.0
C1182 C 0.40946 0.31718 0.382 0.0
C1183 C 0.40014 0.30383 0.36733 0.0
C1184 C 0.40227 0.32366 0.39673 0.0
C1185 C 0.38375 0.29725 0.36752 0.0
C1186 C 0.38585 0.31674 0.39641 0.0
N1187 N 0.37701 0.30379 0.38192 0.0
C1188 C 0.43366 0.29496 0.36701 0.0
C1189 C 0.45641 0.30881 0.34133 0.0
C1190 C 0.4331 0.28071 0.36191 0.0
N1191 N 0.44509 0.30861 0.35655 0.0
C1192 C 0.4563 0.29483 0.33572 0.0
C1193 C 0.44451 0.28051 0.34603 0.0
H1194 H 0.42513 0.29518 0.37973 0.0
H1195 H 0.46567 0.31986 0.33384 0.0
C1196 C 0.4184 0.35992 0.34275 0.0
N1197 N 0.41716 0.34547 0.34164 0.0
C1198 C 0.40839 0.36318 0.32843 0.0
C1199 C 0.3959 0.3366 0.3121 0.0
C1200 C 0.40619 0.33386 0.32672 0.0
C1201 C 0.39705 0.35149 0.31262 0.0
H1202 H 0.42751 0.3691 0.35414 0.0
H1203 H 0.40561 0.32258 0.32567 0.0
O1204 O 0.46177 0.34084 0.39169 0.0
O1205 O 0.44626 0.36067 0.38209 0.0
O1206 O 0.44925 0.34322 0.33812 0.0
O1207 O 0.42554 0.32384 0.38199 0.0
H1208 H 0.44867 0.31793 0.42557 0.0
H1209 H 0.4862 0.34031 0.37104 0.0
H1210 H 0.45787 0.29905 0.43546 0.0
H1211 H 0.49481 0.3211 0.38202 0.0
H1212 H 0.42344 0.38128 0.4325 0.0
H1213 H 0.47245 0.38538 0.39892 0.0
H1214 H 0.42168 0.3611 0.40234 0.0
H1215 H 0.47331 0.40526 0.42888 0.0
H1216 H 0.52045 0.39067 0.37302 0.0
H1217 H 0.49591 0.40765 0.32569 0.0
H1218 H 0.41546 0.31655 0.48234 0.0
H1219 H 0.45621 0.3634 0.48815 0.0
H1220 H 0.42618 0.31736 0.31726 0.0
H1221 H 0.47487 0.35362 0.30998 0.0
H1222 H 0.42863 0.3054 0.27741 0.0
H1223 H 0.47653 0.34095 0.27032 0.0
H1224 H 0.40551 0.29871 0.35565 0.0
H1225 H 0.40928 0.33389 0.40836 0.0
H1226 H 0.3764 0.28696 0.35615 0.0
H1227 H 0.38014 0.32166 0.4077 0.0
H1228 H 0.42401 0.27 0.37074 0.0
H1229 H 0.46532 0.29523 0.32334 0.0
H1230 H 0.40996 0.37494 0.329 0.0
H1231 H 0.3873 0.32723 0.30025 0.0
Li1232 Li 0.64288 0.10618 0.36585 0.0
Li1233 Li 0.65781 0.0997 0.39864 0.0
Li1234 Li 0.67084 0.11715 0.36482 0.0
Li1235 Li 0.65591 0.08993 0.35487 0.0
C1236 C 0.66762 0.13512 0.39828 0.0
N1237 N 0.68768 0.16646 0.40999 0.0
C1238 C 0.68088 0.13944 0.41338 0.0
C1239 C 0.66447 0.14671 0.38931 0.0
C1240 C 0.69091 0.15535 0.41902 0.0
C1241 C 0.67477 0.1625 0.39541 0.0
C1242 C 0.62471 0.0728 0.38677 0.0
C1243 C 0.60727 0.04476 0.39153 0.0
N1244 N 0.59623 0.04755 0.40212 0.0
C1245 C 0.61315 0.07537 0.39759 0.0
C1246 C 0.62173 0.05736 0.3836 0.0
C1247 C 0.59884 0.06245 0.40529 0.0
C1248 C 0.61569 0.1001 0.3393 0.0
N1249 N 0.62476 0.10786 0.35959 0.0
C1250 C 0.60688 0.11664 0.37159 0.0
C1251 C 0.62068 0.11605 0.37567 0.0
C1252 C 0.59717 0.10866 0.35085 0.0
C1253 C 0.60178 0.10034 0.33454 0.0
H1254 H 0.61919 0.09353 0.32705 0.0
H1255 H 0.62804 0.12192 0.39185 0.0
C1256 C 0.67196 0.09965 0.44537 0.0
N1257 N 0.65798 0.09534 0.43376 0.0
C1258 C 0.67252 0.0978 0.47148 0.0
C1259 C 0.64423 0.08678 0.47309 0.0
C1260 C 0.64425 0.08893 0.44701 0.0
C1261 C 0.65853 0.09149 0.48576 0.0
H1262 H 0.68276 0.10493 0.43444 0.0
H1263 H 0.63335 0.08585 0.43749 0.0
C1264 C 0.66423 0.11448 0.31509 0.0
N1265 N 0.68168 0.12904 0.27232 0.0
C1266 C 0.67647 0.11191 0.30768 0.0
C1267 C 0.66077 0.12436 0.30072 0.0
C1268 C 0.68519 0.11941 0.28601 0.0
C1269 C 0.66976 0.13164 0.27915 0.0
C1270 C 0.6783 0.08902 0.38542 0.0
C1271 C 0.69359 0.0914 0.38336 0.0
C1272 C 0.66636 0.07495 0.39586 0.0
C1273 C 0.69667 0.07965 0.39175 0.0
C1274 C 0.66991 0.0635 0.40405 0.0
N1275 N 0.68486 0.06606 0.40183 0.0
C1276 C 0.70377 0.13738 0.36165 0.0
C1277 C 0.68888 0.14834 0.34484 0.0
C1278 C 0.71786 0.15121 0.35621 0.0
N1279 N 0.68968 0.13622 0.35597 0.0
C1280 C 0.70267 0.16247 0.33937 0.0
C1281 C 0.71738 0.16401 0.3451 0.0
H1282 H 0.70406 0.12762 0.37067 0.0
H1283 H 0.67752 0.14711 0.34049 0.0
C1284 C 0.63811 0.06566 0.32208 0.0
N1285 N 0.65242 0.07292 0.3336 0.0
C1286 C 0.63419 0.05327 0.30534 0.0
C1287 C 0.65988 0.05604 0.31251 0.0
C1288 C 0.66334 0.06847 0.32909 0.0
C1289 C 0.64516 0.04833 0.3003 0.0
H1290 H 0.62974 0.06957 0.32591 0.0
H1291 H 0.67477 0.07466 0.33804 0.0
O1292 O 0.65786 0.11964 0.39211 0.0
O1293 O 0.63868 0.0853 0.37866 0.0
O1294 O 0.6557 0.1074 0.3364 0.0
O1295 O 0.67517 0.10044 0.37706 0.0
H1296 H 0.68352 0.13062 0.42036 0.0
H1297 H 0.65433 0.14358 0.37741 0.0
H1298 H 0.70129 0.15888 0.43052 0.0
H1299 H 0.67256 0.17161 0.38844 0.0
H1300 H 0.60483 0.03277 0.38923 0.0
H1301 H 0.61526 0.08722 0.40031 0.0
H1302 H 0.63046 0.05511 0.37507 0.0
H1303 H 0.58983 0.06429 0.41379 0.0
H1304 H 0.60389 0.12332 0.3845 0.0
H1305 H 0.59454 0.09381 0.31857 0.0
H1306 H 0.68384 0.10181 0.48046 0.0
H1307 H 0.63314 0.0817 0.48325 0.0
H1308 H 0.67932 0.10434 0.31872 0.0
H1309 H 0.65131 0.12645 0.30627 0.0
H1310 H 0.69476 0.1176 0.28011 0.0
H1311 H 0.66726 0.13936 0.26786 0.0
H1312 H 0.70298 0.10217 0.37524 0.0
H1313 H 0.65452 0.07292 0.39784 0.0
H1314 H 0.70844 0.08134 0.39022 0.0
H1315 H 0.66077 0.05258 0.41219 0.0
H1316 H 0.72899 0.15202 0.36114 0.0
H1317 H 0.70184 0.17205 0.33063 0.0
H1318 H 0.62264 0.04753 0.29659 0.0
H1319 H 0.66873 0.05272 0.30889 0.0
Li1320 Li 0.89878 0.57582 0.80803 0.0
Li1321 Li 0.88661 0.54707 0.80032 0.0
Li1322 Li 0.89124 0.56583 0.76469 0.0
Li1323 Li 0.86992 0.55936 0.79589 0.0
C1324 C 0.92302 0.57309 0.78447 0.0
N1325 N 0.95544 0.5906 0.7796 0.0
C1326 C 0.93249 0.56753 0.79474 0.0
C1327 C 0.93001 0.5875 0.7716 0.0
C1328 C 0.94887 0.57658 0.79212 0.0
C1329 C 0.94643 0.59619 0.76937 0.0
C1330 C 0.87601 0.55179 0.84959 0.0
C1331 C 0.85547 0.53349 0.87744 0.0
N1332 N 0.86579 0.53901 0.89712 0.0
C1333 C 0.88639 0.55739 0.8701 0.0
C1334 C 0.8604 0.53984 0.85327 0.0
C1335 C 0.881 0.55073 0.89398 0.0
C1336 C 0.9062 0.6021 0.83655 0.0
N1337 N 0.91232 0.59298 0.82904 0.0
C1338 C 0.9356 0.60841 0.85356 0.0
C1339 C 0.92668 0.59581 0.83723 0.0
C1340 C 0.92946 0.61789 0.86184 0.0
C1341 C 0.91459 0.61465 0.85305 0.0
H1342 H 0.89467 0.59945 0.8299 0.0
H1343 H 0.93113 0.58818 0.83153 0.0
C1344 C 0.88564 0.51873 0.78959 0.0
N1345 N 0.88661 0.52821 0.80906 0.0
C1346 C 0.88536 0.50456 0.79428 0.0
C1347 C 0.88718 0.51019 0.839 0.0
C1348 C 0.88753 0.52432 0.83343 0.0
C1349 C 0.88605 0.50005 0.81929 0.0
H1350 H 0.88509 0.52222 0.77037 0.0
H1351 H 0.88854 0.53212 0.84858 0.0
C1352 C 0.88731 0.59275 0.77019 0.0
N1353 N 0.88928 0.61795 0.74346 0.0
C1354 C 0.87376 0.59173 0.75949 0.0
C1355 C 0.9018 0.60668 0.76772 0.0
C1356 C 0.87502 0.60457 0.74592 0.0
C1357 C 0.90257 0.61926 0.75402 0.0
C1358 C 0.85894 0.53154 0.76557 0.0
C1359 C 0.8534 0.5292 0.74072 0.0
C1360 C 0.8507 0.51995 0.78383 0.0
C1361 C 0.83955 0.51529 0.73457 0.0
C1362 C 0.83691 0.5062 0.77693 0.0
N1363 N 0.83166 0.50418 0.75265 0.0
C1364 C 0.90776 0.56742 0.7198 0.0
C1365 C 0.88717 0.57329 0.71471 0.0
C1366 C 0.91088 0.56923 0.69387 0.0
N1367 N 0.89614 0.56957 0.72967 0.0
C1368 C 0.88994 0.57532 0.68873 0.0
C1369 C 0.90188 0.5732 0.67798 0.0
H1370 H 0.91442 0.564 0.73198 0.0
H1371 H 0.87756 0.57425 0.72282 0.0
C1372 C 0.8492 0.56592 0.82162 0.0
N1373 N 0.84988 0.55741 0.80189 0.0
C1374 C 0.83515 0.56571 0.82725 0.0
C1375 C 0.82271 0.54783 0.79229 0.0
C1376 C 0.83706 0.54854 0.78715 0.0
C1377 C 0.82168 0.55656 0.81249 0.0
H1378 H 0.85964 0.57296 0.83289 0.0
H1379 H 0.83795 0.54216 0.77122 0.0
O1380 O 0.90698 0.56443 0.78704 0.0
O1381 O 0.88109 0.55822 0.82613 0.0
O1382 O 0.88626 0.58036 0.78375 0.0
O1383 O 0.87242 0.54513 0.77186 0.0
H1384 H 0.92722 0.55637 0.80473 0.0
H1385 H 0.92282 0.59185 0.7633 0.0
H1386 H 0.95636 0.57245 0.80004 0.0
H1387 H 0.952 0.60737 0.75947 0.0
H1388 H 0.84343 0.52421 0.88057 0.0
H1389 H 0.89849 0.56671 0.86755 0.0
H1390 H 0.85215 0.53558 0.83769 0.0
H1391 H 0.88891 0.55488 0.91001 0.0
H1392 H 0.94695 0.61045 0.86018 0.0
H1393 H 0.90952 0.62178 0.85887 0.0
H1394 H 0.88481 0.49732 0.77842 0.0
H1395 H 0.88759 0.50718 0.85859 0.0
H1396 H 0.86243 0.58108 0.76148 0.0
H1397 H 0.91232 0.60782 0.77646 0.0
H1398 H 0.86466 0.6039 0.73736 0.0
H1399 H 0.91371 0.6301 0.75187 0.0
H1400 H 0.85969 0.53807 0.72637 0.0
H1401 H 0.85492 0.52153 0.80308 0.0
H1402 H 0.83508 0.51333 0.71543 0.0
H1403 H 0.83039 0.49712 0.79086 0.0
H1404 H 0.92018 0.56747 0.68633 0.0
H1405 H 0.88247 0.578 0.67708 0.0
H1406 H 0.8348 0.57253 0.84308 0.0
H1407 H 0.81263 0.54082 0.78025 0.0
Li1408 Li 0.45101 0.33801 0.80145 0.0
Li1409 Li 0.42311 0.32155 0.80765 0.0
Li1410 Li 0.43893 0.30992 0.79623 0.0
Li1411 Li 0.43398 0.3252 0.76592 0.0
C1412 C 0.44106 0.32796 0.8509 0.0
N1413 N 0.44266 0.34099 0.89787 0.0
C1414 C 0.44098 0.34217 0.85295 0.0
C1415 C 0.44194 0.32038 0.87273 0.0
C1416 C 0.4418 0.34856 0.87687 0.0
C1417 C 0.44275 0.32716 0.89631 0.0
C1418 C 0.42352 0.34571 0.77919 0.0
C1419 C 0.39768 0.33858 0.76333 0.0
N1420 N 0.40225 0.35414 0.76106 0.0
C1421 C 0.42796 0.36162 0.77671 0.0
C1422 C 0.40825 0.33408 0.77246 0.0
C1423 C 0.41704 0.36564 0.76751 0.0
C1424 C 0.47438 0.36924 0.79475 0.0
N1425 N 0.46968 0.35683 0.81078 0.0
C1426 C 0.49202 0.37188 0.83735 0.0
C1427 C 0.47819 0.35783 0.83172 0.0
C1428 C 0.49721 0.38496 0.82112 0.0
C1429 C 0.48818 0.38346 0.79953 0.0
H1430 H 0.46746 0.36799 0.77806 0.0
H1431 H 0.4743 0.34772 0.84402 0.0
C1432 C 0.39528 0.30246 0.83333 0.0
N1433 N 0.4054 0.3178 0.8275 0.0
C1434 C 0.38207 0.29839 0.84833 0.0
C1435 C 0.38996 0.32602 0.85115 0.0
C1436 C 0.40304 0.32957 0.83603 0.0
C1437 C 0.37925 0.31024 0.85746 0.0
H1438 H 0.3976 0.2934 0.82649 0.0
H1439 H 0.41134 0.3417 0.8312 0.0
C1440 C 0.46906 0.32804 0.77604 0.0
N1441 N 0.49856 0.33102 0.78106 0.0
C1442 C 0.47897 0.33175 0.75504 0.0
C1443 C 0.47415 0.32583 0.79961 0.0
C1444 C 0.49384 0.3332 0.75796 0.0
C1445 C 0.4891 0.32739 0.80175 0.0
C1446 C 0.41322 0.29284 0.76519 0.0
C1447 C 0.42365 0.2926 0.74735 0.0
C1448 C 0.39759 0.28049 0.76589 0.0
C1449 C 0.41824 0.27997 0.73051 0.0
C1450 C 0.39264 0.26808 0.74872 0.0
N1451 N 0.40298 0.26807 0.73153 0.0
C1452 C 0.43284 0.28241 0.82136 0.0
C1453 C 0.44917 0.28776 0.78533 0.0
C1454 C 0.43322 0.26857 0.82615 0.0
N1455 N 0.44077 0.29167 0.80129 0.0
C1456 C 0.44999 0.2741 0.78953 0.0
C1457 C 0.44193 0.26425 0.81017 0.0
H1458 H 0.42609 0.28573 0.83352 0.0
H1459 H 0.4552 0.2952 0.76928 0.0
C1460 C 0.4446 0.33763 0.71808 0.0
N1461 N 0.43126 0.3278 0.73106 0.0
C1462 C 0.44397 0.33981 0.69216 0.0
C1463 C 0.41577 0.32197 0.69348 0.0
C1464 C 0.41697 0.32007 0.71943 0.0
C1465 C 0.42943 0.33187 0.67944 0.0
H1466 H 0.45579 0.34361 0.72789 0.0
H1467 H 0.40652 0.31233 0.73022 0.0
O1468 O 0.44021 0.32137 0.82775 0.0
O1469 O 0.43415 0.34169 0.78821 0.0
O1470 O 0.4545 0.32664 0.77335 0.0
O1471 O 0.41815 0.30504 0.78195 0.0
H1472 H 0.44035 0.34824 0.8363 0.0
H1473 H 0.442 0.30937 0.87144 0.0
H1474 H 0.44176 0.35954 0.87873 0.0
H1475 H 0.44344 0.32142 0.91337 0.0
H1476 H 0.38582 0.32971 0.75806 0.0
H1477 H 0.43974 0.37076 0.78186 0.0
H1478 H 0.40454 0.32171 0.77431 0.0
H1479 H 0.42033 0.37791 0.76549 0.0
H1480 H 0.49849 0.3725 0.85433 0.0
H1481 H 0.49184 0.39308 0.78621 0.0
H1482 H 0.37431 0.2861 0.85311 0.0
H1483 H 0.38818 0.33551 0.85766 0.0
H1484 H 0.4752 0.33346 0.73665 0.0
H1485 H 0.46665 0.32287 0.81608 0.0
H1486 H 0.50163 0.33606 0.74185 0.0
H1487 H 0.49319 0.32571 0.81987 0.0
H1488 H 0.43577 0.30206 0.74641 0.0
H1489 H 0.38937 0.28052 0.77957 0.0
H1490 H 0.42619 0.27964 0.71661 0.0
H1491 H 0.38057 0.25844 0.74905 0.0
H1492 H 0.42656 0.26123 0.84198 0.0
H1493 H 0.45699 0.27138 0.77685 0.0
H1494 H 0.45484 0.34736 0.68211 0.0
H1495 H 0.40429 0.31575 0.68454 0.0
Li1496 Li 0.66059 0.11137 0.79876 0.0
Li1497 Li 0.67641 0.09877 0.80588 0.0
Li1498 Li 0.68898 0.12696 0.79214 0.0
Li1499 Li 0.67285 0.10568 0.76281 0.0
C1500 C 0.67356 0.12116 0.84587 0.0
N1501 N 0.66484 0.12948 0.89035 0.0
C1502 C 0.66714 0.1103 0.86569 0.0
C1503 C 0.67583 0.13634 0.84883 0.0
C1504 C 0.66273 0.11471 0.888 0.0
C1505 C 0.67126 0.1403 0.87142 0.0
C1506 C 0.65164 0.07522 0.77874 0.0
C1507 C 0.6579 0.05585 0.76307 0.0
N1508 N 0.64226 0.04489 0.76298 0.0
C1509 C 0.63564 0.06377 0.7785 0.0
C1510 C 0.66288 0.07124 0.77098 0.0
C1511 C 0.63113 0.0485 0.77046 0.0
C1512 C 0.63675 0.11932 0.7938 0.0
N1513 N 0.64216 0.11187 0.80908 0.0
C1514 C 0.62064 0.10457 0.83768 0.0
C1515 C 0.63427 0.10433 0.83047 0.0
C1516 C 0.61494 0.11244 0.82247 0.0
C1517 C 0.62318 0.11982 0.80021 0.0
H1518 H 0.64281 0.12464 0.77634 0.0
H1519 H 0.63843 0.09796 0.84181 0.0
C1520 C 0.69478 0.08841 0.82994 0.0
N1521 N 0.67958 0.08477 0.82642 0.0
C1522 C 0.69825 0.07885 0.84501 0.0
C1523 C 0.67031 0.06203 0.85293 0.0
C1524 C 0.66738 0.0719 0.83751 0.0
C1525 C 0.68594 0.06546 0.85677 0.0
H1526 H 0.70423 0.09888 0.8212 0.0
H1527 H 0.6554 0.06938 0.83447 0.0
C1528 C 0.67498 0.13922 0.76014 0.0
N1529 N 0.68152 0.16817 0.74101 0.0
C1530 C 0.67916 0.14291 0.73473 0.0
C1531 C 0.67399 0.1502 0.77575 0.0
C1532 C 0.68246 0.15762 0.72543 0.0
C1533 C 0.67738 0.16479 0.76574 0.0
C1534 C 0.7051 0.11455 0.76287 0.0
C1535 C 0.70851 0.12653 0.74535 0.0
C1536 C 0.71405 0.10702 0.763 0.0
C1537 C 0.72094 0.13089 0.72832 0.0
C1538 C 0.72638 0.11171 0.74564 0.0
N1539 N 0.72954 0.12346 0.72882 0.0
C1540 C 0.71535 0.14855 0.81924 0.0
C1541 C 0.71299 0.15908 0.78023 0.0
C1542 C 0.72908 0.16265 0.82502 0.0
N1543 N 0.70756 0.14703 0.79722 0.0
C1544 C 0.72653 0.17346 0.78539 0.0
C1545 C 0.73484 0.17543 0.80805 0.0
H1546 H 0.71091 0.13873 0.83229 0.0
H1547 H 0.70692 0.15762 0.76259 0.0
C1548 C 0.65869 0.10193 0.71619 0.0
N1549 N 0.66972 0.09975 0.72821 0.0
C1550 C 0.65646 0.09952 0.69021 0.0
C1551 C 0.67642 0.09184 0.68959 0.0
C1552 C 0.67828 0.09442 0.71567 0.0
C1553 C 0.66564 0.09475 0.67646 0.0
H1554 H 0.65194 0.106 0.72676 0.0
H1555 H 0.6868 0.09251 0.72572 0.0
O1556 O 0.67784 0.11702 0.82386 0.0
O1557 O 0.65617 0.09019 0.78667 0.0
O1558 O 0.67177 0.12488 0.76959 0.0
O1559 O 0.69282 0.10988 0.77943 0.0
H1560 H 0.66544 0.09854 0.86376 0.0
H1561 H 0.68113 0.14499 0.83389 0.0
H1562 H 0.65761 0.10638 0.90342 0.0
H1563 H 0.67287 0.15198 0.87392 0.0
H1564 H 0.66646 0.05261 0.75703 0.0
H1565 H 0.62681 0.06667 0.78449 0.0
H1566 H 0.67532 0.07989 0.77111 0.0
H1567 H 0.61879 0.03951 0.77018 0.0
H1568 H 0.61467 0.09869 0.85498 0.0
H1569 H 0.619 0.12564 0.78752 0.0
H1570 H 0.71047 0.0821 0.84788 0.0
H1571 H 0.6605 0.0518 0.86161 0.0
H1572 H 0.68004 0.1346 0.72234 0.0
H1573 H 0.67059 0.14748 0.79536 0.0
H1574 H 0.6858 0.16067 0.70585 0.0
H1575 H 0.6767 0.17341 0.77763 0.0
H1576 H 0.70152 0.13224 0.74472 0.0
H1577 H 0.71143 0.09757 0.77622 0.0
H1578 H 0.72369 0.14014 0.71463 0.0
H1579 H 0.73339 0.10598 0.74551 0.0
H1580 H 0.7352 0.16341 0.84247 0.0
H1581 H 0.73032 0.18295 0.7718 0.0
H1582 H 0.64778 0.10159 0.68093 0.0
H1583 H 0.68375 0.08818 0.67971 0.0
Li1584 Li 0.43834 0.12842 0.29858 0.0
Li1585 Li 0.44911 0.11059 0.30269 0.0
Li1586 Li 0.43287 0.10882 0.26583 0.0
Li1587 Li 0.42053 0.09933 0.3075 0.0
C1588 C 0.46525 0.14126 0.26967 0.0
N1589 N 0.48901 0.17108 0.25633 0.0
C1590 C 0.47977 0.14809 0.28219 0.0
C1591 C 0.46285 0.14953 0.25025 0.0
C1592 C 0.49163 0.1632 0.27518 0.0
C1593 C 0.475 0.16461 0.24383 0.0
C1594 C 0.44541 0.12028 0.35119 0.0
C1595 C 0.44737 0.11532 0.39536 0.0
N1596 N 0.46107 0.12935 0.39692 0.0
C1597 C 0.45952 0.13462 0.35321 0.0
C1598 C 0.43928 0.11052 0.37241 0.0
C1599 C 0.46725 0.13902 0.37651 0.0
C1600 C 0.42691 0.14915 0.30593 0.0
N1601 N 0.44057 0.14869 0.30516 0.0
C1602 C 0.4556 0.17643 0.31323 0.0
C1603 C 0.45477 0.16195 0.30893 0.0
C1604 C 0.44168 0.17727 0.31385 0.0
C1605 C 0.42718 0.16335 0.31019 0.0
H1606 H 0.41575 0.13845 0.30319 0.0
H1607 H 0.46548 0.16138 0.30874 0.0
C1608 C 0.47666 0.11043 0.29178 0.0
N1609 N 0.46725 0.10913 0.31161 0.0
C1610 C 0.49061 0.11014 0.2957 0.0
C1611 C 0.4848 0.10676 0.34042 0.0
C1612 C 0.47091 0.10707 0.33561 0.0
C1613 C 0.49494 0.10844 0.32034 0.0
H1614 H 0.47335 0.11185 0.27285 0.0
H1615 H 0.46315 0.10571 0.35107 0.0
C1616 C 0.40753 0.11334 0.26585 0.0
N1617 N 0.38721 0.11346 0.22973 0.0
C1618 C 0.39201 0.10081 0.26449 0.0
C1619 C 0.41267 0.12602 0.24907 0.0
C1620 C 0.38193 0.10108 0.24603 0.0
C1621 C 0.40224 0.12583 0.23086 0.0
C1622 C 0.42989 0.07744 0.29618 0.0
C1623 C 0.42547 0.0644 0.28054 0.0
C1624 C 0.43207 0.07626 0.32202 0.0
C1625 C 0.42335 0.05036 0.29105 0.0
C1626 C 0.42988 0.06203 0.3318 0.0
N1627 N 0.42559 0.04948 0.31625 0.0
C1628 C 0.44446 0.11225 0.21688 0.0
C1629 C 0.41669 0.0958 0.21894 0.0
C1630 C 0.44422 0.11055 0.19072 0.0
N1631 N 0.43081 0.10516 0.23035 0.0
C1632 C 0.41586 0.09388 0.19268 0.0
C1633 C 0.42976 0.10145 0.17817 0.0
H1634 H 0.45559 0.1192 0.22649 0.0
H1635 H 0.40605 0.08987 0.23014 0.0
C1636 C 0.39907 0.09078 0.34661 0.0
N1637 N 0.40231 0.08493 0.32561 0.0
C1638 C 0.38609 0.08108 0.36162 0.0
C1639 C 0.37962 0.05958 0.33267 0.0
C1640 C 0.39289 0.06971 0.31827 0.0
C1641 C 0.37619 0.06525 0.35477 0.0
H1642 H 0.40664 0.10302 0.35166 0.0
H1643 H 0.39565 0.06545 0.30128 0.0
O1644 O 0.45354 0.12643 0.2761 0.0
O1645 O 0.43761 0.11577 0.32859 0.0
O1646 O 0.41757 0.11328 0.28375 0.0
O1647 O 0.43162 0.09111 0.28621 0.0
H1648 H 0.48182 0.1419 0.29735 0.0
H1649 H 0.45175 0.14434 0.2402 0.0
H1650 H 0.50289 0.16867 0.28479 0.0
H1651 H 0.47329 0.17117 0.22887 0.0
H1652 H 0.44278 0.10786 0.4119 0.0
H1653 H 0.46454 0.14217 0.33692 0.0
H1654 H 0.42846 0.09929 0.37115 0.0
H1655 H 0.4782 0.15008 0.37834 0.0
H1656 H 0.46701 0.1868 0.31638 0.0
H1657 H 0.41616 0.16345 0.31029 0.0
H1658 H 0.49789 0.11115 0.27958 0.0
H1659 H 0.48768 0.10549 0.35973 0.0
H1660 H 0.38785 0.09096 0.27747 0.0
H1661 H 0.4246 0.13588 0.2501 0.0
H1662 H 0.3699 0.09143 0.24466 0.0
H1663 H 0.40607 0.13552 0.21767 0.0
H1664 H 0.42361 0.0651 0.26051 0.0
H1665 H 0.43529 0.08617 0.33442 0.0
H1666 H 0.41988 0.04015 0.27918 0.0
H1667 H 0.43153 0.06095 0.35178 0.0
H1668 H 0.45529 0.11622 0.18047 0.0
H1669 H 0.40445 0.08675 0.18387 0.0
H1670 H 0.38365 0.08599 0.37821 0.0
H1671 H 0.37224 0.04746 0.32674 0.0
Li1672 Li 0.88622 0.33868 0.30028 0.0
Li1673 Li 0.88884 0.32371 0.2654 0.0
Li1674 Li 0.86951 0.31008 0.29947 0.0
Li1675 Li 0.89811 0.32192 0.30644 0.0
C1676 C 0.86221 0.3329 0.26811 0.0
N1677 N 0.84672 0.34899 0.25511 0.0
C1678 C 0.86554 0.34104 0.24514 0.0
C1679 C 0.8509 0.33282 0.28435 0.0
C1680 C 0.8576 0.34914 0.23894 0.0
C1681 C 0.84323 0.34107 0.27748 0.0
C1682 C 0.92129 0.34924 0.29177 0.0
C1683 C 0.94752 0.35277 0.2911 0.0
N1684 N 0.95237 0.36504 0.30747 0.0
C1685 C 0.92654 0.36192 0.3085 0.0
C1686 C 0.93185 0.34466 0.28288 0.0
C1687 C 0.9423 0.36975 0.31623 0.0
C1688 C 0.88539 0.36107 0.33338 0.0
N1689 N 0.88699 0.3579 0.30889 0.0
C1690 C 0.88945 0.38234 0.2954 0.0
C1691 C 0.88931 0.36832 0.29007 0.0
C1692 C 0.88762 0.38585 0.32045 0.0
C1693 C 0.88574 0.37511 0.33964 0.0
H1694 H 0.88387 0.35273 0.34804 0.0
H1695 H 0.89104 0.36571 0.27088 0.0
C1696 C 0.87897 0.31456 0.21549 0.0
N1697 N 0.89179 0.32385 0.22994 0.0
C1698 C 0.88036 0.31455 0.18926 0.0
C1699 C 0.9081 0.3338 0.19323 0.0
C1700 C 0.90619 0.33336 0.21945 0.0
C1701 C 0.89504 0.32438 0.17773 0.0
H1702 H 0.86764 0.30722 0.22441 0.0
H1703 H 0.91613 0.34076 0.23141 0.0
C1704 C 0.8741 0.31738 0.3495 0.0
N1705 N 0.8567 0.30387 0.39281 0.0
C1706 C 0.87832 0.30886 0.36586 0.0
C1707 C 0.86112 0.31913 0.35528 0.0
C1708 C 0.86935 0.3021 0.38764 0.0
C1709 C 0.85244 0.31217 0.37723 0.0
C1710 C 0.8835 0.29476 0.26471 0.0
C1711 C 0.86882 0.28285 0.25618 0.0
C1712 C 0.89727 0.29721 0.25264 0.0
C1713 C 0.86815 0.27367 0.23551 0.0
C1714 C 0.8961 0.2878 0.23199 0.0
N1715 N 0.88168 0.27633 0.22392 0.0
C1716 C 0.83655 0.29007 0.29363 0.0
C1717 C 0.84842 0.28188 0.32468 0.0
C1718 C 0.82192 0.27655 0.29773 0.0
N1719 N 0.84939 0.29247 0.30709 0.0
C1720 C 0.83399 0.26836 0.32972 0.0
C1721 C 0.82048 0.26541 0.31596 0.0
H1722 H 0.83775 0.29843 0.27919 0.0
H1723 H 0.85891 0.2838 0.33451 0.0
C1724 C 0.92119 0.32843 0.34473 0.0
N1725 N 0.91283 0.31871 0.32534 0.0
C1726 C 0.93019 0.32454 0.36058 0.0
C1727 C 0.92191 0.30088 0.33596 0.0
C1728 C 0.91322 0.30529 0.32051 0.0
C1729 C 0.93025 0.31038 0.35661 0.0
H1730 H 0.92033 0.33882 0.34854 0.0
H1731 H 0.90625 0.29763 0.3053 0.0
O1732 O 0.86993 0.32499 0.27457 0.0
O1733 O 0.90586 0.3413 0.28423 0.0
O1734 O 0.88273 0.32408 0.32808 0.0
O1735 O 0.8844 0.30409 0.28459 0.0
H1736 H 0.87427 0.34123 0.23236 0.0
H1737 H 0.84809 0.32645 0.30207 0.0
H1738 H 0.86011 0.35555 0.22129 0.0
H1739 H 0.83449 0.34115 0.28991 0.0
H1740 H 0.9558 0.3493 0.28451 0.0
H1741 H 0.91851 0.36561 0.31558 0.0
H1742 H 0.92795 0.33483 0.26999 0.0
H1743 H 0.94653 0.37954 0.32926 0.0
H1744 H 0.8912 0.39047 0.28016 0.0
H1745 H 0.88431 0.37744 0.35919 0.0
H1746 H 0.87002 0.30692 0.17815 0.0
H1747 H 0.91958 0.34174 0.18518 0.0
H1748 H 0.88832 0.30736 0.36169 0.0
H1749 H 0.85777 0.32578 0.34294 0.0
H1750 H 0.87244 0.29542 0.40041 0.0
H1751 H 0.84234 0.3134 0.38189 0.0
H1752 H 0.85805 0.28079 0.26528 0.0
H1753 H 0.90872 0.30643 0.25895 0.0
H1754 H 0.85686 0.26446 0.22862 0.0
H1755 H 0.90664 0.28965 0.22235 0.0
H1756 H 0.81198 0.27467 0.28621 0.0
H1757 H 0.83351 0.26029 0.34417 0.0
H1758 H 0.93633 0.33205 0.37652 0.0
H1759 H 0.92174 0.28992 0.33224 0.0
Li1760 Li 0.67856 0.57585 0.30716 0.0
Li1761 Li 0.67592 0.56592 0.26268 0.0
Li1762 Li 0.66164 0.54749 0.29796 0.0
Li1763 Li 0.6896 0.56006 0.29461 0.0
C1764 C 0.65016 0.57156 0.27985 0.0
N1765 N 0.63133 0.58432 0.26802 0.0
C1766 C 0.65566 0.58438 0.26328 0.0
C1767 C 0.63503 0.56513 0.29022 0.0
C1768 C 0.64598 0.59069 0.25759 0.0
C1769 C 0.62571 0.57178 0.28407 0.0
C1770 C 0.71105 0.58831 0.28094 0.0
C1771 C 0.73513 0.59285 0.26091 0.0
N1772 N 0.74347 0.60138 0.28133 0.0
C1773 C 0.71986 0.59718 0.30166 0.0
C1774 C 0.71873 0.58617 0.26034 0.0
C1775 C 0.73624 0.60367 0.30151 0.0
C1776 C 0.68866 0.59447 0.35083 0.0
N1777 N 0.68162 0.59312 0.32808 0.0
C1778 C 0.6807 0.61673 0.33586 0.0
C1779 C 0.6777 0.60398 0.32033 0.0
C1780 C 0.68772 0.61822 0.3596 0.0
C1781 C 0.69167 0.60686 0.36705 0.0
H1782 H 0.69225 0.58608 0.35623 0.0
H1783 H 0.6725 0.60295 0.30197 0.0
C1784 C 0.66066 0.55943 0.21597 0.0
N1785 N 0.67416 0.56974 0.22812 0.0
C1786 C 0.65904 0.56111 0.1901 0.0
C1787 C 0.68522 0.58407 0.18989 0.0
C1788 C 0.68624 0.58206 0.21582 0.0
C1789 C 0.67154 0.57341 0.1767 0.0
H1790 H 0.65126 0.54976 0.22634 0.0
H1791 H 0.69674 0.59021 0.22608 0.0
C1792 C 0.66957 0.55533 0.3482 0.0
N1793 N 0.65386 0.5509 0.39356 0.0
C1794 C 0.67447 0.55065 0.36972 0.0
C1795 C 0.65667 0.55776 0.34976 0.0
C1796 C 0.66638 0.54847 0.39247 0.0
C1797 C 0.64888 0.55546 0.37285 0.0
C1798 C 0.67248 0.53053 0.27138 0.0
C1799 C 0.67376 0.52444 0.29462 0.0
C1800 C 0.66952 0.52153 0.24947 0.0
C1801 C 0.67205 0.5094 0.29554 0.0
C1802 C 0.6679 0.50654 0.25117 0.0
N1803 N 0.66919 0.50083 0.27398 0.0
C1804 C 0.63039 0.52427 0.28842 0.0
C1805 C 0.64066 0.51997 0.32631 0.0
C1806 C 0.61594 0.51052 0.29242 0.0
N1807 N 0.64233 0.52874 0.30534 0.0
C1808 C 0.62636 0.50627 0.33124 0.0
C1809 C 0.61379 0.5014 0.31415 0.0
H1810 H 0.63213 0.53141 0.27179 0.0
H1811 H 0.65044 0.52351 0.33915 0.0
C1812 C 0.71443 0.56142 0.32313 0.0
N1813 N 0.70737 0.55739 0.30012 0.0
C1814 C 0.72795 0.56044 0.32787 0.0
C1815 C 0.72657 0.55104 0.28517 0.0
C1816 C 0.71305 0.55218 0.28127 0.0
C1817 C 0.73424 0.55526 0.30871 0.0
H1818 H 0.70971 0.56567 0.33766 0.0
H1819 H 0.70722 0.54915 0.26309 0.0
O1820 O 0.65929 0.56498 0.28529 0.0
O1821 O 0.69497 0.58152 0.28105 0.0
O1822 O 0.67742 0.55743 0.32583 0.0
O1823 O 0.67408 0.54522 0.26989 0.0
H1824 H 0.66735 0.58953 0.25514 0.0
H1825 H 0.63053 0.55509 0.30286 0.0
H1826 H 0.65011 0.60067 0.24491 0.0
H1827 H 0.614 0.56695 0.292 0.0
H1828 H 0.74122 0.59117 0.2452 0.0
H1829 H 0.71411 0.59891 0.31779 0.0
H1830 H 0.71208 0.57914 0.2443 0.0
H1831 H 0.74319 0.61049 0.31749 0.0
H1832 H 0.67757 0.62532 0.3294 0.0
H1833 H 0.69746 0.60781 0.38495 0.0
H1834 H 0.64836 0.55258 0.18054 0.0
H1835 H 0.69502 0.59379 0.18021 0.0
H1836 H 0.68443 0.5487 0.36881 0.0
H1837 H 0.65272 0.56142 0.33339 0.0
H1838 H 0.67004 0.54484 0.40927 0.0
H1839 H 0.63889 0.55731 0.37432 0.0
H1840 H 0.67608 0.53122 0.31178 0.0
H1841 H 0.6685 0.52609 0.23134 0.0
H1842 H 0.67302 0.50454 0.31339 0.0
H1843 H 0.66562 0.49944 0.23436 0.0
H1844 H 0.6065 0.50716 0.27886 0.0
H1845 H 0.62521 0.4994 0.348 0.0
H1846 H 0.73361 0.56403 0.34616 0.0
H1847 H 0.73093 0.54685 0.26996 0.0
Li1848 Li 0.44607 0.11782 0.86286 0.0
Li1849 Li 0.46253 0.10545 0.86927 0.0
Li1850 Li 0.43383 0.08885 0.85877 0.0
Li1851 Li 0.44267 0.1007 0.9005 0.0
C1852 C 0.45089 0.10898 0.8133 0.0
N1853 N 0.45019 0.11532 0.76253 0.0
C1854 C 0.46496 0.11753 0.79979 0.0
C1855 C 0.43645 0.10355 0.80093 0.0
C1856 C 0.46437 0.12065 0.77415 0.0
C1857 C 0.43635 0.1069 0.77528 0.0
C1858 C 0.4766 0.13212 0.89501 0.0
C1859 C 0.50138 0.1398 0.91569 0.0
N1860 N 0.5081 0.15374 0.90292 0.0
C1861 C 0.48373 0.14655 0.88217 0.0
C1862 C 0.48546 0.12873 0.912 0.0
C1863 C 0.49968 0.15732 0.88643 0.0
C1864 C 0.44358 0.14419 0.87264 0.0
N1865 N 0.44566 0.13638 0.85315 0.0
C1866 C 0.44698 0.15558 0.82371 0.0
C1867 C 0.44741 0.14181 0.82899 0.0
C1868 C 0.44494 0.16393 0.84352 0.0
C1869 C 0.44325 0.1581 0.86827 0.0
H1870 H 0.44223 0.1396 0.89166 0.0
H1871 H 0.4492 0.13559 0.81375 0.0
C1872 C 0.48483 0.09537 0.87076 0.0
N1873 N 0.48277 0.10758 0.86374 0.0
C1874 C 0.4994 0.09626 0.86739 0.0
C1875 C 0.5095 0.12228 0.84941 0.0
C1876 C 0.49468 0.12083 0.853 0.0
C1877 C 0.51202 0.10988 0.85666 0.0
H1878 H 0.4751 0.08485 0.87882 0.0
H1879 H 0.49271 0.13032 0.84734 0.0
C1880 C 0.41111 0.09709 0.87333 0.0
N1881 N 0.38043 0.08931 0.86242 0.0
C1882 C 0.39889 0.08766 0.89002 0.0
C1883 C 0.40777 0.10276 0.8513 0.0
C1884 C 0.38345 0.0838 0.88411 0.0
C1885 C 0.39217 0.09864 0.84606 0.0
C1886 C 0.4432 0.07402 0.90246 0.0
C1887 C 0.42896 0.05971 0.90219 0.0
C1888 C 0.4539 0.0773 0.92222 0.0
C1889 C 0.42557 0.04895 0.92189 0.0
C1890 C 0.45006 0.06625 0.94159 0.0
N1891 N 0.43609 0.05242 0.94104 0.0
C1892 C 0.42696 0.06756 0.82043 0.0
C1893 C 0.40392 0.0619 0.84346 0.0
C1894 C 0.41821 0.05506 0.80407 0.0
N1895 N 0.41973 0.07092 0.83936 0.0
C1896 C 0.39468 0.04908 0.82765 0.0
C1897 C 0.40184 0.04569 0.80747 0.0
H1898 H 0.4396 0.07473 0.81796 0.0
H1899 H 0.39847 0.06455 0.85898 0.0
C1900 C 0.44846 0.11097 0.95047 0.0
N1901 N 0.43837 0.0986 0.93589 0.0
C1902 C 0.44677 0.11025 0.97665 0.0
C1903 C 0.42399 0.08419 0.9725 0.0
C1904 C 0.42608 0.08546 0.94626 0.0
C1905 C 0.43456 0.09664 0.98808 0.0
H1906 H 0.45788 0.12144 0.94178 0.0
H1907 H 0.41807 0.07587 0.93422 0.0
O1908 O 0.4513 0.10575 0.83838 0.0
O1909 O 0.46104 0.12136 0.89097 0.0
O1910 O 0.42629 0.10102 0.87892 0.0
O1911 O 0.44666 0.08476 0.88347 0.0
H1912 H 0.47624 0.12174 0.80899 0.0
H1913 H 0.42543 0.0968 0.81097 0.0
H1914 H 0.47517 0.1273 0.76349 0.0
H1915 H 0.42526 0.10279 0.7655 0.0
H1916 H 0.50841 0.13729 0.92866 0.0
H1917 H 0.47706 0.14935 0.86892 0.0
H1918 H 0.48013 0.11761 0.92206 0.0
H1919 H 0.50537 0.1685 0.87655 0.0
H1920 H 0.44849 0.15979 0.8044 0.0
H1921 H 0.44152 0.16412 0.88403 0.0
H1922 H 0.50067 0.08627 0.87277 0.0
H1923 H 0.5189 0.13305 0.84127 0.0
H1924 H 0.4013 0.08329 0.90726 0.0
H1925 H 0.4171 0.11034 0.83845 0.0
H1926 H 0.37386 0.07643 0.89676 0.0
H1927 H 0.38941 0.1029 0.82903 0.0
H1928 H 0.42057 0.05698 0.88703 0.0
H1929 H 0.46497 0.08833 0.92269 0.0
H1930 H 0.41456 0.03785 0.922 0.0
H1931 H 0.45817 0.06868 0.95709 0.0
H1932 H 0.42423 0.05262 0.78908 0.0
H1933 H 0.38209 0.04204 0.83096 0.0
H1934 H 0.45493 0.12032 0.98781 0.0
H1935 H 0.41442 0.07347 0.98049 0.0
Li1936 Li 0.89164 0.35435 0.86834 0.0
Li1937 Li 0.90836 0.34288 0.85763 0.0
Li1938 Li 0.87947 0.32629 0.86661 0.0
Li1939 Li 0.89766 0.33986 0.90112 0.0
C1940 C 0.88749 0.34878 0.81882 0.0
N1941 N 0.88258 0.36486 0.78011 0.0
C1942 C 0.89968 0.35799 0.80196 0.0
C1943 C 0.87271 0.34753 0.8157 0.0
C1944 C 0.89699 0.36608 0.78258 0.0
C1945 C 0.87049 0.35581 0.79611 0.0
C1946 C 0.92322 0.37249 0.89498 0.0
C1947 C 0.94975 0.38952 0.90996 0.0
N1948 N 0.94505 0.39918 0.92048 0.0
C1949 C 0.91867 0.38263 0.90585 0.0
C1950 C 0.9389 0.376 0.89694 0.0
C1951 C 0.92988 0.39605 0.91869 0.0
C1952 C 0.87775 0.37373 0.87294 0.0
N1953 N 0.88959 0.37236 0.86201 0.0
C1954 C 0.89964 0.39746 0.84193 0.0
C1955 C 0.90055 0.38394 0.84699 0.0
C1956 C 0.88753 0.3992 0.85291 0.0
C1957 C 0.87652 0.38717 0.86869 0.0
H1958 H 0.86935 0.36446 0.88515 0.0
H1959 H 0.91006 0.3827 0.83908 0.0
C1960 C 0.92811 0.33487 0.82824 0.0
N1961 N 0.92603 0.34659 0.83783 0.0
C1962 C 0.94088 0.33854 0.81216 0.0
C1963 C 0.94907 0.36618 0.81657 0.0
C1964 C 0.93628 0.362 0.8326 0.0
C1965 C 0.95136 0.35438 0.8058 0.0
H1966 H 0.9197 0.32269 0.83262 0.0
H1967 H 0.93423 0.37104 0.84034 0.0
C1968 C 0.86211 0.33069 0.90158 0.0
N1969 N 0.83095 0.31284 0.91653 0.0
C1970 C 0.85833 0.32275 0.92476 0.0
C1971 C 0.85005 0.32976 0.88622 0.0
C1972 C 0.8425 0.31373 0.93194 0.0
C1973 C 0.83437 0.32061 0.89403 0.0
C1974 C 0.90657 0.31756 0.88654 0.0
C1975 C 0.9009 0.30132 0.88669 0.0
C1976 C 0.92191 0.32792 0.89477 0.0
C1977 C 0.91073 0.2957 0.89506 0.0
C1978 C 0.93139 0.32184 0.90297 0.0
N1979 N 0.92565 0.30599 0.90295 0.0
C1980 C 0.85525 0.30426 0.83443 0.0
C1981 C 0.85385 0.29611 0.87699 0.0
C1982 C 0.84166 0.29007 0.82843 0.0
N1983 N 0.86096 0.30702 0.85841 0.0
C1984 C 0.84008 0.28191 0.87199 0.0
C1985 C 0.83377 0.27866 0.84738 0.0
H1986 H 0.86133 0.31302 0.81988 0.0
H1987 H 0.85884 0.29849 0.89579 0.0
C1988 C 0.90828 0.35067 0.95161 0.0
N1989 N 0.90133 0.33792 0.93609 0.0
C1990 C 0.90939 0.34871 0.97753 0.0
C1991 C 0.89631 0.32052 0.97108 0.0
C1992 C 0.89554 0.32304 0.94527 0.0
C1993 C 0.90311 0.33345 0.98762 0.0
H1994 H 0.91249 0.36234 0.94415 0.0
H1995 H 0.88977 0.31306 0.93266 0.0
O1996 O 0.88998 0.341 0.8382 0.0
O1997 O 0.91249 0.35941 0.88198 0.0
O1998 O 0.87754 0.33945 0.89413 0.0
O1999 O 0.89699 0.32318 0.8787 0.0
H2000 H 0.91113 0.35896 0.80384 0.0
H2001 H 0.86308 0.34028 0.82829 0.0
H2002 H 0.90636 0.37334 0.76951 0.0
H2003 H 0.85914 0.35503 0.79361 0.0
H2004 H 0.96191 0.39235 0.91166 0.0
H2005 H 0.90657 0.38005 0.90477 0.0
H2006 H 0.94269 0.3684 0.88844 0.0
H2007 H 0.9265 0.40395 0.9273 0.0
H2008 H 0.90849 0.40659 0.82997 0.0
H2009 H 0.86701 0.3881 0.87747 0.0
H2010 H 0.94222 0.3291 0.80411 0.0
H2011 H 0.95698 0.37853 0.8124 0.0
H2012 H 0.86748 0.32349 0.93707 0.0
H2013 H 0.85275 0.336 0.86842 0.0
H2014 H 0.83941 0.30745 0.94976 0.0
H2015 H 0.82492 0.31971 0.88223 0.0
H2016 H 0.88899 0.29316 0.88048 0.0
H2017 H 0.9264 0.34049 0.89494 0.0
H2018 H 0.9065 0.28315 0.89531 0.0
H2019 H 0.9433 0.32972 0.9094 0.0
H2020 H 0.83756 0.28803 0.80907 0.0
H2021 H 0.83439 0.27367 0.88737 0.0
H2022 H 0.9145 0.35898 0.98966 0.0
H2023 H 0.89138 0.30857 0.97808 0.0
Li2024 Li 0.65434 0.56419 0.8586 0.0
Li2025 Li 0.65759 0.55736 0.90024 0.0
Li2026 Li 0.67216 0.55465 0.86501 0.0
Li2027 Li 0.64314 0.53685 0.86811 0.0
C2028 C 0.6773 0.58873 0.88754 0.0
N2029 N 0.68392 0.61801 0.90493 0.0
C2030 C 0.66508 0.59114 0.89579 0.0
C2031 C 0.69286 0.6012 0.88813 0.0
C2032 C 0.66868 0.60603 0.90453 0.0
C2033 C 0.69597 0.61592 0.89697 0.0
C2034 C 0.62491 0.5438 0.89919 0.0
C2035 C 0.61163 0.52424 0.93174 0.0
N2036 N 0.59965 0.5275 0.93157 0.0
C2037 C 0.61245 0.54693 0.8993 0.0
C2038 C 0.62451 0.53234 0.91551 0.0
C2039 C 0.59979 0.53857 0.91583 0.0
C2040 C 0.63441 0.5721 0.83368 0.0
N2041 N 0.64988 0.57796 0.83941 0.0
C2042 C 0.65693 0.60186 0.81709 0.0
C2043 C 0.66115 0.59253 0.83148 0.0
C2044 C 0.64099 0.59609 0.8109 0.0
C2045 C 0.62969 0.58096 0.81935 0.0
H2046 H 0.62576 0.5604 0.84002 0.0
H2047 H 0.6734 0.59685 0.83613 0.0
C2048 C 0.67156 0.56253 0.94784 0.0
N2049 N 0.65935 0.56235 0.93527 0.0
C2050 C 0.67346 0.56563 0.97373 0.0
C2051 C 0.6503 0.5685 0.97321 0.0
C2052 C 0.64897 0.56556 0.94726 0.0
C2053 C 0.66261 0.56845 0.98676 0.0
H2054 H 0.67973 0.56012 0.93771 0.0
H2055 H 0.63961 0.56577 0.93677 0.0
C2056 C 0.65605 0.55358 0.81459 0.0
N2057 N 0.65578 0.566 0.76777 0.0
C2058 C 0.64236 0.54659 0.79986 0.0
C2059 C 0.66963 0.56681 0.80544 0.0
C2060 C 0.64245 0.55307 0.77626 0.0
C2061 C 0.66925 0.57292 0.78173 0.0
C2062 C 0.66445 0.52791 0.89324 0.0
C2063 C 0.66518 0.52044 0.87119 0.0
C2064 C 0.66878 0.52428 0.91636 0.0
C2065 C 0.6702 0.50938 0.87269 0.0
C2066 C 0.67371 0.51312 0.91708 0.0
N2067 N 0.67432 0.50597 0.89541 0.0
C2068 C 0.70187 0.55878 0.87618 0.0
C2069 C 0.69443 0.55234 0.8333 0.0
C2070 C 0.716 0.55888 0.8719 0.0
N2071 N 0.69147 0.55555 0.857 0.0
C2072 C 0.70851 0.55251 0.82809 0.0
C2073 C 0.71953 0.55575 0.84755 0.0
H2074 H 0.69903 0.56103 0.89493 0.0
H2075 H 0.68582 0.54953 0.8185 0.0
C2076 C 0.61316 0.5163 0.84976 0.0
N2077 N 0.62531 0.51646 0.86248 0.0
C2078 C 0.5993 0.50209 0.84522 0.0
C2079 C 0.61059 0.48842 0.86724 0.0
C2080 C 0.6242 0.50293 0.87154 0.0
C2081 C 0.59789 0.48785 0.85387 0.0
H2082 H 0.61417 0.52729 0.84347 0.0
H2083 H 0.63375 0.50333 0.88234 0.0
O2084 O 0.67415 0.57434 0.87859 0.0
O2085 O 0.63729 0.55187 0.8829 0.0
O2086 O 0.65609 0.54769 0.83804 0.0
O2087 O 0.65989 0.53903 0.89212 0.0
H2088 H 0.65295 0.58168 0.8953 0.0
H2089 H 0.70244 0.59952 0.88172 0.0
H2090 H 0.65935 0.60807 0.91094 0.0
H2091 H 0.70797 0.62569 0.89748 0.0
H2092 H 0.61118 0.51537 0.94448 0.0
H2093 H 0.61257 0.55574 0.88674 0.0
H2094 H 0.63399 0.52971 0.91575 0.0
H2095 H 0.59007 0.54089 0.91613 0.0
H2096 H 0.66602 0.61347 0.81107 0.0
H2097 H 0.61733 0.57587 0.81456 0.0
H2098 H 0.68307 0.56543 0.98358 0.0
H2099 H 0.64184 0.57084 0.98258 0.0
H2100 H 0.63177 0.53633 0.80661 0.0
H2101 H 0.68027 0.57246 0.81674 0.0
H2102 H 0.63192 0.54784 0.76471 0.0
H2103 H 0.67963 0.58322 0.7745 0.0
H2104 H 0.66191 0.52317 0.85313 0.0
H2105 H 0.66831 0.52999 0.93357 0.0
H2106 H 0.67084 0.50351 0.8558 0.0
H2107 H 0.67706 0.51016 0.93485 0.0
H2108 H 0.72392 0.56111 0.88764 0.0
H2109 H 0.71075 0.5502 0.80897 0.0
H2110 H 0.58969 0.50232 0.83542 0.0
H2111 H 0.6101 0.47778 0.87419 0.0
Li2112 Li 0.56615 0.89128 0.73541 0.0
Li2113 Li 0.56027 0.87066 0.70362 0.0
Li2114 Li 0.57703 0.89958 0.6937 0.0
Li2115 Li 0.54848 0.88785 0.69863 0.0
C2116 C 0.59089 0.88663 0.73625 0.0
N2117 N 0.61022 0.88698 0.77462 0.0
C2118 C 0.58959 0.87252 0.74485 0.0
C2119 C 0.60212 0.90094 0.74697 0.0
C2120 C 0.59945 0.87294 0.76431 0.0
C2121 C 0.61174 0.90086 0.76642 0.0
C2122 C 0.53146 0.86005 0.73332 0.0
C2123 C 0.50493 0.83968 0.72327 0.0
N2124 N 0.5031 0.83412 0.74734 0.0
C2125 C 0.52927 0.85419 0.758 0.0
C2126 C 0.51916 0.85279 0.71583 0.0
C2127 C 0.51487 0.84105 0.7647 0.0
C2128 C 0.5696 0.90878 0.77979 0.0
N2129 N 0.56891 0.89546 0.77067 0.0
C2130 C 0.57065 0.88712 0.81243 0.0
C2131 C 0.56934 0.88467 0.78637 0.0
C2132 C 0.57114 0.90063 0.82242 0.0
C2133 C 0.57065 0.91158 0.8058 0.0
H2134 H 0.56903 0.91706 0.76689 0.0
H2135 H 0.56833 0.87398 0.77869 0.0
C2136 C 0.56928 0.85038 0.68248 0.0
N2137 N 0.55811 0.85049 0.69763 0.0
C2138 C 0.56905 0.83627 0.67746 0.0
C2139 C 0.54565 0.82257 0.70338 0.0
C2140 C 0.54644 0.83697 0.70814 0.0
C2141 C 0.55711 0.82213 0.68797 0.0
H2142 H 0.57844 0.86133 0.67445 0.0
H2143 H 0.5378 0.83728 0.72038 0.0
C2144 C 0.57286 0.9232 0.70772 0.0
N2145 N 0.58824 0.95465 0.69403 0.0
C2146 C 0.56589 0.92874 0.69054 0.0
C2147 C 0.58757 0.93367 0.71817 0.0
C2148 C 0.57388 0.94468 0.68381 0.0
C2149 C 0.59518 0.94952 0.71093 0.0
C2150 C 0.55229 0.87572 0.65127 0.0
C2151 C 0.55687 0.8842 0.62858 0.0
C2152 C 0.53992 0.8601 0.65129 0.0
C2153 C 0.54878 0.87699 0.60635 0.0
C2154 C 0.53213 0.8533 0.62866 0.0
N2155 N 0.53667 0.86182 0.60686 0.0
C2156 C 0.60888 0.91507 0.67869 0.0
C2157 C 0.59301 0.92267 0.65553 0.0
C2158 C 0.62192 0.92461 0.66355 0.0
N2159 N 0.59477 0.91419 0.67434 0.0
C2160 C 0.60576 0.93244 0.63999 0.0
C2161 C 0.62042 0.93333 0.64366 0.0
H2162 H 0.6099 0.90798 0.69342 0.0
H2163 H 0.5816 0.92157 0.65222 0.0
C2164 C 0.52057 0.88776 0.70863 0.0
N2165 N 0.53001 0.88846 0.68925 0.0
C2166 C 0.5066 0.88787 0.70381 0.0
C2167 C 0.51246 0.88973 0.65913 0.0
C2168 C 0.52635 0.8896 0.66484 0.0
C2169 C 0.50236 0.88881 0.67877 0.0
H2170 H 0.52385 0.88697 0.72788 0.0
H2171 H 0.53421 0.89053 0.64978 0.0
O2172 O 0.58125 0.88644 0.71736 0.0
O2173 O 0.5455 0.87293 0.72651 0.0
O2174 O 0.56529 0.90761 0.71437 0.0
O2175 O 0.56015 0.88262 0.67316 0.0
H2176 H 0.58097 0.86134 0.73675 0.0
H2177 H 0.6033 0.91196 0.74046 0.0
H2178 H 0.59853 0.86211 0.77126 0.0
H2179 H 0.62042 0.91183 0.775 0.0
H2180 H 0.49533 0.83395 0.70991 0.0
H2181 H 0.5386 0.8597 0.77183 0.0
H2182 H 0.52051 0.85726 0.69677 0.0
H2183 H 0.51304 0.83636 0.78371 0.0
H2184 H 0.57072 0.87828 0.82469 0.0
H2185 H 0.57098 0.92212 0.81287 0.0
H2186 H 0.57803 0.83639 0.66532 0.0
H2187 H 0.53637 0.81193 0.71207 0.0
H2188 H 0.55449 0.92078 0.68234 0.0
H2189 H 0.59306 0.92957 0.73162 0.0
H2190 H 0.56867 0.94913 0.67043 0.0
H2191 H 0.60661 0.95775 0.71874 0.0
H2192 H 0.56652 0.89625 0.62817 0.0
H2193 H 0.53643 0.85324 0.66851 0.0
H2194 H 0.55214 0.88345 0.5887 0.0
H2195 H 0.5225 0.84123 0.62843 0.0
H2196 H 0.63287 0.92465 0.66681 0.0
H2197 H 0.60408 0.93903 0.62505 0.0
H2198 H 0.4991 0.88698 0.71952 0.0
H2199 H 0.50978 0.89074 0.63959 0.0
Li2200 Li 0.12901 0.68754 0.70023 0.0
Li2201 Li 0.10858 0.67449 0.73391 0.0
Li2202 Li 0.11145 0.65859 0.69867 0.0
Li2203 Li 0.10006 0.67572 0.69058 0.0
C2204 C 0.13995 0.67233 0.73541 0.0
N2205 N 0.16683 0.67416 0.75573 0.0
C2206 C 0.14509 0.67872 0.75948 0.0
C2207 C 0.14843 0.6668 0.72172 0.0
C2208 C 0.15872 0.67956 0.76941 0.0
C2209 C 0.16201 0.66785 0.73231 0.0
C2210 C 0.10994 0.70406 0.72287 0.0
C2211 C 0.09057 0.71083 0.73656 0.0
N2212 N 0.10236 0.72567 0.74205 0.0
C2213 C 0.12187 0.71939 0.72848 0.0
C2214 C 0.09416 0.69973 0.7268 0.0
C2215 C 0.11779 0.73014 0.73823 0.0
C2216 C 0.14879 0.71551 0.6754 0.0
N2217 N 0.14908 0.70524 0.69243 0.0
C2218 C 0.17697 0.72159 0.69742 0.0
C2219 C 0.16279 0.70801 0.70345 0.0
C2220 C 0.17699 0.7325 0.68014 0.0
C2221 C 0.16267 0.72932 0.669 0.0
H2222 H 0.13769 0.71302 0.66701 0.0
H2223 H 0.16282 0.6999 0.71718 0.0
C2224 C 0.09663 0.66048 0.78099 0.0
N2225 N 0.10476 0.67461 0.76898 0.0
C2226 C 0.09456 0.65988 0.80717 0.0
C2227 C 0.109 0.68839 0.80801 0.0
C2228 C 0.1109 0.68843 0.78186 0.0
C2229 C 0.10093 0.67398 0.82111 0.0
H2230 H 0.09208 0.64968 0.77026 0.0
H2231 H 0.11759 0.6995 0.77196 0.0
C2232 C 0.1227 0.67159 0.64986 0.0
N2233 N 0.13487 0.66587 0.60665 0.0
C2234 C 0.11385 0.66707 0.62758 0.0
C2235 C 0.13778 0.67337 0.65014 0.0
C2236 C 0.12019 0.66418 0.60594 0.0
C2237 C 0.14372 0.67039 0.6281 0.0
C2238 C 0.07603 0.64793 0.7149 0.0
C2239 C 0.0682 0.63405 0.70078 0.0
C2240 C 0.06742 0.65226 0.73078 0.0
C2241 C 0.05178 0.62485 0.70245 0.0
C2242 C 0.05102 0.64275 0.73191 0.0
N2243 N 0.0436 0.62937 0.71782 0.0
C2244 C 0.11442 0.63218 0.70967 0.0
C2245 C 0.10584 0.63244 0.66787 0.0
C2246 C 0.11445 0.61817 0.70499 0.0
N2247 N 0.11042 0.63913 0.69108 0.0
C2248 C 0.10565 0.61839 0.66237 0.0
C2249 C 0.11013 0.61114 0.68101 0.0
H2250 H 0.11766 0.63757 0.72815 0.0
H2251 H 0.10235 0.63799 0.6536 0.0
C2252 C 0.09313 0.6942 0.66006 0.0
N2253 N 0.08629 0.67942 0.66996 0.0
C2254 C 0.08473 0.69844 0.64362 0.0
C2255 C 0.06226 0.67218 0.64794 0.0
C2256 C 0.07115 0.66842 0.66425 0.0
C2257 C 0.06911 0.68734 0.63722 0.0
H2258 H 0.10523 0.70268 0.66479 0.0
H2259 H 0.06601 0.65666 0.67192 0.0
O2260 O 0.12659 0.67135 0.72547 0.0
O2261 O 0.11377 0.69343 0.71333 0.0
O2262 O 0.11662 0.67441 0.67117 0.0
O2263 O 0.09209 0.657 0.71362 0.0
H2264 H 0.13862 0.68301 0.77034 0.0
H2265 H 0.14458 0.66175 0.70311 0.0
H2266 H 0.16286 0.6845 0.788 0.0
H2267 H 0.1687 0.66366 0.72191 0.0
H2268 H 0.0784 0.70765 0.73972 0.0
H2269 H 0.13415 0.72291 0.72543 0.0
H2270 H 0.0848 0.68799 0.72221 0.0
H2271 H 0.1269 0.74203 0.74277 0.0
H2272 H 0.18775 0.72373 0.70667 0.0
H2273 H 0.16222 0.7374 0.65546 0.0
H2274 H 0.0885 0.64849 0.81643 0.0
H2275 H 0.11396 0.69956 0.81785 0.0
H2276 H 0.10217 0.66573 0.62709 0.0
H2277 H 0.14485 0.67707 0.66715 0.0
H2278 H 0.11345 0.66059 0.58859 0.0
H2279 H 0.15537 0.67168 0.62804 0.0
H2280 H 0.07474 0.63048 0.68856 0.0
H2281 H 0.07335 0.66279 0.74223 0.0
H2282 H 0.04553 0.61413 0.69153 0.0
H2283 H 0.04419 0.64599 0.74404 0.0
H2284 H 0.11767 0.61281 0.72007 0.0
H2285 H 0.10227 0.61339 0.64361 0.0
H2286 H 0.09041 0.71032 0.63602 0.0
H2287 H 0.0503 0.66322 0.64326 0.0
Li2288 Li 0.30994 0.43891 0.69807 0.0
Li2289 Li 0.32309 0.43295 0.73191 0.0
Li2290 Li 0.33882 0.45067 0.69652 0.0
Li2291 Li 0.32192 0.4223 0.68994 0.0
C2292 C 0.3203 0.45982 0.74041 0.0
N2293 N 0.30904 0.47172 0.77711 0.0
C2294 C 0.30525 0.45038 0.7506 0.0
C2295 C 0.32963 0.47533 0.74881 0.0
C2296 C 0.29977 0.4566 0.76917 0.0
C2297 C 0.32372 0.48113 0.76739 0.0
C2298 C 0.29336 0.40528 0.72572 0.0
C2299 C 0.28554 0.38036 0.74607 0.0
N2300 N 0.27158 0.37923 0.75273 0.0
C2301 C 0.27887 0.4038 0.73257 0.0
C2302 C 0.29668 0.39341 0.73236 0.0
C2303 C 0.26804 0.39057 0.74631 0.0
C2304 C 0.27965 0.42863 0.68004 0.0
N2305 N 0.29242 0.44143 0.68996 0.0
C2306 C 0.27871 0.45593 0.6901 0.0
C2307 C 0.29234 0.45506 0.69458 0.0
C2308 C 0.26513 0.44268 0.68066 0.0
C2309 C 0.26581 0.42898 0.67525 0.0
H2310 H 0.28016 0.41802 0.67633 0.0
H2311 H 0.30272 0.46515 0.7022 0.0
C2312 C 0.33804 0.43628 0.77856 0.0
N2313 N 0.3236 0.43005 0.76753 0.0
C2314 C 0.33936 0.43551 0.80476 0.0
C2315 C 0.3109 0.42178 0.80773 0.0
C2316 C 0.31015 0.4229 0.78156 0.0
C2317 C 0.32565 0.42829 0.81976 0.0
H2318 H 0.34856 0.44213 0.767 0.0
H2319 H 0.29881 0.41837 0.77264 0.0
C2320 C 0.3238 0.45053 0.65138 0.0
N2321 N 0.32461 0.47201 0.61659 0.0
C2322 C 0.32165 0.44675 0.62569 0.0
C2323 C 0.32634 0.46523 0.6594 0.0
C2324 C 0.32211 0.45778 0.60839 0.0
C2325 C 0.32672 0.47593 0.64151 0.0
C2326 C 0.34846 0.42524 0.71452 0.0
C2327 C 0.36206 0.42978 0.70014 0.0
C2328 C 0.34321 0.41254 0.73127 0.0
C2329 C 0.36996 0.42125 0.70229 0.0
C2330 C 0.35144 0.40431 0.7329 0.0
N2331 N 0.36452 0.40878 0.71846 0.0
C2332 C 0.36657 0.4782 0.70863 0.0
C2333 C 0.36375 0.47285 0.66468 0.0
C2334 C 0.38073 0.49223 0.7046 0.0
N2335 N 0.35834 0.46896 0.68878 0.0
C2336 C 0.37776 0.4869 0.65972 0.0
C2337 C 0.38643 0.49689 0.67983 0.0
H2338 H 0.36206 0.47467 0.72762 0.0
H2339 H 0.35708 0.46519 0.64924 0.0
C2340 C 0.30425 0.39213 0.66919 0.0
N2341 N 0.31917 0.40458 0.67093 0.0
C2342 C 0.30115 0.37897 0.6548 0.0
C2343 C 0.32877 0.39182 0.64348 0.0
C2344 C 0.33135 0.40474 0.65824 0.0
C2345 C 0.31348 0.3787 0.64165 0.0
H2346 H 0.29464 0.39254 0.6785 0.0
H2347 H 0.34299 0.41501 0.65911 0.0
O2348 O 0.32591 0.45401 0.72216 0.0
O2349 O 0.30409 0.41816 0.71225 0.0
O2350 O 0.32331 0.4398 0.6685 0.0
O2351 O 0.34063 0.4335 0.71271 0.0
H2352 H 0.29785 0.43841 0.74413 0.0
H2353 H 0.34129 0.48281 0.741 0.0
H2354 H 0.28814 0.44941 0.77723 0.0
H2355 H 0.3308 0.49312 0.77406 0.0
H2356 H 0.28797 0.3711 0.75135 0.0
H2357 H 0.27605 0.41283 0.72756 0.0
H2358 H 0.30766 0.39418 0.72673 0.0
H2359 H 0.25683 0.38933 0.75187 0.0
H2360 H 0.2787 0.4667 0.69466 0.0
H2361 H 0.25574 0.4186 0.66748 0.0
H2362 H 0.35098 0.44092 0.81321 0.0
H2363 H 0.30001 0.41595 0.81844 0.0
H2364 H 0.31964 0.43541 0.61921 0.0
H2365 H 0.32807 0.4684 0.67918 0.0
H2366 H 0.32047 0.45502 0.58844 0.0
H2367 H 0.32869 0.48735 0.64745 0.0
H2368 H 0.36637 0.43972 0.68731 0.0
H2369 H 0.33299 0.40916 0.74308 0.0
H2370 H 0.38042 0.42454 0.69112 0.0
H2371 H 0.34747 0.39441 0.74571 0.0
H2372 H 0.38714 0.4993 0.72077 0.0
H2373 H 0.38155 0.49 0.6403 0.0
H2374 H 0.28911 0.36933 0.65333 0.0
H2375 H 0.33859 0.39213 0.6335 0.0
Li2376 Li 0.56536 0.90906 0.14063 0.0
Li2377 Li 0.55289 0.88051 0.13713 0.0
Li2378 Li 0.55581 0.8972 0.09991 0.0
Li2379 Li 0.53596 0.89257 0.13331 0.0
C2380 C 0.58813 0.90381 0.12614 0.0
N2381 N 0.61972 0.91867 0.13893 0.0
C2382 C 0.59358 0.89675 0.14334 0.0
C2383 C 0.59875 0.91833 0.11525 0.0
C2384 C 0.6096 0.90447 0.14959 0.0
C2385 C 0.61467 0.92569 0.12204 0.0
C2386 C 0.54321 0.88612 0.18597 0.0
C2387 C 0.52187 0.86824 0.21312 0.0
N2388 N 0.53205 0.87276 0.23296 0.0
C2389 C 0.55341 0.89073 0.20671 0.0
C2390 C 0.52727 0.87492 0.18926 0.0
C2391 C 0.54756 0.88378 0.23028 0.0
C2392 C 0.58121 0.94121 0.1528 0.0
N2393 N 0.58069 0.92737 0.15812 0.0
C2394 C 0.60017 0.93978 0.19042 0.0
C2395 C 0.58999 0.92644 0.17637 0.0
C2396 C 0.60074 0.95419 0.18564 0.0
C2397 C 0.59123 0.95483 0.16631 0.0
H2398 H 0.5735 0.9416 0.13856 0.0
H2399 H 0.58927 0.91528 0.1804 0.0
C2400 C 0.553 0.85275 0.12691 0.0
N2401 N 0.55314 0.86179 0.1465 0.0
C2402 C 0.55288 0.83865 0.13142 0.0
C2403 C 0.55365 0.84363 0.17626 0.0
C2404 C 0.55362 0.8576 0.17086 0.0
C2405 C 0.5532 0.83389 0.15638 0.0
H2406 H 0.55285 0.85647 0.1077 0.0
H2407 H 0.55411 0.86509 0.18615 0.0
C2408 C 0.55155 0.92193 0.09778 0.0
N2409 N 0.55106 0.93963 0.05743 0.0
C2410 C 0.53725 0.9203 0.08945 0.0
C2411 C 0.56562 0.93266 0.08576 0.0
C2412 C 0.53725 0.92935 0.06898 0.0
C2413 C 0.56512 0.94146 0.06533 0.0
C2414 C 0.52637 0.862 0.10488 0.0
C2415 C 0.52394 0.85691 0.07977 0.0
C2416 C 0.51795 0.85127 0.12417 0.0
C2417 C 0.51299 0.84118 0.07436 0.0
C2418 C 0.50715 0.83564 0.118 0.0
N2419 N 0.50489 0.83096 0.09342 0.0
C2420 C 0.57261 0.90134 0.05421 0.0
C2421 C 0.54706 0.8981 0.0496 0.0
C2422 C 0.57479 0.90251 0.02802 0.0
N2423 N 0.55892 0.8992 0.06438 0.0
C2424 C 0.54882 0.89946 0.02341 0.0
C2425 C 0.56278 0.90157 0.01218 0.0
H2426 H 0.58176 0.90195 0.06642 0.0
H2427 H 0.53619 0.89613 0.0582 0.0
C2428 C 0.51592 0.90219 0.15407 0.0
N2429 N 0.51609 0.89075 0.13978 0.0
C2430 C 0.50174 0.90194 0.15867 0.0
C2431 C 0.48815 0.87795 0.13416 0.0
C2432 C 0.50262 0.87878 0.12978 0.0
C2433 C 0.48763 0.8897 0.14862 0.0
H2434 H 0.52686 0.91161 0.16165 0.0
H2435 H 0.50311 0.86998 0.11814 0.0
O2436 O 0.57248 0.89651 0.11995 0.0
O2437 O 0.54873 0.89291 0.16281 0.0
O2438 O 0.55177 0.91303 0.11756 0.0
O2439 O 0.53703 0.87739 0.11045 0.0
H2440 H 0.58551 0.8855 0.15191 0.0
H2441 H 0.59472 0.92392 0.10185 0.0
H2442 H 0.61397 0.8992 0.16297 0.0
H2443 H 0.62301 0.93698 0.11389 0.0
H2444 H 0.50957 0.85952 0.21589 0.0
H2445 H 0.56573 0.89949 0.20463 0.0
H2446 H 0.51909 0.87149 0.17366 0.0
H2447 H 0.55536 0.88716 0.24644 0.0
H2448 H 0.60738 0.93879 0.20505 0.0
H2449 H 0.59104 0.96559 0.1623 0.0
H2450 H 0.55235 0.83148 0.11547 0.0
H2451 H 0.55424 0.84062 0.19578 0.0
H2452 H 0.52626 0.91205 0.09853 0.0
H2453 H 0.57678 0.93406 0.092 0.0
H2454 H 0.52627 0.92815 0.06224 0.0
H2455 H 0.5759 0.94973 0.05573 0.0
H2456 H 0.53041 0.86502 0.0646 0.0
H2457 H 0.51987 0.85492 0.1437 0.0
H2458 H 0.51094 0.8371 0.05499 0.0
H2459 H 0.50058 0.82721 0.13276 0.0
H2460 H 0.58563 0.90382 0.02032 0.0
H2461 H 0.53931 0.89891 0.01214 0.0
H2462 H 0.50179 0.91115 0.17007 0.0
H2463 H 0.47753 0.86844 0.12585 0.0
Li2464 Li 0.11818 0.67103 0.13517 0.0
Li2465 Li 0.08973 0.65531 0.142 0.0
Li2466 Li 0.10586 0.64294 0.12986 0.0
Li2467 Li 0.10003 0.6579 0.0984 0.0
C2468 C 0.1153 0.66145 0.18247 0.0
N2469 N 0.13294 0.67629 0.22491 0.0
C2470 C 0.10934 0.66738 0.20078 0.0
C2471 C 0.13015 0.66291 0.18586 0.0
C2472 C 0.11846 0.67487 0.22209 0.0
C2473 C 0.13891 0.67051 0.2074 0.0
C2474 C 0.09384 0.68316 0.11802 0.0
C2475 C 0.07391 0.68692 0.0976 0.0
N2476 N 0.07861 0.70028 0.11132 0.0
C2477 C 0.09863 0.69705 0.13166 0.0
C2478 C 0.08152 0.67816 0.10061 0.0
C2479 C 0.09072 0.70549 0.12811 0.0
C2480 C 0.1507 0.69325 0.13316 0.0
N2481 N 0.13698 0.68967 0.14502 0.0
C2482 C 0.15022 0.71294 0.17028 0.0
C2483 C 0.13647 0.6992 0.1632 0.0
C2484 C 0.1646 0.71697 0.15835 0.0
C2485 C 0.16471 0.70688 0.13958 0.0
H2486 H 0.15074 0.68561 0.11848 0.0
H2487 H 0.12539 0.69613 0.17224 0.0
C2488 C 0.06132 0.63675 0.16693 0.0
N2489 N 0.07218 0.65206 0.16211 0.0
C2490 C 0.048 0.63298 0.18144 0.0
C2491 C 0.05755 0.66083 0.18683 0.0
C2492 C 0.07064 0.66408 0.17189 0.0
C2493 C 0.04598 0.64509 0.19158 0.0
H2494 H 0.06305 0.62744 0.1595 0.0
H2495 H 0.07964 0.67615 0.16845 0.0
C2496 C 0.1289 0.65293 0.09631 0.0
N2497 N 0.14496 0.63886 0.07646 0.0
C2498 C 0.12546 0.64659 0.07194 0.0
C2499 C 0.14059 0.65224 0.1105 0.0
C2500 C 0.1337 0.63951 0.06226 0.0
C2501 C 0.14855 0.64503 0.10016 0.0
C2502 C 0.07062 0.62897 0.10571 0.0
C2503 C 0.06696 0.61432 0.09572 0.0
C2504 C 0.0594 0.63384 0.10467 0.0
C2505 C 0.05222 0.60487 0.08455 0.0
C2506 C 0.04478 0.62405 0.09338 0.0
N2507 N 0.04153 0.60989 0.0836 0.0
C2508 C 0.11141 0.62155 0.15777 0.0
C2509 C 0.10579 0.61521 0.11439 0.0
C2510 C 0.11276 0.60817 0.16174 0.0
N2511 N 0.108 0.6248 0.13439 0.0
C2512 C 0.10703 0.6017 0.11749 0.0
C2513 C 0.1105 0.598 0.14146 0.0
H2514 H 0.11288 0.62924 0.17342 0.0
H2515 H 0.10304 0.61803 0.09601 0.0
C2516 C 0.10933 0.67381 0.05281 0.0
N2517 N 0.09745 0.66046 0.06331 0.0
C2518 C 0.10945 0.67654 0.02689 0.0
C2519 C 0.08484 0.65194 0.02312 0.0
C2520 C 0.08528 0.64961 0.04909 0.0
C2521 C 0.09715 0.66545 0.01168 0.0
H2522 H 0.1189 0.68219 0.06458 0.0
H2523 H 0.07605 0.63898 0.0576 0.0
O2524 O 0.10663 0.65425 0.16134 0.0
O2525 O 0.10154 0.67483 0.12118 0.0
O2526 O 0.12083 0.65975 0.10624 0.0
O2527 O 0.08501 0.63834 0.11676 0.0
H2528 H 0.09786 0.6663 0.1985 0.0
H2529 H 0.13491 0.65837 0.1719 0.0
H2530 H 0.11404 0.67959 0.23635 0.0
H2531 H 0.15047 0.67183 0.21018 0.0
H2532 H 0.0643 0.68313 0.08426 0.0
H2533 H 0.10828 0.70122 0.14497 0.0
H2534 H 0.07792 0.6677 0.08938 0.0
H2535 H 0.09423 0.71619 0.1387 0.0
H2536 H 0.14959 0.72027 0.18503 0.0
H2537 H 0.17545 0.70965 0.12955 0.0
H2538 H 0.03953 0.6207 0.18514 0.0
H2539 H 0.05645 0.6705 0.19447 0.0
H2540 H 0.11642 0.64698 0.0607 0.0
H2541 H 0.14341 0.65709 0.12937 0.0
H2542 H 0.13111 0.63448 0.04348 0.0
H2543 H 0.15756 0.64432 0.11099 0.0
H2544 H 0.0754 0.61027 0.09653 0.0
H2545 H 0.06186 0.64498 0.11269 0.0
H2546 H 0.04927 0.59353 0.07665 0.0
H2547 H 0.03601 0.62768 0.09245 0.0
H2548 H 0.1152 0.60564 0.18061 0.0
H2549 H 0.10536 0.59428 0.10128 0.0
H2550 H 0.11911 0.68717 0.0188 0.0
H2551 H 0.07524 0.64302 0.01198 0.0
Li2552 Li 0.34245 0.43127 0.14131 0.0
Li2553 Li 0.32642 0.44366 0.13381 0.0
Li2554 Li 0.33994 0.43878 0.09761 0.0
Li2555 Li 0.3548 0.45987 0.1286 0.0
C2556 C 0.31582 0.40732 0.11673 0.0
N2557 N 0.30135 0.37512 0.10954 0.0
C2558 C 0.30113 0.39733 0.12773 0.0
C2559 C 0.32308 0.40097 0.10188 0.0
C2560 C 0.29402 0.38107 0.12393 0.0
C2561 C 0.3156 0.38465 0.09852 0.0
C2562 C 0.3368 0.45148 0.18143 0.0
C2563 C 0.32972 0.46746 0.20678 0.0
N2564 N 0.32379 0.45597 0.22476 0.0
C2565 C 0.33077 0.43989 0.20025 0.0
C2566 C 0.33641 0.46544 0.18478 0.0
C2567 C 0.3242 0.44236 0.22199 0.0
C2568 C 0.36096 0.42189 0.16731 0.0
N2569 N 0.34567 0.41724 0.16195 0.0
C2570 C 0.33678 0.39404 0.18722 0.0
C2571 C 0.3336 0.4037 0.17171 0.0
C2572 C 0.35251 0.3984 0.19262 0.0
C2573 C 0.36467 0.41255 0.18249 0.0
H2574 H 0.37029 0.43292 0.1598 0.0
H2575 H 0.32153 0.4005 0.16777 0.0
C2576 C 0.30295 0.45199 0.1287 0.0
N2577 N 0.30754 0.44349 0.14312 0.0
C2578 C 0.289 0.45199 0.13422 0.0
C2579 C 0.28471 0.43447 0.16938 0.0
C2580 C 0.29866 0.43463 0.16294 0.0
C2581 C 0.27972 0.44318 0.15482 0.0
H2582 H 0.31002 0.45864 0.1127 0.0
H2583 H 0.30229 0.42756 0.17358 0.0
C2584 C 0.37002 0.44074 0.1036 0.0
N2585 N 0.39158 0.43528 0.07837 0.0
C2586 C 0.38256 0.45297 0.09041 0.0
C2587 C 0.36849 0.42575 0.10406 0.0
C2588 C 0.39332 0.44996 0.07774 0.0
C2589 C 0.3795 0.42323 0.09116 0.0
C2590 C 0.34314 0.47229 0.09507 0.0
C2591 C 0.34896 0.47571 0.07034 0.0
C2592 C 0.34257 0.48395 0.10951 0.0
C2593 C 0.35426 0.49081 0.06056 0.0
C2594 C 0.348 0.4989 0.09905 0.0
N2595 N 0.35368 0.502 0.075 0.0
C2596 C 0.3253 0.43425 0.05139 0.0
C2597 C 0.34762 0.43089 0.04868 0.0
C2598 C 0.32307 0.43242 0.0253 0.0
N2599 N 0.33758 0.43375 0.06247 0.0
C2600 C 0.34581 0.42893 0.02252 0.0
C2601 C 0.33357 0.42998 0.01046 0.0
H2602 H 0.31749 0.43652 0.06283 0.0
H2603 H 0.35725 0.43043 0.0577 0.0
C2604 C 0.37762 0.48487 0.15766 0.0
N2605 N 0.37285 0.48017 0.13353 0.0
C2606 C 0.39114 0.49936 0.1624 0.0
C2607 C 0.39455 0.50396 0.11735 0.0
C2608 C 0.38104 0.48934 0.1135 0.0
C2609 C 0.39985 0.50912 0.14208 0.0
H2610 H 0.37107 0.47724 0.17325 0.0
H2611 H 0.37721 0.48525 0.09448 0.0
O2612 O 0.32296 0.42324 0.12044 0.0
O2613 O 0.34319 0.44923 0.15995 0.0
O2614 O 0.35947 0.44352 0.11632 0.0
O2615 O 0.3379 0.45758 0.10499 0.0
H2616 H 0.29534 0.40211 0.13922 0.0
H2617 H 0.33435 0.40855 0.09301 0.0
H2618 H 0.28269 0.37318 0.13244 0.0
H2619 H 0.3211 0.37956 0.08713 0.0
H2620 H 0.32925 0.47817 0.20956 0.0
H2621 H 0.33106 0.42905 0.198 0.0
H2622 H 0.3412 0.4746 0.17054 0.0
H2623 H 0.3194 0.43346 0.23665 0.0
H2624 H 0.32707 0.38324 0.19477 0.0
H2625 H 0.37694 0.41653 0.18665 0.0
H2626 H 0.28555 0.45887 0.12257 0.0
H2627 H 0.27773 0.42733 0.18516 0.0
H2628 H 0.38395 0.46463 0.08984 0.0
H2629 H 0.3589 0.41613 0.11418 0.0
H2630 H 0.40306 0.45931 0.06741 0.0
H2631 H 0.37844 0.41168 0.09132 0.0
H2632 H 0.34957 0.46687 0.05892 0.0
H2633 H 0.33799 0.48146 0.12859 0.0
H2634 H 0.35886 0.49364 0.0415 0.0
H2635 H 0.34768 0.50805 0.11005 0.0
H2636 H 0.31334 0.43307 0.01681 0.0
H2637 H 0.35422 0.42717 0.01177 0.0
H2638 H 0.39492 0.50267 0.18176 0.0
H2639 H 0.40076 0.51114 0.1011 0.0
Li2640 Li 0.10331 0.45948 0.62911 0.0
Li2641 Li 0.11668 0.44323 0.63338 0.0
Li2642 Li 0.09898 0.44054 0.59683 0.0
Li2643 Li 0.08826 0.43167 0.63775 0.0
C2644 C 0.13032 0.4748 0.6046 0.0
N2645 N 0.15177 0.50674 0.6015 0.0
C2646 C 0.14474 0.48118 0.61735 0.0
C2647 C 0.12688 0.48468 0.59012 0.0
C2648 C 0.15542 0.49735 0.61557 0.0
C2649 C 0.13785 0.50079 0.58885 0.0
C2650 C 0.09936 0.44419 0.6826 0.0
C2651 C 0.09586 0.42974 0.72128 0.0
N2652 N 0.08589 0.43462 0.72987 0.0
C2653 C 0.08918 0.44916 0.69185 0.0
C2654 C 0.1028 0.43446 0.69742 0.0
C2655 C 0.08245 0.44415 0.71579 0.0
C2656 C 0.09364 0.48214 0.62884 0.0
N2657 N 0.10528 0.4794 0.63674 0.0
C2658 C 0.11948 0.50518 0.65484 0.0
C2659 C 0.11792 0.49043 0.64991 0.0
C2660 C 0.10783 0.50848 0.64628 0.0
C2661 C 0.09472 0.49668 0.6333 0.0
H2662 H 0.08347 0.473 0.61915 0.0
H2663 H 0.12687 0.48783 0.65636 0.0
C2664 C 0.14108 0.43708 0.6249 0.0
N2665 N 0.1353 0.44306 0.64232 0.0
C2666 C 0.15499 0.43686 0.62964 0.0
C2667 C 0.15686 0.44918 0.67008 0.0
C2668 C 0.14283 0.44908 0.66459 0.0
C2669 C 0.16309 0.44298 0.65247 0.0
H2670 H 0.13486 0.43253 0.60725 0.0
H2671 H 0.13802 0.45394 0.67794 0.0
C2672 C 0.07331 0.4412 0.59385 0.0
N2673 N 0.05433 0.4353 0.55187 0.0
C2674 C 0.05999 0.42632 0.59037 0.0
C2675 C 0.07696 0.45307 0.57595 0.0
C2676 C 0.05053 0.42359 0.56906 0.0
C2677 C 0.06723 0.44985 0.55485 0.0
C2678 C 0.09292 0.40818 0.62319 0.0
C2679 C 0.07777 0.39752 0.61443 0.0
C2680 C 0.10097 0.40275 0.63826 0.0
C2681 C 0.07089 0.38161 0.62102 0.0
C2682 C 0.0937 0.38673 0.64439 0.0
N2683 N 0.07893 0.37658 0.63573 0.0
C2684 C 0.10706 0.44907 0.54608 0.0
C2685 C 0.08546 0.42315 0.55111 0.0
C2686 C 0.10579 0.4477 0.51987 0.0
N2687 N 0.09685 0.437 0.56113 0.0
C2688 C 0.08374 0.42125 0.52491 0.0
C2689 C 0.09391 0.43371 0.50893 0.0
H2690 H 0.1162 0.45982 0.55442 0.0
H2691 H 0.07753 0.41368 0.56342 0.0
C2692 C 0.05791 0.41968 0.65712 0.0
N2693 N 0.07025 0.41698 0.65739 0.0
C2694 C 0.04448 0.41042 0.67158 0.0
C2695 C 0.05679 0.39596 0.68722 0.0
C2696 C 0.07001 0.4055 0.6723 0.0
C2697 C 0.04377 0.39835 0.68688 0.0
H2698 H 0.05861 0.4293 0.64605 0.0
H2699 H 0.08017 0.40395 0.67314 0.0
O2700 O 0.11962 0.45901 0.60638 0.0
O2701 O 0.10572 0.44863 0.65897 0.0
O2702 O 0.08291 0.44402 0.61437 0.0
O2703 O 0.09992 0.42379 0.61678 0.0
H2704 H 0.14766 0.47377 0.62859 0.0
H2705 H 0.11575 0.48 0.58026 0.0
H2706 H 0.16659 0.50244 0.62541 0.0
H2707 H 0.13528 0.50857 0.57788 0.0
H2708 H 0.09832 0.42211 0.7329 0.0
H2709 H 0.08637 0.45666 0.68052 0.0
H2710 H 0.11055 0.4304 0.6904 0.0
H2711 H 0.07445 0.4478 0.72314 0.0
H2712 H 0.12979 0.51395 0.66488 0.0
H2713 H 0.08527 0.49858 0.62693 0.0
H2714 H 0.1595 0.4322 0.61539 0.0
H2715 H 0.1627 0.45393 0.68796 0.0
H2716 H 0.05707 0.4169 0.60377 0.0
H2717 H 0.08732 0.46458 0.5781 0.0
H2718 H 0.04022 0.41212 0.5661 0.0
H2719 H 0.06999 0.4589 0.54078 0.0
H2720 H 0.0713 0.40152 0.603 0.0
H2721 H 0.11266 0.41081 0.64533 0.0
H2722 H 0.05914 0.37325 0.61451 0.0
H2723 H 0.09978 0.38238 0.65609 0.0
H2724 H 0.11412 0.45746 0.50828 0.0
H2725 H 0.07438 0.41029 0.51726 0.0
H2726 H 0.03493 0.413 0.67131 0.0
H2727 H 0.05678 0.38687 0.69892 0.0
Li2728 Li 0.55611 0.65795 0.5991 0.0
Li2729 Li 0.55311 0.67233 0.63423 0.0
Li2730 Li 0.56487 0.65557 0.64039 0.0
Li2731 Li 0.53655 0.64408 0.6325 0.0
C2732 C 0.58832 0.68301 0.62631 0.0
N2733 N 0.6194 0.69871 0.64205 0.0
C2734 C 0.59358 0.69563 0.64317 0.0
C2735 C 0.59886 0.67843 0.61734 0.0
C2736 C 0.60934 0.70341 0.65091 0.0
C2737 C 0.61452 0.68649 0.62558 0.0
C2738 C 0.53116 0.66874 0.60122 0.0
C2739 C 0.51466 0.68 0.61015 0.0
N2740 N 0.51976 0.6886 0.58847 0.0
C2741 C 0.53618 0.67763 0.57896 0.0
C2742 C 0.52024 0.66984 0.61688 0.0
C2743 C 0.53029 0.68762 0.57286 0.0
C2744 C 0.54719 0.64932 0.54867 0.0
N2745 N 0.55967 0.65855 0.56378 0.0
C2746 C 0.57661 0.6693 0.52791 0.0
C2747 C 0.57421 0.66843 0.55403 0.0
C2748 C 0.56393 0.65987 0.51182 0.0
C2749 C 0.54908 0.6497 0.52251 0.0
H2750 H 0.5357 0.6418 0.55699 0.0
H2751 H 0.58387 0.67577 0.5665 0.0
C2752 C 0.54976 0.69377 0.66639 0.0
N2753 N 0.55411 0.69162 0.64299 0.0
C2754 C 0.55011 0.70786 0.67228 0.0
C2755 C 0.55946 0.7172 0.62992 0.0
C2756 C 0.55918 0.70307 0.62501 0.0
C2757 C 0.55483 0.71968 0.65378 0.0
H2758 H 0.54597 0.68455 0.68043 0.0
H2759 H 0.56288 0.70113 0.60674 0.0
C2760 C 0.55072 0.62894 0.59781 0.0
N2761 N 0.54921 0.61075 0.55686 0.0
C2762 C 0.53609 0.61732 0.58862 0.0
C2763 C 0.56459 0.63124 0.58629 0.0
C2764 C 0.53557 0.60825 0.56788 0.0
C2765 C 0.56357 0.62196 0.56557 0.0
C2766 C 0.53982 0.6492 0.6818 0.0
C2767 C 0.54372 0.63993 0.69695 0.0
C2768 C 0.5261 0.64978 0.68691 0.0
C2769 C 0.53373 0.63127 0.71687 0.0
C2770 C 0.5164 0.64093 0.70697 0.0
N2771 N 0.52038 0.63193 0.7214 0.0
C2772 C 0.58786 0.66188 0.67865 0.0
C2773 C 0.5796 0.6386 0.65464 0.0
C2774 C 0.59681 0.65793 0.69449 0.0
N2775 N 0.5794 0.65215 0.65933 0.0
C2776 C 0.58822 0.63413 0.67012 0.0
C2777 C 0.59671 0.64368 0.69063 0.0
H2778 H 0.58713 0.67235 0.68239 0.0
H2779 H 0.57253 0.63092 0.63952 0.0
C2780 C 0.50311 0.62508 0.62977 0.0
N2781 N 0.5165 0.62625 0.63958 0.0
C2782 C 0.48852 0.61156 0.63415 0.0
C2783 C 0.5018 0.60084 0.65883 0.0
C2784 C 0.51613 0.61443 0.65364 0.0
C2785 C 0.48778 0.59926 0.6489 0.0
H2786 H 0.50379 0.63453 0.61825 0.0
H2787 H 0.52703 0.61551 0.66057 0.0
O2788 O 0.5729 0.67514 0.6187 0.0
O2789 O 0.537 0.65912 0.60776 0.0
O2790 O 0.55149 0.63815 0.61778 0.0
O2791 O 0.54932 0.65758 0.66198 0.0
H2792 H 0.58557 0.69931 0.65035 0.0
H2793 H 0.59495 0.66864 0.60437 0.0
H2794 H 0.61358 0.71316 0.66402 0.0
H2795 H 0.6228 0.68302 0.61891 0.0
H2796 H 0.5063 0.68106 0.62219 0.0
H2797 H 0.54467 0.67697 0.56666 0.0
H2798 H 0.51624 0.66306 0.63417 0.0
H2799 H 0.53414 0.69463 0.55577 0.0
H2800 H 0.58825 0.67725 0.52039 0.0
H2801 H 0.53895 0.64244 0.51074 0.0
H2802 H 0.54644 0.70937 0.69089 0.0
H2803 H 0.5634 0.72615 0.61531 0.0
H2804 H 0.52524 0.61541 0.59723 0.0
H2805 H 0.57601 0.64024 0.59312 0.0
H2806 H 0.52433 0.59926 0.56049 0.0
H2807 H 0.5742 0.62368 0.55636 0.0
H2808 H 0.55427 0.6393 0.69326 0.0
H2809 H 0.52289 0.65687 0.67535 0.0
H2810 H 0.53657 0.62399 0.72867 0.0
H2811 H 0.50569 0.64119 0.71103 0.0
H2812 H 0.60306 0.66548 0.71034 0.0
H2813 H 0.5879 0.62307 0.66652 0.0
H2814 H 0.47793 0.61074 0.62618 0.0
H2815 H 0.50173 0.5915 0.66993 0.0
Li2816 Li 0.34134 0.89799 0.59845 0.0
Li2817 Li 0.34412 0.90777 0.64153 0.0
Li2818 Li 0.35492 0.89165 0.63097 0.0
Li2819 Li 0.32633 0.88025 0.63323 0.0
C2820 C 0.37581 0.91761 0.60776 0.0
N2821 N 0.40596 0.92679 0.59105 0.0
C2822 C 0.38884 0.93045 0.61892 0.0
C2823 C 0.37811 0.9095 0.58801 0.0
C2824 C 0.40399 0.93489 0.61022 0.0
C2825 C 0.39345 0.91431 0.57985 0.0
C2826 C 0.32133 0.90946 0.61131 0.0
C2827 C 0.30251 0.9178 0.60162 0.0
N2828 N 0.31451 0.93197 0.59361 0.0
C2829 C 0.33348 0.92409 0.60295 0.0
C2830 C 0.30572 0.90627 0.61061 0.0
C2831 C 0.32978 0.93531 0.59407 0.0
C2832 C 0.32685 0.89109 0.55115 0.0
N2833 N 0.34006 0.90174 0.56361 0.0
C2834 C 0.35119 0.91618 0.52548 0.0
C2835 C 0.35199 0.91432 0.55151 0.0
C2836 C 0.33783 0.90518 0.51205 0.0
C2837 C 0.32542 0.89266 0.52519 0.0
H2838 H 0.31754 0.88124 0.56136 0.0
H2839 H 0.3622 0.92281 0.56198 0.0
C2840 C 0.36272 0.93256 0.67328 0.0
N2841 N 0.34825 0.92534 0.66228 0.0
C2842 C 0.36728 0.94558 0.68889 0.0
C2843 C 0.34174 0.94325 0.68229 0.0
C2844 C 0.33766 0.93022 0.66675 0.0
C2845 C 0.35682 0.95122 0.69334 0.0
H2846 H 0.37065 0.92804 0.67011 0.0
H2847 H 0.32604 0.92401 0.65838 0.0
C2848 C 0.33592 0.86202 0.60676 0.0
N2849 N 0.32959 0.83118 0.60784 0.0
C2850 C 0.3366 0.85516 0.62959 0.0
C2851 C 0.33196 0.85319 0.58451 0.0
C2852 C 0.33338 0.83956 0.62973 0.0
C2853 C 0.32883 0.83761 0.58544 0.0
C2854 C 0.33888 0.8928 0.68449 0.0
C2855 C 0.34985 0.89659 0.70396 0.0
C2856 C 0.32494 0.89309 0.68902 0.0
C2857 C 0.34675 0.90077 0.72763 0.0
C2858 C 0.32228 0.89733 0.71295 0.0
N2859 N 0.33315 0.90106 0.73159 0.0
C2860 C 0.38223 0.89733 0.65641 0.0
C2861 C 0.37609 0.87982 0.62187 0.0
C2862 C 0.39601 0.89687 0.66124 0.0
N2863 N 0.37257 0.88883 0.63711 0.0
C2864 C 0.38979 0.87904 0.62598 0.0
C2865 C 0.39997 0.88766 0.64588 0.0
H2866 H 0.37943 0.90484 0.6676 0.0
H2867 H 0.36849 0.87355 0.60614 0.0
C2868 C 0.29684 0.85494 0.62062 0.0
N2869 N 0.30698 0.86168 0.64026 0.0
C2870 C 0.28264 0.84086 0.62412 0.0
C2871 C 0.28953 0.84104 0.66808 0.0
C2872 C 0.30371 0.85499 0.66363 0.0
C2873 C 0.27884 0.8338 0.64813 0.0
H2874 H 0.29989 0.86047 0.60217 0.0
H2875 H 0.31217 0.86036 0.67875 0.0
O2876 O 0.36089 0.91275 0.61649 0.0
O2877 O 0.32455 0.89822 0.62009 0.0
O2878 O 0.33879 0.8772 0.60614 0.0
O2879 O 0.34187 0.88911 0.66095 0.0
H2880 H 0.3873 0.93694 0.6341 0.0
H2881 H 0.36816 0.89943 0.57933 0.0
H2882 H 0.41418 0.94479 0.61872 0.0
H2883 H 0.3954 0.90806 0.56471 0.0
H2884 H 0.29049 0.9155 0.60101 0.0
H2885 H 0.34563 0.92682 0.60336 0.0
H2886 H 0.29619 0.89498 0.61699 0.0
H2887 H 0.33906 0.94669 0.58758 0.0
H2888 H 0.36091 0.92605 0.51591 0.0
H2889 H 0.31497 0.88393 0.51536 0.0
H2890 H 0.37886 0.95109 0.69756 0.0
H2891 H 0.33331 0.9472 0.68528 0.0
H2892 H 0.33957 0.8618 0.64702 0.0
H2893 H 0.33131 0.85832 0.56673 0.0
H2894 H 0.33387 0.8341 0.64725 0.0
H2895 H 0.32576 0.83063 0.56836 0.0
H2896 H 0.36064 0.89634 0.70087 0.0
H2897 H 0.31638 0.8903 0.67409 0.0
H2898 H 0.35516 0.90379 0.74286 0.0
H2899 H 0.3116 0.89771 0.71666 0.0
H2900 H 0.4037 0.90399 0.67641 0.0
H2901 H 0.39238 0.87178 0.61371 0.0
H2902 H 0.27466 0.83563 0.6083 0.0
H2903 H 0.28709 0.8358 0.68677 0.0
Li2904 Li 0.12879 0.43875 0.20264 0.0
Li2905 Li 0.11334 0.45149 0.19686 0.0
Li2906 Li 0.10781 0.43336 0.23228 0.0
Li2907 Li 0.1016 0.42337 0.18918 0.0
C2908 C 0.14062 0.46838 0.22507 0.0
N2909 N 0.16743 0.49782 0.22359 0.0
C2910 C 0.14922 0.47397 0.20263 0.0
C2911 C 0.14567 0.47774 0.24677 0.0
C2912 C 0.16274 0.48889 0.20226 0.0
C2913 C 0.15925 0.4926 0.24563 0.0
C2914 C 0.1147 0.44319 0.14753 0.0
C2915 C 0.09496 0.44344 0.1205 0.0
N2916 N 0.1051 0.44764 0.10062 0.0
C2917 C 0.12492 0.4475 0.12684 0.0
C2918 C 0.09959 0.44115 0.14438 0.0
C2919 C 0.11985 0.4497 0.10327 0.0
C2920 C 0.15186 0.43612 0.17576 0.0
N2921 N 0.14897 0.44065 0.19845 0.0
C2922 C 0.17444 0.44686 0.21366 0.0
C2923 C 0.15991 0.44607 0.21725 0.0
C2924 C 0.17776 0.44227 0.19038 0.0
C2925 C 0.1663 0.43692 0.17124 0.0
H2926 H 0.14289 0.4318 0.16123 0.0
H2927 H 0.15735 0.44974 0.23505 0.0
C2928 C 0.10391 0.47396 0.20087 0.0
N2929 N 0.11352 0.47029 0.18757 0.0
C2930 C 0.1035 0.4877 0.19535 0.0
C2931 C 0.12299 0.49369 0.16265 0.0
C2932 C 0.12298 0.4798 0.16876 0.0
C2933 C 0.11314 0.49778 0.17602 0.0
H2934 H 0.09663 0.46623 0.21588 0.0
H2935 H 0.13056 0.47663 0.15853 0.0
C2936 C 0.11894 0.41173 0.23157 0.0
N2937 N 0.13251 0.39946 0.26344 0.0
C2938 C 0.11621 0.39644 0.22784 0.0
C2939 C 0.12861 0.42081 0.25146 0.0
C2940 C 0.12317 0.39044 0.24417 0.0
C2941 C 0.13535 0.41438 0.26738 0.0
C2942 C 0.07687 0.42599 0.21361 0.0
C2943 C 0.07071 0.41233 0.22839 0.0
C2944 C 0.06682 0.43106 0.20412 0.0
C2945 C 0.05452 0.40396 0.23348 0.0
C2946 C 0.0507 0.42234 0.20956 0.0
N2947 N 0.04493 0.40909 0.22403 0.0
C2948 C 0.10345 0.4436 0.27856 0.0
C2949 C 0.09704 0.41683 0.27983 0.0
C2950 C 0.10076 0.44345 0.30445 0.0
N2951 N 0.10181 0.43051 0.26692 0.0
C2952 C 0.09428 0.41616 0.30585 0.0
C2953 C 0.09642 0.42969 0.31857 0.0
H2954 H 0.10717 0.45428 0.26772 0.0
H2955 H 0.09574 0.40654 0.27008 0.0
C2956 C 0.09723 0.40315 0.15029 0.0
N2957 N 0.08869 0.40613 0.16738 0.0
C2958 C 0.08976 0.39057 0.13352 0.0
C2959 C 0.06473 0.38415 0.1523 0.0
C2960 C 0.0727 0.39707 0.16846 0.0
C2961 C 0.07329 0.38064 0.13465 0.0
H2962 H 0.10993 0.41054 0.14981 0.0
H2963 H 0.06606 0.39964 0.18198 0.0
O2964 O 0.12733 0.45382 0.226 0.0
O2965 O 0.11963 0.44114 0.17072 0.0
O2966 O 0.11229 0.41777 0.21556 0.0
O2967 O 0.09269 0.43456 0.20868 0.0
H2968 H 0.14554 0.46688 0.18566 0.0
H2969 H 0.13915 0.47356 0.2643 0.0
H2970 H 0.16949 0.49336 0.18502 0.0
H2971 H 0.16329 0.49998 0.26228 0.0
H2972 H 0.08331 0.44189 0.11779 0.0
H2973 H 0.13667 0.44919 0.129 0.0
H2974 H 0.09151 0.43784 0.16013 0.0
H2975 H 0.12764 0.45305 0.08709 0.0
H2976 H 0.18305 0.45119 0.22878 0.0
H2977 H 0.16837 0.43313 0.15312 0.0
H2978 H 0.09591 0.49052 0.20636 0.0
H2979 H 0.1305 0.50105 0.14746 0.0
H2980 H 0.10879 0.38929 0.21245 0.0
H2981 H 0.13087 0.43267 0.25462 0.0
H2982 H 0.12115 0.37861 0.24152 0.0
H2983 H 0.14284 0.42127 0.28286 0.0
H2984 H 0.07827 0.40807 0.23542 0.0
H2985 H 0.07143 0.44163 0.19265 0.0
H2986 H 0.04957 0.39334 0.24482 0.0
H2987 H 0.04277 0.42612 0.20231 0.0
H2988 H 0.10224 0.45406 0.31336 0.0
H2989 H 0.09106 0.40534 0.31599 0.0
H2990 H 0.09688 0.38867 0.11987 0.0
H2991 H 0.05205 0.37679 0.15409 0.0
Li2992 Li 0.55871 0.68745 0.20033 0.0
Li2993 Li 0.57449 0.67637 0.19235 0.0
Li2994 Li 0.5459 0.65893 0.19686 0.0
Li2995 Li 0.56416 0.67372 0.23471 0.0
C2996 C 0.55279 0.68033 0.15071 0.0
N2997 N 0.54347 0.69204 0.11079 0.0
C2998 C 0.56371 0.69431 0.13868 0.0
C2999 C 0.53716 0.67221 0.14224 0.0
C3000 C 0.55876 0.70007 0.11861 0.0
C3001 C 0.53268 0.67834 0.12206 0.0
C3002 C 0.59452 0.70373 0.21517 0.0
C3003 C 0.62107 0.71512 0.23124 0.0
N3004 N 0.62648 0.72476 0.21068 0.0
C3005 C 0.60033 0.71387 0.19435 0.0
C3006 C 0.60494 0.70443 0.2339 0.0
C3007 C 0.61653 0.72436 0.19235 0.0
C3008 C 0.5666 0.71906 0.20633 0.0
N3009 N 0.55596 0.70538 0.19494 0.0
C3010 C 0.5425 0.71792 0.17726 0.0
C3011 C 0.54386 0.70452 0.18101 0.0
C3012 C 0.55354 0.73227 0.18837 0.0
C3013 C 0.56561 0.7327 0.2033 0.0
H3014 H 0.57589 0.71941 0.21785 0.0
H3015 H 0.53517 0.69344 0.17292 0.0
C3016 C 0.59138 0.67874 0.1479 0.0
N3017 N 0.59245 0.67905 0.17354 0.0
C3018 C 0.60458 0.68248 0.13302 0.0
C3019 C 0.61962 0.68612 0.17116 0.0
C3020 C 0.60606 0.68209 0.18529 0.0
C3021 C 0.61903 0.68667 0.14469 0.0
H3022 H 0.58037 0.67604 0.13897 0.0
H3023 H 0.60656 0.68188 0.20566 0.0
C3024 C 0.5341 0.67766 0.23019 0.0
N3025 N 0.5161 0.69145 0.24096 0.0
C3026 C 0.53876 0.68896 0.24929 0.0
C3027 C 0.52026 0.6733 0.21663 0.0
C3028 C 0.52951 0.69582 0.25442 0.0
C3029 C 0.51132 0.68042 0.22236 0.0
C3030 C 0.57252 0.65014 0.20916 0.0
C3031 C 0.57087 0.64175 0.18694 0.0
C3032 C 0.58392 0.6521 0.22694 0.0
C3033 C 0.58082 0.63555 0.18276 0.0
C3034 C 0.59362 0.64569 0.22208 0.0
N3035 N 0.59189 0.63764 0.20027 0.0
C3036 C 0.52682 0.63222 0.16629 0.0
C3037 C 0.51545 0.63383 0.20495 0.0
C3038 C 0.51324 0.61798 0.16041 0.0
N3039 N 0.52761 0.63979 0.18821 0.0
C3040 C 0.50164 0.61971 0.19979 0.0
C3041 C 0.5004 0.61154 0.1773 0.0
H3042 H 0.53674 0.63724 0.1534 0.0
H3043 H 0.51648 0.64008 0.22232 0.0
C3044 C 0.57348 0.68537 0.28435 0.0
N3045 N 0.56656 0.67219 0.26979 0.0
C3046 C 0.57453 0.68409 0.31049 0.0
C3047 C 0.56131 0.65572 0.30602 0.0
C3048 C 0.56058 0.65755 0.27998 0.0
C3049 C 0.56826 0.6691 0.32165 0.0
H3050 H 0.57795 0.69684 0.27567 0.0
H3051 H 0.55508 0.64729 0.26786 0.0
O3052 O 0.55744 0.67443 0.17026 0.0
O3053 O 0.5787 0.69332 0.2174 0.0
O3054 O 0.54321 0.6711 0.22447 0.0
O3055 O 0.56311 0.65655 0.21337 0.0
H3056 H 0.57589 0.70063 0.14477 0.0
H3057 H 0.52854 0.66139 0.15133 0.0
H3058 H 0.56707 0.71092 0.10921 0.0
H3059 H 0.52061 0.67223 0.11542 0.0
H3060 H 0.62928 0.71571 0.24548 0.0
H3061 H 0.5924 0.71359 0.17986 0.0
H3062 H 0.60065 0.69665 0.25011 0.0
H3063 H 0.6212 0.7322 0.17625 0.0
H3064 H 0.53284 0.71702 0.16601 0.0
H3065 H 0.57438 0.74354 0.21215 0.0
H3066 H 0.60366 0.68282 0.11265 0.0
H3067 H 0.63052 0.68908 0.18082 0.0
H3068 H 0.5495 0.69251 0.25984 0.0
H3069 H 0.5166 0.6647 0.20157 0.0
H3070 H 0.53301 0.70465 0.26905 0.0
H3071 H 0.50063 0.67724 0.21192 0.0
H3072 H 0.56213 0.6402 0.17297 0.0
H3073 H 0.58539 0.65864 0.24417 0.0
H3074 H 0.57976 0.62912 0.16559 0.0
H3075 H 0.60256 0.64718 0.2356 0.0
H3076 H 0.5129 0.612 0.14302 0.0
H3077 H 0.49199 0.61535 0.21319 0.0
H3078 H 0.57979 0.69468 0.3219 0.0
H3079 H 0.55647 0.64396 0.31384 0.0
Li3080 Li 0.32049 0.89804 0.19279 0.0
Li3081 Li 0.32386 0.89093 0.23536 0.0
Li3082 Li 0.33751 0.88673 0.19926 0.0
Li3083 Li 0.30895 0.87006 0.20479 0.0
C3084 C 0.34527 0.92197 0.22141 0.0
N3085 N 0.35507 0.95196 0.23935 0.0
C3086 C 0.33416 0.92614 0.229 0.0
C3087 C 0.36136 0.93303 0.22293 0.0
C3088 C 0.33935 0.94136 0.23802 0.0
C3089 C 0.36608 0.94814 0.23205 0.0
C3090 C 0.29249 0.88452 0.23416 0.0
C3091 C 0.27434 0.87105 0.26834 0.0
N3092 N 0.26946 0.88185 0.26734 0.0
C3093 C 0.28723 0.89543 0.23332 0.0
C3094 C 0.28594 0.87217 0.25168 0.0
C3095 C 0.2756 0.8939 0.25031 0.0
C3096 C 0.30106 0.90514 0.16523 0.0
N3097 N 0.3163 0.9116 0.1728 0.0
C3098 C 0.32315 0.93564 0.15111 0.0
C3099 C 0.32739 0.92649 0.16596 0.0
C3100 C 0.3074 0.92931 0.14324 0.0
C3101 C 0.29633 0.9138 0.15039 0.0
H3102 H 0.29258 0.89318 0.17073 0.0
H3103 H 0.33949 0.93127 0.17199 0.0
C3104 C 0.33651 0.89324 0.28324 0.0
N3105 N 0.32623 0.89619 0.27036 0.0
C3106 C 0.33864 0.89604 0.30919 0.0
C3107 C 0.31964 0.90498 0.30817 0.0
C3108 C 0.31811 0.9023 0.28214 0.0
C3109 C 0.32995 0.90174 0.32197 0.0
H3110 H 0.34292 0.88853 0.27334 0.0
H3111 H 0.31037 0.90502 0.2715 0.0
C3112 C 0.32719 0.88621 0.14991 0.0
N3113 N 0.34015 0.89762 0.10282 0.0
C3114 C 0.32003 0.87734 0.12825 0.0
C3115 C 0.34093 0.9009 0.14763 0.0
C3116 C 0.32677 0.88331 0.10461 0.0
C3117 C 0.34729 0.90645 0.12366 0.0
C3118 C 0.32347 0.85853 0.23737 0.0
C3119 C 0.33025 0.85044 0.22599 0.0
C3120 C 0.31425 0.85235 0.25909 0.0
C3121 C 0.32735 0.83606 0.23623 0.0
C3122 C 0.31163 0.83794 0.26874 0.0
N3123 N 0.31815 0.83015 0.25719 0.0
C3124 C 0.36863 0.89441 0.20661 0.0
C3125 C 0.35751 0.87968 0.16921 0.0
C3126 C 0.38288 0.89485 0.20193 0.0
N3127 N 0.35636 0.88695 0.19031 0.0
C3128 C 0.37162 0.87998 0.16361 0.0
C3129 C 0.38457 0.88762 0.18011 0.0
H3130 H 0.36725 0.89989 0.22343 0.0
H3131 H 0.34748 0.8736 0.15676 0.0
C3132 C 0.2766 0.84827 0.19983 0.0
N3133 N 0.29108 0.84954 0.19998 0.0
C3134 C 0.26303 0.83362 0.1966 0.0
C3135 C 0.27952 0.82182 0.19268 0.0
C3136 C 0.29279 0.83674 0.19602 0.0
C3137 C 0.26437 0.82011 0.19311 0.0
H3138 H 0.27554 0.85868 0.20198 0.0
H3139 H 0.30442 0.83809 0.19523 0.0
O3140 O 0.34052 0.90714 0.21256 0.0
O3141 O 0.30397 0.88594 0.21781 0.0
O3142 O 0.32062 0.88052 0.17313 0.0
O3143 O 0.32623 0.87264 0.22766 0.0
H3144 H 0.32168 0.91775 0.22785 0.0
H3145 H 0.37009 0.92996 0.21711 0.0
H3146 H 0.33088 0.94475 0.24395 0.0
H3147 H 0.37849 0.95683 0.23333 0.0
H3148 H 0.26919 0.86158 0.28206 0.0
H3149 H 0.29214 0.90503 0.2198 0.0
H3150 H 0.28973 0.86354 0.25233 0.0
H3151 H 0.27147 0.90229 0.24996 0.0
H3152 H 0.33206 0.94755 0.14609 0.0
H3153 H 0.28415 0.90828 0.14428 0.0
H3154 H 0.34667 0.89337 0.3193 0.0
H3155 H 0.3129 0.90957 0.31742 0.0
H3156 H 0.30937 0.86596 0.12971 0.0
H3157 H 0.34664 0.90794 0.16416 0.0
H3158 H 0.32136 0.87657 0.08768 0.0
H3159 H 0.35792 0.91779 0.12162 0.0
H3160 H 0.33753 0.85513 0.20929 0.0
H3161 H 0.30926 0.85866 0.2685 0.0
H3162 H 0.3324 0.8296 0.2275 0.0
H3163 H 0.30445 0.83297 0.28548 0.0
H3164 H 0.39236 0.90058 0.2155 0.0
H3165 H 0.37238 0.87439 0.14645 0.0
H3166 H 0.25164 0.83294 0.19637 0.0
H3167 H 0.28111 0.81174 0.18997 0.0
H3168 H 0.34925 0.28551 0.85191 0.0
H3169 H 0.37782 0.32541 0.90006 0.0
H3170 H 0.32704 0.27716 0.88058 0.0
H3171 H 0.3553 0.3174 0.9283 0.0
H3172 H 0.31881 0.28433 0.98817 0.0
H3173 H 0.34077 0.29636 0.95846 0.0
H3174 H 0.30784 0.28348 0.89647 0.0
H3175 H 0.2859 0.27077 0.92601 0.0
C3176 C 0.35075 0.29257 0.86854 0.0
C3177 C 0.36535 0.30604 0.87382 0.0
C3178 C 0.33794 0.2879 0.88482 0.0
C3179 C 0.33938 0.2966 0.90677 0.0
C3180 C 0.35385 0.31034 0.91169 0.0
C3181 C 0.3667 0.31502 0.89537 0.0
C3182 C 0.31626 0.28408 0.9682 0.0
C3183 C 0.30058 0.27642 0.95949 0.0
C3184 C 0.32885 0.29116 0.95118 0.0
C3185 C 0.32607 0.29077 0.92504 0.0
C3186 C 0.3104 0.28377 0.91644 0.0
C3187 C 0.29781 0.27665 0.93345 0.0
H3188 H 0.70693 0.05531 0.84821 0.0
H3189 H 0.67331 0.05328 0.90319 0.0
H3190 H 0.7152 0.04161 0.87751 0.0
H3191 H 0.68128 0.03913 0.93235 0.0
H3192 H 0.71828 0.0379 0.98679 0.0
H3193 H 0.70517 0.04676 0.95729 0.0
H3194 H 0.70721 0.01672 0.89944 0.0
H3195 H 0.72081 0.00824 0.92874 0.0
C3196 C 0.70119 0.05177 0.86648 0.0
C3197 C 0.68959 0.05552 0.8735 0.0
C3198 C 0.7058 0.04376 0.88317 0.0
C3199 C 0.69894 0.03933 0.9073 0.0
C3200 C 0.6869 0.04253 0.91397 0.0
C3201 C 0.68223 0.0505 0.8972 0.0
C3202 C 0.71585 0.03313 0.96781 0.0
C3203 C 0.72073 0.0225 0.96002 0.0
C3204 C 0.70818 0.03806 0.95099 0.0
C3205 C 0.70522 0.03251 0.92597 0.0
C3206 C 0.70948 0.02135 0.91851 0.0
C3207 C 0.71713 0.01638 0.93537 0.0
H3208 H 0.98242 0.7105 0.92687 0.0
H3209 H 0.96442 0.68013 0.99242 0.0
H3210 H 0.97237 0.68737 0.89968 0.0
H3211 H 0.9541 0.65704 0.96507 0.0
H3212 H 0.91815 0.62414 0.90459 0.0
H3213 H 0.93202 0.64632 0.93342 0.0
H3214 H 0.97454 0.66322 0.88905 0.0
H3215 H 0.96055 0.64096 0.85997 0.0
C3216 C 0.97662 0.69892 0.93556 0.0
C3217 C 0.97408 0.69718 0.96184 0.0
C3218 C 0.97084 0.68567 0.91994 0.0
C3219 C 0.96232 0.67042 0.93025 0.0
C3220 C 0.96041 0.66867 0.95659 0.0
C3221 C 0.96628 0.6819 0.97222 0.0
C3222 C 0.93047 0.63257 0.90104 0.0
C3223 C 0.93826 0.63091 0.87999 0.0
C3224 C 0.93845 0.64517 0.91766 0.0
C3225 C 0.95437 0.65647 0.91349 0.0
C3226 C 0.96225 0.65471 0.89263 0.0
C3227 C 0.9543 0.64195 0.87612 0.0
H3228 H 0.29439 0.34732 0.65175 0.0
H3229 H 0.32468 0.37941 0.59394 0.0
H3230 H 0.28591 0.32532 0.62258 0.0
H3231 H 0.31658 0.35729 0.56495 0.0
H3232 H 0.27821 0.31837 0.51352 0.0
H3233 H 0.29194 0.34041 0.54255 0.0
H3234 H 0.2936 0.30897 0.59834 0.0
H3235 H 0.2794 0.28679 0.56948 0.0
C3236 C 0.2994 0.34964 0.6329 0.0
C3237 C 0.31006 0.36513 0.62506 0.0
C3238 C 0.29468 0.337 0.61626 0.0
C3239 C 0.3005 0.33957 0.59138 0.0
C3240 C 0.31174 0.35496 0.58391 0.0
C3241 C 0.3165 0.36761 0.6006 0.0
C3242 C 0.28158 0.31618 0.53193 0.0
C3243 C 0.27757 0.30082 0.53931 0.0
C3244 C 0.28962 0.32884 0.54847 0.0
C3245 C 0.29381 0.32644 0.57281 0.0
C3246 C 0.29039 0.31117 0.57981 0.0
C3247 C 0.28239 0.2985 0.5632 0.0
H3248 H 0.61916 0.93593 0.59227 0.0
H3249 H 0.65198 0.95104 0.65473 0.0
H3250 H 0.64112 0.94859 0.56277 0.0
H3251 H 0.67397 0.963 0.6251 0.0
H3252 H 0.71088 0.992 0.56644 0.0
H3253 H 0.68825 0.98371 0.59451 0.0
H3254 H 0.66078 0.94285 0.54753 0.0
H3255 H 0.68309 0.95149 0.51899 0.0
C3256 C 0.63104 0.94212 0.59977 0.0
C3257 C 0.63379 0.94236 0.62591 0.0
C3258 C 0.64365 0.94922 0.5828 0.0
C3259 C 0.65932 0.95665 0.59152 0.0
C3260 C 0.66206 0.95746 0.61771 0.0
C3261 C 0.64945 0.95042 0.6347 0.0
C3262 C 0.69991 0.98141 0.56187 0.0
C3263 C 0.69882 0.97235 0.54056 0.0
C3264 C 0.68699 0.97657 0.57811 0.0
C3265 C 0.67271 0.96258 0.57335 0.0
C3266 C 0.67153 0.95378 0.55165 0.0
C3267 C 0.6844 0.95862 0.53544 0.0
H3268 H 0.0335 0.71367 0.50585 0.0
H3269 H 0.01534 0.72627 0.57076 0.0
H3270 H 0.04403 0.70124 0.53365 0.0
H3271 H 0.02582 0.71378 0.59853 0.0
H3272 H 0.03841 0.68068 0.64053 0.0
H3273 H 0.02428 0.68865 0.61123 0.0
H3274 H 0.06585 0.71176 0.56407 0.0
H3275 H 0.07976 0.70349 0.59287 0.0
C3276 C 0.03168 0.7137 0.52604 0.0
C3277 C 0.02373 0.72111 0.5361 0.0
C3278 C 0.0377 0.70658 0.54195 0.0
C3279 C 0.0359 0.70667 0.5683 0.0
C3280 C 0.02728 0.71339 0.5783 0.0
C3281 C 0.02127 0.72054 0.56237 0.0
C3282 C 0.04443 0.68729 0.62372 0.0
C3283 C 0.06022 0.69155 0.61908 0.0
C3284 C 0.03639 0.69195 0.60707 0.0
C3285 C 0.04395 0.70083 0.58534 0.0
C3286 C 0.05963 0.70477 0.58047 0.0
C3287 C 0.06767 0.7002 0.59714 0.0
H3288 H 0.64707 0.71334 0.15305 0.0
H3289 H 0.62371 0.6741 0.10157 0.0
H3290 H 0.67034 0.72513 0.12573 0.0
H3291 H 0.64709 0.68593 0.07419 0.0
H3292 H 0.69971 0.70771 0.04666 0.0
H3293 H 0.67717 0.69423 0.07531 0.0
H3294 H 0.67396 0.73652 0.08046 0.0
H3295 H 0.69588 0.74981 0.05113 0.0
C3296 C 0.64704 0.70711 0.13612 0.0
C3297 C 0.63361 0.69282 0.12939 0.0
C3298 C 0.66029 0.71391 0.12041 0.0
C3299 C 0.66045 0.70646 0.09784 0.0
C3300 C 0.64727 0.69186 0.09157 0.0
C3301 C 0.6339 0.68516 0.10712 0.0
C3302 C 0.6941 0.71409 0.05362 0.0
C3303 C 0.69976 0.72993 0.04664 0.0
C3304 C 0.68125 0.70638 0.07011 0.0
C3305 C 0.67397 0.7144 0.08024 0.0
C3306 C 0.67956 0.73016 0.07327 0.0
C3307 C 0.6922 0.73779 0.05653 0.0
H3308 H 0.2801 0.9304 0.14682 0.0
H3309 H 0.32335 0.94923 0.1037 0.0
H3310 H 0.27042 0.94308 0.11798 0.0
H3311 H 0.31371 0.96227 0.07515 0.0
H3312 H 0.29306 0.99322 0.04305 0.0
H3313 H 0.30476 0.98332 0.07408 0.0
H3314 H 0.26261 0.93751 0.0717 0.0
H3315 H 0.25099 0.94731 0.04101 0.0
C3316 C 0.28757 0.93728 0.13123 0.0
C3317 C 0.30239 0.93857 0.12732 0.0
C3318 C 0.28204 0.94459 0.1148 0.0
C3319 C 0.29126 0.95349 0.09421 0.0
C3320 C 0.30641 0.95551 0.09097 0.0
C3321 C 0.31192 0.94807 0.10734 0.0
C3322 C 0.28636 0.98105 0.04924 0.0
C3323 C 0.27118 0.97099 0.03956 0.0
C3324 C 0.29306 0.97539 0.06684 0.0
C3325 C 0.28453 0.95969 0.07535 0.0
C3326 C 0.26937 0.9497 0.06566 0.0
C3327 C 0.26279 0.95527 0.04791 0.0
H3328 H 0.04389 0.36776 0.11248 0.0
H3329 H 0.08442 0.36133 0.11909 0.0
H3330 H 0.03122 0.34479 0.0846 0.0
H3331 H 0.07203 0.33899 0.09049 0.0
H3332 H 0.05339 0.31295 0.01587 0.0
H3333 H 0.06411 0.33596 0.04331 0.0
H3334 H 0.02123 0.31424 0.0874 0.0
H3335 H 0.01056 0.29084 0.06039 0.0
C3336 C 0.05009 0.36147 0.10815 0.0
C3337 C 0.06529 0.36657 0.1179 0.0
C3338 C 0.04284 0.34837 0.09211 0.0
C3339 C 0.05075 0.34028 0.08523 0.0
C3340 C 0.0658 0.34522 0.09515 0.0
C3341 C 0.07293 0.35811 0.11143 0.0
C3342 C 0.04624 0.31298 0.03149 0.0
C3343 C 0.0312 0.29992 0.03615 0.0
C3344 C 0.05237 0.3262 0.0471 0.0
C3345 C 0.04354 0.32677 0.06756 0.0
C3346 C 0.02823 0.31408 0.07165 0.0
C3347 C 0.02213 0.30073 0.05614 0.0
H3348 H 0.68215 0.61787 0.41015 0.0
H3349 H 0.70236 0.64937 0.34648 0.0
H3350 H 0.69119 0.64044 0.43837 0.0
H3351 H 0.71182 0.672 0.37469 0.0
H3352 H 0.72 0.71049 0.43002 0.0
H3353 H 0.70571 0.6875 0.40274 0.0
H3354 H 0.71605 0.65972 0.4547 0.0
H3355 H 0.72952 0.68235 0.48242 0.0
C3356 C 0.68849 0.62965 0.40222 0.0
C3357 C 0.69167 0.63189 0.37619 0.0
C3358 C 0.69372 0.64258 0.41836 0.0
C3359 C 0.70242 0.65806 0.40888 0.0
C3360 C 0.70501 0.66027 0.38264 0.0
C3361 C 0.69963 0.64731 0.36645 0.0
C3362 C 0.71893 0.69938 0.43583 0.0
C3363 C 0.726 0.69829 0.45831 0.0
C3364 C 0.7109 0.68625 0.42006 0.0
C3365 C 0.70977 0.67175 0.42643 0.0
C3366 C 0.71648 0.6706 0.44928 0.0
C3367 C 0.72443 0.68367 0.46504 0.0
H3368 H 0.28567 0.03191 0.42005 0.0
H3369 H 0.3066 0.01441 0.47367 0.0
H3370 H 0.30816 0.04008 0.3919 0.0
H3371 H 0.32903 0.02229 0.44515 0.0
H3372 H 0.37458 0.06238 0.40609 0.0
H3373 H 0.35096 0.04836 0.43213 0.0
H3374 H 0.32243 0.03082 0.36476 0.0
H3375 H 0.3461 0.04517 0.33866 0.0
C3376 C 0.29502 0.02967 0.42569 0.0
C3377 C 0.29448 0.0227 0.44918 0.0
C3378 C 0.30781 0.03418 0.40943 0.0
C3379 C 0.32038 0.03187 0.41634 0.0
C3380 C 0.31956 0.02434 0.43943 0.0
C3381 C 0.30669 0.01974 0.45565 0.0
C3382 C 0.36327 0.05541 0.39687 0.0
C3383 C 0.36214 0.05501 0.37037 0.0
C3384 C 0.34976 0.04725 0.41177 0.0
C3385 C 0.33482 0.03856 0.40049 0.0
C3386 C 0.33377 0.03756 0.37397 0.0
C3387 C 0.34732 0.04566 0.35904 0.0
H3388 H 0.96005 0.32665 0.37681 0.0
H3389 H 0.91714 0.28142 0.37824 0.0
H3390 H 0.97197 0.31686 0.40765 0.0
H3391 H 0.92894 0.27172 0.40878 0.0
H3392 H 0.94797 0.26528 0.48289 0.0
H3393 H 0.93811 0.278 0.45446 0.0
H3394 H 0.98002 0.29512 0.40858 0.0
H3395 H 0.98982 0.28204 0.4367 0.0
C3396 C 0.9532 0.31466 0.38375 0.0
C3397 C 0.93773 0.30475 0.37506 0.0
C3398 C 0.96001 0.30906 0.40124 0.0
C3399 C 0.95133 0.29357 0.41064 0.0
C3400 C 0.93584 0.28376 0.40204 0.0
C3401 C 0.92915 0.28926 0.38438 0.0
C3402 C 0.9551 0.27172 0.46673 0.0
C3403 C 0.96957 0.27242 0.46186 0.0
C3404 C 0.94947 0.27905 0.45053 0.0
C3405 C 0.95824 0.28739 0.42922 0.0
C3406 C 0.97307 0.28882 0.42497 0.0
C3407 C 0.97867 0.28135 0.4411 0.0
H3408 H 0.01523 0.62331 0.1823 0.0
H3409 H 0.0454 0.65783 0.23726 0.0
H3410 H 0.99274 0.61464 0.21073 0.0
H3411 H 0.0228 0.64929 0.26566 0.0
H3412 H 0.98447 0.61087 0.31913 0.0
H3413 H 0.00677 0.62446 0.29024 0.0
H3414 H 0.97519 0.6229 0.23177 0.0
H3415 H 0.95281 0.60906 0.26064 0.0
C3416 C 0.01699 0.62915 0.20037 0.0
C3417 C 0.03207 0.64115 0.20767 0.0
C3418 C 0.00409 0.6243 0.21654 0.0
C3419 C 0.00602 0.63126 0.24046 0.0
C3420 C 0.021 0.64365 0.24741 0.0
C3421 C 0.03389 0.64861 0.2311 0.0
C3422 C 0.98233 0.61355 0.30017 0.0
C3423 C 0.9669 0.60879 0.29206 0.0
C3424 C 0.9951 0.62147 0.28371 0.0
C3425 C 0.99271 0.62469 0.25872 0.0
C3426 C 0.97736 0.62046 0.25088 0.0
C3427 C 0.96458 0.61265 0.26744 0.0
H3428 H 0.38941 0.34279 0.26323 0.0
H3429 H 0.38286 0.3689 0.32323 0.0
H3430 H 0.37592 0.3513 0.2339 0.0
H3431 H 0.36991 0.37791 0.29363 0.0
H3432 H 0.33869 0.38439 0.23757 0.0
H3433 H 0.34679 0.37024 0.26657 0.0
H3434 H 0.38352 0.37668 0.21432 0.0
H3435 H 0.37517 0.39037 0.1852 0.0
C3436 C 0.38488 0.35014 0.27028 0.0
C3437 C 0.38732 0.35526 0.29554 0.0
C3438 C 0.37729 0.35515 0.25339 0.0
C3439 C 0.37199 0.3654 0.26137 0.0
C3440 C 0.37377 0.36993 0.28691 0.0
C3441 C 0.38136 0.36492 0.3038 0.0
C3442 C 0.34829 0.38249 0.23212 0.0
C3443 C 0.35638 0.38858 0.20922 0.0
C3444 C 0.35302 0.37453 0.2488 0.0
C3445 C 0.36584 0.3724 0.24279 0.0
C3446 C 0.3735 0.37797 0.21943 0.0
C3447 C 0.36884 0.38598 0.20286 0.0
H3448 H 0.61859 0.985 0.17067 0.0
H3449 H 0.60435 0.95518 0.23699 0.0
H3450 H 0.63165 0.00831 0.19754 0.0
H3451 H 0.61739 0.97846 0.26381 0.0
H3452 H 0.6507 0.02364 0.30529 0.0
H3453 H 0.64259 0.00132 0.2766 0.0
H3454 H 0.62207 0.02106 0.22641 0.0
H3455 H 0.63055 0.04349 0.25459 0.0
C3456 C 0.61833 0.98342 0.19098 0.0
C3457 C 0.61032 0.96824 0.2017 0.0
C3458 C 0.6258 0.99677 0.20636 0.0
C3459 C 0.62543 0.99524 0.23282 0.0
C3460 C 0.61804 0.98004 0.24349 0.0
C3461 C 0.61057 0.96669 0.2281 0.0
C3462 C 0.64468 0.0233 0.28792 0.0
C3463 C 0.64116 0.03525 0.28228 0.0
C3464 C 0.63992 0.01047 0.27161 0.0
C3465 C 0.63165 0.00939 0.24926 0.0
C3466 C 0.62856 0.0216 0.24332 0.0
C3467 C 0.63325 0.03436 0.25963 0.0
H3468 H 0.33974 0.95627 0.72964 0.0
H3469 H 0.38524 0.97838 0.69273 0.0
H3470 H 0.34861 0.97959 0.7564 0.0
H3471 H 0.39425 0.00126 0.7199 0.0
H3472 H 0.40315 0.04589 0.75611 0.0
H3473 H 0.39048 0.02339 0.72764 0.0
H3474 H 0.36718 0.99268 0.79127 0.0
H3475 H 0.37971 0.01535 0.81973 0.0
C3476 C 0.35158 0.96613 0.72714 0.0
C3477 C 0.36182 0.96546 0.70916 0.0
C3478 C 0.3567 0.97941 0.74261 0.0
C3479 C 0.37212 0.9923 0.74025 0.0
C3480 C 0.38222 0.99166 0.72199 0.0
C3481 C 0.37713 0.97844 0.70662 0.0
C3482 C 0.39521 0.03434 0.76396 0.0
C3483 C 0.39256 0.03231 0.79014 0.0
C3484 C 0.38798 0.02145 0.74768 0.0
C3485 C 0.37802 0.0062 0.75722 0.0
C3486 C 0.37472 0.00428 0.78329 0.0
C3487 C 0.3819 0.01724 0.79961 0.0
H3488 H 0.04301 0.38948 0.73628 0.0
H3489 H 0.01277 0.38588 0.67408 0.0
H3490 H 0.02 0.37667 0.7641 0.0
H3491 H 0.98984 0.37315 0.70184 0.0
H3492 H 0.95928 0.37487 0.76649 0.0
H3493 H 0.98116 0.38332 0.73708 0.0
H3494 H 0.99437 0.35196 0.7731 0.0
H3495 H 0.97246 0.34366 0.80307 0.0
C3496 C 0.03142 0.38566 0.72843 0.0
C3497 C 0.02972 0.38887 0.70306 0.0
C3498 C 0.01825 0.37833 0.74436 0.0
C3499 C 0.00314 0.37408 0.73523 0.0
C3500 C 0.00137 0.37657 0.70955 0.0
C3501 C 0.0145 0.38387 0.69366 0.0
C3502 C 0.96686 0.36979 0.76818 0.0
C3503 C 0.96425 0.35871 0.78721 0.0
C3504 C 0.97929 0.37449 0.75114 0.0
C3505 C 0.98947 0.36827 0.75271 0.0
C3506 C 0.98677 0.35701 0.77153 0.0
C3507 C 0.97419 0.35219 0.78854 0.0
H3508 H 0.6148 0.59895 0.81705 0.0
H3509 H 0.65593 0.61457 0.7695 0.0
H3510 H 0.60498 0.61182 0.78886 0.0
H3511 H 0.64619 0.6278 0.74161 0.0
H3512 H 0.62671 0.65975 0.71001 0.0
H3513 H 0.63866 0.64994 0.74075 0.0
H3514 H 0.59521 0.60522 0.74345 0.0
H3515 H 0.58338 0.61493 0.71298 0.0
C3516 C 0.62178 0.60518 0.80064 0.0
C3517 C 0.63603 0.6055 0.79531 0.0
C3518 C 0.61618 0.6126 0.78459 0.0
C3519 C 0.62476 0.62065 0.76296 0.0
C3520 C 0.6394 0.62173 0.75825 0.0
C3521 C 0.64497 0.61417 0.77425 0.0
C3522 C 0.61978 0.64785 0.71728 0.0
C3523 C 0.60418 0.63805 0.70905 0.0
C3524 C 0.62661 0.64223 0.73471 0.0
C3525 C 0.61781 0.62686 0.74452 0.0
C3526 C 0.6022 0.61717 0.73639 0.0
C3527 C 0.59548 0.62267 0.71878 0.0
H3528 H 0.20786 0.06609 0.95816 0.0
H3529 H 0.23526 0.07271 0.0257 0.0
H3530 H 0.20813 0.09081 0.96655 0.0
H3531 H 0.23561 0.09751 0.03404 0.0
H3532 H 0.24835 0.14963 0.01909 0.0
H3533 H 0.2476 0.12459 0.01158 0.0
H3534 H 0.19715 0.1015 0.00083 0.0
H3535 H 0.19788 0.12653 0.00838 0.0
C3536 C 0.21395 0.07287 0.97476 0.0
C3537 C 0.22157 0.06756 0.99128 0.0
C3538 C 0.21402 0.08693 0.97964 0.0
C3539 C 0.22191 0.09604 0.00091 0.0
C3540 C 0.22953 0.09073 0.01742 0.0
C3541 C 0.22924 0.07654 0.01276 0.0
C3542 C 0.23712 0.13921 0.01502 0.0
C3543 C 0.22317 0.13999 0.01426 0.0
C3544 C 0.23668 0.12489 0.01094 0.0
C3545 C 0.22232 0.11115 0.00567 0.0
C3546 C 0.20838 0.11195 0.00474 0.0
C3547 C 0.20879 0.12622 0.00919 0.0
H3548 H 0.93193 0.13919 0.9571 0.0
H3549 H 0.92493 0.15941 0.02489 0.0
H3550 H 0.90752 0.11457 0.96547 0.0
H3551 H 0.90022 0.13506 0.03291 0.0
H3552 H 0.86452 0.08484 0.0537 0.0
H3553 H 0.88953 0.1086 0.04555 0.0
H3554 H 0.87984 0.10307 0.96534 0.0
H3555 H 0.85537 0.07864 0.97337 0.0
C3556 C 0.92505 0.13838 0.97367 0.0
C3557 C 0.93029 0.15118 0.99035 0.0
C3558 C 0.91103 0.12431 0.97844 0.0
C3559 C 0.90182 0.12278 -0.00014 0.0
C3560 C 0.90711 0.13566 0.01649 0.0
C3561 C 0.92124 0.14966 0.01187 0.0
C3562 C 0.86783 0.0885 0.03428 0.0
C3563 C 0.85788 0.07972 0.01421 0.0
C3564 C 0.8821 0.10232 0.02962 0.0
C3565 C 0.88674 0.10787 0.00478 0.0
C3566 C 0.87679 0.09909 0.9847 0.0
C3567 C 0.8626 0.08517 0.98935 0.0
H3568 H 0.85782 0.80099 0.99875 0.0
H3569 H 0.83521 0.75255 0.97353 0.0
H3570 H 0.88191 0.80036 0.00717 0.0
H3571 H 0.85966 0.75227 0.98033 0.0
H3572 H 0.90039 0.75147 0.02095 0.0
H3573 H 0.87604 0.75187 0.01299 0.0
H3574 H 0.90328 0.80006 0.98666 0.0
H3575 H 0.9276 0.79973 0.99537 0.0
C3576 C 0.85796 0.79019 0.99499 0.0
C3577 C 0.84449 0.7768 0.98555 0.0
C3578 C 0.87189 0.78991 0.99946 0.0
C3579 C 0.87279 0.77628 0.99437 0.0
C3580 C 0.85936 0.76292 0.98478 0.0
C3581 C 0.84538 0.76315 0.98053 0.0
C3582 C 0.90113 0.7621 0.01332 0.0
C3583 C 0.91587 0.77557 0.0088 0.0
C3584 C 0.88719 0.76233 0.00868 0.0
C3585 C 0.88765 0.776 0.99916 0.0
C3586 C 0.90245 0.78943 0.99442 0.0
C3587 C 0.91639 0.78924 0.99932 0.0
H3588 H 0.12734 0.20039 0.48308 0.0
H3589 H 0.15258 0.25116 0.48906 0.0
H3590 H 0.10263 0.19981 0.49227 0.0
H3591 H 0.12785 0.25072 0.49742 0.0
H3592 H 0.08335 0.24389 0.53551 0.0
H3593 H 0.10789 0.24394 0.52805 0.0
H3594 H 0.08411 0.20583 0.47458 0.0
H3595 H 0.05934 0.20501 0.48341 0.0
C3596 C 0.12755 0.21144 0.48614 0.0
C3597 C 0.14186 0.22581 0.48538 0.0
C3598 C 0.11339 0.21113 0.4913 0.0
C3599 C 0.11318 0.22522 0.49554 0.0
C3600 C 0.12755 0.23961 0.49472 0.0
C3601 C 0.14173 0.23989 0.48984 0.0
C3602 C 0.08328 0.23534 0.52245 0.0
C3603 C 0.0693 0.22443 0.51011 0.0
C3604 C 0.09744 0.23553 0.51787 0.0
C3605 C 0.09805 0.22492 0.50063 0.0
C3606 C 0.08409 0.21404 0.48823 0.0
C3607 C 0.06989 0.21375 0.49301 0.0
H3608 H 0.75819 0.84064 0.53151 0.0
H3609 H 0.79617 0.85442 0.47775 0.0
H3610 H 0.75821 0.86508 0.52342 0.0
H3611 H 0.79547 0.87842 0.46841 0.0
H3612 H 0.80158 0.92763 0.47784 0.0
H3613 H 0.802 0.90329 0.48588 0.0
H3614 H 0.75113 0.87796 0.49264 0.0
H3615 H 0.75085 0.90241 0.48536 0.0
C3616 C 0.76656 0.84887 0.51794 0.0
C3617 C 0.77723 0.84553 0.50538 0.0
C3618 C 0.7664 0.86282 0.513 0.0
C3619 C 0.7768 0.87375 0.49518 0.0
C3620 C 0.78741 0.87038 0.48248 0.0
C3621 C 0.78766 0.85648 0.48758 0.0
C3622 C 0.79051 0.91683 0.48094 0.0
C3623 C 0.77619 0.91692 0.48111 0.0
C3624 C 0.79072 0.90285 0.48546 0.0
C3625 C 0.7766 0.88862 0.48998 0.0
C3626 C 0.76226 0.88873 0.48977 0.0
C3627 C 0.76208 0.90273 0.48552 0.0
H3628 H 0.08935 0.86135 0.44203 0.0
H3629 H 0.07624 0.85821 0.52079 0.0
H3630 H 0.11323 0.88645 0.45026 0.0
H3631 H 0.10032 0.88309 0.52902 0.0
H3632 H 0.15365 0.91766 0.53751 0.0
H3633 H 0.12953 0.89297 0.52866 0.0
H3634 H 0.12095 0.91422 0.46346 0.0
H3635 H 0.14492 0.93913 0.4726 0.0
C3636 C 0.09146 0.86605 0.46104 0.0
C3637 C 0.08084 0.85772 0.48075 0.0
C3638 C 0.10517 0.88041 0.46574 0.0
C3639 C 0.10864 0.88668 0.49028 0.0
C3640 C 0.09804 0.87841 0.50997 0.0
C3641 C 0.08427 0.86413 0.50525 0.0
C3642 C 0.14655 0.91717 0.52146 0.0
C3643 C 0.15119 0.93045 0.50587 0.0
C3644 C 0.13275 0.903 0.51637 0.0
C3645 C 0.12335 0.90171 0.49544 0.0
C3646 C 0.12807 0.91486 0.4796 0.0
C3647 C 0.14182 0.9291 0.48481 0.0
H3648 H 0.78543 0.9372 0.96923 0.0
H3649 H 0.76314 0.91797 0.04122 0.0
H3650 H 0.78526 0.91271 0.95981 0.0
H3651 H 0.76352 0.89377 0.03222 0.0
H3652 H 0.75129 0.84668 0.99654 0.0
H3653 H 0.75095 0.87102 0.00448 0.0
H3654 H 0.79805 0.89798 0.97371 0.0
H3655 H 0.79838 0.87358 0.96572 0.0
C3656 C 0.78045 0.92773 0.98301 0.0
C3657 C 0.7743 0.92954 0.00598 0.0
C3658 C 0.78052 0.91377 0.97773 0.0
C3659 C 0.77439 0.90129 0.99528 0.0
C3660 C 0.76818 0.90309 0.01818 0.0
C3661 C 0.76813 0.91704 0.02347 0.0
C3662 C 0.76163 0.85781 0.99166 0.0
C3663 C 0.7749 0.8582 0.98065 0.0
C3664 C 0.76143 0.87176 0.9962 0.0
C3665 C 0.7745 0.88645 0.98983 0.0
C3666 C 0.78772 0.88685 0.97855 0.0
C3667 C 0.78791 0.87287 0.974 0.0
H3668 H 0.14332 0.91652 0.0254 0.0
H3669 H 0.13101 0.91596 0.94685 0.0
H3670 H 0.11847 0.89199 0.03251 0.0
H3671 H 0.10608 0.89151 0.95402 0.0
H3672 H 0.0735 0.83834 0.97219 0.0
H3673 H 0.09777 0.86327 0.96476 0.0
H3674 H 0.08932 0.88253 0.03244 0.0
H3675 H 0.06485 0.85779 0.03963 0.0
C3676 C 0.13528 0.91115 0.00969 0.0
C3677 C 0.13908 0.91813 0.98558 0.0
C3678 C 0.12103 0.89719 0.01379 0.0
C3679 C 0.11037 0.88984 0.99381 0.0
C3680 C 0.11414 0.89685 0.96972 0.0
C3681 C 0.12832 0.91091 0.96567 0.0
C3682 C 0.07668 0.84794 0.98533 0.0
C3683 C 0.0672 0.84601 0.00655 0.0
C3684 C 0.09061 0.8622 0.98108 0.0
C3685 C 0.09543 0.87482 0.99805 0.0
C3686 C 0.08599 0.87293 0.01923 0.0
C3687 C 0.072 0.85872 0.02337 0.0
H3688 H 0.1467 0.20428 0.97532 0.0
H3689 H 0.15664 0.23773 0.03551 0.0
H3690 H 0.1218 0.20353 0.96695 0.0
H3691 H 0.13187 0.23714 0.02699 0.0
H3692 H 0.07923 0.21973 0.02307 0.0
H3693 H 0.10385 0.21988 0.03103 0.0
H3694 H 0.11123 0.21939 0.95056 0.0
H3695 H 0.08648 0.21906 0.94265 0.0
C3696 C 0.14363 0.21159 0.98659 0.0
C3697 C 0.15361 0.22103 0.00612 0.0
C3698 C 0.12937 0.21118 0.98178 0.0
C3699 C 0.1248 0.22024 0.99635 0.0
C3700 C 0.13487 0.22978 0.01573 0.0
C3701 C 0.14909 0.23015 0.02059 0.0
C3702 C 0.08615 0.21971 0.00709 0.0
C3703 C 0.08093 0.21941 0.98224 0.0
C3704 C 0.10028 0.21984 0.01164 0.0
C3705 C 0.10957 0.21973 0.99144 0.0
C3706 C 0.10426 0.21927 0.96657 0.0
C3707 C 0.09008 0.21908 0.96202 0.0
H3708 H 0.94175 0.80282 0.48736 0.0
H3709 H 0.91914 0.75376 0.50891 0.0
H3710 H 0.91763 0.8033 0.49721 0.0
H3711 H 0.89478 0.75392 0.51779 0.0
H3712 H 0.85685 0.76172 0.55147 0.0
H3713 H 0.88208 0.76281 0.54527 0.0
H3714 H 0.89205 0.79442 0.48186 0.0
H3715 H 0.8671 0.79378 0.48894 0.0
C3716 C 0.93155 0.79212 0.4941 0.0
C3717 C 0.93228 0.77825 0.49739 0.0
C3718 C 0.91769 0.79234 0.49962 0.0
C3719 C 0.90416 0.77863 0.50821 0.0
C3720 C 0.905 0.76479 0.51167 0.0
C3721 C 0.91894 0.76465 0.50649 0.0
C3722 C 0.86451 0.76894 0.5363 0.0
C3723 C 0.86006 0.77766 0.52066 0.0
C3724 C 0.87893 0.76951 0.53262 0.0
C3725 C 0.88914 0.77863 0.51295 0.0
C3726 C 0.88467 0.78747 0.49747 0.0
C3727 C 0.87035 0.78708 0.50142 0.0
H3728 H 0.19754 0.13815 0.47926 0.0
H3729 H 0.24066 0.16461 0.52182 0.0
H3730 H 0.19791 0.11385 0.48804 0.0
H3731 H 0.24079 0.14025 0.5312 0.0
H3732 H 0.24595 0.09691 0.51366 0.0
H3733 H 0.24504 0.12112 0.5073 0.0
H3734 H 0.195 0.09594 0.52312 0.0
H3735 H 0.19584 0.07158 0.52883 0.0
C3736 C 0.20707 0.13876 0.49056 0.0
C3737 C 0.21911 0.15331 0.49974 0.0
C3738 C 0.20719 0.12483 0.49581 0.0
C3739 C 0.2194 0.12514 0.51027 0.0
C3740 C 0.23131 0.13965 0.51979 0.0
C3741 C 0.23115 0.15358 0.51463 0.0
C3742 C 0.23474 0.09652 0.51564 0.0
C3743 C 0.22095 0.08232 0.52162 0.0
C3744 C 0.23425 0.11043 0.51228 0.0
C3745 C 0.21995 0.11044 0.51474 0.0
C3746 C 0.20617 0.09627 0.5209 0.0
C3747 C 0.20668 0.08236 0.52439 0.0
H3748 H 0.91676 0.13001 0.55247 0.0
H3749 H 0.9139 0.146 0.47742 0.0
H3750 H 0.89248 0.10519 0.54472 0.0
H3751 H 0.8894 0.12134 0.47009 0.0
H3752 H 0.83704 0.083 0.47952 0.0
H3753 H 0.86158 0.10758 0.48711 0.0
H3754 H 0.88284 0.08135 0.51638 0.0
H3755 H 0.85847 0.05669 0.50818 0.0
C3756 C 0.91107 0.12822 0.53425 0.0
C3757 C 0.91734 0.14007 0.51558 0.0
C3758 C 0.89712 0.114 0.52988 0.0
C3759 C 0.88904 0.11136 0.50684 0.0
C3760 C 0.89527 0.12315 0.48817 0.0
C3761 C 0.90929 0.1373 0.49243 0.0
C3762 C 0.84698 0.08242 0.48729 0.0
C3763 C 0.84574 0.06781 0.49316 0.0
C3764 C 0.86102 0.09652 0.4917 0.0
C3765 C 0.87411 0.09637 0.50231 0.0
C3766 C 0.87287 0.08182 0.50845 0.0
C3767 C 0.85887 0.0677 0.50382 0.0
H3768 H 0.89259 0.46854 0.39159 0.0
H3769 H 0.88748 0.47438 0.31176 0.0
H3770 H 0.89096 0.44337 0.38316 0.0
H3771 H 0.88702 0.44979 0.30315 0.0
H3772 H 0.87091 0.39774 0.29734 0.0
H3773 H 0.87117 0.42224 0.30683 0.0
H3774 H 0.90537 0.43216 0.36605 0.0
H3775 H 0.90456 0.40731 0.35706 0.0
C3776 C 0.89111 0.46447 0.37223 0.0
C3777 C 0.89013 0.47354 0.35238 0.0
C3778 C 0.89042 0.45011 0.36734 0.0
C3779 C 0.8889 0.4445 0.34245 0.0
C3780 C 0.88797 0.45359 0.3226 0.0
C3781 C 0.88849 0.46786 0.32751 0.0
C3782 C 0.87847 0.4052 0.31237 0.0
C3783 C 0.88772 0.40067 0.32646 0.0
C3784 C 0.87869 0.41928 0.31775 0.0
C3785 C 0.88835 0.42928 0.33715 0.0
C3786 C 0.89759 0.42467 0.35127 0.0
C3787 C 0.89719 0.41047 0.34608 0.0
H3788 H 0.59669 0.49268 0.3578 0.0
H3789 H 0.5966 0.47733 0.28136 0.0
H3790 H 0.5716 0.46876 0.36588 0.0
H3791 H 0.57182 0.45305 0.28956 0.0
H3792 H 0.52014 0.4182 0.30421 0.0
H3793 H 0.54462 0.4426 0.29614 0.0
H3794 H 0.56017 0.44149 0.37223 0.0
H3795 H 0.53521 0.4178 0.38091 0.0
C3796 C 0.59134 0.48407 0.34281 0.0
C3797 C 0.59855 0.48683 0.31897 0.0
C3798 C 0.577 0.47031 0.34744 0.0
C3799 C 0.56964 0.45887 0.32841 0.0
C3800 C 0.57695 0.46168 0.30454 0.0
C3801 C 0.59118 0.47556 0.29983 0.0
C3802 C 0.52866 0.42327 0.31938 0.0
C3803 C 0.5256 0.41597 0.34326 0.0
C3804 C 0.54285 0.43718 0.31461 0.0
C3805 C 0.55447 0.44407 0.33349 0.0
C3806 C 0.55145 0.4367 0.35731 0.0
C3807 C 0.53719 0.4229 0.36217 0.0
H3808 H 0.5003 0.08994 0.35323 0.0
H3809 H 0.52366 0.12718 0.29802 0.0
H3810 H 0.52499 0.0901 0.36069 0.0
H3811 H 0.54829 0.12729 0.30541 0.0
H3812 H 0.58489 0.11118 0.30569 0.0
H3813 H 0.56011 0.11082 0.29842 0.0
H3814 H 0.55112 0.10669 0.37883 0.0
H3815 H 0.57558 0.10638 0.38603 0.0
C3816 C 0.51072 0.09825 0.34284 0.0
C3817 C 0.50998 0.10852 0.32499 0.0
C3818 C 0.52487 0.09834 0.34711 0.0
C3819 C 0.53861 0.1087 0.33362 0.0
C3820 C 0.53787 0.11899 0.31582 0.0
C3821 C 0.52374 0.11892 0.31158 0.0
C3822 C 0.57756 0.11005 0.32181 0.0
C3823 C 0.58223 0.1088 0.34645 0.0
C3824 C 0.56344 0.11002 0.31766 0.0
C3825 C 0.55364 0.10875 0.33805 0.0
C3826 C 0.55831 0.10752 0.36269 0.0
C3827 C 0.57244 0.10755 0.36684 0.0
H3828 H 0.81759 0.5817 0.82159 0.0
H3829 H 0.79203 0.53094 0.81547 0.0
H3830 H 0.79297 0.58149 0.8298 0.0
H3831 H 0.76739 0.53058 0.82453 0.0
H3832 H 0.72436 0.53635 0.81587 0.0
H3833 H 0.74897 0.53682 0.80702 0.0
H3834 H 0.77313 0.57488 0.86046 0.0
H3835 H 0.74878 0.57518 0.86793 0.0
C3836 C 0.80669 0.57048 0.82231 0.0
C3837 C 0.8067 0.55634 0.81789 0.0
C3838 C 0.79257 0.57033 0.82711 0.0
C3839 C 0.77813 0.55601 0.82789 0.0
C3840 C 0.77821 0.54185 0.82362 0.0
C3841 C 0.79233 0.54203 0.81853 0.0
C3842 C 0.73496 0.545 0.82545 0.0
C3843 C 0.73453 0.55578 0.84255 0.0
C3844 C 0.74906 0.5451 0.82066 0.0
C3845 C 0.76309 0.55586 0.83304 0.0
C3846 C 0.76263 0.56656 0.85029 0.0
C3847 C 0.74857 0.56657 0.85487 0.0
H3848 H 0.46042 0.19178 0.86912 0.0
H3849 H 0.42879 0.16933 0.80641 0.0
H3850 H 0.46002 0.21608 0.86078 0.0
H3851 H 0.42798 0.19346 0.7984 0.0
H3852 H 0.44193 0.24349 0.77535 0.0
H3853 H 0.44328 0.2197 0.78318 0.0
H3854 H 0.44352 0.22732 0.86369 0.0
H3855 H 0.44324 0.25164 0.85583 0.0
C3856 C 0.45326 0.19202 0.8537 0.0
C3857 C 0.44463 0.17868 0.83842 0.0
C3858 C 0.45298 0.20592 0.84894 0.0
C3859 C 0.44394 0.20676 0.82893 0.0
C3860 C 0.43529 0.19336 0.81368 0.0
C3861 C 0.4357 0.1795 0.81831 0.0
C3862 C 0.44252 0.24024 0.79472 0.0
C3863 C 0.44251 0.24956 0.81494 0.0
C3864 C 0.44306 0.22644 0.79924 0.0
C3865 C 0.44348 0.22152 0.82409 0.0
C3866 C 0.44342 0.23082 0.84429 0.0
C3867 C 0.44302 0.24468 0.83978 0.0
H3868 H 0.74521 0.18966 0.85435 0.0
H3869 H 0.75764 0.19588 0.77497 0.0
H3870 H 0.76924 0.2144 0.86377 0.0
H3871 H 0.78119 0.22099 0.7845 0.0
H3872 H 0.81029 0.2733 0.81342 0.0
H3873 H 0.78664 0.24834 0.80358 0.0
H3874 H 0.79987 0.22467 0.85897 0.0
H3875 H 0.82399 0.24935 0.868 0.0
C3876 C 0.75305 0.19619 0.8389 0.0
C3877 C 0.74941 0.19066 0.81386 0.0
C3878 C 0.76676 0.21041 0.84434 0.0
C3879 C 0.77699 0.21956 0.82484 0.0
C3880 C 0.77337 0.2142 0.79983 0.0
C3881 C 0.75981 0.19985 0.79441 0.0
C3882 C 0.80837 0.26278 0.82325 0.0
C3883 C 0.81917 0.26345 0.84154 0.0
C3884 C 0.79475 0.2485 0.81769 0.0
C3885 C 0.79146 0.23465 0.83059 0.0
C3886 C 0.80209 0.23526 0.84897 0.0
C3887 C 0.81586 0.24945 0.85422 0.0
H3888 H 0.46273 0.20636 0.29469 0.0
H3889 H 0.42189 0.1827 0.34332 0.0
H3890 H 0.4635 0.23135 0.30199 0.0
H3891 H 0.42265 0.20765 0.35056 0.0
H3892 H 0.41881 0.25165 0.33605 0.0
H3893 H 0.41822 0.22685 0.328 0.0
H3894 H 0.46895 0.25051 0.33566 0.0
H3895 H 0.46954 0.27533 0.34376 0.0
C3896 C 0.454 0.20652 0.30711 0.0
C3897 C 0.44223 0.19253 0.31839 0.0
C3898 C 0.45444 0.22083 0.31128 0.0
C3899 C 0.44312 0.22149 0.32681 0.0
C3900 C 0.43139 0.20751 0.33815 0.0
C3901 C 0.43095 0.19321 0.33399 0.0
C3902 C 0.42983 0.25154 0.33619 0.0
C3903 C 0.44422 0.26547 0.34059 0.0
C3904 C 0.42949 0.23733 0.33158 0.0
C3905 C 0.44353 0.23669 0.33126 0.0
C3906 C 0.45794 0.25064 0.33544 0.0
C3907 C 0.45828 0.26486 0.34007 0.0
H3908 H 0.79048 0.26116 0.31379 0.0
H3909 H 0.8156 0.23591 0.32722 0.0
H3910 H 0.76553 0.23677 0.31916 0.0
H3911 H 0.79077 0.21188 0.33459 0.0
H3912 H 0.74388 0.16773 0.32177 0.0
H3913 H 0.76845 0.19222 0.31381 0.0
H3914 H 0.74899 0.21843 0.34975 0.0
H3915 H 0.72423 0.19391 0.35675 0.0
C3916 C 0.79073 0.25045 0.31794 0.0
C3917 C 0.80515 0.2506 0.32005 0.0
C3918 C 0.77638 0.23646 0.3214 0.0
C3919 C 0.77606 0.22229 0.32735 0.0
C3920 C 0.79048 0.22248 0.32964 0.0
C3921 C 0.8048 0.23639 0.32585 0.0
C3922 C 0.7449 0.17876 0.32792 0.0
C3923 C 0.73219 0.17895 0.33988 0.0
C3924 C 0.759 0.1928 0.32349 0.0
C3925 C 0.76081 0.20737 0.33127 0.0
C3926 C 0.74799 0.20751 0.34312 0.0
C3927 C 0.73381 0.19346 0.34723 0.0
H3928 H 0.81816 0.54533 0.30029 0.0
H3929 H 0.81875 0.5631 0.37525 0.0
H3930 H 0.79371 0.54538 0.29109 0.0
H3931 H 0.79435 0.56307 0.36609 0.0
H3932 H 0.74218 0.54466 0.35097 0.0
H3933 H 0.76648 0.5442 0.35904 0.0
H3934 H 0.78365 0.56366 0.28476 0.0
H3935 H 0.75932 0.56414 0.27669 0.0
C3936 C 0.81315 0.54937 0.31473 0.0
C3937 C 0.82037 0.55413 0.33856 0.0
C3938 C 0.79914 0.54938 0.30946 0.0
C3939 C 0.79203 0.55413 0.32791 0.0
C3940 C 0.79935 0.55904 0.35163 0.0
C3941 C 0.81334 0.55905 0.35688 0.0
C3942 C 0.75117 0.54893 0.33641 0.0
C3943 C 0.74883 0.55449 0.31323 0.0
C3944 C 0.7651 0.54867 0.34104 0.0
C3945 C 0.77704 0.55397 0.32259 0.0
C3946 C 0.77461 0.55933 0.29925 0.0
C3947 C 0.76067 0.55959 0.29462 0.0
H3948 H 0.609 0.13687 0.81772 0.0
H3949 H 0.5876 0.08836 0.84248 0.0
H3950 H 0.58449 0.13674 0.82682 0.0
H3951 H 0.56318 0.08834 0.85188 0.0
H3952 H 0.52726 0.09952 0.88811 0.0
H3953 H 0.55237 0.1005 0.88097 0.0
H3954 H 0.55731 0.12389 0.80945 0.0
H3955 H 0.5321 0.1227 0.81632 0.0
C3956 C 0.59907 0.12616 0.82504 0.0
C3957 C 0.60027 0.1126 0.82926 0.0
C3958 C 0.58504 0.12611 0.83027 0.0
C3959 C 0.5719 0.11252 0.83999 0.0
C3960 C 0.57317 0.09905 0.84469 0.0
C3961 C 0.58718 0.09908 0.83934 0.0
C3962 C 0.53363 0.10477 0.87076 0.0
C3963 C 0.52761 0.11099 0.85276 0.0
C3964 C 0.54803 0.10535 0.86672 0.0
C3965 C 0.55681 0.11226 0.84465 0.0
C3966 C 0.55092 0.11868 0.82681 0.0
C3967 C 0.53648 0.11802 0.83078 0.0
H3968 H 0.86881 0.47161 0.79525 0.0
H3969 H 0.90249 0.49419 0.85569 0.0
H3970 H 0.86879 0.44707 0.80346 0.0
H3971 H 0.90204 0.46948 0.86428 0.0
H3972 H 0.88355 0.41756 0.88757 0.0
H3973 H 0.88266 0.44177 0.87979 0.0
H3974 H 0.88859 0.43757 0.79981 0.0
H3975 H 0.88943 0.41336 0.80758 0.0
C3976 C 0.87627 0.4714 0.81019 0.0
C3977 C 0.8857 0.48495 0.82473 0.0
C3978 C 0.8762 0.45731 0.81493 0.0
C3979 C 0.88541 0.45639 0.8345 0.0
C3980 C 0.89467 0.46982 0.84927 0.0
C3981 C 0.89488 0.48396 0.84437 0.0
C3982 C 0.88454 0.42177 0.86833 0.0
C3983 C 0.88657 0.41362 0.84817 0.0
C3984 C 0.88415 0.43566 0.86391 0.0
C3985 C 0.88557 0.44153 0.8392 0.0
C3986 C 0.88736 0.43325 0.81901 0.0
C3987 C 0.88796 0.41948 0.82347 0.0
H3988 H 0.57931 0.47874 0.81145 0.0
H3989 H 0.58312 0.46225 0.88559 0.0
H3990 H 0.55497 0.45395 0.80408 0.0
H3991 H 0.55897 0.4373 0.87781 0.0
H3992 H 0.52502 0.38899 0.84059 0.0
H3993 H 0.54929 0.41374 0.84892 0.0
H3994 H 0.52735 0.43978 0.82161 0.0
H3995 H 0.50295 0.41512 0.81385 0.0
C3996 C 0.57494 0.4699 0.82626 0.0
C3997 C 0.5832 0.47256 0.84916 0.0
C3998 C 0.561 0.45567 0.82197 0.0
C3999 C 0.55507 0.44372 0.84038 0.0
C4000 C 0.56337 0.44626 0.86317 0.0
C4001 C 0.57724 0.46054 0.86756 0.0
C4002 C 0.52527 0.39998 0.83668 0.0
C4003 C 0.51199 0.40002 0.8265 0.0
C4004 C 0.5392 0.41415 0.84139 0.0
C4005 C 0.54022 0.42867 0.83583 0.0
C4006 C 0.52698 0.42875 0.82574 0.0
C4007 C 0.51301 0.4146 0.82123 0.0
H4008 H 0.56748 0.73894 0.6947 0.0
H4009 H 0.54232 0.73387 0.6251 0.0
H4010 H 0.56793 0.76376 0.70324 0.0
H4011 H 0.54274 0.75865 0.63364 0.0
H4012 H 0.53168 0.79398 0.6744 0.0
H4013 H 0.53094 0.76898 0.66655 0.0
H4014 H 0.58079 0.79121 0.68272 0.0
H4015 H 0.58153 0.8162 0.69063 0.0
C4016 C 0.56198 0.74311 0.68133 0.0
C4017 C 0.55489 0.73454 0.65923 0.0
C4018 C 0.56234 0.75733 0.68612 0.0
C4019 C 0.55538 0.7631 0.66908 0.0
C4020 C 0.54811 0.75441 0.64715 0.0
C4021 C 0.54796 0.74032 0.64219 0.0
C4022 C 0.54245 0.79349 0.67636 0.0
C4023 C 0.55667 0.80701 0.68309 0.0
C4024 C 0.54205 0.77924 0.67171 0.0
C4025 C 0.5558 0.77819 0.67405 0.0
C4026 C 0.56999 0.79168 0.68097 0.0
C4027 C 0.57045 0.80598 0.68528 0.0
H4028 H 0.20588 0.73603 0.66912 0.0
H4029 H 0.18156 0.76235 0.67826 0.0
H4030 H 0.23053 0.7606 0.66091 0.0
H4031 H 0.20619 0.7869 0.66994 0.0
H4032 H 0.25743 0.82714 0.68586 0.0
H4033 H 0.23261 0.80252 0.69291 0.0
H4034 H 0.24165 0.78227 0.62697 0.0
H4035 H 0.26647 0.80692 0.61991 0.0
C4036 C 0.20582 0.74707 0.66935 0.0
C4037 C 0.19182 0.7473 0.67432 0.0
C4038 C 0.21988 0.76109 0.66448 0.0
C4039 C 0.22024 0.77562 0.66484 0.0
C4040 C 0.20624 0.77585 0.66974 0.0
C4041 C 0.19215 0.76182 0.67428 0.0
C4042 C 0.25411 0.8174 0.67295 0.0
C4043 C 0.26382 0.8189 0.65235 0.0
C4044 C 0.23988 0.80339 0.67686 0.0
C4045 C 0.23523 0.79053 0.66046 0.0
C4046 C 0.24501 0.79199 0.63996 0.0
C4047 C 0.25913 0.80609 0.63583 0.0
H4048 H 0.2613 0.4667 0.66186 0.0
H4049 H 0.23514 0.41929 0.69167 0.0
H4050 H 0.23665 0.46692 0.65596 0.0
H4051 H 0.21057 0.41949 0.68562 0.0
H4052 H 0.16949 0.41927 0.64359 0.0
H4053 H 0.19424 0.4195 0.65051 0.0
H4054 H 0.21507 0.46674 0.68058 0.0
H4055 H 0.19039 0.46667 0.67295 0.0
C4056 C 0.25032 0.45638 0.66733 0.0
C4057 C 0.25019 0.44295 0.67709 0.0
C4058 C 0.2362 0.45651 0.66396 0.0
C4059 C 0.22166 0.4432 0.67024 0.0
C4060 C 0.22155 0.42983 0.68019 0.0
C4061 C 0.23564 0.42971 0.68361 0.0
C4062 C 0.17937 0.42974 0.65154 0.0
C4063 C 0.178 0.44297 0.65766 0.0
C4064 C 0.1935 0.42981 0.65574 0.0
C4065 C 0.20661 0.44313 0.66611 0.0
C4066 C 0.20522 0.45635 0.67235 0.0
C4067 C 0.19104 0.45625 0.66825 0.0
H4068 H 0.4147 0.91169 0.18907 0.0
H4069 H 0.38879 0.86434 0.15909 0.0
H4070 H 0.43932 0.9119 0.18201 0.0
H4071 H 0.41352 0.86501 0.15031 0.0
H4072 H 0.45945 0.86462 0.16323 0.0
H4073 H 0.43459 0.86411 0.17067 0.0
H4074 H 0.45676 0.91342 0.14996 0.0
H4075 H 0.48168 0.91395 0.14341 0.0
C4076 C 0.41422 0.90131 0.18093 0.0
C4077 C 0.39969 0.88797 0.17479 0.0
C4078 C 0.42841 0.90153 0.1765 0.0
C4079 C 0.42847 0.88849 0.16552 0.0
C4080 C 0.41395 0.8752 0.15911 0.0
C4081 C 0.39974 0.87491 0.16379 0.0
C4082 C 0.45894 0.87531 0.16023 0.0
C4083 C 0.47248 0.88934 0.15286 0.0
C4084 C 0.44469 0.87503 0.16437 0.0
C4085 C 0.44362 0.88873 0.16094 0.0
C4086 C 0.45718 0.90272 0.15329 0.0
C4087 C 0.47147 0.90304 0.14945 0.0
H4088 H 0.13184 0.59436 0.16995 0.0
H4089 H 0.09103 0.56864 0.12204 0.0
H4090 H 0.13255 0.57015 0.1778 0.0
H4091 H 0.09208 0.54457 0.12919 0.0
H4092 H 0.08752 0.50187 0.17267 0.0
H4093 H 0.08722 0.52618 0.16392 0.0
H4094 H 0.138 0.55122 0.15617 0.0
H4095 H 0.13834 0.52698 0.16576 0.0
C4096 C 0.12305 0.58355 0.16106 0.0
C4097 C 0.11136 0.58342 0.14543 0.0
C4098 C 0.12356 0.56971 0.16533 0.0
C4099 C 0.11236 0.55543 0.15414 0.0
C4100 C 0.10077 0.55534 0.13831 0.0
C4101 C 0.10028 0.56918 0.13399 0.0
C4102 C 0.09863 0.51259 0.16927 0.0
C4103 C 0.11296 0.51251 0.16997 0.0
C4104 C 0.09844 0.52648 0.16398 0.0
C4105 C 0.11259 0.54063 0.15931 0.0
C4106 C 0.12692 0.54054 0.1599 0.0
C4107 C 0.1271 0.52663 0.16513 0.0
H4108 H 0.48204 0.58773 0.21027 0.0
H4109 H 0.48565 0.60099 0.13151 0.0
H4110 H 0.45767 0.56329 0.20135 0.0
H4111 H 0.4614 0.57632 0.12257 0.0
H4112 H 0.42738 0.52234 0.11477 0.0
H4113 H 0.4516 0.54717 0.12272 0.0
H4114 H 0.43005 0.55517 0.188 0.0
H4115 H 0.40567 0.53054 0.1798 0.0
C4116 C 0.4776 0.5855 0.19108 0.0
C4117 C 0.48579 0.5964 0.17163 0.0
C4118 C 0.46364 0.57147 0.18599 0.0
C4119 C 0.45761 0.56793 0.16129 0.0
C4120 C 0.46587 0.57868 0.14175 0.0
C4121 C 0.47978 0.59278 0.14687 0.0
C4122 C 0.42769 0.52949 0.1306 0.0
C4123 C 0.41454 0.52441 0.14665 0.0
C4124 C 0.4416 0.54369 0.13518 0.0
C4125 C 0.44272 0.55307 0.15602 0.0
C4126 C 0.42959 0.54806 0.172 0.0
C4127 C 0.41564 0.53393 0.16732 0.0
H4128 H 0.0882 0.5854 0.65479 0.0
H4129 H 0.13234 0.60337 0.69493 0.0
H4130 H 0.08829 0.56099 0.64614 0.0
H4131 H 0.13247 0.57896 0.68619 0.0
H4132 H 0.11732 0.52611 0.68961 0.0
H4133 H 0.11832 0.55114 0.69772 0.0
H4134 H 0.10241 0.5511 0.6215 0.0
H4135 H 0.10135 0.52608 0.61346 0.0
C4136 C 0.098 0.5842 0.66154 0.0
C4137 C 0.11026 0.59632 0.67555 0.0
C4138 C 0.09806 0.57021 0.65658 0.0
C4139 C 0.1104 0.56803 0.66545 0.0
C4140 C 0.12268 0.58017 0.6794 0.0
C4141 C 0.1226 0.59415 0.6844 0.0
C4142 C 0.11421 0.53155 0.67452 0.0
C4143 C 0.10916 0.52407 0.65095 0.0
C4144 C 0.11478 0.54589 0.67915 0.0
C4145 C 0.11035 0.55307 0.6603 0.0
C4146 C 0.1056 0.54573 0.63659 0.0
C4147 C 0.10501 0.5314 0.63197 0.0
H4148 H 0.40919 0.50353 0.64376 0.0
H4149 H 0.39724 0.52496 0.70495 0.0
H4150 H 0.43323 0.52859 0.63591 0.0
H4151 H 0.42159 0.54976 0.69759 0.0
H4152 H 0.47602 0.58419 0.6938 0.0
H4153 H 0.45128 0.55951 0.70109 0.0
H4154 H 0.44058 0.55663 0.62142 0.0
H4155 H 0.46531 0.58134 0.61414 0.0
C4156 C 0.41158 0.51355 0.65544 0.0
C4157 C 0.40121 0.51214 0.67505 0.0
C4158 C 0.4254 0.52789 0.65097 0.0
C4159 C 0.42926 0.54108 0.66618 0.0
C4160 C 0.41897 0.53971 0.68578 0.0
C4161 C 0.40506 0.52545 0.69005 0.0
C4162 C 0.46835 0.57827 0.67789 0.0
C4163 C 0.47254 0.58464 0.65342 0.0
C4164 C 0.45419 0.56423 0.68207 0.0
C4165 C 0.44406 0.55618 0.6618 0.0
C4166 C 0.44824 0.56256 0.63733 0.0
C4167 C 0.46229 0.57673 0.63321 0.0
H4168 H 0.4124 0.88577 0.69114 0.0
H4169 H 0.42111 0.88895 0.6107 0.0
H4170 H 0.4371 0.88602 0.69864 0.0
H4171 H 0.44589 0.88926 0.61819 0.0
H4172 H 0.48101 0.87306 0.64111 0.0
H4173 H 0.4562 0.87254 0.63286 0.0
H4174 H 0.46531 0.9041 0.69572 0.0
H4175 H 0.49005 0.90457 0.70399 0.0
C4176 C 0.41964 0.88662 0.67507 0.0
C4177 C 0.41481 0.88736 0.65034 0.0
C4178 C 0.43381 0.88678 0.67936 0.0
C4179 C 0.44351 0.88773 0.65902 0.0
C4180 C 0.4386 0.88832 0.63426 0.0
C4181 C 0.4244 0.88813 0.62996 0.0
C4182 C 0.47777 0.88 0.65301 0.0
C4183 C 0.48747 0.88881 0.67327 0.0
C4184 C 0.46356 0.8797 0.64829 0.0
C4185 C 0.45873 0.88822 0.6637 0.0
C4186 C 0.46853 0.89716 0.68378 0.0
C4187 C 0.48271 0.89745 0.68851 0.0
H4188 H 0.19723 0.45454 0.14963 0.0
H4189 H 0.1927 0.43146 0.22127 0.0
H4190 H 0.22202 0.45506 0.14174 0.0
H4191 H 0.21725 0.43144 0.21311 0.0
H4192 H 0.26938 0.44713 0.20074 0.0
H4193 H 0.24507 0.44745 0.20995 0.0
H4194 H 0.23178 0.43815 0.13118 0.0
H4195 H 0.25631 0.43842 0.12202 0.0
C4196 C 0.20151 0.44947 0.1636 0.0
C4197 C 0.19304 0.44292 0.18602 0.0
C4198 C 0.21569 0.44969 0.15905 0.0
C4199 C 0.22163 0.44317 0.17668 0.0
C4200 C 0.21318 0.43676 0.19925 0.0
C4201 C 0.19909 0.43672 0.20393 0.0
C4202 C 0.2612 0.44511 0.18548 0.0
C4203 C 0.26475 0.44285 0.16065 0.0
C4204 C 0.24724 0.44524 0.19073 0.0
C4205 C 0.23645 0.44291 0.1713 0.0
C4206 C 0.23995 0.44037 0.14654 0.0
C4207 C 0.25397 0.44044 0.14127 0.0
H4208 H 0.56838 0.82125 0.13007 0.0
H4209 H 0.53784 0.81252 0.19447 0.0
H4210 H 0.56773 0.7964 0.13791 0.0
H4211 H 0.53753 0.78781 0.20257 0.0
H4212 H 0.55666 0.75421 0.22329 0.0
H4213 H 0.55639 0.77874 0.21581 0.0
H4214 H 0.54803 0.76751 0.13637 0.0
H4215 H 0.54853 0.74312 0.14378 0.0
C4216 C 0.56142 0.814 0.14579 0.0
C4217 C 0.5531 0.81889 0.16157 0.0
C4218 C 0.56109 0.79977 0.15029 0.0
C4219 C 0.55254 0.79015 0.1708 0.0
C4220 C 0.54435 0.79507 0.18676 0.0
C4221 C 0.54458 0.80925 0.18215 0.0
C4222 C 0.55479 0.75702 0.20424 0.0
C4223 C 0.55266 0.74679 0.1841 0.0
C4224 C 0.55451 0.77098 0.2 0.0
C4225 C 0.55224 0.77505 0.1755 0.0
C4226 C 0.54996 0.76474 0.15541 0.0
C4227 C 0.55009 0.75072 0.15968 0.0
H4228 H 0.19449 0.72149 0.16333 0.0
H4229 H 0.16806 0.74598 0.16821 0.0
H4230 H 0.21875 0.74602 0.1728 0.0
H4231 H 0.19228 0.77042 0.17783 0.0
H4232 H 0.2362 0.8079 0.21819 0.0
H4233 H 0.21225 0.78271 0.21098 0.0
H4234 H 0.23608 0.77164 0.15266 0.0
H4235 H 0.26004 0.79687 0.1598 0.0
C4236 C 0.19386 0.73211 0.16632 0.0
C4237 C 0.17932 0.73176 0.16498 0.0
C4238 C 0.20776 0.74616 0.17176 0.0
C4239 C 0.20744 0.76016 0.17606 0.0
C4240 C 0.19289 0.75978 0.17499 0.0
C4241 C 0.179 0.74576 0.1695 0.0
C4242 C 0.23631 0.80013 0.20374 0.0
C4243 C 0.25002 0.80444 0.18948 0.0
C4244 C 0.22259 0.78569 0.19963 0.0
C4245 C 0.22224 0.7752 0.18118 0.0
C4246 C 0.23603 0.77937 0.16724 0.0
C4247 C 0.24976 0.79383 0.17134 0.0
H4248 H 0.22082 0.2065 0.18933 0.0
H4249 H 0.25374 0.25663 0.18517 0.0
H4250 H 0.22073 0.20804 0.23496 0.0
H4251 H 0.25271 0.25837 0.23103 0.0
H4252 H 0.25902 0.25252 0.31599 0.0
H4253 H 0.26048 0.25186 0.26987 0.0
H4254 H 0.21079 0.217 0.26729 0.0
H4255 H 0.2096 0.21729 0.3132 0.0
C4256 C 0.2281 0.21787 0.19811 0.0
C4257 C 0.23736 0.23142 0.18343 0.0
C4258 C 0.22782 0.21881 0.22438 0.0
C4259 C 0.23658 0.23336 0.23678 0.0
C4260 C 0.24591 0.24694 0.22217 0.0
C4261 C 0.24633 0.24597 0.19581 0.0
C4262 C 0.24845 0.24477 0.30543 0.0
C4263 C 0.23424 0.23483 0.31808 0.0
C4264 C 0.24924 0.24443 0.27903 0.0
C4265 C 0.23578 0.23426 0.26479 0.0
C4266 C 0.22149 0.22466 0.27759 0.0
C4267 C 0.22077 0.22487 0.30391 0.0
H4268 H 0.76236 0.97816 0.18494 0.0
H4269 H 0.75902 0.02047 0.18895 0.0
H4270 H 0.76089 0.97607 0.231 0.0
H4271 H 0.75768 0.01845 0.23511 0.0
H4272 H 0.74163 0.00045 0.31691 0.0
H4273 H 0.74018 0.00072 0.27065 0.0
H4274 H 0.77958 0.99252 0.26558 0.0
H4275 H 0.78093 0.99211 0.31159 0.0
C4276 C 0.76109 0.98688 0.19567 0.0
C4277 C 0.76085 0.9995 0.18341 0.0
C4278 C 0.76039 0.98576 0.22201 0.0
C4279 C 0.75926 0.99714 0.2366 0.0
C4280 C 0.75846 0.00946 0.22431 0.0
C4281 C 0.75935 0.01069 0.19796 0.0
C4282 C 0.7499 0.99862 0.30585 0.0
C4283 C 0.76144 0.99633 0.3178 0.0
C4284 C 0.74913 0.99887 0.27944 0.0
C4285 C 0.75974 0.9966 0.26457 0.0
C4286 C 0.77115 0.99414 0.27657 0.0
C4287 C 0.77203 0.99407 0.30289 0.0
H4288 H 0.97504 0.75543 0.31537 0.0
H4289 H 0.023 0.76491 0.30825 0.0
H4290 H 0.97231 0.75388 0.26936 0.0
H4291 H 0.02024 0.76334 0.26215 0.0
H4292 H 0.00205 0.74423 0.18106 0.0
H4293 H 0.00392 0.74321 0.22703 0.0
H4294 H 0.98571 0.77507 0.23487 0.0
H4295 H 0.98443 0.77669 0.18915 0.0
C4296 C 0.9849 0.75693 0.30396 0.0
C4297 C 0.99924 0.76032 0.31531 0.0
C4298 C 0.98338 0.75616 0.27768 0.0
C4299 C 0.99609 0.75856 0.26227 0.0
C4300 C 0.01025 0.76137 0.27363 0.0
C4301 C 0.01185 0.76236 0.29993 0.0
C4302 C 0.99861 0.75117 0.19253 0.0
C4303 C 0.99304 0.76051 0.18127 0.0
C4304 C 0.99961 0.75049 0.21884 0.0
C4305 C 0.99485 0.75897 0.23443 0.0
C4306 C 0.9892 0.76821 0.22327 0.0
C4307 C 0.98841 0.76907 0.19703 0.0
H4308 H 0.75865 0.74126 0.81437 0.0
H4309 H 0.75617 0.78394 0.80837 0.0
H4310 H 0.75782 0.73898 0.76838 0.0
H4311 H 0.75608 0.78219 0.76249 0.0
H4312 H 0.74427 0.76954 0.6806 0.0
H4313 H 0.74175 0.76898 0.72654 0.0
H4314 H 0.77351 0.75036 0.73259 0.0
H4315 H 0.77533 0.75027 0.68668 0.0
C4316 C 0.75799 0.75018 0.80313 0.0
C4317 C 0.75744 0.76275 0.81485 0.0
C4318 C 0.7576 0.74895 0.77678 0.0
C4319 C 0.75694 0.76043 0.76155 0.0
C4320 C 0.75627 0.77294 0.77346 0.0
C4321 C 0.7564 0.77401 0.79979 0.0
C4322 C 0.7506 0.76525 0.69186 0.0
C4323 C 0.75998 0.75995 0.68018 0.0
C4324 C 0.74926 0.765 0.71819 0.0
C4325 C 0.7575 0.75971 0.73344 0.0
C4326 C 0.76675 0.75424 0.72158 0.0
C4327 C 0.76787 0.75425 0.69525 0.0
H4328 H 0.26065 0.01497 0.68613 0.0
H4329 H 0.21057 0.98181 0.68242 0.0
H4330 H 0.25943 0.01335 0.7323 0.0
H4331 H 0.20949 0.97977 0.72825 0.0
H4332 H 0.20947 0.99522 0.80926 0.0
H4333 H 0.21165 0.99678 0.76342 0.0
H4334 H 0.2548 0.99492 0.7677 0.0
H4335 H 0.25259 0.9933 0.81379 0.0
C4336 C 0.24942 0.00729 0.69514 0.0
C4337 C 0.23571 0.99852 0.68059 0.0
C4338 C 0.24875 0.00625 0.72155 0.0
C4339 C 0.23434 0.99649 0.73391 0.0
C4340 C 0.22072 0.98755 0.71932 0.0
C4341 C 0.22139 0.98856 0.69301 0.0
C4342 C 0.21934 0.99498 0.80045 0.0
C4343 C 0.23078 0.994 0.81517 0.0
C4344 C 0.2206 0.99589 0.77417 0.0
C4345 C 0.23333 0.99585 0.76192 0.0
C4346 C 0.24492 0.9951 0.77661 0.0
C4347 C 0.24365 0.99417 0.80299 0.0
H4348 H 0.01941 0.25279 0.68466 0.0
H4349 H 0.97016 0.21692 0.68704 0.0
H4350 H 0.0201 0.25352 0.73102 0.0
H4351 H 0.97093 0.21748 0.73333 0.0
H4352 H 0.98916 0.2092 0.81127 0.0
H4353 H 0.9869 0.20994 0.76556 0.0
H4354 H 0.00594 0.26028 0.76834 0.0
H4355 H 0.00744 0.2596 0.81437 0.0
C4356 C 0.00875 0.24513 0.69514 0.0
C4357 C 0.99474 0.2348 0.68238 0.0
C4358 C 0.00912 0.24561 0.72156 0.0
C4359 C 0.99557 0.23553 0.73562 0.0
C4360 C 0.98153 0.22532 0.72286 0.0
C4361 C 0.98108 0.22506 0.69646 0.0
C4362 C 0.99254 0.22042 0.80238 0.0
C4363 C 0.99845 0.23434 0.81675 0.0
C4364 C 0.99132 0.22082 0.77612 0.0
C4365 C 0.99626 0.23516 0.76353 0.0
C4366 C 0.00218 0.24909 0.77767 0.0
C4367 C 0.00312 0.24867 0.80402 0.0
H4368 H 0.88958 0.58088 0.51796 0.0
H4369 H 0.92425 0.56582 0.52049 0.0
H4370 H 0.88999 0.58243 0.56388 0.0
H4371 H 0.92528 0.56819 0.56635 0.0
H4372 H 0.90632 0.55332 0.64736 0.0
H4373 H 0.90863 0.55416 0.60149 0.0
H4374 H 0.90541 0.59663 0.59992 0.0
H4375 H 0.90284 0.5956 0.64588 0.0
C4376 C 0.89738 0.57801 0.5283 0.0
C4377 C 0.90678 0.5731 0.51551 0.0
C4378 C 0.89777 0.57911 0.55464 0.0
C4379 C 0.90763 0.57538 0.56886 0.0
C4380 C 0.91738 0.57093 0.55602 0.0
C4381 C 0.91695 0.56977 0.52967 0.0
C4382 C 0.90634 0.56296 0.63724 0.0
C4383 C 0.90436 0.57437 0.65021 0.0
C4384 C 0.90769 0.56347 0.61093 0.0
C4385 C 0.90718 0.57545 0.59696 0.0
C4386 C 0.90558 0.58709 0.61003 0.0
C4387 C 0.90414 0.58652 0.63635 0.0
H4388 H 0.45898 0.35144 0.52473 0.0
H4389 H 0.40814 0.32668 0.51737 0.0
H4390 H 0.45635 0.35014 0.5705 0.0
H4391 H 0.4056 0.32499 0.56338 0.0
H4392 H 0.41142 0.309 0.64489 0.0
H4393 H 0.4119 0.31145 0.59894 0.0
H4394 H 0.44656 0.36092 0.60493 0.0
H4395 H 0.44586 0.35863 0.65087 0.0
C4396 C 0.44723 0.34589 0.5328 0.0
C4397 C 0.43377 0.33924 0.51725 0.0
C4398 C 0.44575 0.34511 0.55907 0.0
C4399 C 0.43078 0.33752 0.57048 0.0
C4400 C 0.41729 0.33081 0.55506 0.0
C4401 C 0.41877 0.33173 0.52872 0.0
C4402 C 0.4189 0.32048 0.63648 0.0
C4403 C 0.42871 0.33359 0.65161 0.0
C4404 C 0.41919 0.32186 0.61014 0.0
C4405 C 0.42937 0.33634 0.59839 0.0
C4406 C 0.4388 0.34955 0.6135 0.0
C4407 C 0.43842 0.34821 0.6398 0.0
H4408 H 0.66345 0.1151 0.64376 0.0
H4409 H 0.66542 0.07198 0.64586 0.0
H4410 H 0.66146 0.1135 0.59795 0.0
H4411 H 0.66335 0.07033 0.59974 0.0
H4412 H 0.67648 0.08329 0.51525 0.0
H4413 H 0.67817 0.08365 0.56136 0.0
H4414 H 0.64281 0.09772 0.56568 0.0
H4415 H 0.64165 0.09808 0.51984 0.0
C4416 C 0.66326 0.10516 0.63444 0.0
C4417 C 0.66443 0.09358 0.64847 0.0
C4418 C 0.66212 0.10424 0.60816 0.0
C4419 C 0.66211 0.09171 0.59519 0.0
C4420 C 0.66346 0.0802 0.60916 0.0
C4421 C 0.66463 0.08113 0.63555 0.0
C4422 C 0.66913 0.08653 0.52607 0.0
C4423 C 0.65895 0.09069 0.51381 0.0
C4424 C 0.66997 0.08657 0.55248 0.0
C4425 C 0.66069 0.09079 0.56719 0.0
C4426 C 0.6503 0.09463 0.55492 0.0
C4427 C 0.64947 0.09462 0.52859 0.0
H4428 H 0.44745 0.1244 0.14372 0.0
H4429 H 0.41105 0.07538 0.14902 0.0
H4430 H 0.448 0.12197 0.09806 0.0
H4431 H 0.41136 0.07313 0.10297 0.0
H4432 H 0.40749 0.08413 0.01679 0.0
H4433 H 0.40552 0.08432 0.06292 0.0
H4434 H 0.45626 0.10717 0.06859 0.0
H4435 H 0.45828 0.10672 0.0228 0.0
C4436 C 0.43962 0.11307 0.1352 0.0
C4437 C 0.42935 0.10003 0.15014 0.0
C4438 C 0.43991 0.11171 0.10901 0.0
C4439 C 0.42984 0.09733 0.09703 0.0
C4440 C 0.41921 0.08438 0.11175 0.0
C4441 C 0.41901 0.0857 0.13809 0.0
C4442 C 0.4182 0.08896 0.02791 0.0
C4443 C 0.43306 0.09562 0.01608 0.0
C4444 C 0.41706 0.08909 0.05429 0.0
C4445 C 0.43075 0.09596 0.06926 0.0
C4446 C 0.44553 0.1021 0.05747 0.0
C4447 C 0.44667 0.10188 0.03123 0.0
H4448 H 0.87402 0.32377 0.14302 0.0
H4449 H 0.91958 0.32688 0.14895 0.0
H4450 H 0.8764 0.32506 0.09719 0.0
H4451 H 0.92205 0.32847 0.10292 0.0
H4452 H 0.92661 0.34992 0.02209 0.0
H4453 H 0.92495 0.3472 0.06813 0.0
H4454 H 0.87695 0.30877 0.06173 0.0
H4455 H 0.87848 0.31169 0.01588 0.0
C4456 C 0.88447 0.32454 0.13457 0.0
C4457 C 0.89657 0.32513 0.14972 0.0
C4458 C 0.88584 0.32531 0.10828 0.0
C4459 C 0.89938 0.32679 0.09647 0.0
C4460 C 0.91154 0.32747 0.11153 0.0
C4461 C 0.91013 0.32659 0.13788 0.0
C4462 C 0.91573 0.34087 0.03056 0.0
C4463 C 0.90267 0.33104 0.01538 0.0
C4464 C 0.91483 0.33923 0.05687 0.0
C4465 C 0.90079 0.32783 0.06852 0.0
C4466 C 0.88787 0.31778 0.0533 0.0
C4467 C 0.8888 0.31934 0.02703 0.0
H4468 H 0.69365 0.57732 0.1418 0.0
H4469 H 0.64725 0.57193 0.14899 0.0
H4470 H 0.69151 0.57727 0.09597 0.0
H4471 H 0.64524 0.57249 0.10304 0.0
H4472 H 0.63926 0.55406 0.02179 0.0
H4473 H 0.64158 0.55651 0.06761 0.0
H4474 H 0.69113 0.59115 0.05996 0.0
H4475 H 0.68882 0.58813 0.01412 0.0
C4476 C 0.68311 0.57644 0.13351 0.0
C4477 C 0.6706 0.57459 0.1489 0.0
C4478 C 0.68188 0.57647 0.10721 0.0
C4479 C 0.66818 0.57486 0.09567 0.0
C4480 C 0.65584 0.57345 0.11119 0.0
C4481 C 0.657 0.5732 0.13751 0.0
C4482 C 0.6506 0.56229 0.02997 0.0
C4483 C 0.66388 0.57085 0.01448 0.0
C4484 C 0.65194 0.56377 0.05624 0.0
C4485 C 0.66657 0.574 0.06762 0.0
C4486 C 0.67975 0.58291 0.05196 0.0
C4487 C 0.67844 0.58125 0.02569 0.0
H4488 H 0.54001 0.88553 0.97636 0.0
H4489 H 0.58976 0.91943 0.98423 0.0
H4490 H 0.54289 0.88706 0.93061 0.0
H4491 H 0.59265 0.92028 0.93828 0.0
H4492 H 0.59049 0.89828 0.85721 0.0
H4493 H 0.58915 0.89968 0.90335 0.0
H4494 H 0.55039 0.90869 0.89605 0.0
H4495 H 0.5518 0.90742 0.84999 0.0
C4496 C 0.55153 0.89343 0.96844 0.0
C4497 C 0.56463 0.90243 0.98415 0.0
C4498 C 0.55317 0.89423 0.94219 0.0
C4499 C 0.56797 0.90382 0.93099 0.0
C4500 C 0.58112 0.91272 0.94652 0.0
C4501 C 0.57945 0.91214 0.97283 0.0
C4502 C 0.58179 0.9007 0.86553 0.0
C4503 C 0.57124 0.90274 0.85012 0.0
C4504 C 0.58109 0.90158 0.89183 0.0
C4505 C 0.56963 0.90423 0.90316 0.0
C4506 C 0.55926 0.90654 0.88774 0.0
C4507 C 0.56014 0.90593 0.86144 0.0
H4508 H 0.07297 0.66134 0.98072 0.0
H4509 H 0.12211 0.67421 0.97995 0.0
H4510 H 0.07353 0.66428 0.9348 0.0
H4511 H 0.12264 0.67675 0.93415 0.0
H4512 H 0.12334 0.69358 0.85497 0.0
H4513 H 0.12196 0.69259 0.90081 0.0
H4514 H 0.07508 0.65187 0.89695 0.0
H4515 H 0.07606 0.6535 0.851 0.0
C4516 C 0.08386 0.66473 0.97068 0.0
C4517 C 0.09751 0.66761 0.98389 0.0
C4518 C 0.08419 0.66636 0.94438 0.0
C4519 C 0.09814 0.67077 0.93071 0.0
C4520 C 0.11178 0.67366 0.94404 0.0
C4521 C 0.11148 0.67217 0.97031 0.0
C4522 C 0.11259 0.68461 0.86384 0.0
C4523 C 0.09981 0.67362 0.84919 0.0
C4524 C 0.1119 0.68389 0.8902 0.0
C4525 C 0.09846 0.67207 0.90265 0.0
C4526 C 0.08557 0.66123 0.88804 0.0
C4527 C 0.08621 0.66203 0.86164 0.0
H4528 H 0.33666 0.40983 0.9781 0.0
H4529 H 0.32759 0.44872 0.97959 0.0
H4530 H 0.33466 0.40903 0.93204 0.0
H4531 H 0.32577 0.44807 0.93371 0.0
H4532 H 0.3074 0.43258 0.85445 0.0
H4533 H 0.30888 0.43211 0.90024 0.0
H4534 H 0.34829 0.42393 0.8946 0.0
H4535 H 0.34627 0.42355 0.84861 0.0
C4536 C 0.33432 0.41825 0.96858 0.0
C4537 C 0.33217 0.42926 0.98249 0.0
C4538 C 0.33322 0.41783 0.94219 0.0
C4539 C 0.33 0.42845 0.92917 0.0
C4540 C 0.32794 0.43951 0.94314 0.0
C4541 C 0.32899 0.43988 0.96946 0.0
C4542 C 0.31623 0.43042 0.86291 0.0
C4543 C 0.32667 0.42803 0.84779 0.0
C4544 C 0.31722 0.43038 0.88923 0.0
C4545 C 0.32875 0.42806 0.90113 0.0
C4546 C 0.33917 0.4256 0.88605 0.0
C4547 C 0.33814 0.42557 0.85967 0.0
H4548 H 0.08808 0.40827 0.47959 0.0
H4549 H 0.09608 0.45581 0.47516 0.0
H4550 H 0.08744 0.40675 0.43345 0.0
H4551 H 0.0955 0.4543 0.4292 0.0
H4552 H 0.11523 0.45317 0.35125 0.0
H4553 H 0.11314 0.4535 0.39698 0.0
H4554 H 0.07242 0.40663 0.39531 0.0
H4555 H 0.07439 0.40632 0.34923 0.0
C4556 C 0.08948 0.4183 0.46879 0.0
C4557 C 0.09232 0.43223 0.48102 0.0
C4558 C 0.08911 0.41743 0.44238 0.0
C4559 C 0.09159 0.43047 0.42771 0.0
C4560 C 0.09387 0.44418 0.43998 0.0
C4561 C 0.09422 0.44504 0.46631 0.0
C4562 C 0.10566 0.44301 0.36052 0.0
C4563 C 0.0949 0.42977 0.34652 0.0
C4564 C 0.10449 0.4432 0.38677 0.0
C4565 C 0.09255 0.43013 0.39974 0.0
C4566 C 0.08182 0.41682 0.38584 0.0
C4567 C 0.08296 0.41665 0.35947 0.0
H4568 H 0.59258 0.68634 0.35435 0.0
H4569 H 0.54435 0.64804 0.35184 0.0
H4570 H 0.5926 0.6838 0.40028 0.0
H4571 H 0.54425 0.64563 0.39763 0.0
H4572 H 0.55289 0.63576 0.47769 0.0
H4573 H 0.55489 0.63768 0.43172 0.0
H4574 H 0.58122 0.68855 0.43717 0.0
H4575 H 0.57943 0.68657 0.48312 0.0
C4576 C 0.58197 0.67743 0.36364 0.0
C4577 C 0.56848 0.66737 0.34949 0.0
C4578 C 0.58197 0.67598 0.38994 0.0
C4579 C 0.56843 0.66449 0.40267 0.0
C4580 C 0.55498 0.6544 0.38844 0.0
C4581 C 0.55501 0.6558 0.36217 0.0
C4582 C 0.55912 0.64734 0.46902 0.0
C4583 C 0.56595 0.66101 0.48397 0.0
C4584 C 0.56024 0.64845 0.44269 0.0
C4585 C 0.56813 0.66328 0.43071 0.0
C4586 C 0.57525 0.67694 0.44575 0.0
C4587 C 0.57421 0.67582 0.47209 0.0
H4588 H 0.35669 0.91847 0.34981 0.0
H4589 H 0.30613 0.88948 0.35636 0.0
H4590 H 0.35891 0.92108 0.3957 0.0
H4591 H 0.30825 0.89119 0.40226 0.0
H4592 H 0.31465 0.9056 0.48403 0.0
H4593 H 0.31311 0.90655 0.43805 0.0
H4594 H 0.35752 0.9071 0.43184 0.0
H4595 H 0.35934 0.90711 0.47773 0.0
C4596 C 0.34607 0.9126 0.3612 0.0
C4597 C 0.33125 0.9038 0.34969 0.0
C4598 C 0.34731 0.91398 0.3875 0.0
C4599 C 0.33377 0.90627 0.4029 0.0
C4600 C 0.31892 0.89756 0.39117 0.0
C4601 C 0.31768 0.89647 0.36486 0.0
C4602 C 0.3241 0.90606 0.47268 0.0
C4603 C 0.33712 0.90632 0.48428 0.0
C4604 C 0.3232 0.90649 0.44634 0.0
C4605 C 0.33515 0.90682 0.43102 0.0
C4606 C 0.34823 0.90718 0.44285 0.0
C4607 C 0.34926 0.90709 0.46917 0.0
loop_
_geom_bond_atom_site_label_1
_geom_bond_atom_site_label_2
_geom_bond_distance
_geom_bond_site_symmetry_2
_ccdc_geom_bond_type
Li0 N17 1.990 . S
Li0 O60 1.956 . S
Li0 O61 1.970 . S
Li0 O62 1.961 . S
Li1 N25 1.990 . S
Li1 O60 1.970 . S
Li1 O61 1.956 . S
Li1 O63 1.961 . S
Li2 N47 1.990 . S
Li2 O60 1.961 . S
Li2 O62 1.956 . S
Li2 O63 1.970 . S
Li3 N53 1.990 . S
Li3 O61 1.961 . S
Li3 O62 1.970 . S
Li3 O63 1.956 . S
C4 C6 1.348 . S
C4 C7 1.356 . S
C4 O60 1.325 . S
N5 C8 1.314 . S
N5 C9 1.279 . S
C6 C4 1.348 . S
C6 C8 1.353 . S
C6 H64 0.929 . S
C7 C4 1.356 . S
C7 C9 1.358 . S
C7 H65 0.930 . S
C8 N5 1.314 . S
C8 C6 1.353 . S
C8 H66 0.930 . S
C9 N5 1.279 . S
C9 C7 1.358 . S
C9 H67 0.930 . S
C10 C13 1.348 . S
C10 C14 1.356 . S
C10 O61 1.325 . S
C11 N12 1.279 . S
C11 C14 1.358 . S
C11 H68 0.930 . S
N12 C11 1.279 . S
N12 C15 1.314 . S
C13 C10 1.348 . S
C13 C15 1.353 . S
C13 H69 0.929 . S
C14 C10 1.356 . S
C14 C11 1.358 . S
C14 H70 0.930 . S
C15 N12 1.314 . S
C15 C13 1.353 . S
C15 H71 0.930 . S
C16 N17 1.314 . S
C16 C21 1.353 . S
C16 H22 0.930 . S
N17 Li0 1.990 . S
N17 C16 1.314 . S
N17 C19 1.279 . S
C18 C19 1.358 . S
C18 C20 1.356 . S
C18 H72 0.930 . S
C19 N17 1.279 . S
C19 C18 1.358 . S
C19 H23 0.930 . S
C20 C18 1.356 . S
C20 C21 1.348 . S
C21 C16 1.353 . S
C21 C20 1.348 . S
C21 H73 0.929 1_554 S
H22 C16 0.930 . S
H23 C19 0.930 . S
C24 N25 1.314 . S
C24 C26 1.353 . S
C24 H30 0.930 . S
N25 Li1 1.990 . S
N25 C24 1.314 . S
N25 C28 1.279 . S
C26 C24 1.353 . S
C26 C29 1.348 . S
C26 H74 0.929 . S
C27 C28 1.358 . S
C27 C29 1.356 . S
C27 H75 0.930 . S
C28 N25 1.279 . S
C28 C27 1.358 . S
C28 H31 0.930 . S
C29 C26 1.348 . S
C29 C27 1.356 . S
H30 C24 0.930 . S
H31 C28 0.930 . S
C32 C34 1.348 . S
C32 C35 1.356 . S
C32 O62 1.325 1_556 S
N33 C36 1.314 . S
N33 C37 1.279 . S
C34 C32 1.348 . S
C34 C36 1.353 . S
C34 H76 0.929 . S
C35 C32 1.356 . S
C35 C37 1.358 . S
C35 H77 0.930 . S
C36 N33 1.314 . S
C36 C34 1.353 . S
C36 H78 0.930 . S
C37 N33 1.279 . S
C37 C35 1.358 . S
C37 H79 0.930 . S
C38 C39 1.348 . S
C38 C40 1.356 . S
C38 O63 1.325 . S
C39 C38 1.348 . S
C39 C41 1.353 . S
C39 H80 0.929 . S
C40 C38 1.356 . S
C40 C42 1.358 . S
C40 H81 0.930 . S
C41 C39 1.353 . S
C41 N43 1.314 . S
C41 H82 0.930 . S
C42 C40 1.358 . S
C42 N43 1.279 . S
C42 H83 0.930 . S
N43 C41 1.314 . S
N43 C42 1.279 . S
C44 C46 1.353 . S
C44 N47 1.314 . S
C44 H50 0.930 . S
C45 N47 1.279 1_556 S
C45 C48 1.358 . S
C45 H51 0.930 . S
C46 C44 1.353 . S
C46 C49 1.348 . S
C46 H84 0.929 . S
N47 Li2 1.990 . S
N47 C44 1.314 . S
N47 C45 1.279 1_554 S
C48 C45 1.358 . S
C48 C49 1.356 1_556 S
C48 H85 0.930 . S
C49 C46 1.348 . S
C49 C48 1.356 1_554 S
H50 C44 0.930 . S
H51 C45 0.930 . S
C52 N53 1.322 . S
C52 C54 1.343 1_554 S
C52 H58 0.933 . S
N53 Li3 1.990 . S
N53 C52 1.322 . S
N53 C56 1.279 . S
C54 C52 1.343 1_556 S
C54 C57 1.348 . S
C54 H86 0.929 . S
C55 C56 1.358 1_556 S
C55 C57 1.356 . S
C55 H87 0.930 . S
C56 N53 1.279 . S
C56 C55 1.358 1_554 S
C56 H59 0.930 . S
C57 C54 1.348 . S
C57 C55 1.356 . S
H58 C52 0.933 . S
H59 C56 0.930 . S
O60 Li0 1.956 . S
O60 Li1 1.970 . S
O60 Li2 1.961 . S
O60 C4 1.325 . S
O61 Li0 1.970 . S
O61 Li1 1.956 . S
O61 Li3 1.961 . S
O61 C10 1.325 . S
O62 Li0 1.961 . S
O62 Li2 1.956 . S
O62 Li3 1.970 . S
O62 C32 1.325 1_554 S
O63 Li1 1.961 . S
O63 Li2 1.970 . S
O63 Li3 1.956 . S
O63 C38 1.325 . S
H64 C6 0.929 . S
H65 C7 0.930 . S
H66 C8 0.930 . S
H67 C9 0.930 . S
H68 C11 0.930 . S
H69 C13 0.929 . S
H70 C14 0.930 . S
H71 C15 0.930 . S
H72 C18 0.930 . S
H73 C21 0.929 1_556 S
H74 C26 0.929 . S
H75 C27 0.930 . S
H76 C34 0.929 . S
H77 C35 0.930 . S
H78 C36 0.930 . S
H79 C37 0.930 . S
H80 C39 0.929 . S
H81 C40 0.930 . S
H82 C41 0.930 . S
H83 C42 0.930 . S
H84 C46 0.929 . S
H85 C48 0.930 . S
H86 C54 0.929 . S
H87 C55 0.930 . S
Li88 N105 1.990 . S
Li88 O148 1.956 . S
Li88 O149 1.970 . S
Li88 O150 1.961 . S
Li89 N113 1.990 . S
Li89 O148 1.970 . S
Li89 O149 1.956 . S
Li89 O151 1.961 1_545 S
Li90 N135 1.990 . S
Li90 O148 1.961 1_565 S
Li90 O150 1.956 1_565 S
Li90 O151 1.970 . S
Li91 N141 1.990 . S
Li91 O149 1.961 . S
Li91 O150 1.970 . S
Li91 O151 1.956 1_545 S
C92 C94 1.348 . S
C92 C95 1.356 1_545 S
C92 O148 1.325 . S
N93 C96 1.314 1_565 S
N93 C97 1.279 . S
C94 C92 1.348 . S
C94 C96 1.353 . S
C94 H152 0.929 . S
C95 C92 1.356 1_565 S
C95 C97 1.358 . S
C95 H153 0.930 . S
C96 N93 1.314 1_545 S
C96 C94 1.353 . S
C96 H154 0.930 . S
C97 N93 1.279 . S
C97 C95 1.358 . S
C97 H155 0.930 . S
C98 C101 1.348 . S
C98 C102 1.356 . S
C98 O149 1.325 . S
C99 N100 1.279 . S
C99 C102 1.358 . S
C99 H156 0.930 . S
N100 C99 1.279 . S
N100 C103 1.314 . S
C101 C98 1.348 . S
C101 C103 1.353 . S
C101 H157 0.929 . S
C102 C98 1.356 . S
C102 C99 1.358 . S
C102 H158 0.930 . S
C103 N100 1.314 . S
C103 C101 1.353 . S
C103 H159 0.930 . S
C104 N105 1.314 . S
C104 C109 1.353 . S
C104 H110 0.941 . S
N105 Li88 1.990 . S
N105 C104 1.314 . S
N105 C107 1.279 . S
C106 C107 1.358 . S
C106 C108 1.356 . S
C106 H160 0.930 . S
C107 N105 1.279 . S
C107 C106 1.358 . S
C107 H111 0.930 . S
C108 C106 1.356 . S
C108 C109 1.348 . S
C109 C104 1.353 . S
C109 C108 1.348 . S
C109 H161 0.929 1_554 S
H110 C104 0.941 . S
H111 C107 0.930 . S
C112 N113 1.314 1_565 S
C112 C114 1.353 . S
C112 H118 0.930 . S
N113 Li89 1.990 . S
N113 C112 1.314 1_545 S
N113 C116 1.279 . S
C114 C112 1.353 . S
C114 C117 1.348 1_565 S
C114 H162 0.929 . S
C115 C116 1.358 . S
C115 C117 1.356 . S
C115 H163 0.930 . S
C116 N113 1.279 . S
C116 C115 1.358 . S
C116 H119 0.930 . S
C117 C114 1.348 1_545 S
C117 C115 1.356 . S
H118 C112 0.930 . S
H119 C116 0.930 . S
C120 C122 1.348 . S
C120 C123 1.356 . S
C120 O150 1.325 1_556 S
N121 C124 1.314 . S
N121 C125 1.279 . S
C122 C120 1.348 . S
C122 C124 1.353 . S
C122 H164 0.929 . S
C123 C120 1.356 . S
C123 C125 1.358 . S
C123 H165 0.930 . S
C124 N121 1.314 . S
C124 C122 1.353 . S
C124 H166 0.930 . S
C125 N121 1.279 . S
C125 C123 1.358 . S
C125 H167 0.930 . S
C126 C127 1.348 . S
C126 C128 1.356 . S
C126 O151 1.325 . S
C127 C126 1.348 . S
C127 C129 1.353 . S
C127 H168 0.929 . S
C128 C126 1.356 . S
C128 C130 1.358 . S
C128 H169 0.930 . S
C129 C127 1.353 . S
C129 N131 1.314 . S
C129 H170 0.930 . S
C130 C128 1.358 . S
C130 N131 1.279 . S
C130 H171 0.930 . S
N131 C129 1.314 . S
N131 C130 1.279 . S
C132 C134 1.353 . S
C132 N135 1.314 . S
C132 H138 0.930 . S
C133 N135 1.279 1_556 S
C133 C136 1.358 . S
C133 H139 0.930 . S
C134 C132 1.353 . S
C134 C137 1.348 . S
C134 H172 0.929 . S
N135 Li90 1.990 . S
N135 C132 1.314 . S
N135 C133 1.279 1_554 S
C136 C133 1.358 . S
C136 C137 1.356 1_556 S
C136 H173 0.930 . S
C137 C134 1.348 . S
C137 C136 1.356 1_554 S
H138 C132 0.930 . S
H139 C133 0.930 . S
C140 N141 1.314 1_556 S
C140 C142 1.354 . S
C140 H146 0.929 1_556 S
N141 Li91 1.990 . S
N141 C140 1.314 1_554 S
N141 C144 1.279 . S
C142 C140 1.354 . S
C142 C145 1.348 . S
C142 H174 0.929 . S
C143 C144 1.358 1_556 S
C143 C145 1.356 . S
C143 H175 0.930 . S
C144 N141 1.279 . S
C144 C143 1.358 1_554 S
C144 H147 0.930 1_545 S
C145 C142 1.348 . S
C145 C143 1.356 . S
H146 C140 0.929 1_554 S
H147 C144 0.930 1_565 S
O148 Li88 1.956 . S
O148 Li89 1.970 . S
O148 Li90 1.961 1_545 S
O148 C92 1.325 . S
O149 Li88 1.970 . S
O149 Li89 1.956 . S
O149 Li91 1.961 . S
O149 C98 1.325 . S
O150 Li88 1.961 . S
O150 Li90 1.956 1_545 S
O150 Li91 1.970 . S
O150 C120 1.325 1_554 S
O151 Li89 1.961 1_565 S
O151 Li90 1.970 . S
O151 Li91 1.956 1_565 S
O151 C126 1.325 . S
H152 C94 0.929 . S
H153 C95 0.930 . S
H154 C96 0.930 . S
H155 C97 0.930 . S
H156 C99 0.930 . S
H157 C101 0.929 . S
H158 C102 0.930 . S
H159 C103 0.930 . S
H160 C106 0.930 . S
H161 C109 0.929 1_556 S
H162 C114 0.929 . S
H163 C115 0.930 . S
H164 C122 0.929 . S
H165 C123 0.930 . S
H166 C124 0.930 . S
H167 C125 0.930 . S
H168 C127 0.929 . S
H169 C128 0.930 . S
H170 C129 0.930 . S
H171 C130 0.930 . S
H172 C134 0.929 . S
H173 C136 0.930 . S
H174 C142 0.929 . S
H175 C143 0.930 . S
Li176 N193 1.990 . S
Li176 O236 1.956 . S
Li176 O237 1.970 . S
Li176 O238 1.961 . S
Li177 N201 1.990 . S
Li177 O236 1.970 . S
Li177 O237 1.956 . S
Li177 O239 1.961 1_655 S
Li178 N223 1.990 . S
Li178 O236 1.961 1_455 S
Li178 O238 1.956 1_455 S
Li178 O239 1.970 . S
Li179 N229 1.990 . S
Li179 O237 1.961 . S
Li179 O238 1.970 . S
Li179 O239 1.956 1_655 S
C180 C182 1.348 . S
C180 C183 1.343 . S
C180 O236 1.325 . S
N181 C184 1.308 . S
N181 C185 1.272 1_655 S
C182 C180 1.348 . S
C182 C184 1.353 . S
C182 H240 0.929 . S
C183 C180 1.343 . S
C183 C185 1.383 1_655 S
C183 H241 0.924 1_655 S
C184 N181 1.308 . S
C184 C182 1.353 . S
C184 H242 0.930 . S
C185 N181 1.272 1_455 S
C185 C183 1.383 1_455 S
C185 H243 0.930 . S
C186 C189 1.348 . S
C186 C190 1.356 . S
C186 O237 1.325 . S
C187 N188 1.279 . S
C187 C190 1.358 . S
C187 H244 0.930 . S
N188 C187 1.279 . S
N188 C191 1.314 . S
C189 C186 1.348 . S
C189 C191 1.353 . S
C189 H245 0.929 . S
C190 C186 1.356 . S
C190 C187 1.358 . S
C190 H246 0.930 . S
C191 N188 1.314 . S
C191 C189 1.353 . S
C191 H247 0.930 . S
C192 N193 1.314 . S
C192 C197 1.353 . S
C192 H198 0.930 . S
N193 Li176 1.990 . S
N193 C192 1.314 . S
N193 C195 1.279 . S
C194 C195 1.358 . S
C194 C196 1.356 . S
C194 H248 0.930 . S
C195 N193 1.279 . S
C195 C194 1.358 . S
C195 H199 0.930 . S
C196 C194 1.356 . S
C196 C197 1.348 . S
C197 C192 1.353 . S
C197 C196 1.348 . S
C197 H249 0.929 1_554 S
H198 C192 0.930 . S
H199 C195 0.930 . S
C200 N201 1.314 1_455 S
C200 C202 1.353 . S
C200 H206 0.930 . S
N201 Li177 1.990 . S
N201 C200 1.314 1_655 S
N201 C204 1.279 . S
C202 C200 1.353 . S
C202 C205 1.348 1_455 S
C202 H250 0.929 . S
C203 C204 1.358 . S
C203 C205 1.356 . S
C203 H251 0.930 . S
C204 N201 1.279 . S
C204 C203 1.358 . S
C204 H207 0.930 . S
C205 C202 1.348 1_655 S
C205 C203 1.356 . S
H206 C200 0.930 . S
H207 C204 0.930 . S
C208 C210 1.348 . S
C208 C211 1.356 . S
C208 O238 1.325 1_556 S
N209 C212 1.314 . S
N209 C213 1.279 . S
C210 C208 1.348 . S
C210 C212 1.353 . S
C210 H252 0.929 . S
C211 C208 1.356 . S
C211 C213 1.358 . S
C211 H253 0.930 . S
C212 N209 1.314 . S
C212 C210 1.353 . S
C212 H254 0.930 . S
C213 N209 1.279 . S
C213 C211 1.358 . S
C213 H255 0.930 . S
C214 C215 1.348 . S
C214 C216 1.356 . S
C214 O239 1.325 . S
C215 C214 1.348 . S
C215 C217 1.353 . S
C215 H256 0.929 . S
C216 C214 1.356 . S
C216 C218 1.358 . S
C216 H257 0.930 . S
C217 C215 1.353 . S
C217 N219 1.314 . S
C217 H258 0.930 . S
C218 C216 1.358 . S
C218 N219 1.279 . S
C218 H259 0.930 . S
N219 C217 1.314 . S
N219 C218 1.279 . S
C220 C222 1.353 . S
C220 N223 1.314 . S
C220 H226 0.930 . S
C221 N223 1.279 1_556 S
C221 C224 1.358 . S
C221 H227 0.930 . S
C222 C220 1.353 . S
C222 C225 1.348 . S
C222 H260 0.929 . S
N223 Li178 1.990 . S
N223 C220 1.314 . S
N223 C221 1.279 1_554 S
C224 C221 1.358 . S
C224 C225 1.356 1_556 S
C224 H261 0.930 . S
C225 C222 1.348 . S
C225 C224 1.356 1_554 S
H226 C220 0.930 . S
H227 C221 0.930 . S
C228 N229 1.307 1_556 S
C228 C230 1.363 . S
C228 H234 0.927 1_556 S
N229 Li179 1.990 . S
N229 C228 1.307 1_554 S
N229 C232 1.279 . S
C230 C228 1.363 . S
C230 C233 1.348 . S
C230 H262 0.929 . S
C231 C232 1.358 1_556 S
C231 C233 1.356 . S
C231 H263 0.930 . S
C232 N229 1.279 . S
C232 C231 1.358 1_554 S
C232 H235 0.930 1_655 S
C233 C230 1.348 . S
C233 C231 1.356 . S
H234 C228 0.927 1_554 S
H235 C232 0.930 1_455 S
O236 Li176 1.956 . S
O236 Li177 1.970 . S
O236 Li178 1.961 1_655 S
O236 C180 1.325 . S
O237 Li176 1.970 . S
O237 Li177 1.956 . S
O237 Li179 1.961 . S
O237 C186 1.325 . S
O238 Li176 1.961 . S
O238 Li178 1.956 1_655 S
O238 Li179 1.970 . S
O238 C208 1.325 1_554 S
O239 Li177 1.961 1_455 S
O239 Li178 1.970 . S
O239 Li179 1.956 1_455 S
O239 C214 1.325 . S
H240 C182 0.929 . S
H241 C183 0.924 1_455 S
H242 C184 0.930 . S
H243 C185 0.930 . S
H244 C187 0.930 . S
H245 C189 0.929 . S
H246 C190 0.930 . S
H247 C191 0.930 . S
H248 C194 0.930 . S
H249 C197 0.929 1_556 S
H250 C202 0.929 . S
H251 C203 0.930 . S
H252 C210 0.929 . S
H253 C211 0.930 . S
H254 C212 0.930 . S
H255 C213 0.930 . S
H256 C215 0.929 . S
H257 C216 0.930 . S
H258 C217 0.930 . S
H259 C218 0.930 . S
H260 C222 0.929 . S
H261 C224 0.930 . S
H262 C230 0.929 . S
H263 C231 0.930 . S
Li264 N281 1.990 . S
Li264 O324 1.956 . S
Li264 O325 1.970 . S
Li264 O326 1.961 . S
Li265 N289 1.990 . S
Li265 O324 1.970 . S
Li265 O325 1.956 . S
Li265 O327 1.961 . S
Li266 N311 1.990 . S
Li266 O324 1.961 . S
Li266 O326 1.956 . S
Li266 O327 1.970 . S
Li267 N317 1.990 . S
Li267 O325 1.961 . S
Li267 O326 1.970 . S
Li267 O327 1.956 . S
C268 C270 1.348 . S
C268 C271 1.356 . S
C268 O324 1.325 . S
N269 C272 1.314 . S
N269 C273 1.279 . S
C270 C268 1.348 . S
C270 C272 1.353 . S
C270 H328 0.929 . S
C271 C268 1.356 . S
C271 C273 1.358 . S
C271 H329 0.930 . S
C272 N269 1.314 . S
C272 C270 1.353 . S
C272 H330 0.930 . S
C273 N269 1.279 . S
C273 C271 1.358 . S
C273 H331 0.930 . S
C274 C277 1.348 . S
C274 C278 1.356 . S
C274 O325 1.325 . S
C275 N276 1.279 . S
C275 C278 1.358 . S
C275 H332 0.930 . S
N276 C275 1.279 . S
N276 C279 1.314 . S
C277 C274 1.348 . S
C277 C279 1.353 . S
C277 H333 0.929 . S
C278 C274 1.356 . S
C278 C275 1.358 . S
C278 H334 0.930 . S
C279 N276 1.314 . S
C279 C277 1.353 . S
C279 H335 0.930 . S
C280 N281 1.314 . S
C280 C285 1.353 . S
C280 H286 0.930 . S
N281 Li264 1.990 . S
N281 C280 1.314 . S
N281 C283 1.279 . S
C282 C283 1.358 . S
C282 C284 1.356 . S
C282 H336 0.930 . S
C283 N281 1.279 . S
C283 C282 1.358 . S
C283 H287 0.930 . S
C284 C282 1.356 . S
C284 C285 1.348 . S
C285 C280 1.353 . S
C285 C284 1.348 . S
C285 H337 0.929 . S
H286 C280 0.930 . S
H287 C283 0.930 . S
C288 N289 1.314 . S
C288 C290 1.353 . S
C288 H294 0.930 . S
N289 Li265 1.990 . S
N289 C288 1.314 . S
N289 C292 1.279 . S
C290 C288 1.353 . S
C290 C293 1.348 . S
C290 H338 0.929 . S
C291 C292 1.358 . S
C291 C293 1.356 . S
C291 H339 0.930 . S
C292 N289 1.279 . S
C292 C291 1.358 . S
C292 H295 0.930 . S
C293 C290 1.348 . S
C293 C291 1.356 . S
H294 C288 0.930 . S
H295 C292 0.930 . S
C296 C298 1.348 . S
C296 C299 1.356 . S
C296 O326 1.325 . S
N297 C300 1.314 . S
N297 C301 1.279 . S
C298 C296 1.348 . S
C298 C300 1.353 . S
C298 H340 0.929 . S
C299 C296 1.356 . S
C299 C301 1.358 . S
C299 H341 0.930 . S
C300 N297 1.314 . S
C300 C298 1.353 . S
C300 H342 0.930 . S
C301 N297 1.279 . S
C301 C299 1.358 . S
C301 H343 0.930 . S
C302 C303 1.348 . S
C302 C304 1.356 . S
C302 O327 1.325 . S
C303 C302 1.348 . S
C303 C305 1.353 . S
C303 H344 0.929 . S
C304 C302 1.356 . S
C304 C306 1.358 . S
C304 H345 0.930 . S
C305 C303 1.353 . S
C305 N307 1.314 . S
C305 H346 0.930 . S
C306 C304 1.358 . S
C306 N307 1.279 . S
C306 H347 0.930 . S
N307 C305 1.314 . S
N307 C306 1.279 . S
C308 C310 1.353 . S
C308 N311 1.314 . S
C308 H314 0.930 . S
C309 N311 1.279 . S
C309 C312 1.358 . S
C309 H315 0.930 . S
C310 C308 1.353 . S
C310 C313 1.348 . S
C310 H348 0.929 . S
N311 Li266 1.990 . S
N311 C308 1.314 . S
N311 C309 1.279 . S
C312 C309 1.358 . S
C312 C313 1.356 . S
C312 H349 0.930 . S
C313 C310 1.348 . S
C313 C312 1.356 . S
H314 C308 0.930 . S
H315 C309 0.930 . S
C316 N317 1.314 . S
C316 C318 1.353 . S
C316 H322 0.930 . S
N317 Li267 1.990 . S
N317 C316 1.314 . S
N317 C320 1.279 . S
C318 C316 1.353 . S
C318 C321 1.348 . S
C318 H350 0.929 . S
C319 C320 1.358 . S
C319 C321 1.356 . S
C319 H351 0.930 . S
C320 N317 1.279 . S
C320 C319 1.358 . S
C320 H323 0.930 . S
C321 C318 1.348 . S
C321 C319 1.356 . S
H322 C316 0.930 . S
H323 C320 0.930 . S
O324 Li264 1.956 . S
O324 Li265 1.970 . S
O324 Li266 1.961 . S
O324 C268 1.325 . S
O325 Li264 1.970 . S
O325 Li265 1.956 . S
O325 Li267 1.961 . S
O325 C274 1.325 . S
O326 Li264 1.961 . S
O326 Li266 1.956 . S
O326 Li267 1.970 . S
O326 C296 1.325 . S
O327 Li265 1.961 . S
O327 Li266 1.970 . S
O327 Li267 1.956 . S
O327 C302 1.325 . S
H328 C270 0.929 . S
H329 C271 0.930 . S
H330 C272 0.930 . S
H331 C273 0.930 . S
H332 C275 0.930 . S
H333 C277 0.929 . S
H334 C278 0.930 . S
H335 C279 0.930 . S
H336 C282 0.930 . S
H337 C285 0.929 . S
H338 C290 0.929 . S
H339 C291 0.930 . S
H340 C298 0.929 . S
H341 C299 0.930 . S
H342 C300 0.930 . S
H343 C301 0.930 . S
H344 C303 0.929 . S
H345 C304 0.930 . S
H346 C305 0.930 . S
H347 C306 0.930 . S
H348 C310 0.929 . S
H349 C312 0.930 . S
H350 C318 0.929 . S
H351 C319 0.930 . S
Li352 N369 1.990 . S
Li352 O412 1.956 1_545 S
Li352 O413 1.970 . S
Li352 O414 1.961 1_545 S
Li353 N377 1.990 . S
Li353 O412 1.970 . S
Li353 O413 1.956 1_565 S
Li353 O415 1.961 . S
Li354 N399 1.990 . S
Li354 O412 1.961 . S
Li354 O414 1.956 . S
Li354 O415 1.970 . S
Li355 N405 1.990 . S
Li355 O413 1.961 1_565 S
Li355 O414 1.970 . S
Li355 O415 1.956 . S
C356 C358 1.348 . S
C356 C359 1.356 . S
C356 O412 1.325 . S
N357 C360 1.314 . S
N357 C361 1.279 . S
C358 C356 1.348 . S
C358 C360 1.353 . S
C358 H416 0.929 . S
C359 C356 1.356 . S
C359 C361 1.358 . S
C359 H417 0.930 . S
C360 N357 1.314 . S
C360 C358 1.353 . S
C360 H418 0.930 . S
C361 N357 1.279 . S
C361 C359 1.358 . S
C361 H419 0.930 . S
C362 C365 1.348 . S
C362 C366 1.356 . S
C362 O413 1.325 . S
C363 N364 1.279 . S
C363 C366 1.358 . S
C363 H420 0.930 . S
N364 C363 1.279 . S
N364 C367 1.314 . S
C365 C362 1.348 . S
C365 C367 1.353 . S
C365 H421 0.929 . S
C366 C362 1.356 . S
C366 C363 1.358 . S
C366 H422 0.930 . S
C367 N364 1.314 . S
C367 C365 1.353 . S
C367 H423 0.930 . S
C368 N369 1.314 . S
C368 C373 1.353 . S
C368 H374 0.930 . S
N369 Li352 1.990 . S
N369 C368 1.314 . S
N369 C371 1.279 . S
C370 C371 1.358 . S
C370 C372 1.356 . S
C370 H424 0.930 . S
C371 N369 1.279 . S
C371 C370 1.358 . S
C371 H375 0.930 . S
C372 C370 1.356 . S
C372 C373 1.348 . S
C373 C368 1.353 . S
C373 C372 1.348 . S
C373 H425 0.929 . S
H374 C368 0.930 . S
H375 C371 0.930 . S
C376 N377 1.314 . S
C376 C378 1.353 . S
C376 H382 0.930 . S
N377 Li353 1.990 . S
N377 C376 1.314 . S
N377 C380 1.279 . S
C378 C376 1.353 . S
C378 C381 1.348 . S
C378 H426 0.929 . S
C379 C380 1.358 . S
C379 C381 1.356 . S
C379 H427 0.930 . S
C380 N377 1.279 . S
C380 C379 1.358 . S
C380 H383 0.930 1_565 S
C381 C378 1.348 . S
C381 C379 1.356 . S
H382 C376 0.930 . S
H383 C380 0.930 1_545 S
C384 C386 1.348 . S
C384 C387 1.348 . S
C384 O414 1.325 . S
N385 C388 1.313 . S
N385 C389 1.278 1_565 S
C386 C384 1.348 . S
C386 C388 1.353 . S
C386 H428 0.929 . S
C387 C384 1.348 . S
C387 C389 1.373 1_565 S
C387 H429 0.924 1_565 S
C388 N385 1.313 . S
C388 C386 1.353 . S
C388 H430 0.930 . S
C389 N385 1.278 1_545 S
C389 C387 1.373 1_545 S
C389 H431 0.930 . S
C390 C391 1.348 . S
C390 C392 1.356 . S
C390 O415 1.325 . S
C391 C390 1.348 . S
C391 C393 1.353 . S
C391 H432 0.929 . S
C392 C390 1.356 . S
C392 C394 1.358 . S
C392 H433 0.930 . S
C393 C391 1.353 . S
C393 N395 1.314 . S
C393 H434 0.930 . S
C394 C392 1.358 . S
C394 N395 1.279 . S
C394 H435 0.930 . S
N395 C393 1.314 . S
N395 C394 1.279 . S
C396 C398 1.353 . S
C396 N399 1.314 . S
C396 H402 0.930 . S
C397 N399 1.279 . S
C397 C400 1.358 . S
C397 H403 0.930 . S
C398 C396 1.353 . S
C398 C401 1.348 . S
C398 H436 0.929 . S
N399 Li354 1.990 . S
N399 C396 1.314 . S
N399 C397 1.279 . S
C400 C397 1.358 . S
C400 C401 1.356 . S
C400 H437 0.930 . S
C401 C398 1.348 . S
C401 C400 1.356 . S
H402 C396 0.930 . S
H403 C397 0.930 . S
C404 N405 1.314 1_545 S
C404 C406 1.353 . S
C404 H410 0.930 . S
N405 Li355 1.990 . S
N405 C404 1.314 1_565 S
N405 C408 1.279 . S
C406 C404 1.353 . S
C406 C409 1.348 1_545 S
C406 H438 0.929 . S
C407 C408 1.358 . S
C407 C409 1.356 . S
C407 H439 0.930 . S
C408 N405 1.279 . S
C408 C407 1.358 . S
C408 H411 0.930 . S
C409 C406 1.348 1_565 S
C409 C407 1.356 . S
H410 C404 0.930 . S
H411 C408 0.930 . S
O412 Li352 1.956 1_565 S
O412 Li353 1.970 . S
O412 Li354 1.961 . S
O412 C356 1.325 . S
O413 Li352 1.970 . S
O413 Li353 1.956 1_545 S
O413 Li355 1.961 1_545 S
O413 C362 1.325 . S
O414 Li352 1.961 1_565 S
O414 Li354 1.956 . S
O414 Li355 1.970 . S
O414 C384 1.325 . S
O415 Li353 1.961 . S
O415 Li354 1.970 . S
O415 Li355 1.956 . S
O415 C390 1.325 . S
H416 C358 0.929 . S
H417 C359 0.930 . S
H418 C360 0.930 . S
H419 C361 0.930 . S
H420 C363 0.930 . S
H421 C365 0.929 . S
H422 C366 0.930 . S
H423 C367 0.930 . S
H424 C370 0.930 . S
H425 C373 0.929 . S
H426 C378 0.929 . S
H427 C379 0.930 . S
H428 C386 0.929 . S
H429 C387 0.924 1_545 S
H430 C388 0.930 . S
H431 C389 0.930 . S
H432 C391 0.929 . S
H433 C392 0.930 . S
H434 C393 0.930 . S
H435 C394 0.930 . S
H436 C398 0.929 . S
H437 C400 0.930 . S
H438 C406 0.929 . S
H439 C407 0.930 . S
Li440 N457 1.990 . S
Li440 O500 1.956 1_655 S
Li440 O501 1.970 . S
Li440 O502 1.961 1_655 S
Li441 N465 1.990 . S
Li441 O500 1.970 . S
Li441 O501 1.956 1_455 S
Li441 O503 1.961 . S
Li442 N487 1.990 . S
Li442 O500 1.961 . S
Li442 O502 1.956 . S
Li442 O503 1.970 . S
Li443 N493 1.990 . S
Li443 O501 1.961 1_455 S
Li443 O502 1.970 . S
Li443 O503 1.956 . S
C444 C446 1.348 . S
C444 C447 1.356 . S
C444 O500 1.325 . S
N445 C448 1.314 . S
N445 C449 1.279 . S
C446 C444 1.348 . S
C446 C448 1.353 . S
C446 H504 0.929 . S
C447 C444 1.356 . S
C447 C449 1.358 . S
C447 H505 0.930 . S
C448 N445 1.314 . S
C448 C446 1.353 . S
C448 H506 0.930 . S
C449 N445 1.279 . S
C449 C447 1.358 . S
C449 H507 0.930 . S
C450 C453 1.348 . S
C450 C454 1.356 . S
C450 O501 1.325 . S
C451 N452 1.279 . S
C451 C454 1.358 . S
C451 H508 0.930 . S
N452 C451 1.279 . S
N452 C455 1.314 . S
C453 C450 1.348 . S
C453 C455 1.353 . S
C453 H509 0.929 . S
C454 C450 1.356 . S
C454 C451 1.358 . S
C454 H510 0.930 . S
C455 N452 1.314 . S
C455 C453 1.353 . S
C455 H511 0.930 . S
C456 N457 1.314 . S
C456 C461 1.353 . S
C456 H462 0.930 . S
N457 Li440 1.990 . S
N457 C456 1.314 . S
N457 C459 1.279 . S
C458 C459 1.358 . S
C458 C460 1.356 . S
C458 H512 0.930 . S
C459 N457 1.279 . S
C459 C458 1.358 . S
C459 H463 0.930 . S
C460 C458 1.356 . S
C460 C461 1.348 . S
C461 C456 1.353 . S
C461 C460 1.348 . S
C461 H513 0.929 . S
H462 C456 0.930 . S
H463 C459 0.930 . S
C464 N465 1.314 . S
C464 C466 1.353 . S
C464 H470 0.930 . S
N465 Li441 1.990 . S
N465 C464 1.314 . S
N465 C468 1.279 . S
C466 C464 1.353 . S
C466 C469 1.348 . S
C466 H514 0.929 . S
C467 C468 1.358 . S
C467 C469 1.356 . S
C467 H515 0.934 . S
C468 N465 1.279 . S
C468 C467 1.358 . S
C468 H471 0.930 1_455 S
C469 C466 1.348 . S
C469 C467 1.356 . S
H470 C464 0.930 . S
H471 C468 0.930 1_655 S
C472 C474 1.348 . S
C472 C475 1.356 1_455 S
C472 O502 1.325 . S
N473 C476 1.314 1_655 S
N473 C477 1.279 . S
C474 C472 1.348 . S
C474 C476 1.353 . S
C474 H516 0.929 . S
C475 C472 1.356 1_655 S
C475 C477 1.358 . S
C475 H517 0.930 . S
C476 N473 1.314 1_455 S
C476 C474 1.353 . S
C476 H518 0.930 . S
C477 N473 1.279 . S
C477 C475 1.358 . S
C477 H519 0.930 . S
C478 C479 1.348 . S
C478 C480 1.356 . S
C478 O503 1.325 . S
C479 C478 1.348 . S
C479 C481 1.353 . S
C479 H520 0.929 . S
C480 C478 1.356 . S
C480 C482 1.358 . S
C480 H521 0.930 . S
C481 C479 1.353 . S
C481 N483 1.314 . S
C481 H522 0.930 . S
C482 C480 1.358 . S
C482 N483 1.279 . S
C482 H523 0.930 . S
N483 C481 1.314 . S
N483 C482 1.279 . S
C484 C486 1.353 . S
C484 N487 1.314 . S
C484 H490 0.930 . S
C485 N487 1.279 . S
C485 C488 1.358 . S
C485 H491 0.930 . S
C486 C484 1.353 . S
C486 C489 1.348 . S
C486 H524 0.929 . S
N487 Li442 1.990 . S
N487 C484 1.314 . S
N487 C485 1.279 . S
C488 C485 1.358 . S
C488 C489 1.356 . S
C488 H525 0.930 . S
C489 C486 1.348 . S
C489 C488 1.356 . S
H490 C484 0.930 . S
H491 C485 0.930 . S
C492 N493 1.314 1_655 S
C492 C494 1.353 . S
C492 H498 0.930 . S
N493 Li443 1.990 . S
N493 C492 1.314 1_455 S
N493 C496 1.279 . S
C494 C492 1.353 . S
C494 C497 1.348 1_655 S
C494 H526 0.929 . S
C495 C496 1.358 . S
C495 C497 1.356 . S
C495 H527 0.930 . S
C496 N493 1.279 . S
C496 C495 1.358 . S
C496 H499 0.930 . S
C497 C494 1.348 1_455 S
C497 C495 1.356 . S
H498 C492 0.930 . S
H499 C496 0.930 . S
O500 Li440 1.956 1_455 S
O500 Li441 1.970 . S
O500 Li442 1.961 . S
O500 C444 1.325 . S
O501 Li440 1.970 . S
O501 Li441 1.956 1_655 S
O501 Li443 1.961 1_655 S
O501 C450 1.325 . S
O502 Li440 1.961 1_455 S
O502 Li442 1.956 . S
O502 Li443 1.970 . S
O502 C472 1.325 . S
O503 Li441 1.961 . S
O503 Li442 1.970 . S
O503 Li443 1.956 . S
O503 C478 1.325 . S
H504 C446 0.929 . S
H505 C447 0.930 . S
H506 C448 0.930 . S
H507 C449 0.930 . S
H508 C451 0.930 . S
H509 C453 0.929 . S
H510 C454 0.930 . S
H511 C455 0.930 . S
H512 C458 0.930 . S
H513 C461 0.929 . S
H514 C466 0.929 . S
H515 C467 0.934 . S
H516 C474 0.929 . S
H517 C475 0.930 . S
H518 C476 0.930 . S
H519 C477 0.930 . S
H520 C479 0.929 . S
H521 C480 0.930 . S
H522 C481 0.930 . S
H523 C482 0.930 . S
H524 C486 0.929 . S
H525 C488 0.930 . S
H526 C494 0.929 . S
H527 C495 0.930 . S
Li528 N545 1.990 . S
Li528 O588 1.956 . S
Li528 O589 1.970 . S
Li528 O590 1.961 . S
Li529 N553 1.990 . S
Li529 O588 1.970 . S
Li529 O589 1.956 . S
Li529 O591 1.961 . S
Li530 N575 1.990 . S
Li530 O588 1.961 . S
Li530 O590 1.956 . S
Li530 O591 1.970 . S
Li531 N581 1.990 . S
Li531 O589 1.961 . S
Li531 O590 1.970 . S
Li531 O591 1.956 . S
C532 C534 1.348 . S
C532 C535 1.356 . S
C532 O588 1.325 . S
N533 C536 1.314 . S
N533 C537 1.279 . S
C534 C532 1.348 . S
C534 C536 1.353 . S
C534 H592 0.929 . S
C535 C532 1.356 . S
C535 C537 1.358 . S
C535 H593 0.930 . S
C536 N533 1.314 . S
C536 C534 1.353 . S
C536 H594 0.930 . S
C537 N533 1.279 . S
C537 C535 1.358 . S
C537 H595 0.930 . S
C538 C541 1.348 . S
C538 C542 1.356 . S
C538 O589 1.325 1_554 S
C539 N540 1.279 . S
C539 C542 1.358 . S
C539 H596 0.930 . S
N540 C539 1.279 . S
N540 C543 1.314 . S
C541 C538 1.348 . S
C541 C543 1.353 . S
C541 H597 0.929 . S
C542 C538 1.356 . S
C542 C539 1.358 . S
C542 H598 0.930 . S
C543 N540 1.314 . S
C543 C541 1.353 . S
C543 H599 0.930 . S
C544 N545 1.314 . S
C544 C549 1.353 . S
C544 H550 0.930 . S
N545 Li528 1.990 . S
N545 C544 1.314 . S
N545 C547 1.279 . S
C546 C547 1.358 . S
C546 C548 1.356 . S
C546 H600 0.930 . S
C547 N545 1.279 . S
C547 C546 1.358 . S
C547 H551 0.930 . S
C548 C546 1.356 . S
C548 C549 1.348 . S
C549 C544 1.353 . S
C549 C548 1.348 . S
C549 H601 0.929 . S
H550 C544 0.930 . S
H551 C547 0.930 . S
C552 N553 1.314 . S
C552 C554 1.353 . S
C552 H558 0.930 . S
N553 Li529 1.990 . S
N553 C552 1.314 . S
N553 C556 1.279 1_556 S
C554 C552 1.353 . S
C554 C557 1.348 . S
C554 H602 0.929 . S
C555 C556 1.358 . S
C555 C557 1.356 1_554 S
C555 H603 0.930 . S
C556 N553 1.279 1_554 S
C556 C555 1.358 . S
C556 H559 0.930 . S
C557 C554 1.348 . S
C557 C555 1.356 1_556 S
H558 C552 0.930 . S
H559 C556 0.930 . S
C560 C562 1.348 . S
C560 C563 1.356 . S
C560 O590 1.325 . S
N561 C564 1.314 . S
N561 C565 1.279 . S
C562 C560 1.348 . S
C562 C564 1.353 . S
C562 H604 0.929 . S
C563 C560 1.356 . S
C563 C565 1.358 . S
C563 H605 0.930 . S
C564 N561 1.314 . S
C564 C562 1.353 . S
C564 H606 0.930 . S
C565 N561 1.279 . S
C565 C563 1.358 . S
C565 H607 0.930 . S
C566 C567 1.348 . S
C566 C568 1.356 . S
C566 O591 1.325 . S
C567 C566 1.348 . S
C567 C569 1.353 . S
C567 H608 0.929 . S
C568 C566 1.356 . S
C568 C570 1.358 . S
C568 H609 0.930 . S
C569 C567 1.353 . S
C569 N571 1.314 . S
C569 H610 0.930 . S
C570 C568 1.358 . S
C570 N571 1.279 . S
C570 H611 0.930 . S
N571 C569 1.314 . S
N571 C570 1.279 . S
C572 C574 1.353 . S
C572 N575 1.314 . S
C572 H578 0.930 . S
C573 N575 1.279 . S
C573 C576 1.358 . S
C573 H579 0.930 . S
C574 C572 1.353 . S
C574 C577 1.348 . S
C574 H612 0.929 . S
N575 Li530 1.990 . S
N575 C572 1.314 . S
N575 C573 1.279 . S
C576 C573 1.358 . S
C576 C577 1.356 . S
C576 H613 0.930 . S
C577 C574 1.348 . S
C577 C576 1.356 . S
H578 C572 0.930 . S
H579 C573 0.930 . S
C580 N581 1.314 1_554 S
C580 C582 1.353 . S
C580 H586 0.930 . S
N581 Li531 1.990 . S
N581 C580 1.314 1_556 S
N581 C584 1.279 . S
C582 C580 1.353 . S
C582 C585 1.348 . S
C582 H614 0.929 . S
C583 C584 1.358 1_554 S
C583 C585 1.356 . S
C583 H615 0.930 1_554 S
C584 N581 1.279 . S
C584 C583 1.358 1_556 S
C584 H587 0.930 . S
C585 C582 1.348 . S
C585 C583 1.356 . S
H586 C580 0.930 . S
H587 C584 0.930 . S
O588 Li528 1.956 . S
O588 Li529 1.970 . S
O588 Li530 1.961 . S
O588 C532 1.325 . S
O589 Li528 1.970 . S
O589 Li529 1.956 . S
O589 Li531 1.961 . S
O589 C538 1.325 1_556 S
O590 Li528 1.961 . S
O590 Li530 1.956 . S
O590 Li531 1.970 . S
O590 C560 1.325 . S
O591 Li529 1.961 . S
O591 Li530 1.970 . S
O591 Li531 1.956 . S
O591 C566 1.325 . S
H592 C534 0.929 . S
H593 C535 0.930 . S
H594 C536 0.930 . S
H595 C537 0.930 . S
H596 C539 0.930 . S
H597 C541 0.929 . S
H598 C542 0.930 . S
H599 C543 0.930 . S
H600 C546 0.930 . S
H601 C549 0.929 . S
H602 C554 0.929 . S
H603 C555 0.930 . S
H604 C562 0.929 . S
H605 C563 0.930 . S
H606 C564 0.930 . S
H607 C565 0.930 . S
H608 C567 0.929 . S
H609 C568 0.930 . S
H610 C569 0.930 . S
H611 C570 0.930 . S
H612 C574 0.929 . S
H613 C576 0.930 . S
H614 C582 0.929 . S
H615 C583 0.930 1_556 S
Li616 N633 1.990 . S
Li616 O676 1.956 1_545 S
Li616 O677 1.970 . S
Li616 O678 1.961 1_545 S
Li617 N641 1.990 . S
Li617 O676 1.970 . S
Li617 O677 1.956 1_565 S
Li617 O679 1.961 . S
Li618 N663 1.990 . S
Li618 O676 1.961 . S
Li618 O678 1.956 . S
Li618 O679 1.970 . S
Li619 N669 1.990 . S
Li619 O677 1.961 1_565 S
Li619 O678 1.970 . S
Li619 O679 1.956 . S
C620 C622 1.348 1_565 S
C620 C623 1.356 . S
C620 O676 1.325 . S
N621 C624 1.314 . S
N621 C625 1.279 1_545 S
C622 C620 1.348 1_545 S
C622 C624 1.353 . S
C622 H680 0.929 . S
C623 C620 1.356 . S
C623 C625 1.358 . S
C623 H681 0.930 . S
C624 N621 1.314 . S
C624 C622 1.353 . S
C624 H682 0.930 . S
C625 N621 1.279 1_565 S
C625 C623 1.358 . S
C625 H683 0.930 . S
C626 C629 1.348 . S
C626 C630 1.356 . S
C626 O677 1.325 . S
C627 N628 1.279 . S
C627 C630 1.358 . S
C627 H684 0.930 . S
N628 C627 1.279 . S
N628 C631 1.314 . S
C629 C626 1.348 . S
C629 C631 1.353 . S
C629 H685 0.929 . S
C630 C626 1.356 . S
C630 C627 1.358 . S
C630 H686 0.930 . S
C631 N628 1.314 . S
C631 C629 1.353 . S
C631 H687 0.930 . S
C632 N633 1.314 1_554 S
C632 C637 1.353 . S
C632 H638 0.930 . S
N633 Li616 1.990 . S
N633 C632 1.314 1_556 S
N633 C635 1.279 . S
C634 C635 1.358 . S
C634 C636 1.356 . S
C634 H688 0.930 . S
C635 N633 1.279 . S
C635 C634 1.358 . S
C635 H639 0.930 . S
C636 C634 1.356 . S
C636 C637 1.348 1_556 S
C637 C632 1.353 . S
C637 C636 1.348 1_554 S
C637 H689 0.929 . S
H638 C632 0.930 . S
H639 C635 0.930 . S
C640 N641 1.314 . S
C640 C642 1.353 . S
C640 H646 0.930 . S
N641 Li617 1.990 . S
N641 C640 1.314 . S
N641 C644 1.279 1_565 S
C642 C640 1.353 . S
C642 C645 1.348 . S
C642 H690 0.929 . S
C643 C644 1.358 . S
C643 C645 1.356 1_545 S
C643 H691 0.930 . S
C644 N641 1.279 1_545 S
C644 C643 1.358 . S
C644 H647 0.930 . S
C645 C642 1.348 . S
C645 C643 1.356 1_565 S
H646 C640 0.930 . S
H647 C644 0.930 . S
C648 C650 1.348 . S
C648 C651 1.356 . S
C648 O678 1.325 1_554 S
N649 C652 1.314 . S
N649 C653 1.279 . S
C650 C648 1.348 . S
C650 C652 1.353 . S
C650 H692 0.929 . S
C651 C648 1.356 . S
C651 C653 1.358 . S
C651 H693 0.930 . S
C652 N649 1.314 . S
C652 C650 1.353 . S
C652 H694 0.930 . S
C653 N649 1.279 . S
C653 C651 1.358 . S
C653 H695 0.930 . S
C654 C655 1.348 . S
C654 C656 1.356 . S
C654 O679 1.325 . S
C655 C654 1.348 . S
C655 C657 1.353 . S
C655 H696 0.929 . S
C656 C654 1.356 . S
C656 C658 1.358 . S
C656 H697 0.930 . S
C657 C655 1.353 . S
C657 N659 1.314 . S
C657 H698 0.930 . S
C658 C656 1.358 . S
C658 N659 1.279 . S
C658 H699 0.930 . S
N659 C657 1.314 . S
N659 C658 1.279 . S
C660 C662 1.353 . S
C660 N663 1.314 . S
C660 H666 0.930 . S
C661 N663 1.279 . S
C661 C664 1.366 . S
C661 H667 0.930 1_556 S
C662 C660 1.353 . S
C662 C665 1.348 . S
C662 H700 0.929 . S
N663 Li618 1.990 . S
N663 C660 1.314 . S
N663 C661 1.279 . S
C664 C661 1.366 . S
C664 C665 1.385 . S
C664 H701 0.894 1_556 S
C665 C662 1.348 . S
C665 C664 1.385 . S
H666 C660 0.930 . S
H667 C661 0.930 1_554 S
C668 N669 1.314 1_554 S
C668 C670 1.353 . S
C668 H674 0.930 1_565 S
N669 Li619 1.990 . S
N669 C668 1.314 1_556 S
N669 C672 1.279 . S
C670 C668 1.353 . S
C670 C673 1.348 . S
C670 H702 0.929 . S
C671 C672 1.358 1_554 S
C671 C673 1.356 . S
C671 H703 0.930 . S
C672 N669 1.279 . S
C672 C671 1.358 1_556 S
C672 H675 0.930 . S
C673 C670 1.348 . S
C673 C671 1.356 . S
H674 C668 0.930 1_545 S
H675 C672 0.930 . S
O676 Li616 1.956 1_565 S
O676 Li617 1.970 . S
O676 Li618 1.961 . S
O676 C620 1.325 . S
O677 Li616 1.970 . S
O677 Li617 1.956 1_545 S
O677 Li619 1.961 1_545 S
O677 C626 1.325 . S
O678 Li616 1.961 1_565 S
O678 Li618 1.956 . S
O678 Li619 1.970 . S
O678 C648 1.325 1_556 S
O679 Li617 1.961 . S
O679 Li618 1.970 . S
O679 Li619 1.956 . S
O679 C654 1.325 . S
H680 C622 0.929 . S
H681 C623 0.930 . S
H682 C624 0.930 . S
H683 C625 0.930 . S
H684 C627 0.930 . S
H685 C629 0.929 . S
H686 C630 0.930 . S
H687 C631 0.930 . S
H688 C634 0.930 . S
H689 C637 0.929 . S
H690 C642 0.929 . S
H691 C643 0.930 . S
H692 C650 0.929 . S
H693 C651 0.930 . S
H694 C652 0.930 . S
H695 C653 0.930 . S
H696 C655 0.929 . S
H697 C656 0.930 . S
H698 C657 0.930 . S
H699 C658 0.930 . S
H700 C662 0.929 . S
H701 C664 0.894 1_554 S
H702 C670 0.929 . S
H703 C671 0.930 . S
Li704 N721 1.990 . S
Li704 O764 1.956 . S
Li704 O765 1.970 1_455 S
Li704 O766 1.961 . S
Li705 N729 1.990 . S
Li705 O764 1.970 . S
Li705 O765 1.956 1_455 S
Li705 O767 1.961 . S
Li706 N751 1.990 . S
Li706 O764 1.961 . S
Li706 O766 1.956 . S
Li706 O767 1.970 . S
Li707 N757 1.990 . S
Li707 O765 1.961 . S
Li707 O766 1.970 1_655 S
Li707 O767 1.956 1_655 S
C708 C710 1.348 . S
C708 C711 1.356 . S
C708 O764 1.325 . S
N709 C712 1.314 . S
N709 C713 1.279 . S
C710 C708 1.348 . S
C710 C712 1.353 . S
C710 H768 0.929 . S
C711 C708 1.356 . S
C711 C713 1.358 . S
C711 H769 0.930 . S
C712 N709 1.314 . S
C712 C710 1.353 . S
C712 H770 0.930 . S
C713 N709 1.279 . S
C713 C711 1.358 . S
C713 H771 0.930 . S
C714 C717 1.348 . S
C714 C718 1.356 . S
C714 O765 1.325 . S
C715 N716 1.279 . S
C715 C718 1.358 . S
C715 H772 0.930 . S
N716 C715 1.279 . S
N716 C719 1.314 . S
C717 C714 1.348 . S
C717 C719 1.353 . S
C717 H773 0.929 . S
C718 C714 1.356 . S
C718 C715 1.358 . S
C718 H774 0.930 . S
C719 N716 1.314 . S
C719 C717 1.353 . S
C719 H775 0.930 . S
C720 N721 1.314 1_655 S
C720 C725 1.353 . S
C720 H726 0.930 . S
N721 Li704 1.990 . S
N721 C720 1.314 1_455 S
N721 C723 1.279 . S
C722 C723 1.358 . S
C722 C724 1.356 . S
C722 H776 0.930 . S
C723 N721 1.279 . S
C723 C722 1.358 . S
C723 H727 0.930 . S
C724 C722 1.356 . S
C724 C725 1.348 1_455 S
C725 C720 1.353 . S
C725 C724 1.348 1_655 S
C725 H777 0.929 . S
H726 C720 0.930 . S
H727 C723 0.930 . S
C728 N729 1.314 1_554 S
C728 C730 1.353 . S
C728 H734 0.930 . S
N729 Li705 1.990 . S
N729 C728 1.314 1_556 S
N729 C732 1.279 . S
C730 C728 1.353 . S
C730 C733 1.348 . S
C730 H778 0.929 . S
C731 C732 1.358 1_554 S
C731 C733 1.356 . S
C731 H779 0.930 1_554 S
C732 N729 1.279 . S
C732 C731 1.358 1_556 S
C732 H735 0.966 . S
C733 C730 1.348 . S
C733 C731 1.356 . S
H734 C728 0.930 . S
H735 C732 0.966 . S
C736 C738 1.348 1_455 S
C736 C739 1.356 . S
C736 O766 1.325 . S
N737 C740 1.331 . S
N737 C741 1.274 1_655 S
C738 C736 1.348 1_655 S
C738 C740 1.353 . S
C738 H780 0.929 . S
C739 C736 1.356 . S
C739 C741 1.358 . S
C739 H781 0.930 . S
C740 N737 1.331 . S
C740 C738 1.353 . S
C740 H782 0.930 . S
C741 N737 1.274 1_455 S
C741 C739 1.358 . S
C741 H783 0.930 . S
C742 C743 1.348 . S
C742 C744 1.356 . S
C742 O767 1.325 1_554 S
C743 C742 1.348 . S
C743 C745 1.353 . S
C743 H784 0.929 . S
C744 C742 1.356 . S
C744 C746 1.358 . S
C744 H785 0.930 1_455 S
C745 C743 1.353 . S
C745 N747 1.314 . S
C745 H786 0.930 . S
C746 C744 1.358 . S
C746 N747 1.279 . S
C746 H787 0.886 1_455 S
N747 C745 1.314 . S
N747 C746 1.279 . S
C748 C750 1.353 . S
C748 N751 1.314 . S
C748 H754 0.930 . S
C749 N751 1.279 . S
C749 C752 1.358 . S
C749 H755 0.930 . S
C750 C748 1.353 . S
C750 C753 1.348 . S
C750 H788 0.929 . S
N751 Li706 1.990 . S
N751 C748 1.314 . S
N751 C749 1.279 . S
C752 C749 1.358 . S
C752 C753 1.356 . S
C752 H789 0.930 . S
C753 C750 1.348 . S
C753 C752 1.356 . S
H754 C748 0.930 . S
H755 C749 0.930 . S
C756 N757 1.314 . S
C756 C758 1.353 . S
C756 H762 0.930 . S
N757 Li707 1.990 . S
N757 C756 1.314 . S
N757 C760 1.279 1_556 S
C758 C756 1.353 . S
C758 C761 1.348 . S
C758 H790 0.929 . S
C759 C760 1.358 . S
C759 C761 1.356 1_554 S
C759 H791 0.930 . S
C760 N757 1.279 1_554 S
C760 C759 1.358 . S
C760 H763 0.930 . S
C761 C758 1.348 . S
C761 C759 1.356 1_556 S
H762 C756 0.930 . S
H763 C760 0.930 . S
O764 Li704 1.956 . S
O764 Li705 1.970 . S
O764 Li706 1.961 . S
O764 C708 1.325 . S
O765 Li704 1.970 1_655 S
O765 Li705 1.956 1_655 S
O765 Li707 1.961 . S
O765 C714 1.325 . S
O766 Li704 1.961 . S
O766 Li706 1.956 . S
O766 Li707 1.970 1_455 S
O766 C736 1.325 . S
O767 Li705 1.961 . S
O767 Li706 1.970 . S
O767 Li707 1.956 1_455 S
O767 C742 1.325 1_556 S
H768 C710 0.929 . S
H769 C711 0.930 . S
H770 C712 0.930 . S
H771 C713 0.930 . S
H772 C715 0.930 . S
H773 C717 0.929 . S
H774 C718 0.930 . S
H775 C719 0.930 . S
H776 C722 0.930 . S
H777 C725 0.929 . S
H778 C730 0.929 . S
H779 C731 0.930 1_556 S
H780 C738 0.929 . S
H781 C739 0.930 . S
H782 C740 0.930 . S
H783 C741 0.930 . S
H784 C743 0.929 . S
H785 C744 0.930 1_655 S
H786 C745 0.930 . S
H787 C746 0.886 1_655 S
H788 C750 0.929 . S
H789 C752 0.930 . S
H790 C758 0.929 . S
H791 C759 0.930 . S
Li792 N809 1.990 . S
Li792 O852 1.956 . S
Li792 O853 1.970 . S
Li792 O854 1.961 . S
Li793 N817 1.990 . S
Li793 O852 1.970 . S
Li793 O853 1.956 . S
Li793 O855 1.961 . S
Li794 N839 1.990 . S
Li794 O852 1.961 . S
Li794 O854 1.956 . S
Li794 O855 1.970 . S
Li795 N845 1.990 . S
Li795 O853 1.961 . S
Li795 O854 1.970 . S
Li795 O855 1.956 . S
C796 C798 1.348 . S
C796 C799 1.356 . S
C796 O852 1.325 . S
N797 C800 1.314 . S
N797 C801 1.279 . S
C798 C796 1.348 . S
C798 C800 1.353 . S
C798 H856 0.929 . S
C799 C796 1.356 . S
C799 C801 1.358 . S
C799 H857 0.930 . S
C800 N797 1.314 . S
C800 C798 1.353 . S
C800 H858 0.930 . S
C801 N797 1.279 . S
C801 C799 1.358 . S
C801 H859 0.930 . S
C802 C805 1.348 . S
C802 C806 1.356 . S
C802 O853 1.325 . S
C803 N804 1.279 . S
C803 C806 1.358 . S
C803 H860 0.930 . S
N804 C803 1.279 . S
N804 C807 1.314 . S
C805 C802 1.348 . S
C805 C807 1.353 . S
C805 H861 0.929 . S
C806 C802 1.356 . S
C806 C803 1.358 . S
C806 H862 0.930 . S
C807 N804 1.314 . S
C807 C805 1.353 . S
C807 H863 0.930 . S
C808 N809 1.314 . S
C808 C813 1.353 . S
C808 H814 0.930 . S
N809 Li792 1.990 . S
N809 C808 1.314 . S
N809 C811 1.279 . S
C810 C811 1.358 . S
C810 C812 1.356 . S
C810 H864 0.930 . S
C811 N809 1.279 . S
C811 C810 1.358 . S
C811 H815 0.930 . S
C812 C810 1.356 . S
C812 C813 1.348 . S
C813 C808 1.353 . S
C813 C812 1.348 . S
C813 H865 0.929 . S
H814 C808 0.930 . S
H815 C811 0.930 . S
C816 N817 1.314 . S
C816 C818 1.353 . S
C816 H822 0.930 . S
N817 Li793 1.990 . S
N817 C816 1.314 . S
N817 C820 1.279 . S
C818 C816 1.353 . S
C818 C821 1.348 . S
C818 H866 0.929 . S
C819 C820 1.358 . S
C819 C821 1.356 . S
C819 H867 0.930 . S
C820 N817 1.279 . S
C820 C819 1.358 . S
C820 H823 0.930 . S
C821 C818 1.348 . S
C821 C819 1.356 . S
H822 C816 0.930 . S
H823 C820 0.930 . S
C824 C826 1.348 . S
C824 C827 1.356 . S
C824 O854 1.325 . S
N825 C828 1.314 . S
N825 C829 1.279 . S
C826 C824 1.348 . S
C826 C828 1.353 . S
C826 H868 0.929 . S
C827 C824 1.356 . S
C827 C829 1.358 . S
C827 H869 0.930 . S
C828 N825 1.314 . S
C828 C826 1.353 . S
C828 H870 0.930 . S
C829 N825 1.279 . S
C829 C827 1.358 . S
C829 H871 0.930 . S
C830 C831 1.348 . S
C830 C832 1.356 . S
C830 O855 1.325 . S
C831 C830 1.348 . S
C831 C833 1.353 . S
C831 H872 0.929 . S
C832 C830 1.356 . S
C832 C834 1.358 . S
C832 H873 0.930 . S
C833 C831 1.353 . S
C833 N835 1.314 . S
C833 H874 0.930 . S
C834 C832 1.358 . S
C834 N835 1.279 . S
C834 H875 0.930 . S
N835 C833 1.314 . S
N835 C834 1.279 . S
C836 C838 1.353 . S
C836 N839 1.314 . S
C836 H842 0.930 . S
C837 N839 1.279 . S
C837 C840 1.358 . S
C837 H843 0.930 . S
C838 C836 1.353 . S
C838 C841 1.348 . S
C838 H876 0.929 . S
N839 Li794 1.990 . S
N839 C836 1.314 . S
N839 C837 1.279 . S
C840 C837 1.358 . S
C840 C841 1.356 . S
C840 H877 0.930 . S
C841 C838 1.348 . S
C841 C840 1.356 . S
H842 C836 0.930 . S
H843 C837 0.930 . S
C844 N845 1.314 . S
C844 C846 1.353 . S
C844 H850 0.930 . S
N845 Li795 1.990 . S
N845 C844 1.314 . S
N845 C848 1.279 . S
C846 C844 1.353 . S
C846 C849 1.348 . S
C846 H878 0.929 . S
C847 C848 1.358 . S
C847 C849 1.356 . S
C847 H879 0.930 . S
C848 N845 1.279 . S
C848 C847 1.358 . S
C848 H851 0.930 . S
C849 C846 1.348 . S
C849 C847 1.356 . S
H850 C844 0.930 . S
H851 C848 0.930 . S
O852 Li792 1.956 . S
O852 Li793 1.970 . S
O852 Li794 1.961 . S
O852 C796 1.325 . S
O853 Li792 1.970 . S
O853 Li793 1.956 . S
O853 Li795 1.961 . S
O853 C802 1.325 . S
O854 Li792 1.961 . S
O854 Li794 1.956 . S
O854 Li795 1.970 . S
O854 C824 1.325 . S
O855 Li793 1.961 . S
O855 Li794 1.970 . S
O855 Li795 1.956 . S
O855 C830 1.325 . S
H856 C798 0.929 . S
H857 C799 0.930 . S
H858 C800 0.930 . S
H859 C801 0.930 . S
H860 C803 0.930 . S
H861 C805 0.929 . S
H862 C806 0.930 . S
H863 C807 0.930 . S
H864 C810 0.930 . S
H865 C813 0.929 . S
H866 C818 0.929 . S
H867 C819 0.930 . S
H868 C826 0.929 . S
H869 C827 0.930 . S
H870 C828 0.930 . S
H871 C829 0.930 . S
H872 C831 0.929 . S
H873 C832 0.930 . S
H874 C833 0.930 . S
H875 C834 0.930 . S
H876 C838 0.929 . S
H877 C840 0.930 . S
H878 C846 0.929 . S
H879 C847 0.930 . S
Li880 N897 1.990 . S
Li880 O940 1.956 . S
Li880 O941 1.970 . S
Li880 O942 1.961 . S
Li881 N905 1.990 . S
Li881 O940 1.970 . S
Li881 O941 1.956 . S
Li881 O943 1.961 1_545 S
Li882 N927 1.990 . S
Li882 O940 1.961 1_565 S
Li882 O942 1.956 1_565 S
Li882 O943 1.970 . S
Li883 N933 1.990 . S
Li883 O941 1.961 . S
Li883 O942 1.970 . S
Li883 O943 1.956 1_545 S
C884 C886 1.348 . S
C884 C887 1.356 . S
C884 O940 1.325 . S
N885 C888 1.314 . S
N885 C889 1.279 . S
C886 C884 1.348 . S
C886 C888 1.353 . S
C886 H944 0.929 . S
C887 C884 1.356 . S
C887 C889 1.358 . S
C887 H945 0.930 . S
C888 N885 1.314 . S
C888 C886 1.353 . S
C888 H946 0.930 . S
C889 N885 1.279 . S
C889 C887 1.358 . S
C889 H947 0.930 . S
C890 C893 1.348 . S
C890 C894 1.356 . S
C890 O941 1.325 . S
C891 N892 1.279 . S
C891 C894 1.358 . S
C891 H948 0.930 . S
N892 C891 1.279 . S
N892 C895 1.314 . S
C893 C890 1.348 . S
C893 C895 1.353 . S
C893 H949 0.929 . S
C894 C890 1.356 . S
C894 C891 1.358 . S
C894 H950 0.930 . S
C895 N892 1.314 . S
C895 C893 1.353 . S
C895 H951 0.930 . S
C896 N897 1.314 . S
C896 C901 1.353 . S
C896 H902 0.930 . S
N897 Li880 1.990 . S
N897 C896 1.314 . S
N897 C899 1.279 . S
C898 C899 1.358 . S
C898 C900 1.356 . S
C898 H952 0.930 . S
C899 N897 1.279 . S
C899 C898 1.358 . S
C899 H903 0.930 . S
C900 C898 1.356 . S
C900 C901 1.348 . S
C901 C896 1.353 . S
C901 C900 1.348 . S
C901 H953 0.929 . S
H902 C896 0.930 . S
H903 C899 0.930 . S
C904 N905 1.314 . S
C904 C906 1.353 . S
C904 H910 0.930 1_545 S
N905 Li881 1.990 . S
N905 C904 1.314 . S
N905 C908 1.279 . S
C906 C904 1.353 . S
C906 C909 1.348 . S
C906 H954 0.896 1_545 S
C907 C908 1.358 . S
C907 C909 1.356 . S
C907 H955 0.930 . S
C908 N905 1.279 . S
C908 C907 1.358 . S
C908 H911 0.930 . S
C909 C906 1.348 . S
C909 C907 1.356 . S
H910 C904 0.930 1_565 S
H911 C908 0.930 . S
C912 C914 1.348 1_545 S
C912 C915 1.356 . S
C912 O942 1.325 . S
N913 C916 1.314 . S
N913 C917 1.279 1_565 S
C914 C912 1.348 1_565 S
C914 C916 1.353 . S
C914 H956 0.929 . S
C915 C912 1.356 . S
C915 C917 1.358 . S
C915 H957 0.930 . S
C916 N913 1.314 . S
C916 C914 1.353 . S
C916 H958 0.930 . S
C917 N913 1.279 1_545 S
C917 C915 1.358 . S
C917 H959 0.930 . S
C918 C919 1.348 . S
C918 C920 1.356 . S
C918 O943 1.325 . S
C919 C918 1.348 . S
C919 C921 1.353 . S
C919 H960 0.929 . S
C920 C918 1.356 . S
C920 C922 1.358 . S
C920 H961 0.930 . S
C921 C919 1.353 . S
C921 N923 1.314 . S
C921 H962 0.930 . S
C922 C920 1.358 . S
C922 N923 1.279 . S
C922 H963 0.930 . S
N923 C921 1.314 . S
N923 C922 1.279 . S
C924 C926 1.353 . S
C924 N927 1.314 . S
C924 H930 0.930 . S
C925 N927 1.279 . S
C925 C928 1.358 . S
C925 H931 0.930 . S
C926 C924 1.353 . S
C926 C929 1.348 . S
C926 H964 0.929 . S
N927 Li882 1.990 . S
N927 C924 1.314 . S
N927 C925 1.279 . S
C928 C925 1.358 . S
C928 C929 1.356 . S
C928 H965 0.930 . S
C929 C926 1.348 . S
C929 C928 1.356 . S
H930 C924 0.930 . S
H931 C925 0.930 . S
C932 N933 1.314 . S
C932 C934 1.353 . S
C932 H938 0.930 . S
N933 Li883 1.990 . S
N933 C932 1.314 . S
N933 C936 1.279 1_545 S
C934 C932 1.353 . S
C934 C937 1.348 . S
C934 H966 0.929 . S
C935 C936 1.358 . S
C935 C937 1.356 1_565 S
C935 H967 0.930 . S
C936 N933 1.279 1_565 S
C936 C935 1.358 . S
C936 H939 0.930 . S
C937 C934 1.348 . S
C937 C935 1.356 1_545 S
H938 C932 0.930 . S
H939 C936 0.930 . S
O940 Li880 1.956 . S
O940 Li881 1.970 . S
O940 Li882 1.961 1_545 S
O940 C884 1.325 . S
O941 Li880 1.970 . S
O941 Li881 1.956 . S
O941 Li883 1.961 . S
O941 C890 1.325 . S
O942 Li880 1.961 . S
O942 Li882 1.956 1_545 S
O942 Li883 1.970 . S
O942 C912 1.325 . S
O943 Li881 1.961 1_565 S
O943 Li882 1.970 . S
O943 Li883 1.956 1_565 S
O943 C918 1.325 . S
H944 C886 0.929 . S
H945 C887 0.930 . S
H946 C888 0.930 . S
H947 C889 0.930 . S
H948 C891 0.930 . S
H949 C893 0.929 . S
H950 C894 0.930 . S
H951 C895 0.930 . S
H952 C898 0.930 . S
H953 C901 0.929 . S
H954 C906 0.896 1_565 S
H955 C907 0.930 . S
H956 C914 0.929 . S
H957 C915 0.930 . S
H958 C916 0.930 . S
H959 C917 0.930 . S
H960 C919 0.929 . S
H961 C920 0.930 . S
H962 C921 0.930 . S
H963 C922 0.930 . S
H964 C926 0.929 . S
H965 C928 0.930 . S
H966 C934 0.929 . S
H967 C935 0.930 . S
Li968 N985 1.990 . S
Li968 O1028 1.956 1_655 S
Li968 O1029 1.970 . S
Li968 O1030 1.961 . S
Li969 N993 1.990 . S
Li969 O1028 1.970 1_655 S
Li969 O1029 1.956 . S
Li969 O1031 1.961 . S
Li970 N1015 1.990 . S
Li970 O1028 1.961 . S
Li970 O1030 1.956 1_455 S
Li970 O1031 1.970 1_455 S
Li971 N1021 1.990 . S
Li971 O1029 1.961 . S
Li971 O1030 1.970 . S
Li971 O1031 1.956 . S
C972 C974 1.348 . S
C972 C975 1.356 . S
C972 O1028 1.325 . S
N973 C976 1.314 . S
N973 C977 1.279 . S
C974 C972 1.348 . S
C974 C976 1.353 . S
C974 H1032 0.929 . S
C975 C972 1.356 . S
C975 C977 1.358 . S
C975 H1033 0.930 . S
C976 N973 1.314 . S
C976 C974 1.353 . S
C976 H1034 0.930 . S
C977 N973 1.279 . S
C977 C975 1.358 . S
C977 H1035 0.930 . S
C978 C981 1.348 . S
C978 C982 1.356 . S
C978 O1029 1.325 . S
C979 N980 1.279 . S
C979 C982 1.358 . S
C979 H1036 0.930 . S
N980 C979 1.279 . S
N980 C983 1.314 . S
C981 C978 1.348 . S
C981 C983 1.353 . S
C981 H1037 0.929 . S
C982 C978 1.356 . S
C982 C979 1.358 . S
C982 H1038 0.930 . S
C983 N980 1.314 . S
C983 C981 1.353 . S
C983 H1039 0.930 . S
C984 N985 1.314 . S
C984 C989 1.353 . S
C984 H990 0.930 . S
N985 Li968 1.990 . S
N985 C984 1.314 . S
N985 C987 1.279 . S
C986 C987 1.358 . S
C986 C988 1.356 . S
C986 H1040 0.930 . S
C987 N985 1.279 . S
C987 C986 1.358 . S
C987 H991 0.930 . S
C988 C986 1.356 . S
C988 C989 1.348 . S
C989 C984 1.353 . S
C989 C988 1.348 . S
C989 H1041 0.929 . S
H990 C984 0.930 . S
H991 C987 0.930 . S
C992 N993 1.274 1_455 S
C992 C994 1.356 . S
C992 H998 0.974 . S
N993 Li969 1.990 . S
N993 C992 1.274 1_655 S
N993 C996 1.279 . S
C994 C992 1.356 . S
C994 C997 1.348 1_455 S
C994 H1042 0.929 . S
C995 C996 1.358 . S
C995 C997 1.356 . S
C995 H1043 0.930 . S
C996 N993 1.279 . S
C996 C995 1.358 . S
C996 H999 0.930 . S
C997 C994 1.348 1_655 S
C997 C995 1.356 . S
H998 C992 0.974 . S
H999 C996 0.930 . S
C1000 C1002 1.348 . S
C1000 C1003 1.356 . S
C1000 O1030 1.325 . S
N1001 C1004 1.314 . S
N1001 C1005 1.279 . S
C1002 C1000 1.348 . S
C1002 C1004 1.353 . S
C1002 H1044 0.929 . S
C1003 C1000 1.356 . S
C1003 C1005 1.358 . S
C1003 H1045 0.926 1_655 S
C1004 N1001 1.314 . S
C1004 C1002 1.353 . S
C1004 H1046 0.930 . S
C1005 N1001 1.279 . S
C1005 C1003 1.358 . S
C1005 H1047 0.941 . S
C1006 C1007 1.348 1_655 S
C1006 C1008 1.356 . S
C1006 O1031 1.325 . S
C1007 C1006 1.348 1_455 S
C1007 C1009 1.353 . S
C1007 H1048 0.929 . S
C1008 C1006 1.356 . S
C1008 C1010 1.358 . S
C1008 H1049 0.930 . S
C1009 C1007 1.353 . S
C1009 N1011 1.292 1_455 S
C1009 H1050 0.930 . S
C1010 C1008 1.358 . S
C1010 N1011 1.357 . S
C1010 H1051 0.930 . S
N1011 C1009 1.292 1_655 S
N1011 C1010 1.357 . S
C1012 C1014 1.353 . S
C1012 N1015 1.314 . S
C1012 H1018 0.930 . S
C1013 N1015 1.279 . S
C1013 C1016 1.358 . S
C1013 H1019 0.930 . S
C1014 C1012 1.353 . S
C1014 C1017 1.348 . S
C1014 H1052 0.929 . S
N1015 Li970 1.990 . S
N1015 C1012 1.314 . S
N1015 C1013 1.279 . S
C1016 C1013 1.358 . S
C1016 C1017 1.356 . S
C1016 H1053 0.930 . S
C1017 C1014 1.348 . S
C1017 C1016 1.356 . S
H1018 C1012 0.930 . S
H1019 C1013 0.930 . S
C1020 N1021 1.314 . S
C1020 C1022 1.353 . S
C1020 H1026 0.930 . S
N1021 Li971 1.990 . S
N1021 C1020 1.314 . S
N1021 C1024 1.279 . S
C1022 C1020 1.353 . S
C1022 C1025 1.348 . S
C1022 H1054 0.929 . S
C1023 C1024 1.358 . S
C1023 C1025 1.356 . S
C1023 H1055 0.930 . S
C1024 N1021 1.279 . S
C1024 C1023 1.358 . S
C1024 H1027 0.930 . S
C1025 C1022 1.348 . S
C1025 C1023 1.356 . S
H1026 C1020 0.930 . S
H1027 C1024 0.930 . S
O1028 Li968 1.956 1_455 S
O1028 Li969 1.970 1_455 S
O1028 Li970 1.961 . S
O1028 C972 1.325 . S
O1029 Li968 1.970 . S
O1029 Li969 1.956 . S
O1029 Li971 1.961 . S
O1029 C978 1.325 . S
O1030 Li968 1.961 . S
O1030 Li970 1.956 1_655 S
O1030 Li971 1.970 . S
O1030 C1000 1.325 . S
O1031 Li969 1.961 . S
O1031 Li970 1.970 1_655 S
O1031 Li971 1.956 . S
O1031 C1006 1.325 . S
H1032 C974 0.929 . S
H1033 C975 0.930 . S
H1034 C976 0.930 . S
H1035 C977 0.930 . S
H1036 C979 0.930 . S
H1037 C981 0.929 . S
H1038 C982 0.930 . S
H1039 C983 0.930 . S
H1040 C986 0.930 . S
H1041 C989 0.929 . S
H1042 C994 0.929 . S
H1043 C995 0.930 . S
H1044 C1002 0.929 . S
H1045 C1003 0.926 1_455 S
H1046 C1004 0.930 . S
H1047 C1005 0.941 . S
H1048 C1007 0.929 . S
H1049 C1008 0.930 . S
H1050 C1009 0.930 . S
H1051 C1010 0.930 . S
H1052 C1014 0.929 . S
H1053 C1016 0.930 . S
H1054 C1022 0.929 . S
H1055 C1023 0.930 . S
Li1056 N1073 1.990 . S
Li1056 O1116 1.956 . S
Li1056 O1117 1.970 . S
Li1056 O1118 1.961 . S
Li1057 N1081 1.990 . S
Li1057 O1116 1.970 . S
Li1057 O1117 1.956 . S
Li1057 O1119 1.961 . S
Li1058 N1103 1.990 . S
Li1058 O1116 1.961 . S
Li1058 O1118 1.956 . S
Li1058 O1119 1.970 . S
Li1059 N1109 1.990 . S
Li1059 O1117 1.961 . S
Li1059 O1118 1.970 . S
Li1059 O1119 1.956 . S
C1060 C1062 1.348 . S
C1060 C1063 1.356 . S
C1060 O1116 1.325 . S
N1061 C1064 1.314 . S
N1061 C1065 1.279 . S
C1062 C1060 1.348 . S
C1062 C1064 1.353 . S
C1062 H1120 0.929 . S
C1063 C1060 1.356 . S
C1063 C1065 1.358 . S
C1063 H1121 0.930 . S
C1064 N1061 1.314 . S
C1064 C1062 1.353 . S
C1064 H1122 0.930 . S
C1065 N1061 1.279 . S
C1065 C1063 1.358 . S
C1065 H1123 0.930 . S
C1066 C1069 1.348 . S
C1066 C1070 1.356 . S
C1066 O1117 1.325 . S
C1067 N1068 1.279 . S
C1067 C1070 1.358 . S
C1067 H1124 0.930 . S
N1068 C1067 1.279 . S
N1068 C1071 1.314 . S
C1069 C1066 1.348 . S
C1069 C1071 1.353 . S
C1069 H1125 0.929 . S
C1070 C1066 1.356 . S
C1070 C1067 1.358 . S
C1070 H1126 0.930 . S
C1071 N1068 1.314 . S
C1071 C1069 1.353 . S
C1071 H1127 0.930 . S
C1072 N1073 1.314 . S
C1072 C1077 1.353 . S
C1072 H1078 0.930 . S
N1073 Li1056 1.990 . S
N1073 C1072 1.314 . S
N1073 C1075 1.279 . S
C1074 C1075 1.358 . S
C1074 C1076 1.356 . S
C1074 H1128 0.930 . S
C1075 N1073 1.279 . S
C1075 C1074 1.358 . S
C1075 H1079 0.930 . S
C1076 C1074 1.356 . S
C1076 C1077 1.348 . S
C1077 C1072 1.353 . S
C1077 C1076 1.348 . S
C1077 H1129 0.929 . S
H1078 C1072 0.930 . S
H1079 C1075 0.930 . S
C1080 N1081 1.314 . S
C1080 C1082 1.353 . S
C1080 H1086 0.930 . S
N1081 Li1057 1.990 . S
N1081 C1080 1.314 . S
N1081 C1084 1.279 . S
C1082 C1080 1.353 . S
C1082 C1085 1.348 . S
C1082 H1130 0.929 . S
C1083 C1084 1.358 . S
C1083 C1085 1.356 . S
C1083 H1131 0.930 . S
C1084 N1081 1.279 . S
C1084 C1083 1.358 . S
C1084 H1087 0.930 . S
C1085 C1082 1.348 . S
C1085 C1083 1.356 . S
H1086 C1080 0.930 . S
H1087 C1084 0.930 . S
C1088 C1090 1.348 . S
C1088 C1091 1.356 . S
C1088 O1118 1.325 . S
N1089 C1092 1.314 . S
N1089 C1093 1.279 . S
C1090 C1088 1.348 . S
C1090 C1092 1.353 . S
C1090 H1132 0.929 . S
C1091 C1088 1.356 . S
C1091 C1093 1.358 . S
C1091 H1133 0.930 . S
C1092 N1089 1.314 . S
C1092 C1090 1.353 . S
C1092 H1134 0.930 . S
C1093 N1089 1.279 . S
C1093 C1091 1.358 . S
C1093 H1135 0.930 . S
C1094 C1095 1.348 . S
C1094 C1096 1.356 . S
C1094 O1119 1.325 . S
C1095 C1094 1.348 . S
C1095 C1097 1.353 . S
C1095 H1136 0.929 . S
C1096 C1094 1.356 . S
C1096 C1098 1.358 . S
C1096 H1137 0.930 . S
C1097 C1095 1.353 . S
C1097 N1099 1.314 . S
C1097 H1138 0.930 . S
C1098 C1096 1.358 . S
C1098 N1099 1.279 . S
C1098 H1139 0.930 . S
N1099 C1097 1.314 . S
N1099 C1098 1.279 . S
C1100 C1102 1.353 . S
C1100 N1103 1.314 . S
C1100 H1106 0.930 . S
C1101 N1103 1.279 . S
C1101 C1104 1.358 . S
C1101 H1107 0.930 . S
C1102 C1100 1.353 . S
C1102 C1105 1.348 . S
C1102 H1140 0.929 . S
N1103 Li1058 1.990 . S
N1103 C1100 1.314 . S
N1103 C1101 1.279 . S
C1104 C1101 1.358 . S
C1104 C1105 1.356 . S
C1104 H1141 0.930 . S
C1105 C1102 1.348 . S
C1105 C1104 1.356 . S
H1106 C1100 0.930 . S
H1107 C1101 0.930 . S
C1108 N1109 1.314 . S
C1108 C1110 1.353 . S
C1108 H1114 0.930 . S
N1109 Li1059 1.990 . S
N1109 C1108 1.314 . S
N1109 C1112 1.279 . S
C1110 C1108 1.353 . S
C1110 C1113 1.348 . S
C1110 H1142 0.929 . S
C1111 C1112 1.358 . S
C1111 C1113 1.356 . S
C1111 H1143 0.930 . S
C1112 N1109 1.279 . S
C1112 C1111 1.358 . S
C1112 H1115 0.930 . S
C1113 C1110 1.348 . S
C1113 C1111 1.356 . S
H1114 C1108 0.930 . S
H1115 C1112 0.930 . S
O1116 Li1056 1.956 . S
O1116 Li1057 1.970 . S
O1116 Li1058 1.961 . S
O1116 C1060 1.325 . S
O1117 Li1056 1.970 . S
O1117 Li1057 1.956 . S
O1117 Li1059 1.961 . S
O1117 C1066 1.325 . S
O1118 Li1056 1.961 . S
O1118 Li1058 1.956 . S
O1118 Li1059 1.970 . S
O1118 C1088 1.325 . S
O1119 Li1057 1.961 . S
O1119 Li1058 1.970 . S
O1119 Li1059 1.956 . S
O1119 C1094 1.325 . S
H1120 C1062 0.929 . S
H1121 C1063 0.930 . S
H1122 C1064 0.930 . S
H1123 C1065 0.930 . S
H1124 C1067 0.930 . S
H1125 C1069 0.929 . S
H1126 C1070 0.930 . S
H1127 C1071 0.930 . S
H1128 C1074 0.930 . S
H1129 C1077 0.929 . S
H1130 C1082 0.929 . S
H1131 C1083 0.930 . S
H1132 C1090 0.929 . S
H1133 C1091 0.930 . S
H1134 C1092 0.930 . S
H1135 C1093 0.930 . S
H1136 C1095 0.929 . S
H1137 C1096 0.930 . S
H1138 C1097 0.930 . S
H1139 C1098 0.930 . S
H1140 C1102 0.929 . S
H1141 C1104 0.930 . S
H1142 C1110 0.929 . S
H1143 C1111 0.930 . S
Li1144 N1161 1.990 . S
Li1144 O1204 1.956 . S
Li1144 O1205 1.970 . S
Li1144 O1206 1.961 . S
Li1145 N1169 1.990 . S
Li1145 O1204 1.970 . S
Li1145 O1205 1.956 . S
Li1145 O1207 1.961 . S
Li1146 N1191 1.990 . S
Li1146 O1204 1.961 . S
Li1146 O1206 1.956 . S
Li1146 O1207 1.970 . S
Li1147 N1197 1.990 . S
Li1147 O1205 1.961 . S
Li1147 O1206 1.970 . S
Li1147 O1207 1.956 . S
C1148 C1150 1.348 . S
C1148 C1151 1.356 . S
C1148 O1204 1.325 . S
N1149 C1152 1.314 . S
N1149 C1153 1.279 . S
C1150 C1148 1.348 . S
C1150 C1152 1.353 . S
C1150 H1208 0.929 . S
C1151 C1148 1.356 . S
C1151 C1153 1.358 . S
C1151 H1209 0.930 . S
C1152 N1149 1.314 . S
C1152 C1150 1.353 . S
C1152 H1210 0.930 . S
C1153 N1149 1.279 . S
C1153 C1151 1.358 . S
C1153 H1211 0.930 . S
C1154 C1157 1.348 . S
C1154 C1158 1.356 . S
C1154 O1205 1.325 . S
C1155 N1156 1.279 . S
C1155 C1158 1.358 . S
C1155 H1212 0.930 . S
N1156 C1155 1.279 . S
N1156 C1159 1.314 . S
C1157 C1154 1.348 . S
C1157 C1159 1.353 . S
C1157 H1213 0.929 . S
C1158 C1154 1.356 . S
C1158 C1155 1.358 . S
C1158 H1214 0.930 . S
C1159 N1156 1.314 . S
C1159 C1157 1.353 . S
C1159 H1215 0.930 . S
C1160 N1161 1.314 . S
C1160 C1165 1.353 . S
C1160 H1166 0.930 . S
N1161 Li1144 1.990 . S
N1161 C1160 1.314 . S
N1161 C1163 1.279 . S
C1162 C1163 1.358 . S
C1162 C1164 1.356 . S
C1162 H1216 0.930 . S
C1163 N1161 1.279 . S
C1163 C1162 1.358 . S
C1163 H1167 0.930 . S
C1164 C1162 1.356 . S
C1164 C1165 1.348 . S
C1165 C1160 1.353 . S
C1165 C1164 1.348 . S
C1165 H1217 0.929 . S
H1166 C1160 0.930 . S
H1167 C1163 0.930 . S
C1168 N1169 1.314 . S
C1168 C1170 1.353 . S
C1168 H1174 0.930 . S
N1169 Li1145 1.990 . S
N1169 C1168 1.314 . S
N1169 C1172 1.279 . S
C1170 C1168 1.353 . S
C1170 C1173 1.348 . S
C1170 H1218 0.929 . S
C1171 C1172 1.358 . S
C1171 C1173 1.356 . S
C1171 H1219 0.930 . S
C1172 N1169 1.279 . S
C1172 C1171 1.358 . S
C1172 H1175 0.930 . S
C1173 C1170 1.348 . S
C1173 C1171 1.356 . S
H1174 C1168 0.930 . S
H1175 C1172 0.930 . S
C1176 C1178 1.348 . S
C1176 C1179 1.356 . S
C1176 O1206 1.325 . S
N1177 C1180 1.314 . S
N1177 C1181 1.279 . S
C1178 C1176 1.348 . S
C1178 C1180 1.353 . S
C1178 H1220 0.929 . S
C1179 C1176 1.356 . S
C1179 C1181 1.358 . S
C1179 H1221 0.930 . S
C1180 N1177 1.314 . S
C1180 C1178 1.353 . S
C1180 H1222 0.930 . S
C1181 N1177 1.279 . S
C1181 C1179 1.358 . S
C1181 H1223 0.930 . S
C1182 C1183 1.348 . S
C1182 C1184 1.356 . S
C1182 O1207 1.325 . S
C1183 C1182 1.348 . S
C1183 C1185 1.353 . S
C1183 H1224 0.929 . S
C1184 C1182 1.356 . S
C1184 C1186 1.358 . S
C1184 H1225 0.930 . S
C1185 C1183 1.353 . S
C1185 N1187 1.314 . S
C1185 H1226 0.930 . S
C1186 C1184 1.358 . S
C1186 N1187 1.279 . S
C1186 H1227 0.930 . S
N1187 C1185 1.314 . S
N1187 C1186 1.279 . S
C1188 C1190 1.353 . S
C1188 N1191 1.314 . S
C1188 H1194 0.930 . S
C1189 N1191 1.279 . S
C1189 C1192 1.358 . S
C1189 H1195 0.930 . S
C1190 C1188 1.353 . S
C1190 C1193 1.348 . S
C1190 H1228 0.929 . S
N1191 Li1146 1.990 . S
N1191 C1188 1.314 . S
N1191 C1189 1.279 . S
C1192 C1189 1.358 . S
C1192 C1193 1.356 . S
C1192 H1229 0.930 . S
C1193 C1190 1.348 . S
C1193 C1192 1.356 . S
H1194 C1188 0.930 . S
H1195 C1189 0.930 . S
C1196 N1197 1.314 . S
C1196 C1198 1.353 . S
C1196 H1202 0.930 . S
N1197 Li1147 1.990 . S
N1197 C1196 1.314 . S
N1197 C1200 1.279 . S
C1198 C1196 1.353 . S
C1198 C1201 1.348 . S
C1198 H1230 0.929 . S
C1199 C1200 1.358 . S
C1199 C1201 1.356 . S
C1199 H1231 0.930 . S
C1200 N1197 1.279 . S
C1200 C1199 1.358 . S
C1200 H1203 0.930 . S
C1201 C1198 1.348 . S
C1201 C1199 1.356 . S
H1202 C1196 0.930 . S
H1203 C1200 0.930 . S
O1204 Li1144 1.956 . S
O1204 Li1145 1.970 . S
O1204 Li1146 1.961 . S
O1204 C1148 1.325 . S
O1205 Li1144 1.970 . S
O1205 Li1145 1.956 . S
O1205 Li1147 1.961 . S
O1205 C1154 1.325 . S
O1206 Li1144 1.961 . S
O1206 Li1146 1.956 . S
O1206 Li1147 1.970 . S
O1206 C1176 1.325 . S
O1207 Li1145 1.961 . S
O1207 Li1146 1.970 . S
O1207 Li1147 1.956 . S
O1207 C1182 1.325 . S
H1208 C1150 0.929 . S
H1209 C1151 0.930 . S
H1210 C1152 0.930 . S
H1211 C1153 0.930 . S
H1212 C1155 0.930 . S
H1213 C1157 0.929 . S
H1214 C1158 0.930 . S
H1215 C1159 0.930 . S
H1216 C1162 0.930 . S
H1217 C1165 0.929 . S
H1218 C1170 0.929 . S
H1219 C1171 0.930 . S
H1220 C1178 0.929 . S
H1221 C1179 0.930 . S
H1222 C1180 0.930 . S
H1223 C1181 0.930 . S
H1224 C1183 0.929 . S
H1225 C1184 0.930 . S
H1226 C1185 0.930 . S
H1227 C1186 0.930 . S
H1228 C1190 0.929 . S
H1229 C1192 0.930 . S
H1230 C1198 0.929 . S
H1231 C1199 0.930 . S
Li1232 N1249 1.990 . S
Li1232 O1292 1.956 . S
Li1232 O1293 1.970 . S
Li1232 O1294 1.961 . S
Li1233 N1257 1.990 . S
Li1233 O1292 1.970 . S
Li1233 O1293 1.956 . S
Li1233 O1295 1.961 . S
Li1234 N1279 1.990 . S
Li1234 O1292 1.961 . S
Li1234 O1294 1.956 . S
Li1234 O1295 1.970 . S
Li1235 N1285 1.990 . S
Li1235 O1293 1.961 . S
Li1235 O1294 1.970 . S
Li1235 O1295 1.956 . S
C1236 C1238 1.348 . S
C1236 C1239 1.356 . S
C1236 O1292 1.325 . S
N1237 C1240 1.314 . S
N1237 C1241 1.279 . S
C1238 C1236 1.348 . S
C1238 C1240 1.353 . S
C1238 H1296 0.929 . S
C1239 C1236 1.356 . S
C1239 C1241 1.358 . S
C1239 H1297 0.930 . S
C1240 N1237 1.314 . S
C1240 C1238 1.353 . S
C1240 H1298 0.930 . S
C1241 N1237 1.279 . S
C1241 C1239 1.358 . S
C1241 H1299 0.930 . S
C1242 C1245 1.348 . S
C1242 C1246 1.356 . S
C1242 O1293 1.325 . S
C1243 N1244 1.279 . S
C1243 C1246 1.358 . S
C1243 H1300 0.930 . S
N1244 C1243 1.279 . S
N1244 C1247 1.314 . S
C1245 C1242 1.348 . S
C1245 C1247 1.353 . S
C1245 H1301 0.929 . S
C1246 C1242 1.356 . S
C1246 C1243 1.358 . S
C1246 H1302 0.930 . S
C1247 N1244 1.314 . S
C1247 C1245 1.353 . S
C1247 H1303 0.930 . S
C1248 N1249 1.314 . S
C1248 C1253 1.353 . S
C1248 H1254 0.930 . S
N1249 Li1232 1.990 . S
N1249 C1248 1.314 . S
N1249 C1251 1.279 . S
C1250 C1251 1.358 . S
C1250 C1252 1.356 . S
C1250 H1304 0.930 . S
C1251 N1249 1.279 . S
C1251 C1250 1.358 . S
C1251 H1255 0.930 . S
C1252 C1250 1.356 . S
C1252 C1253 1.348 . S
C1253 C1248 1.353 . S
C1253 C1252 1.348 . S
C1253 H1305 0.929 . S
H1254 C1248 0.930 . S
H1255 C1251 0.930 . S
C1256 N1257 1.314 . S
C1256 C1258 1.353 . S
C1256 H1262 0.930 . S
N1257 Li1233 1.990 . S
N1257 C1256 1.314 . S
N1257 C1260 1.279 . S
C1258 C1256 1.353 . S
C1258 C1261 1.348 . S
C1258 H1306 0.929 . S
C1259 C1260 1.358 . S
C1259 C1261 1.356 . S
C1259 H1307 0.930 . S
C1260 N1257 1.279 . S
C1260 C1259 1.358 . S
C1260 H1263 0.930 . S
C1261 C1258 1.348 . S
C1261 C1259 1.356 . S
H1262 C1256 0.930 . S
H1263 C1260 0.930 . S
C1264 C1266 1.348 . S
C1264 C1267 1.356 . S
C1264 O1294 1.325 . S
N1265 C1268 1.314 . S
N1265 C1269 1.279 . S
C1266 C1264 1.348 . S
C1266 C1268 1.353 . S
C1266 H1308 0.929 . S
C1267 C1264 1.356 . S
C1267 C1269 1.358 . S
C1267 H1309 0.930 . S
C1268 N1265 1.314 . S
C1268 C1266 1.353 . S
C1268 H1310 0.930 . S
C1269 N1265 1.279 . S
C1269 C1267 1.358 . S
C1269 H1311 0.930 . S
C1270 C1271 1.348 . S
C1270 C1272 1.356 . S
C1270 O1295 1.325 . S
C1271 C1270 1.348 . S
C1271 C1273 1.353 . S
C1271 H1312 0.929 . S
C1272 C1270 1.356 . S
C1272 C1274 1.358 . S
C1272 H1313 0.930 . S
C1273 C1271 1.353 . S
C1273 N1275 1.314 . S
C1273 H1314 0.930 . S
C1274 C1272 1.358 . S
C1274 N1275 1.279 . S
C1274 H1315 0.930 . S
N1275 C1273 1.314 . S
N1275 C1274 1.279 . S
C1276 C1278 1.353 . S
C1276 N1279 1.314 . S
C1276 H1282 0.930 . S
C1277 N1279 1.279 . S
C1277 C1280 1.358 . S
C1277 H1283 0.930 . S
C1278 C1276 1.353 . S
C1278 C1281 1.348 . S
C1278 H1316 0.929 . S
N1279 Li1234 1.990 . S
N1279 C1276 1.314 . S
N1279 C1277 1.279 . S
C1280 C1277 1.358 . S
C1280 C1281 1.356 . S
C1280 H1317 0.930 . S
C1281 C1278 1.348 . S
C1281 C1280 1.356 . S
H1282 C1276 0.930 . S
H1283 C1277 0.930 . S
C1284 N1285 1.314 . S
C1284 C1286 1.353 . S
C1284 H1290 0.930 . S
N1285 Li1235 1.990 . S
N1285 C1284 1.314 . S
N1285 C1288 1.279 . S
C1286 C1284 1.353 . S
C1286 C1289 1.348 . S
C1286 H1318 0.929 . S
C1287 C1288 1.358 . S
C1287 C1289 1.356 . S
C1287 H1319 0.930 . S
C1288 N1285 1.279 . S
C1288 C1287 1.358 . S
C1288 H1291 0.930 . S
C1289 C1286 1.348 . S
C1289 C1287 1.356 . S
H1290 C1284 0.930 . S
H1291 C1288 0.930 . S
O1292 Li1232 1.956 . S
O1292 Li1233 1.970 . S
O1292 Li1234 1.961 . S
O1292 C1236 1.325 . S
O1293 Li1232 1.970 . S
O1293 Li1233 1.956 . S
O1293 Li1235 1.961 . S
O1293 C1242 1.325 . S
O1294 Li1232 1.961 . S
O1294 Li1234 1.956 . S
O1294 Li1235 1.970 . S
O1294 C1264 1.325 . S
O1295 Li1233 1.961 . S
O1295 Li1234 1.970 . S
O1295 Li1235 1.956 . S
O1295 C1270 1.325 . S
H1296 C1238 0.929 . S
H1297 C1239 0.930 . S
H1298 C1240 0.930 . S
H1299 C1241 0.930 . S
H1300 C1243 0.930 . S
H1301 C1245 0.929 . S
H1302 C1246 0.930 . S
H1303 C1247 0.930 . S
H1304 C1250 0.930 . S
H1305 C1253 0.929 . S
H1306 C1258 0.929 . S
H1307 C1259 0.930 . S
H1308 C1266 0.929 . S
H1309 C1267 0.930 . S
H1310 C1268 0.930 . S
H1311 C1269 0.930 . S
H1312 C1271 0.929 . S
H1313 C1272 0.930 . S
H1314 C1273 0.930 . S
H1315 C1274 0.930 . S
H1316 C1278 0.929 . S
H1317 C1280 0.930 . S
H1318 C1286 0.929 . S
H1319 C1287 0.930 . S
Li1320 N1337 1.990 . S
Li1320 O1380 1.956 . S
Li1320 O1381 1.970 . S
Li1320 O1382 1.961 . S
Li1321 N1345 1.990 . S
Li1321 O1380 1.970 . S
Li1321 O1381 1.956 . S
Li1321 O1383 1.961 . S
Li1322 N1367 1.990 . S
Li1322 O1380 1.961 . S
Li1322 O1382 1.956 . S
Li1322 O1383 1.970 . S
Li1323 N1373 1.990 . S
Li1323 O1381 1.961 . S
Li1323 O1382 1.970 . S
Li1323 O1383 1.956 . S
C1324 C1326 1.348 . S
C1324 C1327 1.356 . S
C1324 O1380 1.325 . S
N1325 C1328 1.314 . S
N1325 C1329 1.279 . S
C1326 C1324 1.348 . S
C1326 C1328 1.353 . S
C1326 H1384 0.929 . S
C1327 C1324 1.356 . S
C1327 C1329 1.358 . S
C1327 H1385 0.930 . S
C1328 N1325 1.314 . S
C1328 C1326 1.353 . S
C1328 H1386 0.930 . S
C1329 N1325 1.279 . S
C1329 C1327 1.358 . S
C1329 H1387 0.930 . S
C1330 C1333 1.348 . S
C1330 C1334 1.356 . S
C1330 O1381 1.325 . S
C1331 N1332 1.279 . S
C1331 C1334 1.358 . S
C1331 H1388 0.930 . S
N1332 C1331 1.279 . S
N1332 C1335 1.314 . S
C1333 C1330 1.348 . S
C1333 C1335 1.353 . S
C1333 H1389 0.929 . S
C1334 C1330 1.356 . S
C1334 C1331 1.358 . S
C1334 H1390 0.930 . S
C1335 N1332 1.314 . S
C1335 C1333 1.353 . S
C1335 H1391 0.930 . S
C1336 N1337 1.314 . S
C1336 C1341 1.353 . S
C1336 H1342 0.930 . S
N1337 Li1320 1.990 . S
N1337 C1336 1.314 . S
N1337 C1339 1.279 . S
C1338 C1339 1.358 . S
C1338 C1340 1.356 . S
C1338 H1392 0.930 . S
C1339 N1337 1.279 . S
C1339 C1338 1.358 . S
C1339 H1343 0.930 . S
C1340 C1338 1.356 . S
C1340 C1341 1.348 . S
C1341 C1336 1.353 . S
C1341 C1340 1.348 . S
C1341 H1393 0.929 . S
H1342 C1336 0.930 . S
H1343 C1339 0.930 . S
C1344 N1345 1.314 . S
C1344 C1346 1.353 . S
C1344 H1350 0.930 . S
N1345 Li1321 1.990 . S
N1345 C1344 1.314 . S
N1345 C1348 1.279 . S
C1346 C1344 1.353 . S
C1346 C1349 1.348 . S
C1346 H1394 0.929 . S
C1347 C1348 1.358 . S
C1347 C1349 1.356 . S
C1347 H1395 0.930 . S
C1348 N1345 1.279 . S
C1348 C1347 1.358 . S
C1348 H1351 0.930 . S
C1349 C1346 1.348 . S
C1349 C1347 1.356 . S
H1350 C1344 0.930 . S
H1351 C1348 0.930 . S
C1352 C1354 1.348 . S
C1352 C1355 1.356 . S
C1352 O1382 1.325 . S
N1353 C1356 1.314 . S
N1353 C1357 1.279 . S
C1354 C1352 1.348 . S
C1354 C1356 1.353 . S
C1354 H1396 0.929 . S
C1355 C1352 1.356 . S
C1355 C1357 1.358 . S
C1355 H1397 0.930 . S
C1356 N1353 1.314 . S
C1356 C1354 1.353 . S
C1356 H1398 0.930 . S
C1357 N1353 1.279 . S
C1357 C1355 1.358 . S
C1357 H1399 0.930 . S
C1358 C1359 1.348 . S
C1358 C1360 1.356 . S
C1358 O1383 1.325 . S
C1359 C1358 1.348 . S
C1359 C1361 1.353 . S
C1359 H1400 0.929 . S
C1360 C1358 1.356 . S
C1360 C1362 1.358 . S
C1360 H1401 0.930 . S
C1361 C1359 1.353 . S
C1361 N1363 1.314 . S
C1361 H1402 0.930 . S
C1362 C1360 1.358 . S
C1362 N1363 1.279 . S
C1362 H1403 0.930 . S
N1363 C1361 1.314 . S
N1363 C1362 1.279 . S
C1364 C1366 1.353 . S
C1364 N1367 1.314 . S
C1364 H1370 0.930 . S
C1365 N1367 1.279 . S
C1365 C1368 1.358 . S
C1365 H1371 0.930 . S
C1366 C1364 1.353 . S
C1366 C1369 1.348 . S
C1366 H1404 0.929 . S
N1367 Li1322 1.990 . S
N1367 C1364 1.314 . S
N1367 C1365 1.279 . S
C1368 C1365 1.358 . S
C1368 C1369 1.356 . S
C1368 H1405 0.930 . S
C1369 C1366 1.348 . S
C1369 C1368 1.356 . S
H1370 C1364 0.930 . S
H1371 C1365 0.930 . S
C1372 N1373 1.314 . S
C1372 C1374 1.353 . S
C1372 H1378 0.930 . S
N1373 Li1323 1.990 . S
N1373 C1372 1.314 . S
N1373 C1376 1.279 . S
C1374 C1372 1.353 . S
C1374 C1377 1.348 . S
C1374 H1406 0.929 . S
C1375 C1376 1.358 . S
C1375 C1377 1.356 . S
C1375 H1407 0.930 . S
C1376 N1373 1.279 . S
C1376 C1375 1.358 . S
C1376 H1379 0.930 . S
C1377 C1374 1.348 . S
C1377 C1375 1.356 . S
H1378 C1372 0.930 . S
H1379 C1376 0.930 . S
O1380 Li1320 1.956 . S
O1380 Li1321 1.970 . S
O1380 Li1322 1.961 . S
O1380 C1324 1.325 . S
O1381 Li1320 1.970 . S
O1381 Li1321 1.956 . S
O1381 Li1323 1.961 . S
O1381 C1330 1.325 . S
O1382 Li1320 1.961 . S
O1382 Li1322 1.956 . S
O1382 Li1323 1.970 . S
O1382 C1352 1.325 . S
O1383 Li1321 1.961 . S
O1383 Li1322 1.970 . S
O1383 Li1323 1.956 . S
O1383 C1358 1.325 . S
H1384 C1326 0.929 . S
H1385 C1327 0.930 . S
H1386 C1328 0.930 . S
H1387 C1329 0.930 . S
H1388 C1331 0.930 . S
H1389 C1333 0.929 . S
H1390 C1334 0.930 . S
H1391 C1335 0.930 . S
H1392 C1338 0.930 . S
H1393 C1341 0.929 . S
H1394 C1346 0.929 . S
H1395 C1347 0.930 . S
H1396 C1354 0.929 . S
H1397 C1355 0.930 . S
H1398 C1356 0.930 . S
H1399 C1357 0.930 . S
H1400 C1359 0.929 . S
H1401 C1360 0.930 . S
H1402 C1361 0.930 . S
H1403 C1362 0.930 . S
H1404 C1366 0.929 . S
H1405 C1368 0.930 . S
H1406 C1374 0.929 . S
H1407 C1375 0.930 . S
Li1408 N1425 1.990 . S
Li1408 O1468 1.956 . S
Li1408 O1469 1.970 . S
Li1408 O1470 1.961 . S
Li1409 N1433 1.990 . S
Li1409 O1468 1.970 . S
Li1409 O1469 1.956 . S
Li1409 O1471 1.961 . S
Li1410 N1455 1.990 . S
Li1410 O1468 1.961 . S
Li1410 O1470 1.956 . S
Li1410 O1471 1.970 . S
Li1411 N1461 1.990 . S
Li1411 O1469 1.961 . S
Li1411 O1470 1.970 . S
Li1411 O1471 1.956 . S
C1412 C1414 1.348 . S
C1412 C1415 1.356 . S
C1412 O1468 1.325 . S
N1413 C1416 1.314 . S
N1413 C1417 1.279 . S
C1414 C1412 1.348 . S
C1414 C1416 1.353 . S
C1414 H1472 0.929 . S
C1415 C1412 1.356 . S
C1415 C1417 1.358 . S
C1415 H1473 0.930 . S
C1416 N1413 1.314 . S
C1416 C1414 1.353 . S
C1416 H1474 0.930 . S
C1417 N1413 1.279 . S
C1417 C1415 1.358 . S
C1417 H1475 0.930 . S
C1418 C1421 1.348 . S
C1418 C1422 1.356 . S
C1418 O1469 1.325 . S
C1419 N1420 1.279 . S
C1419 C1422 1.358 . S
C1419 H1476 0.930 . S
N1420 C1419 1.279 . S
N1420 C1423 1.314 . S
C1421 C1418 1.348 . S
C1421 C1423 1.353 . S
C1421 H1477 0.929 . S
C1422 C1418 1.356 . S
C1422 C1419 1.358 . S
C1422 H1478 0.930 . S
C1423 N1420 1.314 . S
C1423 C1421 1.353 . S
C1423 H1479 0.930 . S
C1424 N1425 1.314 . S
C1424 C1429 1.353 . S
C1424 H1430 0.930 . S
N1425 Li1408 1.990 . S
N1425 C1424 1.314 . S
N1425 C1427 1.279 . S
C1426 C1427 1.358 . S
C1426 C1428 1.356 . S
C1426 H1480 0.930 . S
C1427 N1425 1.279 . S
C1427 C1426 1.358 . S
C1427 H1431 0.930 . S
C1428 C1426 1.356 . S
C1428 C1429 1.348 . S
C1429 C1424 1.353 . S
C1429 C1428 1.348 . S
C1429 H1481 0.929 . S
H1430 C1424 0.930 . S
H1431 C1427 0.930 . S
C1432 N1433 1.314 . S
C1432 C1434 1.353 . S
C1432 H1438 0.930 . S
N1433 Li1409 1.990 . S
N1433 C1432 1.314 . S
N1433 C1436 1.279 . S
C1434 C1432 1.353 . S
C1434 C1437 1.348 . S
C1434 H1482 0.929 . S
C1435 C1436 1.358 . S
C1435 C1437 1.356 . S
C1435 H1483 0.930 . S
C1436 N1433 1.279 . S
C1436 C1435 1.358 . S
C1436 H1439 0.930 . S
C1437 C1434 1.348 . S
C1437 C1435 1.356 . S
H1438 C1432 0.930 . S
H1439 C1436 0.930 . S
C1440 C1442 1.348 . S
C1440 C1443 1.356 . S
C1440 O1470 1.325 . S
N1441 C1444 1.314 . S
N1441 C1445 1.279 . S
C1442 C1440 1.348 . S
C1442 C1444 1.353 . S
C1442 H1484 0.929 . S
C1443 C1440 1.356 . S
C1443 C1445 1.358 . S
C1443 H1485 0.930 . S
C1444 N1441 1.314 . S
C1444 C1442 1.353 . S
C1444 H1486 0.930 . S
C1445 N1441 1.279 . S
C1445 C1443 1.358 . S
C1445 H1487 0.930 . S
C1446 C1447 1.348 . S
C1446 C1448 1.356 . S
C1446 O1471 1.325 . S
C1447 C1446 1.348 . S
C1447 C1449 1.353 . S
C1447 H1488 0.929 . S
C1448 C1446 1.356 . S
C1448 C1450 1.358 . S
C1448 H1489 0.930 . S
C1449 C1447 1.353 . S
C1449 N1451 1.314 . S
C1449 H1490 0.930 . S
C1450 C1448 1.358 . S
C1450 N1451 1.279 . S
C1450 H1491 0.930 . S
N1451 C1449 1.314 . S
N1451 C1450 1.279 . S
C1452 C1454 1.353 . S
C1452 N1455 1.314 . S
C1452 H1458 0.930 . S
C1453 N1455 1.279 . S
C1453 C1456 1.358 . S
C1453 H1459 0.930 . S
C1454 C1452 1.353 . S
C1454 C1457 1.348 . S
C1454 H1492 0.929 . S
N1455 Li1410 1.990 . S
N1455 C1452 1.314 . S
N1455 C1453 1.279 . S
C1456 C1453 1.358 . S
C1456 C1457 1.356 . S
C1456 H1493 0.930 . S
C1457 C1454 1.348 . S
C1457 C1456 1.356 . S
H1458 C1452 0.930 . S
H1459 C1453 0.930 . S
C1460 N1461 1.314 . S
C1460 C1462 1.353 . S
C1460 H1466 0.930 . S
N1461 Li1411 1.990 . S
N1461 C1460 1.314 . S
N1461 C1464 1.279 . S
C1462 C1460 1.353 . S
C1462 C1465 1.348 . S
C1462 H1494 0.929 . S
C1463 C1464 1.358 . S
C1463 C1465 1.356 . S
C1463 H1495 0.930 . S
C1464 N1461 1.279 . S
C1464 C1463 1.358 . S
C1464 H1467 0.930 . S
C1465 C1462 1.348 . S
C1465 C1463 1.356 . S
H1466 C1460 0.930 . S
H1467 C1464 0.930 . S
O1468 Li1408 1.956 . S
O1468 Li1409 1.970 . S
O1468 Li1410 1.961 . S
O1468 C1412 1.325 . S
O1469 Li1408 1.970 . S
O1469 Li1409 1.956 . S
O1469 Li1411 1.961 . S
O1469 C1418 1.325 . S
O1470 Li1408 1.961 . S
O1470 Li1410 1.956 . S
O1470 Li1411 1.970 . S
O1470 C1440 1.325 . S
O1471 Li1409 1.961 . S
O1471 Li1410 1.970 . S
O1471 Li1411 1.956 . S
O1471 C1446 1.325 . S
H1472 C1414 0.929 . S
H1473 C1415 0.930 . S
H1474 C1416 0.930 . S
H1475 C1417 0.930 . S
H1476 C1419 0.930 . S
H1477 C1421 0.929 . S
H1478 C1422 0.930 . S
H1479 C1423 0.930 . S
H1480 C1426 0.930 . S
H1481 C1429 0.929 . S
H1482 C1434 0.929 . S
H1483 C1435 0.930 . S
H1484 C1442 0.929 . S
H1485 C1443 0.930 . S
H1486 C1444 0.930 . S
H1487 C1445 0.930 . S
H1488 C1447 0.929 . S
H1489 C1448 0.930 . S
H1490 C1449 0.930 . S
H1491 C1450 0.930 . S
H1492 C1454 0.929 . S
H1493 C1456 0.930 . S
H1494 C1462 0.929 . S
H1495 C1463 0.930 . S
Li1496 N1513 1.990 . S
Li1496 O1556 1.956 . S
Li1496 O1557 1.970 . S
Li1496 O1558 1.961 . S
Li1497 N1521 1.990 . S
Li1497 O1556 1.970 . S
Li1497 O1557 1.956 . S
Li1497 O1559 1.961 . S
Li1498 N1543 1.990 . S
Li1498 O1556 1.961 . S
Li1498 O1558 1.956 . S
Li1498 O1559 1.970 . S
Li1499 N1549 1.990 . S
Li1499 O1557 1.961 . S
Li1499 O1558 1.970 . S
Li1499 O1559 1.956 . S
C1500 C1502 1.348 . S
C1500 C1503 1.356 . S
C1500 O1556 1.325 . S
N1501 C1504 1.314 . S
N1501 C1505 1.279 . S
C1502 C1500 1.348 . S
C1502 C1504 1.353 . S
C1502 H1560 0.929 . S
C1503 C1500 1.356 . S
C1503 C1505 1.358 . S
C1503 H1561 0.930 . S
C1504 N1501 1.314 . S
C1504 C1502 1.353 . S
C1504 H1562 0.930 . S
C1505 N1501 1.279 . S
C1505 C1503 1.358 . S
C1505 H1563 0.930 . S
C1506 C1509 1.348 . S
C1506 C1510 1.356 . S
C1506 O1557 1.325 . S
C1507 N1508 1.279 . S
C1507 C1510 1.358 . S
C1507 H1564 0.930 . S
N1508 C1507 1.279 . S
N1508 C1511 1.314 . S
C1509 C1506 1.348 . S
C1509 C1511 1.353 . S
C1509 H1565 0.929 . S
C1510 C1506 1.356 . S
C1510 C1507 1.358 . S
C1510 H1566 0.930 . S
C1511 N1508 1.314 . S
C1511 C1509 1.353 . S
C1511 H1567 0.930 . S
C1512 N1513 1.314 . S
C1512 C1517 1.353 . S
C1512 H1518 0.930 . S
N1513 Li1496 1.990 . S
N1513 C1512 1.314 . S
N1513 C1515 1.279 . S
C1514 C1515 1.358 . S
C1514 C1516 1.356 . S
C1514 H1568 0.930 . S
C1515 N1513 1.279 . S
C1515 C1514 1.358 . S
C1515 H1519 0.930 . S
C1516 C1514 1.356 . S
C1516 C1517 1.348 . S
C1517 C1512 1.353 . S
C1517 C1516 1.348 . S
C1517 H1569 0.929 . S
H1518 C1512 0.930 . S
H1519 C1515 0.930 . S
C1520 N1521 1.314 . S
C1520 C1522 1.353 . S
C1520 H1526 0.930 . S
N1521 Li1497 1.990 . S
N1521 C1520 1.314 . S
N1521 C1524 1.279 . S
C1522 C1520 1.353 . S
C1522 C1525 1.348 . S
C1522 H1570 0.929 . S
C1523 C1524 1.358 . S
C1523 C1525 1.356 . S
C1523 H1571 0.930 . S
C1524 N1521 1.279 . S
C1524 C1523 1.358 . S
C1524 H1527 0.930 . S
C1525 C1522 1.348 . S
C1525 C1523 1.356 . S
H1526 C1520 0.930 . S
H1527 C1524 0.930 . S
C1528 C1530 1.348 . S
C1528 C1531 1.356 . S
C1528 O1558 1.325 . S
N1529 C1532 1.314 . S
N1529 C1533 1.279 . S
C1530 C1528 1.348 . S
C1530 C1532 1.353 . S
C1530 H1572 0.929 . S
C1531 C1528 1.356 . S
C1531 C1533 1.358 . S
C1531 H1573 0.930 . S
C1532 N1529 1.314 . S
C1532 C1530 1.353 . S
C1532 H1574 0.930 . S
C1533 N1529 1.279 . S
C1533 C1531 1.358 . S
C1533 H1575 0.930 . S
C1534 C1535 1.348 . S
C1534 C1536 1.356 . S
C1534 O1559 1.325 . S
C1535 C1534 1.348 . S
C1535 C1537 1.353 . S
C1535 H1576 0.929 . S
C1536 C1534 1.356 . S
C1536 C1538 1.358 . S
C1536 H1577 0.930 . S
C1537 C1535 1.353 . S
C1537 N1539 1.314 . S
C1537 H1578 0.930 . S
C1538 C1536 1.358 . S
C1538 N1539 1.279 . S
C1538 H1579 0.930 . S
N1539 C1537 1.314 . S
N1539 C1538 1.279 . S
C1540 C1542 1.353 . S
C1540 N1543 1.314 . S
C1540 H1546 0.930 . S
C1541 N1543 1.279 . S
C1541 C1544 1.358 . S
C1541 H1547 0.930 . S
C1542 C1540 1.353 . S
C1542 C1545 1.348 . S
C1542 H1580 0.929 . S
N1543 Li1498 1.990 . S
N1543 C1540 1.314 . S
N1543 C1541 1.279 . S
C1544 C1541 1.358 . S
C1544 C1545 1.356 . S
C1544 H1581 0.930 . S
C1545 C1542 1.348 . S
C1545 C1544 1.356 . S
H1546 C1540 0.930 . S
H1547 C1541 0.930 . S
C1548 N1549 1.314 . S
C1548 C1550 1.353 . S
C1548 H1554 0.930 . S
N1549 Li1499 1.990 . S
N1549 C1548 1.314 . S
N1549 C1552 1.279 . S
C1550 C1548 1.353 . S
C1550 C1553 1.348 . S
C1550 H1582 0.929 . S
C1551 C1552 1.358 . S
C1551 C1553 1.356 . S
C1551 H1583 0.930 . S
C1552 N1549 1.279 . S
C1552 C1551 1.358 . S
C1552 H1555 0.930 . S
C1553 C1550 1.348 . S
C1553 C1551 1.356 . S
H1554 C1548 0.930 . S
H1555 C1552 0.930 . S
O1556 Li1496 1.956 . S
O1556 Li1497 1.970 . S
O1556 Li1498 1.961 . S
O1556 C1500 1.325 . S
O1557 Li1496 1.970 . S
O1557 Li1497 1.956 . S
O1557 Li1499 1.961 . S
O1557 C1506 1.325 . S
O1558 Li1496 1.961 . S
O1558 Li1498 1.956 . S
O1558 Li1499 1.970 . S
O1558 C1528 1.325 . S
O1559 Li1497 1.961 . S
O1559 Li1498 1.970 . S
O1559 Li1499 1.956 . S
O1559 C1534 1.325 . S
H1560 C1502 0.929 . S
H1561 C1503 0.930 . S
H1562 C1504 0.930 . S
H1563 C1505 0.930 . S
H1564 C1507 0.930 . S
H1565 C1509 0.929 . S
H1566 C1510 0.930 . S
H1567 C1511 0.930 . S
H1568 C1514 0.930 . S
H1569 C1517 0.929 . S
H1570 C1522 0.929 . S
H1571 C1523 0.930 . S
H1572 C1530 0.929 . S
H1573 C1531 0.930 . S
H1574 C1532 0.930 . S
H1575 C1533 0.930 . S
H1576 C1535 0.929 . S
H1577 C1536 0.930 . S
H1578 C1537 0.930 . S
H1579 C1538 0.930 . S
H1580 C1542 0.929 . S
H1581 C1544 0.930 . S
H1582 C1550 0.929 . S
H1583 C1551 0.930 . S
Li1584 N1601 1.990 . S
Li1584 O1644 1.956 . S
Li1584 O1645 1.970 . S
Li1584 O1646 1.961 . S
Li1585 N1609 1.990 . S
Li1585 O1644 1.970 . S
Li1585 O1645 1.956 . S
Li1585 O1647 1.961 . S
Li1586 N1631 1.990 . S
Li1586 O1644 1.961 . S
Li1586 O1646 1.956 . S
Li1586 O1647 1.970 . S
Li1587 N1637 1.990 . S
Li1587 O1645 1.961 . S
Li1587 O1646 1.970 . S
Li1587 O1647 1.956 . S
C1588 C1590 1.348 . S
C1588 C1591 1.356 . S
C1588 O1644 1.325 . S
N1589 C1592 1.314 . S
N1589 C1593 1.279 . S
C1590 C1588 1.348 . S
C1590 C1592 1.353 . S
C1590 H1648 0.929 . S
C1591 C1588 1.356 . S
C1591 C1593 1.358 . S
C1591 H1649 0.930 . S
C1592 N1589 1.314 . S
C1592 C1590 1.353 . S
C1592 H1650 0.930 . S
C1593 N1589 1.279 . S
C1593 C1591 1.358 . S
C1593 H1651 0.930 . S
C1594 C1597 1.348 . S
C1594 C1598 1.356 . S
C1594 O1645 1.325 . S
C1595 N1596 1.279 . S
C1595 C1598 1.358 . S
C1595 H1652 0.930 . S
N1596 C1595 1.279 . S
N1596 C1599 1.314 . S
C1597 C1594 1.348 . S
C1597 C1599 1.353 . S
C1597 H1653 0.929 . S
C1598 C1594 1.356 . S
C1598 C1595 1.358 . S
C1598 H1654 0.930 . S
C1599 N1596 1.314 . S
C1599 C1597 1.353 . S
C1599 H1655 0.930 . S
C1600 N1601 1.314 . S
C1600 C1605 1.353 . S
C1600 H1606 0.930 . S
N1601 Li1584 1.990 . S
N1601 C1600 1.314 . S
N1601 C1603 1.279 . S
C1602 C1603 1.358 . S
C1602 C1604 1.356 . S
C1602 H1656 0.930 . S
C1603 N1601 1.279 . S
C1603 C1602 1.358 . S
C1603 H1607 0.930 . S
C1604 C1602 1.356 . S
C1604 C1605 1.348 . S
C1605 C1600 1.353 . S
C1605 C1604 1.348 . S
C1605 H1657 0.929 . S
H1606 C1600 0.930 . S
H1607 C1603 0.930 . S
C1608 N1609 1.314 . S
C1608 C1610 1.353 . S
C1608 H1614 0.930 . S
N1609 Li1585 1.990 . S
N1609 C1608 1.314 . S
N1609 C1612 1.279 . S
C1610 C1608 1.353 . S
C1610 C1613 1.348 . S
C1610 H1658 0.929 . S
C1611 C1612 1.358 . S
C1611 C1613 1.356 . S
C1611 H1659 0.930 . S
C1612 N1609 1.279 . S
C1612 C1611 1.358 . S
C1612 H1615 0.930 . S
C1613 C1610 1.348 . S
C1613 C1611 1.356 . S
H1614 C1608 0.930 . S
H1615 C1612 0.930 . S
C1616 C1618 1.348 . S
C1616 C1619 1.356 . S
C1616 O1646 1.325 . S
N1617 C1620 1.314 . S
N1617 C1621 1.279 . S
C1618 C1616 1.348 . S
C1618 C1620 1.353 . S
C1618 H1660 0.929 . S
C1619 C1616 1.356 . S
C1619 C1621 1.358 . S
C1619 H1661 0.930 . S
C1620 N1617 1.314 . S
C1620 C1618 1.353 . S
C1620 H1662 0.930 . S
C1621 N1617 1.279 . S
C1621 C1619 1.358 . S
C1621 H1663 0.930 . S
C1622 C1623 1.348 . S
C1622 C1624 1.356 . S
C1622 O1647 1.325 . S
C1623 C1622 1.348 . S
C1623 C1625 1.353 . S
C1623 H1664 0.929 . S
C1624 C1622 1.356 . S
C1624 C1626 1.358 . S
C1624 H1665 0.930 . S
C1625 C1623 1.353 . S
C1625 N1627 1.314 . S
C1625 H1666 0.930 . S
C1626 C1624 1.358 . S
C1626 N1627 1.279 . S
C1626 H1667 0.930 . S
N1627 C1625 1.314 . S
N1627 C1626 1.279 . S
C1628 C1630 1.353 . S
C1628 N1631 1.314 . S
C1628 H1634 0.930 . S
C1629 N1631 1.279 . S
C1629 C1632 1.358 . S
C1629 H1635 0.930 . S
C1630 C1628 1.353 . S
C1630 C1633 1.348 . S
C1630 H1668 0.929 . S
N1631 Li1586 1.990 . S
N1631 C1628 1.314 . S
N1631 C1629 1.279 . S
C1632 C1629 1.358 . S
C1632 C1633 1.356 . S
C1632 H1669 0.930 . S
C1633 C1630 1.348 . S
C1633 C1632 1.356 . S
H1634 C1628 0.930 . S
H1635 C1629 0.930 . S
C1636 N1637 1.314 . S
C1636 C1638 1.353 . S
C1636 H1642 0.930 . S
N1637 Li1587 1.990 . S
N1637 C1636 1.314 . S
N1637 C1640 1.279 . S
C1638 C1636 1.353 . S
C1638 C1641 1.348 . S
C1638 H1670 0.929 . S
C1639 C1640 1.358 . S
C1639 C1641 1.356 . S
C1639 H1671 0.930 . S
C1640 N1637 1.279 . S
C1640 C1639 1.358 . S
C1640 H1643 0.930 . S
C1641 C1638 1.348 . S
C1641 C1639 1.356 . S
H1642 C1636 0.930 . S
H1643 C1640 0.930 . S
O1644 Li1584 1.956 . S
O1644 Li1585 1.970 . S
O1644 Li1586 1.961 . S
O1644 C1588 1.325 . S
O1645 Li1584 1.970 . S
O1645 Li1585 1.956 . S
O1645 Li1587 1.961 . S
O1645 C1594 1.325 . S
O1646 Li1584 1.961 . S
O1646 Li1586 1.956 . S
O1646 Li1587 1.970 . S
O1646 C1616 1.325 . S
O1647 Li1585 1.961 . S
O1647 Li1586 1.970 . S
O1647 Li1587 1.956 . S
O1647 C1622 1.325 . S
H1648 C1590 0.929 . S
H1649 C1591 0.930 . S
H1650 C1592 0.930 . S
H1651 C1593 0.930 . S
H1652 C1595 0.930 . S
H1653 C1597 0.929 . S
H1654 C1598 0.930 . S
H1655 C1599 0.930 . S
H1656 C1602 0.930 . S
H1657 C1605 0.929 . S
H1658 C1610 0.929 . S
H1659 C1611 0.930 . S
H1660 C1618 0.929 . S
H1661 C1619 0.930 . S
H1662 C1620 0.930 . S
H1663 C1621 0.930 . S
H1664 C1623 0.929 . S
H1665 C1624 0.930 . S
H1666 C1625 0.930 . S
H1667 C1626 0.930 . S
H1668 C1630 0.929 . S
H1669 C1632 0.930 . S
H1670 C1638 0.929 . S
H1671 C1639 0.930 . S
Li1672 N1689 1.990 . S
Li1672 O1732 1.956 . S
Li1672 O1733 1.970 . S
Li1672 O1734 1.961 . S
Li1673 N1697 1.990 . S
Li1673 O1732 1.970 . S
Li1673 O1733 1.956 . S
Li1673 O1735 1.961 . S
Li1674 N1719 1.990 . S
Li1674 O1732 1.961 . S
Li1674 O1734 1.956 . S
Li1674 O1735 1.970 . S
Li1675 N1725 1.990 . S
Li1675 O1733 1.961 . S
Li1675 O1734 1.970 . S
Li1675 O1735 1.956 . S
C1676 C1678 1.348 . S
C1676 C1679 1.356 . S
C1676 O1732 1.325 . S
N1677 C1680 1.314 . S
N1677 C1681 1.279 . S
C1678 C1676 1.348 . S
C1678 C1680 1.353 . S
C1678 H1736 0.929 . S
C1679 C1676 1.356 . S
C1679 C1681 1.358 . S
C1679 H1737 0.930 . S
C1680 N1677 1.314 . S
C1680 C1678 1.353 . S
C1680 H1738 0.930 . S
C1681 N1677 1.279 . S
C1681 C1679 1.358 . S
C1681 H1739 0.930 . S
C1682 C1685 1.348 . S
C1682 C1686 1.356 . S
C1682 O1733 1.325 . S
C1683 N1684 1.279 . S
C1683 C1686 1.358 . S
C1683 H1740 0.930 . S
N1684 C1683 1.279 . S
N1684 C1687 1.314 . S
C1685 C1682 1.348 . S
C1685 C1687 1.353 . S
C1685 H1741 0.929 . S
C1686 C1682 1.356 . S
C1686 C1683 1.358 . S
C1686 H1742 0.930 . S
C1687 N1684 1.314 . S
C1687 C1685 1.353 . S
C1687 H1743 0.930 . S
C1688 N1689 1.314 . S
C1688 C1693 1.353 . S
C1688 H1694 0.930 . S
N1689 Li1672 1.990 . S
N1689 C1688 1.314 . S
N1689 C1691 1.279 . S
C1690 C1691 1.358 . S
C1690 C1692 1.356 . S
C1690 H1744 0.930 . S
C1691 N1689 1.279 . S
C1691 C1690 1.358 . S
C1691 H1695 0.930 . S
C1692 C1690 1.356 . S
C1692 C1693 1.348 . S
C1693 C1688 1.353 . S
C1693 C1692 1.348 . S
C1693 H1745 0.929 . S
H1694 C1688 0.930 . S
H1695 C1691 0.930 . S
C1696 N1697 1.314 . S
C1696 C1698 1.353 . S
C1696 H1702 0.930 . S
N1697 Li1673 1.990 . S
N1697 C1696 1.314 . S
N1697 C1700 1.279 . S
C1698 C1696 1.353 . S
C1698 C1701 1.348 . S
C1698 H1746 0.929 . S
C1699 C1700 1.358 . S
C1699 C1701 1.356 . S
C1699 H1747 0.930 . S
C1700 N1697 1.279 . S
C1700 C1699 1.358 . S
C1700 H1703 0.930 . S
C1701 C1698 1.348 . S
C1701 C1699 1.356 . S
H1702 C1696 0.930 . S
H1703 C1700 0.930 . S
C1704 C1706 1.348 . S
C1704 C1707 1.356 . S
C1704 O1734 1.325 . S
N1705 C1708 1.314 . S
N1705 C1709 1.279 . S
C1706 C1704 1.348 . S
C1706 C1708 1.353 . S
C1706 H1748 0.929 . S
C1707 C1704 1.356 . S
C1707 C1709 1.358 . S
C1707 H1749 0.930 . S
C1708 N1705 1.314 . S
C1708 C1706 1.353 . S
C1708 H1750 0.930 . S
C1709 N1705 1.279 . S
C1709 C1707 1.358 . S
C1709 H1751 0.930 . S
C1710 C1711 1.348 . S
C1710 C1712 1.356 . S
C1710 O1735 1.325 . S
C1711 C1710 1.348 . S
C1711 C1713 1.353 . S
C1711 H1752 0.929 . S
C1712 C1710 1.356 . S
C1712 C1714 1.358 . S
C1712 H1753 0.930 . S
C1713 C1711 1.353 . S
C1713 N1715 1.314 . S
C1713 H1754 0.930 . S
C1714 C1712 1.358 . S
C1714 N1715 1.279 . S
C1714 H1755 0.930 . S
N1715 C1713 1.314 . S
N1715 C1714 1.279 . S
C1716 C1718 1.353 . S
C1716 N1719 1.314 . S
C1716 H1722 0.930 . S
C1717 N1719 1.279 . S
C1717 C1720 1.358 . S
C1717 H1723 0.930 . S
C1718 C1716 1.353 . S
C1718 C1721 1.348 . S
C1718 H1756 0.929 . S
N1719 Li1674 1.990 . S
N1719 C1716 1.314 . S
N1719 C1717 1.279 . S
C1720 C1717 1.358 . S
C1720 C1721 1.356 . S
C1720 H1757 0.930 . S
C1721 C1718 1.348 . S
C1721 C1720 1.356 . S
H1722 C1716 0.930 . S
H1723 C1717 0.930 . S
C1724 N1725 1.314 . S
C1724 C1726 1.353 . S
C1724 H1730 0.930 . S
N1725 Li1675 1.990 . S
N1725 C1724 1.314 . S
N1725 C1728 1.279 . S
C1726 C1724 1.353 . S
C1726 C1729 1.348 . S
C1726 H1758 0.929 . S
C1727 C1728 1.358 . S
C1727 C1729 1.356 . S
C1727 H1759 0.930 . S
C1728 N1725 1.279 . S
C1728 C1727 1.358 . S
C1728 H1731 0.930 . S
C1729 C1726 1.348 . S
C1729 C1727 1.356 . S
H1730 C1724 0.930 . S
H1731 C1728 0.930 . S
O1732 Li1672 1.956 . S
O1732 Li1673 1.970 . S
O1732 Li1674 1.961 . S
O1732 C1676 1.325 . S
O1733 Li1672 1.970 . S
O1733 Li1673 1.956 . S
O1733 Li1675 1.961 . S
O1733 C1682 1.325 . S
O1734 Li1672 1.961 . S
O1734 Li1674 1.956 . S
O1734 Li1675 1.970 . S
O1734 C1704 1.325 . S
O1735 Li1673 1.961 . S
O1735 Li1674 1.970 . S
O1735 Li1675 1.956 . S
O1735 C1710 1.325 . S
H1736 C1678 0.929 . S
H1737 C1679 0.930 . S
H1738 C1680 0.930 . S
H1739 C1681 0.930 . S
H1740 C1683 0.930 . S
H1741 C1685 0.929 . S
H1742 C1686 0.930 . S
H1743 C1687 0.930 . S
H1744 C1690 0.930 . S
H1745 C1693 0.929 . S
H1746 C1698 0.929 . S
H1747 C1699 0.930 . S
H1748 C1706 0.929 . S
H1749 C1707 0.930 . S
H1750 C1708 0.930 . S
H1751 C1709 0.930 . S
H1752 C1711 0.929 . S
H1753 C1712 0.930 . S
H1754 C1713 0.930 . S
H1755 C1714 0.930 . S
H1756 C1718 0.929 . S
H1757 C1720 0.930 . S
H1758 C1726 0.929 . S
H1759 C1727 0.930 . S
Li1760 N1777 1.990 . S
Li1760 O1820 1.956 . S
Li1760 O1821 1.970 . S
Li1760 O1822 1.961 . S
Li1761 N1785 1.990 . S
Li1761 O1820 1.970 . S
Li1761 O1821 1.956 . S
Li1761 O1823 1.961 . S
Li1762 N1807 1.990 . S
Li1762 O1820 1.961 . S
Li1762 O1822 1.956 . S
Li1762 O1823 1.970 . S
Li1763 N1813 1.990 . S
Li1763 O1821 1.961 . S
Li1763 O1822 1.970 . S
Li1763 O1823 1.956 . S
C1764 C1766 1.348 . S
C1764 C1767 1.356 . S
C1764 O1820 1.325 . S
N1765 C1768 1.314 . S
N1765 C1769 1.279 . S
C1766 C1764 1.348 . S
C1766 C1768 1.353 . S
C1766 H1824 0.929 . S
C1767 C1764 1.356 . S
C1767 C1769 1.358 . S
C1767 H1825 0.930 . S
C1768 N1765 1.314 . S
C1768 C1766 1.353 . S
C1768 H1826 0.930 . S
C1769 N1765 1.279 . S
C1769 C1767 1.358 . S
C1769 H1827 0.930 . S
C1770 C1773 1.348 . S
C1770 C1774 1.356 . S
C1770 O1821 1.325 . S
C1771 N1772 1.279 . S
C1771 C1774 1.358 . S
C1771 H1828 0.930 . S
N1772 C1771 1.279 . S
N1772 C1775 1.314 . S
C1773 C1770 1.348 . S
C1773 C1775 1.353 . S
C1773 H1829 0.929 . S
C1774 C1770 1.356 . S
C1774 C1771 1.358 . S
C1774 H1830 0.930 . S
C1775 N1772 1.314 . S
C1775 C1773 1.353 . S
C1775 H1831 0.930 . S
C1776 N1777 1.314 . S
C1776 C1781 1.353 . S
C1776 H1782 0.930 . S
N1777 Li1760 1.990 . S
N1777 C1776 1.314 . S
N1777 C1779 1.279 . S
C1778 C1779 1.358 . S
C1778 C1780 1.356 . S
C1778 H1832 0.930 . S
C1779 N1777 1.279 . S
C1779 C1778 1.358 . S
C1779 H1783 0.930 . S
C1780 C1778 1.356 . S
C1780 C1781 1.348 . S
C1781 C1776 1.353 . S
C1781 C1780 1.348 . S
C1781 H1833 0.929 . S
H1782 C1776 0.930 . S
H1783 C1779 0.930 . S
C1784 N1785 1.314 . S
C1784 C1786 1.353 . S
C1784 H1790 0.930 . S
N1785 Li1761 1.990 . S
N1785 C1784 1.314 . S
N1785 C1788 1.279 . S
C1786 C1784 1.353 . S
C1786 C1789 1.348 . S
C1786 H1834 0.929 . S
C1787 C1788 1.358 . S
C1787 C1789 1.356 . S
C1787 H1835 0.930 . S
C1788 N1785 1.279 . S
C1788 C1787 1.358 . S
C1788 H1791 0.930 . S
C1789 C1786 1.348 . S
C1789 C1787 1.356 . S
H1790 C1784 0.930 . S
H1791 C1788 0.930 . S
C1792 C1794 1.348 . S
C1792 C1795 1.356 . S
C1792 O1822 1.325 . S
N1793 C1796 1.314 . S
N1793 C1797 1.279 . S
C1794 C1792 1.348 . S
C1794 C1796 1.353 . S
C1794 H1836 0.929 . S
C1795 C1792 1.356 . S
C1795 C1797 1.358 . S
C1795 H1837 0.930 . S
C1796 N1793 1.314 . S
C1796 C1794 1.353 . S
C1796 H1838 0.930 . S
C1797 N1793 1.279 . S
C1797 C1795 1.358 . S
C1797 H1839 0.930 . S
C1798 C1799 1.348 . S
C1798 C1800 1.356 . S
C1798 O1823 1.325 . S
C1799 C1798 1.348 . S
C1799 C1801 1.353 . S
C1799 H1840 0.929 . S
C1800 C1798 1.356 . S
C1800 C1802 1.358 . S
C1800 H1841 0.930 . S
C1801 C1799 1.353 . S
C1801 N1803 1.314 . S
C1801 H1842 0.930 . S
C1802 C1800 1.358 . S
C1802 N1803 1.279 . S
C1802 H1843 0.930 . S
N1803 C1801 1.314 . S
N1803 C1802 1.279 . S
C1804 C1806 1.353 . S
C1804 N1807 1.314 . S
C1804 H1810 0.930 . S
C1805 N1807 1.279 . S
C1805 C1808 1.358 . S
C1805 H1811 0.930 . S
C1806 C1804 1.353 . S
C1806 C1809 1.348 . S
C1806 H1844 0.929 . S
N1807 Li1762 1.990 . S
N1807 C1804 1.314 . S
N1807 C1805 1.279 . S
C1808 C1805 1.358 . S
C1808 C1809 1.356 . S
C1808 H1845 0.930 . S
C1809 C1806 1.348 . S
C1809 C1808 1.356 . S
H1810 C1804 0.930 . S
H1811 C1805 0.930 . S
C1812 N1813 1.314 . S
C1812 C1814 1.353 . S
C1812 H1818 0.930 . S
N1813 Li1763 1.990 . S
N1813 C1812 1.314 . S
N1813 C1816 1.279 . S
C1814 C1812 1.353 . S
C1814 C1817 1.348 . S
C1814 H1846 0.929 . S
C1815 C1816 1.358 . S
C1815 C1817 1.356 . S
C1815 H1847 0.930 . S
C1816 N1813 1.279 . S
C1816 C1815 1.358 . S
C1816 H1819 0.930 . S
C1817 C1814 1.348 . S
C1817 C1815 1.356 . S
H1818 C1812 0.930 . S
H1819 C1816 0.930 . S
O1820 Li1760 1.956 . S
O1820 Li1761 1.970 . S
O1820 Li1762 1.961 . S
O1820 C1764 1.325 . S
O1821 Li1760 1.970 . S
O1821 Li1761 1.956 . S
O1821 Li1763 1.961 . S
O1821 C1770 1.325 . S
O1822 Li1760 1.961 . S
O1822 Li1762 1.956 . S
O1822 Li1763 1.970 . S
O1822 C1792 1.325 . S
O1823 Li1761 1.961 . S
O1823 Li1762 1.970 . S
O1823 Li1763 1.956 . S
O1823 C1798 1.325 . S
H1824 C1766 0.929 . S
H1825 C1767 0.930 . S
H1826 C1768 0.930 . S
H1827 C1769 0.930 . S
H1828 C1771 0.930 . S
H1829 C1773 0.929 . S
H1830 C1774 0.930 . S
H1831 C1775 0.930 . S
H1832 C1778 0.930 . S
H1833 C1781 0.929 . S
H1834 C1786 0.929 . S
H1835 C1787 0.930 . S
H1836 C1794 0.929 . S
H1837 C1795 0.930 . S
H1838 C1796 0.930 . S
H1839 C1797 0.930 . S
H1840 C1799 0.929 . S
H1841 C1800 0.930 . S
H1842 C1801 0.930 . S
H1843 C1802 0.930 . S
H1844 C1806 0.929 . S
H1845 C1808 0.930 . S
H1846 C1814 0.929 . S
H1847 C1815 0.930 . S
Li1848 N1865 1.990 . S
Li1848 O1908 1.956 . S
Li1848 O1909 1.970 . S
Li1848 O1910 1.961 . S
Li1849 N1873 1.990 . S
Li1849 O1908 1.970 . S
Li1849 O1909 1.956 . S
Li1849 O1911 1.961 . S
Li1850 N1895 1.990 . S
Li1850 O1908 1.961 . S
Li1850 O1910 1.956 . S
Li1850 O1911 1.970 . S
Li1851 N1901 1.990 . S
Li1851 O1909 1.961 . S
Li1851 O1910 1.970 . S
Li1851 O1911 1.956 . S
C1852 C1854 1.348 . S
C1852 C1855 1.356 . S
C1852 O1908 1.325 . S
N1853 C1856 1.314 . S
N1853 C1857 1.279 . S
C1854 C1852 1.348 . S
C1854 C1856 1.353 . S
C1854 H1912 0.929 . S
C1855 C1852 1.356 . S
C1855 C1857 1.358 . S
C1855 H1913 0.930 . S
C1856 N1853 1.314 . S
C1856 C1854 1.353 . S
C1856 H1914 0.930 . S
C1857 N1853 1.279 . S
C1857 C1855 1.358 . S
C1857 H1915 0.930 . S
C1858 C1861 1.348 . S
C1858 C1862 1.356 . S
C1858 O1909 1.325 . S
C1859 N1860 1.279 . S
C1859 C1862 1.358 . S
C1859 H1916 0.930 . S
N1860 C1859 1.279 . S
N1860 C1863 1.314 . S
C1861 C1858 1.348 . S
C1861 C1863 1.353 . S
C1861 H1917 0.929 . S
C1862 C1858 1.356 . S
C1862 C1859 1.358 . S
C1862 H1918 0.930 . S
C1863 N1860 1.314 . S
C1863 C1861 1.353 . S
C1863 H1919 0.930 . S
C1864 N1865 1.314 . S
C1864 C1869 1.353 . S
C1864 H1870 0.930 . S
N1865 Li1848 1.990 . S
N1865 C1864 1.314 . S
N1865 C1867 1.279 . S
C1866 C1867 1.358 . S
C1866 C1868 1.356 . S
C1866 H1920 0.930 . S
C1867 N1865 1.279 . S
C1867 C1866 1.358 . S
C1867 H1871 0.930 . S
C1868 C1866 1.356 . S
C1868 C1869 1.348 . S
C1869 C1864 1.353 . S
C1869 C1868 1.348 . S
C1869 H1921 0.929 . S
H1870 C1864 0.930 . S
H1871 C1867 0.930 . S
C1872 N1873 1.314 . S
C1872 C1874 1.353 . S
C1872 H1878 0.930 . S
N1873 Li1849 1.990 . S
N1873 C1872 1.314 . S
N1873 C1876 1.279 . S
C1874 C1872 1.353 . S
C1874 C1877 1.348 . S
C1874 H1922 0.929 . S
C1875 C1876 1.358 . S
C1875 C1877 1.356 . S
C1875 H1923 0.930 . S
C1876 N1873 1.279 . S
C1876 C1875 1.358 . S
C1876 H1879 0.930 . S
C1877 C1874 1.348 . S
C1877 C1875 1.356 . S
H1878 C1872 0.930 . S
H1879 C1876 0.930 . S
C1880 C1882 1.348 . S
C1880 C1883 1.356 . S
C1880 O1910 1.325 . S
N1881 C1884 1.314 . S
N1881 C1885 1.279 . S
C1882 C1880 1.348 . S
C1882 C1884 1.353 . S
C1882 H1924 0.929 . S
C1883 C1880 1.356 . S
C1883 C1885 1.358 . S
C1883 H1925 0.930 . S
C1884 N1881 1.314 . S
C1884 C1882 1.353 . S
C1884 H1926 0.930 . S
C1885 N1881 1.279 . S
C1885 C1883 1.358 . S
C1885 H1927 0.930 . S
C1886 C1887 1.348 . S
C1886 C1888 1.356 . S
C1886 O1911 1.325 . S
C1887 C1886 1.348 . S
C1887 C1889 1.353 . S
C1887 H1928 0.929 . S
C1888 C1886 1.356 . S
C1888 C1890 1.358 . S
C1888 H1929 0.930 . S
C1889 C1887 1.353 . S
C1889 N1891 1.314 . S
C1889 H1930 0.930 . S
C1890 C1888 1.358 . S
C1890 N1891 1.279 . S
C1890 H1931 0.930 . S
N1891 C1889 1.314 . S
N1891 C1890 1.279 . S
C1892 C1894 1.353 . S
C1892 N1895 1.314 . S
C1892 H1898 0.930 . S
C1893 N1895 1.279 . S
C1893 C1896 1.358 . S
C1893 H1899 0.930 . S
C1894 C1892 1.353 . S
C1894 C1897 1.348 . S
C1894 H1932 0.929 . S
N1895 Li1850 1.990 . S
N1895 C1892 1.314 . S
N1895 C1893 1.279 . S
C1896 C1893 1.358 . S
C1896 C1897 1.356 . S
C1896 H1933 0.930 . S
C1897 C1894 1.348 . S
C1897 C1896 1.356 . S
H1898 C1892 0.930 . S
H1899 C1893 0.930 . S
C1900 N1901 1.314 . S
C1900 C1902 1.353 . S
C1900 H1906 0.930 . S
N1901 Li1851 1.990 . S
N1901 C1900 1.314 . S
N1901 C1904 1.279 . S
C1902 C1900 1.353 . S
C1902 C1905 1.348 . S
C1902 H1934 0.929 . S
C1903 C1904 1.358 . S
C1903 C1905 1.356 . S
C1903 H1935 0.930 . S
C1904 N1901 1.279 . S
C1904 C1903 1.358 . S
C1904 H1907 0.930 . S
C1905 C1902 1.348 . S
C1905 C1903 1.356 . S
H1906 C1900 0.930 . S
H1907 C1904 0.930 . S
O1908 Li1848 1.956 . S
O1908 Li1849 1.970 . S
O1908 Li1850 1.961 . S
O1908 C1852 1.325 . S
O1909 Li1848 1.970 . S
O1909 Li1849 1.956 . S
O1909 Li1851 1.961 . S
O1909 C1858 1.325 . S
O1910 Li1848 1.961 . S
O1910 Li1850 1.956 . S
O1910 Li1851 1.970 . S
O1910 C1880 1.325 . S
O1911 Li1849 1.961 . S
O1911 Li1850 1.970 . S
O1911 Li1851 1.956 . S
O1911 C1886 1.325 . S
H1912 C1854 0.929 . S
H1913 C1855 0.930 . S
H1914 C1856 0.930 . S
H1915 C1857 0.930 . S
H1916 C1859 0.930 . S
H1917 C1861 0.929 . S
H1918 C1862 0.930 . S
H1919 C1863 0.930 . S
H1920 C1866 0.930 . S
H1921 C1869 0.929 . S
H1922 C1874 0.929 . S
H1923 C1875 0.930 . S
H1924 C1882 0.929 . S
H1925 C1883 0.930 . S
H1926 C1884 0.930 . S
H1927 C1885 0.930 . S
H1928 C1887 0.929 . S
H1929 C1888 0.930 . S
H1930 C1889 0.930 . S
H1931 C1890 0.930 . S
H1932 C1894 0.929 . S
H1933 C1896 0.930 . S
H1934 C1902 0.929 . S
H1935 C1903 0.930 . S
Li1936 N1953 1.990 . S
Li1936 O1996 1.956 . S
Li1936 O1997 1.970 . S
Li1936 O1998 1.961 . S
Li1937 N1961 1.990 . S
Li1937 O1996 1.970 . S
Li1937 O1997 1.956 . S
Li1937 O1999 1.961 . S
Li1938 N1983 1.990 . S
Li1938 O1996 1.961 . S
Li1938 O1998 1.956 . S
Li1938 O1999 1.970 . S
Li1939 N1989 1.990 . S
Li1939 O1997 1.961 . S
Li1939 O1998 1.970 . S
Li1939 O1999 1.956 . S
C1940 C1942 1.348 . S
C1940 C1943 1.356 . S
C1940 O1996 1.325 . S
N1941 C1944 1.314 . S
N1941 C1945 1.279 . S
C1942 C1940 1.348 . S
C1942 C1944 1.353 . S
C1942 H2000 0.929 . S
C1943 C1940 1.356 . S
C1943 C1945 1.358 . S
C1943 H2001 0.930 . S
C1944 N1941 1.314 . S
C1944 C1942 1.353 . S
C1944 H2002 0.930 . S
C1945 N1941 1.279 . S
C1945 C1943 1.358 . S
C1945 H2003 0.930 . S
C1946 C1949 1.348 . S
C1946 C1950 1.356 . S
C1946 O1997 1.325 . S
C1947 N1948 1.279 . S
C1947 C1950 1.358 . S
C1947 H2004 0.930 . S
N1948 C1947 1.279 . S
N1948 C1951 1.314 . S
C1949 C1946 1.348 . S
C1949 C1951 1.353 . S
C1949 H2005 0.929 . S
C1950 C1946 1.356 . S
C1950 C1947 1.358 . S
C1950 H2006 0.930 . S
C1951 N1948 1.314 . S
C1951 C1949 1.353 . S
C1951 H2007 0.930 . S
C1952 N1953 1.314 . S
C1952 C1957 1.353 . S
C1952 H1958 0.930 . S
N1953 Li1936 1.990 . S
N1953 C1952 1.314 . S
N1953 C1955 1.279 . S
C1954 C1955 1.358 . S
C1954 C1956 1.356 . S
C1954 H2008 0.930 . S
C1955 N1953 1.279 . S
C1955 C1954 1.358 . S
C1955 H1959 0.930 . S
C1956 C1954 1.356 . S
C1956 C1957 1.348 . S
C1957 C1952 1.353 . S
C1957 C1956 1.348 . S
C1957 H2009 0.929 . S
H1958 C1952 0.930 . S
H1959 C1955 0.930 . S
C1960 N1961 1.314 . S
C1960 C1962 1.353 . S
C1960 H1966 0.930 . S
N1961 Li1937 1.990 . S
N1961 C1960 1.314 . S
N1961 C1964 1.279 . S
C1962 C1960 1.353 . S
C1962 C1965 1.348 . S
C1962 H2010 0.929 . S
C1963 C1964 1.358 . S
C1963 C1965 1.356 . S
C1963 H2011 0.930 . S
C1964 N1961 1.279 . S
C1964 C1963 1.358 . S
C1964 H1967 0.930 . S
C1965 C1962 1.348 . S
C1965 C1963 1.356 . S
H1966 C1960 0.930 . S
H1967 C1964 0.930 . S
C1968 C1970 1.348 . S
C1968 C1971 1.356 . S
C1968 O1998 1.325 . S
N1969 C1972 1.314 . S
N1969 C1973 1.279 . S
C1970 C1968 1.348 . S
C1970 C1972 1.353 . S
C1970 H2012 0.929 . S
C1971 C1968 1.356 . S
C1971 C1973 1.358 . S
C1971 H2013 0.930 . S
C1972 N1969 1.314 . S
C1972 C1970 1.353 . S
C1972 H2014 0.930 . S
C1973 N1969 1.279 . S
C1973 C1971 1.358 . S
C1973 H2015 0.930 . S
C1974 C1975 1.348 . S
C1974 C1976 1.356 . S
C1974 O1999 1.325 . S
C1975 C1974 1.348 . S
C1975 C1977 1.353 . S
C1975 H2016 0.929 . S
C1976 C1974 1.356 . S
C1976 C1978 1.358 . S
C1976 H2017 0.930 . S
C1977 C1975 1.353 . S
C1977 N1979 1.314 . S
C1977 H2018 0.930 . S
C1978 C1976 1.358 . S
C1978 N1979 1.279 . S
C1978 H2019 0.930 . S
N1979 C1977 1.314 . S
N1979 C1978 1.279 . S
C1980 C1982 1.353 . S
C1980 N1983 1.314 . S
C1980 H1986 0.930 . S
C1981 N1983 1.279 . S
C1981 C1984 1.358 . S
C1981 H1987 0.930 . S
C1982 C1980 1.353 . S
C1982 C1985 1.348 . S
C1982 H2020 0.929 . S
N1983 Li1938 1.990 . S
N1983 C1980 1.314 . S
N1983 C1981 1.279 . S
C1984 C1981 1.358 . S
C1984 C1985 1.356 . S
C1984 H2021 0.930 . S
C1985 C1982 1.348 . S
C1985 C1984 1.356 . S
H1986 C1980 0.930 . S
H1987 C1981 0.930 . S
C1988 N1989 1.314 . S
C1988 C1990 1.353 . S
C1988 H1994 0.930 . S
N1989 Li1939 1.990 . S
N1989 C1988 1.314 . S
N1989 C1992 1.279 . S
C1990 C1988 1.353 . S
C1990 C1993 1.348 . S
C1990 H2022 0.929 . S
C1991 C1992 1.358 . S
C1991 C1993 1.356 . S
C1991 H2023 0.930 . S
C1992 N1989 1.279 . S
C1992 C1991 1.358 . S
C1992 H1995 0.930 . S
C1993 C1990 1.348 . S
C1993 C1991 1.356 . S
H1994 C1988 0.930 . S
H1995 C1992 0.930 . S
O1996 Li1936 1.956 . S
O1996 Li1937 1.970 . S
O1996 Li1938 1.961 . S
O1996 C1940 1.325 . S
O1997 Li1936 1.970 . S
O1997 Li1937 1.956 . S
O1997 Li1939 1.961 . S
O1997 C1946 1.325 . S
O1998 Li1936 1.961 . S
O1998 Li1938 1.956 . S
O1998 Li1939 1.970 . S
O1998 C1968 1.325 . S
O1999 Li1937 1.961 . S
O1999 Li1938 1.970 . S
O1999 Li1939 1.956 . S
O1999 C1974 1.325 . S
H2000 C1942 0.929 . S
H2001 C1943 0.930 . S
H2002 C1944 0.930 . S
H2003 C1945 0.930 . S
H2004 C1947 0.930 . S
H2005 C1949 0.929 . S
H2006 C1950 0.930 . S
H2007 C1951 0.930 . S
H2008 C1954 0.930 . S
H2009 C1957 0.929 . S
H2010 C1962 0.929 . S
H2011 C1963 0.930 . S
H2012 C1970 0.929 . S
H2013 C1971 0.930 . S
H2014 C1972 0.930 . S
H2015 C1973 0.930 . S
H2016 C1975 0.929 . S
H2017 C1976 0.930 . S
H2018 C1977 0.930 . S
H2019 C1978 0.930 . S
H2020 C1982 0.929 . S
H2021 C1984 0.930 . S
H2022 C1990 0.929 . S
H2023 C1991 0.930 . S
Li2024 N2041 1.990 . S
Li2024 O2084 1.956 . S
Li2024 O2085 1.970 . S
Li2024 O2086 1.961 . S
Li2025 N2049 1.990 . S
Li2025 O2084 1.970 . S
Li2025 O2085 1.956 . S
Li2025 O2087 1.961 . S
Li2026 N2071 1.990 . S
Li2026 O2084 1.961 . S
Li2026 O2086 1.956 . S
Li2026 O2087 1.970 . S
Li2027 N2077 1.990 . S
Li2027 O2085 1.961 . S
Li2027 O2086 1.970 . S
Li2027 O2087 1.956 . S
C2028 C2030 1.348 . S
C2028 C2031 1.356 . S
C2028 O2084 1.325 . S
N2029 C2032 1.314 . S
N2029 C2033 1.279 . S
C2030 C2028 1.348 . S
C2030 C2032 1.353 . S
C2030 H2088 0.929 . S
C2031 C2028 1.356 . S
C2031 C2033 1.358 . S
C2031 H2089 0.930 . S
C2032 N2029 1.314 . S
C2032 C2030 1.353 . S
C2032 H2090 0.930 . S
C2033 N2029 1.279 . S
C2033 C2031 1.358 . S
C2033 H2091 0.930 . S
C2034 C2037 1.348 . S
C2034 C2038 1.356 . S
C2034 O2085 1.325 . S
C2035 N2036 1.279 . S
C2035 C2038 1.358 . S
C2035 H2092 0.930 . S
N2036 C2035 1.279 . S
N2036 C2039 1.314 . S
C2037 C2034 1.348 . S
C2037 C2039 1.353 . S
C2037 H2093 0.929 . S
C2038 C2034 1.356 . S
C2038 C2035 1.358 . S
C2038 H2094 0.930 . S
C2039 N2036 1.314 . S
C2039 C2037 1.353 . S
C2039 H2095 0.930 . S
C2040 N2041 1.314 . S
C2040 C2045 1.353 . S
C2040 H2046 0.930 . S
N2041 Li2024 1.990 . S
N2041 C2040 1.314 . S
N2041 C2043 1.279 . S
C2042 C2043 1.358 . S
C2042 C2044 1.356 . S
C2042 H2096 0.930 . S
C2043 N2041 1.279 . S
C2043 C2042 1.358 . S
C2043 H2047 0.930 . S
C2044 C2042 1.356 . S
C2044 C2045 1.348 . S
C2045 C2040 1.353 . S
C2045 C2044 1.348 . S
C2045 H2097 0.929 . S
H2046 C2040 0.930 . S
H2047 C2043 0.930 . S
C2048 N2049 1.314 . S
C2048 C2050 1.353 . S
C2048 H2054 0.930 . S
N2049 Li2025 1.990 . S
N2049 C2048 1.314 . S
N2049 C2052 1.279 . S
C2050 C2048 1.353 . S
C2050 C2053 1.348 . S
C2050 H2098 0.929 . S
C2051 C2052 1.358 . S
C2051 C2053 1.356 . S
C2051 H2099 0.930 . S
C2052 N2049 1.279 . S
C2052 C2051 1.358 . S
C2052 H2055 0.930 . S
C2053 C2050 1.348 . S
C2053 C2051 1.356 . S
H2054 C2048 0.930 . S
H2055 C2052 0.930 . S
C2056 C2058 1.348 . S
C2056 C2059 1.356 . S
C2056 O2086 1.325 . S
N2057 C2060 1.314 . S
N2057 C2061 1.279 . S
C2058 C2056 1.348 . S
C2058 C2060 1.353 . S
C2058 H2100 0.929 . S
C2059 C2056 1.356 . S
C2059 C2061 1.358 . S
C2059 H2101 0.930 . S
C2060 N2057 1.314 . S
C2060 C2058 1.353 . S
C2060 H2102 0.930 . S
C2061 N2057 1.279 . S
C2061 C2059 1.358 . S
C2061 H2103 0.930 . S
C2062 C2063 1.348 . S
C2062 C2064 1.356 . S
C2062 O2087 1.325 . S
C2063 C2062 1.348 . S
C2063 C2065 1.353 . S
C2063 H2104 0.929 . S
C2064 C2062 1.356 . S
C2064 C2066 1.358 . S
C2064 H2105 0.930 . S
C2065 C2063 1.353 . S
C2065 N2067 1.314 . S
C2065 H2106 0.930 . S
C2066 C2064 1.358 . S
C2066 N2067 1.279 . S
C2066 H2107 0.930 . S
N2067 C2065 1.314 . S
N2067 C2066 1.279 . S
C2068 C2070 1.353 . S
C2068 N2071 1.314 . S
C2068 H2074 0.930 . S
C2069 N2071 1.279 . S
C2069 C2072 1.358 . S
C2069 H2075 0.930 . S
C2070 C2068 1.353 . S
C2070 C2073 1.348 . S
C2070 H2108 0.929 . S
N2071 Li2026 1.990 . S
N2071 C2068 1.314 . S
N2071 C2069 1.279 . S
C2072 C2069 1.358 . S
C2072 C2073 1.356 . S
C2072 H2109 0.930 . S
C2073 C2070 1.348 . S
C2073 C2072 1.356 . S
H2074 C2068 0.930 . S
H2075 C2069 0.930 . S
C2076 N2077 1.314 . S
C2076 C2078 1.353 . S
C2076 H2082 0.930 . S
N2077 Li2027 1.990 . S
N2077 C2076 1.314 . S
N2077 C2080 1.279 . S
C2078 C2076 1.353 . S
C2078 C2081 1.348 . S
C2078 H2110 0.929 . S
C2079 C2080 1.358 . S
C2079 C2081 1.356 . S
C2079 H2111 0.930 . S
C2080 N2077 1.279 . S
C2080 C2079 1.358 . S
C2080 H2083 0.930 . S
C2081 C2078 1.348 . S
C2081 C2079 1.356 . S
H2082 C2076 0.930 . S
H2083 C2080 0.930 . S
O2084 Li2024 1.956 . S
O2084 Li2025 1.970 . S
O2084 Li2026 1.961 . S
O2084 C2028 1.325 . S
O2085 Li2024 1.970 . S
O2085 Li2025 1.956 . S
O2085 Li2027 1.961 . S
O2085 C2034 1.325 . S
O2086 Li2024 1.961 . S
O2086 Li2026 1.956 . S
O2086 Li2027 1.970 . S
O2086 C2056 1.325 . S
O2087 Li2025 1.961 . S
O2087 Li2026 1.970 . S
O2087 Li2027 1.956 . S
O2087 C2062 1.325 . S
H2088 C2030 0.929 . S
H2089 C2031 0.930 . S
H2090 C2032 0.930 . S
H2091 C2033 0.930 . S
H2092 C2035 0.930 . S
H2093 C2037 0.929 . S
H2094 C2038 0.930 . S
H2095 C2039 0.930 . S
H2096 C2042 0.930 . S
H2097 C2045 0.929 . S
H2098 C2050 0.929 . S
H2099 C2051 0.930 . S
H2100 C2058 0.929 . S
H2101 C2059 0.930 . S
H2102 C2060 0.930 . S
H2103 C2061 0.930 . S
H2104 C2063 0.929 . S
H2105 C2064 0.930 . S
H2106 C2065 0.930 . S
H2107 C2066 0.930 . S
H2108 C2070 0.929 . S
H2109 C2072 0.930 . S
H2110 C2078 0.929 . S
H2111 C2079 0.930 . S
Li2112 N2129 1.990 . S
Li2112 O2172 1.956 . S
Li2112 O2173 1.970 . S
Li2112 O2174 1.961 . S
Li2113 N2137 1.990 . S
Li2113 O2172 1.970 . S
Li2113 O2173 1.956 . S
Li2113 O2175 1.961 . S
Li2114 N2159 1.990 . S
Li2114 O2172 1.961 . S
Li2114 O2174 1.956 . S
Li2114 O2175 1.970 . S
Li2115 N2165 1.990 . S
Li2115 O2173 1.961 . S
Li2115 O2174 1.970 . S
Li2115 O2175 1.956 . S
C2116 C2118 1.348 . S
C2116 C2119 1.356 . S
C2116 O2172 1.325 . S
N2117 C2120 1.314 . S
N2117 C2121 1.279 . S
C2118 C2116 1.348 . S
C2118 C2120 1.353 . S
C2118 H2176 0.929 . S
C2119 C2116 1.356 . S
C2119 C2121 1.358 . S
C2119 H2177 0.930 . S
C2120 N2117 1.314 . S
C2120 C2118 1.353 . S
C2120 H2178 0.930 . S
C2121 N2117 1.279 . S
C2121 C2119 1.358 . S
C2121 H2179 0.930 . S
C2122 C2125 1.348 . S
C2122 C2126 1.356 . S
C2122 O2173 1.325 . S
C2123 N2124 1.279 . S
C2123 C2126 1.358 . S
C2123 H2180 0.930 . S
N2124 C2123 1.279 . S
N2124 C2127 1.314 . S
C2125 C2122 1.348 . S
C2125 C2127 1.353 . S
C2125 H2181 0.929 . S
C2126 C2122 1.356 . S
C2126 C2123 1.358 . S
C2126 H2182 0.930 . S
C2127 N2124 1.314 . S
C2127 C2125 1.353 . S
C2127 H2183 0.930 . S
C2128 N2129 1.314 . S
C2128 C2133 1.353 . S
C2128 H2134 0.930 . S
N2129 Li2112 1.990 . S
N2129 C2128 1.314 . S
N2129 C2131 1.279 . S
C2130 C2131 1.358 . S
C2130 C2132 1.356 . S
C2130 H2184 0.930 . S
C2131 N2129 1.279 . S
C2131 C2130 1.358 . S
C2131 H2135 0.930 . S
C2132 C2130 1.356 . S
C2132 C2133 1.348 . S
C2133 C2128 1.353 . S
C2133 C2132 1.348 . S
C2133 H2185 0.929 . S
H2134 C2128 0.930 . S
H2135 C2131 0.930 . S
C2136 N2137 1.314 . S
C2136 C2138 1.353 . S
C2136 H2142 0.930 . S
N2137 Li2113 1.990 . S
N2137 C2136 1.314 . S
N2137 C2140 1.279 . S
C2138 C2136 1.353 . S
C2138 C2141 1.348 . S
C2138 H2186 0.929 . S
C2139 C2140 1.358 . S
C2139 C2141 1.356 . S
C2139 H2187 0.930 . S
C2140 N2137 1.279 . S
C2140 C2139 1.358 . S
C2140 H2143 0.930 . S
C2141 C2138 1.348 . S
C2141 C2139 1.356 . S
H2142 C2136 0.930 . S
H2143 C2140 0.930 . S
C2144 C2146 1.348 . S
C2144 C2147 1.356 . S
C2144 O2174 1.325 . S
N2145 C2148 1.314 . S
N2145 C2149 1.279 . S
C2146 C2144 1.348 . S
C2146 C2148 1.353 . S
C2146 H2188 0.929 . S
C2147 C2144 1.356 . S
C2147 C2149 1.358 . S
C2147 H2189 0.930 . S
C2148 N2145 1.314 . S
C2148 C2146 1.353 . S
C2148 H2190 0.930 . S
C2149 N2145 1.279 . S
C2149 C2147 1.358 . S
C2149 H2191 0.930 . S
C2150 C2151 1.348 . S
C2150 C2152 1.356 . S
C2150 O2175 1.325 . S
C2151 C2150 1.348 . S
C2151 C2153 1.353 . S
C2151 H2192 0.929 . S
C2152 C2150 1.356 . S
C2152 C2154 1.358 . S
C2152 H2193 0.930 . S
C2153 C2151 1.353 . S
C2153 N2155 1.314 . S
C2153 H2194 0.930 . S
C2154 C2152 1.358 . S
C2154 N2155 1.279 . S
C2154 H2195 0.930 . S
N2155 C2153 1.314 . S
N2155 C2154 1.279 . S
C2156 C2158 1.353 . S
C2156 N2159 1.314 . S
C2156 H2162 0.930 . S
C2157 N2159 1.279 . S
C2157 C2160 1.358 . S
C2157 H2163 0.930 . S
C2158 C2156 1.353 . S
C2158 C2161 1.348 . S
C2158 H2196 0.929 . S
N2159 Li2114 1.990 . S
N2159 C2156 1.314 . S
N2159 C2157 1.279 . S
C2160 C2157 1.358 . S
C2160 C2161 1.356 . S
C2160 H2197 0.930 . S
C2161 C2158 1.348 . S
C2161 C2160 1.356 . S
H2162 C2156 0.930 . S
H2163 C2157 0.930 . S
C2164 N2165 1.314 . S
C2164 C2166 1.353 . S
C2164 H2170 0.930 . S
N2165 Li2115 1.990 . S
N2165 C2164 1.314 . S
N2165 C2168 1.279 . S
C2166 C2164 1.353 . S
C2166 C2169 1.348 . S
C2166 H2198 0.929 . S
C2167 C2168 1.358 . S
C2167 C2169 1.356 . S
C2167 H2199 0.930 . S
C2168 N2165 1.279 . S
C2168 C2167 1.358 . S
C2168 H2171 0.930 . S
C2169 C2166 1.348 . S
C2169 C2167 1.356 . S
H2170 C2164 0.930 . S
H2171 C2168 0.930 . S
O2172 Li2112 1.956 . S
O2172 Li2113 1.970 . S
O2172 Li2114 1.961 . S
O2172 C2116 1.325 . S
O2173 Li2112 1.970 . S
O2173 Li2113 1.956 . S
O2173 Li2115 1.961 . S
O2173 C2122 1.325 . S
O2174 Li2112 1.961 . S
O2174 Li2114 1.956 . S
O2174 Li2115 1.970 . S
O2174 C2144 1.325 . S
O2175 Li2113 1.961 . S
O2175 Li2114 1.970 . S
O2175 Li2115 1.956 . S
O2175 C2150 1.325 . S
H2176 C2118 0.929 . S
H2177 C2119 0.930 . S
H2178 C2120 0.930 . S
H2179 C2121 0.930 . S
H2180 C2123 0.930 . S
H2181 C2125 0.929 . S
H2182 C2126 0.930 . S
H2183 C2127 0.930 . S
H2184 C2130 0.930 . S
H2185 C2133 0.929 . S
H2186 C2138 0.929 . S
H2187 C2139 0.930 . S
H2188 C2146 0.929 . S
H2189 C2147 0.930 . S
H2190 C2148 0.930 . S
H2191 C2149 0.930 . S
H2192 C2151 0.929 . S
H2193 C2152 0.930 . S
H2194 C2153 0.930 . S
H2195 C2154 0.930 . S
H2196 C2158 0.929 . S
H2197 C2160 0.930 . S
H2198 C2166 0.929 . S
H2199 C2167 0.930 . S
Li2200 N2217 1.990 . S
Li2200 O2260 1.956 . S
Li2200 O2261 1.970 . S
Li2200 O2262 1.961 . S
Li2201 N2225 1.990 . S
Li2201 O2260 1.970 . S
Li2201 O2261 1.956 . S
Li2201 O2263 1.961 . S
Li2202 N2247 1.990 . S
Li2202 O2260 1.961 . S
Li2202 O2262 1.956 . S
Li2202 O2263 1.970 . S
Li2203 N2253 1.990 . S
Li2203 O2261 1.961 . S
Li2203 O2262 1.970 . S
Li2203 O2263 1.956 . S
C2204 C2206 1.348 . S
C2204 C2207 1.356 . S
C2204 O2260 1.325 . S
N2205 C2208 1.314 . S
N2205 C2209 1.279 . S
C2206 C2204 1.348 . S
C2206 C2208 1.353 . S
C2206 H2264 0.929 . S
C2207 C2204 1.356 . S
C2207 C2209 1.358 . S
C2207 H2265 0.930 . S
C2208 N2205 1.314 . S
C2208 C2206 1.353 . S
C2208 H2266 0.930 . S
C2209 N2205 1.279 . S
C2209 C2207 1.358 . S
C2209 H2267 0.930 . S
C2210 C2213 1.348 . S
C2210 C2214 1.356 . S
C2210 O2261 1.325 . S
C2211 N2212 1.279 . S
C2211 C2214 1.358 . S
C2211 H2268 0.930 . S
N2212 C2211 1.279 . S
N2212 C2215 1.314 . S
C2213 C2210 1.348 . S
C2213 C2215 1.353 . S
C2213 H2269 0.929 . S
C2214 C2210 1.356 . S
C2214 C2211 1.358 . S
C2214 H2270 0.930 . S
C2215 N2212 1.314 . S
C2215 C2213 1.353 . S
C2215 H2271 0.930 . S
C2216 N2217 1.314 . S
C2216 C2221 1.353 . S
C2216 H2222 0.930 . S
N2217 Li2200 1.990 . S
N2217 C2216 1.314 . S
N2217 C2219 1.279 . S
C2218 C2219 1.358 . S
C2218 C2220 1.356 . S
C2218 H2272 0.930 . S
C2219 N2217 1.279 . S
C2219 C2218 1.358 . S
C2219 H2223 0.930 . S
C2220 C2218 1.356 . S
C2220 C2221 1.348 . S
C2221 C2216 1.353 . S
C2221 C2220 1.348 . S
C2221 H2273 0.929 . S
H2222 C2216 0.930 . S
H2223 C2219 0.930 . S
C2224 N2225 1.314 . S
C2224 C2226 1.353 . S
C2224 H2230 0.930 . S
N2225 Li2201 1.990 . S
N2225 C2224 1.314 . S
N2225 C2228 1.279 . S
C2226 C2224 1.353 . S
C2226 C2229 1.348 . S
C2226 H2274 0.929 . S
C2227 C2228 1.358 . S
C2227 C2229 1.356 . S
C2227 H2275 0.930 . S
C2228 N2225 1.279 . S
C2228 C2227 1.358 . S
C2228 H2231 0.930 . S
C2229 C2226 1.348 . S
C2229 C2227 1.356 . S
H2230 C2224 0.930 . S
H2231 C2228 0.930 . S
C2232 C2234 1.348 . S
C2232 C2235 1.356 . S
C2232 O2262 1.325 . S
N2233 C2236 1.314 . S
N2233 C2237 1.279 . S
C2234 C2232 1.348 . S
C2234 C2236 1.353 . S
C2234 H2276 0.929 . S
C2235 C2232 1.356 . S
C2235 C2237 1.358 . S
C2235 H2277 0.930 . S
C2236 N2233 1.314 . S
C2236 C2234 1.353 . S
C2236 H2278 0.930 . S
C2237 N2233 1.279 . S
C2237 C2235 1.358 . S
C2237 H2279 0.930 . S
C2238 C2239 1.348 . S
C2238 C2240 1.356 . S
C2238 O2263 1.325 . S
C2239 C2238 1.348 . S
C2239 C2241 1.353 . S
C2239 H2280 0.929 . S
C2240 C2238 1.356 . S
C2240 C2242 1.358 . S
C2240 H2281 0.930 . S
C2241 C2239 1.353 . S
C2241 N2243 1.314 . S
C2241 H2282 0.930 . S
C2242 C2240 1.358 . S
C2242 N2243 1.279 . S
C2242 H2283 0.930 . S
N2243 C2241 1.314 . S
N2243 C2242 1.279 . S
C2244 C2246 1.353 . S
C2244 N2247 1.314 . S
C2244 H2250 0.930 . S
C2245 N2247 1.279 . S
C2245 C2248 1.358 . S
C2245 H2251 0.930 . S
C2246 C2244 1.353 . S
C2246 C2249 1.348 . S
C2246 H2284 0.929 . S
N2247 Li2202 1.990 . S
N2247 C2244 1.314 . S
N2247 C2245 1.279 . S
C2248 C2245 1.358 . S
C2248 C2249 1.356 . S
C2248 H2285 0.930 . S
C2249 C2246 1.348 . S
C2249 C2248 1.356 . S
H2250 C2244 0.930 . S
H2251 C2245 0.930 . S
C2252 N2253 1.314 . S
C2252 C2254 1.353 . S
C2252 H2258 0.930 . S
N2253 Li2203 1.990 . S
N2253 C2252 1.314 . S
N2253 C2256 1.279 . S
C2254 C2252 1.353 . S
C2254 C2257 1.348 . S
C2254 H2286 0.929 . S
C2255 C2256 1.358 . S
C2255 C2257 1.356 . S
C2255 H2287 0.930 . S
C2256 N2253 1.279 . S
C2256 C2255 1.358 . S
C2256 H2259 0.930 . S
C2257 C2254 1.348 . S
C2257 C2255 1.356 . S
H2258 C2252 0.930 . S
H2259 C2256 0.930 . S
O2260 Li2200 1.956 . S
O2260 Li2201 1.970 . S
O2260 Li2202 1.961 . S
O2260 C2204 1.325 . S
O2261 Li2200 1.970 . S
O2261 Li2201 1.956 . S
O2261 Li2203 1.961 . S
O2261 C2210 1.325 . S
O2262 Li2200 1.961 . S
O2262 Li2202 1.956 . S
O2262 Li2203 1.970 . S
O2262 C2232 1.325 . S
O2263 Li2201 1.961 . S
O2263 Li2202 1.970 . S
O2263 Li2203 1.956 . S
O2263 C2238 1.325 . S
H2264 C2206 0.929 . S
H2265 C2207 0.930 . S
H2266 C2208 0.930 . S
H2267 C2209 0.930 . S
H2268 C2211 0.930 . S
H2269 C2213 0.929 . S
H2270 C2214 0.930 . S
H2271 C2215 0.930 . S
H2272 C2218 0.930 . S
H2273 C2221 0.929 . S
H2274 C2226 0.929 . S
H2275 C2227 0.930 . S
H2276 C2234 0.929 . S
H2277 C2235 0.930 . S
H2278 C2236 0.930 . S
H2279 C2237 0.930 . S
H2280 C2239 0.929 . S
H2281 C2240 0.930 . S
H2282 C2241 0.930 . S
H2283 C2242 0.930 . S
H2284 C2246 0.929 . S
H2285 C2248 0.930 . S
H2286 C2254 0.929 . S
H2287 C2255 0.930 . S
Li2288 N2305 1.990 . S
Li2288 O2348 1.956 . S
Li2288 O2349 1.970 . S
Li2288 O2350 1.961 . S
Li2289 N2313 1.990 . S
Li2289 O2348 1.970 . S
Li2289 O2349 1.956 . S
Li2289 O2351 1.961 . S
Li2290 N2335 1.990 . S
Li2290 O2348 1.961 . S
Li2290 O2350 1.956 . S
Li2290 O2351 1.970 . S
Li2291 N2341 1.990 . S
Li2291 O2349 1.961 . S
Li2291 O2350 1.970 . S
Li2291 O2351 1.956 . S
C2292 C2294 1.348 . S
C2292 C2295 1.356 . S
C2292 O2348 1.325 . S
N2293 C2296 1.314 . S
N2293 C2297 1.279 . S
C2294 C2292 1.348 . S
C2294 C2296 1.353 . S
C2294 H2352 0.929 . S
C2295 C2292 1.356 . S
C2295 C2297 1.358 . S
C2295 H2353 0.930 . S
C2296 N2293 1.314 . S
C2296 C2294 1.353 . S
C2296 H2354 0.930 . S
C2297 N2293 1.279 . S
C2297 C2295 1.358 . S
C2297 H2355 0.930 . S
C2298 C2301 1.348 . S
C2298 C2302 1.356 . S
C2298 O2349 1.325 . S
C2299 N2300 1.279 . S
C2299 C2302 1.358 . S
C2299 H2356 0.930 . S
N2300 C2299 1.279 . S
N2300 C2303 1.314 . S
C2301 C2298 1.348 . S
C2301 C2303 1.353 . S
C2301 H2357 0.929 . S
C2302 C2298 1.356 . S
C2302 C2299 1.358 . S
C2302 H2358 0.930 . S
C2303 N2300 1.314 . S
C2303 C2301 1.353 . S
C2303 H2359 0.930 . S
C2304 N2305 1.314 . S
C2304 C2309 1.353 . S
C2304 H2310 0.930 . S
N2305 Li2288 1.990 . S
N2305 C2304 1.314 . S
N2305 C2307 1.279 . S
C2306 C2307 1.358 . S
C2306 C2308 1.356 . S
C2306 H2360 0.930 . S
C2307 N2305 1.279 . S
C2307 C2306 1.358 . S
C2307 H2311 0.930 . S
C2308 C2306 1.356 . S
C2308 C2309 1.348 . S
C2309 C2304 1.353 . S
C2309 C2308 1.348 . S
C2309 H2361 0.929 . S
H2310 C2304 0.930 . S
H2311 C2307 0.930 . S
C2312 N2313 1.314 . S
C2312 C2314 1.353 . S
C2312 H2318 0.930 . S
N2313 Li2289 1.990 . S
N2313 C2312 1.314 . S
N2313 C2316 1.279 . S
C2314 C2312 1.353 . S
C2314 C2317 1.348 . S
C2314 H2362 0.929 . S
C2315 C2316 1.358 . S
C2315 C2317 1.356 . S
C2315 H2363 0.930 . S
C2316 N2313 1.279 . S
C2316 C2315 1.358 . S
C2316 H2319 0.930 . S
C2317 C2314 1.348 . S
C2317 C2315 1.356 . S
H2318 C2312 0.930 . S
H2319 C2316 0.930 . S
C2320 C2322 1.348 . S
C2320 C2323 1.356 . S
C2320 O2350 1.325 . S
N2321 C2324 1.314 . S
N2321 C2325 1.279 . S
C2322 C2320 1.348 . S
C2322 C2324 1.353 . S
C2322 H2364 0.929 . S
C2323 C2320 1.356 . S
C2323 C2325 1.358 . S
C2323 H2365 0.930 . S
C2324 N2321 1.314 . S
C2324 C2322 1.353 . S
C2324 H2366 0.930 . S
C2325 N2321 1.279 . S
C2325 C2323 1.358 . S
C2325 H2367 0.930 . S
C2326 C2327 1.348 . S
C2326 C2328 1.356 . S
C2326 O2351 1.325 . S
C2327 C2326 1.348 . S
C2327 C2329 1.353 . S
C2327 H2368 0.929 . S
C2328 C2326 1.356 . S
C2328 C2330 1.358 . S
C2328 H2369 0.930 . S
C2329 C2327 1.353 . S
C2329 N2331 1.314 . S
C2329 H2370 0.930 . S
C2330 C2328 1.358 . S
C2330 N2331 1.279 . S
C2330 H2371 0.930 . S
N2331 C2329 1.314 . S
N2331 C2330 1.279 . S
C2332 C2334 1.353 . S
C2332 N2335 1.314 . S
C2332 H2338 0.930 . S
C2333 N2335 1.279 . S
C2333 C2336 1.358 . S
C2333 H2339 0.930 . S
C2334 C2332 1.353 . S
C2334 C2337 1.348 . S
C2334 H2372 0.929 . S
N2335 Li2290 1.990 . S
N2335 C2332 1.314 . S
N2335 C2333 1.279 . S
C2336 C2333 1.358 . S
C2336 C2337 1.356 . S
C2336 H2373 0.930 . S
C2337 C2334 1.348 . S
C2337 C2336 1.356 . S
H2338 C2332 0.930 . S
H2339 C2333 0.930 . S
C2340 N2341 1.314 . S
C2340 C2342 1.353 . S
C2340 H2346 0.930 . S
N2341 Li2291 1.990 . S
N2341 C2340 1.314 . S
N2341 C2344 1.279 . S
C2342 C2340 1.353 . S
C2342 C2345 1.348 . S
C2342 H2374 0.929 . S
C2343 C2344 1.358 . S
C2343 C2345 1.356 . S
C2343 H2375 0.930 . S
C2344 N2341 1.279 . S
C2344 C2343 1.358 . S
C2344 H2347 0.930 . S
C2345 C2342 1.348 . S
C2345 C2343 1.356 . S
H2346 C2340 0.930 . S
H2347 C2344 0.930 . S
O2348 Li2288 1.956 . S
O2348 Li2289 1.970 . S
O2348 Li2290 1.961 . S
O2348 C2292 1.325 . S
O2349 Li2288 1.970 . S
O2349 Li2289 1.956 . S
O2349 Li2291 1.961 . S
O2349 C2298 1.325 . S
O2350 Li2288 1.961 . S
O2350 Li2290 1.956 . S
O2350 Li2291 1.970 . S
O2350 C2320 1.325 . S
O2351 Li2289 1.961 . S
O2351 Li2290 1.970 . S
O2351 Li2291 1.956 . S
O2351 C2326 1.325 . S
H2352 C2294 0.929 . S
H2353 C2295 0.930 . S
H2354 C2296 0.930 . S
H2355 C2297 0.930 . S
H2356 C2299 0.930 . S
H2357 C2301 0.929 . S
H2358 C2302 0.930 . S
H2359 C2303 0.930 . S
H2360 C2306 0.930 . S
H2361 C2309 0.929 . S
H2362 C2314 0.929 . S
H2363 C2315 0.930 . S
H2364 C2322 0.929 . S
H2365 C2323 0.930 . S
H2366 C2324 0.930 . S
H2367 C2325 0.930 . S
H2368 C2327 0.929 . S
H2369 C2328 0.930 . S
H2370 C2329 0.930 . S
H2371 C2330 0.930 . S
H2372 C2334 0.929 . S
H2373 C2336 0.930 . S
H2374 C2342 0.929 . S
H2375 C2343 0.930 . S
Li2376 N2393 1.990 . S
Li2376 O2436 1.956 . S
Li2376 O2437 1.970 . S
Li2376 O2438 1.961 . S
Li2377 N2401 1.990 . S
Li2377 O2436 1.970 . S
Li2377 O2437 1.956 . S
Li2377 O2439 1.961 . S
Li2378 N2423 1.990 . S
Li2378 O2436 1.961 . S
Li2378 O2438 1.956 . S
Li2378 O2439 1.970 . S
Li2379 N2429 1.990 . S
Li2379 O2437 1.961 . S
Li2379 O2438 1.970 . S
Li2379 O2439 1.956 . S
C2380 C2382 1.348 . S
C2380 C2383 1.356 . S
C2380 O2436 1.325 . S
N2381 C2384 1.314 . S
N2381 C2385 1.279 . S
C2382 C2380 1.348 . S
C2382 C2384 1.353 . S
C2382 H2440 0.929 . S
C2383 C2380 1.356 . S
C2383 C2385 1.358 . S
C2383 H2441 0.930 . S
C2384 N2381 1.314 . S
C2384 C2382 1.353 . S
C2384 H2442 0.930 . S
C2385 N2381 1.279 . S
C2385 C2383 1.358 . S
C2385 H2443 0.930 . S
C2386 C2389 1.348 . S
C2386 C2390 1.356 . S
C2386 O2437 1.325 . S
C2387 N2388 1.279 . S
C2387 C2390 1.358 . S
C2387 H2444 0.930 . S
N2388 C2387 1.279 . S
N2388 C2391 1.314 . S
C2389 C2386 1.348 . S
C2389 C2391 1.353 . S
C2389 H2445 0.929 . S
C2390 C2386 1.356 . S
C2390 C2387 1.358 . S
C2390 H2446 0.930 . S
C2391 N2388 1.314 . S
C2391 C2389 1.353 . S
C2391 H2447 0.930 . S
C2392 N2393 1.314 . S
C2392 C2397 1.353 . S
C2392 H2398 0.930 . S
N2393 Li2376 1.990 . S
N2393 C2392 1.314 . S
N2393 C2395 1.279 . S
C2394 C2395 1.358 . S
C2394 C2396 1.356 . S
C2394 H2448 0.930 . S
C2395 N2393 1.279 . S
C2395 C2394 1.358 . S
C2395 H2399 0.930 . S
C2396 C2394 1.356 . S
C2396 C2397 1.348 . S
C2397 C2392 1.353 . S
C2397 C2396 1.348 . S
C2397 H2449 0.929 . S
H2398 C2392 0.930 . S
H2399 C2395 0.930 . S
C2400 N2401 1.314 . S
C2400 C2402 1.353 . S
C2400 H2406 0.930 . S
N2401 Li2377 1.990 . S
N2401 C2400 1.314 . S
N2401 C2404 1.279 . S
C2402 C2400 1.353 . S
C2402 C2405 1.348 . S
C2402 H2450 0.929 . S
C2403 C2404 1.358 . S
C2403 C2405 1.356 . S
C2403 H2451 0.930 . S
C2404 N2401 1.279 . S
C2404 C2403 1.358 . S
C2404 H2407 0.930 . S
C2405 C2402 1.348 . S
C2405 C2403 1.356 . S
H2406 C2400 0.930 . S
H2407 C2404 0.930 . S
C2408 C2410 1.348 . S
C2408 C2411 1.356 . S
C2408 O2438 1.325 . S
N2409 C2412 1.314 . S
N2409 C2413 1.279 . S
C2410 C2408 1.348 . S
C2410 C2412 1.353 . S
C2410 H2452 0.929 . S
C2411 C2408 1.356 . S
C2411 C2413 1.358 . S
C2411 H2453 0.930 . S
C2412 N2409 1.314 . S
C2412 C2410 1.353 . S
C2412 H2454 0.930 . S
C2413 N2409 1.279 . S
C2413 C2411 1.358 . S
C2413 H2455 0.930 . S
C2414 C2415 1.348 . S
C2414 C2416 1.356 . S
C2414 O2439 1.325 . S
C2415 C2414 1.348 . S
C2415 C2417 1.353 . S
C2415 H2456 0.929 . S
C2416 C2414 1.356 . S
C2416 C2418 1.358 . S
C2416 H2457 0.930 . S
C2417 C2415 1.353 . S
C2417 N2419 1.314 . S
C2417 H2458 0.930 . S
C2418 C2416 1.358 . S
C2418 N2419 1.279 . S
C2418 H2459 0.930 . S
N2419 C2417 1.314 . S
N2419 C2418 1.279 . S
C2420 C2422 1.353 . S
C2420 N2423 1.314 . S
C2420 H2426 0.930 . S
C2421 N2423 1.279 . S
C2421 C2424 1.358 . S
C2421 H2427 0.930 . S
C2422 C2420 1.353 . S
C2422 C2425 1.348 . S
C2422 H2460 0.929 . S
N2423 Li2378 1.990 . S
N2423 C2420 1.314 . S
N2423 C2421 1.279 . S
C2424 C2421 1.358 . S
C2424 C2425 1.356 . S
C2424 H2461 0.930 . S
C2425 C2422 1.348 . S
C2425 C2424 1.356 . S
H2426 C2420 0.930 . S
H2427 C2421 0.930 . S
C2428 N2429 1.314 . S
C2428 C2430 1.353 . S
C2428 H2434 0.930 . S
N2429 Li2379 1.990 . S
N2429 C2428 1.314 . S
N2429 C2432 1.279 . S
C2430 C2428 1.353 . S
C2430 C2433 1.348 . S
C2430 H2462 0.929 . S
C2431 C2432 1.358 . S
C2431 C2433 1.356 . S
C2431 H2463 0.930 . S
C2432 N2429 1.279 . S
C2432 C2431 1.358 . S
C2432 H2435 0.930 . S
C2433 C2430 1.348 . S
C2433 C2431 1.356 . S
H2434 C2428 0.930 . S
H2435 C2432 0.930 . S
O2436 Li2376 1.956 . S
O2436 Li2377 1.970 . S
O2436 Li2378 1.961 . S
O2436 C2380 1.325 . S
O2437 Li2376 1.970 . S
O2437 Li2377 1.956 . S
O2437 Li2379 1.961 . S
O2437 C2386 1.325 . S
O2438 Li2376 1.961 . S
O2438 Li2378 1.956 . S
O2438 Li2379 1.970 . S
O2438 C2408 1.325 . S
O2439 Li2377 1.961 . S
O2439 Li2378 1.970 . S
O2439 Li2379 1.956 . S
O2439 C2414 1.325 . S
H2440 C2382 0.929 . S
H2441 C2383 0.930 . S
H2442 C2384 0.930 . S
H2443 C2385 0.930 . S
H2444 C2387 0.930 . S
H2445 C2389 0.929 . S
H2446 C2390 0.930 . S
H2447 C2391 0.930 . S
H2448 C2394 0.930 . S
H2449 C2397 0.929 . S
H2450 C2402 0.929 . S
H2451 C2403 0.930 . S
H2452 C2410 0.929 . S
H2453 C2411 0.930 . S
H2454 C2412 0.930 . S
H2455 C2413 0.930 . S
H2456 C2415 0.929 . S
H2457 C2416 0.930 . S
H2458 C2417 0.930 . S
H2459 C2418 0.930 . S
H2460 C2422 0.929 . S
H2461 C2424 0.930 . S
H2462 C2430 0.929 . S
H2463 C2431 0.930 . S
Li2464 N2481 1.990 . S
Li2464 O2524 1.956 . S
Li2464 O2525 1.970 . S
Li2464 O2526 1.961 . S
Li2465 N2489 1.990 . S
Li2465 O2524 1.970 . S
Li2465 O2525 1.956 . S
Li2465 O2527 1.961 . S
Li2466 N2511 1.990 . S
Li2466 O2524 1.961 . S
Li2466 O2526 1.956 . S
Li2466 O2527 1.970 . S
Li2467 N2517 1.990 . S
Li2467 O2525 1.961 . S
Li2467 O2526 1.970 . S
Li2467 O2527 1.956 . S
C2468 C2470 1.348 . S
C2468 C2471 1.356 . S
C2468 O2524 1.325 . S
N2469 C2472 1.314 . S
N2469 C2473 1.279 . S
C2470 C2468 1.348 . S
C2470 C2472 1.353 . S
C2470 H2528 0.929 . S
C2471 C2468 1.356 . S
C2471 C2473 1.358 . S
C2471 H2529 0.930 . S
C2472 N2469 1.314 . S
C2472 C2470 1.353 . S
C2472 H2530 0.930 . S
C2473 N2469 1.279 . S
C2473 C2471 1.358 . S
C2473 H2531 0.930 . S
C2474 C2477 1.348 . S
C2474 C2478 1.356 . S
C2474 O2525 1.325 . S
C2475 N2476 1.279 . S
C2475 C2478 1.358 . S
C2475 H2532 0.930 . S
N2476 C2475 1.279 . S
N2476 C2479 1.314 . S
C2477 C2474 1.348 . S
C2477 C2479 1.353 . S
C2477 H2533 0.929 . S
C2478 C2474 1.356 . S
C2478 C2475 1.358 . S
C2478 H2534 0.930 . S
C2479 N2476 1.314 . S
C2479 C2477 1.353 . S
C2479 H2535 0.930 . S
C2480 N2481 1.314 . S
C2480 C2485 1.353 . S
C2480 H2486 0.930 . S
N2481 Li2464 1.990 . S
N2481 C2480 1.314 . S
N2481 C2483 1.279 . S
C2482 C2483 1.358 . S
C2482 C2484 1.356 . S
C2482 H2536 0.930 . S
C2483 N2481 1.279 . S
C2483 C2482 1.358 . S
C2483 H2487 0.930 . S
C2484 C2482 1.356 . S
C2484 C2485 1.348 . S
C2485 C2480 1.353 . S
C2485 C2484 1.348 . S
C2485 H2537 0.929 . S
H2486 C2480 0.930 . S
H2487 C2483 0.930 . S
C2488 N2489 1.314 . S
C2488 C2490 1.353 . S
C2488 H2494 0.930 . S
N2489 Li2465 1.990 . S
N2489 C2488 1.314 . S
N2489 C2492 1.279 . S
C2490 C2488 1.353 . S
C2490 C2493 1.348 . S
C2490 H2538 0.929 . S
C2491 C2492 1.358 . S
C2491 C2493 1.356 . S
C2491 H2539 0.930 . S
C2492 N2489 1.279 . S
C2492 C2491 1.358 . S
C2492 H2495 0.930 . S
C2493 C2490 1.348 . S
C2493 C2491 1.356 . S
H2494 C2488 0.930 . S
H2495 C2492 0.930 . S
C2496 C2498 1.348 . S
C2496 C2499 1.356 . S
C2496 O2526 1.325 . S
N2497 C2500 1.314 . S
N2497 C2501 1.279 . S
C2498 C2496 1.348 . S
C2498 C2500 1.353 . S
C2498 H2540 0.929 . S
C2499 C2496 1.356 . S
C2499 C2501 1.358 . S
C2499 H2541 0.930 . S
C2500 N2497 1.314 . S
C2500 C2498 1.353 . S
C2500 H2542 0.930 . S
C2501 N2497 1.279 . S
C2501 C2499 1.358 . S
C2501 H2543 0.930 . S
C2502 C2503 1.348 . S
C2502 C2504 1.356 . S
C2502 O2527 1.325 . S
C2503 C2502 1.348 . S
C2503 C2505 1.353 . S
C2503 H2544 0.929 . S
C2504 C2502 1.356 . S
C2504 C2506 1.358 . S
C2504 H2545 0.930 . S
C2505 C2503 1.353 . S
C2505 N2507 1.314 . S
C2505 H2546 0.930 . S
C2506 C2504 1.358 . S
C2506 N2507 1.279 . S
C2506 H2547 0.930 . S
N2507 C2505 1.314 . S
N2507 C2506 1.279 . S
C2508 C2510 1.353 . S
C2508 N2511 1.314 . S
C2508 H2514 0.930 . S
C2509 N2511 1.279 . S
C2509 C2512 1.358 . S
C2509 H2515 0.930 . S
C2510 C2508 1.353 . S
C2510 C2513 1.348 . S
C2510 H2548 0.929 . S
N2511 Li2466 1.990 . S
N2511 C2508 1.314 . S
N2511 C2509 1.279 . S
C2512 C2509 1.358 . S
C2512 C2513 1.356 . S
C2512 H2549 0.930 . S
C2513 C2510 1.348 . S
C2513 C2512 1.356 . S
H2514 C2508 0.930 . S
H2515 C2509 0.930 . S
C2516 N2517 1.314 . S
C2516 C2518 1.353 . S
C2516 H2522 0.930 . S
N2517 Li2467 1.990 . S
N2517 C2516 1.314 . S
N2517 C2520 1.279 . S
C2518 C2516 1.353 . S
C2518 C2521 1.348 . S
C2518 H2550 0.929 . S
C2519 C2520 1.358 . S
C2519 C2521 1.356 . S
C2519 H2551 0.930 . S
C2520 N2517 1.279 . S
C2520 C2519 1.358 . S
C2520 H2523 0.930 . S
C2521 C2518 1.348 . S
C2521 C2519 1.356 . S
H2522 C2516 0.930 . S
H2523 C2520 0.930 . S
O2524 Li2464 1.956 . S
O2524 Li2465 1.970 . S
O2524 Li2466 1.961 . S
O2524 C2468 1.325 . S
O2525 Li2464 1.970 . S
O2525 Li2465 1.956 . S
O2525 Li2467 1.961 . S
O2525 C2474 1.325 . S
O2526 Li2464 1.961 . S
O2526 Li2466 1.956 . S
O2526 Li2467 1.970 . S
O2526 C2496 1.325 . S
O2527 Li2465 1.961 . S
O2527 Li2466 1.970 . S
O2527 Li2467 1.956 . S
O2527 C2502 1.325 . S
H2528 C2470 0.929 . S
H2529 C2471 0.930 . S
H2530 C2472 0.930 . S
H2531 C2473 0.930 . S
H2532 C2475 0.930 . S
H2533 C2477 0.929 . S
H2534 C2478 0.930 . S
H2535 C2479 0.930 . S
H2536 C2482 0.930 . S
H2537 C2485 0.929 . S
H2538 C2490 0.929 . S
H2539 C2491 0.930 . S
H2540 C2498 0.929 . S
H2541 C2499 0.930 . S
H2542 C2500 0.930 . S
H2543 C2501 0.930 . S
H2544 C2503 0.929 . S
H2545 C2504 0.930 . S
H2546 C2505 0.930 . S
H2547 C2506 0.930 . S
H2548 C2510 0.929 . S
H2549 C2512 0.930 . S
H2550 C2518 0.929 . S
H2551 C2519 0.930 . S
Li2552 N2569 1.990 . S
Li2552 O2612 1.956 . S
Li2552 O2613 1.970 . S
Li2552 O2614 1.961 . S
Li2553 N2577 1.990 . S
Li2553 O2612 1.970 . S
Li2553 O2613 1.956 . S
Li2553 O2615 1.961 . S
Li2554 N2599 1.990 . S
Li2554 O2612 1.961 . S
Li2554 O2614 1.956 . S
Li2554 O2615 1.970 . S
Li2555 N2605 1.990 . S
Li2555 O2613 1.961 . S
Li2555 O2614 1.970 . S
Li2555 O2615 1.956 . S
C2556 C2558 1.348 . S
C2556 C2559 1.356 . S
C2556 O2612 1.325 . S
N2557 C2560 1.314 . S
N2557 C2561 1.279 . S
C2558 C2556 1.348 . S
C2558 C2560 1.353 . S
C2558 H2616 0.929 . S
C2559 C2556 1.356 . S
C2559 C2561 1.358 . S
C2559 H2617 0.930 . S
C2560 N2557 1.314 . S
C2560 C2558 1.353 . S
C2560 H2618 0.930 . S
C2561 N2557 1.279 . S
C2561 C2559 1.358 . S
C2561 H2619 0.930 . S
C2562 C2565 1.348 . S
C2562 C2566 1.356 . S
C2562 O2613 1.325 . S
C2563 N2564 1.279 . S
C2563 C2566 1.358 . S
C2563 H2620 0.930 . S
N2564 C2563 1.279 . S
N2564 C2567 1.314 . S
C2565 C2562 1.348 . S
C2565 C2567 1.353 . S
C2565 H2621 0.929 . S
C2566 C2562 1.356 . S
C2566 C2563 1.358 . S
C2566 H2622 0.930 . S
C2567 N2564 1.314 . S
C2567 C2565 1.353 . S
C2567 H2623 0.930 . S
C2568 N2569 1.314 . S
C2568 C2573 1.353 . S
C2568 H2574 0.930 . S
N2569 Li2552 1.990 . S
N2569 C2568 1.314 . S
N2569 C2571 1.279 . S
C2570 C2571 1.358 . S
C2570 C2572 1.356 . S
C2570 H2624 0.930 . S
C2571 N2569 1.279 . S
C2571 C2570 1.358 . S
C2571 H2575 0.930 . S
C2572 C2570 1.356 . S
C2572 C2573 1.348 . S
C2573 C2568 1.353 . S
C2573 C2572 1.348 . S
C2573 H2625 0.929 . S
H2574 C2568 0.930 . S
H2575 C2571 0.930 . S
C2576 N2577 1.314 . S
C2576 C2578 1.353 . S
C2576 H2582 0.930 . S
N2577 Li2553 1.990 . S
N2577 C2576 1.314 . S
N2577 C2580 1.279 . S
C2578 C2576 1.353 . S
C2578 C2581 1.348 . S
C2578 H2626 0.929 . S
C2579 C2580 1.358 . S
C2579 C2581 1.356 . S
C2579 H2627 0.930 . S
C2580 N2577 1.279 . S
C2580 C2579 1.358 . S
C2580 H2583 0.930 . S
C2581 C2578 1.348 . S
C2581 C2579 1.356 . S
H2582 C2576 0.930 . S
H2583 C2580 0.930 . S
C2584 C2586 1.348 . S
C2584 C2587 1.356 . S
C2584 O2614 1.325 . S
N2585 C2588 1.314 . S
N2585 C2589 1.279 . S
C2586 C2584 1.348 . S
C2586 C2588 1.353 . S
C2586 H2628 0.929 . S
C2587 C2584 1.356 . S
C2587 C2589 1.358 . S
C2587 H2629 0.930 . S
C2588 N2585 1.314 . S
C2588 C2586 1.353 . S
C2588 H2630 0.930 . S
C2589 N2585 1.279 . S
C2589 C2587 1.358 . S
C2589 H2631 0.930 . S
C2590 C2591 1.348 . S
C2590 C2592 1.356 . S
C2590 O2615 1.325 . S
C2591 C2590 1.348 . S
C2591 C2593 1.353 . S
C2591 H2632 0.929 . S
C2592 C2590 1.356 . S
C2592 C2594 1.358 . S
C2592 H2633 0.930 . S
C2593 C2591 1.353 . S
C2593 N2595 1.314 . S
C2593 H2634 0.930 . S
C2594 C2592 1.358 . S
C2594 N2595 1.279 . S
C2594 H2635 0.930 . S
N2595 C2593 1.314 . S
N2595 C2594 1.279 . S
C2596 C2598 1.353 . S
C2596 N2599 1.314 . S
C2596 H2602 0.930 . S
C2597 N2599 1.279 . S
C2597 C2600 1.358 . S
C2597 H2603 0.930 . S
C2598 C2596 1.353 . S
C2598 C2601 1.348 . S
C2598 H2636 0.929 . S
N2599 Li2554 1.990 . S
N2599 C2596 1.314 . S
N2599 C2597 1.279 . S
C2600 C2597 1.358 . S
C2600 C2601 1.356 . S
C2600 H2637 0.930 . S
C2601 C2598 1.348 . S
C2601 C2600 1.356 . S
H2602 C2596 0.930 . S
H2603 C2597 0.930 . S
C2604 N2605 1.314 . S
C2604 C2606 1.353 . S
C2604 H2610 0.930 . S
N2605 Li2555 1.990 . S
N2605 C2604 1.314 . S
N2605 C2608 1.279 . S
C2606 C2604 1.353 . S
C2606 C2609 1.348 . S
C2606 H2638 0.929 . S
C2607 C2608 1.358 . S
C2607 C2609 1.356 . S
C2607 H2639 0.930 . S
C2608 N2605 1.279 . S
C2608 C2607 1.358 . S
C2608 H2611 0.930 . S
C2609 C2606 1.348 . S
C2609 C2607 1.356 . S
H2610 C2604 0.930 . S
H2611 C2608 0.930 . S
O2612 Li2552 1.956 . S
O2612 Li2553 1.970 . S
O2612 Li2554 1.961 . S
O2612 C2556 1.325 . S
O2613 Li2552 1.970 . S
O2613 Li2553 1.956 . S
O2613 Li2555 1.961 . S
O2613 C2562 1.325 . S
O2614 Li2552 1.961 . S
O2614 Li2554 1.956 . S
O2614 Li2555 1.970 . S
O2614 C2584 1.325 . S
O2615 Li2553 1.961 . S
O2615 Li2554 1.970 . S
O2615 Li2555 1.956 . S
O2615 C2590 1.325 . S
H2616 C2558 0.929 . S
H2617 C2559 0.930 . S
H2618 C2560 0.930 . S
H2619 C2561 0.930 . S
H2620 C2563 0.930 . S
H2621 C2565 0.929 . S
H2622 C2566 0.930 . S
H2623 C2567 0.930 . S
H2624 C2570 0.930 . S
H2625 C2573 0.929 . S
H2626 C2578 0.929 . S
H2627 C2579 0.930 . S
H2628 C2586 0.929 . S
H2629 C2587 0.930 . S
H2630 C2588 0.930 . S
H2631 C2589 0.930 . S
H2632 C2591 0.929 . S
H2633 C2592 0.930 . S
H2634 C2593 0.930 . S
H2635 C2594 0.930 . S
H2636 C2598 0.929 . S
H2637 C2600 0.930 . S
H2638 C2606 0.929 . S
H2639 C2607 0.930 . S
Li2640 N2657 1.990 . S
Li2640 O2700 1.956 . S
Li2640 O2701 1.970 . S
Li2640 O2702 1.961 . S
Li2641 N2665 1.990 . S
Li2641 O2700 1.970 . S
Li2641 O2701 1.956 . S
Li2641 O2703 1.961 . S
Li2642 N2687 1.990 . S
Li2642 O2700 1.961 . S
Li2642 O2702 1.956 . S
Li2642 O2703 1.970 . S
Li2643 N2693 1.990 . S
Li2643 O2701 1.961 . S
Li2643 O2702 1.970 . S
Li2643 O2703 1.956 . S
C2644 C2646 1.348 . S
C2644 C2647 1.356 . S
C2644 O2700 1.325 . S
N2645 C2648 1.314 . S
N2645 C2649 1.279 . S
C2646 C2644 1.348 . S
C2646 C2648 1.353 . S
C2646 H2704 0.929 . S
C2647 C2644 1.356 . S
C2647 C2649 1.358 . S
C2647 H2705 0.930 . S
C2648 N2645 1.314 . S
C2648 C2646 1.353 . S
C2648 H2706 0.930 . S
C2649 N2645 1.279 . S
C2649 C2647 1.358 . S
C2649 H2707 0.930 . S
C2650 C2653 1.348 . S
C2650 C2654 1.356 . S
C2650 O2701 1.325 . S
C2651 N2652 1.279 . S
C2651 C2654 1.358 . S
C2651 H2708 0.930 . S
N2652 C2651 1.279 . S
N2652 C2655 1.314 . S
C2653 C2650 1.348 . S
C2653 C2655 1.353 . S
C2653 H2709 0.929 . S
C2654 C2650 1.356 . S
C2654 C2651 1.358 . S
C2654 H2710 0.930 . S
C2655 N2652 1.314 . S
C2655 C2653 1.353 . S
C2655 H2711 0.930 . S
C2656 N2657 1.314 . S
C2656 C2661 1.353 . S
C2656 H2662 0.930 . S
N2657 Li2640 1.990 . S
N2657 C2656 1.314 . S
N2657 C2659 1.279 . S
C2658 C2659 1.358 . S
C2658 C2660 1.356 . S
C2658 H2712 0.930 . S
C2659 N2657 1.279 . S
C2659 C2658 1.358 . S
C2659 H2663 0.930 . S
C2660 C2658 1.356 . S
C2660 C2661 1.348 . S
C2661 C2656 1.353 . S
C2661 C2660 1.348 . S
C2661 H2713 0.929 . S
H2662 C2656 0.930 . S
H2663 C2659 0.930 . S
C2664 N2665 1.314 . S
C2664 C2666 1.353 . S
C2664 H2670 0.930 . S
N2665 Li2641 1.990 . S
N2665 C2664 1.314 . S
N2665 C2668 1.279 . S
C2666 C2664 1.353 . S
C2666 C2669 1.348 . S
C2666 H2714 0.929 . S
C2667 C2668 1.358 . S
C2667 C2669 1.356 . S
C2667 H2715 0.930 . S
C2668 N2665 1.279 . S
C2668 C2667 1.358 . S
C2668 H2671 0.930 . S
C2669 C2666 1.348 . S
C2669 C2667 1.356 . S
H2670 C2664 0.930 . S
H2671 C2668 0.930 . S
C2672 C2674 1.348 . S
C2672 C2675 1.356 . S
C2672 O2702 1.325 . S
N2673 C2676 1.314 . S
N2673 C2677 1.279 . S
C2674 C2672 1.348 . S
C2674 C2676 1.353 . S
C2674 H2716 0.929 . S
C2675 C2672 1.356 . S
C2675 C2677 1.358 . S
C2675 H2717 0.930 . S
C2676 N2673 1.314 . S
C2676 C2674 1.353 . S
C2676 H2718 0.930 . S
C2677 N2673 1.279 . S
C2677 C2675 1.358 . S
C2677 H2719 0.930 . S
C2678 C2679 1.348 . S
C2678 C2680 1.356 . S
C2678 O2703 1.325 . S
C2679 C2678 1.348 . S
C2679 C2681 1.353 . S
C2679 H2720 0.929 . S
C2680 C2678 1.356 . S
C2680 C2682 1.358 . S
C2680 H2721 0.930 . S
C2681 C2679 1.353 . S
C2681 N2683 1.314 . S
C2681 H2722 0.930 . S
C2682 C2680 1.358 . S
C2682 N2683 1.279 . S
C2682 H2723 0.930 . S
N2683 C2681 1.314 . S
N2683 C2682 1.279 . S
C2684 C2686 1.353 . S
C2684 N2687 1.314 . S
C2684 H2690 0.930 . S
C2685 N2687 1.279 . S
C2685 C2688 1.358 . S
C2685 H2691 0.930 . S
C2686 C2684 1.353 . S
C2686 C2689 1.348 . S
C2686 H2724 0.929 . S
N2687 Li2642 1.990 . S
N2687 C2684 1.314 . S
N2687 C2685 1.279 . S
C2688 C2685 1.358 . S
C2688 C2689 1.356 . S
C2688 H2725 0.930 . S
C2689 C2686 1.348 . S
C2689 C2688 1.356 . S
H2690 C2684 0.930 . S
H2691 C2685 0.930 . S
C2692 N2693 1.314 . S
C2692 C2694 1.353 . S
C2692 H2698 0.930 . S
N2693 Li2643 1.990 . S
N2693 C2692 1.314 . S
N2693 C2696 1.279 . S
C2694 C2692 1.353 . S
C2694 C2697 1.348 . S
C2694 H2726 0.929 . S
C2695 C2696 1.358 . S
C2695 C2697 1.356 . S
C2695 H2727 0.930 . S
C2696 N2693 1.279 . S
C2696 C2695 1.358 . S
C2696 H2699 0.930 . S
C2697 C2694 1.348 . S
C2697 C2695 1.356 . S
H2698 C2692 0.930 . S
H2699 C2696 0.930 . S
O2700 Li2640 1.956 . S
O2700 Li2641 1.970 . S
O2700 Li2642 1.961 . S
O2700 C2644 1.325 . S
O2701 Li2640 1.970 . S
O2701 Li2641 1.956 . S
O2701 Li2643 1.961 . S
O2701 C2650 1.325 . S
O2702 Li2640 1.961 . S
O2702 Li2642 1.956 . S
O2702 Li2643 1.970 . S
O2702 C2672 1.325 . S
O2703 Li2641 1.961 . S
O2703 Li2642 1.970 . S
O2703 Li2643 1.956 . S
O2703 C2678 1.325 . S
H2704 C2646 0.929 . S
H2705 C2647 0.930 . S
H2706 C2648 0.930 . S
H2707 C2649 0.930 . S
H2708 C2651 0.930 . S
H2709 C2653 0.929 . S
H2710 C2654 0.930 . S
H2711 C2655 0.930 . S
H2712 C2658 0.930 . S
H2713 C2661 0.929 . S
H2714 C2666 0.929 . S
H2715 C2667 0.930 . S
H2716 C2674 0.929 . S
H2717 C2675 0.930 . S
H2718 C2676 0.930 . S
H2719 C2677 0.930 . S
H2720 C2679 0.929 . S
H2721 C2680 0.930 . S
H2722 C2681 0.930 . S
H2723 C2682 0.930 . S
H2724 C2686 0.929 . S
H2725 C2688 0.930 . S
H2726 C2694 0.929 . S
H2727 C2695 0.930 . S
Li2728 N2745 1.990 . S
Li2728 O2788 1.956 . S
Li2728 O2789 1.970 . S
Li2728 O2790 1.961 . S
Li2729 N2753 1.990 . S
Li2729 O2788 1.970 . S
Li2729 O2789 1.956 . S
Li2729 O2791 1.961 . S
Li2730 N2775 1.990 . S
Li2730 O2788 1.961 . S
Li2730 O2790 1.956 . S
Li2730 O2791 1.970 . S
Li2731 N2781 1.990 . S
Li2731 O2789 1.961 . S
Li2731 O2790 1.970 . S
Li2731 O2791 1.956 . S
C2732 C2734 1.348 . S
C2732 C2735 1.356 . S
C2732 O2788 1.325 . S
N2733 C2736 1.314 . S
N2733 C2737 1.279 . S
C2734 C2732 1.348 . S
C2734 C2736 1.353 . S
C2734 H2792 0.929 . S
C2735 C2732 1.356 . S
C2735 C2737 1.358 . S
C2735 H2793 0.930 . S
C2736 N2733 1.314 . S
C2736 C2734 1.353 . S
C2736 H2794 0.930 . S
C2737 N2733 1.279 . S
C2737 C2735 1.358 . S
C2737 H2795 0.930 . S
C2738 C2741 1.348 . S
C2738 C2742 1.356 . S
C2738 O2789 1.325 . S
C2739 N2740 1.279 . S
C2739 C2742 1.358 . S
C2739 H2796 0.930 . S
N2740 C2739 1.279 . S
N2740 C2743 1.314 . S
C2741 C2738 1.348 . S
C2741 C2743 1.353 . S
C2741 H2797 0.929 . S
C2742 C2738 1.356 . S
C2742 C2739 1.358 . S
C2742 H2798 0.930 . S
C2743 N2740 1.314 . S
C2743 C2741 1.353 . S
C2743 H2799 0.930 . S
C2744 N2745 1.314 . S
C2744 C2749 1.353 . S
C2744 H2750 0.930 . S
N2745 Li2728 1.990 . S
N2745 C2744 1.314 . S
N2745 C2747 1.279 . S
C2746 C2747 1.358 . S
C2746 C2748 1.356 . S
C2746 H2800 0.930 . S
C2747 N2745 1.279 . S
C2747 C2746 1.358 . S
C2747 H2751 0.930 . S
C2748 C2746 1.356 . S
C2748 C2749 1.348 . S
C2749 C2744 1.353 . S
C2749 C2748 1.348 . S
C2749 H2801 0.929 . S
H2750 C2744 0.930 . S
H2751 C2747 0.930 . S
C2752 N2753 1.314 . S
C2752 C2754 1.353 . S
C2752 H2758 0.930 . S
N2753 Li2729 1.990 . S
N2753 C2752 1.314 . S
N2753 C2756 1.279 . S
C2754 C2752 1.353 . S
C2754 C2757 1.348 . S
C2754 H2802 0.929 . S
C2755 C2756 1.358 . S
C2755 C2757 1.356 . S
C2755 H2803 0.930 . S
C2756 N2753 1.279 . S
C2756 C2755 1.358 . S
C2756 H2759 0.930 . S
C2757 C2754 1.348 . S
C2757 C2755 1.356 . S
H2758 C2752 0.930 . S
H2759 C2756 0.930 . S
C2760 C2762 1.348 . S
C2760 C2763 1.356 . S
C2760 O2790 1.325 . S
N2761 C2764 1.314 . S
N2761 C2765 1.279 . S
C2762 C2760 1.348 . S
C2762 C2764 1.353 . S
C2762 H2804 0.929 . S
C2763 C2760 1.356 . S
C2763 C2765 1.358 . S
C2763 H2805 0.930 . S
C2764 N2761 1.314 . S
C2764 C2762 1.353 . S
C2764 H2806 0.930 . S
C2765 N2761 1.279 . S
C2765 C2763 1.358 . S
C2765 H2807 0.930 . S
C2766 C2767 1.348 . S
C2766 C2768 1.356 . S
C2766 O2791 1.325 . S
C2767 C2766 1.348 . S
C2767 C2769 1.353 . S
C2767 H2808 0.929 . S
C2768 C2766 1.356 . S
C2768 C2770 1.358 . S
C2768 H2809 0.930 . S
C2769 C2767 1.353 . S
C2769 N2771 1.314 . S
C2769 H2810 0.930 . S
C2770 C2768 1.358 . S
C2770 N2771 1.279 . S
C2770 H2811 0.930 . S
N2771 C2769 1.314 . S
N2771 C2770 1.279 . S
C2772 C2774 1.353 . S
C2772 N2775 1.314 . S
C2772 H2778 0.930 . S
C2773 N2775 1.279 . S
C2773 C2776 1.358 . S
C2773 H2779 0.930 . S
C2774 C2772 1.353 . S
C2774 C2777 1.348 . S
C2774 H2812 0.929 . S
N2775 Li2730 1.990 . S
N2775 C2772 1.314 . S
N2775 C2773 1.279 . S
C2776 C2773 1.358 . S
C2776 C2777 1.356 . S
C2776 H2813 0.930 . S
C2777 C2774 1.348 . S
C2777 C2776 1.356 . S
H2778 C2772 0.930 . S
H2779 C2773 0.930 . S
C2780 N2781 1.314 . S
C2780 C2782 1.353 . S
C2780 H2786 0.930 . S
N2781 Li2731 1.990 . S
N2781 C2780 1.314 . S
N2781 C2784 1.279 . S
C2782 C2780 1.353 . S
C2782 C2785 1.348 . S
C2782 H2814 0.929 . S
C2783 C2784 1.358 . S
C2783 C2785 1.356 . S
C2783 H2815 0.930 . S
C2784 N2781 1.279 . S
C2784 C2783 1.358 . S
C2784 H2787 0.930 . S
C2785 C2782 1.348 . S
C2785 C2783 1.356 . S
H2786 C2780 0.930 . S
H2787 C2784 0.930 . S
O2788 Li2728 1.956 . S
O2788 Li2729 1.970 . S
O2788 Li2730 1.961 . S
O2788 C2732 1.325 . S
O2789 Li2728 1.970 . S
O2789 Li2729 1.956 . S
O2789 Li2731 1.961 . S
O2789 C2738 1.325 . S
O2790 Li2728 1.961 . S
O2790 Li2730 1.956 . S
O2790 Li2731 1.970 . S
O2790 C2760 1.325 . S
O2791 Li2729 1.961 . S
O2791 Li2730 1.970 . S
O2791 Li2731 1.956 . S
O2791 C2766 1.325 . S
H2792 C2734 0.929 . S
H2793 C2735 0.930 . S
H2794 C2736 0.930 . S
H2795 C2737 0.930 . S
H2796 C2739 0.930 . S
H2797 C2741 0.929 . S
H2798 C2742 0.930 . S
H2799 C2743 0.930 . S
H2800 C2746 0.930 . S
H2801 C2749 0.929 . S
H2802 C2754 0.929 . S
H2803 C2755 0.930 . S
H2804 C2762 0.929 . S
H2805 C2763 0.930 . S
H2806 C2764 0.930 . S
H2807 C2765 0.930 . S
H2808 C2767 0.929 . S
H2809 C2768 0.930 . S
H2810 C2769 0.930 . S
H2811 C2770 0.930 . S
H2812 C2774 0.929 . S
H2813 C2776 0.930 . S
H2814 C2782 0.929 . S
H2815 C2783 0.930 . S
Li2816 N2833 1.990 . S
Li2816 O2876 1.956 . S
Li2816 O2877 1.970 . S
Li2816 O2878 1.961 . S
Li2817 N2841 1.990 . S
Li2817 O2876 1.970 . S
Li2817 O2877 1.956 . S
Li2817 O2879 1.961 . S
Li2818 N2863 1.990 . S
Li2818 O2876 1.961 . S
Li2818 O2878 1.956 . S
Li2818 O2879 1.970 . S
Li2819 N2869 1.990 . S
Li2819 O2877 1.961 . S
Li2819 O2878 1.970 . S
Li2819 O2879 1.956 . S
C2820 C2822 1.348 . S
C2820 C2823 1.356 . S
C2820 O2876 1.325 . S
N2821 C2824 1.314 . S
N2821 C2825 1.279 . S
C2822 C2820 1.348 . S
C2822 C2824 1.353 . S
C2822 H2880 0.929 . S
C2823 C2820 1.356 . S
C2823 C2825 1.358 . S
C2823 H2881 0.930 . S
C2824 N2821 1.314 . S
C2824 C2822 1.353 . S
C2824 H2882 0.930 . S
C2825 N2821 1.279 . S
C2825 C2823 1.358 . S
C2825 H2883 0.930 . S
C2826 C2829 1.348 . S
C2826 C2830 1.356 . S
C2826 O2877 1.325 . S
C2827 N2828 1.279 . S
C2827 C2830 1.358 . S
C2827 H2884 0.930 . S
N2828 C2827 1.279 . S
N2828 C2831 1.314 . S
C2829 C2826 1.348 . S
C2829 C2831 1.353 . S
C2829 H2885 0.929 . S
C2830 C2826 1.356 . S
C2830 C2827 1.358 . S
C2830 H2886 0.930 . S
C2831 N2828 1.314 . S
C2831 C2829 1.353 . S
C2831 H2887 0.930 . S
C2832 N2833 1.314 . S
C2832 C2837 1.353 . S
C2832 H2838 0.930 . S
N2833 Li2816 1.990 . S
N2833 C2832 1.314 . S
N2833 C2835 1.279 . S
C2834 C2835 1.358 . S
C2834 C2836 1.356 . S
C2834 H2888 0.930 . S
C2835 N2833 1.279 . S
C2835 C2834 1.358 . S
C2835 H2839 0.930 . S
C2836 C2834 1.356 . S
C2836 C2837 1.348 . S
C2837 C2832 1.353 . S
C2837 C2836 1.348 . S
C2837 H2889 0.929 . S
H2838 C2832 0.930 . S
H2839 C2835 0.930 . S
C2840 N2841 1.314 . S
C2840 C2842 1.353 . S
C2840 H2846 0.930 . S
N2841 Li2817 1.990 . S
N2841 C2840 1.314 . S
N2841 C2844 1.279 . S
C2842 C2840 1.353 . S
C2842 C2845 1.348 . S
C2842 H2890 0.929 . S
C2843 C2844 1.358 . S
C2843 C2845 1.356 . S
C2843 H2891 0.930 . S
C2844 N2841 1.279 . S
C2844 C2843 1.358 . S
C2844 H2847 0.930 . S
C2845 C2842 1.348 . S
C2845 C2843 1.356 . S
H2846 C2840 0.930 . S
H2847 C2844 0.930 . S
C2848 C2850 1.348 . S
C2848 C2851 1.356 . S
C2848 O2878 1.325 . S
N2849 C2852 1.314 . S
N2849 C2853 1.279 . S
C2850 C2848 1.348 . S
C2850 C2852 1.353 . S
C2850 H2892 0.929 . S
C2851 C2848 1.356 . S
C2851 C2853 1.358 . S
C2851 H2893 0.930 . S
C2852 N2849 1.314 . S
C2852 C2850 1.353 . S
C2852 H2894 0.930 . S
C2853 N2849 1.279 . S
C2853 C2851 1.358 . S
C2853 H2895 0.930 . S
C2854 C2855 1.348 . S
C2854 C2856 1.356 . S
C2854 O2879 1.325 . S
C2855 C2854 1.348 . S
C2855 C2857 1.353 . S
C2855 H2896 0.929 . S
C2856 C2854 1.356 . S
C2856 C2858 1.358 . S
C2856 H2897 0.930 . S
C2857 C2855 1.353 . S
C2857 N2859 1.314 . S
C2857 H2898 0.930 . S
C2858 C2856 1.358 . S
C2858 N2859 1.279 . S
C2858 H2899 0.930 . S
N2859 C2857 1.314 . S
N2859 C2858 1.279 . S
C2860 C2862 1.353 . S
C2860 N2863 1.314 . S
C2860 H2866 0.930 . S
C2861 N2863 1.279 . S
C2861 C2864 1.358 . S
C2861 H2867 0.930 . S
C2862 C2860 1.353 . S
C2862 C2865 1.348 . S
C2862 H2900 0.929 . S
N2863 Li2818 1.990 . S
N2863 C2860 1.314 . S
N2863 C2861 1.279 . S
C2864 C2861 1.358 . S
C2864 C2865 1.356 . S
C2864 H2901 0.930 . S
C2865 C2862 1.348 . S
C2865 C2864 1.356 . S
H2866 C2860 0.930 . S
H2867 C2861 0.930 . S
C2868 N2869 1.314 . S
C2868 C2870 1.353 . S
C2868 H2874 0.930 . S
N2869 Li2819 1.990 . S
N2869 C2868 1.314 . S
N2869 C2872 1.279 . S
C2870 C2868 1.353 . S
C2870 C2873 1.348 . S
C2870 H2902 0.929 . S
C2871 C2872 1.358 . S
C2871 C2873 1.356 . S
C2871 H2903 0.930 . S
C2872 N2869 1.279 . S
C2872 C2871 1.358 . S
C2872 H2875 0.930 . S
C2873 C2870 1.348 . S
C2873 C2871 1.356 . S
H2874 C2868 0.930 . S
H2875 C2872 0.930 . S
O2876 Li2816 1.956 . S
O2876 Li2817 1.970 . S
O2876 Li2818 1.961 . S
O2876 C2820 1.325 . S
O2877 Li2816 1.970 . S
O2877 Li2817 1.956 . S
O2877 Li2819 1.961 . S
O2877 C2826 1.325 . S
O2878 Li2816 1.961 . S
O2878 Li2818 1.956 . S
O2878 Li2819 1.970 . S
O2878 C2848 1.325 . S
O2879 Li2817 1.961 . S
O2879 Li2818 1.970 . S
O2879 Li2819 1.956 . S
O2879 C2854 1.325 . S
H2880 C2822 0.929 . S
H2881 C2823 0.930 . S
H2882 C2824 0.930 . S
H2883 C2825 0.930 . S
H2884 C2827 0.930 . S
H2885 C2829 0.929 . S
H2886 C2830 0.930 . S
H2887 C2831 0.930 . S
H2888 C2834 0.930 . S
H2889 C2837 0.929 . S
H2890 C2842 0.929 . S
H2891 C2843 0.930 . S
H2892 C2850 0.929 . S
H2893 C2851 0.930 . S
H2894 C2852 0.930 . S
H2895 C2853 0.930 . S
H2896 C2855 0.929 . S
H2897 C2856 0.930 . S
H2898 C2857 0.930 . S
H2899 C2858 0.930 . S
H2900 C2862 0.929 . S
H2901 C2864 0.930 . S
H2902 C2870 0.929 . S
H2903 C2871 0.930 . S
Li2904 N2921 1.990 . S
Li2904 O2964 1.956 . S
Li2904 O2965 1.970 . S
Li2904 O2966 1.961 . S
Li2905 N2929 1.990 . S
Li2905 O2964 1.970 . S
Li2905 O2965 1.956 . S
Li2905 O2967 1.961 . S
Li2906 N2951 1.990 . S
Li2906 O2964 1.961 . S
Li2906 O2966 1.956 . S
Li2906 O2967 1.970 . S
Li2907 N2957 1.990 . S
Li2907 O2965 1.961 . S
Li2907 O2966 1.970 . S
Li2907 O2967 1.956 . S
C2908 C2910 1.348 . S
C2908 C2911 1.356 . S
C2908 O2964 1.325 . S
N2909 C2912 1.314 . S
N2909 C2913 1.279 . S
C2910 C2908 1.348 . S
C2910 C2912 1.353 . S
C2910 H2968 0.929 . S
C2911 C2908 1.356 . S
C2911 C2913 1.358 . S
C2911 H2969 0.930 . S
C2912 N2909 1.314 . S
C2912 C2910 1.353 . S
C2912 H2970 0.930 . S
C2913 N2909 1.279 . S
C2913 C2911 1.358 . S
C2913 H2971 0.930 . S
C2914 C2917 1.348 . S
C2914 C2918 1.356 . S
C2914 O2965 1.325 . S
C2915 N2916 1.279 . S
C2915 C2918 1.358 . S
C2915 H2972 0.930 . S
N2916 C2915 1.279 . S
N2916 C2919 1.314 . S
C2917 C2914 1.348 . S
C2917 C2919 1.353 . S
C2917 H2973 0.929 . S
C2918 C2914 1.356 . S
C2918 C2915 1.358 . S
C2918 H2974 0.930 . S
C2919 N2916 1.314 . S
C2919 C2917 1.353 . S
C2919 H2975 0.930 . S
C2920 N2921 1.314 . S
C2920 C2925 1.353 . S
C2920 H2926 0.930 . S
N2921 Li2904 1.990 . S
N2921 C2920 1.314 . S
N2921 C2923 1.279 . S
C2922 C2923 1.358 . S
C2922 C2924 1.356 . S
C2922 H2976 0.930 . S
C2923 N2921 1.279 . S
C2923 C2922 1.358 . S
C2923 H2927 0.930 . S
C2924 C2922 1.356 . S
C2924 C2925 1.348 . S
C2925 C2920 1.353 . S
C2925 C2924 1.348 . S
C2925 H2977 0.929 . S
H2926 C2920 0.930 . S
H2927 C2923 0.930 . S
C2928 N2929 1.314 . S
C2928 C2930 1.353 . S
C2928 H2934 0.930 . S
N2929 Li2905 1.990 . S
N2929 C2928 1.314 . S
N2929 C2932 1.279 . S
C2930 C2928 1.353 . S
C2930 C2933 1.348 . S
C2930 H2978 0.929 . S
C2931 C2932 1.358 . S
C2931 C2933 1.356 . S
C2931 H2979 0.930 . S
C2932 N2929 1.279 . S
C2932 C2931 1.358 . S
C2932 H2935 0.930 . S
C2933 C2930 1.348 . S
C2933 C2931 1.356 . S
H2934 C2928 0.930 . S
H2935 C2932 0.930 . S
C2936 C2938 1.348 . S
C2936 C2939 1.356 . S
C2936 O2966 1.325 . S
N2937 C2940 1.314 . S
N2937 C2941 1.279 . S
C2938 C2936 1.348 . S
C2938 C2940 1.353 . S
C2938 H2980 0.929 . S
C2939 C2936 1.356 . S
C2939 C2941 1.358 . S
C2939 H2981 0.930 . S
C2940 N2937 1.314 . S
C2940 C2938 1.353 . S
C2940 H2982 0.930 . S
C2941 N2937 1.279 . S
C2941 C2939 1.358 . S
C2941 H2983 0.930 . S
C2942 C2943 1.348 . S
C2942 C2944 1.356 . S
C2942 O2967 1.325 . S
C2943 C2942 1.348 . S
C2943 C2945 1.353 . S
C2943 H2984 0.929 . S
C2944 C2942 1.356 . S
C2944 C2946 1.358 . S
C2944 H2985 0.930 . S
C2945 C2943 1.353 . S
C2945 N2947 1.314 . S
C2945 H2986 0.930 . S
C2946 C2944 1.358 . S
C2946 N2947 1.279 . S
C2946 H2987 0.930 . S
N2947 C2945 1.314 . S
N2947 C2946 1.279 . S
C2948 C2950 1.353 . S
C2948 N2951 1.314 . S
C2948 H2954 0.930 . S
C2949 N2951 1.279 . S
C2949 C2952 1.358 . S
C2949 H2955 0.930 . S
C2950 C2948 1.353 . S
C2950 C2953 1.348 . S
C2950 H2988 0.929 . S
N2951 Li2906 1.990 . S
N2951 C2948 1.314 . S
N2951 C2949 1.279 . S
C2952 C2949 1.358 . S
C2952 C2953 1.356 . S
C2952 H2989 0.930 . S
C2953 C2950 1.348 . S
C2953 C2952 1.356 . S
H2954 C2948 0.930 . S
H2955 C2949 0.930 . S
C2956 N2957 1.314 . S
C2956 C2958 1.353 . S
C2956 H2962 0.930 . S
N2957 Li2907 1.990 . S
N2957 C2956 1.314 . S
N2957 C2960 1.279 . S
C2958 C2956 1.353 . S
C2958 C2961 1.348 . S
C2958 H2990 0.929 . S
C2959 C2960 1.358 . S
C2959 C2961 1.356 . S
C2959 H2991 0.930 . S
C2960 N2957 1.279 . S
C2960 C2959 1.358 . S
C2960 H2963 0.930 . S
C2961 C2958 1.348 . S
C2961 C2959 1.356 . S
H2962 C2956 0.930 . S
H2963 C2960 0.930 . S
O2964 Li2904 1.956 . S
O2964 Li2905 1.970 . S
O2964 Li2906 1.961 . S
O2964 C2908 1.325 . S
O2965 Li2904 1.970 . S
O2965 Li2905 1.956 . S
O2965 Li2907 1.961 . S
O2965 C2914 1.325 . S
O2966 Li2904 1.961 . S
O2966 Li2906 1.956 . S
O2966 Li2907 1.970 . S
O2966 C2936 1.325 . S
O2967 Li2905 1.961 . S
O2967 Li2906 1.970 . S
O2967 Li2907 1.956 . S
O2967 C2942 1.325 . S
H2968 C2910 0.929 . S
H2969 C2911 0.930 . S
H2970 C2912 0.930 . S
H2971 C2913 0.930 . S
H2972 C2915 0.930 . S
H2973 C2917 0.929 . S
H2974 C2918 0.930 . S
H2975 C2919 0.930 . S
H2976 C2922 0.930 . S
H2977 C2925 0.929 . S
H2978 C2930 0.929 . S
H2979 C2931 0.930 . S
H2980 C2938 0.929 . S
H2981 C2939 0.930 . S
H2982 C2940 0.930 . S
H2983 C2941 0.930 . S
H2984 C2943 0.929 . S
H2985 C2944 0.930 . S
H2986 C2945 0.930 . S
H2987 C2946 0.930 . S
H2988 C2950 0.929 . S
H2989 C2952 0.930 . S
H2990 C2958 0.929 . S
H2991 C2959 0.930 . S
Li2992 N3009 1.990 . S
Li2992 O3052 1.956 . S
Li2992 O3053 1.970 . S
Li2992 O3054 1.961 . S
Li2993 N3017 1.990 . S
Li2993 O3052 1.970 . S
Li2993 O3053 1.956 . S
Li2993 O3055 1.961 . S
Li2994 N3039 1.990 . S
Li2994 O3052 1.961 . S
Li2994 O3054 1.956 . S
Li2994 O3055 1.970 . S
Li2995 N3045 1.990 . S
Li2995 O3053 1.961 . S
Li2995 O3054 1.970 . S
Li2995 O3055 1.956 . S
C2996 C2998 1.348 . S
C2996 C2999 1.356 . S
C2996 O3052 1.325 . S
N2997 C3000 1.314 . S
N2997 C3001 1.279 . S
C2998 C2996 1.348 . S
C2998 C3000 1.353 . S
C2998 H3056 0.929 . S
C2999 C2996 1.356 . S
C2999 C3001 1.358 . S
C2999 H3057 0.930 . S
C3000 N2997 1.314 . S
C3000 C2998 1.353 . S
C3000 H3058 0.930 . S
C3001 N2997 1.279 . S
C3001 C2999 1.358 . S
C3001 H3059 0.930 . S
C3002 C3005 1.348 . S
C3002 C3006 1.356 . S
C3002 O3053 1.325 . S
C3003 N3004 1.279 . S
C3003 C3006 1.358 . S
C3003 H3060 0.930 . S
N3004 C3003 1.279 . S
N3004 C3007 1.314 . S
C3005 C3002 1.348 . S
C3005 C3007 1.353 . S
C3005 H3061 0.929 . S
C3006 C3002 1.356 . S
C3006 C3003 1.358 . S
C3006 H3062 0.930 . S
C3007 N3004 1.314 . S
C3007 C3005 1.353 . S
C3007 H3063 0.930 . S
C3008 N3009 1.314 . S
C3008 C3013 1.353 . S
C3008 H3014 0.930 . S
N3009 Li2992 1.990 . S
N3009 C3008 1.314 . S
N3009 C3011 1.279 . S
C3010 C3011 1.358 . S
C3010 C3012 1.356 . S
C3010 H3064 0.930 . S
C3011 N3009 1.279 . S
C3011 C3010 1.358 . S
C3011 H3015 0.930 . S
C3012 C3010 1.356 . S
C3012 C3013 1.348 . S
C3013 C3008 1.353 . S
C3013 C3012 1.348 . S
C3013 H3065 0.929 . S
H3014 C3008 0.930 . S
H3015 C3011 0.930 . S
C3016 N3017 1.314 . S
C3016 C3018 1.353 . S
C3016 H3022 0.930 . S
N3017 Li2993 1.990 . S
N3017 C3016 1.314 . S
N3017 C3020 1.279 . S
C3018 C3016 1.353 . S
C3018 C3021 1.348 . S
C3018 H3066 0.929 . S
C3019 C3020 1.358 . S
C3019 C3021 1.356 . S
C3019 H3067 0.930 . S
C3020 N3017 1.279 . S
C3020 C3019 1.358 . S
C3020 H3023 0.930 . S
C3021 C3018 1.348 . S
C3021 C3019 1.356 . S
H3022 C3016 0.930 . S
H3023 C3020 0.930 . S
C3024 C3026 1.348 . S
C3024 C3027 1.356 . S
C3024 O3054 1.325 . S
N3025 C3028 1.314 . S
N3025 C3029 1.279 . S
C3026 C3024 1.348 . S
C3026 C3028 1.353 . S
C3026 H3068 0.929 . S
C3027 C3024 1.356 . S
C3027 C3029 1.358 . S
C3027 H3069 0.930 . S
C3028 N3025 1.314 . S
C3028 C3026 1.353 . S
C3028 H3070 0.930 . S
C3029 N3025 1.279 . S
C3029 C3027 1.358 . S
C3029 H3071 0.930 . S
C3030 C3031 1.348 . S
C3030 C3032 1.356 . S
C3030 O3055 1.325 . S
C3031 C3030 1.348 . S
C3031 C3033 1.353 . S
C3031 H3072 0.929 . S
C3032 C3030 1.356 . S
C3032 C3034 1.358 . S
C3032 H3073 0.930 . S
C3033 C3031 1.353 . S
C3033 N3035 1.314 . S
C3033 H3074 0.930 . S
C3034 C3032 1.358 . S
C3034 N3035 1.279 . S
C3034 H3075 0.930 . S
N3035 C3033 1.314 . S
N3035 C3034 1.279 . S
C3036 C3038 1.353 . S
C3036 N3039 1.314 . S
C3036 H3042 0.930 . S
C3037 N3039 1.279 . S
C3037 C3040 1.358 . S
C3037 H3043 0.930 . S
C3038 C3036 1.353 . S
C3038 C3041 1.348 . S
C3038 H3076 0.929 . S
N3039 Li2994 1.990 . S
N3039 C3036 1.314 . S
N3039 C3037 1.279 . S
C3040 C3037 1.358 . S
C3040 C3041 1.356 . S
C3040 H3077 0.930 . S
C3041 C3038 1.348 . S
C3041 C3040 1.356 . S
H3042 C3036 0.930 . S
H3043 C3037 0.930 . S
C3044 N3045 1.314 . S
C3044 C3046 1.353 . S
C3044 H3050 0.930 . S
N3045 Li2995 1.990 . S
N3045 C3044 1.314 . S
N3045 C3048 1.279 . S
C3046 C3044 1.353 . S
C3046 C3049 1.348 . S
C3046 H3078 0.929 . S
C3047 C3048 1.358 . S
C3047 C3049 1.356 . S
C3047 H3079 0.930 . S
C3048 N3045 1.279 . S
C3048 C3047 1.358 . S
C3048 H3051 0.930 . S
C3049 C3046 1.348 . S
C3049 C3047 1.356 . S
H3050 C3044 0.930 . S
H3051 C3048 0.930 . S
O3052 Li2992 1.956 . S
O3052 Li2993 1.970 . S
O3052 Li2994 1.961 . S
O3052 C2996 1.325 . S
O3053 Li2992 1.970 . S
O3053 Li2993 1.956 . S
O3053 Li2995 1.961 . S
O3053 C3002 1.325 . S
O3054 Li2992 1.961 . S
O3054 Li2994 1.956 . S
O3054 Li2995 1.970 . S
O3054 C3024 1.325 . S
O3055 Li2993 1.961 . S
O3055 Li2994 1.970 . S
O3055 Li2995 1.956 . S
O3055 C3030 1.325 . S
H3056 C2998 0.929 . S
H3057 C2999 0.930 . S
H3058 C3000 0.930 . S
H3059 C3001 0.930 . S
H3060 C3003 0.930 . S
H3061 C3005 0.929 . S
H3062 C3006 0.930 . S
H3063 C3007 0.930 . S
H3064 C3010 0.930 . S
H3065 C3013 0.929 . S
H3066 C3018 0.929 . S
H3067 C3019 0.930 . S
H3068 C3026 0.929 . S
H3069 C3027 0.930 . S
H3070 C3028 0.930 . S
H3071 C3029 0.930 . S
H3072 C3031 0.929 . S
H3073 C3032 0.930 . S
H3074 C3033 0.930 . S
H3075 C3034 0.930 . S
H3076 C3038 0.929 . S
H3077 C3040 0.930 . S
H3078 C3046 0.929 . S
H3079 C3047 0.930 . S
Li3080 N3097 1.990 . S
Li3080 O3140 1.956 . S
Li3080 O3141 1.970 . S
Li3080 O3142 1.961 . S
Li3081 N3105 1.990 . S
Li3081 O3140 1.970 . S
Li3081 O3141 1.956 . S
Li3081 O3143 1.961 . S
Li3082 N3127 1.990 . S
Li3082 O3140 1.961 . S
Li3082 O3142 1.956 . S
Li3082 O3143 1.970 . S
Li3083 N3133 1.990 . S
Li3083 O3141 1.961 . S
Li3083 O3142 1.970 . S
Li3083 O3143 1.956 . S
C3084 C3086 1.348 . S
C3084 C3087 1.356 . S
C3084 O3140 1.325 . S
N3085 C3088 1.314 . S
N3085 C3089 1.279 . S
C3086 C3084 1.348 . S
C3086 C3088 1.353 . S
C3086 H3144 0.929 . S
C3087 C3084 1.356 . S
C3087 C3089 1.358 . S
C3087 H3145 0.930 . S
C3088 N3085 1.314 . S
C3088 C3086 1.353 . S
C3088 H3146 0.930 . S
C3089 N3085 1.279 . S
C3089 C3087 1.358 . S
C3089 H3147 0.930 . S
C3090 C3093 1.348 . S
C3090 C3094 1.356 . S
C3090 O3141 1.325 . S
C3091 N3092 1.279 . S
C3091 C3094 1.358 . S
C3091 H3148 0.930 . S
N3092 C3091 1.279 . S
N3092 C3095 1.314 . S
C3093 C3090 1.348 . S
C3093 C3095 1.353 . S
C3093 H3149 0.929 . S
C3094 C3090 1.356 . S
C3094 C3091 1.358 . S
C3094 H3150 0.930 . S
C3095 N3092 1.314 . S
C3095 C3093 1.353 . S
C3095 H3151 0.930 . S
C3096 N3097 1.314 . S
C3096 C3101 1.353 . S
C3096 H3102 0.930 . S
N3097 Li3080 1.990 . S
N3097 C3096 1.314 . S
N3097 C3099 1.279 . S
C3098 C3099 1.358 . S
C3098 C3100 1.356 . S
C3098 H3152 0.930 . S
C3099 N3097 1.279 . S
C3099 C3098 1.358 . S
C3099 H3103 0.930 . S
C3100 C3098 1.356 . S
C3100 C3101 1.348 . S
C3101 C3096 1.353 . S
C3101 C3100 1.348 . S
C3101 H3153 0.929 . S
H3102 C3096 0.930 . S
H3103 C3099 0.930 . S
C3104 N3105 1.314 . S
C3104 C3106 1.353 . S
C3104 H3110 0.930 . S
N3105 Li3081 1.990 . S
N3105 C3104 1.314 . S
N3105 C3108 1.279 . S
C3106 C3104 1.353 . S
C3106 C3109 1.348 . S
C3106 H3154 0.929 . S
C3107 C3108 1.358 . S
C3107 C3109 1.356 . S
C3107 H3155 0.930 . S
C3108 N3105 1.279 . S
C3108 C3107 1.358 . S
C3108 H3111 0.930 . S
C3109 C3106 1.348 . S
C3109 C3107 1.356 . S
H3110 C3104 0.930 . S
H3111 C3108 0.930 . S
C3112 C3114 1.348 . S
C3112 C3115 1.356 . S
C3112 O3142 1.325 . S
N3113 C3116 1.314 . S
N3113 C3117 1.279 . S
C3114 C3112 1.348 . S
C3114 C3116 1.353 . S
C3114 H3156 0.929 . S
C3115 C3112 1.356 . S
C3115 C3117 1.358 . S
C3115 H3157 0.930 . S
C3116 N3113 1.314 . S
C3116 C3114 1.353 . S
C3116 H3158 0.930 . S
C3117 N3113 1.279 . S
C3117 C3115 1.358 . S
C3117 H3159 0.930 . S
C3118 C3119 1.348 . S
C3118 C3120 1.356 . S
C3118 O3143 1.325 . S
C3119 C3118 1.348 . S
C3119 C3121 1.353 . S
C3119 H3160 0.929 . S
C3120 C3118 1.356 . S
C3120 C3122 1.358 . S
C3120 H3161 0.930 . S
C3121 C3119 1.353 . S
C3121 N3123 1.314 . S
C3121 H3162 0.930 . S
C3122 C3120 1.358 . S
C3122 N3123 1.279 . S
C3122 H3163 0.930 . S
N3123 C3121 1.314 . S
N3123 C3122 1.279 . S
C3124 C3126 1.353 . S
C3124 N3127 1.314 . S
C3124 H3130 0.930 . S
C3125 N3127 1.279 . S
C3125 C3128 1.358 . S
C3125 H3131 0.930 . S
C3126 C3124 1.353 . S
C3126 C3129 1.348 . S
C3126 H3164 0.929 . S
N3127 Li3082 1.990 . S
N3127 C3124 1.314 . S
N3127 C3125 1.279 . S
C3128 C3125 1.358 . S
C3128 C3129 1.356 . S
C3128 H3165 0.930 . S
C3129 C3126 1.348 . S
C3129 C3128 1.356 . S
H3130 C3124 0.930 . S
H3131 C3125 0.930 . S
C3132 N3133 1.314 . S
C3132 C3134 1.353 . S
C3132 H3138 0.930 . S
N3133 Li3083 1.990 . S
N3133 C3132 1.314 . S
N3133 C3136 1.279 . S
C3134 C3132 1.353 . S
C3134 C3137 1.348 . S
C3134 H3166 0.929 . S
C3135 C3136 1.358 . S
C3135 C3137 1.356 . S
C3135 H3167 0.930 . S
C3136 N3133 1.279 . S
C3136 C3135 1.358 . S
C3136 H3139 0.930 . S
C3137 C3134 1.348 . S
C3137 C3135 1.356 . S
H3138 C3132 0.930 . S
H3139 C3136 0.930 . S
O3140 Li3080 1.956 . S
O3140 Li3081 1.970 . S
O3140 Li3082 1.961 . S
O3140 C3084 1.325 . S
O3141 Li3080 1.970 . S
O3141 Li3081 1.956 . S
O3141 Li3083 1.961 . S
O3141 C3090 1.325 . S
O3142 Li3080 1.961 . S
O3142 Li3082 1.956 . S
O3142 Li3083 1.970 . S
O3142 C3112 1.325 . S
O3143 Li3081 1.961 . S
O3143 Li3082 1.970 . S
O3143 Li3083 1.956 . S
O3143 C3118 1.325 . S
H3144 C3086 0.929 . S
H3145 C3087 0.930 . S
H3146 C3088 0.930 . S
H3147 C3089 0.930 . S
H3148 C3091 0.930 . S
H3149 C3093 0.929 . S
H3150 C3094 0.930 . S
H3151 C3095 0.930 . S
H3152 C3098 0.930 . S
H3153 C3101 0.929 . S
H3154 C3106 0.929 . S
H3155 C3107 0.930 . S
H3156 C3114 0.929 . S
H3157 C3115 0.930 . S
H3158 C3116 0.930 . S
H3159 C3117 0.930 . S
H3160 C3119 0.929 . S
H3161 C3120 0.930 . S
H3162 C3121 0.930 . S
H3163 C3122 0.930 . S
H3164 C3126 0.929 . S
H3165 C3128 0.930 . S
H3166 C3134 0.929 . S
H3167 C3135 0.930 . S
H3168 C3176 0.950 . S
H3169 C3181 0.950 . S
H3170 C3178 0.950 . S
H3171 C3180 0.950 . S
H3172 C3182 0.950 . S
H3173 C3184 0.950 . S
H3174 C3186 0.950 . S
H3175 C3187 0.950 . S
C3176 H3168 0.950 . S
C3176 C3177 1.386 . S
C3176 C3178 1.391 . S
C3177 C3176 1.386 . S
C3177 C3181 1.393 . S
C3178 H3170 0.950 . S
C3178 C3176 1.391 . S
C3178 C3179 1.400 . S
C3179 C3178 1.400 . S
C3179 C3180 1.398 . S
C3179 C3185 1.491 . S
C3180 H3171 0.950 . S
C3180 C3179 1.398 . S
C3180 C3181 1.391 . S
C3181 H3169 0.950 . S
C3181 C3177 1.393 . S
C3181 C3180 1.391 . S
C3182 H3172 0.950 . S
C3182 C3183 1.386 . S
C3182 C3184 1.391 . S
C3183 C3182 1.386 . S
C3183 C3187 1.393 . S
C3184 H3173 0.950 . S
C3184 C3182 1.391 . S
C3184 C3185 1.400 . S
C3185 C3179 1.491 . S
C3185 C3184 1.400 . S
C3185 C3186 1.398 . S
C3186 H3174 0.950 . S
C3186 C3185 1.398 . S
C3186 C3187 1.391 . S
C3187 H3175 0.950 . S
C3187 C3183 1.393 . S
C3187 C3186 1.391 . S
H3188 C3196 0.950 . S
H3189 C3201 0.950 . S
H3190 C3198 0.950 . S
H3191 C3200 0.950 . S
H3192 C3202 0.950 . S
H3193 C3204 0.950 . S
H3194 C3206 0.950 . S
H3195 C3207 0.950 . S
C3196 H3188 0.950 . S
C3196 C3197 1.386 . S
C3196 C3198 1.391 . S
C3197 C3196 1.386 . S
C3197 C3201 1.393 . S
C3198 H3190 0.950 . S
C3198 C3196 1.391 . S
C3198 C3199 1.400 . S
C3199 C3198 1.400 . S
C3199 C3200 1.398 . S
C3199 C3205 1.491 . S
C3200 H3191 0.950 . S
C3200 C3199 1.398 . S
C3200 C3201 1.391 . S
C3201 H3189 0.950 . S
C3201 C3197 1.393 . S
C3201 C3200 1.391 . S
C3202 H3192 0.950 . S
C3202 C3203 1.386 . S
C3202 C3204 1.391 . S
C3203 C3202 1.386 . S
C3203 C3207 1.393 . S
C3204 H3193 0.950 . S
C3204 C3202 1.391 . S
C3204 C3205 1.400 . S
C3205 C3199 1.491 . S
C3205 C3204 1.400 . S
C3205 C3206 1.398 . S
C3206 H3194 0.950 . S
C3206 C3205 1.398 . S
C3206 C3207 1.391 . S
C3207 H3195 0.950 . S
C3207 C3203 1.393 . S
C3207 C3206 1.391 . S
H3208 C3216 0.950 . S
H3209 C3221 0.950 . S
H3210 C3218 0.950 . S
H3211 C3220 0.950 . S
H3212 C3222 0.950 . S
H3213 C3224 0.950 . S
H3214 C3226 0.950 . S
H3215 C3227 0.950 . S
C3216 H3208 0.950 . S
C3216 C3217 1.386 . S
C3216 C3218 1.391 . S
C3217 C3216 1.386 . S
C3217 C3221 1.393 . S
C3218 H3210 0.950 . S
C3218 C3216 1.391 . S
C3218 C3219 1.400 . S
C3219 C3218 1.400 . S
C3219 C3220 1.398 . S
C3219 C3225 1.491 . S
C3220 H3211 0.950 . S
C3220 C3219 1.398 . S
C3220 C3221 1.391 . S
C3221 H3209 0.950 . S
C3221 C3217 1.393 . S
C3221 C3220 1.391 . S
C3222 H3212 0.950 . S
C3222 C3223 1.386 . S
C3222 C3224 1.391 . S
C3223 C3222 1.386 . S
C3223 C3227 1.393 . S
C3224 H3213 0.950 . S
C3224 C3222 1.391 . S
C3224 C3225 1.400 . S
C3225 C3219 1.491 . S
C3225 C3224 1.400 . S
C3225 C3226 1.398 . S
C3226 H3214 0.950 . S
C3226 C3225 1.398 . S
C3226 C3227 1.391 . S
C3227 H3215 0.950 . S
C3227 C3223 1.393 . S
C3227 C3226 1.391 . S
H3228 C3236 0.950 . S
H3229 C3241 0.950 . S
H3230 C3238 0.950 . S
H3231 C3240 0.950 . S
H3232 C3242 0.950 . S
H3233 C3244 0.950 . S
H3234 C3246 0.950 . S
H3235 C3247 0.950 . S
C3236 H3228 0.950 . S
C3236 C3237 1.386 . S
C3236 C3238 1.391 . S
C3237 C3236 1.386 . S
C3237 C3241 1.393 . S
C3238 H3230 0.950 . S
C3238 C3236 1.391 . S
C3238 C3239 1.400 . S
C3239 C3238 1.400 . S
C3239 C3240 1.398 . S
C3239 C3245 1.491 . S
C3240 H3231 0.950 . S
C3240 C3239 1.398 . S
C3240 C3241 1.391 . S
C3241 H3229 0.950 . S
C3241 C3237 1.393 . S
C3241 C3240 1.391 . S
C3242 H3232 0.950 . S
C3242 C3243 1.386 . S
C3242 C3244 1.391 . S
C3243 C3242 1.386 . S
C3243 C3247 1.393 . S
C3244 H3233 0.950 . S
C3244 C3242 1.391 . S
C3244 C3245 1.400 . S
C3245 C3239 1.491 . S
C3245 C3244 1.400 . S
C3245 C3246 1.398 . S
C3246 H3234 0.950 . S
C3246 C3245 1.398 . S
C3246 C3247 1.391 . S
C3247 H3235 0.950 . S
C3247 C3243 1.393 . S
C3247 C3246 1.391 . S
H3248 C3256 0.950 . S
H3249 C3261 0.950 . S
H3250 C3258 0.950 . S
H3251 C3260 0.950 . S
H3252 C3262 0.950 . S
H3253 C3264 0.950 . S
H3254 C3266 0.950 . S
H3255 C3267 0.950 . S
C3256 H3248 0.950 . S
C3256 C3257 1.386 . S
C3256 C3258 1.391 . S
C3257 C3256 1.386 . S
C3257 C3261 1.393 . S
C3258 H3250 0.950 . S
C3258 C3256 1.391 . S
C3258 C3259 1.400 . S
C3259 C3258 1.400 . S
C3259 C3260 1.398 . S
C3259 C3265 1.491 . S
C3260 H3251 0.950 . S
C3260 C3259 1.398 . S
C3260 C3261 1.391 . S
C3261 H3249 0.950 . S
C3261 C3257 1.393 . S
C3261 C3260 1.391 . S
C3262 H3252 0.950 . S
C3262 C3263 1.386 . S
C3262 C3264 1.391 . S
C3263 C3262 1.386 . S
C3263 C3267 1.393 . S
C3264 H3253 0.950 . S
C3264 C3262 1.391 . S
C3264 C3265 1.400 . S
C3265 C3259 1.491 . S
C3265 C3264 1.400 . S
C3265 C3266 1.398 . S
C3266 H3254 0.950 . S
C3266 C3265 1.398 . S
C3266 C3267 1.391 . S
C3267 H3255 0.950 . S
C3267 C3263 1.393 . S
C3267 C3266 1.391 . S
H3268 C3276 0.950 . S
H3269 C3281 0.950 . S
H3270 C3278 0.950 . S
H3271 C3280 0.950 . S
H3272 C3282 0.950 . S
H3273 C3284 0.950 . S
H3274 C3286 0.950 . S
H3275 C3287 0.950 . S
C3276 H3268 0.950 . S
C3276 C3277 1.386 . S
C3276 C3278 1.391 . S
C3277 C3276 1.386 . S
C3277 C3281 1.393 . S
C3278 H3270 0.950 . S
C3278 C3276 1.391 . S
C3278 C3279 1.400 . S
C3279 C3278 1.400 . S
C3279 C3280 1.398 . S
C3279 C3285 1.491 . S
C3280 H3271 0.950 . S
C3280 C3279 1.398 . S
C3280 C3281 1.391 . S
C3281 H3269 0.950 . S
C3281 C3277 1.393 . S
C3281 C3280 1.391 . S
C3282 H3272 0.950 . S
C3282 C3283 1.386 . S
C3282 C3284 1.391 . S
C3283 C3282 1.386 . S
C3283 C3287 1.393 . S
C3284 H3273 0.950 . S
C3284 C3282 1.391 . S
C3284 C3285 1.400 . S
C3285 C3279 1.491 . S
C3285 C3284 1.400 . S
C3285 C3286 1.398 . S
C3286 H3274 0.950 . S
C3286 C3285 1.398 . S
C3286 C3287 1.391 . S
C3287 H3275 0.950 . S
C3287 C3283 1.393 . S
C3287 C3286 1.391 . S
H3288 C3296 0.950 . S
H3289 C3301 0.950 . S
H3290 C3298 0.950 . S
H3291 C3300 0.950 . S
H3292 C3302 0.950 . S
H3293 C3304 0.950 . S
H3294 C3306 0.950 . S
H3295 C3307 0.950 . S
C3296 H3288 0.950 . S
C3296 C3297 1.386 . S
C3296 C3298 1.391 . S
C3297 C3296 1.386 . S
C3297 C3301 1.393 . S
C3298 H3290 0.950 . S
C3298 C3296 1.391 . S
C3298 C3299 1.400 . S
C3299 C3298 1.400 . S
C3299 C3300 1.398 . S
C3299 C3305 1.491 . S
C3300 H3291 0.950 . S
C3300 C3299 1.398 . S
C3300 C3301 1.391 . S
C3301 H3289 0.950 . S
C3301 C3297 1.393 . S
C3301 C3300 1.391 . S
C3302 H3292 0.950 . S
C3302 C3303 1.386 . S
C3302 C3304 1.391 . S
C3303 C3302 1.386 . S
C3303 C3307 1.393 . S
C3304 H3293 0.950 . S
C3304 C3302 1.391 . S
C3304 C3305 1.400 . S
C3305 C3299 1.491 . S
C3305 C3304 1.400 . S
C3305 C3306 1.398 . S
C3306 H3294 0.950 . S
C3306 C3305 1.398 . S
C3306 C3307 1.391 . S
C3307 H3295 0.950 . S
C3307 C3303 1.393 . S
C3307 C3306 1.391 . S
H3308 C3316 0.950 . S
H3309 C3321 0.950 . S
H3310 C3318 0.950 . S
H3311 C3320 0.950 . S
H3312 C3322 0.950 . S
H3313 C3324 0.950 . S
H3314 C3326 0.950 . S
H3315 C3327 0.950 . S
C3316 H3308 0.950 . S
C3316 C3317 1.386 . S
C3316 C3318 1.391 . S
C3317 C3316 1.386 . S
C3317 C3321 1.393 . S
C3318 H3310 0.950 . S
C3318 C3316 1.391 . S
C3318 C3319 1.400 . S
C3319 C3318 1.400 . S
C3319 C3320 1.398 . S
C3319 C3325 1.491 . S
C3320 H3311 0.950 . S
C3320 C3319 1.398 . S
C3320 C3321 1.391 . S
C3321 H3309 0.950 . S
C3321 C3317 1.393 . S
C3321 C3320 1.391 . S
C3322 H3312 0.950 . S
C3322 C3323 1.386 . S
C3322 C3324 1.391 . S
C3323 C3322 1.386 . S
C3323 C3327 1.393 . S
C3324 H3313 0.950 . S
C3324 C3322 1.391 . S
C3324 C3325 1.400 . S
C3325 C3319 1.491 . S
C3325 C3324 1.400 . S
C3325 C3326 1.398 . S
C3326 H3314 0.950 . S
C3326 C3325 1.398 . S
C3326 C3327 1.391 . S
C3327 H3315 0.950 . S
C3327 C3323 1.393 . S
C3327 C3326 1.391 . S
H3328 C3336 0.950 . S
H3329 C3341 0.950 . S
H3330 C3338 0.950 . S
H3331 C3340 0.950 . S
H3332 C3342 0.950 . S
H3333 C3344 0.950 . S
H3334 C3346 0.950 . S
H3335 C3347 0.950 . S
C3336 H3328 0.950 . S
C3336 C3337 1.386 . S
C3336 C3338 1.391 . S
C3337 C3336 1.386 . S
C3337 C3341 1.393 . S
C3338 H3330 0.950 . S
C3338 C3336 1.391 . S
C3338 C3339 1.400 . S
C3339 C3338 1.400 . S
C3339 C3340 1.398 . S
C3339 C3345 1.491 . S
C3340 H3331 0.950 . S
C3340 C3339 1.398 . S
C3340 C3341 1.391 . S
C3341 H3329 0.950 . S
C3341 C3337 1.393 . S
C3341 C3340 1.391 . S
C3342 H3332 0.950 . S
C3342 C3343 1.386 . S
C3342 C3344 1.391 . S
C3343 C3342 1.386 . S
C3343 C3347 1.393 . S
C3344 H3333 0.950 . S
C3344 C3342 1.391 . S
C3344 C3345 1.400 . S
C3345 C3339 1.491 . S
C3345 C3344 1.400 . S
C3345 C3346 1.398 . S
C3346 H3334 0.950 . S
C3346 C3345 1.398 . S
C3346 C3347 1.391 . S
C3347 H3335 0.950 . S
C3347 C3343 1.393 . S
C3347 C3346 1.391 . S
H3348 C3356 0.950 . S
H3349 C3361 0.950 . S
H3350 C3358 0.950 . S
H3351 C3360 0.950 . S
H3352 C3362 0.950 . S
H3353 C3364 0.950 . S
H3354 C3366 0.950 . S
H3355 C3367 0.950 . S
C3356 H3348 0.950 . S
C3356 C3357 1.386 . S
C3356 C3358 1.391 . S
C3357 C3356 1.386 . S
C3357 C3361 1.393 . S
C3358 H3350 0.950 . S
C3358 C3356 1.391 . S
C3358 C3359 1.400 . S
C3359 C3358 1.400 . S
C3359 C3360 1.398 . S
C3359 C3365 1.491 . S
C3360 H3351 0.950 . S
C3360 C3359 1.398 . S
C3360 C3361 1.391 . S
C3361 H3349 0.950 . S
C3361 C3357 1.393 . S
C3361 C3360 1.391 . S
C3362 H3352 0.950 . S
C3362 C3363 1.386 . S
C3362 C3364 1.391 . S
C3363 C3362 1.386 . S
C3363 C3367 1.393 . S
C3364 H3353 0.950 . S
C3364 C3362 1.391 . S
C3364 C3365 1.400 . S
C3365 C3359 1.491 . S
C3365 C3364 1.400 . S
C3365 C3366 1.398 . S
C3366 H3354 0.950 . S
C3366 C3365 1.398 . S
C3366 C3367 1.391 . S
C3367 H3355 0.950 . S
C3367 C3363 1.393 . S
C3367 C3366 1.391 . S
H3368 C3376 0.950 . S
H3369 C3381 0.950 . S
H3370 C3378 0.950 . S
H3371 C3380 0.950 . S
H3372 C3382 0.950 . S
H3373 C3384 0.950 . S
H3374 C3386 0.950 . S
H3375 C3387 0.950 . S
C3376 H3368 0.950 . S
C3376 C3377 1.386 . S
C3376 C3378 1.391 . S
C3377 C3376 1.386 . S
C3377 C3381 1.393 . S
C3378 H3370 0.950 . S
C3378 C3376 1.391 . S
C3378 C3379 1.400 . S
C3379 C3378 1.400 . S
C3379 C3380 1.398 . S
C3379 C3385 1.491 . S
C3380 H3371 0.950 . S
C3380 C3379 1.398 . S
C3380 C3381 1.391 . S
C3381 H3369 0.950 . S
C3381 C3377 1.393 . S
C3381 C3380 1.391 . S
C3382 H3372 0.950 . S
C3382 C3383 1.386 . S
C3382 C3384 1.391 . S
C3383 C3382 1.386 . S
C3383 C3387 1.393 . S
C3384 H3373 0.950 . S
C3384 C3382 1.391 . S
C3384 C3385 1.400 . S
C3385 C3379 1.491 . S
C3385 C3384 1.400 . S
C3385 C3386 1.398 . S
C3386 H3374 0.950 . S
C3386 C3385 1.398 . S
C3386 C3387 1.391 . S
C3387 H3375 0.950 . S
C3387 C3383 1.393 . S
C3387 C3386 1.391 . S
H3388 C3396 0.950 . S
H3389 C3401 0.950 . S
H3390 C3398 0.950 . S
H3391 C3400 0.950 . S
H3392 C3402 0.950 . S
H3393 C3404 0.950 . S
H3394 C3406 0.950 . S
H3395 C3407 0.950 . S
C3396 H3388 0.950 . S
C3396 C3397 1.386 . S
C3396 C3398 1.391 . S
C3397 C3396 1.386 . S
C3397 C3401 1.393 . S
C3398 H3390 0.950 . S
C3398 C3396 1.391 . S
C3398 C3399 1.400 . S
C3399 C3398 1.400 . S
C3399 C3400 1.398 . S
C3399 C3405 1.491 . S
C3400 H3391 0.950 . S
C3400 C3399 1.398 . S
C3400 C3401 1.391 . S
C3401 H3389 0.950 . S
C3401 C3397 1.393 . S
C3401 C3400 1.391 . S
C3402 H3392 0.950 . S
C3402 C3403 1.386 . S
C3402 C3404 1.391 . S
C3403 C3402 1.386 . S
C3403 C3407 1.393 . S
C3404 H3393 0.950 . S
C3404 C3402 1.391 . S
C3404 C3405 1.400 . S
C3405 C3399 1.491 . S
C3405 C3404 1.400 . S
C3405 C3406 1.398 . S
C3406 H3394 0.950 . S
C3406 C3405 1.398 . S
C3406 C3407 1.391 . S
C3407 H3395 0.950 . S
C3407 C3403 1.393 . S
C3407 C3406 1.391 . S
H3408 C3416 0.950 . S
H3409 C3421 0.950 . S
H3410 C3418 0.950 1_655 S
H3411 C3420 0.950 . S
H3412 C3422 0.950 . S
H3413 C3424 0.950 1_455 S
H3414 C3426 0.950 . S
H3415 C3427 0.950 . S
C3416 H3408 0.950 . S
C3416 C3417 1.386 . S
C3416 C3418 1.391 . S
C3417 C3416 1.386 . S
C3417 C3421 1.393 . S
C3418 H3410 0.950 1_455 S
C3418 C3416 1.391 . S
C3418 C3419 1.400 . S
C3419 C3418 1.400 . S
C3419 C3420 1.398 . S
C3419 C3425 1.491 1_455 S
C3420 H3411 0.950 . S
C3420 C3419 1.398 . S
C3420 C3421 1.391 . S
C3421 H3409 0.950 . S
C3421 C3417 1.393 . S
C3421 C3420 1.391 . S
C3422 H3412 0.950 . S
C3422 C3423 1.386 . S
C3422 C3424 1.391 . S
C3423 C3422 1.386 . S
C3423 C3427 1.393 . S
C3424 H3413 0.950 1_655 S
C3424 C3422 1.391 . S
C3424 C3425 1.400 . S
C3425 C3419 1.491 1_655 S
C3425 C3424 1.400 . S
C3425 C3426 1.398 . S
C3426 H3414 0.950 . S
C3426 C3425 1.398 . S
C3426 C3427 1.391 . S
C3427 H3415 0.950 . S
C3427 C3423 1.393 . S
C3427 C3426 1.391 . S
H3428 C3436 0.950 . S
H3429 C3441 0.950 . S
H3430 C3438 0.950 . S
H3431 C3440 0.950 . S
H3432 C3442 0.950 . S
H3433 C3444 0.950 . S
H3434 C3446 0.950 . S
H3435 C3447 0.950 . S
C3436 H3428 0.950 . S
C3436 C3437 1.386 . S
C3436 C3438 1.391 . S
C3437 C3436 1.386 . S
C3437 C3441 1.393 . S
C3438 H3430 0.950 . S
C3438 C3436 1.391 . S
C3438 C3439 1.400 . S
C3439 C3438 1.400 . S
C3439 C3440 1.398 . S
C3439 C3445 1.491 . S
C3440 H3431 0.950 . S
C3440 C3439 1.398 . S
C3440 C3441 1.391 . S
C3441 H3429 0.950 . S
C3441 C3437 1.393 . S
C3441 C3440 1.391 . S
C3442 H3432 0.950 . S
C3442 C3443 1.386 . S
C3442 C3444 1.391 . S
C3443 C3442 1.386 . S
C3443 C3447 1.393 . S
C3444 H3433 0.950 . S
C3444 C3442 1.391 . S
C3444 C3445 1.400 . S
C3445 C3439 1.491 . S
C3445 C3444 1.400 . S
C3445 C3446 1.398 . S
C3446 H3434 0.950 . S
C3446 C3445 1.398 . S
C3446 C3447 1.391 . S
C3447 H3435 0.950 . S
C3447 C3443 1.393 . S
C3447 C3446 1.391 . S
H3448 C3456 0.950 . S
H3449 C3461 0.950 . S
H3450 C3458 0.950 . S
H3451 C3460 0.950 . S
H3452 C3462 0.950 . S
H3453 C3464 0.950 . S
H3454 C3466 0.950 . S
H3455 C3467 0.950 . S
C3456 H3448 0.950 . S
C3456 C3457 1.386 . S
C3456 C3458 1.391 . S
C3457 C3456 1.386 . S
C3457 C3461 1.393 . S
C3458 H3450 0.950 . S
C3458 C3456 1.391 . S
C3458 C3459 1.400 . S
C3459 C3458 1.400 . S
C3459 C3460 1.398 . S
C3459 C3465 1.491 1_565 S
C3460 H3451 0.950 . S
C3460 C3459 1.398 . S
C3460 C3461 1.391 . S
C3461 H3449 0.950 . S
C3461 C3457 1.393 . S
C3461 C3460 1.391 . S
C3462 H3452 0.950 . S
C3462 C3463 1.386 . S
C3462 C3464 1.391 . S
C3463 C3462 1.386 . S
C3463 C3467 1.393 . S
C3464 H3453 0.950 . S
C3464 C3462 1.391 . S
C3464 C3465 1.400 . S
C3465 C3459 1.491 1_545 S
C3465 C3464 1.400 . S
C3465 C3466 1.398 . S
C3466 H3454 0.950 . S
C3466 C3465 1.398 . S
C3466 C3467 1.391 . S
C3467 H3455 0.950 . S
C3467 C3463 1.393 . S
C3467 C3466 1.391 . S
H3468 C3476 0.950 . S
H3469 C3481 0.950 . S
H3470 C3478 0.950 . S
H3471 C3480 0.950 1_545 S
H3472 C3482 0.950 . S
H3473 C3484 0.950 . S
H3474 C3486 0.950 1_565 S
H3475 C3487 0.950 . S
C3476 H3468 0.950 . S
C3476 C3477 1.386 . S
C3476 C3478 1.391 . S
C3477 C3476 1.386 . S
C3477 C3481 1.393 . S
C3478 H3470 0.950 . S
C3478 C3476 1.391 . S
C3478 C3479 1.400 . S
C3479 C3478 1.400 . S
C3479 C3480 1.398 . S
C3479 C3485 1.491 1_565 S
C3480 H3471 0.950 1_565 S
C3480 C3479 1.398 . S
C3480 C3481 1.391 . S
C3481 H3469 0.950 . S
C3481 C3477 1.393 . S
C3481 C3480 1.391 . S
C3482 H3472 0.950 . S
C3482 C3483 1.386 . S
C3482 C3484 1.391 . S
C3483 C3482 1.386 . S
C3483 C3487 1.393 . S
C3484 H3473 0.950 . S
C3484 C3482 1.391 . S
C3484 C3485 1.400 . S
C3485 C3479 1.491 1_545 S
C3485 C3484 1.400 . S
C3485 C3486 1.398 . S
C3486 H3474 0.950 1_545 S
C3486 C3485 1.398 . S
C3486 C3487 1.391 . S
C3487 H3475 0.950 . S
C3487 C3483 1.393 . S
C3487 C3486 1.391 . S
H3488 C3496 0.950 . S
H3489 C3501 0.950 . S
H3490 C3498 0.950 . S
H3491 C3500 0.950 1_655 S
H3492 C3502 0.950 . S
H3493 C3504 0.950 . S
H3494 C3506 0.950 . S
H3495 C3507 0.950 . S
C3496 H3488 0.950 . S
C3496 C3497 1.386 . S
C3496 C3498 1.391 . S
C3497 C3496 1.386 . S
C3497 C3501 1.393 . S
C3498 H3490 0.950 . S
C3498 C3496 1.391 . S
C3498 C3499 1.400 . S
C3499 C3498 1.400 . S
C3499 C3500 1.398 . S
C3499 C3505 1.491 1_455 S
C3500 H3491 0.950 1_455 S
C3500 C3499 1.398 . S
C3500 C3501 1.391 . S
C3501 H3489 0.950 . S
C3501 C3497 1.393 . S
C3501 C3500 1.391 . S
C3502 H3492 0.950 . S
C3502 C3503 1.386 . S
C3502 C3504 1.391 . S
C3503 C3502 1.386 . S
C3503 C3507 1.393 . S
C3504 H3493 0.950 . S
C3504 C3502 1.391 . S
C3504 C3505 1.400 . S
C3505 C3499 1.491 1_655 S
C3505 C3504 1.400 . S
C3505 C3506 1.398 . S
C3506 H3494 0.950 . S
C3506 C3505 1.398 . S
C3506 C3507 1.391 . S
C3507 H3495 0.950 . S
C3507 C3503 1.393 . S
C3507 C3506 1.391 . S
H3508 C3516 0.950 . S
H3509 C3521 0.950 . S
H3510 C3518 0.950 . S
H3511 C3520 0.950 . S
H3512 C3522 0.950 . S
H3513 C3524 0.950 . S
H3514 C3526 0.950 . S
H3515 C3527 0.950 . S
C3516 H3508 0.950 . S
C3516 C3517 1.386 . S
C3516 C3518 1.391 . S
C3517 C3516 1.386 . S
C3517 C3521 1.393 . S
C3518 H3510 0.950 . S
C3518 C3516 1.391 . S
C3518 C3519 1.400 . S
C3519 C3518 1.400 . S
C3519 C3520 1.398 . S
C3519 C3525 1.491 . S
C3520 H3511 0.950 . S
C3520 C3519 1.398 . S
C3520 C3521 1.391 . S
C3521 H3509 0.950 . S
C3521 C3517 1.393 . S
C3521 C3520 1.391 . S
C3522 H3512 0.950 . S
C3522 C3523 1.386 . S
C3522 C3524 1.391 . S
C3523 C3522 1.386 . S
C3523 C3527 1.393 . S
C3524 H3513 0.950 . S
C3524 C3522 1.391 . S
C3524 C3525 1.400 . S
C3525 C3519 1.491 . S
C3525 C3524 1.400 . S
C3525 C3526 1.398 . S
C3526 H3514 0.950 . S
C3526 C3525 1.398 . S
C3526 C3527 1.391 . S
C3527 H3515 0.950 . S
C3527 C3523 1.393 . S
C3527 C3526 1.391 . S
H3528 C3536 0.950 . S
H3529 C3541 0.950 . S
H3530 C3538 0.950 . S
H3531 C3540 0.950 . S
H3532 C3542 0.950 . S
H3533 C3544 0.950 . S
H3534 C3546 0.950 . S
H3535 C3547 0.950 . S
C3536 H3528 0.950 . S
C3536 C3537 1.386 . S
C3536 C3538 1.391 . S
C3537 C3536 1.386 . S
C3537 C3541 1.393 . S
C3538 H3530 0.950 . S
C3538 C3536 1.391 . S
C3538 C3539 1.400 . S
C3539 C3538 1.400 . S
C3539 C3540 1.398 . S
C3539 C3545 1.491 . S
C3540 H3531 0.950 . S
C3540 C3539 1.398 . S
C3540 C3541 1.391 . S
C3541 H3529 0.950 . S
C3541 C3537 1.393 . S
C3541 C3540 1.391 . S
C3542 H3532 0.950 . S
C3542 C3543 1.386 . S
C3542 C3544 1.391 . S
C3543 C3542 1.386 . S
C3543 C3547 1.393 . S
C3544 H3533 0.950 . S
C3544 C3542 1.391 . S
C3544 C3545 1.400 . S
C3545 C3539 1.491 . S
C3545 C3544 1.400 . S
C3545 C3546 1.398 . S
C3546 H3534 0.950 . S
C3546 C3545 1.398 . S
C3546 C3547 1.391 . S
C3547 H3535 0.950 . S
C3547 C3543 1.393 . S
C3547 C3546 1.391 . S
H3548 C3556 0.950 . S
H3549 C3561 0.950 . S
H3550 C3558 0.950 . S
H3551 C3560 0.950 . S
H3552 C3562 0.950 . S
H3553 C3564 0.950 . S
H3554 C3566 0.950 . S
H3555 C3567 0.950 . S
C3556 H3548 0.950 . S
C3556 C3557 1.386 1_556 S
C3556 C3558 1.391 . S
C3557 C3556 1.386 1_554 S
C3557 C3561 1.393 . S
C3558 H3550 0.950 . S
C3558 C3556 1.391 . S
C3558 C3559 1.400 1_556 S
C3559 C3558 1.400 1_554 S
C3559 C3560 1.398 . S
C3559 C3565 1.491 . S
C3560 H3551 0.950 . S
C3560 C3559 1.398 . S
C3560 C3561 1.391 . S
C3561 H3549 0.950 . S
C3561 C3557 1.393 . S
C3561 C3560 1.391 . S
C3562 H3552 0.950 . S
C3562 C3563 1.386 . S
C3562 C3564 1.391 . S
C3563 C3562 1.386 . S
C3563 C3567 1.393 1_554 S
C3564 H3553 0.950 . S
C3564 C3562 1.391 . S
C3564 C3565 1.400 . S
C3565 C3559 1.491 . S
C3565 C3564 1.400 . S
C3565 C3566 1.398 1_554 S
C3566 H3554 0.950 . S
C3566 C3565 1.398 1_556 S
C3566 C3567 1.391 . S
C3567 H3555 0.950 . S
C3567 C3563 1.393 1_556 S
C3567 C3566 1.391 . S
H3568 C3576 0.950 . S
H3569 C3581 0.950 . S
H3570 C3578 0.950 . S
H3571 C3580 0.950 . S
H3572 C3582 0.950 . S
H3573 C3584 0.950 . S
H3574 C3586 0.950 . S
H3575 C3587 0.950 . S
C3576 H3568 0.950 . S
C3576 C3577 1.386 . S
C3576 C3578 1.391 . S
C3577 C3576 1.386 . S
C3577 C3581 1.393 . S
C3578 H3570 0.950 . S
C3578 C3576 1.391 . S
C3578 C3579 1.400 . S
C3579 C3578 1.400 . S
C3579 C3580 1.398 . S
C3579 C3585 1.491 . S
C3580 H3571 0.950 . S
C3580 C3579 1.398 . S
C3580 C3581 1.391 . S
C3581 H3569 0.950 . S
C3581 C3577 1.393 . S
C3581 C3580 1.391 . S
C3582 H3572 0.950 . S
C3582 C3583 1.386 . S
C3582 C3584 1.391 . S
C3583 C3582 1.386 . S
C3583 C3587 1.393 . S
C3584 H3573 0.950 . S
C3584 C3582 1.391 . S
C3584 C3585 1.400 . S
C3585 C3579 1.491 . S
C3585 C3584 1.400 . S
C3585 C3586 1.398 . S
C3586 H3574 0.950 . S
C3586 C3585 1.398 . S
C3586 C3587 1.391 . S
C3587 H3575 0.950 . S
C3587 C3583 1.393 . S
C3587 C3586 1.391 . S
H3588 C3596 0.950 . S
H3589 C3601 0.950 . S
H3590 C3598 0.950 . S
H3591 C3600 0.950 . S
H3592 C3602 0.950 . S
H3593 C3604 0.950 . S
H3594 C3606 0.950 . S
H3595 C3607 0.950 . S
C3596 H3588 0.950 . S
C3596 C3597 1.386 . S
C3596 C3598 1.391 . S
C3597 C3596 1.386 . S
C3597 C3601 1.393 . S
C3598 H3590 0.950 . S
C3598 C3596 1.391 . S
C3598 C3599 1.400 . S
C3599 C3598 1.400 . S
C3599 C3600 1.398 . S
C3599 C3605 1.491 . S
C3600 H3591 0.950 . S
C3600 C3599 1.398 . S
C3600 C3601 1.391 . S
C3601 H3589 0.950 . S
C3601 C3597 1.393 . S
C3601 C3600 1.391 . S
C3602 H3592 0.950 . S
C3602 C3603 1.386 . S
C3602 C3604 1.391 . S
C3603 C3602 1.386 . S
C3603 C3607 1.393 . S
C3604 H3593 0.950 . S
C3604 C3602 1.391 . S
C3604 C3605 1.400 . S
C3605 C3599 1.491 . S
C3605 C3604 1.400 . S
C3605 C3606 1.398 . S
C3606 H3594 0.950 . S
C3606 C3605 1.398 . S
C3606 C3607 1.391 . S
C3607 H3595 0.950 . S
C3607 C3603 1.393 . S
C3607 C3606 1.391 . S
H3608 C3616 0.950 . S
H3609 C3621 0.950 . S
H3610 C3618 0.950 . S
H3611 C3620 0.950 . S
H3612 C3622 0.950 . S
H3613 C3624 0.950 . S
H3614 C3626 0.950 . S
H3615 C3627 0.950 . S
C3616 H3608 0.950 . S
C3616 C3617 1.386 . S
C3616 C3618 1.391 . S
C3617 C3616 1.386 . S
C3617 C3621 1.393 . S
C3618 H3610 0.950 . S
C3618 C3616 1.391 . S
C3618 C3619 1.400 . S
C3619 C3618 1.400 . S
C3619 C3620 1.398 . S
C3619 C3625 1.491 . S
C3620 H3611 0.950 . S
C3620 C3619 1.398 . S
C3620 C3621 1.391 . S
C3621 H3609 0.950 . S
C3621 C3617 1.393 . S
C3621 C3620 1.391 . S
C3622 H3612 0.950 . S
C3622 C3623 1.386 . S
C3622 C3624 1.391 . S
C3623 C3622 1.386 . S
C3623 C3627 1.393 . S
C3624 H3613 0.950 . S
C3624 C3622 1.391 . S
C3624 C3625 1.400 . S
C3625 C3619 1.491 . S
C3625 C3624 1.400 . S
C3625 C3626 1.398 . S
C3626 H3614 0.950 . S
C3626 C3625 1.398 . S
C3626 C3627 1.391 . S
C3627 H3615 0.950 . S
C3627 C3623 1.393 . S
C3627 C3626 1.391 . S
H3628 C3636 0.950 . S
H3629 C3641 0.950 . S
H3630 C3638 0.950 . S
H3631 C3640 0.950 . S
H3632 C3642 0.950 . S
H3633 C3644 0.950 . S
H3634 C3646 0.950 . S
H3635 C3647 0.950 . S
C3636 H3628 0.950 . S
C3636 C3637 1.386 . S
C3636 C3638 1.391 . S
C3637 C3636 1.386 . S
C3637 C3641 1.393 . S
C3638 H3630 0.950 . S
C3638 C3636 1.391 . S
C3638 C3639 1.400 . S
C3639 C3638 1.400 . S
C3639 C3640 1.398 . S
C3639 C3645 1.491 . S
C3640 H3631 0.950 . S
C3640 C3639 1.398 . S
C3640 C3641 1.391 . S
C3641 H3629 0.950 . S
C3641 C3637 1.393 . S
C3641 C3640 1.391 . S
C3642 H3632 0.950 . S
C3642 C3643 1.386 . S
C3642 C3644 1.391 . S
C3643 C3642 1.386 . S
C3643 C3647 1.393 . S
C3644 H3633 0.950 . S
C3644 C3642 1.391 . S
C3644 C3645 1.400 . S
C3645 C3639 1.491 . S
C3645 C3644 1.400 . S
C3645 C3646 1.398 . S
C3646 H3634 0.950 . S
C3646 C3645 1.398 . S
C3646 C3647 1.391 . S
C3647 H3635 0.950 . S
C3647 C3643 1.393 . S
C3647 C3646 1.391 . S
H3648 C3656 0.950 . S
H3649 C3661 0.950 . S
H3650 C3658 0.950 . S
H3651 C3660 0.950 1_554 S
H3652 C3662 0.950 . S
H3653 C3664 0.950 . S
H3654 C3666 0.950 . S
H3655 C3667 0.950 . S
C3656 H3648 0.950 . S
C3656 C3657 1.386 . S
C3656 C3658 1.391 . S
C3657 C3656 1.386 . S
C3657 C3661 1.393 1_556 S
C3658 H3650 0.950 . S
C3658 C3656 1.391 . S
C3658 C3659 1.400 . S
C3659 C3658 1.400 . S
C3659 C3660 1.398 . S
C3659 C3665 1.491 . S
C3660 H3651 0.950 1_556 S
C3660 C3659 1.398 . S
C3660 C3661 1.391 1_556 S
C3661 H3649 0.950 . S
C3661 C3657 1.393 1_554 S
C3661 C3660 1.391 1_554 S
C3662 H3652 0.950 . S
C3662 C3663 1.386 . S
C3662 C3664 1.391 . S
C3663 C3662 1.386 . S
C3663 C3667 1.393 . S
C3664 H3653 0.950 . S
C3664 C3662 1.391 . S
C3664 C3665 1.400 . S
C3665 C3659 1.491 . S
C3665 C3664 1.400 . S
C3665 C3666 1.398 . S
C3666 H3654 0.950 . S
C3666 C3665 1.398 . S
C3666 C3667 1.391 . S
C3667 H3655 0.950 . S
C3667 C3663 1.393 . S
C3667 C3666 1.391 . S
H3668 C3676 0.950 1_554 S
H3669 C3681 0.950 . S
H3670 C3678 0.950 1_554 S
H3671 C3680 0.950 . S
H3672 C3682 0.950 . S
H3673 C3684 0.950 . S
H3674 C3686 0.950 . S
H3675 C3687 0.950 . S
C3676 H3668 0.950 1_556 S
C3676 C3677 1.386 . S
C3676 C3678 1.391 . S
C3677 C3676 1.386 . S
C3677 C3681 1.393 . S
C3678 H3670 0.950 1_556 S
C3678 C3676 1.391 . S
C3678 C3679 1.400 . S
C3679 C3678 1.400 . S
C3679 C3680 1.398 . S
C3679 C3685 1.491 . S
C3680 H3671 0.950 . S
C3680 C3679 1.398 . S
C3680 C3681 1.391 . S
C3681 H3669 0.950 . S
C3681 C3677 1.393 . S
C3681 C3680 1.391 . S
C3682 H3672 0.950 . S
C3682 C3683 1.386 . S
C3682 C3684 1.391 . S
C3683 C3682 1.386 . S
C3683 C3687 1.393 1_556 S
C3684 H3673 0.950 . S
C3684 C3682 1.391 . S
C3684 C3685 1.400 . S
C3685 C3679 1.491 . S
C3685 C3684 1.400 . S
C3685 C3686 1.398 1_556 S
C3686 H3674 0.950 . S
C3686 C3685 1.398 1_554 S
C3686 C3687 1.391 . S
C3687 H3675 0.950 . S
C3687 C3683 1.393 1_554 S
C3687 C3686 1.391 . S
H3688 C3696 0.950 . S
H3689 C3701 0.950 . S
H3690 C3698 0.950 . S
H3691 C3700 0.950 . S
H3692 C3702 0.950 . S
H3693 C3704 0.950 . S
H3694 C3706 0.950 . S
H3695 C3707 0.950 . S
C3696 H3688 0.950 . S
C3696 C3697 1.386 . S
C3696 C3698 1.391 . S
C3697 C3696 1.386 . S
C3697 C3701 1.393 1_556 S
C3698 H3690 0.950 . S
C3698 C3696 1.391 . S
C3698 C3699 1.400 . S
C3699 C3698 1.400 . S
C3699 C3700 1.398 1_556 S
C3699 C3705 1.491 . S
C3700 H3691 0.950 . S
C3700 C3699 1.398 1_554 S
C3700 C3701 1.391 . S
C3701 H3689 0.950 . S
C3701 C3697 1.393 1_554 S
C3701 C3700 1.391 . S
C3702 H3692 0.950 . S
C3702 C3703 1.386 1_554 S
C3702 C3704 1.391 . S
C3703 C3702 1.386 1_556 S
C3703 C3707 1.393 . S
C3704 H3693 0.950 . S
C3704 C3702 1.391 . S
C3704 C3705 1.400 1_554 S
C3705 C3699 1.491 . S
C3705 C3704 1.400 1_556 S
C3705 C3706 1.398 . S
C3706 H3694 0.950 . S
C3706 C3705 1.398 . S
C3706 C3707 1.391 . S
C3707 H3695 0.950 . S
C3707 C3703 1.393 . S
C3707 C3706 1.391 . S
H3708 C3716 0.950 . S
H3709 C3721 0.950 . S
H3710 C3718 0.950 . S
H3711 C3720 0.950 . S
H3712 C3722 0.950 . S
H3713 C3724 0.950 . S
H3714 C3726 0.950 . S
H3715 C3727 0.950 . S
C3716 H3708 0.950 . S
C3716 C3717 1.386 . S
C3716 C3718 1.391 . S
C3717 C3716 1.386 . S
C3717 C3721 1.393 . S
C3718 H3710 0.950 . S
C3718 C3716 1.391 . S
C3718 C3719 1.400 . S
C3719 C3718 1.400 . S
C3719 C3720 1.398 . S
C3719 C3725 1.491 . S
C3720 H3711 0.950 . S
C3720 C3719 1.398 . S
C3720 C3721 1.391 . S
C3721 H3709 0.950 . S
C3721 C3717 1.393 . S
C3721 C3720 1.391 . S
C3722 H3712 0.950 . S
C3722 C3723 1.386 . S
C3722 C3724 1.391 . S
C3723 C3722 1.386 . S
C3723 C3727 1.393 . S
C3724 H3713 0.950 . S
C3724 C3722 1.391 . S
C3724 C3725 1.400 . S
C3725 C3719 1.491 . S
C3725 C3724 1.400 . S
C3725 C3726 1.398 . S
C3726 H3714 0.950 . S
C3726 C3725 1.398 . S
C3726 C3727 1.391 . S
C3727 H3715 0.950 . S
C3727 C3723 1.393 . S
C3727 C3726 1.391 . S
H3728 C3736 0.950 . S
H3729 C3741 0.950 . S
H3730 C3738 0.950 . S
H3731 C3740 0.950 . S
H3732 C3742 0.950 . S
H3733 C3744 0.950 . S
H3734 C3746 0.950 . S
H3735 C3747 0.950 . S
C3736 H3728 0.950 . S
C3736 C3737 1.386 . S
C3736 C3738 1.391 . S
C3737 C3736 1.386 . S
C3737 C3741 1.393 . S
C3738 H3730 0.950 . S
C3738 C3736 1.391 . S
C3738 C3739 1.400 . S
C3739 C3738 1.400 . S
C3739 C3740 1.398 . S
C3739 C3745 1.491 . S
C3740 H3731 0.950 . S
C3740 C3739 1.398 . S
C3740 C3741 1.391 . S
C3741 H3729 0.950 . S
C3741 C3737 1.393 . S
C3741 C3740 1.391 . S
C3742 H3732 0.950 . S
C3742 C3743 1.386 . S
C3742 C3744 1.391 . S
C3743 C3742 1.386 . S
C3743 C3747 1.393 . S
C3744 H3733 0.950 . S
C3744 C3742 1.391 . S
C3744 C3745 1.400 . S
C3745 C3739 1.491 . S
C3745 C3744 1.400 . S
C3745 C3746 1.398 . S
C3746 H3734 0.950 . S
C3746 C3745 1.398 . S
C3746 C3747 1.391 . S
C3747 H3735 0.950 . S
C3747 C3743 1.393 . S
C3747 C3746 1.391 . S
H3748 C3756 0.950 . S
H3749 C3761 0.950 . S
H3750 C3758 0.950 . S
H3751 C3760 0.950 . S
H3752 C3762 0.950 . S
H3753 C3764 0.950 . S
H3754 C3766 0.950 . S
H3755 C3767 0.950 . S
C3756 H3748 0.950 . S
C3756 C3757 1.386 . S
C3756 C3758 1.391 . S
C3757 C3756 1.386 . S
C3757 C3761 1.393 . S
C3758 H3750 0.950 . S
C3758 C3756 1.391 . S
C3758 C3759 1.400 . S
C3759 C3758 1.400 . S
C3759 C3760 1.398 . S
C3759 C3765 1.491 . S
C3760 H3751 0.950 . S
C3760 C3759 1.398 . S
C3760 C3761 1.391 . S
C3761 H3749 0.950 . S
C3761 C3757 1.393 . S
C3761 C3760 1.391 . S
C3762 H3752 0.950 . S
C3762 C3763 1.386 . S
C3762 C3764 1.391 . S
C3763 C3762 1.386 . S
C3763 C3767 1.393 . S
C3764 H3753 0.950 . S
C3764 C3762 1.391 . S
C3764 C3765 1.400 . S
C3765 C3759 1.491 . S
C3765 C3764 1.400 . S
C3765 C3766 1.398 . S
C3766 H3754 0.950 . S
C3766 C3765 1.398 . S
C3766 C3767 1.391 . S
C3767 H3755 0.950 . S
C3767 C3763 1.393 . S
C3767 C3766 1.391 . S
H3768 C3776 0.950 . S
H3769 C3781 0.950 . S
H3770 C3778 0.950 . S
H3771 C3780 0.950 . S
H3772 C3782 0.950 . S
H3773 C3784 0.950 . S
H3774 C3786 0.950 . S
H3775 C3787 0.950 . S
C3776 H3768 0.950 . S
C3776 C3777 1.386 . S
C3776 C3778 1.391 . S
C3777 C3776 1.386 . S
C3777 C3781 1.393 . S
C3778 H3770 0.950 . S
C3778 C3776 1.391 . S
C3778 C3779 1.400 . S
C3779 C3778 1.400 . S
C3779 C3780 1.398 . S
C3779 C3785 1.491 . S
C3780 H3771 0.950 . S
C3780 C3779 1.398 . S
C3780 C3781 1.391 . S
C3781 H3769 0.950 . S
C3781 C3777 1.393 . S
C3781 C3780 1.391 . S
C3782 H3772 0.950 . S
C3782 C3783 1.386 . S
C3782 C3784 1.391 . S
C3783 C3782 1.386 . S
C3783 C3787 1.393 . S
C3784 H3773 0.950 . S
C3784 C3782 1.391 . S
C3784 C3785 1.400 . S
C3785 C3779 1.491 . S
C3785 C3784 1.400 . S
C3785 C3786 1.398 . S
C3786 H3774 0.950 . S
C3786 C3785 1.398 . S
C3786 C3787 1.391 . S
C3787 H3775 0.950 . S
C3787 C3783 1.393 . S
C3787 C3786 1.391 . S
H3788 C3796 0.950 . S
H3789 C3801 0.950 . S
H3790 C3798 0.950 . S
H3791 C3800 0.950 . S
H3792 C3802 0.950 . S
H3793 C3804 0.950 . S
H3794 C3806 0.950 . S
H3795 C3807 0.950 . S
C3796 H3788 0.950 . S
C3796 C3797 1.386 . S
C3796 C3798 1.391 . S
C3797 C3796 1.386 . S
C3797 C3801 1.393 . S
C3798 H3790 0.950 . S
C3798 C3796 1.391 . S
C3798 C3799 1.400 . S
C3799 C3798 1.400 . S
C3799 C3800 1.398 . S
C3799 C3805 1.491 . S
C3800 H3791 0.950 . S
C3800 C3799 1.398 . S
C3800 C3801 1.391 . S
C3801 H3789 0.950 . S
C3801 C3797 1.393 . S
C3801 C3800 1.391 . S
C3802 H3792 0.950 . S
C3802 C3803 1.386 . S
C3802 C3804 1.391 . S
C3803 C3802 1.386 . S
C3803 C3807 1.393 . S
C3804 H3793 0.950 . S
C3804 C3802 1.391 . S
C3804 C3805 1.400 . S
C3805 C3799 1.491 . S
C3805 C3804 1.400 . S
C3805 C3806 1.398 . S
C3806 H3794 0.950 . S
C3806 C3805 1.398 . S
C3806 C3807 1.391 . S
C3807 H3795 0.950 . S
C3807 C3803 1.393 . S
C3807 C3806 1.391 . S
H3808 C3816 0.950 . S
H3809 C3821 0.950 . S
H3810 C3818 0.950 . S
H3811 C3820 0.950 . S
H3812 C3822 0.950 . S
H3813 C3824 0.950 . S
H3814 C3826 0.950 . S
H3815 C3827 0.950 . S
C3816 H3808 0.950 . S
C3816 C3817 1.386 . S
C3816 C3818 1.391 . S
C3817 C3816 1.386 . S
C3817 C3821 1.393 . S
C3818 H3810 0.950 . S
C3818 C3816 1.391 . S
C3818 C3819 1.400 . S
C3819 C3818 1.400 . S
C3819 C3820 1.398 . S
C3819 C3825 1.491 . S
C3820 H3811 0.950 . S
C3820 C3819 1.398 . S
C3820 C3821 1.391 . S
C3821 H3809 0.950 . S
C3821 C3817 1.393 . S
C3821 C3820 1.391 . S
C3822 H3812 0.950 . S
C3822 C3823 1.386 . S
C3822 C3824 1.391 . S
C3823 C3822 1.386 . S
C3823 C3827 1.393 . S
C3824 H3813 0.950 . S
C3824 C3822 1.391 . S
C3824 C3825 1.400 . S
C3825 C3819 1.491 . S
C3825 C3824 1.400 . S
C3825 C3826 1.398 . S
C3826 H3814 0.950 . S
C3826 C3825 1.398 . S
C3826 C3827 1.391 . S
C3827 H3815 0.950 . S
C3827 C3823 1.393 . S
C3827 C3826 1.391 . S
H3828 C3836 0.950 . S
H3829 C3841 0.950 . S
H3830 C3838 0.950 . S
H3831 C3840 0.950 . S
H3832 C3842 0.950 . S
H3833 C3844 0.950 . S
H3834 C3846 0.950 . S
H3835 C3847 0.950 . S
C3836 H3828 0.950 . S
C3836 C3837 1.386 . S
C3836 C3838 1.391 . S
C3837 C3836 1.386 . S
C3837 C3841 1.393 . S
C3838 H3830 0.950 . S
C3838 C3836 1.391 . S
C3838 C3839 1.400 . S
C3839 C3838 1.400 . S
C3839 C3840 1.398 . S
C3839 C3845 1.491 . S
C3840 H3831 0.950 . S
C3840 C3839 1.398 . S
C3840 C3841 1.391 . S
C3841 H3829 0.950 . S
C3841 C3837 1.393 . S
C3841 C3840 1.391 . S
C3842 H3832 0.950 . S
C3842 C3843 1.386 . S
C3842 C3844 1.391 . S
C3843 C3842 1.386 . S
C3843 C3847 1.393 . S
C3844 H3833 0.950 . S
C3844 C3842 1.391 . S
C3844 C3845 1.400 . S
C3845 C3839 1.491 . S
C3845 C3844 1.400 . S
C3845 C3846 1.398 . S
C3846 H3834 0.950 . S
C3846 C3845 1.398 . S
C3846 C3847 1.391 . S
C3847 H3835 0.950 . S
C3847 C3843 1.393 . S
C3847 C3846 1.391 . S
H3848 C3856 0.950 . S
H3849 C3861 0.950 . S
H3850 C3858 0.950 . S
H3851 C3860 0.950 . S
H3852 C3862 0.950 . S
H3853 C3864 0.950 . S
H3854 C3866 0.950 . S
H3855 C3867 0.950 . S
C3856 H3848 0.950 . S
C3856 C3857 1.386 . S
C3856 C3858 1.391 . S
C3857 C3856 1.386 . S
C3857 C3861 1.393 . S
C3858 H3850 0.950 . S
C3858 C3856 1.391 . S
C3858 C3859 1.400 . S
C3859 C3858 1.400 . S
C3859 C3860 1.398 . S
C3859 C3865 1.491 . S
C3860 H3851 0.950 . S
C3860 C3859 1.398 . S
C3860 C3861 1.391 . S
C3861 H3849 0.950 . S
C3861 C3857 1.393 . S
C3861 C3860 1.391 . S
C3862 H3852 0.950 . S
C3862 C3863 1.386 . S
C3862 C3864 1.391 . S
C3863 C3862 1.386 . S
C3863 C3867 1.393 . S
C3864 H3853 0.950 . S
C3864 C3862 1.391 . S
C3864 C3865 1.400 . S
C3865 C3859 1.491 . S
C3865 C3864 1.400 . S
C3865 C3866 1.398 . S
C3866 H3854 0.950 . S
C3866 C3865 1.398 . S
C3866 C3867 1.391 . S
C3867 H3855 0.950 . S
C3867 C3863 1.393 . S
C3867 C3866 1.391 . S
H3868 C3876 0.950 . S
H3869 C3881 0.950 . S
H3870 C3878 0.950 . S
H3871 C3880 0.950 . S
H3872 C3882 0.950 . S
H3873 C3884 0.950 . S
H3874 C3886 0.950 . S
H3875 C3887 0.950 . S
C3876 H3868 0.950 . S
C3876 C3877 1.386 . S
C3876 C3878 1.391 . S
C3877 C3876 1.386 . S
C3877 C3881 1.393 . S
C3878 H3870 0.950 . S
C3878 C3876 1.391 . S
C3878 C3879 1.400 . S
C3879 C3878 1.400 . S
C3879 C3880 1.398 . S
C3879 C3885 1.491 . S
C3880 H3871 0.950 . S
C3880 C3879 1.398 . S
C3880 C3881 1.391 . S
C3881 H3869 0.950 . S
C3881 C3877 1.393 . S
C3881 C3880 1.391 . S
C3882 H3872 0.950 . S
C3882 C3883 1.386 . S
C3882 C3884 1.391 . S
C3883 C3882 1.386 . S
C3883 C3887 1.393 . S
C3884 H3873 0.950 . S
C3884 C3882 1.391 . S
C3884 C3885 1.400 . S
C3885 C3879 1.491 . S
C3885 C3884 1.400 . S
C3885 C3886 1.398 . S
C3886 H3874 0.950 . S
C3886 C3885 1.398 . S
C3886 C3887 1.391 . S
C3887 H3875 0.950 . S
C3887 C3883 1.393 . S
C3887 C3886 1.391 . S
H3888 C3896 0.950 . S
H3889 C3901 0.950 . S
H3890 C3898 0.950 . S
H3891 C3900 0.950 . S
H3892 C3902 0.950 . S
H3893 C3904 0.950 . S
H3894 C3906 0.950 . S
H3895 C3907 0.950 . S
C3896 H3888 0.950 . S
C3896 C3897 1.386 . S
C3896 C3898 1.391 . S
C3897 C3896 1.386 . S
C3897 C3901 1.393 . S
C3898 H3890 0.950 . S
C3898 C3896 1.391 . S
C3898 C3899 1.400 . S
C3899 C3898 1.400 . S
C3899 C3900 1.398 . S
C3899 C3905 1.491 . S
C3900 H3891 0.950 . S
C3900 C3899 1.398 . S
C3900 C3901 1.391 . S
C3901 H3889 0.950 . S
C3901 C3897 1.393 . S
C3901 C3900 1.391 . S
C3902 H3892 0.950 . S
C3902 C3903 1.386 . S
C3902 C3904 1.391 . S
C3903 C3902 1.386 . S
C3903 C3907 1.393 . S
C3904 H3893 0.950 . S
C3904 C3902 1.391 . S
C3904 C3905 1.400 . S
C3905 C3899 1.491 . S
C3905 C3904 1.400 . S
C3905 C3906 1.398 . S
C3906 H3894 0.950 . S
C3906 C3905 1.398 . S
C3906 C3907 1.391 . S
C3907 H3895 0.950 . S
C3907 C3903 1.393 . S
C3907 C3906 1.391 . S
H3908 C3916 0.950 . S
H3909 C3921 0.950 . S
H3910 C3918 0.950 . S
H3911 C3920 0.950 . S
H3912 C3922 0.950 . S
H3913 C3924 0.950 . S
H3914 C3926 0.950 . S
H3915 C3927 0.950 . S
C3916 H3908 0.950 . S
C3916 C3917 1.386 . S
C3916 C3918 1.391 . S
C3917 C3916 1.386 . S
C3917 C3921 1.393 . S
C3918 H3910 0.950 . S
C3918 C3916 1.391 . S
C3918 C3919 1.400 . S
C3919 C3918 1.400 . S
C3919 C3920 1.398 . S
C3919 C3925 1.491 . S
C3920 H3911 0.950 . S
C3920 C3919 1.398 . S
C3920 C3921 1.391 . S
C3921 H3909 0.950 . S
C3921 C3917 1.393 . S
C3921 C3920 1.391 . S
C3922 H3912 0.950 . S
C3922 C3923 1.386 . S
C3922 C3924 1.391 . S
C3923 C3922 1.386 . S
C3923 C3927 1.393 . S
C3924 H3913 0.950 . S
C3924 C3922 1.391 . S
C3924 C3925 1.400 . S
C3925 C3919 1.491 . S
C3925 C3924 1.400 . S
C3925 C3926 1.398 . S
C3926 H3914 0.950 . S
C3926 C3925 1.398 . S
C3926 C3927 1.391 . S
C3927 H3915 0.950 . S
C3927 C3923 1.393 . S
C3927 C3926 1.391 . S
H3928 C3936 0.950 . S
H3929 C3941 0.950 . S
H3930 C3938 0.950 . S
H3931 C3940 0.950 . S
H3932 C3942 0.950 . S
H3933 C3944 0.950 . S
H3934 C3946 0.950 . S
H3935 C3947 0.950 . S
C3936 H3928 0.950 . S
C3936 C3937 1.386 . S
C3936 C3938 1.391 . S
C3937 C3936 1.386 . S
C3937 C3941 1.393 . S
C3938 H3930 0.950 . S
C3938 C3936 1.391 . S
C3938 C3939 1.400 . S
C3939 C3938 1.400 . S
C3939 C3940 1.398 . S
C3939 C3945 1.491 . S
C3940 H3931 0.950 . S
C3940 C3939 1.398 . S
C3940 C3941 1.391 . S
C3941 H3929 0.950 . S
C3941 C3937 1.393 . S
C3941 C3940 1.391 . S
C3942 H3932 0.950 . S
C3942 C3943 1.386 . S
C3942 C3944 1.391 . S
C3943 C3942 1.386 . S
C3943 C3947 1.393 . S
C3944 H3933 0.950 . S
C3944 C3942 1.391 . S
C3944 C3945 1.400 . S
C3945 C3939 1.491 . S
C3945 C3944 1.400 . S
C3945 C3946 1.398 . S
C3946 H3934 0.950 . S
C3946 C3945 1.398 . S
C3946 C3947 1.391 . S
C3947 H3935 0.950 . S
C3947 C3943 1.393 . S
C3947 C3946 1.391 . S
H3948 C3956 0.950 . S
H3949 C3961 0.950 . S
H3950 C3958 0.950 . S
H3951 C3960 0.950 . S
H3952 C3962 0.950 . S
H3953 C3964 0.950 . S
H3954 C3966 0.950 . S
H3955 C3967 0.950 . S
C3956 H3948 0.950 . S
C3956 C3957 1.386 . S
C3956 C3958 1.391 . S
C3957 C3956 1.386 . S
C3957 C3961 1.393 . S
C3958 H3950 0.950 . S
C3958 C3956 1.391 . S
C3958 C3959 1.400 . S
C3959 C3958 1.400 . S
C3959 C3960 1.398 . S
C3959 C3965 1.491 . S
C3960 H3951 0.950 . S
C3960 C3959 1.398 . S
C3960 C3961 1.391 . S
C3961 H3949 0.950 . S
C3961 C3957 1.393 . S
C3961 C3960 1.391 . S
C3962 H3952 0.950 . S
C3962 C3963 1.386 . S
C3962 C3964 1.391 . S
C3963 C3962 1.386 . S
C3963 C3967 1.393 . S
C3964 H3953 0.950 . S
C3964 C3962 1.391 . S
C3964 C3965 1.400 . S
C3965 C3959 1.491 . S
C3965 C3964 1.400 . S
C3965 C3966 1.398 . S
C3966 H3954 0.950 . S
C3966 C3965 1.398 . S
C3966 C3967 1.391 . S
C3967 H3955 0.950 . S
C3967 C3963 1.393 . S
C3967 C3966 1.391 . S
H3968 C3976 0.950 . S
H3969 C3981 0.950 . S
H3970 C3978 0.950 . S
H3971 C3980 0.950 . S
H3972 C3982 0.950 . S
H3973 C3984 0.950 . S
H3974 C3986 0.950 . S
H3975 C3987 0.950 . S
C3976 H3968 0.950 . S
C3976 C3977 1.386 . S
C3976 C3978 1.391 . S
C3977 C3976 1.386 . S
C3977 C3981 1.393 . S
C3978 H3970 0.950 . S
C3978 C3976 1.391 . S
C3978 C3979 1.400 . S
C3979 C3978 1.400 . S
C3979 C3980 1.398 . S
C3979 C3985 1.491 . S
C3980 H3971 0.950 . S
C3980 C3979 1.398 . S
C3980 C3981 1.391 . S
C3981 H3969 0.950 . S
C3981 C3977 1.393 . S
C3981 C3980 1.391 . S
C3982 H3972 0.950 . S
C3982 C3983 1.386 . S
C3982 C3984 1.391 . S
C3983 C3982 1.386 . S
C3983 C3987 1.393 . S
C3984 H3973 0.950 . S
C3984 C3982 1.391 . S
C3984 C3985 1.400 . S
C3985 C3979 1.491 . S
C3985 C3984 1.400 . S
C3985 C3986 1.398 . S
C3986 H3974 0.950 . S
C3986 C3985 1.398 . S
C3986 C3987 1.391 . S
C3987 H3975 0.950 . S
C3987 C3983 1.393 . S
C3987 C3986 1.391 . S
H3988 C3996 0.950 . S
H3989 C4001 0.950 . S
H3990 C3998 0.950 . S
H3991 C4000 0.950 . S
H3992 C4002 0.950 . S
H3993 C4004 0.950 . S
H3994 C4006 0.950 . S
H3995 C4007 0.950 . S
C3996 H3988 0.950 . S
C3996 C3997 1.386 . S
C3996 C3998 1.391 . S
C3997 C3996 1.386 . S
C3997 C4001 1.393 . S
C3998 H3990 0.950 . S
C3998 C3996 1.391 . S
C3998 C3999 1.400 . S
C3999 C3998 1.400 . S
C3999 C4000 1.398 . S
C3999 C4005 1.491 . S
C4000 H3991 0.950 . S
C4000 C3999 1.398 . S
C4000 C4001 1.391 . S
C4001 H3989 0.950 . S
C4001 C3997 1.393 . S
C4001 C4000 1.391 . S
C4002 H3992 0.950 . S
C4002 C4003 1.386 . S
C4002 C4004 1.391 . S
C4003 C4002 1.386 . S
C4003 C4007 1.393 . S
C4004 H3993 0.950 . S
C4004 C4002 1.391 . S
C4004 C4005 1.400 . S
C4005 C3999 1.491 . S
C4005 C4004 1.400 . S
C4005 C4006 1.398 . S
C4006 H3994 0.950 . S
C4006 C4005 1.398 . S
C4006 C4007 1.391 . S
C4007 H3995 0.950 . S
C4007 C4003 1.393 . S
C4007 C4006 1.391 . S
H4008 C4016 0.950 . S
H4009 C4021 0.950 . S
H4010 C4018 0.950 . S
H4011 C4020 0.950 . S
H4012 C4022 0.950 . S
H4013 C4024 0.950 . S
H4014 C4026 0.950 . S
H4015 C4027 0.950 . S
C4016 H4008 0.950 . S
C4016 C4017 1.386 . S
C4016 C4018 1.391 . S
C4017 C4016 1.386 . S
C4017 C4021 1.393 . S
C4018 H4010 0.950 . S
C4018 C4016 1.391 . S
C4018 C4019 1.400 . S
C4019 C4018 1.400 . S
C4019 C4020 1.398 . S
C4019 C4025 1.491 . S
C4020 H4011 0.950 . S
C4020 C4019 1.398 . S
C4020 C4021 1.391 . S
C4021 H4009 0.950 . S
C4021 C4017 1.393 . S
C4021 C4020 1.391 . S
C4022 H4012 0.950 . S
C4022 C4023 1.386 . S
C4022 C4024 1.391 . S
C4023 C4022 1.386 . S
C4023 C4027 1.393 . S
C4024 H4013 0.950 . S
C4024 C4022 1.391 . S
C4024 C4025 1.400 . S
C4025 C4019 1.491 . S
C4025 C4024 1.400 . S
C4025 C4026 1.398 . S
C4026 H4014 0.950 . S
C4026 C4025 1.398 . S
C4026 C4027 1.391 . S
C4027 H4015 0.950 . S
C4027 C4023 1.393 . S
C4027 C4026 1.391 . S
H4028 C4036 0.950 . S
H4029 C4041 0.950 . S
H4030 C4038 0.950 . S
H4031 C4040 0.950 . S
H4032 C4042 0.950 . S
H4033 C4044 0.950 . S
H4034 C4046 0.950 . S
H4035 C4047 0.950 . S
C4036 H4028 0.950 . S
C4036 C4037 1.386 . S
C4036 C4038 1.391 . S
C4037 C4036 1.386 . S
C4037 C4041 1.393 . S
C4038 H4030 0.950 . S
C4038 C4036 1.391 . S
C4038 C4039 1.400 . S
C4039 C4038 1.400 . S
C4039 C4040 1.398 . S
C4039 C4045 1.491 . S
C4040 H4031 0.950 . S
C4040 C4039 1.398 . S
C4040 C4041 1.391 . S
C4041 H4029 0.950 . S
C4041 C4037 1.393 . S
C4041 C4040 1.391 . S
C4042 H4032 0.950 . S
C4042 C4043 1.386 . S
C4042 C4044 1.391 . S
C4043 C4042 1.386 . S
C4043 C4047 1.393 . S
C4044 H4033 0.950 . S
C4044 C4042 1.391 . S
C4044 C4045 1.400 . S
C4045 C4039 1.491 . S
C4045 C4044 1.400 . S
C4045 C4046 1.398 . S
C4046 H4034 0.950 . S
C4046 C4045 1.398 . S
C4046 C4047 1.391 . S
C4047 H4035 0.950 . S
C4047 C4043 1.393 . S
C4047 C4046 1.391 . S
H4048 C4056 0.950 . S
H4049 C4061 0.950 . S
H4050 C4058 0.950 . S
H4051 C4060 0.950 . S
H4052 C4062 0.950 . S
H4053 C4064 0.950 . S
H4054 C4066 0.950 . S
H4055 C4067 0.950 . S
C4056 H4048 0.950 . S
C4056 C4057 1.386 . S
C4056 C4058 1.391 . S
C4057 C4056 1.386 . S
C4057 C4061 1.393 . S
C4058 H4050 0.950 . S
C4058 C4056 1.391 . S
C4058 C4059 1.400 . S
C4059 C4058 1.400 . S
C4059 C4060 1.398 . S
C4059 C4065 1.491 . S
C4060 H4051 0.950 . S
C4060 C4059 1.398 . S
C4060 C4061 1.391 . S
C4061 H4049 0.950 . S
C4061 C4057 1.393 . S
C4061 C4060 1.391 . S
C4062 H4052 0.950 . S
C4062 C4063 1.386 . S
C4062 C4064 1.391 . S
C4063 C4062 1.386 . S
C4063 C4067 1.393 . S
C4064 H4053 0.950 . S
C4064 C4062 1.391 . S
C4064 C4065 1.400 . S
C4065 C4059 1.491 . S
C4065 C4064 1.400 . S
C4065 C4066 1.398 . S
C4066 H4054 0.950 . S
C4066 C4065 1.398 . S
C4066 C4067 1.391 . S
C4067 H4055 0.950 . S
C4067 C4063 1.393 . S
C4067 C4066 1.391 . S
H4068 C4076 0.950 . S
H4069 C4081 0.950 . S
H4070 C4078 0.950 . S
H4071 C4080 0.950 . S
H4072 C4082 0.950 . S
H4073 C4084 0.950 . S
H4074 C4086 0.950 . S
H4075 C4087 0.950 . S
C4076 H4068 0.950 . S
C4076 C4077 1.386 . S
C4076 C4078 1.391 . S
C4077 C4076 1.386 . S
C4077 C4081 1.393 . S
C4078 H4070 0.950 . S
C4078 C4076 1.391 . S
C4078 C4079 1.400 . S
C4079 C4078 1.400 . S
C4079 C4080 1.398 . S
C4079 C4085 1.491 . S
C4080 H4071 0.950 . S
C4080 C4079 1.398 . S
C4080 C4081 1.391 . S
C4081 H4069 0.950 . S
C4081 C4077 1.393 . S
C4081 C4080 1.391 . S
C4082 H4072 0.950 . S
C4082 C4083 1.386 . S
C4082 C4084 1.391 . S
C4083 C4082 1.386 . S
C4083 C4087 1.393 . S
C4084 H4073 0.950 . S
C4084 C4082 1.391 . S
C4084 C4085 1.400 . S
C4085 C4079 1.491 . S
C4085 C4084 1.400 . S
C4085 C4086 1.398 . S
C4086 H4074 0.950 . S
C4086 C4085 1.398 . S
C4086 C4087 1.391 . S
C4087 H4075 0.950 . S
C4087 C4083 1.393 . S
C4087 C4086 1.391 . S
H4088 C4096 0.950 . S
H4089 C4101 0.950 . S
H4090 C4098 0.950 . S
H4091 C4100 0.950 . S
H4092 C4102 0.950 . S
H4093 C4104 0.950 . S
H4094 C4106 0.950 . S
H4095 C4107 0.950 . S
C4096 H4088 0.950 . S
C4096 C4097 1.386 . S
C4096 C4098 1.391 . S
C4097 C4096 1.386 . S
C4097 C4101 1.393 . S
C4098 H4090 0.950 . S
C4098 C4096 1.391 . S
C4098 C4099 1.400 . S
C4099 C4098 1.400 . S
C4099 C4100 1.398 . S
C4099 C4105 1.491 . S
C4100 H4091 0.950 . S
C4100 C4099 1.398 . S
C4100 C4101 1.391 . S
C4101 H4089 0.950 . S
C4101 C4097 1.393 . S
C4101 C4100 1.391 . S
C4102 H4092 0.950 . S
C4102 C4103 1.386 . S
C4102 C4104 1.391 . S
C4103 C4102 1.386 . S
C4103 C4107 1.393 . S
C4104 H4093 0.950 . S
C4104 C4102 1.391 . S
C4104 C4105 1.400 . S
C4105 C4099 1.491 . S
C4105 C4104 1.400 . S
C4105 C4106 1.398 . S
C4106 H4094 0.950 . S
C4106 C4105 1.398 . S
C4106 C4107 1.391 . S
C4107 H4095 0.950 . S
C4107 C4103 1.393 . S
C4107 C4106 1.391 . S
H4108 C4116 0.950 . S
H4109 C4121 0.950 . S
H4110 C4118 0.950 . S
H4111 C4120 0.950 . S
H4112 C4122 0.950 . S
H4113 C4124 0.950 . S
H4114 C4126 0.950 . S
H4115 C4127 0.950 . S
C4116 H4108 0.950 . S
C4116 C4117 1.386 . S
C4116 C4118 1.391 . S
C4117 C4116 1.386 . S
C4117 C4121 1.393 . S
C4118 H4110 0.950 . S
C4118 C4116 1.391 . S
C4118 C4119 1.400 . S
C4119 C4118 1.400 . S
C4119 C4120 1.398 . S
C4119 C4125 1.491 . S
C4120 H4111 0.950 . S
C4120 C4119 1.398 . S
C4120 C4121 1.391 . S
C4121 H4109 0.950 . S
C4121 C4117 1.393 . S
C4121 C4120 1.391 . S
C4122 H4112 0.950 . S
C4122 C4123 1.386 . S
C4122 C4124 1.391 . S
C4123 C4122 1.386 . S
C4123 C4127 1.393 . S
C4124 H4113 0.950 . S
C4124 C4122 1.391 . S
C4124 C4125 1.400 . S
C4125 C4119 1.491 . S
C4125 C4124 1.400 . S
C4125 C4126 1.398 . S
C4126 H4114 0.950 . S
C4126 C4125 1.398 . S
C4126 C4127 1.391 . S
C4127 H4115 0.950 . S
C4127 C4123 1.393 . S
C4127 C4126 1.391 . S
H4128 C4136 0.950 . S
H4129 C4141 0.950 . S
H4130 C4138 0.950 . S
H4131 C4140 0.950 . S
H4132 C4142 0.950 . S
H4133 C4144 0.950 . S
H4134 C4146 0.950 . S
H4135 C4147 0.950 . S
C4136 H4128 0.950 . S
C4136 C4137 1.386 . S
C4136 C4138 1.391 . S
C4137 C4136 1.386 . S
C4137 C4141 1.393 . S
C4138 H4130 0.950 . S
C4138 C4136 1.391 . S
C4138 C4139 1.400 . S
C4139 C4138 1.400 . S
C4139 C4140 1.398 . S
C4139 C4145 1.491 . S
C4140 H4131 0.950 . S
C4140 C4139 1.398 . S
C4140 C4141 1.391 . S
C4141 H4129 0.950 . S
C4141 C4137 1.393 . S
C4141 C4140 1.391 . S
C4142 H4132 0.950 . S
C4142 C4143 1.386 . S
C4142 C4144 1.391 . S
C4143 C4142 1.386 . S
C4143 C4147 1.393 . S
C4144 H4133 0.950 . S
C4144 C4142 1.391 . S
C4144 C4145 1.400 . S
C4145 C4139 1.491 . S
C4145 C4144 1.400 . S
C4145 C4146 1.398 . S
C4146 H4134 0.950 . S
C4146 C4145 1.398 . S
C4146 C4147 1.391 . S
C4147 H4135 0.950 . S
C4147 C4143 1.393 . S
C4147 C4146 1.391 . S
H4148 C4156 0.950 . S
H4149 C4161 0.950 . S
H4150 C4158 0.950 . S
H4151 C4160 0.950 . S
H4152 C4162 0.950 . S
H4153 C4164 0.950 . S
H4154 C4166 0.950 . S
H4155 C4167 0.950 . S
C4156 H4148 0.950 . S
C4156 C4157 1.386 . S
C4156 C4158 1.391 . S
C4157 C4156 1.386 . S
C4157 C4161 1.393 . S
C4158 H4150 0.950 . S
C4158 C4156 1.391 . S
C4158 C4159 1.400 . S
C4159 C4158 1.400 . S
C4159 C4160 1.398 . S
C4159 C4165 1.491 . S
C4160 H4151 0.950 . S
C4160 C4159 1.398 . S
C4160 C4161 1.391 . S
C4161 H4149 0.950 . S
C4161 C4157 1.393 . S
C4161 C4160 1.391 . S
C4162 H4152 0.950 . S
C4162 C4163 1.386 . S
C4162 C4164 1.391 . S
C4163 C4162 1.386 . S
C4163 C4167 1.393 . S
C4164 H4153 0.950 . S
C4164 C4162 1.391 . S
C4164 C4165 1.400 . S
C4165 C4159 1.491 . S
C4165 C4164 1.400 . S
C4165 C4166 1.398 . S
C4166 H4154 0.950 . S
C4166 C4165 1.398 . S
C4166 C4167 1.391 . S
C4167 H4155 0.950 . S
C4167 C4163 1.393 . S
C4167 C4166 1.391 . S
H4168 C4176 0.950 . S
H4169 C4181 0.950 . S
H4170 C4178 0.950 . S
H4171 C4180 0.950 . S
H4172 C4182 0.950 . S
H4173 C4184 0.950 . S
H4174 C4186 0.950 . S
H4175 C4187 0.950 . S
C4176 H4168 0.950 . S
C4176 C4177 1.386 . S
C4176 C4178 1.391 . S
C4177 C4176 1.386 . S
C4177 C4181 1.393 . S
C4178 H4170 0.950 . S
C4178 C4176 1.391 . S
C4178 C4179 1.400 . S
C4179 C4178 1.400 . S
C4179 C4180 1.398 . S
C4179 C4185 1.491 . S
C4180 H4171 0.950 . S
C4180 C4179 1.398 . S
C4180 C4181 1.391 . S
C4181 H4169 0.950 . S
C4181 C4177 1.393 . S
C4181 C4180 1.391 . S
C4182 H4172 0.950 . S
C4182 C4183 1.386 . S
C4182 C4184 1.391 . S
C4183 C4182 1.386 . S
C4183 C4187 1.393 . S
C4184 H4173 0.950 . S
C4184 C4182 1.391 . S
C4184 C4185 1.400 . S
C4185 C4179 1.491 . S
C4185 C4184 1.400 . S
C4185 C4186 1.398 . S
C4186 H4174 0.950 . S
C4186 C4185 1.398 . S
C4186 C4187 1.391 . S
C4187 H4175 0.950 . S
C4187 C4183 1.393 . S
C4187 C4186 1.391 . S
H4188 C4196 0.950 . S
H4189 C4201 0.950 . S
H4190 C4198 0.950 . S
H4191 C4200 0.950 . S
H4192 C4202 0.950 . S
H4193 C4204 0.950 . S
H4194 C4206 0.950 . S
H4195 C4207 0.950 . S
C4196 H4188 0.950 . S
C4196 C4197 1.386 . S
C4196 C4198 1.391 . S
C4197 C4196 1.386 . S
C4197 C4201 1.393 . S
C4198 H4190 0.950 . S
C4198 C4196 1.391 . S
C4198 C4199 1.400 . S
C4199 C4198 1.400 . S
C4199 C4200 1.398 . S
C4199 C4205 1.491 . S
C4200 H4191 0.950 . S
C4200 C4199 1.398 . S
C4200 C4201 1.391 . S
C4201 H4189 0.950 . S
C4201 C4197 1.393 . S
C4201 C4200 1.391 . S
C4202 H4192 0.950 . S
C4202 C4203 1.386 . S
C4202 C4204 1.391 . S
C4203 C4202 1.386 . S
C4203 C4207 1.393 . S
C4204 H4193 0.950 . S
C4204 C4202 1.391 . S
C4204 C4205 1.400 . S
C4205 C4199 1.491 . S
C4205 C4204 1.400 . S
C4205 C4206 1.398 . S
C4206 H4194 0.950 . S
C4206 C4205 1.398 . S
C4206 C4207 1.391 . S
C4207 H4195 0.950 . S
C4207 C4203 1.393 . S
C4207 C4206 1.391 . S
H4208 C4216 0.950 . S
H4209 C4221 0.950 . S
H4210 C4218 0.950 . S
H4211 C4220 0.950 . S
H4212 C4222 0.950 . S
H4213 C4224 0.950 . S
H4214 C4226 0.950 . S
H4215 C4227 0.950 . S
C4216 H4208 0.950 . S
C4216 C4217 1.386 . S
C4216 C4218 1.391 . S
C4217 C4216 1.386 . S
C4217 C4221 1.393 . S
C4218 H4210 0.950 . S
C4218 C4216 1.391 . S
C4218 C4219 1.400 . S
C4219 C4218 1.400 . S
C4219 C4220 1.398 . S
C4219 C4225 1.491 . S
C4220 H4211 0.950 . S
C4220 C4219 1.398 . S
C4220 C4221 1.391 . S
C4221 H4209 0.950 . S
C4221 C4217 1.393 . S
C4221 C4220 1.391 . S
C4222 H4212 0.950 . S
C4222 C4223 1.386 . S
C4222 C4224 1.391 . S
C4223 C4222 1.386 . S
C4223 C4227 1.393 . S
C4224 H4213 0.950 . S
C4224 C4222 1.391 . S
C4224 C4225 1.400 . S
C4225 C4219 1.491 . S
C4225 C4224 1.400 . S
C4225 C4226 1.398 . S
C4226 H4214 0.950 . S
C4226 C4225 1.398 . S
C4226 C4227 1.391 . S
C4227 H4215 0.950 . S
C4227 C4223 1.393 . S
C4227 C4226 1.391 . S
H4228 C4236 0.950 . S
H4229 C4241 0.950 . S
H4230 C4238 0.950 . S
H4231 C4240 0.950 . S
H4232 C4242 0.950 . S
H4233 C4244 0.950 . S
H4234 C4246 0.950 . S
H4235 C4247 0.950 . S
C4236 H4228 0.950 . S
C4236 C4237 1.386 . S
C4236 C4238 1.391 . S
C4237 C4236 1.386 . S
C4237 C4241 1.393 . S
C4238 H4230 0.950 . S
C4238 C4236 1.391 . S
C4238 C4239 1.400 . S
C4239 C4238 1.400 . S
C4239 C4240 1.398 . S
C4239 C4245 1.491 . S
C4240 H4231 0.950 . S
C4240 C4239 1.398 . S
C4240 C4241 1.391 . S
C4241 H4229 0.950 . S
C4241 C4237 1.393 . S
C4241 C4240 1.391 . S
C4242 H4232 0.950 . S
C4242 C4243 1.386 . S
C4242 C4244 1.391 . S
C4243 C4242 1.386 . S
C4243 C4247 1.393 . S
C4244 H4233 0.950 . S
C4244 C4242 1.391 . S
C4244 C4245 1.400 . S
C4245 C4239 1.491 . S
C4245 C4244 1.400 . S
C4245 C4246 1.398 . S
C4246 H4234 0.950 . S
C4246 C4245 1.398 . S
C4246 C4247 1.391 . S
C4247 H4235 0.950 . S
C4247 C4243 1.393 . S
C4247 C4246 1.391 . S
H4248 C4256 0.950 . S
H4249 C4261 0.950 . S
H4250 C4258 0.950 . S
H4251 C4260 0.950 . S
H4252 C4262 0.950 . S
H4253 C4264 0.950 . S
H4254 C4266 0.950 . S
H4255 C4267 0.950 . S
C4256 H4248 0.950 . S
C4256 C4257 1.386 . S
C4256 C4258 1.391 . S
C4257 C4256 1.386 . S
C4257 C4261 1.393 . S
C4258 H4250 0.950 . S
C4258 C4256 1.391 . S
C4258 C4259 1.400 . S
C4259 C4258 1.400 . S
C4259 C4260 1.398 . S
C4259 C4265 1.491 . S
C4260 H4251 0.950 . S
C4260 C4259 1.398 . S
C4260 C4261 1.391 . S
C4261 H4249 0.950 . S
C4261 C4257 1.393 . S
C4261 C4260 1.391 . S
C4262 H4252 0.950 . S
C4262 C4263 1.386 . S
C4262 C4264 1.391 . S
C4263 C4262 1.386 . S
C4263 C4267 1.393 . S
C4264 H4253 0.950 . S
C4264 C4262 1.391 . S
C4264 C4265 1.400 . S
C4265 C4259 1.491 . S
C4265 C4264 1.400 . S
C4265 C4266 1.398 . S
C4266 H4254 0.950 . S
C4266 C4265 1.398 . S
C4266 C4267 1.391 . S
C4267 H4255 0.950 . S
C4267 C4263 1.393 . S
C4267 C4266 1.391 . S
H4268 C4276 0.950 . S
H4269 C4281 0.950 . S
H4270 C4278 0.958 . S
H4271 C4280 0.950 . S
H4272 C4282 0.950 . S
H4273 C4284 0.950 . S
H4274 C4286 0.950 . S
H4275 C4287 0.950 . S
C4276 H4268 0.950 . S
C4276 C4277 1.386 . S
C4276 C4278 1.391 . S
C4277 C4276 1.386 . S
C4277 C4281 1.393 . S
C4278 H4270 0.958 . S
C4278 C4276 1.391 . S
C4278 C4279 1.389 . S
C4279 C4278 1.389 . S
C4279 C4280 1.413 . S
C4279 C4285 1.487 1_545 S
C4280 H4271 0.950 . S
C4280 C4279 1.413 . S
C4280 C4281 1.391 . S
C4281 H4269 0.950 . S
C4281 C4277 1.393 . S
C4281 C4280 1.391 . S
C4282 H4272 0.950 . S
C4282 C4283 1.386 . S
C4282 C4284 1.391 . S
C4283 C4282 1.386 . S
C4283 C4287 1.393 . S
C4284 H4273 0.950 . S
C4284 C4282 1.391 . S
C4284 C4285 1.400 . S
C4285 C4279 1.487 1_565 S
C4285 C4284 1.400 . S
C4285 C4286 1.398 . S
C4286 H4274 0.950 . S
C4286 C4285 1.398 . S
C4286 C4287 1.391 . S
C4287 H4275 0.950 . S
C4287 C4283 1.393 . S
C4287 C4286 1.391 . S
H4288 C4296 0.950 . S
H4289 C4301 0.950 . S
H4290 C4298 0.950 . S
H4291 C4300 0.950 . S
H4292 C4302 0.950 . S
H4293 C4304 0.950 . S
H4294 C4306 0.950 . S
H4295 C4307 0.950 . S
C4296 H4288 0.950 . S
C4296 C4297 1.386 1_655 S
C4296 C4298 1.391 . S
C4297 C4296 1.386 1_455 S
C4297 C4301 1.393 . S
C4298 H4290 0.950 . S
C4298 C4296 1.391 . S
C4298 C4299 1.393 1_655 S
C4299 C4298 1.393 1_455 S
C4299 C4300 1.407 . S
C4299 C4305 1.490 1_455 S
C4300 H4291 0.950 . S
C4300 C4299 1.407 . S
C4300 C4301 1.391 . S
C4301 H4289 0.950 . S
C4301 C4297 1.393 . S
C4301 C4300 1.391 . S
C4302 H4292 0.950 . S
C4302 C4303 1.386 1_455 S
C4302 C4304 1.391 . S
C4303 C4302 1.386 1_655 S
C4303 C4307 1.393 . S
C4304 H4293 0.950 . S
C4304 C4302 1.391 . S
C4304 C4305 1.400 1_455 S
C4305 C4299 1.490 1_655 S
C4305 C4304 1.400 1_655 S
C4305 C4306 1.398 . S
C4306 H4294 0.950 . S
C4306 C4305 1.398 . S
C4306 C4307 1.391 . S
C4307 H4295 0.950 . S
C4307 C4303 1.393 . S
C4307 C4306 1.391 . S
H4308 C4316 0.950 . S
H4309 C4321 0.950 . S
H4310 C4318 0.950 . S
H4311 C4320 0.950 . S
H4312 C4322 0.950 . S
H4313 C4324 0.950 . S
H4314 C4326 0.950 . S
H4315 C4327 0.950 . S
C4316 H4308 0.950 . S
C4316 C4317 1.386 . S
C4316 C4318 1.391 . S
C4317 C4316 1.386 . S
C4317 C4321 1.393 . S
C4318 H4310 0.950 . S
C4318 C4316 1.391 . S
C4318 C4319 1.400 . S
C4319 C4318 1.400 . S
C4319 C4320 1.398 . S
C4319 C4325 1.491 . S
C4320 H4311 0.950 . S
C4320 C4319 1.398 . S
C4320 C4321 1.391 . S
C4321 H4309 0.950 . S
C4321 C4317 1.393 . S
C4321 C4320 1.391 . S
C4322 H4312 0.950 . S
C4322 C4323 1.386 . S
C4322 C4324 1.391 . S
C4323 C4322 1.386 . S
C4323 C4327 1.393 . S
C4324 H4313 0.950 . S
C4324 C4322 1.391 . S
C4324 C4325 1.400 . S
C4325 C4319 1.491 . S
C4325 C4324 1.400 . S
C4325 C4326 1.398 . S
C4326 H4314 0.950 . S
C4326 C4325 1.398 . S
C4326 C4327 1.391 . S
C4327 H4315 0.950 . S
C4327 C4323 1.393 . S
C4327 C4326 1.391 . S
H4328 C4336 0.950 . S
H4329 C4341 0.950 . S
H4330 C4338 0.950 . S
H4331 C4340 0.950 . S
H4332 C4342 0.950 . S
H4333 C4344 0.950 . S
H4334 C4346 0.950 . S
H4335 C4347 0.950 . S
C4336 H4328 0.950 . S
C4336 C4337 1.386 . S
C4336 C4338 1.391 . S
C4337 C4336 1.386 . S
C4337 C4341 1.393 1_545 S
C4338 H4330 0.950 . S
C4338 C4336 1.391 . S
C4338 C4339 1.404 . S
C4339 C4338 1.404 . S
C4339 C4340 1.398 1_545 S
C4339 C4345 1.488 1_545 S
C4340 H4331 0.950 . S
C4340 C4339 1.398 1_565 S
C4340 C4341 1.391 . S
C4341 H4329 0.950 . S
C4341 C4337 1.393 1_565 S
C4341 C4340 1.391 . S
C4342 H4332 0.950 . S
C4342 C4343 1.386 . S
C4342 C4344 1.391 . S
C4343 C4342 1.386 . S
C4343 C4347 1.393 1_565 S
C4344 H4333 0.950 . S
C4344 C4342 1.391 . S
C4344 C4345 1.400 . S
C4345 C4339 1.488 1_565 S
C4345 C4344 1.400 . S
C4345 C4346 1.398 1_565 S
C4346 H4334 0.950 . S
C4346 C4345 1.398 1_545 S
C4346 C4347 1.391 . S
C4347 H4335 0.950 . S
C4347 C4343 1.393 1_545 S
C4347 C4346 1.391 . S
H4348 C4356 0.950 . S
H4349 C4361 0.950 . S
H4350 C4358 0.950 . S
H4351 C4360 0.950 . S
H4352 C4362 0.950 . S
H4353 C4364 0.950 . S
H4354 C4366 0.950 . S
H4355 C4367 0.950 . S
C4356 H4348 0.950 . S
C4356 C4357 1.386 1_455 S
C4356 C4358 1.391 . S
C4357 C4356 1.386 1_655 S
C4357 C4361 1.393 . S
C4358 H4350 0.950 . S
C4358 C4356 1.391 . S
C4358 C4359 1.400 1_455 S
C4359 C4358 1.400 1_655 S
C4359 C4360 1.398 . S
C4359 C4365 1.487 1_655 S
C4360 H4351 0.950 . S
C4360 C4359 1.398 . S
C4360 C4361 1.391 . S
C4361 H4349 0.950 . S
C4361 C4357 1.393 . S
C4361 C4360 1.391 . S
C4362 H4352 0.950 . S
C4362 C4363 1.386 1_655 S
C4362 C4364 1.391 . S
C4363 C4362 1.386 1_455 S
C4363 C4367 1.393 . S
C4364 H4353 0.950 . S
C4364 C4362 1.391 . S
C4364 C4365 1.403 1_655 S
C4365 C4359 1.487 1_455 S
C4365 C4364 1.403 1_455 S
C4365 C4366 1.400 . S
C4366 H4354 0.950 . S
C4366 C4365 1.400 . S
C4366 C4367 1.391 . S
C4367 H4355 0.950 . S
C4367 C4363 1.393 . S
C4367 C4366 1.391 . S
H4368 C4376 0.950 . S
H4369 C4381 0.950 . S
H4370 C4378 0.950 . S
H4371 C4380 0.950 . S
H4372 C4382 0.950 . S
H4373 C4384 0.950 . S
H4374 C4386 0.950 . S
H4375 C4387 0.950 . S
C4376 H4368 0.950 . S
C4376 C4377 1.386 . S
C4376 C4378 1.391 . S
C4377 C4376 1.386 . S
C4377 C4381 1.393 . S
C4378 H4370 0.950 . S
C4378 C4376 1.391 . S
C4378 C4379 1.400 . S
C4379 C4378 1.400 . S
C4379 C4380 1.398 . S
C4379 C4385 1.491 . S
C4380 H4371 0.950 . S
C4380 C4379 1.398 . S
C4380 C4381 1.391 . S
C4381 H4369 0.950 . S
C4381 C4377 1.393 . S
C4381 C4380 1.391 . S
C4382 H4372 0.950 . S
C4382 C4383 1.386 . S
C4382 C4384 1.391 . S
C4383 C4382 1.386 . S
C4383 C4387 1.393 . S
C4384 H4373 0.950 . S
C4384 C4382 1.391 . S
C4384 C4385 1.400 . S
C4385 C4379 1.491 . S
C4385 C4384 1.400 . S
C4385 C4386 1.398 . S
C4386 H4374 0.950 . S
C4386 C4385 1.398 . S
C4386 C4387 1.391 . S
C4387 H4375 0.950 . S
C4387 C4383 1.393 . S
C4387 C4386 1.391 . S
H4388 C4396 0.950 . S
H4389 C4401 0.950 . S
H4390 C4398 0.950 . S
H4391 C4400 0.950 . S
H4392 C4402 0.950 . S
H4393 C4404 0.950 . S
H4394 C4406 0.950 . S
H4395 C4407 0.950 . S
C4396 H4388 0.950 . S
C4396 C4397 1.386 . S
C4396 C4398 1.391 . S
C4397 C4396 1.386 . S
C4397 C4401 1.393 . S
C4398 H4390 0.950 . S
C4398 C4396 1.391 . S
C4398 C4399 1.400 . S
C4399 C4398 1.400 . S
C4399 C4400 1.398 . S
C4399 C4405 1.491 . S
C4400 H4391 0.950 . S
C4400 C4399 1.398 . S
C4400 C4401 1.391 . S
C4401 H4389 0.950 . S
C4401 C4397 1.393 . S
C4401 C4400 1.391 . S
C4402 H4392 0.950 . S
C4402 C4403 1.386 . S
C4402 C4404 1.391 . S
C4403 C4402 1.386 . S
C4403 C4407 1.393 . S
C4404 H4393 0.950 . S
C4404 C4402 1.391 . S
C4404 C4405 1.400 . S
C4405 C4399 1.491 . S
C4405 C4404 1.400 . S
C4405 C4406 1.398 . S
C4406 H4394 0.950 . S
C4406 C4405 1.398 . S
C4406 C4407 1.391 . S
C4407 H4395 0.950 . S
C4407 C4403 1.393 . S
C4407 C4406 1.391 . S
H4408 C4416 0.950 . S
H4409 C4421 0.950 . S
H4410 C4418 0.950 . S
H4411 C4420 0.950 . S
H4412 C4422 0.950 . S
H4413 C4424 0.950 . S
H4414 C4426 0.950 . S
H4415 C4427 0.950 . S
C4416 H4408 0.950 . S
C4416 C4417 1.386 . S
C4416 C4418 1.391 . S
C4417 C4416 1.386 . S
C4417 C4421 1.393 . S
C4418 H4410 0.950 . S
C4418 C4416 1.391 . S
C4418 C4419 1.400 . S
C4419 C4418 1.400 . S
C4419 C4420 1.398 . S
C4419 C4425 1.491 . S
C4420 H4411 0.950 . S
C4420 C4419 1.398 . S
C4420 C4421 1.391 . S
C4421 H4409 0.950 . S
C4421 C4417 1.393 . S
C4421 C4420 1.391 . S
C4422 H4412 0.950 . S
C4422 C4423 1.386 . S
C4422 C4424 1.391 . S
C4423 C4422 1.386 . S
C4423 C4427 1.393 . S
C4424 H4413 0.950 . S
C4424 C4422 1.391 . S
C4424 C4425 1.400 . S
C4425 C4419 1.491 . S
C4425 C4424 1.400 . S
C4425 C4426 1.398 . S
C4426 H4414 0.950 . S
C4426 C4425 1.398 . S
C4426 C4427 1.391 . S
C4427 H4415 0.950 . S
C4427 C4423 1.393 . S
C4427 C4426 1.391 . S
H4428 C4436 0.950 . S
H4429 C4441 0.950 . S
H4430 C4438 0.950 . S
H4431 C4440 0.950 . S
H4432 C4442 0.950 . S
H4433 C4444 0.950 . S
H4434 C4446 0.950 . S
H4435 C4447 0.950 . S
C4436 H4428 0.950 . S
C4436 C4437 1.386 . S
C4436 C4438 1.391 . S
C4437 C4436 1.386 . S
C4437 C4441 1.393 . S
C4438 H4430 0.950 . S
C4438 C4436 1.391 . S
C4438 C4439 1.400 . S
C4439 C4438 1.400 . S
C4439 C4440 1.398 . S
C4439 C4445 1.491 . S
C4440 H4431 0.950 . S
C4440 C4439 1.398 . S
C4440 C4441 1.391 . S
C4441 H4429 0.950 . S
C4441 C4437 1.393 . S
C4441 C4440 1.391 . S
C4442 H4432 0.950 . S
C4442 C4443 1.386 . S
C4442 C4444 1.391 . S
C4443 C4442 1.386 . S
C4443 C4447 1.393 . S
C4444 H4433 0.950 . S
C4444 C4442 1.391 . S
C4444 C4445 1.400 . S
C4445 C4439 1.491 . S
C4445 C4444 1.400 . S
C4445 C4446 1.398 . S
C4446 H4434 0.950 . S
C4446 C4445 1.398 . S
C4446 C4447 1.391 . S
C4447 H4435 0.950 . S
C4447 C4443 1.393 . S
C4447 C4446 1.391 . S
H4448 C4456 0.950 . S
H4449 C4461 0.950 . S
H4450 C4458 0.950 . S
H4451 C4460 0.950 . S
H4452 C4462 0.950 . S
H4453 C4464 0.950 . S
H4454 C4466 0.950 . S
H4455 C4467 0.950 . S
C4456 H4448 0.950 . S
C4456 C4457 1.386 . S
C4456 C4458 1.391 . S
C4457 C4456 1.386 . S
C4457 C4461 1.393 . S
C4458 H4450 0.950 . S
C4458 C4456 1.391 . S
C4458 C4459 1.400 . S
C4459 C4458 1.400 . S
C4459 C4460 1.398 . S
C4459 C4465 1.491 . S
C4460 H4451 0.950 . S
C4460 C4459 1.398 . S
C4460 C4461 1.391 . S
C4461 H4449 0.950 . S
C4461 C4457 1.393 . S
C4461 C4460 1.391 . S
C4462 H4452 0.950 . S
C4462 C4463 1.386 . S
C4462 C4464 1.391 . S
C4463 C4462 1.386 . S
C4463 C4467 1.393 . S
C4464 H4453 0.950 . S
C4464 C4462 1.391 . S
C4464 C4465 1.400 . S
C4465 C4459 1.491 . S
C4465 C4464 1.400 . S
C4465 C4466 1.398 . S
C4466 H4454 0.950 . S
C4466 C4465 1.398 . S
C4466 C4467 1.391 . S
C4467 H4455 0.950 . S
C4467 C4463 1.393 . S
C4467 C4466 1.391 . S
H4468 C4476 0.950 . S
H4469 C4481 0.950 . S
H4470 C4478 0.950 . S
H4471 C4480 0.950 . S
H4472 C4482 0.950 . S
H4473 C4484 0.950 . S
H4474 C4486 0.950 . S
H4475 C4487 0.950 . S
C4476 H4468 0.950 . S
C4476 C4477 1.386 . S
C4476 C4478 1.391 . S
C4477 C4476 1.386 . S
C4477 C4481 1.393 . S
C4478 H4470 0.950 . S
C4478 C4476 1.391 . S
C4478 C4479 1.400 . S
C4479 C4478 1.400 . S
C4479 C4480 1.398 . S
C4479 C4485 1.491 . S
C4480 H4471 0.950 . S
C4480 C4479 1.398 . S
C4480 C4481 1.391 . S
C4481 H4469 0.950 . S
C4481 C4477 1.393 . S
C4481 C4480 1.391 . S
C4482 H4472 0.950 . S
C4482 C4483 1.386 . S
C4482 C4484 1.391 . S
C4483 C4482 1.386 . S
C4483 C4487 1.393 . S
C4484 H4473 0.950 . S
C4484 C4482 1.391 . S
C4484 C4485 1.400 . S
C4485 C4479 1.491 . S
C4485 C4484 1.400 . S
C4485 C4486 1.398 . S
C4486 H4474 0.950 . S
C4486 C4485 1.398 . S
C4486 C4487 1.391 . S
C4487 H4475 0.950 . S
C4487 C4483 1.393 . S
C4487 C4486 1.391 . S
H4488 C4496 0.950 . S
H4489 C4501 0.950 . S
H4490 C4498 0.950 . S
H4491 C4500 0.950 . S
H4492 C4502 0.950 . S
H4493 C4504 0.950 . S
H4494 C4506 0.950 . S
H4495 C4507 0.950 . S
C4496 H4488 0.950 . S
C4496 C4497 1.386 . S
C4496 C4498 1.391 . S
C4497 C4496 1.386 . S
C4497 C4501 1.393 . S
C4498 H4490 0.950 . S
C4498 C4496 1.391 . S
C4498 C4499 1.400 . S
C4499 C4498 1.400 . S
C4499 C4500 1.398 . S
C4499 C4505 1.491 . S
C4500 H4491 0.950 . S
C4500 C4499 1.398 . S
C4500 C4501 1.391 . S
C4501 H4489 0.950 . S
C4501 C4497 1.393 . S
C4501 C4500 1.391 . S
C4502 H4492 0.950 . S
C4502 C4503 1.386 . S
C4502 C4504 1.391 . S
C4503 C4502 1.386 . S
C4503 C4507 1.393 . S
C4504 H4493 0.950 . S
C4504 C4502 1.391 . S
C4504 C4505 1.400 . S
C4505 C4499 1.491 . S
C4505 C4504 1.400 . S
C4505 C4506 1.398 . S
C4506 H4494 0.950 . S
C4506 C4505 1.398 . S
C4506 C4507 1.391 . S
C4507 H4495 0.950 . S
C4507 C4503 1.393 . S
C4507 C4506 1.391 . S
H4508 C4516 0.950 . S
H4509 C4521 0.950 . S
H4510 C4518 0.950 . S
H4511 C4520 0.950 . S
H4512 C4522 0.950 . S
H4513 C4524 0.950 . S
H4514 C4526 0.950 . S
H4515 C4527 0.950 . S
C4516 H4508 0.950 . S
C4516 C4517 1.386 . S
C4516 C4518 1.391 . S
C4517 C4516 1.386 . S
C4517 C4521 1.393 . S
C4518 H4510 0.950 . S
C4518 C4516 1.391 . S
C4518 C4519 1.400 . S
C4519 C4518 1.400 . S
C4519 C4520 1.398 . S
C4519 C4525 1.491 . S
C4520 H4511 0.950 . S
C4520 C4519 1.398 . S
C4520 C4521 1.391 . S
C4521 H4509 0.950 . S
C4521 C4517 1.393 . S
C4521 C4520 1.391 . S
C4522 H4512 0.950 . S
C4522 C4523 1.386 . S
C4522 C4524 1.391 . S
C4523 C4522 1.386 . S
C4523 C4527 1.393 . S
C4524 H4513 0.950 . S
C4524 C4522 1.391 . S
C4524 C4525 1.400 . S
C4525 C4519 1.491 . S
C4525 C4524 1.400 . S
C4525 C4526 1.398 . S
C4526 H4514 0.950 . S
C4526 C4525 1.398 . S
C4526 C4527 1.391 . S
C4527 H4515 0.950 . S
C4527 C4523 1.393 . S
C4527 C4526 1.391 . S
H4528 C4536 0.950 . S
H4529 C4541 0.950 . S
H4530 C4538 0.950 . S
H4531 C4540 0.950 . S
H4532 C4542 0.950 . S
H4533 C4544 0.950 . S
H4534 C4546 0.950 . S
H4535 C4547 0.950 . S
C4536 H4528 0.950 . S
C4536 C4537 1.386 . S
C4536 C4538 1.391 . S
C4537 C4536 1.386 . S
C4537 C4541 1.393 . S
C4538 H4530 0.950 . S
C4538 C4536 1.391 . S
C4538 C4539 1.400 . S
C4539 C4538 1.400 . S
C4539 C4540 1.398 . S
C4539 C4545 1.491 . S
C4540 H4531 0.950 . S
C4540 C4539 1.398 . S
C4540 C4541 1.391 . S
C4541 H4529 0.950 . S
C4541 C4537 1.393 . S
C4541 C4540 1.391 . S
C4542 H4532 0.950 . S
C4542 C4543 1.386 . S
C4542 C4544 1.391 . S
C4543 C4542 1.386 . S
C4543 C4547 1.393 . S
C4544 H4533 0.950 . S
C4544 C4542 1.391 . S
C4544 C4545 1.400 . S
C4545 C4539 1.491 . S
C4545 C4544 1.400 . S
C4545 C4546 1.398 . S
C4546 H4534 0.950 . S
C4546 C4545 1.398 . S
C4546 C4547 1.391 . S
C4547 H4535 0.950 . S
C4547 C4543 1.393 . S
C4547 C4546 1.391 . S
H4548 C4556 0.950 . S
H4549 C4561 0.950 . S
H4550 C4558 0.950 . S
H4551 C4560 0.950 . S
H4552 C4562 0.950 . S
H4553 C4564 0.950 . S
H4554 C4566 0.950 . S
H4555 C4567 0.950 . S
C4556 H4548 0.950 . S
C4556 C4557 1.386 . S
C4556 C4558 1.391 . S
C4557 C4556 1.386 . S
C4557 C4561 1.393 . S
C4558 H4550 0.950 . S
C4558 C4556 1.391 . S
C4558 C4559 1.400 . S
C4559 C4558 1.400 . S
C4559 C4560 1.398 . S
C4559 C4565 1.491 . S
C4560 H4551 0.950 . S
C4560 C4559 1.398 . S
C4560 C4561 1.391 . S
C4561 H4549 0.950 . S
C4561 C4557 1.393 . S
C4561 C4560 1.391 . S
C4562 H4552 0.950 . S
C4562 C4563 1.386 . S
C4562 C4564 1.391 . S
C4563 C4562 1.386 . S
C4563 C4567 1.393 . S
C4564 H4553 0.950 . S
C4564 C4562 1.391 . S
C4564 C4565 1.400 . S
C4565 C4559 1.491 . S
C4565 C4564 1.400 . S
C4565 C4566 1.398 . S
C4566 H4554 0.950 . S
C4566 C4565 1.398 . S
C4566 C4567 1.391 . S
C4567 H4555 0.950 . S
C4567 C4563 1.393 . S
C4567 C4566 1.391 . S
H4568 C4576 0.950 . S
H4569 C4581 0.950 . S
H4570 C4578 0.950 . S
H4571 C4580 0.950 . S
H4572 C4582 0.950 . S
H4573 C4584 0.950 . S
H4574 C4586 0.950 . S
H4575 C4587 0.950 . S
C4576 H4568 0.950 . S
C4576 C4577 1.386 . S
C4576 C4578 1.391 . S
C4577 C4576 1.386 . S
C4577 C4581 1.393 . S
C4578 H4570 0.950 . S
C4578 C4576 1.391 . S
C4578 C4579 1.400 . S
C4579 C4578 1.400 . S
C4579 C4580 1.398 . S
C4579 C4585 1.491 . S
C4580 H4571 0.950 . S
C4580 C4579 1.398 . S
C4580 C4581 1.391 . S
C4581 H4569 0.950 . S
C4581 C4577 1.393 . S
C4581 C4580 1.391 . S
C4582 H4572 0.950 . S
C4582 C4583 1.386 . S
C4582 C4584 1.391 . S
C4583 C4582 1.386 . S
C4583 C4587 1.393 . S
C4584 H4573 0.950 . S
C4584 C4582 1.391 . S
C4584 C4585 1.400 . S
C4585 C4579 1.491 . S
C4585 C4584 1.400 . S
C4585 C4586 1.398 . S
C4586 H4574 0.950 . S
C4586 C4585 1.398 . S
C4586 C4587 1.391 . S
C4587 H4575 0.950 . S
C4587 C4583 1.393 . S
C4587 C4586 1.391 . S
H4588 C4596 0.950 . S
H4589 C4601 0.950 . S
H4590 C4598 0.950 . S
H4591 C4600 0.950 . S
H4592 C4602 0.950 . S
H4593 C4604 0.950 . S
H4594 C4606 0.950 . S
H4595 C4607 0.950 . S
C4596 H4588 0.950 . S
C4596 C4597 1.386 . S
C4596 C4598 1.391 . S
C4597 C4596 1.386 . S
C4597 C4601 1.393 . S
C4598 H4590 0.950 . S
C4598 C4596 1.391 . S
C4598 C4599 1.400 . S
C4599 C4598 1.400 . S
C4599 C4600 1.398 . S
C4599 C4605 1.491 . S
C4600 H4591 0.950 . S
C4600 C4599 1.398 . S
C4600 C4601 1.391 . S
C4601 H4589 0.950 . S
C4601 C4597 1.393 . S
C4601 C4600 1.391 . S
C4602 H4592 0.950 . S
C4602 C4603 1.386 . S
C4602 C4604 1.391 . S
C4603 C4602 1.386 . S
C4603 C4607 1.393 . S
C4604 H4593 0.950 . S
C4604 C4602 1.391 . S
C4604 C4605 1.400 . S
C4605 C4599 1.491 . S
C4605 C4604 1.400 . S
C4605 C4606 1.398 . S
C4606 H4594 0.950 . S
C4606 C4605 1.398 . S
C4606 C4607 1.391 . S
C4607 H4595 0.950 . S
C4607 C4603 1.393 . S
C4607 C4606 1.391 . S
C3177 C1437 1.328 . S
C3183 C57 1.338 . S
C3197 C1525 1.328 . S
C3203 C145 1.340 . S
C3217 C233 1.329 . S
C3223 C1340 1.324 . S
C3237 C2345 1.314 . S
C3243 C284 1.328 . S
C3257 C2161 1.344 . S
C3263 C381 1.330 . S
C3277 C469 1.328 . S
C3283 C2257 1.334 . S
C3297 C3021 1.328 . S
C3303 C585 1.323 . S
C3317 C3100 1.326 . S
C3323 C673 1.325 . S
C3337 C2961 1.308 . S
C3343 C733 1.306 . S
C3357 C1780 1.314 . S
C3363 C841 1.325 . S
C3377 C909 1.320 . S
C3383 C1641 1.328 . S
C3397 C1729 1.313 . S
C3403 C988 1.311 . S
C3417 C2493 1.328 . S
C3423 C1105 1.341 . S
C3437 C1201 1.344 . S
C3443 C2572 1.330 . S
C3457 C2396 1.313 . S
C3463 C1289 1.317 . S
C3477 C2845 1.305 . S
C3483 C1897 1.318 . S
C3497 C2697 1.308 . S
C3503 C1965 1.320 . S
C3517 C2044 1.328 . S
C3523 C2777 1.322 . S
C3537 C636 1.312 1_554 S
C3543 C20 1.313 . S
C3557 C761 1.315 1_554 S
C3563 C108 1.310 . S
C3577 C557 1.324 1_554 S
C3583 C196 1.320 . S
C3597 C321 1.321 . S
C3603 C1017 1.324 . S
C3617 C812 1.308 . S
C3623 C401 1.309 . S
C3637 C489 1.318 . S
C3643 C929 1.311 . S
C3657 C137 1.314 1_556 S
C3663 C548 1.315 . S
C3677 C665 1.312 . S
C3683 C225 1.305 1_556 S
C3697 C49 1.308 1_556 S
C3703 C753 1.307 . S
C3717 C460 1.320 . S
C3723 C821 1.322 . S
C3737 C293 1.302 . S
C3743 C900 1.310 . S
C3757 C1025 1.311 . S
C3763 C372 1.312 . S
C3777 C1085 1.315 . S
C3783 C1692 1.306 . S
C3797 C1809 1.316 . S
C3803 C1164 1.319 . S
C3817 C1613 1.318 . S
C3823 C1252 1.321 . S
C3837 C1377 1.312 . S
C3843 C2073 1.311 . S
C3857 C1868 1.316 . S
C3863 C1457 1.311 . S
C3877 C1545 1.304 . S
C3883 C1985 1.297 . S
C3897 C1604 1.311 . S
C3903 C1193 1.311 . S
C3917 C1721 1.306 . S
C3923 C1281 1.300 . S
C3937 C1113 1.309 . S
C3943 C1817 1.307 . S
C3957 C1516 1.317 . S
C3963 C1877 1.319 . S
C3977 C1349 1.306 . S
C3983 C1956 1.313 . S
C3997 C2081 1.328 . S
C4003 C1428 1.327 . S
C4017 C2757 1.300 . S
C4023 C2141 1.309 . S
C4037 C2220 1.310 . S
C4043 C2873 1.315 . S
C4057 C2308 1.316 . S
C4063 C2669 1.321 . S
C4077 C3129 1.311 . S
C4083 C2433 1.311 . S
C4097 C2513 1.311 . S
C4103 C2933 1.316 . S
C4117 C3041 1.301 . S
C4123 C2609 1.305 . S
C4137 C2249 1.318 . S
C4143 C2660 1.314 . S
C4157 C2337 1.304 . S
C4163 C2785 1.304 . S
C4177 C2865 1.324 . S
C4183 C2169 1.324 . S
C4197 C2924 1.323 . S
C4203 C2581 1.322 . S
C4217 C2405 1.316 . S
C4223 C3012 1.316 . S
C4237 C2484 1.320 . S
C4243 C3137 1.322 . S
C4257 C29 1.203 . S
C4263 C313 1.198 . S
C4277 C117 1.202 . S
C4283 C409 1.201 . S
C4297 C497 1.195 . S
C4303 C205 1.204 . S
C4317 C577 1.215 . S
C4323 C849 1.203 . S
C4337 C937 1.213 . S
C4343 C645 1.219 . S
C4357 C997 1.211 . S
C4363 C724 1.206 . S
C4377 C1076 1.195 . S
C4383 C1369 1.203 . S
C4397 C1173 1.206 . S
C4403 C1465 1.196 . S
C4417 C1553 1.198 . S
C4423 C1261 1.203 . S
C4437 C1633 1.211 . S
C4443 C1905 1.206 1_554 S
C4457 C1701 1.211 . S
C4463 C1993 1.215 1_554 S
C4477 C1789 1.203 . S
C4483 C2053 1.213 1_554 S
C4497 C2425 1.202 1_556 S
C4503 C2132 1.199 . S
C4517 C2521 1.203 1_556 S
C4523 C2229 1.199 . S
C4537 C2601 1.202 1_556 S
C4543 C2317 1.196 . S
C4557 C2689 1.210 . S
C4563 C2953 1.207 . S
C4577 C3049 1.210 . S
C4583 C2748 1.219 . S
C4597 C3109 1.214 . S
C4603 C2836 1.203 . S
