# Generated by pormake.
# Topology ume, (4)-cn, num edge types: 1
# Building blocks:
#     Node 0, Type 0, BuildingBlock: ESEHIV_clean_sbu_0, # of connection points: 4
#     Node 1, Type 0, BuildingBlock: ESEHIV_clean_sbu_0, # of connection points: 4
#     Node 2, Type 0, BuildingBlock: ESEHIV_clean_sbu_0, # of connection points: 4
#     Node 3, Type 0, BuildingBlock: ESEHIV_clean_sbu_0, # of connection points: 4
#     Node 4, Type 0, BuildingBlock: ESEHIV_clean_sbu_0, # of connection points: 4
#     Node 5, Type 0, BuildingBlock: ESEHIV_clean_sbu_0, # of connection points: 4
#     Node 6, Type 0, BuildingBlock: ESEHIV_clean_sbu_0, # of connection points: 4
#     Node 7, Type 0, BuildingBlock: ESEHIV_clean_sbu_0, # of connection points: 4
#     Node 8, Type 0, BuildingBlock: ESEHIV_clean_sbu_0, # of connection points: 4
#     Node 9, Type 0, BuildingBlock: ESEHIV_clean_sbu_0, # of connection points: 4
#     Node 10, Type 0, BuildingBlock: ESEHIV_clean_sbu_0, # of connection points: 4
#     Node 11, Type 0, BuildingBlock: ESEHIV_clean_sbu_0, # of connection points: 4
#     Node 12, Type 0, BuildingBlock: ESEHIV_clean_sbu_0, # of connection points: 4
#     Node 13, Type 0, BuildingBlock: ESEHIV_clean_sbu_0, # of connection points: 4
#     Node 14, Type 0, BuildingBlock: ESEHIV_clean_sbu_0, # of connection points: 4
#     Node 15, Type 0, BuildingBlock: ESEHIV_clean_sbu_0, # of connection points: 4
#     Edge 16, Type (0, 0), BuildingBlock: OJICUG_clean_linker_0, # of connection points: 2
#     Edge 17, Type (0, 0), BuildingBlock: OJICUG_clean_linker_0, # of connection points: 2
#     Edge 18, Type (0, 0), BuildingBlock: OJICUG_clean_linker_0, # of connection points: 2
#     Edge 19, Type (0, 0), BuildingBlock: OJICUG_clean_linker_0, # of connection points: 2
#     Edge 20, Type (0, 0), BuildingBlock: OJICUG_clean_linker_0, # of connection points: 2
#     Edge 21, Type (0, 0), BuildingBlock: OJICUG_clean_linker_0, # of connection points: 2
#     Edge 22, Type (0, 0), BuildingBlock: OJICUG_clean_linker_0, # of connection points: 2
#     Edge 23, Type (0, 0), BuildingBlock: OJICUG_clean_linker_0, # of connection points: 2
#     Edge 24, Type (0, 0), BuildingBlock: OJICUG_clean_linker_0, # of connection points: 2
#     Edge 25, Type (0, 0), BuildingBlock: OJICUG_clean_linker_0, # of connection points: 2
#     Edge 26, Type (0, 0), BuildingBlock: OJICUG_clean_linker_0, # of connection points: 2
#     Edge 27, Type (0, 0), BuildingBlock: OJICUG_clean_linker_0, # of connection points: 2
#     Edge 28, Type (0, 0), BuildingBlock: OJICUG_clean_linker_0, # of connection points: 2
#     Edge 29, Type (0, 0), BuildingBlock: OJICUG_clean_linker_0, # of connection points: 2
#     Edge 30, Type (0, 0), BuildingBlock: OJICUG_clean_linker_0, # of connection points: 2
#     Edge 31, Type (0, 0), BuildingBlock: OJICUG_clean_linker_0, # of connection points: 2
#     Edge 32, Type (0, 0), BuildingBlock: OJICUG_clean_linker_0, # of connection points: 2
#     Edge 33, Type (0, 0), BuildingBlock: OJICUG_clean_linker_0, # of connection points: 2
#     Edge 34, Type (0, 0), BuildingBlock: OJICUG_clean_linker_0, # of connection points: 2
#     Edge 35, Type (0, 0), BuildingBlock: OJICUG_clean_linker_0, # of connection points: 2
#     Edge 36, Type (0, 0), BuildingBlock: OJICUG_clean_linker_0, # of connection points: 2
#     Edge 37, Type (0, 0), BuildingBlock: OJICUG_clean_linker_0, # of connection points: 2
#     Edge 38, Type (0, 0), BuildingBlock: OJICUG_clean_linker_0, # of connection points: 2
#     Edge 39, Type (0, 0), BuildingBlock: OJICUG_clean_linker_0, # of connection points: 2
#     Edge 40, Type (0, 0), BuildingBlock: OJICUG_clean_linker_0, # of connection points: 2
#     Edge 41, Type (0, 0), BuildingBlock: OJICUG_clean_linker_0, # of connection points: 2
#     Edge 42, Type (0, 0), BuildingBlock: OJICUG_clean_linker_0, # of connection points: 2
#     Edge 43, Type (0, 0), BuildingBlock: OJICUG_clean_linker_0, # of connection points: 2
#     Edge 44, Type (0, 0), BuildingBlock: OJICUG_clean_linker_0, # of connection points: 2
#     Edge 45, Type (0, 0), BuildingBlock: OJICUG_clean_linker_0, # of connection points: 2
#     Edge 46, Type (0, 0), BuildingBlock: OJICUG_clean_linker_0, # of connection points: 2
#     Edge 47, Type (0, 0), BuildingBlock: OJICUG_clean_linker_0, # of connection points: 2
# Relax obj value: 0.042
# Max RMSD: 0.170
# Mean RMSD: 0.137
data_MOF--net-ume--node1-ESEHIV_clean_sbu_0--edge1-OJICUG_clean_linker_0
_symmetry_space_group_name_H-M    P1
_symmetry_Int_Tables_number       1
_symmetry_cell_setting            triclinic
loop_
_symmetry_equiv_pos_as_xyz
'x, y, z'
_cell_length_a     19.80141
_cell_length_b     26.037012
_cell_length_c     89.844074
_cell_angle_alpha  89.872683
_cell_angle_beta   89.860673
_cell_angle_gamma 90.063826
loop_
_atom_site_label
_atom_site_type_symbol
_atom_site_fract_x
_atom_site_fract_y
_atom_site_fract_z
_atom_type_partial_charge
Cu0 Cu 0.26909 0.11464 0.31511 0.0
N1 N 0.27123 0.15612 0.332 0.0
N2 N 0.27702 0.18166 0.35573 0.0
C3 C 0.27573 0.14113 0.34633 0.0
C4 C 0.27327 0.22359 0.34689 0.0
C5 C 0.26976 0.20772 0.3323 0.0
O6 O 0.18771 0.07205 0.31623 0.0
C7 C 0.38108 0.05768 0.30276 0.0
O8 O 0.34721 0.05899 0.29022 0.0
H9 H 0.2775 0.10127 0.34974 0.0
H10 H 0.26693 0.23211 0.32256 0.0
N11 N 0.26112 0.1575 0.29842 0.0
N12 N 0.28404 0.19902 0.27717 0.0
C13 C 0.30943 0.17152 0.28865 0.0
C14 C 0.20347 0.17786 0.29314 0.0
C15 C 0.21733 0.20323 0.28 0.0
C16 C 0.16078 0.05388 0.3045 0.0
O17 O 0.19314 0.05854 0.29179 0.0
H18 H 0.36173 0.16012 0.28965 0.0
H19 H 0.15441 0.17326 0.2983 0.0
O20 O 0.35444 0.07632 0.3145 0.0
H21 H 0.27434 0.26306 0.35063 0.0
H22 H 0.18097 0.22272 0.27302 0.0
Cu23 Cu 0.96888 0.76879 0.58113 0.0
N24 N 1.02266 0.82773 0.58184 0.0
N25 N 0.05359 0.91043 0.58136 0.0
C26 C 1.00281 0.87644 0.57944 0.0
C27 C 0.1078 0.88162 0.58505 0.0
C28 C 0.0885 0.83074 0.58536 0.0
O29 O 0.91071 0.77265 0.56379 0.0
C30 C 0.89664 0.79693 0.60736 0.0
O31 O 0.89129 0.84208 0.60095 0.0
H32 H 0.95157 0.88683 0.57679 0.0
H33 H 0.12007 0.79823 0.58812 0.0
N34 N 1.02427 0.71214 0.57776 0.0
N35 N 0.05673 0.63061 0.57519 0.0
C36 C 1.01366 0.66311 0.58202 0.0
C37 C 0.07575 0.71044 0.56796 0.0
C38 C 0.09574 0.66014 0.56631 0.0
C39 C 0.86494 0.80534 0.56085 0.0
O40 O 0.84619 0.83865 0.57098 0.0
H41 H 0.97205 0.65107 0.58906 0.0
H42 H 0.09452 0.74314 0.56176 0.0
O43 O 0.92364 0.76005 0.60021 0.0
H44 H 0.1579 0.896 0.58741 0.0
H45 H 0.13369 0.64599 0.55866 0.0
Cu46 Cu 0.30569 0.41417 0.81608 0.0
N47 N 0.30396 0.37405 0.8333 0.0
N48 N 0.29945 0.35086 0.85727 0.0
C49 C 0.30054 0.39045 0.84749 0.0
C50 C 0.30221 0.30806 0.84882 0.0
C51 C 0.30491 0.32249 0.83407 0.0
O52 O 0.38719 0.45674 0.81681 0.0
C53 C 0.19643 0.47438 0.80394 0.0
O54 O 0.23304 0.47655 0.79174 0.0
H55 H 0.29944 0.43063 0.85054 0.0
H56 H 0.30689 0.29715 0.82456 0.0
N57 N 0.31321 0.3702 0.79967 0.0
N58 N 0.29332 0.3307 0.77803 0.0
C59 C 0.26752 0.36055 0.78895 0.0
C60 C 0.36933 0.34477 0.79555 0.0
C61 C 0.35737 0.32056 0.78219 0.0
C62 C 0.41703 0.47114 0.80492 0.0
O63 O 0.38748 0.463 0.79207 0.0
H64 H 0.21717 0.37657 0.78888 0.0
H65 H 0.41635 0.34514 0.80166 0.0
O66 O 0.22042 0.45231 0.81544 0.0
H67 H 0.30103 0.26899 0.85294 0.0
H68 H 0.39326 0.29773 0.77598 0.0
Cu69 Cu 0.59252 0.77441 0.08097 0.0
N70 N 0.53862 0.71632 0.0844 0.0
N71 N 0.51109 0.63338 0.08685 0.0
C72 C 0.54738 0.6683 0.07908 0.0
C73 C 0.47759 0.6604 0.0973 0.0
C74 C 0.49435 0.7115 0.09571 0.0
O75 O 0.64631 0.76577 0.06311 0.0
C76 C 0.66596 0.75043 0.10704 0.0
O77 O 0.66044 0.70297 0.10226 0.0
H78 H 0.58385 0.6584 0.07059 0.0
H79 H 0.47968 0.74244 0.10305 0.0
N80 N 0.53881 0.83213 0.07744 0.0
N81 N 0.51097 0.91476 0.0747 0.0
C82 C 0.55131 0.88083 0.08177 0.0
C83 C 0.48882 0.83552 0.06737 0.0
C84 C 0.4718 0.88651 0.06559 0.0
C85 C 0.68897 0.7307 0.06022 0.0
O86 O 0.70434 0.69657 0.07045 0.0
H87 H 0.59253 0.89155 0.08903 0.0
H88 H 0.46936 0.80348 0.06104 0.0
O89 O 0.64488 0.787 0.09885 0.0
H90 H 0.4464 0.64394 0.10601 0.0
H91 H 0.43575 0.90194 0.05773 0.0
Cu92 Cu 0.26413 0.43221 0.96022 0.0
N93 N 0.26907 0.38733 0.94413 0.0
N94 N 0.2781 0.35824 0.92081 0.0
C95 C 0.27471 0.40013 0.92965 0.0
C96 C 0.27433 0.31764 0.93017 0.0
C97 C 0.26874 0.33572 0.94453 0.0
O98 O 0.18341 0.47411 0.95755 0.0
C99 C 0.37702 0.48791 0.97244 0.0
O100 O 0.34414 0.48525 0.98513 0.0
H101 H 0.27735 0.43943 0.92574 0.0
H102 H 0.26473 0.31289 0.95457 0.0
N103 N 0.25307 0.39397 0.97771 0.0
N104 N 0.27454 0.35425 0.9993 0.0
C105 C 0.30118 0.37637 0.98697 0.0
C106 C 0.19397 0.38165 0.98419 0.0
C107 C 0.20696 0.35724 0.99751 0.0
C108 C 0.16389 0.50694 0.96709 0.0
O109 O 0.20221 0.51651 0.97868 0.0
H110 H 0.3546 0.38187 0.98498 0.0
H111 H 0.14482 0.391 0.97972 0.0
O112 O 0.34933 0.47076 0.96065 0.0
H113 H 0.2747 0.27767 0.9269 0.0
H114 H 0.16937 0.3435 1.00532 0.0
Cu115 Cu 0.60986 0.76304 0.19745 0.0
N116 N 0.55527 0.82154 0.19674 0.0
N117 N 0.52398 0.90413 0.19716 0.0
C118 C 0.57528 0.87044 0.19871 0.0
C119 C 0.46917 0.87493 0.19421 0.0
C120 C 0.48867 0.82407 0.19396 0.0
O121 O 0.66986 0.76844 0.2144 0.0
C122 C 0.67337 0.78906 0.16987 0.0
O123 O 0.67085 0.83646 0.17478 0.0
H124 H 0.62696 0.88117 0.20074 0.0
H125 H 0.45666 0.79125 0.19179 0.0
N126 N 0.55606 0.70599 0.20137 0.0
N127 N 0.52588 0.62384 0.20359 0.0
C128 C 0.56515 0.6579 0.19626 0.0
C129 C 0.50934 0.70218 0.21222 0.0
C130 C 0.4908 0.6514 0.21367 0.0
C131 C 0.71575 0.80179 0.21648 0.0
O132 O 0.73237 0.83358 0.20572 0.0
H133 H 0.60349 0.64753 0.1882 0.0
H134 H 0.49321 0.73366 0.21921 0.0
O135 O 0.65406 0.75256 0.17833 0.0
H136 H 0.41854 0.88901 0.19232 0.0
H137 H 0.45674 0.63553 0.22193 0.0
Cu138 Cu 0.31546 0.11024 0.45924 0.0
N139 N 0.31139 0.15382 0.44279 0.0
N140 N 0.30221 0.18072 0.41923 0.0
C141 C 0.30516 0.13968 0.42845 0.0
C142 C 0.3069 0.22217 0.42819 0.0
C143 C 0.31259 0.20544 0.4427 0.0
O144 O 0.39589 0.06763 0.45696 0.0
C145 C 0.21141 0.04318 0.47052 0.0
O146 O 0.25121 0.03697 0.48205 0.0
H147 H 0.30162 0.10006 0.42492 0.0
H148 H 0.3171 0.2292 0.45251 0.0
N149 N 0.32449 0.14943 0.47652 0.0
N150 N 0.30144 0.18827 0.49813 0.0
C151 C 0.27656 0.16051 0.48666 0.0
C152 C 0.38156 0.17104 0.48166 0.0
C153 C 0.36759 0.19494 0.495 0.0
C154 C 0.42162 0.04272 0.46775 0.0
O155 O 0.39124 0.04288 0.48075 0.0
H156 H 0.22485 0.14741 0.48579 0.0
H157 H 0.43007 0.16911 0.47613 0.0
O158 O 0.23073 0.07146 0.45974 0.0
H159 H 0.30695 0.2618 0.42454 0.0
H160 H 0.40329 0.21585 0.50179 0.0
Cu161 Cu 0.99118 0.76324 0.69554 0.0
N162 N 0.04786 0.70671 0.69508 0.0
N163 N 0.07644 0.62399 0.69446 0.0
C164 C 1.02797 0.65835 0.69788 0.0
C165 C 0.1291 0.6521 0.68939 0.0
C166 C 0.11108 0.70319 0.68969 0.0
O167 O 0.93135 0.75439 0.71247 0.0
C168 C 0.90162 0.79185 0.67118 0.0
O169 O 0.87572 0.828 0.6796 0.0
H170 H 0.97787 0.6487 0.70183 0.0
H171 H 0.1405 0.73514 0.6855 0.0
N172 N 0.04194 0.823 0.69795 0.0
N173 N 0.06995 0.90603 0.69916 0.0
C174 C 1.02236 0.87152 0.69516 0.0
C175 C 0.10395 0.82682 0.70393 0.0
C176 C 0.12144 0.87789 0.70466 0.0
C177 C 0.96036 0.74996 0.72505 0.0
O178 O 1.0265 0.75348 0.72561 0.0
H179 H 0.97393 0.88123 0.69044 0.0
H180 H 0.1336 0.7948 0.70792 0.0
O181 O 0.94692 0.76231 0.67635 0.0
H182 H 0.17573 0.63676 0.68495 0.0
H183 H 0.16754 0.89302 0.70938 0.0
Cu184 Cu 0.8057 0.60121 0.81546 0.0
N185 N 0.81097 0.64314 0.83216 0.0
N186 N 0.80926 0.67094 0.85567 0.0
C187 C 0.79798 0.63084 0.84645 0.0
C188 C 0.83025 0.70969 0.84677 0.0
C189 C 0.83136 0.69239 0.83231 0.0
O190 O 0.72347 0.5597 0.81689 0.0
C191 C 0.91707 0.54334 0.80306 0.0
O192 O 0.88389 0.54516 0.79043 0.0
H193 H 0.78009 0.59342 0.84996 0.0
H194 H 0.84659 0.71401 0.82256 0.0
N195 N 0.79693 0.64427 0.79887 0.0
N196 N 0.81788 0.68762 0.77786 0.0
C197 C 0.84422 0.6585 0.78888 0.0
C198 C 0.73914 0.66609 0.7942 0.0
C199 C 0.75176 0.69257 0.7812 0.0
C200 C 0.69553 0.54229 0.80517 0.0
O201 O 0.72746 0.54688 0.7924 0.0
H202 H 0.89643 0.64651 0.78946 0.0
H203 H 0.69085 0.66206 0.79973 0.0
O204 O 0.89018 0.56207 0.81475 0.0
H205 H 0.84488 0.74765 0.85043 0.0
H206 H 0.71505 0.71361 0.7747 0.0
Cu207 Cu 0.45831 0.27568 0.08058 0.0
N208 N 0.5142 0.33299 0.08288 0.0
N209 N 0.54246 0.41573 0.08513 0.0
C210 C 0.49939 0.38173 0.07895 0.0
C211 C 0.58619 0.38735 0.09317 0.0
C212 C 0.56878 0.33629 0.09171 0.0
O213 O 0.39804 0.2884 0.06393 0.0
C214 C 0.38397 0.30273 0.1064 0.0
O215 O 0.37791 0.34757 0.09981 0.0
H216 H 0.45462 0.39238 0.07278 0.0
H217 H 0.59132 0.30417 0.09751 0.0
N218 N 0.50857 0.21615 0.07679 0.0
N219 N 0.53444 0.13301 0.07444 0.0
C220 C 0.49033 0.16745 0.08005 0.0
C221 C 0.56661 0.21225 0.06903 0.0
C222 C 0.58233 0.16094 0.06744 0.0
C223 C 0.42538 0.29507 0.05123 0.0
O224 O 0.49147 0.29285 0.05015 0.0
H225 H 0.44414 0.15736 0.08584 0.0
H226 H 0.59445 0.24441 0.06447 0.0
O227 O 0.41189 0.26595 0.0994 0.0
H228 H 0.62577 0.40266 0.10017 0.0
H229 H 0.62503 0.14526 0.06144 0.0
Cu230 Cu 0.76909 0.92658 0.31509 0.0
N231 N 0.76299 0.88974 0.33286 0.0
N232 N 0.76943 0.86662 0.35677 0.0
C233 C 0.78491 0.90292 0.34652 0.0
C234 C 0.73631 0.82956 0.34926 0.0
C235 C 0.73207 0.84407 0.33457 0.0
O236 O 0.85123 0.96872 0.3157 0.0
C237 C 0.6612 0.9905 0.30282 0.0
O238 O 0.69992 0.99857 0.29116 0.0
H239 H 0.8119 0.93816 0.34887 0.0
H240 H 0.70757 0.82304 0.32572 0.0
N241 N 0.77854 0.87813 0.29978 0.0
N242 N 0.77876 0.83905 0.27766 0.0
C243 C 0.75944 0.88094 0.2854 0.0
C244 C 0.811 0.83291 0.30108 0.0
C245 C 0.81072 0.80852 0.2875 0.0
C246 C 0.88379 0.97922 0.30381 0.0
O247 O 0.85689 0.96724 0.29093 0.0
H248 H 0.73233 0.91292 0.28064 0.0
H249 H 0.83425 0.819 0.31119 0.0
O250 O 0.68348 0.96402 0.31367 0.0
H251 H 0.7154 0.79489 0.3541 0.0
H252 H 0.83363 0.77183 0.28495 0.0
Cu253 Cu 0.11604 0.26955 0.57908 0.0
N254 N 0.05998 0.21212 0.57924 0.0
N255 N 1.03176 0.12918 0.57946 0.0
C256 C 0.08269 0.16351 0.57898 0.0
C257 C 0.97462 0.1573 0.58007 0.0
C258 C 0.99224 0.20862 0.58005 0.0
O259 O 0.17868 0.25965 0.56256 0.0
C260 C 0.20235 0.29891 0.60403 0.0
O261 O 0.22842 0.33573 0.59582 0.0
H262 H 0.13572 0.15363 0.57837 0.0
H263 H 0.95814 0.24089 0.5808 0.0
N264 N 0.06586 0.32965 0.57589 0.0
N265 N 1.03852 0.41263 0.57407 0.0
C266 C 0.08085 0.37796 0.5802 0.0
C267 C 1.01188 0.3343 0.56688 0.0
C268 C 0.99521 0.38541 0.56567 0.0
C269 C 0.15148 0.25007 0.55002 0.0
O270 O 0.08531 0.24916 0.54918 0.0
H271 H 0.12404 0.38796 0.58694 0.0
H272 H 0.98797 0.30298 0.56104 0.0
O273 O 0.15794 0.26913 0.59858 0.0
H274 H 0.92393 0.14189 0.58087 0.0
H275 H 0.95577 0.40157 0.55878 0.0
Cu276 Cu 0.81677 0.91975 0.46118 0.0
N277 N 0.8292 0.88582 0.44313 0.0
N278 N 0.82651 0.86543 0.41901 0.0
C279 C 0.80439 0.89809 0.42963 0.0
C280 C 0.8669 0.83168 0.42611 0.0
C281 C 0.8688 0.84457 0.44093 0.0
O282 O 0.73312 0.95977 0.46056 0.0
C283 C 0.95134 0.94072 0.46897 0.0
O284 O 0.95035 0.89161 0.47233 0.0
H285 H 0.77074 0.93012 0.42766 0.0
H286 H 0.89766 0.82553 0.44953 0.0
N287 N 0.80908 0.87072 0.47641 0.0
N288 N 0.80785 0.83338 0.49884 0.0
C289 C 0.81632 0.87771 0.49118 0.0
C290 C 0.7949 0.82051 0.47471 0.0
C291 C 0.79432 0.79738 0.48849 0.0
C292 C 0.67719 0.93651 0.46272 0.0
O293 O 0.67744 0.88659 0.4648 0.0
H294 H 0.8294 0.91422 0.49615 0.0
H295 H 0.78529 0.80199 0.46416 0.0
O296 O 0.89736 0.96193 0.46427 0.0
H297 H 0.89435 0.80058 0.4209 0.0
H298 H 0.78449 0.75719 0.49071 0.0
Cu299 Cu 0.1358 0.26565 0.69335 0.0
N300 N 0.08155 0.32325 0.69146 0.0
N301 N 0.05308 0.40601 0.69146 0.0
C302 C 0.09847 0.37068 0.69593 0.0
C303 C 1.00529 0.37946 0.68401 0.0
C304 C 1.02323 0.32831 0.68397 0.0
O305 O 0.19197 0.27492 0.71085 0.0
C306 C 0.21162 0.29582 0.66797 0.0
O307 O 0.21724 0.33994 0.67493 0.0
H308 H 0.1444 0.37909 0.70195 0.0
H309 H 0.99723 0.29736 0.67837 0.0
N310 N 0.08231 0.20774 0.69613 0.0
N311 N 0.0529 0.12515 0.69786 0.0
C312 C 0.10235 0.15887 0.69434 0.0
C313 C 1.01796 0.20522 0.70089 0.0
C314 C 0.99962 0.15429 0.70197 0.0
C315 C 0.16009 0.28111 0.72306 0.0
O316 O 0.09376 0.27992 0.72286 0.0
H317 H 0.15241 0.14856 0.69055 0.0
H318 H 0.98708 0.23806 0.70369 0.0
O319 O 0.18424 0.25802 0.67468 0.0
H320 H 0.96234 0.39604 0.67834 0.0
H321 H 0.95142 0.14001 0.70589 0.0
Cu322 Cu 0.76322 0.62148 0.96053 0.0
N323 N 0.7584 0.65765 0.94263 0.0
N324 N 0.76491 0.67838 0.91851 0.0
C325 C 0.78519 0.64548 0.92929 0.0
C326 C 0.72369 0.71216 0.92538 0.0
C327 C 0.71942 0.69905 0.94017 0.0
O328 O 0.84671 0.58106 0.96092 0.0
C329 C 0.65739 0.55423 0.97199 0.0
O330 O 0.69615 0.54589 0.98357 0.0
H331 H 0.81772 0.61268 0.9275 0.0
H332 H 0.68817 0.71736 0.9485 0.0
N333 N 0.76529 0.66934 0.97616 0.0
N334 N 0.76013 0.7055 0.99871 0.0
C335 C 0.75385 0.66165 0.9908 0.0
C336 C 0.78019 0.71964 0.97486 0.0
C337 C 0.77674 0.74203 0.98869 0.0
C338 C 0.9019 0.6054 0.96299 0.0
O339 O 0.89991 0.65552 0.96448 0.0
H340 H 0.74026 0.62501 0.99558 0.0
H341 H 0.79341 0.73874 0.96456 0.0
O342 O 0.67918 0.58188 0.9613 0.0
H343 H 0.69617 0.74286 0.91999 0.0
H344 H 0.78622 0.78204 0.99117 0.0
Cu345 Cu 0.47064 0.26498 0.19532 0.0
N346 N 0.52393 0.20614 0.19566 0.0
N347 N 0.54925 0.12274 0.19653 0.0
C348 C 0.49972 0.15814 0.19718 0.0
C349 C 0.60694 0.14951 0.19447 0.0
C350 C 0.59106 0.20105 0.19382 0.0
O351 O 0.40708 0.25837 0.21176 0.0
C352 C 0.38638 0.29625 0.17035 0.0
O353 O 0.36029 0.33232 0.17877 0.0
H354 H 0.44668 0.14945 0.19872 0.0
H355 H 0.62582 0.23235 0.19181 0.0
N356 N 0.52323 0.32393 0.19831 0.0
N357 N 0.55056 0.4066 0.20094 0.0
C358 C 0.50649 0.37285 0.19503 0.0
C359 C 0.58015 0.32722 0.20645 0.0
C360 C 0.59686 0.37817 0.20817 0.0
C361 C 0.43403 0.25216 0.22451 0.0
O362 O 0.50019 0.25171 0.22544 0.0
H363 H 0.46071 0.3838 0.18933 0.0
H364 H 0.60567 0.29503 0.21155 0.0
O365 O 0.42992 0.26556 0.17571 0.0
H366 H 0.65665 0.13292 0.19308 0.0
H367 H 0.63822 0.39334 0.21469 0.0
C368 C 0.98583 1.01203 0.31782 0.0
C369 C 0.9541 0.9995 0.3043 0.0
H370 H 0.07606 0.03881 0.32858 0.0
C371 C 0.99154 1.00408 0.29103 0.0
H372 H 0.95866 1.00867 0.32826 0.0
C373 C 0.05869 0.0206 0.29124 0.0
C374 C 0.09052 0.03342 0.30469 0.0
H375 H 0.96918 0.99451 0.2804 0.0
H376 H 0.08542 0.02376 0.28074 0.0
C377 C 0.05326 0.029 0.31801 0.0
C378 C 0.0521 0.54743 0.58842 0.0
C379 C 0.0531 0.57553 0.57506 0.0
H380 H 0.04851 0.47237 0.59851 0.0
C381 C 0.04982 0.54927 0.56146 0.0
H382 H 0.05467 0.56714 0.599 0.0
C383 C 0.04453 0.49582 0.56119 0.0
C384 C 0.04427 0.46757 0.57451 0.0
H385 H 0.05005 0.57031 0.55105 0.0
H386 H 0.04137 0.47634 0.55058 0.0
C387 C 0.04885 0.49364 0.58813 0.0
C388 C 0.59108 0.51315 0.79198 0.0
C389 C 0.62473 0.523 0.80544 0.0
H390 H 0.49975 0.49019 0.78127 0.0
C391 C 0.58887 0.51668 0.81887 0.0
H392 H 0.6167 0.51793 0.7814 0.0
C393 C 0.52112 0.50052 0.8188 0.0
C394 C 0.48761 0.49085 0.80528 0.0
H395 H 0.6131 0.52422 0.82944 0.0
H396 H 0.4951 0.49551 0.82932 0.0
C397 C 0.52354 0.49755 0.7919 0.0
C398 C 0.53538 0.04994 0.06135 0.0
C399 C 0.52843 0.07791 0.07461 0.0
H400 H 0.53363 0.97564 0.05102 0.0
C401 C 0.5157 0.05137 0.08796 0.0
H402 H 0.54489 0.06968 0.05093 0.0
C403 C 0.51116 0.99757 0.08807 0.0
C404 C 0.51696 0.96981 0.07475 0.0
H405 H 0.51045 0.07227 0.0983 0.0
H406 H 0.50205 0.97761 0.09847 0.0
C407 C 0.52869 0.99645 0.06139 0.0
C408 C 0.0443 0.50896 0.95754 0.0
C409 C 0.09687 0.53197 0.96571 0.0
H410 H 0.94058 0.51339 0.95054 0.0
C411 C 0.08412 0.57847 0.97307 0.0
H412 H 0.05242 0.47284 0.95186 0.0
C413 C 1.02079 0.60188 0.97212 0.0
C414 C 0.96798 0.57883 0.96408 0.0
H415 H 0.12338 0.5971 0.97947 0.0
H416 H 1.013 0.63799 0.97784 0.0
C417 C 0.98016 0.53188 0.95688 0.0
C418 C 0.53272 0.48992 0.18846 0.0
C419 C 0.54356 0.46139 0.20151 0.0
H420 H 0.52013 0.56518 0.17893 0.0
C421 C 0.54734 0.48692 0.21522 0.0
H422 H 0.52974 0.47074 0.1778 0.0
C423 C 0.53996 0.54017 0.2159 0.0
C424 C 0.53048 0.56891 0.20285 0.0
H425 H 0.55519 0.46547 0.22541 0.0
H426 H 0.54309 0.55915 0.22659 0.0
C427 C 0.52737 0.54352 0.1891 0.0
C428 C 0.4998 0.97146 0.47458 0.0
C429 C 0.48661 1.01534 0.46598 0.0
H430 H 0.56994 0.91195 0.48006 0.0
C431 C 0.53697 0.0337 0.45624 0.0
H432 H 0.46202 0.95651 0.48219 0.0
C433 C 0.59984 1.00896 0.45534 0.0
C434 C 0.61245 0.96462 0.46383 0.0
H435 H 0.52828 0.06776 0.44958 0.0
H436 H 0.63807 0.02395 0.44785 0.0
C437 C 0.56159 0.94597 0.47335 0.0
C438 C 0.99835 0.03953 0.69739 0.0
C439 C 0.05714 0.06981 0.69784 0.0
H440 H 0.956 0.96415 0.69766 0.0
C441 C 0.12019 0.04508 0.69845 0.0
H442 H 0.94895 0.05707 0.69675 0.0
C443 C 0.12432 0.99159 0.69869 0.0
C444 C 0.06555 0.9613 0.69844 0.0
H445 H 0.16662 0.06688 0.69897 0.0
H446 H 0.1738 0.97408 0.69905 0.0
C447 C 1.00248 0.98599 0.69772 0.0
C448 C 0.55742 0.02182 0.28955 0.0
C449 C 0.58994 1.00871 0.30292 0.0
H450 H 0.46608 0.04644 0.27899 0.0
C451 C 0.55281 1.01127 0.31628 0.0
H452 H 0.58425 0.01994 0.27904 0.0
C453 C 0.48504 0.02703 0.31628 0.0
C454 C 0.45236 0.03957 0.30287 0.0
H455 H 0.57625 1.00137 0.32678 0.0
H456 H 0.45812 0.02905 0.32677 0.0
C457 C 0.48939 0.0366 0.28951 0.0
C458 C 0.09882 0.99707 0.58705 0.0
C459 C 0.04919 0.9658 0.58048 0.0
H460 H 0.13179 0.07346 0.59197 0.0
C461 C 0.99416 0.98969 0.57336 0.0
H462 H 0.14143 0.98048 0.59281 0.0
C463 C 0.9883 0.04316 0.57309 0.0
C464 C 1.03774 0.0741 0.57972 0.0
H465 H 0.95552 0.96733 0.56788 0.0
H466 H 0.94553 0.06037 0.5675 0.0
C467 C 0.09329 0.05053 0.58661 0.0
C468 C 0.08866 0.49868 0.81718 0.0
C469 C 0.1253 0.49288 0.80385 0.0
H470 H 0.9945 0.51927 0.82743 0.0
C471 C 0.09237 0.50298 0.7903 0.0
H472 H 0.11235 0.49109 0.82781 0.0
C473 C 1.02454 0.5182 0.79007 0.0
C474 C 0.98801 0.52445 0.80339 0.0
H475 H 0.11874 0.49852 0.77981 0.0
H476 H 1.00103 0.52575 0.77941 0.0
C477 C 1.02101 0.51469 0.81696 0.0
C478 C 0.53013 0.55049 0.09943 0.0
C479 C 0.51845 0.57842 0.0863 0.0
H480 H 0.5482 0.47667 0.10926 0.0
C481 C 0.5155 0.55208 0.07268 0.0
H482 H 0.53333 0.57006 0.11003 0.0
C483 C 0.5227 0.49848 0.07228 0.0
C484 C 0.53523 0.47073 0.08542 0.0
H485 H 0.50667 0.57296 0.06244 0.0
H486 H 0.51944 0.47869 0.06172 0.0
C487 C 0.53923 0.49729 0.09898 0.0
C488 C 0.48064 0.51915 0.95878 0.0
C489 C 0.44846 0.50561 0.9722 0.0
H490 H 0.57162 0.5454 0.94817 0.0
C491 C 0.48612 0.50711 0.98546 0.0
H492 H 0.45319 0.51822 0.94837 0.0
C493 C 0.55426 0.52157 0.9853 0.0
C494 C 0.58626 0.53579 0.97193 0.0
H495 H 0.46321 0.49644 0.99598 0.0
H496 H 0.58153 0.52244 0.99574 0.0
C497 C 0.54856 0.53458 0.95867 0.0
C498 C 0.58551 0.98383 0.2039 0.0
C499 C 0.5286 0.95956 0.19765 0.0
H500 H 0.63659 0.05469 0.20839 0.0
C501 C 0.47759 0.9905 0.19146 0.0
H502 H 0.62525 0.96183 0.20911 0.0
C503 C 0.48391 0.04399 0.1913 0.0
C504 C 0.54163 0.06782 0.19718 0.0
H505 H 0.43338 0.9736 0.1864 0.0
H506 H 0.44444 0.06665 0.18619 0.0
C507 C 0.59215 0.03723 0.20355 0.0
C508 C 0.06778 0.95134 0.47922 0.0
C509 C 1.01603 0.96934 0.46988 0.0
H510 H 0.1694 0.96073 0.48684 0.0
C511 C 1.02856 1.01257 0.46089 0.0
H512 H 0.05971 0.91815 0.4863 0.0
C513 C 0.09219 0.0364 0.46096 0.0
C514 C 0.14402 1.01812 0.47027 0.0
H515 H 0.98985 0.02711 0.4535 0.0
H516 H 0.1007 0.06926 0.45378 0.0
C517 C 0.13071 0.97574 0.47953 0.0
C518 C 1.0008 0.49199 0.69236 0.0
C519 C 0.05861 0.46091 0.69291 0.0
H520 H 0.96097 0.56806 0.69228 0.0
C521 C 0.12221 0.48441 0.69448 0.0
H522 H 0.95109 0.4751 0.6913 0.0
C523 C 0.12791 0.53774 0.69524 0.0
C524 C 0.07021 0.56887 0.69444 0.0
H525 H 0.16797 0.46179 0.69474 0.0
H526 H 0.17759 0.55459 0.6964 0.0
C527 C 1.0065 0.54535 0.69311 0.0
C528 C 0.25978 0.22274 0.3803 0.0
C529 C 0.28227 0.1808 0.37178 0.0
H530 H 0.24756 0.25534 0.40196 0.0
C531 C 0.31068 0.13844 0.37922 0.0
H532 H 0.2365 0.25563 0.37503 0.0
C533 C 0.31691 0.13826 0.39475 0.0
C534 C 0.295 0.18046 0.40322 0.0
H535 H 0.3294 0.10575 0.37306 0.0
H536 H 0.34017 0.10544 0.40006 0.0
C537 C 0.26613 0.2226 0.39579 0.0
C538 C 0.90504 0.74742 0.6312 0.0
C539 C 0.88445 0.7919 0.62359 0.0
H540 H 0.92603 0.71247 0.65224 0.0
C541 C 0.86002 0.83378 0.63189 0.0
H542 H 0.92366 0.7143 0.62519 0.0
C543 C 0.86101 0.83261 0.64748 0.0
C544 C 0.88695 0.78968 0.65503 0.0
H545 H 0.8433 0.86852 0.62638 0.0
H546 H 0.84535 0.86647 0.65355 0.0
C547 C 0.90654 0.74642 0.64674 0.0
C548 C 0.31852 0.3124 0.88215 0.0
C549 C 0.29526 0.35338 0.87332 0.0
H550 H 0.33231 0.2821 0.90406 0.0
C551 C 0.26715 0.39643 0.88045 0.0
H552 H 0.3416 0.27905 0.87711 0.0
C553 C 0.26187 0.39819 0.89598 0.0
C554 C 0.28452 0.35694 0.90479 0.0
H555 H 0.24788 0.4284 0.87404 0.0
H556 H 0.23874 0.43148 0.90106 0.0
C557 C 0.31317 0.31414 0.89766 0.0
C558 C 0.68573 0.81082 0.12831 0.0
C559 C 0.68219 0.7603 0.12288 0.0
H560 H 0.68698 0.85957 0.14744 0.0
C561 C 0.68572 0.71928 0.13307 0.0
H562 H 0.68364 0.84328 0.12076 0.0
C563 C 0.68708 0.7286 0.14839 0.0
C564 C 0.68556 0.77914 0.15385 0.0
H565 H 0.68345 0.67986 0.12928 0.0
H566 H 0.68604 0.69614 0.15595 0.0
C567 C 0.68771 0.82014 0.14363 0.0
C568 C 0.8037 0.62764 0.88027 0.0
C569 C 0.80007 0.67263 0.87161 0.0
H570 H 0.79553 0.59411 0.90201 0.0
C571 C 0.78697 0.71954 0.87876 0.0
H572 H 0.81451 0.59097 0.87516 0.0
C573 C 0.77679 0.72138 0.89413 0.0
C574 C 0.77941 0.6764 0.90278 0.0
H575 H 0.78323 0.75488 0.87247 0.0
H576 H 0.76673 0.7582 0.89923 0.0
C577 C 0.79367 0.62953 0.8957 0.0
C578 C 0.34888 0.33852 0.14659 0.0
C579 C 0.3733 0.29499 0.15411 0.0
H580 H 0.33273 0.37513 0.1255 0.0
C581 C 0.39222 0.2517 0.14577 0.0
H582 H 0.33381 0.37245 0.1527 0.0
C583 C 0.39116 0.25304 0.13023 0.0
C584 C 0.37174 0.29792 0.12265 0.0
H585 H 0.41054 0.21732 0.15124 0.0
H586 H 0.40899 0.21972 0.1242 0.0
C587 C 0.34837 0.34004 0.13099 0.0
C588 C 0.79563 0.82037 0.38002 0.0
C589 C 0.78439 0.86683 0.37245 0.0
H590 H 0.81742 0.78358 0.40076 0.0
C591 C 0.78683 0.91307 0.38048 0.0
H592 H 0.79464 0.78418 0.37413 0.0
C593 C 0.79971 0.91271 0.39581 0.0
C594 C 0.81134 0.86616 0.40333 0.0
H595 H 0.77779 0.9494 0.37497 0.0
H596 H 0.80162 0.94885 0.40172 0.0
C597 C 0.80923 0.82006 0.39526 0.0
C598 C 0.20199 0.24965 0.64364 0.0
C599 C 0.2225 0.29332 0.65163 0.0
H600 H 0.1799 0.21722 0.62236 0.0
C601 C 0.2451 0.33667 0.64365 0.0
H602 H 0.18464 0.21546 0.64939 0.0
C603 C 0.24274 0.33755 0.62805 0.0
C604 C 0.21716 0.29526 0.62017 0.0
H605 H 0.26152 0.37089 0.64944 0.0
H606 H 0.25727 0.37238 0.62225 0.0
C607 C 0.19904 0.25072 0.62812 0.0
C608 C 0.28689 0.22172 0.25032 0.0
C609 C 0.32004 0.21619 0.26409 0.0
H610 H 0.29671 0.23742 0.22693 0.0
C611 C 0.38977 0.22556 0.26476 0.0
H612 H 0.23329 0.21439 0.24938 0.0
C613 C 0.42593 0.23848 0.25194 0.0
C614 C 0.39337 0.24242 0.23809 0.0
H615 H 0.41667 0.22262 0.27519 0.0
H616 H 0.47984 0.24465 0.25291 0.0
C617 C 0.32323 0.23471 0.23743 0.0
C618 C 0.84073 0.77792 0.51992 0.0
C619 C 0.81635 0.82516 0.51459 0.0
H620 H 0.87463 0.73451 0.53869 0.0
C621 C 0.80254 0.86451 0.52485 0.0
H622 H 0.85238 0.74697 0.51232 0.0
C623 C 0.81477 0.85721 0.54006 0.0
C624 C 0.84191 0.81065 0.54526 0.0
H625 H 0.78292 0.90108 0.52109 0.0
H626 H 0.80551 0.88875 0.54763 0.0
C627 C 0.85366 0.77083 0.53505 0.0
C628 C 0.15792 0.29989 0.75032 0.0
C629 C 0.19554 0.29173 0.73723 0.0
H630 H 0.15941 0.3179 0.77351 0.0
C631 C 0.26629 0.29502 0.73789 0.0
H632 H 0.10331 0.29743 0.75026 0.0
C633 C 0.29852 0.30695 0.75132 0.0
C634 C 0.26065 0.31601 0.76434 0.0
H635 H 0.29671 0.28902 0.72801 0.0
H636 H 0.35298 0.31032 0.75139 0.0
C637 C 0.19003 0.31192 0.76368 0.0
C638 C 0.75755 0.67241 1.0246 0.0
C639 C 0.74739 0.71266 1.01438 0.0
H640 H 0.7483 0.64676 0.04722 0.0
C641 C 0.72245 0.75978 1.01962 0.0
H642 H 0.77751 0.63589 1.02093 0.0
C643 C 0.70577 0.76601 0.03461 0.0
C644 C 0.71413 0.72541 0.04477 0.0
H645 H 0.71349 0.79139 1.01204 0.0
H646 H 0.68491 0.80243 0.03816 0.0
C647 C 0.74144 0.67882 0.03968 0.0
C648 C 0.41588 0.30859 1.02377 0.0
C649 C 0.38478 0.30718 0.03785 0.0
H650 H 0.40519 0.32321 1.00051 0.0
C651 C 0.31579 0.31903 0.03895 0.0
H652 H 0.46884 0.29917 1.02248 0.0
C653 C 0.27923 0.33345 1.02629 0.0
C654 C 0.31081 0.33609 1.01223 0.0
H655 H 0.29038 0.31838 0.04964 0.0
H656 H 0.22676 0.34393 1.02765 0.0
C657 C 0.37937 0.32267 1.01113 0.0
C658 C 0.77163 0.86911 0.25161 0.0
C659 C 0.76809 0.82907 0.26209 0.0
H660 H 0.75984 0.89153 0.22879 0.0
C661 C 0.75287 0.77921 0.25721 0.0
H662 H 0.78409 0.90776 0.25509 0.0
C663 C 0.73843 0.76995 0.24224 0.0
C664 C 0.7404 0.81019 0.23179 0.0
H665 H 0.74969 0.74776 0.26509 0.0
H666 H 0.72429 0.73148 0.23888 0.0
C667 C 0.7586 0.85967 0.23656 0.0
C668 C 0.29847 0.2153 0.52464 0.0
C669 C 0.26502 0.20604 0.51108 0.0
H670 H 0.2891 0.23652 0.54765 0.0
C671 C 0.19492 0.21362 0.51041 0.0
H672 H 0.35237 0.20949 0.52559 0.0
C673 C 0.15888 0.22888 0.523 0.0
C674 C 0.19187 0.23705 0.53664 0.0
H675 H 0.16764 0.20789 0.50013 0.0
H676 H 0.10477 0.23381 0.52202 0.0
C677 C 0.26223 0.23065 0.5373 0.0
C678 C 0.85198 0.72907 0.73842 0.0
C679 C 0.92208 0.7373 0.73875 0.0
H680 H 0.7638 0.70641 0.75062 0.0
C681 C 0.95655 0.73119 0.75231 0.0
H682 H 0.82399 0.73339 0.72815 0.0
C683 C 0.92217 0.71586 0.76514 0.0
C684 C 0.85241 0.70638 0.76478 0.0
H685 H 1.01052 0.73751 0.753 0.0
H686 H 0.95037 0.71133 0.77536 0.0
C687 C 0.81747 0.71383 0.75132 0.0
loop_
_geom_bond_atom_site_label_1
_geom_bond_atom_site_label_2
_geom_bond_distance
_geom_bond_site_symmetry_2
_ccdc_geom_bond_type
Cu0 N1 1.999 . S
Cu0 O6 1.974 . S
Cu0 N11 1.985 . S
Cu0 O20 1.959 . S
N1 Cu0 1.999 . S
N1 C3 1.263 . S
N1 C5 1.389 . S
N2 C3 1.358 . S
N2 C4 1.400 . S
C3 N1 1.263 . S
C3 N2 1.358 . S
C3 H9 0.930 . S
C4 N2 1.400 . S
C4 C5 1.351 . S
C4 H21 0.930 . S
C5 N1 1.389 . S
C5 C4 1.351 . S
C5 H10 0.930 . S
O6 Cu0 1.974 . S
O6 C16 1.282 . S
C7 O8 1.261 . S
C7 O20 1.251 . S
O8 C7 1.261 . S
H9 C3 0.930 . S
H10 C5 0.930 . S
N11 Cu0 1.985 . S
N11 C13 1.335 . S
N11 C14 1.390 . S
N12 C13 1.345 . S
N12 C15 1.336 . S
C13 N11 1.335 . S
C13 N12 1.345 . S
C13 H18 0.930 . S
C14 N11 1.390 . S
C14 C15 1.346 . S
C14 H19 0.930 . S
C15 N12 1.336 . S
C15 C14 1.346 . S
C15 H22 0.929 . S
C16 O6 1.282 . S
C16 O17 1.216 . S
O17 C16 1.216 . S
H18 C13 0.930 . S
H19 C14 0.930 . S
O20 Cu0 1.959 . S
O20 C7 1.251 . S
H21 C4 0.930 . S
H22 C15 0.929 . S
Cu23 N24 1.999 . S
Cu23 O29 1.974 . S
Cu23 N34 1.985 . S
Cu23 O43 1.959 . S
N24 Cu23 1.999 . S
N24 C26 1.263 . S
N24 C28 1.389 1_655 S
N25 C26 1.358 . S
N25 C27 1.400 1_655 S
C26 N24 1.263 . S
C26 N25 1.358 . S
C26 H32 0.930 . S
C27 N25 1.400 1_455 S
C27 C28 1.351 . S
C27 H44 0.930 . S
C28 N24 1.389 1_455 S
C28 C27 1.351 . S
C28 H33 0.930 . S
O29 Cu23 1.974 . S
O29 C39 1.282 . S
C30 O31 1.261 . S
C30 O43 1.251 . S
O31 C30 1.261 . S
H32 C26 0.930 . S
H33 C28 0.930 . S
N34 Cu23 1.985 . S
N34 C36 1.335 . S
N34 C37 1.390 . S
N35 C36 1.345 . S
N35 C38 1.336 . S
C36 N34 1.335 . S
C36 N35 1.345 . S
C36 H41 0.930 . S
C37 N34 1.390 . S
C37 C38 1.346 . S
C37 H42 0.930 . S
C38 N35 1.336 . S
C38 C37 1.346 . S
C38 H45 0.929 . S
C39 O29 1.282 . S
C39 O40 1.216 . S
O40 C39 1.216 . S
H41 C36 0.930 . S
H42 C37 0.930 . S
O43 Cu23 1.959 . S
O43 C30 1.251 . S
H44 C27 0.930 . S
H45 C38 0.929 . S
Cu46 N47 1.999 . S
Cu46 O52 1.974 . S
Cu46 N57 1.985 . S
Cu46 O66 1.959 . S
N47 Cu46 1.999 . S
N47 C49 1.263 . S
N47 C51 1.389 . S
N48 C49 1.358 . S
N48 C50 1.400 . S
C49 N47 1.263 . S
C49 N48 1.358 . S
C49 H55 0.930 . S
C50 N48 1.400 . S
C50 C51 1.351 . S
C50 H67 0.930 . S
C51 N47 1.389 . S
C51 C50 1.351 . S
C51 H56 0.930 . S
O52 Cu46 1.974 . S
O52 C62 1.282 . S
C53 O54 1.261 . S
C53 O66 1.251 . S
O54 C53 1.261 . S
H55 C49 0.930 . S
H56 C51 0.930 . S
N57 Cu46 1.985 . S
N57 C59 1.335 . S
N57 C60 1.390 . S
N58 C59 1.345 . S
N58 C61 1.336 . S
C59 N57 1.335 . S
C59 N58 1.345 . S
C59 H64 0.930 . S
C60 N57 1.390 . S
C60 C61 1.346 . S
C60 H65 0.930 . S
C61 N58 1.336 . S
C61 C60 1.346 . S
C61 H68 0.929 . S
C62 O52 1.282 . S
C62 O63 1.216 . S
O63 C62 1.216 . S
H64 C59 0.930 . S
H65 C60 0.930 . S
O66 Cu46 1.959 . S
O66 C53 1.251 . S
H67 C50 0.930 . S
H68 C61 0.929 . S
Cu69 N70 1.999 . S
Cu69 O75 1.974 . S
Cu69 N80 1.985 . S
Cu69 O89 1.959 . S
N70 Cu69 1.999 . S
N70 C72 1.263 . S
N70 C74 1.389 . S
N71 C72 1.358 . S
N71 C73 1.400 . S
C72 N70 1.263 . S
C72 N71 1.358 . S
C72 H78 0.930 . S
C73 N71 1.400 . S
C73 C74 1.351 . S
C73 H90 0.930 . S
C74 N70 1.389 . S
C74 C73 1.351 . S
C74 H79 0.930 . S
O75 Cu69 1.974 . S
O75 C85 1.282 . S
C76 O77 1.261 . S
C76 O89 1.251 . S
O77 C76 1.261 . S
H78 C72 0.930 . S
H79 C74 0.930 . S
N80 Cu69 1.985 . S
N80 C82 1.335 . S
N80 C83 1.390 . S
N81 C82 1.345 . S
N81 C84 1.336 . S
C82 N80 1.335 . S
C82 N81 1.345 . S
C82 H87 0.930 . S
C83 N80 1.390 . S
C83 C84 1.346 . S
C83 H88 0.930 . S
C84 N81 1.336 . S
C84 C83 1.346 . S
C84 H91 0.929 . S
C85 O75 1.282 . S
C85 O86 1.216 . S
O86 C85 1.216 . S
H87 C82 0.930 . S
H88 C83 0.930 . S
O89 Cu69 1.959 . S
O89 C76 1.251 . S
H90 C73 0.930 . S
H91 C84 0.929 . S
Cu92 N93 1.999 . S
Cu92 O98 1.974 . S
Cu92 N103 1.985 . S
Cu92 O112 1.959 . S
N93 Cu92 1.999 . S
N93 C95 1.263 . S
N93 C97 1.389 . S
N94 C95 1.358 . S
N94 C96 1.400 . S
C95 N93 1.263 . S
C95 N94 1.358 . S
C95 H101 0.930 . S
C96 N94 1.400 . S
C96 C97 1.351 . S
C96 H113 0.930 . S
C97 N93 1.389 . S
C97 C96 1.351 . S
C97 H102 0.930 . S
O98 Cu92 1.974 . S
O98 C108 1.282 . S
C99 O100 1.261 . S
C99 O112 1.251 . S
O100 C99 1.261 . S
H101 C95 0.930 . S
H102 C97 0.930 . S
N103 Cu92 1.985 . S
N103 C105 1.335 . S
N103 C106 1.390 . S
N104 C105 1.345 . S
N104 C107 1.336 . S
C105 N103 1.335 . S
C105 N104 1.345 . S
C105 H110 0.930 . S
C106 N103 1.390 . S
C106 C107 1.346 . S
C106 H111 0.930 . S
C107 N104 1.336 . S
C107 C106 1.346 . S
C107 H114 0.929 . S
C108 O98 1.282 . S
C108 O109 1.216 . S
O109 C108 1.216 . S
H110 C105 0.930 . S
H111 C106 0.930 . S
O112 Cu92 1.959 . S
O112 C99 1.251 . S
H113 C96 0.930 . S
H114 C107 0.929 . S
Cu115 N116 1.999 . S
Cu115 O121 1.974 . S
Cu115 N126 1.985 . S
Cu115 O135 1.959 . S
N116 Cu115 1.999 . S
N116 C118 1.263 . S
N116 C120 1.389 . S
N117 C118 1.358 . S
N117 C119 1.400 . S
C118 N116 1.263 . S
C118 N117 1.358 . S
C118 H124 0.930 . S
C119 N117 1.400 . S
C119 C120 1.351 . S
C119 H136 0.930 . S
C120 N116 1.389 . S
C120 C119 1.351 . S
C120 H125 0.930 . S
O121 Cu115 1.974 . S
O121 C131 1.282 . S
C122 O123 1.261 . S
C122 O135 1.251 . S
O123 C122 1.261 . S
H124 C118 0.930 . S
H125 C120 0.930 . S
N126 Cu115 1.985 . S
N126 C128 1.335 . S
N126 C129 1.390 . S
N127 C128 1.345 . S
N127 C130 1.336 . S
C128 N126 1.335 . S
C128 N127 1.345 . S
C128 H133 0.930 . S
C129 N126 1.390 . S
C129 C130 1.346 . S
C129 H134 0.930 . S
C130 N127 1.336 . S
C130 C129 1.346 . S
C130 H137 0.929 . S
C131 O121 1.282 . S
C131 O132 1.216 . S
O132 C131 1.216 . S
H133 C128 0.930 . S
H134 C129 0.930 . S
O135 Cu115 1.959 . S
O135 C122 1.251 . S
H136 C119 0.930 . S
H137 C130 0.929 . S
Cu138 N139 1.999 . S
Cu138 O144 1.974 . S
Cu138 N149 1.985 . S
Cu138 O158 1.959 . S
N139 Cu138 1.999 . S
N139 C141 1.263 . S
N139 C143 1.389 . S
N140 C141 1.358 . S
N140 C142 1.400 . S
C141 N139 1.263 . S
C141 N140 1.358 . S
C141 H147 0.930 . S
C142 N140 1.400 . S
C142 C143 1.351 . S
C142 H159 0.930 . S
C143 N139 1.389 . S
C143 C142 1.351 . S
C143 H148 0.930 . S
O144 Cu138 1.974 . S
O144 C154 1.282 . S
C145 O146 1.261 . S
C145 O158 1.251 . S
O146 C145 1.261 . S
H147 C141 0.930 . S
H148 C143 0.930 . S
N149 Cu138 1.985 . S
N149 C151 1.335 . S
N149 C152 1.390 . S
N150 C151 1.345 . S
N150 C153 1.336 . S
C151 N149 1.335 . S
C151 N150 1.345 . S
C151 H156 0.930 . S
C152 N149 1.390 . S
C152 C153 1.346 . S
C152 H157 0.930 . S
C153 N150 1.336 . S
C153 C152 1.346 . S
C153 H160 0.929 . S
C154 O144 1.282 . S
C154 O155 1.216 . S
O155 C154 1.216 . S
H156 C151 0.930 . S
H157 C152 0.930 . S
O158 Cu138 1.959 . S
O158 C145 1.251 . S
H159 C142 0.930 . S
H160 C153 0.929 . S
Cu161 N162 1.999 . S
Cu161 O167 1.974 . S
Cu161 N172 1.985 . S
Cu161 O181 1.959 . S
N162 Cu161 1.999 . S
N162 C164 1.263 . S
N162 C166 1.389 1_655 S
N163 C164 1.358 . S
N163 C165 1.400 1_655 S
C164 N162 1.263 . S
C164 N163 1.358 . S
C164 H170 0.930 . S
C165 N163 1.400 1_455 S
C165 C166 1.351 . S
C165 H182 0.930 . S
C166 N162 1.389 1_455 S
C166 C165 1.351 . S
C166 H171 0.930 . S
O167 Cu161 1.974 . S
O167 C177 1.282 . S
C168 O169 1.261 . S
C168 O181 1.251 . S
O169 C168 1.261 . S
H170 C164 0.930 . S
H171 C166 0.930 . S
N172 Cu161 1.985 . S
N172 C174 1.335 . S
N172 C175 1.390 . S
N173 C174 1.345 . S
N173 C176 1.336 . S
C174 N172 1.335 . S
C174 N173 1.345 . S
C174 H179 0.930 . S
C175 N172 1.390 . S
C175 C176 1.346 . S
C175 H180 0.930 . S
C176 N173 1.336 . S
C176 C175 1.346 . S
C176 H183 0.929 . S
C177 O167 1.282 . S
C177 O178 1.216 . S
O178 C177 1.216 . S
H179 C174 0.930 . S
H180 C175 0.930 . S
O181 Cu161 1.959 . S
O181 C168 1.251 . S
H182 C165 0.930 . S
H183 C176 0.929 . S
Cu184 N185 1.999 . S
Cu184 O190 1.974 . S
Cu184 N195 1.985 . S
Cu184 O204 1.959 . S
N185 Cu184 1.999 . S
N185 C187 1.263 . S
N185 C189 1.389 . S
N186 C187 1.358 . S
N186 C188 1.400 . S
C187 N185 1.263 . S
C187 N186 1.358 . S
C187 H193 0.930 . S
C188 N186 1.400 . S
C188 C189 1.351 . S
C188 H205 0.930 . S
C189 N185 1.389 . S
C189 C188 1.351 . S
C189 H194 0.930 . S
O190 Cu184 1.974 . S
O190 C200 1.282 . S
C191 O192 1.261 . S
C191 O204 1.251 . S
O192 C191 1.261 . S
H193 C187 0.930 . S
H194 C189 0.930 . S
N195 Cu184 1.985 . S
N195 C197 1.335 . S
N195 C198 1.390 . S
N196 C197 1.345 . S
N196 C199 1.336 . S
C197 N195 1.335 . S
C197 N196 1.345 . S
C197 H202 0.930 . S
C198 N195 1.390 . S
C198 C199 1.346 . S
C198 H203 0.930 . S
C199 N196 1.336 . S
C199 C198 1.346 . S
C199 H206 0.929 . S
C200 O190 1.282 . S
C200 O201 1.216 . S
O201 C200 1.216 . S
H202 C197 0.930 . S
H203 C198 0.930 . S
O204 Cu184 1.959 . S
O204 C191 1.251 . S
H205 C188 0.930 . S
H206 C199 0.929 . S
Cu207 N208 1.999 . S
Cu207 O213 1.974 . S
Cu207 N218 1.985 . S
Cu207 O227 1.959 . S
N208 Cu207 1.999 . S
N208 C210 1.263 . S
N208 C212 1.389 . S
N209 C210 1.358 . S
N209 C211 1.400 . S
C210 N208 1.263 . S
C210 N209 1.358 . S
C210 H216 0.930 . S
C211 N209 1.400 . S
C211 C212 1.351 . S
C211 H228 0.930 . S
C212 N208 1.389 . S
C212 C211 1.351 . S
C212 H217 0.930 . S
O213 Cu207 1.974 . S
O213 C223 1.282 . S
C214 O215 1.261 . S
C214 O227 1.251 . S
O215 C214 1.261 . S
H216 C210 0.930 . S
H217 C212 0.930 . S
N218 Cu207 1.985 . S
N218 C220 1.335 . S
N218 C221 1.390 . S
N219 C220 1.345 . S
N219 C222 1.336 . S
C220 N218 1.335 . S
C220 N219 1.345 . S
C220 H225 0.930 . S
C221 N218 1.390 . S
C221 C222 1.346 . S
C221 H226 0.930 . S
C222 N219 1.336 . S
C222 C221 1.346 . S
C222 H229 0.929 . S
C223 O213 1.282 . S
C223 O224 1.216 . S
O224 C223 1.216 . S
H225 C220 0.930 . S
H226 C221 0.930 . S
O227 Cu207 1.959 . S
O227 C214 1.251 . S
H228 C211 0.930 . S
H229 C222 0.929 . S
Cu230 N231 1.999 . S
Cu230 O236 1.974 . S
Cu230 N241 1.985 . S
Cu230 O250 1.959 . S
N231 Cu230 1.999 . S
N231 C233 1.263 . S
N231 C235 1.389 . S
N232 C233 1.358 . S
N232 C234 1.400 . S
C233 N231 1.263 . S
C233 N232 1.358 . S
C233 H239 0.930 . S
C234 N232 1.400 . S
C234 C235 1.351 . S
C234 H251 0.930 . S
C235 N231 1.389 . S
C235 C234 1.351 . S
C235 H240 0.930 . S
O236 Cu230 1.974 . S
O236 C246 1.282 . S
C237 O238 1.261 . S
C237 O250 1.251 . S
O238 C237 1.261 . S
H239 C233 0.930 . S
H240 C235 0.930 . S
N241 Cu230 1.985 . S
N241 C243 1.335 . S
N241 C244 1.390 . S
N242 C243 1.345 . S
N242 C245 1.336 . S
C243 N241 1.335 . S
C243 N242 1.345 . S
C243 H248 0.930 . S
C244 N241 1.390 . S
C244 C245 1.346 . S
C244 H249 0.930 . S
C245 N242 1.336 . S
C245 C244 1.346 . S
C245 H252 0.929 . S
C246 O236 1.282 . S
C246 O247 1.216 . S
O247 C246 1.216 . S
H248 C243 0.930 . S
H249 C244 0.930 . S
O250 Cu230 1.959 . S
O250 C237 1.251 . S
H251 C234 0.930 . S
H252 C245 0.929 . S
Cu253 N254 1.999 . S
Cu253 O259 1.974 . S
Cu253 N264 1.985 . S
Cu253 O273 1.959 . S
N254 Cu253 1.999 . S
N254 C256 1.263 . S
N254 C258 1.389 1_455 S
N255 C256 1.358 . S
N255 C257 1.400 1_455 S
C256 N254 1.263 . S
C256 N255 1.358 . S
C256 H262 0.930 . S
C257 N255 1.400 1_655 S
C257 C258 1.351 . S
C257 H274 0.930 . S
C258 N254 1.389 1_655 S
C258 C257 1.351 . S
C258 H263 0.930 . S
O259 Cu253 1.974 . S
O259 C269 1.282 . S
C260 O261 1.261 . S
C260 O273 1.251 . S
O261 C260 1.261 . S
H262 C256 0.930 . S
H263 C258 0.930 . S
N264 Cu253 1.985 . S
N264 C266 1.335 . S
N264 C267 1.390 . S
N265 C266 1.345 . S
N265 C268 1.336 . S
C266 N264 1.335 . S
C266 N265 1.345 . S
C266 H271 0.930 . S
C267 N264 1.390 . S
C267 C268 1.346 . S
C267 H272 0.930 . S
C268 N265 1.336 . S
C268 C267 1.346 . S
C268 H275 0.929 . S
C269 O259 1.282 . S
C269 O270 1.216 . S
O270 C269 1.216 . S
H271 C266 0.930 . S
H272 C267 0.930 . S
O273 Cu253 1.959 . S
O273 C260 1.251 . S
H274 C257 0.930 . S
H275 C268 0.929 . S
Cu276 N277 1.999 . S
Cu276 O282 1.974 . S
Cu276 N287 1.985 . S
Cu276 O296 1.959 . S
N277 Cu276 1.999 . S
N277 C279 1.263 . S
N277 C281 1.389 . S
N278 C279 1.358 . S
N278 C280 1.400 . S
C279 N277 1.263 . S
C279 N278 1.358 . S
C279 H285 0.930 . S
C280 N278 1.400 . S
C280 C281 1.351 . S
C280 H297 0.930 . S
C281 N277 1.389 . S
C281 C280 1.351 . S
C281 H286 0.930 . S
O282 Cu276 1.974 . S
O282 C292 1.282 . S
C283 O284 1.261 . S
C283 O296 1.251 . S
O284 C283 1.261 . S
H285 C279 0.930 . S
H286 C281 0.930 . S
N287 Cu276 1.985 . S
N287 C289 1.335 . S
N287 C290 1.390 . S
N288 C289 1.345 . S
N288 C291 1.336 . S
C289 N287 1.335 . S
C289 N288 1.345 . S
C289 H294 0.930 . S
C290 N287 1.390 . S
C290 C291 1.346 . S
C290 H295 0.930 . S
C291 N288 1.336 . S
C291 C290 1.346 . S
C291 H298 0.929 . S
C292 O282 1.282 . S
C292 O293 1.216 . S
O293 C292 1.216 . S
H294 C289 0.930 . S
H295 C290 0.930 . S
O296 Cu276 1.959 . S
O296 C283 1.251 . S
H297 C280 0.930 . S
H298 C291 0.929 . S
Cu299 N300 1.999 . S
Cu299 O305 1.974 . S
Cu299 N310 1.985 . S
Cu299 O319 1.959 . S
N300 Cu299 1.999 . S
N300 C302 1.263 . S
N300 C304 1.389 1_455 S
N301 C302 1.358 . S
N301 C303 1.400 1_455 S
C302 N300 1.263 . S
C302 N301 1.358 . S
C302 H308 0.930 . S
C303 N301 1.400 1_655 S
C303 C304 1.351 . S
C303 H320 0.930 . S
C304 N300 1.389 1_655 S
C304 C303 1.351 . S
C304 H309 0.930 . S
O305 Cu299 1.974 . S
O305 C315 1.282 . S
C306 O307 1.261 . S
C306 O319 1.251 . S
O307 C306 1.261 . S
H308 C302 0.930 . S
H309 C304 0.930 . S
N310 Cu299 1.985 . S
N310 C312 1.335 . S
N310 C313 1.390 . S
N311 C312 1.345 . S
N311 C314 1.336 . S
C312 N310 1.335 . S
C312 N311 1.345 . S
C312 H317 0.930 . S
C313 N310 1.390 . S
C313 C314 1.346 . S
C313 H318 0.930 . S
C314 N311 1.336 . S
C314 C313 1.346 . S
C314 H321 0.929 . S
C315 O305 1.282 . S
C315 O316 1.216 . S
O316 C315 1.216 . S
H317 C312 0.930 . S
H318 C313 0.930 . S
O319 Cu299 1.959 . S
O319 C306 1.251 . S
H320 C303 0.930 . S
H321 C314 0.929 . S
Cu322 N323 1.999 . S
Cu322 O328 1.974 . S
Cu322 N333 1.985 . S
Cu322 O342 1.959 . S
N323 Cu322 1.999 . S
N323 C325 1.263 . S
N323 C327 1.389 . S
N324 C325 1.358 . S
N324 C326 1.400 . S
C325 N323 1.263 . S
C325 N324 1.358 . S
C325 H331 0.930 . S
C326 N324 1.400 . S
C326 C327 1.351 . S
C326 H343 0.930 . S
C327 N323 1.389 . S
C327 C326 1.351 . S
C327 H332 0.930 . S
O328 Cu322 1.974 . S
O328 C338 1.282 . S
C329 O330 1.261 . S
C329 O342 1.251 . S
O330 C329 1.261 . S
H331 C325 0.930 . S
H332 C327 0.930 . S
N333 Cu322 1.985 . S
N333 C335 1.335 . S
N333 C336 1.390 . S
N334 C335 1.345 . S
N334 C337 1.336 . S
C335 N333 1.335 . S
C335 N334 1.345 . S
C335 H340 0.930 . S
C336 N333 1.390 . S
C336 C337 1.346 . S
C336 H341 0.930 . S
C337 N334 1.336 . S
C337 C336 1.346 . S
C337 H344 0.929 . S
C338 O328 1.282 . S
C338 O339 1.216 . S
O339 C338 1.216 . S
H340 C335 0.930 . S
H341 C336 0.930 . S
O342 Cu322 1.959 . S
O342 C329 1.251 . S
H343 C326 0.930 . S
H344 C337 0.929 . S
Cu345 N346 1.999 . S
Cu345 O351 1.974 . S
Cu345 N356 1.985 . S
Cu345 O365 1.959 . S
N346 Cu345 1.999 . S
N346 C348 1.263 . S
N346 C350 1.389 . S
N347 C348 1.358 . S
N347 C349 1.400 . S
C348 N346 1.263 . S
C348 N347 1.358 . S
C348 H354 0.930 . S
C349 N347 1.400 . S
C349 C350 1.351 . S
C349 H366 0.930 . S
C350 N346 1.389 . S
C350 C349 1.351 . S
C350 H355 0.930 . S
O351 Cu345 1.974 . S
O351 C361 1.282 . S
C352 O353 1.261 . S
C352 O365 1.251 . S
O353 C352 1.261 . S
H354 C348 0.930 . S
H355 C350 0.930 . S
N356 Cu345 1.985 . S
N356 C358 1.335 . S
N356 C359 1.390 . S
N357 C358 1.345 . S
N357 C360 1.336 . S
C358 N356 1.335 . S
C358 N357 1.345 . S
C358 H363 0.930 . S
C359 N356 1.390 . S
C359 C360 1.346 . S
C359 H364 0.930 . S
C360 N357 1.336 . S
C360 C359 1.346 . S
C360 H367 0.929 . S
C361 O351 1.282 . S
C361 O362 1.216 . S
O362 C361 1.216 . S
H363 C358 0.930 . S
H364 C359 0.930 . S
O365 Cu345 1.959 . S
O365 C352 1.251 . S
H366 C349 0.930 . S
H367 C360 0.929 . S
C368 C369 1.387 . S
C368 H372 0.950 . S
C368 C377 1.390 1_665 S
C369 C368 1.387 . S
C369 C371 1.387 . S
H370 C377 0.950 . S
C371 C369 1.387 . S
C371 C373 1.390 1_665 S
C371 H375 0.950 . S
H372 C368 0.950 . S
C373 C371 1.390 1_445 S
C373 C374 1.387 . S
C373 H376 0.950 . S
C374 C373 1.387 . S
C374 C377 1.387 . S
H375 C371 0.950 . S
H376 C373 0.950 . S
C377 C368 1.390 1_445 S
C377 H370 0.950 . S
C377 C374 1.387 . S
C378 C379 1.387 . S
C378 H382 0.950 . S
C378 C387 1.390 1_655 S
C379 C378 1.387 . S
C379 C381 1.387 . S
H380 C387 0.950 . S
C381 C379 1.387 . S
C381 C383 1.390 1_655 S
C381 H385 0.950 . S
H382 C378 0.950 . S
C383 C381 1.390 1_455 S
C383 C384 1.387 . S
C383 H386 0.950 . S
C384 C383 1.387 . S
C384 C387 1.387 . S
H385 C381 0.950 . S
H386 C383 0.950 . S
C387 C378 1.390 1_455 S
C387 H380 0.950 . S
C387 C384 1.387 . S
C388 C389 1.387 . S
C388 H392 0.950 . S
C388 C397 1.390 . S
C389 C388 1.387 . S
C389 C391 1.387 . S
H390 C397 0.950 . S
C391 C389 1.387 . S
C391 C393 1.390 . S
C391 H395 0.950 . S
H392 C388 0.950 . S
C393 C391 1.390 . S
C393 C394 1.387 . S
C393 H396 0.950 . S
C394 C393 1.387 . S
C394 C397 1.387 . S
H395 C391 0.950 . S
H396 C393 0.950 . S
C397 C388 1.390 . S
C397 H390 0.950 . S
C397 C394 1.387 . S
C398 C399 1.387 . S
C398 H402 0.950 . S
C398 C407 1.390 1_545 S
C399 C398 1.387 . S
C399 C401 1.387 . S
H400 C407 0.950 . S
C401 C399 1.387 . S
C401 C403 1.390 1_545 S
C401 H405 0.950 . S
H402 C398 0.950 . S
C403 C401 1.390 1_565 S
C403 C404 1.387 . S
C403 H406 0.950 . S
C404 C403 1.387 . S
C404 C407 1.387 . S
H405 C401 0.950 . S
H406 C403 0.950 . S
C407 C398 1.390 1_565 S
C407 H400 0.950 . S
C407 C404 1.387 . S
C408 C409 1.387 . S
C408 H412 0.950 . S
C408 C417 1.390 1_455 S
C409 C408 1.387 . S
C409 C411 1.387 . S
H410 C417 0.950 . S
C411 C409 1.387 . S
C411 C413 1.390 1_455 S
C411 H415 0.950 . S
H412 C408 0.950 . S
C413 C411 1.390 1_655 S
C413 C414 1.387 . S
C413 H416 0.950 . S
C414 C413 1.387 . S
C414 C417 1.387 . S
H415 C411 0.950 . S
H416 C413 0.950 . S
C417 C408 1.390 1_655 S
C417 H410 0.950 . S
C417 C414 1.387 . S
C418 C419 1.387 . S
C418 H422 0.950 . S
C418 C427 1.390 . S
C419 C418 1.387 . S
C419 C421 1.387 . S
H420 C427 0.950 . S
C421 C419 1.387 . S
C421 C423 1.390 . S
C421 H425 0.950 . S
H422 C418 0.950 . S
C423 C421 1.390 . S
C423 C424 1.387 . S
C423 H426 0.950 . S
C424 C423 1.387 . S
C424 C427 1.387 . S
H425 C421 0.950 . S
H426 C423 0.950 . S
C427 C418 1.390 . S
C427 H420 0.950 . S
C427 C424 1.387 . S
C428 C429 1.387 . S
C428 H432 0.950 . S
C428 C437 1.390 1_545 S
C429 C428 1.387 . S
C429 C431 1.387 . S
H430 C437 0.950 . S
C431 C429 1.387 . S
C431 C433 1.390 1_545 S
C431 H435 0.950 . S
H432 C428 0.950 . S
C433 C431 1.390 1_565 S
C433 C434 1.387 . S
C433 H436 0.950 . S
C434 C433 1.387 . S
C434 C437 1.387 . S
H435 C431 0.950 . S
H436 C433 0.950 . S
C437 C428 1.390 1_565 S
C437 H430 0.950 . S
C437 C434 1.387 . S
C438 C439 1.387 . S
C438 H442 0.950 . S
C438 C447 1.390 1_445 S
C439 C438 1.387 . S
C439 C441 1.387 . S
H440 C447 0.950 . S
C441 C439 1.387 . S
C441 C443 1.390 1_445 S
C441 H445 0.950 . S
H442 C438 0.950 . S
C443 C441 1.390 1_665 S
C443 C444 1.387 . S
C443 H446 0.950 . S
C444 C443 1.387 . S
C444 C447 1.387 . S
H445 C441 0.950 . S
H446 C443 0.950 . S
C447 C438 1.390 1_665 S
C447 H440 0.950 . S
C447 C444 1.387 . S
C448 C449 1.387 . S
C448 H452 0.950 . S
C448 C457 1.390 1_565 S
C449 C448 1.387 . S
C449 C451 1.387 . S
H450 C457 0.950 . S
C451 C449 1.387 . S
C451 C453 1.390 1_565 S
C451 H455 0.950 . S
H452 C448 0.950 . S
C453 C451 1.390 1_545 S
C453 C454 1.387 . S
C453 H456 0.950 . S
C454 C453 1.387 . S
C454 C457 1.387 . S
H455 C451 0.950 . S
H456 C453 0.950 . S
C457 C448 1.390 1_545 S
C457 H450 0.950 . S
C457 C454 1.387 . S
C458 C459 1.387 . S
C458 H462 0.950 . S
C458 C467 1.390 1_665 S
C459 C458 1.387 . S
C459 C461 1.387 . S
H460 C467 0.950 . S
C461 C459 1.387 . S
C461 C463 1.390 1_665 S
C461 H465 0.950 . S
H462 C458 0.950 . S
C463 C461 1.390 1_445 S
C463 C464 1.387 . S
C463 H466 0.950 . S
C464 C463 1.387 . S
C464 C467 1.387 . S
H465 C461 0.950 . S
H466 C463 0.950 . S
C467 C458 1.390 1_445 S
C467 H460 0.950 . S
C467 C464 1.387 . S
C468 C469 1.387 . S
C468 H472 0.950 . S
C468 C477 1.390 1_455 S
C469 C468 1.387 . S
C469 C471 1.387 . S
H470 C477 0.950 . S
C471 C469 1.387 . S
C471 C473 1.390 1_455 S
C471 H475 0.950 . S
H472 C468 0.950 . S
C473 C471 1.390 1_655 S
C473 C474 1.387 . S
C473 H476 0.950 . S
C474 C473 1.387 . S
C474 C477 1.387 . S
H475 C471 0.950 . S
H476 C473 0.950 . S
C477 C468 1.390 1_655 S
C477 H470 0.950 . S
C477 C474 1.387 . S
C478 C479 1.387 . S
C478 H482 0.950 . S
C478 C487 1.390 . S
C479 C478 1.387 . S
C479 C481 1.387 . S
H480 C487 0.950 . S
C481 C479 1.387 . S
C481 C483 1.390 . S
C481 H485 0.950 . S
H482 C478 0.950 . S
C483 C481 1.390 . S
C483 C484 1.387 . S
C483 H486 0.950 . S
C484 C483 1.387 . S
C484 C487 1.387 . S
H485 C481 0.950 . S
H486 C483 0.950 . S
C487 C478 1.390 . S
C487 H480 0.950 . S
C487 C484 1.387 . S
C488 C489 1.387 . S
C488 H492 0.950 . S
C488 C497 1.390 . S
C489 C488 1.387 . S
C489 C491 1.387 . S
H490 C497 0.950 . S
C491 C489 1.387 . S
C491 C493 1.390 . S
C491 H495 0.950 . S
H492 C488 0.950 . S
C493 C491 1.390 . S
C493 C494 1.387 . S
C493 H496 0.950 . S
C494 C493 1.387 . S
C494 C497 1.387 . S
H495 C491 0.950 . S
H496 C493 0.950 . S
C497 C488 1.390 . S
C497 H490 0.950 . S
C497 C494 1.387 . S
C498 C499 1.387 . S
C498 H502 0.950 . S
C498 C507 1.390 1_565 S
C499 C498 1.387 . S
C499 C501 1.387 . S
H500 C507 0.950 . S
C501 C499 1.387 . S
C501 C503 1.390 1_565 S
C501 H505 0.950 . S
H502 C498 0.950 . S
C503 C501 1.390 1_545 S
C503 C504 1.387 . S
C503 H506 0.950 . S
C504 C503 1.387 . S
C504 C507 1.387 . S
H505 C501 0.950 . S
H506 C503 0.950 . S
C507 C498 1.390 1_545 S
C507 H500 0.950 . S
C507 C504 1.387 . S
C508 C509 1.387 . S
C508 H512 0.950 . S
C508 C517 1.390 1_665 S
C509 C508 1.387 . S
C509 C511 1.387 . S
H510 C517 0.950 . S
C511 C509 1.387 . S
C511 C513 1.390 1_665 S
C511 H515 0.950 . S
H512 C508 0.950 . S
C513 C511 1.390 1_445 S
C513 C514 1.387 . S
C513 H516 0.950 . S
C514 C513 1.387 . S
C514 C517 1.387 . S
H515 C511 0.950 . S
H516 C513 0.950 . S
C517 C508 1.390 1_445 S
C517 H510 0.950 . S
C517 C514 1.387 . S
C518 C519 1.387 . S
C518 H522 0.950 . S
C518 C527 1.390 1_455 S
C519 C518 1.387 . S
C519 C521 1.387 . S
H520 C527 0.950 . S
C521 C519 1.387 . S
C521 C523 1.390 1_455 S
C521 H525 0.950 . S
H522 C518 0.950 . S
C523 C521 1.390 1_655 S
C523 C524 1.387 . S
C523 H526 0.950 . S
C524 C523 1.387 . S
C524 C527 1.387 . S
H525 C521 0.950 . S
H526 C523 0.950 . S
C527 C518 1.390 1_655 S
C527 H520 0.950 . S
C527 C524 1.387 . S
C528 C529 1.387 . S
C528 H532 0.950 . S
C528 C537 1.390 . S
C529 C528 1.387 . S
C529 C531 1.387 . S
H530 C537 0.950 . S
C531 C529 1.387 . S
C531 C533 1.390 . S
C531 H535 0.950 1_545 S
H532 C528 0.950 . S
C533 C531 1.390 . S
C533 C534 1.387 . S
C533 H536 0.950 1_545 S
C534 C533 1.387 . S
C534 C537 1.387 . S
H535 C531 0.950 1_565 S
H536 C533 0.950 1_565 S
C537 C528 1.390 . S
C537 H530 0.950 . S
C537 C534 1.387 . S
C538 C539 1.387 1_455 S
C538 H542 0.950 . S
C538 C547 1.390 . S
C539 C538 1.387 1_655 S
C539 C541 1.387 . S
H540 C547 0.950 . S
C541 C539 1.387 . S
C541 C543 1.390 . S
C541 H545 0.950 . S
H542 C538 0.950 . S
C543 C541 1.390 . S
C543 C544 1.387 . S
C543 H546 0.950 . S
C544 C543 1.387 . S
C544 C547 1.387 1_655 S
H545 C541 0.950 . S
H546 C543 0.950 . S
C547 C538 1.390 . S
C547 H540 0.950 . S
C547 C544 1.387 1_455 S
C548 C549 1.387 . S
C548 H552 0.950 . S
C548 C557 1.390 . S
C549 C548 1.387 . S
C549 C551 1.387 . S
H550 C557 0.950 . S
C551 C549 1.387 . S
C551 C553 1.390 . S
C551 H555 0.950 . S
H552 C548 0.950 . S
C553 C551 1.390 . S
C553 C554 1.387 . S
C553 H556 0.950 . S
C554 C553 1.387 . S
C554 C557 1.387 . S
H555 C551 0.950 . S
H556 C553 0.950 . S
C557 C548 1.390 . S
C557 H550 0.950 . S
C557 C554 1.387 . S
C558 C559 1.387 . S
C558 H562 0.950 . S
C558 C567 1.390 . S
C559 C558 1.387 . S
C559 C561 1.387 . S
H560 C567 0.950 . S
C561 C559 1.387 . S
C561 C563 1.390 . S
C561 H565 0.950 . S
H562 C558 0.950 . S
C563 C561 1.390 . S
C563 C564 1.387 . S
C563 H566 0.950 . S
C564 C563 1.387 . S
C564 C567 1.387 . S
H565 C561 0.950 . S
H566 C563 0.950 . S
C567 C558 1.390 . S
C567 H560 0.950 . S
C567 C564 1.387 . S
C568 C569 1.387 . S
C568 H572 0.950 . S
C568 C577 1.390 . S
C569 C568 1.387 . S
C569 C571 1.387 . S
H570 C577 0.950 . S
C571 C569 1.387 . S
C571 C573 1.390 . S
C571 H575 0.950 . S
H572 C568 0.950 . S
C573 C571 1.390 . S
C573 C574 1.387 . S
C573 H576 0.950 . S
C574 C573 1.387 . S
C574 C577 1.387 . S
H575 C571 0.950 . S
H576 C573 0.950 . S
C577 C568 1.390 . S
C577 H570 0.950 . S
C577 C574 1.387 . S
C578 C579 1.387 . S
C578 H582 0.950 . S
C578 C587 1.390 . S
C579 C578 1.387 . S
C579 C581 1.387 . S
H580 C587 0.950 . S
C581 C579 1.387 . S
C581 C583 1.390 . S
C581 H585 0.950 . S
H582 C578 0.950 . S
C583 C581 1.390 . S
C583 C584 1.387 . S
C583 H586 0.950 . S
C584 C583 1.387 . S
C584 C587 1.387 . S
H585 C581 0.950 . S
H586 C583 0.950 . S
C587 C578 1.390 . S
C587 H580 0.950 . S
C587 C584 1.387 . S
C588 C589 1.387 . S
C588 H592 0.950 . S
C588 C597 1.390 . S
C589 C588 1.387 . S
C589 C591 1.387 . S
H590 C597 0.950 . S
C591 C589 1.387 . S
C591 C593 1.390 . S
C591 H595 0.950 1_565 S
H592 C588 0.950 . S
C593 C591 1.390 . S
C593 C594 1.387 . S
C593 H596 0.950 1_565 S
C594 C593 1.387 . S
C594 C597 1.387 . S
H595 C591 0.950 1_545 S
H596 C593 0.950 1_545 S
C597 C588 1.390 . S
C597 H590 0.950 . S
C597 C594 1.387 . S
C598 C599 1.387 1_655 S
C598 H602 0.950 . S
C598 C607 1.390 . S
C599 C598 1.387 1_455 S
C599 C601 1.387 . S
H600 C607 0.950 . S
C601 C599 1.387 . S
C601 C603 1.390 . S
C601 H605 0.950 . S
H602 C598 0.950 . S
C603 C601 1.390 . S
C603 C604 1.387 . S
C603 H606 0.950 . S
C604 C603 1.387 . S
C604 C607 1.387 1_455 S
H605 C601 0.950 . S
H606 C603 0.950 . S
C607 C598 1.390 . S
C607 H600 0.950 . S
C607 C604 1.387 1_655 S
C608 C609 1.387 . S
C608 H612 0.950 . S
C608 C617 1.390 . S
C609 C608 1.387 . S
C609 C611 1.387 . S
H610 C617 0.950 . S
C611 C609 1.387 . S
C611 C613 1.390 . S
C611 H615 0.950 . S
H612 C608 0.950 . S
C613 C611 1.390 . S
C613 C614 1.387 . S
C613 H616 0.950 . S
C614 C613 1.387 . S
C614 C617 1.387 . S
H615 C611 0.950 . S
H616 C613 0.950 . S
C617 C608 1.390 . S
C617 H610 0.950 . S
C617 C614 1.387 . S
C618 C619 1.387 . S
C618 H622 0.950 . S
C618 C627 1.390 . S
C619 C618 1.387 . S
C619 C621 1.387 . S
H620 C627 0.950 . S
C621 C619 1.387 . S
C621 C623 1.390 . S
C621 H625 0.950 . S
H622 C618 0.950 . S
C623 C621 1.390 . S
C623 C624 1.387 . S
C623 H626 0.950 . S
C624 C623 1.387 . S
C624 C627 1.387 . S
H625 C621 0.950 . S
H626 C623 0.950 . S
C627 C618 1.390 . S
C627 H620 0.950 . S
C627 C624 1.387 . S
C628 C629 1.387 . S
C628 H632 0.950 . S
C628 C637 1.390 . S
C629 C628 1.387 . S
C629 C631 1.387 . S
H630 C637 0.950 . S
C631 C629 1.387 . S
C631 C633 1.390 . S
C631 H635 0.950 . S
H632 C628 0.950 . S
C633 C631 1.390 . S
C633 C634 1.387 . S
C633 H636 0.950 . S
C634 C633 1.387 . S
C634 C637 1.387 . S
H635 C631 0.950 . S
H636 C633 0.950 . S
C637 C628 1.390 . S
C637 H630 0.950 . S
C637 C634 1.387 . S
C638 C639 1.439 . S
C638 H642 0.947 1_556 S
C638 C647 1.345 1_556 S
C639 C638 1.439 . S
C639 C641 1.387 . S
H640 C647 0.950 . S
C641 C639 1.387 . S
C641 C643 1.390 . S
C641 H645 0.950 . S
H642 C638 0.947 1_554 S
C643 C641 1.390 . S
C643 C644 1.387 1_556 S
C643 H646 0.950 . S
C644 C643 1.387 1_554 S
C644 C647 1.387 . S
H645 C641 0.950 . S
H646 C643 0.950 . S
C647 C638 1.345 1_554 S
C647 H640 0.950 . S
C647 C644 1.387 . S
C648 C649 1.387 . S
C648 H652 0.950 . S
C648 C657 1.390 1_554 S
C649 C648 1.387 . S
C649 C651 1.340 1_554 S
H650 C657 0.950 . S
C651 C649 1.340 1_556 S
C651 C653 1.445 . S
C651 H655 0.947 . S
H652 C648 0.950 . S
C653 C651 1.445 . S
C653 C654 1.387 . S
C653 H656 0.950 . S
C654 C653 1.387 . S
C654 C657 1.387 . S
H655 C651 0.947 . S
H656 C653 0.950 . S
C657 C648 1.390 1_556 S
C657 H650 0.950 . S
C657 C654 1.387 . S
C658 C659 1.387 . S
C658 H662 0.950 . S
C658 C667 1.390 . S
C659 C658 1.387 . S
C659 C661 1.387 . S
H660 C667 0.950 . S
C661 C659 1.387 . S
C661 C663 1.390 . S
C661 H665 0.950 . S
H662 C658 0.950 . S
C663 C661 1.390 . S
C663 C664 1.387 . S
C663 H666 0.950 . S
C664 C663 1.387 . S
C664 C667 1.387 . S
H665 C661 0.950 . S
H666 C663 0.950 . S
C667 C658 1.390 . S
C667 H660 0.950 . S
C667 C664 1.387 . S
C668 C669 1.387 . S
C668 H672 0.950 . S
C668 C677 1.390 . S
C669 C668 1.387 . S
C669 C671 1.387 . S
H670 C677 0.950 . S
C671 C669 1.387 . S
C671 C673 1.390 . S
C671 H675 0.950 . S
H672 C668 0.950 . S
C673 C671 1.390 . S
C673 C674 1.387 . S
C673 H676 0.950 . S
C674 C673 1.387 . S
C674 C677 1.387 . S
H675 C671 0.950 . S
H676 C673 0.950 . S
C677 C668 1.390 . S
C677 H670 0.950 . S
C677 C674 1.387 . S
C678 C679 1.387 . S
C678 H682 0.950 . S
C678 C687 1.390 . S
C679 C678 1.387 . S
C679 C681 1.387 . S
H680 C687 0.950 . S
C681 C679 1.387 . S
C681 C683 1.390 . S
C681 H685 0.950 . S
H682 C678 0.950 . S
C683 C681 1.390 . S
C683 C684 1.387 . S
C683 H686 0.950 . S
C684 C683 1.387 . S
C684 C687 1.387 . S
H685 C681 0.950 . S
H686 C683 0.950 . S
C687 C678 1.390 . S
C687 H680 0.950 . S
C687 C684 1.387 . S
C369 C246 1.951 . S
C374 C16 1.951 . S
C379 N35 1.825 . S
C384 N265 1.825 . S
C389 C200 1.954 . S
C394 C62 1.954 . S
C399 N219 1.826 . S
C404 N81 1.826 . S
C409 C108 1.952 . S
C414 C338 1.952 . S
C419 N357 1.824 . S
C424 N127 1.824 . S
C429 C154 1.955 . S
C434 C292 1.955 . S
C439 N311 1.825 . S
C444 N173 1.825 . S
C449 C237 1.405 . S
C454 C7 1.405 . S
C459 N25 1.091 . S
C464 N255 1.091 . S
C469 C53 1.408 . S
C474 C191 1.408 . S
C479 N71 1.091 . S
C484 N209 1.091 . S
C489 C99 1.409 . S
C494 C329 1.409 . S
C499 N117 1.085 . S
C504 N347 1.085 . S
C509 C283 1.406 . S
C514 C145 1.406 . S
C519 N301 1.090 . S
C524 N163 1.090 . S
C529 N2 1.583 . S
C534 N140 1.583 . S
C539 C30 1.629 . S
C544 C168 1.629 . S
C549 N48 1.583 . S
C554 N94 1.583 . S
C559 C76 1.629 . S
C564 C122 1.629 . S
C569 N186 1.587 . S
C574 N324 1.587 . S
C579 C352 1.626 . S
C584 C214 1.627 . S
C589 N232 1.583 . S
C594 N278 1.583 . S
C599 C306 1.629 . S
C604 C260 1.629 . S
C609 N12 1.681 . S
C614 C361 1.653 . S
C619 N288 1.680 . S
C624 C39 1.652 . S
C629 C315 1.651 . S
C634 N58 1.681 . S
C639 N334 1.681 . S
C644 C85 1.651 . S
C649 C223 1.651 . S
C654 N104 1.681 . S
C659 N242 1.682 . S
C664 C131 1.652 . S
C669 N150 1.681 . S
C674 C269 1.654 . S
C679 C177 1.654 . S
C684 N196 1.681 . S
