# Generated by pormake.
# Topology snz, (6)-cn, num edge types: 1
# Building blocks:
#     Node 0, Type 0, BuildingBlock: PAMTOO_clean_sbu_0, # of connection points: 6
#     Node 1, Type 0, BuildingBlock: PAMTOO_clean_sbu_0, # of connection points: 6
#     Node 2, Type 0, BuildingBlock: PAMTOO_clean_sbu_0, # of connection points: 6
#     Node 3, Type 0, BuildingBlock: PAMTOO_clean_sbu_0, # of connection points: 6
#     Node 4, Type 0, BuildingBlock: PAMTOO_clean_sbu_0, # of connection points: 6
#     Node 5, Type 0, BuildingBlock: PAMTOO_clean_sbu_0, # of connection points: 6
#     Node 6, Type 0, BuildingBlock: PAMTOO_clean_sbu_0, # of connection points: 6
#     Node 7, Type 0, BuildingBlock: PAMTOO_clean_sbu_0, # of connection points: 6
#     Node 8, Type 0, BuildingBlock: PAMTOO_clean_sbu_0, # of connection points: 6
#     Edge 9, Type (0, 0), BuildingBlock: XIVTED_clean_linker_0, # of connection points: 2
#     Edge 10, Type (0, 0), BuildingBlock: XIVTED_clean_linker_0, # of connection points: 2
#     Edge 11, Type (0, 0), BuildingBlock: XIVTED_clean_linker_0, # of connection points: 2
#     Edge 12, Type (0, 0), BuildingBlock: XIVTED_clean_linker_0, # of connection points: 2
#     Edge 13, Type (0, 0), BuildingBlock: XIVTED_clean_linker_0, # of connection points: 2
#     Edge 14, Type (0, 0), BuildingBlock: XIVTED_clean_linker_0, # of connection points: 2
#     Edge 15, Type (0, 0), BuildingBlock: XIVTED_clean_linker_0, # of connection points: 2
#     Edge 16, Type (0, 0), BuildingBlock: XIVTED_clean_linker_0, # of connection points: 2
#     Edge 17, Type (0, 0), BuildingBlock: XIVTED_clean_linker_0, # of connection points: 2
#     Edge 18, Type (0, 0), BuildingBlock: XIVTED_clean_linker_0, # of connection points: 2
#     Edge 19, Type (0, 0), BuildingBlock: XIVTED_clean_linker_0, # of connection points: 2
#     Edge 20, Type (0, 0), BuildingBlock: XIVTED_clean_linker_0, # of connection points: 2
#     Edge 21, Type (0, 0), BuildingBlock: XIVTED_clean_linker_0, # of connection points: 2
#     Edge 22, Type (0, 0), BuildingBlock: XIVTED_clean_linker_0, # of connection points: 2
#     Edge 23, Type (0, 0), BuildingBlock: XIVTED_clean_linker_0, # of connection points: 2
#     Edge 24, Type (0, 0), BuildingBlock: XIVTED_clean_linker_0, # of connection points: 2
#     Edge 25, Type (0, 0), BuildingBlock: XIVTED_clean_linker_0, # of connection points: 2
#     Edge 26, Type (0, 0), BuildingBlock: XIVTED_clean_linker_0, # of connection points: 2
#     Edge 27, Type (0, 0), BuildingBlock: XIVTED_clean_linker_0, # of connection points: 2
#     Edge 28, Type (0, 0), BuildingBlock: XIVTED_clean_linker_0, # of connection points: 2
#     Edge 29, Type (0, 0), BuildingBlock: XIVTED_clean_linker_0, # of connection points: 2
#     Edge 30, Type (0, 0), BuildingBlock: XIVTED_clean_linker_0, # of connection points: 2
#     Edge 31, Type (0, 0), BuildingBlock: XIVTED_clean_linker_0, # of connection points: 2
#     Edge 32, Type (0, 0), BuildingBlock: XIVTED_clean_linker_0, # of connection points: 2
#     Edge 33, Type (0, 0), BuildingBlock: XIVTED_clean_linker_0, # of connection points: 2
#     Edge 34, Type (0, 0), BuildingBlock: XIVTED_clean_linker_0, # of connection points: 2
#     Edge 35, Type (0, 0), BuildingBlock: XIVTED_clean_linker_0, # of connection points: 2
# Relax obj value: 0.095
# Max RMSD: 0.255
# Mean RMSD: 0.152
data_MOF--net-snz--node1-PAMTOO_clean_sbu_0--edge1-XIVTED_clean_linker_0
_symmetry_space_group_name_H-M    P1
_symmetry_Int_Tables_number       1
_symmetry_cell_setting            triclinic
loop_
_symmetry_equiv_pos_as_xyz
'x, y, z'
_cell_length_a     82.461537
_cell_length_b     57.802801
_cell_length_c     14.484378
_cell_angle_alpha  100.87587
_cell_angle_beta   102.05159
_cell_angle_gamma 121.88821
loop_
_atom_site_label
_atom_site_type_symbol
_atom_site_fract_x
_atom_site_fract_y
_atom_site_fract_z
_atom_type_partial_charge
Dy0 Dy 0.04406 0.51094 0.9362 0.0
Dy1 Dy 0.08282 0.5061 0.02223 0.0
C2 C 0.06636 0.50328 0.8033 0.0
O3 O 0.03078 0.46881 0.96222 0.0
O4 O 0.05414 0.46043 0.93892 0.0
O5 O 0.02863 0.51757 0.816 0.0
O6 O 0.01505 0.50351 0.92602 0.0
O7 O 0.07494 0.51729 0.15346 0.0
O8 O 0.05569 0.53382 0.10156 0.0
O9 O 0.09799 0.55405 0.07186 0.0
O10 O 0.07278 0.55514 0.97082 0.0
O11 O 0.09833 0.49622 0.12982 0.0
O12 O 0.10968 0.50924 0.01323 0.0
C13 C 0.03582 0.45093 0.94088 0.0
O14 O 0.04874 0.48858 0.81411 0.0
O15 O 0.08319 0.51551 0.88089 0.0
C16 C 1.0072 0.53117 0.85023 0.0
C17 C 0.99115 0.56355 0.83347 0.0
C18 C 0.0095 0.57235 0.81733 0.0
C19 C 0.01745 0.5563 0.82551 0.0
C20 C 0.98922 0.52283 0.86877 0.0
C21 C 0.98128 0.53882 0.86063 0.0
C22 C 0.01382 0.51192 0.84889 0.0
C23 C 0.06662 0.53093 0.17199 0.0
C24 C 0.09179 0.56811 0.03262 0.0
C25 C 0.11633 0.47847 0.07545 0.0
C26 C 0.13031 0.44309 0.06942 0.0
C27 C 0.12261 0.44735 0.14381 0.0
C28 C 0.11578 0.46495 0.14705 0.0
C29 C 0.12351 0.47355 -0.00062 0.0
C30 C 0.13038 0.45601 -0.00368 0.0
C31 C 0.11158 0.49997 0.0874 0.0
H32 H 0.01762 0.5915 0.79753 0.0
H33 H 0.03136 0.56327 0.81059 0.0
H34 H 0.98093 0.50337 0.88685 0.0
H35 H 0.96697 0.53111 0.87204 0.0
H36 H 0.12259 0.43801 0.202 0.0
H37 H 0.11067 0.46869 0.20762 0.0
H38 H 0.12432 0.48384 0.9436 0.0
H39 H 0.13601 0.45286 0.93737 0.0
Dy40 Dy 0.55061 0.51322 0.04434 0.0
Dy41 Dy 0.58839 0.5052 0.04924 0.0
C42 C 0.56768 0.49366 0.21292 0.0
O43 O 0.57885 0.55694 0.06973 0.0
O44 O 0.60374 0.55192 0.14383 0.0
O45 O 0.53839 0.53179 0.12418 0.0
O46 O 0.52287 0.50756 0.96267 0.0
O47 O 0.58176 0.521 0.92988 0.0
O48 O 0.54745 0.49565 0.88636 0.0
O49 O 0.55856 0.45976 0.97207 0.0
O50 O 0.53489 0.4658 0.012 0.0
O51 O 0.59989 0.48776 0.95971 0.0
O52 O 0.618 0.51413 0.11945 0.0
C53 C 0.59801 0.56839 0.12393 0.0
O54 O 0.55979 0.50744 0.18922 0.0
O55 O 0.57818 0.4888 0.16636 0.0
C56 C 0.50177 0.50329 0.05731 0.0
C57 C 0.46324 0.47416 0.07926 0.0
C58 C 0.48153 0.48845 0.16337 0.0
C59 C 0.50059 0.50285 0.15257 0.0
C60 C 0.48348 0.48868 0.97314 0.0
C61 C 0.46443 0.4742 0.98386 0.0
C62 C 0.52183 0.51958 0.04486 0.0
C63 C 0.5634 0.50469 0.86027 0.0
C64 C 0.54006 0.44915 0.97489 0.0
C65 C 0.63631 0.51564 0.01033 0.0
C66 C 0.67194 0.53807 0.96138 0.0
C67 C 0.65309 0.52803 0.88953 0.0
C68 C 0.63548 0.51684 0.91353 0.0
C69 C 0.65526 0.52655 0.08322 0.0
C70 C 0.6729 0.53771 0.05917 0.0
C71 C 0.61744 0.50086 0.03381 0.0
H72 H 0.48112 0.48855 0.23769 0.0
H73 H 0.51437 0.51384 0.21911 0.0
H74 H 0.4839 0.48881 0.89897 0.0
H75 H 0.45067 0.46374 0.91776 0.0
H76 H 0.65186 0.52841 0.81398 0.0
H77 H 0.62114 0.50847 0.85525 0.0
H78 H 0.65629 0.52563 0.15808 0.0
H79 H 0.68709 0.54497 0.11604 0.0
Dy80 Dy 0.6109 0.08192 0.20111 0.0
Dy81 Dy 0.56092 0.01498 0.14976 0.0
C82 C 0.57738 0.03164 0.98149 0.0
O83 O 0.58683 0.09064 0.1646 0.0
O84 O 0.55461 0.04649 0.12476 0.0
O85 O 0.62687 0.10906 0.12115 0.0
O86 O 0.6437 0.11551 0.27176 0.0
O87 O 0.58656 0.05464 0.26525 0.0
O88 O 0.61321 0.09455 0.36536 0.0
O89 O 0.58223 1.00225 0.15997 0.0
O90 O 0.61485 0.04762 0.22927 0.0
O91 O 0.54635 1.00288 0.25648 0.0
O92 O 0.53126 0.97346 0.09819 0.0
C93 C 0.5664 0.07424 0.13441 0.0
O94 O 0.59549 0.04425 0.05284 0.0
O95 O 0.56013 0.01695 -0.00232 0.0
C96 C 0.66149 0.12463 0.15899 0.0
C97 C 0.69412 0.13193 0.10014 0.0
C98 C 0.6735 0.10927 0.03715 0.0
C99 C 0.65733 0.10563 0.06629 0.0
C100 C 0.682 0.14674 0.22267 0.0
C101 C 0.6981 0.15031 0.1939 0.0
C102 C 0.64493 0.12224 0.19123 0.0
C103 C 0.59641 0.07136 0.35867 0.0
C104 C 0.60256 0.01871 0.20147 0.0
C105 C 0.5098 0.97396 0.18625 0.0
C106 C 0.47177 0.961 0.19066 0.0
C107 C 0.48998 0.98108 0.27632 0.0
C108 C 0.50875 0.98738 0.27431 0.0
C109 C 0.49167 0.9543 0.1001 0.0
C110 C 0.4729 0.94794 0.10221 0.0
C111 C 0.52944 0.97914 0.18623 0.0
H112 H 0.66981 0.09481 0.96416 0.0
H113 H 0.64163 0.08821 0.01586 0.0
H114 H 0.68558 0.16148 0.29484 0.0
H115 H 0.71373 0.16759 0.24542 0.0
H116 H 0.48975 0.99185 0.34533 0.0
H117 H 0.52238 1.00251 0.34238 0.0
H118 H 0.49189 0.94333 0.03143 0.0
H119 H 0.45917 0.93203 0.03531 0.0
Dy120 Dy 0.71095 0.84754 0.33176 0.0
Dy121 Dy 0.74697 0.83622 0.33415 0.0
C122 C 0.72738 0.84728 0.15838 0.0
O123 O 0.69586 0.79937 0.26904 0.0
O124 O 0.72168 0.79774 0.35481 0.0
O125 O 0.6827 0.83937 0.24308 0.0
O126 O 0.69596 0.86188 0.40592 0.0
O127 O 0.7532 0.85376 0.49624 0.0
O128 O 0.72313 0.84912 0.48681 0.0
O129 O 0.76254 0.88338 0.35178 0.0
O130 O 0.74031 0.89252 0.39391 0.0
O131 O 0.77797 0.84887 0.37711 0.0
O132 O 0.75316 0.80758 0.25683 0.0
C133 C 0.70211 0.78493 0.30442 0.0
O134 O 0.72247 0.86138 0.21312 0.0
O135 O 0.7277 0.82671 0.18093 0.0
C136 C 0.67711 0.87459 0.30853 0.0
C137 C 0.66474 0.91092 0.28344 0.0
C138 C 0.66869 0.89841 0.20613 0.0
C139 C 0.67487 0.88047 0.21859 0.0
C140 C 0.67358 0.88759 0.38639 0.0
C141 C 0.66755 0.90566 0.37424 0.0
C142 C 0.6818 0.8537 0.32081 0.0
C143 C 0.74123 0.85605 0.53811 0.0
C144 C 0.75822 0.90148 0.38661 0.0
C145 C 0.78182 0.81061 0.3507 0.0
C146 C 0.8016 0.78605 0.41865 0.0
C147 C 0.79688 0.80041 0.48579 0.0
C148 C 0.78698 0.81252 0.45197 0.0
C149 C 0.78629 0.79603 0.28358 0.0
C150 C 0.79606 0.78384 0.31706 0.0
C151 C 0.77265 0.82462 0.31355 0.0
H152 H 0.66684 0.90232 0.13571 0.0
H153 H 0.67752 0.87083 0.15714 0.0
H154 H 0.67504 0.88324 0.45609 0.0
H155 H 0.66439 0.91468 0.43467 0.0
H156 H 0.80076 0.80218 0.56421 0.0
H157 H 0.78357 0.8236 0.50499 0.0
H158 H 0.78251 0.79447 0.20531 0.0
H159 H 0.79971 0.77328 0.26377 0.0
Dy160 Dy 0.20394 0.84802 0.28188 0.0
Dy161 Dy 0.24524 0.8372 0.26978 0.0
C162 C 0.23741 0.84409 0.4515 0.0
O163 O 0.23437 0.89212 0.32721 0.0
O164 O 0.26054 0.88527 0.33488 0.0
O165 O 0.19246 0.84887 0.40226 0.0
O166 O 0.18402 0.86163 0.27897 0.0
O167 O 0.22207 0.8401 0.17895 0.0
O168 O 0.19806 0.84397 0.11831 0.0
O169 O 0.21525 0.79345 0.22981 0.0
O170 O 0.1887 0.79962 0.2208 0.0
O171 O 0.25645 0.8364 0.14822 0.0
O172 O 0.26568 0.82457 0.27243 0.0
C173 C 0.2539 0.90182 0.34657 0.0
O174 O 0.22715 0.8452 0.37301 0.0
O175 O 0.25119 0.8413 0.43337 0.0
C176 C 0.16011 0.84167 0.36009 0.0
C177 C 0.12178 0.81974 0.38087 0.0
C178 C 0.13282 0.8087 0.41116 0.0
C179 C 0.15185 0.81962 0.40117 0.0
C180 C 0.14869 0.85181 0.32626 0.0
C181 C 0.12973 0.84091 0.33614 0.0
C182 C 0.18124 0.85644 0.3605 0.0
C183 C 0.21187 0.84123 0.10037 0.0
C184 C 0.19573 0.78346 0.21217 0.0
C185 C 0.29018 0.84825 0.19807 0.0
C186 C 0.33109 0.87995 0.20522 0.0
C187 C 0.31671 0.88273 0.14684 0.0
C188 C 0.29646 0.86702 0.14316 0.0
C189 C 0.30455 0.84552 0.25626 0.0
C190 C 0.32475 0.86121 0.26003 0.0
C191 C 0.26862 0.83048 0.19202 0.0
H192 H 0.12721 0.79256 0.44665 0.0
H193 H 0.16032 0.81144 0.4285 0.0
H194 H 0.15473 0.86886 0.29476 0.0
H195 H 0.12148 0.84955 0.31054 0.0
H196 H 0.32113 0.89713 0.10424 0.0
H197 H 0.28573 0.86947 0.0968 0.0
H198 H 0.30012 0.83091 0.29813 0.0
H199 H 0.33527 0.85807 0.30413 0.0
Dy200 Dy 0.2354 0.33874 0.16545 0.0
Dy201 Dy 0.18279 0.26954 0.11288 0.0
C202 C 0.19555 0.28368 0.95043 0.0
O203 O 0.21273 0.34952 0.14262 0.0
O204 O 0.18016 0.30638 0.11195 0.0
O205 O 0.24987 0.34653 0.05602 0.0
O206 O 0.26365 0.38111 0.20172 0.0
O207 O 0.21026 0.30827 0.23781 0.0
O208 O 0.23984 0.34788 0.3314 0.0
O209 O 0.2055 0.2584 0.12808 0.0
O210 O 0.2387 0.30344 0.18272 0.0
O211 O 0.17043 0.25126 0.21892 0.0
O212 O 0.15054 0.23359 0.06171 0.0
C213 C 0.19263 0.3344 0.12345 0.0
O214 O 0.20739 0.30045 0.04438 0.0
O215 O 0.17883 0.26056 0.94719 0.0
C216 C 0.28601 0.38002 0.12164 0.0
C217 C 0.32496 0.39568 0.1249 0.0
C218 C 0.30868 0.38332 0.03259 0.0
C219 C 0.28945 0.37563 0.03109 0.0
C220 C 0.3021 0.39182 0.214 0.0
C221 C 0.32139 0.39959 0.21557 0.0
C222 C 0.26571 0.37274 0.11701 0.0
C223 C 0.22286 0.32565 0.33063 0.0
C224 C 0.22602 0.27471 0.16041 0.0
C225 C 0.13544 0.23322 0.18583 0.0
C226 C 0.10376 0.22784 0.24989 0.0
C227 C 0.12446 0.24715 0.3163 0.0
C228 C 0.14012 0.24981 0.28477 0.0
C229 C 0.11482 0.21444 0.11884 0.0
C230 C 0.09918 0.21185 0.15027 0.0
C231 C 0.15157 0.23387 0.15331 0.0
H232 H 0.31092 0.38034 0.96142 0.0
H233 H 0.27729 0.36661 0.9589 0.0
H234 H 0.29987 0.39528 0.28504 0.0
H235 H 0.33352 0.4087 0.28788 0.0
H236 H 0.12859 0.26013 0.39309 0.0
H237 H 0.15583 0.26455 0.33859 0.0
H238 H 0.11073 0.20123 0.04247 0.0
H239 H 0.08341 0.19655 0.09738 0.0
Dy240 Dy 0.41418 0.16779 0.69459 0.0
Dy241 Dy 0.37961 0.18133 0.61177 0.0
C242 C 0.36511 0.11789 0.60702 0.0
O243 O 0.41411 0.17412 0.54807 0.0
O244 O 0.38011 0.15309 0.48785 0.0
O245 O 0.42055 0.14182 0.76176 0.0
O246 O 0.44195 0.1711 0.70281 0.0
O247 O 0.41123 0.22279 0.65546 0.0
O248 O 0.43296 0.21625 0.75767 0.0
O249 O 0.38956 0.19994 0.77782 0.0
O250 O 0.40791 0.18176 0.82804 0.0
O251 O 0.37026 0.19746 0.5039 0.0
O252 O 0.35201 0.17903 0.59582 0.0
C253 C 0.39715 0.16257 0.47218 0.0
O254 O 0.38327 0.12505 0.60964 0.0
O255 O 0.36141 0.13746 0.62465 0.0
C256 C 0.45507 0.15623 0.82534 0.0
C257 C 0.48449 0.15021 0.93487 0.0
C258 C 0.46583 0.13923 0.95002 0.0
C259 C 0.45126 0.14212 0.89569 0.0
C260 C 0.47438 0.16921 0.81624 0.0
C261 C 0.48897 0.16635 0.87072 0.0
C262 C 0.43794 0.15231 0.74834 0.0
C263 C 0.42929 0.23294 0.72144 0.0
C264 C 0.39983 0.19578 0.8466 0.0
C265 C 0.33942 0.1959 0.47688 0.0
C266 C 0.31132 0.20653 0.38576 0.0
C267 C 0.33226 0.22501 0.39962 0.0
C268 C 0.3461 0.21959 0.44386 0.0
C269 C 0.31859 0.17728 0.46267 0.0
C270 C 0.30466 0.18237 0.4169 0.0
C271 C 0.3541 0.19063 0.52605 0.0
H272 H 0.46204 0.12711 0.00025 0.0
H273 H 0.43654 0.13172 0.90446 0.0
H274 H 0.47772 0.17995 0.76195 0.0
H275 H 0.50312 0.17495 0.85685 0.0
H276 H 0.33814 0.24411 0.37848 0.0
H277 H 0.36212 0.23431 0.45421 0.0
H278 H 0.31302 0.15861 0.48629 0.0
H279 H 0.28865 0.16724 0.40562 0.0
Dy280 Dy 0.91183 0.16903 0.63086 0.0
Dy281 Dy 0.87978 0.18385 0.68045 0.0
C282 C 0.9269 0.23512 0.72223 0.0
O283 O 0.92064 0.18309 0.79922 0.0
O284 O 0.88849 0.1682 0.79629 0.0
O285 O 0.93447 0.15979 0.65649 0.0
O286 O 0.92088 0.15898 0.50937 0.0
O287 O 0.86065 0.135 0.60309 0.0
O288 O 0.88575 0.12723 0.63061 0.0
O289 O 0.88622 0.1952 0.54693 0.0
O290 O 0.88585 0.15576 0.49652 0.0
O291 O 0.85138 0.17979 0.63236 0.0
O292 O 0.87317 0.20576 0.78747 0.0
C293 C 0.90698 0.17581 0.84234 0.0
O294 O 0.92829 0.21676 0.66154 0.0
O295 O 0.9112 0.22632 0.75172 0.0
C296 C 0.95396 0.16941 0.54883 0.0
C297 C 0.9886 0.18692 0.49387 0.0
C298 C 0.97848 0.20015 0.48019 0.0
C299 C 0.96133 0.19152 0.50752 0.0
C300 C 0.9643 0.1567 0.56458 0.0
C301 C 0.98142 0.16535 0.53762 0.0
C302 C 0.93426 0.15672 0.56448 0.0
C303 C 0.86635 0.11751 0.60435 0.0
C304 C 0.88469 0.17585 0.47536 0.0
C305 C 0.83824 0.18544 0.76018 0.0
C306 C 0.80733 0.17044 0.84284 0.0
C307 C 0.81676 0.15599 0.84297 0.0
C308 C 0.83219 0.16354 0.80233 0.0
C309 C 0.82859 0.19937 0.75826 0.0
C310 C 0.81333 0.19199 0.79897 0.0
C311 C 0.85525 0.19552 0.72263 0.0
H312 H 0.98373 0.21706 0.44783 0.0
H313 H 0.95357 0.20162 0.49401 0.0
H314 H 0.95871 0.13932 0.59478 0.0
H315 H 0.98861 0.15437 0.54793 0.0
H316 H 0.81258 0.13941 0.87664 0.0
H317 H 0.83956 0.15263 0.80509 0.0
H318 H 0.83306 0.21635 0.72625 0.0
H319 H 0.80619 0.20321 0.79583 0.0
Dy320 Dy 0.875 0.64808 0.6515 0.0
Dy321 Dy 0.92018 0.70945 0.69146 0.0
C322 C 0.87828 0.70324 0.61772 0.0
O323 O 0.88002 0.63643 0.50984 0.0
O324 O 0.90599 0.68334 0.52689 0.0
O325 O 0.84249 0.6132 0.57596 0.0
O326 O 0.85934 0.61815 0.72373 0.0
O327 O 0.9246 0.67442 0.66378 0.0
O328 O 0.89979 0.64332 0.71593 0.0
O329 O 0.9187 0.70438 0.83966 0.0
O330 O 0.88512 0.68489 0.78549 0.0
O331 O 0.95282 0.74087 0.77634 0.0
O332 O 0.93793 0.74714 0.65152 0.0
C333 C 0.89226 0.65522 0.47444 0.0
O334 O 0.86794 0.67466 0.58314 0.0
O335 O 0.89769 0.72052 0.67977 0.0
C336 C 0.82463 0.59949 0.68672 0.0
C337 C 0.79227 0.58868 0.75282 0.0
C338 C 0.80847 0.61745 0.7687 0.0
C339 C 0.82454 0.62281 0.73568 0.0
C340 C 0.80875 0.57095 0.67248 0.0
C341 C 0.79273 0.56557 0.70515 0.0
C342 C 0.84138 0.60437 0.65247 0.0
C343 C 0.91671 0.65283 0.69718 0.0
C344 C 0.90203 0.69558 0.85956 0.0
C345 C 0.97117 0.7601 0.67136 0.0
C346 C 1.00148 0.77035 0.58801 0.0
C347 C 0.99324 0.74771 0.62665 0.0
C348 C 0.97818 0.74255 0.66742 0.0
C349 C 0.97903 0.78226 0.63107 0.0
C350 C 0.99393 0.78727 0.58951 0.0
C351 C 0.95536 0.7552 0.71458 0.0
H352 H 0.80852 0.63571 0.8047 0.0
H353 H 0.83681 0.64506 0.74787 0.0
H354 H 0.80874 0.55275 0.63607 0.0
H355 H 0.78074 0.54323 0.69355 0.0
H356 H 0.99874 0.73437 0.62767 0.0
H357 H 0.97216 0.72496 0.69655 0.0
H358 H 0.97362 0.79576 0.63174 0.0
H359 H 0.99951 0.80443 0.55838 0.0
H360 H 0.10085 0.54288 0.77526 0.0
H361 H 0.0368 0.52526 0.24069 0.0
H362 H 0.03452 0.48857 0.64051 0.0
H363 H 0.10068 0.55871 0.33986 0.0
H364 H 0.03782 0.52746 0.41284 0.0
H365 H 0.10244 0.56218 0.63896 0.0
C366 C 0.08661 0.53484 0.71663 0.0
C367 C 0.06751 0.51355 0.71783 0.0
C368 C 0.05174 0.53504 0.39737 0.0
C369 C 0.06926 0.53596 0.56301 0.0
C370 C 0.05119 0.53403 0.29969 0.0
C371 C 0.06852 0.541 0.27666 0.0
C372 C 0.06975 0.54314 0.47093 0.0
C373 C 0.08687 0.55241 0.35497 0.0
C374 C 0.08755 0.54615 0.63966 0.0
C375 C 0.04958 0.50452 0.64139 0.0
N376 N 0.08693 0.55264 0.44863 0.0
N377 N 0.05089 0.51561 0.56643 0.0
H378 H 0.52764 0.46779 0.69355 0.0
H379 H 0.59144 0.48465 0.34075 0.0
H380 H 0.59316 0.5108 0.79254 0.0
H381 H 0.53383 0.47399 0.26048 0.0
H382 H 0.58601 0.47136 0.48817 0.0
H383 H 0.52456 0.44852 0.51989 0.0
C384 C 0.54132 0.47303 0.67887 0.0
C385 C 0.5608 0.49181 0.75638 0.0
C386 C 0.57437 0.4713 0.43674 0.0
C387 C 0.55731 0.46937 0.56052 0.0
C388 C 0.57753 0.4791 0.35355 0.0
C389 C 0.56356 0.48187 0.29254 0.0
C390 C 0.55717 0.46637 0.45781 0.0
C391 C 0.54545 0.47353 0.30944 0.0
C392 C 0.53952 0.46172 0.58045 0.0
C393 C 0.57794 0.49711 0.73439 0.0
N394 N 0.54292 0.46663 0.39193 0.0
N395 N 0.57584 0.48625 0.63809 0.0
H396 H 0.59797 0.0208 0.87625 0.0
H397 H 0.59516 0.10334 0.51829 0.0
H398 H 0.55611 0.0444 0.85792 0.0
H399 H 0.58603 0.02171 0.39309 0.0
H400 H 0.58727 0.0898 0.66319 0.0
H401 H 0.60014 0.02781 0.7157 0.0
C402 C 0.58903 0.02704 0.83747 0.0
C403 C 0.57664 0.03169 0.87906 0.0
C404 C 0.58684 0.07483 0.60332 0.0
C405 C 0.57977 0.04092 0.69927 0.0
C406 C 0.59142 0.08257 0.52142 0.0
C407 C 0.59104 0.06344 0.44406 0.0
C408 C 0.5827 0.04837 0.60915 0.0
C409 C 0.58623 0.03683 0.45119 0.0
C410 C 0.59029 0.03104 0.74641 0.0
C411 C 0.56556 0.04017 0.82701 0.0
N412 N 0.58257 0.03024 0.53331 0.0
N413 N 0.56769 0.0451 0.74054 0.0
H414 H 0.76728 0.85148 0.67132 0.0
H415 H 0.7317 0.89201 0.10094 0.0
H416 H 0.73248 0.88698 0.65516 0.0
H417 H 0.74661 0.83039 0.06332 0.0
H418 H 0.74662 0.90912 0.97765 0.0
H419 H 0.7746 0.86363 0.85338 0.0
C420 C 0.76146 0.86222 0.70653 0.0
C421 C 0.74837 0.86689 0.64838 0.0
C422 C 0.74686 0.89214 -0.00219 0.0
C423 C 0.75685 0.88109 0.85433 0.0
C424 C 0.7381 0.8821 0.06678 0.0
C425 C 0.73699 0.85874 0.08806 0.0
C426 C 0.75433 0.87852 0.9498 0.0
C427 C 0.74632 0.84756 0.04545 0.0
C428 C 0.76575 0.86933 0.81009 0.0
C429 C 0.74176 0.88171 0.69725 0.0
N430 N 0.7543 0.85722 0.97681 0.0
N431 N 0.74578 0.88786 0.79757 0.0
H432 H 0.20033 0.81776 0.47387 0.0
H433 H 0.249 0.86798 0.07821 0.0
H434 H 0.26532 0.86876 0.64368 0.0
H435 H 0.18397 0.81633 0.90803 0.0
H436 H 0.25537 0.86845 0.92041 0.0
H437 H 0.19397 0.81737 0.63172 0.0
C438 C 0.21328 0.82954 0.54487 0.0
C439 C 0.23339 0.84416 0.54636 0.0
C440 C 0.23967 0.85671 0.91716 0.0
C441 C 0.2263 0.84292 0.72725 0.0
C442 C 0.23604 0.85606 0.00715 0.0
C443 C 0.21592 0.84121 0.00555 0.0
C444 C 0.22302 0.84258 0.82471 0.0
C445 C 0.19972 0.82771 0.91219 0.0
C446 C 0.20966 0.82894 0.63489 0.0
C447 C 0.24958 0.85753 0.63962 0.0
N448 N 0.2036 0.82859 0.82551 0.0
N449 N 0.24571 0.85672 0.72635 0.0
H450 H 0.23562 0.36536 0.51544 0.0
H451 H 0.18171 0.24425 0.76313 0.0
H452 H 0.20333 0.27329 0.35892 0.0
H453 H 0.21836 0.33674 0.9288 0.0
H454 H 0.18856 0.25433 0.61307 0.0
H455 H 0.2293 0.35554 0.66695 0.0
C456 C 0.22703 0.34302 0.51273 0.0
C457 C 0.2193 0.31997 0.42315 0.0
C458 C 0.19531 0.27248 0.68244 0.0
C459 C 0.21212 0.30847 0.59674 0.0
C460 C 0.19138 0.26672 0.7682 0.0
C461 C 0.2 0.28971 0.85968 0.0
C462 C 0.20775 0.30153 0.68731 0.0
C463 C 0.21213 0.31838 0.86124 0.0
C464 C 0.2234 0.3374 0.59922 0.0
C465 C 0.20856 0.29151 0.42442 0.0
N466 N 0.21564 0.32348 0.77668 0.0
N467 N 0.20524 0.28655 0.50938 0.0
H468 H 0.36512 0.13854 0.29648 0.0
H469 H 0.4337 0.22805 0.0174 0.0
H470 H 0.43109 0.20153 0.4394 0.0
H471 H 0.36784 0.18085 0.90661 0.0
H472 H 0.43356 0.22482 0.18279 0.0
H473 H 0.36599 0.15591 0.15578 0.0
C474 C 0.37981 0.15584 0.29759 0.0
C475 C 0.39806 0.16868 0.37936 0.0
C476 C 0.41917 0.21582 0.12331 0.0
C477 C 0.39912 0.18911 0.22048 0.0
C478 C 0.4193 0.21794 0.0296 0.0
C479 C 0.40072 0.2042 0.94936 0.0
C480 C 0.40024 0.19907 0.13448 0.0
C481 C 0.38243 0.19148 0.96743 0.0
C482 C 0.38026 0.16606 0.21817 0.0
C483 C 0.41669 0.19091 0.37726 0.0
N484 N 0.38254 0.18843 0.05796 0.0
N485 N 0.41674 0.2005 0.29887 0.0
H486 H 0.8594 0.13879 0.28479 0.0
H487 H 0.93476 0.22291 0.01656 0.0
H488 H 0.91794 0.22169 0.45972 0.0
H489 H 0.88796 0.13 0.90029 0.0
H490 H 0.93051 0.22545 0.18065 0.0
H491 H 0.86895 0.13899 0.13633 0.0
C492 C 0.87406 0.15742 0.2907 0.0
C493 C 0.88777 0.18045 0.38308 0.0
C494 C 0.92163 0.20443 0.12002 0.0
C495 C 0.89939 0.18018 0.21613 0.0
C496 C 0.92432 0.20291 0.02733 0.0
C497 C 0.91164 0.1762 0.94576 0.0
C498 C 0.90595 0.17909 0.12895 0.0
C499 C 0.898 0.15096 0.96193 0.0
C500 C 0.87972 0.15729 0.20689 0.0
C501 C 0.90681 0.20389 0.38841 0.0
N502 N 0.89521 0.15309 0.05112 0.0
N503 N 0.91219 0.20311 0.3058 0.0
H504 H 0.92144 0.66011 0.40537 0.0
H505 H 0.86931 0.67558 0.91896 0.0
H506 H 0.85894 0.6326 0.30724 0.0
H507 H 0.92995 0.69558 0.00124 0.0
H508 H 0.86402 0.65513 0.05132 0.0
H509 H 0.9228 0.66508 0.24288 0.0
C510 C 0.90772 0.65394 0.34749 0.0
C511 C 0.89007 0.64604 0.36885 0.0
C512 C 0.87848 0.66394 0.0405 0.0
C513 C 0.89182 0.6532 0.18592 0.0
C514 C 0.88162 0.67595 0.96564 0.0
C515 C 0.90017 0.68752 0.94947 0.0
C516 C 0.89408 0.66368 0.10051 0.0
C517 C 0.91551 0.68725 0.01189 0.0
C518 C 0.90858 0.65719 0.25544 0.0
C519 C 0.87276 0.63861 0.29276 0.0
N520 N 0.91213 0.67555 0.08487 0.0
N521 N 0.87421 0.64306 0.20512 0.0
H522 H 0.15442 0.31656 0.12136 0.0
H523 H 0.16556 0.45657 0.03962 0.0
H524 H 0.20902 0.38768 0.10166 0.0
H525 H 0.11531 0.39182 0.10448 0.0
H526 H 0.18055 0.42981 0.04912 0.0
H527 H 0.1389 0.34228 0.10377 0.0
C528 C 0.16318 0.33757 0.11318 0.0
C529 C 0.18313 0.34997 0.1133 0.0
C530 C 0.16623 0.42143 0.06113 0.0
C531 C 0.16532 0.37956 0.0929 0.0
C532 C 0.15757 0.43657 0.0549 0.0
C533 C 0.13912 0.42639 0.07114 0.0
C534 C 0.15635 0.39586 0.08343 0.0
C535 C 0.12965 0.40061 0.09242 0.0
C536 C 0.15428 0.35228 0.10336 0.0
C537 C 0.19367 0.37733 0.10273 0.0
N538 N 0.13836 0.38624 0.09789 0.0
N539 N 0.18462 0.39117 0.09278 0.0
H540 H 0.64004 0.60061 0.21952 0.0
H541 H 0.66013 0.7523 0.21645 0.0
H542 H 0.59188 0.60975 0.10376 0.0
H543 H 0.70887 0.74499 0.34064 0.0
H544 H 0.63506 0.70016 0.17642 0.0
H545 H 0.66548 0.65325 0.26631 0.0
C546 C 0.63476 0.61364 0.20447 0.0
C547 C 0.6137 0.60056 0.15756 0.0
C548 C 0.65123 0.70991 0.21259 0.0
C549 C 0.64286 0.66102 0.21078 0.0
C550 C 0.66561 0.73978 0.23553 0.0
C551 C 0.68674 0.75323 0.28219 0.0
C552 C 0.65789 0.69307 0.23597 0.0
C553 C 0.69278 0.73568 0.30503 0.0
C554 C 0.64934 0.64374 0.23106 0.0
C555 C 0.60789 0.6187 0.1396 0.0
N556 N 0.67846 0.70656 0.28151 0.0
N557 N 0.62235 0.64787 0.16601 0.0
H558 H 0.43881 0.94964 0.04232 0.0
H559 H 0.36678 0.90629 0.36721 0.0
H560 H 0.45847 0.95297 0.34827 0.0
H561 H 0.3442 0.88965 0.04769 0.0
H562 H 0.40142 0.92868 0.36629 0.0
H563 H 0.40498 0.93266 0.04758 0.0
C564 C 0.43605 0.94684 0.11064 0.0
C565 C 0.45156 0.95263 0.19479 0.0
C566 C 0.38891 0.92025 0.29643 0.0
C567 C 0.41288 0.93352 0.20163 0.0
C568 C 0.36909 0.90733 0.29678 0.0
C569 C 0.35247 0.89577 0.20716 0.0
C570 C 0.39223 0.92174 0.20587 0.0
C571 C 0.35653 0.89842 0.11874 0.0
C572 C 0.41675 0.93727 0.1137 0.0
C573 C 0.44715 0.94914 0.2819 0.0
N574 N 0.37597 0.91097 0.12021 0.0
N575 N 0.42823 0.93972 0.28285 0.0
H576 H 0.52513 0.04519 0.04181 0.0
H577 H 0.52699 0.18355 0.0178 0.0
H578 H 0.58201 0.13218 0.16301 0.0
H579 H 0.47233 0.09664 0.93925 0.0
H580 H 0.54801 0.16654 0.06895 0.0
H581 H 0.50634 0.06488 -0.00072 0.0
C582 C 0.53378 0.06858 0.06028 0.0
C583 C 0.55532 0.08705 0.10746 0.0
C584 C 0.53142 0.15135 0.04122 0.0
C585 C 0.53346 0.10998 0.05772 0.0
C586 C 0.51942 0.161 0.01192 0.0
C587 C 0.49783 0.14157 0.97485 0.0
C588 C 0.52172 0.122 0.03216 0.0
C589 C 0.48886 0.11262 0.96911 0.0
C590 C 0.52292 0.07985 0.03563 0.0
C591 C 0.56544 0.11712 0.12721 0.0
N592 N 0.50081 0.10377 -0.00312 0.0
N593 N 0.5544 0.1277 0.10238 0.0
H594 H 0.96454 0.26203 0.7038 0.0
H595 H 0.99684 0.42362 0.9426 0.0
H596 H 0.92699 0.28071 0.82071 0.0
H597 H 0.03868 0.40577 0.8767 0.0
H598 H 0.97063 0.37131 0.8922 0.0
H599 H 0.99137 0.31446 0.76034 0.0
C600 C 0.96191 0.27712 0.74133 0.0
C601 C 0.94343 0.26687 0.75742 0.0
C602 C 0.98557 0.37882 0.88919 0.0
C603 C 0.97413 0.32703 0.82205 0.0
C604 C 1.00058 0.40875 0.91793 0.0
C605 C 0.02007 0.41922 0.91397 0.0
C606 C 0.98995 0.35906 0.85555 0.0
C607 C 0.02392 0.39877 0.88113 0.0
C608 C 0.97728 0.30708 0.77384 0.0
C609 C 0.94098 0.28753 0.80685 0.0
N610 N 0.00898 0.36969 0.85284 0.0
N611 N 0.9561 0.31659 0.83696 0.0
H612 H 0.75153 0.54473 0.64651 0.0
H613 H 0.71266 0.58366 0.07319 0.0
H614 H 0.79264 0.61829 0.92767 0.0
H615 H 0.67281 0.51306 0.78391 0.0
H616 H 0.74226 0.59701 0.02387 0.0
H617 H 0.72266 0.53322 0.69791 0.0
C618 C 0.75451 0.55843 0.71944 0.0
C619 C 0.7746 0.58239 0.78314 0.0
C620 C 0.72701 0.5787 0.97114 0.0
C621 C 0.74139 0.56948 0.84236 0.0
C622 C 0.71011 0.57097 -0.0006 0.0
C623 C 0.69015 0.54727 0.93245 0.0
C624 C 0.72395 0.56253 0.87543 0.0
C625 C 0.68781 0.5318 0.83745 0.0
C626 C 0.73796 0.55193 0.74856 0.0
C627 C 0.77741 0.5997 0.87587 0.0
N628 N 0.70446 0.53967 0.81205 0.0
N629 N 0.76099 0.59283 0.90293 0.0
H630 H 0.91296 0.62053 0.81779 0.0
H631 H 0.98907 0.58656 0.68573 0.0
H632 H 0.94554 0.65564 0.62502 0.0
H633 H 0.97137 0.57557 0.94344 0.0
H634 H 0.97147 0.60911 0.65414 0.0
H635 H 0.932 0.60015 0.85469 0.0
C636 C 0.92402 0.62379 0.78274 0.0
C637 C 0.92764 0.63971 0.71801 0.0
C638 C 0.97156 0.60191 0.71795 0.0
C639 C 0.94945 0.61651 0.75992 0.0
C640 C 0.98173 0.58921 0.73654 0.0
C641 C 0.9817 0.57907 0.81737 0.0
C642 C 0.96112 0.60428 0.78002 0.0
C643 C 0.97153 0.5826 0.87926 0.0
C644 C 0.93498 0.61233 0.80437 0.0
C645 C 0.94231 0.64355 0.67554 0.0
N646 N 0.96155 0.59475 0.85894 0.0
N647 N 0.95261 0.63189 0.69683 0.0
H648 H 0.49856 0.42042 0.90879 0.0
H649 H 0.47057 0.26129 0.82471 0.0
H650 H 0.54489 0.4049 0.94768 0.0
H651 H 0.42655 0.2769 0.69866 0.0
H652 H 0.49797 0.31375 0.88369 0.0
H653 H 0.472 0.36794 0.84534 0.0
C654 C 0.50318 0.40596 0.90413 0.0
C655 C 0.52403 0.41713 0.93383 0.0
C656 C 0.48232 0.30562 0.84273 0.0
C657 C 0.49352 0.35673 0.86137 0.0
C658 C 0.46664 0.27569 0.80933 0.0
C659 C 0.44617 0.26458 0.75647 0.0
C660 C 0.47748 0.32466 0.82444 0.0
C661 C 0.44206 0.28436 0.73864 0.0
C662 C 0.48796 0.37593 0.8674 0.0
C663 C 0.52901 0.39723 0.9252 0.0
N664 N 0.45753 0.31338 0.77304 0.0
N665 N 0.51385 0.36796 0.89044 0.0
H666 H 0.77504 0.11665 0.83048 0.0
H667 H 0.72928 0.18447 0.12911 0.0
H668 H 0.80348 0.20885 0.96094 0.0
H669 H 0.69856 0.09162 -0.00452 0.0
H670 H 0.75742 0.19324 0.07526 0.0
H671 H 0.74797 0.10654 0.89805 0.0
C672 C 0.77571 0.13477 0.87397 0.0
C673 C 0.79147 0.16365 0.88887 0.0
C674 C 0.74458 0.17091 0.05777 0.0
C675 C 0.76045 0.15222 0.96581 0.0
C676 C 0.72849 0.16585 0.08923 0.0
C677 C 0.71144 0.13722 0.06736 0.0
C678 C 0.74376 0.14722 0.00336 0.0
C679 C 0.71124 0.11407 0.01322 0.0
C680 C 0.76017 0.12897 0.91201 0.0
C681 C 0.79144 0.18622 0.94555 0.0
N682 N 0.72713 0.11956 0.98306 0.0
N683 N 0.7762 0.18002 0.98142 0.0
H684 H 0.64064 0.04117 0.33563 0.0
H685 H 0.6346 0.89829 0.1162 0.0
H686 H 0.58676 0.96208 0.09936 0.0
H687 H 0.67628 0.96242 0.41578 0.0
H688 H 0.61992 0.92518 0.09577 0.0
H689 H 0.65665 0.01582 0.35482 0.0
C690 C 0.63221 0.01852 0.28765 0.0
C691 C 0.61234 1.0037 0.21569 0.0
C692 C 0.6323 0.93337 0.16591 0.0
C693 C 0.63063 0.9748 0.23656 0.0
C694 C 0.64081 0.9182 0.17727 0.0
C695 C 0.65667 0.92811 0.26791 0.0
C696 C 0.63982 0.95881 0.24531 0.0
C697 C 0.66394 0.95387 0.34504 0.0
C698 C 0.64132 1.00408 0.29891 0.0
C699 C 0.60205 0.9743 0.15612 0.0
N700 N 0.65548 0.96838 0.33195 0.0
N701 N 0.61137 0.96088 0.1674 0.0
H702 H 0.20324 0.74273 0.21927 0.0
H703 H 0.08453 0.60678 0.99026 0.0
H704 H 0.15356 0.75102 0.13778 0.0
H705 H 0.13361 0.60183 0.1321 0.0
H706 H 0.10977 0.65899 0.03151 0.0
H707 H 0.17806 0.69038 0.17476 0.0
C708 C 0.18706 0.7336 0.19156 0.0
C709 C 0.18056 0.75146 0.18235 0.0
C710 C 0.11501 0.64648 0.05377 0.0
C711 C 0.15163 0.69135 0.13133 0.0
C712 C 0.1006 0.61663 0.0301 0.0
C713 C 0.10692 0.59984 0.05802 0.0
C714 C 0.13593 0.65967 0.10498 0.0
C715 C 0.12799 0.61389 0.10952 0.0
C716 C 0.17269 0.70367 0.16659 0.0
C717 C 0.15934 0.73824 0.14652 0.0
N718 N 0.14174 0.64296 0.13108 0.0
N719 N 0.14566 0.709 0.12217 0.0
H720 H 0.42644 0.42197 0.9549 0.0
H721 H 0.36231 0.44539 0.25717 0.0
H722 H 0.45395 0.49491 0.23065 0.0
H723 H 0.3351 0.36879 -0.00473 0.0
H724 H 0.39616 0.4628 0.25239 0.0
H725 H 0.39298 0.40133 0.97078 0.0
C726 C 0.42545 0.43363 0.01888 0.0
C727 C 0.44304 0.4603 0.0913 0.0
C728 C 0.38281 0.44209 0.19628 0.0
C729 C 0.40478 0.43672 0.11024 0.0
C730 C 0.36345 0.43201 0.19937 0.0
C731 C 0.34576 0.40558 0.12635 0.0
C732 C 0.38457 0.42571 0.11937 0.0
C733 C 0.34824 0.3895 0.05218 0.0
C734 C 0.40636 0.42176 0.02818 0.0
C735 C 0.44087 0.47418 0.17348 0.0
N736 N 0.36725 0.39988 0.05032 0.0
N737 N 0.42209 0.46233 0.18033 0.0
H738 H 0.84119 0.67573 0.46644 0.0
H739 H 0.83467 0.81066 0.59388 0.0
H740 H 0.88998 0.75911 0.70227 0.0
H741 H 0.79359 0.73355 0.32314 0.0
H742 H 0.85358 0.79085 0.64485 0.0
H743 H 0.82231 0.69562 0.42158 0.0
C744 C 0.84797 0.69827 0.50896 0.0
C745 C 0.86722 0.71577 0.5885 0.0
C746 C 0.84043 0.77832 0.57431 0.0
C747 C 0.84552 0.7387 0.53743 0.0
C748 C 0.82953 0.78947 0.5456 0.0
C749 C 0.81258 0.77378 0.45384 0.0
C750 C 0.83422 0.75119 0.51117 0.0
C751 C 0.80673 0.74658 0.39377 0.0
C752 C 0.83716 0.70963 0.48307 0.0
C753 C 0.87522 0.74487 0.64027 0.0
N754 N 0.81752 0.73617 0.42348 0.0
N755 N 0.86429 0.75541 0.61411 0.0
H756 H 0.32349 0.09167 0.55314 0.0
H757 H 0.29546 0.93083 0.40095 0.0
H758 H 0.36781 0.07229 0.58377 0.0
H759 H 0.24919 0.94629 0.38175 0.0
H760 H 0.32178 0.98301 0.46588 0.0
H761 H 0.29581 0.0391 0.48974 0.0
C762 C 0.32743 0.07645 0.54732 0.0
C763 C 0.34805 0.08647 0.5738 0.0
C764 C 0.30589 0.97511 0.4477 0.0
C765 C 0.3165 0.02643 0.50104 0.0
C766 C 0.29074 0.94513 0.41026 0.0
C767 C 0.26993 0.93389 0.38568 0.0
C768 C 0.3004 0.99437 0.46099 0.0
C769 C 0.265 0.95386 0.39974 0.0
C770 C 0.31162 0.04646 0.51084 0.0
C771 C 0.3522 0.0657 0.56399 0.0
N772 N 0.28013 0.98315 0.43646 0.0
N773 N 0.33661 0.0368 0.52839 0.0
H774 H 0.02407 0.19386 0.59086 0.0
H775 H 0.0683 0.2209 0.14869 0.0
H776 H 0.99333 0.1979 0.32066 0.0
H777 H 0.10071 0.22428 0.43239 0.0
H778 H 0.04048 0.21193 0.20798 0.0
H779 H 0.05203 0.20445 0.53185 0.0
C780 C 0.02317 0.19695 0.51899 0.0
C781 C 1.00623 0.19489 0.46068 0.0
C782 C 0.05373 0.21478 0.25738 0.0
C783 C 0.03844 0.20731 0.39262 0.0
C784 C 0.06959 0.21976 0.22339 0.0
C785 C 0.08696 0.22344 0.28564 0.0
C786 C 0.05515 0.21328 0.35418 0.0
C787 C 0.08782 0.22203 0.38218 0.0
C788 C 0.03923 0.20316 0.48551 0.0
C789 C 1.00615 0.19958 0.36879 0.0
N790 N 0.07216 0.21698 0.41316 0.0
N791 N 0.02194 0.20543 0.33742 0.0
H792 H 0.27811 0.19732 0.43255 0.0
H793 H 0.26065 0.28764 0.12784 0.0
H794 H 0.31093 0.2304 0.23797 0.0
H795 H 0.21491 0.22969 0.23135 0.0
H796 H 0.27984 0.268 0.17222 0.0
H797 H 0.25528 0.20972 0.36438 0.0
C798 C 0.28044 0.20683 0.37469 0.0
C799 C 0.29668 0.21287 0.34162 0.0
C800 C 0.2655 0.2593 0.18427 0.0
C801 C 0.27071 0.22779 0.26496 0.0
C802 C 0.25456 0.27054 0.15913 0.0
C803 C 0.23618 0.26026 0.17606 0.0
C804 C 0.25828 0.238 0.22873 0.0
C805 C 0.22894 0.23803 0.21643 0.0
C806 C 0.2674 0.21404 0.33616 0.0
C807 C 0.29901 0.22585 0.26782 0.0
N808 N 0.24017 0.22789 0.24276 0.0
N809 N 0.28631 0.23308 0.23278 0.0
H810 H 0.75245 0.94445 0.41153 0.0
H811 H 0.87195 0.07445 0.58986 0.0
H812 H 0.79956 0.93101 0.42676 0.0
H813 H 0.82439 0.0876 0.54479 0.0
H814 H 0.84569 0.02204 0.53439 0.0
H815 H 0.77854 0.99692 0.46291 0.0
C816 C 0.76829 0.95252 0.42585 0.0
C817 C 0.77383 0.93326 0.41513 0.0
C818 C 0.84097 0.03636 0.53651 0.0
C819 C 0.80382 0.99345 0.47452 0.0
C820 C 0.85599 0.06639 0.5685 0.0
C821 C 0.85043 0.08562 0.5723 0.0
C822 C 0.82016 0.02531 0.50821 0.0
C823 C 0.82944 0.0737 0.54332 0.0
C824 C 0.78318 0.98251 0.45499 0.0
C825 C 0.79456 0.945 0.43376 0.0
N826 N 0.81509 0.04434 0.51265 0.0
N827 N 0.80881 0.97432 0.46303 0.0
H828 H 0.03458 0.82409 0.60925 0.0
H829 H 0.08965 0.76482 0.36025 0.0
H830 H 1.0073 0.73215 0.48085 0.0
H831 H 0.11094 0.85471 0.45224 0.0
H832 H 0.05949 0.75187 0.40423 0.0
H833 H 0.06255 0.83515 0.55091 0.0
C834 C 0.03429 0.80613 0.56778 0.0
C835 C 0.01839 0.77708 0.54996 0.0
C836 C 0.07072 0.77438 0.41408 0.0
C837 C 0.05092 0.78978 0.48453 0.0
C838 C 0.08797 0.7818 0.38948 0.0
C839 C 0.10285 0.81089 0.40231 0.0
C840 C 0.06844 0.79625 0.45271 0.0
C841 C 0.09977 0.83194 0.4396 0.0
C842 C 0.05042 0.81251 0.53501 0.0
C843 C 0.0193 0.75489 0.49776 0.0
N844 N 0.08301 0.82423 0.46382 0.0
N845 N 0.03532 0.7617 0.46722 0.0
loop_
_geom_bond_atom_site_label_1
_geom_bond_atom_site_label_2
_geom_bond_distance
_geom_bond_site_symmetry_2
_ccdc_geom_bond_type
Dy0 O3 2.307 . S
Dy0 O5 2.395 . S
Dy0 O6 2.379 1_556 S
Dy0 O8 2.339 1_556 S
Dy0 O10 2.298 1_556 S
Dy0 O14 2.275 . S
Dy0 C22 2.738 . S
Dy1 O4 2.298 1_554 S
Dy1 O7 2.275 . S
Dy1 O9 2.307 . S
Dy1 O11 2.395 . S
Dy1 O12 2.379 1_554 S
Dy1 O15 2.339 1_554 S
Dy1 C31 2.738 . S
C2 O14 1.254 . S
C2 O15 1.257 . S
O3 Dy0 2.307 . S
O3 C13 1.266 . S
O4 Dy1 2.298 1_556 S
O4 C13 1.236 . S
O5 Dy0 2.395 . S
O5 C22 1.255 . S
O6 Dy0 2.379 1_554 S
O6 C22 1.249 1_554 S
O7 Dy1 2.275 . S
O7 C23 1.254 . S
O8 Dy0 2.339 1_554 S
O8 C23 1.257 . S
O9 Dy1 2.307 . S
O9 C24 1.266 . S
O10 Dy0 2.298 1_554 S
O10 C24 1.236 . S
O11 Dy1 2.395 . S
O11 C31 1.255 . S
O12 Dy1 2.379 1_556 S
O12 C31 1.249 1_556 S
C13 O3 1.266 . S
C13 O4 1.236 . S
O14 Dy0 2.275 . S
O14 C2 1.254 . S
O15 Dy1 2.339 1_556 S
O15 C2 1.257 . S
C16 C19 1.345 . S
C16 C20 1.317 1_456 S
C16 C22 1.525 . S
C17 C18 1.304 . S
C17 C21 1.323 . S
C18 C17 1.304 . S
C18 C19 1.371 1_655 S
C18 H32 0.936 . S
C19 C16 1.345 . S
C19 C18 1.371 1_455 S
C19 H33 0.931 . S
C20 C16 1.317 1_654 S
C20 C21 1.433 1_554 S
C20 H34 0.931 . S
C21 C17 1.323 . S
C21 C20 1.433 1_556 S
C21 H35 0.933 1_556 S
C22 Dy0 2.738 . S
C22 O5 1.255 . S
C22 O6 1.249 1_556 S
C22 C16 1.525 . S
C23 O7 1.254 . S
C23 O8 1.257 . S
C24 O9 1.266 . S
C24 O10 1.236 . S
C25 C28 1.344 . S
C25 C29 1.328 1_554 S
C25 C31 1.516 . S
C26 C27 1.304 . S
C26 C30 1.323 . S
C27 C26 1.304 . S
C27 C28 1.371 . S
C27 H36 0.930 . S
C28 C25 1.344 . S
C28 C27 1.371 . S
C28 H37 0.931 . S
C29 C25 1.328 1_556 S
C29 C30 1.433 1_556 S
C29 H38 0.931 . S
C30 C26 1.323 . S
C30 C29 1.433 1_554 S
C30 H39 0.933 1_554 S
C31 Dy1 2.738 . S
C31 O11 1.255 . S
C31 O12 1.249 1_554 S
C31 C25 1.516 . S
H32 C18 0.936 . S
H33 C19 0.931 . S
H34 C20 0.931 . S
H35 C21 0.933 1_554 S
H36 C27 0.930 . S
H37 C28 0.931 . S
H38 C29 0.931 . S
H39 C30 0.933 1_556 S
Dy40 O43 2.307 . S
Dy40 O45 2.395 . S
Dy40 O46 2.379 1_554 S
Dy40 O48 2.339 1_554 S
Dy40 O50 2.298 . S
Dy40 O54 2.275 . S
Dy40 C62 2.738 . S
Dy41 O44 2.298 . S
Dy41 O47 2.275 1_554 S
Dy41 O49 2.307 . S
Dy41 O51 2.395 . S
Dy41 O52 2.379 . S
Dy41 O55 2.339 . S
Dy41 C71 2.738 . S
C42 O54 1.254 . S
C42 O55 1.257 . S
O43 Dy40 2.307 . S
O43 C53 1.266 . S
O44 Dy41 2.298 . S
O44 C53 1.236 . S
O45 Dy40 2.395 . S
O45 C62 1.255 . S
O46 Dy40 2.379 1_556 S
O46 C62 1.249 1_556 S
O47 Dy41 2.275 1_556 S
O47 C63 1.254 . S
O48 Dy40 2.339 1_556 S
O48 C63 1.257 . S
O49 Dy41 2.307 . S
O49 C64 1.266 . S
O50 Dy40 2.298 . S
O50 C64 1.236 . S
O51 Dy41 2.395 . S
O51 C71 1.255 . S
O52 Dy41 2.379 . S
O52 C71 1.249 . S
C53 O43 1.266 . S
C53 O44 1.236 . S
O54 Dy40 2.275 . S
O54 C42 1.254 . S
O55 Dy41 2.339 . S
O55 C42 1.257 . S
C56 C59 1.344 . S
C56 C60 1.325 1_554 S
C56 C62 1.516 . S
C57 C58 1.304 . S
C57 C61 1.323 . S
C58 C57 1.304 . S
C58 C59 1.371 . S
C58 H72 0.930 . S
C59 C56 1.344 . S
C59 C58 1.371 . S
C59 H73 0.931 . S
C60 C56 1.325 1_556 S
C60 C61 1.430 1_556 S
C60 H74 0.936 . S
C61 C57 1.323 . S
C61 C60 1.430 1_554 S
C61 H75 0.933 1_554 S
C62 Dy40 2.738 . S
C62 O45 1.255 . S
C62 O46 1.249 1_554 S
C62 C56 1.516 . S
C63 O47 1.254 . S
C63 O48 1.257 . S
C64 O49 1.266 . S
C64 O50 1.236 . S
C65 C68 1.344 . S
C65 C69 1.328 . S
C65 C71 1.516 . S
C66 C67 1.304 . S
C66 C70 1.323 . S
C67 C66 1.304 . S
C67 C68 1.371 . S
C67 H76 0.930 1_554 S
C68 C65 1.344 . S
C68 C67 1.371 . S
C68 H77 0.931 1_554 S
C69 C65 1.328 . S
C69 C70 1.433 . S
C69 H78 0.931 . S
C70 C66 1.323 . S
C70 C69 1.433 . S
C70 H79 0.933 . S
C71 Dy41 2.738 . S
C71 O51 1.255 . S
C71 O52 1.249 . S
C71 C65 1.516 . S
H72 C58 0.930 . S
H73 C59 0.931 . S
H74 C60 0.936 . S
H75 C61 0.933 1_556 S
H76 C67 0.930 1_556 S
H77 C68 0.931 1_556 S
H78 C69 0.931 . S
H79 C70 0.933 . S
Dy80 O83 2.307 . S
Dy80 O85 2.395 . S
Dy80 O86 2.379 . S
Dy80 O88 2.339 . S
Dy80 O90 2.298 . S
Dy80 O94 2.275 . S
Dy80 C102 2.738 . S
Dy81 O84 2.298 . S
Dy81 O87 2.275 . S
Dy81 O89 2.307 . S
Dy81 O91 2.395 . S
Dy81 O92 2.379 1_545 S
Dy81 O95 2.339 . S
Dy81 C111 2.738 1_545 S
C82 O94 1.254 . S
C82 O95 1.257 . S
O83 Dy80 2.307 . S
O83 C93 1.266 . S
O84 Dy81 2.298 . S
O84 C93 1.236 . S
O85 Dy80 2.395 . S
O85 C102 1.255 . S
O86 Dy80 2.379 . S
O86 C102 1.249 . S
O87 Dy81 2.275 . S
O87 C103 1.254 . S
O88 Dy80 2.339 . S
O88 C103 1.257 . S
O89 Dy81 2.307 . S
O89 C104 1.266 . S
O90 Dy80 2.298 . S
O90 C104 1.236 . S
O91 Dy81 2.395 . S
O91 C111 1.255 1_545 S
O92 Dy81 2.379 1_565 S
O92 C111 1.249 . S
C93 O83 1.266 . S
C93 O84 1.236 . S
O94 Dy80 2.275 . S
O94 C82 1.254 . S
O95 Dy81 2.339 . S
O95 C82 1.257 . S
C96 C99 1.344 . S
C96 C100 1.328 . S
C96 C102 1.516 . S
C97 C98 1.304 . S
C97 C101 1.323 . S
C98 C97 1.304 . S
C98 C99 1.371 . S
C98 H112 0.930 . S
C99 C96 1.344 . S
C99 C98 1.371 . S
C99 H113 0.931 . S
C100 C96 1.328 . S
C100 C101 1.433 . S
C100 H114 0.931 . S
C101 C97 1.323 . S
C101 C100 1.433 . S
C101 H115 0.933 . S
C102 Dy80 2.738 . S
C102 O85 1.255 . S
C102 O86 1.249 . S
C102 C96 1.516 . S
C103 O87 1.254 . S
C103 O88 1.257 . S
C104 O89 1.266 . S
C104 O90 1.236 . S
C105 C108 1.344 . S
C105 C109 1.328 . S
C105 C111 1.516 . S
C106 C107 1.304 . S
C106 C110 1.323 . S
C107 C106 1.304 . S
C107 C108 1.371 . S
C107 H116 0.930 . S
C108 C105 1.344 . S
C108 C107 1.371 . S
C108 H117 0.931 1_565 S
C109 C105 1.328 . S
C109 C110 1.433 . S
C109 H118 0.931 . S
C110 C106 1.323 . S
C110 C109 1.433 . S
C110 H119 0.933 . S
C111 Dy81 2.738 1_565 S
C111 O91 1.255 1_565 S
C111 O92 1.249 . S
C111 C105 1.516 . S
H112 C98 0.930 . S
H113 C99 0.931 . S
H114 C100 0.931 . S
H115 C101 0.933 . S
H116 C107 0.930 . S
H117 C108 0.931 1_545 S
H118 C109 0.931 . S
H119 C110 0.933 . S
Dy120 O123 2.307 . S
Dy120 O125 2.395 . S
Dy120 O126 2.379 . S
Dy120 O128 2.339 . S
Dy120 O130 2.298 . S
Dy120 O134 2.275 . S
Dy120 C142 2.738 . S
Dy121 O124 2.298 . S
Dy121 O127 2.275 . S
Dy121 O129 2.307 . S
Dy121 O131 2.395 . S
Dy121 O132 2.379 . S
Dy121 O135 2.339 . S
Dy121 C151 2.738 . S
C122 O134 1.254 . S
C122 O135 1.257 . S
O123 Dy120 2.307 . S
O123 C133 1.266 . S
O124 Dy121 2.298 . S
O124 C133 1.236 . S
O125 Dy120 2.395 . S
O125 C142 1.255 . S
O126 Dy120 2.379 . S
O126 C142 1.249 . S
O127 Dy121 2.275 . S
O127 C143 1.254 . S
O128 Dy120 2.339 . S
O128 C143 1.257 . S
O129 Dy121 2.307 . S
O129 C144 1.266 . S
O130 Dy120 2.298 . S
O130 C144 1.236 . S
O131 Dy121 2.395 . S
O131 C151 1.255 . S
O132 Dy121 2.379 . S
O132 C151 1.249 . S
C133 O123 1.266 . S
C133 O124 1.236 . S
O134 Dy120 2.275 . S
O134 C122 1.254 . S
O135 Dy121 2.339 . S
O135 C122 1.257 . S
C136 C139 1.344 . S
C136 C140 1.328 . S
C136 C142 1.516 . S
C137 C138 1.304 . S
C137 C141 1.323 . S
C138 C137 1.304 . S
C138 C139 1.371 . S
C138 H152 0.930 . S
C139 C136 1.344 . S
C139 C138 1.371 . S
C139 H153 0.931 . S
C140 C136 1.328 . S
C140 C141 1.433 . S
C140 H154 0.931 . S
C141 C137 1.323 . S
C141 C140 1.433 . S
C141 H155 0.933 . S
C142 Dy120 2.738 . S
C142 O125 1.255 . S
C142 O126 1.249 . S
C142 C136 1.516 . S
C143 O127 1.254 . S
C143 O128 1.257 . S
C144 O129 1.266 . S
C144 O130 1.236 . S
C145 C148 1.344 . S
C145 C149 1.328 . S
C145 C151 1.516 . S
C146 C147 1.304 . S
C146 C150 1.323 . S
C147 C146 1.304 . S
C147 C148 1.371 . S
C147 H156 0.930 . S
C148 C145 1.344 . S
C148 C147 1.371 . S
C148 H157 0.931 . S
C149 C145 1.328 . S
C149 C150 1.433 . S
C149 H158 0.931 . S
C150 C146 1.323 . S
C150 C149 1.433 . S
C150 H159 0.933 . S
C151 Dy121 2.738 . S
C151 O131 1.255 . S
C151 O132 1.249 . S
C151 C145 1.516 . S
H152 C138 0.930 . S
H153 C139 0.931 . S
H154 C140 0.931 . S
H155 C141 0.933 . S
H156 C147 0.930 . S
H157 C148 0.931 . S
H158 C149 0.931 . S
H159 C150 0.933 . S
Dy160 O163 2.307 . S
Dy160 O165 2.395 . S
Dy160 O166 2.379 . S
Dy160 O168 2.339 . S
Dy160 O170 2.298 . S
Dy160 O174 2.275 . S
Dy160 C182 2.738 . S
Dy161 O164 2.298 . S
Dy161 O167 2.275 . S
Dy161 O169 2.307 . S
Dy161 O171 2.395 . S
Dy161 O172 2.379 . S
Dy161 O175 2.339 . S
Dy161 C191 2.738 . S
C162 O174 1.254 . S
C162 O175 1.257 . S
O163 Dy160 2.307 . S
O163 C173 1.266 . S
O164 Dy161 2.298 . S
O164 C173 1.236 . S
O165 Dy160 2.395 . S
O165 C182 1.255 . S
O166 Dy160 2.379 . S
O166 C182 1.249 . S
O167 Dy161 2.275 . S
O167 C183 1.254 . S
O168 Dy160 2.339 . S
O168 C183 1.257 . S
O169 Dy161 2.307 . S
O169 C184 1.266 . S
O170 Dy160 2.298 . S
O170 C184 1.236 . S
O171 Dy161 2.395 . S
O171 C191 1.255 . S
O172 Dy161 2.379 . S
O172 C191 1.249 . S
C173 O163 1.266 . S
C173 O164 1.236 . S
O174 Dy160 2.275 . S
O174 C162 1.254 . S
O175 Dy161 2.339 . S
O175 C162 1.257 . S
C176 C179 1.344 . S
C176 C180 1.328 . S
C176 C182 1.516 . S
C177 C178 1.304 . S
C177 C181 1.323 . S
C178 C177 1.304 . S
C178 C179 1.371 . S
C178 H192 0.930 . S
C179 C176 1.344 . S
C179 C178 1.371 . S
C179 H193 0.931 . S
C180 C176 1.328 . S
C180 C181 1.433 . S
C180 H194 0.931 . S
C181 C177 1.323 . S
C181 C180 1.433 . S
C181 H195 0.933 . S
C182 Dy160 2.738 . S
C182 O165 1.255 . S
C182 O166 1.249 . S
C182 C176 1.516 . S
C183 O167 1.254 . S
C183 O168 1.257 . S
C184 O169 1.266 . S
C184 O170 1.236 . S
C185 C188 1.344 . S
C185 C189 1.328 . S
C185 C191 1.516 . S
C186 C187 1.304 . S
C186 C190 1.323 . S
C187 C186 1.304 . S
C187 C188 1.371 . S
C187 H196 0.930 . S
C188 C185 1.344 . S
C188 C187 1.371 . S
C188 H197 0.931 . S
C189 C185 1.328 . S
C189 C190 1.433 . S
C189 H198 0.931 . S
C190 C186 1.323 . S
C190 C189 1.433 . S
C190 H199 0.933 . S
C191 Dy161 2.738 . S
C191 O171 1.255 . S
C191 O172 1.249 . S
C191 C185 1.516 . S
H192 C178 0.930 . S
H193 C179 0.931 . S
H194 C180 0.931 . S
H195 C181 0.933 . S
H196 C187 0.930 . S
H197 C188 0.931 . S
H198 C189 0.931 . S
H199 C190 0.933 . S
Dy200 O203 2.307 . S
Dy200 O205 2.395 . S
Dy200 O206 2.379 . S
Dy200 O208 2.339 . S
Dy200 O210 2.298 . S
Dy200 O214 2.275 . S
Dy200 C222 2.738 . S
Dy201 O204 2.298 . S
Dy201 O207 2.275 . S
Dy201 O209 2.307 . S
Dy201 O211 2.395 . S
Dy201 O212 2.379 1_554 S
Dy201 O215 2.339 1_554 S
Dy201 C231 2.738 . S
C202 O214 1.254 1_556 S
C202 O215 1.257 . S
O203 Dy200 2.307 . S
O203 C213 1.266 . S
O204 Dy201 2.298 . S
O204 C213 1.236 . S
O205 Dy200 2.395 . S
O205 C222 1.255 . S
O206 Dy200 2.379 . S
O206 C222 1.249 . S
O207 Dy201 2.275 . S
O207 C223 1.254 . S
O208 Dy200 2.339 . S
O208 C223 1.257 . S
O209 Dy201 2.307 . S
O209 C224 1.266 . S
O210 Dy200 2.298 . S
O210 C224 1.236 . S
O211 Dy201 2.395 . S
O211 C231 1.255 . S
O212 Dy201 2.379 1_556 S
O212 C231 1.249 1_556 S
C213 O203 1.266 . S
C213 O204 1.236 . S
O214 Dy200 2.275 . S
O214 C202 1.254 1_554 S
O215 Dy201 2.339 1_556 S
O215 C202 1.257 . S
C216 C219 1.344 . S
C216 C220 1.328 . S
C216 C222 1.516 . S
C217 C218 1.304 . S
C217 C221 1.323 . S
C218 C217 1.304 . S
C218 C219 1.371 . S
C218 H232 0.930 . S
C219 C216 1.344 . S
C219 C218 1.371 . S
C219 H233 0.931 . S
C220 C216 1.328 . S
C220 C221 1.433 . S
C220 H234 0.931 . S
C221 C217 1.323 . S
C221 C220 1.433 . S
C221 H235 0.933 . S
C222 Dy200 2.738 . S
C222 O205 1.255 . S
C222 O206 1.249 . S
C222 C216 1.516 . S
C223 O207 1.254 . S
C223 O208 1.257 . S
C224 O209 1.266 . S
C224 O210 1.236 . S
C225 C228 1.344 . S
C225 C229 1.328 1_554 S
C225 C231 1.516 . S
C226 C227 1.304 . S
C226 C230 1.323 1_554 S
C227 C226 1.304 . S
C227 C228 1.371 . S
C227 H236 0.930 . S
C228 C225 1.344 . S
C228 C227 1.371 . S
C228 H237 0.931 . S
C229 C225 1.328 1_556 S
C229 C230 1.433 . S
C229 H238 0.931 . S
C230 C226 1.323 1_556 S
C230 C229 1.433 . S
C230 H239 0.933 . S
C231 Dy201 2.738 . S
C231 O211 1.255 . S
C231 O212 1.249 1_554 S
C231 C225 1.516 . S
H232 C218 0.930 . S
H233 C219 0.931 . S
H234 C220 0.931 . S
H235 C221 0.933 . S
H236 C227 0.930 . S
H237 C228 0.931 . S
H238 C229 0.931 . S
H239 C230 0.933 . S
Dy240 O243 2.307 . S
Dy240 O245 2.395 . S
Dy240 O246 2.379 . S
Dy240 O248 2.339 . S
Dy240 O250 2.298 . S
Dy240 O254 2.275 . S
Dy240 C262 2.738 . S
Dy241 O244 2.298 . S
Dy241 O247 2.275 . S
Dy241 O249 2.307 . S
Dy241 O251 2.395 . S
Dy241 O252 2.379 . S
Dy241 O255 2.339 . S
Dy241 C271 2.738 . S
C242 O254 1.254 . S
C242 O255 1.257 . S
O243 Dy240 2.307 . S
O243 C253 1.266 . S
O244 Dy241 2.298 . S
O244 C253 1.236 . S
O245 Dy240 2.395 . S
O245 C262 1.255 . S
O246 Dy240 2.379 . S
O246 C262 1.249 . S
O247 Dy241 2.275 . S
O247 C263 1.254 . S
O248 Dy240 2.339 . S
O248 C263 1.257 . S
O249 Dy241 2.307 . S
O249 C264 1.266 . S
O250 Dy240 2.298 . S
O250 C264 1.236 . S
O251 Dy241 2.395 . S
O251 C271 1.255 . S
O252 Dy241 2.379 . S
O252 C271 1.249 . S
C253 O243 1.266 . S
C253 O244 1.236 . S
O254 Dy240 2.275 . S
O254 C242 1.254 . S
O255 Dy241 2.339 . S
O255 C242 1.257 . S
C256 C259 1.344 . S
C256 C260 1.328 . S
C256 C262 1.516 . S
C257 C258 1.304 . S
C257 C261 1.323 . S
C258 C257 1.304 . S
C258 C259 1.371 . S
C258 H272 0.930 . S
C259 C256 1.344 . S
C259 C258 1.371 . S
C259 H273 0.931 . S
C260 C256 1.328 . S
C260 C261 1.433 . S
C260 H274 0.931 . S
C261 C257 1.323 . S
C261 C260 1.433 . S
C261 H275 0.933 . S
C262 Dy240 2.738 . S
C262 O245 1.255 . S
C262 O246 1.249 . S
C262 C256 1.516 . S
C263 O247 1.254 . S
C263 O248 1.257 . S
C264 O249 1.266 . S
C264 O250 1.236 . S
C265 C268 1.344 . S
C265 C269 1.328 . S
C265 C271 1.516 . S
C266 C267 1.304 . S
C266 C270 1.323 . S
C267 C266 1.304 . S
C267 C268 1.371 . S
C267 H276 0.930 . S
C268 C265 1.344 . S
C268 C267 1.371 . S
C268 H277 0.931 . S
C269 C265 1.328 . S
C269 C270 1.433 . S
C269 H278 0.931 . S
C270 C266 1.323 . S
C270 C269 1.433 . S
C270 H279 0.933 . S
C271 Dy241 2.738 . S
C271 O251 1.255 . S
C271 O252 1.249 . S
C271 C265 1.516 . S
H272 C258 0.930 . S
H273 C259 0.931 . S
H274 C260 0.931 . S
H275 C261 0.933 . S
H276 C267 0.930 . S
H277 C268 0.931 . S
H278 C269 0.931 . S
H279 C270 0.933 . S
Dy280 O283 2.307 . S
Dy280 O285 2.395 . S
Dy280 O286 2.379 . S
Dy280 O288 2.339 . S
Dy280 O290 2.298 . S
Dy280 O294 2.275 . S
Dy280 C302 2.738 . S
Dy281 O284 2.298 . S
Dy281 O287 2.275 . S
Dy281 O289 2.307 . S
Dy281 O291 2.395 . S
Dy281 O292 2.379 . S
Dy281 O295 2.339 . S
Dy281 C311 2.738 . S
C282 O294 1.254 . S
C282 O295 1.257 . S
O283 Dy280 2.307 . S
O283 C293 1.266 . S
O284 Dy281 2.298 . S
O284 C293 1.236 . S
O285 Dy280 2.395 . S
O285 C302 1.255 . S
O286 Dy280 2.379 . S
O286 C302 1.249 . S
O287 Dy281 2.275 . S
O287 C303 1.254 . S
O288 Dy280 2.339 . S
O288 C303 1.257 . S
O289 Dy281 2.307 . S
O289 C304 1.266 . S
O290 Dy280 2.298 . S
O290 C304 1.236 . S
O291 Dy281 2.395 . S
O291 C311 1.255 . S
O292 Dy281 2.379 . S
O292 C311 1.249 . S
C293 O283 1.266 . S
C293 O284 1.236 . S
O294 Dy280 2.275 . S
O294 C282 1.254 . S
O295 Dy281 2.339 . S
O295 C282 1.257 . S
C296 C299 1.344 . S
C296 C300 1.328 . S
C296 C302 1.516 . S
C297 C298 1.304 . S
C297 C301 1.323 . S
C298 C297 1.304 . S
C298 C299 1.371 . S
C298 H312 0.930 . S
C299 C296 1.344 . S
C299 C298 1.371 . S
C299 H313 0.931 . S
C300 C296 1.328 . S
C300 C301 1.433 . S
C300 H314 0.931 . S
C301 C297 1.323 . S
C301 C300 1.433 . S
C301 H315 0.933 . S
C302 Dy280 2.738 . S
C302 O285 1.255 . S
C302 O286 1.249 . S
C302 C296 1.516 . S
C303 O287 1.254 . S
C303 O288 1.257 . S
C304 O289 1.266 . S
C304 O290 1.236 . S
C305 C308 1.344 . S
C305 C309 1.328 . S
C305 C311 1.516 . S
C306 C307 1.304 . S
C306 C310 1.323 . S
C307 C306 1.304 . S
C307 C308 1.371 . S
C307 H316 0.930 . S
C308 C305 1.344 . S
C308 C307 1.371 . S
C308 H317 0.931 . S
C309 C305 1.328 . S
C309 C310 1.433 . S
C309 H318 0.931 . S
C310 C306 1.323 . S
C310 C309 1.433 . S
C310 H319 0.933 . S
C311 Dy281 2.738 . S
C311 O291 1.255 . S
C311 O292 1.249 . S
C311 C305 1.516 . S
H312 C298 0.930 . S
H313 C299 0.931 . S
H314 C300 0.931 . S
H315 C301 0.933 . S
H316 C307 0.930 . S
H317 C308 0.931 . S
H318 C309 0.931 . S
H319 C310 0.933 . S
Dy320 O323 2.307 . S
Dy320 O325 2.395 . S
Dy320 O326 2.379 . S
Dy320 O328 2.339 . S
Dy320 O330 2.298 . S
Dy320 O334 2.275 . S
Dy320 C342 2.738 . S
Dy321 O324 2.298 . S
Dy321 O327 2.275 . S
Dy321 O329 2.307 . S
Dy321 O331 2.395 . S
Dy321 O332 2.379 . S
Dy321 O335 2.339 . S
Dy321 C351 2.738 . S
C322 O334 1.254 . S
C322 O335 1.257 . S
O323 Dy320 2.307 . S
O323 C333 1.266 . S
O324 Dy321 2.298 . S
O324 C333 1.236 . S
O325 Dy320 2.395 . S
O325 C342 1.255 . S
O326 Dy320 2.379 . S
O326 C342 1.249 . S
O327 Dy321 2.275 . S
O327 C343 1.254 . S
O328 Dy320 2.339 . S
O328 C343 1.257 . S
O329 Dy321 2.307 . S
O329 C344 1.266 . S
O330 Dy320 2.298 . S
O330 C344 1.236 . S
O331 Dy321 2.395 . S
O331 C351 1.255 . S
O332 Dy321 2.379 . S
O332 C351 1.249 . S
C333 O323 1.266 . S
C333 O324 1.236 . S
O334 Dy320 2.275 . S
O334 C322 1.254 . S
O335 Dy321 2.339 . S
O335 C322 1.257 . S
C336 C339 1.344 . S
C336 C340 1.328 . S
C336 C342 1.516 . S
C337 C338 1.304 . S
C337 C341 1.323 . S
C338 C337 1.304 . S
C338 C339 1.371 . S
C338 H352 0.930 . S
C339 C336 1.344 . S
C339 C338 1.371 . S
C339 H353 0.931 . S
C340 C336 1.328 . S
C340 C341 1.433 . S
C340 H354 0.931 . S
C341 C337 1.323 . S
C341 C340 1.433 . S
C341 H355 0.933 . S
C342 Dy320 2.738 . S
C342 O325 1.255 . S
C342 O326 1.249 . S
C342 C336 1.516 . S
C343 O327 1.254 . S
C343 O328 1.257 . S
C344 O329 1.266 . S
C344 O330 1.236 . S
C345 C348 1.344 . S
C345 C349 1.328 . S
C345 C351 1.516 . S
C346 C347 1.304 1_455 S
C346 C350 1.295 1_455 S
C347 C346 1.304 1_655 S
C347 C348 1.371 . S
C347 H356 0.930 . S
C348 C345 1.344 . S
C348 C347 1.371 . S
C348 H357 0.931 . S
C349 C345 1.328 . S
C349 C350 1.433 . S
C349 H358 0.931 . S
C350 C346 1.295 1_655 S
C350 C349 1.433 . S
C350 H359 0.937 1_655 S
C351 Dy321 2.738 . S
C351 O331 1.255 . S
C351 O332 1.249 . S
C351 C345 1.516 . S
H352 C338 0.930 . S
H353 C339 0.931 . S
H354 C340 0.931 . S
H355 C341 0.933 . S
H356 C347 0.930 . S
H357 C348 0.931 . S
H358 C349 0.931 . S
H359 C350 0.937 1_455 S
H360 C366 0.930 . S
H361 C370 0.930 . S
H362 C375 0.929 . S
H363 C373 0.929 . S
H364 C368 0.929 . S
H365 C374 0.929 . S
C366 H360 0.930 . S
C366 C367 1.367 . S
C366 C374 1.378 . S
C367 C366 1.367 . S
C367 C375 1.433 . S
C368 H364 0.929 . S
C368 C370 1.378 . S
C368 C372 1.350 . S
C369 C372 1.463 . S
C369 C374 1.350 . S
C369 N377 1.427 . S
C370 H361 0.930 . S
C370 C368 1.378 . S
C370 C371 1.367 . S
C371 C370 1.367 . S
C371 C373 1.433 . S
C372 C368 1.350 . S
C372 C369 1.463 . S
C372 N376 1.427 . S
C373 H363 0.929 . S
C373 C371 1.433 . S
C373 N376 1.384 . S
C374 H365 0.929 . S
C374 C366 1.378 . S
C374 C369 1.350 . S
C375 H362 0.929 . S
C375 C367 1.433 . S
C375 N377 1.384 . S
N376 C372 1.427 . S
N376 C373 1.384 . S
N377 C369 1.427 . S
N377 C375 1.384 . S
H378 C384 0.930 . S
H379 C388 0.930 . S
H380 C393 0.929 . S
H381 C391 0.929 . S
H382 C386 0.929 . S
H383 C392 0.929 . S
C384 H378 0.930 . S
C384 C385 1.367 . S
C384 C392 1.378 . S
C385 C384 1.367 . S
C385 C393 1.433 . S
C386 H382 0.929 . S
C386 C388 1.378 . S
C386 C390 1.350 . S
C387 C390 1.463 . S
C387 C392 1.350 . S
C387 N395 1.427 . S
C388 H379 0.930 . S
C388 C386 1.378 . S
C388 C389 1.367 . S
C389 C388 1.367 . S
C389 C391 1.433 . S
C390 C386 1.350 . S
C390 C387 1.463 . S
C390 N394 1.427 . S
C391 H381 0.929 . S
C391 C389 1.433 . S
C391 N394 1.384 . S
C392 H383 0.929 . S
C392 C384 1.378 . S
C392 C387 1.350 . S
C393 H380 0.929 . S
C393 C385 1.433 . S
C393 N395 1.384 . S
N394 C390 1.427 . S
N394 C391 1.384 . S
N395 C387 1.427 . S
N395 C393 1.384 . S
H396 C402 0.930 . S
H397 C406 0.930 . S
H398 C411 0.929 . S
H399 C409 0.929 . S
H400 C404 0.929 . S
H401 C410 0.929 . S
C402 H396 0.930 . S
C402 C403 1.367 . S
C402 C410 1.378 . S
C403 C402 1.367 . S
C403 C411 1.433 . S
C404 H400 0.929 . S
C404 C406 1.378 . S
C404 C408 1.350 . S
C405 C408 1.463 . S
C405 C410 1.350 . S
C405 N413 1.427 . S
C406 H397 0.930 . S
C406 C404 1.378 . S
C406 C407 1.367 . S
C407 C406 1.367 . S
C407 C409 1.433 . S
C408 C404 1.350 . S
C408 C405 1.463 . S
C408 N412 1.427 . S
C409 H399 0.929 . S
C409 C407 1.433 . S
C409 N412 1.384 . S
C410 H401 0.929 . S
C410 C402 1.378 . S
C410 C405 1.350 . S
C411 H398 0.929 . S
C411 C403 1.433 . S
C411 N413 1.384 . S
N412 C408 1.427 . S
N412 C409 1.384 . S
N413 C405 1.427 . S
N413 C411 1.384 . S
H414 C420 0.930 . S
H415 C424 0.930 . S
H416 C429 0.929 . S
H417 C427 0.929 . S
H418 C422 0.929 . S
H419 C428 0.929 . S
C420 H414 0.930 . S
C420 C421 1.367 . S
C420 C428 1.378 . S
C421 C420 1.367 . S
C421 C429 1.433 . S
C422 H418 0.929 . S
C422 C424 1.378 1_556 S
C422 C426 1.350 . S
C423 C426 1.463 . S
C423 C428 1.350 . S
C423 N431 1.427 . S
C424 H415 0.930 . S
C424 C422 1.378 1_554 S
C424 C425 1.367 . S
C425 C424 1.367 . S
C425 C427 1.433 . S
C426 C422 1.350 . S
C426 C423 1.463 . S
C426 N430 1.427 . S
C427 H417 0.929 . S
C427 C425 1.433 . S
C427 N430 1.384 1_554 S
C428 H419 0.929 . S
C428 C420 1.378 . S
C428 C423 1.350 . S
C429 H416 0.929 . S
C429 C421 1.433 . S
C429 N431 1.384 . S
N430 C426 1.427 . S
N430 C427 1.384 1_556 S
N431 C423 1.427 . S
N431 C429 1.384 . S
H432 C438 0.930 . S
H433 C442 0.930 1_554 S
H434 C447 0.929 . S
H435 C445 0.929 . S
H436 C440 0.929 . S
H437 C446 0.929 . S
C438 H432 0.930 . S
C438 C439 1.367 . S
C438 C446 1.378 . S
C439 C438 1.367 . S
C439 C447 1.433 . S
C440 H436 0.929 . S
C440 C442 1.378 . S
C440 C444 1.350 . S
C441 C444 1.463 . S
C441 C446 1.350 . S
C441 N449 1.427 . S
C442 H433 0.930 1_556 S
C442 C440 1.378 . S
C442 C443 1.367 . S
C443 C442 1.367 . S
C443 C445 1.433 . S
C444 C440 1.350 . S
C444 C441 1.463 . S
C444 N448 1.427 . S
C445 H435 0.929 . S
C445 C443 1.433 . S
C445 N448 1.384 . S
C446 H437 0.929 . S
C446 C438 1.378 . S
C446 C441 1.350 . S
C447 H434 0.929 . S
C447 C439 1.433 . S
C447 N449 1.384 . S
N448 C444 1.427 . S
N448 C445 1.384 . S
N449 C441 1.427 . S
N449 C447 1.384 . S
H450 C456 0.930 . S
H451 C460 0.930 . S
H452 C465 0.929 . S
H453 C463 0.929 . S
H454 C458 0.929 . S
H455 C464 0.929 . S
C456 H450 0.930 . S
C456 C457 1.367 . S
C456 C464 1.378 . S
C457 C456 1.367 . S
C457 C465 1.433 . S
C458 H454 0.929 . S
C458 C460 1.378 . S
C458 C462 1.350 . S
C459 C462 1.463 . S
C459 C464 1.350 . S
C459 N467 1.427 . S
C460 H451 0.930 . S
C460 C458 1.378 . S
C460 C461 1.367 . S
C461 C460 1.367 . S
C461 C463 1.433 . S
C462 C458 1.350 . S
C462 C459 1.463 . S
C462 N466 1.427 . S
C463 H453 0.929 . S
C463 C461 1.433 . S
C463 N466 1.384 . S
C464 H455 0.929 . S
C464 C456 1.378 . S
C464 C459 1.350 . S
C465 H452 0.929 . S
C465 C457 1.433 . S
C465 N467 1.384 . S
N466 C462 1.427 . S
N466 C463 1.384 . S
N467 C459 1.427 . S
N467 C465 1.384 . S
H468 C474 0.930 . S
H469 C478 0.930 . S
H470 C483 0.929 . S
H471 C481 0.929 . S
H472 C476 0.929 . S
H473 C482 0.929 . S
C474 H468 0.930 . S
C474 C475 1.367 . S
C474 C482 1.378 . S
C475 C474 1.367 . S
C475 C483 1.433 . S
C476 H472 0.929 . S
C476 C478 1.378 1_554 S
C476 C480 1.350 . S
C477 C480 1.463 . S
C477 C482 1.350 . S
C477 N485 1.427 . S
C478 H469 0.930 . S
C478 C476 1.378 1_556 S
C478 C479 1.367 . S
C479 C478 1.367 . S
C479 C481 1.433 . S
C480 C476 1.350 . S
C480 C477 1.463 . S
C480 N484 1.427 . S
C481 H471 0.929 . S
C481 C479 1.433 . S
C481 N484 1.384 1_556 S
C482 H473 0.929 . S
C482 C474 1.378 . S
C482 C477 1.350 . S
C483 H470 0.929 . S
C483 C475 1.433 . S
C483 N485 1.384 . S
N484 C480 1.427 . S
N484 C481 1.384 1_554 S
N485 C477 1.427 . S
N485 C483 1.384 . S
H486 C492 0.930 . S
H487 C496 0.930 . S
H488 C501 0.929 . S
H489 C499 0.929 . S
H490 C494 0.929 . S
H491 C500 0.929 . S
C492 H486 0.930 . S
C492 C493 1.367 . S
C492 C500 1.378 . S
C493 C492 1.367 . S
C493 C501 1.433 . S
C494 H490 0.929 . S
C494 C496 1.378 1_554 S
C494 C498 1.350 . S
C495 C498 1.463 . S
C495 C500 1.350 . S
C495 N503 1.427 . S
C496 H487 0.930 . S
C496 C494 1.378 1_556 S
C496 C497 1.367 . S
C497 C496 1.367 . S
C497 C499 1.433 . S
C498 C494 1.350 . S
C498 C495 1.463 . S
C498 N502 1.427 . S
C499 H489 0.929 . S
C499 C497 1.433 . S
C499 N502 1.384 1_556 S
C500 H491 0.929 . S
C500 C492 1.378 . S
C500 C495 1.350 . S
C501 H488 0.929 . S
C501 C493 1.433 . S
C501 N503 1.384 . S
N502 C498 1.427 . S
N502 C499 1.384 1_554 S
N503 C495 1.427 . S
N503 C501 1.384 . S
H504 C510 0.930 . S
H505 C514 0.930 . S
H506 C519 0.929 . S
H507 C517 0.929 . S
H508 C512 0.929 . S
H509 C518 0.929 . S
C510 H504 0.930 . S
C510 C511 1.367 . S
C510 C518 1.378 . S
C511 C510 1.367 . S
C511 C519 1.433 . S
C512 H508 0.929 . S
C512 C514 1.378 1_554 S
C512 C516 1.350 . S
C513 C516 1.463 . S
C513 C518 1.350 . S
C513 N521 1.427 . S
C514 H505 0.930 . S
C514 C512 1.378 1_556 S
C514 C515 1.367 . S
C515 C514 1.367 . S
C515 C517 1.433 1_556 S
C516 C512 1.350 . S
C516 C513 1.463 . S
C516 N520 1.427 . S
C517 H507 0.929 . S
C517 C515 1.433 1_554 S
C517 N520 1.384 . S
C518 H509 0.929 . S
C518 C510 1.378 . S
C518 C513 1.350 . S
C519 H506 0.929 . S
C519 C511 1.433 . S
C519 N521 1.384 . S
N520 C516 1.427 . S
N520 C517 1.384 . S
N521 C513 1.427 . S
N521 C519 1.384 . S
H522 C528 0.930 . S
H523 C532 0.930 . S
H524 C537 0.929 . S
H525 C535 0.929 . S
H526 C530 0.929 . S
H527 C536 0.929 . S
C528 H522 0.930 . S
C528 C529 1.367 . S
C528 C536 1.378 . S
C529 C528 1.367 . S
C529 C537 1.433 . S
C530 H526 0.929 . S
C530 C532 1.378 . S
C530 C534 1.350 . S
C531 C534 1.463 . S
C531 C536 1.350 . S
C531 N539 1.427 . S
C532 H523 0.930 . S
C532 C530 1.378 . S
C532 C533 1.367 . S
C533 C532 1.367 . S
C533 C535 1.433 . S
C534 C530 1.350 . S
C534 C531 1.463 . S
C534 N538 1.427 . S
C535 H525 0.929 . S
C535 C533 1.433 . S
C535 N538 1.384 . S
C536 H527 0.929 . S
C536 C528 1.378 . S
C536 C531 1.350 . S
C537 H524 0.929 . S
C537 C529 1.433 . S
C537 N539 1.384 . S
N538 C534 1.427 . S
N538 C535 1.384 . S
N539 C531 1.427 . S
N539 C537 1.384 . S
H540 C546 0.930 . S
H541 C550 0.930 . S
H542 C555 0.929 . S
H543 C553 0.929 . S
H544 C548 0.929 . S
H545 C554 0.929 . S
C546 H540 0.930 . S
C546 C547 1.367 . S
C546 C554 1.378 . S
C547 C546 1.367 . S
C547 C555 1.433 . S
C548 H544 0.929 . S
C548 C550 1.378 . S
C548 C552 1.350 . S
C549 C552 1.463 . S
C549 C554 1.350 . S
C549 N557 1.427 . S
C550 H541 0.930 . S
C550 C548 1.378 . S
C550 C551 1.367 . S
C551 C550 1.367 . S
C551 C553 1.433 . S
C552 C548 1.350 . S
C552 C549 1.463 . S
C552 N556 1.427 . S
C553 H543 0.929 . S
C553 C551 1.433 . S
C553 N556 1.384 . S
C554 H545 0.929 . S
C554 C546 1.378 . S
C554 C549 1.350 . S
C555 H542 0.929 . S
C555 C547 1.433 . S
C555 N557 1.384 . S
N556 C552 1.427 . S
N556 C553 1.384 . S
N557 C549 1.427 . S
N557 C555 1.384 . S
H558 C564 0.930 . S
H559 C568 0.930 . S
H560 C573 0.929 . S
H561 C571 0.929 . S
H562 C566 0.929 . S
H563 C572 0.929 . S
C564 H558 0.930 . S
C564 C565 1.367 . S
C564 C572 1.378 . S
C565 C564 1.367 . S
C565 C573 1.433 . S
C566 H562 0.929 . S
C566 C568 1.378 . S
C566 C570 1.350 . S
C567 C570 1.463 . S
C567 C572 1.350 . S
C567 N575 1.427 . S
C568 H559 0.930 . S
C568 C566 1.378 . S
C568 C569 1.367 . S
C569 C568 1.367 . S
C569 C571 1.433 . S
C570 C566 1.350 . S
C570 C567 1.463 . S
C570 N574 1.427 . S
C571 H561 0.929 . S
C571 C569 1.433 . S
C571 N574 1.384 . S
C572 H563 0.929 . S
C572 C564 1.378 . S
C572 C567 1.350 . S
C573 H560 0.929 . S
C573 C565 1.433 . S
C573 N575 1.384 . S
N574 C570 1.427 . S
N574 C571 1.384 . S
N575 C567 1.427 . S
N575 C573 1.384 . S
H576 C582 0.930 . S
H577 C586 0.930 . S
H578 C591 0.929 . S
H579 C589 0.929 . S
H580 C584 0.929 . S
H581 C590 0.929 . S
C582 H576 0.930 . S
C582 C583 1.367 . S
C582 C590 1.378 . S
C583 C582 1.367 . S
C583 C591 1.433 . S
C584 H580 0.929 . S
C584 C586 1.378 . S
C584 C588 1.350 . S
C585 C588 1.463 . S
C585 C590 1.350 . S
C585 N593 1.427 . S
C586 H577 0.930 . S
C586 C584 1.378 . S
C586 C587 1.366 1_554 S
C587 C586 1.366 1_556 S
C587 C589 1.433 . S
C588 C584 1.350 . S
C588 C585 1.463 . S
C588 N592 1.427 . S
C589 H579 0.929 . S
C589 C587 1.433 . S
C589 N592 1.384 1_556 S
C590 H581 0.929 . S
C590 C582 1.378 . S
C590 C585 1.350 . S
C591 H578 0.929 . S
C591 C583 1.433 . S
C591 N593 1.384 . S
N592 C588 1.427 . S
N592 C589 1.384 1_554 S
N593 C585 1.427 . S
N593 C591 1.384 . S
H594 C600 0.930 . S
H595 C604 0.930 1_554 S
H596 C609 0.929 . S
H597 C607 0.929 . S
H598 C602 0.929 . S
H599 C608 0.929 . S
C600 H594 0.930 . S
C600 C601 1.367 . S
C600 C608 1.378 . S
C601 C600 1.367 . S
C601 C609 1.433 . S
C602 H598 0.929 . S
C602 C604 1.378 . S
C602 C606 1.350 . S
C603 C606 1.463 . S
C603 C608 1.350 . S
C603 N611 1.427 . S
C604 H595 0.930 1_556 S
C604 C602 1.378 . S
C604 C605 1.386 . S
C605 C604 1.386 . S
C605 C607 1.418 1_655 S
C606 C602 1.350 . S
C606 C603 1.463 . S
C606 N610 1.427 . S
C607 H597 0.929 . S
C607 C605 1.418 1_455 S
C607 N610 1.384 1_455 S
C608 H599 0.929 . S
C608 C600 1.378 . S
C608 C603 1.350 . S
C609 H596 0.929 . S
C609 C601 1.433 . S
C609 N611 1.384 . S
N610 C606 1.427 . S
N610 C607 1.384 1_655 S
N611 C603 1.427 . S
N611 C609 1.384 . S
H612 C618 0.930 . S
H613 C622 0.930 . S
H614 C627 0.929 . S
H615 C625 0.929 . S
H616 C620 0.929 . S
H617 C626 0.929 . S
C618 H612 0.930 . S
C618 C619 1.367 . S
C618 C626 1.378 . S
C619 C618 1.367 . S
C619 C627 1.433 . S
C620 H616 0.929 . S
C620 C622 1.378 . S
C620 C624 1.350 1_554 S
C621 C624 1.463 . S
C621 C626 1.350 . S
C621 N629 1.427 . S
C622 H613 0.930 . S
C622 C620 1.378 . S
C622 C623 1.367 . S
C623 C622 1.367 . S
C623 C625 1.433 1_554 S
C624 C620 1.350 1_556 S
C624 C621 1.463 . S
C624 N628 1.427 . S
C625 H615 0.929 . S
C625 C623 1.433 1_556 S
C625 N628 1.384 . S
C626 H617 0.929 . S
C626 C618 1.378 . S
C626 C621 1.350 . S
C627 H614 0.929 . S
C627 C619 1.433 . S
C627 N629 1.384 . S
N628 C624 1.427 . S
N628 C625 1.384 . S
N629 C621 1.427 . S
N629 C627 1.384 . S
H630 C636 0.930 . S
H631 C640 0.930 . S
H632 C645 0.929 . S
H633 C643 0.929 1_554 S
H634 C638 0.929 . S
H635 C644 0.929 . S
C636 H630 0.930 . S
C636 C637 1.367 . S
C636 C644 1.378 . S
C637 C636 1.367 . S
C637 C645 1.433 . S
C638 H634 0.929 . S
C638 C640 1.378 . S
C638 C642 1.350 . S
C639 C642 1.463 . S
C639 C644 1.350 . S
C639 N647 1.427 . S
C640 H631 0.930 . S
C640 C638 1.378 . S
C640 C641 1.367 . S
C641 C640 1.367 . S
C641 C643 1.433 . S
C642 C638 1.350 . S
C642 C639 1.463 . S
C642 N646 1.427 . S
C643 H633 0.929 1_556 S
C643 C641 1.433 . S
C643 N646 1.384 . S
C644 H635 0.929 . S
C644 C636 1.378 . S
C644 C639 1.350 . S
C645 H632 0.929 . S
C645 C637 1.433 . S
C645 N647 1.384 . S
N646 C642 1.427 . S
N646 C643 1.384 . S
N647 C639 1.427 . S
N647 C645 1.384 . S
H648 C654 0.930 . S
H649 C658 0.930 . S
H650 C663 0.929 . S
H651 C661 0.929 . S
H652 C656 0.929 . S
H653 C662 0.929 . S
C654 H648 0.930 . S
C654 C655 1.373 . S
C654 C662 1.378 . S
C655 C654 1.373 . S
C655 C663 1.428 1_556 S
C656 H652 0.929 . S
C656 C658 1.378 . S
C656 C660 1.350 . S
C657 C660 1.463 . S
C657 C662 1.350 . S
C657 N665 1.427 1_556 S
C658 H649 0.930 . S
C658 C656 1.378 . S
C658 C659 1.367 . S
C659 C658 1.367 . S
C659 C661 1.433 . S
C660 C656 1.350 . S
C660 C657 1.463 . S
C660 N664 1.427 . S
C661 H651 0.929 . S
C661 C659 1.433 . S
C661 N664 1.384 . S
C662 H653 0.929 . S
C662 C654 1.378 . S
C662 C657 1.350 . S
C663 H650 0.929 . S
C663 C655 1.428 1_554 S
C663 N665 1.384 . S
N664 C660 1.427 . S
N664 C661 1.384 . S
N665 C657 1.427 1_554 S
N665 C663 1.384 . S
H666 C672 0.930 . S
H667 C676 0.930 . S
H668 C681 0.929 . S
H669 C679 0.929 . S
H670 C674 0.929 . S
H671 C680 0.929 . S
C672 H666 0.930 . S
C672 C673 1.367 . S
C672 C680 1.378 . S
C673 C672 1.367 . S
C673 C681 1.433 . S
C674 H670 0.929 . S
C674 C676 1.378 . S
C674 C678 1.350 . S
C675 C678 1.463 . S
C675 C680 1.350 1_554 S
C675 N683 1.427 . S
C676 H667 0.930 . S
C676 C674 1.378 . S
C676 C677 1.367 . S
C677 C676 1.367 . S
C677 C679 1.433 . S
C678 C674 1.350 . S
C678 C675 1.463 . S
C678 N682 1.427 . S
C679 H669 0.929 . S
C679 C677 1.433 . S
C679 N682 1.384 . S
C680 H671 0.929 . S
C680 C672 1.378 . S
C680 C675 1.350 1_556 S
C681 H668 0.929 . S
C681 C673 1.433 . S
C681 N683 1.384 1_556 S
N682 C678 1.427 . S
N682 C679 1.384 . S
N683 C675 1.427 . S
N683 C681 1.384 1_554 S
H684 C690 0.930 . S
H685 C694 0.930 . S
H686 C699 0.929 . S
H687 C697 0.929 . S
H688 C692 0.929 . S
H689 C698 0.929 . S
C690 H684 0.930 . S
C690 C691 1.367 . S
C690 C698 1.378 1_545 S
C691 C690 1.367 . S
C691 C699 1.433 1_545 S
C692 H688 0.929 . S
C692 C694 1.378 . S
C692 C696 1.350 . S
C693 C696 1.463 . S
C693 C698 1.350 . S
C693 N701 1.427 . S
C694 H685 0.930 . S
C694 C692 1.378 . S
C694 C695 1.367 . S
C695 C694 1.367 . S
C695 C697 1.433 . S
C696 C692 1.350 . S
C696 C693 1.463 . S
C696 N700 1.427 . S
C697 H687 0.929 . S
C697 C695 1.433 . S
C697 N700 1.384 . S
C698 H689 0.929 . S
C698 C690 1.378 1_565 S
C698 C693 1.350 . S
C699 H686 0.929 . S
C699 C691 1.433 1_565 S
C699 N701 1.384 . S
N700 C696 1.427 . S
N700 C697 1.384 . S
N701 C693 1.427 . S
N701 C699 1.384 . S
H702 C708 0.930 . S
H703 C712 0.930 . S
H704 C717 0.929 . S
H705 C715 0.929 . S
H706 C710 0.929 1_556 S
H707 C716 0.929 . S
C708 H702 0.930 . S
C708 C709 1.367 . S
C708 C716 1.378 . S
C709 C708 1.367 . S
C709 C717 1.433 . S
C710 H706 0.929 1_554 S
C710 C712 1.378 1_554 S
C710 C714 1.350 . S
C711 C714 1.463 . S
C711 C716 1.350 . S
C711 N719 1.427 . S
C712 H703 0.930 . S
C712 C710 1.378 1_556 S
C712 C713 1.367 1_556 S
C713 C712 1.367 1_554 S
C713 C715 1.433 . S
C714 C710 1.350 . S
C714 C711 1.463 . S
C714 N718 1.427 . S
C715 H705 0.929 . S
C715 C713 1.433 . S
C715 N718 1.384 . S
C716 H707 0.929 . S
C716 C708 1.378 . S
C716 C711 1.350 . S
C717 H704 0.929 . S
C717 C709 1.433 . S
C717 N719 1.384 . S
N718 C714 1.427 . S
N718 C715 1.384 . S
N719 C711 1.427 . S
N719 C717 1.384 . S
H720 C726 0.930 1_556 S
H721 C730 0.930 . S
H722 C735 0.929 . S
H723 C733 0.929 . S
H724 C728 0.929 . S
H725 C734 0.929 . S
C726 H720 0.930 1_554 S
C726 C727 1.367 . S
C726 C734 1.378 . S
C727 C726 1.367 . S
C727 C735 1.433 . S
C728 H724 0.929 . S
C728 C730 1.378 . S
C728 C732 1.350 . S
C729 C732 1.463 . S
C729 C734 1.350 . S
C729 N737 1.427 . S
C730 H721 0.930 . S
C730 C728 1.378 . S
C730 C731 1.367 . S
C731 C730 1.367 . S
C731 C733 1.433 . S
C732 C728 1.350 . S
C732 C729 1.463 . S
C732 N736 1.427 . S
C733 H723 0.929 . S
C733 C731 1.433 . S
C733 N736 1.384 . S
C734 H725 0.929 . S
C734 C726 1.378 . S
C734 C729 1.350 . S
C735 H722 0.929 . S
C735 C727 1.433 . S
C735 N737 1.384 . S
N736 C732 1.427 . S
N736 C733 1.384 . S
N737 C729 1.427 . S
N737 C735 1.384 . S
H738 C744 0.930 . S
H739 C748 0.930 . S
H740 C753 0.929 . S
H741 C751 0.929 . S
H742 C746 0.929 . S
H743 C752 0.929 . S
C744 H738 0.930 . S
C744 C745 1.367 . S
C744 C752 1.378 . S
C745 C744 1.367 . S
C745 C753 1.433 . S
C746 H742 0.929 . S
C746 C748 1.378 . S
C746 C750 1.350 . S
C747 C750 1.463 . S
C747 C752 1.350 . S
C747 N755 1.427 . S
C748 H739 0.930 . S
C748 C746 1.378 . S
C748 C749 1.367 . S
C749 C748 1.367 . S
C749 C751 1.433 . S
C750 C746 1.350 . S
C750 C747 1.463 . S
C750 N754 1.427 . S
C751 H741 0.929 . S
C751 C749 1.433 . S
C751 N754 1.384 . S
C752 H743 0.929 . S
C752 C744 1.378 . S
C752 C747 1.350 . S
C753 H740 0.929 . S
C753 C745 1.433 . S
C753 N755 1.384 . S
N754 C750 1.427 . S
N754 C751 1.384 . S
N755 C747 1.427 . S
N755 C753 1.384 . S
H756 C762 0.930 . S
H757 C766 0.930 . S
H758 C771 0.929 . S
H759 C769 0.929 . S
H760 C764 0.929 . S
H761 C770 0.929 . S
C762 H756 0.930 . S
C762 C763 1.367 . S
C762 C770 1.378 . S
C763 C762 1.367 . S
C763 C771 1.433 . S
C764 H760 0.929 . S
C764 C766 1.378 . S
C764 C768 1.350 . S
C765 C768 1.463 1_545 S
C765 C770 1.350 . S
C765 N773 1.427 . S
C766 H757 0.930 . S
C766 C764 1.378 . S
C766 C767 1.367 . S
C767 C766 1.367 . S
C767 C769 1.433 . S
C768 C764 1.350 . S
C768 C765 1.463 1_565 S
C768 N772 1.427 . S
C769 H759 0.929 . S
C769 C767 1.433 . S
C769 N772 1.384 . S
C770 H761 0.929 . S
C770 C762 1.378 . S
C770 C765 1.350 . S
C771 H758 0.929 . S
C771 C763 1.433 . S
C771 N773 1.384 . S
N772 C768 1.427 . S
N772 C769 1.384 . S
N773 C765 1.427 . S
N773 C771 1.384 . S
H774 C780 0.930 . S
H775 C784 0.930 . S
H776 C789 0.929 . S
H777 C787 0.929 . S
H778 C782 0.929 . S
H779 C788 0.929 . S
C780 H774 0.930 . S
C780 C781 1.367 . S
C780 C788 1.378 . S
C781 C780 1.367 . S
C781 C789 1.433 1_455 S
C782 H778 0.929 . S
C782 C784 1.378 . S
C782 C786 1.350 . S
C783 C786 1.463 . S
C783 C788 1.350 . S
C783 N791 1.427 . S
C784 H775 0.930 . S
C784 C782 1.378 . S
C784 C785 1.367 . S
C785 C784 1.367 . S
C785 C787 1.433 . S
C786 C782 1.350 . S
C786 C783 1.463 . S
C786 N790 1.427 . S
C787 H777 0.929 . S
C787 C785 1.433 . S
C787 N790 1.384 . S
C788 H779 0.929 . S
C788 C780 1.378 . S
C788 C783 1.350 . S
C789 H776 0.929 . S
C789 C781 1.433 1_655 S
C789 N791 1.384 1_655 S
N790 C786 1.427 . S
N790 C787 1.384 . S
N791 C783 1.427 . S
N791 C789 1.384 1_455 S
H792 C798 0.930 . S
H793 C802 0.930 . S
H794 C807 0.929 . S
H795 C805 0.929 . S
H796 C800 0.929 . S
H797 C806 0.929 . S
C798 H792 0.930 . S
C798 C799 1.367 . S
C798 C806 1.378 . S
C799 C798 1.367 . S
C799 C807 1.433 . S
C800 H796 0.929 . S
C800 C802 1.378 . S
C800 C804 1.350 . S
C801 C804 1.463 . S
C801 C806 1.350 . S
C801 N809 1.427 . S
C802 H793 0.930 . S
C802 C800 1.378 . S
C802 C803 1.367 . S
C803 C802 1.367 . S
C803 C805 1.433 . S
C804 C800 1.350 . S
C804 C801 1.463 . S
C804 N808 1.427 . S
C805 H795 0.929 . S
C805 C803 1.433 . S
C805 N808 1.384 . S
C806 H797 0.929 . S
C806 C798 1.378 . S
C806 C801 1.350 . S
C807 H794 0.929 . S
C807 C799 1.433 . S
C807 N809 1.384 . S
N808 C804 1.427 . S
N808 C805 1.384 . S
N809 C801 1.427 . S
N809 C807 1.384 . S
H810 C816 0.930 . S
H811 C820 0.930 . S
H812 C825 0.929 . S
H813 C823 0.929 . S
H814 C818 0.929 . S
H815 C824 0.929 . S
C816 H810 0.930 . S
C816 C817 1.367 . S
C816 C824 1.378 . S
C817 C816 1.367 . S
C817 C825 1.433 . S
C818 H814 0.929 . S
C818 C820 1.378 . S
C818 C822 1.350 . S
C819 C822 1.463 1_565 S
C819 C824 1.350 . S
C819 N827 1.427 . S
C820 H811 0.930 . S
C820 C818 1.378 . S
C820 C821 1.367 . S
C821 C820 1.367 . S
C821 C823 1.433 . S
C822 C818 1.350 . S
C822 C819 1.463 1_545 S
C822 N826 1.427 . S
C823 H813 0.929 . S
C823 C821 1.433 . S
C823 N826 1.384 . S
C824 H815 0.929 . S
C824 C816 1.378 . S
C824 C819 1.350 . S
C825 H812 0.929 . S
C825 C817 1.433 . S
C825 N827 1.384 . S
N826 C822 1.427 . S
N826 C823 1.384 . S
N827 C819 1.427 . S
N827 C825 1.384 . S
H828 C834 0.930 . S
H829 C838 0.930 . S
H830 C843 0.929 . S
H831 C841 0.929 . S
H832 C836 0.929 . S
H833 C842 0.929 . S
C834 H828 0.930 . S
C834 C835 1.367 . S
C834 C842 1.378 . S
C835 C834 1.367 . S
C835 C843 1.433 . S
C836 H832 0.929 . S
C836 C838 1.378 . S
C836 C840 1.350 . S
C837 C840 1.463 . S
C837 C842 1.350 . S
C837 N845 1.427 . S
C838 H829 0.930 . S
C838 C836 1.378 . S
C838 C839 1.367 . S
C839 C838 1.367 . S
C839 C841 1.433 . S
C840 C836 1.350 . S
C840 C837 1.463 . S
C840 N844 1.427 . S
C841 H831 0.929 . S
C841 C839 1.433 . S
C841 N844 1.384 . S
C842 H833 0.929 . S
C842 C834 1.378 . S
C842 C837 1.350 . S
C843 H830 0.929 . S
C843 C835 1.433 . S
C843 N845 1.384 . S
N844 C840 1.427 . S
N844 C841 1.384 . S
N845 C837 1.427 . S
N845 C843 1.384 . S
C367 C2 1.140 . S
C371 C23 1.140 . S
C385 C63 1.220 . S
C389 C42 1.220 . S
C403 C82 1.298 1_556 S
C407 C103 1.298 . S
C421 C143 1.149 . S
C425 C122 1.149 . S
C439 C162 1.224 . S
C443 C183 1.224 1_556 S
C457 C223 1.297 . S
C461 C202 1.297 . S
C475 C253 1.039 . S
C479 C264 1.039 . S
C493 C304 1.013 . S
C497 C293 1.013 . S
C511 C333 1.134 . S
C515 C344 1.134 . S
C529 C213 1.901 . S
C533 C26 1.906 . S
C547 C53 2.524 . S
C551 C133 2.520 . S
C565 C106 1.355 . S
C569 C186 1.371 . S
C583 C93 1.588 . S
C587 C257 1.655 . S
C601 C282 1.647 . S
C605 C13 1.647 1_655 S
C619 C337 1.372 . S
C623 C66 1.368 . S
C637 C343 1.327 . S
C641 C17 1.329 . S
C655 C64 1.746 1_556 S
C659 C263 1.706 . S
C673 C306 1.673 . S
C677 C97 1.560 . S
C691 C104 1.900 . S
C695 C137 1.907 . S
C709 C184 2.524 . S
C713 C24 2.521 . S
C727 C57 1.368 . S
C731 C217 1.358 . S
C745 C322 1.327 . S
C749 C146 1.325 . S
C763 C242 1.706 . S
C767 C173 1.749 . S
C781 C297 1.679 1_455 S
C785 C226 1.561 . S
C799 C266 1.653 . S
C803 C224 1.593 . S
C817 C144 1.653 . S
C821 C303 1.644 . S
C835 C346 1.397 . S
C839 C177 1.363 . S
