# Generated by pormake.
# Topology fnj, (5)-cn, num edge types: 1
# Building blocks:
#     Node 0, Type 0, BuildingBlock: XOMCOT_clean_sbu_0, # of connection points: 5
#     Node 1, Type 0, BuildingBlock: XOMCOT_clean_sbu_0, # of connection points: 5
#     Node 2, Type 0, BuildingBlock: XOMCOT_clean_sbu_0, # of connection points: 5
#     Node 3, Type 0, BuildingBlock: XOMCOT_clean_sbu_0, # of connection points: 5
#     Node 4, Type 0, BuildingBlock: XOMCOT_clean_sbu_0, # of connection points: 5
#     Node 5, Type 0, BuildingBlock: XOMCOT_clean_sbu_0, # of connection points: 5
#     Node 6, Type 0, BuildingBlock: XOMCOT_clean_sbu_0, # of connection points: 5
#     Node 7, Type 0, BuildingBlock: XOMCOT_clean_sbu_0, # of connection points: 5
#     Node 8, Type 0, BuildingBlock: XOMCOT_clean_sbu_0, # of connection points: 5
#     Node 9, Type 0, BuildingBlock: XOMCOT_clean_sbu_0, # of connection points: 5
#     Node 10, Type 0, BuildingBlock: XOMCOT_clean_sbu_0, # of connection points: 5
#     Node 11, Type 0, BuildingBlock: XOMCOT_clean_sbu_0, # of connection points: 5
#     Node 12, Type 0, BuildingBlock: XOMCOT_clean_sbu_0, # of connection points: 5
#     Node 13, Type 0, BuildingBlock: XOMCOT_clean_sbu_0, # of connection points: 5
#     Node 14, Type 0, BuildingBlock: XOMCOT_clean_sbu_0, # of connection points: 5
#     Node 15, Type 0, BuildingBlock: XOMCOT_clean_sbu_0, # of connection points: 5
#     Edge 16, Type (0, 0), BuildingBlock: CIFDUS_clean_linker_0, # of connection points: 2
#     Edge 17, Type (0, 0), BuildingBlock: CIFDUS_clean_linker_0, # of connection points: 2
#     Edge 18, Type (0, 0), BuildingBlock: CIFDUS_clean_linker_0, # of connection points: 2
#     Edge 19, Type (0, 0), BuildingBlock: CIFDUS_clean_linker_0, # of connection points: 2
#     Edge 20, Type (0, 0), BuildingBlock: CIFDUS_clean_linker_0, # of connection points: 2
#     Edge 21, Type (0, 0), BuildingBlock: CIFDUS_clean_linker_0, # of connection points: 2
#     Edge 22, Type (0, 0), BuildingBlock: CIFDUS_clean_linker_0, # of connection points: 2
#     Edge 23, Type (0, 0), BuildingBlock: CIFDUS_clean_linker_0, # of connection points: 2
#     Edge 24, Type (0, 0), BuildingBlock: CIFDUS_clean_linker_0, # of connection points: 2
#     Edge 25, Type (0, 0), BuildingBlock: CIFDUS_clean_linker_0, # of connection points: 2
#     Edge 26, Type (0, 0), BuildingBlock: CIFDUS_clean_linker_0, # of connection points: 2
#     Edge 27, Type (0, 0), BuildingBlock: CIFDUS_clean_linker_0, # of connection points: 2
#     Edge 28, Type (0, 0), BuildingBlock: CIFDUS_clean_linker_0, # of connection points: 2
#     Edge 29, Type (0, 0), BuildingBlock: CIFDUS_clean_linker_0, # of connection points: 2
#     Edge 30, Type (0, 0), BuildingBlock: CIFDUS_clean_linker_0, # of connection points: 2
#     Edge 31, Type (0, 0), BuildingBlock: CIFDUS_clean_linker_0, # of connection points: 2
#     Edge 32, Type (0, 0), BuildingBlock: CIFDUS_clean_linker_0, # of connection points: 2
#     Edge 33, Type (0, 0), BuildingBlock: CIFDUS_clean_linker_0, # of connection points: 2
#     Edge 34, Type (0, 0), BuildingBlock: CIFDUS_clean_linker_0, # of connection points: 2
#     Edge 35, Type (0, 0), BuildingBlock: CIFDUS_clean_linker_0, # of connection points: 2
#     Edge 36, Type (0, 0), BuildingBlock: CIFDUS_clean_linker_0, # of connection points: 2
#     Edge 37, Type (0, 0), BuildingBlock: CIFDUS_clean_linker_0, # of connection points: 2
#     Edge 38, Type (0, 0), BuildingBlock: CIFDUS_clean_linker_0, # of connection points: 2
#     Edge 39, Type (0, 0), BuildingBlock: CIFDUS_clean_linker_0, # of connection points: 2
#     Edge 40, Type (0, 0), BuildingBlock: CIFDUS_clean_linker_0, # of connection points: 2
#     Edge 41, Type (0, 0), BuildingBlock: CIFDUS_clean_linker_0, # of connection points: 2
#     Edge 42, Type (0, 0), BuildingBlock: CIFDUS_clean_linker_0, # of connection points: 2
#     Edge 43, Type (0, 0), BuildingBlock: CIFDUS_clean_linker_0, # of connection points: 2
#     Edge 44, Type (0, 0), BuildingBlock: CIFDUS_clean_linker_0, # of connection points: 2
#     Edge 45, Type (0, 0), BuildingBlock: CIFDUS_clean_linker_0, # of connection points: 2
#     Edge 46, Type (0, 0), BuildingBlock: CIFDUS_clean_linker_0, # of connection points: 2
#     Edge 47, Type (0, 0), BuildingBlock: CIFDUS_clean_linker_0, # of connection points: 2
#     Edge 48, Type (0, 0), BuildingBlock: CIFDUS_clean_linker_0, # of connection points: 2
#     Edge 49, Type (0, 0), BuildingBlock: CIFDUS_clean_linker_0, # of connection points: 2
#     Edge 50, Type (0, 0), BuildingBlock: CIFDUS_clean_linker_0, # of connection points: 2
#     Edge 51, Type (0, 0), BuildingBlock: CIFDUS_clean_linker_0, # of connection points: 2
#     Edge 52, Type (0, 0), BuildingBlock: CIFDUS_clean_linker_0, # of connection points: 2
#     Edge 53, Type (0, 0), BuildingBlock: CIFDUS_clean_linker_0, # of connection points: 2
#     Edge 54, Type (0, 0), BuildingBlock: CIFDUS_clean_linker_0, # of connection points: 2
#     Edge 55, Type (0, 0), BuildingBlock: CIFDUS_clean_linker_0, # of connection points: 2
# Relax obj value: 0.070
# Max RMSD: 0.156
# Mean RMSD: 0.155
data_MOF--net-fnj--node1-XOMCOT_clean_sbu_0--edge1-CIFDUS_clean_linker_0
_symmetry_space_group_name_H-M    P1
_symmetry_Int_Tables_number       1
_symmetry_cell_setting            triclinic
loop_
_symmetry_equiv_pos_as_xyz
'x, y, z'
_cell_length_a     68.311126
_cell_length_b     68.381485
_cell_length_c     15.862311
_cell_angle_alpha  90.686352
_cell_angle_beta   90.988079
_cell_angle_gamma 90.077689
loop_
_atom_site_label
_atom_site_type_symbol
_atom_site_fract_x
_atom_site_fract_y
_atom_site_fract_z
_atom_type_partial_charge
Co0 Co 0.37658 0.00838 1.01007 0.0
C1 C 0.37919 0.00899 0.82553 0.0
C2 C 0.3574 0.02895 0.87084 0.0
C3 C 0.35716 0.02934 0.78417 0.0
N4 N 0.37128 0.01628 0.8963 0.0
N5 N 0.37086 0.01678 0.75583 0.0
H6 H 0.39034 0.99777 0.82527 0.0
H7 H 0.34785 0.03701 0.91235 0.0
C8 C 0.37794 0.04749 0.10618 0.0
O9 O 0.39353 0.0433 0.15206 0.0
N10 N 0.38154 1.00029 0.1252 0.0
C11 C 0.39385 0.98621 0.15255 0.0
C12 C 0.39293 0.98519 0.23868 0.0
C13 C 0.37261 0.00693 0.19514 0.0
N14 N 0.37969 0.99833 0.26545 0.0
C15 C 0.41561 0.9954 0.98162 0.0
C16 C 0.4332 0.03164 0.97621 0.0
C17 C 0.44515 0.01488 0.97562 0.0
C18 C 0.43589 0.99656 0.9766 0.0
C19 C 0.41289 0.02976 0.98387 0.0
N20 N 0.40448 0.01178 0.9916 0.0
H21 H 0.40891 0.98112 0.97942 0.0
H22 H 0.40405 0.0428 0.98271 0.0
H23 H 0.40261 0.9768 0.11371 0.0
H24 H 0.36134 0.01802 0.19475 0.0
O25 O 0.37336 0.98125 0.97482 0.0
O26 O 0.34979 1.00079 0.01993 0.0
O27 O 0.37206 0.03613 0.04678 0.0
C28 C 0.35484 0.98386 0.98972 0.0
H29 H 0.34762 0.03821 0.74521 0.0
H30 H 0.40114 0.97526 0.27838 0.0
H31 H 0.43937 0.04614 0.97081 0.0
H32 H 0.44409 0.98305 0.97574 0.0
Co33 Co 0.25854 0.12878 0.2702 0.0
C34 C 0.25797 0.13312 0.0868 0.0
C35 C 0.23499 0.11411 0.12712 0.0
C36 C 0.23487 0.11423 0.04059 0.0
N37 N 0.24944 0.12598 0.15571 0.0
N38 N 0.24941 0.12608 0.01546 0.0
H39 H 0.27059 0.14271 0.0891 0.0
H40 H 0.22583 0.10515 0.16598 0.0
C41 C 0.21608 0.12598 0.34731 0.0
O42 O 0.2144 0.14333 0.3828 0.0
N43 N 0.2677 0.13133 0.38592 0.0
C44 C 0.28493 0.13881 0.41392 0.0
C45 C 0.28516 0.13905 0.50043 0.0
C46 C 0.25811 0.12637 0.45595 0.0
N47 N 0.26821 0.1313 0.5269 0.0
C48 C 0.26995 0.16876 0.27064 0.0
C49 C 0.23349 0.18544 0.24963 0.0
C50 C 0.24993 0.19774 0.25968 0.0
C51 C 0.26833 0.18903 0.26887 0.0
C52 C 0.23585 0.16499 0.25074 0.0
N53 N 0.25384 0.15692 0.26556 0.0
H54 H 0.2844 0.16265 0.27521 0.0
H55 H 0.2233 0.15575 0.23826 0.0
H56 H 0.2967 0.14374 0.3749 0.0
H57 H 0.24426 0.11888 0.45542 0.0
O58 O 0.28555 0.12828 0.23232 0.0
O59 O 0.26803 0.10236 0.26623 0.0
O60 O 0.23149 0.12113 0.30777 0.0
C61 C 0.28443 0.10938 0.23951 0.0
H62 H 0.22555 0.10538 0.99952 0.0
H63 H 0.29686 0.14486 0.54014 0.0
H64 H 0.21903 0.19154 0.23959 0.0
H65 H 0.28147 0.19782 0.27602 0.0
Co66 Co 0.13224 0.00675 0.52006 0.0
C67 C 0.13319 0.00775 0.71058 0.0
C68 C 0.15101 0.02997 0.65572 0.0
C69 C 0.15323 0.03108 0.74185 0.0
N70 N 0.13845 0.0154 0.6354 0.0
N71 N 0.14221 0.01707 0.77692 0.0
H72 H 0.12363 0.99521 0.71643 0.0
H73 H 0.15862 0.0389 0.61105 0.0
C74 C 0.13192 0.04685 0.42863 0.0
O75 O 0.11555 0.04398 0.38558 0.0
N76 N 0.12616 0.99791 0.40398 0.0
C77 C 0.11487 0.98229 0.3837 0.0
C78 C 0.11294 0.9807 0.29762 0.0
C79 C 0.13163 0.00513 0.32815 0.0
N80 N 0.12329 0.99511 0.26216 0.0
C81 C 0.09286 0.99539 0.55325 0.0
C82 C 0.07535 0.03151 0.53735 0.0
C83 C 0.06347 0.01484 0.54331 0.0
C84 C 0.0725 0.99675 0.55476 0.0
C85 C 0.09584 0.02953 0.53859 0.0
N86 N 0.10432 0.01143 0.53959 0.0
H87 H 0.09926 0.98113 0.56057 0.0
H88 H 0.10467 0.04256 0.53831 0.0
H89 H 0.10847 0.97244 0.42811 0.0
H90 H 0.14125 0.01754 0.32096 0.0
O91 O 0.13391 0.97972 0.55644 0.0
O92 O 0.15863 0.99703 0.50848 0.0
O93 O 0.13835 0.03414 0.48055 0.0
C94 C 0.15234 0.98056 0.53782 0.0
H95 H 0.16254 0.04136 0.77613 0.0
H96 H 0.10457 0.96962 0.26349 0.0
H97 H 0.06886 0.04589 0.53176 0.0
H98 H 0.06385 0.98358 0.56141 0.0
Co99 Co 0.25666 0.88499 0.76983 0.0
C100 C 0.2569 0.8834 0.9562 0.0
C101 C 0.23839 0.90626 0.90929 0.0
C102 C 0.2384 0.90704 0.9961 0.0
N103 N 0.24986 0.89131 0.8845 0.0
N104 N 0.24998 0.89258 0.02519 0.0
H105 H 0.26742 0.87167 0.95849 0.0
H106 H 0.23085 0.91616 0.86717 0.0
C107 C 0.21858 0.88972 0.66812 0.0
O108 O 0.22407 0.87783 0.6075 0.0
N109 N 0.26395 0.87897 0.65524 0.0
C110 C 0.27305 0.86264 0.62847 0.0
C111 C 0.27532 0.86364 0.54295 0.0
C112 C 0.26165 0.89011 0.58611 0.0
N113 N 0.26781 0.88075 0.51583 0.0
C114 C 0.2661 0.84677 0.82714 0.0
C115 C 0.2328 0.82755 0.77037 0.0
C116 C 0.24804 0.81679 0.80746 0.0
C117 C 0.26465 0.82669 0.83729 0.0
C118 C 0.23461 0.8479 0.76335 0.0
N119 N 0.25137 0.85728 0.78968 0.0
H120 H 0.27955 0.85366 0.84768 0.0
H121 H 0.22258 0.85575 0.73584 0.0
H122 H 0.27769 0.85069 0.66778 0.0
H123 H 0.25446 0.9042 0.58686 0.0
O124 O 0.28416 0.88545 0.80081 0.0
O125 O 0.26688 0.91113 0.75956 0.0
O126 O 0.2287 0.89167 0.73618 0.0
C127 C 0.28344 0.90408 0.78695 0.0
H128 H 0.23042 0.91735 0.03472 0.0
H129 H 0.28186 0.85243 0.50392 0.0
H130 H 0.21963 0.82031 0.74713 0.0
H131 H 0.27683 0.81884 0.86553 0.0
Co132 Co 0.6302 0.01539 0.99884 0.0
C133 C 0.62895 0.01523 0.18431 0.0
C134 C 0.64358 0.98967 0.13951 0.0
C135 C 0.64387 0.98958 0.22635 0.0
N136 N 0.63369 0.00556 0.11288 0.0
N137 N 0.63462 0.00574 0.25465 0.0
H138 H 0.6224 0.02953 0.18469 0.0
H139 H 0.65106 0.97929 0.09996 0.0
C140 C 0.63734 0.97171 0.94911 0.0
O141 O 0.62349 0.96373 0.99384 0.0
N142 N 0.62693 0.02543 0.88678 0.0
C143 C 0.61321 0.03813 0.86023 0.0
C144 C 0.61351 0.03866 0.77353 0.0
C145 C 0.63563 0.01875 0.8168 0.0
N146 N 0.62753 0.02628 0.74615 0.0
C147 C 0.59077 0.01613 0.05457 0.0
C148 C 0.57468 0.99478 0.92176 0.0
C149 C 0.5621 1.0035 0.98056 0.0
C150 C 0.57057 0.01372 0.04911 0.0
C151 C 0.59499 0.99702 0.93124 0.0
N152 N 0.60278 0.00779 0.99671 0.0
H153 H 0.59653 0.02564 0.10323 0.0
H154 H 0.60435 0.99116 0.88295 0.0
H155 H 0.60293 0.04553 0.90069 0.0
H156 H 0.64721 0.00811 0.81771 0.0
O157 O 0.62806 0.04194 0.04354 0.0
O158 O 0.65553 0.02688 1.00743 0.0
O159 O 0.63972 0.99018 0.94869 0.0
C160 C 0.64711 0.04226 0.03884 0.0
H161 H 0.65093 0.97863 0.26485 0.0
H162 H 0.60338 0.04674 0.73418 0.0
H163 H 0.56896 0.98705 0.86672 0.0
H164 H 0.56172 0.02042 0.09743 0.0
Co165 Co 0.74959 0.88335 0.7629 0.0
C166 C 0.74882 0.88286 0.94927 0.0
C167 C 0.77488 0.8968 0.90719 0.0
C168 C 0.77479 0.89762 0.99382 0.0
N169 N 0.75875 0.88715 0.87889 0.0
N170 N 0.75833 0.8889 0.01998 0.0
H171 H 0.73464 0.87589 0.94922 0.0
H172 H 0.78558 0.90384 0.86886 0.0
C173 C 0.79343 0.89079 0.72009 0.0
O174 O 0.80057 0.87533 0.75811 0.0
N175 N 0.7404 0.87987 0.64806 0.0
C176 C 0.72506 0.86894 0.62081 0.0
C177 C 0.72463 0.86885 0.53395 0.0
C178 C 0.74903 0.88629 0.57788 0.0
N179 N 0.73985 0.8796 0.50749 0.0
C180 C 0.74882 0.84417 0.819 0.0
C181 C 0.77098 0.8275 0.69357 0.0
C182 C 0.76131 0.81509 0.74984 0.0
C183 C 0.75029 0.82391 0.81352 0.0
C184 C 0.76883 0.84792 0.7006 0.0
N185 N 0.7579 0.85605 0.76327 0.0
H186 H 0.73908 0.85015 0.86498 0.0
H187 H 0.77519 0.85707 0.65322 0.0
H188 H 0.71531 0.86099 0.66103 0.0
H189 H 0.76199 0.89536 0.5776 0.0
O190 O 0.72302 0.87963 0.80158 0.0
O191 O 0.73617 0.90812 0.76937 0.0
O192 O 0.77504 0.89422 0.71955 0.0
C193 C 0.72107 0.89848 0.79577 0.0
H194 H 0.78554 0.90491 0.0341 0.0
H195 H 0.7145 0.86076 0.4935 0.0
H196 H 0.7797 0.82157 0.64308 0.0
H197 H 0.7418 0.81531 0.85658 0.0
Co198 Co 0.87685 0.01034 0.53093 0.0
C199 C 0.87938 0.00707 0.33983 0.0
C200 C 0.85988 0.98612 0.3925 0.0
C201 C 0.85954 0.98376 0.30629 0.0
N202 N 0.87281 1.00028 0.41485 0.0
N203 N 0.87172 0.99692 0.27276 0.0
H204 H 0.88912 0.01939 0.33358 0.0
H205 H 0.85058 0.97845 0.43548 0.0
C206 C 0.87463 0.96634 0.56021 0.0
O207 O 0.88837 0.96284 0.5051 0.0
N208 N 0.88056 0.02056 0.64602 0.0
C209 C 0.89045 0.03708 0.66596 0.0
C210 C 0.8906 0.03974 0.75203 0.0
C211 C 0.87503 0.0132 0.72143 0.0
N212 N 0.88095 0.02479 0.78745 0.0
C213 C 0.91621 0.01693 0.47993 0.0
C214 C 0.93428 0.99222 0.59318 0.0
C215 C 0.94616 0.00451 0.54486 0.0
C216 C 0.93662 0.01691 0.48731 0.0
C217 C 0.91383 0.99324 0.58594 0.0
N218 N 0.90496 0.00516 0.52839 0.0
H219 H 0.90949 0.0275 0.43895 0.0
H220 H 0.90522 0.98506 0.62973 0.0
H221 H 0.89734 0.0465 0.62093 0.0
H222 H 0.86677 0.99981 0.72803 0.0
O223 O 0.87681 0.03683 0.48756 0.0
O224 O 0.8506 0.02058 0.52776 0.0
O225 O 0.86973 0.98391 0.57847 0.0
C226 C 0.85795 0.03651 0.49738 0.0
H227 H 0.85042 0.97358 0.2705 0.0
H228 H 0.89766 0.05167 0.78623 0.0
H229 H 0.94054 0.98218 0.63828 0.0
H230 H 0.94463 0.02737 0.45064 0.0
Co231 Co 0.75446 0.13023 0.2801 0.0
C232 C 0.75659 0.13385 0.09477 0.0
C233 C 0.77484 0.11077 0.1408 0.0
C234 C 0.77478 0.1101 0.05402 0.0
N235 N 0.76372 0.12592 0.16649 0.0
N236 N 0.76314 0.12455 0.02532 0.0
H237 H 0.74595 0.1454 0.0927 0.0
H238 H 0.78154 0.10015 0.1822 0.0
C239 C 0.79871 0.12624 0.30242 0.0
O240 O 0.80263 0.13618 0.23438 0.0
N241 N 0.74512 0.13412 0.39267 0.0
C242 C 0.73124 0.14669 0.41821 0.0
C243 C 0.73104 0.14678 0.50507 0.0
C244 C 0.75294 0.12655 0.46346 0.0
N245 N 0.74483 0.1342 0.53345 0.0
C246 C 0.74467 0.16879 0.22777 0.0
C247 C 0.77373 0.18837 0.31751 0.0
C248 C 0.76029 0.19923 0.26906 0.0
C249 C 0.7457 0.18906 0.22353 0.0
C250 C 0.7724 0.16795 0.31856 0.0
N251 N 0.75828 0.15834 0.27214 0.0
H252 H 0.73247 0.16158 0.19661 0.0
H253 H 0.78226 0.16007 0.35957 0.0
H254 H 0.72248 0.15574 0.37683 0.0
H255 H 0.7646 0.11591 0.46352 0.0
O256 O 0.72768 0.12803 0.2376 0.0
O257 O 0.74625 0.10354 0.28217 0.0
O258 O 0.78124 0.12509 0.32895 0.0
C259 C 0.72975 0.10933 0.24941 0.0
H260 H 0.78167 0.09903 0.01533 0.0
H261 H 0.72203 0.1561 0.54394 0.0
H262 H 0.78483 0.19555 0.35634 0.0
H263 H 0.73496 0.19662 0.18505 0.0
Co264 Co 0.87562 0.5076 0.51961 0.0
C265 C 0.87862 0.50705 0.33563 0.0
C266 C 0.86544 0.53371 0.37941 0.0
C267 C 0.86534 0.53372 0.29277 0.0
N268 N 0.87379 0.51699 0.40596 0.0
N269 N 0.87346 0.51688 0.26562 0.0
H270 H 0.88533 0.49273 0.33571 0.0
H271 H 0.85911 0.54481 0.41957 0.0
C272 C 0.87861 0.54907 0.6047 0.0
O273 O 0.89647 0.54804 0.63623 0.0
N274 N 0.87707 0.49799 0.63434 0.0
C275 C 0.88097 0.47959 0.65962 0.0
C276 C 0.88105 0.47912 0.74618 0.0
C277 C 0.87386 0.50811 0.7061 0.0
N278 N 0.87669 0.49716 0.77524 0.0
C279 C 0.91468 0.49331 0.52949 0.0
C280 C 0.93335 0.52735 0.4838 0.0
C281 C 0.9445 0.51071 0.50215 0.0
C282 C 0.93499 0.49355 0.52482 0.0
C283 C 0.91294 0.52656 0.49076 0.0
N284 N 0.90392 0.50981 0.51591 0.0
H285 H 0.90763 0.47961 0.54166 0.0
H286 H 0.90436 0.53927 0.47445 0.0
H287 H 0.88356 0.46718 0.61855 0.0
H288 H 0.86883 0.52296 0.70856 0.0
O289 O 0.8724 0.48099 0.47731 0.0
O290 O 0.84848 0.50108 0.51459 0.0
O291 O 0.87119 0.53498 0.56159 0.0
C292 C 0.85368 0.48414 0.48489 0.0
H293 H 0.85889 0.54481 0.2529 0.0
H294 H 0.88438 0.46651 0.78433 0.0
H295 H 0.94035 0.54075 0.46439 0.0
H296 H 0.94318 0.48029 0.53693 0.0
Co297 Co 0.75935 0.62928 0.78081 0.0
C298 C 0.75661 0.62929 0.58881 0.0
C299 C 0.73877 0.60746 0.64544 0.0
C300 C 0.73789 0.60484 0.55942 0.0
N301 N 0.7502 0.62301 0.665 0.0
N302 N 0.74918 0.61844 0.52321 0.0
H303 H 0.76752 0.6405 0.58105 0.0
H304 H 0.73236 0.59782 0.69092 0.0
C305 C 0.71518 0.62274 0.80457 0.0
O306 O 0.70986 0.6329 0.73827 0.0
N307 N 0.76854 0.63512 0.89594 0.0
C308 C 0.7825 0.64834 0.9166 0.0
C309 C 0.78334 0.65064 1.003 0.0
C310 C 0.76118 0.62936 0.97096 0.0
N311 N 0.76995 0.63877 0.03749 0.0
C312 C 0.76521 0.66778 0.7187 0.0
C313 C 0.73881 0.68664 0.82124 0.0
C314 C 0.75135 0.69797 0.77201 0.0
C315 C 0.76438 0.68817 0.7191 0.0
C316 C 0.74004 0.66616 0.8186 0.0
N317 N 0.75318 0.65694 0.76775 0.0
H318 H 0.77659 0.66086 0.68303 0.0
H319 H 0.73126 0.65787 0.8614 0.0
H320 H 0.79098 0.65637 0.87162 0.0
H321 H 0.74912 0.61923 0.97681 0.0
O322 O 0.78627 0.62922 0.7417 0.0
O323 O 0.77012 0.60345 0.78766 0.0
O324 O 0.73313 0.62203 0.82821 0.0
C325 C 0.78603 0.61052 0.75625 0.0
H326 H 0.73004 0.59326 0.52617 0.0
H327 H 0.79285 0.66061 0.03792 0.0
H328 H 0.72855 0.69354 0.86351 0.0
H329 H 0.77478 0.69619 0.68197 0.0
Co330 Co 0.63329 0.50579 0.01679 0.0
C331 C 0.63605 0.50437 0.20311 0.0
C332 C 0.63952 0.5337 0.16056 0.0
C333 C 0.64094 0.53373 0.24704 0.0
N334 N 0.63622 0.51526 0.13265 0.0
N335 N 0.63867 0.51524 0.27395 0.0
H336 H 0.63358 0.48879 0.20262 0.0
H337 H 0.64112 0.54644 0.12217 0.0
C338 C 0.6319 0.54959 0.96436 0.0
O339 O 0.61404 0.55304 0.98971 0.0
N340 N 0.63079 0.49639 0.90234 0.0
C341 C 0.62097 0.48041 0.87448 0.0
C342 C 0.62141 0.47996 0.78769 0.0
C343 C 0.6372 0.50531 0.83292 0.0
N344 N 0.63146 0.49574 0.76211 0.0
C345 C 0.59534 0.50106 0.08447 0.0
C346 C 0.57383 0.51733 0.95429 0.0
C347 C 0.56383 0.509 0.02189 0.0
C348 C 0.57499 0.50077 0.08719 0.0
C349 C 0.59442 0.51729 0.95405 0.0
N350 N 0.60496 0.50963 0.01987 0.0
H351 H 0.6033 0.49341 0.13289 0.0
H352 H 0.60183 0.52306 0.90008 0.0
H353 H 0.61339 0.47025 0.91425 0.0
H354 H 0.64558 0.51873 0.83367 0.0
O355 O 0.63408 0.47885 0.05457 0.0
O356 O 0.6599 0.49658 0.02099 0.0
O357 O 0.63977 0.53278 0.97358 0.0
C358 C 0.653 0.48001 0.04695 0.0
H359 H 0.64366 0.5465 0.28638 0.0
H360 H 0.6141 0.4694 0.74658 0.0
H361 H 0.56587 0.5237 0.90179 0.0
H362 H 0.56808 0.49339 0.13891 0.0
Co363 Co 0.75704 0.38386 0.25662 0.0
C364 C 0.75644 0.38177 0.44278 0.0
C365 C 0.73446 0.40122 0.39575 0.0
C366 C 0.73464 0.40228 0.48244 0.0
N367 N 0.74781 0.38795 0.37066 0.0
N368 N 0.74859 0.3901 0.51184 0.0
H369 H 0.76902 0.37236 0.44512 0.0
H370 H 0.7261 0.4106 0.35439 0.0
C371 C 0.7129 0.38861 0.22426 0.0
O372 O 0.70782 0.37587 0.28128 0.0
N373 N 0.76627 0.38025 0.1438 0.0
C374 C 0.77986 0.36742 0.11764 0.0
C375 C 0.78021 0.36768 0.03086 0.0
C376 C 0.75871 0.38828 0.07346 0.0
N377 N 0.76677 0.38071 1.0033 0.0
C378 C 0.76237 0.34474 0.31052 0.0
C379 C 0.73577 0.32713 0.20077 0.0
C380 C 0.74725 0.3154 0.25419 0.0
C381 C 0.76048 0.32454 0.31015 0.0
C382 C 0.73803 0.34751 0.20379 0.0
N383 N 0.75094 0.35611 0.2597 0.0
H384 H 0.77389 0.35103 0.34889 0.0
H385 H 0.73008 0.35621 0.15841 0.0
H386 H 0.78826 0.35793 0.15854 0.0
H387 H 0.74723 0.39915 0.07352 0.0
O388 O 0.78384 0.38309 0.29891 0.0
O389 O 0.76766 0.40977 0.26034 0.0
O390 O 0.73087 0.39159 0.20841 0.0
C391 C 0.78356 0.402 0.29096 0.0
H392 H 0.72605 0.41221 0.52041 0.0
H393 H 0.78897 0.35828 0.99123 0.0
H394 H 0.72574 0.32061 0.15488 0.0
H395 H 0.76972 0.31612 0.35238 0.0
Co396 Co 0.12863 0.51211 0.52341 0.0
C397 C 0.12878 0.51128 0.71571 0.0
C398 C 0.14855 0.49081 0.65947 0.0
C399 C 0.14977 0.48891 0.74537 0.0
N400 N 0.13514 0.50454 0.63971 0.0
N401 N 0.13734 0.50167 0.78115 0.0
H402 H 0.11811 0.52275 0.72368 0.0
H403 H 0.15711 0.48267 0.61465 0.0
C404 C 0.13578 0.47474 0.41898 0.0
O405 O 0.12347 0.47836 0.35667 0.0
N406 N 0.12239 0.51997 0.40766 0.0
C407 C 0.10666 0.53075 0.38523 0.0
C408 C 0.10696 0.53407 0.29991 0.0
C409 C 0.13241 0.51738 0.33502 0.0
N410 N 0.12299 0.52552 0.2681 0.0
C411 C 0.09097 0.52021 0.58835 0.0
C412 C 0.07069 0.49026 0.50764 0.0
C413 C 0.06035 0.50425 0.55424 0.0
C414 C 0.07076 0.51913 0.59602 0.0
C415 C 0.09112 0.49162 0.50317 0.0
N416 N 0.10101 0.50671 0.54197 0.0
H417 H 0.09837 0.53254 0.61726 0.0
H418 H 0.0987 0.48082 0.46668 0.0
H419 H 0.09563 0.53597 0.42798 0.0
H420 H 0.14616 0.5096 0.33092 0.0
O421 O 0.12921 0.53939 0.55668 0.0
O422 O 0.15474 0.52216 0.5137 0.0
O423 O 0.13531 0.48443 0.48826 0.0
C424 C 0.14789 0.53857 0.54292 0.0
H425 H 0.15925 0.47893 0.77927 0.0
H426 H 0.09599 0.54186 0.26347 0.0
H427 H 0.06304 0.47848 0.47475 0.0
H428 H 0.06325 0.53037 0.63169 0.0
Co429 Co 0.2489 0.38431 0.25736 0.0
C430 C 0.24577 0.38856 0.44297 0.0
C431 C 0.27512 0.3824 0.40515 0.0
C432 C 0.27494 0.38386 0.49146 0.0
N433 N 0.25684 0.38542 0.37465 0.0
N434 N 0.25648 0.38776 0.51509 0.0
H435 H 0.23021 0.39133 0.44042 0.0
H436 H 0.28775 0.37895 0.36775 0.0
C437 C 0.28861 0.39085 0.16917 0.0
O438 O 0.28493 0.37873 0.106 0.0
N439 N 0.24083 0.3829 0.14022 0.0
C440 C 0.22718 0.3706 0.10752 0.0
C441 C 0.22577 0.3733 0.02238 0.0
C442 C 0.24685 0.39364 0.0748 0.0
N443 N 0.2383 0.38763 1.0016 0.0
C444 C 0.23865 0.34402 0.26842 0.0
C445 C 0.27498 0.32754 0.24629 0.0
C446 C 0.25867 0.31505 0.25365 0.0
C447 C 0.24037 0.32378 0.26481 0.0
C448 C 0.27249 0.34799 0.24798 0.0
N449 N 0.25432 0.35607 0.2565 0.0
H450 H 0.22427 0.34982 0.27899 0.0
H451 H 0.28531 0.35706 0.24403 0.0
H452 H 0.21878 0.3602 0.14242 0.0
H453 H 0.25748 0.40533 0.08016 0.0
O454 O 0.22142 0.38344 0.2863 0.0
O455 O 0.23815 0.41058 0.2657 0.0
O456 O 0.27651 0.39286 0.22927 0.0
C457 C 0.22152 0.40236 0.28244 0.0
H458 H 0.28736 0.3816 0.53349 0.0
H459 H 0.21689 0.36468 0.97869 0.0
H460 H 0.28959 0.32166 0.24018 0.0
H461 H 0.22715 0.31516 0.26939 0.0
Co462 Co 0.37949 0.5108 0.99831 0.0
C463 C 0.37892 0.51031 0.80537 0.0
C464 C 0.35714 0.49211 0.86053 0.0
C465 C 0.35561 0.4902 0.77446 0.0
N466 N 0.37206 0.50432 0.88104 0.0
N467 N 0.36927 0.50157 0.73949 0.0
H468 H 0.39062 0.52068 0.79753 0.0
H469 H 0.34771 0.48514 0.90516 0.0
C470 C 0.37052 0.47225 0.09269 0.0
O471 O 0.38055 0.47699 0.1612 0.0
N472 N 0.38647 0.51762 0.11534 0.0
C473 C 0.40319 0.52675 0.13972 0.0
C474 C 0.40295 0.53021 0.2253 0.0
C475 C 0.37594 0.51625 0.18702 0.0
N476 N 0.38596 0.52344 0.25523 0.0
C477 C 0.41748 0.51551 0.93019 0.0
C478 C 0.43641 0.48609 0.01653 0.0
C479 C 0.44741 0.49878 0.9671 0.0
C480 C 0.43762 0.51336 0.92252 0.0
C481 C 0.41597 0.48837 0.02048 0.0
N482 N 0.4067 0.50316 0.97833 0.0
H483 H 0.41084 0.52799 0.90077 0.0
H484 H 0.40797 0.4788 0.06049 0.0
H485 H 0.41483 0.5308 0.09805 0.0
H486 H 0.36141 0.50996 0.18947 0.0
O487 O 0.38193 0.538 0.97083 0.0
O488 O 0.35439 0.52394 1.0099 0.0
O489 O 0.37063 0.48322 0.0278 0.0
C490 C 0.3634 0.53965 0.98548 0.0
H491 H 0.34507 0.48122 0.7399 0.0
H492 H 0.41455 0.53687 0.26317 0.0
H493 H 0.44356 0.47471 0.05258 0.0
H494 H 0.44566 0.52375 0.88527 0.0
Co495 Co 0.25318 0.63157 0.76611 0.0
C496 C 0.25265 0.63346 0.58026 0.0
C497 C 0.27949 0.62118 0.62719 0.0
C498 C 0.27988 0.62105 0.54044 0.0
N499 N 0.26251 0.62924 0.65208 0.0
N500 N 0.263 0.62885 0.51126 0.0
H501 H 0.23785 0.63894 0.57796 0.0
H502 H 0.29067 0.61532 0.66865 0.0
C503 C 0.2985 0.63014 0.83537 0.0
O504 O 0.30931 0.64596 0.82991 0.0
N505 N 0.24394 0.63382 0.87941 0.0
C506 C 0.22757 0.64303 0.90394 0.0
C507 C 0.22672 0.64237 0.99042 0.0
C508 C 0.25282 0.62766 0.95059 0.0
N509 N 0.24265 0.63274 0.01967 0.0
C510 C 0.23982 0.66886 0.71005 0.0
C511 C 0.2656 0.69139 0.80594 0.0
C512 C 0.25199 0.70073 0.75287 0.0
C513 C 0.23892 0.68916 0.70504 0.0
C514 C 0.26598 0.67096 0.80914 0.0
N515 N 0.25356 0.65993 0.75968 0.0
H516 H 0.229 0.6604 0.67555 0.0
H517 H 0.27588 0.66418 0.85348 0.0
H518 H 0.21715 0.65 0.86192 0.0
H519 H 0.2667 0.62015 0.95199 0.0
O520 O 0.22675 0.62668 0.7264 0.0
O521 O 0.24807 0.6039 0.76508 0.0
O522 O 0.28085 0.63067 0.80844 0.0
C523 C 0.23079 0.60823 0.73503 0.0
H524 H 0.29169 0.61564 0.50202 0.0
H525 H 0.21522 0.64853 0.02851 0.0
H526 H 0.27582 0.69974 0.84498 0.0
H527 H 0.22766 0.69571 0.66569 0.0
H528 H 0.34672 0.02015 0.62045 0.0
H529 H 0.40527 1.00337 0.6961 0.0
H530 H 0.41307 0.99596 0.54982 0.0
H531 H 0.4035 0.99488 0.4007 0.0
H532 H 0.3452 0.01204 0.32385 0.0
H533 H 0.33722 0.01932 0.47058 0.0
C534 C 0.36125 0.01508 0.60499 0.0
C535 C 0.37538 0.01235 0.66937 0.0
C536 C 0.36571 0.01105 0.52062 0.0
C537 C 0.39403 0.00537 0.64813 0.0
C538 C 0.39855 1.00126 0.56438 0.0
C539 C 0.38897 0.99998 0.41607 0.0
C540 C 0.37491 1.00273 0.35156 0.0
C541 C 0.3845 0.00405 0.50025 0.0
C542 C 0.35631 0.00988 0.3723 0.0
C543 C 0.35171 0.01394 0.45618 0.0
H544 H 0.22712 0.12367 0.87504 0.0
H545 H 0.28628 0.13391 0.9648 0.0
H546 H 0.29738 0.13632 0.82007 0.0
H547 H 0.29047 0.13426 0.66908 0.0
H548 H 0.23101 0.12467 0.57958 0.0
H549 H 0.22009 0.12232 0.7236 0.0
C550 C 0.24246 0.12631 0.86291 0.0
C551 C 0.25582 0.12857 0.93053 0.0
C552 C 0.24878 0.12744 0.77975 0.0
C553 C 0.27561 0.13237 0.91396 0.0
C554 C 0.28202 0.13356 0.8312 0.0
C555 C 0.27509 0.13187 0.68044 0.0
C556 C 0.26173 0.12959 0.61254 0.0
C557 C 0.26873 0.13098 0.76367 0.0
C558 C 0.24185 0.12617 0.62967 0.0
C559 C 0.23547 0.125 0.71239 0.0
H560 H 0.15394 0.00825 0.1711 0.0
H561 H 0.09346 0.99069 0.14996 0.0
H562 H 0.09393 0.99493 0.99751 0.0
H563 H 0.11156 1.00373 0.86783 0.0
H564 H 0.17219 0.02088 0.88919 0.0
H565 H 0.17164 0.01668 0.0414 0.0
C566 C 0.14085 0.00553 0.13311 0.0
C567 C 0.12372 0.99906 0.17241 0.0
C568 C 0.14126 0.00782 0.04447 0.0
C569 C 0.10693 0.99544 0.12165 0.0
C570 C 0.10717 0.99789 0.03413 0.0
C571 C 0.12467 0.00635 0.90576 0.0
C572 C 0.14182 0.01281 0.86647 0.0
C573 C 0.12428 0.00395 0.99439 0.0
C574 C 0.15865 0.01624 0.91729 0.0
C575 C 0.1584 0.01379 1.00477 0.0
H576 H 0.26671 0.85688 0.37934 0.0
H577 H 0.26127 0.91739 0.45619 0.0
H578 H 0.25494 0.92651 0.30979 0.0
H579 H 0.25128 0.91718 0.15944 0.0
H580 H 0.25745 0.85662 0.08535 0.0
H581 H 0.2638 0.84772 0.23151 0.0
C582 C 0.26454 0.87214 0.36458 0.0
C583 C 0.26471 0.88641 0.42925 0.0
C584 C 0.26113 0.87728 0.28053 0.0
C585 C 0.26118 0.90604 0.40812 0.0
C586 C 0.25763 0.91129 0.32426 0.0
C587 C 0.25391 0.90204 0.17554 0.0
C588 C 0.25391 0.88759 0.11165 0.0
C589 C 0.25755 0.89701 0.25995 0.0
C590 C 0.25762 0.86805 0.13315 0.0
C591 C 0.26113 0.86293 0.21676 0.0
H592 H 0.61544 0.04443 0.60407 0.0
H593 H 0.6483 0.99443 0.69213 0.0
H594 H 0.65386 0.98419 0.54801 0.0
H595 H 0.64885 0.98878 0.39716 0.0
H596 H 0.61377 0.03748 0.31025 0.0
H597 H 0.6096 0.04845 0.45368 0.0
C598 C 0.62369 0.03121 0.59242 0.0
C599 C 0.63139 0.02042 0.66018 0.0
C600 C 0.62648 0.02499 0.50901 0.0
C601 C 0.64233 1.00341 0.64242 0.0
C602 C 0.64544 0.99736 0.55946 0.0
C603 C 0.64025 1.00177 0.40868 0.0
C604 C 0.63193 0.0122 0.34098 0.0
C605 C 0.63749 0.00798 0.49224 0.0
C606 C 0.62078 0.02906 0.35925 0.0
C607 C 0.61823 0.03543 0.44207 0.0
H608 H 0.71708 0.88149 0.36838 0.0
H609 H 0.77721 0.88235 0.45568 0.0
H610 H 0.78831 0.88539 0.31109 0.0
H611 H 0.78094 0.88718 0.15982 0.0
H612 H 0.72078 0.88697 0.07227 0.0
H613 H 0.70969 0.88384 0.21669 0.0
C614 C 0.73259 0.88227 0.35545 0.0
C615 C 0.74628 0.88177 0.42237 0.0
C616 C 0.73887 0.88398 0.2722 0.0
C617 C 0.76637 0.88301 0.40523 0.0
C618 C 0.77274 0.88461 0.32258 0.0
C619 C 0.76541 0.88666 0.17241 0.0
C620 C 0.75176 0.88725 0.10528 0.0
C621 C 0.75911 0.8851 0.25562 0.0
C622 C 0.73165 0.88622 0.12252 0.0
C623 C 0.72526 0.88457 0.20521 0.0
H624 H 0.87267 0.03066 0.18388 0.0
H625 H 0.87744 0.96812 0.15911 0.0
H626 H 0.87998 0.97081 1.00598 0.0
H627 H 0.88051 0.99103 0.877 0.0
H628 H 0.87497 0.05357 0.90199 0.0
H629 H 0.87285 0.05085 0.05481 0.0
C630 C 0.87452 0.01769 0.14488 0.0
C631 C 0.87499 0.9992 0.18319 0.0
C632 C 0.87559 0.01933 0.05601 0.0
C633 C 0.87703 0.9825 0.13132 0.0
C634 C 0.87843 0.98403 0.04356 0.0
C635 C 0.87864 0.00401 0.91587 0.0
C636 C 0.87802 0.0225 0.87743 0.0
C637 C 0.87754 1.00236 1.00476 0.0
C638 C 0.87576 0.03917 0.92946 0.0
C639 C 0.87453 0.03764 0.01723 0.0
H640 H 0.72407 0.14177 0.67355 0.0
H641 H 0.77965 0.11941 0.58949 0.0
H642 H 0.79004 0.1143 0.73463 0.0
H643 H 0.78377 0.11674 0.88615 0.0
H644 H 0.72849 0.13958 0.97023 0.0
H645 H 0.71796 0.1446 0.82469 0.0
C646 C 0.73852 0.13594 0.68663 0.0
C647 C 0.75091 0.13094 0.61982 0.0
C648 C 0.74463 0.13333 0.77065 0.0
C649 C 0.76953 0.12312 0.63878 0.0
C650 C 0.77562 0.12032 0.72217 0.0
C651 C 0.76938 0.12269 0.87258 0.0
C652 C 0.75703 0.12781 0.93921 0.0
C653 C 0.76331 0.1254 0.78858 0.0
C654 C 0.73849 0.13579 0.92053 0.0
C655 C 0.73235 0.13852 0.83712 0.0
H656 H 0.87767 0.53888 0.12884 0.0
H657 H 0.87111 0.47932 0.2102 0.0
H658 H 0.87131 0.46784 0.06388 0.0
H659 H 0.87248 0.47491 0.91325 0.0
H660 H 0.87993 0.53462 0.83305 0.0
H661 H 0.87945 0.54588 0.97851 0.0
C662 C 0.87619 0.52341 0.11439 0.0
C663 C 0.8744 0.51 0.17997 0.0
C664 C 0.87617 0.51696 0.03042 0.0
C665 C 0.8728 0.48993 0.16074 0.0
C666 C 0.87273 0.48337 0.07713 0.0
C667 C 0.87419 0.49036 0.92732 0.0
C668 C 0.87612 0.50381 0.86165 0.0
C669 C 0.87435 0.49678 1.01149 0.0
C670 C 0.87802 0.52386 0.88161 0.0
C671 C 0.87795 0.53037 0.9651 0.0
H672 H 0.75588 0.65069 0.42826 0.0
H673 H 0.75256 0.58779 0.41523 0.0
H674 H 0.75752 0.58838 0.2635 0.0
H675 H 0.76277 0.60673 0.1318 0.0
H676 H 0.76696 0.66951 0.14444 0.0
H677 H 0.76153 0.66906 0.29646 0.0
C678 C 0.75641 0.63714 0.39226 0.0
C679 C 0.75363 0.61923 0.43382 0.0
C680 C 0.75925 0.63755 0.30382 0.0
C681 C 0.75428 0.60182 0.3854 0.0
C682 C 0.75717 0.60212 0.29819 0.0
C683 C 0.76231 0.62028 0.16788 0.0
C684 C 0.76529 0.63813 0.12646 0.0
C685 C 0.75951 0.61989 0.25625 0.0
C686 C 0.76487 0.65556 0.17462 0.0
C687 C 0.76177 0.65531 0.26181 0.0
H688 H 0.63529 0.4733 0.62366 0.0
H689 H 0.63215 0.53321 0.7103 0.0
H690 H 0.63447 0.5446 0.56578 0.0
H691 H 0.63611 0.5375 0.41558 0.0
H692 H 0.64058 0.4775 0.32853 0.0
H693 H 0.63846 0.46626 0.47233 0.0
C694 C 0.63508 0.48882 0.61058 0.0
C695 C 0.63356 0.50236 0.67724 0.0
C696 C 0.63643 0.49527 0.52739 0.0
C697 C 0.63356 0.52248 0.66002 0.0
C698 C 0.63475 0.52901 0.5774 0.0
C699 C 0.6369 0.52197 0.42732 0.0
C700 C 0.63835 0.50852 0.35991 0.0
C701 C 0.63608 0.51552 0.5106 0.0
C702 C 0.6391 0.48838 0.37791 0.0
C703 C 0.63803 0.48184 0.46065 0.0
H704 H 0.72728 0.39628 0.65083 0.0
H705 H 0.78466 0.37887 0.56829 0.0
H706 H 0.7953 0.37447 0.71381 0.0
H707 H 0.7885 0.3758 0.8648 0.0
H708 H 0.7312 0.39334 0.94756 0.0
H709 H 0.72067 0.39818 0.80201 0.0
C710 C 0.74217 0.39173 0.66457 0.0
C711 C 0.75503 0.38781 0.59822 0.0
C712 C 0.74833 0.38946 0.74868 0.0
C713 C 0.77424 0.38165 0.61749 0.0
C714 C 0.78044 0.37928 0.70098 0.0
C715 C 0.77368 0.38056 0.85104 0.0
C716 C 0.76075 0.38419 0.9173 0.0
C717 C 0.7676 0.3831 0.76703 0.0
C718 C 0.74164 0.39069 0.89822 0.0
C719 C 0.73551 0.39331 0.81478 0.0
H720 H 0.13256 0.53479 0.87557 0.0
H721 H 0.13455 0.47195 0.88938 0.0
H722 H 0.13186 0.47365 0.04251 0.0
H723 H 0.12902 0.493 0.17448 0.0
H724 H 0.12589 0.55569 0.16213 0.0
H725 H 0.12935 0.55423 1.00843 0.0
C726 C 0.1322 0.52152 0.91224 0.0
C727 C 0.13384 0.50326 0.87087 0.0
C728 C 0.13082 0.52262 1.00125 0.0
C729 C 0.13352 0.48619 0.91959 0.0
C730 C 0.13201 0.48714 1.00736 0.0
C731 C 0.12946 0.50629 0.13798 0.0
C732 C 0.12755 0.52446 0.17952 0.0
C733 C 0.13086 0.50526 0.0492 0.0
C734 C 0.12757 0.54158 0.13137 0.0
C735 C 0.1294 0.54072 0.04347 0.0
H736 H 0.21533 0.38552 0.86336 0.0
H737 H 0.27381 0.40008 0.95007 0.0
H738 H 0.28437 0.40284 0.80447 0.0
H739 H 0.27755 0.39837 0.65324 0.0
H740 H 0.21959 0.38104 0.56831 0.0
H741 H 0.20826 0.38211 0.71272 0.0
C742 C 0.23037 0.38937 0.85038 0.0
C743 C 0.24377 0.39242 0.91731 0.0
C744 C 0.23646 0.39029 0.7669 0.0
C745 C 0.26313 0.39784 0.89972 0.0
C746 C 0.26923 0.3992 0.81647 0.0
C747 C 0.26246 0.39475 0.66625 0.0
C748 C 0.24952 0.38951 0.59986 0.0
C749 C 0.25612 0.39497 0.74969 0.0
C750 C 0.22988 0.38531 0.61779 0.0
C751 C 0.22338 0.3858 0.70052 0.0
H752 H 0.37616 0.5341 0.64772 0.0
H753 H 0.37012 0.4715 0.62946 0.0
H754 H 0.37324 0.47271 0.47641 0.0
H755 H 0.37764 0.49159 0.34603 0.0
H756 H 0.3846 0.554 0.36293 0.0
H757 H 0.38071 0.55307 0.51643 0.0
C758 C 0.37572 0.52077 0.61005 0.0
C759 C 0.37287 0.50272 0.64999 0.0
C760 C 0.37729 0.52161 0.52123 0.0
C761 C 0.37214 0.48557 0.60017 0.0
C762 C 0.37388 0.48625 0.51254 0.0
C763 C 0.37792 0.50496 0.38348 0.0
C764 C 0.38103 0.52289 0.34335 0.0
C765 C 0.37625 0.50419 0.47207 0.0
C766 C 0.38196 0.54009 0.39265 0.0
C767 C 0.3799 0.53952 0.4804 0.0
H768 H 0.23081 0.65315 0.15604 0.0
H769 H 0.26701 0.60457 0.07953 0.0
H770 H 0.27667 0.59916 0.22592 0.0
H771 H 0.27454 0.60795 0.37588 0.0
H772 H 0.23811 0.65635 0.45172 0.0
H773 H 0.2283 0.66163 0.30536 0.0
C774 C 0.24059 0.6412 0.17114 0.0
C775 C 0.2481 0.62931 0.10642 0.0
C776 C 0.24594 0.63802 0.25551 0.0
C777 C 0.26114 0.61415 0.12761 0.0
C778 C 0.2666 0.61094 0.2115 0.0
C779 C 0.26459 0.61975 0.36034 0.0
C780 C 0.25711 0.63173 0.42475 0.0
C781 C 0.25911 0.6228 0.27592 0.0
C782 C 0.24392 0.64674 0.4036 0.0
C783 C 0.23839 0.64987 0.31982 0.0
H784 H 0.33922 0.04279 0.10714 0.0
H785 H 0.38443 0.08454 0.17317 0.0
H786 H 0.35928 0.1081 0.21843 0.0
H787 H 0.324 0.11648 0.23835 0.0
H788 H 0.2801 0.07261 0.18067 0.0
H789 H 0.30524 0.05015 0.13266 0.0
C790 C 0.34365 0.05711 0.13097 0.0
C791 C 0.3636 0.0621 0.13568 0.0
C792 C 0.32931 0.07012 0.15845 0.0
C793 C 0.36912 0.08046 0.16868 0.0
C794 C 0.35475 0.09388 0.19433 0.0
C795 C 0.32005 0.10199 0.21518 0.0
C796 C 0.30024 0.09618 0.21275 0.0
C797 C 0.33475 0.08885 0.18937 0.0
C798 C 0.29525 0.07735 0.18356 0.0
C799 C 0.30959 0.06452 0.15584 0.0
H800 H 0.17121 0.04766 0.42419 0.0
H801 H 0.12068 0.08477 0.39692 0.0
H802 H 0.1421 0.11314 0.37432 0.0
H803 H 0.17574 0.12725 0.36044 0.0
H804 H 0.22537 0.08838 0.37638 0.0
H805 H 0.2039 0.06101 0.40501 0.0
C806 C 0.16487 0.06198 0.41348 0.0
C807 C 0.14441 0.06416 0.4127 0.0
C808 C 0.1772 0.07796 0.39833 0.0
C809 C 0.1364 0.08273 0.39746 0.0
C810 C 0.14866 0.09894 0.38483 0.0
C811 C 0.18177 0.1128 0.37071 0.0
C812 C 0.20218 0.10995 0.36666 0.0
C813 C 0.16915 0.09675 0.38494 0.0
C814 C 0.20976 0.09105 0.37888 0.0
C815 C 0.19748 0.07532 0.39542 0.0
H816 H 0.21664 0.91442 0.53845 0.0
H817 H 0.18673 0.89808 0.76377 0.0
H818 H 0.16259 0.92418 0.74055 0.0
H819 H 0.15084 0.95254 0.65798 0.0
H820 H 0.18363 0.97108 0.44321 0.0
H821 H 0.20589 0.94338 0.46027 0.0
C822 C 0.2046 0.91641 0.58148 0.0
C823 C 0.20301 0.9041 0.65125 0.0
C824 C 0.19147 0.93198 0.56991 0.0
C825 C 0.1879 0.9072 0.70871 0.0
C826 C 0.17422 0.92216 0.69564 0.0
C827 C 0.1628 0.95037 0.61473 0.0
C828 C 0.16553 0.96367 0.54892 0.0
C829 C 0.17595 0.93476 0.62674 0.0
C830 C 0.18127 0.961 0.49424 0.0
C831 C 0.19396 0.94515 0.50384 0.0
H832 H 0.35974 0.94856 0.91023 0.0
H833 H 0.31575 0.98754 1.00896 0.0
H834 H 0.28998 0.96688 0.94936 0.0
H835 H 0.27972 0.93842 0.86607 0.0
H836 H 0.32275 0.89765 0.7755 0.0
H837 H 0.34918 0.91845 0.8337 0.0
C838 C 0.34451 0.95236 0.91947 0.0
C839 C 0.33969 0.96961 0.96343 0.0
C840 C 0.32962 0.94033 0.88513 0.0
C841 C 0.31989 0.97436 0.97516 0.0
C842 C 0.3051 0.96263 0.94069 0.0
C843 C 0.29492 0.93428 0.8581 0.0
C844 C 0.29947 0.91695 0.81505 0.0
C845 C 0.3098 0.9458 0.89448 0.0
C846 C 0.31908 0.91121 0.80748 0.0
C847 C 0.33411 0.923 0.84114 0.0
H848 H 0.71348 0.93709 0.78655 0.0
H849 H 0.68814 0.88263 0.86485 0.0
H850 H 0.65922 0.90007 0.91573 0.0
H851 H 0.64177 0.93142 0.94381 0.0
H852 H 0.66896 0.98531 0.86646 0.0
H853 H 0.69609 0.96748 0.80925 0.0
C854 C 0.7016 0.92897 0.81423 0.0
C855 C 0.703 0.90863 0.82205 0.0
C856 C 0.68517 0.93904 0.84365 0.0
C857 C 0.68742 0.89835 0.85806 0.0
C858 C 0.67089 0.90832 0.88733 0.0
C859 C 0.65352 0.9392 0.91357 0.0
C860 C 0.65294 0.95977 0.909 0.0
C861 C 0.66966 0.92877 0.88128 0.0
C862 C 0.66852 0.96955 0.87006 0.0
C863 C 0.68431 0.95936 0.83758 0.0
H864 H 0.83335 0.88941 0.69276 0.0
H865 H 0.78311 0.92756 0.67383 0.0
H866 H 0.80376 0.95401 0.62695 0.0
H867 H 0.83594 0.96685 0.59185 0.0
H868 H 0.88628 0.929 0.59882 0.0
H869 H 0.8659 0.90214 0.65016 0.0
C870 C 0.82693 0.90349 0.6782 0.0
C871 C 0.80661 0.90633 0.68754 0.0
C872 C 0.83896 0.91884 0.64956 0.0
C873 C 0.79862 0.92474 0.66755 0.0
C874 C 0.81046 0.94001 0.64081 0.0
C875 C 0.84251 0.95275 0.60517 0.0
C876 C 0.86265 0.95 0.59267 0.0
C877 C 0.83062 0.9373 0.632 0.0
C878 C 0.87082 0.93151 0.60831 0.0
C879 C 0.85915 0.91616 0.6376 0.0
H880 H 0.86775 0.06926 0.40915 0.0
H881 H 0.81947 0.04096 0.53116 0.0
H882 H 0.7976 0.0671 0.48716 0.0
H883 H 0.79166 0.09668 0.40905 0.0
H884 H 0.8387 0.125 0.27915 0.0
H885 H 0.86168 0.10022 0.33218 0.0
C886 C 0.85247 0.06894 0.4266 0.0
C887 C 0.84525 0.05314 0.47337 0.0
C888 C 0.83979 0.08398 0.39987 0.0
C889 C 0.82542 0.05287 0.4951 0.0
C890 C 0.81288 0.06784 0.47002 0.0
C891 C 0.80698 0.09778 0.39312 0.0
C892 C 0.81343 0.11285 0.34052 0.0
C893 C 0.81986 0.08331 0.4218 0.0
C894 C 0.83333 0.11362 0.31971 0.0
C895 C 0.84644 0.09941 0.34979 0.0
H896 H 0.69201 0.11557 0.19405 0.0
H897 H 0.73545 0.07053 0.23329 0.0
H898 H 0.71365 0.04629 0.17039 0.0
H899 H 0.68308 0.0378 0.1014 0.0
H900 H 0.63799 0.08111 0.06615 0.0
H901 H 0.65958 0.10621 0.13084 0.0
C902 C 0.69655 0.10041 0.18936 0.0
C903 C 0.71532 0.09487 0.21817 0.0
C904 C 0.68376 0.08632 0.15353 0.0
C905 C 0.72106 0.07519 0.21208 0.0
C906 C 0.70865 0.06129 0.17571 0.0
C907 C 0.67796 0.05277 0.10724 0.0
C908 C 0.65921 0.05779 0.07775 0.0
C909 C 0.69013 0.06674 0.14558 0.0
C910 C 0.65252 0.07705 0.0879 0.0
C911 C 0.66484 0.09133 0.12481 0.0
H912 H 0.82511 0.61892 0.73449 0.0
H913 H 0.78242 0.5723 0.71837 0.0
H914 H 0.80727 0.54974 0.66947 0.0
H915 H 0.84049 0.54304 0.6305 0.0
H916 H 0.8849 0.58778 0.65227 0.0
H917 H 0.86005 0.61132 0.70068 0.0
C918 C 0.82137 0.6038 0.72046 0.0
C919 C 0.80195 0.59728 0.73016 0.0
C920 C 0.83597 0.59062 0.69353 0.0
C921 C 0.79726 0.57765 0.71225 0.0
C922 C 0.81145 0.56473 0.6839 0.0
C923 C 0.84486 0.55798 0.64524 0.0
C924 C 0.86449 0.56376 0.63645 0.0
C925 C 0.83075 0.57106 0.67416 0.0
C926 C 0.86986 0.58302 0.6581 0.0
C927 C 0.85565 0.59644 0.68558 0.0
H928 H 0.6746 0.62187 0.79688 0.0
H929 H 0.72483 0.59159 0.90077 0.0
H930 H 0.70371 0.5667 0.95752 0.0
H931 H 0.67131 0.55266 0.97555 0.0
H932 H 0.62026 0.5829 0.88165 0.0
H933 H 0.64124 0.60855 0.824 0.0
C934 C 0.68087 0.60991 0.83251 0.0
C935 C 0.70138 0.60877 0.84415 0.0
C936 C 0.66849 0.59551 0.86674 0.0
C937 C 0.70917 0.59311 0.89091 0.0
C938 C 0.69709 0.5787 0.92331 0.0
C939 C 0.66471 0.56485 0.94242 0.0
C940 C 0.64424 0.56573 0.93216 0.0
C941 C 0.67679 0.57964 0.91112 0.0
C942 C 0.63598 0.58184 0.89036 0.0
C943 C 0.64799 0.59649 0.85723 0.0
H944 H 0.64327 0.44411 0.10941 0.0
H945 H 0.69258 0.47953 0.03824 0.0
H946 H 0.71501 0.45388 0.08223 0.0
H947 H 0.72087 0.42231 0.14493 0.0
H948 H 0.67248 0.38652 0.22272 0.0
H949 H 0.6494 0.41133 0.17075 0.0
C950 C 0.65892 0.44612 0.10305 0.0
C951 C 0.66622 0.46374 0.07044 0.0
C952 C 0.67188 0.43127 0.12932 0.0
C953 C 0.68653 0.46615 0.06288 0.0
C954 C 0.69941 0.45147 0.08808 0.0
C955 C 0.70528 0.41969 0.14997 0.0
C956 C 0.69844 0.40248 0.18766 0.0
C957 C 0.69226 0.43408 0.12183 0.0
C958 C 0.67815 0.39962 0.19414 0.0
C959 C 0.66497 0.41383 0.16458 0.0
H960 H 0.7796 0.43751 0.3589 0.0
H961 H 0.82284 0.39388 0.29965 0.0
H962 H 0.84889 0.41543 0.35629 0.0
H963 H 0.85905 0.44723 0.4206 0.0
H964 H 0.81453 0.48942 0.48513 0.0
H965 H 0.78923 0.46774 0.42926 0.0
C966 C 0.79476 0.43278 0.35785 0.0
C967 C 0.79948 0.41443 0.32406 0.0
C968 C 0.80935 0.44492 0.39203 0.0
C969 C 0.81902 0.40813 0.32501 0.0
C970 C 0.83384 0.4204 0.35737 0.0
C971 C 0.8438 0.45157 0.42278 0.0
C972 C 0.8387 0.46995 0.45636 0.0
C973 C 0.82916 0.4389 0.39087 0.0
C974 C 0.81889 0.47538 0.45935 0.0
C975 C 0.80437 0.46303 0.42721 0.0
H976 H 0.13826 0.44142 0.32181 0.0
H977 H 0.17246 0.48058 0.48089 0.0
H978 H 0.20198 0.4621 0.45137 0.0
H979 H 0.21857 0.43525 0.37728 0.0
H980 H 0.18458 0.39441 0.22658 0.0
H981 H 0.15469 0.41306 0.25462 0.0
C982 C 0.15217 0.44575 0.35035 0.0
C983 C 0.15307 0.4622 0.4043 0.0
C984 C 0.16923 0.43488 0.33366 0.0
C985 C 0.17121 0.46769 0.44085 0.0
C986 C 0.18821 0.45726 0.42322 0.0
C987 C 0.2046 0.43056 0.35038 0.0
C988 C 0.20369 0.41376 0.29904 0.0
C989 C 0.18744 0.44094 0.36924 0.0
C990 C 0.18553 0.40744 0.26599 0.0
C991 C 0.16847 0.41807 0.28207 0.0
H992 H 0.30886 0.40381 0.03307 0.0
H993 H 0.30704 0.40809 0.30439 0.0
H994 H 0.3332 0.43241 0.30491 0.0
H995 H 0.35518 0.45411 0.22838 0.0
H996 H 0.35581 0.45152 0.95665 0.0
H997 H 0.3317 0.42504 0.95626 0.0
C998 C 0.31443 0.40981 0.09234 0.0
C999 C 0.30604 0.40396 0.16861 0.0
C1000 C 0.32921 0.42429 0.09213 0.0
C1001 C 0.31321 0.41223 0.24474 0.0
C1002 C 0.32818 0.42621 0.24514 0.0
C1003 C 0.3503 0.44755 0.16906 0.0
C1004 C 0.35738 0.45484 0.09267 0.0
C1005 C 0.3361 0.43258 0.16922 0.0
C1006 C 0.35058 0.44633 0.01641 0.0
C1007 C 0.33677 0.43113 0.01614 0.0
H1008 H 0.336 0.62422 0.88726 0.0
H1009 H 0.28052 0.59456 0.85575 0.0
H1010 H 0.2952 0.56427 0.90671 0.0
H1011 H 0.3244 0.5457 0.95417 0.0
H1012 H 0.37997 0.57551 0.97821 0.0
H1013 H 0.36465 0.60616 0.93681 0.0
C1014 C 0.32705 0.61118 0.8918 0.0
C1015 C 0.30716 0.61175 0.86783 0.0
C1016 C 0.33564 0.59376 0.91995 0.0
C1017 C 0.29586 0.59462 0.87392 0.0
C1018 C 0.30426 0.57725 0.90307 0.0
C1019 C 0.33304 0.55899 0.95152 0.0
C1020 C 0.35326 0.55835 0.96943 0.0
C1021 C 0.3242 0.57659 0.92567 0.0
C1022 C 0.36437 0.57561 0.96464 0.0
C1023 C 0.35564 0.59316 0.94078 0.0
H1024 H 0.18564 0.53491 0.58918 0.0
H1025 H 0.13935 0.57733 0.56325 0.0
H1026 H 0.16099 0.60289 0.62206 0.0
H1027 H 0.19299 0.6128 0.68293 0.0
H1028 H 0.23832 0.56948 0.716 0.0
H1029 H 0.21696 0.54448 0.65332 0.0
C1030 C 0.18038 0.54982 0.59531 0.0
C1031 C 0.16111 0.5544 0.57089 0.0
C1032 C 0.19261 0.56414 0.63158 0.0
C1033 C 0.15425 0.5736 0.58108 0.0
C1034 C 0.16656 0.58814 0.615 0.0
C1035 C 0.19813 0.59786 0.67681 0.0
C1036 C 0.21718 0.59297 0.70401 0.0
C1037 C 0.18573 0.58352 0.64111 0.0
C1038 C 0.22367 0.57357 0.69598 0.0
C1039 C 0.21152 0.5593 0.65966 0.0
H1040 H 0.47183 0.98896 0.90937 0.0
H1041 H 0.46823 0.04411 0.04488 0.0
H1042 H 0.5037 0.04598 0.0519 0.0
H1043 H 0.53562 0.03169 0.02421 0.0
H1044 H 0.53927 0.97417 0.90954 0.0
H1045 H 0.50378 0.97357 0.8906 0.0
C1046 C 0.47862 1.00129 0.94195 0.0
C1047 C 0.46701 0.01637 0.97639 0.0
C1048 C 0.49912 1.00186 0.94978 0.0
C1049 C 0.47649 0.03244 0.01579 0.0
C1050 C 0.49689 0.03343 0.0209 0.0
C1051 C 0.52878 0.01876 0.99669 0.0
C1052 C 0.54035 1.00293 0.96898 0.0
C1053 C 0.50832 0.01813 0.98897 0.0
C1054 C 0.53095 0.98672 0.9306 0.0
C1055 C 0.51058 0.98628 0.92027 0.0
H1056 H 0.23625 0.28758 0.33295 0.0
H1057 H 0.2848 0.2927 0.16325 0.0
H1058 H 0.28624 0.25717 0.14994 0.0
H1059 H 0.27309 0.22458 0.18267 0.0
H1060 H 0.22321 0.21983 0.3444 0.0
H1061 H 0.22222 0.25543 0.3602 0.0
C1062 C 0.24697 0.28112 0.2915 0.0
C1063 C 0.26031 0.29316 0.24876 0.0
C1064 C 0.24724 0.26067 0.28134 0.0
C1065 C 0.27448 0.28407 0.19813 0.0
C1066 C 0.27517 0.26367 0.18956 0.0
C1067 C 0.26199 0.23133 0.2214 0.0
C1068 C 0.24825 0.21949 0.26248 0.0
C1069 C 0.26154 0.25184 0.23034 0.0
C1070 C 0.23381 0.22854 0.31136 0.0
C1071 C 0.23337 0.2489 0.32108 0.0
H1072 H 0.03624 1.0036 0.65597 0.0
H1073 H 0.04241 0.02761 0.40805 0.0
H1074 H 0.0069 0.02563 0.38448 0.0
H1075 H 0.97449 0.01573 0.43224 0.0
H1076 H 0.96803 0.99553 0.68792 0.0
H1077 H 1.00322 0.99664 0.70879 0.0
C1078 C 0.02972 0.00862 0.59728 0.0
C1079 C 0.04184 0.01583 0.53394 0.0
C1080 C 0.00927 0.00771 0.58476 0.0
C1081 C 0.0333 0.02224 0.45804 0.0
C1082 C 0.01303 0.02095 0.44437 0.0
C1083 C 0.9805 0.01192 0.49344 0.0
C1084 C 0.96808 0.0053 0.55768 0.0
C1085 C 1.00087 0.01356 0.50712 0.0
C1086 C 0.9768 1.00006 0.63553 0.0
C1087 C 0.99709 1.00097 0.64837 0.0
H1088 H 0.25518 0.72689 0.88343 0.0
H1089 H 0.24598 0.72327 0.61377 0.0
H1090 H 0.24235 0.75872 0.60778 0.0
H1091 H 0.24237 0.79094 0.67886 0.0
H1092 H 0.25325 0.79466 0.94695 0.0
H1093 H 0.2557 0.75901 0.954 0.0
C1094 C 0.25261 0.73386 0.8232 0.0
C1095 C 0.25079 0.7224 0.74925 0.0
C1096 C 0.25068 0.75427 0.82006 0.0
C1097 C 0.24717 0.7317 0.67189 0.0
C1098 C 0.24515 0.75199 0.6683 0.0
C1099 C 0.24494 0.78385 0.73884 0.0
C1100 C 0.24738 0.79525 0.81245 0.0
C1101 C 0.24679 0.76342 0.742 0.0
C1102 C 0.25119 0.78605 0.88968 0.0
C1103 C 0.25268 0.76573 0.89363 0.0
H1104 H 0.75582 0.72506 0.64776 0.0
H1105 H 0.74937 0.71994 0.91683 0.0
H1106 H 0.75301 0.75526 0.93373 0.0
H1107 H 0.75891 0.78739 0.87335 0.0
H1108 H 0.7634 0.79304 0.60327 0.0
H1109 H 0.76083 0.75766 0.5866 0.0
C1110 C 0.75524 0.73166 0.71016 0.0
C1111 C 0.75222 0.71974 0.78084 0.0
C1112 C 0.75745 0.75206 0.71963 0.0
C1113 C 0.75131 0.72866 0.86106 0.0
C1114 C 0.75362 0.74889 0.87094 0.0
C1115 C 0.75905 0.78106 0.81042 0.0
C1116 C 0.76129 0.79322 0.73978 0.0
C1117 C 0.75677 0.76071 0.80074 0.0
C1118 C 0.76205 0.78432 0.65932 0.0
C1119 C 0.7603 0.76399 0.64947 0.0
H1120 H 0.72964 0.2249 0.25994 0.0
H1121 H 0.79285 0.22276 0.27383 0.0
H1122 H 0.79425 0.25834 0.26932 0.0
H1123 H 0.77768 0.28993 0.25873 0.0
H1124 H 0.71462 0.2922 0.24072 0.0
H1125 H 0.71311 0.25646 0.24446 0.0
C1126 C 0.74378 0.2321 0.26049 0.0
C1127 C 0.76113 0.221 0.26704 0.0
C1128 C 0.74453 0.25256 0.25576 0.0
C1129 C 0.77924 0.23082 0.27011 0.0
C1130 C 0.78007 0.25119 0.26666 0.0
C1131 C 0.76357 0.28263 0.25625 0.0
C1132 C 0.74625 0.29372 0.25043 0.0
C1133 C 0.76282 0.26218 0.25935 0.0
C1134 C 0.72815 0.284 0.24489 0.0
C1135 C 0.72728 0.26359 0.24772 0.0
H1136 H 0.9703 0.50978 0.63164 0.0
H1137 H 0.96632 0.51081 0.36062 0.0
H1138 H 1.00203 0.5074 0.35191 0.0
H1139 H 0.03441 0.50419 0.42265 0.0
H1140 H 0.03816 0.50479 0.69422 0.0
H1141 H 1.00253 0.50743 0.7021 0.0
C1142 C 0.97738 0.50946 0.57092 0.0
C1143 C 0.96598 0.51074 0.49688 0.0
C1144 C 0.99778 0.50761 0.56674 0.0
C1145 C 0.97504 0.51015 0.41823 0.0
C1146 C 0.99536 0.50805 0.41337 0.0
C1147 C 0.02732 0.50464 0.48332 0.0
C1148 C 0.03874 0.50406 0.5578 0.0
C1149 C 0.00688 0.50668 0.48727 0.0
C1150 C 0.02955 0.50508 0.63622 0.0
C1151 C 0.00924 0.50667 0.64072 0.0
H1152 H 0.47311 0.50349 0.09812 0.0
H1153 H 0.47006 0.49359 0.82961 0.0
H1154 H 0.50576 0.49618 0.82172 0.0
H1155 H 0.53786 0.50183 0.8912 0.0
H1156 H 0.54049 0.51392 0.15892 0.0
H1157 H 0.50515 0.50989 0.16709 0.0
C1158 C 0.48036 0.50157 0.03828 0.0
C1159 C 0.46909 0.49801 0.96475 0.0
C1160 C 0.50083 0.50367 0.03395 0.0
C1161 C 0.47853 0.49608 0.88711 0.0
C1162 C 0.4989 0.49769 0.88256 0.0
C1163 C 0.5307 0.50384 0.95115 0.0
C1164 C 0.54198 0.50805 0.02435 0.0
C1165 C 0.51021 0.5017 0.95545 0.0
C1166 C 0.53233 0.51036 0.10163 0.0
C1167 C 0.51205 0.50811 0.10647 0.0
loop_
_geom_bond_atom_site_label_1
_geom_bond_atom_site_label_2
_geom_bond_distance
_geom_bond_site_symmetry_2
_ccdc_geom_bond_type
Co0 N4 2.148 1_554 S
Co0 N10 2.128 1_545 S
Co0 N20 2.194 1_554 S
Co0 O25 2.351 1_544 S
Co0 O26 2.155 1_544 S
Co0 O27 2.096 . S
C1 N4 1.301 . S
C1 N5 1.328 . S
C1 H6 0.930 1_545 S
C2 C3 1.333 . S
C2 N4 1.317 . S
C2 H7 0.930 . S
C3 C2 1.333 . S
C3 N5 1.350 . S
C3 H29 0.931 . S
N4 Co0 2.148 1_556 S
N4 C1 1.301 . S
N4 C2 1.317 . S
N5 C1 1.328 . S
N5 C3 1.350 . S
H6 C1 0.930 1_565 S
H7 C2 0.930 . S
C8 O9 1.224 . S
C8 O27 1.247 . S
O9 C8 1.224 . S
N10 Co0 2.128 1_565 S
N10 C11 1.355 . S
N10 C13 1.311 1_565 S
C11 N10 1.355 . S
C11 C12 1.363 . S
C11 H23 0.929 . S
C12 C11 1.363 . S
C12 N14 1.375 . S
C12 H30 0.931 . S
C13 N10 1.311 1_545 S
C13 N14 1.347 1_545 S
C13 H24 0.929 . S
N14 C12 1.375 . S
N14 C13 1.347 1_565 S
C15 C18 1.365 . S
C15 N20 1.328 1_565 S
C15 H21 0.929 . S
C16 C17 1.362 . S
C16 C19 1.378 . S
C16 H31 0.929 . S
C17 C16 1.362 . S
C17 C18 1.366 1_544 S
C18 C15 1.365 . S
C18 C17 1.366 1_566 S
C18 H32 0.930 . S
C19 C16 1.378 . S
C19 N20 1.315 1_554 S
C19 H22 0.930 . S
N20 Co0 2.194 1_556 S
N20 C15 1.328 1_545 S
N20 C19 1.315 1_556 S
H21 C15 0.929 . S
H22 C19 0.930 . S
H23 C11 0.929 . S
H24 C13 0.929 . S
O25 Co0 2.351 1_566 S
O25 C28 1.244 . S
O26 Co0 2.155 1_566 S
O26 C28 1.240 . S
O27 Co0 2.096 . S
O27 C8 1.247 . S
C28 O25 1.244 . S
C28 O26 1.240 . S
H29 C3 0.931 . S
H30 C12 0.931 . S
H31 C16 0.929 . S
H32 C18 0.930 . S
Co33 N37 2.148 . S
Co33 N43 2.128 . S
Co33 N53 2.194 . S
Co33 O58 2.351 . S
Co33 O59 2.155 . S
Co33 O60 2.096 . S
C34 N37 1.301 . S
C34 N38 1.328 1_554 S
C34 H39 0.930 . S
C35 C36 1.333 . S
C35 N37 1.317 . S
C35 H40 0.930 . S
C36 C35 1.333 . S
C36 N38 1.350 1_554 S
C36 H62 0.931 1_554 S
N37 Co33 2.148 . S
N37 C34 1.301 . S
N37 C35 1.317 . S
N38 C34 1.328 1_556 S
N38 C36 1.350 1_556 S
H39 C34 0.930 . S
H40 C35 0.930 . S
C41 O42 1.224 . S
C41 O60 1.247 . S
O42 C41 1.224 . S
N43 Co33 2.128 . S
N43 C44 1.355 . S
N43 C46 1.311 . S
C44 N43 1.355 . S
C44 C45 1.363 . S
C44 H56 0.929 . S
C45 C44 1.363 . S
C45 N47 1.375 . S
C45 H63 0.931 . S
C46 N43 1.311 . S
C46 N47 1.347 . S
C46 H57 0.929 . S
N47 C45 1.375 . S
N47 C46 1.347 . S
C48 C51 1.365 . S
C48 N53 1.328 . S
C48 H54 0.929 . S
C49 C50 1.362 . S
C49 C52 1.378 . S
C49 H64 0.929 . S
C50 C49 1.362 . S
C50 C51 1.366 . S
C51 C48 1.365 . S
C51 C50 1.366 . S
C51 H65 0.930 . S
C52 C49 1.378 . S
C52 N53 1.315 . S
C52 H55 0.930 . S
N53 Co33 2.194 . S
N53 C48 1.328 . S
N53 C52 1.315 . S
H54 C48 0.929 . S
H55 C52 0.930 . S
H56 C44 0.929 . S
H57 C46 0.929 . S
O58 Co33 2.351 . S
O58 C61 1.244 . S
O59 Co33 2.155 . S
O59 C61 1.240 . S
O60 Co33 2.096 . S
O60 C41 1.247 . S
C61 O58 1.244 . S
C61 O59 1.240 . S
H62 C36 0.931 1_556 S
H63 C45 0.931 . S
H64 C49 0.929 . S
H65 C51 0.930 . S
Co66 N70 2.148 . S
Co66 N76 2.128 1_545 S
Co66 N86 2.194 . S
Co66 O91 2.351 1_545 S
Co66 O92 2.155 1_545 S
Co66 O93 2.096 . S
C67 N70 1.301 . S
C67 N71 1.328 . S
C67 H72 0.930 1_545 S
C68 C69 1.333 . S
C68 N70 1.317 . S
C68 H73 0.930 . S
C69 C68 1.333 . S
C69 N71 1.350 . S
C69 H95 0.931 . S
N70 Co66 2.148 . S
N70 C67 1.301 . S
N70 C68 1.317 . S
N71 C67 1.328 . S
N71 C69 1.350 . S
H72 C67 0.930 1_565 S
H73 C68 0.930 . S
C74 O75 1.224 . S
C74 O93 1.247 . S
O75 C74 1.224 . S
N76 Co66 2.128 1_565 S
N76 C77 1.355 . S
N76 C79 1.311 1_565 S
C77 N76 1.355 . S
C77 C78 1.363 . S
C77 H89 0.929 . S
C78 C77 1.363 . S
C78 N80 1.375 . S
C78 H96 0.931 . S
C79 N76 1.311 1_545 S
C79 N80 1.347 1_545 S
C79 H90 0.929 . S
N80 C78 1.375 . S
N80 C79 1.347 1_565 S
C81 C84 1.365 . S
C81 N86 1.328 1_565 S
C81 H87 0.929 . S
C82 C83 1.362 . S
C82 C85 1.378 . S
C82 H97 0.929 . S
C83 C82 1.362 . S
C83 C84 1.366 1_545 S
C84 C81 1.365 . S
C84 C83 1.366 1_565 S
C84 H98 0.930 . S
C85 C82 1.378 . S
C85 N86 1.315 . S
C85 H88 0.930 . S
N86 Co66 2.194 . S
N86 C81 1.328 1_545 S
N86 C85 1.315 . S
H87 C81 0.929 . S
H88 C85 0.930 . S
H89 C77 0.929 . S
H90 C79 0.929 . S
O91 Co66 2.351 1_565 S
O91 C94 1.244 . S
O92 Co66 2.155 1_565 S
O92 C94 1.240 . S
O93 Co66 2.096 . S
O93 C74 1.247 . S
C94 O91 1.244 . S
C94 O92 1.240 . S
H95 C69 0.931 . S
H96 C78 0.931 . S
H97 C82 0.929 . S
H98 C84 0.930 . S
Co99 N103 2.148 . S
Co99 N109 2.128 . S
Co99 N119 2.194 . S
Co99 O124 2.351 . S
Co99 O125 2.155 . S
Co99 O126 2.096 . S
C100 N103 1.301 . S
C100 N104 1.328 1_556 S
C100 H105 0.930 . S
C101 C102 1.333 . S
C101 N103 1.317 . S
C101 H106 0.930 . S
C102 C101 1.333 . S
C102 N104 1.350 1_556 S
C102 H128 0.931 1_556 S
N103 Co99 2.148 . S
N103 C100 1.301 . S
N103 C101 1.317 . S
N104 C100 1.328 1_554 S
N104 C102 1.350 1_554 S
H105 C100 0.930 . S
H106 C101 0.930 . S
C107 O108 1.224 . S
C107 O126 1.247 . S
O108 C107 1.224 . S
N109 Co99 2.128 . S
N109 C110 1.355 . S
N109 C112 1.311 . S
C110 N109 1.355 . S
C110 C111 1.363 . S
C110 H122 0.929 . S
C111 C110 1.363 . S
C111 N113 1.375 . S
C111 H129 0.931 . S
C112 N109 1.311 . S
C112 N113 1.347 . S
C112 H123 0.929 . S
N113 C111 1.375 . S
N113 C112 1.347 . S
C114 C117 1.365 . S
C114 N119 1.328 . S
C114 H120 0.929 . S
C115 C116 1.362 . S
C115 C118 1.378 . S
C115 H130 0.929 . S
C116 C115 1.362 . S
C116 C117 1.366 . S
C117 C114 1.365 . S
C117 C116 1.366 . S
C117 H131 0.930 . S
C118 C115 1.378 . S
C118 N119 1.315 . S
C118 H121 0.930 . S
N119 Co99 2.194 . S
N119 C114 1.328 . S
N119 C118 1.315 . S
H120 C114 0.929 . S
H121 C118 0.930 . S
H122 C110 0.929 . S
H123 C112 0.929 . S
O124 Co99 2.351 . S
O124 C127 1.244 . S
O125 Co99 2.155 . S
O125 C127 1.240 . S
O126 Co99 2.096 . S
O126 C107 1.247 . S
C127 O124 1.244 . S
C127 O125 1.240 . S
H128 C102 0.931 1_554 S
H129 C111 0.931 . S
H130 C115 0.929 . S
H131 C117 0.930 . S
Co132 N136 2.148 1_545 S
Co132 N142 2.128 1_554 S
Co132 N152 2.194 . S
Co132 O157 2.351 . S
Co132 O158 2.155 . S
Co132 O159 2.096 1_544 S
C133 N136 1.301 1_545 S
C133 N137 1.328 1_545 S
C133 H138 0.930 . S
C134 C135 1.333 . S
C134 N136 1.317 . S
C134 H139 0.930 . S
C135 C134 1.333 . S
C135 N137 1.350 . S
C135 H161 0.931 . S
N136 Co132 2.148 1_565 S
N136 C133 1.301 1_565 S
N136 C134 1.317 . S
N137 C133 1.328 1_565 S
N137 C135 1.350 . S
H138 C133 0.930 . S
H139 C134 0.930 . S
C140 O141 1.224 . S
C140 O159 1.247 . S
O141 C140 1.224 . S
N142 Co132 2.128 1_556 S
N142 C143 1.355 . S
N142 C145 1.311 . S
C143 N142 1.355 . S
C143 C144 1.363 . S
C143 H155 0.929 . S
C144 C143 1.363 . S
C144 N146 1.375 . S
C144 H162 0.931 . S
C145 N142 1.311 . S
C145 N146 1.347 . S
C145 H156 0.929 1_545 S
N146 C144 1.375 . S
N146 C145 1.347 . S
C147 C150 1.365 . S
C147 N152 1.328 . S
C147 H153 0.929 . S
C148 C149 1.362 1_566 S
C148 C151 1.378 . S
C148 H163 0.929 . S
C149 C148 1.362 1_544 S
C149 C150 1.366 . S
C150 C147 1.365 . S
C150 C149 1.366 . S
C150 H164 0.930 . S
C151 C148 1.378 . S
C151 N152 1.315 1_566 S
C151 H154 0.930 . S
N152 Co132 2.194 . S
N152 C147 1.328 . S
N152 C151 1.315 1_544 S
H153 C147 0.929 . S
H154 C151 0.930 . S
H155 C143 0.929 . S
H156 C145 0.929 1_565 S
O157 Co132 2.351 . S
O157 C160 1.244 . S
O158 Co132 2.155 . S
O158 C160 1.240 . S
O159 Co132 2.096 1_566 S
O159 C140 1.247 . S
C160 O157 1.244 . S
C160 O158 1.240 . S
H161 C135 0.931 . S
H162 C144 0.931 . S
H163 C148 0.929 . S
H164 C150 0.930 . S
Co165 N169 2.148 . S
Co165 N175 2.128 . S
Co165 N185 2.194 . S
Co165 O190 2.351 . S
Co165 O191 2.155 . S
Co165 O192 2.096 . S
C166 N169 1.301 . S
C166 N170 1.328 1_556 S
C166 H171 0.930 . S
C167 C168 1.333 . S
C167 N169 1.317 . S
C167 H172 0.930 . S
C168 C167 1.333 . S
C168 N170 1.350 1_556 S
C168 H194 0.931 1_556 S
N169 Co165 2.148 . S
N169 C166 1.301 . S
N169 C167 1.317 . S
N170 C166 1.328 1_554 S
N170 C168 1.350 1_554 S
H171 C166 0.930 . S
H172 C167 0.930 . S
C173 O174 1.224 . S
C173 O192 1.247 . S
O174 C173 1.224 . S
N175 Co165 2.128 . S
N175 C176 1.355 . S
N175 C178 1.311 . S
C176 N175 1.355 . S
C176 C177 1.363 . S
C176 H188 0.929 . S
C177 C176 1.363 . S
C177 N179 1.375 . S
C177 H195 0.931 . S
C178 N175 1.311 . S
C178 N179 1.347 . S
C178 H189 0.929 . S
N179 C177 1.375 . S
N179 C178 1.347 . S
C180 C183 1.365 . S
C180 N185 1.328 . S
C180 H186 0.929 . S
C181 C182 1.362 . S
C181 C184 1.378 . S
C181 H196 0.929 . S
C182 C181 1.362 . S
C182 C183 1.366 . S
C183 C180 1.365 . S
C183 C182 1.366 . S
C183 H197 0.930 . S
C184 C181 1.378 . S
C184 N185 1.315 . S
C184 H187 0.930 . S
N185 Co165 2.194 . S
N185 C180 1.328 . S
N185 C184 1.315 . S
H186 C180 0.929 . S
H187 C184 0.930 . S
H188 C176 0.929 . S
H189 C178 0.929 . S
O190 Co165 2.351 . S
O190 C193 1.244 . S
O191 Co165 2.155 . S
O191 C193 1.240 . S
O192 Co165 2.096 . S
O192 C173 1.247 . S
C193 O190 1.244 . S
C193 O191 1.240 . S
H194 C168 0.931 1_554 S
H195 C177 0.931 . S
H196 C181 0.929 . S
H197 C183 0.930 . S
Co198 N202 2.148 1_545 S
Co198 N208 2.128 . S
Co198 N218 2.194 . S
Co198 O223 2.351 . S
Co198 O224 2.155 . S
Co198 O225 2.096 1_545 S
C199 N202 1.301 1_545 S
C199 N203 1.328 1_545 S
C199 H204 0.930 . S
C200 C201 1.333 . S
C200 N202 1.317 . S
C200 H205 0.930 . S
C201 C200 1.333 . S
C201 N203 1.350 . S
C201 H227 0.931 . S
N202 Co198 2.148 1_565 S
N202 C199 1.301 1_565 S
N202 C200 1.317 . S
N203 C199 1.328 1_565 S
N203 C201 1.350 . S
H204 C199 0.930 . S
H205 C200 0.930 . S
C206 O207 1.224 . S
C206 O225 1.247 . S
O207 C206 1.224 . S
N208 Co198 2.128 . S
N208 C209 1.355 . S
N208 C211 1.311 . S
C209 N208 1.355 . S
C209 C210 1.363 . S
C209 H221 0.929 . S
C210 C209 1.363 . S
C210 N212 1.375 . S
C210 H228 0.931 . S
C211 N208 1.311 . S
C211 N212 1.347 . S
C211 H222 0.929 1_545 S
N212 C210 1.375 . S
N212 C211 1.347 . S
C213 C216 1.365 . S
C213 N218 1.328 . S
C213 H219 0.929 . S
C214 C215 1.362 1_565 S
C214 C217 1.378 . S
C214 H229 0.929 . S
C215 C214 1.362 1_545 S
C215 C216 1.366 . S
C216 C213 1.365 . S
C216 C215 1.366 . S
C216 H230 0.930 . S
C217 C214 1.378 . S
C217 N218 1.315 1_565 S
C217 H220 0.930 . S
N218 Co198 2.194 . S
N218 C213 1.328 . S
N218 C217 1.315 1_545 S
H219 C213 0.929 . S
H220 C217 0.930 . S
H221 C209 0.929 . S
H222 C211 0.929 1_565 S
O223 Co198 2.351 . S
O223 C226 1.244 . S
O224 Co198 2.155 . S
O224 C226 1.240 . S
O225 Co198 2.096 1_565 S
O225 C206 1.247 . S
C226 O223 1.244 . S
C226 O224 1.240 . S
H227 C201 0.931 . S
H228 C210 0.931 . S
H229 C214 0.929 . S
H230 C216 0.930 . S
Co231 N235 2.148 . S
Co231 N241 2.128 . S
Co231 N251 2.194 . S
Co231 O256 2.351 . S
Co231 O257 2.155 . S
Co231 O258 2.096 . S
C232 N235 1.301 . S
C232 N236 1.328 1_554 S
C232 H237 0.930 . S
C233 C234 1.333 . S
C233 N235 1.317 . S
C233 H238 0.930 . S
C234 C233 1.333 . S
C234 N236 1.350 1_554 S
C234 H260 0.931 1_554 S
N235 Co231 2.148 . S
N235 C232 1.301 . S
N235 C233 1.317 . S
N236 C232 1.328 1_556 S
N236 C234 1.350 1_556 S
H237 C232 0.930 . S
H238 C233 0.930 . S
C239 O240 1.224 . S
C239 O258 1.247 . S
O240 C239 1.224 . S
N241 Co231 2.128 . S
N241 C242 1.355 . S
N241 C244 1.311 . S
C242 N241 1.355 . S
C242 C243 1.363 . S
C242 H254 0.929 . S
C243 C242 1.363 . S
C243 N245 1.375 . S
C243 H261 0.931 . S
C244 N241 1.311 . S
C244 N245 1.347 . S
C244 H255 0.929 . S
N245 C243 1.375 . S
N245 C244 1.347 . S
C246 C249 1.365 . S
C246 N251 1.328 . S
C246 H252 0.929 . S
C247 C248 1.362 . S
C247 C250 1.378 . S
C247 H262 0.929 . S
C248 C247 1.362 . S
C248 C249 1.366 . S
C249 C246 1.365 . S
C249 C248 1.366 . S
C249 H263 0.930 . S
C250 C247 1.378 . S
C250 N251 1.315 . S
C250 H253 0.930 . S
N251 Co231 2.194 . S
N251 C246 1.328 . S
N251 C250 1.315 . S
H252 C246 0.929 . S
H253 C250 0.930 . S
H254 C242 0.929 . S
H255 C244 0.929 . S
O256 Co231 2.351 . S
O256 C259 1.244 . S
O257 Co231 2.155 . S
O257 C259 1.240 . S
O258 Co231 2.096 . S
O258 C239 1.247 . S
C259 O256 1.244 . S
C259 O257 1.240 . S
H260 C234 0.931 1_556 S
H261 C243 0.931 . S
H262 C247 0.929 . S
H263 C249 0.930 . S
Co264 N268 2.148 . S
Co264 N274 2.128 . S
Co264 N284 2.194 . S
Co264 O289 2.351 . S
Co264 O290 2.155 . S
Co264 O291 2.096 . S
C265 N268 1.301 . S
C265 N269 1.328 . S
C265 H270 0.930 . S
C266 C267 1.333 . S
C266 N268 1.317 . S
C266 H271 0.930 . S
C267 C266 1.333 . S
C267 N269 1.350 . S
C267 H293 0.931 . S
N268 Co264 2.148 . S
N268 C265 1.301 . S
N268 C266 1.317 . S
N269 C265 1.328 . S
N269 C267 1.350 . S
H270 C265 0.930 . S
H271 C266 0.930 . S
C272 O273 1.224 . S
C272 O291 1.247 . S
O273 C272 1.224 . S
N274 Co264 2.128 . S
N274 C275 1.355 . S
N274 C277 1.311 . S
C275 N274 1.355 . S
C275 C276 1.363 . S
C275 H287 0.929 . S
C276 C275 1.363 . S
C276 N278 1.375 . S
C276 H294 0.931 . S
C277 N274 1.311 . S
C277 N278 1.347 . S
C277 H288 0.929 . S
N278 C276 1.375 . S
N278 C277 1.347 . S
C279 C282 1.365 . S
C279 N284 1.328 . S
C279 H285 0.929 . S
C280 C281 1.362 . S
C280 C283 1.378 . S
C280 H295 0.929 . S
C281 C280 1.362 . S
C281 C282 1.366 . S
C282 C279 1.365 . S
C282 C281 1.366 . S
C282 H296 0.930 . S
C283 C280 1.378 . S
C283 N284 1.315 . S
C283 H286 0.930 . S
N284 Co264 2.194 . S
N284 C279 1.328 . S
N284 C283 1.315 . S
H285 C279 0.929 . S
H286 C283 0.930 . S
H287 C275 0.929 . S
H288 C277 0.929 . S
O289 Co264 2.351 . S
O289 C292 1.244 . S
O290 Co264 2.155 . S
O290 C292 1.240 . S
O291 Co264 2.096 . S
O291 C272 1.247 . S
C292 O289 1.244 . S
C292 O290 1.240 . S
H293 C267 0.931 . S
H294 C276 0.931 . S
H295 C280 0.929 . S
H296 C282 0.930 . S
Co297 N301 2.148 . S
Co297 N307 2.128 . S
Co297 N317 2.194 . S
Co297 O322 2.351 . S
Co297 O323 2.155 . S
Co297 O324 2.096 . S
C298 N301 1.301 . S
C298 N302 1.328 . S
C298 H303 0.930 . S
C299 C300 1.333 . S
C299 N301 1.317 . S
C299 H304 0.930 . S
C300 C299 1.333 . S
C300 N302 1.350 . S
C300 H326 0.931 . S
N301 Co297 2.148 . S
N301 C298 1.301 . S
N301 C299 1.317 . S
N302 C298 1.328 . S
N302 C300 1.350 . S
H303 C298 0.930 . S
H304 C299 0.930 . S
C305 O306 1.224 . S
C305 O324 1.247 . S
O306 C305 1.224 . S
N307 Co297 2.128 . S
N307 C308 1.355 . S
N307 C310 1.311 . S
C308 N307 1.355 . S
C308 C309 1.363 . S
C308 H320 0.929 . S
C309 C308 1.363 . S
C309 N311 1.375 1_556 S
C309 H327 0.931 1_556 S
C310 N307 1.311 . S
C310 N311 1.347 1_556 S
C310 H321 0.929 . S
N311 C309 1.375 1_554 S
N311 C310 1.347 1_554 S
C312 C315 1.365 . S
C312 N317 1.328 . S
C312 H318 0.929 . S
C313 C314 1.362 . S
C313 C316 1.378 . S
C313 H328 0.929 . S
C314 C313 1.362 . S
C314 C315 1.366 . S
C315 C312 1.365 . S
C315 C314 1.366 . S
C315 H329 0.930 . S
C316 C313 1.378 . S
C316 N317 1.315 . S
C316 H319 0.930 . S
N317 Co297 2.194 . S
N317 C312 1.328 . S
N317 C316 1.315 . S
H318 C312 0.929 . S
H319 C316 0.930 . S
H320 C308 0.929 . S
H321 C310 0.929 . S
O322 Co297 2.351 . S
O322 C325 1.244 . S
O323 Co297 2.155 . S
O323 C325 1.240 . S
O324 Co297 2.096 . S
O324 C305 1.247 . S
C325 O322 1.244 . S
C325 O323 1.240 . S
H326 C300 0.931 . S
H327 C309 0.931 1_554 S
H328 C313 0.929 . S
H329 C315 0.930 . S
Co330 N334 2.148 . S
Co330 N340 2.128 1_554 S
Co330 N350 2.194 . S
Co330 O355 2.351 . S
Co330 O356 2.155 . S
Co330 O357 2.096 1_554 S
C331 N334 1.301 . S
C331 N335 1.328 . S
C331 H336 0.930 . S
C332 C333 1.333 . S
C332 N334 1.317 . S
C332 H337 0.930 . S
C333 C332 1.333 . S
C333 N335 1.350 . S
C333 H359 0.931 . S
N334 Co330 2.148 . S
N334 C331 1.301 . S
N334 C332 1.317 . S
N335 C331 1.328 . S
N335 C333 1.350 . S
H336 C331 0.930 . S
H337 C332 0.930 . S
C338 O339 1.224 . S
C338 O357 1.247 . S
O339 C338 1.224 . S
N340 Co330 2.128 1_556 S
N340 C341 1.355 . S
N340 C343 1.311 . S
C341 N340 1.355 . S
C341 C342 1.363 . S
C341 H353 0.929 . S
C342 C341 1.363 . S
C342 N344 1.375 . S
C342 H360 0.931 . S
C343 N340 1.311 . S
C343 N344 1.347 . S
C343 H354 0.929 . S
N344 C342 1.375 . S
N344 C343 1.347 . S
C345 C348 1.365 . S
C345 N350 1.328 . S
C345 H351 0.929 . S
C346 C347 1.362 1_556 S
C346 C349 1.378 . S
C346 H361 0.929 . S
C347 C346 1.362 1_554 S
C347 C348 1.366 . S
C348 C345 1.365 . S
C348 C347 1.366 . S
C348 H362 0.930 . S
C349 C346 1.378 . S
C349 N350 1.315 1_556 S
C349 H352 0.930 . S
N350 Co330 2.194 . S
N350 C345 1.328 . S
N350 C349 1.315 1_554 S
H351 C345 0.929 . S
H352 C349 0.930 . S
H353 C341 0.929 . S
H354 C343 0.929 . S
O355 Co330 2.351 . S
O355 C358 1.244 . S
O356 Co330 2.155 . S
O356 C358 1.240 . S
O357 Co330 2.096 1_556 S
O357 C338 1.247 . S
C358 O355 1.244 . S
C358 O356 1.240 . S
H359 C333 0.931 . S
H360 C342 0.931 . S
H361 C346 0.929 . S
H362 C348 0.930 . S
Co363 N367 2.148 . S
Co363 N373 2.128 . S
Co363 N383 2.194 . S
Co363 O388 2.351 . S
Co363 O389 2.155 . S
Co363 O390 2.096 . S
C364 N367 1.301 . S
C364 N368 1.328 . S
C364 H369 0.930 . S
C365 C366 1.333 . S
C365 N367 1.317 . S
C365 H370 0.930 . S
C366 C365 1.333 . S
C366 N368 1.350 . S
C366 H392 0.931 . S
N367 Co363 2.148 . S
N367 C364 1.301 . S
N367 C365 1.317 . S
N368 C364 1.328 . S
N368 C366 1.350 . S
H369 C364 0.930 . S
H370 C365 0.930 . S
C371 O372 1.224 . S
C371 O390 1.247 . S
O372 C371 1.224 . S
N373 Co363 2.128 . S
N373 C374 1.355 . S
N373 C376 1.311 . S
C374 N373 1.355 . S
C374 C375 1.363 . S
C374 H386 0.929 . S
C375 C374 1.363 . S
C375 N377 1.375 1_554 S
C375 H393 0.931 1_554 S
C376 N373 1.311 . S
C376 N377 1.347 1_554 S
C376 H387 0.929 . S
N377 C375 1.375 1_556 S
N377 C376 1.347 1_556 S
C378 C381 1.365 . S
C378 N383 1.328 . S
C378 H384 0.929 . S
C379 C380 1.362 . S
C379 C382 1.378 . S
C379 H394 0.929 . S
C380 C379 1.362 . S
C380 C381 1.366 . S
C381 C378 1.365 . S
C381 C380 1.366 . S
C381 H395 0.930 . S
C382 C379 1.378 . S
C382 N383 1.315 . S
C382 H385 0.930 . S
N383 Co363 2.194 . S
N383 C378 1.328 . S
N383 C382 1.315 . S
H384 C378 0.929 . S
H385 C382 0.930 . S
H386 C374 0.929 . S
H387 C376 0.929 . S
O388 Co363 2.351 . S
O388 C391 1.244 . S
O389 Co363 2.155 . S
O389 C391 1.240 . S
O390 Co363 2.096 . S
O390 C371 1.247 . S
C391 O388 1.244 . S
C391 O389 1.240 . S
H392 C366 0.931 . S
H393 C375 0.931 1_556 S
H394 C379 0.929 . S
H395 C381 0.930 . S
Co396 N400 2.148 . S
Co396 N406 2.128 . S
Co396 N416 2.194 . S
Co396 O421 2.351 . S
Co396 O422 2.155 . S
Co396 O423 2.096 . S
C397 N400 1.301 . S
C397 N401 1.328 . S
C397 H402 0.930 . S
C398 C399 1.333 . S
C398 N400 1.317 . S
C398 H403 0.930 . S
C399 C398 1.333 . S
C399 N401 1.350 . S
C399 H425 0.931 . S
N400 Co396 2.148 . S
N400 C397 1.301 . S
N400 C398 1.317 . S
N401 C397 1.328 . S
N401 C399 1.350 . S
H402 C397 0.930 . S
H403 C398 0.930 . S
C404 O405 1.224 . S
C404 O423 1.247 . S
O405 C404 1.224 . S
N406 Co396 2.128 . S
N406 C407 1.355 . S
N406 C409 1.311 . S
C407 N406 1.355 . S
C407 C408 1.363 . S
C407 H419 0.929 . S
C408 C407 1.363 . S
C408 N410 1.375 . S
C408 H426 0.931 . S
C409 N406 1.311 . S
C409 N410 1.347 . S
C409 H420 0.929 . S
N410 C408 1.375 . S
N410 C409 1.347 . S
C411 C414 1.365 . S
C411 N416 1.328 . S
C411 H417 0.929 . S
C412 C413 1.362 . S
C412 C415 1.378 . S
C412 H427 0.929 . S
C413 C412 1.362 . S
C413 C414 1.366 . S
C414 C411 1.365 . S
C414 C413 1.366 . S
C414 H428 0.930 . S
C415 C412 1.378 . S
C415 N416 1.315 . S
C415 H418 0.930 . S
N416 Co396 2.194 . S
N416 C411 1.328 . S
N416 C415 1.315 . S
H417 C411 0.929 . S
H418 C415 0.930 . S
H419 C407 0.929 . S
H420 C409 0.929 . S
O421 Co396 2.351 . S
O421 C424 1.244 . S
O422 Co396 2.155 . S
O422 C424 1.240 . S
O423 Co396 2.096 . S
O423 C404 1.247 . S
C424 O421 1.244 . S
C424 O422 1.240 . S
H425 C399 0.931 . S
H426 C408 0.931 . S
H427 C412 0.929 . S
H428 C414 0.930 . S
Co429 N433 2.148 . S
Co429 N439 2.128 . S
Co429 N449 2.194 . S
Co429 O454 2.351 . S
Co429 O455 2.155 . S
Co429 O456 2.096 . S
C430 N433 1.301 . S
C430 N434 1.328 . S
C430 H435 0.930 . S
C431 C432 1.333 . S
C431 N433 1.317 . S
C431 H436 0.930 . S
C432 C431 1.333 . S
C432 N434 1.350 . S
C432 H458 0.931 . S
N433 Co429 2.148 . S
N433 C430 1.301 . S
N433 C431 1.317 . S
N434 C430 1.328 . S
N434 C432 1.350 . S
H435 C430 0.930 . S
H436 C431 0.930 . S
C437 O438 1.224 . S
C437 O456 1.247 . S
O438 C437 1.224 . S
N439 Co429 2.128 . S
N439 C440 1.355 . S
N439 C442 1.311 . S
C440 N439 1.355 . S
C440 C441 1.363 . S
C440 H452 0.929 . S
C441 C440 1.363 . S
C441 N443 1.375 1_554 S
C441 H459 0.931 1_554 S
C442 N439 1.311 . S
C442 N443 1.347 1_554 S
C442 H453 0.929 . S
N443 C441 1.375 1_556 S
N443 C442 1.347 1_556 S
C444 C447 1.365 . S
C444 N449 1.328 . S
C444 H450 0.929 . S
C445 C446 1.362 . S
C445 C448 1.378 . S
C445 H460 0.929 . S
C446 C445 1.362 . S
C446 C447 1.366 . S
C447 C444 1.365 . S
C447 C446 1.366 . S
C447 H461 0.930 . S
C448 C445 1.378 . S
C448 N449 1.315 . S
C448 H451 0.930 . S
N449 Co429 2.194 . S
N449 C444 1.328 . S
N449 C448 1.315 . S
H450 C444 0.929 . S
H451 C448 0.930 . S
H452 C440 0.929 . S
H453 C442 0.929 . S
O454 Co429 2.351 . S
O454 C457 1.244 . S
O455 Co429 2.155 . S
O455 C457 1.240 . S
O456 Co429 2.096 . S
O456 C437 1.247 . S
C457 O454 1.244 . S
C457 O455 1.240 . S
H458 C432 0.931 . S
H459 C441 0.931 1_556 S
H460 C445 0.929 . S
H461 C447 0.930 . S
Co462 N466 2.148 1_554 S
Co462 N472 2.128 . S
Co462 N482 2.194 1_554 S
Co462 O487 2.351 1_554 S
Co462 O488 2.155 1_554 S
Co462 O489 2.096 . S
C463 N466 1.301 . S
C463 N467 1.328 . S
C463 H468 0.930 . S
C464 C465 1.333 . S
C464 N466 1.317 . S
C464 H469 0.930 . S
C465 C464 1.333 . S
C465 N467 1.350 . S
C465 H491 0.931 . S
N466 Co462 2.148 1_556 S
N466 C463 1.301 . S
N466 C464 1.317 . S
N467 C463 1.328 . S
N467 C465 1.350 . S
H468 C463 0.930 . S
H469 C464 0.930 . S
C470 O471 1.224 . S
C470 O489 1.247 . S
O471 C470 1.224 . S
N472 Co462 2.128 . S
N472 C473 1.355 . S
N472 C475 1.311 . S
C473 N472 1.355 . S
C473 C474 1.363 . S
C473 H485 0.929 . S
C474 C473 1.363 . S
C474 N476 1.375 . S
C474 H492 0.931 . S
C475 N472 1.311 . S
C475 N476 1.347 . S
C475 H486 0.929 . S
N476 C474 1.375 . S
N476 C475 1.347 . S
C477 C480 1.365 . S
C477 N482 1.328 . S
C477 H483 0.929 . S
C478 C479 1.366 . S
C478 C481 1.378 . S
C478 H493 0.929 . S
C479 C478 1.366 . S
C479 C480 1.361 1_554 S
C480 C477 1.365 . S
C480 C479 1.361 1_556 S
C480 H494 0.930 . S
C481 C478 1.378 . S
C481 N482 1.315 1_554 S
C481 H484 0.930 . S
N482 Co462 2.194 1_556 S
N482 C477 1.328 . S
N482 C481 1.315 1_556 S
H483 C477 0.929 . S
H484 C481 0.930 . S
H485 C473 0.929 . S
H486 C475 0.929 . S
O487 Co462 2.351 1_556 S
O487 C490 1.244 . S
O488 Co462 2.155 1_556 S
O488 C490 1.240 . S
O489 Co462 2.096 . S
O489 C470 1.247 . S
C490 O487 1.244 . S
C490 O488 1.240 . S
H491 C465 0.931 . S
H492 C474 0.931 . S
H493 C478 0.929 . S
H494 C480 0.930 . S
Co495 N499 2.148 . S
Co495 N505 2.128 . S
Co495 N515 2.194 . S
Co495 O520 2.351 . S
Co495 O521 2.155 . S
Co495 O522 2.096 . S
C496 N499 1.301 . S
C496 N500 1.328 . S
C496 H501 0.930 . S
C497 C498 1.333 . S
C497 N499 1.317 . S
C497 H502 0.930 . S
C498 C497 1.333 . S
C498 N500 1.350 . S
C498 H524 0.931 . S
N499 Co495 2.148 . S
N499 C496 1.301 . S
N499 C497 1.317 . S
N500 C496 1.328 . S
N500 C498 1.350 . S
H501 C496 0.930 . S
H502 C497 0.930 . S
C503 O504 1.224 . S
C503 O522 1.247 . S
O504 C503 1.224 . S
N505 Co495 2.128 . S
N505 C506 1.355 . S
N505 C508 1.311 . S
C506 N505 1.355 . S
C506 C507 1.363 . S
C506 H518 0.929 . S
C507 C506 1.363 . S
C507 N509 1.375 1_556 S
C507 H525 0.931 1_556 S
C508 N505 1.311 . S
C508 N509 1.347 1_556 S
C508 H519 0.929 . S
N509 C507 1.375 1_554 S
N509 C508 1.347 1_554 S
C510 C513 1.365 . S
C510 N515 1.328 . S
C510 H516 0.929 . S
C511 C512 1.362 . S
C511 C514 1.378 . S
C511 H526 0.929 . S
C512 C511 1.362 . S
C512 C513 1.366 . S
C513 C510 1.365 . S
C513 C512 1.366 . S
C513 H527 0.930 . S
C514 C511 1.378 . S
C514 N515 1.315 . S
C514 H517 0.930 . S
N515 Co495 2.194 . S
N515 C510 1.328 . S
N515 C514 1.315 . S
H516 C510 0.929 . S
H517 C514 0.930 . S
H518 C506 0.929 . S
H519 C508 0.929 . S
O520 Co495 2.351 . S
O520 C523 1.244 . S
O521 Co495 2.155 . S
O521 C523 1.240 . S
O522 Co495 2.096 . S
O522 C503 1.247 . S
C523 O520 1.244 . S
C523 O521 1.240 . S
H524 C498 0.931 . S
H525 C507 0.931 1_554 S
H526 C511 0.929 . S
H527 C513 0.930 . S
H528 C534 0.930 . S
H529 C537 0.930 . S
H530 C538 0.930 . S
H531 C539 0.930 . S
H532 C542 0.930 . S
H533 C543 0.930 . S
C534 H528 0.930 . S
C534 C535 1.355 1_565 S
C534 C536 1.415 . S
C535 C534 1.355 1_545 S
C535 C537 1.419 . S
C536 C534 1.415 . S
C536 C541 1.425 1_565 S
C536 C543 1.409 . S
C537 H529 0.930 . S
C537 C535 1.419 . S
C537 C538 1.362 . S
C538 H530 0.930 . S
C538 C537 1.362 . S
C538 C541 1.409 . S
C539 H531 0.930 . S
C539 C540 1.315 1_545 S
C539 C541 1.415 . S
C540 C539 1.315 1_565 S
C540 C542 1.464 . S
C541 C536 1.425 1_545 S
C541 C538 1.409 . S
C541 C539 1.415 . S
C542 H532 0.930 . S
C542 C540 1.464 . S
C542 C543 1.362 . S
C543 H533 0.930 . S
C543 C536 1.409 . S
C543 C542 1.362 . S
H544 C550 0.930 . S
H545 C553 0.930 . S
H546 C554 0.930 . S
H547 C555 0.930 . S
H548 C558 0.930 . S
H549 C559 0.930 . S
C550 H544 0.930 . S
C550 C551 1.355 . S
C550 C552 1.415 . S
C551 C550 1.355 . S
C551 C553 1.419 . S
C552 C550 1.415 . S
C552 C557 1.425 . S
C552 C559 1.409 . S
C553 H545 0.930 . S
C553 C551 1.419 . S
C553 C554 1.362 . S
C554 H546 0.930 . S
C554 C553 1.362 . S
C554 C557 1.409 . S
C555 H547 0.930 . S
C555 C556 1.355 . S
C555 C557 1.415 . S
C556 C555 1.355 . S
C556 C558 1.419 . S
C557 C552 1.425 . S
C557 C554 1.409 . S
C557 C555 1.415 . S
C558 H548 0.930 . S
C558 C556 1.419 . S
C558 C559 1.362 . S
C559 H549 0.930 . S
C559 C552 1.409 . S
C559 C558 1.362 . S
H560 C566 0.930 . S
H561 C569 0.930 . S
H562 C570 0.930 . S
H563 C571 0.929 . S
H564 C574 0.930 . S
H565 C575 0.930 . S
C566 H560 0.930 . S
C566 C567 1.334 1_545 S
C566 C568 1.415 . S
C567 C566 1.334 1_565 S
C567 C569 1.438 . S
C568 C566 1.415 . S
C568 C573 1.417 1_544 S
C568 C575 1.409 1_554 S
C569 H561 0.930 . S
C569 C567 1.438 . S
C569 C570 1.362 . S
C570 H562 0.930 . S
C570 C569 1.362 . S
C570 C573 1.417 1_554 S
C571 H563 0.929 . S
C571 C572 1.355 1_565 S
C571 C573 1.414 . S
C572 C571 1.355 1_545 S
C572 C574 1.419 . S
C573 C568 1.417 1_566 S
C573 C570 1.417 1_556 S
C573 C571 1.414 . S
C574 H564 0.930 . S
C574 C572 1.419 . S
C574 C575 1.362 . S
C575 H565 0.930 . S
C575 C568 1.409 1_556 S
C575 C574 1.362 . S
H576 C582 0.930 . S
H577 C585 0.930 . S
H578 C586 0.930 . S
H579 C587 0.930 . S
H580 C590 0.930 . S
H581 C591 0.930 . S
C582 H576 0.930 . S
C582 C583 1.355 . S
C582 C584 1.415 . S
C583 C582 1.355 . S
C583 C585 1.419 . S
C584 C582 1.415 . S
C584 C589 1.425 . S
C584 C591 1.409 . S
C585 H577 0.930 . S
C585 C583 1.419 . S
C585 C586 1.362 . S
C586 H578 0.930 . S
C586 C585 1.362 . S
C586 C589 1.409 . S
C587 H579 0.930 . S
C587 C588 1.355 . S
C587 C589 1.415 . S
C588 C587 1.355 . S
C588 C590 1.419 . S
C589 C584 1.425 . S
C589 C586 1.409 . S
C589 C587 1.415 . S
C590 H580 0.930 . S
C590 C588 1.419 . S
C590 C591 1.362 . S
C591 H581 0.930 . S
C591 C584 1.409 . S
C591 C590 1.362 . S
H592 C598 0.930 . S
H593 C601 0.930 . S
H594 C602 0.930 . S
H595 C603 0.930 . S
H596 C606 0.930 . S
H597 C607 0.930 . S
C598 H592 0.930 . S
C598 C599 1.355 . S
C598 C600 1.415 . S
C599 C598 1.355 . S
C599 C601 1.419 1_545 S
C600 C598 1.415 . S
C600 C605 1.425 1_545 S
C600 C607 1.409 . S
C601 H593 0.930 . S
C601 C599 1.419 1_565 S
C601 C602 1.362 . S
C602 H594 0.930 . S
C602 C601 1.362 . S
C602 C605 1.409 . S
C603 H595 0.930 . S
C603 C604 1.355 1_565 S
C603 C605 1.415 . S
C604 C603 1.355 1_545 S
C604 C606 1.419 . S
C605 C600 1.425 1_565 S
C605 C602 1.409 . S
C605 C603 1.415 . S
C606 H596 0.930 . S
C606 C604 1.419 . S
C606 C607 1.362 . S
C607 H597 0.930 . S
C607 C600 1.409 . S
C607 C606 1.362 . S
H608 C614 0.930 . S
H609 C617 0.930 . S
H610 C618 0.930 . S
H611 C619 0.930 . S
H612 C622 0.930 . S
H613 C623 0.930 . S
C614 H608 0.930 . S
C614 C615 1.355 . S
C614 C616 1.415 . S
C615 C614 1.355 . S
C615 C617 1.419 . S
C616 C614 1.415 . S
C616 C621 1.425 . S
C616 C623 1.409 . S
C617 H609 0.930 . S
C617 C615 1.419 . S
C617 C618 1.362 . S
C618 H610 0.930 . S
C618 C617 1.362 . S
C618 C621 1.409 . S
C619 H611 0.930 . S
C619 C620 1.355 . S
C619 C621 1.415 . S
C620 C619 1.355 . S
C620 C622 1.419 . S
C621 C616 1.425 . S
C621 C618 1.409 . S
C621 C619 1.415 . S
C622 H612 0.930 . S
C622 C620 1.419 . S
C622 C623 1.362 . S
C623 H613 0.930 . S
C623 C616 1.409 . S
C623 C622 1.362 . S
H624 C630 0.930 . S
H625 C633 0.930 . S
H626 C634 0.930 . S
H627 C635 0.930 . S
H628 C638 0.930 . S
H629 C639 0.926 1_554 S
C630 H624 0.930 . S
C630 C631 1.355 1_545 S
C630 C632 1.415 . S
C631 C630 1.355 1_565 S
C631 C633 1.419 . S
C632 C630 1.415 . S
C632 C637 1.425 1_544 S
C632 C639 1.409 1_554 S
C633 H625 0.930 . S
C633 C631 1.419 . S
C633 C634 1.362 . S
C634 H626 0.930 . S
C634 C633 1.362 . S
C634 C637 1.409 1_554 S
C635 H627 0.930 . S
C635 C636 1.355 1_565 S
C635 C637 1.415 . S
C636 C635 1.355 1_545 S
C636 C638 1.419 . S
C637 C632 1.425 1_566 S
C637 C634 1.409 1_556 S
C637 C635 1.415 . S
C638 H628 0.930 . S
C638 C636 1.419 . S
C638 C639 1.362 . S
C639 H629 0.926 1_556 S
C639 C632 1.409 1_556 S
C639 C638 1.362 . S
H640 C646 0.930 . S
H641 C649 0.930 . S
H642 C650 0.930 . S
H643 C651 0.930 . S
H644 C654 0.930 . S
H645 C655 0.930 . S
C646 H640 0.930 . S
C646 C647 1.355 . S
C646 C648 1.415 . S
C647 C646 1.355 . S
C647 C649 1.419 . S
C648 C646 1.415 . S
C648 C653 1.425 . S
C648 C655 1.409 . S
C649 H641 0.930 . S
C649 C647 1.419 . S
C649 C650 1.362 . S
C650 H642 0.930 . S
C650 C649 1.362 . S
C650 C653 1.409 . S
C651 H643 0.930 . S
C651 C652 1.355 . S
C651 C653 1.415 . S
C652 C651 1.355 . S
C652 C654 1.419 . S
C653 C648 1.425 . S
C653 C650 1.409 . S
C653 C651 1.415 . S
C654 H644 0.930 . S
C654 C652 1.419 . S
C654 C655 1.362 . S
C655 H645 0.930 . S
C655 C648 1.409 . S
C655 C654 1.362 . S
H656 C662 0.930 . S
H657 C665 0.930 . S
H658 C666 0.930 . S
H659 C667 0.930 . S
H660 C670 0.930 . S
H661 C671 0.930 . S
C662 H656 0.930 . S
C662 C663 1.355 . S
C662 C664 1.415 . S
C663 C662 1.355 . S
C663 C665 1.419 . S
C664 C662 1.415 . S
C664 C669 1.425 1_554 S
C664 C671 1.409 1_554 S
C665 H657 0.930 . S
C665 C663 1.419 . S
C665 C666 1.362 . S
C666 H658 0.930 . S
C666 C665 1.362 . S
C666 C669 1.409 1_554 S
C667 H659 0.930 . S
C667 C668 1.355 . S
C667 C669 1.415 . S
C668 C667 1.355 . S
C668 C670 1.419 . S
C669 C664 1.425 1_556 S
C669 C666 1.409 1_556 S
C669 C667 1.415 . S
C670 H660 0.930 . S
C670 C668 1.419 . S
C670 C671 1.362 . S
C671 H661 0.930 . S
C671 C664 1.409 1_556 S
C671 C670 1.362 . S
H672 C678 0.930 . S
H673 C681 0.930 . S
H674 C682 0.930 . S
H675 C683 0.930 . S
H676 C686 0.930 . S
H677 C687 0.930 . S
C678 H672 0.930 . S
C678 C679 1.355 . S
C678 C680 1.415 . S
C679 C678 1.355 . S
C679 C681 1.419 . S
C680 C678 1.415 . S
C680 C685 1.425 . S
C680 C687 1.409 . S
C681 H673 0.930 . S
C681 C679 1.419 . S
C681 C682 1.362 . S
C682 H674 0.930 . S
C682 C681 1.362 . S
C682 C685 1.409 . S
C683 H675 0.930 . S
C683 C684 1.355 . S
C683 C685 1.415 . S
C684 C683 1.355 . S
C684 C686 1.419 . S
C685 C680 1.425 . S
C685 C682 1.409 . S
C685 C683 1.415 . S
C686 H676 0.930 . S
C686 C684 1.419 . S
C686 C687 1.362 . S
C687 H677 0.930 . S
C687 C680 1.409 . S
C687 C686 1.362 . S
H688 C694 0.930 . S
H689 C697 0.930 . S
H690 C698 0.930 . S
H691 C699 0.930 . S
H692 C702 0.930 . S
H693 C703 0.930 . S
C694 H688 0.930 . S
C694 C695 1.355 . S
C694 C696 1.415 . S
C695 C694 1.355 . S
C695 C697 1.419 . S
C696 C694 1.415 . S
C696 C701 1.425 . S
C696 C703 1.409 . S
C697 H689 0.930 . S
C697 C695 1.419 . S
C697 C698 1.362 . S
C698 H690 0.930 . S
C698 C697 1.362 . S
C698 C701 1.409 . S
C699 H691 0.930 . S
C699 C700 1.355 . S
C699 C701 1.415 . S
C700 C699 1.355 . S
C700 C702 1.419 . S
C701 C696 1.425 . S
C701 C698 1.409 . S
C701 C699 1.415 . S
C702 H692 0.930 . S
C702 C700 1.419 . S
C702 C703 1.362 . S
C703 H693 0.930 . S
C703 C696 1.409 . S
C703 C702 1.362 . S
H704 C710 0.930 . S
H705 C713 0.930 . S
H706 C714 0.930 . S
H707 C715 0.930 . S
H708 C718 0.930 . S
H709 C719 0.930 . S
C710 H704 0.930 . S
C710 C711 1.355 . S
C710 C712 1.415 . S
C711 C710 1.355 . S
C711 C713 1.419 . S
C712 C710 1.415 . S
C712 C717 1.425 . S
C712 C719 1.409 . S
C713 H705 0.930 . S
C713 C711 1.419 . S
C713 C714 1.362 . S
C714 H706 0.930 . S
C714 C713 1.362 . S
C714 C717 1.409 . S
C715 H707 0.930 . S
C715 C716 1.355 . S
C715 C717 1.415 . S
C716 C715 1.355 . S
C716 C718 1.419 . S
C717 C712 1.425 . S
C717 C714 1.409 . S
C717 C715 1.415 . S
C718 H708 0.930 . S
C718 C716 1.419 . S
C718 C719 1.362 . S
C719 H709 0.930 . S
C719 C712 1.409 . S
C719 C718 1.362 . S
H720 C726 0.930 . S
H721 C729 0.930 . S
H722 C730 0.930 . S
H723 C731 0.930 . S
H724 C734 0.930 . S
H725 C735 0.930 . S
C726 H720 0.930 . S
C726 C727 1.355 . S
C726 C728 1.415 . S
C727 C726 1.355 . S
C727 C729 1.419 . S
C728 C726 1.415 . S
C728 C733 1.425 1_556 S
C728 C735 1.409 1_556 S
C729 H721 0.930 . S
C729 C727 1.419 . S
C729 C730 1.362 . S
C730 H722 0.930 . S
C730 C729 1.362 . S
C730 C733 1.409 1_556 S
C731 H723 0.930 . S
C731 C732 1.355 . S
C731 C733 1.415 . S
C732 C731 1.355 . S
C732 C734 1.419 . S
C733 C728 1.425 1_554 S
C733 C730 1.409 1_554 S
C733 C731 1.415 . S
C734 H724 0.930 . S
C734 C732 1.419 . S
C734 C735 1.362 . S
C735 H725 0.930 . S
C735 C728 1.409 1_554 S
C735 C734 1.362 . S
H736 C742 0.930 . S
H737 C745 0.930 . S
H738 C746 0.930 . S
H739 C747 0.930 . S
H740 C750 0.930 . S
H741 C751 0.930 . S
C742 H736 0.930 . S
C742 C743 1.355 . S
C742 C744 1.415 . S
C743 C742 1.355 . S
C743 C745 1.419 . S
C744 C742 1.415 . S
C744 C749 1.425 . S
C744 C751 1.409 . S
C745 H737 0.930 . S
C745 C743 1.419 . S
C745 C746 1.362 . S
C746 H738 0.930 . S
C746 C745 1.362 . S
C746 C749 1.409 . S
C747 H739 0.930 . S
C747 C748 1.355 . S
C747 C749 1.415 . S
C748 C747 1.355 . S
C748 C750 1.419 . S
C749 C744 1.425 . S
C749 C746 1.409 . S
C749 C747 1.415 . S
C750 H740 0.930 . S
C750 C748 1.419 . S
C750 C751 1.362 . S
C751 H741 0.930 . S
C751 C744 1.409 . S
C751 C750 1.362 . S
H752 C758 0.930 . S
H753 C761 0.930 . S
H754 C762 0.930 . S
H755 C763 0.930 . S
H756 C766 0.930 . S
H757 C767 0.930 . S
C758 H752 0.930 . S
C758 C759 1.355 . S
C758 C760 1.415 . S
C759 C758 1.355 . S
C759 C761 1.419 . S
C760 C758 1.415 . S
C760 C765 1.425 . S
C760 C767 1.409 . S
C761 H753 0.930 . S
C761 C759 1.419 . S
C761 C762 1.362 . S
C762 H754 0.930 . S
C762 C761 1.362 . S
C762 C765 1.409 . S
C763 H755 0.930 . S
C763 C764 1.355 . S
C763 C765 1.415 . S
C764 C763 1.355 . S
C764 C766 1.419 . S
C765 C760 1.425 . S
C765 C762 1.409 . S
C765 C763 1.415 . S
C766 H756 0.930 . S
C766 C764 1.419 . S
C766 C767 1.362 . S
C767 H757 0.930 . S
C767 C760 1.409 . S
C767 C766 1.362 . S
H768 C774 0.930 . S
H769 C777 0.930 . S
H770 C778 0.930 . S
H771 C779 0.930 . S
H772 C782 0.930 . S
H773 C783 0.930 . S
C774 H768 0.930 . S
C774 C775 1.355 . S
C774 C776 1.415 . S
C775 C774 1.355 . S
C775 C777 1.419 . S
C776 C774 1.415 . S
C776 C781 1.425 . S
C776 C783 1.409 . S
C777 H769 0.930 . S
C777 C775 1.419 . S
C777 C778 1.362 . S
C778 H770 0.930 . S
C778 C777 1.362 . S
C778 C781 1.409 . S
C779 H771 0.930 . S
C779 C780 1.355 . S
C779 C781 1.415 . S
C780 C779 1.355 . S
C780 C782 1.419 . S
C781 C776 1.425 . S
C781 C778 1.409 . S
C781 C779 1.415 . S
C782 H772 0.930 . S
C782 C780 1.419 . S
C782 C783 1.362 . S
C783 H773 0.930 . S
C783 C776 1.409 . S
C783 C782 1.362 . S
H784 C790 0.930 . S
H785 C793 0.930 . S
H786 C794 0.930 . S
H787 C795 0.930 . S
H788 C798 0.930 . S
H789 C799 0.930 . S
C790 H784 0.930 . S
C790 C791 1.355 . S
C790 C792 1.415 . S
C791 C790 1.355 . S
C791 C793 1.419 . S
C792 C790 1.415 . S
C792 C797 1.425 . S
C792 C799 1.409 . S
C793 H785 0.930 . S
C793 C791 1.419 . S
C793 C794 1.362 . S
C794 H786 0.930 . S
C794 C793 1.362 . S
C794 C797 1.409 . S
C795 H787 0.930 . S
C795 C796 1.355 . S
C795 C797 1.415 . S
C796 C795 1.355 . S
C796 C798 1.419 . S
C797 C792 1.425 . S
C797 C794 1.409 . S
C797 C795 1.415 . S
C798 H788 0.930 . S
C798 C796 1.419 . S
C798 C799 1.362 . S
C799 H789 0.930 . S
C799 C792 1.409 . S
C799 C798 1.362 . S
H800 C806 0.930 . S
H801 C809 0.930 . S
H802 C810 0.930 . S
H803 C811 0.930 . S
H804 C814 0.930 . S
H805 C815 0.930 . S
C806 H800 0.930 . S
C806 C807 1.355 . S
C806 C808 1.415 . S
C807 C806 1.355 . S
C807 C809 1.419 . S
C808 C806 1.415 . S
C808 C813 1.425 . S
C808 C815 1.409 . S
C809 H801 0.930 . S
C809 C807 1.419 . S
C809 C810 1.362 . S
C810 H802 0.930 . S
C810 C809 1.362 . S
C810 C813 1.409 . S
C811 H803 0.930 . S
C811 C812 1.355 . S
C811 C813 1.415 . S
C812 C811 1.355 . S
C812 C814 1.419 . S
C813 C808 1.425 . S
C813 C810 1.409 . S
C813 C811 1.415 . S
C814 H804 0.930 . S
C814 C812 1.419 . S
C814 C815 1.362 . S
C815 H805 0.930 . S
C815 C808 1.409 . S
C815 C814 1.362 . S
H816 C822 0.930 . S
H817 C825 0.930 . S
H818 C826 0.930 . S
H819 C827 0.930 . S
H820 C830 0.930 . S
H821 C831 0.930 . S
C822 H816 0.930 . S
C822 C823 1.355 . S
C822 C824 1.415 . S
C823 C822 1.355 . S
C823 C825 1.419 . S
C824 C822 1.415 . S
C824 C829 1.425 . S
C824 C831 1.409 . S
C825 H817 0.930 . S
C825 C823 1.419 . S
C825 C826 1.362 . S
C826 H818 0.930 . S
C826 C825 1.362 . S
C826 C829 1.409 . S
C827 H819 0.930 . S
C827 C828 1.355 . S
C827 C829 1.415 . S
C828 C827 1.355 . S
C828 C830 1.419 . S
C829 C824 1.425 . S
C829 C826 1.409 . S
C829 C827 1.415 . S
C830 H820 0.930 . S
C830 C828 1.419 . S
C830 C831 1.362 . S
C831 H821 0.930 . S
C831 C824 1.409 . S
C831 C830 1.362 . S
H832 C838 0.930 . S
H833 C841 0.930 1_554 S
H834 C842 0.930 . S
H835 C843 0.930 . S
H836 C846 0.930 . S
H837 C847 0.930 . S
C838 H832 0.930 . S
C838 C839 1.355 . S
C838 C840 1.415 . S
C839 C838 1.355 . S
C839 C841 1.419 . S
C840 C838 1.415 . S
C840 C845 1.425 . S
C840 C847 1.409 . S
C841 H833 0.930 1_556 S
C841 C839 1.419 . S
C841 C842 1.362 . S
C842 H834 0.930 . S
C842 C841 1.362 . S
C842 C845 1.409 . S
C843 H835 0.930 . S
C843 C844 1.355 . S
C843 C845 1.415 . S
C844 C843 1.355 . S
C844 C846 1.419 . S
C845 C840 1.425 . S
C845 C842 1.409 . S
C845 C843 1.415 . S
C846 H836 0.930 . S
C846 C844 1.419 . S
C846 C847 1.362 . S
C847 H837 0.930 . S
C847 C840 1.409 . S
C847 C846 1.362 . S
H848 C854 0.930 . S
H849 C857 0.930 . S
H850 C858 0.930 . S
H851 C859 0.930 . S
H852 C862 0.930 . S
H853 C863 0.930 . S
C854 H848 0.930 . S
C854 C855 1.355 . S
C854 C856 1.415 . S
C855 C854 1.355 . S
C855 C857 1.419 . S
C856 C854 1.415 . S
C856 C861 1.425 . S
C856 C863 1.409 . S
C857 H849 0.930 . S
C857 C855 1.419 . S
C857 C858 1.362 . S
C858 H850 0.930 . S
C858 C857 1.362 . S
C858 C861 1.409 . S
C859 H851 0.930 . S
C859 C860 1.355 . S
C859 C861 1.415 . S
C860 C859 1.355 . S
C860 C862 1.419 . S
C861 C856 1.425 . S
C861 C858 1.409 . S
C861 C859 1.415 . S
C862 H852 0.930 . S
C862 C860 1.419 . S
C862 C863 1.362 . S
C863 H853 0.930 . S
C863 C856 1.409 . S
C863 C862 1.362 . S
H864 C870 0.930 . S
H865 C873 0.930 . S
H866 C874 0.930 . S
H867 C875 0.930 . S
H868 C878 0.930 . S
H869 C879 0.930 . S
C870 H864 0.930 . S
C870 C871 1.355 . S
C870 C872 1.415 . S
C871 C870 1.355 . S
C871 C873 1.419 . S
C872 C870 1.415 . S
C872 C877 1.425 . S
C872 C879 1.409 . S
C873 H865 0.930 . S
C873 C871 1.419 . S
C873 C874 1.362 . S
C874 H866 0.930 . S
C874 C873 1.362 . S
C874 C877 1.409 . S
C875 H867 0.930 . S
C875 C876 1.355 . S
C875 C877 1.415 . S
C876 C875 1.355 . S
C876 C878 1.419 . S
C877 C872 1.425 . S
C877 C874 1.409 . S
C877 C875 1.415 . S
C878 H868 0.930 . S
C878 C876 1.419 . S
C878 C879 1.362 . S
C879 H869 0.930 . S
C879 C872 1.409 . S
C879 C878 1.362 . S
H880 C886 0.930 . S
H881 C889 0.930 . S
H882 C890 0.930 . S
H883 C891 0.930 . S
H884 C894 0.930 . S
H885 C895 0.930 . S
C886 H880 0.930 . S
C886 C887 1.355 . S
C886 C888 1.415 . S
C887 C886 1.355 . S
C887 C889 1.419 . S
C888 C886 1.415 . S
C888 C893 1.425 . S
C888 C895 1.409 . S
C889 H881 0.930 . S
C889 C887 1.419 . S
C889 C890 1.362 . S
C890 H882 0.930 . S
C890 C889 1.362 . S
C890 C893 1.409 . S
C891 H883 0.930 . S
C891 C892 1.355 . S
C891 C893 1.415 . S
C892 C891 1.355 . S
C892 C894 1.419 . S
C893 C888 1.425 . S
C893 C890 1.409 . S
C893 C891 1.415 . S
C894 H884 0.930 . S
C894 C892 1.419 . S
C894 C895 1.362 . S
C895 H885 0.930 . S
C895 C888 1.409 . S
C895 C894 1.362 . S
H896 C902 0.930 . S
H897 C905 0.930 . S
H898 C906 0.930 . S
H899 C907 0.930 . S
H900 C910 0.930 . S
H901 C911 0.930 . S
C902 H896 0.930 . S
C902 C903 1.355 . S
C902 C904 1.415 . S
C903 C902 1.355 . S
C903 C905 1.419 . S
C904 C902 1.415 . S
C904 C909 1.425 . S
C904 C911 1.409 . S
C905 H897 0.930 . S
C905 C903 1.419 . S
C905 C906 1.362 . S
C906 H898 0.930 . S
C906 C905 1.362 . S
C906 C909 1.409 . S
C907 H899 0.930 . S
C907 C908 1.355 . S
C907 C909 1.415 . S
C908 C907 1.355 . S
C908 C910 1.419 . S
C909 C904 1.425 . S
C909 C906 1.409 . S
C909 C907 1.415 . S
C910 H900 0.930 . S
C910 C908 1.419 . S
C910 C911 1.362 . S
C911 H901 0.930 . S
C911 C904 1.409 . S
C911 C910 1.362 . S
H912 C918 0.930 . S
H913 C921 0.930 . S
H914 C922 0.930 . S
H915 C923 0.930 . S
H916 C926 0.930 . S
H917 C927 0.930 . S
C918 H912 0.930 . S
C918 C919 1.355 . S
C918 C920 1.415 . S
C919 C918 1.355 . S
C919 C921 1.419 . S
C920 C918 1.415 . S
C920 C925 1.425 . S
C920 C927 1.409 . S
C921 H913 0.930 . S
C921 C919 1.419 . S
C921 C922 1.362 . S
C922 H914 0.930 . S
C922 C921 1.362 . S
C922 C925 1.409 . S
C923 H915 0.930 . S
C923 C924 1.355 . S
C923 C925 1.415 . S
C924 C923 1.355 . S
C924 C926 1.419 . S
C925 C920 1.425 . S
C925 C922 1.409 . S
C925 C923 1.415 . S
C926 H916 0.930 . S
C926 C924 1.419 . S
C926 C927 1.362 . S
C927 H917 0.930 . S
C927 C920 1.409 . S
C927 C926 1.362 . S
H928 C934 0.930 . S
H929 C937 0.930 . S
H930 C938 0.930 . S
H931 C939 0.930 . S
H932 C942 0.930 . S
H933 C943 0.930 . S
C934 H928 0.930 . S
C934 C935 1.355 . S
C934 C936 1.415 . S
C935 C934 1.355 . S
C935 C937 1.419 . S
C936 C934 1.415 . S
C936 C941 1.425 . S
C936 C943 1.409 . S
C937 H929 0.930 . S
C937 C935 1.419 . S
C937 C938 1.362 . S
C938 H930 0.930 . S
C938 C937 1.362 . S
C938 C941 1.409 . S
C939 H931 0.930 . S
C939 C940 1.355 . S
C939 C941 1.415 . S
C940 C939 1.355 . S
C940 C942 1.419 . S
C941 C936 1.425 . S
C941 C938 1.409 . S
C941 C939 1.415 . S
C942 H932 0.930 . S
C942 C940 1.419 . S
C942 C943 1.362 . S
C943 H933 0.930 . S
C943 C936 1.409 . S
C943 C942 1.362 . S
H944 C950 0.930 1_556 S
H945 C953 0.930 . S
H946 C954 0.930 . S
H947 C955 0.930 . S
H948 C958 0.930 . S
H949 C959 0.929 1_556 S
C950 H944 0.930 1_554 S
C950 C951 1.355 . S
C950 C952 1.415 . S
C951 C950 1.355 . S
C951 C953 1.419 . S
C952 C950 1.415 . S
C952 C957 1.425 . S
C952 C959 1.409 . S
C953 H945 0.930 . S
C953 C951 1.419 . S
C953 C954 1.362 . S
C954 H946 0.930 . S
C954 C953 1.362 . S
C954 C957 1.409 . S
C955 H947 0.930 . S
C955 C956 1.355 . S
C955 C957 1.415 . S
C956 C955 1.355 . S
C956 C958 1.419 . S
C957 C952 1.425 . S
C957 C954 1.409 . S
C957 C955 1.415 . S
C958 H948 0.930 . S
C958 C956 1.419 . S
C958 C959 1.362 . S
C959 H949 0.929 1_554 S
C959 C952 1.409 . S
C959 C958 1.362 . S
H960 C966 0.930 . S
H961 C969 0.930 . S
H962 C970 0.930 . S
H963 C971 0.930 . S
H964 C974 0.930 . S
H965 C975 0.930 . S
C966 H960 0.930 . S
C966 C967 1.355 . S
C966 C968 1.415 . S
C967 C966 1.355 . S
C967 C969 1.419 . S
C968 C966 1.415 . S
C968 C973 1.425 . S
C968 C975 1.409 . S
C969 H961 0.930 . S
C969 C967 1.419 . S
C969 C970 1.362 . S
C970 H962 0.930 . S
C970 C969 1.362 . S
C970 C973 1.409 . S
C971 H963 0.930 . S
C971 C972 1.355 . S
C971 C973 1.415 . S
C972 C971 1.355 . S
C972 C974 1.419 . S
C973 C968 1.425 . S
C973 C970 1.409 . S
C973 C971 1.415 . S
C974 H964 0.930 . S
C974 C972 1.419 . S
C974 C975 1.362 . S
C975 H965 0.930 . S
C975 C968 1.409 . S
C975 C974 1.362 . S
H976 C982 0.930 . S
H977 C985 0.930 . S
H978 C986 0.930 . S
H979 C987 0.930 . S
H980 C990 0.930 . S
H981 C991 0.930 . S
C982 H976 0.930 . S
C982 C983 1.355 . S
C982 C984 1.415 . S
C983 C982 1.355 . S
C983 C985 1.419 . S
C984 C982 1.415 . S
C984 C989 1.425 . S
C984 C991 1.409 . S
C985 H977 0.930 . S
C985 C983 1.419 . S
C985 C986 1.362 . S
C986 H978 0.930 . S
C986 C985 1.362 . S
C986 C989 1.409 . S
C987 H979 0.930 . S
C987 C988 1.355 . S
C987 C989 1.415 . S
C988 C987 1.355 . S
C988 C990 1.419 . S
C989 C984 1.425 . S
C989 C986 1.409 . S
C989 C987 1.415 . S
C990 H980 0.930 . S
C990 C988 1.419 . S
C990 C991 1.362 . S
C991 H981 0.930 . S
C991 C984 1.409 . S
C991 C990 1.362 . S
H992 C998 0.930 . S
H993 C1001 0.930 . S
H994 C1002 0.930 . S
H995 C1003 0.930 . S
H996 C1006 0.930 1_556 S
H997 C1007 0.930 . S
C998 H992 0.930 . S
C998 C999 1.355 . S
C998 C1000 1.415 . S
C999 C998 1.355 . S
C999 C1001 1.419 . S
C1000 C998 1.415 . S
C1000 C1005 1.425 . S
C1000 C1007 1.409 . S
C1001 H993 0.930 . S
C1001 C999 1.419 . S
C1001 C1002 1.362 . S
C1002 H994 0.930 . S
C1002 C1001 1.362 . S
C1002 C1005 1.409 . S
C1003 H995 0.930 . S
C1003 C1004 1.355 . S
C1003 C1005 1.415 . S
C1004 C1003 1.355 . S
C1004 C1006 1.419 . S
C1005 C1000 1.425 . S
C1005 C1002 1.409 . S
C1005 C1003 1.415 . S
C1006 H996 0.930 1_554 S
C1006 C1004 1.419 . S
C1006 C1007 1.362 . S
C1007 H997 0.930 . S
C1007 C1000 1.409 . S
C1007 C1006 1.362 . S
H1008 C1014 0.930 . S
H1009 C1017 0.930 . S
H1010 C1018 0.930 . S
H1011 C1019 0.930 . S
H1012 C1022 0.930 . S
H1013 C1023 0.930 . S
C1014 H1008 0.930 . S
C1014 C1015 1.355 . S
C1014 C1016 1.415 . S
C1015 C1014 1.355 . S
C1015 C1017 1.419 . S
C1016 C1014 1.415 . S
C1016 C1021 1.425 . S
C1016 C1023 1.409 . S
C1017 H1009 0.930 . S
C1017 C1015 1.419 . S
C1017 C1018 1.362 . S
C1018 H1010 0.930 . S
C1018 C1017 1.362 . S
C1018 C1021 1.409 . S
C1019 H1011 0.930 . S
C1019 C1020 1.355 . S
C1019 C1021 1.415 . S
C1020 C1019 1.355 . S
C1020 C1022 1.419 . S
C1021 C1016 1.425 . S
C1021 C1018 1.409 . S
C1021 C1019 1.415 . S
C1022 H1012 0.930 . S
C1022 C1020 1.419 . S
C1022 C1023 1.362 . S
C1023 H1013 0.930 . S
C1023 C1016 1.409 . S
C1023 C1022 1.362 . S
H1024 C1030 0.930 . S
H1025 C1033 0.930 . S
H1026 C1034 0.930 . S
H1027 C1035 0.930 . S
H1028 C1038 0.930 . S
H1029 C1039 0.930 . S
C1030 H1024 0.930 . S
C1030 C1031 1.355 . S
C1030 C1032 1.415 . S
C1031 C1030 1.355 . S
C1031 C1033 1.419 . S
C1032 C1030 1.415 . S
C1032 C1037 1.425 . S
C1032 C1039 1.409 . S
C1033 H1025 0.930 . S
C1033 C1031 1.419 . S
C1033 C1034 1.362 . S
C1034 H1026 0.930 . S
C1034 C1033 1.362 . S
C1034 C1037 1.409 . S
C1035 H1027 0.930 . S
C1035 C1036 1.355 . S
C1035 C1037 1.415 . S
C1036 C1035 1.355 . S
C1036 C1038 1.419 . S
C1037 C1032 1.425 . S
C1037 C1034 1.409 . S
C1037 C1035 1.415 . S
C1038 H1028 0.930 . S
C1038 C1036 1.419 . S
C1038 C1039 1.362 . S
C1039 H1029 0.930 . S
C1039 C1032 1.409 . S
C1039 C1038 1.362 . S
H1040 C1046 0.930 . S
H1041 C1049 0.930 . S
H1042 C1050 0.930 . S
H1043 C1051 0.930 . S
H1044 C1054 0.930 . S
H1045 C1055 0.930 . S
C1046 H1040 0.930 . S
C1046 C1047 1.355 1_566 S
C1046 C1048 1.415 . S
C1047 C1046 1.355 1_544 S
C1047 C1049 1.419 . S
C1048 C1046 1.415 . S
C1048 C1053 1.425 1_566 S
C1048 C1055 1.409 . S
C1049 H1041 0.930 . S
C1049 C1047 1.419 . S
C1049 C1050 1.362 . S
C1050 H1042 0.930 . S
C1050 C1049 1.362 . S
C1050 C1053 1.409 . S
C1051 H1043 0.930 . S
C1051 C1052 1.355 1_554 S
C1051 C1053 1.415 . S
C1052 C1051 1.355 1_556 S
C1052 C1054 1.419 1_545 S
C1053 C1048 1.425 1_544 S
C1053 C1050 1.409 . S
C1053 C1051 1.415 . S
C1054 H1044 0.930 . S
C1054 C1052 1.419 1_565 S
C1054 C1055 1.362 . S
C1055 H1045 0.930 . S
C1055 C1048 1.409 . S
C1055 C1054 1.362 . S
H1056 C1062 0.930 . S
H1057 C1065 0.930 . S
H1058 C1066 0.930 . S
H1059 C1067 0.930 . S
H1060 C1070 0.930 . S
H1061 C1071 0.930 . S
C1062 H1056 0.930 . S
C1062 C1063 1.355 . S
C1062 C1064 1.415 . S
C1063 C1062 1.355 . S
C1063 C1065 1.419 . S
C1064 C1062 1.415 . S
C1064 C1069 1.425 . S
C1064 C1071 1.409 . S
C1065 H1057 0.930 . S
C1065 C1063 1.419 . S
C1065 C1066 1.362 . S
C1066 H1058 0.930 . S
C1066 C1065 1.362 . S
C1066 C1069 1.409 . S
C1067 H1059 0.930 . S
C1067 C1068 1.355 . S
C1067 C1069 1.415 . S
C1068 C1067 1.355 . S
C1068 C1070 1.419 . S
C1069 C1064 1.425 . S
C1069 C1066 1.409 . S
C1069 C1067 1.415 . S
C1070 H1060 0.930 . S
C1070 C1068 1.419 . S
C1070 C1071 1.362 . S
C1071 H1061 0.930 . S
C1071 C1064 1.409 . S
C1071 C1070 1.362 . S
H1072 C1078 0.930 . S
H1073 C1081 0.935 . S
H1074 C1082 0.929 1_565 S
H1075 C1083 0.930 . S
H1076 C1086 0.930 . S
H1077 C1087 0.930 . S
C1078 H1072 0.930 . S
C1078 C1079 1.355 . S
C1078 C1080 1.415 . S
C1079 C1078 1.355 . S
C1079 C1081 1.419 . S
C1080 C1078 1.415 . S
C1080 C1085 1.425 1_455 S
C1080 C1087 1.409 1_455 S
C1081 H1073 0.935 . S
C1081 C1079 1.419 . S
C1081 C1082 1.362 . S
C1082 H1074 0.929 1_545 S
C1082 C1081 1.362 . S
C1082 C1085 1.409 1_455 S
C1083 H1075 0.930 . S
C1083 C1084 1.355 . S
C1083 C1085 1.415 . S
C1084 C1083 1.355 . S
C1084 C1086 1.419 . S
C1085 C1080 1.425 1_655 S
C1085 C1082 1.409 1_655 S
C1085 C1083 1.415 . S
C1086 H1076 0.930 . S
C1086 C1084 1.419 . S
C1086 C1087 1.362 . S
C1087 H1077 0.930 . S
C1087 C1080 1.409 1_655 S
C1087 C1086 1.362 . S
H1088 C1094 0.930 . S
H1089 C1097 0.930 . S
H1090 C1098 0.930 . S
H1091 C1099 0.930 . S
H1092 C1102 0.930 . S
H1093 C1103 0.930 . S
C1094 H1088 0.930 . S
C1094 C1095 1.355 . S
C1094 C1096 1.415 . S
C1095 C1094 1.355 . S
C1095 C1097 1.419 . S
C1096 C1094 1.415 . S
C1096 C1101 1.425 . S
C1096 C1103 1.409 . S
C1097 H1089 0.930 . S
C1097 C1095 1.419 . S
C1097 C1098 1.362 . S
C1098 H1090 0.930 . S
C1098 C1097 1.362 . S
C1098 C1101 1.409 . S
C1099 H1091 0.930 . S
C1099 C1100 1.355 . S
C1099 C1101 1.415 . S
C1100 C1099 1.355 . S
C1100 C1102 1.419 . S
C1101 C1096 1.425 . S
C1101 C1098 1.409 . S
C1101 C1099 1.415 . S
C1102 H1092 0.930 . S
C1102 C1100 1.419 . S
C1102 C1103 1.362 . S
C1103 H1093 0.930 . S
C1103 C1096 1.409 . S
C1103 C1102 1.362 . S
H1104 C1110 0.930 . S
H1105 C1113 0.930 . S
H1106 C1114 0.930 . S
H1107 C1115 0.930 . S
H1108 C1118 0.930 . S
H1109 C1119 0.930 . S
C1110 H1104 0.930 . S
C1110 C1111 1.355 . S
C1110 C1112 1.415 . S
C1111 C1110 1.355 . S
C1111 C1113 1.419 . S
C1112 C1110 1.415 . S
C1112 C1117 1.425 . S
C1112 C1119 1.409 . S
C1113 H1105 0.930 . S
C1113 C1111 1.419 . S
C1113 C1114 1.362 . S
C1114 H1106 0.930 . S
C1114 C1113 1.362 . S
C1114 C1117 1.409 . S
C1115 H1107 0.930 . S
C1115 C1116 1.355 . S
C1115 C1117 1.415 . S
C1116 C1115 1.355 . S
C1116 C1118 1.419 . S
C1117 C1112 1.425 . S
C1117 C1114 1.409 . S
C1117 C1115 1.415 . S
C1118 H1108 0.930 . S
C1118 C1116 1.419 . S
C1118 C1119 1.362 . S
C1119 H1109 0.930 . S
C1119 C1112 1.409 . S
C1119 C1118 1.362 . S
H1120 C1126 0.930 . S
H1121 C1129 0.930 . S
H1122 C1130 0.930 . S
H1123 C1131 0.930 . S
H1124 C1134 0.930 . S
H1125 C1135 0.930 . S
C1126 H1120 0.930 . S
C1126 C1127 1.355 . S
C1126 C1128 1.415 . S
C1127 C1126 1.355 . S
C1127 C1129 1.419 . S
C1128 C1126 1.415 . S
C1128 C1133 1.425 . S
C1128 C1135 1.409 . S
C1129 H1121 0.930 . S
C1129 C1127 1.419 . S
C1129 C1130 1.362 . S
C1130 H1122 0.930 . S
C1130 C1129 1.362 . S
C1130 C1133 1.409 . S
C1131 H1123 0.930 . S
C1131 C1132 1.355 . S
C1131 C1133 1.415 . S
C1132 C1131 1.355 . S
C1132 C1134 1.419 . S
C1133 C1128 1.425 . S
C1133 C1130 1.409 . S
C1133 C1131 1.415 . S
C1134 H1124 0.930 . S
C1134 C1132 1.419 . S
C1134 C1135 1.362 . S
C1135 H1125 0.930 . S
C1135 C1128 1.409 . S
C1135 C1134 1.362 . S
H1136 C1142 0.930 . S
H1137 C1145 0.930 . S
H1138 C1146 0.930 . S
H1139 C1147 0.930 . S
H1140 C1150 0.930 . S
H1141 C1151 0.930 . S
C1142 H1136 0.930 . S
C1142 C1143 1.355 . S
C1142 C1144 1.415 . S
C1143 C1142 1.355 . S
C1143 C1145 1.419 . S
C1144 C1142 1.415 . S
C1144 C1149 1.425 1_655 S
C1144 C1151 1.409 1_655 S
C1145 H1137 0.930 . S
C1145 C1143 1.419 . S
C1145 C1146 1.362 . S
C1146 H1138 0.930 . S
C1146 C1145 1.362 . S
C1146 C1149 1.409 1_655 S
C1147 H1139 0.930 . S
C1147 C1148 1.355 . S
C1147 C1149 1.415 . S
C1148 C1147 1.355 . S
C1148 C1150 1.419 . S
C1149 C1144 1.425 1_455 S
C1149 C1146 1.409 1_455 S
C1149 C1147 1.415 . S
C1150 H1140 0.930 . S
C1150 C1148 1.419 . S
C1150 C1151 1.362 . S
C1151 H1141 0.930 . S
C1151 C1144 1.409 1_455 S
C1151 C1150 1.362 . S
H1152 C1158 0.930 . S
H1153 C1161 0.930 . S
H1154 C1162 0.930 . S
H1155 C1163 0.930 . S
H1156 C1166 0.930 . S
H1157 C1167 0.930 . S
C1158 H1152 0.930 . S
C1158 C1159 1.355 1_554 S
C1158 C1160 1.415 . S
C1159 C1158 1.355 1_556 S
C1159 C1161 1.419 . S
C1160 C1158 1.415 . S
C1160 C1165 1.425 1_554 S
C1160 C1167 1.409 . S
C1161 H1153 0.930 . S
C1161 C1159 1.419 . S
C1161 C1162 1.362 . S
C1162 H1154 0.930 . S
C1162 C1161 1.362 . S
C1162 C1165 1.409 . S
C1163 H1155 0.930 . S
C1163 C1164 1.355 1_556 S
C1163 C1165 1.415 . S
C1164 C1163 1.355 1_554 S
C1164 C1166 1.419 . S
C1165 C1160 1.425 1_556 S
C1165 C1162 1.409 . S
C1165 C1163 1.415 . S
C1166 H1156 0.930 . S
C1166 C1164 1.419 . S
C1166 C1167 1.362 . S
C1167 H1157 0.930 . S
C1167 C1160 1.409 . S
C1167 C1166 1.362 . S
C535 N5 1.431 . S
C540 N14 1.438 . S
C551 N38 1.442 . S
C556 N47 1.436 . S
C567 N80 1.424 . S
C572 N71 1.424 . S
C583 N113 1.414 . S
C588 N104 1.419 . S
C599 N146 1.440 . S
C604 N137 1.443 1_545 S
C615 N179 1.418 . S
C620 N170 1.427 . S
C631 N203 1.426 . S
C636 N212 1.420 . S
C647 N245 1.438 . S
C652 N236 1.442 . S
C663 N269 1.416 . S
C668 N278 1.407 . S
C679 N302 1.424 . S
C684 N311 1.415 . S
C695 N344 1.437 . S
C700 N335 1.442 . S
C711 N368 1.441 . S
C716 N377 1.438 . S
C727 N401 1.413 . S
C732 N410 1.406 . S
C743 N443 1.425 . S
C748 N434 1.433 . S
C759 N467 1.425 . S
C764 N476 1.418 . S
C775 N509 1.439 . S
C780 N500 1.440 . S
C791 C8 1.382 . S
C796 C61 1.343 . S
C807 C74 1.454 . S
C812 C41 1.428 . S
C823 C107 1.380 . S
C828 C94 1.351 . S
C839 C28 1.265 . S
C844 C127 1.308 . S
C855 C193 1.374 . S
C860 C140 1.348 . S
C871 C173 1.422 . S
C876 C206 1.444 . S
C887 C226 1.340 . S
C892 C239 1.377 . S
C903 C259 1.265 . S
C908 C160 1.308 . S
C919 C325 1.340 . S
C924 C272 1.381 . S
C935 C305 1.422 . S
C940 C338 1.445 . S
C951 C358 1.353 . S
C956 C371 1.360 . S
C967 C391 1.298 . S
C972 C292 1.278 . S
C983 C404 1.366 . S
C988 C457 1.371 . S
C999 C437 1.439 . S
C1004 C470 1.451 . S
C1015 C503 1.358 . S
C1020 C490 1.378 . S
C1031 C424 1.303 . S
C1036 C523 1.265 . S
C1047 C17 1.250 . S
C1052 C149 1.250 1_556 S
C1063 C446 1.307 . S
C1068 C50 1.307 . S
C1079 C83 1.309 . S
C1084 C215 1.309 . S
C1095 C512 1.231 . S
C1100 C116 1.231 . S
C1111 C314 1.310 . S
C1116 C182 1.310 . S
C1127 C248 1.242 . S
C1132 C380 1.242 . S
C1143 C281 1.232 . S
C1148 C413 1.232 . S
C1159 C479 1.290 1_556 S
C1164 C347 1.291 . S
