# Generated by pormake.
# Topology ict, (4)-cn, num edge types: 1
# Building blocks:
#     Node 0, Type 0, BuildingBlock: NAHDIM_clean_sbu_0, # of connection points: 4
#     Node 1, Type 0, BuildingBlock: NAHDIM_clean_sbu_0, # of connection points: 4
#     Node 2, Type 0, BuildingBlock: NAHDIM_clean_sbu_0, # of connection points: 4
#     Node 3, Type 0, BuildingBlock: NAHDIM_clean_sbu_0, # of connection points: 4
#     Node 4, Type 0, BuildingBlock: NAHDIM_clean_sbu_0, # of connection points: 4
#     Node 5, Type 0, BuildingBlock: NAHDIM_clean_sbu_0, # of connection points: 4
#     Node 6, Type 0, BuildingBlock: NAHDIM_clean_sbu_0, # of connection points: 4
#     Node 7, Type 0, BuildingBlock: NAHDIM_clean_sbu_0, # of connection points: 4
#     Node 8, Type 0, BuildingBlock: NAHDIM_clean_sbu_0, # of connection points: 4
#     Node 9, Type 0, BuildingBlock: NAHDIM_clean_sbu_0, # of connection points: 4
#     Node 10, Type 0, BuildingBlock: NAHDIM_clean_sbu_0, # of connection points: 4
#     Node 11, Type 0, BuildingBlock: NAHDIM_clean_sbu_0, # of connection points: 4
#     Node 12, Type 0, BuildingBlock: NAHDIM_clean_sbu_0, # of connection points: 4
#     Node 13, Type 0, BuildingBlock: NAHDIM_clean_sbu_0, # of connection points: 4
#     Node 14, Type 0, BuildingBlock: NAHDIM_clean_sbu_0, # of connection points: 4
#     Node 15, Type 0, BuildingBlock: NAHDIM_clean_sbu_0, # of connection points: 4
#     Node 16, Type 0, BuildingBlock: NAHDIM_clean_sbu_0, # of connection points: 4
#     Node 17, Type 0, BuildingBlock: NAHDIM_clean_sbu_0, # of connection points: 4
#     Node 18, Type 0, BuildingBlock: NAHDIM_clean_sbu_0, # of connection points: 4
#     Node 19, Type 0, BuildingBlock: NAHDIM_clean_sbu_0, # of connection points: 4
#     Node 20, Type 0, BuildingBlock: NAHDIM_clean_sbu_0, # of connection points: 4
#     Node 21, Type 0, BuildingBlock: NAHDIM_clean_sbu_0, # of connection points: 4
#     Node 22, Type 0, BuildingBlock: NAHDIM_clean_sbu_0, # of connection points: 4
#     Node 23, Type 0, BuildingBlock: NAHDIM_clean_sbu_0, # of connection points: 4
#     Node 24, Type 0, BuildingBlock: NAHDIM_clean_sbu_0, # of connection points: 4
#     Node 25, Type 0, BuildingBlock: NAHDIM_clean_sbu_0, # of connection points: 4
#     Node 26, Type 0, BuildingBlock: NAHDIM_clean_sbu_0, # of connection points: 4
#     Node 27, Type 0, BuildingBlock: NAHDIM_clean_sbu_0, # of connection points: 4
#     Node 28, Type 0, BuildingBlock: NAHDIM_clean_sbu_0, # of connection points: 4
#     Node 29, Type 0, BuildingBlock: NAHDIM_clean_sbu_0, # of connection points: 4
#     Node 30, Type 0, BuildingBlock: NAHDIM_clean_sbu_0, # of connection points: 4
#     Node 31, Type 0, BuildingBlock: NAHDIM_clean_sbu_0, # of connection points: 4
#     Node 32, Type 0, BuildingBlock: NAHDIM_clean_sbu_0, # of connection points: 4
#     Node 33, Type 0, BuildingBlock: NAHDIM_clean_sbu_0, # of connection points: 4
#     Node 34, Type 0, BuildingBlock: NAHDIM_clean_sbu_0, # of connection points: 4
#     Node 35, Type 0, BuildingBlock: NAHDIM_clean_sbu_0, # of connection points: 4
#     Edge 36, Type (0, 0), BuildingBlock: AJUNOK_clean_linker_0, # of connection points: 2
#     Edge 37, Type (0, 0), BuildingBlock: AJUNOK_clean_linker_0, # of connection points: 2
#     Edge 38, Type (0, 0), BuildingBlock: AJUNOK_clean_linker_0, # of connection points: 2
#     Edge 39, Type (0, 0), BuildingBlock: AJUNOK_clean_linker_0, # of connection points: 2
#     Edge 40, Type (0, 0), BuildingBlock: AJUNOK_clean_linker_0, # of connection points: 2
#     Edge 41, Type (0, 0), BuildingBlock: AJUNOK_clean_linker_0, # of connection points: 2
#     Edge 42, Type (0, 0), BuildingBlock: AJUNOK_clean_linker_0, # of connection points: 2
#     Edge 43, Type (0, 0), BuildingBlock: AJUNOK_clean_linker_0, # of connection points: 2
#     Edge 44, Type (0, 0), BuildingBlock: AJUNOK_clean_linker_0, # of connection points: 2
#     Edge 45, Type (0, 0), BuildingBlock: AJUNOK_clean_linker_0, # of connection points: 2
#     Edge 46, Type (0, 0), BuildingBlock: AJUNOK_clean_linker_0, # of connection points: 2
#     Edge 47, Type (0, 0), BuildingBlock: AJUNOK_clean_linker_0, # of connection points: 2
#     Edge 48, Type (0, 0), BuildingBlock: AJUNOK_clean_linker_0, # of connection points: 2
#     Edge 49, Type (0, 0), BuildingBlock: AJUNOK_clean_linker_0, # of connection points: 2
#     Edge 50, Type (0, 0), BuildingBlock: AJUNOK_clean_linker_0, # of connection points: 2
#     Edge 51, Type (0, 0), BuildingBlock: AJUNOK_clean_linker_0, # of connection points: 2
#     Edge 52, Type (0, 0), BuildingBlock: AJUNOK_clean_linker_0, # of connection points: 2
#     Edge 53, Type (0, 0), BuildingBlock: AJUNOK_clean_linker_0, # of connection points: 2
#     Edge 54, Type (0, 0), BuildingBlock: AJUNOK_clean_linker_0, # of connection points: 2
#     Edge 55, Type (0, 0), BuildingBlock: AJUNOK_clean_linker_0, # of connection points: 2
#     Edge 56, Type (0, 0), BuildingBlock: AJUNOK_clean_linker_0, # of connection points: 2
#     Edge 57, Type (0, 0), BuildingBlock: AJUNOK_clean_linker_0, # of connection points: 2
#     Edge 58, Type (0, 0), BuildingBlock: AJUNOK_clean_linker_0, # of connection points: 2
#     Edge 59, Type (0, 0), BuildingBlock: AJUNOK_clean_linker_0, # of connection points: 2
#     Edge 60, Type (0, 0), BuildingBlock: AJUNOK_clean_linker_0, # of connection points: 2
#     Edge 61, Type (0, 0), BuildingBlock: AJUNOK_clean_linker_0, # of connection points: 2
#     Edge 62, Type (0, 0), BuildingBlock: AJUNOK_clean_linker_0, # of connection points: 2
#     Edge 63, Type (0, 0), BuildingBlock: AJUNOK_clean_linker_0, # of connection points: 2
#     Edge 64, Type (0, 0), BuildingBlock: AJUNOK_clean_linker_0, # of connection points: 2
#     Edge 65, Type (0, 0), BuildingBlock: AJUNOK_clean_linker_0, # of connection points: 2
#     Edge 66, Type (0, 0), BuildingBlock: AJUNOK_clean_linker_0, # of connection points: 2
#     Edge 67, Type (0, 0), BuildingBlock: AJUNOK_clean_linker_0, # of connection points: 2
#     Edge 68, Type (0, 0), BuildingBlock: AJUNOK_clean_linker_0, # of connection points: 2
#     Edge 69, Type (0, 0), BuildingBlock: AJUNOK_clean_linker_0, # of connection points: 2
#     Edge 70, Type (0, 0), BuildingBlock: AJUNOK_clean_linker_0, # of connection points: 2
#     Edge 71, Type (0, 0), BuildingBlock: AJUNOK_clean_linker_0, # of connection points: 2
#     Edge 72, Type (0, 0), BuildingBlock: AJUNOK_clean_linker_0, # of connection points: 2
#     Edge 73, Type (0, 0), BuildingBlock: AJUNOK_clean_linker_0, # of connection points: 2
#     Edge 74, Type (0, 0), BuildingBlock: AJUNOK_clean_linker_0, # of connection points: 2
#     Edge 75, Type (0, 0), BuildingBlock: AJUNOK_clean_linker_0, # of connection points: 2
#     Edge 76, Type (0, 0), BuildingBlock: AJUNOK_clean_linker_0, # of connection points: 2
#     Edge 77, Type (0, 0), BuildingBlock: AJUNOK_clean_linker_0, # of connection points: 2
#     Edge 78, Type (0, 0), BuildingBlock: AJUNOK_clean_linker_0, # of connection points: 2
#     Edge 79, Type (0, 0), BuildingBlock: AJUNOK_clean_linker_0, # of connection points: 2
#     Edge 80, Type (0, 0), BuildingBlock: AJUNOK_clean_linker_0, # of connection points: 2
#     Edge 81, Type (0, 0), BuildingBlock: AJUNOK_clean_linker_0, # of connection points: 2
#     Edge 82, Type (0, 0), BuildingBlock: AJUNOK_clean_linker_0, # of connection points: 2
#     Edge 83, Type (0, 0), BuildingBlock: AJUNOK_clean_linker_0, # of connection points: 2
#     Edge 84, Type (0, 0), BuildingBlock: AJUNOK_clean_linker_0, # of connection points: 2
#     Edge 85, Type (0, 0), BuildingBlock: AJUNOK_clean_linker_0, # of connection points: 2
#     Edge 86, Type (0, 0), BuildingBlock: AJUNOK_clean_linker_0, # of connection points: 2
#     Edge 87, Type (0, 0), BuildingBlock: AJUNOK_clean_linker_0, # of connection points: 2
#     Edge 88, Type (0, 0), BuildingBlock: AJUNOK_clean_linker_0, # of connection points: 2
#     Edge 89, Type (0, 0), BuildingBlock: AJUNOK_clean_linker_0, # of connection points: 2
#     Edge 90, Type (0, 0), BuildingBlock: AJUNOK_clean_linker_0, # of connection points: 2
#     Edge 91, Type (0, 0), BuildingBlock: AJUNOK_clean_linker_0, # of connection points: 2
#     Edge 92, Type (0, 0), BuildingBlock: AJUNOK_clean_linker_0, # of connection points: 2
#     Edge 93, Type (0, 0), BuildingBlock: AJUNOK_clean_linker_0, # of connection points: 2
#     Edge 94, Type (0, 0), BuildingBlock: AJUNOK_clean_linker_0, # of connection points: 2
#     Edge 95, Type (0, 0), BuildingBlock: AJUNOK_clean_linker_0, # of connection points: 2
#     Edge 96, Type (0, 0), BuildingBlock: AJUNOK_clean_linker_0, # of connection points: 2
#     Edge 97, Type (0, 0), BuildingBlock: AJUNOK_clean_linker_0, # of connection points: 2
#     Edge 98, Type (0, 0), BuildingBlock: AJUNOK_clean_linker_0, # of connection points: 2
#     Edge 99, Type (0, 0), BuildingBlock: AJUNOK_clean_linker_0, # of connection points: 2
#     Edge 100, Type (0, 0), BuildingBlock: AJUNOK_clean_linker_0, # of connection points: 2
#     Edge 101, Type (0, 0), BuildingBlock: AJUNOK_clean_linker_0, # of connection points: 2
#     Edge 102, Type (0, 0), BuildingBlock: AJUNOK_clean_linker_0, # of connection points: 2
#     Edge 103, Type (0, 0), BuildingBlock: AJUNOK_clean_linker_0, # of connection points: 2
#     Edge 104, Type (0, 0), BuildingBlock: AJUNOK_clean_linker_0, # of connection points: 2
#     Edge 105, Type (0, 0), BuildingBlock: AJUNOK_clean_linker_0, # of connection points: 2
#     Edge 106, Type (0, 0), BuildingBlock: AJUNOK_clean_linker_0, # of connection points: 2
#     Edge 107, Type (0, 0), BuildingBlock: AJUNOK_clean_linker_0, # of connection points: 2
# Relax obj value: 0.088
# Max RMSD: 0.119
# Mean RMSD: 0.119
data_MOF--net-ict--node1-NAHDIM_clean_sbu_0--edge1-AJUNOK_clean_linker_0
_symmetry_space_group_name_H-M    P1
_symmetry_Int_Tables_number       1
_symmetry_cell_setting            triclinic
loop_
_symmetry_equiv_pos_as_xyz
'x, y, z'
_cell_length_a     48.981102
_cell_length_b     48.95639
_cell_length_c     26.878904
_cell_angle_alpha  90.012322
_cell_angle_beta   90.014344
_cell_angle_gamma 120.02105
loop_
_atom_site_label
_atom_site_type_symbol
_atom_site_fract_x
_atom_site_fract_y
_atom_site_fract_z
_atom_type_partial_charge
C0 C 0.27028 0.24123 0.96229 0.0
O1 O 0.2445 0.22928 0.93522 0.0
O2 O 0.19183 0.20701 0.01144 0.0
Zn3 Zn 0.22668 0.19988 0.03577 0.0
O4 O 0.21889 0.1568 0.01631 0.0
C5 C 0.24016 0.22802 0.1347 0.0
O6 O 0.25334 0.25501 0.11071 0.0
O7 O 0.2683 0.23243 0.00725 0.0
C8 C 0.20268 0.13303 0.04409 0.0
O9 O 0.18987 0.13673 0.08456 0.0
C10 C 0.16657 0.1966 0.03655 0.0
O11 O 0.16352 0.18068 0.07749 0.0
O12 O 0.22819 0.20246 0.11012 0.0
C13 C 0.73919 0.00388 0.95979 0.0
O14 O 0.75519 0.99526 0.93095 0.0
O15 O 0.77795 0.96137 0.02039 0.0
Zn16 Zn 0.78037 0.00294 0.0368 0.0
O17 O 0.82147 0.04109 0.01542 0.0
C18 C 0.79889 0.00653 0.13785 0.0
O19 O 0.82249 0.00569 0.11622 0.0
O20 O 0.74512 0.00708 0.00612 0.0
C21 C 0.84802 0.04253 0.01136 0.0
O22 O 0.84992 0.01709 0.01968 0.0
C23 C 0.78886 0.95549 0.98148 0.0
O24 O 0.80233 0.97746 0.94732 0.0
O25 O 0.77699 0.0053 0.11098 0.0
C26 C 0.97802 0.71808 0.96631 0.0
O27 O 0.98692 0.74329 0.93868 0.0
O28 O 0.02649 0.79761 0.01365 0.0
Zn29 Zn 0.98609 0.76228 0.04187 0.0
O30 O 0.94911 0.76887 0.02772 0.0
C31 C 0.99436 0.7872 0.13777 0.0
O32 O 0.99456 0.80971 0.11088 0.0
O33 O 0.97655 0.72052 0.01315 0.0
C34 C 0.92697 0.76001 0.0594 0.0
O35 O 0.92768 0.74543 0.09995 0.0
C36 C 0.02808 0.82093 0.99034 0.0
O37 O 0.00201 0.82156 0.98165 0.0
O38 O 0.99175 0.76298 0.11594 0.0
C39 C 0.27212 0.27931 0.52994 0.0
O40 O 0.2609 0.2537 0.55729 0.0
O41 O 0.23946 0.20047 0.47274 0.0
Zn42 Zn 0.23251 0.23616 0.45227 0.0
O43 O 0.18826 0.22519 0.47051 0.0
C44 C 0.22536 0.21845 0.35011 0.0
O45 O 0.20774 0.1904 0.36987 0.0
O46 O 0.26345 0.27699 0.4849 0.0
C47 C 0.17965 0.24573 0.47114 0.0
O48 O 0.2001 0.27491 0.45861 0.0
C49 C 0.2248 0.18303 0.50966 0.0
O50 O 0.20564 0.1891 0.53535 0.0
O51 O 0.23843 0.24225 0.37863 0.0
C52 C 0.73631 0.99368 0.52924 0.0
O53 O 0.76166 0.00481 0.55722 0.0
O54 O 0.81495 0.03859 0.48011 0.0
Zn55 Zn 0.77961 0.99718 0.45378 0.0
O56 O 0.78618 0.9604 0.47114 0.0
C57 C 0.80124 0.01675 0.35336 0.0
O58 O 0.82858 0.03291 0.37586 0.0
O59 O 0.73844 0.98877 0.48338 0.0
C60 C 0.79913 0.95032 0.44089 0.0
O61 O 0.80917 0.9646 0.39792 0.0
C62 C 0.84284 0.04376 0.48695 0.0
O63 O 0.84894 0.02095 0.47834 0.0
O64 O 0.77672 0.99988 0.37918 0.0
C65 C 0.02986 0.75792 0.52892 0.0
O66 O 0.02174 0.77467 0.55702 0.0
O67 O 0.9805 0.78917 0.47878 0.0
Zn68 Zn 0.02076 0.7931 0.45146 0.0
O69 O 0.05829 0.83619 0.46462 0.0
C70 C 0.99798 0.79384 0.35374 0.0
O71 O 0.98204 0.80428 0.3788 0.0
O72 O 0.03002 0.76107 0.48199 0.0
C73 C 0.06309 0.86074 0.44112 0.0
O74 O 0.04229 0.8584 0.40807 0.0
C75 C 0.97928 0.80976 0.50599 0.0
O76 O 0.0057 0.8343 0.52104 0.0
O77 O 0.01601 0.78662 0.37724 0.0
C78 C 0.72428 0.74088 0.04961 0.0
O79 O 0.74691 0.76588 0.07184 0.0
O80 O 0.80392 0.76646 0.9859 0.0
Zn81 Zn 0.76552 0.76923 0.9668 0.0
O82 O 0.77129 0.81238 0.98181 0.0
C83 C 0.78058 0.76691 0.86461 0.0
O84 O 0.80893 0.77824 0.88364 0.0
O85 O 0.72726 0.73669 0.00376 0.0
C86 C 0.78525 0.83547 0.95193 0.0
O87 O 0.79758 0.83162 0.91101 0.0
C88 C 0.82097 0.77954 0.02387 0.0
O89 O 0.81381 0.79626 0.05372 0.0
O90 O 0.75768 0.76084 0.89342 0.0
C91 C 0.25392 0.97215 0.02014 0.0
O92 O 0.23815 0.98236 0.04623 0.0
O93 O 0.21745 0.01455 0.96681 0.0
Zn94 Zn 0.21602 0.97507 0.94118 0.0
O95 O 0.17394 0.93649 0.95582 0.0
C96 C 0.21303 0.9945 0.84254 0.0
O97 O 0.19921 0.00779 0.86613 0.0
O98 O 0.24916 0.96838 0.97354 0.0
C99 C 0.148 0.93131 0.93688 0.0
O100 O 0.14794 0.95226 0.90645 0.0
C101 C 0.19786 0.01424 -0.00188 0.0
O102 O 0.17643 0.98716 0.01699 0.0
O103 O 0.22289 0.97901 0.86718 0.0
C104 C 0.01348 0.26543 0.04484 0.0
O105 O 0.00212 0.23947 0.07135 0.0
O106 O 0.96807 0.18692 0.97917 0.0
Zn107 Zn 0.01117 0.22423 0.96555 0.0
O108 O 0.04375 0.21421 0.99125 0.0
C109 C 0.99786 0.23386 0.86407 0.0
O110 O 0.97262 0.23219 0.88416 0.0
O111 O 0.0181 0.26411 -0.00141 0.0
C112 C 0.07116 0.2271 0.97226 0.0
O113 O 0.07814 0.24764 0.93615 0.0
C114 C 0.9642 0.15992 0.96832 0.0
O115 O 0.98799 0.15822 0.94916 0.0
O116 O 0.01735 0.23118 0.89186 0.0
C117 C 0.75203 0.73928 0.47588 0.0
O118 O 0.76708 0.76368 0.4462 0.0
O119 O 0.79062 0.82105 0.52729 0.0
Zn120 Zn 0.79381 0.78331 0.54975 0.0
O121 O 0.83516 0.78717 0.52902 0.0
C122 C 0.7676 0.76319 0.6492 0.0
O123 O 0.74093 0.74523 0.62581 0.0
O124 O 0.75896 0.74261 0.52182 0.0
C125 C 0.86041 0.80451 0.55304 0.0
O126 O 0.85956 0.82127 0.59058 0.0
C127 C 0.80734 0.83862 0.49179 0.0
O128 O 0.82656 0.83151 0.4686 0.0
O129 O 0.79216 0.78105 0.62413 0.0
C130 C 0.28134 0.02937 0.44849 0.0
O131 O 0.25788 0.03008 0.42598 0.0
O132 O 0.20152 0.97795 0.50263 0.0
Zn133 Zn 0.23988 0.01658 0.52934 0.0
O134 O 0.23606 0.0556 0.5188 0.0
C135 C 0.21706 0.00087 0.62686 0.0
O136 O 0.1919 0.99696 0.6031 0.0
O137 O 0.27894 0.0231 0.49465 0.0
C138 C 0.2385 0.07416 0.55386 0.0
O139 O 0.24453 0.06872 0.59919 0.0
C140 C 0.17903 0.97899 0.48078 0.0
O141 O 0.18132 0.00651 0.47275 0.0
O142 O 0.24228 0.00957 0.60243 0.0
C143 C 0.98774 0.25509 0.46334 0.0
O144 O 0.99264 0.23474 0.43871 0.0
O145 O 0.04516 0.23657 0.52709 0.0
Zn146 Zn 0.00142 0.22708 0.54616 0.0
O147 O 0.96967 0.18233 0.52754 0.0
C148 C 0.02032 0.24173 0.6504 0.0
O149 O 0.04869 0.25028 0.63375 0.0
O150 O 0.99062 0.25642 0.51036 0.0
C151 C 0.94065 0.17206 0.53634 0.0
O152 O 0.93226 0.19128 0.55626 0.0
C153 C 0.05283 0.21537 0.53071 0.0
O154 O 0.03191 0.18746 0.54769 0.0
O155 O 0.99752 0.2316 0.61986 0.0
C156 C 0.9241 0.57633 0.29326 0.0
O157 O 0.89993 0.55643 0.26614 0.0
O158 O 0.84385 0.54713 0.35317 0.0
Zn159 Zn 0.88084 0.54147 0.37088 0.0
O160 O 0.87336 0.4997 0.34525 0.0
C161 C 0.88163 0.56029 0.47322 0.0
O162 O 0.87413 0.58009 0.45304 0.0
O163 O 0.92113 0.57528 0.34028 0.0
C164 C 0.89178 0.48968 0.3579 0.0
O165 O 0.91554 0.50709 0.38766 0.0
C166 C 0.81663 0.52295 0.348 0.0
O167 O 0.81331 0.49486 0.3545 0.0
O168 O 0.88576 0.5418 0.44513 0.0
C169 C 0.39854 0.34818 0.29336 0.0
O170 O 0.40651 0.33024 0.26817 0.0
O171 O 0.43973 0.31013 0.33547 0.0
Zn172 Zn 0.44296 0.34934 0.36628 0.0
O173 O 0.48587 0.38796 0.35433 0.0
C174 C 0.44222 0.32473 0.46362 0.0
O175 O 0.45422 0.31011 0.43878 0.0
O176 O 0.41061 0.35813 0.33607 0.0
C177 C 0.50802 0.39851 0.38625 0.0
O178 O 0.50367 0.38307 0.42815 0.0
C179 C 0.46356 0.30695 0.32734 0.0
O180 O 0.49181 0.33054 0.33758 0.0
O181 O 0.43503 0.34282 0.44026 0.0
C182 C 0.65246 0.05968 0.30418 0.0
O183 O 0.6691 0.08688 0.28148 0.0
O184 O 0.69182 0.1363 0.36293 0.0
Zn185 Zn 0.65054 0.0987 0.38327 0.0
O186 O 0.61399 0.10539 0.36721 0.0
C187 C 0.667 0.11697 0.4841 0.0
O188 O 0.68301 0.14483 0.4631 0.0
O189 O 0.64307 0.05938 0.34833 0.0
C190 C 0.61085 0.12718 0.3873 0.0
O191 O 0.63252 0.14652 0.41852 0.0
C192 C 0.69412 0.15659 0.33127 0.0
O193 O 0.66869 0.15219 0.30782 0.0
O194 O 0.65127 0.09275 0.45709 0.0
C195 C 0.91712 0.59514 0.87087 0.0
O196 O 0.90077 0.56941 0.89735 0.0
O197 O 0.8851 0.51669 0.80913 0.0
Zn198 Zn 0.87943 0.5538 0.79242 0.0
O199 O 0.83778 0.54596 0.8188 0.0
C200 C 0.89145 0.54899 0.68767 0.0
O201 O 0.90431 0.53285 0.70457 0.0
O202 O 0.9129 0.59378 0.82409 0.0
C203 C 0.82905 0.56607 0.81148 0.0
O204 O 0.8477 0.59185 0.78643 0.0
C205 C 0.86099 0.48953 0.81513 0.0
O206 O 0.83282 0.48628 0.81046 0.0
O207 O 0.87968 0.55996 0.71839 0.0
C208 C 0.39188 0.31197 0.86397 0.0
O209 O 0.41809 0.31867 0.88727 0.0
O210 O 0.46765 0.37029 0.8056 0.0
Zn211 Zn 0.43343 0.32763 0.7821 0.0
O212 O 0.44487 0.29439 0.79828 0.0
C213 C 0.44442 0.3214 0.67987 0.0
O214 O 0.46428 0.31415 0.70051 0.0
O215 O 0.39264 0.31522 0.81701 0.0
C216 C 0.42483 0.2658 0.78851 0.0
O217 O 0.39766 0.25931 0.76892 0.0
C218 C 0.49645 0.37819 0.80002 0.0
O219 O 0.50322 0.35795 0.77949 0.0
O220 O 0.42796 0.3285 0.7078 0.0
C221 C 0.67732 0.0674 0.8746 0.0
O222 O 0.66611 0.08112 0.90353 0.0
O223 O 0.63358 0.10356 0.82443 0.0
Zn224 Zn 0.6745 0.10815 0.79904 0.0
O225 O 0.71215 0.1512 0.81524 0.0
C226 C 0.65647 0.11152 0.69861 0.0
O227 O 0.64317 0.12591 0.72042 0.0
O228 O 0.6822 0.07507 0.82899 0.0
C229 C 0.72412 0.17366 0.78383 0.0
O230 O 0.71105 0.16943 0.73978 0.0
C231 C 0.62936 0.12701 0.82955 0.0
O232 O 0.65304 0.15552 0.82109 0.0
O233 O 0.67122 0.10151 0.7248 0.0
C234 C 0.40231 0.08196 0.34791 0.0
O235 O 0.42676 0.08161 0.36724 0.0
O236 O 0.48258 0.12054 0.30216 0.0
Zn237 Zn 0.4476 0.12695 0.27619 0.0
O238 O 0.45883 0.17205 0.28714 0.0
C239 C 0.46643 0.13676 0.17587 0.0
O240 O 0.49169 0.15961 0.19729 0.0
O241 O 0.40618 0.09884 0.30975 0.0
C242 C 0.43955 0.18121 0.27561 0.0
O243 O 0.41217 0.16076 0.25627 0.0
C244 C 0.50121 0.1385 0.33572 0.0
O245 O 0.49632 0.16035 0.35493 0.0
O246 O 0.44318 0.11848 0.20298 0.0
C247 C 0.92534 0.31479 0.36545 0.0
O248 O 0.91664 0.33217 0.39059 0.0
O249 O 0.88758 0.35603 0.31487 0.0
Zn250 Zn 0.88098 0.31365 0.29348 0.0
O251 O 0.83841 0.27878 0.31586 0.0
C252 C 0.90115 0.3324 0.19033 0.0
O253 O 0.92447 0.35832 0.20941 0.0
O254 O 0.91381 0.30511 0.32239 0.0
C255 C 0.81439 0.26918 0.28788 0.0
O256 O 0.8173 0.28358 0.24534 0.0
C257 C 0.87267 0.36761 0.29293 0.0
O258 O 0.85348 0.35165 0.25638 0.0
O259 O 0.8815 0.31121 0.21924 0.0
C260 C 0.68296 0.61422 0.38837 0.0
O261 O 0.67502 0.58894 0.41528 0.0
O262 O 0.63155 0.53502 0.32335 0.0
Zn263 Zn 0.67386 0.57248 0.30513 0.0
O264 O 0.70927 0.56389 0.31997 0.0
C265 C 0.65689 0.55919 0.20172 0.0
O266 O 0.63842 0.53062 0.21903 0.0
O267 O 0.68282 0.61205 0.34127 0.0
C268 C 0.70903 0.53931 0.30413 0.0
O269 O 0.68482 0.51872 0.27784 0.0
C270 C 0.62786 0.51495 0.35651 0.0
O271 O 0.6523 0.51952 0.38313 0.0
O272 O 0.67432 0.581 0.23186 0.0
C273 C 0.41381 0.06186 0.78405 0.0
O274 O 0.42974 0.08716 0.75644 0.0
O275 O 0.43617 0.13973 0.83551 0.0
Zn276 Zn 0.44625 0.10704 0.86085 0.0
O277 O 0.49086 0.11854 0.84441 0.0
C278 C 0.46492 0.12713 0.9598 0.0
O279 O 0.48924 0.14901 0.93527 0.0
O280 O 0.41665 0.0646 0.83105 0.0
C281 C 0.50061 0.10053 0.86061 0.0
O282 O 0.48085 0.07485 0.8849 0.0
C283 C 0.45717 0.16861 0.83126 0.0
O284 O 0.4866 0.17721 0.84169 0.0
O285 O 0.44223 0.10538 0.93539 0.0
C286 C 0.93785 0.34705 0.79177 0.0
O287 O 0.91506 0.34835 0.76806 0.0
O288 O 0.85808 0.29676 0.85592 0.0
Zn289 Zn 0.89718 0.33793 0.87323 0.0
O290 O 0.89302 0.37546 0.85387 0.0
C291 C 0.88178 0.32289 0.97595 0.0
O292 O 0.85358 0.30504 0.95697 0.0
O293 O 0.93505 0.34166 0.83821 0.0
C294 C 0.87002 0.37875 0.86758 0.0
O295 O 0.84741 0.35641 0.89428 0.0
C296 C 0.83887 0.29356 0.82159 0.0
O297 O 0.84498 0.31797 0.7936 0.0
O298 O 0.90462 0.33966 0.94698 0.0
C299 C 0.65444 0.59922 0.81503 0.0
O300 O 0.67059 0.58945 0.78891 0.0
O301 O 0.6983 0.56501 0.86542 0.0
Zn302 Zn 0.65507 0.55583 0.88559 0.0
O303 O 0.62302 0.51338 0.85876 0.0
C304 C 0.66417 0.57847 0.98722 0.0
O305 O 0.67967 0.60639 0.96623 0.0
O306 O 0.64568 0.58845 0.85867 0.0
C307 C 0.59388 0.5028 0.86687 0.0
O308 O 0.58538 0.52031 0.89215 0.0
C309 C 0.70685 0.54542 0.87819 0.0
O310 O 0.68723 0.52056 0.90425 0.0
O311 O 0.65179 0.55405 0.95983 0.0
C312 C 0.61247 0.93581 0.62026 0.0
O313 O 0.58659 0.92403 0.59351 0.0
O314 O 0.53213 0.89525 0.67443 0.0
Zn315 Zn 0.57081 0.89433 0.69814 0.0
O316 O 0.56703 0.85189 0.68503 0.0
C317 C 0.55051 0.88807 0.7985 0.0
O318 O 0.52299 0.87142 0.77674 0.0
O319 O 0.61066 0.92728 0.66535 0.0
C320 C 0.54228 0.82558 0.69331 0.0
O321 O 0.51688 0.82534 0.70954 0.0
C322 C 0.51559 0.87907 0.63769 0.0
O323 O 0.52481 0.86222 0.61225 0.0
O324 O 0.57522 0.90145 0.77197 0.0
C325 C 0.089 0.69405 0.62496 0.0
O326 O 0.10732 0.6866 0.59974 0.0
O327 O 0.11263 0.64029 0.68475 0.0
Zn328 Zn 0.11988 0.68299 0.70626 0.0
O329 O 0.16359 0.71737 0.68789 0.0
C330 C 0.09377 0.66094 0.80457 0.0
O331 O 0.074 0.63515 0.78052 0.0
O332 O 0.08945 0.69315 0.67219 0.0
C333 C 0.1868 0.7282 0.71781 0.0
O334 O 0.18293 0.7154 0.76208 0.0
C335 C 0.12954 0.62959 0.70231 0.0
O336 O 0.15176 0.64682 0.73448 0.0
O337 O 0.1149 0.68411 0.78023 0.0
C338 C 0.33167 0.4026 0.62347 0.0
O339 O 0.34416 0.4289 0.5977 0.0
O340 O 0.37515 0.48061 0.68517 0.0
Zn341 Zn 0.33379 0.44265 0.70505 0.0
O342 O 0.29815 0.4506 0.68971 0.0
C343 C 0.34465 0.45831 0.80817 0.0
O344 O 0.35617 0.48689 0.78996 0.0
O345 O 0.32613 0.40341 0.66943 0.0
C346 C 0.26983 0.43005 0.69988 0.0
O347 O 0.2642 0.40346 0.72073 0.0
C348 C 0.37605 0.49912 0.65121 0.0
O349 O 0.3498 0.49257 0.62821 0.0
O350 O 0.33365 0.43511 0.77834 0.0
C351 C 0.59021 0.94177 0.19524 0.0
O352 O 0.57349 0.91501 0.21913 0.0
O353 O 0.56133 0.86701 0.13887 0.0
Zn354 Zn 0.55566 0.90266 0.11376 0.0
O355 O 0.51148 0.89459 0.12819 0.0
C356 C 0.55611 0.88356 0.01338 0.0
O357 O 0.54389 0.85582 0.03487 0.0
O358 O 0.58672 0.9424 0.14852 0.0
C359 C 0.48899 0.8807 0.09718 0.0
O360 O 0.49444 0.8712 0.05462 0.0
C361 C 0.53837 0.8392 0.1451 0.0
O362 O 0.50959 0.83337 0.13614 0.0
O363 O 0.56377 0.90784 0.03987 0.0
C364 C 0.04754 0.64246 0.19951 0.0
O365 O 0.07345 0.65567 0.2263 0.0
O366 O 0.12593 0.6903 0.14555 0.0
Zn367 Zn 0.09074 0.64793 0.12201 0.0
O368 O 0.09903 0.61293 0.14135 0.0
C369 C 0.09616 0.67144 0.02055 0.0
O370 O 0.1109 0.69943 0.04151 0.0
O371 O 0.04949 0.63786 0.15343 0.0
C372 C 0.11098 0.60162 0.11151 0.0
O373 O 0.12015 0.61438 0.06727 0.0
C374 C 0.15454 0.70006 0.13412 0.0
O375 O 0.1612 0.68197 0.10663 0.0
O376 O 0.08582 0.64702 0.04765 0.0
C377 C 0.34036 0.41307 0.20026 0.0
O378 O 0.33385 0.43133 0.2276 0.0
O379 O 0.29727 0.44962 0.1441 0.0
Zn380 Zn 0.33908 0.45349 0.12649 0.0
O381 O 0.37525 0.49334 0.15388 0.0
C382 C 0.33266 0.43438 0.02165 0.0
O383 O 0.31563 0.40534 0.0381 0.0
O384 O 0.34264 0.41716 0.15345 0.0
C385 C 0.37959 0.5198 0.13878 0.0
O386 O 0.35942 0.5204 0.10722 0.0
C387 C 0.29392 0.46503 0.1793 0.0
O388 O 0.31852 0.48379 0.20661 0.0
O389 O 0.34425 0.45698 0.05258 0.0
C390 C 0.06109 0.40085 0.69926 0.0
O391 O 0.08496 0.39982 0.71952 0.0
O392 O 0.14103 0.43771 0.65543 0.0
Zn393 Zn 0.10835 0.4485 0.6328 0.0
O394 O 0.12072 0.49288 0.65356 0.0
C395 C 0.11933 0.46759 0.52985 0.0
O396 O 0.13876 0.49519 0.54958 0.0
O397 O 0.06608 0.41922 0.66273 0.0
C398 C 0.10236 0.5035 0.64377 0.0
O399 O 0.07595 0.48523 0.61988 0.0
C400 C 0.17008 0.45724 0.64824 0.0
O401 O 0.17801 0.48431 0.62678 0.0
O402 O 0.10393 0.44412 0.55839 0.0
C403 C 0.59324 0.65883 0.71432 0.0
O404 O 0.5752 0.66729 0.73805 0.0
O405 O 0.56133 0.70316 0.65187 0.0
Zn406 Zn 0.55929 0.66262 0.63032 0.0
O407 O 0.51647 0.62463 0.64345 0.0
C408 C 0.56728 0.68453 0.52897 0.0
O409 O 0.5608 0.70516 0.54869 0.0
O410 O 0.59117 0.65629 0.66727 0.0
C411 C 0.4947 0.61458 0.61094 0.0
O412 O 0.50003 0.63002 0.56882 0.0
C413 C 0.53688 0.70517 0.66043 0.0
O414 O 0.50904 0.67957 0.65786 0.0
O415 O 0.56844 0.66426 0.55705 0.0
C416 C 0.35491 0.93832 0.68987 0.0
O417 O 0.34346 0.91246 0.71665 0.0
O418 O 0.31013 0.85947 0.64075 0.0
Zn419 Zn 0.35019 0.89549 0.61281 0.0
O420 O 0.38802 0.89029 0.62638 0.0
C421 C 0.32659 0.87026 0.51654 0.0
O422 O 0.31307 0.84417 0.54288 0.0
O423 O 0.35904 0.93666 0.64352 0.0
C424 C 0.39732 0.87653 0.59637 0.0
O425 O 0.38111 0.86398 0.55558 0.0
C426 C 0.30829 0.83758 0.66842 0.0
O427 O 0.3343 0.83884 0.68412 0.0
O428 O 0.34416 0.89631 0.53857 0.0
C429 C 0.07288 0.3888 0.13957 0.0
O430 O 0.09226 0.41331 0.11259 0.0
O431 O 0.10092 0.46936 0.18993 0.0
Zn432 Zn 0.1058 0.43341 0.21615 0.0
O433 O 0.14848 0.43922 0.19859 0.0
C434 C 0.10995 0.45814 0.31391 0.0
O435 O 0.12039 0.48428 0.28811 0.0
O436 O 0.07328 0.39194 0.18653 0.0
C437 C 0.17355 0.45741 0.22239 0.0
O438 O 0.17216 0.47412 0.25947 0.0
C439 C 0.11996 0.49026 0.15989 0.0
O440 O 0.14329 0.48759 0.14115 0.0
O441 O 0.1016 0.43242 0.29097 0.0
C442 C 0.60192 0.67414 0.14539 0.0
O443 O 0.57682 0.65285 0.12155 0.0
O444 O 0.51988 0.6366 0.19374 0.0
Zn445 Zn 0.55702 0.67866 0.21229 0.0
O446 O 0.54892 0.71237 0.18682 0.0
C447 C 0.57111 0.67066 0.31462 0.0
O448 O 0.58052 0.65203 0.29558 0.0
O449 O 0.59838 0.68657 0.18454 0.0
C450 C 0.56619 0.74078 0.20066 0.0
O451 O 0.59058 0.74803 0.22944 0.0
C452 C 0.49315 0.63483 0.19736 0.0
O453 O 0.49182 0.65935 0.21408 0.0
O454 O 0.56009 0.68343 0.28609 0.0
C455 C 0.3144 0.91077 0.1183 0.0
O456 O 0.32283 0.89372 0.0916 0.0
O457 O 0.36296 0.88103 0.17705 0.0
Zn458 Zn 0.32107 0.87567 0.19846 0.0
O459 O 0.28536 0.83211 0.18105 0.0
C460 C 0.31781 0.85952 0.30077 0.0
O461 O 0.31217 0.83269 0.28075 0.0
O462 O 0.31282 0.90753 0.16525 0.0
C463 C 0.25722 0.82437 0.1926 0.0
O464 O 0.25223 0.84503 0.21601 0.0
C465 C 0.36498 0.86312 0.14482 0.0
O466 O 0.33903 0.84083 0.12422 0.0
O467 O 0.32229 0.88208 0.27233 0.0
C468 C 0.33292 0.28456 0.86387 0.0
C469 C 0.36132 0.29722 0.89088 0.0
C470 C 0.30365 0.26745 0.88756 0.0
C471 C 0.30149 0.26225 0.93926 0.0
H472 H 0.33321 0.287 0.82379 0.0
H473 H 0.2826 0.25746 0.86474 0.0
S474 S 0.36866 0.29349 0.02795 0.0
N475 N 0.38532 0.30563 0.9729 0.0
N476 N 0.33034 0.27351 0.0174 0.0
C477 C 0.32964 0.27608 0.96712 0.0
C478 C 0.3595 0.29353 0.94295 0.0
C479 C 0.69294 0.04667 0.94768 0.0
C480 C 0.68834 0.04669 0.89604 0.0
C481 C 0.70781 0.03121 0.96827 0.0
C482 C 0.71867 0.0151 0.93804 0.0
H483 H 0.68636 0.05993 0.97235 0.0
H484 H 0.71207 0.0332 0.00801 0.0
S485 S 0.70671 0.00282 0.80162 0.0
N486 N 0.69177 0.02548 0.81587 0.0
N487 N 0.71969 0.99638 0.85452 0.0
C488 C 0.71197 0.01283 0.88678 0.0
C489 C 0.69686 0.02865 0.86579 0.0
C490 C 0.96177 0.68372 0.89076 0.0
C491 C 0.96629 0.68676 0.94261 0.0
C492 C 0.94719 0.6541 0.86771 0.0
C493 C 0.93648 0.6262 0.89551 0.0
H494 H 0.96848 0.70428 0.86774 0.0
H495 H 0.94325 0.65311 0.82793 0.0
S496 S 0.94696 0.62145 0.0315 0.0
N497 N 0.962 0.65949 0.02048 0.0
N498 N 0.93459 0.60379 0.97713 0.0
C499 C 0.94258 0.62898 0.94701 0.0
C500 C 0.95747 0.65923 0.97055 0.0
C501 C 0.30603 0.34383 0.62732 0.0
C502 C 0.32064 0.37168 0.59876 0.0
C503 C 0.29175 0.31405 0.60485 0.0
C504 C 0.29133 0.31086 0.55285 0.0
H505 H 0.30464 0.34491 0.66743 0.0
H506 H 0.27981 0.29344 0.62847 0.0
S507 S 0.33041 0.3761 0.46141 0.0
N508 N 0.33686 0.394 0.51578 0.0
N509 N 0.3099 0.33798 0.47357 0.0
C510 C 0.30753 0.33841 0.52393 0.0
C511 C 0.32223 0.36881 0.54686 0.0
C512 C 0.67133 0.96455 0.62567 0.0
C513 C 0.64396 0.95495 0.59688 0.0
C514 C 0.70123 0.97845 0.60372 0.0
C515 C 0.70504 0.98324 0.55203 0.0
H516 H 0.66966 0.96025 0.66539 0.0
H517 H 0.72131 0.98419 0.62736 0.0
S518 S 0.6418 0.96751 0.46096 0.0
N519 N 0.62318 0.95501 0.51458 0.0
N520 N 0.67943 0.98104 0.47335 0.0
C521 C 0.67821 0.97581 0.52318 0.0
C522 C 0.64768 0.96174 0.54559 0.0
C523 C 0.04281 0.73642 0.60414 0.0
C524 C 0.04188 0.73836 0.55197 0.0
C525 C 0.05698 0.721 0.62728 0.0
C526 C 0.07096 0.70692 0.59928 0.0
H527 H 0.03325 0.74763 0.62756 0.0
H528 H 0.05781 0.72104 0.66755 0.0
S529 S 0.07211 0.70245 0.4614 0.0
N530 N 0.05409 0.72265 0.47285 0.0
N531 N 0.08078 0.69379 0.51635 0.0
C532 C 0.06894 0.70739 0.54705 0.0
C533 C 0.05439 0.72304 0.52342 0.0
C534 C 0.65936 0.71405 0.14562 0.0
C535 C 0.6339 0.68743 0.1234 0.0
C536 C 0.68883 0.73021 0.12246 0.0
C537 C 0.69417 0.72054 0.07599 0.0
H538 H 0.65632 0.72338 0.18041 0.0
H539 H 0.70715 0.75123 0.14043 0.0
S540 S 0.63715 0.649 0.00618 0.0
N541 N 0.61723 0.64966 0.05527 0.0
N542 N 0.67267 0.68027 0.01141 0.0
C543 C 0.66961 0.69272 0.05484 0.0
C544 C 0.63951 0.6761 0.07864 0.0
C545 C 0.29851 0.92837 0.04177 0.0
C546 C 0.30304 0.93036 0.09363 0.0
C547 C 0.28399 0.94325 0.01807 0.0
C548 C 0.27334 0.96073 0.04523 0.0
H549 H 0.30512 0.91423 0.01932 0.0
H550 H 0.28 0.93991 0.97833 0.0
S551 S 0.284 0.97736 0.18084 0.0
N552 N 0.29895 0.95423 0.17071 0.0
N553 N 0.27163 0.98214 0.12615 0.0
C554 C 0.27955 0.96462 0.09666 0.0
C555 C 0.29438 0.94945 0.12085 0.0
C556 C 0.05699 0.3541 0.06438 0.0
C557 C 0.054 0.35732 0.11582 0.0
C558 C 0.04267 0.32441 0.04155 0.0
C559 C 0.02477 0.29656 0.06914 0.0
H560 H 0.07136 0.3746 0.04155 0.0
H561 H 0.04667 0.32335 0.00214 0.0
S562 S 0.0061 0.29212 0.20389 0.0
N563 N 0.02913 0.33016 0.19294 0.0
N564 N 0.00228 0.27433 0.15002 0.0
C565 C 0.02008 0.29947 0.12014 0.0
C566 C 0.03466 0.32982 0.14345 0.0
C567 C 0.71113 0.67307 0.38206 0.0
C568 C 0.69643 0.64582 0.41196 0.0
C569 C 0.72781 0.70323 0.40312 0.0
C570 C 0.7305 0.70748 0.45501 0.0
H571 H 0.71085 0.67118 0.34189 0.0
H572 H 0.73966 0.72324 0.37831 0.0
S573 S 0.69228 0.64423 0.54998 0.0
N574 N 0.68273 0.62531 0.49629 0.0
N575 N 0.714 0.682 0.53594 0.0
C576 C 0.71422 0.6806 0.48543 0.0
C577 C 0.69723 0.6498 0.46392 0.0
C578 C 0.31653 0.05471 0.37553 0.0
C579 C 0.31133 0.03936 0.42167 0.0
C580 C 0.34567 0.06745 0.35145 0.0
C581 C 0.3709 0.06529 0.37229 0.0
H582 H 0.29829 0.05791 0.35843 0.0
H583 H 0.34856 0.0798 0.31668 0.0
S584 S 0.36824 0.02384 0.48954 0.0
N585 N 0.33293 0.02017 0.48532 0.0
N586 N 0.38777 0.04401 0.4399 0.0
C587 C 0.36555 0.04855 0.41723 0.0
C588 C 0.33579 0.03565 0.44194 0.0
C589 C 0.94884 0.27968 0.36492 0.0
C590 C 0.94496 0.30306 0.38904 0.0
C591 C 0.96383 0.26524 0.38853 0.0
C592 C 0.97555 0.27353 0.43729 0.0
H593 H 0.93928 0.27157 0.32804 0.0
H594 H 0.96516 0.24662 0.3689 0.0
S595 S 0.97583 0.33675 0.51408 0.0
N596 N 0.95726 0.33629 0.46254 0.0
N597 N 0.9854 0.3091 0.50691 0.0
C598 C 0.97353 0.29817 0.4608 0.0
C599 C 0.95828 0.31294 0.43669 0.0
C600 C 0.98869 0.60989 0.19564 0.0
C601 C 0.01608 0.62929 0.2234 0.0
C602 C 0.95896 0.59395 0.21824 0.0
C603 C 0.95528 0.59673 0.26959 0.0
H604 H 0.99021 0.60602 0.1563 0.0
H605 H 0.93889 0.57851 0.19534 0.0
S606 S 0.01887 0.64798 0.35791 0.0
N607 N 0.03715 0.65284 0.30426 0.0
N608 N 0.98128 0.62292 0.34674 0.0
C609 C 0.9822 0.61748 0.29734 0.0
C610 C 0.01256 0.63373 0.27428 0.0
C611 C 0.37213 0.3805 0.2977 0.0
C612 C 0.37909 0.36025 0.27024 0.0
C613 C 0.35795 0.39606 0.27528 0.0
C614 C 0.35026 0.39219 0.22438 0.0
H615 H 0.37873 0.38539 0.33654 0.0
H616 H 0.35438 0.4124 0.29772 0.0
S617 S 0.3581 0.33738 0.13792 0.0
N618 N 0.37322 0.33387 0.19081 0.0
N619 N 0.34671 0.36338 0.14863 0.0
C620 C 0.35494 0.37028 0.19725 0.0
C621 C 0.36928 0.35423 0.22019 0.0
C622 C 0.60495 0.97241 0.27449 0.0
C623 C 0.60983 0.97138 0.22315 0.0
C624 C 0.62005 0.00088 0.30079 0.0
C625 C 0.64077 0.0295 0.27688 0.0
H626 H 0.58829 0.9513 0.29429 0.0
H627 H 0.61446 0.00049 0.33986 0.0
S628 S 0.66579 0.03859 0.14457 0.0
N629 N 0.63979 0.0007 0.15052 0.0
N630 N 0.66835 0.05429 0.19996 0.0
C631 C 0.6476 0.02844 0.22625 0.0
C632 C 0.63206 0.99938 0.19938 0.0
C633 C 0.38411 0.99733 0.68624 0.0
C634 C 0.3664 0.96952 0.714 0.0
C635 C 0.39835 0.02707 0.70896 0.0
C636 C 0.39552 0.0303 0.76044 0.0
H637 H 0.38794 0.9962 0.64678 0.0
H638 H 0.41254 0.04758 0.68605 0.0
S639 S 0.34808 0.96523 0.84888 0.0
N640 N 0.34421 0.94737 0.79507 0.0
N641 N 0.371 0.00325 0.83774 0.0
C642 C 0.37647 0.00283 0.78824 0.0
C643 C 0.36191 0.97248 0.76506 0.0
C644 C 0.00415 0.38522 0.69813 0.0
C645 C 0.02897 0.38326 0.72104 0.0
C646 C 0.97438 0.37208 0.7202 0.0
C647 C 0.96813 0.35652 0.76629 0.0
H648 H 0.00788 0.39784 0.6634 0.0
H649 H 0.95654 0.37532 0.70175 0.0
S650 S 0.02346 0.34074 0.83843 0.0
N651 N 0.04425 0.36149 0.79003 0.0
N652 N 0.98818 0.33685 0.83166 0.0
C653 C 0.9921 0.35269 0.78831 0.0
C654 C 0.02252 0.36601 0.76565 0.0
C655 C 0.64462 0.62272 0.73946 0.0
C656 C 0.64275 0.6188 0.79142 0.0
C657 C 0.62976 0.63703 0.71516 0.0
C658 C 0.61251 0.64816 0.7418 0.0
H659 H 0.65649 0.61347 0.71695 0.0
H660 H 0.63094 0.63833 0.67492 0.0
S661 S 0.60495 0.6484 0.87925 0.0
N662 N 0.62557 0.63065 0.86936 0.0
N663 N 0.59769 0.65767 0.82369 0.0
C664 C 0.61236 0.64643 0.79409 0.0
C665 C 0.62744 0.63172 0.81888 0.0
C666 C 0.21825 0.07181 0.98438 0.0
C667 C 0.19844 0.04403 0.011 0.0
C668 C 0.21904 0.10022 0.99485 0.0
C669 C 0.20021 0.10219 0.03262 0.0
H670 H 0.23327 0.07169 0.95491 0.0
H671 H 0.23487 0.12088 0.97335 0.0
S672 S 0.14388 0.03624 0.11309 0.0
N673 N 0.15922 0.02026 0.07666 0.0
N674 N 0.16077 0.07365 0.09644 0.0
C675 C 0.18016 0.07458 0.05948 0.0
C676 C 0.17926 0.04555 0.04866 0.0
C677 C 0.93284 0.10128 0.9772 0.0
C678 C 0.93394 0.13056 0.97843 0.0
C679 C 0.90497 0.07308 0.98756 0.0
C680 C 0.87685 0.07285 -0.00086 0.0
H681 H 0.95382 0.10004 0.96877 0.0
H682 H 0.90558 0.05127 0.98648 0.0
S683 S 0.86672 0.14312 0.00582 0.0
N684 N 0.90421 0.15758 0.99128 0.0
N685 N 0.85172 0.10459 0.01041 0.0
C686 C 0.87744 0.10194 -0.00018 0.0
C687 C 0.90597 0.13076 0.98963 0.0
C688 C 0.86355 0.76951 0.99433 0.0
C689 C 0.84863 0.77577 0.0339 0.0
C690 C 0.8894 0.76517 0.0027 0.0
C691 C 0.90073 0.76615 0.05107 0.0
H692 H 0.85531 0.76807 0.95649 0.0
H693 H 0.9001 0.76029 0.97121 0.0
S694 S 0.87067 0.78258 0.16732 0.0
N695 N 0.84781 0.78368 0.12312 0.0
N696 N 0.89585 0.77473 0.13892 0.0
C697 C 0.88622 0.7726 0.09093 0.0
C698 C 0.86032 0.77765 0.08232 0.0
C699 C 0.1376 0.25986 0.48463 0.0
C700 C 0.1471 0.23708 0.48637 0.0
C701 C 0.10719 0.25259 0.499 0.0
C702 C 0.08491 0.22223 0.51585 0.0
H703 H 0.15374 0.2836 0.47202 0.0
H704 H 0.10118 0.27107 0.49686 0.0
S705 S 0.09784 0.1539 0.52776 0.0
N706 N 0.13164 0.18273 0.50651 0.0
N707 N 0.07459 0.16911 0.53349 0.0
C708 C 0.09406 0.19916 0.51785 0.0
C709 C 0.12507 0.20657 0.50312 0.0
C710 C 0.78834 0.8769 0.50734 0.0
C711 C 0.80566 0.86715 0.47778 0.0
C712 C 0.78664 0.90391 0.49546 0.0
C713 C 0.80202 0.92226 0.4533 0.0
H714 H 0.77602 0.86366 0.5402 0.0
H715 H 0.77292 0.91027 0.51942 0.0
S716 S 0.85063 0.90709 0.36349 0.0
N717 N 0.83864 0.87819 0.40435 0.0
N718 N 0.83541 0.92878 0.38199 0.0
C719 C 0.81947 0.91281 0.42338 0.0
C720 C 0.8213 0.88535 0.4356 0.0
C721 C 0.11653 0.8922 0.47956 0.0
C722 C 0.09235 0.89132 0.45006 0.0
C723 C 0.14457 0.92052 0.48843 0.0
C724 C 0.14961 0.94927 0.46853 0.0
H725 H 0.11391 0.87081 0.49598 0.0
H726 H 0.16226 0.91981 0.51173 0.0
S727 S 0.09399 0.95996 0.38812 0.0
N728 N 0.0755 0.92181 0.40034 0.0
N729 N 0.12817 0.97505 0.41725 0.0
C730 C 0.12573 0.94879 0.43873 0.0
C731 C 0.09716 0.91984 0.42944 0.0
C732 C 0.80081 0.91904 0.93295 0.0
C733 C 0.78749 0.92461 0.97541 0.0
C734 C 0.80024 0.89037 0.92615 0.0
C735 C 0.78628 0.86591 0.96144 0.0
H736 H 0.81186 0.93696 0.9045 0.0
H737 H 0.81074 0.88741 0.89261 0.0
S738 S 0.74827 0.86843 0.07964 0.0
N739 N 0.76004 0.90313 0.05375 0.0
N740 N 0.75896 0.84932 0.0409 0.0
C741 C 0.77296 0.87115 0.00429 0.0
C742 C 0.77356 0.90042 0.01126 0.0
C743 C 0.08911 0.89894 0.93354 0.0
C744 C 0.11797 0.9024 0.94991 0.0
C745 C 0.0603 0.87238 0.94625 0.0
C746 C 0.05909 0.84802 0.97566 0.0
H747 H 0.08862 0.91707 0.9111 0.0
H748 H 0.03881 0.87111 0.93306 0.0
S749 S 0.12802 0.84503 0.02703 0.0
N750 N 0.14357 0.87873 0.99642 0.0
N751 N 0.08951 0.82883 0.02015 0.0
C752 C 0.08781 0.85089 0.99169 0.0
C753 C 0.11719 0.87805 0.97892 0.0
C754 C 0.14704 0.22409 0.98071 0.0
C755 C 0.14153 0.20343 0.02075 0.0
C756 C 0.12422 0.23161 0.96558 0.0
C757 C 0.09483 0.21872 0.98965 0.0
H758 H 0.16928 0.2348 0.96095 0.0
H759 H 0.12978 0.2477 0.93458 0.0
S760 S 0.06824 0.16289 0.09617 0.0
N761 N 0.10419 0.16986 0.08398 0.0
N762 N 0.06133 0.18394 0.05548 0.0
C763 C 0.08887 0.19785 0.02962 0.0
C764 C 0.11219 0.19024 0.04515 0.0
C765 C 0.94701 0.8277 0.55324 0.0
C766 C 0.94848 0.80724 0.51796 0.0
C767 C 0.9185 0.82662 0.56419 0.0
C768 C 0.89025 0.80519 0.54006 0.0
H769 H 0.96806 0.84477 0.57272 0.0
H770 H 0.91874 0.84289 0.59173 0.0
S771 S 0.88123 0.74655 0.44414 0.0
N772 N 0.91902 0.76483 0.45867 0.0
N773 N 0.86558 0.76291 0.47904 0.0
C774 C 0.89134 0.78457 0.50459 0.0
C775 C 0.92037 0.78554 0.49365 0.0
C776 C 0.2396 0.14268 0.48609 0.0
C777 C 0.22839 0.15551 0.5222 0.0
C778 C 0.24244 0.11614 0.49644 0.0
C779 C 0.23478 0.10181 0.5436 0.0
H780 H 0.24585 0.15293 0.44923 0.0
H781 H 0.25108 0.10704 0.46744 0.0
S782 S 0.20422 0.12602 0.65111 0.0
N783 N 0.20928 0.15156 0.60695 0.0
N784 N 0.21517 0.10207 0.62659 0.0
C785 C 0.2237 0.11444 0.58014 0.0
C786 C 0.22033 0.14116 0.56938 0.0
C787 C 0.88425 0.12968 0.52723 0.0
C788 C 0.91644 0.139 0.52435 0.0
C789 C 0.86075 0.09884 0.51562 0.0
C790 C 0.86838 0.07586 0.50096 0.0
H791 H 0.87699 0.14641 0.53808 0.0
H792 H 0.83635 0.09306 0.51806 0.0
S793 S 0.94922 0.08782 0.48865 0.0
N794 N 0.95477 0.1225 0.50648 0.0
N795 N 0.91065 0.06453 0.48488 0.0
C796 C 0.9005 0.0847 0.49854 0.0
C797 C 0.92449 0.11624 0.5101 0.0
C798 C 0.90526 0.44665 0.35853 0.0
C799 C 0.88641 0.45863 0.34017 0.0
C800 C 0.9006 0.41728 0.34309 0.0
C801 C 0.877 0.39867 0.30839 0.0
H802 H 0.92375 0.45995 0.38534 0.0
H803 H 0.91576 0.4092 0.35848 0.0
S804 S 0.82119 0.41921 0.24865 0.0
N805 N 0.84314 0.44951 0.28516 0.0
N806 N 0.83445 0.39442 0.25605 0.0
C807 C 0.85802 0.41039 0.28951 0.0
C808 C 0.86268 0.44029 0.30541 0.0
C809 C 0.59217 0.46569 0.4038 0.0
C810 C 0.5968 0.48582 0.36337 0.0
C811 C 0.56349 0.43761 0.41067 0.0
C812 C 0.53821 0.42827 0.37723 0.0
H813 H 0.61084 0.47161 0.43058 0.0
H814 H 0.56126 0.42308 0.44252 0.0
S815 S 0.53809 0.47241 0.26487 0.0
N816 N 0.57351 0.49434 0.28915 0.0
N817 N 0.51974 0.44156 0.30193 0.0
C818 C 0.54248 0.44813 0.3365 0.0
C819 C 0.57168 0.47687 0.32965 0.0
C820 C 0.53384 0.11235 0.32929 0.0
C821 C 0.5289 0.13573 0.35088 0.0
C822 C 0.56028 0.10979 0.34138 0.0
C823 C 0.583 0.1305 0.37558 0.0
H824 H 0.51724 0.0959 0.30248 0.0
H825 H 0.56292 0.09141 0.32347 0.0
S826 S 0.58105 0.19567 0.44338 0.0
N827 N 0.54892 0.17987 0.40876 0.0
N828 N 0.59856 0.17506 0.43146 0.0
C829 C 0.57828 0.15388 0.39781 0.0
C830 C 0.55128 0.15648 0.38551 0.0
C831 C 0.78767 0.58163 0.81769 0.0
C832 C 0.79808 0.56039 0.82998 0.0
C833 C 0.75832 0.57667 0.83371 0.0
C834 C 0.7381 0.55028 0.86281 0.0
H835 H 0.80217 0.60223 0.79512 0.0
H836 H 0.75143 0.59367 0.82285 0.0
S837 S 0.75453 0.48792 0.90658 0.0
N838 N 0.78601 0.51217 0.87403 0.0
N839 N 0.73093 0.50287 0.90415 0.0
C840 C 0.74833 0.52899 0.87589 0.0
C841 C 0.77826 0.53402 0.85949 0.0
C842 C 0.47079 0.22495 0.82315 0.0
C843 C 0.4484 0.19269 0.81819 0.0
C844 C 0.46293 0.2483 0.81348 0.0
C845 C 0.43237 0.24042 0.79813 0.0
H846 H 0.49459 0.23237 0.8353 0.0
H847 H 0.48105 0.27274 0.81819 0.0
S848 S 0.36516 0.15935 0.77782 0.0
N849 N 0.39442 0.15407 0.79575 0.0
N850 N 0.37965 0.19789 0.77747 0.0
C851 C 0.40981 0.20825 0.7923 0.0
C852 C 0.4178 0.18443 0.80235 0.0
C853 C 0.7637 0.22937 0.76187 0.0
C854 C 0.75302 0.20405 0.79561 0.0
C855 C 0.79132 0.25811 0.77075 0.0
C856 C 0.80964 0.26278 0.81358 0.0
H857 H 0.75067 0.22706 0.72807 0.0
H858 H 0.79844 0.27673 0.74342 0.0
S859 S 0.79186 0.2043 0.91446 0.0
N860 N 0.76281 0.18578 0.87423 0.0
N861 N 0.81478 0.23972 0.89082 0.0
C862 C 0.79919 0.23775 0.84792 0.0
C863 C 0.77089 0.20847 0.83899 0.0
C864 C 0.42323 0.22201 0.28248 0.0
C865 C 0.44705 0.21403 0.28614 0.0
C866 C 0.42902 0.25225 0.29486 0.0
C867 C 0.45896 0.27592 0.31107 0.0
H868 H 0.39963 0.20459 0.27092 0.0
H869 H 0.40967 0.25694 0.2922 0.0
S870 S 0.53005 0.26776 0.32448 0.0
N871 N 0.50222 0.23275 0.30531 0.0
N872 N 0.51314 0.28959 0.32835 0.0
C873 C 0.4833 0.26857 0.31355 0.0
C874 C 0.47733 0.23766 0.30122 0.0
C875 C 0.75737 0.23178 0.27052 0.0
C876 C 0.78389 0.24096 0.30117 0.0
C877 C 0.72852 0.20458 0.28064 0.0
C878 C 0.725 0.18526 0.32166 0.0
H879 H 0.75883 0.2456 0.23812 0.0
H880 H 0.70893 0.19855 0.25572 0.0
S881 S 0.78686 0.19913 0.41456 0.0
N882 N 0.80451 0.22878 0.37512 0.0
N883 N 0.75038 0.17762 0.39403 0.0
C884 C 0.75123 0.19425 0.35297 0.0
C885 C 0.7806 0.2221 0.34281 0.0
C886 C 0.79062 0.55577 0.34249 0.0
C887 C 0.78894 0.52644 0.33599 0.0
C888 C 0.76464 0.55959 0.33241 0.0
C889 C 0.736 0.53435 0.31482 0.0
H890 H 0.81208 0.57594 0.35601 0.0
H891 H 0.76718 0.58265 0.33819 0.0
S892 S 0.7194 0.45273 0.29072 0.0
N893 N 0.75625 0.47169 0.31044 0.0
N894 N 0.70758 0.47894 0.29117 0.0
C895 C 0.73404 0.50493 0.30779 0.0
C896 C 0.76044 0.50096 0.31848 0.0
C897 C 0.57323 0.09166 0.85481 0.0
C898 C 0.59723 0.12166 0.83955 0.0
C899 C 0.54222 0.08521 0.86176 0.0
C900 C 0.53378 0.10839 0.85326 0.0
H901 H 0.57833 0.07281 0.86125 0.0
H902 H 0.52465 0.06166 0.8733 0.0
S903 S 0.58781 0.19111 0.81414 0.0
N904 N 0.61049 0.17512 0.81718 0.0
N905 N 0.55218 0.1629 0.82995 0.0
C906 C 0.55757 0.13863 0.83849 0.0
C907 C 0.58928 0.1453 0.8318 0.0
C908 C 0.83806 0.43429 0.8465 0.0
C909 C 0.86426 0.46182 0.82797 0.0
C910 C 0.84023 0.4077 0.8593 0.0
C911 C 0.8686 0.40735 0.85357 0.0
H912 H 0.81563 0.43326 0.85165 0.0
H913 H 0.81936 0.38718 0.87352 0.0
S914 S 0.94418 0.47332 0.80598 0.0
N915 N 0.91956 0.48708 0.80429 0.0
N916 N 0.92362 0.43705 0.82789 0.0
C917 C 0.89501 0.43468 0.83477 0.0
C918 C 0.89286 0.46191 0.82216 0.0
C919 C 0.53754 0.46037 0.85675 0.0
C920 C 0.56974 0.47103 0.8489 0.0
C921 C 0.51414 0.43044 0.84079 0.0
C922 C 0.5219 0.40979 0.81636 0.0
H923 H 0.53018 0.47522 0.87546 0.0
H924 H 0.48974 0.42347 0.84789 0.0
S925 S 0.60282 0.42628 0.78631 0.0
N926 N 0.6082 0.45848 0.81474 0.0
N927 N 0.5643 0.4023 0.7848 0.0
C928 C 0.55404 0.42014 0.80813 0.0
C929 C 0.5779 0.4507 0.82433 0.0
C930 C 0.51235 0.73765 0.68321 0.0
C931 C 0.53942 0.73625 0.66999 0.0
C932 C 0.5136 0.76657 0.69072 0.0
C933 C 0.54195 0.7954 0.68512 0.0
H934 H 0.48985 0.71622 0.6877 0.0
H935 H 0.492 0.76621 0.70074 0.0
S936 S 0.61979 0.80491 0.65119 0.0
N937 N 0.59564 0.7664 0.65192 0.0
N938 N 0.59797 0.8207 0.66591 0.0
C939 C 0.5693 0.7944 0.67213 0.0
C940 C 0.56806 0.76488 0.66466 0.0
C941 C 0.24474 0.76355 0.73186 0.0
C942 C 0.21752 0.75591 0.7039 0.0
C943 C 0.27396 0.78995 0.72013 0.0
C944 C 0.27705 0.81003 0.68045 0.0
H945 H 0.24356 0.74895 0.76299 0.0
H946 H 0.29423 0.79476 0.74266 0.0
S947 S 0.21299 0.80052 0.59546 0.0
N948 N 0.19561 0.77058 0.63443 0.0
N949 N 0.2503 0.82025 0.61277 0.0
C950 C 0.24999 0.80271 0.65222 0.0
C951 C 0.22032 0.77564 0.66379 0.0
C952 C 0.25059 0.46485 0.66528 0.0
C953 C 0.24374 0.43617 0.68788 0.0
C954 C 0.22666 0.4714 0.653 0.0
C955 C 0.19476 0.44956 0.66271 0.0
H956 H 0.27471 0.48253 0.65675 0.0
H957 H 0.23336 0.49381 0.6355 0.0
S958 S 0.16398 0.37096 0.7219 0.0
N959 N 0.20253 0.38572 0.71992 0.0
N960 N 0.15757 0.39802 0.69683 0.0
C961 C 0.18749 0.4208 0.68556 0.0
C962 C 0.21193 0.41411 0.69812 0.0
C963 C 0.42311 0.88771 0.15957 0.0
C964 C 0.39623 0.86707 0.13168 0.0
C965 C 0.45287 0.89173 0.14846 0.0
C966 C 0.45709 0.87551 0.10871 0.0
H967 H 0.42123 0.90084 0.19053 0.0
H968 H 0.47277 0.90795 0.17104 0.0
S969 S 0.39435 0.81838 0.02428 0.0
N970 N 0.37582 0.82996 0.06263 0.0
N971 N 0.43167 0.8376 0.04166 0.0
C972 C 0.43042 0.85475 0.08049 0.0
C973 C 0.40006 0.8505 0.092 0.0
C974 C 0.13141 0.56459 0.09622 0.0
C975 C 0.11318 0.57342 0.12533 0.0
C976 C 0.1334 0.53769 0.10762 0.0
C977 C 0.11693 0.51826 0.14822 0.0
H978 H 0.14442 0.57863 0.06437 0.0
H979 H 0.14785 0.53201 0.08414 0.0
S980 S 0.06584 0.53087 0.23642 0.0
N981 N 0.07839 0.56052 0.19688 0.0
N982 N 0.08189 0.50992 0.218 0.0
C983 C 0.09853 0.52675 0.17764 0.0
C984 C 0.09676 0.55433 0.16633 0.0
C985 C 0.46255 0.57648 0.18395 0.0
C986 C 0.46393 0.60585 0.1826 0.0
C987 C 0.43495 0.5487 0.17065 0.0
C988 C 0.40792 0.54935 0.15453 0.0
H989 H 0.48283 0.57487 0.19586 0.0
H990 H 0.43501 0.52662 0.17223 0.0
S991 S 0.39953 0.62036 0.1437 0.0
N992 N 0.43591 0.63397 0.16388 0.0
N993 N 0.38428 0.58185 0.13807 0.0
C994 C 0.40905 0.57859 0.15276 0.0
C995 C 0.43698 0.60681 0.16704 0.0
C996 C 0.09703 0.57795 0.65855 0.0
C997 C 0.12367 0.59781 0.68747 0.0
C998 C 0.09049 0.54766 0.64465 0.0
C999 C 0.11035 0.53591 0.65883 0.0
H1000 H 0.08084 0.58568 0.64675 0.0
H1001 H 0.06957 0.53338 0.62258 0.0
S1002 S 0.18365 0.57867 0.73376 0.0
N1003 N 0.1704 0.60364 0.72926 0.0
N1004 N 0.15815 0.54683 0.70303 0.0
C1005 C 0.13726 0.5556 0.68741 0.0
C1006 C 0.14388 0.58647 0.70175 0.0
C1007 C 0.43223 0.53853 0.67115 0.0
C1008 C 0.40604 0.52838 0.63942 0.0
C1009 C 0.4606 0.56648 0.66182 0.0
C1010 C 0.4641 0.58539 0.62015 0.0
H1011 H 0.43081 0.52496 0.70386 0.0
H1012 H 0.47999 0.57317 0.6875 0.0
S1013 S 0.40279 0.56919 0.52496 0.0
N1014 N 0.38554 0.53941 0.56425 0.0
N1015 N 0.43882 0.59182 0.54663 0.0
C1016 C 0.43815 0.57545 0.58791 0.0
C1017 C 0.40917 0.54703 0.59756 0.0
C1018 C 0.44608 0.89303 0.647 0.0
C1019 C 0.42703 0.87621 0.6062 0.0
C1020 C 0.47467 0.894 0.65649 0.0
C1021 C 0.48548 0.87809 0.62571 0.0
H1022 H 0.43901 0.90582 0.67184 0.0
H1023 H 0.48832 0.90729 0.68845 0.0
S1024 S 0.44434 0.83021 0.51421 0.0
N1025 N 0.42098 0.84296 0.53486 0.0
N1026 N 0.47465 0.84476 0.55272 0.0
C1027 C 0.46663 0.86104 0.58485 0.0
C1028 C 0.43747 0.8601 0.57511 0.0
C1029 C 0.23101 0.47839 0.23799 0.0
C1030 C 0.20386 0.45906 0.20971 0.0
C1031 C 0.25985 0.48005 0.22788 0.0
C1032 C 0.26286 0.46246 0.18903 0.0
H1033 H 0.23008 0.49236 0.26847 0.0
H1034 H 0.27994 0.49531 0.25092 0.0
S1035 S 0.19901 0.40837 0.10325 0.0
N1036 N 0.18192 0.42205 0.14067 0.0
N1037 N 0.23607 0.42515 0.1217 0.0
C1038 C 0.23593 0.44308 0.1602 0.0
C1039 C 0.2065 0.4414 0.17053 0.0
C1040 C 0.57413 0.82099 0.1788 0.0
C1041 C 0.54443 0.81352 0.15969 0.0
C1042 C 0.58089 0.79733 0.19197 0.0
C1043 C 0.55836 0.76523 0.18602 0.0
H1044 H 0.59238 0.84536 0.18387 0.0
H1045 H 0.6041 0.80434 0.20659 0.0
S1046 S 0.47686 0.73295 0.13766 0.0
N1047 N 0.49215 0.77158 0.13569 0.0
N1048 N 0.50491 0.72713 0.16008 0.0
C1049 C 0.52852 0.75737 0.16692 0.0
C1050 C 0.52153 0.78149 0.15393 0.0
C1051 C 0.21156 0.74199 0.1369 0.0
C1052 C 0.1801 0.73168 0.15043 0.0
C1053 C 0.2362 0.77179 0.15094 0.0
C1054 C 0.23053 0.7927 0.17909 0.0
H1055 H 0.21733 0.72698 0.11504 0.0
H1056 H 0.25992 0.7785 0.13925 0.0
S1057 S 0.15244 0.77708 0.22503 0.0
N1058 N 0.14469 0.74478 0.19436 0.0
N1059 N 0.19092 0.80071 0.22067 0.0
C1060 C 0.1992 0.78267 0.19323 0.0
C1061 C 0.17406 0.75223 0.17895 0.0
C1062 C 0.21814 0.19757 0.21312 0.0
C1063 C 0.23756 0.22675 0.18971 0.0
C1064 C 0.21443 0.19527 0.26478 0.0
C1065 C 0.23001 0.22202 0.29544 0.0
H1066 H 0.20536 0.17616 0.1914 0.0
H1067 H 0.19907 0.17221 0.28067 0.0
S1068 S 0.28448 0.30403 0.25303 0.0
N1069 N 0.27319 0.28304 0.20131 0.0
N1070 N 0.26625 0.27877 0.29861 0.0
C1071 C 0.24976 0.25142 0.27267 0.0
C1072 C 0.25352 0.25377 0.21982 0.0
C1073 C 0.82635 0.01873 0.21975 0.0
C1074 C 0.79854 0.00962 0.19261 0.0
C1075 C 0.82706 0.02166 0.27153 0.0
C1076 C 0.79986 0.01516 0.29844 0.0
H1077 H 0.84792 0.02373 0.20091 0.0
H1078 H 0.84902 0.02843 0.29065 0.0
S1079 S 0.72113 0.99145 0.24531 0.0
N1080 N 0.74317 0.99499 0.19654 0.0
N1081 N 0.74445 1.00005 0.29422 0.0
C1082 C 0.77188 0.0063 0.27192 0.0
C1083 C 0.77124 0.00368 0.21894 0.0
C1084 C 0.00771 0.7748 0.27286 0.0
C1085 C 0.99619 0.79197 0.29872 0.0
C1086 C 0.0068 0.77313 0.22077 0.0
C1087 C 0.99487 0.78904 0.19262 0.0
H1088 H 0.01741 0.76241 0.29294 0.0
H1089 H 0.01592 0.75964 0.20242 0.0
S1090 S 0.96096 0.83647 0.242 0.0
N1091 N 0.97171 0.82458 0.29193 0.0
N1092 N 0.97041 0.82171 0.19419 0.0
C1093 C 0.98314 0.80615 0.21789 0.0
C1094 C 0.98366 0.80752 0.2709 0.0
C1095 C 0.80264 0.77994 0.77888 0.0
C1096 C 0.77618 0.76418 0.80999 0.0
C1097 C 0.79946 0.77931 0.72718 0.0
C1098 C 0.76969 0.76267 0.7042 0.0
H1099 H 0.82611 0.79343 0.79449 0.0
H1100 H 0.82069 0.79215 0.70512 0.0
S1101 S 0.69291 0.71593 0.76893 0.0
N1102 N 0.71916 0.73044 0.81423 0.0
N1103 N 0.71314 0.72903 0.71674 0.0
C1104 C 0.74297 0.74619 0.7348 0.0
C1105 C 0.74622 0.74703 0.78772 0.0
C1106 C 0.19347 0.00111 0.70867 0.0
C1107 C 0.21667 0.99852 0.6817 0.0
C1108 C 0.1928 1.00008 0.76063 0.0
C1109 C 0.21495 0.99586 0.78771 0.0
H1110 H 0.17587 0.00446 0.6896 0.0
H1111 H 0.17449 0.00227 0.77966 0.0
S1112 S 0.28051 0.98762 0.73507 0.0
N1113 N 0.26252 0.99164 0.68597 0.0
N1114 N 0.26084 0.98908 0.78395 0.0
C1115 C 0.23816 0.99293 0.76136 0.0
C1116 C 0.23916 0.99447 0.70828 0.0
C1117 C 0.03771 0.24482 0.73866 0.0
C1118 C 0.01454 0.24175 0.70459 0.0
C1119 C 0.0322 0.24273 0.79 0.0
C1120 C 0.00337 0.23772 0.80956 0.0
H1121 H 0.0601 0.24815 0.72567 0.0
H1122 H 0.05068 0.24473 0.81449 0.0
S1123 S 0.93574 0.23052 0.73635 0.0
N1124 N 0.96217 0.2351 0.69413 0.0
N1125 N 0.9519 0.23137 0.79065 0.0
C1126 C 0.98034 0.23566 0.77599 0.0
C1127 C 0.98589 0.23759 0.72357 0.0
C1128 C 0.89534 0.53921 0.54814 0.0
C1129 C 0.88475 0.55884 0.52802 0.0
C1130 C 0.89782 0.53658 0.59961 0.0
C1131 C 0.88965 0.5533 0.6333 0.0
H1132 H 0.9017 0.52556 0.52398 0.0
H1133 H 0.90585 0.52092 0.61299 0.0
S1134 S 0.86151 0.60876 0.60006 0.0
N1135 N 0.86672 0.59597 0.54606 0.0
N1136 N 0.87127 0.59095 0.64276 0.0
C1137 C 0.87938 0.57336 0.61378 0.0
C1138 C 0.87698 0.57616 0.56123 0.0
C1139 C 0.45808 0.31152 0.54401 0.0
C1140 C 0.44057 0.32275 0.51861 0.0
C1141 C 0.45882 0.311 0.59595 0.0
C1142 C 0.44188 0.32145 0.62488 0.0
H1143 H 0.47199 0.30364 0.52372 0.0
H1144 H 0.47308 0.30249 0.61342 0.0
S1145 S 0.39029 0.35093 0.57647 0.0
N1146 N 0.40453 0.34318 0.52613 0.0
N1147 N 0.40569 0.34199 0.62407 0.0
C1148 C 0.42348 0.33195 0.60002 0.0
C1149 C 0.42291 0.33268 0.54686 0.0
C1150 C 0.66046 0.13717 0.6173 0.0
C1151 C 0.65843 0.11155 0.64398 0.0
C1152 C 0.66376 0.13885 0.5656 0.0
C1153 C 0.66436 0.11458 0.53862 0.0
H1154 H 0.66011 0.15644 0.63659 0.0
H1155 H 0.66538 0.15912 0.54656 0.0
S1156 S 0.65934 0.04209 0.59077 0.0
N1157 N 0.65738 0.06139 0.63984 0.0
N1158 N 0.66245 0.06401 0.542 0.0
C1159 C 0.66192 0.08856 0.56464 0.0
C1160 C 0.65931 0.08721 0.61757 0.0
C1161 C 0.49059 0.15506 0.09205 0.0
C1162 C 0.46516 0.13304 0.12102 0.0
C1163 C 0.49018 0.15276 0.04019 0.0
C1164 C 0.46435 0.1283 0.0149 0.0
H1165 H 0.51106 0.17448 0.10943 0.0
H1166 H 0.5104 0.17049 0.01986 0.0
S1167 S 0.39186 0.06399 0.0733 0.0
N1168 N 0.41341 0.08554 0.12056 0.0
N1169 N 0.41268 0.0812 0.02291 0.0
C1170 C 0.43876 0.10589 0.04332 0.0
C1171 C 0.43916 0.10826 0.09636 0.0
C1172 C 0.91863 0.35161 0.10337 0.0
C1173 C 0.89643 0.32862 0.13568 0.0
C1174 C 0.91397 0.34931 0.05174 0.0
C1175 C 0.88677 0.32409 0.03041 0.0
H1176 H 0.93971 0.37175 0.11798 0.0
H1177 H 0.93158 0.3678 0.02848 0.0
S1178 S 0.82213 0.25667 0.09815 0.0
N1179 N 0.84671 0.27895 0.14211 0.0
N1180 N 0.83797 0.2749 0.04534 0.0
C1181 C 0.86464 0.30062 0.06212 0.0
C1182 C 0.86947 0.3028 0.11464 0.0
C1183 C 0.64283 0.53985 0.11441 0.0
C1184 C 0.65826 0.56536 0.1475 0.0
C1185 C 0.64462 0.5445 0.06293 0.0
C1186 C 0.66185 0.5749 0.04214 0.0
H1187 H 0.62957 0.51589 0.12822 0.0
H1188 H 0.63256 0.52389 0.03929 0.0
S1189 S 0.70514 0.65002 0.1126 0.0
N1190 N 0.69029 0.62244 0.15589 0.0
N1191 N 0.69377 0.63117 0.05897 0.0
C1192 C 0.67685 0.60079 0.07477 0.0
C1193 C 0.67504 0.59603 0.12742 0.0
C1194 C 0.53173 0.86063 0.9318 0.0
C1195 C 0.55598 0.88557 0.95873 0.0
C1196 C 0.52994 0.86207 0.88007 0.0
C1197 C 0.55274 0.88818 0.85322 0.0
H1198 H 0.5136 0.84002 0.9509 0.0
H1199 H 0.51076 0.84228 0.86095 0.0
S1200 S 0.6214 0.95945 0.90623 0.0
N1201 N 0.60329 0.93723 0.95508 0.0
N1202 N 0.60054 0.93953 0.85724 0.0
C1203 C 0.57739 0.91319 0.87958 0.0
C1204 C 0.57881 0.91201 0.93254 0.0
C1205 C 0.11272 0.69453 0.93552 0.0
C1206 C 0.09353 0.66836 0.96563 0.0
C1207 C 0.11228 0.6919 0.88362 0.0
C1208 C 0.09242 0.66304 0.85954 0.0
H1209 H 0.12882 0.71716 0.95211 0.0
H1210 H 0.12794 0.71271 0.8623 0.0
S1211 S 0.03582 0.5878 0.92132 0.0
N1212 N 0.0529 0.6129 0.96754 0.0
N1213 N 0.05193 0.608 0.86999 0.0
C1214 C 0.07239 0.63685 0.88914 0.0
C1215 C 0.073 0.63949 0.94213 0.0
C1216 C 0.32267 0.41623 0.93295 0.0
C1217 C 0.33729 0.44106 0.96747 0.0
C1218 C 0.32559 0.42202 0.88163 0.0
C1219 C 0.34317 0.45289 0.86265 0.0
H1220 H 0.30851 0.39208 0.94554 0.0
H1221 H 0.3135 0.40208 0.85671 0.0
S1222 S 0.38774 0.52617 0.93705 0.0
N1223 N 0.37126 0.49776 0.97878 0.0
N1224 N 0.3766 0.50853 0.88249 0.0
C1225 C 0.35847 0.47791 0.89667 0.0
C1226 C 0.35559 0.47203 0.94897 0.0
C1227 C 0.13183 0.49093 0.44463 0.0
C1228 C 0.11562 0.46411 0.47502 0.0
C1229 C 0.12935 0.48869 0.39278 0.0
C1230 C 0.11076 0.45949 0.36897 0.0
H1231 H 0.14674 0.51399 0.46087 0.0
H1232 H 0.14262 0.51007 0.37123 0.0
S1233 S 0.06215 0.38216 0.43118 0.0
N1234 N 0.07922 0.40737 0.47731 0.0
N1235 N 0.07484 0.40322 0.37966 0.0
C1236 C 0.09404 0.43245 0.39873 0.0
C1237 C 0.09638 0.43475 0.45175 0.0
C1238 C 0.57589 0.65574 0.40186 0.0
C1239 C 0.57221 0.676 0.36899 0.0
C1240 C 0.57498 0.65913 0.4535 0.0
C1241 C 0.57052 0.68303 0.47432 0.0
H1242 H 0.57874 0.63659 0.38771 0.0
H1243 H 0.57722 0.64246 0.47717 0.0
S1244 S 0.56282 0.74425 0.40422 0.0
N1245 N 0.56613 0.72221 0.36088 0.0
N1246 N 0.56451 0.72865 0.45773 0.0
C1247 C 0.568 0.70421 0.44181 0.0
C1248 C 0.5688 0.70066 0.38924 0.0
C1249 C 0.30997 0.83663 0.38598 0.0
C1250 C 0.31936 0.86326 0.35563 0.0
C1251 C 0.3119 0.8392 0.43783 0.0
C1252 C 0.32357 0.86856 0.46164 0.0
H1253 H 0.30112 0.81348 0.36967 0.0
H1254 H 0.30465 0.81793 0.45929 0.0
S1255 S 0.35012 0.94556 0.39957 0.0
N1256 N 0.33988 0.92002 0.35339 0.0
N1257 N 0.3437 0.92481 0.45103 0.0
C1258 C 0.33265 0.89541 0.43192 0.0
C1259 C 0.33046 0.89277 0.37892 0.0
loop_
_geom_bond_atom_site_label_1
_geom_bond_atom_site_label_2
_geom_bond_distance
_geom_bond_site_symmetry_2
_ccdc_geom_bond_type
C0 O1 1.160 . S
C0 O7 1.185 1_556 S
O1 C0 1.160 . S
O2 Zn3 1.899 . S
O2 C10 1.284 . S
Zn3 O2 1.899 . S
Zn3 O4 2.032 . S
Zn3 O7 2.086 . S
Zn3 O12 1.977 . S
O4 Zn3 2.032 . S
O4 C8 1.278 . S
C5 O6 1.203 . S
C5 O12 1.267 . S
O6 C5 1.203 . S
O7 C0 1.185 1_554 S
O7 Zn3 2.086 . S
C8 O4 1.278 . S
C8 O9 1.211 . S
O9 C8 1.211 . S
C10 O2 1.284 . S
C10 O11 1.273 . S
O11 C10 1.273 . S
O12 Zn3 1.977 . S
O12 C5 1.267 . S
C13 O14 1.160 . S
C13 O20 1.185 1_556 S
O14 C13 1.160 . S
O15 Zn16 1.899 1_565 S
O15 C23 1.284 . S
Zn16 O15 1.899 1_545 S
Zn16 O17 2.032 . S
Zn16 O20 2.086 . S
Zn16 O25 1.977 . S
O17 Zn16 2.032 . S
O17 C21 1.278 . S
C18 O19 1.203 1_545 S
C18 O25 1.267 . S
O19 C18 1.203 1_565 S
O20 C13 1.185 1_554 S
O20 Zn16 2.086 . S
C21 O17 1.278 . S
C21 O22 1.211 . S
O22 C21 1.211 . S
C23 O15 1.284 . S
C23 O24 1.273 . S
O24 C23 1.273 . S
O25 Zn16 1.977 . S
O25 C18 1.267 . S
C26 O27 1.160 . S
C26 O33 1.185 1_556 S
O27 C26 1.160 . S
O28 Zn29 1.899 1_455 S
O28 C36 1.284 . S
Zn29 O28 1.899 1_655 S
Zn29 O30 2.032 . S
Zn29 O33 2.086 . S
Zn29 O38 1.977 . S
O30 Zn29 2.032 . S
O30 C34 1.278 . S
C31 O32 1.203 1_655 S
C31 O38 1.267 . S
O32 C31 1.203 1_455 S
O33 C26 1.185 1_554 S
O33 Zn29 2.086 . S
C34 O30 1.278 . S
C34 O35 1.211 . S
O35 C34 1.211 . S
C36 O28 1.284 . S
C36 O37 1.273 . S
O37 C36 1.273 . S
O38 Zn29 1.977 . S
O38 C31 1.267 . S
C39 O40 1.160 . S
C39 O46 1.185 . S
O40 C39 1.160 . S
O41 Zn42 1.899 . S
O41 C49 1.284 . S
Zn42 O41 1.899 . S
Zn42 O43 2.032 . S
Zn42 O46 2.086 . S
Zn42 O51 1.977 . S
O43 Zn42 2.032 . S
O43 C47 1.278 . S
C44 O45 1.203 . S
C44 O51 1.267 . S
O45 C44 1.203 . S
O46 C39 1.185 . S
O46 Zn42 2.086 . S
C47 O43 1.278 . S
C47 O48 1.211 . S
O48 C47 1.211 . S
C49 O41 1.284 . S
C49 O50 1.273 . S
O50 C49 1.273 . S
O51 Zn42 1.977 . S
O51 C44 1.267 . S
C52 O53 1.160 . S
C52 O59 1.185 . S
O53 C52 1.160 . S
O54 Zn55 1.899 1_545 S
O54 C62 1.284 . S
Zn55 O54 1.899 1_565 S
Zn55 O56 2.032 . S
Zn55 O59 2.086 . S
Zn55 O64 1.977 . S
O56 Zn55 2.032 . S
O56 C60 1.278 . S
C57 O58 1.203 1_565 S
C57 O64 1.267 . S
O58 C57 1.203 1_545 S
O59 C52 1.185 . S
O59 Zn55 2.086 . S
C60 O56 1.278 . S
C60 O61 1.211 . S
O61 C60 1.211 . S
C62 O54 1.284 . S
C62 O63 1.273 . S
O63 C62 1.273 . S
O64 Zn55 1.977 . S
O64 C57 1.267 . S
C65 O66 1.160 . S
C65 O72 1.185 . S
O66 C65 1.160 . S
O67 Zn68 1.899 1_655 S
O67 C75 1.284 . S
Zn68 O67 1.899 1_455 S
Zn68 O69 2.032 . S
Zn68 O72 2.086 . S
Zn68 O77 1.977 . S
O69 Zn68 2.032 . S
O69 C73 1.278 . S
C70 O71 1.203 1_455 S
C70 O77 1.267 . S
O71 C70 1.203 1_655 S
O72 C65 1.185 . S
O72 Zn68 2.086 . S
C73 O69 1.278 . S
C73 O74 1.211 . S
O74 C73 1.211 . S
C75 O67 1.284 . S
C75 O76 1.273 . S
O76 C75 1.273 . S
O77 Zn68 1.977 . S
O77 C70 1.267 . S
C78 O79 1.160 . S
C78 O85 1.185 1_554 S
O79 C78 1.160 . S
O80 Zn81 1.899 . S
O80 C88 1.284 . S
Zn81 O80 1.899 . S
Zn81 O82 2.032 . S
Zn81 O85 2.086 . S
Zn81 O90 1.977 . S
O82 Zn81 2.032 . S
O82 C86 1.278 . S
C83 O84 1.203 . S
C83 O90 1.267 . S
O84 C83 1.203 . S
O85 C78 1.185 1_556 S
O85 Zn81 2.086 . S
C86 O82 1.278 . S
C86 O87 1.211 . S
O87 C86 1.211 . S
C88 O80 1.284 . S
C88 O89 1.273 . S
O89 C88 1.273 . S
O90 Zn81 1.977 . S
O90 C83 1.267 . S
C91 O92 1.160 . S
C91 O98 1.185 1_554 S
O92 C91 1.160 . S
O93 Zn94 1.899 1_545 S
O93 C101 1.284 . S
Zn94 O93 1.899 1_565 S
Zn94 O95 2.032 . S
Zn94 O98 2.086 . S
Zn94 O103 1.977 . S
O95 Zn94 2.032 . S
O95 C99 1.278 . S
C96 O97 1.203 1_565 S
C96 O103 1.267 . S
O97 C96 1.203 1_545 S
O98 C91 1.185 1_556 S
O98 Zn94 2.086 . S
C99 O95 1.278 . S
C99 O100 1.211 . S
O100 C99 1.211 . S
C101 O93 1.284 . S
C101 O102 1.273 . S
O102 C101 1.273 . S
O103 Zn94 1.977 . S
O103 C96 1.267 . S
C104 O105 1.160 . S
C104 O111 1.185 1_554 S
O105 C104 1.160 . S
O106 Zn107 1.899 1_655 S
O106 C114 1.284 . S
Zn107 O106 1.899 1_455 S
Zn107 O108 2.032 . S
Zn107 O111 2.086 . S
Zn107 O116 1.977 . S
O108 Zn107 2.032 . S
O108 C112 1.278 . S
C109 O110 1.203 1_455 S
C109 O116 1.267 . S
O110 C109 1.203 1_655 S
O111 C104 1.185 1_556 S
O111 Zn107 2.086 . S
C112 O108 1.278 . S
C112 O113 1.211 . S
O113 C112 1.211 . S
C114 O106 1.284 . S
C114 O115 1.273 . S
O115 C114 1.273 . S
O116 Zn107 1.977 . S
O116 C109 1.267 . S
C117 O118 1.160 . S
C117 O124 1.185 . S
O118 C117 1.160 . S
O119 Zn120 1.899 . S
O119 C127 1.284 . S
Zn120 O119 1.899 . S
Zn120 O121 2.032 . S
Zn120 O124 2.086 . S
Zn120 O129 1.977 . S
O121 Zn120 2.032 . S
O121 C125 1.278 . S
C122 O123 1.203 . S
C122 O129 1.267 . S
O123 C122 1.203 . S
O124 C117 1.185 . S
O124 Zn120 2.086 . S
C125 O121 1.278 . S
C125 O126 1.211 . S
O126 C125 1.211 . S
C127 O119 1.284 . S
C127 O128 1.273 . S
O128 C127 1.273 . S
O129 Zn120 1.977 . S
O129 C122 1.267 . S
C130 O131 1.160 . S
C130 O137 1.185 . S
O131 C130 1.160 . S
O132 Zn133 1.899 1_565 S
O132 C140 1.284 . S
Zn133 O132 1.899 1_545 S
Zn133 O134 2.032 . S
Zn133 O137 2.086 . S
Zn133 O142 1.977 . S
O134 Zn133 2.032 . S
O134 C138 1.278 . S
C135 O136 1.203 1_545 S
C135 O142 1.267 . S
O136 C135 1.203 1_565 S
O137 C130 1.185 . S
O137 Zn133 2.086 . S
C138 O134 1.278 . S
C138 O139 1.211 . S
O139 C138 1.211 . S
C140 O132 1.284 . S
C140 O141 1.273 . S
O141 C140 1.273 . S
O142 Zn133 1.977 . S
O142 C135 1.267 . S
C143 O144 1.160 . S
C143 O150 1.185 . S
O144 C143 1.160 . S
O145 Zn146 1.899 1_455 S
O145 C153 1.284 . S
Zn146 O145 1.899 1_655 S
Zn146 O147 2.032 . S
Zn146 O150 2.086 . S
Zn146 O155 1.977 . S
O147 Zn146 2.032 . S
O147 C151 1.278 . S
C148 O149 1.203 1_655 S
C148 O155 1.267 . S
O149 C148 1.203 1_455 S
O150 C143 1.185 . S
O150 Zn146 2.086 . S
C151 O147 1.278 . S
C151 O152 1.211 . S
O152 C151 1.211 . S
C153 O145 1.284 . S
C153 O154 1.273 . S
O154 C153 1.273 . S
O155 Zn146 1.977 . S
O155 C148 1.267 . S
C156 O157 1.160 . S
C156 O163 1.185 . S
O157 C156 1.160 . S
O158 Zn159 1.899 . S
O158 C166 1.284 . S
Zn159 O158 1.899 . S
Zn159 O160 2.032 . S
Zn159 O163 2.086 . S
Zn159 O168 1.977 . S
O160 Zn159 2.032 . S
O160 C164 1.278 . S
C161 O162 1.203 . S
C161 O168 1.267 . S
O162 C161 1.203 . S
O163 C156 1.185 . S
O163 Zn159 2.086 . S
C164 O160 1.278 . S
C164 O165 1.211 . S
O165 C164 1.211 . S
C166 O158 1.284 . S
C166 O167 1.273 . S
O167 C166 1.273 . S
O168 Zn159 1.977 . S
O168 C161 1.267 . S
C169 O170 1.160 . S
C169 O176 1.185 . S
O170 C169 1.160 . S
O171 Zn172 1.899 . S
O171 C179 1.284 . S
Zn172 O171 1.899 . S
Zn172 O173 2.032 . S
Zn172 O176 2.086 . S
Zn172 O181 1.977 . S
O173 Zn172 2.032 . S
O173 C177 1.278 . S
C174 O175 1.203 . S
C174 O181 1.267 . S
O175 C174 1.203 . S
O176 C169 1.185 . S
O176 Zn172 2.086 . S
C177 O173 1.278 . S
C177 O178 1.211 . S
O178 C177 1.211 . S
C179 O171 1.284 . S
C179 O180 1.273 . S
O180 C179 1.273 . S
O181 Zn172 1.977 . S
O181 C174 1.267 . S
C182 O183 1.160 . S
C182 O189 1.185 . S
O183 C182 1.160 . S
O184 Zn185 1.899 . S
O184 C192 1.284 . S
Zn185 O184 1.899 . S
Zn185 O186 2.032 . S
Zn185 O189 2.086 . S
Zn185 O194 1.977 . S
O186 Zn185 2.032 . S
O186 C190 1.278 . S
C187 O188 1.203 . S
C187 O194 1.267 . S
O188 C187 1.203 . S
O189 C182 1.185 . S
O189 Zn185 2.086 . S
C190 O186 1.278 . S
C190 O191 1.211 . S
O191 C190 1.211 . S
C192 O184 1.284 . S
C192 O193 1.273 . S
O193 C192 1.273 . S
O194 Zn185 1.977 . S
O194 C187 1.267 . S
C195 O196 1.160 . S
C195 O202 1.185 . S
O196 C195 1.160 . S
O197 Zn198 1.899 . S
O197 C205 1.284 . S
Zn198 O197 1.899 . S
Zn198 O199 2.032 . S
Zn198 O202 2.086 . S
Zn198 O207 1.977 . S
O199 Zn198 2.032 . S
O199 C203 1.278 . S
C200 O201 1.203 . S
C200 O207 1.267 . S
O201 C200 1.203 . S
O202 C195 1.185 . S
O202 Zn198 2.086 . S
C203 O199 1.278 . S
C203 O204 1.211 . S
O204 C203 1.211 . S
C205 O197 1.284 . S
C205 O206 1.273 . S
O206 C205 1.273 . S
O207 Zn198 1.977 . S
O207 C200 1.267 . S
C208 O209 1.160 . S
C208 O215 1.185 . S
O209 C208 1.160 . S
O210 Zn211 1.899 . S
O210 C218 1.284 . S
Zn211 O210 1.899 . S
Zn211 O212 2.032 . S
Zn211 O215 2.086 . S
Zn211 O220 1.977 . S
O212 Zn211 2.032 . S
O212 C216 1.278 . S
C213 O214 1.203 . S
C213 O220 1.267 . S
O214 C213 1.203 . S
O215 C208 1.185 . S
O215 Zn211 2.086 . S
C216 O212 1.278 . S
C216 O217 1.211 . S
O217 C216 1.211 . S
C218 O210 1.284 . S
C218 O219 1.273 . S
O219 C218 1.273 . S
O220 Zn211 1.977 . S
O220 C213 1.267 . S
C221 O222 1.160 . S
C221 O228 1.185 . S
O222 C221 1.160 . S
O223 Zn224 1.899 . S
O223 C231 1.284 . S
Zn224 O223 1.899 . S
Zn224 O225 2.032 . S
Zn224 O228 2.086 . S
Zn224 O233 1.977 . S
O225 Zn224 2.032 . S
O225 C229 1.278 . S
C226 O227 1.203 . S
C226 O233 1.267 . S
O227 C226 1.203 . S
O228 C221 1.185 . S
O228 Zn224 2.086 . S
C229 O225 1.278 . S
C229 O230 1.211 . S
O230 C229 1.211 . S
C231 O223 1.284 . S
C231 O232 1.273 . S
O232 C231 1.273 . S
O233 Zn224 1.977 . S
O233 C226 1.267 . S
C234 O235 1.160 . S
C234 O241 1.185 . S
O235 C234 1.160 . S
O236 Zn237 1.899 . S
O236 C244 1.284 . S
Zn237 O236 1.899 . S
Zn237 O238 2.032 . S
Zn237 O241 2.086 . S
Zn237 O246 1.977 . S
O238 Zn237 2.032 . S
O238 C242 1.278 . S
C239 O240 1.203 . S
C239 O246 1.267 . S
O240 C239 1.203 . S
O241 C234 1.185 . S
O241 Zn237 2.086 . S
C242 O238 1.278 . S
C242 O243 1.211 . S
O243 C242 1.211 . S
C244 O236 1.284 . S
C244 O245 1.273 . S
O245 C244 1.273 . S
O246 Zn237 1.977 . S
O246 C239 1.267 . S
C247 O248 1.160 . S
C247 O254 1.185 . S
O248 C247 1.160 . S
O249 Zn250 1.899 . S
O249 C257 1.284 . S
Zn250 O249 1.899 . S
Zn250 O251 2.032 . S
Zn250 O254 2.086 . S
Zn250 O259 1.977 . S
O251 Zn250 2.032 . S
O251 C255 1.278 . S
C252 O253 1.203 . S
C252 O259 1.267 . S
O253 C252 1.203 . S
O254 C247 1.185 . S
O254 Zn250 2.086 . S
C255 O251 1.278 . S
C255 O256 1.211 . S
O256 C255 1.211 . S
C257 O249 1.284 . S
C257 O258 1.273 . S
O258 C257 1.273 . S
O259 Zn250 1.977 . S
O259 C252 1.267 . S
C260 O261 1.160 . S
C260 O267 1.185 . S
O261 C260 1.160 . S
O262 Zn263 1.899 . S
O262 C270 1.284 . S
Zn263 O262 1.899 . S
Zn263 O264 2.032 . S
Zn263 O267 2.086 . S
Zn263 O272 1.977 . S
O264 Zn263 2.032 . S
O264 C268 1.278 . S
C265 O266 1.203 . S
C265 O272 1.267 . S
O266 C265 1.203 . S
O267 C260 1.185 . S
O267 Zn263 2.086 . S
C268 O264 1.278 . S
C268 O269 1.211 . S
O269 C268 1.211 . S
C270 O262 1.284 . S
C270 O271 1.273 . S
O271 C270 1.273 . S
O272 Zn263 1.977 . S
O272 C265 1.267 . S
C273 O274 1.160 . S
C273 O280 1.185 . S
O274 C273 1.160 . S
O275 Zn276 1.899 . S
O275 C283 1.284 . S
Zn276 O275 1.899 . S
Zn276 O277 2.032 . S
Zn276 O280 2.086 . S
Zn276 O285 1.977 . S
O277 Zn276 2.032 . S
O277 C281 1.278 . S
C278 O279 1.203 . S
C278 O285 1.267 . S
O279 C278 1.203 . S
O280 C273 1.185 . S
O280 Zn276 2.086 . S
C281 O277 1.278 . S
C281 O282 1.211 . S
O282 C281 1.211 . S
C283 O275 1.284 . S
C283 O284 1.273 . S
O284 C283 1.273 . S
O285 Zn276 1.977 . S
O285 C278 1.267 . S
C286 O287 1.160 . S
C286 O293 1.185 . S
O287 C286 1.160 . S
O288 Zn289 1.899 . S
O288 C296 1.284 . S
Zn289 O288 1.899 . S
Zn289 O290 2.032 . S
Zn289 O293 2.086 . S
Zn289 O298 1.977 . S
O290 Zn289 2.032 . S
O290 C294 1.278 . S
C291 O292 1.203 . S
C291 O298 1.267 . S
O292 C291 1.203 . S
O293 C286 1.185 . S
O293 Zn289 2.086 . S
C294 O290 1.278 . S
C294 O295 1.211 . S
O295 C294 1.211 . S
C296 O288 1.284 . S
C296 O297 1.273 . S
O297 C296 1.273 . S
O298 Zn289 1.977 . S
O298 C291 1.267 . S
C299 O300 1.160 . S
C299 O306 1.185 . S
O300 C299 1.160 . S
O301 Zn302 1.899 . S
O301 C309 1.284 . S
Zn302 O301 1.899 . S
Zn302 O303 2.032 . S
Zn302 O306 2.086 . S
Zn302 O311 1.977 . S
O303 Zn302 2.032 . S
O303 C307 1.278 . S
C304 O305 1.203 . S
C304 O311 1.267 . S
O305 C304 1.203 . S
O306 C299 1.185 . S
O306 Zn302 2.086 . S
C307 O303 1.278 . S
C307 O308 1.211 . S
O308 C307 1.211 . S
C309 O301 1.284 . S
C309 O310 1.273 . S
O310 C309 1.273 . S
O311 Zn302 1.977 . S
O311 C304 1.267 . S
C312 O313 1.160 . S
C312 O319 1.185 . S
O313 C312 1.160 . S
O314 Zn315 1.899 . S
O314 C322 1.284 . S
Zn315 O314 1.899 . S
Zn315 O316 2.032 . S
Zn315 O319 2.086 . S
Zn315 O324 1.977 . S
O316 Zn315 2.032 . S
O316 C320 1.278 . S
C317 O318 1.203 . S
C317 O324 1.267 . S
O318 C317 1.203 . S
O319 C312 1.185 . S
O319 Zn315 2.086 . S
C320 O316 1.278 . S
C320 O321 1.211 . S
O321 C320 1.211 . S
C322 O314 1.284 . S
C322 O323 1.273 . S
O323 C322 1.273 . S
O324 Zn315 1.977 . S
O324 C317 1.267 . S
C325 O326 1.160 . S
C325 O332 1.185 . S
O326 C325 1.160 . S
O327 Zn328 1.899 . S
O327 C335 1.284 . S
Zn328 O327 1.899 . S
Zn328 O329 2.032 . S
Zn328 O332 2.086 . S
Zn328 O337 1.977 . S
O329 Zn328 2.032 . S
O329 C333 1.278 . S
C330 O331 1.203 . S
C330 O337 1.267 . S
O331 C330 1.203 . S
O332 C325 1.185 . S
O332 Zn328 2.086 . S
C333 O329 1.278 . S
C333 O334 1.211 . S
O334 C333 1.211 . S
C335 O327 1.284 . S
C335 O336 1.273 . S
O336 C335 1.273 . S
O337 Zn328 1.977 . S
O337 C330 1.267 . S
C338 O339 1.160 . S
C338 O345 1.185 . S
O339 C338 1.160 . S
O340 Zn341 1.899 . S
O340 C348 1.284 . S
Zn341 O340 1.899 . S
Zn341 O342 2.032 . S
Zn341 O345 2.086 . S
Zn341 O350 1.977 . S
O342 Zn341 2.032 . S
O342 C346 1.278 . S
C343 O344 1.203 . S
C343 O350 1.267 . S
O344 C343 1.203 . S
O345 C338 1.185 . S
O345 Zn341 2.086 . S
C346 O342 1.278 . S
C346 O347 1.211 . S
O347 C346 1.211 . S
C348 O340 1.284 . S
C348 O349 1.273 . S
O349 C348 1.273 . S
O350 Zn341 1.977 . S
O350 C343 1.267 . S
C351 O352 1.160 . S
C351 O358 1.185 . S
O352 C351 1.160 . S
O353 Zn354 1.899 . S
O353 C361 1.284 . S
Zn354 O353 1.899 . S
Zn354 O355 2.032 . S
Zn354 O358 2.086 . S
Zn354 O363 1.977 . S
O355 Zn354 2.032 . S
O355 C359 1.278 . S
C356 O357 1.203 . S
C356 O363 1.267 . S
O357 C356 1.203 . S
O358 C351 1.185 . S
O358 Zn354 2.086 . S
C359 O355 1.278 . S
C359 O360 1.211 . S
O360 C359 1.211 . S
C361 O353 1.284 . S
C361 O362 1.273 . S
O362 C361 1.273 . S
O363 Zn354 1.977 . S
O363 C356 1.267 . S
C364 O365 1.160 . S
C364 O371 1.185 . S
O365 C364 1.160 . S
O366 Zn367 1.899 . S
O366 C374 1.284 . S
Zn367 O366 1.899 . S
Zn367 O368 2.032 . S
Zn367 O371 2.086 . S
Zn367 O376 1.977 . S
O368 Zn367 2.032 . S
O368 C372 1.278 . S
C369 O370 1.203 . S
C369 O376 1.267 . S
O370 C369 1.203 . S
O371 C364 1.185 . S
O371 Zn367 2.086 . S
C372 O368 1.278 . S
C372 O373 1.211 . S
O373 C372 1.211 . S
C374 O366 1.284 . S
C374 O375 1.273 . S
O375 C374 1.273 . S
O376 Zn367 1.977 . S
O376 C369 1.267 . S
C377 O378 1.160 . S
C377 O384 1.185 . S
O378 C377 1.160 . S
O379 Zn380 1.899 . S
O379 C387 1.284 . S
Zn380 O379 1.899 . S
Zn380 O381 2.032 . S
Zn380 O384 2.086 . S
Zn380 O389 1.977 . S
O381 Zn380 2.032 . S
O381 C385 1.278 . S
C382 O383 1.203 . S
C382 O389 1.267 . S
O383 C382 1.203 . S
O384 C377 1.185 . S
O384 Zn380 2.086 . S
C385 O381 1.278 . S
C385 O386 1.211 . S
O386 C385 1.211 . S
C387 O379 1.284 . S
C387 O388 1.273 . S
O388 C387 1.273 . S
O389 Zn380 1.977 . S
O389 C382 1.267 . S
C390 O391 1.160 . S
C390 O397 1.185 . S
O391 C390 1.160 . S
O392 Zn393 1.899 . S
O392 C400 1.284 . S
Zn393 O392 1.899 . S
Zn393 O394 2.032 . S
Zn393 O397 2.086 . S
Zn393 O402 1.977 . S
O394 Zn393 2.032 . S
O394 C398 1.278 . S
C395 O396 1.203 . S
C395 O402 1.267 . S
O396 C395 1.203 . S
O397 C390 1.185 . S
O397 Zn393 2.086 . S
C398 O394 1.278 . S
C398 O399 1.211 . S
O399 C398 1.211 . S
C400 O392 1.284 . S
C400 O401 1.273 . S
O401 C400 1.273 . S
O402 Zn393 1.977 . S
O402 C395 1.267 . S
C403 O404 1.160 . S
C403 O410 1.185 . S
O404 C403 1.160 . S
O405 Zn406 1.899 . S
O405 C413 1.284 . S
Zn406 O405 1.899 . S
Zn406 O407 2.032 . S
Zn406 O410 2.086 . S
Zn406 O415 1.977 . S
O407 Zn406 2.032 . S
O407 C411 1.278 . S
C408 O409 1.203 . S
C408 O415 1.267 . S
O409 C408 1.203 . S
O410 C403 1.185 . S
O410 Zn406 2.086 . S
C411 O407 1.278 . S
C411 O412 1.211 . S
O412 C411 1.211 . S
C413 O405 1.284 . S
C413 O414 1.273 . S
O414 C413 1.273 . S
O415 Zn406 1.977 . S
O415 C408 1.267 . S
C416 O417 1.160 . S
C416 O423 1.185 . S
O417 C416 1.160 . S
O418 Zn419 1.899 . S
O418 C426 1.284 . S
Zn419 O418 1.899 . S
Zn419 O420 2.032 . S
Zn419 O423 2.086 . S
Zn419 O428 1.977 . S
O420 Zn419 2.032 . S
O420 C424 1.278 . S
C421 O422 1.203 . S
C421 O428 1.267 . S
O422 C421 1.203 . S
O423 C416 1.185 . S
O423 Zn419 2.086 . S
C424 O420 1.278 . S
C424 O425 1.211 . S
O425 C424 1.211 . S
C426 O418 1.284 . S
C426 O427 1.273 . S
O427 C426 1.273 . S
O428 Zn419 1.977 . S
O428 C421 1.267 . S
C429 O430 1.160 . S
C429 O436 1.185 . S
O430 C429 1.160 . S
O431 Zn432 1.899 . S
O431 C439 1.284 . S
Zn432 O431 1.899 . S
Zn432 O433 2.032 . S
Zn432 O436 2.086 . S
Zn432 O441 1.977 . S
O433 Zn432 2.032 . S
O433 C437 1.278 . S
C434 O435 1.203 . S
C434 O441 1.267 . S
O435 C434 1.203 . S
O436 C429 1.185 . S
O436 Zn432 2.086 . S
C437 O433 1.278 . S
C437 O438 1.211 . S
O438 C437 1.211 . S
C439 O431 1.284 . S
C439 O440 1.273 . S
O440 C439 1.273 . S
O441 Zn432 1.977 . S
O441 C434 1.267 . S
C442 O443 1.160 . S
C442 O449 1.185 . S
O443 C442 1.160 . S
O444 Zn445 1.899 . S
O444 C452 1.284 . S
Zn445 O444 1.899 . S
Zn445 O446 2.032 . S
Zn445 O449 2.086 . S
Zn445 O454 1.977 . S
O446 Zn445 2.032 . S
O446 C450 1.278 . S
C447 O448 1.203 . S
C447 O454 1.267 . S
O448 C447 1.203 . S
O449 C442 1.185 . S
O449 Zn445 2.086 . S
C450 O446 1.278 . S
C450 O451 1.211 . S
O451 C450 1.211 . S
C452 O444 1.284 . S
C452 O453 1.273 . S
O453 C452 1.273 . S
O454 Zn445 1.977 . S
O454 C447 1.267 . S
C455 O456 1.160 . S
C455 O462 1.185 . S
O456 C455 1.160 . S
O457 Zn458 1.899 . S
O457 C465 1.284 . S
Zn458 O457 1.899 . S
Zn458 O459 2.032 . S
Zn458 O462 2.086 . S
Zn458 O467 1.977 . S
O459 Zn458 2.032 . S
O459 C463 1.278 . S
C460 O461 1.203 . S
C460 O467 1.267 . S
O461 C460 1.203 . S
O462 C455 1.185 . S
O462 Zn458 2.086 . S
C463 O459 1.278 . S
C463 O464 1.211 . S
O464 C463 1.211 . S
C465 O457 1.284 . S
C465 O466 1.273 . S
O466 C465 1.273 . S
O467 Zn458 1.977 . S
O467 C460 1.267 . S
C468 C469 1.369 . S
C468 C470 1.419 . S
C468 H472 0.930 . S
C469 C468 1.369 . S
C469 C478 1.429 . S
C470 C468 1.419 . S
C470 C471 1.363 . S
C470 H473 0.929 . S
C471 C470 1.363 . S
C471 C477 1.428 . S
H472 C468 0.930 . S
H473 C470 0.929 . S
S474 N475 1.613 . S
S474 N476 1.610 . S
N475 S474 1.613 . S
N475 C478 1.350 . S
N476 S474 1.610 . S
N476 C477 1.351 . S
C477 C471 1.428 . S
C477 N476 1.351 . S
C477 C478 1.434 . S
C478 C469 1.429 . S
C478 N475 1.350 . S
C478 C477 1.434 . S
C479 C480 1.369 . S
C479 C481 1.419 . S
C479 H483 0.930 . S
C480 C479 1.369 . S
C480 C489 1.429 . S
C481 C479 1.419 . S
C481 C482 1.363 . S
C481 H484 0.929 . S
C482 C481 1.363 . S
C482 C488 1.428 . S
H483 C479 0.930 . S
H484 C481 0.929 . S
S485 N486 1.613 . S
S485 N487 1.610 . S
N486 S485 1.613 . S
N486 C489 1.350 . S
N487 S485 1.610 . S
N487 C488 1.351 . S
C488 C482 1.428 . S
C488 N487 1.351 . S
C488 C489 1.434 . S
C489 C480 1.429 . S
C489 N486 1.350 . S
C489 C488 1.434 . S
C490 C491 1.369 . S
C490 C492 1.419 . S
C490 H494 0.930 . S
C491 C490 1.369 . S
C491 C500 1.429 . S
C492 C490 1.419 . S
C492 C493 1.363 . S
C492 H495 0.929 . S
C493 C492 1.363 . S
C493 C499 1.428 . S
H494 C490 0.930 . S
H495 C492 0.929 . S
S496 N497 1.613 . S
S496 N498 1.610 1_554 S
N497 S496 1.613 . S
N497 C500 1.350 1_554 S
N498 S496 1.610 1_556 S
N498 C499 1.351 . S
C499 C493 1.428 . S
C499 N498 1.351 . S
C499 C500 1.434 . S
C500 C491 1.429 . S
C500 N497 1.350 1_556 S
C500 C499 1.434 . S
C501 C502 1.369 . S
C501 C503 1.419 . S
C501 H505 0.930 . S
C502 C501 1.369 . S
C502 C511 1.429 . S
C503 C501 1.419 . S
C503 C504 1.363 . S
C503 H506 0.929 . S
C504 C503 1.363 . S
C504 C510 1.428 . S
H505 C501 0.930 . S
H506 C503 0.929 . S
S507 N508 1.613 . S
S507 N509 1.610 . S
N508 S507 1.613 . S
N508 C511 1.350 . S
N509 S507 1.610 . S
N509 C510 1.351 . S
C510 C504 1.428 . S
C510 N509 1.351 . S
C510 C511 1.434 . S
C511 C502 1.429 . S
C511 N508 1.350 . S
C511 C510 1.434 . S
C512 C513 1.369 . S
C512 C514 1.419 . S
C512 H516 0.930 . S
C513 C512 1.369 . S
C513 C522 1.429 . S
C514 C512 1.419 . S
C514 C515 1.363 . S
C514 H517 0.929 . S
C515 C514 1.363 . S
C515 C521 1.428 . S
H516 C512 0.930 . S
H517 C514 0.929 . S
S518 N519 1.613 . S
S518 N520 1.610 . S
N519 S518 1.613 . S
N519 C522 1.350 . S
N520 S518 1.610 . S
N520 C521 1.351 . S
C521 C515 1.428 . S
C521 N520 1.351 . S
C521 C522 1.434 . S
C522 C513 1.429 . S
C522 N519 1.350 . S
C522 C521 1.434 . S
C523 C524 1.369 . S
C523 C525 1.419 . S
C523 H527 0.930 . S
C524 C523 1.369 . S
C524 C533 1.429 . S
C525 C523 1.419 . S
C525 C526 1.363 . S
C525 H528 0.929 . S
C526 C525 1.363 . S
C526 C532 1.428 . S
H527 C523 0.930 . S
H528 C525 0.929 . S
S529 N530 1.613 . S
S529 N531 1.610 . S
N530 S529 1.613 . S
N530 C533 1.350 . S
N531 S529 1.610 . S
N531 C532 1.351 . S
C532 C526 1.428 . S
C532 N531 1.351 . S
C532 C533 1.434 . S
C533 C524 1.429 . S
C533 N530 1.350 . S
C533 C532 1.434 . S
C534 C535 1.369 . S
C534 C536 1.419 . S
C534 H538 0.930 . S
C535 C534 1.369 . S
C535 C544 1.429 . S
C536 C534 1.419 . S
C536 C537 1.363 . S
C536 H539 0.929 . S
C537 C536 1.363 . S
C537 C543 1.428 . S
H538 C534 0.930 . S
H539 C536 0.929 . S
S540 N541 1.613 . S
S540 N542 1.610 . S
N541 S540 1.613 . S
N541 C544 1.350 . S
N542 S540 1.610 . S
N542 C543 1.351 . S
C543 C537 1.428 . S
C543 N542 1.351 . S
C543 C544 1.434 . S
C544 C535 1.429 . S
C544 N541 1.350 . S
C544 C543 1.434 . S
C545 C546 1.369 . S
C545 C547 1.419 . S
C545 H549 0.930 . S
C546 C545 1.369 . S
C546 C555 1.429 . S
C547 C545 1.419 . S
C547 C548 1.363 . S
C547 H550 0.929 . S
C548 C547 1.363 . S
C548 C554 1.428 . S
H549 C545 0.930 . S
H550 C547 0.929 . S
S551 N552 1.613 . S
S551 N553 1.610 . S
N552 S551 1.613 . S
N552 C555 1.350 . S
N553 S551 1.610 . S
N553 C554 1.351 . S
C554 C548 1.428 . S
C554 N553 1.351 . S
C554 C555 1.434 . S
C555 C546 1.429 . S
C555 N552 1.350 . S
C555 C554 1.434 . S
C556 C557 1.369 . S
C556 C558 1.419 . S
C556 H560 0.930 . S
C557 C556 1.369 . S
C557 C566 1.429 . S
C558 C556 1.419 . S
C558 C559 1.363 . S
C558 H561 0.929 . S
C559 C558 1.363 . S
C559 C565 1.428 . S
H560 C556 0.930 . S
H561 C558 0.929 . S
S562 N563 1.613 1_655 S
S562 N564 1.610 . S
N563 S562 1.613 1_455 S
N563 C566 1.350 . S
N564 S562 1.610 . S
N564 C565 1.351 1_655 S
C565 C559 1.428 . S
C565 N564 1.351 1_455 S
C565 C566 1.434 . S
C566 C557 1.429 . S
C566 N563 1.350 . S
C566 C565 1.434 . S
C567 C568 1.369 . S
C567 C569 1.419 . S
C567 H571 0.930 . S
C568 C567 1.369 . S
C568 C577 1.429 . S
C569 C567 1.419 . S
C569 C570 1.363 . S
C569 H572 0.929 . S
C570 C569 1.363 . S
C570 C576 1.428 . S
H571 C567 0.930 . S
H572 C569 0.929 . S
S573 N574 1.613 . S
S573 N575 1.610 . S
N574 S573 1.613 . S
N574 C577 1.350 . S
N575 S573 1.610 . S
N575 C576 1.351 . S
C576 C570 1.428 . S
C576 N575 1.351 . S
C576 C577 1.434 . S
C577 C568 1.429 . S
C577 N574 1.350 . S
C577 C576 1.434 . S
C578 C579 1.369 . S
C578 C580 1.419 . S
C578 H582 0.930 . S
C579 C578 1.369 . S
C579 C588 1.429 . S
C580 C578 1.419 . S
C580 C581 1.363 . S
C580 H583 0.929 . S
C581 C580 1.363 . S
C581 C587 1.428 . S
H582 C578 0.930 . S
H583 C580 0.929 . S
S584 N585 1.613 . S
S584 N586 1.610 . S
N585 S584 1.613 . S
N585 C588 1.350 . S
N586 S584 1.610 . S
N586 C587 1.351 . S
C587 C581 1.428 . S
C587 N586 1.351 . S
C587 C588 1.434 . S
C588 C579 1.429 . S
C588 N585 1.350 . S
C588 C587 1.434 . S
C589 C590 1.369 . S
C589 C591 1.419 . S
C589 H593 0.930 . S
C590 C589 1.369 . S
C590 C599 1.429 . S
C591 C589 1.419 . S
C591 C592 1.363 . S
C591 H594 0.929 . S
C592 C591 1.363 . S
C592 C598 1.428 . S
H593 C589 0.930 . S
H594 C591 0.929 . S
S595 N596 1.613 . S
S595 N597 1.610 . S
N596 S595 1.613 . S
N596 C599 1.350 . S
N597 S595 1.610 . S
N597 C598 1.351 . S
C598 C592 1.428 . S
C598 N597 1.351 . S
C598 C599 1.434 . S
C599 C590 1.429 . S
C599 N596 1.350 . S
C599 C598 1.434 . S
C600 C601 1.380 . S
C600 C602 1.402 1_455 S
C600 H604 0.940 1_455 S
C601 C600 1.380 . S
C601 C610 1.429 . S
C602 C600 1.402 1_655 S
C602 C603 1.363 . S
C602 H605 0.929 . S
C603 C602 1.363 . S
C603 C609 1.419 1_655 S
H604 C600 0.940 1_655 S
H605 C602 0.929 . S
S606 N607 1.613 . S
S606 N608 1.610 . S
N607 S606 1.613 . S
N607 C610 1.350 . S
N608 S606 1.610 . S
N608 C609 1.347 . S
C609 C603 1.419 1_455 S
C609 N608 1.347 . S
C609 C610 1.450 . S
C610 C601 1.429 . S
C610 N607 1.350 . S
C610 C609 1.450 . S
C611 C612 1.369 . S
C611 C613 1.419 . S
C611 H615 0.930 . S
C612 C611 1.369 . S
C612 C621 1.429 . S
C613 C611 1.419 . S
C613 C614 1.363 . S
C613 H616 0.929 . S
C614 C613 1.363 . S
C614 C620 1.428 . S
H615 C611 0.930 . S
H616 C613 0.929 . S
S617 N618 1.613 . S
S617 N619 1.610 . S
N618 S617 1.613 . S
N618 C621 1.350 . S
N619 S617 1.610 . S
N619 C620 1.351 . S
C620 C614 1.428 . S
C620 N619 1.351 . S
C620 C621 1.434 . S
C621 C612 1.429 . S
C621 N618 1.350 . S
C621 C620 1.434 . S
C622 C623 1.369 . S
C622 C624 1.395 1_565 S
C622 H626 0.930 . S
C623 C622 1.369 . S
C623 C632 1.430 . S
C624 C622 1.395 1_545 S
C624 C625 1.378 . S
C624 H627 0.939 . S
C625 C624 1.378 . S
C625 C631 1.428 . S
H626 C622 0.930 . S
H627 C624 0.939 . S
S628 N629 1.613 . S
S628 N630 1.610 . S
N629 S628 1.613 . S
N629 C632 1.351 1_545 S
N630 S628 1.610 . S
N630 C631 1.351 . S
C631 C625 1.428 . S
C631 N630 1.351 . S
C631 C632 1.431 1_545 S
C632 C623 1.430 . S
C632 N629 1.351 1_565 S
C632 C631 1.431 1_565 S
C633 C634 1.369 . S
C633 C635 1.419 1_565 S
C633 H637 0.930 . S
C634 C633 1.369 . S
C634 C643 1.429 . S
C635 C633 1.419 1_545 S
C635 C636 1.363 . S
C635 H638 0.929 . S
C636 C635 1.363 . S
C636 C642 1.428 . S
H637 C633 0.930 . S
H638 C635 0.929 . S
S639 N640 1.613 . S
S639 N641 1.610 . S
N640 S639 1.613 . S
N640 C643 1.350 . S
N641 S639 1.610 . S
N641 C642 1.351 1_565 S
C642 C636 1.428 . S
C642 N641 1.351 1_545 S
C642 C643 1.434 1_545 S
C643 C634 1.429 . S
C643 N640 1.350 . S
C643 C642 1.434 1_565 S
C644 C645 1.369 . S
C644 C646 1.419 1_455 S
C644 H648 0.930 . S
C645 C644 1.369 . S
C645 C654 1.429 . S
C646 C644 1.419 1_655 S
C646 C647 1.363 . S
C646 H649 0.929 . S
C647 C646 1.363 . S
C647 C653 1.438 . S
H648 C644 0.930 . S
H649 C646 0.929 . S
S650 N651 1.613 . S
S650 N652 1.610 . S
N651 S650 1.613 . S
N651 C654 1.350 . S
N652 S650 1.610 . S
N652 C653 1.358 1_455 S
C653 C647 1.438 . S
C653 N652 1.358 1_655 S
C653 C654 1.415 1_655 S
C654 C645 1.429 . S
C654 N651 1.350 . S
C654 C653 1.415 1_455 S
C655 C656 1.369 . S
C655 C657 1.419 . S
C655 H659 0.930 . S
C656 C655 1.369 . S
C656 C665 1.429 . S
C657 C655 1.419 . S
C657 C658 1.363 . S
C657 H660 0.929 . S
C658 C657 1.363 . S
C658 C664 1.428 . S
H659 C655 0.930 . S
H660 C657 0.929 . S
S661 N662 1.613 . S
S661 N663 1.610 . S
N662 S661 1.613 . S
N662 C665 1.350 . S
N663 S661 1.610 . S
N663 C664 1.351 . S
C664 C658 1.428 . S
C664 N663 1.351 . S
C664 C665 1.434 . S
C665 C656 1.429 . S
C665 N662 1.350 . S
C665 C664 1.434 . S
C666 C667 1.363 1_554 S
C666 C668 1.419 . S
C666 H670 0.930 . S
C667 C666 1.363 1_556 S
C667 C676 1.432 . S
C668 C666 1.419 . S
C668 C669 1.363 . S
C668 H671 0.929 . S
C669 C668 1.363 . S
C669 C675 1.425 1_554 S
H670 C666 0.930 . S
H671 C668 0.929 . S
S672 N673 1.613 . S
S672 N674 1.610 . S
N673 S672 1.613 . S
N673 C676 1.350 . S
N674 S672 1.610 . S
N674 C675 1.353 . S
C675 C669 1.425 1_556 S
C675 N674 1.353 . S
C675 C676 1.435 . S
C676 C667 1.432 . S
C676 N673 1.350 . S
C676 C675 1.435 . S
C677 C678 1.369 1_556 S
C677 C679 1.415 1_556 S
C677 H681 0.930 . S
C678 C677 1.369 1_554 S
C678 C687 1.428 . S
C679 C677 1.415 1_554 S
C679 C680 1.371 . S
C679 H682 0.926 1_554 S
C680 C679 1.371 . S
C680 C686 1.428 . S
H681 C677 0.930 . S
H682 C679 0.926 1_556 S
S683 N684 1.613 . S
S683 N685 1.610 . S
N684 S683 1.613 . S
N684 C687 1.350 . S
N685 S683 1.610 . S
N685 C686 1.351 . S
C686 C680 1.428 . S
C686 N685 1.351 . S
C686 C687 1.434 . S
C687 C678 1.428 . S
C687 N684 1.350 . S
C687 C686 1.434 . S
C688 C689 1.368 1_556 S
C688 C690 1.419 . S
C688 H692 0.930 . S
C689 C688 1.368 1_554 S
C689 C698 1.430 . S
C690 C688 1.419 . S
C690 C691 1.363 1_556 S
C690 H693 0.929 . S
C691 C690 1.363 1_554 S
C691 C697 1.428 . S
H692 C688 0.930 . S
H693 C690 0.929 . S
S694 N695 1.613 . S
S694 N696 1.610 . S
N695 S694 1.613 . S
N695 C698 1.350 . S
N696 S694 1.610 . S
N696 C697 1.351 . S
C697 C691 1.428 . S
C697 N696 1.351 . S
C697 C698 1.434 . S
C698 C689 1.430 . S
C698 N695 1.350 . S
C698 C697 1.434 . S
C699 C700 1.369 . S
C699 C701 1.419 . S
C699 H703 0.930 . S
C700 C699 1.369 . S
C700 C709 1.429 . S
C701 C699 1.419 . S
C701 C702 1.363 . S
C701 H704 0.929 . S
C702 C701 1.363 . S
C702 C708 1.428 . S
H703 C699 0.930 . S
H704 C701 0.929 . S
S705 N706 1.613 . S
S705 N707 1.610 . S
N706 S705 1.613 . S
N706 C709 1.350 . S
N707 S705 1.610 . S
N707 C708 1.351 . S
C708 C702 1.428 . S
C708 N707 1.351 . S
C708 C709 1.434 . S
C709 C700 1.429 . S
C709 N706 1.350 . S
C709 C708 1.434 . S
C710 C711 1.369 . S
C710 C712 1.419 . S
C710 H714 0.930 . S
C711 C710 1.369 . S
C711 C720 1.429 . S
C712 C710 1.419 . S
C712 C713 1.363 . S
C712 H715 0.929 . S
C713 C712 1.363 . S
C713 C719 1.428 . S
H714 C710 0.930 . S
H715 C712 0.929 . S
S716 N717 1.613 . S
S716 N718 1.610 . S
N717 S716 1.613 . S
N717 C720 1.350 . S
N718 S716 1.610 . S
N718 C719 1.351 . S
C719 C713 1.428 . S
C719 N718 1.351 . S
C719 C720 1.434 . S
C720 C711 1.429 . S
C720 N717 1.350 . S
C720 C719 1.434 . S
C721 C722 1.369 . S
C721 C723 1.419 . S
C721 H725 0.930 . S
C722 C721 1.369 . S
C722 C731 1.429 . S
C723 C721 1.419 . S
C723 C724 1.363 . S
C723 H726 0.929 . S
C724 C723 1.363 . S
C724 C730 1.428 . S
H725 C721 0.930 . S
H726 C723 0.929 . S
S727 N728 1.613 . S
S727 N729 1.610 . S
N728 S727 1.613 . S
N728 C731 1.350 . S
N729 S727 1.610 . S
N729 C730 1.351 . S
C730 C724 1.428 . S
C730 N729 1.351 . S
C730 C731 1.434 . S
C731 C722 1.429 . S
C731 N728 1.350 . S
C731 C730 1.434 . S
C732 C733 1.370 . S
C732 C734 1.419 1_554 S
C732 H736 0.930 . S
C733 C732 1.370 . S
C733 C742 1.426 1_554 S
C734 C732 1.419 1_556 S
C734 C735 1.363 . S
C734 H737 0.929 . S
C735 C734 1.363 . S
C735 C741 1.428 . S
H736 C732 0.930 . S
H737 C734 0.929 . S
S738 N739 1.613 . S
S738 N740 1.610 . S
N739 S738 1.613 . S
N739 C742 1.350 . S
N740 S738 1.610 . S
N740 C741 1.351 . S
C741 C735 1.428 . S
C741 N740 1.351 . S
C741 C742 1.434 . S
C742 C733 1.426 1_556 S
C742 N739 1.350 . S
C742 C741 1.434 . S
C743 C744 1.369 . S
C743 C745 1.419 . S
C743 H747 0.930 . S
C744 C743 1.369 . S
C744 C753 1.429 1_556 S
C745 C743 1.419 . S
C745 C746 1.359 1_556 S
C745 H748 0.929 . S
C746 C745 1.359 1_554 S
C746 C752 1.431 . S
H747 C743 0.930 . S
H748 C745 0.929 . S
S749 N750 1.613 . S
S749 N751 1.610 . S
N750 S749 1.613 . S
N750 C753 1.350 . S
N751 S749 1.610 . S
N751 C752 1.351 . S
C752 C746 1.431 . S
C752 N751 1.351 . S
C752 C753 1.434 . S
C753 C744 1.429 1_554 S
C753 N750 1.350 . S
C753 C752 1.434 . S
C754 C755 1.359 1_556 S
C754 C756 1.419 . S
C754 H758 0.930 . S
C755 C754 1.359 1_554 S
C755 C764 1.436 . S
C756 C754 1.419 . S
C756 C757 1.363 . S
C756 H759 0.929 . S
C757 C756 1.363 . S
C757 C763 1.428 1_556 S
H758 C754 0.930 . S
H759 C756 0.929 . S
S760 N761 1.613 . S
S760 N762 1.610 . S
N761 S760 1.613 . S
N761 C764 1.350 . S
N762 S760 1.610 . S
N762 C763 1.351 . S
C763 C757 1.428 1_554 S
C763 N762 1.351 . S
C763 C764 1.434 . S
C764 C755 1.436 . S
C764 N761 1.350 . S
C764 C763 1.434 . S
C765 C766 1.369 . S
C765 C767 1.419 . S
C765 H769 0.930 . S
C766 C765 1.369 . S
C766 C775 1.429 . S
C767 C765 1.419 . S
C767 C768 1.363 . S
C767 H770 0.929 . S
C768 C767 1.363 . S
C768 C774 1.428 . S
H769 C765 0.930 . S
H770 C767 0.929 . S
S771 N772 1.613 . S
S771 N773 1.610 . S
N772 S771 1.613 . S
N772 C775 1.350 . S
N773 S771 1.610 . S
N773 C774 1.351 . S
C774 C768 1.428 . S
C774 N773 1.351 . S
C774 C775 1.434 . S
C775 C766 1.429 . S
C775 N772 1.350 . S
C775 C774 1.434 . S
C776 C777 1.369 . S
C776 C778 1.419 . S
C776 H780 0.930 . S
C777 C776 1.369 . S
C777 C786 1.429 . S
C778 C776 1.419 . S
C778 C779 1.363 . S
C778 H781 0.929 . S
C779 C778 1.363 . S
C779 C785 1.428 . S
H780 C776 0.930 . S
H781 C778 0.929 . S
S782 N783 1.613 . S
S782 N784 1.610 . S
N783 S782 1.613 . S
N783 C786 1.350 . S
N784 S782 1.610 . S
N784 C785 1.351 . S
C785 C779 1.428 . S
C785 N784 1.351 . S
C785 C786 1.434 . S
C786 C777 1.429 . S
C786 N783 1.350 . S
C786 C785 1.434 . S
C787 C788 1.369 . S
C787 C789 1.419 . S
C787 H791 0.930 . S
C788 C787 1.369 . S
C788 C797 1.429 . S
C789 C787 1.419 . S
C789 C790 1.363 . S
C789 H792 0.929 . S
C790 C789 1.363 . S
C790 C796 1.428 . S
H791 C787 0.930 . S
H792 C789 0.929 . S
S793 N794 1.613 . S
S793 N795 1.610 . S
N794 S793 1.613 . S
N794 C797 1.350 . S
N795 S793 1.610 . S
N795 C796 1.351 . S
C796 C790 1.428 . S
C796 N795 1.351 . S
C796 C797 1.434 . S
C797 C788 1.429 . S
C797 N794 1.350 . S
C797 C796 1.434 . S
C798 C799 1.369 . S
C798 C800 1.419 . S
C798 H802 0.930 . S
C799 C798 1.369 . S
C799 C808 1.429 . S
C800 C798 1.419 . S
C800 C801 1.363 . S
C800 H803 0.929 . S
C801 C800 1.363 . S
C801 C807 1.428 . S
H802 C798 0.930 . S
H803 C800 0.929 . S
S804 N805 1.613 . S
S804 N806 1.610 . S
N805 S804 1.613 . S
N805 C808 1.350 . S
N806 S804 1.610 . S
N806 C807 1.351 . S
C807 C801 1.428 . S
C807 N806 1.351 . S
C807 C808 1.434 . S
C808 C799 1.429 . S
C808 N805 1.350 . S
C808 C807 1.434 . S
C809 C810 1.369 . S
C809 C811 1.419 . S
C809 H813 0.930 . S
C810 C809 1.369 . S
C810 C819 1.429 . S
C811 C809 1.419 . S
C811 C812 1.363 . S
C811 H814 0.929 . S
C812 C811 1.363 . S
C812 C818 1.428 . S
H813 C809 0.930 . S
H814 C811 0.929 . S
S815 N816 1.613 . S
S815 N817 1.610 . S
N816 S815 1.613 . S
N816 C819 1.350 . S
N817 S815 1.610 . S
N817 C818 1.351 . S
C818 C812 1.428 . S
C818 N817 1.351 . S
C818 C819 1.434 . S
C819 C810 1.429 . S
C819 N816 1.350 . S
C819 C818 1.434 . S
C820 C821 1.369 . S
C820 C822 1.419 . S
C820 H824 0.930 . S
C821 C820 1.369 . S
C821 C830 1.429 . S
C822 C820 1.419 . S
C822 C823 1.363 . S
C822 H825 0.929 . S
C823 C822 1.363 . S
C823 C829 1.428 . S
H824 C820 0.930 . S
H825 C822 0.929 . S
S826 N827 1.613 . S
S826 N828 1.610 . S
N827 S826 1.613 . S
N827 C830 1.350 . S
N828 S826 1.610 . S
N828 C829 1.351 . S
C829 C823 1.428 . S
C829 N828 1.351 . S
C829 C830 1.434 . S
C830 C821 1.429 . S
C830 N827 1.350 . S
C830 C829 1.434 . S
C831 C832 1.369 . S
C831 C833 1.419 . S
C831 H835 0.930 . S
C832 C831 1.369 . S
C832 C841 1.429 . S
C833 C831 1.419 . S
C833 C834 1.363 . S
C833 H836 0.929 . S
C834 C833 1.363 . S
C834 C840 1.428 . S
H835 C831 0.930 . S
H836 C833 0.929 . S
S837 N838 1.613 . S
S837 N839 1.610 . S
N838 S837 1.613 . S
N838 C841 1.350 . S
N839 S837 1.610 . S
N839 C840 1.351 . S
C840 C834 1.428 . S
C840 N839 1.351 . S
C840 C841 1.434 . S
C841 C832 1.429 . S
C841 N838 1.350 . S
C841 C840 1.434 . S
C842 C843 1.369 . S
C842 C844 1.419 . S
C842 H846 0.930 . S
C843 C842 1.369 . S
C843 C852 1.429 . S
C844 C842 1.419 . S
C844 C845 1.363 . S
C844 H847 0.929 . S
C845 C844 1.363 . S
C845 C851 1.428 . S
H846 C842 0.930 . S
H847 C844 0.929 . S
S848 N849 1.613 . S
S848 N850 1.610 . S
N849 S848 1.613 . S
N849 C852 1.350 . S
N850 S848 1.610 . S
N850 C851 1.351 . S
C851 C845 1.428 . S
C851 N850 1.351 . S
C851 C852 1.434 . S
C852 C843 1.429 . S
C852 N849 1.350 . S
C852 C851 1.434 . S
C853 C854 1.369 . S
C853 C855 1.419 . S
C853 H857 0.930 . S
C854 C853 1.369 . S
C854 C863 1.429 . S
C855 C853 1.419 . S
C855 C856 1.363 . S
C855 H858 0.929 . S
C856 C855 1.363 . S
C856 C862 1.428 . S
H857 C853 0.930 . S
H858 C855 0.929 . S
S859 N860 1.613 . S
S859 N861 1.610 . S
N860 S859 1.613 . S
N860 C863 1.350 . S
N861 S859 1.610 . S
N861 C862 1.351 . S
C862 C856 1.428 . S
C862 N861 1.351 . S
C862 C863 1.434 . S
C863 C854 1.429 . S
C863 N860 1.350 . S
C863 C862 1.434 . S
C864 C865 1.369 . S
C864 C866 1.419 . S
C864 H868 0.930 . S
C865 C864 1.369 . S
C865 C874 1.429 . S
C866 C864 1.419 . S
C866 C867 1.363 . S
C866 H869 0.929 . S
C867 C866 1.363 . S
C867 C873 1.428 . S
H868 C864 0.930 . S
H869 C866 0.929 . S
S870 N871 1.613 . S
S870 N872 1.610 . S
N871 S870 1.613 . S
N871 C874 1.350 . S
N872 S870 1.610 . S
N872 C873 1.351 . S
C873 C867 1.428 . S
C873 N872 1.351 . S
C873 C874 1.434 . S
C874 C865 1.429 . S
C874 N871 1.350 . S
C874 C873 1.434 . S
C875 C876 1.369 . S
C875 C877 1.419 . S
C875 H879 0.930 . S
C876 C875 1.369 . S
C876 C885 1.429 . S
C877 C875 1.419 . S
C877 C878 1.363 . S
C877 H880 0.929 . S
C878 C877 1.363 . S
C878 C884 1.428 . S
H879 C875 0.930 . S
H880 C877 0.929 . S
S881 N882 1.613 . S
S881 N883 1.610 . S
N882 S881 1.613 . S
N882 C885 1.350 . S
N883 S881 1.610 . S
N883 C884 1.351 . S
C884 C878 1.428 . S
C884 N883 1.351 . S
C884 C885 1.434 . S
C885 C876 1.429 . S
C885 N882 1.350 . S
C885 C884 1.434 . S
C886 C887 1.369 . S
C886 C888 1.419 . S
C886 H890 0.930 . S
C887 C886 1.369 . S
C887 C896 1.429 . S
C888 C886 1.419 . S
C888 C889 1.363 . S
C888 H891 0.929 . S
C889 C888 1.363 . S
C889 C895 1.428 . S
H890 C886 0.930 . S
H891 C888 0.929 . S
S892 N893 1.613 . S
S892 N894 1.610 . S
N893 S892 1.613 . S
N893 C896 1.350 . S
N894 S892 1.610 . S
N894 C895 1.351 . S
C895 C889 1.428 . S
C895 N894 1.351 . S
C895 C896 1.434 . S
C896 C887 1.429 . S
C896 N893 1.350 . S
C896 C895 1.434 . S
C897 C898 1.369 . S
C897 C899 1.419 . S
C897 H901 0.930 . S
C898 C897 1.369 . S
C898 C907 1.429 . S
C899 C897 1.419 . S
C899 C900 1.363 . S
C899 H902 0.929 . S
C900 C899 1.363 . S
C900 C906 1.428 . S
H901 C897 0.930 . S
H902 C899 0.929 . S
S903 N904 1.613 . S
S903 N905 1.610 . S
N904 S903 1.613 . S
N904 C907 1.350 . S
N905 S903 1.610 . S
N905 C906 1.351 . S
C906 C900 1.428 . S
C906 N905 1.351 . S
C906 C907 1.434 . S
C907 C898 1.429 . S
C907 N904 1.350 . S
C907 C906 1.434 . S
C908 C909 1.369 . S
C908 C910 1.419 . S
C908 H912 0.930 . S
C909 C908 1.369 . S
C909 C918 1.429 . S
C910 C908 1.419 . S
C910 C911 1.363 . S
C910 H913 0.929 . S
C911 C910 1.363 . S
C911 C917 1.428 . S
H912 C908 0.930 . S
H913 C910 0.929 . S
S914 N915 1.613 . S
S914 N916 1.610 . S
N915 S914 1.613 . S
N915 C918 1.350 . S
N916 S914 1.610 . S
N916 C917 1.351 . S
C917 C911 1.428 . S
C917 N916 1.351 . S
C917 C918 1.434 . S
C918 C909 1.429 . S
C918 N915 1.350 . S
C918 C917 1.434 . S
C919 C920 1.369 . S
C919 C921 1.419 . S
C919 H923 0.930 . S
C920 C919 1.369 . S
C920 C929 1.429 . S
C921 C919 1.419 . S
C921 C922 1.363 . S
C921 H924 0.929 . S
C922 C921 1.363 . S
C922 C928 1.428 . S
H923 C919 0.930 . S
H924 C921 0.929 . S
S925 N926 1.613 . S
S925 N927 1.610 . S
N926 S925 1.613 . S
N926 C929 1.350 . S
N927 S925 1.610 . S
N927 C928 1.351 . S
C928 C922 1.428 . S
C928 N927 1.351 . S
C928 C929 1.434 . S
C929 C920 1.429 . S
C929 N926 1.350 . S
C929 C928 1.434 . S
C930 C931 1.369 . S
C930 C932 1.419 . S
C930 H934 0.930 . S
C931 C930 1.369 . S
C931 C940 1.429 . S
C932 C930 1.419 . S
C932 C933 1.363 . S
C932 H935 0.929 . S
C933 C932 1.363 . S
C933 C939 1.428 . S
H934 C930 0.930 . S
H935 C932 0.929 . S
S936 N937 1.613 . S
S936 N938 1.610 . S
N937 S936 1.613 . S
N937 C940 1.350 . S
N938 S936 1.610 . S
N938 C939 1.351 . S
C939 C933 1.428 . S
C939 N938 1.351 . S
C939 C940 1.434 . S
C940 C931 1.429 . S
C940 N937 1.350 . S
C940 C939 1.434 . S
C941 C942 1.369 . S
C941 C943 1.419 . S
C941 H945 0.930 . S
C942 C941 1.369 . S
C942 C951 1.429 . S
C943 C941 1.419 . S
C943 C944 1.363 . S
C943 H946 0.929 . S
C944 C943 1.363 . S
C944 C950 1.428 . S
H945 C941 0.930 . S
H946 C943 0.929 . S
S947 N948 1.613 . S
S947 N949 1.610 . S
N948 S947 1.613 . S
N948 C951 1.350 . S
N949 S947 1.610 . S
N949 C950 1.351 . S
C950 C944 1.428 . S
C950 N949 1.351 . S
C950 C951 1.434 . S
C951 C942 1.429 . S
C951 N948 1.350 . S
C951 C950 1.434 . S
C952 C953 1.369 . S
C952 C954 1.419 . S
C952 H956 0.930 . S
C953 C952 1.369 . S
C953 C962 1.429 . S
C954 C952 1.419 . S
C954 C955 1.363 . S
C954 H957 0.929 . S
C955 C954 1.363 . S
C955 C961 1.428 . S
H956 C952 0.930 . S
H957 C954 0.929 . S
S958 N959 1.613 . S
S958 N960 1.610 . S
N959 S958 1.613 . S
N959 C962 1.350 . S
N960 S958 1.610 . S
N960 C961 1.351 . S
C961 C955 1.428 . S
C961 N960 1.351 . S
C961 C962 1.434 . S
C962 C953 1.429 . S
C962 N959 1.350 . S
C962 C961 1.434 . S
C963 C964 1.369 . S
C963 C965 1.419 . S
C963 H967 0.930 . S
C964 C963 1.369 . S
C964 C973 1.429 . S
C965 C963 1.419 . S
C965 C966 1.363 . S
C965 H968 0.929 . S
C966 C965 1.363 . S
C966 C972 1.428 . S
H967 C963 0.930 . S
H968 C965 0.929 . S
S969 N970 1.613 . S
S969 N971 1.610 . S
N970 S969 1.613 . S
N970 C973 1.350 . S
N971 S969 1.610 . S
N971 C972 1.351 . S
C972 C966 1.428 . S
C972 N971 1.351 . S
C972 C973 1.434 . S
C973 C964 1.429 . S
C973 N970 1.350 . S
C973 C972 1.434 . S
C974 C975 1.369 . S
C974 C976 1.419 . S
C974 H978 0.930 . S
C975 C974 1.369 . S
C975 C984 1.429 . S
C976 C974 1.419 . S
C976 C977 1.363 . S
C976 H979 0.929 . S
C977 C976 1.363 . S
C977 C983 1.428 . S
H978 C974 0.930 . S
H979 C976 0.929 . S
S980 N981 1.613 . S
S980 N982 1.610 . S
N981 S980 1.613 . S
N981 C984 1.350 . S
N982 S980 1.610 . S
N982 C983 1.351 . S
C983 C977 1.428 . S
C983 N982 1.351 . S
C983 C984 1.434 . S
C984 C975 1.429 . S
C984 N981 1.350 . S
C984 C983 1.434 . S
C985 C986 1.369 . S
C985 C987 1.419 . S
C985 H989 0.930 . S
C986 C985 1.369 . S
C986 C995 1.429 . S
C987 C985 1.419 . S
C987 C988 1.363 . S
C987 H990 0.929 . S
C988 C987 1.363 . S
C988 C994 1.428 . S
H989 C985 0.930 . S
H990 C987 0.929 . S
S991 N992 1.613 . S
S991 N993 1.610 . S
N992 S991 1.613 . S
N992 C995 1.350 . S
N993 S991 1.610 . S
N993 C994 1.351 . S
C994 C988 1.428 . S
C994 N993 1.351 . S
C994 C995 1.434 . S
C995 C986 1.429 . S
C995 N992 1.350 . S
C995 C994 1.434 . S
C996 C997 1.369 . S
C996 C998 1.419 . S
C996 H1000 0.930 . S
C997 C996 1.369 . S
C997 C1006 1.429 . S
C998 C996 1.419 . S
C998 C999 1.363 . S
C998 H1001 0.929 . S
C999 C998 1.363 . S
C999 C1005 1.428 . S
H1000 C996 0.930 . S
H1001 C998 0.929 . S
S1002 N1003 1.613 . S
S1002 N1004 1.610 . S
N1003 S1002 1.613 . S
N1003 C1006 1.350 . S
N1004 S1002 1.610 . S
N1004 C1005 1.351 . S
C1005 C999 1.428 . S
C1005 N1004 1.351 . S
C1005 C1006 1.434 . S
C1006 C997 1.429 . S
C1006 N1003 1.350 . S
C1006 C1005 1.434 . S
C1007 C1008 1.369 . S
C1007 C1009 1.419 . S
C1007 H1011 0.930 . S
C1008 C1007 1.369 . S
C1008 C1017 1.429 . S
C1009 C1007 1.419 . S
C1009 C1010 1.363 . S
C1009 H1012 0.929 . S
C1010 C1009 1.363 . S
C1010 C1016 1.428 . S
H1011 C1007 0.930 . S
H1012 C1009 0.929 . S
S1013 N1014 1.613 . S
S1013 N1015 1.610 . S
N1014 S1013 1.613 . S
N1014 C1017 1.350 . S
N1015 S1013 1.610 . S
N1015 C1016 1.351 . S
C1016 C1010 1.428 . S
C1016 N1015 1.351 . S
C1016 C1017 1.434 . S
C1017 C1008 1.429 . S
C1017 N1014 1.350 . S
C1017 C1016 1.434 . S
C1018 C1019 1.369 . S
C1018 C1020 1.419 . S
C1018 H1022 0.930 . S
C1019 C1018 1.369 . S
C1019 C1028 1.429 . S
C1020 C1018 1.419 . S
C1020 C1021 1.363 . S
C1020 H1023 0.929 . S
C1021 C1020 1.363 . S
C1021 C1027 1.428 . S
H1022 C1018 0.930 . S
H1023 C1020 0.929 . S
S1024 N1025 1.613 . S
S1024 N1026 1.610 . S
N1025 S1024 1.613 . S
N1025 C1028 1.350 . S
N1026 S1024 1.610 . S
N1026 C1027 1.351 . S
C1027 C1021 1.428 . S
C1027 N1026 1.351 . S
C1027 C1028 1.434 . S
C1028 C1019 1.429 . S
C1028 N1025 1.350 . S
C1028 C1027 1.434 . S
C1029 C1030 1.369 . S
C1029 C1031 1.419 . S
C1029 H1033 0.930 . S
C1030 C1029 1.369 . S
C1030 C1039 1.429 . S
C1031 C1029 1.419 . S
C1031 C1032 1.363 . S
C1031 H1034 0.929 . S
C1032 C1031 1.363 . S
C1032 C1038 1.428 . S
H1033 C1029 0.930 . S
H1034 C1031 0.929 . S
S1035 N1036 1.613 . S
S1035 N1037 1.610 . S
N1036 S1035 1.613 . S
N1036 C1039 1.350 . S
N1037 S1035 1.610 . S
N1037 C1038 1.351 . S
C1038 C1032 1.428 . S
C1038 N1037 1.351 . S
C1038 C1039 1.434 . S
C1039 C1030 1.429 . S
C1039 N1036 1.350 . S
C1039 C1038 1.434 . S
C1040 C1041 1.369 . S
C1040 C1042 1.419 . S
C1040 H1044 0.930 . S
C1041 C1040 1.369 . S
C1041 C1050 1.429 . S
C1042 C1040 1.419 . S
C1042 C1043 1.363 . S
C1042 H1045 0.929 . S
C1043 C1042 1.363 . S
C1043 C1049 1.428 . S
H1044 C1040 0.930 . S
H1045 C1042 0.929 . S
S1046 N1047 1.613 . S
S1046 N1048 1.610 . S
N1047 S1046 1.613 . S
N1047 C1050 1.350 . S
N1048 S1046 1.610 . S
N1048 C1049 1.351 . S
C1049 C1043 1.428 . S
C1049 N1048 1.351 . S
C1049 C1050 1.434 . S
C1050 C1041 1.429 . S
C1050 N1047 1.350 . S
C1050 C1049 1.434 . S
C1051 C1052 1.369 . S
C1051 C1053 1.419 . S
C1051 H1055 0.930 . S
C1052 C1051 1.369 . S
C1052 C1061 1.429 . S
C1053 C1051 1.419 . S
C1053 C1054 1.363 . S
C1053 H1056 0.929 . S
C1054 C1053 1.363 . S
C1054 C1060 1.428 . S
H1055 C1051 0.930 . S
H1056 C1053 0.929 . S
S1057 N1058 1.613 . S
S1057 N1059 1.610 . S
N1058 S1057 1.613 . S
N1058 C1061 1.350 . S
N1059 S1057 1.610 . S
N1059 C1060 1.351 . S
C1060 C1054 1.428 . S
C1060 N1059 1.351 . S
C1060 C1061 1.434 . S
C1061 C1052 1.429 . S
C1061 N1058 1.350 . S
C1061 C1060 1.434 . S
C1062 C1063 1.369 . S
C1062 C1064 1.419 . S
C1062 H1066 0.930 . S
C1063 C1062 1.369 . S
C1063 C1072 1.429 . S
C1064 C1062 1.419 . S
C1064 C1065 1.363 . S
C1064 H1067 0.929 . S
C1065 C1064 1.363 . S
C1065 C1071 1.428 . S
H1066 C1062 0.930 . S
H1067 C1064 0.929 . S
S1068 N1069 1.613 . S
S1068 N1070 1.610 . S
N1069 S1068 1.613 . S
N1069 C1072 1.350 . S
N1070 S1068 1.610 . S
N1070 C1071 1.351 . S
C1071 C1065 1.428 . S
C1071 N1070 1.351 . S
C1071 C1072 1.434 . S
C1072 C1063 1.429 . S
C1072 N1069 1.350 . S
C1072 C1071 1.434 . S
C1073 C1074 1.369 . S
C1073 C1075 1.419 . S
C1073 H1077 0.930 . S
C1074 C1073 1.369 . S
C1074 C1083 1.429 1_545 S
C1075 C1073 1.419 . S
C1075 C1076 1.363 1_545 S
C1075 H1078 0.929 . S
C1076 C1075 1.363 1_565 S
C1076 C1082 1.428 . S
H1077 C1073 0.930 . S
H1078 C1075 0.929 . S
S1079 N1080 1.613 . S
S1079 N1081 1.610 . S
N1080 S1079 1.613 . S
N1080 C1083 1.350 . S
N1081 S1079 1.610 . S
N1081 C1082 1.351 . S
C1082 C1076 1.428 . S
C1082 N1081 1.351 . S
C1082 C1083 1.434 . S
C1083 C1074 1.429 1_565 S
C1083 N1080 1.350 . S
C1083 C1082 1.434 . S
C1084 C1085 1.377 1_655 S
C1084 C1086 1.424 . S
C1084 H1088 0.918 . S
C1085 C1084 1.377 1_455 S
C1085 C1094 1.429 . S
C1086 C1084 1.424 . S
C1086 C1087 1.363 . S
C1086 H1089 0.929 . S
C1087 C1086 1.363 . S
C1087 C1093 1.434 1_655 S
H1088 C1084 0.918 . S
H1089 C1086 0.929 . S
S1090 N1091 1.613 . S
S1090 N1092 1.605 . S
N1091 S1090 1.613 . S
N1091 C1094 1.350 . S
N1092 S1090 1.605 . S
N1092 C1093 1.357 . S
C1093 C1087 1.434 1_455 S
C1093 N1092 1.357 . S
C1093 C1094 1.437 . S
C1094 C1085 1.429 . S
C1094 N1091 1.350 . S
C1094 C1093 1.437 . S
C1095 C1096 1.369 . S
C1095 C1097 1.419 . S
C1095 H1099 0.930 . S
C1096 C1095 1.369 . S
C1096 C1105 1.429 . S
C1097 C1095 1.419 . S
C1097 C1098 1.363 . S
C1097 H1100 0.929 . S
C1098 C1097 1.363 . S
C1098 C1104 1.428 . S
H1099 C1095 0.930 . S
H1100 C1097 0.929 . S
S1101 N1102 1.613 . S
S1101 N1103 1.610 . S
N1102 S1101 1.613 . S
N1102 C1105 1.350 . S
N1103 S1101 1.610 . S
N1103 C1104 1.351 . S
C1104 C1098 1.428 . S
C1104 N1103 1.351 . S
C1104 C1105 1.434 . S
C1105 C1096 1.429 . S
C1105 N1102 1.350 . S
C1105 C1104 1.434 . S
C1106 C1107 1.369 1_565 S
C1106 C1108 1.419 . S
C1106 H1110 0.930 . S
C1107 C1106 1.369 1_545 S
C1107 C1116 1.429 . S
C1108 C1106 1.419 . S
C1108 C1109 1.363 . S
C1108 H1111 0.929 . S
C1109 C1108 1.363 . S
C1109 C1115 1.428 1_565 S
H1110 C1106 0.930 . S
H1111 C1108 0.929 . S
S1112 N1113 1.613 . S
S1112 N1114 1.610 . S
N1113 S1112 1.613 . S
N1113 C1116 1.350 . S
N1114 S1112 1.610 . S
N1114 C1115 1.351 . S
C1115 C1109 1.428 1_545 S
C1115 N1114 1.351 . S
C1115 C1116 1.434 . S
C1116 C1107 1.429 . S
C1116 N1113 1.350 . S
C1116 C1115 1.434 . S
C1117 C1118 1.369 1_455 S
C1117 C1119 1.419 . S
C1117 H1121 0.930 . S
C1118 C1117 1.369 1_655 S
C1118 C1127 1.429 . S
C1119 C1117 1.419 . S
C1119 C1120 1.363 . S
C1119 H1122 0.929 . S
C1120 C1119 1.363 . S
C1120 C1126 1.428 1_455 S
H1121 C1117 0.930 . S
H1122 C1119 0.929 . S
S1123 N1124 1.613 . S
S1123 N1125 1.610 . S
N1124 S1123 1.613 . S
N1124 C1127 1.350 . S
N1125 S1123 1.610 . S
N1125 C1126 1.351 . S
C1126 C1120 1.428 1_655 S
C1126 N1125 1.351 . S
C1126 C1127 1.434 . S
C1127 C1118 1.429 . S
C1127 N1124 1.350 . S
C1127 C1126 1.434 . S
C1128 C1129 1.369 . S
C1128 C1130 1.419 . S
C1128 H1132 0.930 . S
C1129 C1128 1.369 . S
C1129 C1138 1.429 . S
C1130 C1128 1.419 . S
C1130 C1131 1.363 . S
C1130 H1133 0.929 . S
C1131 C1130 1.363 . S
C1131 C1137 1.428 . S
H1132 C1128 0.930 . S
H1133 C1130 0.929 . S
S1134 N1135 1.613 . S
S1134 N1136 1.610 . S
N1135 S1134 1.613 . S
N1135 C1138 1.350 . S
N1136 S1134 1.610 . S
N1136 C1137 1.351 . S
C1137 C1131 1.428 . S
C1137 N1136 1.351 . S
C1137 C1138 1.434 . S
C1138 C1129 1.429 . S
C1138 N1135 1.350 . S
C1138 C1137 1.434 . S
C1139 C1140 1.369 . S
C1139 C1141 1.419 . S
C1139 H1143 0.930 . S
C1140 C1139 1.369 . S
C1140 C1149 1.429 . S
C1141 C1139 1.419 . S
C1141 C1142 1.363 . S
C1141 H1144 0.929 . S
C1142 C1141 1.363 . S
C1142 C1148 1.428 . S
H1143 C1139 0.930 . S
H1144 C1141 0.929 . S
S1145 N1146 1.613 . S
S1145 N1147 1.610 . S
N1146 S1145 1.613 . S
N1146 C1149 1.350 . S
N1147 S1145 1.610 . S
N1147 C1148 1.351 . S
C1148 C1142 1.428 . S
C1148 N1147 1.351 . S
C1148 C1149 1.434 . S
C1149 C1140 1.429 . S
C1149 N1146 1.350 . S
C1149 C1148 1.434 . S
C1150 C1151 1.369 . S
C1150 C1152 1.419 . S
C1150 H1154 0.930 . S
C1151 C1150 1.369 . S
C1151 C1160 1.429 . S
C1152 C1150 1.419 . S
C1152 C1153 1.363 . S
C1152 H1155 0.929 . S
C1153 C1152 1.363 . S
C1153 C1159 1.428 . S
H1154 C1150 0.930 . S
H1155 C1152 0.929 . S
S1156 N1157 1.613 . S
S1156 N1158 1.610 . S
N1157 S1156 1.613 . S
N1157 C1160 1.350 . S
N1158 S1156 1.610 . S
N1158 C1159 1.351 . S
C1159 C1153 1.428 . S
C1159 N1158 1.351 . S
C1159 C1160 1.434 . S
C1160 C1151 1.429 . S
C1160 N1157 1.350 . S
C1160 C1159 1.434 . S
C1161 C1162 1.369 . S
C1161 C1163 1.419 . S
C1161 H1165 0.930 . S
C1162 C1161 1.369 . S
C1162 C1171 1.429 . S
C1163 C1161 1.419 . S
C1163 C1164 1.363 . S
C1163 H1166 0.929 . S
C1164 C1163 1.363 . S
C1164 C1170 1.428 . S
H1165 C1161 0.930 . S
H1166 C1163 0.929 . S
S1167 N1168 1.613 . S
S1167 N1169 1.610 . S
N1168 S1167 1.613 . S
N1168 C1171 1.350 . S
N1169 S1167 1.610 . S
N1169 C1170 1.351 . S
C1170 C1164 1.428 . S
C1170 N1169 1.351 . S
C1170 C1171 1.434 . S
C1171 C1162 1.429 . S
C1171 N1168 1.350 . S
C1171 C1170 1.434 . S
C1172 C1173 1.369 . S
C1172 C1174 1.419 . S
C1172 H1176 0.930 . S
C1173 C1172 1.369 . S
C1173 C1182 1.429 . S
C1174 C1172 1.419 . S
C1174 C1175 1.363 . S
C1174 H1177 0.929 . S
C1175 C1174 1.363 . S
C1175 C1181 1.428 . S
H1176 C1172 0.930 . S
H1177 C1174 0.929 . S
S1178 N1179 1.613 . S
S1178 N1180 1.610 . S
N1179 S1178 1.613 . S
N1179 C1182 1.350 . S
N1180 S1178 1.610 . S
N1180 C1181 1.351 . S
C1181 C1175 1.428 . S
C1181 N1180 1.351 . S
C1181 C1182 1.434 . S
C1182 C1173 1.429 . S
C1182 N1179 1.350 . S
C1182 C1181 1.434 . S
C1183 C1184 1.369 . S
C1183 C1185 1.419 . S
C1183 H1187 0.930 . S
C1184 C1183 1.369 . S
C1184 C1193 1.429 . S
C1185 C1183 1.419 . S
C1185 C1186 1.363 . S
C1185 H1188 0.929 . S
C1186 C1185 1.363 . S
C1186 C1192 1.428 . S
H1187 C1183 0.930 . S
H1188 C1185 0.929 . S
S1189 N1190 1.613 . S
S1189 N1191 1.610 . S
N1190 S1189 1.613 . S
N1190 C1193 1.350 . S
N1191 S1189 1.610 . S
N1191 C1192 1.351 . S
C1192 C1186 1.428 . S
C1192 N1191 1.351 . S
C1192 C1193 1.434 . S
C1193 C1184 1.429 . S
C1193 N1190 1.350 . S
C1193 C1192 1.434 . S
C1194 C1195 1.369 . S
C1194 C1196 1.419 . S
C1194 H1198 0.930 . S
C1195 C1194 1.369 . S
C1195 C1204 1.429 . S
C1196 C1194 1.419 . S
C1196 C1197 1.363 . S
C1196 H1199 0.929 . S
C1197 C1196 1.363 . S
C1197 C1203 1.428 . S
H1198 C1194 0.930 . S
H1199 C1196 0.929 . S
S1200 N1201 1.613 . S
S1200 N1202 1.610 . S
N1201 S1200 1.613 . S
N1201 C1204 1.350 . S
N1202 S1200 1.610 . S
N1202 C1203 1.351 . S
C1203 C1197 1.428 . S
C1203 N1202 1.351 . S
C1203 C1204 1.434 . S
C1204 C1195 1.429 . S
C1204 N1201 1.350 . S
C1204 C1203 1.434 . S
C1205 C1206 1.369 . S
C1205 C1207 1.419 . S
C1205 H1209 0.930 . S
C1206 C1205 1.369 . S
C1206 C1215 1.429 . S
C1207 C1205 1.419 . S
C1207 C1208 1.363 . S
C1207 H1210 0.929 . S
C1208 C1207 1.363 . S
C1208 C1214 1.428 . S
H1209 C1205 0.930 . S
H1210 C1207 0.929 . S
S1211 N1212 1.613 . S
S1211 N1213 1.610 . S
N1212 S1211 1.613 . S
N1212 C1215 1.350 . S
N1213 S1211 1.610 . S
N1213 C1214 1.351 . S
C1214 C1208 1.428 . S
C1214 N1213 1.351 . S
C1214 C1215 1.434 . S
C1215 C1206 1.429 . S
C1215 N1212 1.350 . S
C1215 C1214 1.434 . S
C1216 C1217 1.369 . S
C1216 C1218 1.419 . S
C1216 H1220 0.930 . S
C1217 C1216 1.369 . S
C1217 C1226 1.429 . S
C1218 C1216 1.419 . S
C1218 C1219 1.363 . S
C1218 H1221 0.929 . S
C1219 C1218 1.363 . S
C1219 C1225 1.428 . S
H1220 C1216 0.930 . S
H1221 C1218 0.929 . S
S1222 N1223 1.613 . S
S1222 N1224 1.610 . S
N1223 S1222 1.613 . S
N1223 C1226 1.350 . S
N1224 S1222 1.610 . S
N1224 C1225 1.351 . S
C1225 C1219 1.428 . S
C1225 N1224 1.351 . S
C1225 C1226 1.434 . S
C1226 C1217 1.429 . S
C1226 N1223 1.350 . S
C1226 C1225 1.434 . S
C1227 C1228 1.369 . S
C1227 C1229 1.419 . S
C1227 H1231 0.930 . S
C1228 C1227 1.369 . S
C1228 C1237 1.429 . S
C1229 C1227 1.419 . S
C1229 C1230 1.363 . S
C1229 H1232 0.929 . S
C1230 C1229 1.363 . S
C1230 C1236 1.428 . S
H1231 C1227 0.930 . S
H1232 C1229 0.929 . S
S1233 N1234 1.613 . S
S1233 N1235 1.610 . S
N1234 S1233 1.613 . S
N1234 C1237 1.350 . S
N1235 S1233 1.610 . S
N1235 C1236 1.351 . S
C1236 C1230 1.428 . S
C1236 N1235 1.351 . S
C1236 C1237 1.434 . S
C1237 C1228 1.429 . S
C1237 N1234 1.350 . S
C1237 C1236 1.434 . S
C1238 C1239 1.369 . S
C1238 C1240 1.419 . S
C1238 H1242 0.930 . S
C1239 C1238 1.369 . S
C1239 C1248 1.429 . S
C1240 C1238 1.419 . S
C1240 C1241 1.363 . S
C1240 H1243 0.929 . S
C1241 C1240 1.363 . S
C1241 C1247 1.428 . S
H1242 C1238 0.930 . S
H1243 C1240 0.929 . S
S1244 N1245 1.613 . S
S1244 N1246 1.610 . S
N1245 S1244 1.613 . S
N1245 C1248 1.350 . S
N1246 S1244 1.610 . S
N1246 C1247 1.351 . S
C1247 C1241 1.428 . S
C1247 N1246 1.351 . S
C1247 C1248 1.434 . S
C1248 C1239 1.429 . S
C1248 N1245 1.350 . S
C1248 C1247 1.434 . S
C1249 C1250 1.369 . S
C1249 C1251 1.419 . S
C1249 H1253 0.930 . S
C1250 C1249 1.369 . S
C1250 C1259 1.429 . S
C1251 C1249 1.419 . S
C1251 C1252 1.363 . S
C1251 H1254 0.929 . S
C1252 C1251 1.363 . S
C1252 C1258 1.428 . S
H1253 C1249 0.930 . S
H1254 C1251 0.929 . S
S1255 N1256 1.613 . S
S1255 N1257 1.610 . S
N1256 S1255 1.613 . S
N1256 C1259 1.350 . S
N1257 S1255 1.610 . S
N1257 C1258 1.351 . S
C1258 C1252 1.428 . S
C1258 N1257 1.351 . S
C1258 C1259 1.434 . S
C1259 C1250 1.429 . S
C1259 N1256 1.350 . S
C1259 C1258 1.434 . S
C469 C208 1.385 . S
C471 C0 1.386 . S
C480 C221 1.388 . S
C482 C13 1.383 . S
C491 C26 1.388 . S
C493 C195 1.382 . S
C502 C338 1.386 . S
C504 C39 1.385 . S
C513 C312 1.382 . S
C515 C52 1.387 . S
C524 C65 1.388 . S
C526 C325 1.382 . S
C535 C442 1.384 . S
C537 C78 1.384 . S
C546 C455 1.385 . S
C548 C91 1.385 . S
C557 C429 1.387 . S
C559 C104 1.382 . S
C568 C260 1.381 . S
C570 C117 1.387 . S
C579 C130 1.388 . S
C581 C234 1.382 . S
C590 C247 1.383 . S
C592 C143 1.385 . S
C601 C364 1.381 . S
C603 C156 1.387 . S
C612 C169 1.383 . S
C614 C377 1.387 . S
C623 C351 1.385 . S
C625 C182 1.383 . S
C634 C416 1.382 . S
C636 C273 1.387 . S
C645 C390 1.382 . S
C647 C286 1.387 . S
C656 C299 1.388 . S
C658 C403 1.383 . S
C667 C101 1.364 . S
C669 C8 1.368 . S
C678 C114 1.368 1_554 S
C680 C21 1.363 . S
C689 C88 1.362 1_554 S
C691 C34 1.363 . S
C700 C47 1.369 . S
C702 C153 1.362 . S
C711 C127 1.360 . S
C713 C60 1.368 . S
C722 C73 1.362 . S
C724 C140 1.364 . S
C733 C23 1.370 . S
C735 C86 1.365 . S
C744 C99 1.364 . S
C746 C36 1.369 . S
C755 C10 1.363 . S
C757 C112 1.367 . S
C766 C75 1.365 . S
C768 C125 1.367 . S
C777 C49 1.364 . S
C779 C138 1.363 . S
C788 C151 1.369 . S
C790 C62 1.363 . S
C799 C164 1.367 . S
C801 C257 1.361 . S
C810 C270 1.368 . S
C812 C177 1.364 . S
C821 C244 1.361 . S
C823 C190 1.365 . S
C832 C203 1.369 . S
C834 C309 1.362 . S
C843 C283 1.364 . S
C845 C216 1.363 . S
C854 C229 1.364 . S
C856 C296 1.367 . S
C865 C242 1.369 . S
C867 C179 1.363 . S
C876 C255 1.368 . S
C878 C192 1.365 . S
C887 C166 1.360 . S
C889 C268 1.366 . S
C898 C231 1.360 . S
C900 C281 1.367 . S
C909 C205 1.368 . S
C911 C294 1.364 . S
C920 C307 1.369 . S
C922 C218 1.364 . S
C931 C413 1.367 . S
C933 C320 1.363 . S
C942 C333 1.367 . S
C944 C426 1.366 . S
C953 C346 1.363 . S
C955 C400 1.367 . S
C964 C465 1.361 . S
C966 C359 1.368 . S
C975 C372 1.369 . S
C977 C439 1.363 . S
C986 C452 1.360 . S
C988 C385 1.366 . S
C997 C335 1.360 . S
C999 C398 1.367 . S
C1008 C348 1.363 . S
C1010 C411 1.364 . S
C1019 C424 1.363 . S
C1021 C322 1.363 . S
C1030 C437 1.365 . S
C1032 C387 1.367 . S
C1041 C361 1.360 . S
C1043 C450 1.368 . S
C1052 C374 1.366 . S
C1054 C463 1.363 . S
C1063 C5 1.374 . S
C1065 C44 1.377 . S
C1074 C18 1.377 . S
C1076 C57 1.376 . S
C1085 C70 1.369 . S
C1087 C31 1.371 . S
C1096 C83 1.378 . S
C1098 C122 1.373 . S
C1107 C135 1.378 . S
C1109 C96 1.375 . S
C1118 C148 1.377 . S
C1120 C109 1.371 . S
C1129 C161 1.373 . S
C1131 C200 1.376 . S
C1140 C174 1.378 . S
C1142 C213 1.375 . S
C1151 C226 1.376 . S
C1153 C187 1.377 . S
C1162 C239 1.374 . S
C1164 C278 1.377 1_554 S
C1173 C252 1.375 . S
C1175 C291 1.370 1_554 S
C1184 C265 1.378 . S
C1186 C304 1.374 1_554 S
C1195 C356 1.377 1_556 S
C1197 C317 1.376 . S
C1206 C369 1.377 1_556 S
C1208 C330 1.372 . S
C1217 C382 1.374 1_556 S
C1219 C343 1.370 . S
C1228 C395 1.377 . S
C1230 C434 1.375 . S
C1239 C447 1.376 . S
C1241 C408 1.371 . S
C1250 C460 1.374 . S
C1252 C421 1.377 . S
