# Generated by pormake.
# Topology wgr, (5)-cn, num edge types: 1
# Building blocks:
#     Node 0, Type 0, BuildingBlock: BEQFEK_clean_sbu_0, # of connection points: 5
#     Node 1, Type 0, BuildingBlock: BEQFEK_clean_sbu_0, # of connection points: 5
#     Node 2, Type 0, BuildingBlock: BEQFEK_clean_sbu_0, # of connection points: 5
#     Node 3, Type 0, BuildingBlock: BEQFEK_clean_sbu_0, # of connection points: 5
#     Node 4, Type 0, BuildingBlock: BEQFEK_clean_sbu_0, # of connection points: 5
#     Node 5, Type 0, BuildingBlock: BEQFEK_clean_sbu_0, # of connection points: 5
#     Node 6, Type 0, BuildingBlock: BEQFEK_clean_sbu_0, # of connection points: 5
#     Node 7, Type 0, BuildingBlock: BEQFEK_clean_sbu_0, # of connection points: 5
#     Node 8, Type 0, BuildingBlock: BEQFEK_clean_sbu_0, # of connection points: 5
#     Node 9, Type 0, BuildingBlock: BEQFEK_clean_sbu_0, # of connection points: 5
#     Node 10, Type 0, BuildingBlock: BEQFEK_clean_sbu_0, # of connection points: 5
#     Node 11, Type 0, BuildingBlock: BEQFEK_clean_sbu_0, # of connection points: 5
#     Node 12, Type 0, BuildingBlock: BEQFEK_clean_sbu_0, # of connection points: 5
#     Node 13, Type 0, BuildingBlock: BEQFEK_clean_sbu_0, # of connection points: 5
#     Node 14, Type 0, BuildingBlock: BEQFEK_clean_sbu_0, # of connection points: 5
#     Node 15, Type 0, BuildingBlock: BEQFEK_clean_sbu_0, # of connection points: 5
#     Node 16, Type 0, BuildingBlock: BEQFEK_clean_sbu_0, # of connection points: 5
#     Node 17, Type 0, BuildingBlock: BEQFEK_clean_sbu_0, # of connection points: 5
#     Node 18, Type 0, BuildingBlock: BEQFEK_clean_sbu_0, # of connection points: 5
#     Node 19, Type 0, BuildingBlock: BEQFEK_clean_sbu_0, # of connection points: 5
#     Node 20, Type 0, BuildingBlock: BEQFEK_clean_sbu_0, # of connection points: 5
#     Node 21, Type 0, BuildingBlock: BEQFEK_clean_sbu_0, # of connection points: 5
#     Node 22, Type 0, BuildingBlock: BEQFEK_clean_sbu_0, # of connection points: 5
#     Node 23, Type 0, BuildingBlock: BEQFEK_clean_sbu_0, # of connection points: 5
#     Node 24, Type 0, BuildingBlock: BEQFEK_clean_sbu_0, # of connection points: 5
#     Node 25, Type 0, BuildingBlock: BEQFEK_clean_sbu_0, # of connection points: 5
#     Node 26, Type 0, BuildingBlock: BEQFEK_clean_sbu_0, # of connection points: 5
#     Node 27, Type 0, BuildingBlock: BEQFEK_clean_sbu_0, # of connection points: 5
#     Node 28, Type 0, BuildingBlock: BEQFEK_clean_sbu_0, # of connection points: 5
#     Node 29, Type 0, BuildingBlock: BEQFEK_clean_sbu_0, # of connection points: 5
#     Node 30, Type 0, BuildingBlock: BEQFEK_clean_sbu_0, # of connection points: 5
#     Node 31, Type 0, BuildingBlock: BEQFEK_clean_sbu_0, # of connection points: 5
#     Edge 32, Type (0, 0), BuildingBlock: KIFKEQ_clean_linker_1, # of connection points: 2
#     Edge 33, Type (0, 0), BuildingBlock: KIFKEQ_clean_linker_1, # of connection points: 2
#     Edge 34, Type (0, 0), BuildingBlock: KIFKEQ_clean_linker_1, # of connection points: 2
#     Edge 35, Type (0, 0), BuildingBlock: KIFKEQ_clean_linker_1, # of connection points: 2
#     Edge 36, Type (0, 0), BuildingBlock: KIFKEQ_clean_linker_1, # of connection points: 2
#     Edge 37, Type (0, 0), BuildingBlock: KIFKEQ_clean_linker_1, # of connection points: 2
#     Edge 38, Type (0, 0), BuildingBlock: KIFKEQ_clean_linker_1, # of connection points: 2
#     Edge 39, Type (0, 0), BuildingBlock: KIFKEQ_clean_linker_1, # of connection points: 2
#     Edge 40, Type (0, 0), BuildingBlock: KIFKEQ_clean_linker_1, # of connection points: 2
#     Edge 41, Type (0, 0), BuildingBlock: KIFKEQ_clean_linker_1, # of connection points: 2
#     Edge 42, Type (0, 0), BuildingBlock: KIFKEQ_clean_linker_1, # of connection points: 2
#     Edge 43, Type (0, 0), BuildingBlock: KIFKEQ_clean_linker_1, # of connection points: 2
#     Edge 44, Type (0, 0), BuildingBlock: KIFKEQ_clean_linker_1, # of connection points: 2
#     Edge 45, Type (0, 0), BuildingBlock: KIFKEQ_clean_linker_1, # of connection points: 2
#     Edge 46, Type (0, 0), BuildingBlock: KIFKEQ_clean_linker_1, # of connection points: 2
#     Edge 47, Type (0, 0), BuildingBlock: KIFKEQ_clean_linker_1, # of connection points: 2
#     Edge 48, Type (0, 0), BuildingBlock: KIFKEQ_clean_linker_1, # of connection points: 2
#     Edge 49, Type (0, 0), BuildingBlock: KIFKEQ_clean_linker_1, # of connection points: 2
#     Edge 50, Type (0, 0), BuildingBlock: KIFKEQ_clean_linker_1, # of connection points: 2
#     Edge 51, Type (0, 0), BuildingBlock: KIFKEQ_clean_linker_1, # of connection points: 2
#     Edge 52, Type (0, 0), BuildingBlock: KIFKEQ_clean_linker_1, # of connection points: 2
#     Edge 53, Type (0, 0), BuildingBlock: KIFKEQ_clean_linker_1, # of connection points: 2
#     Edge 54, Type (0, 0), BuildingBlock: KIFKEQ_clean_linker_1, # of connection points: 2
#     Edge 55, Type (0, 0), BuildingBlock: KIFKEQ_clean_linker_1, # of connection points: 2
#     Edge 56, Type (0, 0), BuildingBlock: KIFKEQ_clean_linker_1, # of connection points: 2
#     Edge 57, Type (0, 0), BuildingBlock: KIFKEQ_clean_linker_1, # of connection points: 2
#     Edge 58, Type (0, 0), BuildingBlock: KIFKEQ_clean_linker_1, # of connection points: 2
#     Edge 59, Type (0, 0), BuildingBlock: KIFKEQ_clean_linker_1, # of connection points: 2
#     Edge 60, Type (0, 0), BuildingBlock: KIFKEQ_clean_linker_1, # of connection points: 2
#     Edge 61, Type (0, 0), BuildingBlock: KIFKEQ_clean_linker_1, # of connection points: 2
#     Edge 62, Type (0, 0), BuildingBlock: KIFKEQ_clean_linker_1, # of connection points: 2
#     Edge 63, Type (0, 0), BuildingBlock: KIFKEQ_clean_linker_1, # of connection points: 2
#     Edge 64, Type (0, 0), BuildingBlock: KIFKEQ_clean_linker_1, # of connection points: 2
#     Edge 65, Type (0, 0), BuildingBlock: KIFKEQ_clean_linker_1, # of connection points: 2
#     Edge 66, Type (0, 0), BuildingBlock: KIFKEQ_clean_linker_1, # of connection points: 2
#     Edge 67, Type (0, 0), BuildingBlock: KIFKEQ_clean_linker_1, # of connection points: 2
#     Edge 68, Type (0, 0), BuildingBlock: KIFKEQ_clean_linker_1, # of connection points: 2
#     Edge 69, Type (0, 0), BuildingBlock: KIFKEQ_clean_linker_1, # of connection points: 2
#     Edge 70, Type (0, 0), BuildingBlock: KIFKEQ_clean_linker_1, # of connection points: 2
#     Edge 71, Type (0, 0), BuildingBlock: KIFKEQ_clean_linker_1, # of connection points: 2
#     Edge 72, Type (0, 0), BuildingBlock: KIFKEQ_clean_linker_1, # of connection points: 2
#     Edge 73, Type (0, 0), BuildingBlock: KIFKEQ_clean_linker_1, # of connection points: 2
#     Edge 74, Type (0, 0), BuildingBlock: KIFKEQ_clean_linker_1, # of connection points: 2
#     Edge 75, Type (0, 0), BuildingBlock: KIFKEQ_clean_linker_1, # of connection points: 2
#     Edge 76, Type (0, 0), BuildingBlock: KIFKEQ_clean_linker_1, # of connection points: 2
#     Edge 77, Type (0, 0), BuildingBlock: KIFKEQ_clean_linker_1, # of connection points: 2
#     Edge 78, Type (0, 0), BuildingBlock: KIFKEQ_clean_linker_1, # of connection points: 2
#     Edge 79, Type (0, 0), BuildingBlock: KIFKEQ_clean_linker_1, # of connection points: 2
#     Edge 80, Type (0, 0), BuildingBlock: KIFKEQ_clean_linker_1, # of connection points: 2
#     Edge 81, Type (0, 0), BuildingBlock: KIFKEQ_clean_linker_1, # of connection points: 2
#     Edge 82, Type (0, 0), BuildingBlock: KIFKEQ_clean_linker_1, # of connection points: 2
#     Edge 83, Type (0, 0), BuildingBlock: KIFKEQ_clean_linker_1, # of connection points: 2
#     Edge 84, Type (0, 0), BuildingBlock: KIFKEQ_clean_linker_1, # of connection points: 2
#     Edge 85, Type (0, 0), BuildingBlock: KIFKEQ_clean_linker_1, # of connection points: 2
#     Edge 86, Type (0, 0), BuildingBlock: KIFKEQ_clean_linker_1, # of connection points: 2
#     Edge 87, Type (0, 0), BuildingBlock: KIFKEQ_clean_linker_1, # of connection points: 2
#     Edge 88, Type (0, 0), BuildingBlock: KIFKEQ_clean_linker_1, # of connection points: 2
#     Edge 89, Type (0, 0), BuildingBlock: KIFKEQ_clean_linker_1, # of connection points: 2
#     Edge 90, Type (0, 0), BuildingBlock: KIFKEQ_clean_linker_1, # of connection points: 2
#     Edge 91, Type (0, 0), BuildingBlock: KIFKEQ_clean_linker_1, # of connection points: 2
#     Edge 92, Type (0, 0), BuildingBlock: KIFKEQ_clean_linker_1, # of connection points: 2
#     Edge 93, Type (0, 0), BuildingBlock: KIFKEQ_clean_linker_1, # of connection points: 2
#     Edge 94, Type (0, 0), BuildingBlock: KIFKEQ_clean_linker_1, # of connection points: 2
#     Edge 95, Type (0, 0), BuildingBlock: KIFKEQ_clean_linker_1, # of connection points: 2
#     Edge 96, Type (0, 0), BuildingBlock: KIFKEQ_clean_linker_1, # of connection points: 2
#     Edge 97, Type (0, 0), BuildingBlock: KIFKEQ_clean_linker_1, # of connection points: 2
#     Edge 98, Type (0, 0), BuildingBlock: KIFKEQ_clean_linker_1, # of connection points: 2
#     Edge 99, Type (0, 0), BuildingBlock: KIFKEQ_clean_linker_1, # of connection points: 2
#     Edge 100, Type (0, 0), BuildingBlock: KIFKEQ_clean_linker_1, # of connection points: 2
#     Edge 101, Type (0, 0), BuildingBlock: KIFKEQ_clean_linker_1, # of connection points: 2
#     Edge 102, Type (0, 0), BuildingBlock: KIFKEQ_clean_linker_1, # of connection points: 2
#     Edge 103, Type (0, 0), BuildingBlock: KIFKEQ_clean_linker_1, # of connection points: 2
#     Edge 104, Type (0, 0), BuildingBlock: KIFKEQ_clean_linker_1, # of connection points: 2
#     Edge 105, Type (0, 0), BuildingBlock: KIFKEQ_clean_linker_1, # of connection points: 2
#     Edge 106, Type (0, 0), BuildingBlock: KIFKEQ_clean_linker_1, # of connection points: 2
#     Edge 107, Type (0, 0), BuildingBlock: KIFKEQ_clean_linker_1, # of connection points: 2
#     Edge 108, Type (0, 0), BuildingBlock: KIFKEQ_clean_linker_1, # of connection points: 2
#     Edge 109, Type (0, 0), BuildingBlock: KIFKEQ_clean_linker_1, # of connection points: 2
#     Edge 110, Type (0, 0), BuildingBlock: KIFKEQ_clean_linker_1, # of connection points: 2
#     Edge 111, Type (0, 0), BuildingBlock: KIFKEQ_clean_linker_1, # of connection points: 2
# Relax obj value: 0.176
# Max RMSD: 0.224
# Mean RMSD: 0.224
data_MOF--net-wgr--node1-BEQFEK_clean_sbu_0--edge1-KIFKEQ_clean_linker_1
_symmetry_space_group_name_H-M    P1
_symmetry_Int_Tables_number       1
_symmetry_cell_setting            triclinic
loop_
_symmetry_equiv_pos_as_xyz
'x, y, z'
_cell_length_a     28.020941
_cell_length_b     28.026508
_cell_length_c     155.98371
_cell_angle_alpha  89.986489
_cell_angle_beta   89.992313
_cell_angle_gamma 89.983814
loop_
_atom_site_label
_atom_site_type_symbol
_atom_site_fract_x
_atom_site_fract_y
_atom_site_fract_z
_atom_type_partial_charge
Co0 Co 0.34233 0.03522 0.20395 0.0
Co1 Co 0.34127 0.03211 0.18375 0.0
C2 C 0.26032 0.07434 0.19329 0.0
O3 O 0.28119 0.06524 0.20038 0.0
O4 O 0.27863 0.06197 0.18615 0.0
C5 C 0.31948 0.05431 0.22156 0.0
O6 O 0.29933 0.09266 0.21834 0.0
C7 C 0.31695 0.01326 0.16556 0.0
C8 C 0.38869 0.0143 0.15969 0.0
C9 C 0.34076 0.00821 0.15776 0.0
N10 N 0.34949 0.02192 0.17172 0.0
N11 N 0.3922 0.0227 0.16814 0.0
C12 C 0.26487 0.00682 0.16734 0.0
H13 H 0.24584 0.04063 0.16592 0.0
H14 H 0.25899 0.99796 0.17419 0.0
H15 H 0.24982 0.97808 0.16327 0.0
C16 C 0.35726 0.932 0.20152 0.0
N17 N 0.35217 0.97632 0.19834 0.0
N18 N 0.34997 0.97418 0.18993 0.0
C19 C 0.35278 0.92807 0.18748 0.0
C20 C 0.35745 0.89964 0.19477 0.0
C21 C 0.36147 0.92112 0.21088 0.0
H22 H 0.38677 0.94647 0.21391 0.0
H23 H 0.32611 0.92586 0.21397 0.0
H24 H 0.37425 0.88416 0.21199 0.0
O25 O 0.39326 0.08144 0.20123 0.0
O26 O 0.38945 0.08084 0.18701 0.0
H27 H 0.37651 0.92361 0.17449 0.0
H28 H 0.34221 0.87245 0.17794 0.0
C29 C 0.34581 0.9117 0.17843 0.0
H30 H 0.31314 0.92831 0.17578 0.0
H31 H 0.42384 0.02863 0.17151 0.0
O32 O 0.34029 0.0252 0.21655 0.0
C33 C 0.40664 0.09732 0.19397 0.0
Co34 Co 0.21546 0.08581 0.45426 0.0
Co35 Co 0.21025 0.08629 0.43399 0.0
C36 C 0.17161 0.00495 0.44436 0.0
O37 O 0.18419 0.02456 0.45137 0.0
O38 O 0.18057 0.02441 0.43715 0.0
C39 C 0.20041 0.0671 0.47202 0.0
O40 O 0.16092 0.04803 0.46905 0.0
C41 C 0.22896 0.05901 0.41582 0.0
C42 C 0.21477 0.12758 0.40932 0.0
C43 C 0.22901 0.08097 0.40779 0.0
N44 N 0.21596 0.09151 0.42175 0.0
N45 N 0.20731 0.13226 0.41779 0.0
C46 C 0.23908 0.00777 0.41784 0.0
H47 H 0.22262 0.99734 0.424 0.0
H48 H 0.27817 0.00249 0.41841 0.0
H49 H 0.22544 0.9843 0.41266 0.0
C50 C 0.31841 0.09654 0.45031 0.0
N51 N 0.2724 0.09393 0.44784 0.0
N52 N 0.27017 0.09583 0.43942 0.0
C53 C 0.31463 0.10133 0.43628 0.0
C54 C 0.34687 0.10145 0.44305 0.0
C55 C 0.33453 0.08908 0.45937 0.0
H56 H 0.31429 0.05915 0.46227 0.0
H57 H 0.37318 0.08099 0.45976 0.0
H58 H 0.32679 0.12173 0.46314 0.0
O59 O 0.1677 0.13693 0.45188 0.0
O60 O 0.16396 0.13502 0.43765 0.0
H61 H 0.30026 0.13227 0.42399 0.0
H62 H 0.36261 0.12164 0.42603 0.0
C63 C 0.32606 0.10734 0.42697 0.0
H64 H 0.32325 0.07234 0.42371 0.0
H65 H 0.19667 0.16348 0.42089 0.0
O66 O 0.22952 0.08616 0.46679 0.0
C67 C 0.14972 0.15135 0.44483 0.0
Co68 Co 0.159 0.96652 0.70462 0.0
Co69 Co 0.15952 0.96935 0.68442 0.0
C70 C 0.24057 0.92707 0.69386 0.0
O71 O 0.21988 0.93637 0.70095 0.0
O72 O 0.22215 0.93929 0.68672 0.0
C73 C 0.18279 0.94791 0.7222 0.0
O74 O 0.20333 0.90971 0.719 0.0
C75 C 0.1823 0.98582 0.66606 0.0
C76 C 0.11022 5e-05 0.6609 0.0
C77 C 0.15792 0.99801 0.65861 0.0
N78 N 0.1503 0.98097 0.67244 0.0
N79 N 0.1073 0.98901 0.66927 0.0
C80 C 0.23517 0.98337 0.66731 0.0
H81 H 0.2469 0.94572 0.66666 0.0
H82 H 0.24474 0.99587 0.67383 0.0
H83 H 0.25418 0.00525 0.66246 0.0
C84 C 0.14304 0.06949 0.70218 0.0
N85 N 0.14889 0.02522 0.69903 0.0
N86 N 0.15165 0.0273 0.69063 0.0
C87 C 0.14893 0.07339 0.68816 0.0
C88 C 0.14313 0.10177 0.69542 0.0
C89 C 0.13734 0.08029 0.71153 0.0
H90 H 0.1128 0.05395 0.71448 0.0
H91 H 0.17252 0.07712 0.71474 0.0
H92 H 0.12291 0.11671 0.71257 0.0
O93 O 0.10786 0.92062 0.70204 0.0
O94 O 0.11122 0.9207 0.6878 0.0
H95 H 0.12427 0.08455 0.67536 0.0
H96 H 0.16722 0.12828 0.67892 0.0
C97 C 0.15726 0.09003 0.67917 0.0
H98 H 0.1863 0.06887 0.67621 0.0
H99 H 0.07602 0.98826 0.6729 0.0
O100 O 0.16157 0.9767 0.71719 0.0
C101 C 0.09421 0.90455 0.69481 0.0
Co102 Co 0.27966 0.91034 0.95411 0.0
Co103 Co 0.28455 0.91063 0.93385 0.0
C104 C 0.32266 0.99197 0.94423 0.0
O105 O 0.31069 0.97175 0.95123 0.0
O106 O 0.31326 0.973 0.937 0.0
C107 C 0.29474 0.9293 0.97189 0.0
O108 O 0.33346 0.94972 0.96887 0.0
C109 C 0.26319 0.93799 0.91591 0.0
C110 C 0.29232 0.87601 0.90888 0.0
C111 C 0.27016 0.91968 0.90772 0.0
N112 N 0.28026 0.90633 0.92163 0.0
N113 N 0.29753 0.86938 0.91737 0.0
C114 C 0.24418 0.98618 0.91822 0.0
H115 H 0.26326 0.01403 0.9145 0.0
H116 H 0.24818 0.99297 0.92519 0.0
H117 H 0.20583 0.98849 0.91654 0.0
C118 C 0.17675 0.89841 0.9502 0.0
N119 N 0.22264 0.90197 0.9477 0.0
N120 N 0.22474 0.89996 0.93927 0.0
C121 C 0.18037 0.89319 0.93617 0.0
C122 C 0.14826 0.89253 0.94297 0.0
C123 C 0.16066 0.90565 0.95926 0.0
H124 H 0.18147 0.93492 0.96224 0.0
H125 H 0.12219 0.91464 0.95965 0.0
H126 H 0.16747 0.87254 0.96297 0.0
O127 O 0.32758 0.85946 0.95165 0.0
O128 O 0.33127 0.86238 0.93744 0.0
H129 H 0.19727 0.86415 0.92381 0.0
H130 H 0.1342 0.86744 0.92609 0.0
C131 C 0.16899 0.88581 0.92689 0.0
H132 H 0.16713 0.92089 0.92364 0.0
H133 H 0.31342 0.8398 0.92026 0.0
O134 O 0.26606 0.90941 0.96667 0.0
C135 C 0.34558 0.84559 0.94456 0.0
Co136 Co 0.34122 0.96794 0.30197 0.0
Co137 Co 0.34149 0.96821 0.32224 0.0
C138 C 0.26015 0.92671 0.31243 0.0
O139 O 0.28006 0.93763 0.30535 0.0
O140 O 0.27929 0.93743 0.3196 0.0
C141 C 0.30375 0.99 0.28528 0.0
O142 O 0.26369 0.99619 0.28951 0.0
C143 C 0.31868 0.97515 0.34088 0.0
C144 C 0.38638 0.00457 0.34584 0.0
C145 C 0.34075 0.99151 0.34833 0.0
N146 N 0.3496 0.97954 0.33431 0.0
N147 N 0.39014 0.99655 0.33736 0.0
C148 C 0.27052 0.95264 0.34004 0.0
H149 H 0.27269 0.92194 0.33559 0.0
H150 H 0.24513 0.97903 0.33733 0.0
H151 H 0.25708 0.93962 0.34631 0.0
C152 C 0.35616 0.07099 0.30483 0.0
N153 N 0.35111 0.02615 0.30779 0.0
N154 N 0.34797 0.02709 0.3162 0.0
C155 C 0.34896 0.07297 0.31884 0.0
C156 C 0.35462 0.10238 0.31172 0.0
C157 C 0.36264 0.08335 0.29557 0.0
H158 H 0.38561 0.05634 0.29241 0.0
H159 H 0.32735 0.08339 0.29235 0.0
H160 H 0.37917 0.11908 0.29482 0.0
O161 O 0.39119 0.92133 0.30466 0.0
O162 O 0.39157 0.92093 0.3189 0.0
H163 H 0.3719 0.08913 0.33157 0.0
H164 H 0.32252 0.1249 0.32794 0.0
C165 C 0.33829 0.08861 0.32782 0.0
H166 H 0.31295 0.06352 0.33088 0.0
H167 H 0.42015 0.00363 0.33361 0.0
O168 O 0.34112 0.97789 0.28936 0.0
C169 C 0.40685 0.90512 0.31174 0.0
Co170 Co 0.28393 0.09319 0.55256 0.0
Co171 Co 0.27923 0.08895 0.57281 0.0
C172 C 0.32282 0.00986 0.56308 0.0
O173 O 0.31468 0.03213 0.55609 0.0
O174 O 0.3091 0.02651 0.57028 0.0
C175 C 0.26488 0.05559 0.53579 0.0
O176 O 0.25827 0.01572 0.54006 0.0
C177 C 0.26968 0.06846 0.59157 0.0
C178 C 0.24124 0.13771 0.59601 0.0
C179 C 0.25357 0.09251 0.59884 0.0
N180 N 0.26606 0.09803 0.58478 0.0
N181 N 0.24948 0.13943 0.58753 0.0
C182 C 0.29117 0.01968 0.59111 0.0
H183 H 0.32074 0.01947 0.5864 0.0
H184 H 0.26363 0.99395 0.58893 0.0
H185 H 0.30532 0.00827 0.59742 0.0
C186 C 0.18015 0.10793 0.55487 0.0
N187 N 0.22441 0.10179 0.55804 0.0
N188 N 0.22189 0.09725 0.56642 0.0
C189 C 0.17563 0.09867 0.56881 0.0
C190 C 0.14758 0.106 0.56158 0.0
C191 C 0.16945 0.11577 0.54557 0.0
H192 H 0.19735 0.13864 0.54265 0.0
H193 H 0.16943 0.08089 0.54221 0.0
H194 H 0.13408 0.13293 0.5447 0.0
O195 O 0.32898 0.14421 0.55564 0.0
O196 O 0.32824 0.13762 0.56982 0.0
H197 H 0.15712 0.12034 0.58152 0.0
H198 H 0.12198 0.07145 0.57751 0.0
C199 C 0.15832 0.08712 0.57766 0.0
H200 H 0.18281 0.06143 0.5808 0.0
H201 H 0.24323 0.16878 0.58356 0.0
O202 O 0.27617 0.09319 0.53987 0.0
C203 C 0.34466 0.15627 0.56298 0.0
Co204 Co 0.15483 0.03538 0.80239 0.0
Co205 Co 0.15816 0.03475 0.82258 0.0
C206 C 0.23759 0.07643 0.81261 0.0
O207 O 0.21584 0.06684 0.80564 0.0
O208 O 0.22041 0.06421 0.81985 0.0
C209 C 0.1931 0.01274 0.78587 0.0
O210 O 0.23276 0.00682 0.79024 0.0
C211 C 0.18483 0.02013 0.84078 0.0
C212 C 0.11378 0.01962 0.84695 0.0
C213 C 0.16209 0.01586 0.84866 0.0
N214 N 0.15129 0.02577 0.83468 0.0
N215 N 0.10897 0.02549 0.83843 0.0
C216 C 0.23733 0.0226 0.83906 0.0
H217 H 0.247 0.99655 0.83399 0.0
H218 H 0.25881 0.01598 0.8449 0.0
H219 H 0.24614 0.05865 0.83658 0.0
C220 C 0.13998 0.93221 0.80534 0.0
N221 N 0.14591 0.97699 0.80826 0.0
N222 N 0.1493 0.97606 0.81666 0.0
C223 C 0.14687 0.93036 0.81935 0.0
C224 C 0.14084 0.9009 0.81225 0.0
C225 C 0.13332 0.91973 0.79608 0.0
H226 H 0.11036 0.94676 0.79293 0.0
H227 H 0.16855 0.9196 0.79284 0.0
H228 H 0.11671 0.88401 0.79536 0.0
O229 O 0.10367 0.08115 0.80506 0.0
O230 O 0.10942 0.08294 0.81926 0.0
H231 H 0.12369 0.92481 0.83236 0.0
H232 H 0.16212 0.87648 0.829 0.0
C233 C 0.15531 0.9153 0.82844 0.0
H234 H 0.18649 0.93472 0.83105 0.0
H235 H 0.07674 0.02948 0.83515 0.0
O236 O 0.15533 0.02497 0.78982 0.0
C237 C 0.09118 0.09812 0.81228 0.0
Co238 Co 0.21147 0.90588 0.05263 0.0
Co239 Co 0.20919 0.90306 0.0729 0.0
C240 C 0.169 0.98561 0.06295 0.0
O241 O 0.17961 0.96686 0.05575 0.0
O242 O 0.17993 0.96525 0.06999 0.0
C243 C 0.22816 0.9426 0.03559 0.0
O244 O 0.22596 0.98415 0.03947 0.0
C245 C 0.23235 0.9302 0.09079 0.0
C246 C 0.20652 0.86685 0.09784 0.0
C247 C 0.22752 0.91111 0.09897 0.0
N248 N 0.21527 0.89839 0.0851 0.0
N249 N 0.19991 0.86066 0.08937 0.0
C250 C 0.24968 0.97905 0.08847 0.0
H251 H 0.23434 0.00586 0.09293 0.0
H252 H 0.24014 0.98801 0.08177 0.0
H253 H 0.28904 0.98058 0.08908 0.0
C254 C 0.31541 0.89461 0.0562 0.0
N255 N 0.26959 0.89719 0.05882 0.0
N256 N 0.26818 0.89344 0.06723 0.0
C257 C 0.31279 0.88659 0.0702 0.0
C258 C 0.34446 0.88781 0.06335 0.0
C259 C 0.33082 0.90375 0.04716 0.0
H260 H 0.31758 0.87454 0.043 0.0
H261 H 0.31459 0.93754 0.04489 0.0
H262 H 0.37009 0.90656 0.04654 0.0
O263 O 0.16428 0.8543 0.05519 0.0
O264 O 0.16255 0.85472 0.06943 0.0
H265 H 0.29716 0.85493 0.08241 0.0
H266 H 0.36002 0.85947 0.08 0.0
C267 C 0.32493 0.87754 0.0794 0.0
H268 H 0.32664 0.91195 0.08287 0.0
H269 H 0.18451 0.83076 0.0865 0.0
O270 O 0.22345 0.9047 0.04 0.0
C271 C 0.14743 0.83902 0.06228 0.0
Co272 Co 0.65729 0.96899 0.80322 0.0
Co273 Co 0.65891 0.97192 0.82344 0.0
C274 C 0.73945 0.92952 0.81376 0.0
O275 O 0.71846 0.93822 0.80667 0.0
O276 O 0.7214 0.94256 0.82089 0.0
C277 C 0.67757 0.94927 0.78554 0.0
O278 O 0.69597 0.90988 0.78869 0.0
C279 C 0.68506 0.9899 0.84154 0.0
C280 C 0.61455 0.98479 0.84783 0.0
C281 C 0.66252 0.99219 0.84946 0.0
N282 N 0.65173 0.98169 0.8355 0.0
N283 N 0.60971 0.97877 0.83932 0.0
C284 C 0.73752 0.99115 0.83975 0.0
H285 H 0.75091 0.95395 0.83935 0.0
H286 H 0.74433 0.00853 0.83347 0.0
H287 H 0.75748 0.00979 0.84488 0.0
C288 C 0.64146 0.07221 0.80579 0.0
N289 N 0.64758 0.02786 0.8089 0.0
N290 N 0.64991 0.02978 0.81731 0.0
C291 C 0.6464 0.07571 0.81983 0.0
C292 C 0.64082 0.1043 0.81258 0.0
C293 C 0.63601 0.08325 0.79645 0.0
H294 H 0.61127 0.05719 0.79347 0.0
H295 H 0.67121 0.07977 0.79325 0.0
H296 H 0.62192 0.1198 0.79542 0.0
O297 O 0.60624 0.92297 0.80598 0.0
O298 O 0.61056 0.92332 0.8202 0.0
H299 H 0.62213 0.08078 0.83278 0.0
H300 H 0.65817 0.13091 0.8294 0.0
C301 C 0.6534 0.09179 0.82889 0.0
H302 H 0.68542 0.0742 0.8316 0.0
H303 H 0.57773 0.97215 0.83611 0.0
O304 O 0.65877 0.97936 0.79061 0.0
C305 C 0.59306 0.90704 0.81326 0.0
Co306 Co 0.78276 0.90468 0.5532 0.0
Co307 Co 0.78183 0.90816 0.57343 0.0
C308 C 0.82269 0.98797 0.56334 0.0
O309 O 0.81286 0.96633 0.55637 0.0
O310 O 0.81121 0.9704 0.57058 0.0
C311 C 0.80059 0.92522 0.53551 0.0
O312 O 0.83977 0.94442 0.53859 0.0
C313 C 0.76117 0.93437 0.59153 0.0
C314 C 0.77795 0.8664 0.59806 0.0
C315 C 0.76329 0.91281 0.59954 0.0
N316 N 0.77383 0.90195 0.58558 0.0
N317 N 0.78365 0.86143 0.58954 0.0
C318 C 0.75098 0.98575 0.58967 0.0
H319 H 0.77613 0.0086 0.59332 0.0
H320 H 0.75417 0.99331 0.58272 0.0
H321 H 0.71435 0.99491 0.59178 0.0
C322 C 0.68003 0.88922 0.55607 0.0
N323 N 0.72459 0.89512 0.55909 0.0
N324 N 0.72326 0.89813 0.56749 0.0
C325 C 0.67743 0.89496 0.5701 0.0
C326 C 0.64834 0.88932 0.56292 0.0
C327 C 0.66824 0.8841 0.54676 0.0
H328 H 0.69341 0.85862 0.54373 0.0
H329 H 0.67251 0.91918 0.54354 0.0
H330 H 0.63123 0.87109 0.5458 0.0
O331 O 0.82961 0.85435 0.55593 0.0
O332 O 0.83041 0.85982 0.57014 0.0
H333 H 0.67875 0.87556 0.58336 0.0
H334 H 0.62265 0.90118 0.57994 0.0
C335 C 0.66189 0.90276 0.57917 0.0
H336 H 0.67426 0.93834 0.5813 0.0
H337 H 0.7949 0.83044 0.58643 0.0
O338 O 0.77133 0.90555 0.54063 0.0
C339 C 0.84629 0.84191 0.56319 0.0
Co340 Co 0.84063 0.02985 0.30394 0.0
Co341 Co 0.83872 0.03412 0.32426 0.0
C342 C 0.7586 0.07335 0.31371 0.0
O343 O 0.77931 0.06147 0.30675 0.0
O344 O 0.77693 0.06365 0.32098 0.0
C345 C 0.80539 0.01085 0.2869 0.0
O346 O 0.76368 0.01179 0.29074 0.0
C347 C 0.81146 0.01623 0.34252 0.0
C348 C 0.88135 0.02666 0.34878 0.0
C349 C 0.83427 0.01469 0.35049 0.0
N350 N 0.84395 0.02785 0.33649 0.0
N351 N 0.88547 0.03434 0.34031 0.0
C352 C 0.75968 0.0085 0.34063 0.0
H353 H 0.7498 0.02452 0.3344 0.0
H354 H 0.75238 0.96966 0.34026 0.0
H355 H 0.73723 0.02426 0.34576 0.0
C356 C 0.85192 0.92664 0.3078 0.0
N357 N 0.84843 0.97256 0.31031 0.0
N358 N 0.84889 0.97447 0.31874 0.0
C359 C 0.85381 0.9299 0.32186 0.0
C360 C 0.85546 0.89793 0.31505 0.0
C361 C 0.84627 0.91083 0.29869 0.0
H362 H 0.81175 0.92423 0.29619 0.0
H363 H 0.8469 0.87152 0.29801 0.0
H364 H 0.87517 0.92666 0.29475 0.0
O365 O 0.89137 0.07734 0.30661 0.0
O366 O 0.88751 0.08092 0.32081 0.0
H367 H 0.88303 0.94236 0.33434 0.0
H368 H 0.86929 0.88079 0.33223 0.0
C369 C 0.85725 0.91806 0.3312 0.0
H370 H 0.82183 0.923 0.33423 0.0
H371 H 0.91687 0.04348 0.33711 0.0
O372 O 0.84299 0.01713 0.29133 0.0
C373 C 0.90478 0.09528 0.31372 0.0
Co374 Co 0.71328 0.08603 0.05336 0.0
Co375 Co 0.70888 0.0893 0.0736 0.0
C376 C 0.67019 0.00632 0.06362 0.0
O377 O 0.68148 0.02523 0.05647 0.0
O378 O 0.68041 0.02654 0.07071 0.0
C379 C 0.73175 0.04847 0.03646 0.0
O380 O 0.72887 0.00698 0.04035 0.0
C381 C 0.73032 0.06404 0.09167 0.0
C382 C 0.7021 0.1273 0.09844 0.0
C383 C 0.72381 0.08356 0.09978 0.0
N384 N 0.71345 0.0951 0.08581 0.0
N385 N 0.69673 0.13281 0.08992 0.0
C386 C 0.7488 0.01534 0.08955 0.0
H387 H 0.74266 0.00678 0.0827 0.0
H388 H 0.78766 0.01367 0.09083 0.0
H389 H 0.73119 0.98836 0.09369 0.0
C390 C 0.81642 0.0988 0.05717 0.0
N391 N 0.77054 0.09554 0.05971 0.0
N392 N 0.76853 0.09918 0.06811 0.0
C393 C 0.81292 0.10651 0.07116 0.0
C394 C 0.84497 0.10598 0.06436 0.0
C395 C 0.83241 0.08969 0.04816 0.0
H396 H 0.81919 0.11876 0.04395 0.0
H397 H 0.81662 0.05574 0.04588 0.0
H398 H 0.87171 0.08708 0.04759 0.0
O399 O 0.66558 0.13732 0.05558 0.0
O400 O 0.66191 0.13691 0.0698 0.0
H401 H 0.79637 0.13742 0.08339 0.0
H402 H 0.85941 0.13337 0.0811 0.0
C403 C 0.82447 0.11514 0.0804 0.0
H404 H 0.82615 0.08053 0.08381 0.0
H405 H 0.68112 0.16218 0.08691 0.0
O406 O 0.72667 0.08649 0.04082 0.0
C407 C 0.64755 0.15238 0.06257 0.0
Co408 Co 0.65453 0.0344 0.70506 0.0
Co409 Co 0.65704 0.03055 0.68487 0.0
C410 C 0.73672 0.0743 0.69458 0.0
O411 O 0.7156 0.06592 0.70167 0.0
O412 O 0.71902 0.06056 0.68747 0.0
C413 C 0.69166 0.01288 0.72177 0.0
O414 O 0.73126 0.00512 0.71748 0.0
C415 C 0.68416 0.01245 0.66682 0.0
C416 C 0.61375 0.0161 0.66045 0.0
C417 C 0.66191 0.00952 0.65888 0.0
N418 N 0.65049 0.02023 0.67281 0.0
N419 N 0.60854 0.02229 0.66896 0.0
C420 C 0.73658 0.01216 0.66866 0.0
H421 H 0.7493 0.04959 0.66903 0.0
H422 H 0.7435 0.99512 0.67496 0.0
H423 H 0.75702 0.99368 0.66357 0.0
C424 C 0.63958 0.93041 0.70256 0.0
N425 N 0.64566 0.97486 0.69947 0.0
N426 N 0.64843 0.97288 0.69106 0.0
C427 C 0.64544 0.92694 0.68854 0.0
C428 C 0.6396 0.89833 0.69577 0.0
C429 C 0.63323 0.91897 0.71187 0.0
H430 H 0.61068 0.94654 0.71497 0.0
H431 H 0.66862 0.91881 0.71505 0.0
H432 H 0.61633 0.8835 0.71275 0.0
O433 O 0.60316 0.07971 0.70211 0.0
O434 O 0.60806 0.07878 0.68791 0.0
H435 H 0.62199 0.92128 0.67555 0.0
H436 H 0.65873 0.87184 0.67901 0.0
C437 C 0.65324 0.91088 0.67949 0.0
H438 H 0.68512 0.92894 0.67684 0.0
H439 H 0.57634 0.02844 0.67213 0.0
O440 O 0.65447 0.02584 0.71772 0.0
C441 C 0.59009 0.09518 0.6948 0.0
Co442 Co 0.71138 0.90256 0.4553 0.0
Co443 Co 0.71486 0.89762 0.43509 0.0
C444 C 0.67171 0.98105 0.44416 0.0
O445 O 0.68163 0.96333 0.45148 0.0
O446 O 0.68344 0.95981 0.43724 0.0
C447 C 0.73212 0.94154 0.47196 0.0
O448 O 0.73967 0.98109 0.46765 0.0
C449 C 0.72963 0.92094 0.41673 0.0
C450 C 0.74972 0.85026 0.41158 0.0
C451 C 0.74376 0.89761 0.40929 0.0
N452 N 0.72733 0.88872 0.42312 0.0
N453 N 0.73884 0.84649 0.41996 0.0
C454 C 0.7229 0.97345 0.41795 0.0
H455 H 0.68415 0.98155 0.41792 0.0
H456 H 0.73771 0.98455 0.42423 0.0
H457 H 0.74039 0.99411 0.41275 0.0
C458 C 0.81501 0.88626 0.45301 0.0
N459 N 0.7706 0.89124 0.44983 0.0
N460 N 0.77271 0.89201 0.44141 0.0
C461 C 0.81884 0.88936 0.43896 0.0
C462 C 0.84727 0.88525 0.44624 0.0
C463 C 0.82618 0.88194 0.46236 0.0
H464 H 0.79866 0.8599 0.46558 0.0
H465 H 0.82606 0.91796 0.4653 0.0
H466 H 0.86171 0.86539 0.46338 0.0
O467 O 0.6649 0.85227 0.45265 0.0
O468 O 0.66734 0.84797 0.43844 0.0
H469 H 0.83186 0.86265 0.42635 0.0
H470 H 0.87328 0.90829 0.42968 0.0
C471 C 0.83551 0.89662 0.42993 0.0
H472 H 0.81329 0.92411 0.42676 0.0
H473 H 0.74062 0.81528 0.42359 0.0
O474 O 0.71957 0.90415 0.46794 0.0
C475 C 0.6501 0.83467 0.44562 0.0
Co476 Co 0.84145 0.96837 0.20534 0.0
Co477 Co 0.83751 0.97066 0.18508 0.0
C478 C 0.75781 0.92932 0.19506 0.0
O479 O 0.77969 0.93835 0.20205 0.0
O480 O 0.77511 0.94163 0.18784 0.0
C481 C 0.82091 0.94931 0.22304 0.0
O482 O 0.80006 0.91138 0.21981 0.0
C483 C 0.81008 0.98684 0.16696 0.0
C484 C 0.88071 0.98562 0.16064 0.0
C485 C 0.83239 0.99052 0.15902 0.0
N486 N 0.84387 0.98035 0.17298 0.0
N487 N 0.88594 0.97968 0.16915 0.0
C488 C 0.75766 0.98541 0.16879 0.0
H489 H 0.74773 0.94855 0.17067 0.0
H490 H 0.7493 0.00903 0.1743 0.0
H491 H 0.73605 0.99578 0.16314 0.0
C492 C 0.85688 0.0715 0.20259 0.0
N493 N 0.8508 0.02699 0.19956 0.0
N494 N 0.84739 0.02858 0.19115 0.0
C495 C 0.85022 0.07443 0.18857 0.0
C496 C 0.85644 0.10334 0.19575 0.0
C497 C 0.86278 0.08297 0.2119 0.0
H498 H 0.88779 0.05714 0.21488 0.0
H499 H 0.82777 0.07949 0.21517 0.0
H500 H 0.87671 0.11965 0.21285 0.0
O501 O 0.89172 0.92171 0.20241 0.0
O502 O 0.88578 0.92184 0.18821 0.0
H503 H 0.87311 0.0805 0.17555 0.0
H504 H 0.83535 0.12909 0.17904 0.0
C505 C 0.84173 0.09018 0.17953 0.0
H506 H 0.81023 0.07131 0.17691 0.0
H507 H 0.91828 0.97479 0.17235 0.0
O508 O 0.84133 0.97859 0.218 0.0
C509 C 0.9039 0.90551 0.1951 0.0
Co510 Co 0.7836 0.0885 0.95533 0.0
Co511 Co 0.78061 0.08934 0.93511 0.0
C512 C 0.82234 0.00731 0.94447 0.0
O513 O 0.81397 0.02741 0.95166 0.0
O514 O 0.80933 0.02643 0.93744 0.0
C515 C 0.80093 0.0636 0.97294 0.0
O516 O 0.83815 0.04137 0.96973 0.0
C517 C 0.76114 0.06481 0.917 0.0
C518 C 0.77051 0.13495 0.91073 0.0
C519 C 0.76034 0.08751 0.90908 0.0
N520 N 0.77118 0.09752 0.92305 0.0
N521 N 0.77661 0.13934 0.91925 0.0
C522 C 0.75684 0.01247 0.91874 0.0
H523 H 0.744 0.0063 0.92537 0.0
H524 H 0.73253 0.99496 0.91411 0.0
H525 H 0.79261 0.99585 0.91809 0.0
C526 C 0.68041 0.10538 0.9528 0.0
N527 N 0.72474 0.09937 0.94967 0.0
N528 N 0.72284 0.09822 0.94125 0.0
C529 C 0.67696 0.10251 0.93875 0.0
C530 C 0.64836 0.10726 0.946 0.0
C531 C 0.6693 0.10941 0.96216 0.0
H532 H 0.69522 0.13385 0.96526 0.0
H533 H 0.67297 0.07379 0.9652 0.0
H534 H 0.63266 0.12315 0.96326 0.0
O535 O 0.83007 0.13952 0.95279 0.0
O536 O 0.82962 0.13676 0.93855 0.0
H537 H 0.67405 0.12754 0.92581 0.0
H538 H 0.62162 0.09448 0.92906 0.0
C539 C 0.66092 0.09689 0.92964 0.0
H540 H 0.67668 0.06396 0.92694 0.0
H541 H 0.78509 0.17083 0.92248 0.0
O542 O 0.77317 0.08616 0.96793 0.0
C543 C 0.84609 0.15332 0.94556 0.0
Co544 Co 0.84104 0.53213 0.70441 0.0
Co545 Co 0.84146 0.53547 0.68415 0.0
C546 C 0.75958 0.57411 0.69422 0.0
O547 O 0.78002 0.56337 0.70127 0.0
O548 O 0.77841 0.56363 0.68702 0.0
C549 C 0.80394 0.51564 0.72145 0.0
O550 O 0.76244 0.51793 0.71756 0.0
C551 C 0.81662 0.51511 0.66604 0.0
C552 C 0.88376 0.53531 0.65957 0.0
C553 C 0.83835 0.51766 0.65799 0.0
N554 N 0.84797 0.53039 0.67198 0.0
N555 N 0.88785 0.54266 0.66805 0.0
C556 C 0.76831 0.49604 0.66826 0.0
H557 H 0.76647 0.4869 0.67517 0.0
H558 H 0.76012 0.46399 0.66435 0.0
H559 H 0.74106 0.52379 0.66692 0.0
C560 C 0.8526 0.42871 0.70076 0.0
N561 N 0.84979 0.4745 0.69816 0.0
N562 N 0.85193 0.47602 0.68973 0.0
C563 C 0.85778 0.43133 0.68672 0.0
C564 C 0.85781 0.39963 0.69358 0.0
C565 C 0.84449 0.41341 0.70984 0.0
H566 H 0.87401 0.42697 0.7139 0.0
H567 H 0.8108 0.42944 0.7122 0.0
H568 H 0.84195 0.37417 0.71052 0.0
O569 O 0.89213 0.57975 0.70194 0.0
O570 O 0.88889 0.58293 0.68775 0.0
H571 H 0.88717 0.44594 0.67429 0.0
H572 H 0.88049 0.38331 0.67667 0.0
C573 C 0.86407 0.41909 0.67745 0.0
H574 H 0.8288 0.4191 0.67424 0.0
H575 H 0.9181 0.55566 0.67117 0.0
O576 O 0.84193 0.52004 0.71705 0.0
C577 C 0.90573 0.59761 0.69484 0.0
Co578 Co 0.71403 0.591 0.95476 0.0
Co579 Co 0.71675 0.59066 0.93459 0.0
C580 C 0.67484 0.50936 0.94406 0.0
O581 O 0.6831 0.53008 0.95119 0.0
O582 O 0.68808 0.52781 0.93698 0.0
C583 C 0.73706 0.5513 0.97115 0.0
O584 O 0.7449 0.51255 0.96662 0.0
C585 C 0.73347 0.56585 0.9164 0.0
C586 C 0.73371 0.63731 0.91039 0.0
C587 C 0.73832 0.58917 0.90858 0.0
N588 N 0.72669 0.59886 0.92254 0.0
N589 N 0.72677 0.64144 0.9189 0.0
C590 C 0.73143 0.51323 0.918 0.0
H591 H 0.75562 0.50373 0.92337 0.0
H592 H 0.7406 0.49216 0.91222 0.0
H593 H 0.69467 0.50369 0.91999 0.0
C594 C 0.81756 0.60761 0.95217 0.0
N595 N 0.77306 0.60137 0.94911 0.0
N596 N 0.77471 0.59932 0.9407 0.0
C597 C 0.82055 0.60282 0.93813 0.0
C598 C 0.84939 0.60832 0.94533 0.0
C599 C 0.82926 0.61339 0.96147 0.0
H600 H 0.80145 0.63522 0.96467 0.0
H601 H 0.83017 0.57777 0.96457 0.0
H602 H 0.86449 0.63082 0.96234 0.0
O603 O 0.66801 0.64218 0.95217 0.0
O604 O 0.66775 0.63843 0.93795 0.0
H605 H 0.82691 0.62778 0.92524 0.0
H606 H 0.87529 0.58928 0.92855 0.0
C607 C 0.83639 0.59574 0.92905 0.0
H608 H 0.81749 0.56473 0.92627 0.0
H609 H 0.72199 0.67337 0.92223 0.0
O610 O 0.72345 0.58905 0.96735 0.0
C611 C 0.65168 0.65556 0.94495 0.0
Co612 Co 0.65306 0.46758 0.20465 0.0
Co613 Co 0.6573 0.47228 0.18446 0.0
C614 C 0.73613 0.4282 0.19418 0.0
O615 O 0.71405 0.43683 0.20117 0.0
O616 O 0.71934 0.44151 0.18697 0.0
C617 C 0.69123 0.48861 0.22122 0.0
O618 O 0.73023 0.49681 0.21678 0.0
C619 C 0.68215 0.48976 0.16618 0.0
C620 C 0.61074 0.50592 0.16091 0.0
C621 C 0.65854 0.50302 0.15872 0.0
N622 N 0.64962 0.48518 0.17249 0.0
N623 N 0.60703 0.49439 0.16925 0.0
C624 C 0.73486 0.48587 0.16753 0.0
H625 H 0.74432 0.49759 0.17411 0.0
H626 H 0.7547 0.50764 0.16278 0.0
H627 H 0.74567 0.44799 0.16681 0.0
C628 C 0.63827 0.57135 0.20238 0.0
N629 N 0.64455 0.52715 0.1992 0.0
N630 N 0.64897 0.52974 0.19082 0.0
C631 C 0.6471 0.57599 0.18843 0.0
C632 C 0.63997 0.60398 0.19568 0.0
C633 C 0.63025 0.58202 0.21167 0.0
H634 H 0.60778 0.55384 0.21461 0.0
H635 H 0.66512 0.58269 0.21504 0.0
H636 H 0.61256 0.61714 0.21253 0.0
O637 O 0.60186 0.42262 0.20159 0.0
O638 O 0.6081 0.42364 0.18739 0.0
H639 H 0.62499 0.58878 0.17552 0.0
H640 H 0.66826 0.63117 0.17944 0.0
C641 C 0.65742 0.59313 0.17953 0.0
H642 H 0.68651 0.57157 0.17668 0.0
H643 H 0.57549 0.49403 0.17281 0.0
O644 O 0.65367 0.47548 0.21731 0.0
C645 C 0.58953 0.40716 0.19424 0.0
Co646 Co 0.77647 0.40753 0.45398 0.0
Co647 Co 0.78122 0.40435 0.43374 0.0
C648 C 0.81802 0.48806 0.44371 0.0
O649 O 0.80635 0.46917 0.45084 0.0
O650 O 0.80897 0.4674 0.43662 0.0
C651 C 0.79368 0.42541 0.47167 0.0
O652 O 0.83371 0.44258 0.46855 0.0
C653 C 0.75922 0.42996 0.41573 0.0
C654 C 0.78677 0.36667 0.40888 0.0
C655 C 0.76505 0.41048 0.4076 0.0
N656 N 0.7764 0.39879 0.42154 0.0
N657 N 0.79276 0.36108 0.41738 0.0
C658 C 0.74086 0.47863 0.41791 0.0
H659 H 0.74944 0.48804 0.42463 0.0
H660 H 0.70155 0.47954 0.41715 0.0
H661 H 0.75631 0.50548 0.41347 0.0
C662 C 0.67352 0.39405 0.45012 0.0
N663 N 0.71947 0.39725 0.44763 0.0
N664 N 0.72171 0.39356 0.43923 0.0
C665 C 0.67745 0.38594 0.43614 0.0
C666 C 0.64519 0.38666 0.44291 0.0
C667 C 0.65717 0.40311 0.45912 0.0
H668 H 0.6781 0.43277 0.46195 0.0
H669 H 0.61874 0.41238 0.45939 0.0
H670 H 0.6636 0.37067 0.46303 0.0
O671 O 0.82558 0.35729 0.45174 0.0
O672 O 0.82896 0.35755 0.43752 0.0
H673 H 0.69474 0.3544 0.42399 0.0
H674 H 0.63161 0.35778 0.42623 0.0
C675 C 0.66628 0.37653 0.42691 0.0
H676 H 0.66422 0.41085 0.42342 0.0
H677 H 0.80845 0.33162 0.42035 0.0
O678 O 0.76308 0.40793 0.46654 0.0
C679 C 0.84382 0.34254 0.44474 0.0
Co680 Co 0.83759 0.47141 0.80307 0.0
Co681 Co 0.84002 0.46734 0.82329 0.0
C682 C 0.75682 0.42975 0.81345 0.0
O683 O 0.77642 0.44085 0.80634 0.0
O684 O 0.77664 0.43965 0.82059 0.0
C685 C 0.81644 0.45552 0.78538 0.0
O686 O 0.7962 0.41704 0.78853 0.0
C687 C 0.81616 0.48727 0.8414 0.0
C688 C 0.88352 0.46704 0.8478 0.0
C689 C 0.83813 0.48465 0.84941 0.0
N690 N 0.84733 0.47203 0.83543 0.0
N691 N 0.88735 0.45972 0.83931 0.0
C692 C 0.76784 0.50654 0.83924 0.0
H693 H 0.76605 0.51646 0.83236 0.0
H694 H 0.75953 0.53813 0.84327 0.0
H695 H 0.74064 0.4786 0.84046 0.0
C696 C 0.85006 0.57459 0.80681 0.0
N697 N 0.84727 0.5287 0.80936 0.0
N698 N 0.85033 0.52683 0.81777 0.0
C699 C 0.85693 0.57131 0.82082 0.0
C700 C 0.85639 0.60329 0.81401 0.0
C701 C 0.84138 0.59044 0.79778 0.0
H702 H 0.81162 0.56957 0.79497 0.0
H703 H 0.83243 0.62891 0.7974 0.0
H704 H 0.87386 0.58343 0.79391 0.0
O705 O 0.88852 0.42312 0.80531 0.0
O706 O 0.88684 0.4199 0.81951 0.0
H707 H 0.88804 0.55571 0.83307 0.0
H708 H 0.88173 0.61851 0.83084 0.0
C709 C 0.86477 0.58298 0.83008 0.0
H710 H 0.83 0.5832 0.83347 0.0
H711 H 0.9175 0.44675 0.83615 0.0
O712 O 0.83683 0.48447 0.79048 0.0
C713 C 0.90278 0.40513 0.81236 0.0
Co714 Co 0.78097 0.5819 0.05244 0.0
Co715 Co 0.77635 0.58366 0.07264 0.0
C716 C 0.81872 0.50113 0.06362 0.0
O717 O 0.81109 0.52137 0.05642 0.0
O718 O 0.80496 0.52013 0.07063 0.0
C719 C 0.80103 0.55825 0.03486 0.0
O720 O 0.84017 0.53946 0.03805 0.0
C721 C 0.76878 0.56729 0.09149 0.0
C722 C 0.73886 0.63655 0.0956 0.0
C723 C 0.75259 0.5922 0.09866 0.0
N724 N 0.76383 0.59549 0.08455 0.0
N725 N 0.74643 0.63695 0.08709 0.0
C726 C 0.79199 0.51926 0.09126 0.0
H727 H 0.82247 0.51998 0.08674 0.0
H728 H 0.76585 0.49248 0.08893 0.0
H729 H 0.80536 0.50858 0.09767 0.0
C730 C 0.67787 0.5992 0.05456 0.0
N731 N 0.72183 0.5931 0.05785 0.0
N732 N 0.71898 0.5911 0.06626 0.0
C733 C 0.67266 0.59414 0.06857 0.0
C734 C 0.64501 0.59986 0.06123 0.0
C735 C 0.66797 0.60476 0.04518 0.0
H736 H 0.69507 0.6286 0.04226 0.0
H737 H 0.67061 0.56938 0.04202 0.0
H738 H 0.63197 0.61993 0.04403 0.0
O739 O 0.8267 0.63328 0.05489 0.0
O740 O 0.82597 0.63076 0.06913 0.0
H741 H 0.65353 0.62026 0.08097 0.0
H742 H 0.61837 0.57028 0.07744 0.0
C743 C 0.6548 0.58576 0.07749 0.0
H744 H 0.67896 0.5611 0.08096 0.0
H745 H 0.73913 0.66539 0.08297 0.0
O746 O 0.77135 0.57811 0.03988 0.0
C747 C 0.84255 0.64723 0.06211 0.0
Co748 Co 0.6602 0.53283 0.30265 0.0
Co749 Co 0.65246 0.53138 0.32281 0.0
C750 C 0.73782 0.5723 0.31385 0.0
O751 O 0.72117 0.5618 0.30649 0.0
O752 O 0.71528 0.56155 0.32069 0.0
C753 C 0.6828 0.55185 0.285 0.0
O754 O 0.70113 0.59132 0.28813 0.0
C755 C 0.677 0.51223 0.34086 0.0
C756 C 0.60655 0.51829 0.34715 0.0
C757 C 0.65435 0.50962 0.34877 0.0
N758 N 0.64393 0.52169 0.33485 0.0
N759 N 0.60193 0.52525 0.33865 0.0
C760 C 0.72945 0.51014 0.33906 0.0
H761 H 0.7434 0.54712 0.33869 0.0
H762 H 0.73593 0.49284 0.33277 0.0
H763 H 0.74926 0.4911 0.34416 0.0
C764 C 0.64285 0.42998 0.30519 0.0
N765 N 0.64738 0.4745 0.3083 0.0
N766 N 0.64587 0.47306 0.31672 0.0
C767 C 0.64135 0.42724 0.31926 0.0
C768 C 0.6393 0.39824 0.31201 0.0
C769 C 0.64195 0.41839 0.29582 0.0
H770 H 0.61754 0.44335 0.29247 0.0
H771 H 0.67825 0.42318 0.29311 0.0
H772 H 0.62974 0.38131 0.29465 0.0
O773 O 0.61037 0.58076 0.30495 0.0
O774 O 0.60395 0.5791 0.31915 0.0
H775 H 0.61333 0.42587 0.332 0.0
H776 H 0.64562 0.37235 0.32911 0.0
C777 C 0.64445 0.41165 0.32842 0.0
H778 H 0.67718 0.42665 0.33134 0.0
H779 H 0.57012 0.53279 0.33544 0.0
O780 O 0.66353 0.52209 0.29008 0.0
C781 C 0.59198 0.59617 0.31189 0.0
Co782 Co 0.71698 0.40022 0.55254 0.0
Co783 Co 0.71986 0.40505 0.57279 0.0
C784 C 0.67731 0.48385 0.56273 0.0
O785 O 0.68613 0.46169 0.55576 0.0
O786 O 0.69015 0.46701 0.56997 0.0
C787 C 0.73731 0.43658 0.53572 0.0
O788 O 0.74443 0.47648 0.53995 0.0
C789 C 0.73562 0.43287 0.59095 0.0
C790 C 0.73805 0.36201 0.59716 0.0
C791 C 0.74098 0.41041 0.59884 0.0
N792 N 0.73015 0.39908 0.58489 0.0
N793 N 0.73154 0.35688 0.58867 0.0
C794 C 0.73209 0.48527 0.5892 0.0
H795 H 0.69671 0.49306 0.58634 0.0
H796 H 0.75955 0.49573 0.58443 0.0
H797 H 0.73612 0.50687 0.5951 0.0
C798 C 0.82075 0.38627 0.55521 0.0
N799 N 0.77613 0.39188 0.55825 0.0
N800 N 0.77779 0.39571 0.56665 0.0
C801 C 0.82373 0.39382 0.56921 0.0
C802 C 0.85265 0.38767 0.56203 0.0
C803 C 0.83252 0.37969 0.54592 0.0
H804 H 0.80549 0.35643 0.54285 0.0
H805 H 0.83195 0.4149 0.54268 0.0
H806 H 0.86839 0.3635 0.5451 0.0
O807 O 0.67125 0.34957 0.55564 0.0
O808 O 0.67137 0.35609 0.56983 0.0
H809 H 0.8311 0.37164 0.58224 0.0
H810 H 0.87819 0.41091 0.57864 0.0
C811 C 0.83949 0.4032 0.57822 0.0
H812 H 0.81963 0.43412 0.58083 0.0
H813 H 0.7279 0.3245 0.58543 0.0
O814 O 0.7255 0.39927 0.53985 0.0
C815 C 0.65524 0.33747 0.56297 0.0
Co816 Co 0.15217 0.46656 0.30242 0.0
Co817 Co 0.1543 0.4708 0.32263 0.0
C818 C 0.2345 0.42767 0.3131 0.0
O819 O 0.21331 0.43648 0.30603 0.0
O820 O 0.21666 0.44051 0.32026 0.0
C821 C 0.17507 0.44713 0.28479 0.0
O822 O 0.19607 0.40927 0.28803 0.0
C823 C 0.17831 0.48745 0.34093 0.0
C824 C 0.10703 0.50481 0.34614 0.0
C825 C 0.1547 0.50109 0.34837 0.0
N826 N 0.14591 0.4834 0.33459 0.0
N827 N 0.10337 0.49329 0.33779 0.0
C828 C 0.23101 0.48289 0.33962 0.0
H829 H 0.24103 0.44464 0.34 0.0
H830 H 0.24095 0.49622 0.33316 0.0
H831 H 0.25113 0.50294 0.34457 0.0
C832 C 0.13713 0.56994 0.30469 0.0
N833 N 0.14271 0.52574 0.30792 0.0
N834 N 0.14622 0.52828 0.3163 0.0
C835 C 0.14433 0.57453 0.31868 0.0
C836 C 0.13818 0.60259 0.3114 0.0
C837 C 0.13098 0.58033 0.29535 0.0
H838 H 0.10606 0.55405 0.29248 0.0
H839 H 0.16595 0.57671 0.29207 0.0
H840 H 0.11682 0.61682 0.29428 0.0
O841 O 0.10123 0.4207 0.30527 0.0
O842 O 0.10583 0.42194 0.31949 0.0
H843 H 0.12125 0.58774 0.33152 0.0
H844 H 0.1655 0.62945 0.32772 0.0
C845 C 0.15409 0.59159 0.32761 0.0
H846 H 0.18261 0.56965 0.33054 0.0
H847 H 0.07195 0.49353 0.3342 0.0
O848 O 0.15387 0.47599 0.28979 0.0
C849 C 0.08828 0.40514 0.31258 0.0
Co850 Co 0.27431 0.4079 0.05288 0.0
Co851 Co 0.28156 0.40827 0.07306 0.0
C852 C 0.31781 0.48986 0.06248 0.0
O853 O 0.30535 0.46969 0.05551 0.0
O854 O 0.30907 0.47075 0.06973 0.0
C855 C 0.28771 0.4211 0.03484 0.0
O856 O 0.32951 0.43719 0.03733 0.0
C857 C 0.2617 0.43599 0.09101 0.0
C858 C 0.2926 0.37487 0.09804 0.0
C859 C 0.26968 0.41815 0.0992 0.0
N860 N 0.27888 0.40441 0.08529 0.0
N861 N 0.29725 0.368 0.08955 0.0
C862 C 0.24154 0.48371 0.08868 0.0
H863 H 0.2463 0.49097 0.08174 0.0
H864 H 0.2029 0.4847 0.09017 0.0
H865 H 0.25914 0.51198 0.09253 0.0
C866 C 0.17201 0.39475 0.05721 0.0
N867 N 0.21815 0.39896 0.05953 0.0
N868 N 0.22131 0.39671 0.06793 0.0
C869 C 0.17748 0.38907 0.07121 0.0
C870 C 0.14454 0.38812 0.06455 0.0
C871 C 0.15463 0.40205 0.04822 0.0
H872 H 0.17453 0.43181 0.0452 0.0
H873 H 0.11598 0.4104 0.04801 0.0
H874 H 0.16152 0.36921 0.04445 0.0
O875 O 0.32329 0.35757 0.05511 0.0
O876 O 0.32843 0.36074 0.0693 0.0
H877 H 0.19668 0.36 0.08347 0.0
H878 H 0.13327 0.36151 0.08142 0.0
C879 C 0.16742 0.38094 0.08052 0.0
H880 H 0.16485 0.41579 0.08383 0.0
H881 H 0.31342 0.33859 0.08665 0.0
O882 O 0.25833 0.40633 0.04046 0.0
C883 C 0.34231 0.34415 0.06213 0.0
Co884 Co 0.34499 0.53813 0.80261 0.0
Co885 Co 0.34117 0.53265 0.82281 0.0
C886 C 0.26171 0.57628 0.81322 0.0
O887 O 0.28394 0.56847 0.80622 0.0
O888 O 0.27856 0.56249 0.8204 0.0
C889 C 0.30653 0.51847 0.78598 0.0
O890 O 0.26791 0.50859 0.79042 0.0
C891 C 0.32125 0.52558 0.84156 0.0
C892 C 0.38734 0.49018 0.84594 0.0
C893 C 0.34364 0.50696 0.84882 0.0
N894 N 0.35011 0.51893 0.83476 0.0
N895 N 0.38976 0.49838 0.83747 0.0
C896 C 0.27528 0.5526 0.84114 0.0
H897 H 0.27832 0.5818 0.83638 0.0
H898 H 0.24636 0.52819 0.83905 0.0
H899 H 0.26597 0.56831 0.84744 0.0
C900 C 0.3597 0.43423 0.80471 0.0
N901 N 0.35377 0.47834 0.80797 0.0
N902 N 0.34907 0.47541 0.81634 0.0
C903 C 0.34997 0.42899 0.81864 0.0
C904 C 0.35733 0.40132 0.81136 0.0
C905 C 0.3677 0.42398 0.79541 0.0
H906 H 0.38997 0.45241 0.79251 0.0
H907 H 0.3328 0.42327 0.79206 0.0
H908 H 0.38554 0.38897 0.79451 0.0
O909 O 0.39613 0.58297 0.80568 0.0
O910 O 0.3899 0.58176 0.81987 0.0
H911 H 0.37062 0.40736 0.83125 0.0
H912 H 0.31993 0.37568 0.82707 0.0
C913 C 0.3375 0.41111 0.82741 0.0
H914 H 0.31314 0.4364 0.83068 0.0
H915 H 0.41825 0.48925 0.83348 0.0
O916 O 0.34402 0.53151 0.78993 0.0
C917 C 0.40842 0.59837 0.81303 0.0
Co918 Co 0.21749 0.59432 0.55292 0.0
Co919 Co 0.22004 0.59095 0.5731 0.0
C920 C 0.17695 0.51168 0.5633 0.0
O921 O 0.18647 0.53321 0.55629 0.0
O922 O 0.18941 0.52897 0.57052 0.0
C923 C 0.20237 0.57281 0.53496 0.0
O924 O 0.16345 0.5513 0.53763 0.0
C925 C 0.23604 0.56636 0.5914 0.0
C926 C 0.25106 0.63789 0.59673 0.0
C927 C 0.24851 0.59006 0.5989 0.0
N928 N 0.23153 0.59888 0.5851 0.0
N929 N 0.24001 0.64154 0.58836 0.0
C930 C 0.23295 0.51362 0.59003 0.0
H931 H 0.19521 0.50227 0.59072 0.0
H932 H 0.24499 0.50438 0.58346 0.0
H933 H 0.25488 0.49405 0.5948 0.0
C934 C 0.32067 0.60834 0.55549 0.0
N935 N 0.27623 0.60293 0.5586 0.0
N936 N 0.27817 0.59892 0.56699 0.0
C937 C 0.3243 0.60034 0.56947 0.0
C938 C 0.35287 0.60656 0.56225 0.0
C939 C 0.33181 0.61514 0.54618 0.0
H940 H 0.30637 0.64106 0.54335 0.0
H941 H 0.32753 0.58061 0.54279 0.0
H942 H 0.3687 0.62849 0.54523 0.0
O943 O 0.17191 0.6456 0.55571 0.0
O944 O 0.17201 0.64015 0.56992 0.0
H945 H 0.33541 0.62275 0.58241 0.0
H946 H 0.37885 0.58002 0.57865 0.0
C947 C 0.34068 0.59036 0.57843 0.0
H948 H 0.31917 0.56107 0.58122 0.0
H949 H 0.23962 0.67308 0.58481 0.0
O950 O 0.22918 0.59346 0.54038 0.0
C951 C 0.15597 0.65834 0.563 0.0
Co952 Co 0.15077 0.53352 0.20439 0.0
Co953 Co 0.15521 0.5328 0.1842 0.0
C954 C 0.23394 0.57498 0.19429 0.0
O955 O 0.21188 0.5653 0.20123 0.0
O956 O 0.21717 0.56262 0.18703 0.0
C957 C 0.18781 0.51117 0.22105 0.0
O958 O 0.22784 0.50536 0.21679 0.0
C959 C 0.1828 0.51836 0.16606 0.0
C960 C 0.11201 0.5174 0.1598 0.0
C961 C 0.16042 0.51402 0.15815 0.0
N962 N 0.14896 0.52372 0.17211 0.0
N963 N 0.1068 0.52317 0.16831 0.0
C964 C 0.2352 0.52122 0.16786 0.0
H965 H 0.24378 0.55769 0.17015 0.0
H966 H 0.24467 0.49606 0.17308 0.0
H967 H 0.257 0.51371 0.16209 0.0
C968 C 0.13687 0.43008 0.20142 0.0
N969 N 0.14258 0.47496 0.19852 0.0
N970 N 0.1464 0.4741 0.19012 0.0
C971 C 0.14446 0.42841 0.18742 0.0
C972 C 0.13827 0.39883 0.19451 0.0
C973 C 0.12987 0.41749 0.21066 0.0
H974 H 0.10658 0.44433 0.21379 0.0
H975 H 0.16495 0.41757 0.21396 0.0
H976 H 0.11348 0.38165 0.21136 0.0
O977 O 0.09957 0.5791 0.20156 0.0
O978 O 0.10599 0.58071 0.18738 0.0
H979 H 0.12208 0.42257 0.17437 0.0
H980 H 0.16101 0.37479 0.1778 0.0
C981 C 0.15361 0.41349 0.17835 0.0
H982 H 0.18468 0.43333 0.1758 0.0
H983 H 0.0744 0.52692 0.17154 0.0
O984 O 0.15033 0.52323 0.217 0.0
C985 C 0.0873 0.5959 0.19431 0.0
Co986 Co 0.21745 0.40939 0.95379 0.0
Co987 Co 0.2128 0.40804 0.9336 0.0
C988 C 0.17429 0.49017 0.94369 0.0
O989 O 0.18606 0.47045 0.95075 0.0
O990 O 0.18395 0.47074 0.9365 0.0
C991 C 0.20095 0.4203 0.97187 0.0
O992 O 0.15781 0.43225 0.96936 0.0
C993 C 0.23093 0.43434 0.91555 0.0
C994 C 0.22375 0.36432 0.90917 0.0
C995 C 0.23458 0.41178 0.90766 0.0
N996 N 0.2187 0.40157 0.92146 0.0
N997 N 0.21379 0.35996 0.91757 0.0
C998 C 0.24288 0.48506 0.91761 0.0
H999 H 0.21083 0.50752 0.91652 0.0
H1000 H 0.25353 0.48846 0.92444 0.0
H1001 H 0.27197 0.49821 0.9134 0.0
C1002 C 0.32042 0.39814 0.95001 0.0
N1003 N 0.27455 0.40083 0.94747 0.0
N1004 N 0.27268 0.39866 0.93905 0.0
C1005 C 0.3173 0.39313 0.93598 0.0
C1006 C 0.34921 0.39295 0.94281 0.0
C1007 C 0.33614 0.40593 0.95908 0.0
H1008 H 0.31619 0.43636 0.96188 0.0
H1009 H 0.37486 0.41356 0.95954 0.0
H1010 H 0.32775 0.37364 0.96291 0.0
O1011 O 0.16994 0.35807 0.95151 0.0
O1012 O 0.1661 0.35993 0.9373 0.0
H1013 H 0.36612 0.37422 0.92575 0.0
H1014 H 0.32515 0.42225 0.92339 0.0
C1015 C 0.32915 0.3874 0.92668 0.0
H1016 H 0.30427 0.36159 0.9237 0.0
H1017 H 0.2051 0.32825 0.92071 0.0
O1018 O 0.23195 0.40915 0.96627 0.0
C1019 C 0.1519 0.34365 0.94447 0.0
Co1020 Co 0.34356 0.46603 0.70476 0.0
Co1021 Co 0.33921 0.46946 0.68455 0.0
C1022 C 0.2599 0.42714 0.69434 0.0
O1023 O 0.28235 0.43552 0.7013 0.0
O1024 O 0.27655 0.44025 0.68711 0.0
C1025 C 0.30563 0.48714 0.72139 0.0
O1026 O 0.26676 0.49648 0.71698 0.0
C1027 C 0.31879 0.47772 0.6658 0.0
C1028 C 0.38821 0.50536 0.66127 0.0
C1029 C 0.34291 0.49307 0.65848 0.0
N1030 N 0.34843 0.48171 0.67257 0.0
N1031 N 0.38992 0.49779 0.66977 0.0
C1032 C 0.26989 0.45658 0.66633 0.0
H1033 H 0.26973 0.42693 0.67102 0.0
H1034 H 0.24445 0.48425 0.66857 0.0
H1035 H 0.25804 0.4426 0.66003 0.0
C1036 C 0.35904 0.56958 0.70226 0.0
N1037 N 0.35254 0.52518 0.69918 0.0
N1038 N 0.34782 0.52717 0.6908 0.0
C1039 C 0.34941 0.57324 0.68831 0.0
C1040 C 0.3571 0.60173 0.69548 0.0
C1041 C 0.36734 0.58077 0.71152 0.0
H1042 H 0.38948 0.55248 0.7145 0.0
H1043 H 0.33253 0.58206 0.7149 0.0
H1044 H 0.38547 0.61572 0.71228 0.0
O1045 O 0.39441 0.42056 0.7018 0.0
O1046 O 0.38759 0.42035 0.68763 0.0
H1047 H 0.37081 0.59092 0.67555 0.0
H1048 H 0.32197 0.62631 0.67952 0.0
C1049 C 0.33767 0.58997 0.67943 0.0
H1050 H 0.31192 0.5653 0.67637 0.0
H1051 H 0.41933 0.50417 0.67372 0.0
O1052 O 0.34301 0.47393 0.71742 0.0
C1053 C 0.40629 0.40431 0.69449 0.0
Co1054 Co 0.27797 0.58179 0.45424 0.0
Co1055 Co 0.2781 0.58647 0.43402 0.0
C1056 C 0.31887 0.50274 0.4433 0.0
O1057 O 0.30826 0.52113 0.45053 0.0
O1058 O 0.30786 0.5234 0.43628 0.0
C1059 C 0.29616 0.57015 0.47239 0.0
O1060 O 0.34066 0.56318 0.47004 0.0
C1061 C 0.27016 0.5683 0.41522 0.0
C1062 C 0.2455 0.63902 0.4108 0.0
C1063 C 0.25569 0.59333 0.40794 0.0
N1064 N 0.26758 0.59777 0.42203 0.0
N1065 N 0.25333 0.64006 0.4193 0.0
C1066 C 0.28905 0.51846 0.41568 0.0
H1067 H 0.31967 0.51723 0.42016 0.0
H1068 H 0.26076 0.49448 0.41817 0.0
H1069 H 0.3012 0.50564 0.40932 0.0
C1070 C 0.17569 0.59965 0.45141 0.0
N1071 N 0.22031 0.59391 0.4484 0.0
N1072 N 0.21925 0.59271 0.43999 0.0
C1073 C 0.17341 0.59575 0.43737 0.0
C1074 C 0.1442 0.60059 0.44454 0.0
C1075 C 0.16383 0.60483 0.46073 0.0
H1076 H 0.19012 0.6288 0.46384 0.0
H1077 H 0.166 0.56936 0.46387 0.0
H1078 H 0.12754 0.61979 0.46166 0.0
O1079 O 0.32526 0.632 0.45209 0.0
O1080 O 0.3258 0.63498 0.43785 0.0
H1081 H 0.15889 0.62289 0.42484 0.0
H1082 H 0.12057 0.57439 0.42801 0.0
C1083 C 0.15758 0.58832 0.4283 0.0
H1084 H 0.18161 0.56272 0.42503 0.0
H1085 H 0.2481 0.66949 0.42329 0.0
O1086 O 0.26476 0.57826 0.46671 0.0
C1087 C 0.34169 0.64876 0.4451 0.0
H1088 H 0.25293 0.03079 0.15064 0.0
H1089 H 0.38716 0.96152 0.14501 0.0
H1090 H 0.22402 0.01041 0.13635 0.0
H1091 H 0.35871 0.94274 0.13066 0.0
H1092 H 0.31019 0.95813 0.10301 0.0
H1093 H 0.33578 0.98565 0.11712 0.0
H1094 H 0.20378 0.93463 0.12808 0.0
H1095 H 0.17789 0.90772 0.1139 0.0
C1096 C 0.27599 0.01046 0.14646 0.0
C1097 C 0.32196 0.99663 0.1491 0.0
C1098 C 0.25956 -0.00069 0.13822 0.0
C1099 C 0.2891 0.97499 0.13239 0.0
C1100 C 0.33529 0.96196 0.13497 0.0
C1101 C 0.35148 0.9726 0.14322 0.0
C1102 C 0.28607 0.95403 0.10837 0.0
C1103 C 0.24168 0.93156 0.10733 0.0
C1104 C 0.30102 0.96914 0.11648 0.0
C1105 C 0.27177 0.96225 0.1237 0.0
C1106 C 0.22686 0.94084 0.12262 0.0
C1107 C 0.21217 0.92525 0.11452 0.0
H1108 H 0.19668 0.11172 0.39234 0.0
H1109 H 0.29291 0.00893 0.40362 0.0
H1110 H 0.22171 0.08676 0.37815 0.0
H1111 H 0.3149 0.98114 0.38946 0.0
H1112 H 0.38929 0.98666 0.36337 0.0
H1113 H 0.36053 0.0048 0.3777 0.0
H1114 H 0.21893 0.02846 0.36753 0.0
H1115 H 0.2488 0.0143 0.35314 0.0
C1116 C 0.22241 0.08301 0.39181 0.0
C1117 C 0.24187 0.06178 0.39919 0.0
C1118 C 0.23643 0.06826 0.38364 0.0
C1119 C 0.27019 0.03156 0.38259 0.0
C1120 C 0.2891 0.00976 0.38998 0.0
C1121 C 0.27554 0.02503 0.39817 0.0
C1122 C 0.35192 0.99545 0.36421 0.0
C1123 C 0.32116 0.99779 0.35711 0.0
C1124 C 0.33523 0.00541 0.37246 0.0
C1125 C 0.28719 0.01787 0.37385 0.0
C1126 C 0.25624 0.01941 0.36674 0.0
C1127 C 0.27314 0.0101 0.35847 0.0
H1128 H 0.22673 0.95189 0.64922 0.0
H1129 H 0.13137 0.07282 0.64876 0.0
H1130 H 0.25536 0.97296 0.63481 0.0
H1131 H 0.16019 0.09408 0.63448 0.0
H1132 H 0.25972 0.14564 0.61333 0.0
H1133 H 0.24101 0.12184 0.62799 0.0
H1134 H 0.21395 0.97807 0.61941 0.0
H1135 H 0.23063 0.00213 0.60466 0.0
C1136 C 0.21244 0.98326 0.64608 0.0
C1137 C 0.17721 0.01104 0.65011 0.0
C1138 C 0.2285 0.99506 0.63784 0.0
C1139 C 0.21016 0.03529 0.63358 0.0
C1140 C 0.1753 0.0632 0.63766 0.0
C1141 C 0.15866 0.05091 0.6458 0.0
C1142 C 0.25027 0.10879 0.61456 0.0
C1143 C 0.24763 0.07564 0.60781 0.0
C1144 C 0.23957 0.09524 0.62295 0.0
C1145 C 0.22622 0.04811 0.62482 0.0
C1146 C 0.22494 0.01446 0.61815 0.0
C1147 C 0.235 0.0282 0.6097 0.0
H1148 H 0.22749 0.94836 0.85318 0.0
H1149 H 0.14111 0.06207 0.86347 0.0
H1150 H 0.25575 0.9292 0.86756 0.0
H1151 H 0.1704 0.04433 0.87786 0.0
H1152 H 0.1852 0.95951 0.90294 0.0
H1153 H 0.16201 0.98647 0.88869 0.0
H1154 H 0.30317 0.95262 0.87926 0.0
H1155 H 0.3255 0.9243 0.8935 0.0
C1156 C 0.21566 0.9701 0.85852 0.0
C1157 C 0.18282 0.00717 0.85723 0.0
C1158 C 0.23179 0.95918 0.86677 0.0
C1159 C 0.21553 0.98526 0.87392 0.0
C1160 C 0.18321 0.02297 0.87256 0.0
C1161 C 0.16669 0.03345 0.86431 0.0
C1162 C 0.21156 0.95901 0.89787 0.0
C1163 C 0.25736 0.94056 0.89934 0.0
C1164 C 0.19828 0.97433 0.88967 0.0
C1165 C 0.23066 0.97181 0.88277 0.0
C1166 C 0.27695 0.95437 0.88435 0.0
C1167 C 0.28994 0.93848 0.89252 0.0
H1168 H 0.81478 0.09558 0.89479 0.0
H1169 H 0.6824 0.03671 0.90406 0.0
H1170 H 0.79606 0.0679 0.88033 0.0
H1171 H 0.66239 0.01046 0.88961 0.0
H1172 H 0.65028 0.93952 0.86387 0.0
H1173 H 0.6783 0.95754 0.87833 0.0
H1174 H 0.74533 0.08614 0.86882 0.0
H1175 H 0.71868 0.06669 0.85435 0.0
C1176 C 0.78179 0.07634 0.89371 0.0
C1177 C 0.75044 0.06736 0.90053 0.0
C1178 C 0.77079 0.06082 0.88542 0.0
C1179 C 0.72761 0.03688 0.88374 0.0
C1180 C 0.69645 0.02772 0.89064 0.0
C1181 C 0.70784 0.04269 0.89895 0.0
C1182 C 0.67169 0.97119 0.86489 0.0
C1183 C 0.68315 0.00127 0.85801 0.0
C1184 C 0.68742 0.98182 0.87318 0.0
C1185 C 0.71407 0.02345 0.8748 0.0
C1186 C 0.72584 0.05326 0.86784 0.0
C1187 C 0.71064 0.04219 0.85953 0.0
H1188 H 0.64922 0.0614 0.6444 0.0
H1189 H 0.71948 0.93578 0.65416 0.0
H1190 H 0.67803 0.04322 0.62999 0.0
H1191 H 0.747 0.9162 0.63975 0.0
H1192 H 0.81752 0.90695 0.61389 0.0
H1193 H 0.79791 0.93518 0.62827 0.0
H1194 H 0.66321 0.98915 0.61881 0.0
H1195 H 0.68388 0.96218 0.60444 0.0
C1196 C 0.67122 0.03006 0.64344 0.0
C1197 C 0.68297 0.00045 0.65037 0.0
C1198 C 0.68741 0.01934 0.63518 0.0
C1199 C 0.71485 0.97811 0.63365 0.0
C1200 C 0.7269 0.94879 0.64067 0.0
C1201 C 0.71121 0.95994 0.64894 0.0
C1202 C 0.78407 0.92551 0.61491 0.0
C1203 C 0.75262 0.93327 0.60805 0.0
C1204 C 0.77259 0.94137 0.62315 0.0
C1205 C 0.72888 0.96449 0.62475 0.0
C1206 C 0.69767 0.97256 0.61782 0.0
C1207 C 0.70951 0.95723 0.60956 0.0
H1208 H 0.68861 0.95711 0.39954 0.0
H1209 H 0.82381 0.88338 0.39993 0.0
H1210 H 0.7072 0.9885 0.38518 0.0
H1211 H 0.84287 0.91581 0.38575 0.0
H1212 H 0.87307 0.03923 0.36583 0.0
H1213 H 0.84947 0.01327 0.38013 0.0
H1214 H 0.73087 0.93587 0.3694 0.0
H1215 H 0.75576 0.95877 0.35505 0.0
C1216 C 0.72241 0.94813 0.39658 0.0
C1217 C 0.75497 0.91815 0.40082 0.0
C1218 C 0.73287 0.9658 0.38839 0.0
C1219 C 0.77646 0.95456 0.38443 0.0
C1220 C 0.80915 0.92506 0.38872 0.0
C1221 C 0.79822 0.90649 0.39679 0.0
C1222 C 0.84174 0.01688 0.36646 0.0
C1223 C 0.81593 0.00209 0.35918 0.0
C1224 C 0.82827 0.00222 0.37467 0.0
C1225 C 0.7882 0.97307 0.37582 0.0
C1226 C 0.76148 0.95911 0.36865 0.0
C1227 C 0.77556 0.9729 0.36039 0.0
H1228 H 0.84994 0.94163 0.14436 0.0
H1229 H 0.76965 0.06032 0.15441 0.0
H1230 H 0.82035 0.959 0.12997 0.0
H1231 H 0.74121 0.07915 0.14003 0.0
H1232 H 0.66975 0.08402 0.1142 0.0
H1233 H 0.69198 0.05688 0.12851 0.0
H1234 H 0.83052 0.01488 0.11889 0.0
H1235 H 0.80742 0.04076 0.10458 0.0
C1236 C 0.82563 0.97129 0.14347 0.0
C1237 C 0.81129 -0.0009 0.15049 0.0
C1238 C 0.80896 0.98156 0.13522 0.0
C1239 C 0.77833 0.02058 0.13378 0.0
C1240 C 0.76383 0.04818 0.14087 0.0
C1241 C 0.78006 0.03747 0.14913 0.0
C1242 C 0.70471 0.06836 0.11515 0.0
C1243 C 0.73652 0.06367 0.10826 0.0
C1244 C 0.71765 0.05313 0.12337 0.0
C1245 C 0.76316 0.03367 0.12491 0.0
C1246 C 0.79479 0.02862 0.11794 0.0
C1247 C 0.78154 0.04333 0.10971 0.0
H1248 H 0.74523 0.51498 0.6518 0.0
H1249 H 0.89178 0.48995 0.64438 0.0
H1250 H 0.71902 0.4914 0.63752 0.0
H1251 H 0.86549 0.46818 0.63006 0.0
H1252 H 0.80633 0.47881 0.60299 0.0
H1253 H 0.82688 0.50768 0.61732 0.0
H1254 H 0.71942 0.41567 0.6283 0.0
H1255 H 0.69868 0.38713 0.61393 0.0
C1256 C 0.77187 0.50364 0.64724 0.0
C1257 C 0.82067 0.50329 0.64937 0.0
C1258 C 0.75679 0.49067 0.63899 0.0
C1259 C 0.79021 0.47806 0.63267 0.0
C1260 C 0.8389 0.47829 0.63476 0.0
C1261 C 0.8539 0.49064 0.643 0.0
C1262 C 0.78634 0.46571 0.60845 0.0
C1263 C 0.75037 0.43142 0.60736 0.0
C1264 C 0.79846 0.48176 0.61665 0.0
C1265 C 0.77474 0.4639 0.62393 0.0
C1266 C 0.73795 0.43043 0.62281 0.0
C1267 C 0.72623 0.41398 0.61461 0.0
H1268 H 0.74543 0.48472 0.8557 0.0
H1269 H 0.89134 0.5149 0.86287 0.0
H1270 H 0.719 0.50809 0.86999 0.0
H1271 H 0.86492 0.53671 0.87719 0.0
H1272 H 0.8074 0.52486 0.90435 0.0
H1273 H 0.82886 0.49693 0.89 0.0
H1274 H 0.71643 0.58333 0.87914 0.0
H1275 H 0.69466 0.61074 0.89354 0.0
C1276 C 0.77182 0.49719 0.86021 0.0
C1277 C 0.82048 0.49901 0.85802 0.0
C1278 C 0.75665 0.51007 0.86845 0.0
C1279 C 0.7899 0.52414 0.87471 0.0
C1280 C 0.8385 0.52546 0.87254 0.0
C1281 C 0.85356 0.5131 0.86431 0.0
C1282 C 0.78657 0.53688 0.89891 0.0
C1283 C 0.74879 0.56914 0.90004 0.0
C1284 C 0.79921 0.52143 0.8907 0.0
C1285 C 0.7743 0.53797 0.88346 0.0
C1286 C 0.7359 0.56959 0.88461 0.0
C1287 C 0.7236 0.5854 0.89282 0.0
H1288 H 0.73074 0.50257 0.10487 0.0
H1289 H 0.7595 0.64726 0.1129 0.0
H1290 H 0.71509 0.48022 0.11974 0.0
H1291 H 0.74201 0.62515 0.1277 0.0
H1292 H 0.63372 0.57837 0.14885 0.0
H1293 H 0.6627 0.59869 0.13456 0.0
H1294 H 0.75593 0.47606 0.13498 0.0
H1295 H 0.72703 0.45586 0.14941 0.0
C1296 C 0.73529 0.52927 0.10981 0.0
C1297 C 0.74748 0.57653 0.1077 0.0
C1298 C 0.72585 0.5165 0.11833 0.0
C1299 C 0.72739 0.55096 0.12486 0.0
C1300 C 0.74038 0.59792 0.12278 0.0
C1301 C 0.75039 0.61052 0.11431 0.0
C1302 C 0.66069 0.55597 0.14592 0.0
C1303 C 0.67851 0.51585 0.15025 0.0
C1304 C 0.67745 0.56773 0.13777 0.0
C1305 C 0.71174 0.53908 0.13369 0.0
C1306 C 0.72952 0.49874 0.138 0.0
C1307 C 0.71332 0.48744 0.14625 0.0
H1308 H 0.68249 0.45671 0.40316 0.0
H1309 H 0.8165 0.40693 0.39288 0.0
H1310 H 0.65852 0.48364 0.38896 0.0
H1311 H 0.79318 0.43469 0.37867 0.0
H1312 H 0.71065 0.43437 0.35325 0.0
H1313 H 0.73958 0.41376 0.36752 0.0
H1314 H 0.67139 0.53983 0.3778 0.0
H1315 H 0.64163 0.55947 0.3635 0.0
C1316 C 0.70743 0.45284 0.39791 0.0
C1317 C 0.7517 0.43046 0.39916 0.0
C1318 C 0.69364 0.46811 0.38974 0.0
C1319 C 0.72389 0.46143 0.38263 0.0
C1320 C 0.7686 0.43978 0.38395 0.0
C1321 C 0.78214 0.42414 0.3921 0.0
C1322 C 0.70285 0.45814 0.35854 0.0
C1323 C 0.67486 0.49901 0.35727 0.0
C1324 C 0.71931 0.44635 0.36673 0.0
C1325 C 0.70808 0.47524 0.37385 0.0
C1326 C 0.68029 0.51643 0.37252 0.0
C1327 C 0.66351 0.52792 0.36433 0.0
H1328 H 0.13282 0.57839 0.35797 0.0
H1329 H 0.22069 0.45191 0.35787 0.0
H1330 H 0.1629 0.59917 0.37219 0.0
H1331 H 0.25048 0.47244 0.37224 0.0
H1332 H 0.22648 0.50469 0.40226 0.0
H1333 H 0.20857 0.48107 0.38754 0.0
H1334 H 0.24536 0.62228 0.37874 0.0
H1335 H 0.26541 0.64548 0.39339 0.0
C1336 C 0.15876 0.55518 0.36099 0.0
C1337 C 0.17483 0.51384 0.35682 0.0
C1338 C 0.17612 0.56716 0.3691 0.0
C1339 C 0.20917 0.53751 0.37327 0.0
C1340 C 0.22506 0.49589 0.36913 0.0
C1341 C 0.20833 0.48436 0.36092 0.0
C1342 C 0.23277 0.53015 0.39717 0.0
C1343 C 0.24864 0.57667 0.39899 0.0
C1344 C 0.22198 0.5167 0.38874 0.0
C1345 C 0.22571 0.54984 0.38202 0.0
C1346 C 0.24208 0.59609 0.38382 0.0
C1347 C 0.25354 0.6093 0.3922 0.0
H1348 H 0.22592 0.44654 0.1537 0.0
H1349 H 0.14028 0.56071 0.14336 0.0
H1350 H 0.25469 0.42756 0.13934 0.0
H1351 H 0.17007 0.54313 0.12899 0.0
H1352 H 0.18463 0.4578 0.10398 0.0
H1353 H 0.16141 0.48492 0.1182 0.0
H1354 H 0.30254 0.45124 0.12766 0.0
H1355 H 0.32498 0.42285 0.11344 0.0
C1356 C 0.21438 0.46842 0.14836 0.0
C1357 C 0.18158 0.50555 0.14962 0.0
C1358 C 0.23079 0.45761 0.14012 0.0
C1359 C 0.21484 0.48385 0.13296 0.0
C1360 C 0.18262 0.52166 0.13431 0.0
C1361 C 0.16582 0.53204 0.14254 0.0
C1362 C 0.211 0.45739 0.10905 0.0
C1363 C 0.25683 0.43898 0.10758 0.0
C1364 C 0.1977 0.4728 0.11723 0.0
C1365 C 0.23006 0.47037 0.12413 0.0
C1366 C 0.27636 0.45294 0.12257 0.0
C1367 C 0.2894 0.437 0.11441 0.0
H1368 H 0.39711 0.50335 0.86331 0.0
H1369 H 0.25091 0.49545 0.85458 0.0
H1370 H 0.37086 0.48504 0.87787 0.0
H1371 H 0.22479 0.47993 0.86924 0.0
H1372 H 0.20534 0.49363 0.89961 0.0
H1373 H 0.23091 0.5229 0.88546 0.0
H1374 H 0.32676 0.40311 0.8831 0.0
H1375 H 0.30049 0.37334 0.89706 0.0
C1376 C 0.3593 0.49887 0.86451 0.0
C1377 C 0.3261 0.50197 0.85776 0.0
C1378 C 0.34437 0.48849 0.87284 0.0
C1379 C 0.29586 0.48153 0.87465 0.0
C1380 C 0.26234 0.48608 0.86801 0.0
C1381 C 0.27736 0.49556 0.85962 0.0
C1382 C 0.23215 0.47394 0.89608 0.0
C1383 C 0.25121 0.43143 0.89941 0.0
C1384 C 0.2465 0.49047 0.888 0.0
C1385 C 0.2809 0.46529 0.88326 0.0
C1386 C 0.30047 0.4233 0.88667 0.0
C1387 C 0.28534 0.40623 0.89463 0.0
H1388 H 0.39553 0.48474 0.64398 0.0
H1389 H 0.25282 0.51716 0.65272 0.0
H1390 H 0.3717 0.50318 0.62931 0.0
H1391 H 0.22869 0.5336 0.63797 0.0
H1392 H 0.20163 0.52147 0.6082 0.0
H1393 H 0.22261 0.49189 0.62256 0.0
H1394 H 0.34536 0.5849 0.62288 0.0
H1395 H 0.32418 0.61469 0.60867 0.0
C1396 C 0.35883 0.49482 0.64276 0.0
C1397 C 0.32591 0.49856 0.64953 0.0
C1398 C 0.34526 0.50535 0.63436 0.0
C1399 C 0.29836 0.51961 0.63252 0.0
C1400 C 0.26488 0.52187 0.63921 0.0
C1401 C 0.27865 0.51197 0.64766 0.0
C1402 C 0.23333 0.53506 0.61133 0.0
C1403 C 0.26157 0.57001 0.60733 0.0
C1404 C 0.24509 0.51845 0.61954 0.0
C1405 C 0.28574 0.53595 0.62378 0.0
C1406 C 0.31415 0.57045 0.61971 0.0
C1407 C 0.30191 0.58764 0.61161 0.0
H1408 H 0.27902 0.6189 0.18081 0.0
H1409 H 0.27797 0.61153 0.2085 0.0
H1410 H 0.32298 0.69369 0.18152 0.0
H1411 H 0.32226 0.68617 0.20916 0.0
H1412 H 0.40737 0.83113 0.18594 0.0
H1413 H 0.39372 0.74445 0.1862 0.0
H1414 H 0.28399 0.76424 0.20533 0.0
H1415 H 0.29652 0.84993 0.20485 0.0
C1416 C 0.28966 0.63217 0.18705 0.0
C1417 C 0.27368 0.60988 0.19461 0.0
C1418 C 0.31502 0.6751 0.18744 0.0
C1419 C 0.3249 0.69634 0.1954 0.0
C1420 C 0.31414 0.67106 0.20294 0.0
C1421 C 0.2889 0.62816 0.20255 0.0
C1422 C 0.38059 0.81662 0.19022 0.0
C1423 C 0.35295 0.84709 0.19537 0.0
C1424 C 0.37298 0.76719 0.1904 0.0
C1425 C 0.33818 0.74753 0.19585 0.0
C1426 C 0.31185 0.7781 0.2012 0.0
C1427 C 0.31894 0.82727 0.20092 0.0
H1428 H 0.41399 0.15107 0.45223 0.0
H1429 H 0.39815 0.04309 0.43273 0.0
H1430 H 0.50089 0.13916 0.45203 0.0
H1431 H 0.48401 0.032 0.43235 0.0
H1432 H 0.63645 0.025 0.4298 0.0
H1433 H 0.56191 0.06937 0.42893 0.0
H1434 H 0.55241 0.07056 0.45656 0.0
H1435 H 0.62721 0.02686 0.45747 0.0
C1436 C 0.4292 0.12532 0.44784 0.0
C1437 C 0.3995 0.09801 0.44249 0.0
C1438 C 0.47877 0.11868 0.44769 0.0
C1439 C 0.49935 0.08503 0.44211 0.0
C1440 C 0.46951 0.05906 0.43657 0.0
C1441 C 0.42021 0.06529 0.4368 0.0
C1442 C 0.61942 0.03609 0.43571 0.0
C1443 C 0.63708 0.02101 0.4437 0.0
C1444 C 0.57655 0.06137 0.4352 0.0
C1445 C 0.55065 0.07216 0.44267 0.0
C1446 C 0.5714 0.06255 0.45068 0.0
C1447 C 0.61432 0.03727 0.4512 0.0
H1448 H 0.21674 0.38166 0.68084 0.0
H1449 H 0.2132 0.39301 0.70847 0.0
H1450 H 0.1735 0.30659 0.68167 0.0
H1451 H 0.16935 0.31816 0.70926 0.0
H1452 H 0.1991 0.1545 0.70596 0.0
H1453 H 0.20885 0.24052 0.7062 0.0
H1454 H 0.10433 0.25464 0.686 0.0
H1455 H 0.09363 0.16762 0.68594 0.0
C1456 C 0.20517 0.36922 0.68707 0.0
C1457 C 0.21985 0.39261 0.6946 0.0
C1458 C 0.1802 0.32611 0.68754 0.0
C1459 C 0.1693 0.30586 0.69555 0.0
C1460 C 0.17838 0.33242 0.70301 0.0
C1461 C 0.20336 0.37543 0.70254 0.0
C1462 C 0.17709 0.17597 0.70175 0.0
C1463 C 0.1455 0.15446 0.69596 0.0
C1464 C 0.18259 0.22536 0.7019 0.0
C1465 C 0.15703 0.25447 0.69617 0.0
C1466 C 0.12446 0.23309 0.69049 0.0
C1467 C 0.11851 0.18345 0.69043 0.0
H1468 H 0.08315 0.84257 0.95257 0.0
H1469 H 0.09449 0.94715 0.93236 0.0
H1470 H 0.99604 0.85261 0.95261 0.0
H1471 H 0.00838 0.95615 0.93221 0.0
H1472 H 0.85551 0.95996 0.93031 0.0
H1473 H 0.9305 0.91635 0.92941 0.0
H1474 H 0.94431 0.92192 0.95695 0.0
H1475 H 0.86914 0.96498 0.95791 0.0
C1476 C 0.06694 0.86711 0.94806 0.0
C1477 C 0.09548 0.89413 0.94247 0.0
C1478 C 0.01723 0.87266 0.94805 0.0
C1479 C 0.99531 0.90481 0.94236 0.0
C1480 C 0.02395 0.93023 0.93654 0.0
C1481 C 0.07341 0.92514 0.93663 0.0
C1482 C 0.87357 0.95046 0.93621 0.0
C1483 C 0.85702 0.96735 0.94417 0.0
C1484 C 0.9167 0.92564 0.93568 0.0
C1485 C 0.94391 0.91699 0.94308 0.0
C1486 C 0.92429 0.92827 0.95112 0.0
C1487 C 0.88114 0.95316 0.95166 0.0
H1488 H 0.29988 0.1557 0.30101 0.0
H1489 H 0.40025 0.16775 0.32188 0.0
H1490 H 0.28879 0.24154 0.30105 0.0
H1491 H 0.38811 0.25455 0.3221 0.0
H1492 H 0.28412 0.39455 0.29922 0.0
H1493 H 0.3281 0.31973 0.29854 0.0
H1494 H 0.31766 0.30561 0.32604 0.0
H1495 H 0.2742 0.38071 0.32677 0.0
C1496 C 0.32055 0.1769 0.30547 0.0
C1497 C 0.35118 0.1551 0.3114 0.0
C1498 C 0.31423 0.22621 0.30549 0.0
C1499 C 0.33795 0.25494 0.31152 0.0
C1500 C 0.36941 0.23329 0.31737 0.0
C1501 C 0.37618 0.18376 0.31727 0.0
C1502 C 0.29258 0.37641 0.30516 0.0
C1503 C 0.27439 0.39294 0.31303 0.0
C1504 C 0.31761 0.3334 0.30476 0.0
C1505 C 0.32505 0.30617 0.31221 0.0
C1506 C 0.31228 0.32567 0.32018 0.0
C1507 C 0.28724 0.3688 0.32059 0.0
H1508 H 0.87003 0.02981 0.57674 0.0
H1509 H 0.85492 0.03582 0.54917 0.0
H1510 H 0.94482 0.07333 0.5757 0.0
H1511 H 0.92942 0.08014 0.54818 0.0
H1512 H 0.09404 0.05391 0.55048 0.0
H1513 H 0.00803 0.0436 0.55045 0.0
H1514 H 0.99561 0.14185 0.57168 0.0
H1515 H 0.08248 0.15273 0.57159 0.0
C1516 C 0.8816 0.04201 0.57048 0.0
C1517 C 0.8572 0.028 0.56301 0.0
C1518 C 0.92458 0.06714 0.56989 0.0
C1519 C 0.9437 0.07894 0.56184 0.0
C1520 C 0.91615 0.07037 0.55447 0.0
C1521 C 0.87329 0.04518 0.55505 0.0
C1522 C 0.07289 0.0745 0.55496 0.0
C1523 C 0.09486 0.10417 0.56102 0.0
C1524 C 0.02348 0.06867 0.55495 0.0
C1525 C 0.99486 0.09211 0.56104 0.0
C1526 C 0.01672 0.12319 0.56693 0.0
C1527 C 0.06631 0.1293 0.56689 0.0
H1528 H 0.19797 0.84866 0.80186 0.0
H1529 H 0.09279 0.8346 0.82191 0.0
H1530 H 0.20903 0.76282 0.80169 0.0
H1531 H 0.10498 0.74769 0.82195 0.0
H1532 H 0.21935 0.62132 0.82686 0.0
H1533 H 0.17545 0.69616 0.82619 0.0
H1534 H 0.16935 0.68506 0.79861 0.0
H1535 H 0.21385 0.61053 0.79924 0.0
C1536 C 0.17637 0.827 0.8061 0.0
C1537 C 0.14442 0.84822 0.81188 0.0
C1538 C 0.18263 0.77772 0.806 0.0
C1539 C 0.1575 0.74839 0.81175 0.0
C1540 C 0.12475 0.76944 0.81744 0.0
C1541 C 0.11798 0.81901 0.81745 0.0
C1542 C 0.20724 0.63383 0.82067 0.0
C1543 C 0.22153 0.6107 0.81308 0.0
C1544 C 0.18189 0.67679 0.82029 0.0
C1545 C 0.17022 0.69709 0.81233 0.0
C1546 C 0.17896 0.67075 0.80483 0.0
C1547 C 0.20433 0.62792 0.8052 0.0
H1548 H 0.41172 0.83967 0.05387 0.0
H1549 H 0.39572 0.94443 0.07394 0.0
H1550 H 0.49871 0.8512 0.05423 0.0
H1551 H 0.48159 0.95491 0.07448 0.0
H1552 H 0.63369 0.95915 0.07753 0.0
H1553 H 0.55871 0.9153 0.07787 0.0
H1554 H 0.55138 0.9207 0.05025 0.0
H1555 H 0.62662 0.96393 0.04985 0.0
C1556 C 0.42688 0.86471 0.05841 0.0
C1557 C 0.39712 0.89124 0.06387 0.0
C1558 C 0.4765 0.87107 0.05865 0.0
C1559 C 0.49704 0.90352 0.06445 0.0
C1560 C 0.4671 0.92875 0.07008 0.0
C1561 C 0.4178 0.92286 0.06976 0.0
C1562 C 0.61705 0.94957 0.07151 0.0
C1563 C 0.63546 0.9664 0.06368 0.0
C1564 C 0.57394 0.92461 0.07171 0.0
C1565 C 0.54852 0.91586 0.0641 0.0
C1566 C 0.56999 0.92714 0.05622 0.0
C1567 C 0.61318 0.95211 0.05601 0.0
H1568 H 0.70827 0.39608 0.79948 0.0
H1569 H 0.71522 0.38399 0.82709 0.0
H1570 H 0.66477 0.32102 0.7988 0.0
H1571 H 0.67188 0.30881 0.82635 0.0
H1572 H 0.58987 0.17006 0.82187 0.0
H1573 H 0.60053 0.25716 0.82187 0.0
H1574 H 0.7071 0.24338 0.80202 0.0
H1575 H 0.69778 0.15725 0.80226 0.0
C1576 C 0.69916 0.37838 0.80543 0.0
C1577 C 0.71661 0.39534 0.81332 0.0
C1578 C 0.67434 0.33525 0.80503 0.0
C1579 C 0.66617 0.3085 0.8125 0.0
C1580 C 0.6779 0.32855 0.82048 0.0
C1581 C 0.70289 0.37169 0.82089 0.0
C1582 C 0.6153 0.18596 0.81749 0.0
C1583 C 0.64308 0.15703 0.81207 0.0
C1584 C 0.62117 0.23562 0.81745 0.0
C1585 C 0.65424 0.25707 0.81188 0.0
C1586 C 0.68052 0.22807 0.80625 0.0
C1587 C 0.67524 0.17865 0.80639 0.0
H1588 H 0.59788 0.95015 0.55298 0.0
H1589 H 0.5805 0.83886 0.57184 0.0
H1590 H 0.51201 0.96164 0.55251 0.0
H1591 H 0.4936 0.85156 0.57161 0.0
H1592 H 0.36618 0.96572 0.57674 0.0
H1593 H 0.44146 0.9224 0.57621 0.0
H1594 H 0.43485 0.92091 0.54857 0.0
H1595 H 0.35977 0.96455 0.54904 0.0
C1596 C 0.57549 0.9275 0.55691 0.0
C1597 C 0.59575 0.89362 0.56244 0.0
C1598 C 0.52625 0.93398 0.55664 0.0
C1599 C 0.49601 0.90714 0.56197 0.0
C1600 C 0.51611 0.87264 0.56743 0.0
C1601 C 0.56565 0.86561 0.5676 0.0
C1602 C 0.37976 0.95472 0.57055 0.0
C1603 C 0.35766 0.97001 0.56292 0.0
C1604 C 0.42296 0.92972 0.57026 0.0
C1605 C 0.44458 0.91951 0.56234 0.0
C1606 C 0.41941 0.92933 0.55476 0.0
C1607 C 0.37628 0.95422 0.55504 0.0
H1608 H 0.78584 0.61572 0.30066 0.0
H1609 H 0.77926 0.6088 0.32833 0.0
H1610 H 0.82865 0.69107 0.30162 0.0
H1611 H 0.82244 0.68396 0.32924 0.0
H1612 H 0.7929 0.84693 0.32456 0.0
H1613 H 0.78241 0.76092 0.32499 0.0
H1614 H 0.89738 0.74362 0.3068 0.0
H1615 H 0.90893 0.83063 0.30661 0.0
C1616 C 0.79508 0.62919 0.30696 0.0
C1617 C 0.77772 0.60691 0.31442 0.0
C1618 C 0.81979 0.67243 0.30749 0.0
C1619 C 0.82764 0.69396 0.3155 0.0
C1620 C 0.81586 0.66859 0.32297 0.0
C1621 C 0.79126 0.62537 0.32245 0.0
C1622 C 0.81678 0.82475 0.32083 0.0
C1623 C 0.85171 0.84532 0.31556 0.0
C1624 C 0.8109 0.77543 0.32109 0.0
C1625 C 0.83943 0.74546 0.316 0.0
C1626 C 0.87501 0.76591 0.31081 0.0
C1627 C 0.88138 0.81551 0.31065 0.0
H1628 H 0.13655 0.03396 0.07704 0.0
H1629 H 0.12224 0.02746 0.04946 0.0
H1630 H 0.06235 0.07893 0.07791 0.0
H1631 H 0.04787 0.07205 0.05039 0.0
H1632 H 0.89765 0.05073 0.07501 0.0
H1633 H 0.98361 0.04005 0.07514 0.0
H1634 H 0.9979 0.14339 0.05475 0.0
H1635 H 0.91097 0.15524 0.05483 0.0
C1636 C 0.11848 0.04338 0.07113 0.0
C1637 C 0.13462 0.02581 0.0632 0.0
C1638 C 0.07586 0.06904 0.07165 0.0
C1639 C 0.0487 0.07782 0.06424 0.0
C1640 C 0.06791 0.06566 0.05621 0.0
C1641 C 0.11059 0.03992 0.05569 0.0
C1642 C 0.91916 0.0723 0.07073 0.0
C1643 C 0.89769 0.10367 0.06489 0.0
C1644 C 0.96851 0.06626 0.07082 0.0
C1645 C 0.9976 0.09108 0.06498 0.0
C1646 C 0.97632 0.12375 0.05931 0.0
C1647 C 0.92674 0.13031 0.05932 0.0
H1648 H 0.6959 0.84549 0.70624 0.0
H1649 H 0.58985 0.83244 0.68632 0.0
H1650 H 0.70649 0.75951 0.70633 0.0
H1651 H 0.6017 0.74554 0.68618 0.0
H1652 H 0.71764 0.62088 0.68073 0.0
H1653 H 0.67333 0.69544 0.68168 0.0
H1654 H 0.6666 0.68087 0.7092 0.0
H1655 H 0.71117 0.60647 0.70831 0.0
C1656 C 0.67398 0.82405 0.70202 0.0
C1657 C 0.6421 0.8456 0.69627 0.0
C1658 C 0.68 0.7747 0.70207 0.0
C1659 C 0.6547 0.7457 0.69629 0.0
C1660 C 0.62167 0.76705 0.69069 0.0
C1661 C 0.6151 0.81662 0.69074 0.0
C1662 C 0.70523 0.63254 0.68696 0.0
C1663 C 0.71929 0.60841 0.69447 0.0
C1664 C 0.67968 0.67533 0.6875 0.0
C1665 C 0.66769 0.69455 0.69553 0.0
C1666 C 0.67637 0.66733 0.70293 0.0
C1667 C 0.70179 0.62457 0.70241 0.0
H1668 H 0.91312 0.83537 0.43684 0.0
H1669 H 0.90014 0.94229 0.45661 0.0
H1670 H 0.0 0.84713 0.43667 0.0
H1671 H 0.98611 0.95281 0.45666 0.0
H1672 H 0.12451 0.96242 0.43098 0.0
H1673 H 0.04993 0.91831 0.43205 0.0
H1674 H 0.06482 0.91316 0.45958 0.0
H1675 H 0.13925 0.95757 0.45857 0.0
C1676 C 0.92895 0.86075 0.44123 0.0
C1677 C 0.89999 0.88791 0.44674 0.0
C1678 C 0.97851 0.86728 0.44116 0.0
C1679 C -0.00012 0.90052 0.44671 0.0
C1680 C 0.9709 0.9261 0.45245 0.0
C1681 C 0.92155 0.9201 0.45243 0.0
C1682 C 0.11289 0.95045 0.43725 0.0
C1683 C 0.13713 0.96488 0.44471 0.0
C1684 C 0.07011 0.92498 0.43785 0.0
C1685 C 0.051 0.91347 0.44592 0.0
C1686 C 0.0783 0.92255 0.45329 0.0
C1687 C 0.12107 0.94788 0.45269 0.0
H1688 H 0.90537 0.16932 0.18619 0.0
H1689 H 0.79955 0.15594 0.20615 0.0
H1690 H 0.89299 0.25616 0.186 0.0
H1691 H 0.78835 0.24185 0.20618 0.0
H1692 H 0.78389 0.39492 0.20825 0.0
H1693 H 0.82811 0.32028 0.20908 0.0
H1694 H 0.82158 0.30656 0.18155 0.0
H1695 H 0.77768 0.38144 0.18066 0.0
C1696 C 0.88006 0.18507 0.19061 0.0
C1697 C 0.85338 0.15604 0.19618 0.0
C1698 C 0.87316 0.2346 0.19053 0.0
C1699 C 0.84007 0.25584 0.19613 0.0
C1700 C 0.81491 0.22676 0.20192 0.0
C1701 C 0.82128 0.17746 0.20191 0.0
C1702 C 0.79323 0.37691 0.20233 0.0
C1703 C 0.77601 0.39346 0.1944 0.0
C1704 C 0.81844 0.33403 0.20283 0.0
C1705 C 0.82709 0.30701 0.19541 0.0
C1706 C 0.81526 0.32653 0.18738 0.0
C1707 C 0.78998 0.3695 0.18688 0.0
H1708 H 0.36928 0.03532 0.93086 0.0
H1709 H 0.35599 0.03819 0.95848 0.0
H1710 H 0.44449 0.07846 0.93192 0.0
H1711 H 0.43112 0.08139 0.95947 0.0
H1712 H 0.5828 0.1603 0.93705 0.0
H1713 H 0.49569 0.14962 0.93691 0.0
H1714 H 0.509 0.03916 0.95607 0.0
H1715 H 0.59519 0.04849 0.95595 0.0
C1716 C 0.38134 0.04669 0.93714 0.0
C1717 C 0.35731 0.03192 0.94461 0.0
C1718 C 0.42448 0.07157 0.93773 0.0
C1719 C 0.44418 0.0821 0.94579 0.0
C1720 C 0.41713 0.07279 0.95319 0.0
C1721 C 0.37397 0.04814 0.9526 0.0
C1722 C 0.56681 0.134 0.94125 0.0
C1723 C 0.59562 0.10509 0.94649 0.0
C1724 C 0.51714 0.12812 0.94121 0.0
C1725 C 0.49557 0.09393 0.94654 0.0
C1726 C 0.52443 0.06655 0.95203 0.0
C1727 C 0.57386 0.07184 0.95196 0.0
H1728 H 0.79933 0.34798 0.68333 0.0
H1729 H 0.90705 0.33265 0.70291 0.0
H1730 H 0.78779 0.26211 0.68313 0.0
H1731 H 0.89408 0.24586 0.70297 0.0
H1732 H 0.77766 0.12082 0.70819 0.0
H1733 H 0.82141 0.19579 0.70745 0.0
H1734 H 0.82856 0.18355 0.67991 0.0
H1735 H 0.78468 0.10869 0.68058 0.0
C1736 C 0.82131 0.32607 0.68747 0.0
C1737 C 0.85407 0.34695 0.69314 0.0
C1738 C 0.81474 0.2768 0.68735 0.0
C1739 C 0.84031 0.2472 0.69299 0.0
C1740 C 0.87394 0.26787 0.69855 0.0
C1741 C 0.88112 0.31738 0.69856 0.0
C1742 C 0.78998 0.13312 0.70199 0.0
C1743 C 0.77636 0.10938 0.69442 0.0
C1744 C 0.81523 0.17612 0.70158 0.0
C1745 C 0.82728 0.19602 0.6936 0.0
C1746 C 0.81882 0.1694 0.68613 0.0
C1747 C 0.79379 0.12637 0.68653 0.0
H1748 H 0.14159 0.53827 0.95779 0.0
H1749 H 0.12743 0.53205 0.9302 0.0
H1750 H 0.06698 0.58249 0.95867 0.0
H1751 H 0.05262 0.57596 0.93115 0.0
H1752 H 0.91491 0.65856 0.93586 0.0
H1753 H 0.00191 0.64726 0.93569 0.0
H1754 H 0.98873 0.54179 0.95575 0.0
H1755 H 0.9027 0.55178 0.95568 0.0
C1756 C 0.12351 0.54765 0.95188 0.0
C1757 C 0.13979 0.53029 0.94394 0.0
C1758 C 0.08063 0.57287 0.95241 0.0
C1759 C 0.0534 0.58146 0.94501 0.0
C1760 C 0.07274 0.56965 0.93697 0.0
C1761 C 0.11565 0.54432 0.93644 0.0
C1762 C 0.93092 0.63327 0.94026 0.0
C1763 C 0.90215 0.60597 0.94578 0.0
C1764 C 0.98054 0.62703 0.94019 0.0
C1765 C 0.00215 0.59402 0.94576 0.0
C1766 C 0.97334 0.56832 0.95151 0.0
C1767 C 0.92395 0.574 0.95148 0.0
H1768 H 0.69366 0.65621 0.20669 0.0
H1769 H 0.59251 0.67029 0.18599 0.0
H1770 H 0.70392 0.74215 0.20704 0.0
H1771 H 0.60346 0.75721 0.1862 0.0
H1772 H 0.71072 0.89484 0.20914 0.0
H1773 H 0.66661 0.8201 0.20984 0.0
H1774 H 0.67193 0.80896 0.18224 0.0
H1775 H 0.71528 0.88394 0.18151 0.0
C1776 C 0.67263 0.67788 0.20236 0.0
C1777 C 0.64225 0.65665 0.19633 0.0
C1778 C 0.67841 0.72726 0.20256 0.0
C1779 C 0.65424 0.75663 0.19668 0.0
C1780 C 0.62263 0.7355 0.1908 0.0
C1781 C 0.6165 0.68589 0.19066 0.0
C1782 C 0.70108 0.87737 0.2032 0.0
C1783 C 0.71781 0.89471 0.19529 0.0
C1784 C 0.67599 0.83438 0.2036 0.0
C1785 C 0.6671 0.80795 0.19612 0.0
C1786 C 0.67841 0.82833 0.18814 0.0
C1787 C 0.70343 0.87142 0.18772 0.0
H1788 H 0.59267 0.44022 0.43195 0.0
H1789 H 0.57896 0.33898 0.45265 0.0
H1790 H 0.50671 0.44983 0.43153 0.0
H1791 H 0.49191 0.3494 0.45238 0.0
H1792 H 0.36426 0.4606 0.45689 0.0
H1793 H 0.43949 0.41768 0.45624 0.0
H1794 H 0.42906 0.41172 0.42865 0.0
H1795 H 0.35395 0.45529 0.42925 0.0
C1796 C 0.57109 0.41905 0.43627 0.0
C1797 C 0.59246 0.38878 0.44232 0.0
C1798 C 0.52168 0.42446 0.43602 0.0
C1799 C 0.49234 0.40008 0.44188 0.0
C1800 C 0.5136 0.36869 0.44779 0.0
C1801 C 0.56328 0.36289 0.44798 0.0
C1802 C 0.37702 0.44877 0.45068 0.0
C1803 C 0.35379 0.46292 0.44309 0.0
C1804 C 0.42024 0.42395 0.45033 0.0
C1805 C 0.44089 0.41258 0.44238 0.0
C1806 C 0.41457 0.42118 0.43486 0.0
C1807 C 0.37138 0.44604 0.43521 0.0
H1808 H 0.80114 0.65562 0.82473 0.0
H1809 H 0.90425 0.66965 0.80433 0.0
H1810 H 0.79122 0.74158 0.82511 0.0
H1811 H 0.89326 0.75667 0.80453 0.0
H1812 H 0.78046 0.88418 0.80004 0.0
H1813 H 0.82344 0.80885 0.80058 0.0
H1814 H 0.8312 0.81909 0.82815 0.0
H1815 H 0.78763 0.89422 0.82767 0.0
C1816 C 0.82259 0.67727 0.82046 0.0
C1817 C 0.85361 0.656 0.81452 0.0
C1818 C 0.81698 0.72663 0.82068 0.0
C1819 C 0.84182 0.75602 0.81491 0.0
C1820 C 0.87371 0.73489 0.80906 0.0
C1821 C 0.8798 0.68525 0.80892 0.0
C1822 C 0.79272 0.87134 0.80621 0.0
C1823 C 0.7792 0.89455 0.81383 0.0
C1824 C 0.81757 0.82811 0.8065 0.0
C1825 C 0.82947 0.80746 0.81442 0.0
C1826 C 0.82143 0.8337 0.82197 0.0
C1827 C 0.79663 0.87692 0.82168 0.0
H1828 H 0.35219 0.53518 0.0482 0.0
H1829 H 0.36382 0.53367 0.07584 0.0
H1830 H 0.42777 0.57767 0.04727 0.0
H1831 H 0.43965 0.57537 0.07487 0.0
H1832 H 0.58019 0.65044 0.07071 0.0
H1833 H 0.493 0.64203 0.07057 0.0
H1834 H 0.50485 0.5382 0.0502 0.0
H1835 H 0.59111 0.54591 0.05049 0.0
C1836 C 0.36995 0.54524 0.05409 0.0
C1837 C 0.35264 0.52962 0.06208 0.0
C1838 C 0.41346 0.56937 0.05355 0.0
C1839 C 0.44034 0.57849 0.06098 0.0
C1840 C 0.41996 0.56862 0.06902 0.0
C1841 C 0.3764 0.54451 0.06957 0.0
C1842 C 0.56386 0.62624 0.06616 0.0
C1843 C 0.59229 0.5989 0.0606 0.0
C1844 C 0.51409 0.62159 0.06605 0.0
C1845 C 0.49198 0.5898 0.06032 0.0
C1846 C 0.52056 0.5639 0.05455 0.0
C1847 C 0.5701 0.56822 0.05472 0.0
H1848 H 0.58497 0.33134 0.3204 0.0
H1849 H 0.70282 0.3466 0.3028 0.0
H1850 H 0.59715 0.24436 0.32052 0.0
H1851 H 0.71348 0.26059 0.3026 0.0
H1852 H 0.71428 0.10797 0.29937 0.0
H1853 H 0.67062 0.18288 0.29842 0.0
H1854 H 0.66946 0.19346 0.32602 0.0
H1855 H 0.7132 0.11846 0.32703 0.0
C1856 C 0.61298 0.31602 0.31649 0.0
C1857 C 0.64302 0.34558 0.3116 0.0
C1858 C 0.61969 0.26645 0.31651 0.0
C1859 C 0.65581 0.24577 0.31149 0.0
C1860 C 0.68462 0.27538 0.30639 0.0
C1861 C 0.67856 0.32469 0.3065 0.0
C1862 C 0.70335 0.12526 0.30526 0.0
C1863 C 0.7186 0.10793 0.31327 0.0
C1864 C 0.6784 0.16826 0.3047 0.0
C1865 C 0.6678 0.19443 0.31214 0.0
C1866 C 0.67738 0.17406 0.32018 0.0
C1867 C 0.7026 0.13109 0.32075 0.0
H1868 H 0.91966 0.34058 0.57166 0.0
H1869 H 0.90412 0.44463 0.55146 0.0
H1870 H 0.00631 0.35421 0.57173 0.0
H1871 H 0.98982 0.45721 0.55133 0.0
H1872 H 0.13069 0.46963 0.57683 0.0
H1873 H 0.05609 0.42535 0.576 0.0
H1874 H 0.06869 0.41973 0.54844 0.0
H1875 H 0.14302 0.46446 0.54921 0.0
C1876 C 0.9349 0.36579 0.56716 0.0
C1877 C 0.9053 0.39158 0.56155 0.0
C1878 C 0.98432 0.37343 0.56718 0.0
C1879 C 0.00493 0.40644 0.56149 0.0
C1880 C 0.97529 0.43072 0.55567 0.0
C1881 C 0.92608 0.42356 0.55573 0.0
C1882 C 0.11854 0.45754 0.57061 0.0
C1883 C 0.14215 0.47185 0.56307 0.0
C1884 C 0.07572 0.432 0.57014 0.0
C1885 C 0.05595 0.42022 0.56214 0.0
C1886 C 0.08258 0.42936 0.55468 0.0
C1887 C 0.12531 0.45485 0.55514 0.0
H1888 H 0.21846 0.8802 0.326 0.0
H1889 H 0.21169 0.8936 0.29841 0.0
H1890 H 0.17421 0.80572 0.32517 0.0
H1891 H 0.16694 0.8193 0.29764 0.0
H1892 H 0.19351 0.65452 0.30059 0.0
H1893 H 0.20499 0.74039 0.30039 0.0
H1894 H 0.10316 0.75591 0.32099 0.0
H1895 H 0.09067 0.66917 0.32101 0.0
C1896 C 0.2061 0.86831 0.31979 0.0
C1897 C 0.22005 0.89217 0.31225 0.0
C1898 C 0.18051 0.82555 0.31932 0.0
C1899 C 0.16829 0.80606 0.31132 0.0
C1900 C 0.17693 0.83298 0.30388 0.0
C1901 C 0.20244 0.8757 0.30434 0.0
C1902 C 0.17239 0.67631 0.30488 0.0
C1903 C 0.14111 0.65525 0.31079 0.0
C1904 C 0.17892 0.7256 0.30477 0.0
C1905 C 0.15473 0.75501 0.31064 0.0
C1906 C 0.12229 0.73412 0.3164 0.0
C1907 C 0.1153 0.68463 0.31644 0.0
H1908 H 0.86508 0.45834 0.0502 0.0
H1909 H 0.85202 0.45372 0.07781 0.0
H1910 H 0.94011 0.41521 0.05112 0.0
H1911 H 0.92705 0.41013 0.07868 0.0
H1912 H 0.09111 0.44128 0.07545 0.0
H1913 H 0.00494 0.44939 0.07584 0.0
H1914 H 0.99202 0.34646 0.05536 0.0
H1915 H 0.07919 0.33738 0.05515 0.0
C1916 C 0.87721 0.44665 0.05645 0.0
C1917 C 0.85331 0.46108 0.06396 0.0
C1918 C 0.92029 0.42168 0.05697 0.0
C1919 C 0.94013 0.41053 0.06499 0.0
C1920 C 0.91311 0.41936 0.07242 0.0
C1921 C 0.86999 0.44425 0.0719 0.0
C1922 C 0.06991 0.41918 0.07122 0.0
C1923 C 0.09182 0.38875 0.06527 0.0
C1924 C 0.02041 0.42375 0.07145 0.0
C1925 C 0.99157 0.39836 0.06566 0.0
C1926 C 0.01335 0.36654 0.05989 0.0
C1927 C 0.0631 0.36154 0.05974 0.0
H1928 H 0.27915 0.1235 0.82607 0.0
H1929 H 0.28519 0.10958 0.79849 0.0
H1930 H 0.32282 0.19818 0.82515 0.0
H1931 H 0.32973 0.18402 0.79761 0.0
H1932 H 0.30535 0.34871 0.80009 0.0
H1933 H 0.29428 0.26283 0.79993 0.0
H1934 H 0.39145 0.24864 0.82129 0.0
H1935 H 0.40302 0.33537 0.82134 0.0
C1936 C 0.29137 0.13531 0.81983 0.0
C1937 C 0.2774 0.11122 0.81233 0.0
C1938 C 0.31659 0.17824 0.81931 0.0
C1939 C 0.32853 0.19769 0.81128 0.0
C1940 C 0.31986 0.17052 0.80387 0.0
C1941 C 0.29455 0.12769 0.80439 0.0
C1942 C 0.32554 0.3272 0.80457 0.0
C1943 C 0.35509 0.34865 0.81072 0.0
C1944 C 0.31928 0.27785 0.80448 0.0
C1945 C 0.34217 0.24877 0.81058 0.0
C1946 C 0.37317 0.2701 0.81654 0.0
C1947 C 0.37968 0.31963 0.81659 0.0
H1948 H 0.63282 0.52724 0.5763 0.0
H1949 H 0.64202 0.53016 0.54864 0.0
H1950 H 0.55817 0.5713 0.57565 0.0
H1951 H 0.56761 0.57492 0.54803 0.0
H1952 H 0.42027 0.65344 0.5718 0.0
H1953 H 0.50704 0.64075 0.57156 0.0
H1954 H 0.48949 0.53786 0.55118 0.0
H1955 H 0.40373 0.54977 0.55157 0.0
C1956 C 0.62 0.53884 0.5701 0.0
C1957 C 0.64271 0.52386 0.56251 0.0
C1958 C 0.57712 0.56428 0.56973 0.0
C1959 C 0.55638 0.57536 0.56177 0.0
C1960 C 0.58222 0.56576 0.55424 0.0
C1961 C 0.62501 0.54028 0.55461 0.0
C1962 C 0.43531 0.62849 0.56723 0.0
C1963 C 0.40546 0.60266 0.56169 0.0
C1964 C 0.48481 0.62139 0.56707 0.0
C1965 C 0.50517 0.58871 0.56129 0.0
C1966 C 0.47518 0.56419 0.55556 0.0
C1967 C 0.42594 0.5709 0.5558 0.0
H1968 H 0.19459 0.34625 0.20501 0.0
H1969 H 0.09123 0.33277 0.18465 0.0
H1970 H 0.20616 0.26044 0.20504 0.0
H1971 H 0.10404 0.24598 0.18447 0.0
H1972 H 0.21076 0.10751 0.20718 0.0
H1973 H 0.16629 0.18204 0.20782 0.0
H1974 H 0.17583 0.19549 0.18031 0.0
H1975 H 0.21997 0.1207 0.17961 0.0
C1976 C 0.17348 0.32474 0.20067 0.0
C1977 C 0.14193 0.34613 0.19484 0.0
C1978 C 0.18007 0.27547 0.20069 0.0
C1979 C 0.15569 0.24636 0.1948 0.0
C1980 C 0.12326 0.26756 0.18907 0.0
C1981 C 0.11613 0.31707 0.18915 0.0
C1982 C 0.20203 0.12542 0.20122 0.0
C1983 C 0.2202 0.10883 0.19336 0.0
C1984 C 0.17667 0.16824 0.20161 0.0
C1985 C 0.16881 0.19519 0.19415 0.0
C1986 C 0.18155 0.1756 0.18618 0.0
C1987 C 0.20698 0.13268 0.18578 0.0
H1988 H 0.64132 0.46112 0.93003 0.0
H1989 H 0.62837 0.46787 0.95762 0.0
H1990 H 0.56629 0.41766 0.92926 0.0
H1991 H 0.55319 0.42464 0.9568 0.0
H1992 H 0.41474 0.34278 0.95225 0.0
H1993 H 0.50181 0.35357 0.95233 0.0
H1994 H 0.48845 0.45955 0.93236 0.0
H1995 H 0.40231 0.45 0.93251 0.0
C1996 C 0.62344 0.45202 0.93596 0.0
C1997 C 0.64016 0.46941 0.94387 0.0
C1998 C 0.58031 0.42722 0.9355 0.0
C1999 C 0.55332 0.419 0.94295 0.0
C2000 C 0.5731 0.43069 0.95095 0.0
C2001 C 0.61623 0.45566 0.95141 0.0
C2002 C 0.43073 0.36807 0.94786 0.0
C2003 C 0.40193 0.39553 0.94237 0.0
C2004 C 0.48038 0.37402 0.94787 0.0
C2005 C 0.50194 0.40696 0.94228 0.0
C2006 C 0.47306 0.43304 0.93659 0.0
C2007 C 0.42365 0.42764 0.93669 0.0
H2008 H 0.40306 0.66595 0.68516 0.0
H2009 H 0.30642 0.65634 0.70663 0.0
H2010 H 0.3925 0.75286 0.68491 0.0
H2011 H 0.29674 0.74238 0.70654 0.0
H2012 H 0.29149 0.89553 0.70771 0.0
H2013 H 0.33553 0.82079 0.70853 0.0
H2014 H 0.32258 0.80375 0.68112 0.0
H2015 H 0.27915 0.87877 0.68025 0.0
C2016 C 0.3802 0.68253 0.6899 0.0
C2017 C 0.35557 0.6545 0.69592 0.0
C2018 C 0.37432 0.73215 0.68978 0.0
C2019 C 0.34409 0.75454 0.69574 0.0
C2020 C 0.32117 0.72647 0.70198 0.0
C2021 C 0.32667 0.67704 0.70204 0.0
C2022 C 0.29943 0.87675 0.70181 0.0
C2023 C 0.28054 0.89244 0.69394 0.0
C2024 C 0.32449 0.83377 0.70229 0.0
C2025 C 0.33123 0.80574 0.69493 0.0
C2026 C 0.31777 0.82442 0.68692 0.0
C2027 C 0.29273 0.86751 0.68643 0.0
H2028 H 0.85184 0.53733 0.4576 0.0
H2029 H 0.86329 0.5292 0.42999 0.0
H2030 H 0.92716 0.58043 0.45816 0.0
H2031 H 0.93884 0.57182 0.43061 0.0
H2032 H 0.07959 0.65028 0.43479 0.0
H2033 H 0.99232 0.64125 0.43478 0.0
H2034 H 0.00375 0.53722 0.45511 0.0
H2035 H 0.08994 0.54503 0.45491 0.0
C2036 C 0.86945 0.54612 0.45162 0.0
C2037 C 0.85229 0.52836 0.44377 0.0
C2038 C 0.91275 0.57067 0.45196 0.0
C2039 C 0.93951 0.57813 0.44445 0.0
C2040 C 0.91916 0.56631 0.43651 0.0
C2041 C 0.87581 0.5417 0.43616 0.0
C2042 C 0.06315 0.6258 0.43928 0.0
C2043 C 0.09142 0.59857 0.44489 0.0
C2044 C 0.01337 0.62086 0.43931 0.0
C2045 C 0.99117 0.58911 0.44503 0.0
C2046 C 0.0196 0.56299 0.45078 0.0
C2047 C 0.06908 0.5674 0.45067 0.0
H2048 H 0.38079 0.98038 0.27464 0.0
H2049 H 0.23157 0.01942 0.27471 0.0
H2050 H 0.3846 0.99595 0.25927 0.0
H2051 H 0.2353 0.03436 0.25932 0.0
H2052 H 0.27483 0.10718 0.23392 0.0
H2053 H 0.27113 0.09132 0.24928 0.0
H2054 H 0.35493 0.96349 0.24569 0.0
H2055 H 0.35922 0.97962 0.23034 0.0
C2056 C 0.34873 0.99208 0.27137 0.0
C2057 C 0.30586 0.99866 0.27591 0.0
C2058 C 0.35088 0.00077 0.26256 0.0
C2059 C 0.31026 0.0164 0.25807 0.0
C2060 C 0.26738 0.0229 0.26261 0.0
C2061 C 0.26518 0.01407 0.27142 0.0
C2062 C 0.29254 0.07572 0.2364 0.0
C2063 C 0.31739 0.04473 0.2309 0.0
C2064 C 0.29015 0.06647 0.2452 0.0
C2065 C 0.31269 0.02611 0.24871 0.0
C2066 C 0.33764 0.99518 0.2432 0.0
C2067 C 0.3399 0.00433 0.2344 0.0
H2068 H 0.23733 0.98261 0.52527 0.0
H2069 H 0.27537 0.13203 0.52499 0.0
H2070 H 0.22336 0.98536 0.50985 0.0
H2071 H 0.26082 0.13482 0.50957 0.0
H2072 H 0.27599 0.10744 0.48053 0.0
H2073 H 0.29307 0.10435 0.49588 0.0
H2074 H 0.16552 0.02082 0.49992 0.0
H2075 H 0.14867 0.02345 0.48461 0.0
C2076 C 0.24273 0.01606 0.52193 0.0
C2077 C 0.2574 0.05712 0.52638 0.0
C2078 C 0.23447 0.01768 0.51309 0.0
C2079 C 0.24081 0.06035 0.50848 0.0
C2080 C 0.25607 0.10128 0.51292 0.0
C2081 C 0.26416 0.09971 0.52176 0.0
C2082 C 0.2516 0.08842 0.4847 0.0
C2083 C 0.21094 0.06572 0.48134 0.0
C2084 C 0.26128 0.08685 0.4935 0.0
C2085 C 0.23071 0.06226 0.49912 0.0
C2086 C 0.19013 0.03953 0.49575 0.0
C2087 C 0.18031 0.04132 0.48697 0.0
H2088 H 0.14192 0.02215 0.73089 0.0
H2089 H 0.22782 0.8957 0.73462 0.0
H2090 H 0.14511 0.03828 0.74623 0.0
H2091 H 0.2304 0.91156 0.74999 0.0
H2092 H 0.26667 0.9842 0.77555 0.0
H2093 H 0.26453 0.96905 0.76015 0.0
H2094 H 0.11462 0.00495 0.75968 0.0
H2095 H 0.11684 0.02077 0.77504 0.0
C2096 C 0.16137 0.99769 0.73498 0.0
C2097 C 0.18456 0.95757 0.73153 0.0
C2098 C 0.16298 0.00683 0.74378 0.0
C2099 C 0.18795 0.97617 0.74933 0.0
C2100 C 0.21131 0.93616 0.74587 0.0
C2101 C 0.20957 0.92692 0.73707 0.0
C2102 C 0.23327 0.98894 0.77216 0.0
C2103 C 0.19195 0.00377 0.77652 0.0
C2104 C 0.23199 0.97998 0.76335 0.0
C2105 C 0.18941 0.98578 0.7587 0.0
C2106 C 0.14813 0.00073 0.76306 0.0
C2107 C 0.14937 0.00957 0.77187 0.0
H2108 H 0.24945 0.016 0.02471 0.0
H2109 H 0.22724 0.86345 0.02526 0.0
H2110 H 0.26467 0.01209 0.00934 0.0
H2111 H 0.24272 0.85963 0.00985 0.0
H2112 H 0.22291 0.88358 0.98058 0.0
H2113 H 0.20627 0.88623 0.99597 0.0
H2114 H 0.32694 0.97978 0.99965 0.0
H2115 H 0.34352 0.97734 0.98433 0.0
C2116 C 0.24781 0.9816 0.02156 0.0
C2117 C 0.23717 0.94003 0.02623 0.0
C2118 C 0.25678 0.97936 0.01275 0.0
C2119 C 0.255 0.93554 0.00838 0.0
C2120 C 0.24394 0.89398 0.01302 0.0
C2121 C 0.23534 0.89616 0.02186 0.0
C2122 C 0.24591 0.90466 0.98468 0.0
C2123 C 0.28455 0.93026 0.98122 0.0
C2124 C 0.2365 0.90598 0.9935 0.0
C2125 C 0.26523 0.93331 0.99903 0.0
C2126 C 0.30382 0.95885 0.99555 0.0
C2127 C 0.31346 0.95721 0.98677 0.0
H2128 H 0.76312 0.9805 0.73221 0.0
H2129 H 0.61583 0.02625 0.73257 0.0
H2130 H 0.75969 0.9658 0.7476 0.0
H2131 H 0.6123 0.01094 0.74795 0.0
H2132 H 0.64059 0.02581 0.77687 0.0
H2133 H 0.64437 0.04187 0.76151 0.0
H2134 H 0.72184 0.91032 0.75769 0.0
H2135 H 0.71862 0.89449 0.77304 0.0
C2136 C 0.73 0.98742 0.73556 0.0
C2137 C 0.68977 0.00459 0.73115 0.0
C2138 C 0.72796 0.9787 0.74438 0.0
C2139 C 0.6857 0.98711 0.74901 0.0
C2140 C 0.64556 0.00459 0.7446 0.0
C2141 C 0.64753 0.01315 0.73577 0.0
C2142 C 0.6584 0.00028 0.77276 0.0
C2143 C 0.6793 0.95884 0.77619 0.0
C2144 C 0.66036 0.00939 0.76395 0.0
C2145 C 0.68344 0.97739 0.75837 0.0
C2146 C 0.70432 0.93598 0.76182 0.0
C2147 C 0.70221 0.92677 0.77062 0.0
H2148 H 0.76398 0.01324 0.4824 0.0
H2149 H 0.71985 0.8655 0.48273 0.0
H2150 H 0.77965 0.00951 0.49777 0.0
H2151 H 0.73615 0.86167 0.49806 0.0
H2152 H 0.72365 0.88798 0.52702 0.0
H2153 H 0.70603 0.89272 0.51173 0.0
H2154 H 0.83638 0.97178 0.50765 0.0
H2155 H 0.85375 0.96766 0.52294 0.0
C2156 C 0.75759 0.97998 0.48574 0.0
C2157 C 0.74063 0.93969 0.48133 0.0
C2158 C 0.76686 0.97777 0.49454 0.0
C2159 C 0.75924 0.93526 0.49914 0.0
C2160 C 0.74188 0.89511 0.49473 0.0
C2161 C 0.73276 0.89726 0.48593 0.0
C2162 C 0.74859 0.90635 0.52286 0.0
C2163 C 0.79015 0.92741 0.5262 0.0
C2164 C 0.73858 0.90887 0.51409 0.0
C2165 C 0.76978 0.93266 0.50847 0.0
C2166 C 0.8113 0.95373 0.51182 0.0
C2167 C 0.82141 0.95108 0.52058 0.0
H2168 H 0.88484 0.01348 0.27664 0.0
H2169 H 0.73284 0.98769 0.27596 0.0
H2170 H 0.8894 0.9985 0.26123 0.0
H2171 H 0.73746 0.97307 0.26058 0.0
H2172 H 0.77343 0.89822 0.23528 0.0
H2173 H 0.77068 0.91289 0.25067 0.0
H2174 H 0.86279 0.0351 0.24748 0.0
H2175 H 0.86586 0.02032 0.23204 0.0
C2176 C 0.8524 0.00466 0.27321 0.0
C2177 C 0.80847 0.00176 0.27754 0.0
C2178 C 0.855 0.99634 0.26437 0.0
C2179 C 0.81381 0.98454 0.25968 0.0
C2180 C 0.76994 0.98154 0.26402 0.0
C2181 C 0.76728 0.99018 0.27284 0.0
C2182 C 0.7932 0.92819 0.23785 0.0
C2183 C 0.81985 0.9581 0.23242 0.0
C2184 C 0.79139 0.93674 0.24667 0.0
C2185 C 0.81642 0.97522 0.2503 0.0
C2186 C 0.84347 0.0049 0.24489 0.0
C2187 C 0.84502 0.99655 0.23604 0.0
H2188 H 0.75258 0.97477 0.02561 0.0
H2189 H 0.73422 0.12785 0.02625 0.0
H2190 H 0.76929 0.97882 0.01028 0.0
H2191 H 0.75129 0.13181 0.01092 0.0
H2192 H 0.73096 0.11067 0.9818 0.0
H2193 H 0.71437 0.10714 0.99714 0.0
H2194 H 0.83209 0.00946 1.00054 0.0
H2195 H 0.84856 0.01265 0.9852 0.0
C2196 C 0.75216 0.00929 0.02249 0.0
C2197 C 0.74201 0.05098 0.02716 0.0
C2198 C 0.762 0.01162 0.01371 0.0
C2199 C 0.76163 0.05563 0.00939 0.0
C2200 C 0.75135 0.09731 0.01405 0.0
C2201 C 0.74181 0.09504 0.02284 0.0
C2202 C 0.75336 0.08848 0.98581 0.0
C2203 C 0.7911 0.06194 0.98227 0.0
C2204 C 0.74398 0.08666 0.99461 0.0
C2205 C 0.77191 0.05801 1.00005 0.0
C2206 C 0.80961 0.03147 0.9965 0.0
C2207 C 0.8192 0.03352 0.98771 0.0
H2208 H 0.86212 0.5264 0.77643 0.0
H2209 H 0.76792 0.40575 0.77312 0.0
H2210 H 0.85959 0.54131 0.76099 0.0
H2211 H 0.76561 0.4206 0.75774 0.0
H2212 H 0.73028 0.49526 0.73233 0.0
H2213 H 0.7338 0.4816 0.74776 0.0
H2214 H 0.88634 0.50324 0.74729 0.0
H2215 H 0.8829 0.51716 0.73183 0.0
C2216 C 0.84094 0.50305 0.77242 0.0
C2217 C 0.81522 0.46488 0.77602 0.0
C2218 C 0.8397 0.51145 0.76357 0.0
C2219 C 0.81234 0.48218 0.75814 0.0
C2220 C 0.78659 0.44412 0.76175 0.0
C2221 C 0.78814 0.43548 0.77057 0.0
C2222 C 0.76461 0.49713 0.73551 0.0
C2223 C 0.80632 0.50726 0.73084 0.0
C2224 C 0.76664 0.48907 0.74434 0.0
C2225 C 0.81035 0.49127 0.74875 0.0
C2226 C 0.85205 0.50173 0.7441 0.0
C2227 C 0.8501 0.50943 0.73523 0.0
H2228 H 0.72465 0.59555 0.02627 0.0
H2229 H 0.85555 0.51688 0.02234 0.0
H2230 H 0.70876 0.59288 0.01093 0.0
H2231 H 0.83989 0.51487 0.00695 0.0
H2232 H 0.76934 0.478 0.98119 0.0
H2233 H 0.78437 0.47902 0.99659 0.0
H2234 H 0.74063 0.62671 0.99765 0.0
H2235 H 0.72494 0.62558 0.98229 0.0
C2236 C 0.75012 0.57778 0.02213 0.0
C2237 C 0.79144 0.55649 0.02553 0.0
C2238 C 0.74111 0.57648 0.01333 0.0
C2239 C 0.77311 0.55377 0.00772 0.0
C2240 C 0.81428 0.5322 0.01112 0.0
C2241 C 0.82339 0.53361 0.01993 0.0
C2242 C 0.76283 0.51066 0.98471 0.0
C2243 C 0.74583 0.55167 0.98051 0.0
C2244 C 0.77173 0.51131 0.99353 0.0
C2245 C 0.76369 0.55294 0.99835 0.0
C2246 C 0.7466 0.5939 0.99414 0.0
C2247 C 0.73782 0.59329 0.98533 0.0
H2248 H 0.76397 0.52054 0.2314 0.0
H2249 H 0.61662 0.47529 0.23229 0.0
H2250 H 0.76234 0.53503 0.24681 0.0
H2251 H 0.61488 0.49041 0.24768 0.0
H2252 H 0.64563 0.47519 0.27644 0.0
H2253 H 0.64834 0.45912 0.26108 0.0
H2254 H 0.72584 0.59045 0.25707 0.0
H2255 H 0.72373 0.60629 0.27244 0.0
C2256 C 0.73122 0.5137 0.23488 0.0
C2257 C 0.69044 0.49671 0.23061 0.0
C2258 C 0.73022 0.52228 0.2437 0.0
C2259 C 0.68847 0.51395 0.24847 0.0
C2260 C 0.64778 0.49667 0.24421 0.0
C2261 C 0.64872 0.48823 0.23538 0.0
C2262 C 0.66328 0.50065 0.27229 0.0
C2263 C 0.68444 0.54207 0.27567 0.0
C2264 C 0.6646 0.49154 0.26348 0.0
C2265 C 0.68726 0.52352 0.25785 0.0
C2266 C 0.70859 0.56482 0.26124 0.0
C2267 C 0.70712 0.57403 0.27005 0.0
H2268 H 0.84939 0.46538 0.4841 0.0
H2269 H 0.71727 0.38851 0.48046 0.0
H2270 H 0.83494 0.46769 0.49949 0.0
H2271 H 0.70263 0.39128 0.4959 0.0
H2272 H 0.72242 0.36103 0.52488 0.0
H2273 H 0.73522 0.35821 0.50941 0.0
H2274 H 0.78032 0.50553 0.50974 0.0
H2275 H 0.76803 0.5083 0.5252 0.0
C2276 C 0.81719 0.44903 0.48658 0.0
C2277 C 0.78451 0.42673 0.48104 0.0
C2278 C 0.80878 0.45062 0.49541 0.0
C2279 C 0.76758 0.42978 0.49893 0.0
C2280 C 0.73494 0.40727 0.4934 0.0
C2281 C 0.74323 0.4059 0.48455 0.0
C2282 C 0.73501 0.39285 0.52166 0.0
C2283 C 0.74429 0.43487 0.52629 0.0
C2284 C 0.74208 0.39129 0.51278 0.0
C2285 C 0.75888 0.43162 0.50834 0.0
C2286 C 0.76793 0.47366 0.51298 0.0
C2287 C 0.76064 0.4753 0.52184 0.0
H2288 H 0.11073 0.51912 0.23173 0.0
H2289 H 0.26066 0.4829 0.23156 0.0
H2290 H 0.10752 0.5034 0.2471 0.0
H2291 H 0.25753 0.46785 0.24694 0.0
H2292 H 0.22037 0.39486 0.27242 0.0
H2293 H 0.22319 0.41042 0.25705 0.0
H2294 H 0.13685 0.53655 0.26064 0.0
H2295 H 0.13344 0.52071 0.276 0.0
C2296 C 0.14307 0.50801 0.23497 0.0
C2297 C 0.18597 0.50228 0.23041 0.0
C2298 C 0.14126 0.49922 0.24379 0.0
C2299 C 0.18227 0.48437 0.24825 0.0
C2300 C 0.22517 0.47868 0.24368 0.0
C2301 C 0.22701 0.48758 0.23487 0.0
C2302 C 0.20191 0.42588 0.26994 0.0
C2303 C 0.17662 0.45648 0.27545 0.0
C2304 C 0.20378 0.43495 0.26113 0.0
C2305 C 0.18028 0.47475 0.25762 0.0
C2306 C 0.15487 0.50528 0.26313 0.0
C2307 C 0.15313 0.49631 0.27194 0.0
H2308 H 0.28674 0.39728 0.97917 0.0
H2309 H 0.14359 0.44266 0.98549 0.0
H2310 H 0.3073 0.39663 0.99435 0.0
H2311 H 0.1645 0.44296 1.00067 0.0
H2312 H 0.20453 0.38998 0.02751 0.0
H2313 H 0.18368 0.38903 0.01234 0.0
H2314 H 0.32051 0.45115 0.00614 0.0
H2315 H 0.34176 0.45117 0.02128 0.0
C2316 C 0.25967 0.40726 0.98379 0.0
C2317 C 0.21348 0.42 0.98111 0.0
C2318 C 0.27156 0.40717 0.9925 0.0
C2319 C 0.23759 0.41981 0.99874 0.0
C2320 C 0.19137 0.43244 0.99605 0.0
C2321 C 0.17946 0.43254 0.98734 0.0
C2322 C 0.23021 0.40336 0.02291 0.0
C2323 C 0.27488 0.42056 0.02562 0.0
C2324 C 0.21813 0.40309 0.01421 0.0
C2325 C 0.2504 0.42001 0.00801 0.0
C2326 C 0.29505 0.43723 0.01073 0.0
C2327 C 0.30714 0.43749 0.01942 0.0
H2328 H 0.37895 0.53977 0.77485 0.0
H2329 H 0.23428 0.4866 0.77569 0.0
H2330 H 0.37865 0.53305 0.75928 0.0
H2331 H 0.23441 0.47873 0.76013 0.0
H2332 H 0.23334 0.51841 0.73174 0.0
H2333 H 0.23388 0.52656 0.74729 0.0
H2334 H 0.37892 0.47429 0.74801 0.0
H2335 H 0.37879 0.46729 0.73244 0.0
C2336 C 0.34715 0.52642 0.77172 0.0
C2337 C 0.30659 0.51383 0.77652 0.0
C2338 C 0.34708 0.5223 0.76278 0.0
C2339 C 0.3065 0.50536 0.75843 0.0
C2340 C 0.26602 0.4926 0.76325 0.0
C2341 C 0.26605 0.49684 0.77218 0.0
C2342 C 0.26538 0.50871 0.73521 0.0
C2343 C 0.30601 0.49218 0.73084 0.0
C2344 C 0.26559 0.51311 0.74414 0.0
C2345 C 0.3064 0.50098 0.74892 0.0
C2346 C 0.34708 0.48455 0.74453 0.0
C2347 C 0.34691 0.48027 0.7356 0.0
H2348 H 0.15329 0.5328 0.5216 0.0
H2349 H 0.28198 0.61112 0.52753 0.0
H2350 H 0.17631 0.53068 0.50652 0.0
H2351 H 0.30449 0.60964 0.51245 0.0
H2352 H 0.35372 0.55445 0.48631 0.0
H2353 H 0.33089 0.55394 0.5014 0.0
H2354 H 0.18498 0.58443 0.49433 0.0
H2355 H 0.20751 0.5841 0.47926 0.0
C2356 C 0.18638 0.54972 0.51969 0.0
C2357 C 0.21576 0.57213 0.52577 0.0
C2358 C 0.19947 0.54868 0.51103 0.0
C2359 C 0.24228 0.56994 0.50828 0.0
C2360 C 0.27163 0.59235 0.51438 0.0
C2361 C 0.25851 0.59347 0.52302 0.0
C2362 C 0.31676 0.56093 0.48797 0.0
C2363 C 0.28249 0.56933 0.48157 0.0
C2364 C 0.30372 0.5609 0.49663 0.0
C2365 C 0.2561 0.5692 0.49908 0.0
C2366 C 0.22182 0.57731 0.49266 0.0
C2367 C 0.23485 0.57739 0.48402 0.0
H2368 H 0.53187 0.37015 0.20676 0.0
H2369 H 0.57767 0.34724 0.18063 0.0
H2370 H 0.48874 0.29472 0.20644 0.0
H2371 H 0.53661 0.27101 0.18043 0.0
H2372 H 0.422 0.15598 0.18029 0.0
H2373 H 0.46285 0.23227 0.18018 0.0
H2374 H 0.50321 0.21176 0.20668 0.0
H2375 H 0.46021 0.13623 0.20689 0.0
C2376 C 0.5325 0.34914 0.20093 0.0
C2377 C 0.55815 0.36478 0.19372 0.0
C2378 C 0.50828 0.30555 0.20078 0.0
C2379 C 0.50967 0.27625 0.19346 0.0
C2380 C 0.53421 0.29269 0.18616 0.0
C2381 C 0.55785 0.33654 0.18627 0.0
C2382 C 0.44008 0.1674 0.18607 0.0
C2383 C 0.43773 0.13999 0.19361 0.0
C2384 C 0.46363 0.21129 0.18601 0.0
C2385 C 0.48604 0.22863 0.19345 0.0
C2386 C 0.48534 0.20021 0.20089 0.0
C2387 C 0.4612 0.15656 0.20099 0.0
H2388 H 0.08836 0.16781 0.43168 0.0
H2389 H 0.11368 0.20443 0.45821 0.0
H2390 H 0.01387 0.21096 0.43198 0.0
H2391 H 0.03956 0.25055 0.45838 0.0
H2392 H 0.88034 0.28984 0.45814 0.0
H2393 H 0.95508 0.24466 0.45833 0.0
H2394 H 0.9816 0.28634 0.43206 0.0
H2395 H 0.90654 0.32848 0.43173 0.0
C2396 C 0.07858 0.18608 0.43755 0.0
C2397 C 0.10726 0.18286 0.44491 0.0
C2398 C 0.03566 0.21111 0.43771 0.0
C2399 C 0.02049 0.23466 0.44519 0.0
C2400 C 0.04964 0.23229 0.45254 0.0
C2401 C 0.09244 0.20636 0.45242 0.0
C2402 C 0.90195 0.28861 0.45238 0.0
C2403 C 0.88711 0.31222 0.44489 0.0
C2404 C 0.94509 0.26322 0.45252 0.0
C2405 C 0.97457 0.26159 0.4452 0.0
C2406 C 0.95955 0.28556 0.43776 0.0
C2407 C 0.9163 0.31 0.43757 0.0
H2408 H 0.92283 0.6569 0.68138 0.0
H2409 H 0.95786 0.63591 0.7081 0.0
H2410 H 0.96514 0.73198 0.68142 0.0
H2411 H 0.00289 0.71052 0.70803 0.0
H2412 H 0.03772 0.86902 0.70766 0.0
H2413 H 0.99327 0.79421 0.70766 0.0
H2414 H 0.03971 0.76726 0.68166 0.0
H2415 H 0.0817 0.84281 0.68153 0.0
C2416 C 0.94051 0.66779 0.68724 0.0
C2417 C 0.93696 0.64024 0.69475 0.0
C2418 C 0.96504 0.71102 0.68725 0.0
C2419 C 0.98755 0.72764 0.69473 0.0
C2420 C 0.98521 0.6994 0.70219 0.0
C2421 C 0.9599 0.65631 0.70222 0.0
C2422 C 0.03771 0.84738 0.70191 0.0
C2423 C 0.06294 0.86205 0.69458 0.0
C2424 C 0.01275 0.80416 0.70194 0.0
C2425 C 0.01305 0.77429 0.69468 0.0
C2426 C 0.03783 0.7895 0.68732 0.0
C2427 C 0.06205 0.83297 0.68725 0.0
H2428 H 0.38308 0.7936 0.95793 0.0
H2429 H 0.40515 0.82759 0.93119 0.0
H2430 H 0.45738 0.74799 0.95797 0.0
H2431 H 0.47992 0.7847 0.93134 0.0
H2432 H 0.58995 0.66762 0.93166 0.0
H2433 H 0.51453 0.70984 0.93171 0.0
H2434 H 0.54122 0.75698 0.95767 0.0
H2435 H 0.61594 0.71227 0.95775 0.0
C2436 C 0.40364 0.7912 0.95206 0.0
C2437 C 0.38797 0.81403 0.94455 0.0
C2438 C 0.44655 0.76556 0.95211 0.0
C2439 C 0.475 0.76276 0.94467 0.0
C2440 C 0.45878 0.78516 0.93715 0.0
C2441 C 0.41573 0.81002 0.93707 0.0
C2442 C 0.58008 0.68745 0.93735 0.0
C2443 C 0.60909 0.68672 0.9447 0.0
C2444 C 0.53668 0.71181 0.93738 0.0
C2445 C 0.52147 0.73691 0.9447 0.0
C2446 C 0.5512 0.73728 0.95198 0.0
C2447 C 0.59436 0.71216 0.95199 0.0
H2448 H 0.42543 0.84713 0.29815 0.0
H2449 H 0.45775 0.8658 0.32503 0.0
H2450 H 0.46702 0.77149 0.29817 0.0
H2451 H 0.5019 0.79072 0.32496 0.0
H2452 H 0.53405 0.63186 0.32453 0.0
H2453 H 0.49062 0.7073 0.32442 0.0
H2454 H 0.54096 0.73469 0.29867 0.0
H2455 H 0.58197 0.65861 0.29864 0.0
C2456 C 0.44244 0.83564 0.30403 0.0
C2457 C 0.43827 0.86264 0.31159 0.0
C2458 C 0.46648 0.79208 0.30404 0.0
C2459 C 0.48781 0.77462 0.31157 0.0
C2460 C 0.48506 0.80245 0.31908 0.0
C2461 C 0.46027 0.84582 0.3191 0.0
C2462 C 0.53512 0.65373 0.3188 0.0
C2463 C 0.5612 0.63904 0.31157 0.0
C2464 C 0.51075 0.69731 0.31878 0.0
C2465 C 0.51248 0.7275 0.31156 0.0
C2466 C 0.53801 0.71225 0.3043 0.0
C2467 C 0.56167 0.66845 0.30428 0.0
H2468 H 0.5964 0.32383 0.57669 0.0
H2469 H 0.61679 0.28193 0.55028 0.0
H2470 H 0.51993 0.28318 0.57691 0.0
H2471 H 0.54107 0.23932 0.5506 0.0
H2472 H 0.38236 0.21303 0.55041 0.0
H2473 H 0.45813 0.25554 0.55071 0.0
H2474 H 0.48074 0.20918 0.57684 0.0
H2475 H 0.40421 0.16858 0.57665 0.0
C2476 C 0.58509 0.30499 0.57098 0.0
C2477 C 0.61269 0.30629 0.56346 0.0
C2478 C 0.54111 0.2816 0.57111 0.0
C2479 C 0.52389 0.25837 0.56374 0.0
C2480 C 0.55255 0.25788 0.55633 0.0
C2481 C 0.5963 0.28181 0.55617 0.0
C2482 C 0.4032 0.21258 0.55626 0.0
C2483 C 0.3872 0.18742 0.5635 0.0
C2484 C 0.44697 0.23645 0.5564 0.0
C2485 C 0.47606 0.23523 0.56375 0.0
C2486 C 0.45923 0.21133 0.57108 0.0
C2487 C 0.41521 0.18798 0.57098 0.0
H2488 H 0.9527 0.36578 0.7989 0.0
H2489 H 0.92153 0.34647 0.82582 0.0
H2490 H 0.99765 0.29103 0.79892 0.0
H2491 H 0.96367 0.27136 0.82574 0.0
H2492 H 0.08048 0.16113 0.82541 0.0
H2493 H 0.03843 0.2366 0.82524 0.0
H2494 H 0.98829 0.20718 0.79956 0.0
H2495 H 0.03283 0.13236 0.79958 0.0
C2496 C 0.95556 0.34573 0.80481 0.0
C2497 C 0.93378 0.36233 0.81236 0.0
C2498 C 0.98082 0.30258 0.80481 0.0
C2499 C 0.98424 0.27486 0.81233 0.0
C2500 C 0.96276 0.29194 0.81987 0.0
C2501 C 0.93832 0.3352 0.8199 0.0
C2502 C 0.06001 0.17039 0.81976 0.0
C2503 C 0.05988 0.1406 0.81252 0.0
C2504 C 0.03575 0.21383 0.81966 0.0
C2505 C 0.00989 0.22829 0.81238 0.0
C2506 C 0.0086 0.19777 0.80522 0.0
C2507 C 0.03361 0.15455 0.80526 0.0
H2508 H 0.10944 0.78779 0.04887 0.0
H2509 H 0.08904 0.81944 0.07574 0.0
H2510 H 0.03558 0.74152 0.04889 0.0
H2511 H 0.01465 0.77596 0.07565 0.0
H2512 H 0.90496 0.65866 0.07531 0.0
H2513 H 0.98023 0.70118 0.07521 0.0
H2514 H 0.95189 0.74965 0.04937 0.0
H2515 H 0.87742 0.7046 0.04934 0.0
C2516 C 0.08933 0.78474 0.05478 0.0
C2517 C 0.10534 0.80709 0.06231 0.0
C2518 C 0.04667 0.75871 0.05477 0.0
C2519 C 0.01878 0.75509 0.06226 0.0
C2520 C 0.03536 0.77702 0.0698 0.0
C2521 C 0.07819 0.80223 0.06984 0.0
C2522 C 0.91447 0.67885 0.06964 0.0
C2523 C 0.88509 0.67842 0.06235 0.0
C2524 C 0.95777 0.70337 0.06958 0.0
C2525 C 0.97246 0.72896 0.06227 0.0
C2526 C 0.94235 0.72957 0.05505 0.0
C2527 C 0.89933 0.70426 0.05506 0.0
H2528 H 0.53913 0.86848 0.80035 0.0
H2529 H 0.5773 0.84862 0.82696 0.0
H2530 H 0.49553 0.79329 0.80059 0.0
H2531 H 0.53579 0.77268 0.82709 0.0
H2532 H 0.46643 0.635 0.80055 0.0
H2533 H 0.50988 0.71023 0.80086 0.0
H2534 H 0.46152 0.73453 0.82682 0.0
H2535 H 0.42005 0.65847 0.82663 0.0
C2536 C 0.53801 0.8482 0.80626 0.0
C2537 C 0.56167 0.86462 0.81363 0.0
C2538 C 0.51351 0.80476 0.80637 0.0
C2539 C 0.51262 0.77642 0.81383 0.0
C2540 C 0.53518 0.79362 0.82126 0.0
C2541 C 0.55911 0.8373 0.82118 0.0
C2542 C 0.46573 0.6561 0.80636 0.0
C2543 C 0.43984 0.64068 0.81356 0.0
C2544 C 0.49014 0.69957 0.80651 0.0
C2545 C 0.48871 0.72896 0.81382 0.0
C2546 C 0.46392 0.71276 0.82111 0.0
C2547 C 0.44007 0.66901 0.82099 0.0
H2548 H 0.09666 0.67229 0.57663 0.0
H2549 H 0.11828 0.71406 0.55024 0.0
H2550 H 0.02063 0.71361 0.57677 0.0
H2551 H 0.04297 0.75757 0.5505 0.0
H2552 H 0.88424 0.78698 0.55035 0.0
H2553 H 0.95981 0.74392 0.55052 0.0
H2554 H 0.98254 0.78755 0.57679 0.0
H2555 H 0.90626 0.82839 0.57674 0.0
C2556 C 0.08572 0.69128 0.57091 0.0
C2557 C 0.11357 0.68979 0.56342 0.0
C2558 C 0.04197 0.7151 0.57099 0.0
C2559 C 0.02523 0.73869 0.56362 0.0
C2560 C 0.05408 0.73883 0.55623 0.0
C2561 C 0.09759 0.71439 0.55611 0.0
C2562 C 0.90509 0.7867 0.5562 0.0
C2563 C 0.88911 0.81102 0.56353 0.0
C2564 C 0.94876 0.76253 0.55627 0.0
C2565 C 0.97776 0.76265 0.56364 0.0
C2566 C 0.96108 0.78607 0.57103 0.0
C2567 C 0.91719 0.80962 0.57099 0.0
H2568 H 0.03214 0.36692 0.29992 0.0
H2569 H 0.07642 0.34531 0.32617 0.0
H2570 H 0.98909 0.29133 0.30028 0.0
H2571 H 0.03581 0.26904 0.3264 0.0
H2572 H 0.92116 0.15576 0.32705 0.0
H2573 H 0.96221 0.23163 0.32678 0.0
H2574 H 0.00093 0.20799 0.30028 0.0
H2575 H 0.95729 0.13264 0.30043 0.0
C2576 C 0.03248 0.34615 0.30578 0.0
C2577 C 0.05747 0.36231 0.31303 0.0
C2578 C 0.00833 0.30247 0.30596 0.0
C2579 C 0.00921 0.27363 0.31335 0.0
C2580 C 0.03356 0.2904 0.32064 0.0
C2581 C 0.05699 0.33431 0.3205 0.0
C2582 C 0.93886 0.16634 0.32117 0.0
C2583 C 0.93589 0.138 0.31376 0.0
C2584 C 0.96261 0.21004 0.32103 0.0
C2585 C 0.98486 0.22634 0.3135 0.0
C2586 C 0.98334 0.19718 0.30614 0.0
C2587 C 0.95885 0.15365 0.30626 0.0
H2588 H 0.58584 0.16944 0.07563 0.0
H2589 H 0.61164 0.20428 0.04904 0.0
H2590 H 0.51131 0.21248 0.07519 0.0
H2591 H 0.53744 0.25027 0.04872 0.0
H2592 H 0.37816 0.28982 0.04888 0.0
H2593 H 0.45267 0.2442 0.04879 0.0
H2594 H 0.47992 0.28839 0.0749 0.0
H2595 H 0.40519 0.33101 0.07514 0.0
C2596 C 0.57614 0.18727 0.06972 0.0
C2597 C 0.60498 0.18364 0.06238 0.0
C2598 C 0.5332 0.21222 0.06947 0.0
C2599 C 0.5182 0.23527 0.06193 0.0
C2600 C 0.54744 0.2324 0.0546 0.0
C2601 C 0.59026 0.20656 0.05481 0.0
C2602 C 0.39987 0.28904 0.05462 0.0
C2603 C 0.38536 0.31353 0.06204 0.0
C2604 C 0.44285 0.2634 0.05455 0.0
C2605 C 0.47244 0.26236 0.06185 0.0
C2606 C 0.45774 0.28718 0.06922 0.0
C2607 C 0.41468 0.31189 0.06935 0.0
H2608 H 0.53552 0.13402 0.7076 0.0
H2609 H 0.57444 0.15286 0.681 0.0
H2610 H 0.49194 0.20922 0.70724 0.0
H2611 H 0.53293 0.22882 0.68074 0.0
H2612 H 0.41765 0.34346 0.681 0.0
H2613 H 0.45865 0.26715 0.68093 0.0
H2614 H 0.50683 0.29228 0.70687 0.0
H2615 H 0.46385 0.36782 0.70706 0.0
C2616 C 0.53454 0.15406 0.70166 0.0
C2617 C 0.55846 0.13739 0.69433 0.0
C2618 C 0.51006 0.19751 0.70148 0.0
C2619 C 0.50943 0.22559 0.69399 0.0
C2620 C 0.53215 0.20808 0.6866 0.0
C2621 C 0.55606 0.1644 0.68675 0.0
C2622 C 0.43752 0.33304 0.68665 0.0
C2623 C 0.43739 0.36172 0.69405 0.0
C2624 C 0.4611 0.28915 0.68662 0.0
C2625 C 0.48572 0.27313 0.69393 0.0
C2626 C 0.48723 0.30283 0.7012 0.0
C2627 C 0.46309 0.34646 0.70128 0.0
H2628 H 0.37978 0.70326 0.43219 0.0
H2629 H 0.4014 0.66271 0.45864 0.0
H2630 H 0.45503 0.74701 0.4324 0.0
H2631 H 0.47727 0.70401 0.45873 0.0
H2632 H 0.58926 0.81988 0.45896 0.0
H2633 H 0.51368 0.77819 0.4588 0.0
H2634 H 0.53859 0.73587 0.43252 0.0
H2635 H 0.61362 0.78007 0.43256 0.0
C2636 C 0.40048 0.70387 0.43805 0.0
C2637 C 0.38441 0.67976 0.44541 0.0
C2638 C 0.44395 0.72843 0.43815 0.0
C2639 C 0.47264 0.72884 0.44556 0.0
C2640 C 0.45599 0.70529 0.45294 0.0
C2641 C 0.41231 0.68145 0.45289 0.0
C2642 C 0.57903 0.80122 0.45317 0.0
C2643 C 0.60762 0.80328 0.44577 0.0
C2644 C 0.5355 0.77713 0.45308 0.0
C2645 C 0.51967 0.75366 0.44564 0.0
C2646 C 0.54906 0.75437 0.43831 0.0
C2647 C 0.59241 0.77918 0.43836 0.0
H2648 H 0.95847 0.86597 0.20785 0.0
H2649 H 0.91777 0.84717 0.18134 0.0
H2650 H 0.00148 0.79041 0.20742 0.0
H2651 H 0.95862 0.77093 0.18102 0.0
H2652 H 0.07408 0.65685 0.18089 0.0
H2653 H 0.03277 0.73291 0.18099 0.0
H2654 H 0.98736 0.70724 0.20708 0.0
H2655 H 0.03078 0.6319 0.2071 0.0
C2656 C 0.9589 0.84585 0.20192 0.0
C2657 C 0.93477 0.86271 0.19463 0.0
C2658 C 0.98305 0.80219 0.2017 0.0
C2659 C 0.98312 0.77411 0.19422 0.0
C2660 C 0.95993 0.79168 0.18687 0.0
C2661 C 0.93637 0.83554 0.18706 0.0
C2662 C 0.05477 0.66707 0.18662 0.0
C2663 C 0.05584 0.63829 0.194 0.0
C2664 C 0.03097 0.71082 0.18667 0.0
C2665 C 0.007 0.72663 0.19407 0.0
C2666 C 0.00641 0.69685 0.20134 0.0
C2667 C 0.0308 0.65332 0.20132 0.0
H2668 H 0.90663 0.16629 0.93213 0.0
H2669 H 0.88311 0.20897 0.95841 0.0
H2670 H 0.98187 0.20863 0.93203 0.0
H2671 H 0.95769 0.25395 0.95818 0.0
H2672 H 0.11582 0.2913 0.95791 0.0
H2673 H 0.04156 0.24568 0.95817 0.0
H2674 H 0.0161 0.28347 0.93167 0.0
H2675 H 0.09085 0.32631 0.9313 0.0
C2676 C 0.91701 0.1857 0.93784 0.0
C2677 C 0.88872 0.1844 0.94528 0.0
C2678 C 0.96031 0.21017 0.93778 0.0
C2679 C 0.97615 0.23487 0.9451 0.0
C2680 C 0.9472 0.2346 0.95248 0.0
C2681 C 0.90412 0.20933 0.95258 0.0
C2682 C 0.09462 0.28912 0.95212 0.0
C2683 C 0.1095 0.31215 0.94457 0.0
C2684 C 0.05173 0.26347 0.95229 0.0
C2685 C 0.0225 0.26093 0.94495 0.0
C2686 C 0.03787 0.28367 0.93741 0.0
C2687 C 0.08092 0.30849 0.9372 0.0
loop_
_geom_bond_atom_site_label_1
_geom_bond_atom_site_label_2
_geom_bond_distance
_geom_bond_site_symmetry_2
_ccdc_geom_bond_type
Co0 O3 1.970 . S
Co0 N17 1.989 . S
Co0 O25 1.967 . S
Co0 O32 1.920 . S
Co1 O4 1.966 . S
Co1 N10 2.022 . S
Co1 N18 1.993 . S
Co1 O26 1.941 . S
C2 O3 1.258 . S
C2 O4 1.263 . S
O3 Co0 1.970 . S
O3 C2 1.258 . S
O4 Co1 1.966 . S
O4 C2 1.263 . S
C5 O6 1.235 . S
C5 O32 1.289 . S
O6 C5 1.235 . S
C7 C9 1.400 . S
C7 N10 1.351 . S
C7 C12 1.501 . S
C8 C9 1.387 . S
C8 N11 1.341 . S
C9 C7 1.400 . S
C9 C8 1.387 . S
N10 Co1 2.022 . S
N10 C7 1.351 . S
N10 N11 1.365 . S
N11 C8 1.341 . S
N11 N10 1.365 . S
N11 H31 0.862 . S
C12 C7 1.501 . S
C12 H13 0.961 . S
C12 H14 0.961 . S
C12 H15 0.960 . S
H13 C12 0.961 . S
H14 C12 0.961 . S
H15 C12 0.960 . S
C16 N17 1.342 1_565 S
C16 C20 1.401 . S
C16 C21 1.499 . S
N17 Co0 1.989 . S
N17 C16 1.342 1_545 S
N17 N18 1.388 . S
N18 Co1 1.993 . S
N18 N17 1.388 . S
N18 C19 1.346 1_545 S
C19 N18 1.346 1_565 S
C19 C20 1.396 . S
C19 C29 1.510 . S
C20 C16 1.401 . S
C20 C19 1.396 . S
C21 C16 1.499 . S
C21 H22 0.959 . S
C21 H23 0.960 . S
C21 H24 0.961 . S
H22 C21 0.959 . S
H23 C21 0.960 . S
H24 C21 0.961 . S
O25 Co0 1.967 . S
O25 C33 1.258 . S
O26 Co1 1.941 . S
O26 C33 1.266 . S
H27 C29 0.959 . S
H28 C29 0.961 . S
C29 C19 1.510 . S
C29 H27 0.959 . S
C29 H28 0.961 . S
C29 H30 0.960 . S
H30 C29 0.960 . S
H31 N11 0.862 . S
O32 Co0 1.920 . S
O32 C5 1.289 . S
C33 O25 1.258 . S
C33 O26 1.266 . S
Co34 O37 1.970 . S
Co34 N51 1.989 . S
Co34 O59 1.967 . S
Co34 O66 1.920 . S
Co35 O38 1.966 . S
Co35 N44 2.022 . S
Co35 N52 1.993 . S
Co35 O60 1.941 . S
C36 O37 1.258 . S
C36 O38 1.263 . S
O37 Co34 1.970 . S
O37 C36 1.258 . S
O38 Co35 1.966 . S
O38 C36 1.263 . S
C39 O40 1.235 . S
C39 O66 1.289 . S
O40 C39 1.235 . S
C41 C43 1.400 . S
C41 N44 1.351 . S
C41 C46 1.501 1_545 S
C42 C43 1.387 . S
C42 N45 1.341 . S
C43 C41 1.400 . S
C43 C42 1.387 . S
N44 Co35 2.022 . S
N44 C41 1.351 . S
N44 N45 1.365 . S
N45 C42 1.341 . S
N45 N44 1.365 . S
N45 H65 0.862 . S
C46 C41 1.501 1_565 S
C46 H47 0.961 . S
C46 H48 0.961 . S
C46 H49 0.960 . S
H47 C46 0.961 . S
H48 C46 0.961 . S
H49 C46 0.960 . S
C50 N51 1.342 . S
C50 C54 1.401 . S
C50 C55 1.499 . S
N51 Co34 1.989 . S
N51 C50 1.342 . S
N51 N52 1.388 . S
N52 Co35 1.993 . S
N52 N51 1.388 . S
N52 C53 1.346 . S
C53 N52 1.346 . S
C53 C54 1.396 . S
C53 C63 1.510 . S
C54 C50 1.401 . S
C54 C53 1.396 . S
C55 C50 1.499 . S
C55 H56 0.959 . S
C55 H57 0.960 . S
C55 H58 0.961 . S
H56 C55 0.959 . S
H57 C55 0.960 . S
H58 C55 0.961 . S
O59 Co34 1.967 . S
O59 C67 1.258 . S
O60 Co35 1.941 . S
O60 C67 1.266 . S
H61 C63 0.959 . S
H62 C63 0.961 . S
C63 C53 1.510 . S
C63 H61 0.959 . S
C63 H62 0.961 . S
C63 H64 0.960 . S
H64 C63 0.960 . S
H65 N45 0.862 . S
O66 Co34 1.920 . S
O66 C39 1.289 . S
C67 O59 1.258 . S
C67 O60 1.266 . S
Co68 O71 1.970 . S
Co68 N85 1.989 . S
Co68 O93 1.967 . S
Co68 O100 1.920 . S
Co69 O72 1.966 . S
Co69 N78 2.022 . S
Co69 N86 1.993 . S
Co69 O94 1.941 . S
C70 O71 1.258 . S
C70 O72 1.263 . S
O71 Co68 1.970 . S
O71 C70 1.258 . S
O72 Co69 1.966 . S
O72 C70 1.263 . S
C73 O74 1.235 . S
C73 O100 1.289 . S
O74 C73 1.235 . S
C75 C77 1.400 . S
C75 N78 1.351 . S
C75 C80 1.501 . S
C76 C77 1.387 . S
C76 N79 1.341 . S
C77 C75 1.400 . S
C77 C76 1.387 . S
N78 Co69 2.022 . S
N78 C75 1.351 . S
N78 N79 1.365 . S
N79 C76 1.341 . S
N79 N78 1.365 . S
N79 H99 0.862 . S
C80 C75 1.501 . S
C80 H81 0.961 . S
C80 H82 0.961 . S
C80 H83 0.960 . S
H81 C80 0.961 . S
H82 C80 0.961 . S
H83 C80 0.960 . S
C84 N85 1.342 1_545 S
C84 C88 1.401 . S
C84 C89 1.499 . S
N85 Co68 1.989 . S
N85 C84 1.342 1_565 S
N85 N86 1.388 . S
N86 Co69 1.993 . S
N86 N85 1.388 . S
N86 C87 1.346 1_565 S
C87 N86 1.346 1_545 S
C87 C88 1.396 . S
C87 C97 1.510 . S
C88 C84 1.401 . S
C88 C87 1.396 . S
C89 C84 1.499 . S
C89 H90 0.959 . S
C89 H91 0.960 . S
C89 H92 0.961 . S
H90 C89 0.959 . S
H91 C89 0.960 . S
H92 C89 0.961 . S
O93 Co68 1.967 . S
O93 C101 1.258 . S
O94 Co69 1.941 . S
O94 C101 1.266 . S
H95 C97 0.959 . S
H96 C97 0.961 . S
C97 C87 1.510 . S
C97 H95 0.959 . S
C97 H96 0.961 . S
C97 H98 0.960 . S
H98 C97 0.960 . S
H99 N79 0.862 . S
O100 Co68 1.920 . S
O100 C73 1.289 . S
C101 O93 1.258 . S
C101 O94 1.266 . S
Co102 O105 1.970 . S
Co102 N119 1.989 . S
Co102 O127 1.967 . S
Co102 O134 1.920 . S
Co103 O106 1.966 . S
Co103 N112 2.022 . S
Co103 N120 1.993 . S
Co103 O128 1.941 . S
C104 O105 1.258 . S
C104 O106 1.263 . S
O105 Co102 1.970 . S
O105 C104 1.258 . S
O106 Co103 1.966 . S
O106 C104 1.263 . S
C107 O108 1.235 . S
C107 O134 1.289 . S
O108 C107 1.235 . S
C109 C111 1.400 . S
C109 N112 1.351 . S
C109 C114 1.501 1_565 S
C110 C111 1.387 . S
C110 N113 1.341 . S
C111 C109 1.400 . S
C111 C110 1.387 . S
N112 Co103 2.022 . S
N112 C109 1.351 . S
N112 N113 1.365 . S
N113 C110 1.341 . S
N113 N112 1.365 . S
N113 H133 0.862 . S
C114 C109 1.501 1_545 S
C114 H115 0.961 . S
C114 H116 0.961 . S
C114 H117 0.960 . S
H115 C114 0.961 . S
H116 C114 0.961 . S
H117 C114 0.960 . S
C118 N119 1.342 . S
C118 C122 1.401 . S
C118 C123 1.499 . S
N119 Co102 1.989 . S
N119 C118 1.342 . S
N119 N120 1.388 . S
N120 Co103 1.993 . S
N120 N119 1.388 . S
N120 C121 1.346 . S
C121 N120 1.346 . S
C121 C122 1.396 . S
C121 C131 1.510 . S
C122 C118 1.401 . S
C122 C121 1.396 . S
C123 C118 1.499 . S
C123 H124 0.959 . S
C123 H125 0.960 . S
C123 H126 0.961 . S
H124 C123 0.959 . S
H125 C123 0.960 . S
H126 C123 0.961 . S
O127 Co102 1.967 . S
O127 C135 1.258 . S
O128 Co103 1.941 . S
O128 C135 1.266 . S
H129 C131 0.959 . S
H130 C131 0.961 . S
C131 C121 1.510 . S
C131 H129 0.959 . S
C131 H130 0.961 . S
C131 H132 0.960 . S
H132 C131 0.960 . S
H133 N113 0.862 . S
O134 Co102 1.920 . S
O134 C107 1.289 . S
C135 O127 1.258 . S
C135 O128 1.266 . S
Co136 O139 1.970 . S
Co136 N153 1.989 . S
Co136 O161 1.967 . S
Co136 O168 1.920 . S
Co137 O140 1.966 . S
Co137 N146 2.022 . S
Co137 N154 1.993 . S
Co137 O162 1.941 . S
C138 O139 1.258 . S
C138 O140 1.263 . S
O139 Co136 1.970 . S
O139 C138 1.258 . S
O140 Co137 1.966 . S
O140 C138 1.263 . S
C141 O142 1.235 . S
C141 O168 1.289 . S
O142 C141 1.235 . S
C143 C145 1.400 . S
C143 N146 1.351 . S
C143 C148 1.501 . S
C144 C145 1.387 . S
C144 N147 1.341 . S
C145 C143 1.400 . S
C145 C144 1.387 . S
N146 Co137 2.022 . S
N146 C143 1.351 . S
N146 N147 1.365 . S
N147 C144 1.341 . S
N147 N146 1.365 . S
N147 H167 0.862 . S
C148 C143 1.501 . S
C148 H149 0.961 . S
C148 H150 0.961 . S
C148 H151 0.960 . S
H149 C148 0.961 . S
H150 C148 0.961 . S
H151 C148 0.960 . S
C152 N153 1.342 1_545 S
C152 C156 1.401 . S
C152 C157 1.499 . S
N153 Co136 1.989 . S
N153 C152 1.342 1_565 S
N153 N154 1.388 . S
N154 Co137 1.993 . S
N154 N153 1.388 . S
N154 C155 1.346 1_565 S
C155 N154 1.346 1_545 S
C155 C156 1.396 . S
C155 C165 1.510 . S
C156 C152 1.401 . S
C156 C155 1.396 . S
C157 C152 1.499 . S
C157 H158 0.959 . S
C157 H159 0.960 . S
C157 H160 0.961 . S
H158 C157 0.959 . S
H159 C157 0.960 . S
H160 C157 0.961 . S
O161 Co136 1.967 . S
O161 C169 1.258 . S
O162 Co137 1.941 . S
O162 C169 1.266 . S
H163 C165 0.959 . S
H164 C165 0.961 . S
C165 C155 1.510 . S
C165 H163 0.959 . S
C165 H164 0.961 . S
C165 H166 0.960 . S
H166 C165 0.960 . S
H167 N147 0.862 . S
O168 Co136 1.920 . S
O168 C141 1.289 . S
C169 O161 1.258 . S
C169 O162 1.266 . S
Co170 O173 1.970 . S
Co170 N187 1.989 . S
Co170 O195 1.967 . S
Co170 O202 1.920 . S
Co171 O174 1.966 . S
Co171 N180 2.022 . S
Co171 N188 1.993 . S
Co171 O196 1.941 . S
C172 O173 1.258 . S
C172 O174 1.263 . S
O173 Co170 1.970 . S
O173 C172 1.258 . S
O174 Co171 1.966 . S
O174 C172 1.263 . S
C175 O176 1.235 . S
C175 O202 1.289 . S
O176 C175 1.235 . S
C177 C179 1.400 . S
C177 N180 1.351 . S
C177 C182 1.501 1_545 S
C178 C179 1.387 . S
C178 N181 1.341 . S
C179 C177 1.400 . S
C179 C178 1.387 . S
N180 Co171 2.022 . S
N180 C177 1.351 . S
N180 N181 1.365 . S
N181 C178 1.341 . S
N181 N180 1.365 . S
N181 H201 0.862 . S
C182 C177 1.501 1_565 S
C182 H183 0.961 . S
C182 H184 0.961 . S
C182 H185 0.960 . S
H183 C182 0.961 . S
H184 C182 0.961 . S
H185 C182 0.960 . S
C186 N187 1.342 . S
C186 C190 1.401 . S
C186 C191 1.499 . S
N187 Co170 1.989 . S
N187 C186 1.342 . S
N187 N188 1.388 . S
N188 Co171 1.993 . S
N188 N187 1.388 . S
N188 C189 1.346 . S
C189 N188 1.346 . S
C189 C190 1.396 . S
C189 C199 1.510 . S
C190 C186 1.401 . S
C190 C189 1.396 . S
C191 C186 1.499 . S
C191 H192 0.959 . S
C191 H193 0.960 . S
C191 H194 0.961 . S
H192 C191 0.959 . S
H193 C191 0.960 . S
H194 C191 0.961 . S
O195 Co170 1.967 . S
O195 C203 1.258 . S
O196 Co171 1.941 . S
O196 C203 1.266 . S
H197 C199 0.959 . S
H198 C199 0.961 . S
C199 C189 1.510 . S
C199 H197 0.959 . S
C199 H198 0.961 . S
C199 H200 0.960 . S
H200 C199 0.960 . S
H201 N181 0.862 . S
O202 Co170 1.920 . S
O202 C175 1.289 . S
C203 O195 1.258 . S
C203 O196 1.266 . S
Co204 O207 1.970 . S
Co204 N221 1.989 . S
Co204 O229 1.967 . S
Co204 O236 1.920 . S
Co205 O208 1.966 . S
Co205 N214 2.022 . S
Co205 N222 1.993 . S
Co205 O230 1.941 . S
C206 O207 1.258 . S
C206 O208 1.263 . S
O207 Co204 1.970 . S
O207 C206 1.258 . S
O208 Co205 1.966 . S
O208 C206 1.263 . S
C209 O210 1.235 . S
C209 O236 1.289 . S
O210 C209 1.235 . S
C211 C213 1.400 . S
C211 N214 1.351 . S
C211 C216 1.501 . S
C212 C213 1.387 . S
C212 N215 1.341 . S
C213 C211 1.400 . S
C213 C212 1.387 . S
N214 Co205 2.022 . S
N214 C211 1.351 . S
N214 N215 1.365 . S
N215 C212 1.341 . S
N215 N214 1.365 . S
N215 H235 0.862 . S
C216 C211 1.501 . S
C216 H217 0.961 . S
C216 H218 0.961 . S
C216 H219 0.960 . S
H217 C216 0.961 . S
H218 C216 0.961 . S
H219 C216 0.960 . S
C220 N221 1.342 1_565 S
C220 C224 1.401 . S
C220 C225 1.499 . S
N221 Co204 1.989 . S
N221 C220 1.342 1_545 S
N221 N222 1.388 . S
N222 Co205 1.993 . S
N222 N221 1.388 . S
N222 C223 1.346 1_545 S
C223 N222 1.346 1_565 S
C223 C224 1.396 . S
C223 C233 1.510 . S
C224 C220 1.401 . S
C224 C223 1.396 . S
C225 C220 1.499 . S
C225 H226 0.959 . S
C225 H227 0.960 . S
C225 H228 0.961 . S
H226 C225 0.959 . S
H227 C225 0.960 . S
H228 C225 0.961 . S
O229 Co204 1.967 . S
O229 C237 1.258 . S
O230 Co205 1.941 . S
O230 C237 1.266 . S
H231 C233 0.959 . S
H232 C233 0.961 . S
C233 C223 1.510 . S
C233 H231 0.959 . S
C233 H232 0.961 . S
C233 H234 0.960 . S
H234 C233 0.960 . S
H235 N215 0.862 . S
O236 Co204 1.920 . S
O236 C209 1.289 . S
C237 O229 1.258 . S
C237 O230 1.266 . S
Co238 O241 1.970 . S
Co238 N255 1.989 . S
Co238 O263 1.967 . S
Co238 O270 1.920 . S
Co239 O242 1.966 . S
Co239 N248 2.022 . S
Co239 N256 1.993 . S
Co239 O264 1.941 . S
C240 O241 1.258 . S
C240 O242 1.263 . S
O241 Co238 1.970 . S
O241 C240 1.258 . S
O242 Co239 1.966 . S
O242 C240 1.263 . S
C243 O244 1.235 . S
C243 O270 1.289 . S
O244 C243 1.235 . S
C245 C247 1.400 . S
C245 N248 1.351 . S
C245 C250 1.501 1_565 S
C246 C247 1.387 . S
C246 N249 1.341 . S
C247 C245 1.400 . S
C247 C246 1.387 . S
N248 Co239 2.022 . S
N248 C245 1.351 . S
N248 N249 1.365 . S
N249 C246 1.341 . S
N249 N248 1.365 . S
N249 H269 0.862 . S
C250 C245 1.501 1_545 S
C250 H251 0.961 . S
C250 H252 0.961 . S
C250 H253 0.960 . S
H251 C250 0.961 . S
H252 C250 0.961 . S
H253 C250 0.960 . S
C254 N255 1.342 . S
C254 C258 1.401 . S
C254 C259 1.499 . S
N255 Co238 1.989 . S
N255 C254 1.342 . S
N255 N256 1.388 . S
N256 Co239 1.993 . S
N256 N255 1.388 . S
N256 C257 1.346 . S
C257 N256 1.346 . S
C257 C258 1.396 . S
C257 C267 1.510 . S
C258 C254 1.401 . S
C258 C257 1.396 . S
C259 C254 1.499 . S
C259 H260 0.959 . S
C259 H261 0.960 . S
C259 H262 0.961 . S
H260 C259 0.959 . S
H261 C259 0.960 . S
H262 C259 0.961 . S
O263 Co238 1.967 . S
O263 C271 1.258 . S
O264 Co239 1.941 . S
O264 C271 1.266 . S
H265 C267 0.959 . S
H266 C267 0.961 . S
C267 C257 1.510 . S
C267 H265 0.959 . S
C267 H266 0.961 . S
C267 H268 0.960 . S
H268 C267 0.960 . S
H269 N249 0.862 . S
O270 Co238 1.920 . S
O270 C243 1.289 . S
C271 O263 1.258 . S
C271 O264 1.266 . S
Co272 O275 1.970 . S
Co272 N289 1.989 . S
Co272 O297 1.967 . S
Co272 O304 1.920 . S
Co273 O276 1.966 . S
Co273 N282 2.022 . S
Co273 N290 1.993 . S
Co273 O298 1.941 . S
C274 O275 1.258 . S
C274 O276 1.263 . S
O275 Co272 1.970 . S
O275 C274 1.258 . S
O276 Co273 1.966 . S
O276 C274 1.263 . S
C277 O278 1.235 . S
C277 O304 1.289 . S
O278 C277 1.235 . S
C279 C281 1.400 . S
C279 N282 1.351 . S
C279 C284 1.501 . S
C280 C281 1.387 . S
C280 N283 1.341 . S
C281 C279 1.400 . S
C281 C280 1.387 . S
N282 Co273 2.022 . S
N282 C279 1.351 . S
N282 N283 1.365 . S
N283 C280 1.341 . S
N283 N282 1.365 . S
N283 H303 0.862 . S
C284 C279 1.501 . S
C284 H285 0.961 . S
C284 H286 0.961 . S
C284 H287 0.960 . S
H285 C284 0.961 . S
H286 C284 0.961 . S
H287 C284 0.960 . S
C288 N289 1.342 1_545 S
C288 C292 1.401 . S
C288 C293 1.499 . S
N289 Co272 1.989 . S
N289 C288 1.342 1_565 S
N289 N290 1.388 . S
N290 Co273 1.993 . S
N290 N289 1.388 . S
N290 C291 1.346 1_565 S
C291 N290 1.346 1_545 S
C291 C292 1.396 . S
C291 C301 1.510 . S
C292 C288 1.401 . S
C292 C291 1.396 . S
C293 C288 1.499 . S
C293 H294 0.959 . S
C293 H295 0.960 . S
C293 H296 0.961 . S
H294 C293 0.959 . S
H295 C293 0.960 . S
H296 C293 0.961 . S
O297 Co272 1.967 . S
O297 C305 1.258 . S
O298 Co273 1.941 . S
O298 C305 1.266 . S
H299 C301 0.959 . S
H300 C301 0.961 . S
C301 C291 1.510 . S
C301 H299 0.959 . S
C301 H300 0.961 . S
C301 H302 0.960 . S
H302 C301 0.960 . S
H303 N283 0.862 . S
O304 Co272 1.920 . S
O304 C277 1.289 . S
C305 O297 1.258 . S
C305 O298 1.266 . S
Co306 O309 1.970 . S
Co306 N323 1.989 . S
Co306 O331 1.967 . S
Co306 O338 1.920 . S
Co307 O310 1.966 . S
Co307 N316 2.022 . S
Co307 N324 1.993 . S
Co307 O332 1.941 . S
C308 O309 1.258 . S
C308 O310 1.263 . S
O309 Co306 1.970 . S
O309 C308 1.258 . S
O310 Co307 1.966 . S
O310 C308 1.263 . S
C311 O312 1.235 . S
C311 O338 1.289 . S
O312 C311 1.235 . S
C313 C315 1.400 . S
C313 N316 1.351 . S
C313 C318 1.501 1_565 S
C314 C315 1.387 . S
C314 N317 1.341 . S
C315 C313 1.400 . S
C315 C314 1.387 . S
N316 Co307 2.022 . S
N316 C313 1.351 . S
N316 N317 1.365 . S
N317 C314 1.341 . S
N317 N316 1.365 . S
N317 H337 0.862 . S
C318 C313 1.501 1_545 S
C318 H319 0.961 . S
C318 H320 0.961 . S
C318 H321 0.960 . S
H319 C318 0.961 . S
H320 C318 0.961 . S
H321 C318 0.960 . S
C322 N323 1.342 . S
C322 C326 1.401 . S
C322 C327 1.499 . S
N323 Co306 1.989 . S
N323 C322 1.342 . S
N323 N324 1.388 . S
N324 Co307 1.993 . S
N324 N323 1.388 . S
N324 C325 1.346 . S
C325 N324 1.346 . S
C325 C326 1.396 . S
C325 C335 1.510 . S
C326 C322 1.401 . S
C326 C325 1.396 . S
C327 C322 1.499 . S
C327 H328 0.959 . S
C327 H329 0.960 . S
C327 H330 0.961 . S
H328 C327 0.959 . S
H329 C327 0.960 . S
H330 C327 0.961 . S
O331 Co306 1.967 . S
O331 C339 1.258 . S
O332 Co307 1.941 . S
O332 C339 1.266 . S
H333 C335 0.959 . S
H334 C335 0.961 . S
C335 C325 1.510 . S
C335 H333 0.959 . S
C335 H334 0.961 . S
C335 H336 0.960 . S
H336 C335 0.960 . S
H337 N317 0.862 . S
O338 Co306 1.920 . S
O338 C311 1.289 . S
C339 O331 1.258 . S
C339 O332 1.266 . S
Co340 O343 1.970 . S
Co340 N357 1.989 . S
Co340 O365 1.967 . S
Co340 O372 1.920 . S
Co341 O344 1.966 . S
Co341 N350 2.022 . S
Co341 N358 1.993 . S
Co341 O366 1.941 . S
C342 O343 1.258 . S
C342 O344 1.263 . S
O343 Co340 1.970 . S
O343 C342 1.258 . S
O344 Co341 1.966 . S
O344 C342 1.263 . S
C345 O346 1.235 . S
C345 O372 1.289 . S
O346 C345 1.235 . S
C347 C349 1.400 . S
C347 N350 1.351 . S
C347 C352 1.501 . S
C348 C349 1.387 . S
C348 N351 1.341 . S
C349 C347 1.400 . S
C349 C348 1.387 . S
N350 Co341 2.022 . S
N350 C347 1.351 . S
N350 N351 1.365 . S
N351 C348 1.341 . S
N351 N350 1.365 . S
N351 H371 0.862 . S
C352 C347 1.501 . S
C352 H353 0.961 . S
C352 H354 0.961 . S
C352 H355 0.960 . S
H353 C352 0.961 . S
H354 C352 0.961 . S
H355 C352 0.960 . S
C356 N357 1.342 1_565 S
C356 C360 1.401 . S
C356 C361 1.499 . S
N357 Co340 1.989 . S
N357 C356 1.342 1_545 S
N357 N358 1.388 . S
N358 Co341 1.993 . S
N358 N357 1.388 . S
N358 C359 1.346 1_545 S
C359 N358 1.346 1_565 S
C359 C360 1.396 . S
C359 C369 1.510 . S
C360 C356 1.401 . S
C360 C359 1.396 . S
C361 C356 1.499 . S
C361 H362 0.959 . S
C361 H363 0.960 . S
C361 H364 0.961 . S
H362 C361 0.959 . S
H363 C361 0.960 . S
H364 C361 0.961 . S
O365 Co340 1.967 . S
O365 C373 1.258 . S
O366 Co341 1.941 . S
O366 C373 1.266 . S
H367 C369 0.959 . S
H368 C369 0.961 . S
C369 C359 1.510 . S
C369 H367 0.959 . S
C369 H368 0.961 . S
C369 H370 0.960 . S
H370 C369 0.960 . S
H371 N351 0.862 . S
O372 Co340 1.920 . S
O372 C345 1.289 . S
C373 O365 1.258 . S
C373 O366 1.266 . S
Co374 O377 1.970 . S
Co374 N391 1.989 . S
Co374 O399 1.967 . S
Co374 O406 1.920 . S
Co375 O378 1.966 . S
Co375 N384 2.022 . S
Co375 N392 1.993 . S
Co375 O400 1.941 . S
C376 O377 1.258 . S
C376 O378 1.263 . S
O377 Co374 1.970 . S
O377 C376 1.258 . S
O378 Co375 1.966 . S
O378 C376 1.263 . S
C379 O380 1.235 . S
C379 O406 1.289 . S
O380 C379 1.235 . S
C381 C383 1.400 . S
C381 N384 1.351 . S
C381 C386 1.501 1_545 S
C382 C383 1.387 . S
C382 N385 1.341 . S
C383 C381 1.400 . S
C383 C382 1.387 . S
N384 Co375 2.022 . S
N384 C381 1.351 . S
N384 N385 1.365 . S
N385 C382 1.341 . S
N385 N384 1.365 . S
N385 H405 0.862 . S
C386 C381 1.501 1_565 S
C386 H387 0.961 . S
C386 H388 0.961 . S
C386 H389 0.960 . S
H387 C386 0.961 . S
H388 C386 0.961 . S
H389 C386 0.960 . S
C390 N391 1.342 . S
C390 C394 1.401 . S
C390 C395 1.499 . S
N391 Co374 1.989 . S
N391 C390 1.342 . S
N391 N392 1.388 . S
N392 Co375 1.993 . S
N392 N391 1.388 . S
N392 C393 1.346 . S
C393 N392 1.346 . S
C393 C394 1.396 . S
C393 C403 1.510 . S
C394 C390 1.401 . S
C394 C393 1.396 . S
C395 C390 1.499 . S
C395 H396 0.959 . S
C395 H397 0.960 . S
C395 H398 0.961 . S
H396 C395 0.959 . S
H397 C395 0.960 . S
H398 C395 0.961 . S
O399 Co374 1.967 . S
O399 C407 1.258 . S
O400 Co375 1.941 . S
O400 C407 1.266 . S
H401 C403 0.959 . S
H402 C403 0.961 . S
C403 C393 1.510 . S
C403 H401 0.959 . S
C403 H402 0.961 . S
C403 H404 0.960 . S
H404 C403 0.960 . S
H405 N385 0.862 . S
O406 Co374 1.920 . S
O406 C379 1.289 . S
C407 O399 1.258 . S
C407 O400 1.266 . S
Co408 O411 1.970 . S
Co408 N425 1.989 . S
Co408 O433 1.967 . S
Co408 O440 1.920 . S
Co409 O412 1.966 . S
Co409 N418 2.022 . S
Co409 N426 1.993 . S
Co409 O434 1.941 . S
C410 O411 1.258 . S
C410 O412 1.263 . S
O411 Co408 1.970 . S
O411 C410 1.258 . S
O412 Co409 1.966 . S
O412 C410 1.263 . S
C413 O414 1.235 . S
C413 O440 1.289 . S
O414 C413 1.235 . S
C415 C417 1.400 . S
C415 N418 1.351 . S
C415 C420 1.501 . S
C416 C417 1.387 . S
C416 N419 1.341 . S
C417 C415 1.400 . S
C417 C416 1.387 . S
N418 Co409 2.022 . S
N418 C415 1.351 . S
N418 N419 1.365 . S
N419 C416 1.341 . S
N419 N418 1.365 . S
N419 H439 0.862 . S
C420 C415 1.501 . S
C420 H421 0.961 . S
C420 H422 0.961 . S
C420 H423 0.960 . S
H421 C420 0.961 . S
H422 C420 0.961 . S
H423 C420 0.960 . S
C424 N425 1.342 1_565 S
C424 C428 1.401 . S
C424 C429 1.499 . S
N425 Co408 1.989 . S
N425 C424 1.342 1_545 S
N425 N426 1.388 . S
N426 Co409 1.993 . S
N426 N425 1.388 . S
N426 C427 1.346 1_545 S
C427 N426 1.346 1_565 S
C427 C428 1.396 . S
C427 C437 1.510 . S
C428 C424 1.401 . S
C428 C427 1.396 . S
C429 C424 1.499 . S
C429 H430 0.959 . S
C429 H431 0.960 . S
C429 H432 0.961 . S
H430 C429 0.959 . S
H431 C429 0.960 . S
H432 C429 0.961 . S
O433 Co408 1.967 . S
O433 C441 1.258 . S
O434 Co409 1.941 . S
O434 C441 1.266 . S
H435 C437 0.959 . S
H436 C437 0.961 . S
C437 C427 1.510 . S
C437 H435 0.959 . S
C437 H436 0.961 . S
C437 H438 0.960 . S
H438 C437 0.960 . S
H439 N419 0.862 . S
O440 Co408 1.920 . S
O440 C413 1.289 . S
C441 O433 1.258 . S
C441 O434 1.266 . S
Co442 O445 1.970 . S
Co442 N459 1.989 . S
Co442 O467 1.967 . S
Co442 O474 1.920 . S
Co443 O446 1.966 . S
Co443 N452 2.022 . S
Co443 N460 1.993 . S
Co443 O468 1.941 . S
C444 O445 1.258 . S
C444 O446 1.263 . S
O445 Co442 1.970 . S
O445 C444 1.258 . S
O446 Co443 1.966 . S
O446 C444 1.263 . S
C447 O448 1.235 . S
C447 O474 1.289 . S
O448 C447 1.235 . S
C449 C451 1.400 . S
C449 N452 1.351 . S
C449 C454 1.501 1_565 S
C450 C451 1.387 . S
C450 N453 1.341 . S
C451 C449 1.400 . S
C451 C450 1.387 . S
N452 Co443 2.022 . S
N452 C449 1.351 . S
N452 N453 1.365 . S
N453 C450 1.341 . S
N453 N452 1.365 . S
N453 H473 0.862 . S
C454 C449 1.501 1_545 S
C454 H455 0.961 . S
C454 H456 0.961 . S
C454 H457 0.960 . S
H455 C454 0.961 . S
H456 C454 0.961 . S
H457 C454 0.960 . S
C458 N459 1.342 . S
C458 C462 1.401 . S
C458 C463 1.499 . S
N459 Co442 1.989 . S
N459 C458 1.342 . S
N459 N460 1.388 . S
N460 Co443 1.993 . S
N460 N459 1.388 . S
N460 C461 1.346 . S
C461 N460 1.346 . S
C461 C462 1.396 . S
C461 C471 1.510 . S
C462 C458 1.401 . S
C462 C461 1.396 . S
C463 C458 1.499 . S
C463 H464 0.959 . S
C463 H465 0.960 . S
C463 H466 0.961 . S
H464 C463 0.959 . S
H465 C463 0.960 . S
H466 C463 0.961 . S
O467 Co442 1.967 . S
O467 C475 1.258 . S
O468 Co443 1.941 . S
O468 C475 1.266 . S
H469 C471 0.959 . S
H470 C471 0.961 . S
C471 C461 1.510 . S
C471 H469 0.959 . S
C471 H470 0.961 . S
C471 H472 0.960 . S
H472 C471 0.960 . S
H473 N453 0.862 . S
O474 Co442 1.920 . S
O474 C447 1.289 . S
C475 O467 1.258 . S
C475 O468 1.266 . S
Co476 O479 1.970 . S
Co476 N493 1.989 . S
Co476 O501 1.967 . S
Co476 O508 1.920 . S
Co477 O480 1.966 . S
Co477 N486 2.022 . S
Co477 N494 1.993 . S
Co477 O502 1.941 . S
C478 O479 1.258 . S
C478 O480 1.263 . S
O479 Co476 1.970 . S
O479 C478 1.258 . S
O480 Co477 1.966 . S
O480 C478 1.263 . S
C481 O482 1.235 . S
C481 O508 1.289 . S
O482 C481 1.235 . S
C483 C485 1.400 . S
C483 N486 1.351 . S
C483 C488 1.501 . S
C484 C485 1.387 . S
C484 N487 1.341 . S
C485 C483 1.400 . S
C485 C484 1.387 . S
N486 Co477 2.022 . S
N486 C483 1.351 . S
N486 N487 1.365 . S
N487 C484 1.341 . S
N487 N486 1.365 . S
N487 H507 0.862 . S
C488 C483 1.501 . S
C488 H489 0.961 . S
C488 H490 0.961 . S
C488 H491 0.960 . S
H489 C488 0.961 . S
H490 C488 0.961 . S
H491 C488 0.960 . S
C492 N493 1.342 1_545 S
C492 C496 1.401 . S
C492 C497 1.499 . S
N493 Co476 1.989 . S
N493 C492 1.342 1_565 S
N493 N494 1.388 . S
N494 Co477 1.993 . S
N494 N493 1.388 . S
N494 C495 1.346 1_565 S
C495 N494 1.346 1_545 S
C495 C496 1.396 . S
C495 C505 1.510 . S
C496 C492 1.401 . S
C496 C495 1.396 . S
C497 C492 1.499 . S
C497 H498 0.959 . S
C497 H499 0.960 . S
C497 H500 0.961 . S
H498 C497 0.959 . S
H499 C497 0.960 . S
H500 C497 0.961 . S
O501 Co476 1.967 . S
O501 C509 1.258 . S
O502 Co477 1.941 . S
O502 C509 1.266 . S
H503 C505 0.959 . S
H504 C505 0.961 . S
C505 C495 1.510 . S
C505 H503 0.959 . S
C505 H504 0.961 . S
C505 H506 0.960 . S
H506 C505 0.960 . S
H507 N487 0.862 . S
O508 Co476 1.920 . S
O508 C481 1.289 . S
C509 O501 1.258 . S
C509 O502 1.266 . S
Co510 O513 1.970 . S
Co510 N527 1.989 . S
Co510 O535 1.967 . S
Co510 O542 1.920 . S
Co511 O514 1.966 . S
Co511 N520 2.022 . S
Co511 N528 1.993 . S
Co511 O536 1.941 . S
C512 O513 1.258 . S
C512 O514 1.263 . S
O513 Co510 1.970 . S
O513 C512 1.258 . S
O514 Co511 1.966 . S
O514 C512 1.263 . S
C515 O516 1.235 . S
C515 O542 1.289 . S
O516 C515 1.235 . S
C517 C519 1.400 . S
C517 N520 1.351 . S
C517 C522 1.501 1_545 S
C518 C519 1.387 . S
C518 N521 1.341 . S
C519 C517 1.400 . S
C519 C518 1.387 . S
N520 Co511 2.022 . S
N520 C517 1.351 . S
N520 N521 1.365 . S
N521 C518 1.341 . S
N521 N520 1.365 . S
N521 H541 0.862 . S
C522 C517 1.501 1_565 S
C522 H523 0.961 . S
C522 H524 0.961 . S
C522 H525 0.960 . S
H523 C522 0.961 . S
H524 C522 0.961 . S
H525 C522 0.960 . S
C526 N527 1.342 . S
C526 C530 1.401 . S
C526 C531 1.499 . S
N527 Co510 1.989 . S
N527 C526 1.342 . S
N527 N528 1.388 . S
N528 Co511 1.993 . S
N528 N527 1.388 . S
N528 C529 1.346 . S
C529 N528 1.346 . S
C529 C530 1.396 . S
C529 C539 1.510 . S
C530 C526 1.401 . S
C530 C529 1.396 . S
C531 C526 1.499 . S
C531 H532 0.959 . S
C531 H533 0.960 . S
C531 H534 0.961 . S
H532 C531 0.959 . S
H533 C531 0.960 . S
H534 C531 0.961 . S
O535 Co510 1.967 . S
O535 C543 1.258 . S
O536 Co511 1.941 . S
O536 C543 1.266 . S
H537 C539 0.959 . S
H538 C539 0.961 . S
C539 C529 1.510 . S
C539 H537 0.959 . S
C539 H538 0.961 . S
C539 H540 0.960 . S
H540 C539 0.960 . S
H541 N521 0.862 . S
O542 Co510 1.920 . S
O542 C515 1.289 . S
C543 O535 1.258 . S
C543 O536 1.266 . S
Co544 O547 1.970 . S
Co544 N561 1.989 . S
Co544 O569 1.967 . S
Co544 O576 1.920 . S
Co545 O548 1.966 . S
Co545 N554 2.022 . S
Co545 N562 1.993 . S
Co545 O570 1.941 . S
C546 O547 1.258 . S
C546 O548 1.263 . S
O547 Co544 1.970 . S
O547 C546 1.258 . S
O548 Co545 1.966 . S
O548 C546 1.263 . S
C549 O550 1.235 . S
C549 O576 1.289 . S
O550 C549 1.235 . S
C551 C553 1.400 . S
C551 N554 1.351 . S
C551 C556 1.501 . S
C552 C553 1.387 . S
C552 N555 1.341 . S
C553 C551 1.400 . S
C553 C552 1.387 . S
N554 Co545 2.022 . S
N554 C551 1.351 . S
N554 N555 1.365 . S
N555 C552 1.341 . S
N555 N554 1.365 . S
N555 H575 0.862 . S
C556 C551 1.501 . S
C556 H557 0.961 . S
C556 H558 0.961 . S
C556 H559 0.960 . S
H557 C556 0.961 . S
H558 C556 0.961 . S
H559 C556 0.960 . S
C560 N561 1.342 . S
C560 C564 1.401 . S
C560 C565 1.499 . S
N561 Co544 1.989 . S
N561 C560 1.342 . S
N561 N562 1.388 . S
N562 Co545 1.993 . S
N562 N561 1.388 . S
N562 C563 1.346 . S
C563 N562 1.346 . S
C563 C564 1.396 . S
C563 C573 1.510 . S
C564 C560 1.401 . S
C564 C563 1.396 . S
C565 C560 1.499 . S
C565 H566 0.959 . S
C565 H567 0.960 . S
C565 H568 0.961 . S
H566 C565 0.959 . S
H567 C565 0.960 . S
H568 C565 0.961 . S
O569 Co544 1.967 . S
O569 C577 1.258 . S
O570 Co545 1.941 . S
O570 C577 1.266 . S
H571 C573 0.959 . S
H572 C573 0.961 . S
C573 C563 1.510 . S
C573 H571 0.959 . S
C573 H572 0.961 . S
C573 H574 0.960 . S
H574 C573 0.960 . S
H575 N555 0.862 . S
O576 Co544 1.920 . S
O576 C549 1.289 . S
C577 O569 1.258 . S
C577 O570 1.266 . S
Co578 O581 1.970 . S
Co578 N595 1.989 . S
Co578 O603 1.967 . S
Co578 O610 1.920 . S
Co579 O582 1.966 . S
Co579 N588 2.022 . S
Co579 N596 1.993 . S
Co579 O604 1.941 . S
C580 O581 1.258 . S
C580 O582 1.263 . S
O581 Co578 1.970 . S
O581 C580 1.258 . S
O582 Co579 1.966 . S
O582 C580 1.263 . S
C583 O584 1.235 . S
C583 O610 1.289 . S
O584 C583 1.235 . S
C585 C587 1.400 . S
C585 N588 1.351 . S
C585 C590 1.501 . S
C586 C587 1.387 . S
C586 N589 1.341 . S
C587 C585 1.400 . S
C587 C586 1.387 . S
N588 Co579 2.022 . S
N588 C585 1.351 . S
N588 N589 1.365 . S
N589 C586 1.341 . S
N589 N588 1.365 . S
N589 H609 0.862 . S
C590 C585 1.501 . S
C590 H591 0.961 . S
C590 H592 0.961 . S
C590 H593 0.960 . S
H591 C590 0.961 . S
H592 C590 0.961 . S
H593 C590 0.960 . S
C594 N595 1.342 . S
C594 C598 1.401 . S
C594 C599 1.499 . S
N595 Co578 1.989 . S
N595 C594 1.342 . S
N595 N596 1.388 . S
N596 Co579 1.993 . S
N596 N595 1.388 . S
N596 C597 1.346 . S
C597 N596 1.346 . S
C597 C598 1.396 . S
C597 C607 1.510 . S
C598 C594 1.401 . S
C598 C597 1.396 . S
C599 C594 1.499 . S
C599 H600 0.959 . S
C599 H601 0.960 . S
C599 H602 0.961 . S
H600 C599 0.959 . S
H601 C599 0.960 . S
H602 C599 0.961 . S
O603 Co578 1.967 . S
O603 C611 1.258 . S
O604 Co579 1.941 . S
O604 C611 1.266 . S
H605 C607 0.959 . S
H606 C607 0.961 . S
C607 C597 1.510 . S
C607 H605 0.959 . S
C607 H606 0.961 . S
C607 H608 0.960 . S
H608 C607 0.960 . S
H609 N589 0.862 . S
O610 Co578 1.920 . S
O610 C583 1.289 . S
C611 O603 1.258 . S
C611 O604 1.266 . S
Co612 O615 1.970 . S
Co612 N629 1.989 . S
Co612 O637 1.967 . S
Co612 O644 1.920 . S
Co613 O616 1.966 . S
Co613 N622 2.022 . S
Co613 N630 1.993 . S
Co613 O638 1.941 . S
C614 O615 1.258 . S
C614 O616 1.263 . S
O615 Co612 1.970 . S
O615 C614 1.258 . S
O616 Co613 1.966 . S
O616 C614 1.263 . S
C617 O618 1.235 . S
C617 O644 1.289 . S
O618 C617 1.235 . S
C619 C621 1.400 . S
C619 N622 1.351 . S
C619 C624 1.501 . S
C620 C621 1.387 . S
C620 N623 1.341 . S
C621 C619 1.400 . S
C621 C620 1.387 . S
N622 Co613 2.022 . S
N622 C619 1.351 . S
N622 N623 1.365 . S
N623 C620 1.341 . S
N623 N622 1.365 . S
N623 H643 0.862 . S
C624 C619 1.501 . S
C624 H625 0.961 . S
C624 H626 0.961 . S
C624 H627 0.960 . S
H625 C624 0.961 . S
H626 C624 0.961 . S
H627 C624 0.960 . S
C628 N629 1.342 . S
C628 C632 1.401 . S
C628 C633 1.499 . S
N629 Co612 1.989 . S
N629 C628 1.342 . S
N629 N630 1.388 . S
N630 Co613 1.993 . S
N630 N629 1.388 . S
N630 C631 1.346 . S
C631 N630 1.346 . S
C631 C632 1.396 . S
C631 C641 1.510 . S
C632 C628 1.401 . S
C632 C631 1.396 . S
C633 C628 1.499 . S
C633 H634 0.959 . S
C633 H635 0.960 . S
C633 H636 0.961 . S
H634 C633 0.959 . S
H635 C633 0.960 . S
H636 C633 0.961 . S
O637 Co612 1.967 . S
O637 C645 1.258 . S
O638 Co613 1.941 . S
O638 C645 1.266 . S
H639 C641 0.959 . S
H640 C641 0.961 . S
C641 C631 1.510 . S
C641 H639 0.959 . S
C641 H640 0.961 . S
C641 H642 0.960 . S
H642 C641 0.960 . S
H643 N623 0.862 . S
O644 Co612 1.920 . S
O644 C617 1.289 . S
C645 O637 1.258 . S
C645 O638 1.266 . S
Co646 O649 1.970 . S
Co646 N663 1.989 . S
Co646 O671 1.967 . S
Co646 O678 1.920 . S
Co647 O650 1.966 . S
Co647 N656 2.022 . S
Co647 N664 1.993 . S
Co647 O672 1.941 . S
C648 O649 1.258 . S
C648 O650 1.263 . S
O649 Co646 1.970 . S
O649 C648 1.258 . S
O650 Co647 1.966 . S
O650 C648 1.263 . S
C651 O652 1.235 . S
C651 O678 1.289 . S
O652 C651 1.235 . S
C653 C655 1.400 . S
C653 N656 1.351 . S
C653 C658 1.501 . S
C654 C655 1.387 . S
C654 N657 1.341 . S
C655 C653 1.400 . S
C655 C654 1.387 . S
N656 Co647 2.022 . S
N656 C653 1.351 . S
N656 N657 1.365 . S
N657 C654 1.341 . S
N657 N656 1.365 . S
N657 H677 0.862 . S
C658 C653 1.501 . S
C658 H659 0.961 . S
C658 H660 0.961 . S
C658 H661 0.960 . S
H659 C658 0.961 . S
H660 C658 0.961 . S
H661 C658 0.960 . S
C662 N663 1.342 . S
C662 C666 1.401 . S
C662 C667 1.499 . S
N663 Co646 1.989 . S
N663 C662 1.342 . S
N663 N664 1.388 . S
N664 Co647 1.993 . S
N664 N663 1.388 . S
N664 C665 1.346 . S
C665 N664 1.346 . S
C665 C666 1.396 . S
C665 C675 1.510 . S
C666 C662 1.401 . S
C666 C665 1.396 . S
C667 C662 1.499 . S
C667 H668 0.959 . S
C667 H669 0.960 . S
C667 H670 0.961 . S
H668 C667 0.959 . S
H669 C667 0.960 . S
H670 C667 0.961 . S
O671 Co646 1.967 . S
O671 C679 1.258 . S
O672 Co647 1.941 . S
O672 C679 1.266 . S
H673 C675 0.959 . S
H674 C675 0.961 . S
C675 C665 1.510 . S
C675 H673 0.959 . S
C675 H674 0.961 . S
C675 H676 0.960 . S
H676 C675 0.960 . S
H677 N657 0.862 . S
O678 Co646 1.920 . S
O678 C651 1.289 . S
C679 O671 1.258 . S
C679 O672 1.266 . S
Co680 O683 1.970 . S
Co680 N697 1.989 . S
Co680 O705 1.967 . S
Co680 O712 1.920 . S
Co681 O684 1.966 . S
Co681 N690 2.022 . S
Co681 N698 1.993 . S
Co681 O706 1.941 . S
C682 O683 1.258 . S
C682 O684 1.263 . S
O683 Co680 1.970 . S
O683 C682 1.258 . S
O684 Co681 1.966 . S
O684 C682 1.263 . S
C685 O686 1.235 . S
C685 O712 1.289 . S
O686 C685 1.235 . S
C687 C689 1.400 . S
C687 N690 1.351 . S
C687 C692 1.501 . S
C688 C689 1.387 . S
C688 N691 1.341 . S
C689 C687 1.400 . S
C689 C688 1.387 . S
N690 Co681 2.022 . S
N690 C687 1.351 . S
N690 N691 1.365 . S
N691 C688 1.341 . S
N691 N690 1.365 . S
N691 H711 0.862 . S
C692 C687 1.501 . S
C692 H693 0.961 . S
C692 H694 0.961 . S
C692 H695 0.960 . S
H693 C692 0.961 . S
H694 C692 0.961 . S
H695 C692 0.960 . S
C696 N697 1.342 . S
C696 C700 1.401 . S
C696 C701 1.499 . S
N697 Co680 1.989 . S
N697 C696 1.342 . S
N697 N698 1.388 . S
N698 Co681 1.993 . S
N698 N697 1.388 . S
N698 C699 1.346 . S
C699 N698 1.346 . S
C699 C700 1.396 . S
C699 C709 1.510 . S
C700 C696 1.401 . S
C700 C699 1.396 . S
C701 C696 1.499 . S
C701 H702 0.959 . S
C701 H703 0.960 . S
C701 H704 0.961 . S
H702 C701 0.959 . S
H703 C701 0.960 . S
H704 C701 0.961 . S
O705 Co680 1.967 . S
O705 C713 1.258 . S
O706 Co681 1.941 . S
O706 C713 1.266 . S
H707 C709 0.959 . S
H708 C709 0.961 . S
C709 C699 1.510 . S
C709 H707 0.959 . S
C709 H708 0.961 . S
C709 H710 0.960 . S
H710 C709 0.960 . S
H711 N691 0.862 . S
O712 Co680 1.920 . S
O712 C685 1.289 . S
C713 O705 1.258 . S
C713 O706 1.266 . S
Co714 O717 1.970 . S
Co714 N731 1.989 . S
Co714 O739 1.967 . S
Co714 O746 1.920 . S
Co715 O718 1.966 . S
Co715 N724 2.022 . S
Co715 N732 1.993 . S
Co715 O740 1.941 . S
C716 O717 1.258 . S
C716 O718 1.263 . S
O717 Co714 1.970 . S
O717 C716 1.258 . S
O718 Co715 1.966 . S
O718 C716 1.263 . S
C719 O720 1.235 . S
C719 O746 1.289 . S
O720 C719 1.235 . S
C721 C723 1.400 . S
C721 N724 1.351 . S
C721 C726 1.501 . S
C722 C723 1.387 . S
C722 N725 1.341 . S
C723 C721 1.400 . S
C723 C722 1.387 . S
N724 Co715 2.022 . S
N724 C721 1.351 . S
N724 N725 1.365 . S
N725 C722 1.341 . S
N725 N724 1.365 . S
N725 H745 0.862 . S
C726 C721 1.501 . S
C726 H727 0.961 . S
C726 H728 0.961 . S
C726 H729 0.960 . S
H727 C726 0.961 . S
H728 C726 0.961 . S
H729 C726 0.960 . S
C730 N731 1.342 . S
C730 C734 1.401 . S
C730 C735 1.499 . S
N731 Co714 1.989 . S
N731 C730 1.342 . S
N731 N732 1.388 . S
N732 Co715 1.993 . S
N732 N731 1.388 . S
N732 C733 1.346 . S
C733 N732 1.346 . S
C733 C734 1.396 . S
C733 C743 1.510 . S
C734 C730 1.401 . S
C734 C733 1.396 . S
C735 C730 1.499 . S
C735 H736 0.959 . S
C735 H737 0.960 . S
C735 H738 0.961 . S
H736 C735 0.959 . S
H737 C735 0.960 . S
H738 C735 0.961 . S
O739 Co714 1.967 . S
O739 C747 1.258 . S
O740 Co715 1.941 . S
O740 C747 1.266 . S
H741 C743 0.959 . S
H742 C743 0.961 . S
C743 C733 1.510 . S
C743 H741 0.959 . S
C743 H742 0.961 . S
C743 H744 0.960 . S
H744 C743 0.960 . S
H745 N725 0.862 . S
O746 Co714 1.920 . S
O746 C719 1.289 . S
C747 O739 1.258 . S
C747 O740 1.266 . S
Co748 O751 1.970 . S
Co748 N765 1.989 . S
Co748 O773 1.967 . S
Co748 O780 1.920 . S
Co749 O752 1.966 . S
Co749 N758 2.022 . S
Co749 N766 1.993 . S
Co749 O774 1.941 . S
C750 O751 1.258 . S
C750 O752 1.263 . S
O751 Co748 1.970 . S
O751 C750 1.258 . S
O752 Co749 1.966 . S
O752 C750 1.263 . S
C753 O754 1.235 . S
C753 O780 1.289 . S
O754 C753 1.235 . S
C755 C757 1.400 . S
C755 N758 1.351 . S
C755 C760 1.501 . S
C756 C757 1.387 . S
C756 N759 1.341 . S
C757 C755 1.400 . S
C757 C756 1.387 . S
N758 Co749 2.022 . S
N758 C755 1.351 . S
N758 N759 1.365 . S
N759 C756 1.341 . S
N759 N758 1.365 . S
N759 H779 0.862 . S
C760 C755 1.501 . S
C760 H761 0.961 . S
C760 H762 0.961 . S
C760 H763 0.960 . S
H761 C760 0.961 . S
H762 C760 0.961 . S
H763 C760 0.960 . S
C764 N765 1.342 . S
C764 C768 1.401 . S
C764 C769 1.499 . S
N765 Co748 1.989 . S
N765 C764 1.342 . S
N765 N766 1.388 . S
N766 Co749 1.993 . S
N766 N765 1.388 . S
N766 C767 1.346 . S
C767 N766 1.346 . S
C767 C768 1.396 . S
C767 C777 1.510 . S
C768 C764 1.401 . S
C768 C767 1.396 . S
C769 C764 1.499 . S
C769 H770 0.959 . S
C769 H771 0.960 . S
C769 H772 0.961 . S
H770 C769 0.959 . S
H771 C769 0.960 . S
H772 C769 0.961 . S
O773 Co748 1.967 . S
O773 C781 1.258 . S
O774 Co749 1.941 . S
O774 C781 1.266 . S
H775 C777 0.959 . S
H776 C777 0.961 . S
C777 C767 1.510 . S
C777 H775 0.959 . S
C777 H776 0.961 . S
C777 H778 0.960 . S
H778 C777 0.960 . S
H779 N759 0.862 . S
O780 Co748 1.920 . S
O780 C753 1.289 . S
C781 O773 1.258 . S
C781 O774 1.266 . S
Co782 O785 1.970 . S
Co782 N799 1.989 . S
Co782 O807 1.967 . S
Co782 O814 1.920 . S
Co783 O786 1.966 . S
Co783 N792 2.022 . S
Co783 N800 1.993 . S
Co783 O808 1.941 . S
C784 O785 1.258 . S
C784 O786 1.263 . S
O785 Co782 1.970 . S
O785 C784 1.258 . S
O786 Co783 1.966 . S
O786 C784 1.263 . S
C787 O788 1.235 . S
C787 O814 1.289 . S
O788 C787 1.235 . S
C789 C791 1.400 . S
C789 N792 1.351 . S
C789 C794 1.501 . S
C790 C791 1.387 . S
C790 N793 1.341 . S
C791 C789 1.400 . S
C791 C790 1.387 . S
N792 Co783 2.022 . S
N792 C789 1.351 . S
N792 N793 1.365 . S
N793 C790 1.341 . S
N793 N792 1.365 . S
N793 H813 0.862 . S
C794 C789 1.501 . S
C794 H795 0.961 . S
C794 H796 0.961 . S
C794 H797 0.960 . S
H795 C794 0.961 . S
H796 C794 0.961 . S
H797 C794 0.960 . S
C798 N799 1.342 . S
C798 C802 1.401 . S
C798 C803 1.499 . S
N799 Co782 1.989 . S
N799 C798 1.342 . S
N799 N800 1.388 . S
N800 Co783 1.993 . S
N800 N799 1.388 . S
N800 C801 1.346 . S
C801 N800 1.346 . S
C801 C802 1.396 . S
C801 C811 1.510 . S
C802 C798 1.401 . S
C802 C801 1.396 . S
C803 C798 1.499 . S
C803 H804 0.959 . S
C803 H805 0.960 . S
C803 H806 0.961 . S
H804 C803 0.959 . S
H805 C803 0.960 . S
H806 C803 0.961 . S
O807 Co782 1.967 . S
O807 C815 1.258 . S
O808 Co783 1.941 . S
O808 C815 1.266 . S
H809 C811 0.959 . S
H810 C811 0.961 . S
C811 C801 1.510 . S
C811 H809 0.959 . S
C811 H810 0.961 . S
C811 H812 0.960 . S
H812 C811 0.960 . S
H813 N793 0.862 . S
O814 Co782 1.920 . S
O814 C787 1.289 . S
C815 O807 1.258 . S
C815 O808 1.266 . S
Co816 O819 1.970 . S
Co816 N833 1.989 . S
Co816 O841 1.967 . S
Co816 O848 1.920 . S
Co817 O820 1.966 . S
Co817 N826 2.022 . S
Co817 N834 1.993 . S
Co817 O842 1.941 . S
C818 O819 1.258 . S
C818 O820 1.263 . S
O819 Co816 1.970 . S
O819 C818 1.258 . S
O820 Co817 1.966 . S
O820 C818 1.263 . S
C821 O822 1.235 . S
C821 O848 1.289 . S
O822 C821 1.235 . S
C823 C825 1.400 . S
C823 N826 1.351 . S
C823 C828 1.501 . S
C824 C825 1.387 . S
C824 N827 1.341 . S
C825 C823 1.400 . S
C825 C824 1.387 . S
N826 Co817 2.022 . S
N826 C823 1.351 . S
N826 N827 1.365 . S
N827 C824 1.341 . S
N827 N826 1.365 . S
N827 H847 0.862 . S
C828 C823 1.501 . S
C828 H829 0.961 . S
C828 H830 0.961 . S
C828 H831 0.960 . S
H829 C828 0.961 . S
H830 C828 0.961 . S
H831 C828 0.960 . S
C832 N833 1.342 . S
C832 C836 1.401 . S
C832 C837 1.499 . S
N833 Co816 1.989 . S
N833 C832 1.342 . S
N833 N834 1.388 . S
N834 Co817 1.993 . S
N834 N833 1.388 . S
N834 C835 1.346 . S
C835 N834 1.346 . S
C835 C836 1.396 . S
C835 C845 1.510 . S
C836 C832 1.401 . S
C836 C835 1.396 . S
C837 C832 1.499 . S
C837 H838 0.959 . S
C837 H839 0.960 . S
C837 H840 0.961 . S
H838 C837 0.959 . S
H839 C837 0.960 . S
H840 C837 0.961 . S
O841 Co816 1.967 . S
O841 C849 1.258 . S
O842 Co817 1.941 . S
O842 C849 1.266 . S
H843 C845 0.959 . S
H844 C845 0.961 . S
C845 C835 1.510 . S
C845 H843 0.959 . S
C845 H844 0.961 . S
C845 H846 0.960 . S
H846 C845 0.960 . S
H847 N827 0.862 . S
O848 Co816 1.920 . S
O848 C821 1.289 . S
C849 O841 1.258 . S
C849 O842 1.266 . S
Co850 O853 1.970 . S
Co850 N867 1.989 . S
Co850 O875 1.967 . S
Co850 O882 1.920 . S
Co851 O854 1.966 . S
Co851 N860 2.022 . S
Co851 N868 1.993 . S
Co851 O876 1.941 . S
C852 O853 1.258 . S
C852 O854 1.263 . S
O853 Co850 1.970 . S
O853 C852 1.258 . S
O854 Co851 1.966 . S
O854 C852 1.263 . S
C855 O856 1.235 . S
C855 O882 1.289 . S
O856 C855 1.235 . S
C857 C859 1.400 . S
C857 N860 1.351 . S
C857 C862 1.501 . S
C858 C859 1.387 . S
C858 N861 1.341 . S
C859 C857 1.400 . S
C859 C858 1.387 . S
N860 Co851 2.022 . S
N860 C857 1.351 . S
N860 N861 1.365 . S
N861 C858 1.341 . S
N861 N860 1.365 . S
N861 H881 0.862 . S
C862 C857 1.501 . S
C862 H863 0.961 . S
C862 H864 0.961 . S
C862 H865 0.960 . S
H863 C862 0.961 . S
H864 C862 0.961 . S
H865 C862 0.960 . S
C866 N867 1.342 . S
C866 C870 1.401 . S
C866 C871 1.499 . S
N867 Co850 1.989 . S
N867 C866 1.342 . S
N867 N868 1.388 . S
N868 Co851 1.993 . S
N868 N867 1.388 . S
N868 C869 1.346 . S
C869 N868 1.346 . S
C869 C870 1.396 . S
C869 C879 1.510 . S
C870 C866 1.401 . S
C870 C869 1.396 . S
C871 C866 1.499 . S
C871 H872 0.959 . S
C871 H873 0.960 . S
C871 H874 0.961 . S
H872 C871 0.959 . S
H873 C871 0.960 . S
H874 C871 0.961 . S
O875 Co850 1.967 . S
O875 C883 1.258 . S
O876 Co851 1.941 . S
O876 C883 1.266 . S
H877 C879 0.959 . S
H878 C879 0.961 . S
C879 C869 1.510 . S
C879 H877 0.959 . S
C879 H878 0.961 . S
C879 H880 0.960 . S
H880 C879 0.960 . S
H881 N861 0.862 . S
O882 Co850 1.920 . S
O882 C855 1.289 . S
C883 O875 1.258 . S
C883 O876 1.266 . S
Co884 O887 1.970 . S
Co884 N901 1.989 . S
Co884 O909 1.967 . S
Co884 O916 1.920 . S
Co885 O888 1.966 . S
Co885 N894 2.022 . S
Co885 N902 1.993 . S
Co885 O910 1.941 . S
C886 O887 1.258 . S
C886 O888 1.263 . S
O887 Co884 1.970 . S
O887 C886 1.258 . S
O888 Co885 1.966 . S
O888 C886 1.263 . S
C889 O890 1.235 . S
C889 O916 1.289 . S
O890 C889 1.235 . S
C891 C893 1.400 . S
C891 N894 1.351 . S
C891 C896 1.501 . S
C892 C893 1.387 . S
C892 N895 1.341 . S
C893 C891 1.400 . S
C893 C892 1.387 . S
N894 Co885 2.022 . S
N894 C891 1.351 . S
N894 N895 1.365 . S
N895 C892 1.341 . S
N895 N894 1.365 . S
N895 H915 0.862 . S
C896 C891 1.501 . S
C896 H897 0.961 . S
C896 H898 0.961 . S
C896 H899 0.960 . S
H897 C896 0.961 . S
H898 C896 0.961 . S
H899 C896 0.960 . S
C900 N901 1.342 . S
C900 C904 1.401 . S
C900 C905 1.499 . S
N901 Co884 1.989 . S
N901 C900 1.342 . S
N901 N902 1.388 . S
N902 Co885 1.993 . S
N902 N901 1.388 . S
N902 C903 1.346 . S
C903 N902 1.346 . S
C903 C904 1.396 . S
C903 C913 1.510 . S
C904 C900 1.401 . S
C904 C903 1.396 . S
C905 C900 1.499 . S
C905 H906 0.959 . S
C905 H907 0.960 . S
C905 H908 0.961 . S
H906 C905 0.959 . S
H907 C905 0.960 . S
H908 C905 0.961 . S
O909 Co884 1.967 . S
O909 C917 1.258 . S
O910 Co885 1.941 . S
O910 C917 1.266 . S
H911 C913 0.959 . S
H912 C913 0.961 . S
C913 C903 1.510 . S
C913 H911 0.959 . S
C913 H912 0.961 . S
C913 H914 0.960 . S
H914 C913 0.960 . S
H915 N895 0.862 . S
O916 Co884 1.920 . S
O916 C889 1.289 . S
C917 O909 1.258 . S
C917 O910 1.266 . S
Co918 O921 1.970 . S
Co918 N935 1.989 . S
Co918 O943 1.967 . S
Co918 O950 1.920 . S
Co919 O922 1.966 . S
Co919 N928 2.022 . S
Co919 N936 1.993 . S
Co919 O944 1.941 . S
C920 O921 1.258 . S
C920 O922 1.263 . S
O921 Co918 1.970 . S
O921 C920 1.258 . S
O922 Co919 1.966 . S
O922 C920 1.263 . S
C923 O924 1.235 . S
C923 O950 1.289 . S
O924 C923 1.235 . S
C925 C927 1.400 . S
C925 N928 1.351 . S
C925 C930 1.501 . S
C926 C927 1.387 . S
C926 N929 1.341 . S
C927 C925 1.400 . S
C927 C926 1.387 . S
N928 Co919 2.022 . S
N928 C925 1.351 . S
N928 N929 1.365 . S
N929 C926 1.341 . S
N929 N928 1.365 . S
N929 H949 0.862 . S
C930 C925 1.501 . S
C930 H931 0.961 . S
C930 H932 0.961 . S
C930 H933 0.960 . S
H931 C930 0.961 . S
H932 C930 0.961 . S
H933 C930 0.960 . S
C934 N935 1.342 . S
C934 C938 1.401 . S
C934 C939 1.499 . S
N935 Co918 1.989 . S
N935 C934 1.342 . S
N935 N936 1.388 . S
N936 Co919 1.993 . S
N936 N935 1.388 . S
N936 C937 1.346 . S
C937 N936 1.346 . S
C937 C938 1.396 . S
C937 C947 1.510 . S
C938 C934 1.401 . S
C938 C937 1.396 . S
C939 C934 1.499 . S
C939 H940 0.959 . S
C939 H941 0.960 . S
C939 H942 0.961 . S
H940 C939 0.959 . S
H941 C939 0.960 . S
H942 C939 0.961 . S
O943 Co918 1.967 . S
O943 C951 1.258 . S
O944 Co919 1.941 . S
O944 C951 1.266 . S
H945 C947 0.959 . S
H946 C947 0.961 . S
C947 C937 1.510 . S
C947 H945 0.959 . S
C947 H946 0.961 . S
C947 H948 0.960 . S
H948 C947 0.960 . S
H949 N929 0.862 . S
O950 Co918 1.920 . S
O950 C923 1.289 . S
C951 O943 1.258 . S
C951 O944 1.266 . S
Co952 O955 1.970 . S
Co952 N969 1.989 . S
Co952 O977 1.967 . S
Co952 O984 1.920 . S
Co953 O956 1.966 . S
Co953 N962 2.022 . S
Co953 N970 1.993 . S
Co953 O978 1.941 . S
C954 O955 1.258 . S
C954 O956 1.263 . S
O955 Co952 1.970 . S
O955 C954 1.258 . S
O956 Co953 1.966 . S
O956 C954 1.263 . S
C957 O958 1.235 . S
C957 O984 1.289 . S
O958 C957 1.235 . S
C959 C961 1.400 . S
C959 N962 1.351 . S
C959 C964 1.501 . S
C960 C961 1.387 . S
C960 N963 1.341 . S
C961 C959 1.400 . S
C961 C960 1.387 . S
N962 Co953 2.022 . S
N962 C959 1.351 . S
N962 N963 1.365 . S
N963 C960 1.341 . S
N963 N962 1.365 . S
N963 H983 0.862 . S
C964 C959 1.501 . S
C964 H965 0.961 . S
C964 H966 0.961 . S
C964 H967 0.960 . S
H965 C964 0.961 . S
H966 C964 0.961 . S
H967 C964 0.960 . S
C968 N969 1.342 . S
C968 C972 1.401 . S
C968 C973 1.499 . S
N969 Co952 1.989 . S
N969 C968 1.342 . S
N969 N970 1.388 . S
N970 Co953 1.993 . S
N970 N969 1.388 . S
N970 C971 1.346 . S
C971 N970 1.346 . S
C971 C972 1.396 . S
C971 C981 1.510 . S
C972 C968 1.401 . S
C972 C971 1.396 . S
C973 C968 1.499 . S
C973 H974 0.959 . S
C973 H975 0.960 . S
C973 H976 0.961 . S
H974 C973 0.959 . S
H975 C973 0.960 . S
H976 C973 0.961 . S
O977 Co952 1.967 . S
O977 C985 1.258 . S
O978 Co953 1.941 . S
O978 C985 1.266 . S
H979 C981 0.959 . S
H980 C981 0.961 . S
C981 C971 1.510 . S
C981 H979 0.959 . S
C981 H980 0.961 . S
C981 H982 0.960 . S
H982 C981 0.960 . S
H983 N963 0.862 . S
O984 Co952 1.920 . S
O984 C957 1.289 . S
C985 O977 1.258 . S
C985 O978 1.266 . S
Co986 O989 1.970 . S
Co986 N1003 1.989 . S
Co986 O1011 1.967 . S
Co986 O1018 1.920 . S
Co987 O990 1.966 . S
Co987 N996 2.022 . S
Co987 N1004 1.993 . S
Co987 O1012 1.941 . S
C988 O989 1.258 . S
C988 O990 1.263 . S
O989 Co986 1.970 . S
O989 C988 1.258 . S
O990 Co987 1.966 . S
O990 C988 1.263 . S
C991 O992 1.235 . S
C991 O1018 1.289 . S
O992 C991 1.235 . S
C993 C995 1.400 . S
C993 N996 1.351 . S
C993 C998 1.501 . S
C994 C995 1.387 . S
C994 N997 1.341 . S
C995 C993 1.400 . S
C995 C994 1.387 . S
N996 Co987 2.022 . S
N996 C993 1.351 . S
N996 N997 1.365 . S
N997 C994 1.341 . S
N997 N996 1.365 . S
N997 H1017 0.862 . S
C998 C993 1.501 . S
C998 H999 0.961 . S
C998 H1000 0.961 . S
C998 H1001 0.960 . S
H999 C998 0.961 . S
H1000 C998 0.961 . S
H1001 C998 0.960 . S
C1002 N1003 1.342 . S
C1002 C1006 1.401 . S
C1002 C1007 1.499 . S
N1003 Co986 1.989 . S
N1003 C1002 1.342 . S
N1003 N1004 1.388 . S
N1004 Co987 1.993 . S
N1004 N1003 1.388 . S
N1004 C1005 1.346 . S
C1005 N1004 1.346 . S
C1005 C1006 1.396 . S
C1005 C1015 1.510 . S
C1006 C1002 1.401 . S
C1006 C1005 1.396 . S
C1007 C1002 1.499 . S
C1007 H1008 0.959 . S
C1007 H1009 0.960 . S
C1007 H1010 0.961 . S
H1008 C1007 0.959 . S
H1009 C1007 0.960 . S
H1010 C1007 0.961 . S
O1011 Co986 1.967 . S
O1011 C1019 1.258 . S
O1012 Co987 1.941 . S
O1012 C1019 1.266 . S
H1013 C1015 0.959 . S
H1014 C1015 0.961 . S
C1015 C1005 1.510 . S
C1015 H1013 0.959 . S
C1015 H1014 0.961 . S
C1015 H1016 0.960 . S
H1016 C1015 0.960 . S
H1017 N997 0.862 . S
O1018 Co986 1.920 . S
O1018 C991 1.289 . S
C1019 O1011 1.258 . S
C1019 O1012 1.266 . S
Co1020 O1023 1.970 . S
Co1020 N1037 1.989 . S
Co1020 O1045 1.967 . S
Co1020 O1052 1.920 . S
Co1021 O1024 1.966 . S
Co1021 N1030 2.022 . S
Co1021 N1038 1.993 . S
Co1021 O1046 1.941 . S
C1022 O1023 1.258 . S
C1022 O1024 1.263 . S
O1023 Co1020 1.970 . S
O1023 C1022 1.258 . S
O1024 Co1021 1.966 . S
O1024 C1022 1.263 . S
C1025 O1026 1.235 . S
C1025 O1052 1.289 . S
O1026 C1025 1.235 . S
C1027 C1029 1.400 . S
C1027 N1030 1.351 . S
C1027 C1032 1.501 . S
C1028 C1029 1.387 . S
C1028 N1031 1.341 . S
C1029 C1027 1.400 . S
C1029 C1028 1.387 . S
N1030 Co1021 2.022 . S
N1030 C1027 1.351 . S
N1030 N1031 1.365 . S
N1031 C1028 1.341 . S
N1031 N1030 1.365 . S
N1031 H1051 0.862 . S
C1032 C1027 1.501 . S
C1032 H1033 0.961 . S
C1032 H1034 0.961 . S
C1032 H1035 0.960 . S
H1033 C1032 0.961 . S
H1034 C1032 0.961 . S
H1035 C1032 0.960 . S
C1036 N1037 1.342 . S
C1036 C1040 1.401 . S
C1036 C1041 1.499 . S
N1037 Co1020 1.989 . S
N1037 C1036 1.342 . S
N1037 N1038 1.388 . S
N1038 Co1021 1.993 . S
N1038 N1037 1.388 . S
N1038 C1039 1.346 . S
C1039 N1038 1.346 . S
C1039 C1040 1.396 . S
C1039 C1049 1.510 . S
C1040 C1036 1.401 . S
C1040 C1039 1.396 . S
C1041 C1036 1.499 . S
C1041 H1042 0.959 . S
C1041 H1043 0.960 . S
C1041 H1044 0.961 . S
H1042 C1041 0.959 . S
H1043 C1041 0.960 . S
H1044 C1041 0.961 . S
O1045 Co1020 1.967 . S
O1045 C1053 1.258 . S
O1046 Co1021 1.941 . S
O1046 C1053 1.266 . S
H1047 C1049 0.959 . S
H1048 C1049 0.961 . S
C1049 C1039 1.510 . S
C1049 H1047 0.959 . S
C1049 H1048 0.961 . S
C1049 H1050 0.960 . S
H1050 C1049 0.960 . S
H1051 N1031 0.862 . S
O1052 Co1020 1.920 . S
O1052 C1025 1.289 . S
C1053 O1045 1.258 . S
C1053 O1046 1.266 . S
Co1054 O1057 1.970 . S
Co1054 N1071 1.989 . S
Co1054 O1079 1.967 . S
Co1054 O1086 1.920 . S
Co1055 O1058 1.966 . S
Co1055 N1064 2.022 . S
Co1055 N1072 1.993 . S
Co1055 O1080 1.941 . S
C1056 O1057 1.258 . S
C1056 O1058 1.263 . S
O1057 Co1054 1.970 . S
O1057 C1056 1.258 . S
O1058 Co1055 1.966 . S
O1058 C1056 1.263 . S
C1059 O1060 1.235 . S
C1059 O1086 1.289 . S
O1060 C1059 1.235 . S
C1061 C1063 1.400 . S
C1061 N1064 1.351 . S
C1061 C1066 1.501 . S
C1062 C1063 1.387 . S
C1062 N1065 1.341 . S
C1063 C1061 1.400 . S
C1063 C1062 1.387 . S
N1064 Co1055 2.022 . S
N1064 C1061 1.351 . S
N1064 N1065 1.365 . S
N1065 C1062 1.341 . S
N1065 N1064 1.365 . S
N1065 H1085 0.862 . S
C1066 C1061 1.501 . S
C1066 H1067 0.961 . S
C1066 H1068 0.961 . S
C1066 H1069 0.960 . S
H1067 C1066 0.961 . S
H1068 C1066 0.961 . S
H1069 C1066 0.960 . S
C1070 N1071 1.342 . S
C1070 C1074 1.401 . S
C1070 C1075 1.499 . S
N1071 Co1054 1.989 . S
N1071 C1070 1.342 . S
N1071 N1072 1.388 . S
N1072 Co1055 1.993 . S
N1072 N1071 1.388 . S
N1072 C1073 1.346 . S
C1073 N1072 1.346 . S
C1073 C1074 1.396 . S
C1073 C1083 1.510 . S
C1074 C1070 1.401 . S
C1074 C1073 1.396 . S
C1075 C1070 1.499 . S
C1075 H1076 0.959 . S
C1075 H1077 0.960 . S
C1075 H1078 0.961 . S
H1076 C1075 0.959 . S
H1077 C1075 0.960 . S
H1078 C1075 0.961 . S
O1079 Co1054 1.967 . S
O1079 C1087 1.258 . S
O1080 Co1055 1.941 . S
O1080 C1087 1.266 . S
H1081 C1083 0.959 . S
H1082 C1083 0.961 . S
C1083 C1073 1.510 . S
C1083 H1081 0.959 . S
C1083 H1082 0.961 . S
C1083 H1084 0.960 . S
H1084 C1083 0.960 . S
H1085 N1065 0.862 . S
O1086 Co1054 1.920 . S
O1086 C1059 1.289 . S
C1087 O1079 1.258 . S
C1087 O1080 1.266 . S
H1088 C1096 0.950 . S
H1089 C1101 0.950 1_565 S
H1090 C1098 0.950 . S
H1091 C1100 0.950 . S
H1092 C1102 0.950 . S
H1093 C1104 0.950 . S
H1094 C1106 0.950 . S
H1095 C1107 0.950 . S
C1096 H1088 0.950 . S
C1096 C1097 1.386 . S
C1096 C1098 1.391 . S
C1097 C1096 1.386 . S
C1097 C1101 1.393 . S
C1098 H1090 0.950 . S
C1098 C1096 1.391 . S
C1098 C1099 1.400 . S
C1099 C1098 1.400 . S
C1099 C1100 1.398 1_545 S
C1099 C1105 1.491 . S
C1100 H1091 0.950 . S
C1100 C1099 1.398 1_565 S
C1100 C1101 1.391 1_565 S
C1101 H1089 0.950 1_545 S
C1101 C1097 1.393 . S
C1101 C1100 1.391 1_545 S
C1102 H1092 0.950 . S
C1102 C1103 1.386 . S
C1102 C1104 1.391 . S
C1103 C1102 1.386 . S
C1103 C1107 1.393 1_565 S
C1104 H1093 0.950 . S
C1104 C1102 1.391 . S
C1104 C1105 1.400 1_565 S
C1105 C1099 1.491 . S
C1105 C1104 1.400 1_545 S
C1105 C1106 1.398 . S
C1106 H1094 0.950 . S
C1106 C1105 1.398 . S
C1106 C1107 1.391 . S
C1107 H1095 0.950 . S
C1107 C1103 1.393 1_545 S
C1107 C1106 1.391 . S
H1108 C1116 0.950 . S
H1109 C1121 0.950 . S
H1110 C1118 0.950 . S
H1111 C1120 0.950 . S
H1112 C1122 0.950 . S
H1113 C1124 0.950 . S
H1114 C1126 0.950 . S
H1115 C1127 0.950 1_545 S
C1116 H1108 0.950 . S
C1116 C1117 1.386 . S
C1116 C1118 1.391 . S
C1117 C1116 1.386 . S
C1117 C1121 1.393 1_545 S
C1118 H1110 0.950 . S
C1118 C1116 1.391 . S
C1118 C1119 1.400 1_545 S
C1119 C1118 1.400 1_565 S
C1119 C1120 1.398 . S
C1119 C1125 1.491 . S
C1120 H1111 0.950 . S
C1120 C1119 1.398 . S
C1120 C1121 1.391 . S
C1121 H1109 0.950 . S
C1121 C1117 1.393 1_565 S
C1121 C1120 1.391 . S
C1122 H1112 0.950 . S
C1122 C1123 1.386 . S
C1122 C1124 1.391 . S
C1123 C1122 1.386 . S
C1123 C1127 1.393 . S
C1124 H1113 0.950 . S
C1124 C1122 1.391 . S
C1124 C1125 1.400 . S
C1125 C1119 1.491 . S
C1125 C1124 1.400 . S
C1125 C1126 1.398 1_565 S
C1126 H1114 0.950 . S
C1126 C1125 1.398 1_545 S
C1126 C1127 1.391 1_545 S
C1127 H1115 0.950 1_565 S
C1127 C1123 1.393 . S
C1127 C1126 1.391 1_565 S
H1128 C1136 0.950 . S
H1129 C1141 0.950 . S
H1130 C1138 0.950 . S
H1131 C1140 0.950 . S
H1132 C1142 0.950 . S
H1133 C1144 0.950 . S
H1134 C1146 0.950 . S
H1135 C1147 0.950 . S
C1136 H1128 0.950 . S
C1136 C1137 1.386 . S
C1136 C1138 1.391 . S
C1137 C1136 1.386 . S
C1137 C1141 1.393 1_565 S
C1138 H1130 0.950 . S
C1138 C1136 1.391 . S
C1138 C1139 1.400 . S
C1139 C1138 1.400 . S
C1139 C1140 1.398 1_565 S
C1139 C1145 1.491 . S
C1140 H1131 0.950 . S
C1140 C1139 1.398 1_545 S
C1140 C1141 1.391 . S
C1141 H1129 0.950 . S
C1141 C1137 1.393 1_545 S
C1141 C1140 1.391 . S
C1142 H1132 0.950 . S
C1142 C1143 1.386 . S
C1142 C1144 1.391 . S
C1143 C1142 1.386 . S
C1143 C1147 1.393 1_545 S
C1144 H1133 0.950 . S
C1144 C1142 1.391 . S
C1144 C1145 1.400 1_545 S
C1145 C1139 1.491 . S
C1145 C1144 1.400 1_565 S
C1145 C1146 1.398 . S
C1146 H1134 0.950 . S
C1146 C1145 1.398 . S
C1146 C1147 1.391 . S
C1147 H1135 0.950 . S
C1147 C1143 1.393 1_565 S
C1147 C1146 1.391 . S
H1148 C1156 0.950 1_565 S
H1149 C1161 0.950 . S
H1150 C1158 0.950 . S
H1151 C1160 0.950 . S
H1152 C1162 0.950 . S
H1153 C1164 0.950 . S
H1154 C1166 0.950 . S
H1155 C1167 0.950 . S
C1156 H1148 0.950 1_545 S
C1156 C1157 1.386 . S
C1156 C1158 1.391 1_545 S
C1157 C1156 1.386 . S
C1157 C1161 1.393 . S
C1158 H1150 0.950 . S
C1158 C1156 1.391 1_565 S
C1158 C1159 1.400 1_565 S
C1159 C1158 1.400 1_545 S
C1159 C1160 1.398 . S
C1159 C1165 1.491 . S
C1160 H1151 0.950 . S
C1160 C1159 1.398 . S
C1160 C1161 1.391 . S
C1161 H1149 0.950 . S
C1161 C1157 1.393 . S
C1161 C1160 1.391 . S
C1162 H1152 0.950 . S
C1162 C1163 1.386 1_545 S
C1162 C1164 1.391 . S
C1163 C1162 1.386 1_565 S
C1163 C1167 1.393 . S
C1164 H1153 0.950 . S
C1164 C1162 1.391 . S
C1164 C1165 1.400 . S
C1165 C1159 1.491 . S
C1165 C1164 1.400 . S
C1165 C1166 1.398 1_545 S
C1166 H1154 0.950 . S
C1166 C1165 1.398 1_565 S
C1166 C1167 1.391 . S
C1167 H1155 0.950 . S
C1167 C1163 1.393 . S
C1167 C1166 1.391 . S
H1168 C1176 0.950 . S
H1169 C1181 0.950 . S
H1170 C1178 0.950 . S
H1171 C1180 0.950 . S
H1172 C1182 0.950 . S
H1173 C1184 0.950 . S
H1174 C1186 0.950 . S
H1175 C1187 0.950 1_545 S
C1176 H1168 0.950 . S
C1176 C1177 1.386 . S
C1176 C1178 1.391 . S
C1177 C1176 1.386 . S
C1177 C1181 1.393 1_545 S
C1178 H1170 0.950 . S
C1178 C1176 1.391 . S
C1178 C1179 1.400 1_545 S
C1179 C1178 1.400 1_565 S
C1179 C1180 1.398 . S
C1179 C1185 1.491 . S
C1180 H1171 0.950 . S
C1180 C1179 1.398 . S
C1180 C1181 1.391 . S
C1181 H1169 0.950 . S
C1181 C1177 1.393 1_565 S
C1181 C1180 1.391 . S
C1182 H1172 0.950 . S
C1182 C1183 1.386 . S
C1182 C1184 1.391 . S
C1183 C1182 1.386 . S
C1183 C1187 1.393 . S
C1184 H1173 0.950 . S
C1184 C1182 1.391 . S
C1184 C1185 1.400 . S
C1185 C1179 1.491 . S
C1185 C1184 1.400 . S
C1185 C1186 1.398 1_565 S
C1186 H1174 0.950 . S
C1186 C1185 1.398 1_545 S
C1186 C1187 1.391 1_545 S
C1187 H1175 0.950 1_565 S
C1187 C1183 1.393 . S
C1187 C1186 1.391 1_565 S
H1188 C1196 0.950 . S
H1189 C1201 0.950 . S
H1190 C1198 0.950 . S
H1191 C1200 0.948 1_565 S
H1192 C1202 0.950 . S
H1193 C1204 0.950 . S
H1194 C1206 0.950 . S
H1195 C1207 0.950 . S
C1196 H1188 0.950 . S
C1196 C1197 1.386 . S
C1196 C1198 1.391 . S
C1197 C1196 1.386 . S
C1197 C1201 1.393 . S
C1198 H1190 0.950 . S
C1198 C1196 1.391 . S
C1198 C1199 1.400 . S
C1199 C1198 1.400 . S
C1199 C1200 1.398 . S
C1199 C1205 1.491 . S
C1200 H1191 0.948 1_545 S
C1200 C1199 1.398 . S
C1200 C1201 1.391 . S
C1201 H1189 0.950 . S
C1201 C1197 1.393 . S
C1201 C1200 1.391 . S
C1202 H1192 0.950 . S
C1202 C1203 1.386 . S
C1202 C1204 1.391 . S
C1203 C1202 1.386 . S
C1203 C1207 1.393 1_565 S
C1204 H1193 0.950 . S
C1204 C1202 1.391 . S
C1204 C1205 1.400 1_565 S
C1205 C1199 1.491 . S
C1205 C1204 1.400 1_545 S
C1205 C1206 1.398 . S
C1206 H1194 0.950 . S
C1206 C1205 1.398 . S
C1206 C1207 1.391 . S
C1207 H1195 0.950 . S
C1207 C1203 1.393 1_545 S
C1207 C1206 1.391 . S
H1208 C1216 0.950 . S
H1209 C1221 0.950 . S
H1210 C1218 0.950 . S
H1211 C1220 0.950 . S
H1212 C1222 0.950 . S
H1213 C1224 0.950 . S
H1214 C1226 0.950 . S
H1215 C1227 0.950 . S
C1216 H1208 0.950 . S
C1216 C1217 1.386 . S
C1216 C1218 1.391 . S
C1217 C1216 1.386 . S
C1217 C1221 1.393 1_565 S
C1218 H1210 0.950 . S
C1218 C1216 1.391 . S
C1218 C1219 1.400 1_565 S
C1219 C1218 1.400 1_545 S
C1219 C1220 1.398 . S
C1219 C1225 1.491 . S
C1220 H1211 0.950 . S
C1220 C1219 1.398 . S
C1220 C1221 1.391 . S
C1221 H1209 0.950 . S
C1221 C1217 1.393 1_545 S
C1221 C1220 1.391 . S
C1222 H1212 0.950 . S
C1222 C1223 1.386 . S
C1222 C1224 1.391 . S
C1223 C1222 1.386 . S
C1223 C1227 1.393 . S
C1224 H1213 0.950 . S
C1224 C1222 1.391 . S
C1224 C1225 1.400 . S
C1225 C1219 1.491 . S
C1225 C1224 1.400 . S
C1225 C1226 1.398 . S
C1226 H1214 0.950 . S
C1226 C1225 1.398 . S
C1226 C1227 1.391 . S
C1227 H1215 0.950 . S
C1227 C1223 1.393 . S
C1227 C1226 1.391 . S
H1228 C1236 0.950 . S
H1229 C1241 0.950 . S
H1230 C1238 0.950 . S
H1231 C1240 0.950 . S
H1232 C1242 0.950 . S
H1233 C1244 0.950 . S
H1234 C1246 0.950 . S
H1235 C1247 0.950 . S
C1236 H1228 0.950 . S
C1236 C1237 1.386 . S
C1236 C1238 1.391 . S
C1237 C1236 1.386 . S
C1237 C1241 1.393 1_565 S
C1238 H1230 0.950 . S
C1238 C1236 1.391 . S
C1238 C1239 1.400 . S
C1239 C1238 1.400 . S
C1239 C1240 1.398 1_565 S
C1239 C1245 1.491 . S
C1240 H1231 0.950 . S
C1240 C1239 1.398 1_545 S
C1240 C1241 1.391 . S
C1241 H1229 0.950 . S
C1241 C1237 1.393 1_545 S
C1241 C1240 1.391 . S
C1242 H1232 0.950 . S
C1242 C1243 1.386 . S
C1242 C1244 1.391 . S
C1243 C1242 1.386 . S
C1243 C1247 1.393 1_545 S
C1244 H1233 0.950 . S
C1244 C1242 1.391 . S
C1244 C1245 1.400 1_545 S
C1245 C1239 1.491 . S
C1245 C1244 1.400 1_565 S
C1245 C1246 1.398 . S
C1246 H1234 0.950 . S
C1246 C1245 1.398 . S
C1246 C1247 1.391 . S
C1247 H1235 0.950 . S
C1247 C1243 1.393 1_565 S
C1247 C1246 1.391 . S
H1248 C1256 0.950 . S
H1249 C1261 0.950 . S
H1250 C1258 0.950 . S
H1251 C1260 0.950 . S
H1252 C1262 0.950 . S
H1253 C1264 0.950 . S
H1254 C1266 0.950 . S
H1255 C1267 0.950 . S
C1256 H1248 0.950 . S
C1256 C1257 1.386 . S
C1256 C1258 1.391 . S
C1257 C1256 1.386 . S
C1257 C1261 1.393 . S
C1258 H1250 0.950 . S
C1258 C1256 1.391 . S
C1258 C1259 1.400 . S
C1259 C1258 1.400 . S
C1259 C1260 1.398 . S
C1259 C1265 1.491 . S
C1260 H1251 0.950 . S
C1260 C1259 1.398 . S
C1260 C1261 1.391 . S
C1261 H1249 0.950 . S
C1261 C1257 1.393 . S
C1261 C1260 1.391 . S
C1262 H1252 0.950 . S
C1262 C1263 1.386 . S
C1262 C1264 1.391 . S
C1263 C1262 1.386 . S
C1263 C1267 1.393 . S
C1264 H1253 0.950 . S
C1264 C1262 1.391 . S
C1264 C1265 1.400 . S
C1265 C1259 1.491 . S
C1265 C1264 1.400 . S
C1265 C1266 1.398 . S
C1266 H1254 0.950 . S
C1266 C1265 1.398 . S
C1266 C1267 1.391 . S
C1267 H1255 0.950 . S
C1267 C1263 1.393 . S
C1267 C1266 1.391 . S
H1268 C1276 0.950 . S
H1269 C1281 0.950 . S
H1270 C1278 0.950 . S
H1271 C1280 0.950 . S
H1272 C1282 0.950 . S
H1273 C1284 0.950 . S
H1274 C1286 0.950 . S
H1275 C1287 0.950 . S
C1276 H1268 0.950 . S
C1276 C1277 1.386 . S
C1276 C1278 1.391 . S
C1277 C1276 1.386 . S
C1277 C1281 1.393 . S
C1278 H1270 0.950 . S
C1278 C1276 1.391 . S
C1278 C1279 1.400 . S
C1279 C1278 1.400 . S
C1279 C1280 1.398 . S
C1279 C1285 1.491 . S
C1280 H1271 0.950 . S
C1280 C1279 1.398 . S
C1280 C1281 1.391 . S
C1281 H1269 0.950 . S
C1281 C1277 1.393 . S
C1281 C1280 1.391 . S
C1282 H1272 0.950 . S
C1282 C1283 1.386 . S
C1282 C1284 1.391 . S
C1283 C1282 1.386 . S
C1283 C1287 1.393 . S
C1284 H1273 0.950 . S
C1284 C1282 1.391 . S
C1284 C1285 1.400 . S
C1285 C1279 1.491 . S
C1285 C1284 1.400 . S
C1285 C1286 1.398 . S
C1286 H1274 0.950 . S
C1286 C1285 1.398 . S
C1286 C1287 1.391 . S
C1287 H1275 0.950 . S
C1287 C1283 1.393 . S
C1287 C1286 1.391 . S
H1288 C1296 0.950 . S
H1289 C1301 0.950 . S
H1290 C1298 0.950 . S
H1291 C1300 0.950 . S
H1292 C1302 0.950 . S
H1293 C1304 0.950 . S
H1294 C1306 0.950 . S
H1295 C1307 0.950 . S
C1296 H1288 0.950 . S
C1296 C1297 1.386 . S
C1296 C1298 1.391 . S
C1297 C1296 1.386 . S
C1297 C1301 1.393 . S
C1298 H1290 0.950 . S
C1298 C1296 1.391 . S
C1298 C1299 1.400 . S
C1299 C1298 1.400 . S
C1299 C1300 1.398 . S
C1299 C1305 1.491 . S
C1300 H1291 0.950 . S
C1300 C1299 1.398 . S
C1300 C1301 1.391 . S
C1301 H1289 0.950 . S
C1301 C1297 1.393 . S
C1301 C1300 1.391 . S
C1302 H1292 0.950 . S
C1302 C1303 1.386 . S
C1302 C1304 1.391 . S
C1303 C1302 1.386 . S
C1303 C1307 1.393 . S
C1304 H1293 0.950 . S
C1304 C1302 1.391 . S
C1304 C1305 1.400 . S
C1305 C1299 1.491 . S
C1305 C1304 1.400 . S
C1305 C1306 1.398 . S
C1306 H1294 0.950 . S
C1306 C1305 1.398 . S
C1306 C1307 1.391 . S
C1307 H1295 0.950 . S
C1307 C1303 1.393 . S
C1307 C1306 1.391 . S
H1308 C1316 0.950 . S
H1309 C1321 0.950 . S
H1310 C1318 0.950 . S
H1311 C1320 0.950 . S
H1312 C1322 0.950 . S
H1313 C1324 0.950 . S
H1314 C1326 0.950 . S
H1315 C1327 0.950 . S
C1316 H1308 0.950 . S
C1316 C1317 1.386 . S
C1316 C1318 1.391 . S
C1317 C1316 1.386 . S
C1317 C1321 1.393 . S
C1318 H1310 0.950 . S
C1318 C1316 1.391 . S
C1318 C1319 1.400 . S
C1319 C1318 1.400 . S
C1319 C1320 1.398 . S
C1319 C1325 1.491 . S
C1320 H1311 0.950 . S
C1320 C1319 1.398 . S
C1320 C1321 1.391 . S
C1321 H1309 0.950 . S
C1321 C1317 1.393 . S
C1321 C1320 1.391 . S
C1322 H1312 0.950 . S
C1322 C1323 1.386 . S
C1322 C1324 1.391 . S
C1323 C1322 1.386 . S
C1323 C1327 1.393 . S
C1324 H1313 0.950 . S
C1324 C1322 1.391 . S
C1324 C1325 1.400 . S
C1325 C1319 1.491 . S
C1325 C1324 1.400 . S
C1325 C1326 1.398 . S
C1326 H1314 0.950 . S
C1326 C1325 1.398 . S
C1326 C1327 1.391 . S
C1327 H1315 0.950 . S
C1327 C1323 1.393 . S
C1327 C1326 1.391 . S
H1328 C1336 0.950 . S
H1329 C1341 0.950 . S
H1330 C1338 0.950 . S
H1331 C1340 0.950 . S
H1332 C1342 0.950 . S
H1333 C1344 0.950 . S
H1334 C1346 0.950 . S
H1335 C1347 0.950 . S
C1336 H1328 0.950 . S
C1336 C1337 1.386 . S
C1336 C1338 1.391 . S
C1337 C1336 1.386 . S
C1337 C1341 1.393 . S
C1338 H1330 0.950 . S
C1338 C1336 1.391 . S
C1338 C1339 1.400 . S
C1339 C1338 1.400 . S
C1339 C1340 1.398 . S
C1339 C1345 1.491 . S
C1340 H1331 0.950 . S
C1340 C1339 1.398 . S
C1340 C1341 1.391 . S
C1341 H1329 0.950 . S
C1341 C1337 1.393 . S
C1341 C1340 1.391 . S
C1342 H1332 0.950 . S
C1342 C1343 1.386 . S
C1342 C1344 1.391 . S
C1343 C1342 1.386 . S
C1343 C1347 1.393 . S
C1344 H1333 0.950 . S
C1344 C1342 1.391 . S
C1344 C1345 1.400 . S
C1345 C1339 1.491 . S
C1345 C1344 1.400 . S
C1345 C1346 1.398 . S
C1346 H1334 0.950 . S
C1346 C1345 1.398 . S
C1346 C1347 1.391 . S
C1347 H1335 0.950 . S
C1347 C1343 1.393 . S
C1347 C1346 1.391 . S
H1348 C1356 0.950 . S
H1349 C1361 0.950 . S
H1350 C1358 0.950 . S
H1351 C1360 0.950 . S
H1352 C1362 0.950 . S
H1353 C1364 0.950 . S
H1354 C1366 0.950 . S
H1355 C1367 0.950 . S
C1356 H1348 0.950 . S
C1356 C1357 1.386 . S
C1356 C1358 1.391 . S
C1357 C1356 1.386 . S
C1357 C1361 1.393 . S
C1358 H1350 0.950 . S
C1358 C1356 1.391 . S
C1358 C1359 1.400 . S
C1359 C1358 1.400 . S
C1359 C1360 1.398 . S
C1359 C1365 1.491 . S
C1360 H1351 0.950 . S
C1360 C1359 1.398 . S
C1360 C1361 1.391 . S
C1361 H1349 0.950 . S
C1361 C1357 1.393 . S
C1361 C1360 1.391 . S
C1362 H1352 0.950 . S
C1362 C1363 1.386 . S
C1362 C1364 1.391 . S
C1363 C1362 1.386 . S
C1363 C1367 1.393 . S
C1364 H1353 0.950 . S
C1364 C1362 1.391 . S
C1364 C1365 1.400 . S
C1365 C1359 1.491 . S
C1365 C1364 1.400 . S
C1365 C1366 1.398 . S
C1366 H1354 0.950 . S
C1366 C1365 1.398 . S
C1366 C1367 1.391 . S
C1367 H1355 0.950 . S
C1367 C1363 1.393 . S
C1367 C1366 1.391 . S
H1368 C1376 0.950 . S
H1369 C1381 0.950 . S
H1370 C1378 0.950 . S
H1371 C1380 0.950 . S
H1372 C1382 0.950 . S
H1373 C1384 0.950 . S
H1374 C1386 0.950 . S
H1375 C1387 0.950 . S
C1376 H1368 0.950 . S
C1376 C1377 1.386 . S
C1376 C1378 1.391 . S
C1377 C1376 1.386 . S
C1377 C1381 1.393 . S
C1378 H1370 0.950 . S
C1378 C1376 1.391 . S
C1378 C1379 1.400 . S
C1379 C1378 1.400 . S
C1379 C1380 1.398 . S
C1379 C1385 1.491 . S
C1380 H1371 0.950 . S
C1380 C1379 1.398 . S
C1380 C1381 1.391 . S
C1381 H1369 0.950 . S
C1381 C1377 1.393 . S
C1381 C1380 1.391 . S
C1382 H1372 0.950 . S
C1382 C1383 1.386 . S
C1382 C1384 1.391 . S
C1383 C1382 1.386 . S
C1383 C1387 1.393 . S
C1384 H1373 0.950 . S
C1384 C1382 1.391 . S
C1384 C1385 1.400 . S
C1385 C1379 1.491 . S
C1385 C1384 1.400 . S
C1385 C1386 1.398 . S
C1386 H1374 0.950 . S
C1386 C1385 1.398 . S
C1386 C1387 1.391 . S
C1387 H1375 0.950 . S
C1387 C1383 1.393 . S
C1387 C1386 1.391 . S
H1388 C1396 0.950 . S
H1389 C1401 0.950 . S
H1390 C1398 0.950 . S
H1391 C1400 0.950 . S
H1392 C1402 0.950 . S
H1393 C1404 0.950 . S
H1394 C1406 0.950 . S
H1395 C1407 0.950 . S
C1396 H1388 0.950 . S
C1396 C1397 1.386 . S
C1396 C1398 1.391 . S
C1397 C1396 1.386 . S
C1397 C1401 1.393 . S
C1398 H1390 0.950 . S
C1398 C1396 1.391 . S
C1398 C1399 1.400 . S
C1399 C1398 1.400 . S
C1399 C1400 1.398 . S
C1399 C1405 1.491 . S
C1400 H1391 0.950 . S
C1400 C1399 1.398 . S
C1400 C1401 1.391 . S
C1401 H1389 0.950 . S
C1401 C1397 1.393 . S
C1401 C1400 1.391 . S
C1402 H1392 0.950 . S
C1402 C1403 1.386 . S
C1402 C1404 1.391 . S
C1403 C1402 1.386 . S
C1403 C1407 1.393 . S
C1404 H1393 0.950 . S
C1404 C1402 1.391 . S
C1404 C1405 1.400 . S
C1405 C1399 1.491 . S
C1405 C1404 1.400 . S
C1405 C1406 1.398 . S
C1406 H1394 0.950 . S
C1406 C1405 1.398 . S
C1406 C1407 1.391 . S
C1407 H1395 0.950 . S
C1407 C1403 1.393 . S
C1407 C1406 1.391 . S
H1408 C1416 0.950 . S
H1409 C1421 0.950 . S
H1410 C1418 0.950 . S
H1411 C1420 0.950 . S
H1412 C1422 0.950 . S
H1413 C1424 0.950 . S
H1414 C1426 0.950 . S
H1415 C1427 0.950 . S
C1416 H1408 0.950 . S
C1416 C1417 1.386 . S
C1416 C1418 1.391 . S
C1417 C1416 1.386 . S
C1417 C1421 1.393 . S
C1418 H1410 0.950 . S
C1418 C1416 1.391 . S
C1418 C1419 1.400 . S
C1419 C1418 1.400 . S
C1419 C1420 1.398 . S
C1419 C1425 1.491 . S
C1420 H1411 0.950 . S
C1420 C1419 1.398 . S
C1420 C1421 1.391 . S
C1421 H1409 0.950 . S
C1421 C1417 1.393 . S
C1421 C1420 1.391 . S
C1422 H1412 0.950 . S
C1422 C1423 1.386 . S
C1422 C1424 1.391 . S
C1423 C1422 1.386 . S
C1423 C1427 1.393 . S
C1424 H1413 0.950 . S
C1424 C1422 1.391 . S
C1424 C1425 1.400 . S
C1425 C1419 1.491 . S
C1425 C1424 1.400 . S
C1425 C1426 1.398 . S
C1426 H1414 0.950 . S
C1426 C1425 1.398 . S
C1426 C1427 1.391 . S
C1427 H1415 0.950 . S
C1427 C1423 1.393 . S
C1427 C1426 1.391 . S
H1428 C1436 0.950 . S
H1429 C1441 0.950 1_565 S
H1430 C1438 0.950 . S
H1431 C1440 0.952 1_565 S
H1432 C1442 0.950 . S
H1433 C1444 0.950 . S
H1434 C1446 0.950 . S
H1435 C1447 0.950 . S
C1436 H1428 0.950 . S
C1436 C1437 1.386 . S
C1436 C1438 1.391 . S
C1437 C1436 1.386 . S
C1437 C1441 1.393 . S
C1438 H1430 0.950 . S
C1438 C1436 1.391 . S
C1438 C1439 1.400 . S
C1439 C1438 1.400 . S
C1439 C1440 1.397 . S
C1439 C1445 1.491 . S
C1440 H1431 0.952 1_545 S
C1440 C1439 1.397 . S
C1440 C1441 1.390 . S
C1441 H1429 0.950 1_545 S
C1441 C1437 1.393 . S
C1441 C1440 1.390 . S
C1442 H1432 0.950 . S
C1442 C1443 1.386 . S
C1442 C1444 1.391 . S
C1443 C1442 1.386 . S
C1443 C1447 1.393 1_565 S
C1444 H1433 0.950 . S
C1444 C1442 1.391 . S
C1444 C1445 1.400 1_565 S
C1445 C1439 1.491 . S
C1445 C1444 1.400 1_545 S
C1445 C1446 1.398 . S
C1446 H1434 0.950 . S
C1446 C1445 1.398 . S
C1446 C1447 1.391 . S
C1447 H1435 0.950 . S
C1447 C1443 1.393 1_545 S
C1447 C1446 1.391 . S
H1448 C1456 0.950 . S
H1449 C1461 0.950 . S
H1450 C1458 0.950 . S
H1451 C1460 0.950 . S
H1452 C1462 0.950 . S
H1453 C1464 0.950 . S
H1454 C1466 0.950 . S
H1455 C1467 0.950 . S
C1456 H1448 0.950 . S
C1456 C1457 1.386 . S
C1456 C1458 1.391 . S
C1457 C1456 1.386 . S
C1457 C1461 1.393 . S
C1458 H1450 0.950 . S
C1458 C1456 1.391 . S
C1458 C1459 1.400 . S
C1459 C1458 1.400 . S
C1459 C1460 1.398 . S
C1459 C1465 1.491 . S
C1460 H1451 0.950 . S
C1460 C1459 1.398 . S
C1460 C1461 1.391 . S
C1461 H1449 0.950 . S
C1461 C1457 1.393 . S
C1461 C1460 1.391 . S
C1462 H1452 0.950 . S
C1462 C1463 1.386 . S
C1462 C1464 1.391 . S
C1463 C1462 1.386 . S
C1463 C1467 1.393 . S
C1464 H1453 0.950 . S
C1464 C1462 1.391 . S
C1464 C1465 1.400 . S
C1465 C1459 1.491 . S
C1465 C1464 1.400 . S
C1465 C1466 1.398 . S
C1466 H1454 0.950 . S
C1466 C1465 1.398 . S
C1466 C1467 1.391 . S
C1467 H1455 0.950 . S
C1467 C1463 1.393 . S
C1467 C1466 1.391 . S
H1468 C1476 0.950 . S
H1469 C1481 0.950 1_545 S
H1470 C1478 0.950 . S
H1471 C1480 0.950 1_545 S
H1472 C1482 0.950 . S
H1473 C1484 0.950 1_455 S
H1474 C1486 0.950 . S
H1475 C1487 0.950 . S
C1476 H1468 0.950 . S
C1476 C1477 1.386 . S
C1476 C1478 1.391 . S
C1477 C1476 1.386 . S
C1477 C1481 1.393 . S
C1478 H1470 0.950 . S
C1478 C1476 1.391 . S
C1478 C1479 1.400 . S
C1479 C1478 1.400 . S
C1479 C1480 1.398 . S
C1479 C1485 1.491 . S
C1480 H1471 0.950 1_565 S
C1480 C1479 1.398 . S
C1480 C1481 1.391 . S
C1481 H1469 0.950 1_565 S
C1481 C1477 1.393 . S
C1481 C1480 1.391 . S
C1482 H1472 0.950 . S
C1482 C1483 1.386 . S
C1482 C1484 1.391 . S
C1483 C1482 1.386 . S
C1483 C1487 1.393 1_545 S
C1484 H1473 0.950 1_655 S
C1484 C1482 1.391 . S
C1484 C1485 1.400 1_645 S
C1485 C1479 1.491 . S
C1485 C1484 1.400 1_465 S
C1485 C1486 1.398 1_455 S
C1486 H1474 0.950 . S
C1486 C1485 1.398 1_655 S
C1486 C1487 1.391 . S
C1487 H1475 0.950 . S
C1487 C1483 1.393 1_565 S
C1487 C1486 1.391 . S
H1488 C1496 0.950 . S
H1489 C1501 0.950 . S
H1490 C1498 0.950 . S
H1491 C1500 0.950 . S
H1492 C1502 0.950 . S
H1493 C1504 0.950 . S
H1494 C1506 0.950 . S
H1495 C1507 0.950 . S
C1496 H1488 0.950 . S
C1496 C1497 1.386 . S
C1496 C1498 1.391 . S
C1497 C1496 1.386 . S
C1497 C1501 1.393 . S
C1498 H1490 0.950 . S
C1498 C1496 1.391 . S
C1498 C1499 1.400 . S
C1499 C1498 1.400 . S
C1499 C1500 1.398 . S
C1499 C1505 1.491 . S
C1500 H1491 0.950 . S
C1500 C1499 1.398 . S
C1500 C1501 1.391 . S
C1501 H1489 0.950 . S
C1501 C1497 1.393 . S
C1501 C1500 1.391 . S
C1502 H1492 0.950 . S
C1502 C1503 1.386 . S
C1502 C1504 1.391 . S
C1503 C1502 1.386 . S
C1503 C1507 1.393 . S
C1504 H1493 0.950 . S
C1504 C1502 1.391 . S
C1504 C1505 1.400 . S
C1505 C1499 1.491 . S
C1505 C1504 1.400 . S
C1505 C1506 1.398 . S
C1506 H1494 0.950 . S
C1506 C1505 1.398 . S
C1506 C1507 1.391 . S
C1507 H1495 0.950 . S
C1507 C1503 1.393 . S
C1507 C1506 1.391 . S
H1508 C1516 0.950 . S
H1509 C1521 0.950 . S
H1510 C1518 0.950 . S
H1511 C1520 0.950 1_455 S
H1512 C1522 0.950 1_565 S
H1513 C1524 0.950 . S
H1514 C1526 0.950 . S
H1515 C1527 0.950 . S
C1516 H1508 0.950 . S
C1516 C1517 1.386 1_545 S
C1516 C1518 1.391 . S
C1517 C1516 1.386 1_565 S
C1517 C1521 1.393 . S
C1518 H1510 0.950 . S
C1518 C1516 1.391 . S
C1518 C1519 1.400 1_655 S
C1519 C1518 1.400 1_455 S
C1519 C1520 1.398 1_445 S
C1519 C1525 1.491 . S
C1520 H1511 0.950 1_655 S
C1520 C1519 1.398 1_665 S
C1520 C1521 1.391 . S
C1521 H1509 0.950 . S
C1521 C1517 1.393 . S
C1521 C1520 1.391 . S
C1522 H1512 0.950 1_545 S
C1522 C1523 1.386 . S
C1522 C1524 1.391 1_545 S
C1523 C1522 1.386 . S
C1523 C1527 1.393 . S
C1524 H1513 0.950 . S
C1524 C1522 1.391 1_565 S
C1524 C1525 1.400 1_565 S
C1525 C1519 1.491 . S
C1525 C1524 1.400 1_545 S
C1525 C1526 1.398 . S
C1526 H1514 0.950 . S
C1526 C1525 1.398 . S
C1526 C1527 1.391 . S
C1527 H1515 0.950 . S
C1527 C1523 1.393 . S
C1527 C1526 1.391 . S
H1528 C1536 0.950 . S
H1529 C1541 0.950 . S
H1530 C1538 0.950 . S
H1531 C1540 0.950 . S
H1532 C1542 0.950 . S
H1533 C1544 0.950 . S
H1534 C1546 0.950 . S
H1535 C1547 0.950 . S
C1536 H1528 0.950 . S
C1536 C1537 1.386 . S
C1536 C1538 1.391 . S
C1537 C1536 1.386 . S
C1537 C1541 1.393 . S
C1538 H1530 0.950 . S
C1538 C1536 1.391 . S
C1538 C1539 1.400 . S
C1539 C1538 1.400 . S
C1539 C1540 1.398 . S
C1539 C1545 1.491 . S
C1540 H1531 0.950 . S
C1540 C1539 1.398 . S
C1540 C1541 1.391 . S
C1541 H1529 0.950 . S
C1541 C1537 1.393 . S
C1541 C1540 1.391 . S
C1542 H1532 0.950 . S
C1542 C1543 1.386 . S
C1542 C1544 1.391 . S
C1543 C1542 1.386 . S
C1543 C1547 1.393 . S
C1544 H1533 0.950 . S
C1544 C1542 1.391 . S
C1544 C1545 1.400 . S
C1545 C1539 1.491 . S
C1545 C1544 1.400 . S
C1545 C1546 1.398 . S
C1546 H1534 0.950 . S
C1546 C1545 1.398 . S
C1546 C1547 1.391 . S
C1547 H1535 0.950 . S
C1547 C1543 1.393 . S
C1547 C1546 1.391 . S
H1548 C1556 0.950 . S
H1549 C1561 0.950 1_545 S
H1550 C1558 0.950 . S
H1551 C1560 0.950 . S
H1552 C1562 0.950 . S
H1553 C1564 0.950 . S
H1554 C1566 0.950 . S
H1555 C1567 0.950 . S
C1556 H1548 0.950 . S
C1556 C1557 1.386 . S
C1556 C1558 1.391 . S
C1557 C1556 1.386 . S
C1557 C1561 1.393 . S
C1558 H1550 0.950 . S
C1558 C1556 1.391 . S
C1558 C1559 1.400 . S
C1559 C1558 1.400 . S
C1559 C1560 1.398 1_565 S
C1559 C1565 1.491 . S
C1560 H1551 0.950 . S
C1560 C1559 1.398 1_545 S
C1560 C1561 1.391 1_545 S
C1561 H1549 0.950 1_565 S
C1561 C1557 1.393 . S
C1561 C1560 1.391 1_565 S
C1562 H1552 0.950 . S
C1562 C1563 1.386 . S
C1562 C1564 1.391 . S
C1563 C1562 1.386 . S
C1563 C1567 1.393 1_545 S
C1564 H1553 0.950 . S
C1564 C1562 1.391 . S
C1564 C1565 1.400 1_545 S
C1565 C1559 1.491 . S
C1565 C1564 1.400 1_565 S
C1565 C1566 1.398 . S
C1566 H1554 0.950 . S
C1566 C1565 1.398 . S
C1566 C1567 1.391 . S
C1567 H1555 0.950 . S
C1567 C1563 1.393 1_565 S
C1567 C1566 1.391 . S
H1568 C1576 0.950 . S
H1569 C1581 0.950 . S
H1570 C1578 0.950 . S
H1571 C1580 0.950 . S
H1572 C1582 0.950 . S
H1573 C1584 0.950 . S
H1574 C1586 0.950 . S
H1575 C1587 0.950 . S
C1576 H1568 0.950 . S
C1576 C1577 1.386 . S
C1576 C1578 1.391 . S
C1577 C1576 1.386 . S
C1577 C1581 1.393 . S
C1578 H1570 0.950 . S
C1578 C1576 1.391 . S
C1578 C1579 1.400 . S
C1579 C1578 1.400 . S
C1579 C1580 1.398 . S
C1579 C1585 1.491 . S
C1580 H1571 0.950 . S
C1580 C1579 1.398 . S
C1580 C1581 1.391 . S
C1581 H1569 0.950 . S
C1581 C1577 1.393 . S
C1581 C1580 1.391 . S
C1582 H1572 0.950 . S
C1582 C1583 1.386 . S
C1582 C1584 1.391 . S
C1583 C1582 1.386 . S
C1583 C1587 1.393 . S
C1584 H1573 0.950 . S
C1584 C1582 1.391 . S
C1584 C1585 1.400 . S
C1585 C1579 1.491 . S
C1585 C1584 1.400 . S
C1585 C1586 1.398 . S
C1586 H1574 0.950 . S
C1586 C1585 1.398 . S
C1586 C1587 1.391 . S
C1587 H1575 0.950 . S
C1587 C1583 1.393 . S
C1587 C1586 1.391 . S
H1588 C1596 0.950 1_545 S
H1589 C1601 0.950 . S
H1590 C1598 0.950 1_545 S
H1591 C1600 0.950 . S
H1592 C1602 0.950 . S
H1593 C1604 0.950 . S
H1594 C1606 0.950 . S
H1595 C1607 0.950 . S
C1596 H1588 0.950 1_565 S
C1596 C1597 1.386 . S
C1596 C1598 1.391 . S
C1597 C1596 1.386 . S
C1597 C1601 1.393 . S
C1598 H1590 0.950 1_565 S
C1598 C1596 1.391 . S
C1598 C1599 1.400 . S
C1599 C1598 1.400 . S
C1599 C1600 1.398 . S
C1599 C1605 1.491 . S
C1600 H1591 0.950 . S
C1600 C1599 1.398 . S
C1600 C1601 1.391 . S
C1601 H1589 0.950 . S
C1601 C1597 1.393 . S
C1601 C1600 1.391 . S
C1602 H1592 0.950 . S
C1602 C1603 1.386 1_565 S
C1602 C1604 1.391 . S
C1603 C1602 1.386 1_545 S
C1603 C1607 1.393 . S
C1604 H1593 0.950 . S
C1604 C1602 1.391 . S
C1604 C1605 1.400 . S
C1605 C1599 1.491 . S
C1605 C1604 1.400 . S
C1605 C1606 1.398 1_565 S
C1606 H1594 0.950 . S
C1606 C1605 1.398 1_545 S
C1606 C1607 1.391 . S
C1607 H1595 0.950 . S
C1607 C1603 1.393 . S
C1607 C1606 1.391 . S
H1608 C1616 0.950 . S
H1609 C1621 0.950 . S
H1610 C1618 0.950 . S
H1611 C1620 0.950 . S
H1612 C1622 0.950 . S
H1613 C1624 0.950 . S
H1614 C1626 0.950 . S
H1615 C1627 0.950 . S
C1616 H1608 0.950 . S
C1616 C1617 1.386 . S
C1616 C1618 1.391 . S
C1617 C1616 1.386 . S
C1617 C1621 1.393 . S
C1618 H1610 0.950 . S
C1618 C1616 1.391 . S
C1618 C1619 1.400 . S
C1619 C1618 1.400 . S
C1619 C1620 1.398 . S
C1619 C1625 1.491 . S
C1620 H1611 0.950 . S
C1620 C1619 1.398 . S
C1620 C1621 1.391 . S
C1621 H1609 0.950 . S
C1621 C1617 1.393 . S
C1621 C1620 1.391 . S
C1622 H1612 0.950 . S
C1622 C1623 1.386 . S
C1622 C1624 1.391 . S
C1623 C1622 1.386 . S
C1623 C1627 1.393 . S
C1624 H1613 0.950 . S
C1624 C1622 1.391 . S
C1624 C1625 1.400 . S
C1625 C1619 1.491 . S
C1625 C1624 1.400 . S
C1625 C1626 1.398 . S
C1626 H1614 0.950 . S
C1626 C1625 1.398 . S
C1626 C1627 1.391 . S
C1627 H1615 0.950 . S
C1627 C1623 1.393 . S
C1627 C1626 1.391 . S
H1628 C1636 0.950 . S
H1629 C1641 0.950 . S
H1630 C1638 0.950 . S
H1631 C1640 0.950 1_655 S
H1632 C1642 0.950 1_565 S
H1633 C1644 0.950 . S
H1634 C1646 0.950 . S
H1635 C1647 0.950 . S
C1636 H1628 0.950 . S
C1636 C1637 1.386 1_545 S
C1636 C1638 1.391 . S
C1637 C1636 1.386 1_565 S
C1637 C1641 1.393 . S
C1638 H1630 0.950 . S
C1638 C1636 1.391 . S
C1638 C1639 1.400 1_455 S
C1639 C1638 1.400 1_655 S
C1639 C1640 1.398 1_645 S
C1639 C1645 1.491 . S
C1640 H1631 0.950 1_455 S
C1640 C1639 1.398 1_465 S
C1640 C1641 1.391 . S
C1641 H1629 0.950 . S
C1641 C1637 1.393 . S
C1641 C1640 1.391 . S
C1642 H1632 0.950 1_545 S
C1642 C1643 1.386 . S
C1642 C1644 1.391 1_545 S
C1643 C1642 1.386 . S
C1643 C1647 1.393 . S
C1644 H1633 0.950 . S
C1644 C1642 1.391 1_565 S
C1644 C1645 1.400 1_565 S
C1645 C1639 1.491 . S
C1645 C1644 1.400 1_545 S
C1645 C1646 1.398 . S
C1646 H1634 0.950 . S
C1646 C1645 1.398 . S
C1646 C1647 1.391 . S
C1647 H1635 0.950 . S
C1647 C1643 1.393 . S
C1647 C1646 1.391 . S
H1648 C1656 0.950 . S
H1649 C1661 0.950 . S
H1650 C1658 0.950 . S
H1651 C1660 0.950 . S
H1652 C1662 0.950 . S
H1653 C1664 0.950 . S
H1654 C1666 0.950 . S
H1655 C1667 0.950 . S
C1656 H1648 0.950 . S
C1656 C1657 1.386 . S
C1656 C1658 1.391 . S
C1657 C1656 1.386 . S
C1657 C1661 1.393 . S
C1658 H1650 0.950 . S
C1658 C1656 1.391 . S
C1658 C1659 1.400 . S
C1659 C1658 1.400 . S
C1659 C1660 1.398 . S
C1659 C1665 1.491 . S
C1660 H1651 0.950 . S
C1660 C1659 1.398 . S
C1660 C1661 1.391 . S
C1661 H1649 0.950 . S
C1661 C1657 1.393 . S
C1661 C1660 1.391 . S
C1662 H1652 0.950 . S
C1662 C1663 1.386 . S
C1662 C1664 1.391 . S
C1663 C1662 1.386 . S
C1663 C1667 1.393 . S
C1664 H1653 0.950 . S
C1664 C1662 1.391 . S
C1664 C1665 1.400 . S
C1665 C1659 1.491 . S
C1665 C1664 1.400 . S
C1665 C1666 1.398 . S
C1666 H1654 0.950 . S
C1666 C1665 1.398 . S
C1666 C1667 1.391 . S
C1667 H1655 0.950 . S
C1667 C1663 1.393 . S
C1667 C1666 1.391 . S
H1668 C1676 0.950 . S
H1669 C1681 0.950 1_545 S
H1670 C1678 0.950 . S
H1671 C1680 0.950 . S
H1672 C1682 0.950 . S
H1673 C1684 0.950 1_655 S
H1674 C1686 0.950 . S
H1675 C1687 0.950 . S
C1676 H1668 0.950 . S
C1676 C1677 1.386 . S
C1676 C1678 1.391 . S
C1677 C1676 1.386 . S
C1677 C1681 1.393 . S
C1678 H1670 0.950 . S
C1678 C1676 1.391 . S
C1678 C1679 1.400 . S
C1679 C1678 1.400 . S
C1679 C1680 1.398 1_565 S
C1679 C1685 1.491 . S
C1680 H1671 0.950 . S
C1680 C1679 1.398 1_545 S
C1680 C1681 1.391 1_545 S
C1681 H1669 0.950 1_565 S
C1681 C1677 1.393 . S
C1681 C1680 1.391 1_565 S
C1682 H1672 0.950 . S
C1682 C1683 1.386 . S
C1682 C1684 1.391 . S
C1683 C1682 1.386 . S
C1683 C1687 1.393 1_545 S
C1684 H1673 0.950 1_455 S
C1684 C1682 1.391 . S
C1684 C1685 1.400 1_445 S
C1685 C1679 1.491 . S
C1685 C1684 1.400 1_665 S
C1685 C1686 1.398 1_655 S
C1686 H1674 0.950 . S
C1686 C1685 1.398 1_455 S
C1686 C1687 1.391 . S
C1687 H1675 0.950 . S
C1687 C1683 1.393 1_565 S
C1687 C1686 1.391 . S
H1688 C1696 0.950 . S
H1689 C1701 0.950 . S
H1690 C1698 0.950 . S
H1691 C1700 0.950 . S
H1692 C1702 0.950 . S
H1693 C1704 0.950 . S
H1694 C1706 0.950 . S
H1695 C1707 0.950 . S
C1696 H1688 0.950 . S
C1696 C1697 1.386 . S
C1696 C1698 1.391 . S
C1697 C1696 1.386 . S
C1697 C1701 1.393 . S
C1698 H1690 0.950 . S
C1698 C1696 1.391 . S
C1698 C1699 1.400 . S
C1699 C1698 1.400 . S
C1699 C1700 1.398 . S
C1699 C1705 1.491 . S
C1700 H1691 0.950 . S
C1700 C1699 1.398 . S
C1700 C1701 1.391 . S
C1701 H1689 0.950 . S
C1701 C1697 1.393 . S
C1701 C1700 1.391 . S
C1702 H1692 0.950 . S
C1702 C1703 1.386 . S
C1702 C1704 1.391 . S
C1703 C1702 1.386 . S
C1703 C1707 1.393 . S
C1704 H1693 0.950 . S
C1704 C1702 1.391 . S
C1704 C1705 1.400 . S
C1705 C1699 1.491 . S
C1705 C1704 1.400 . S
C1705 C1706 1.398 . S
C1706 H1694 0.950 . S
C1706 C1705 1.398 . S
C1706 C1707 1.391 . S
C1707 H1695 0.950 . S
C1707 C1703 1.393 . S
C1707 C1706 1.391 . S
H1708 C1716 0.950 . S
H1709 C1721 0.950 . S
H1710 C1718 0.950 . S
H1711 C1720 0.950 . S
H1712 C1722 0.950 . S
H1713 C1724 0.950 . S
H1714 C1726 0.950 . S
H1715 C1727 0.950 1_565 S
C1716 H1708 0.950 . S
C1716 C1717 1.386 . S
C1716 C1718 1.391 . S
C1717 C1716 1.386 . S
C1717 C1721 1.393 1_565 S
C1718 H1710 0.950 . S
C1718 C1716 1.391 . S
C1718 C1719 1.400 1_565 S
C1719 C1718 1.400 1_545 S
C1719 C1720 1.398 . S
C1719 C1725 1.491 . S
C1720 H1711 0.950 . S
C1720 C1719 1.398 . S
C1720 C1721 1.391 . S
C1721 H1709 0.950 . S
C1721 C1717 1.393 1_545 S
C1721 C1720 1.391 . S
C1722 H1712 0.950 . S
C1722 C1723 1.386 . S
C1722 C1724 1.391 . S
C1723 C1722 1.386 . S
C1723 C1727 1.393 . S
C1724 H1713 0.950 . S
C1724 C1722 1.391 . S
C1724 C1725 1.400 . S
C1725 C1719 1.491 . S
C1725 C1724 1.400 . S
C1725 C1726 1.398 1_545 S
C1726 H1714 0.950 . S
C1726 C1725 1.398 1_565 S
C1726 C1727 1.391 1_565 S
C1727 H1715 0.950 1_545 S
C1727 C1723 1.393 . S
C1727 C1726 1.391 1_545 S
H1728 C1736 0.950 . S
H1729 C1741 0.950 . S
H1730 C1738 0.950 . S
H1731 C1740 0.950 . S
H1732 C1742 0.950 . S
H1733 C1744 0.950 . S
H1734 C1746 0.950 . S
H1735 C1747 0.950 . S
C1736 H1728 0.950 . S
C1736 C1737 1.386 . S
C1736 C1738 1.391 . S
C1737 C1736 1.386 . S
C1737 C1741 1.393 . S
C1738 H1730 0.950 . S
C1738 C1736 1.391 . S
C1738 C1739 1.400 . S
C1739 C1738 1.400 . S
C1739 C1740 1.398 . S
C1739 C1745 1.491 . S
C1740 H1731 0.950 . S
C1740 C1739 1.398 . S
C1740 C1741 1.391 . S
C1741 H1729 0.950 . S
C1741 C1737 1.393 . S
C1741 C1740 1.391 . S
C1742 H1732 0.950 . S
C1742 C1743 1.386 . S
C1742 C1744 1.391 . S
C1743 C1742 1.386 . S
C1743 C1747 1.393 . S
C1744 H1733 0.950 . S
C1744 C1742 1.391 . S
C1744 C1745 1.400 . S
C1745 C1739 1.491 . S
C1745 C1744 1.400 . S
C1745 C1746 1.398 . S
C1746 H1734 0.950 . S
C1746 C1745 1.398 . S
C1746 C1747 1.391 . S
C1747 H1735 0.950 . S
C1747 C1743 1.393 . S
C1747 C1746 1.391 . S
H1748 C1756 0.950 . S
H1749 C1761 0.950 . S
H1750 C1758 0.950 1_655 S
H1751 C1760 0.950 . S
H1752 C1762 0.950 . S
H1753 C1764 0.950 . S
H1754 C1766 0.950 . S
H1755 C1767 0.950 . S
C1756 H1748 0.950 . S
C1756 C1757 1.386 . S
C1756 C1758 1.391 . S
C1757 C1756 1.386 . S
C1757 C1761 1.393 . S
C1758 H1750 0.950 1_455 S
C1758 C1756 1.391 . S
C1758 C1759 1.400 1_455 S
C1759 C1758 1.400 1_655 S
C1759 C1760 1.398 1_655 S
C1759 C1765 1.491 . S
C1760 H1751 0.950 . S
C1760 C1759 1.398 1_455 S
C1760 C1761 1.391 . S
C1761 H1749 0.950 . S
C1761 C1757 1.393 . S
C1761 C1760 1.391 . S
C1762 H1752 0.950 . S
C1762 C1763 1.386 . S
C1762 C1764 1.391 . S
C1763 C1762 1.386 . S
C1763 C1767 1.393 . S
C1764 H1753 0.950 . S
C1764 C1762 1.391 . S
C1764 C1765 1.400 . S
C1765 C1759 1.491 . S
C1765 C1764 1.400 . S
C1765 C1766 1.398 . S
C1766 H1754 0.950 . S
C1766 C1765 1.398 . S
C1766 C1767 1.391 . S
C1767 H1755 0.950 . S
C1767 C1763 1.393 . S
C1767 C1766 1.391 . S
H1768 C1776 0.950 . S
H1769 C1781 0.950 . S
H1770 C1778 0.950 . S
H1771 C1780 0.950 . S
H1772 C1782 0.950 . S
H1773 C1784 0.950 . S
H1774 C1786 0.950 . S
H1775 C1787 0.950 . S
C1776 H1768 0.950 . S
C1776 C1777 1.386 . S
C1776 C1778 1.391 . S
C1777 C1776 1.386 . S
C1777 C1781 1.393 . S
C1778 H1770 0.950 . S
C1778 C1776 1.391 . S
C1778 C1779 1.400 . S
C1779 C1778 1.400 . S
C1779 C1780 1.398 . S
C1779 C1785 1.491 . S
C1780 H1771 0.950 . S
C1780 C1779 1.398 . S
C1780 C1781 1.391 . S
C1781 H1769 0.950 . S
C1781 C1777 1.393 . S
C1781 C1780 1.391 . S
C1782 H1772 0.950 . S
C1782 C1783 1.386 . S
C1782 C1784 1.391 . S
C1783 C1782 1.386 . S
C1783 C1787 1.393 . S
C1784 H1773 0.950 . S
C1784 C1782 1.391 . S
C1784 C1785 1.400 . S
C1785 C1779 1.491 . S
C1785 C1784 1.400 . S
C1785 C1786 1.398 . S
C1786 H1774 0.950 . S
C1786 C1785 1.398 . S
C1786 C1787 1.391 . S
C1787 H1775 0.950 . S
C1787 C1783 1.393 . S
C1787 C1786 1.391 . S
H1788 C1796 0.950 . S
H1789 C1801 0.950 . S
H1790 C1798 0.950 . S
H1791 C1800 0.950 . S
H1792 C1802 0.950 . S
H1793 C1804 0.950 . S
H1794 C1806 0.950 . S
H1795 C1807 0.950 . S
C1796 H1788 0.950 . S
C1796 C1797 1.386 . S
C1796 C1798 1.391 . S
C1797 C1796 1.386 . S
C1797 C1801 1.393 . S
C1798 H1790 0.950 . S
C1798 C1796 1.391 . S
C1798 C1799 1.400 . S
C1799 C1798 1.400 . S
C1799 C1800 1.398 . S
C1799 C1805 1.491 . S
C1800 H1791 0.950 . S
C1800 C1799 1.398 . S
C1800 C1801 1.391 . S
C1801 H1789 0.950 . S
C1801 C1797 1.393 . S
C1801 C1800 1.391 . S
C1802 H1792 0.950 . S
C1802 C1803 1.386 . S
C1802 C1804 1.391 . S
C1803 C1802 1.386 . S
C1803 C1807 1.393 . S
C1804 H1793 0.950 . S
C1804 C1802 1.391 . S
C1804 C1805 1.400 . S
C1805 C1799 1.491 . S
C1805 C1804 1.400 . S
C1805 C1806 1.398 . S
C1806 H1794 0.950 . S
C1806 C1805 1.398 . S
C1806 C1807 1.391 . S
C1807 H1795 0.950 . S
C1807 C1803 1.393 . S
C1807 C1806 1.391 . S
H1808 C1816 0.950 . S
H1809 C1821 0.950 . S
H1810 C1818 0.950 . S
H1811 C1820 0.950 . S
H1812 C1822 0.950 . S
H1813 C1824 0.950 . S
H1814 C1826 0.950 . S
H1815 C1827 0.950 . S
C1816 H1808 0.950 . S
C1816 C1817 1.386 . S
C1816 C1818 1.391 . S
C1817 C1816 1.386 . S
C1817 C1821 1.393 . S
C1818 H1810 0.950 . S
C1818 C1816 1.391 . S
C1818 C1819 1.400 . S
C1819 C1818 1.400 . S
C1819 C1820 1.398 . S
C1819 C1825 1.491 . S
C1820 H1811 0.950 . S
C1820 C1819 1.398 . S
C1820 C1821 1.391 . S
C1821 H1809 0.950 . S
C1821 C1817 1.393 . S
C1821 C1820 1.391 . S
C1822 H1812 0.950 . S
C1822 C1823 1.386 . S
C1822 C1824 1.391 . S
C1823 C1822 1.386 . S
C1823 C1827 1.393 . S
C1824 H1813 0.950 . S
C1824 C1822 1.391 . S
C1824 C1825 1.400 . S
C1825 C1819 1.491 . S
C1825 C1824 1.400 . S
C1825 C1826 1.398 . S
C1826 H1814 0.950 . S
C1826 C1825 1.398 . S
C1826 C1827 1.391 . S
C1827 H1815 0.950 . S
C1827 C1823 1.393 . S
C1827 C1826 1.391 . S
H1828 C1836 0.950 . S
H1829 C1841 0.950 . S
H1830 C1838 0.950 . S
H1831 C1840 0.950 . S
H1832 C1842 0.950 . S
H1833 C1844 0.950 . S
H1834 C1846 0.950 . S
H1835 C1847 0.950 . S
C1836 H1828 0.950 . S
C1836 C1837 1.386 . S
C1836 C1838 1.391 . S
C1837 C1836 1.386 . S
C1837 C1841 1.393 . S
C1838 H1830 0.950 . S
C1838 C1836 1.391 . S
C1838 C1839 1.400 . S
C1839 C1838 1.400 . S
C1839 C1840 1.398 . S
C1839 C1845 1.491 . S
C1840 H1831 0.950 . S
C1840 C1839 1.398 . S
C1840 C1841 1.391 . S
C1841 H1829 0.950 . S
C1841 C1837 1.393 . S
C1841 C1840 1.391 . S
C1842 H1832 0.950 . S
C1842 C1843 1.386 . S
C1842 C1844 1.391 . S
C1843 C1842 1.386 . S
C1843 C1847 1.393 . S
C1844 H1833 0.950 . S
C1844 C1842 1.391 . S
C1844 C1845 1.400 . S
C1845 C1839 1.491 . S
C1845 C1844 1.400 . S
C1845 C1846 1.398 . S
C1846 H1834 0.950 . S
C1846 C1845 1.398 . S
C1846 C1847 1.391 . S
C1847 H1835 0.950 . S
C1847 C1843 1.393 . S
C1847 C1846 1.391 . S
H1848 C1856 0.950 . S
H1849 C1861 0.950 . S
H1850 C1858 0.950 . S
H1851 C1860 0.950 . S
H1852 C1862 0.950 . S
H1853 C1864 0.950 . S
H1854 C1866 0.950 . S
H1855 C1867 0.950 . S
C1856 H1848 0.950 . S
C1856 C1857 1.386 . S
C1856 C1858 1.391 . S
C1857 C1856 1.386 . S
C1857 C1861 1.393 . S
C1858 H1850 0.950 . S
C1858 C1856 1.391 . S
C1858 C1859 1.400 . S
C1859 C1858 1.400 . S
C1859 C1860 1.398 . S
C1859 C1865 1.491 . S
C1860 H1851 0.950 . S
C1860 C1859 1.398 . S
C1860 C1861 1.391 . S
C1861 H1849 0.950 . S
C1861 C1857 1.393 . S
C1861 C1860 1.391 . S
C1862 H1852 0.950 . S
C1862 C1863 1.386 . S
C1862 C1864 1.391 . S
C1863 C1862 1.386 . S
C1863 C1867 1.393 . S
C1864 H1853 0.950 . S
C1864 C1862 1.391 . S
C1864 C1865 1.400 . S
C1865 C1859 1.491 . S
C1865 C1864 1.400 . S
C1865 C1866 1.398 . S
C1866 H1854 0.950 . S
C1866 C1865 1.398 . S
C1866 C1867 1.391 . S
C1867 H1855 0.950 . S
C1867 C1863 1.393 . S
C1867 C1866 1.391 . S
H1868 C1876 0.950 . S
H1869 C1881 0.950 . S
H1870 C1878 0.950 . S
H1871 C1880 0.950 . S
H1872 C1882 0.950 . S
H1873 C1884 0.950 1_655 S
H1874 C1886 0.950 . S
H1875 C1887 0.950 . S
C1876 H1868 0.950 . S
C1876 C1877 1.386 . S
C1876 C1878 1.391 . S
C1877 C1876 1.386 . S
C1877 C1881 1.393 . S
C1878 H1870 0.950 . S
C1878 C1876 1.391 . S
C1878 C1879 1.400 . S
C1879 C1878 1.400 . S
C1879 C1880 1.398 . S
C1879 C1885 1.491 . S
C1880 H1871 0.950 . S
C1880 C1879 1.398 . S
C1880 C1881 1.391 . S
C1881 H1869 0.950 . S
C1881 C1877 1.393 . S
C1881 C1880 1.391 . S
C1882 H1872 0.950 . S
C1882 C1883 1.386 . S
C1882 C1884 1.391 . S
C1883 C1882 1.386 . S
C1883 C1887 1.393 . S
C1884 H1873 0.950 1_455 S
C1884 C1882 1.391 . S
C1884 C1885 1.400 1_455 S
C1885 C1879 1.491 . S
C1885 C1884 1.400 1_655 S
C1885 C1886 1.398 1_655 S
C1886 H1874 0.950 . S
C1886 C1885 1.398 1_455 S
C1886 C1887 1.391 . S
C1887 H1875 0.950 . S
C1887 C1883 1.393 . S
C1887 C1886 1.391 . S
H1888 C1896 0.950 . S
H1889 C1901 0.950 . S
H1890 C1898 0.950 . S
H1891 C1900 0.950 . S
H1892 C1902 0.950 . S
H1893 C1904 0.950 . S
H1894 C1906 0.950 . S
H1895 C1907 0.950 . S
C1896 H1888 0.950 . S
C1896 C1897 1.386 . S
C1896 C1898 1.391 . S
C1897 C1896 1.386 . S
C1897 C1901 1.393 . S
C1898 H1890 0.950 . S
C1898 C1896 1.391 . S
C1898 C1899 1.400 . S
C1899 C1898 1.400 . S
C1899 C1900 1.398 . S
C1899 C1905 1.491 . S
C1900 H1891 0.950 . S
C1900 C1899 1.398 . S
C1900 C1901 1.391 . S
C1901 H1889 0.950 . S
C1901 C1897 1.393 . S
C1901 C1900 1.391 . S
C1902 H1892 0.950 . S
C1902 C1903 1.386 . S
C1902 C1904 1.391 . S
C1903 C1902 1.386 . S
C1903 C1907 1.393 . S
C1904 H1893 0.950 . S
C1904 C1902 1.391 . S
C1904 C1905 1.400 . S
C1905 C1899 1.491 . S
C1905 C1904 1.400 . S
C1905 C1906 1.398 . S
C1906 H1894 0.950 . S
C1906 C1905 1.398 . S
C1906 C1907 1.391 . S
C1907 H1895 0.950 . S
C1907 C1903 1.393 . S
C1907 C1906 1.391 . S
H1908 C1916 0.950 . S
H1909 C1921 0.950 . S
H1910 C1918 0.950 . S
H1911 C1920 0.950 1_455 S
H1912 C1922 0.950 . S
H1913 C1924 0.950 . S
H1914 C1926 0.950 . S
H1915 C1927 0.950 . S
C1916 H1908 0.950 . S
C1916 C1917 1.386 . S
C1916 C1918 1.391 . S
C1917 C1916 1.386 . S
C1917 C1921 1.393 . S
C1918 H1910 0.950 . S
C1918 C1916 1.391 . S
C1918 C1919 1.400 1_655 S
C1919 C1918 1.400 1_455 S
C1919 C1920 1.398 1_455 S
C1919 C1925 1.491 . S
C1920 H1911 0.950 1_655 S
C1920 C1919 1.398 1_655 S
C1920 C1921 1.391 . S
C1921 H1909 0.950 . S
C1921 C1917 1.393 . S
C1921 C1920 1.391 . S
C1922 H1912 0.950 . S
C1922 C1923 1.386 . S
C1922 C1924 1.391 . S
C1923 C1922 1.386 . S
C1923 C1927 1.393 . S
C1924 H1913 0.950 . S
C1924 C1922 1.391 . S
C1924 C1925 1.400 . S
C1925 C1919 1.491 . S
C1925 C1924 1.400 . S
C1925 C1926 1.398 . S
C1926 H1914 0.950 . S
C1926 C1925 1.398 . S
C1926 C1927 1.391 . S
C1927 H1915 0.950 . S
C1927 C1923 1.393 . S
C1927 C1926 1.391 . S
H1928 C1936 0.950 . S
H1929 C1941 0.950 . S
H1930 C1938 0.950 . S
H1931 C1940 0.950 . S
H1932 C1942 0.950 . S
H1933 C1944 0.950 . S
H1934 C1946 0.950 . S
H1935 C1947 0.950 . S
C1936 H1928 0.950 . S
C1936 C1937 1.386 . S
C1936 C1938 1.391 . S
C1937 C1936 1.386 . S
C1937 C1941 1.393 . S
C1938 H1930 0.950 . S
C1938 C1936 1.391 . S
C1938 C1939 1.400 . S
C1939 C1938 1.400 . S
C1939 C1940 1.398 . S
C1939 C1945 1.491 . S
C1940 H1931 0.950 . S
C1940 C1939 1.398 . S
C1940 C1941 1.391 . S
C1941 H1929 0.950 . S
C1941 C1937 1.393 . S
C1941 C1940 1.391 . S
C1942 H1932 0.950 . S
C1942 C1943 1.386 . S
C1942 C1944 1.391 . S
C1943 C1942 1.386 . S
C1943 C1947 1.393 . S
C1944 H1933 0.950 . S
C1944 C1942 1.391 . S
C1944 C1945 1.400 . S
C1945 C1939 1.491 . S
C1945 C1944 1.400 . S
C1945 C1946 1.398 . S
C1946 H1934 0.950 . S
C1946 C1945 1.398 . S
C1946 C1947 1.391 . S
C1947 H1935 0.950 . S
C1947 C1943 1.393 . S
C1947 C1946 1.391 . S
H1948 C1956 0.950 . S
H1949 C1961 0.950 . S
H1950 C1958 0.950 . S
H1951 C1960 0.950 . S
H1952 C1962 0.950 . S
H1953 C1964 0.950 . S
H1954 C1966 0.950 . S
H1955 C1967 0.950 . S
C1956 H1948 0.950 . S
C1956 C1957 1.386 . S
C1956 C1958 1.391 . S
C1957 C1956 1.386 . S
C1957 C1961 1.393 . S
C1958 H1950 0.950 . S
C1958 C1956 1.391 . S
C1958 C1959 1.400 . S
C1959 C1958 1.400 . S
C1959 C1960 1.398 . S
C1959 C1965 1.491 . S
C1960 H1951 0.950 . S
C1960 C1959 1.398 . S
C1960 C1961 1.391 . S
C1961 H1949 0.950 . S
C1961 C1957 1.393 . S
C1961 C1960 1.391 . S
C1962 H1952 0.950 . S
C1962 C1963 1.386 . S
C1962 C1964 1.391 . S
C1963 C1962 1.386 . S
C1963 C1967 1.393 . S
C1964 H1953 0.950 . S
C1964 C1962 1.391 . S
C1964 C1965 1.400 . S
C1965 C1959 1.491 . S
C1965 C1964 1.400 . S
C1965 C1966 1.398 . S
C1966 H1954 0.950 . S
C1966 C1965 1.398 . S
C1966 C1967 1.391 . S
C1967 H1955 0.950 . S
C1967 C1963 1.393 . S
C1967 C1966 1.391 . S
H1968 C1976 0.950 . S
H1969 C1981 0.950 . S
H1970 C1978 0.950 . S
H1971 C1980 0.950 . S
H1972 C1982 0.950 . S
H1973 C1984 0.950 . S
H1974 C1986 0.950 . S
H1975 C1987 0.950 . S
C1976 H1968 0.950 . S
C1976 C1977 1.386 . S
C1976 C1978 1.391 . S
C1977 C1976 1.386 . S
C1977 C1981 1.393 . S
C1978 H1970 0.950 . S
C1978 C1976 1.391 . S
C1978 C1979 1.400 . S
C1979 C1978 1.400 . S
C1979 C1980 1.398 . S
C1979 C1985 1.491 . S
C1980 H1971 0.950 . S
C1980 C1979 1.398 . S
C1980 C1981 1.391 . S
C1981 H1969 0.950 . S
C1981 C1977 1.393 . S
C1981 C1980 1.391 . S
C1982 H1972 0.950 . S
C1982 C1983 1.386 . S
C1982 C1984 1.391 . S
C1983 C1982 1.386 . S
C1983 C1987 1.393 . S
C1984 H1973 0.950 . S
C1984 C1982 1.391 . S
C1984 C1985 1.400 . S
C1985 C1979 1.491 . S
C1985 C1984 1.400 . S
C1985 C1986 1.398 . S
C1986 H1974 0.950 . S
C1986 C1985 1.398 . S
C1986 C1987 1.391 . S
C1987 H1975 0.950 . S
C1987 C1983 1.393 . S
C1987 C1986 1.391 . S
H1988 C1996 0.950 . S
H1989 C2001 0.950 . S
H1990 C1998 0.950 . S
H1991 C2000 0.950 . S
H1992 C2002 0.950 . S
H1993 C2004 0.950 . S
H1994 C2006 0.950 . S
H1995 C2007 0.950 . S
C1996 H1988 0.950 . S
C1996 C1997 1.386 . S
C1996 C1998 1.391 . S
C1997 C1996 1.386 . S
C1997 C2001 1.393 . S
C1998 H1990 0.950 . S
C1998 C1996 1.391 . S
C1998 C1999 1.400 . S
C1999 C1998 1.400 . S
C1999 C2000 1.398 . S
C1999 C2005 1.491 . S
C2000 H1991 0.950 . S
C2000 C1999 1.398 . S
C2000 C2001 1.391 . S
C2001 H1989 0.950 . S
C2001 C1997 1.393 . S
C2001 C2000 1.391 . S
C2002 H1992 0.950 . S
C2002 C2003 1.386 . S
C2002 C2004 1.391 . S
C2003 C2002 1.386 . S
C2003 C2007 1.393 . S
C2004 H1993 0.950 . S
C2004 C2002 1.391 . S
C2004 C2005 1.400 . S
C2005 C1999 1.491 . S
C2005 C2004 1.400 . S
C2005 C2006 1.398 . S
C2006 H1994 0.950 . S
C2006 C2005 1.398 . S
C2006 C2007 1.391 . S
C2007 H1995 0.950 . S
C2007 C2003 1.393 . S
C2007 C2006 1.391 . S
H2008 C2016 0.950 . S
H2009 C2021 0.950 . S
H2010 C2018 0.950 . S
H2011 C2020 0.950 . S
H2012 C2022 0.950 . S
H2013 C2024 0.950 . S
H2014 C2026 0.950 . S
H2015 C2027 0.950 . S
C2016 H2008 0.950 . S
C2016 C2017 1.386 . S
C2016 C2018 1.391 . S
C2017 C2016 1.386 . S
C2017 C2021 1.393 . S
C2018 H2010 0.950 . S
C2018 C2016 1.391 . S
C2018 C2019 1.400 . S
C2019 C2018 1.400 . S
C2019 C2020 1.398 . S
C2019 C2025 1.491 . S
C2020 H2011 0.950 . S
C2020 C2019 1.398 . S
C2020 C2021 1.391 . S
C2021 H2009 0.950 . S
C2021 C2017 1.393 . S
C2021 C2020 1.391 . S
C2022 H2012 0.950 . S
C2022 C2023 1.386 . S
C2022 C2024 1.391 . S
C2023 C2022 1.386 . S
C2023 C2027 1.393 . S
C2024 H2013 0.950 . S
C2024 C2022 1.391 . S
C2024 C2025 1.400 . S
C2025 C2019 1.491 . S
C2025 C2024 1.400 . S
C2025 C2026 1.398 . S
C2026 H2014 0.950 . S
C2026 C2025 1.398 . S
C2026 C2027 1.391 . S
C2027 H2015 0.950 . S
C2027 C2023 1.393 . S
C2027 C2026 1.391 . S
H2028 C2036 0.950 . S
H2029 C2041 0.950 . S
H2030 C2038 0.950 1_455 S
H2031 C2040 0.950 . S
H2032 C2042 0.950 . S
H2033 C2044 0.950 . S
H2034 C2046 0.950 . S
H2035 C2047 0.950 . S
C2036 H2028 0.950 . S
C2036 C2037 1.386 . S
C2036 C2038 1.391 . S
C2037 C2036 1.386 . S
C2037 C2041 1.393 . S
C2038 H2030 0.950 1_655 S
C2038 C2036 1.391 . S
C2038 C2039 1.400 1_655 S
C2039 C2038 1.400 1_455 S
C2039 C2040 1.398 1_455 S
C2039 C2045 1.491 . S
C2040 H2031 0.950 . S
C2040 C2039 1.398 1_655 S
C2040 C2041 1.391 . S
C2041 H2029 0.950 . S
C2041 C2037 1.393 . S
C2041 C2040 1.391 . S
C2042 H2032 0.950 . S
C2042 C2043 1.386 . S
C2042 C2044 1.391 . S
C2043 C2042 1.386 . S
C2043 C2047 1.393 . S
C2044 H2033 0.950 . S
C2044 C2042 1.391 . S
C2044 C2045 1.400 . S
C2045 C2039 1.491 . S
C2045 C2044 1.400 . S
C2045 C2046 1.398 . S
C2046 H2034 0.950 . S
C2046 C2045 1.398 . S
C2046 C2047 1.391 . S
C2047 H2035 0.950 . S
C2047 C2043 1.393 . S
C2047 C2046 1.391 . S
H2048 C2056 0.950 . S
H2049 C2061 0.950 . S
H2050 C2058 0.950 . S
H2051 C2060 0.950 1_545 S
H2052 C2062 0.950 . S
H2053 C2064 0.950 . S
H2054 C2066 0.950 1_565 S
H2055 C2067 0.950 . S
C2056 H2048 0.950 . S
C2056 C2057 1.386 . S
C2056 C2058 1.391 . S
C2057 C2056 1.386 . S
C2057 C2061 1.393 . S
C2058 H2050 0.950 . S
C2058 C2056 1.391 . S
C2058 C2059 1.400 . S
C2059 C2058 1.400 . S
C2059 C2060 1.398 . S
C2059 C2065 1.491 1_565 S
C2060 H2051 0.950 1_565 S
C2060 C2059 1.398 . S
C2060 C2061 1.391 . S
C2061 H2049 0.950 . S
C2061 C2057 1.393 . S
C2061 C2060 1.391 . S
C2062 H2052 0.950 . S
C2062 C2063 1.386 . S
C2062 C2064 1.391 . S
C2063 C2062 1.386 . S
C2063 C2067 1.393 . S
C2064 H2053 0.950 . S
C2064 C2062 1.391 . S
C2064 C2065 1.400 . S
C2065 C2059 1.491 1_545 S
C2065 C2064 1.400 . S
C2065 C2066 1.398 . S
C2066 H2054 0.950 1_545 S
C2066 C2065 1.398 . S
C2066 C2067 1.391 . S
C2067 H2055 0.950 . S
C2067 C2063 1.393 . S
C2067 C2066 1.391 . S
H2068 C2076 0.950 1_565 S
H2069 C2081 0.950 . S
H2070 C2078 0.950 1_565 S
H2071 C2080 0.950 . S
H2072 C2082 0.950 . S
H2073 C2084 0.950 . S
H2074 C2086 0.950 1_565 S
H2075 C2087 0.950 1_565 S
C2076 H2068 0.950 1_545 S
C2076 C2077 1.386 . S
C2076 C2078 1.391 . S
C2077 C2076 1.386 . S
C2077 C2081 1.393 . S
C2078 H2070 0.950 1_545 S
C2078 C2076 1.391 . S
C2078 C2079 1.400 . S
C2079 C2078 1.400 . S
C2079 C2080 1.398 . S
C2079 C2085 1.491 . S
C2080 H2071 0.950 . S
C2080 C2079 1.398 . S
C2080 C2081 1.391 . S
C2081 H2069 0.950 . S
C2081 C2077 1.393 . S
C2081 C2080 1.391 . S
C2082 H2072 0.950 . S
C2082 C2083 1.386 . S
C2082 C2084 1.391 . S
C2083 C2082 1.386 . S
C2083 C2087 1.393 . S
C2084 H2073 0.950 . S
C2084 C2082 1.391 . S
C2084 C2085 1.400 . S
C2085 C2079 1.491 . S
C2085 C2084 1.400 . S
C2085 C2086 1.398 . S
C2086 H2074 0.950 1_545 S
C2086 C2085 1.398 . S
C2086 C2087 1.391 . S
C2087 H2075 0.950 1_545 S
C2087 C2083 1.393 . S
C2087 C2086 1.391 . S
H2088 C2096 0.950 . S
H2089 C2101 0.950 . S
H2090 C2098 0.950 . S
H2091 C2100 0.950 . S
H2092 C2102 0.950 . S
H2093 C2104 0.950 . S
H2094 C2106 0.950 . S
H2095 C2107 0.950 . S
C2096 H2088 0.950 . S
C2096 C2097 1.386 . S
C2096 C2098 1.391 . S
C2097 C2096 1.386 . S
C2097 C2101 1.393 . S
C2098 H2090 0.950 . S
C2098 C2096 1.391 . S
C2098 C2099 1.400 . S
C2099 C2098 1.400 . S
C2099 C2100 1.398 . S
C2099 C2105 1.491 1_565 S
C2100 H2091 0.950 . S
C2100 C2099 1.398 . S
C2100 C2101 1.391 . S
C2101 H2089 0.950 . S
C2101 C2097 1.393 . S
C2101 C2100 1.391 . S
C2102 H2092 0.950 . S
C2102 C2103 1.386 . S
C2102 C2104 1.391 . S
C2103 C2102 1.386 . S
C2103 C2107 1.393 . S
C2104 H2093 0.950 . S
C2104 C2102 1.391 . S
C2104 C2105 1.400 . S
C2105 C2099 1.491 1_545 S
C2105 C2104 1.400 . S
C2105 C2106 1.398 . S
C2106 H2094 0.950 . S
C2106 C2105 1.398 . S
C2106 C2107 1.391 . S
C2107 H2095 0.950 . S
C2107 C2103 1.393 . S
C2107 C2106 1.391 . S
H2108 C2116 0.950 1_545 S
H2109 C2121 0.950 . S
H2110 C2118 0.950 1_545 S
H2111 C2120 0.950 . S
H2112 C2122 0.950 . S
H2113 C2124 0.950 . S
H2114 C2126 0.950 1_545 S
H2115 C2127 0.950 1_545 S
C2116 H2108 0.950 1_565 S
C2116 C2117 1.386 . S
C2116 C2118 1.391 . S
C2117 C2116 1.386 . S
C2117 C2121 1.393 . S
C2118 H2110 0.950 1_565 S
C2118 C2116 1.391 . S
C2118 C2119 1.400 . S
C2119 C2118 1.400 . S
C2119 C2120 1.398 . S
C2119 C2125 1.491 1_554 S
C2120 H2111 0.950 . S
C2120 C2119 1.398 . S
C2120 C2121 1.391 . S
C2121 H2109 0.950 . S
C2121 C2117 1.393 . S
C2121 C2120 1.391 . S
C2122 H2112 0.950 . S
C2122 C2123 1.386 . S
C2122 C2124 1.391 . S
C2123 C2122 1.386 . S
C2123 C2127 1.393 . S
C2124 H2113 0.950 . S
C2124 C2122 1.391 . S
C2124 C2125 1.400 . S
C2125 C2119 1.491 1_556 S
C2125 C2124 1.400 . S
C2125 C2126 1.398 . S
C2126 H2114 0.950 1_565 S
C2126 C2125 1.398 . S
C2126 C2127 1.391 . S
C2127 H2115 0.950 1_565 S
C2127 C2123 1.393 . S
C2127 C2126 1.391 . S
H2128 C2136 0.950 1_565 S
H2129 C2141 0.950 . S
H2130 C2138 0.950 . S
H2131 C2140 0.950 . S
H2132 C2142 0.950 1_545 S
H2133 C2144 0.950 . S
H2134 C2146 0.950 . S
H2135 C2147 0.950 . S
C2136 H2128 0.950 1_545 S
C2136 C2137 1.386 . S
C2136 C2138 1.391 1_545 S
C2137 C2136 1.386 . S
C2137 C2141 1.393 . S
C2138 H2130 0.950 . S
C2138 C2136 1.391 1_565 S
C2138 C2139 1.400 1_565 S
C2139 C2138 1.400 1_545 S
C2139 C2140 1.398 . S
C2139 C2145 1.491 1_545 S
C2140 H2131 0.950 . S
C2140 C2139 1.398 . S
C2140 C2141 1.391 . S
C2141 H2129 0.950 . S
C2141 C2137 1.393 . S
C2141 C2140 1.391 . S
C2142 H2132 0.950 1_565 S
C2142 C2143 1.386 . S
C2142 C2144 1.391 1_565 S
C2143 C2142 1.386 . S
C2143 C2147 1.393 . S
C2144 H2133 0.950 . S
C2144 C2142 1.391 1_545 S
C2144 C2145 1.400 1_545 S
C2145 C2139 1.491 1_565 S
C2145 C2144 1.400 1_565 S
C2145 C2146 1.398 . S
C2146 H2134 0.950 . S
C2146 C2145 1.398 . S
C2146 C2147 1.391 . S
C2147 H2135 0.950 . S
C2147 C2143 1.393 . S
C2147 C2146 1.391 . S
H2148 C2156 0.950 . S
H2149 C2161 0.950 . S
H2150 C2158 0.950 . S
H2151 C2160 0.950 . S
H2152 C2162 0.950 . S
H2153 C2164 0.950 . S
H2154 C2166 0.950 . S
H2155 C2167 0.950 . S
C2156 H2148 0.950 . S
C2156 C2157 1.386 . S
C2156 C2158 1.391 . S
C2157 C2156 1.386 . S
C2157 C2161 1.393 . S
C2158 H2150 0.950 . S
C2158 C2156 1.391 . S
C2158 C2159 1.400 . S
C2159 C2158 1.400 . S
C2159 C2160 1.398 . S
C2159 C2165 1.491 . S
C2160 H2151 0.950 . S
C2160 C2159 1.398 . S
C2160 C2161 1.391 . S
C2161 H2149 0.950 . S
C2161 C2157 1.393 . S
C2161 C2160 1.391 . S
C2162 H2152 0.950 . S
C2162 C2163 1.386 . S
C2162 C2164 1.391 . S
C2163 C2162 1.386 . S
C2163 C2167 1.393 . S
C2164 H2153 0.950 . S
C2164 C2162 1.391 . S
C2164 C2165 1.400 . S
C2165 C2159 1.491 . S
C2165 C2164 1.400 . S
C2165 C2166 1.398 . S
C2166 H2154 0.950 . S
C2166 C2165 1.398 . S
C2166 C2167 1.391 . S
C2167 H2155 0.950 . S
C2167 C2163 1.393 . S
C2167 C2166 1.391 . S
H2168 C2176 0.950 . S
H2169 C2181 0.950 1_565 S
H2170 C2178 0.950 . S
H2171 C2180 0.950 . S
H2172 C2182 0.950 . S
H2173 C2184 0.950 . S
H2174 C2186 0.950 . S
H2175 C2187 0.950 1_545 S
C2176 H2168 0.950 . S
C2176 C2177 1.386 . S
C2176 C2178 1.391 . S
C2177 C2176 1.386 . S
C2177 C2181 1.393 . S
C2178 H2170 0.950 . S
C2178 C2176 1.391 . S
C2178 C2179 1.400 . S
C2179 C2178 1.400 . S
C2179 C2180 1.398 1_545 S
C2179 C2185 1.491 1_545 S
C2180 H2171 0.950 . S
C2180 C2179 1.398 1_565 S
C2180 C2181 1.391 1_565 S
C2181 H2169 0.950 1_545 S
C2181 C2177 1.393 . S
C2181 C2180 1.391 1_545 S
C2182 H2172 0.950 . S
C2182 C2183 1.386 . S
C2182 C2184 1.391 . S
C2183 C2182 1.386 . S
C2183 C2187 1.393 . S
C2184 H2173 0.950 . S
C2184 C2182 1.391 . S
C2184 C2185 1.400 . S
C2185 C2179 1.491 1_565 S
C2185 C2184 1.400 . S
C2185 C2186 1.398 1_565 S
C2186 H2174 0.950 . S
C2186 C2185 1.398 1_545 S
C2186 C2187 1.391 1_545 S
C2187 H2175 0.950 1_565 S
C2187 C2183 1.393 . S
C2187 C2186 1.391 1_565 S
H2188 C2196 0.950 1_565 S
H2189 C2201 0.950 . S
H2190 C2198 0.950 1_565 S
H2191 C2200 0.950 . S
H2192 C2202 0.950 . S
H2193 C2204 0.950 . S
H2194 C2206 0.950 1_565 S
H2195 C2207 0.950 1_565 S
C2196 H2188 0.950 1_545 S
C2196 C2197 1.386 . S
C2196 C2198 1.391 . S
C2197 C2196 1.386 . S
C2197 C2201 1.393 . S
C2198 H2190 0.950 1_545 S
C2198 C2196 1.391 . S
C2198 C2199 1.400 . S
C2199 C2198 1.400 . S
C2199 C2200 1.398 . S
C2199 C2205 1.491 1_554 S
C2200 H2191 0.950 . S
C2200 C2199 1.398 . S
C2200 C2201 1.391 . S
C2201 H2189 0.950 . S
C2201 C2197 1.393 . S
C2201 C2200 1.391 . S
C2202 H2192 0.950 . S
C2202 C2203 1.386 . S
C2202 C2204 1.391 . S
C2203 C2202 1.386 . S
C2203 C2207 1.393 . S
C2204 H2193 0.950 . S
C2204 C2202 1.391 . S
C2204 C2205 1.400 . S
C2205 C2199 1.491 1_556 S
C2205 C2204 1.400 . S
C2205 C2206 1.398 . S
C2206 H2194 0.950 1_545 S
C2206 C2205 1.398 . S
C2206 C2207 1.391 . S
C2207 H2195 0.950 1_545 S
C2207 C2203 1.393 . S
C2207 C2206 1.391 . S
H2208 C2216 0.950 . S
H2209 C2221 0.950 . S
H2210 C2218 0.950 . S
H2211 C2220 0.950 . S
H2212 C2222 0.950 . S
H2213 C2224 0.950 . S
H2214 C2226 0.950 . S
H2215 C2227 0.950 . S
C2216 H2208 0.950 . S
C2216 C2217 1.386 . S
C2216 C2218 1.391 . S
C2217 C2216 1.386 . S
C2217 C2221 1.393 . S
C2218 H2210 0.950 . S
C2218 C2216 1.391 . S
C2218 C2219 1.400 . S
C2219 C2218 1.400 . S
C2219 C2220 1.398 . S
C2219 C2225 1.491 . S
C2220 H2211 0.950 . S
C2220 C2219 1.398 . S
C2220 C2221 1.391 . S
C2221 H2209 0.950 . S
C2221 C2217 1.393 . S
C2221 C2220 1.391 . S
C2222 H2212 0.950 . S
C2222 C2223 1.386 . S
C2222 C2224 1.391 . S
C2223 C2222 1.386 . S
C2223 C2227 1.393 . S
C2224 H2213 0.950 . S
C2224 C2222 1.391 . S
C2224 C2225 1.400 . S
C2225 C2219 1.491 . S
C2225 C2224 1.400 . S
C2225 C2226 1.398 . S
C2226 H2214 0.950 . S
C2226 C2225 1.398 . S
C2226 C2227 1.391 . S
C2227 H2215 0.950 . S
C2227 C2223 1.393 . S
C2227 C2226 1.391 . S
H2228 C2236 0.950 . S
H2229 C2241 0.950 . S
H2230 C2238 0.950 . S
H2231 C2240 0.950 . S
H2232 C2242 0.950 . S
H2233 C2244 0.950 . S
H2234 C2246 0.950 . S
H2235 C2247 0.950 . S
C2236 H2228 0.950 . S
C2236 C2237 1.386 . S
C2236 C2238 1.391 . S
C2237 C2236 1.386 . S
C2237 C2241 1.393 . S
C2238 H2230 0.950 . S
C2238 C2236 1.391 . S
C2238 C2239 1.400 . S
C2239 C2238 1.400 . S
C2239 C2240 1.398 . S
C2239 C2245 1.491 1_554 S
C2240 H2231 0.950 . S
C2240 C2239 1.398 . S
C2240 C2241 1.391 . S
C2241 H2229 0.950 . S
C2241 C2237 1.393 . S
C2241 C2240 1.391 . S
C2242 H2232 0.950 . S
C2242 C2243 1.386 . S
C2242 C2244 1.391 . S
C2243 C2242 1.386 . S
C2243 C2247 1.393 . S
C2244 H2233 0.950 . S
C2244 C2242 1.391 . S
C2244 C2245 1.400 . S
C2245 C2239 1.491 1_556 S
C2245 C2244 1.400 . S
C2245 C2246 1.398 . S
C2246 H2234 0.950 . S
C2246 C2245 1.398 . S
C2246 C2247 1.391 . S
C2247 H2235 0.950 . S
C2247 C2243 1.393 . S
C2247 C2246 1.391 . S
H2248 C2256 0.950 . S
H2249 C2261 0.950 . S
H2250 C2258 0.950 . S
H2251 C2260 0.950 . S
H2252 C2262 0.950 . S
H2253 C2264 0.950 . S
H2254 C2266 0.950 . S
H2255 C2267 0.950 . S
C2256 H2248 0.950 . S
C2256 C2257 1.386 . S
C2256 C2258 1.391 . S
C2257 C2256 1.386 . S
C2257 C2261 1.393 . S
C2258 H2250 0.950 . S
C2258 C2256 1.391 . S
C2258 C2259 1.400 . S
C2259 C2258 1.400 . S
C2259 C2260 1.398 . S
C2259 C2265 1.491 . S
C2260 H2251 0.950 . S
C2260 C2259 1.398 . S
C2260 C2261 1.391 . S
C2261 H2249 0.950 . S
C2261 C2257 1.393 . S
C2261 C2260 1.391 . S
C2262 H2252 0.950 . S
C2262 C2263 1.386 . S
C2262 C2264 1.391 . S
C2263 C2262 1.386 . S
C2263 C2267 1.393 . S
C2264 H2253 0.950 . S
C2264 C2262 1.391 . S
C2264 C2265 1.400 . S
C2265 C2259 1.491 . S
C2265 C2264 1.400 . S
C2265 C2266 1.398 . S
C2266 H2254 0.950 . S
C2266 C2265 1.398 . S
C2266 C2267 1.391 . S
C2267 H2255 0.950 . S
C2267 C2263 1.393 . S
C2267 C2266 1.391 . S
H2268 C2276 0.950 . S
H2269 C2281 0.950 . S
H2270 C2278 0.950 . S
H2271 C2280 0.950 . S
H2272 C2282 0.950 . S
H2273 C2284 0.950 . S
H2274 C2286 0.950 . S
H2275 C2287 0.950 . S
C2276 H2268 0.950 . S
C2276 C2277 1.386 . S
C2276 C2278 1.391 . S
C2277 C2276 1.386 . S
C2277 C2281 1.393 . S
C2278 H2270 0.950 . S
C2278 C2276 1.391 . S
C2278 C2279 1.400 . S
C2279 C2278 1.400 . S
C2279 C2280 1.398 . S
C2279 C2285 1.491 . S
C2280 H2271 0.950 . S
C2280 C2279 1.398 . S
C2280 C2281 1.391 . S
C2281 H2269 0.950 . S
C2281 C2277 1.393 . S
C2281 C2280 1.391 . S
C2282 H2272 0.950 . S
C2282 C2283 1.386 . S
C2282 C2284 1.391 . S
C2283 C2282 1.386 . S
C2283 C2287 1.393 . S
C2284 H2273 0.950 . S
C2284 C2282 1.391 . S
C2284 C2285 1.400 . S
C2285 C2279 1.491 . S
C2285 C2284 1.400 . S
C2285 C2286 1.398 . S
C2286 H2274 0.950 . S
C2286 C2285 1.398 . S
C2286 C2287 1.391 . S
C2287 H2275 0.950 . S
C2287 C2283 1.393 . S
C2287 C2286 1.391 . S
H2288 C2296 0.950 . S
H2289 C2301 0.950 . S
H2290 C2298 0.950 . S
H2291 C2300 0.950 . S
H2292 C2302 0.950 . S
H2293 C2304 0.950 . S
H2294 C2306 0.950 . S
H2295 C2307 0.950 . S
C2296 H2288 0.950 . S
C2296 C2297 1.386 . S
C2296 C2298 1.391 . S
C2297 C2296 1.386 . S
C2297 C2301 1.393 . S
C2298 H2290 0.950 . S
C2298 C2296 1.391 . S
C2298 C2299 1.400 . S
C2299 C2298 1.400 . S
C2299 C2300 1.398 . S
C2299 C2305 1.491 . S
C2300 H2291 0.950 . S
C2300 C2299 1.398 . S
C2300 C2301 1.391 . S
C2301 H2289 0.950 . S
C2301 C2297 1.393 . S
C2301 C2300 1.391 . S
C2302 H2292 0.950 . S
C2302 C2303 1.386 . S
C2302 C2304 1.391 . S
C2303 C2302 1.386 . S
C2303 C2307 1.393 . S
C2304 H2293 0.950 . S
C2304 C2302 1.391 . S
C2304 C2305 1.400 . S
C2305 C2299 1.491 . S
C2305 C2304 1.400 . S
C2305 C2306 1.398 . S
C2306 H2294 0.950 . S
C2306 C2305 1.398 . S
C2306 C2307 1.391 . S
C2307 H2295 0.950 . S
C2307 C2303 1.393 . S
C2307 C2306 1.391 . S
H2308 C2316 0.950 . S
H2309 C2321 0.950 . S
H2310 C2318 0.950 . S
H2311 C2320 0.950 . S
H2312 C2322 0.950 . S
H2313 C2324 0.950 . S
H2314 C2326 0.950 . S
H2315 C2327 0.950 . S
C2316 H2308 0.950 . S
C2316 C2317 1.386 . S
C2316 C2318 1.391 . S
C2317 C2316 1.386 . S
C2317 C2321 1.393 . S
C2318 H2310 0.950 . S
C2318 C2316 1.391 . S
C2318 C2319 1.400 . S
C2319 C2318 1.400 . S
C2319 C2320 1.398 . S
C2319 C2325 1.491 1_556 S
C2320 H2311 0.950 . S
C2320 C2319 1.398 . S
C2320 C2321 1.391 . S
C2321 H2309 0.950 . S
C2321 C2317 1.393 . S
C2321 C2320 1.391 . S
C2322 H2312 0.950 . S
C2322 C2323 1.386 . S
C2322 C2324 1.391 . S
C2323 C2322 1.386 . S
C2323 C2327 1.393 . S
C2324 H2313 0.950 . S
C2324 C2322 1.391 . S
C2324 C2325 1.400 . S
C2325 C2319 1.491 1_554 S
C2325 C2324 1.400 . S
C2325 C2326 1.398 . S
C2326 H2314 0.950 . S
C2326 C2325 1.398 . S
C2326 C2327 1.391 . S
C2327 H2315 0.950 . S
C2327 C2323 1.393 . S
C2327 C2326 1.391 . S
H2328 C2336 0.950 . S
H2329 C2341 0.950 . S
H2330 C2338 0.950 . S
H2331 C2340 0.950 . S
H2332 C2342 0.950 . S
H2333 C2344 0.950 . S
H2334 C2346 0.950 . S
H2335 C2347 0.950 . S
C2336 H2328 0.950 . S
C2336 C2337 1.386 . S
C2336 C2338 1.391 . S
C2337 C2336 1.386 . S
C2337 C2341 1.393 . S
C2338 H2330 0.950 . S
C2338 C2336 1.391 . S
C2338 C2339 1.400 . S
C2339 C2338 1.400 . S
C2339 C2340 1.398 . S
C2339 C2345 1.491 . S
C2340 H2331 0.950 . S
C2340 C2339 1.398 . S
C2340 C2341 1.391 . S
C2341 H2329 0.950 . S
C2341 C2337 1.393 . S
C2341 C2340 1.391 . S
C2342 H2332 0.950 . S
C2342 C2343 1.386 . S
C2342 C2344 1.391 . S
C2343 C2342 1.386 . S
C2343 C2347 1.393 . S
C2344 H2333 0.950 . S
C2344 C2342 1.391 . S
C2344 C2345 1.400 . S
C2345 C2339 1.491 . S
C2345 C2344 1.400 . S
C2345 C2346 1.398 . S
C2346 H2334 0.950 . S
C2346 C2345 1.398 . S
C2346 C2347 1.391 . S
C2347 H2335 0.950 . S
C2347 C2343 1.393 . S
C2347 C2346 1.391 . S
H2348 C2356 0.950 . S
H2349 C2361 0.950 . S
H2350 C2358 0.950 . S
H2351 C2360 0.950 . S
H2352 C2362 0.950 . S
H2353 C2364 0.950 . S
H2354 C2366 0.950 . S
H2355 C2367 0.950 . S
C2356 H2348 0.950 . S
C2356 C2357 1.386 . S
C2356 C2358 1.391 . S
C2357 C2356 1.386 . S
C2357 C2361 1.393 . S
C2358 H2350 0.950 . S
C2358 C2356 1.391 . S
C2358 C2359 1.400 . S
C2359 C2358 1.400 . S
C2359 C2360 1.398 . S
C2359 C2365 1.491 . S
C2360 H2351 0.950 . S
C2360 C2359 1.398 . S
C2360 C2361 1.391 . S
C2361 H2349 0.950 . S
C2361 C2357 1.393 . S
C2361 C2360 1.391 . S
C2362 H2352 0.950 . S
C2362 C2363 1.386 . S
C2362 C2364 1.391 . S
C2363 C2362 1.386 . S
C2363 C2367 1.393 . S
C2364 H2353 0.950 . S
C2364 C2362 1.391 . S
C2364 C2365 1.400 . S
C2365 C2359 1.491 . S
C2365 C2364 1.400 . S
C2365 C2366 1.398 . S
C2366 H2354 0.950 . S
C2366 C2365 1.398 . S
C2366 C2367 1.391 . S
C2367 H2355 0.950 . S
C2367 C2363 1.393 . S
C2367 C2366 1.391 . S
H2368 C2376 0.950 . S
H2369 C2381 0.950 . S
H2370 C2378 0.950 . S
H2371 C2380 0.950 . S
H2372 C2382 0.950 . S
H2373 C2384 0.950 . S
H2374 C2386 0.950 . S
H2375 C2387 0.950 . S
C2376 H2368 0.950 . S
C2376 C2377 1.386 . S
C2376 C2378 1.391 . S
C2377 C2376 1.386 . S
C2377 C2381 1.393 . S
C2378 H2370 0.950 . S
C2378 C2376 1.391 . S
C2378 C2379 1.400 . S
C2379 C2378 1.400 . S
C2379 C2380 1.398 . S
C2379 C2385 1.491 . S
C2380 H2371 0.950 . S
C2380 C2379 1.398 . S
C2380 C2381 1.391 . S
C2381 H2369 0.950 . S
C2381 C2377 1.393 . S
C2381 C2380 1.391 . S
C2382 H2372 0.950 . S
C2382 C2383 1.386 . S
C2382 C2384 1.391 . S
C2383 C2382 1.386 . S
C2383 C2387 1.393 . S
C2384 H2373 0.950 . S
C2384 C2382 1.391 . S
C2384 C2385 1.400 . S
C2385 C2379 1.491 . S
C2385 C2384 1.400 . S
C2385 C2386 1.398 . S
C2386 H2374 0.950 . S
C2386 C2385 1.398 . S
C2386 C2387 1.391 . S
C2387 H2375 0.950 . S
C2387 C2383 1.393 . S
C2387 C2386 1.391 . S
H2388 C2396 0.950 . S
H2389 C2401 0.950 . S
H2390 C2398 0.950 . S
H2391 C2400 0.950 . S
H2392 C2402 0.950 . S
H2393 C2404 0.950 . S
H2394 C2406 0.950 . S
H2395 C2407 0.950 . S
C2396 H2388 0.950 . S
C2396 C2397 1.386 . S
C2396 C2398 1.391 . S
C2397 C2396 1.386 . S
C2397 C2401 1.393 . S
C2398 H2390 0.950 . S
C2398 C2396 1.391 . S
C2398 C2399 1.400 . S
C2399 C2398 1.400 . S
C2399 C2400 1.398 . S
C2399 C2405 1.491 1_455 S
C2400 H2391 0.950 . S
C2400 C2399 1.398 . S
C2400 C2401 1.391 . S
C2401 H2389 0.950 . S
C2401 C2397 1.393 . S
C2401 C2400 1.391 . S
C2402 H2392 0.950 . S
C2402 C2403 1.386 . S
C2402 C2404 1.391 . S
C2403 C2402 1.386 . S
C2403 C2407 1.393 . S
C2404 H2393 0.950 . S
C2404 C2402 1.391 . S
C2404 C2405 1.400 . S
C2405 C2399 1.491 1_655 S
C2405 C2404 1.400 . S
C2405 C2406 1.398 . S
C2406 H2394 0.950 . S
C2406 C2405 1.398 . S
C2406 C2407 1.391 . S
C2407 H2395 0.950 . S
C2407 C2403 1.393 . S
C2407 C2406 1.391 . S
H2408 C2416 0.950 . S
H2409 C2421 0.950 . S
H2410 C2418 0.950 . S
H2411 C2420 0.950 . S
H2412 C2422 0.950 . S
H2413 C2424 0.950 . S
H2414 C2426 0.950 . S
H2415 C2427 0.950 . S
C2416 H2408 0.950 . S
C2416 C2417 1.386 . S
C2416 C2418 1.391 . S
C2417 C2416 1.386 . S
C2417 C2421 1.393 . S
C2418 H2410 0.950 . S
C2418 C2416 1.391 . S
C2418 C2419 1.400 . S
C2419 C2418 1.400 . S
C2419 C2420 1.398 1_655 S
C2419 C2425 1.491 1_655 S
C2420 H2411 0.950 . S
C2420 C2419 1.398 1_455 S
C2420 C2421 1.391 1_455 S
C2421 H2409 0.950 . S
C2421 C2417 1.393 . S
C2421 C2420 1.391 1_655 S
C2422 H2412 0.950 . S
C2422 C2423 1.386 . S
C2422 C2424 1.391 . S
C2423 C2422 1.386 . S
C2423 C2427 1.393 . S
C2424 H2413 0.950 . S
C2424 C2422 1.391 . S
C2424 C2425 1.400 . S
C2425 C2419 1.491 1_455 S
C2425 C2424 1.400 . S
C2425 C2426 1.398 1_455 S
C2426 H2414 0.950 . S
C2426 C2425 1.398 1_655 S
C2426 C2427 1.391 1_655 S
C2427 H2415 0.950 . S
C2427 C2423 1.393 . S
C2427 C2426 1.391 1_455 S
H2428 C2436 0.950 . S
H2429 C2441 0.950 . S
H2430 C2438 0.950 . S
H2431 C2440 0.950 . S
H2432 C2442 0.950 . S
H2433 C2444 0.950 . S
H2434 C2446 0.950 . S
H2435 C2447 0.950 . S
C2436 H2428 0.950 . S
C2436 C2437 1.386 . S
C2436 C2438 1.391 . S
C2437 C2436 1.386 . S
C2437 C2441 1.393 . S
C2438 H2430 0.950 . S
C2438 C2436 1.391 . S
C2438 C2439 1.400 . S
C2439 C2438 1.400 . S
C2439 C2440 1.398 . S
C2439 C2445 1.491 . S
C2440 H2431 0.950 . S
C2440 C2439 1.398 . S
C2440 C2441 1.391 . S
C2441 H2429 0.950 . S
C2441 C2437 1.393 . S
C2441 C2440 1.391 . S
C2442 H2432 0.950 . S
C2442 C2443 1.386 . S
C2442 C2444 1.391 . S
C2443 C2442 1.386 . S
C2443 C2447 1.393 . S
C2444 H2433 0.950 . S
C2444 C2442 1.391 . S
C2444 C2445 1.400 . S
C2445 C2439 1.491 . S
C2445 C2444 1.400 . S
C2445 C2446 1.398 . S
C2446 H2434 0.950 . S
C2446 C2445 1.398 . S
C2446 C2447 1.391 . S
C2447 H2435 0.950 . S
C2447 C2443 1.393 . S
C2447 C2446 1.391 . S
H2448 C2456 0.950 . S
H2449 C2461 0.950 . S
H2450 C2458 0.950 . S
H2451 C2460 0.950 . S
H2452 C2462 0.950 . S
H2453 C2464 0.950 . S
H2454 C2466 0.950 . S
H2455 C2467 0.950 . S
C2456 H2448 0.950 . S
C2456 C2457 1.386 . S
C2456 C2458 1.391 . S
C2457 C2456 1.386 . S
C2457 C2461 1.393 . S
C2458 H2450 0.950 . S
C2458 C2456 1.391 . S
C2458 C2459 1.400 . S
C2459 C2458 1.400 . S
C2459 C2460 1.398 . S
C2459 C2465 1.491 . S
C2460 H2451 0.950 . S
C2460 C2459 1.398 . S
C2460 C2461 1.391 . S
C2461 H2449 0.950 . S
C2461 C2457 1.393 . S
C2461 C2460 1.391 . S
C2462 H2452 0.950 . S
C2462 C2463 1.386 . S
C2462 C2464 1.391 . S
C2463 C2462 1.386 . S
C2463 C2467 1.393 . S
C2464 H2453 0.950 . S
C2464 C2462 1.391 . S
C2464 C2465 1.400 . S
C2465 C2459 1.491 . S
C2465 C2464 1.400 . S
C2465 C2466 1.398 . S
C2466 H2454 0.950 . S
C2466 C2465 1.398 . S
C2466 C2467 1.391 . S
C2467 H2455 0.950 . S
C2467 C2463 1.393 . S
C2467 C2466 1.391 . S
H2468 C2476 0.950 . S
H2469 C2481 0.950 . S
H2470 C2478 0.950 . S
H2471 C2480 0.950 . S
H2472 C2482 0.950 . S
H2473 C2484 0.950 . S
H2474 C2486 0.950 . S
H2475 C2487 0.950 . S
C2476 H2468 0.950 . S
C2476 C2477 1.386 . S
C2476 C2478 1.391 . S
C2477 C2476 1.386 . S
C2477 C2481 1.393 . S
C2478 H2470 0.950 . S
C2478 C2476 1.391 . S
C2478 C2479 1.400 . S
C2479 C2478 1.400 . S
C2479 C2480 1.398 . S
C2479 C2485 1.491 . S
C2480 H2471 0.950 . S
C2480 C2479 1.398 . S
C2480 C2481 1.391 . S
C2481 H2469 0.950 . S
C2481 C2477 1.393 . S
C2481 C2480 1.391 . S
C2482 H2472 0.950 . S
C2482 C2483 1.386 . S
C2482 C2484 1.391 . S
C2483 C2482 1.386 . S
C2483 C2487 1.393 . S
C2484 H2473 0.950 . S
C2484 C2482 1.391 . S
C2484 C2485 1.400 . S
C2485 C2479 1.491 . S
C2485 C2484 1.400 . S
C2485 C2486 1.398 . S
C2486 H2474 0.950 . S
C2486 C2485 1.398 . S
C2486 C2487 1.391 . S
C2487 H2475 0.950 . S
C2487 C2483 1.393 . S
C2487 C2486 1.391 . S
H2488 C2496 0.950 . S
H2489 C2501 0.950 . S
H2490 C2498 0.950 . S
H2491 C2500 0.950 . S
H2492 C2502 0.950 . S
H2493 C2504 0.950 . S
H2494 C2506 0.950 . S
H2495 C2507 0.950 . S
C2496 H2488 0.950 . S
C2496 C2497 1.386 . S
C2496 C2498 1.391 . S
C2497 C2496 1.386 . S
C2497 C2501 1.393 . S
C2498 H2490 0.950 . S
C2498 C2496 1.391 . S
C2498 C2499 1.400 . S
C2499 C2498 1.400 . S
C2499 C2500 1.398 1_655 S
C2499 C2505 1.491 1_655 S
C2500 H2491 0.950 . S
C2500 C2499 1.398 1_455 S
C2500 C2501 1.391 1_455 S
C2501 H2489 0.950 . S
C2501 C2497 1.393 . S
C2501 C2500 1.391 1_655 S
C2502 H2492 0.950 . S
C2502 C2503 1.386 . S
C2502 C2504 1.391 . S
C2503 C2502 1.386 . S
C2503 C2507 1.393 . S
C2504 H2493 0.950 . S
C2504 C2502 1.391 . S
C2504 C2505 1.400 . S
C2505 C2499 1.491 1_455 S
C2505 C2504 1.400 . S
C2505 C2506 1.398 1_455 S
C2506 H2494 0.950 . S
C2506 C2505 1.398 1_655 S
C2506 C2507 1.391 1_655 S
C2507 H2495 0.950 . S
C2507 C2503 1.393 . S
C2507 C2506 1.391 1_455 S
H2508 C2516 0.950 . S
H2509 C2521 0.950 . S
H2510 C2518 0.950 . S
H2511 C2520 0.950 . S
H2512 C2522 0.950 . S
H2513 C2524 0.950 . S
H2514 C2526 0.950 . S
H2515 C2527 0.950 . S
C2516 H2508 0.950 . S
C2516 C2517 1.386 . S
C2516 C2518 1.391 . S
C2517 C2516 1.386 . S
C2517 C2521 1.393 . S
C2518 H2510 0.950 . S
C2518 C2516 1.391 . S
C2518 C2519 1.400 . S
C2519 C2518 1.400 . S
C2519 C2520 1.398 . S
C2519 C2525 1.491 1_455 S
C2520 H2511 0.950 . S
C2520 C2519 1.398 . S
C2520 C2521 1.391 . S
C2521 H2509 0.950 . S
C2521 C2517 1.393 . S
C2521 C2520 1.391 . S
C2522 H2512 0.950 . S
C2522 C2523 1.386 . S
C2522 C2524 1.391 . S
C2523 C2522 1.386 . S
C2523 C2527 1.393 . S
C2524 H2513 0.950 . S
C2524 C2522 1.391 . S
C2524 C2525 1.400 . S
C2525 C2519 1.491 1_655 S
C2525 C2524 1.400 . S
C2525 C2526 1.398 . S
C2526 H2514 0.950 . S
C2526 C2525 1.398 . S
C2526 C2527 1.391 . S
C2527 H2515 0.950 . S
C2527 C2523 1.393 . S
C2527 C2526 1.391 . S
H2528 C2536 0.950 . S
H2529 C2541 0.950 . S
H2530 C2538 0.950 . S
H2531 C2540 0.950 . S
H2532 C2542 0.950 . S
H2533 C2544 0.950 . S
H2534 C2546 0.950 . S
H2535 C2547 0.950 . S
C2536 H2528 0.950 . S
C2536 C2537 1.386 . S
C2536 C2538 1.391 . S
C2537 C2536 1.386 . S
C2537 C2541 1.393 . S
C2538 H2530 0.950 . S
C2538 C2536 1.391 . S
C2538 C2539 1.400 . S
C2539 C2538 1.400 . S
C2539 C2540 1.398 . S
C2539 C2545 1.491 . S
C2540 H2531 0.950 . S
C2540 C2539 1.398 . S
C2540 C2541 1.391 . S
C2541 H2529 0.950 . S
C2541 C2537 1.393 . S
C2541 C2540 1.391 . S
C2542 H2532 0.950 . S
C2542 C2543 1.386 . S
C2542 C2544 1.391 . S
C2543 C2542 1.386 . S
C2543 C2547 1.393 . S
C2544 H2533 0.950 . S
C2544 C2542 1.391 . S
C2544 C2545 1.400 . S
C2545 C2539 1.491 . S
C2545 C2544 1.400 . S
C2545 C2546 1.398 . S
C2546 H2534 0.950 . S
C2546 C2545 1.398 . S
C2546 C2547 1.391 . S
C2547 H2535 0.950 . S
C2547 C2543 1.393 . S
C2547 C2546 1.391 . S
H2548 C2556 0.950 . S
H2549 C2561 0.950 . S
H2550 C2558 0.950 . S
H2551 C2560 0.950 . S
H2552 C2562 0.950 . S
H2553 C2564 0.950 . S
H2554 C2566 0.950 . S
H2555 C2567 0.950 . S
C2556 H2548 0.950 . S
C2556 C2557 1.386 . S
C2556 C2558 1.391 . S
C2557 C2556 1.386 . S
C2557 C2561 1.393 . S
C2558 H2550 0.950 . S
C2558 C2556 1.391 . S
C2558 C2559 1.400 . S
C2559 C2558 1.400 . S
C2559 C2560 1.398 . S
C2559 C2565 1.491 1_455 S
C2560 H2551 0.950 . S
C2560 C2559 1.398 . S
C2560 C2561 1.391 . S
C2561 H2549 0.950 . S
C2561 C2557 1.393 . S
C2561 C2560 1.391 . S
C2562 H2552 0.950 . S
C2562 C2563 1.386 . S
C2562 C2564 1.391 . S
C2563 C2562 1.386 . S
C2563 C2567 1.393 . S
C2564 H2553 0.950 . S
C2564 C2562 1.391 . S
C2564 C2565 1.400 . S
C2565 C2559 1.491 1_655 S
C2565 C2564 1.400 . S
C2565 C2566 1.398 . S
C2566 H2554 0.950 . S
C2566 C2565 1.398 . S
C2566 C2567 1.391 . S
C2567 H2555 0.950 . S
C2567 C2563 1.393 . S
C2567 C2566 1.391 . S
H2568 C2576 0.950 . S
H2569 C2581 0.950 1_655 S
H2570 C2578 0.950 . S
H2571 C2580 0.950 . S
H2572 C2582 0.950 . S
H2573 C2584 0.950 . S
H2574 C2586 0.950 . S
H2575 C2587 0.950 1_455 S
C2576 H2568 0.950 . S
C2576 C2577 1.386 . S
C2576 C2578 1.391 . S
C2577 C2576 1.386 . S
C2577 C2581 1.393 . S
C2578 H2570 0.950 . S
C2578 C2576 1.391 . S
C2578 C2579 1.400 . S
C2579 C2578 1.400 . S
C2579 C2580 1.398 1_455 S
C2579 C2585 1.491 1_455 S
C2580 H2571 0.950 . S
C2580 C2579 1.398 1_655 S
C2580 C2581 1.391 1_655 S
C2581 H2569 0.950 1_455 S
C2581 C2577 1.393 . S
C2581 C2580 1.391 1_455 S
C2582 H2572 0.950 . S
C2582 C2583 1.386 . S
C2582 C2584 1.391 . S
C2583 C2582 1.386 . S
C2583 C2587 1.393 . S
C2584 H2573 0.950 . S
C2584 C2582 1.391 . S
C2584 C2585 1.400 . S
C2585 C2579 1.491 1_655 S
C2585 C2584 1.400 . S
C2585 C2586 1.398 1_655 S
C2586 H2574 0.950 . S
C2586 C2585 1.398 1_455 S
C2586 C2587 1.391 1_455 S
C2587 H2575 0.950 1_655 S
C2587 C2583 1.393 . S
C2587 C2586 1.391 1_655 S
H2588 C2596 0.950 . S
H2589 C2601 0.950 . S
H2590 C2598 0.950 . S
H2591 C2600 0.950 . S
H2592 C2602 0.950 . S
H2593 C2604 0.950 . S
H2594 C2606 0.950 . S
H2595 C2607 0.950 . S
C2596 H2588 0.950 . S
C2596 C2597 1.386 . S
C2596 C2598 1.391 . S
C2597 C2596 1.386 . S
C2597 C2601 1.393 . S
C2598 H2590 0.950 . S
C2598 C2596 1.391 . S
C2598 C2599 1.400 . S
C2599 C2598 1.400 . S
C2599 C2600 1.398 . S
C2599 C2605 1.491 . S
C2600 H2591 0.950 . S
C2600 C2599 1.398 . S
C2600 C2601 1.391 . S
C2601 H2589 0.950 . S
C2601 C2597 1.393 . S
C2601 C2600 1.391 . S
C2602 H2592 0.950 . S
C2602 C2603 1.386 . S
C2602 C2604 1.391 . S
C2603 C2602 1.386 . S
C2603 C2607 1.393 . S
C2604 H2593 0.950 . S
C2604 C2602 1.391 . S
C2604 C2605 1.400 . S
C2605 C2599 1.491 . S
C2605 C2604 1.400 . S
C2605 C2606 1.398 . S
C2606 H2594 0.950 . S
C2606 C2605 1.398 . S
C2606 C2607 1.391 . S
C2607 H2595 0.950 . S
C2607 C2603 1.393 . S
C2607 C2606 1.391 . S
H2608 C2616 0.950 . S
H2609 C2621 0.950 . S
H2610 C2618 0.950 . S
H2611 C2620 0.950 . S
H2612 C2622 0.950 . S
H2613 C2624 0.950 . S
H2614 C2626 0.950 . S
H2615 C2627 0.950 . S
C2616 H2608 0.950 . S
C2616 C2617 1.386 . S
C2616 C2618 1.391 . S
C2617 C2616 1.386 . S
C2617 C2621 1.393 . S
C2618 H2610 0.950 . S
C2618 C2616 1.391 . S
C2618 C2619 1.400 . S
C2619 C2618 1.400 . S
C2619 C2620 1.398 . S
C2619 C2625 1.491 . S
C2620 H2611 0.950 . S
C2620 C2619 1.398 . S
C2620 C2621 1.391 . S
C2621 H2609 0.950 . S
C2621 C2617 1.393 . S
C2621 C2620 1.391 . S
C2622 H2612 0.950 . S
C2622 C2623 1.386 . S
C2622 C2624 1.391 . S
C2623 C2622 1.386 . S
C2623 C2627 1.393 . S
C2624 H2613 0.950 . S
C2624 C2622 1.391 . S
C2624 C2625 1.400 . S
C2625 C2619 1.491 . S
C2625 C2624 1.400 . S
C2625 C2626 1.398 . S
C2626 H2614 0.950 . S
C2626 C2625 1.398 . S
C2626 C2627 1.391 . S
C2627 H2615 0.950 . S
C2627 C2623 1.393 . S
C2627 C2626 1.391 . S
H2628 C2636 0.950 . S
H2629 C2641 0.950 . S
H2630 C2638 0.950 . S
H2631 C2640 0.950 . S
H2632 C2642 0.950 . S
H2633 C2644 0.950 . S
H2634 C2646 0.950 . S
H2635 C2647 0.950 . S
C2636 H2628 0.950 . S
C2636 C2637 1.386 . S
C2636 C2638 1.391 . S
C2637 C2636 1.386 . S
C2637 C2641 1.393 . S
C2638 H2630 0.950 . S
C2638 C2636 1.391 . S
C2638 C2639 1.400 . S
C2639 C2638 1.400 . S
C2639 C2640 1.398 . S
C2639 C2645 1.491 . S
C2640 H2631 0.950 . S
C2640 C2639 1.398 . S
C2640 C2641 1.391 . S
C2641 H2629 0.950 . S
C2641 C2637 1.393 . S
C2641 C2640 1.391 . S
C2642 H2632 0.950 . S
C2642 C2643 1.386 . S
C2642 C2644 1.391 . S
C2643 C2642 1.386 . S
C2643 C2647 1.393 . S
C2644 H2633 0.950 . S
C2644 C2642 1.391 . S
C2644 C2645 1.400 . S
C2645 C2639 1.491 . S
C2645 C2644 1.400 . S
C2645 C2646 1.398 . S
C2646 H2634 0.950 . S
C2646 C2645 1.398 . S
C2646 C2647 1.391 . S
C2647 H2635 0.950 . S
C2647 C2643 1.393 . S
C2647 C2646 1.391 . S
H2648 C2656 0.950 . S
H2649 C2661 0.950 . S
H2650 C2658 0.950 . S
H2651 C2660 0.950 1_455 S
H2652 C2662 0.950 . S
H2653 C2664 0.950 . S
H2654 C2666 0.950 1_655 S
H2655 C2667 0.950 . S
C2656 H2648 0.950 . S
C2656 C2657 1.386 . S
C2656 C2658 1.391 . S
C2657 C2656 1.386 . S
C2657 C2661 1.393 . S
C2658 H2650 0.950 . S
C2658 C2656 1.391 . S
C2658 C2659 1.400 . S
C2659 C2658 1.400 . S
C2659 C2660 1.398 . S
C2659 C2665 1.491 1_655 S
C2660 H2651 0.950 1_655 S
C2660 C2659 1.398 . S
C2660 C2661 1.391 . S
C2661 H2649 0.950 . S
C2661 C2657 1.393 . S
C2661 C2660 1.391 . S
C2662 H2652 0.950 . S
C2662 C2663 1.386 . S
C2662 C2664 1.391 . S
C2663 C2662 1.386 . S
C2663 C2667 1.393 . S
C2664 H2653 0.950 . S
C2664 C2662 1.391 . S
C2664 C2665 1.400 . S
C2665 C2659 1.491 1_455 S
C2665 C2664 1.400 . S
C2665 C2666 1.398 . S
C2666 H2654 0.950 1_455 S
C2666 C2665 1.398 . S
C2666 C2667 1.391 . S
C2667 H2655 0.950 . S
C2667 C2663 1.393 . S
C2667 C2666 1.391 . S
H2668 C2676 0.950 . S
H2669 C2681 0.950 . S
H2670 C2678 0.950 . S
H2671 C2680 0.950 . S
H2672 C2682 0.950 . S
H2673 C2684 0.950 . S
H2674 C2686 0.950 . S
H2675 C2687 0.950 . S
C2676 H2668 0.950 . S
C2676 C2677 1.386 . S
C2676 C2678 1.391 . S
C2677 C2676 1.386 . S
C2677 C2681 1.393 . S
C2678 H2670 0.950 . S
C2678 C2676 1.391 . S
C2678 C2679 1.400 . S
C2679 C2678 1.400 . S
C2679 C2680 1.398 . S
C2679 C2685 1.491 1_655 S
C2680 H2671 0.950 . S
C2680 C2679 1.398 . S
C2680 C2681 1.391 . S
C2681 H2669 0.950 . S
C2681 C2677 1.393 . S
C2681 C2680 1.391 . S
C2682 H2672 0.950 . S
C2682 C2683 1.386 . S
C2682 C2684 1.391 . S
C2683 C2682 1.386 . S
C2683 C2687 1.393 . S
C2684 H2673 0.950 . S
C2684 C2682 1.391 . S
C2684 C2685 1.400 . S
C2685 C2679 1.491 1_455 S
C2685 C2684 1.400 . S
C2685 C2686 1.398 . S
C2686 H2674 0.950 . S
C2686 C2685 1.398 . S
C2686 C2687 1.391 . S
C2687 H2675 0.950 . S
C2687 C2683 1.393 . S
C2687 C2686 1.391 . S
C1097 C9 1.506 . S
C1103 C247 1.510 . S
C1117 C43 1.503 . S
C1123 C145 1.527 . S
C1137 C77 1.501 . S
C1143 C179 1.518 . S
C1157 C213 1.525 . S
C1163 C111 1.502 . S
C1177 C519 1.528 . S
C1183 C281 1.506 . S
C1197 C417 1.524 . S
C1203 C315 1.501 . S
C1217 C451 1.528 . S
C1223 C349 1.510 . S
C1237 C485 1.528 . S
C1243 C383 1.509 . S
C1257 C553 1.511 . S
C1263 C791 1.505 . S
C1277 C689 1.512 . S
C1283 C587 1.505 . S
C1297 C723 1.520 . S
C1303 C621 1.501 . S
C1317 C655 1.524 . S
C1323 C757 1.501 . S
C1337 C825 1.502 . S
C1343 C1063 1.517 . S
C1357 C961 1.505 . S
C1363 C859 1.528 . S
C1377 C893 1.520 . S
C1383 C995 1.501 . S
C1397 C1029 1.518 . S
C1403 C927 1.502 . S
C1417 C954 0.671 . S
C1423 C20 0.678 . S
C1437 C54 0.664 . S
C1443 C444 0.690 . S
C1457 C1022 0.666 . S
C1463 C88 0.678 . S
C1477 C122 0.663 . S
C1483 C512 0.691 . S
C1497 C156 0.679 . S
C1503 C818 0.668 . S
C1517 C308 0.667 . S
C1523 C190 0.677 . S
C1537 C224 0.665 . S
C1543 C886 0.691 . S
C1557 C258 0.666 . S
C1563 C376 0.687 . S
C1577 C682 0.669 . S
C1583 C292 0.677 . S
C1597 C326 0.679 . S
C1603 C172 0.664 . S
C1617 C750 0.661 . S
C1623 C360 0.682 . S
C1637 C240 0.667 . S
C1643 C394 0.678 . S
C1657 C428 0.682 . S
C1663 C546 0.659 . S
C1677 C462 0.677 . S
C1683 C36 0.671 . S
C1697 C496 0.663 . S
C1703 C614 0.694 . S
C1717 C104 0.683 . S
C1723 C530 0.668 . S
C1737 C564 0.682 . S
C1743 C410 0.662 . S
C1757 C988 0.684 . S
C1763 C598 0.669 . S
C1777 C632 0.679 . S
C1783 C478 0.667 . S
C1797 C666 0.681 . S
C1803 C1056 0.661 . S
C1817 C700 0.681 . S
C1823 C274 0.661 . S
C1837 C852 0.692 . S
C1843 C734 0.662 . S
C1857 C768 0.674 . S
C1863 C342 0.672 . S
C1877 C802 0.667 . S
C1883 C920 0.683 . S
C1897 C138 0.686 . S
C1903 C836 0.668 . S
C1917 C716 0.660 . S
C1923 C870 0.682 . S
C1937 C206 0.693 . S
C1943 C904 0.662 . S
C1957 C784 0.685 . S
C1963 C938 0.665 . S
C1977 C972 0.670 . S
C1983 C2 0.678 . S
C1997 C580 0.691 . S
C2003 C1006 0.662 . S
C2017 C1040 0.665 . S
C2023 C70 0.690 . S
C2037 C648 0.674 . S
C2043 C1074 0.672 . S
C2057 C141 1.670 . S
C2063 C5 1.675 . S
C2077 C175 1.659 . S
C2083 C39 1.658 . S
C2097 C73 1.673 . S
C2103 C209 1.673 . S
C2117 C243 1.660 . S
C2123 C107 1.658 . S
C2137 C413 1.668 . S
C2143 C277 1.675 . S
C2157 C447 1.666 . S
C2163 C311 1.674 . S
C2177 C345 1.663 . S
C2183 C481 1.657 . S
C2197 C379 1.670 . S
C2203 C515 1.675 . S
C2217 C685 1.674 . S
C2223 C549 1.671 . S
C2237 C719 1.674 . S
C2243 C583 1.671 . S
C2257 C617 1.665 . S
C2263 C753 1.657 . S
C2277 C651 1.657 . S
C2283 C787 1.661 . S
C2297 C957 1.659 . S
C2303 C821 1.658 . S
C2317 C991 1.665 . S
C2323 C855 1.674 . S
C2337 C889 1.666 . S
C2343 C1025 1.658 . S
C2357 C923 1.668 . S
C2363 C1059 1.659 . S
C2377 C645 1.491 . S
C2383 C33 1.495 . S
C2397 C67 1.484 . S
C2403 C679 1.480 . S
C2417 C577 1.486 . S
C2423 C101 1.482 . S
C2437 C135 1.498 . S
C2443 C611 1.494 . S
C2457 C169 1.502 . S
C2463 C781 1.499 . S
C2477 C815 1.474 . S
C2483 C203 1.476 . S
C2497 C713 1.506 . S
C2503 C237 1.503 . S
C2517 C271 1.507 . S
C2523 C747 1.505 . S
C2537 C305 1.494 . S
C2543 C917 1.490 . S
C2557 C951 1.507 . S
C2563 C339 1.505 . S
C2577 C849 1.483 . S
C2583 C373 1.487 . S
C2597 C407 1.505 . S
C2603 C883 1.507 . S
C2617 C441 1.480 . S
C2623 C1053 1.484 . S
C2637 C1087 1.497 . S
C2643 C475 1.500 . S
C2657 C509 1.478 . S
C2663 C985 1.481 . S
C2677 C543 1.508 . S
C2683 C1019 1.507 . S
