# Generated by pormake.
# Topology sxa, (6)-cn, num edge types: 1
# Building blocks:
#     Node 0, Type 0, BuildingBlock: PAMTOO_clean_sbu_0, # of connection points: 6
#     Node 1, Type 0, BuildingBlock: PAMTOO_clean_sbu_0, # of connection points: 6
#     Node 2, Type 0, BuildingBlock: PAMTOO_clean_sbu_0, # of connection points: 6
#     Node 3, Type 0, BuildingBlock: PAMTOO_clean_sbu_0, # of connection points: 6
#     Edge 4, Type (0, 0), BuildingBlock: MIFKUJ_clean_linker_0, # of connection points: 2
#     Edge 5, Type (0, 0), BuildingBlock: MIFKUJ_clean_linker_0, # of connection points: 2
#     Edge 6, Type (0, 0), BuildingBlock: MIFKUJ_clean_linker_0, # of connection points: 2
#     Edge 7, Type (0, 0), BuildingBlock: MIFKUJ_clean_linker_0, # of connection points: 2
#     Edge 8, Type (0, 0), BuildingBlock: MIFKUJ_clean_linker_0, # of connection points: 2
#     Edge 9, Type (0, 0), BuildingBlock: MIFKUJ_clean_linker_0, # of connection points: 2
#     Edge 10, Type (0, 0), BuildingBlock: MIFKUJ_clean_linker_0, # of connection points: 2
#     Edge 11, Type (0, 0), BuildingBlock: MIFKUJ_clean_linker_0, # of connection points: 2
#     Edge 12, Type (0, 0), BuildingBlock: MIFKUJ_clean_linker_0, # of connection points: 2
#     Edge 13, Type (0, 0), BuildingBlock: MIFKUJ_clean_linker_0, # of connection points: 2
#     Edge 14, Type (0, 0), BuildingBlock: MIFKUJ_clean_linker_0, # of connection points: 2
#     Edge 15, Type (0, 0), BuildingBlock: MIFKUJ_clean_linker_0, # of connection points: 2
# Relax obj value: 0.171
# Max RMSD: 0.259
# Mean RMSD: 0.259
data_MOF--net-sxa--node1-PAMTOO_clean_sbu_0--edge1-MIFKUJ_clean_linker_0
_symmetry_space_group_name_H-M    P1
_symmetry_Int_Tables_number       1
_symmetry_cell_setting            triclinic
loop_
_symmetry_equiv_pos_as_xyz
'x, y, z'
_cell_length_a     43.858437
_cell_length_b     35.900358
_cell_length_c     20.226012
_cell_angle_alpha  93.519956
_cell_angle_beta   119.14492
_cell_angle_gamma 81.086296
loop_
_atom_site_label
_atom_site_type_symbol
_atom_site_fract_x
_atom_site_fract_y
_atom_site_fract_z
_atom_type_partial_charge
Dy0 Dy 0.06225 0.77809 0.25584 0.0
Dy1 Dy 0.08205 0.75123 0.12203 0.0
C2 C 0.0821 0.69238 0.22347 0.0
O3 O 0.12128 0.7722 0.31172 0.0
O4 O 0.1288 0.77765 0.20771 0.0
O5 O 0.06528 0.76335 0.36146 0.0
O6 O 0.03459 0.81573 0.3038 0.0
O7 O 0.06325 0.81225 0.09988 0.0
O8 O 0.07149 0.8318 0.21738 0.0
O9 O 0.02784 0.73781 0.0876 0.0
O10 O 1.01288 0.78755 0.14621 0.0
O11 O 0.06275 0.74067 1.00322 0.0
O12 O 0.11773 0.72323 0.08332 0.0
C13 C 0.14112 0.77746 0.28169 0.0
O14 O 0.05719 0.71577 0.22912 0.0
O15 O 0.10399 0.70677 0.21022 0.0
C16 C 1.01572 0.78755 0.37902 0.0
C17 C 0.96235 0.77954 0.41698 0.0
C18 C 0.96974 0.75335 0.36983 0.0
C19 C 0.99619 0.75722 0.35127 0.0
C20 C 1.00814 0.81386 0.42513 0.0
C21 C 0.98191 0.80995 0.44388 0.0
C22 C 0.04363 0.793 0.36022 0.0
C23 C 0.06649 0.83909 0.14893 0.0
C24 C 1.00375 0.7624 0.09314 0.0
C25 C 0.10444 0.74461 0.96354 0.0
C26 C 0.13172 0.77856 0.88581 0.0
C27 C 0.10648 0.79956 0.90232 0.0
C28 C 0.09306 0.78275 0.9412 0.0
C29 C 0.12805 0.72308 0.94351 0.0
C30 C 0.14164 0.73988 0.90507 0.0
C31 C 0.09396 0.72766 1.01217 0.0
H32 H 0.95546 0.72946 0.34814 0.0
H33 H 1.00124 0.73667 0.31499 0.0
H34 H 0.02255 0.83768 0.44669 0.0
H35 H 0.97671 0.83116 0.47896 0.0
H36 H 0.09823 0.82934 0.88801 0.0
H37 H 0.07475 0.79986 0.95605 0.0
H38 H 0.13717 0.69365 0.96054 0.0
H39 H 0.16161 0.72303 0.89486 0.0
Dy40 Dy 0.54974 0.29107 0.24788 0.0
Dy41 Dy 0.55856 0.28032 0.09541 0.0
C42 C 0.5683 0.21073 0.18769 0.0
O43 O 0.60808 0.28065 0.29472 0.0
O44 O 0.61182 0.29255 0.18787 0.0
O45 O 0.55316 0.26855 0.34905 0.0
O46 O 0.5296 0.32623 0.31278 0.0
O47 O 0.53084 0.33725 0.09553 0.0
O48 O 0.56222 0.34578 0.22121 0.0
O49 O 0.50659 0.26258 0.06449 0.0
O50 O 0.49634 0.30047 0.14874 0.0
O51 O 0.56269 0.30572 1.0071 0.0
O52 O 0.55845 0.24605 1.00362 0.0
C53 C 0.62654 0.28647 0.26175 0.0
O54 O 0.54627 0.23017 0.20837 0.0
O55 O 0.58564 0.22868 0.16595 0.0
C56 C 0.50576 0.29411 0.37394 0.0
C57 C 0.4526 0.28772 0.41376 0.0
C58 C 0.48296 0.2605 0.43842 0.0
C59 C 0.5092 0.26376 0.41912 0.0
C60 C 0.4751 0.32097 0.34811 0.0
C61 C 0.44895 0.3178 0.3677 0.0
C62 C 0.53511 0.29888 0.35867 0.0
C63 C 0.54647 0.3596 0.15154 0.0
C64 C 0.48533 0.27927 0.08902 0.0
C65 C 0.59583 0.2644 0.96295 0.0
C66 C 0.65621 0.24362 0.94695 0.0
C67 C 0.65516 0.27295 0.9953 0.0
C68 C 0.62538 0.28307 1.00368 0.0
C69 C 0.59653 0.23543 0.91364 0.0
C70 C 0.62672 0.22486 0.90607 0.0
C71 C 0.56527 0.2734 0.97545 0.0
H72 H 0.48697 0.23716 0.47459 0.0
H73 H 0.53258 0.24281 0.44081 0.0
H74 H 0.47142 0.34485 0.31347 0.0
H75 H 0.42579 0.33904 0.34665 0.0
H76 H 0.67788 0.28729 0.02865 0.0
H77 H 0.62585 0.305 0.04327 0.0
H78 H 0.57404 0.22051 0.88233 0.0
H79 H 0.62715 0.20202 0.86882 0.0
Dy80 Dy 0.062 0.28819 0.92306 0.0
Dy81 Dy 0.08129 0.26476 0.78716 0.0
C82 C 0.07561 0.20171 0.88632 0.0
O83 O 0.11444 0.30548 0.95601 0.0
O84 O 0.13009 0.2562 0.89792 0.0
O85 O 0.08055 0.2882 0.04331 0.0
O86 O 0.02891 0.31755 0.96666 0.0
O87 O 0.08497 0.32724 0.81416 0.0
O88 O 0.04026 0.33585 0.84141 0.0
O89 O 0.02226 0.27333 0.73058 0.0
O90 O 1.01447 0.26445 0.83312 0.0
O91 O 0.07989 0.27976 0.68316 0.0
O92 O 0.11014 0.22742 0.74185 0.0
C93 C 0.13878 0.28245 0.94867 0.0
O94 O 0.08196 0.22715 0.93891 0.0
O95 O 0.06932 0.21072 0.81781 0.0
C96 C 0.03491 0.28513 0.06977 0.0
C97 C 0.99768 0.25063 0.12287 0.0
C98 C 1.00355 0.23422 0.06438 0.0
C99 C 0.02199 0.25141 0.03798 0.0
C100 C 0.03124 0.30035 0.13126 0.0
C101 C 1.01273 0.28314 0.15785 0.0
C102 C 0.05048 0.30508 0.03563 0.0
C103 C 0.06098 0.35019 0.82412 0.0
C104 C 1.00206 0.26752 0.75938 0.0
C105 C 0.13202 0.25671 0.67286 0.0
C106 C 0.18493 0.26419 0.63284 0.0
C107 C 0.15466 0.29144 0.60953 0.0
C108 C 0.12854 0.28766 0.62892 0.0
C109 C 0.16263 0.22987 0.69742 0.0
C110 C 0.18868 0.2336 0.67789 0.0
C111 C 0.10267 0.25064 0.68716 0.0
H112 H 0.99173 0.20966 0.03517 0.0
H113 H 0.02469 0.2394 0.99029 0.0
H114 H 0.04141 0.32626 0.15661 0.0
H115 H 1.00863 0.29627 0.20312 0.0
H116 H 0.15055 0.31518 0.57416 0.0
H117 H 0.10518 0.30863 0.60795 0.0
H118 H 0.16623 0.20546 0.73076 0.0
H119 H 0.21179 0.21232 0.69797 0.0
Dy120 Dy 0.58303 0.78215 0.94569 0.0
Dy121 Dy 0.59132 0.76984 0.79241 0.0
C122 C 0.58468 0.70155 0.88089 0.0
O123 O 0.63983 0.75861 0.98601 0.0
O124 O 0.64238 0.78222 0.88637 0.0
O125 O 0.58782 0.76387 0.05068 0.0
O126 O 0.56905 0.82237 1.01329 0.0
O127 O 0.57047 0.83123 0.80004 0.0
O128 O 0.60205 0.83217 0.9278 0.0
O129 O 0.53457 0.76554 0.74798 0.0
O130 O 0.52796 0.79427 0.84652 0.0
O131 O 0.59382 0.7936 0.69959 0.0
O132 O 0.60571 0.7334 0.71893 0.0
C133 C 0.65783 0.76856 0.95542 0.0
O134 O 0.56728 0.72624 0.90483 0.0
O135 O 0.60178 0.71242 0.84834 0.0
C136 C 0.53872 0.79544 0.06087 0.0
C137 C 0.4678 0.80267 0.02753 0.0
C138 C 0.48432 0.76883 1.01313 0.0
C139 C 0.5193 0.76537 0.02888 0.0
C140 C 0.52319 0.82818 0.08062 0.0
C141 C 0.48797 0.83189 0.06376 0.0
C142 C 0.5715 0.79621 0.0583 0.0
C143 C 0.58475 0.85026 0.86316 0.0
C144 C 0.51456 0.78109 0.77695 0.0
C145 C 0.63662 0.76034 0.66806 0.0
C146 C 0.69251 0.75944 0.63327 0.0
C147 C 0.6877 0.7866 0.68216 0.0
C148 C 0.66018 0.78702 0.69937 0.0
C149 C 0.6418 0.73275 0.62079 0.0
C150 C 0.66934 0.7322 0.60384 0.0
C151 C 0.60582 0.76145 0.68116 0.0
H152 H 0.46982 0.74545 0.98704 0.0
H153 H 0.53044 0.73995 1.01205 0.0
H154 H 0.53754 0.85194 0.10415 0.0
H155 H 0.47609 0.85849 0.07512 0.0
H156 H 0.70462 0.80826 0.70574 0.0
H157 H 0.65707 0.8086 0.73633 0.0
H158 H 0.62423 0.7117 0.59618 0.0
H159 H 0.67242 0.71025 0.56751 0.0
H160 H 1.00701 0.40615 0.7956 0.0
H161 H 1.01066 0.46577 0.86158 0.0
H162 H 0.12413 0.44506 0.96426 0.0
H163 H 0.12045 0.38468 0.89896 0.0
H164 H 0.10602 0.45889 0.06946 0.0
H165 H 0.07156 0.52044 0.83699 0.0
H166 H 0.03666 0.53811 0.7016 0.0
H167 H 0.94619 0.57814 0.72935 0.0
H168 H 0.9803 0.56 0.86465 0.0
H169 H 0.13564 0.63738 0.24367 0.0
H170 H 0.13097 0.57839 0.17581 0.0
H171 H 0.01821 0.59683 0.08699 0.0
H172 H 0.02301 0.6564 0.15597 0.0
H173 H 0.03527 0.5845 0.97466 0.0
H174 H 0.0715 0.52094 0.20936 0.0
H175 H 0.10895 0.50593 0.34567 0.0
H176 H 0.19884 0.4729 0.31235 0.0
H177 H 0.16198 0.48771 0.17606 0.0
C178 C 0.03271 0.41501 0.82981 0.0
C179 C 0.06344 0.39074 0.84155 0.0
C180 C 0.03478 0.4492 0.86784 0.0
C181 C 0.06768 0.46017 0.91843 0.0
C182 C 0.09839 0.4373 0.92576 0.0
C183 C 0.09629 0.40298 0.88741 0.0
C184 C 0.06994 0.49276 0.96979 0.0
C185 C 0.09096 0.48652 0.04836 0.0
C186 C 0.04943 0.52864 0.94303 0.0
C187 C 0.02845 0.53842 0.86098 0.0
C188 C 0.04409 0.53251 0.81409 0.0
C189 C 0.02446 0.54272 0.73735 0.0
C190 C 0.9892 0.55914 0.70685 0.0
C191 C 0.97347 0.56533 0.75301 0.0
C192 C 0.99295 0.55506 0.82974 0.0
C193 C 0.10992 0.62829 0.21191 0.0
C194 C 0.07957 0.65192 0.20441 0.0
C195 C 0.10727 0.59443 0.17282 0.0
C196 C 0.07421 0.58305 0.12553 0.0
C197 C 0.04404 0.60508 0.12262 0.0
C198 C 0.04676 0.63903 0.16248 0.0
C199 C 0.07123 0.55048 0.07391 0.0
C200 C 0.05013 0.55675 0.99542 0.0
C201 C 0.09185 0.51473 0.10055 0.0
C202 C 0.11401 0.50567 0.18257 0.0
C203 C 0.0993 0.51064 0.23122 0.0
C204 C 0.12041 0.50205 0.30847 0.0
C205 C 0.15626 0.48843 0.33771 0.0
C206 C 0.17106 0.4833 0.28971 0.0
C207 C 0.15005 0.49169 0.21242 0.0
H208 H 0.17256 0.48182 0.39753 0.0
H209 H 0.9741 0.56718 0.64751 0.0
H210 H 0.51302 0.39389 1.01291 0.0
H211 H 0.52532 0.44991 0.97399 0.0
H212 H 0.60247 0.46748 0.2049 0.0
H213 H 0.59061 0.41026 0.24493 0.0
H214 H 0.55648 0.53515 0.12251 0.0
H215 H 0.6327 0.43229 0.09302 0.0
H216 H 0.64698 0.36934 0.05071 0.0
H217 H 0.57458 0.40268 0.81945 0.0
H218 H 0.55964 0.46579 0.86046 0.0
H219 H 0.62354 0.67468 0.0238 0.0
H220 H 0.62171 0.61526 0.07397 0.0
H221 H 0.55293 0.58118 0.8473 0.0
H222 H 0.55519 0.64092 0.79687 0.0
H223 H 0.59867 0.52049 0.93348 0.0
H224 H 0.51756 0.61813 0.95744 0.0
H225 H 0.49722 0.68001 0.99284 0.0
H226 H 0.57327 0.65621 0.22652 0.0
H227 H 0.59407 0.59397 0.19226 0.0
C228 C 0.53248 0.40963 0.05607 0.0
C229 C 0.55096 0.39721 0.13233 0.0
C230 C 0.53958 0.44173 0.03336 0.0
C231 C 0.56526 0.46265 0.08607 0.0
C232 C 0.58267 0.45162 0.16302 0.0
C233 C 0.57575 0.41903 0.18594 0.0
C234 C 0.57381 0.49552 0.05935 0.0
C235 C 0.5665 0.53185 0.08258 0.0
C236 C 0.58562 0.49148 1.00491 0.0
C237 C 0.59487 0.45371 0.97989 0.0
C238 C 0.61965 0.42613 0.03317 0.0
C239 C 0.62789 0.39042 1.00941 0.0
C240 C 0.61161 0.38196 0.93244 0.0
C241 C 0.58716 0.40926 0.87906 0.0
C242 C 0.57885 0.44504 0.90252 0.0
C243 C 0.60895 0.65395 0.98448 0.0
C244 C 0.59006 0.66208 0.90636 0.0
C245 C 0.60755 0.62015 1.01328 0.0
C246 C 0.58668 0.5938 0.96478 0.0
C247 C 0.56923 0.60096 0.88608 0.0
C248 C 0.57073 0.63495 0.85712 0.0
C249 C 0.58148 0.56023 0.99692 0.0
C250 C 0.58919 0.52379 0.97432 0.0
C251 C 0.56959 0.56413 0.05126 0.0
C252 C 0.55761 0.60163 0.07221 0.0
C253 C 0.53014 0.62623 0.0163 0.0
C254 C 0.51846 0.66133 0.03621 0.0
C255 C 0.53404 0.67216 0.11192 0.0
C256 C 0.56127 0.64781 0.16789 0.0
C257 C 0.57295 0.61257 0.14829 0.0
H258 H 0.52494 0.69935 0.12728 0.0
H259 H 0.61801 0.35431 0.91413 0.0
H260 H 0.63039 0.90109 0.91142 0.0
H261 H 0.62197 0.96374 0.96006 0.0
H262 H 0.51324 0.95318 0.88428 0.0
H263 H 0.52144 0.89093 0.83262 0.0
H264 H 0.52037 0.027 0.87843 0.0
H265 H 0.57714 0.9265 0.06419 0.0
H266 H 0.62194 0.8715 0.12921 0.0
H267 H 0.70425 0.94018 0.20078 0.0
H268 H 0.66 0.99547 0.13533 0.0
H269 H 0.51339 0.16914 0.13761 0.0
H270 H 0.51066 0.1066 0.07946 0.0
H271 H 0.6196 0.09931 0.13434 0.0
H272 H 0.62249 0.16098 0.19287 0.0
H273 H 0.60631 0.03214 0.15205 0.0
H274 H 0.54986 0.13109 0.95843 0.0
H275 H 0.50542 0.18638 0.89367 0.0
H276 H 0.42227 0.12092 0.83847 0.0
H277 H 0.46627 0.06534 0.90388 0.0
C278 C 0.60427 0.91298 0.90182 0.0
C279 C 0.57639 0.89155 0.86685 0.0
C280 C 0.59956 0.94856 0.93073 0.0
C281 C 0.5672 0.96292 0.92787 0.0
C282 C 0.53849 0.94281 0.88756 0.0
C283 C 0.54308 0.90737 0.85733 0.0
C284 C 0.5647 0.99651 0.97369 0.0
C285 C 0.53885 0.0279 0.93844 0.0
C286 C 0.58872 0.99796 0.05228 0.0
C287 C 0.61526 0.96507 0.09435 0.0
C288 C 0.6048 0.92985 0.09368 0.0
C289 C 0.63009 0.89862 0.13052 0.0
C290 C 0.66591 0.90234 0.16875 0.0
C291 C 0.67649 0.93735 0.17097 0.0
C292 C 0.65132 0.96866 0.13411 0.0
C293 C 0.53702 0.15356 0.13946 0.0
C294 C 0.56819 0.16996 0.17003 0.0
C295 C 0.53533 0.11804 0.10522 0.0
C296 C 0.56475 0.09839 0.101 0.0
C297 C 0.59646 0.11376 0.13633 0.0
C298 C 0.59811 0.14908 0.17004 0.0
C299 C 0.56263 0.06305 0.05654 0.0
C300 C 0.58757 0.03116 0.09218 0.0
C301 C 0.53775 0.06122 0.97856 0.0
C302 C 0.51134 0.09419 0.93681 0.0
C303 C 0.5221 0.12854 0.93276 0.0
C304 C 0.497 0.15993 0.89606 0.0
C305 C 0.46105 0.15722 0.86252 0.0
C306 C 0.45013 0.123 0.86484 0.0
C307 C 0.47513 0.09154 0.90166 0.0
H308 H 0.44165 0.18158 0.83434 0.0
H309 H 0.6855 0.87811 0.19661 0.0
H310 H 0.06439 0.85831 0.01852 0.0
H311 H 0.06581 0.91924 0.97626 0.0
H312 H 0.069 0.96997 0.17779 0.0
H313 H 0.06788 0.90782 0.22208 0.0
H314 H 0.0197 1.01115 0.03418 0.0
H315 H 0.13974 0.95048 0.16698 0.0
H316 H 0.18743 0.89787 0.19263 0.0
H317 H 0.17572 0.91295 0.97219 0.0
H318 H 0.12604 0.96345 0.94262 0.0
H319 H 0.07054 0.18262 1.00795 0.0
H320 H 0.06798 0.12147 0.04723 0.0
H321 H 0.07449 0.07067 0.85502 0.0
H322 H 0.07675 0.13315 0.81373 0.0
H323 H 0.1192 0.02916 0.99295 0.0
H324 H 0.99921 0.07777 0.84879 0.0
H325 H 0.94463 0.12332 0.80136 0.0
H326 H 0.95308 0.12759 0.02213 0.0
H327 H 1.00816 0.08246 0.07144 0.0
C328 C 0.06531 0.88214 0.05456 0.0
C329 C 0.06614 0.87774 0.12438 0.0
C330 C 0.06617 0.9172 0.02989 0.0
C331 C 0.06785 0.94923 0.0739 0.0
C332 C 0.06782 0.94554 0.14288 0.0
C333 C 0.06727 0.91001 0.16828 0.0
C334 C 0.07018 0.98606 0.04721 0.0
C335 C 0.04182 1.01534 0.02673 0.0
C336 C 0.09822 0.99086 0.03357 0.0
C337 C 0.12869 0.96065 0.05216 0.0
C338 C 0.14685 0.94219 0.12334 0.0
C339 C 0.17427 0.91259 0.13857 0.0
C340 C 0.18471 0.90201 0.08417 0.0
C341 C 0.16754 0.92086 0.01419 0.0
C342 C 0.13952 0.94982 0.99791 0.0
C343 C 0.07144 0.15872 0.97329 0.0
C344 C 0.07391 0.16313 0.90725 0.0
C345 C 0.06984 0.12355 0.99612 0.0
C346 C 0.07083 0.09135 0.95415 0.0
C347 C 0.07367 0.09518 0.88842 0.0
C348 C 0.07481 0.13088 0.86466 0.0
C349 C 0.06884 0.05419 0.9804 0.0
C350 C 0.09723 0.02496 1.0009 0.0
C351 C 0.04045 0.0489 0.99213 0.0
C352 C 1.00798 0.07694 0.96394 0.0
C353 C 0.98971 0.08877 0.88754 0.0
C354 C 0.95865 0.11444 0.86027 0.0
C355 C 0.94542 0.12829 0.90871 0.0
C356 C 0.9634 0.11681 0.98476 0.0
C357 C 0.99454 0.09115 1.0124 0.0
H358 H 0.92105 0.14762 0.88693 0.0
H359 H 0.20612 0.87928 0.09625 0.0
H360 H 0.46346 0.7981 0.82049 0.0
H361 H 0.39937 0.80123 0.74043 0.0
H362 H 0.41329 0.77385 0.54535 0.0
H363 H 0.47702 0.77067 0.62439 0.0
H364 H 0.35898 0.83287 0.5172 0.0
H365 H 0.39949 0.70766 0.63332 0.0
H366 H 0.42972 0.66438 0.74401 0.0
H367 H 0.35745 0.71354 0.82189 0.0
H368 H 0.32717 0.75756 0.71231 0.0
H369 H 0.19368 0.78027 0.2454 0.0
H370 H 0.25596 0.78423 0.33195 0.0
H371 H 0.23622 0.78937 0.52175 0.0
H372 H 0.17428 0.78453 0.43592 0.0
H373 H 0.29334 0.74461 0.55916 0.0
H374 H 0.25217 0.86847 0.45211 0.0
H375 H 0.22434 0.91951 0.35556 0.0
H376 H 0.29718 0.88099 0.27316 0.0
H377 H 0.32499 0.82923 0.36816 0.0
C378 C 0.45288 0.79291 0.76047 0.0
C379 C 0.47554 0.78403 0.72902 0.0
C380 C 0.41622 0.79459 0.71484 0.0
C381 C 0.40148 0.78756 0.63683 0.0
C382 C 0.424 0.7794 0.60528 0.0
C383 C 0.46054 0.77741 0.65077 0.0
C384 C 0.36274 0.78801 0.5876 0.0
C385 C 0.34463 0.81332 0.52577 0.0
C386 C 0.34376 0.76347 0.60047 0.0
C387 C 0.36131 0.73622 0.66507 0.0
C388 C 0.39018 0.70941 0.6743 0.0
C389 C 0.40733 0.68474 0.73685 0.0
C390 C 0.39561 0.68633 0.79014 0.0
C391 C 0.36657 0.71243 0.78071 0.0
C392 C 0.3494 0.73725 0.71839 0.0
C393 C 0.20251 0.78251 0.30554 0.0
C394 C 0.17876 0.78207 0.33343 0.0
C395 C 0.23824 0.78495 0.35513 0.0
C396 C 0.25106 0.78752 0.43383 0.0
C397 C 0.22727 0.78739 0.46155 0.0
C398 C 0.19165 0.78472 0.41214 0.0
C399 C 0.28931 0.78927 0.48735 0.0
C400 C 0.30745 0.76428 0.55014 0.0
C401 C 0.30818 0.8148 0.47642 0.0
C402 C 0.29045 0.84476 0.41684 0.0
C403 C 0.26194 0.87056 0.41274 0.0
C404 C 0.24626 0.8997 0.35846 0.0
C405 C 0.25905 0.90351 0.3084 0.0
C406 C 0.28734 0.87801 0.31203 0.0
C407 C 0.30304 0.84874 0.366 0.0
H408 H 0.24707 0.92626 0.2668 0.0
H409 H 0.40897 0.66726 0.83862 0.0
H410 H 0.21104 0.32752 0.62293 0.0
H411 H 0.25512 0.3319 0.58393 0.0
H412 H 0.26415 0.21193 0.54806 0.0
H413 H 0.22035 0.20737 0.58773 0.0
H414 H 0.32709 0.23092 0.61964 0.0
H415 H 0.22064 0.28142 0.39604 0.0
H416 H 0.16493 0.32426 0.32474 0.0
H417 H 0.22072 0.41983 0.40455 0.0
H418 H 0.27666 0.37762 0.47608 0.0
H419 H 0.42604 0.22482 0.42378 0.0
H420 H 0.38175 0.22108 0.46258 0.0
H421 H 0.37315 0.34116 0.49705 0.0
H422 H 0.41709 0.34511 0.45743 0.0
H423 H 0.31033 0.32271 0.42753 0.0
H424 H 0.41643 0.27384 0.64719 0.0
H425 H 0.4729 0.23249 0.71987 0.0
H426 H 0.41904 0.13536 0.65322 0.0
H427 H 0.36226 0.17607 0.57915 0.0
C428 C 0.22207 0.30209 0.60591 0.0
C429 C 0.21193 0.26708 0.60862 0.0
C430 C 0.24727 0.30466 0.58313 0.0
C431 C 0.2628 0.27235 0.56145 0.0
C432 C 0.25268 0.23738 0.56411 0.0
C433 C 0.22768 0.23477 0.58737 0.0
C434 C 0.29078 0.27463 0.53985 0.0
C435 C 0.32312 0.25061 0.57671 0.0
C436 C 0.28642 0.30104 0.48549 0.0
C437 C 0.25277 0.32638 0.44191 0.0
C438 C 0.22096 0.31159 0.39856 0.0
C439 C 0.18935 0.33577 0.35791 0.0
C440 C 0.18925 0.37478 0.36001 0.0
C441 C 0.22078 0.38966 0.40259 0.0
C442 C 0.25246 0.36562 0.44308 0.0
C443 C 0.415 0.25042 0.44029 0.0
C444 C 0.42535 0.28527 0.43742 0.0
C445 C 0.38966 0.24823 0.46284 0.0
C446 C 0.37426 0.28073 0.48423 0.0
C447 C 0.38451 0.31557 0.48119 0.0
C448 C 0.40961 0.31782 0.45804 0.0
C449 C 0.34651 0.27872 0.50665 0.0
C450 C 0.31426 0.30286 0.47016 0.0
C451 C 0.35106 0.25255 0.56163 0.0
C452 C 0.38513 0.22799 0.60667 0.0
C453 C 0.41665 0.24363 0.64742 0.0
C454 C 0.44872 0.22031 0.6889 0.0
C455 C 0.44959 0.1813 0.6905 0.0
C456 C 0.41834 0.16556 0.65139 0.0
C457 C 0.3862 0.18875 0.60973 0.0
H458 H 0.47444 0.16329 0.72254 0.0
H459 H 0.16475 0.39347 0.32864 0.0
H460 H 0.96528 0.2838 0.60755 0.0
H461 H 0.9022 0.28559 0.52211 0.0
H462 H 0.88864 0.2504 0.70499 0.0
H463 H 0.95205 0.24868 0.79166 0.0
H464 H 0.85056 0.21335 0.56997 0.0
H465 H 0.86639 0.34008 0.6533 0.0
H466 H 0.89312 0.39844 0.67777 0.0
H467 H 0.85802 0.41091 0.4406 0.0
H468 H 0.83154 0.35224 0.41484 0.0
H469 H 0.66636 0.26676 0.41172 0.0
H470 H 0.73004 0.26211 0.49119 0.0
H471 H 0.73944 0.29725 0.30268 0.0
H472 H 0.67523 0.30202 0.22187 0.0
H473 H 0.77992 0.33372 0.43746 0.0
H474 H 0.76188 0.20797 0.35374 0.0
H475 H 0.73499 0.14976 0.33006 0.0
H476 H 0.77416 0.13538 0.56849 0.0
H477 H 0.80074 0.19392 0.59353 0.0
C478 C 0.94906 0.27619 0.62988 0.0
C479 C 0.96389 0.26625 0.70684 0.0
C480 C 0.91287 0.27739 0.58079 0.0
C481 C 0.89056 0.2686 0.60722 0.0
C482 C 0.90533 0.25748 0.6834 0.0
C483 C 0.9416 0.25659 0.73292 0.0
C484 C 0.85177 0.27188 0.55544 0.0
C485 C 0.83503 0.23977 0.54176 0.0
C486 C 0.83161 0.30614 0.51706 0.0
C487 C 0.8473 0.34155 0.53225 0.0
C488 C 0.86463 0.35508 0.60643 0.0
C489 C 0.87969 0.38825 0.62053 0.0
C490 C 0.87735 0.40832 0.5608 0.0
C491 C 0.85986 0.39531 0.48682 0.0
C492 C 0.84479 0.36211 0.47243 0.0
C493 C 0.68177 0.27365 0.38674 0.0
C494 C 0.66545 0.28477 0.31003 0.0
C495 C 0.71833 0.27079 0.43246 0.0
C496 C 0.73963 0.27898 0.40289 0.0
C497 C 0.72353 0.29073 0.32673 0.0
C498 C 0.68681 0.29337 0.28055 0.0
C499 C 0.77865 0.27521 0.45211 0.0
C500 C 0.79545 0.30725 0.46539 0.0
C501 C 0.79884 0.24089 0.49019 0.0
C502 C 0.78303 0.20555 0.47543 0.0
C503 C 0.76451 0.19258 0.40109 0.0
C504 C 0.74936 0.15949 0.38742 0.0
C505 C 0.75282 0.13892 0.44772 0.0
C506 C 0.77148 0.15137 0.52183 0.0
C507 C 0.78661 0.1845 0.5358 0.0
H508 H 0.74109 0.1133 0.43702 0.0
H509 H 0.88903 0.434 0.57183 0.0
H510 H 0.96446 0.7937 0.55443 0.0
H511 H 0.91925 0.78878 0.58936 0.0
H512 H 0.85243 0.74979 0.36575 0.0
H513 H 0.89722 0.75597 0.3294 0.0
H514 H 0.81382 0.79861 0.40663 0.0
H515 H 0.89739 0.68906 0.52616 0.0
H516 H 0.95514 0.65152 0.60706 0.0
H517 H 0.96296 0.71417 0.80119 0.0
H518 H 0.90537 0.75229 0.72134 0.0
H519 H 0.69005 0.74148 0.49622 0.0
H520 H 0.73556 0.74232 0.46051 0.0
H521 H 0.80446 0.7814 0.6825 0.0
H522 H 0.75967 0.77855 0.72028 0.0
H523 H 0.84162 0.73124 0.64056 0.0
H524 H 0.75729 0.84162 0.51698 0.0
H525 H 0.69774 0.87542 0.43516 0.0
H526 H 0.69048 0.80797 0.24657 0.0
H527 H 0.74994 0.77363 0.32739 0.0
C528 C 0.94009 0.7843 0.51223 0.0
C529 C 0.93475 0.77527 0.43883 0.0
C530 C 0.91428 0.78104 0.53274 0.0
C531 C 0.88233 0.76836 0.4808 0.0
C532 C 0.87679 0.75947 0.40731 0.0
C533 C 0.90266 0.76271 0.3867 0.0
C534 C 0.85454 0.7653 0.50272 0.0
C535 C 0.81991 0.78339 0.45728 0.0
C536 C 0.8622 0.74612 0.56962 0.0
C537 C 0.8972 0.7238 0.61757 0.0
C538 C 0.91158 0.69508 0.58596 0.0
C539 C 0.94424 0.67363 0.63167 0.0
C540 C 0.96274 0.68052 0.70916 0.0
C541 C 0.94862 0.70888 0.74113 0.0
C542 C 0.91594 0.73039 0.69569 0.0
C543 C 0.71499 0.74978 0.53816 0.0
C544 C 0.72079 0.76002 0.61144 0.0
C545 C 0.74099 0.7508 0.51707 0.0
C546 C 0.77349 0.76268 0.56802 0.0
C547 C 0.77964 0.77238 0.64158 0.0
C548 C 0.75371 0.7711 0.66297 0.0
C549 C 0.80104 0.76477 0.54483 0.0
C550 C 0.8356 0.7465 0.59001 0.0
C551 C 0.79329 0.7836 0.47752 0.0
C552 C 0.75793 0.80486 0.4284 0.0
C553 C 0.74294 0.83393 0.45812 0.0
C554 C 0.70922 0.85319 0.41191 0.0
C555 C 0.69029 0.84375 0.3358 0.0
C556 C 0.70515 0.8152 0.30558 0.0
C557 C 0.7389 0.79591 0.35149 0.0
H558 H 0.66415 0.85862 0.30019 0.0
H559 H 0.98798 0.6638 0.74447 0.0
H560 H 0.41595 0.77721 0.89628 0.0
H561 H 0.35298 0.78521 0.85322 0.0
H562 H 0.36861 0.85176 0.04942 0.0
H563 H 0.43208 0.84128 0.09636 0.0
H564 H 0.32824 0.80494 0.03225 0.0
H565 H 0.33229 0.88738 0.86203 0.0
H566 H 0.34718 0.90639 0.76744 0.0
H567 H 0.28232 0.83016 0.60785 0.0
H568 H 0.26836 0.80914 0.70238 0.0
H569 H 0.15615 0.84577 0.93366 0.0
H570 H 0.20547 0.8656 0.92818 0.0
H571 H 0.20503 0.77342 0.78128 0.0
H572 H 0.15465 0.75388 0.78405 0.0
H573 H 0.23512 0.84053 0.7693 0.0
H574 H 0.24407 0.75002 0.9524 0.0
H575 H 0.22726 0.73198 0.04472 0.0
H576 H 0.26659 0.82855 0.17783 0.0
H577 H 0.28291 0.84765 0.08527 0.0
C578 C 0.40618 0.79302 0.93115 0.0
C579 C 0.42927 0.80826 1.00044 0.0
C580 C 0.36998 0.79821 0.90548 0.0
C581 C 0.35594 0.8196 0.94732 0.0
C582 C 0.37883 0.83529 0.01591 0.0
C583 C 0.41512 0.8295 0.04244 0.0
C584 C 0.31775 0.82332 0.92253 0.0
C585 C 0.30804 0.81355 0.97511 0.0
C586 C 0.2912 0.83373 0.84732 0.0
C587 C 0.29959 0.84631 0.78998 0.0
C588 C 0.3216 0.87417 0.80718 0.0
C589 C 0.32998 0.88522 0.75354 0.0
C590 C 0.31602 0.86914 0.68188 0.0
C591 C 0.29351 0.84214 0.66365 0.0
C592 C 0.28539 0.83061 0.71733 0.0
C593 C 0.16507 0.83092 0.89658 0.0
C594 C 0.15215 0.79761 0.8609 0.0
C595 C 0.19329 0.84239 0.89357 0.0
C596 C 0.20916 0.82049 0.85578 0.0
C597 C 0.19315 0.79052 0.81111 0.0
C598 C 0.16469 0.77912 0.81359 0.0
C599 C 0.24637 0.82238 0.87915 0.0
C600 C 0.25571 0.83272 0.82649 0.0
C601 C 0.27282 0.8127 0.95431 0.0
C602 C 0.26443 0.8004 1.01165 0.0
C603 C 0.249 0.76748 1.00122 0.0
C604 C 0.23953 0.7571 0.05353 0.0
C605 C 0.24582 0.77916 0.11708 0.0
C606 C 0.26175 0.81153 0.12859 0.0
C607 C 0.27108 0.82216 0.0762 0.0
H608 H 0.23842 0.77115 0.15748 0.0
H609 H 0.32243 0.87776 0.6403 0.0
H610 H 0.19774 0.25093 0.07136 0.0
H611 H 0.25836 0.25169 0.09646 0.0
H612 H 0.21954 0.33124 0.91171 0.0
H613 H 0.15917 0.33062 0.88718 0.0
H614 H 0.26024 0.26383 0.90052 0.0
H615 H 0.2686 0.36272 0.07943 0.0
H616 H 0.26145 0.39104 0.18624 0.0
H617 H 0.33128 0.29758 0.32978 0.0
H618 H 0.33926 0.26902 0.22446 0.0
H619 H 0.42617 0.3068 0.96151 0.0
H620 H 0.36561 0.30536 0.93615 0.0
H621 H 0.40542 0.23143 0.13001 0.0
H622 H 0.46575 0.23314 0.15537 0.0
H623 H 0.36415 0.29598 0.13647 0.0
H624 H 0.35265 0.19437 0.96072 0.0
H625 H 0.36282 0.16475 0.85835 0.0
H626 H 0.30219 0.26138 0.71475 0.0
H627 H 0.29046 0.29087 0.81481 0.0
C628 C 0.20253 0.26983 0.03871 0.0
C629 C 0.17433 0.29159 0.97904 0.0
C630 C 0.23692 0.26999 0.05242 0.0
C631 C 0.24317 0.29147 1.00564 0.0
C632 C 0.21509 0.31462 0.94836 0.0
C633 C 0.18082 0.31474 0.93525 0.0
C634 C 0.2785 0.28713 1.01232 0.0
C635 C 0.28289 0.27134 0.95167 0.0
C636 C 0.30802 0.29592 0.07973 0.0
C637 C 0.30436 0.31367 0.14404 0.0
C638 C 0.28247 0.34827 0.13394 0.0
C639 C 0.27839 0.36444 0.19432 0.0
C640 C 0.29606 0.34623 0.26501 0.0
C641 C 0.31795 0.3119 0.27547 0.0
C642 C 0.32236 0.29576 0.21551 0.0
C643 C 0.42165 0.28903 0.99637 0.0
C644 C 0.45004 0.26962 0.05943 0.0
C645 C 0.38726 0.28838 0.98238 0.0
C646 C 0.38125 0.26837 0.03155 0.0
C647 C 0.40964 0.24705 0.09171 0.0
C648 C 0.44389 0.2477 0.10558 0.0
C649 C 0.34587 0.27275 0.02475 0.0
C650 C 0.34148 0.28848 0.08534 0.0
C651 C 0.31642 0.2636 0.9577 0.0
C652 C 0.32061 0.24469 0.89496 0.0
C653 C 0.34105 0.20899 0.90671 0.0
C654 C 0.34694 0.19217 0.84898 0.0
C655 C 0.33273 0.21097 0.77952 0.0
C656 C 0.31242 0.24647 0.76763 0.0
C657 C 0.30593 0.26315 0.82465 0.0
H658 H 0.33766 0.19812 0.73519 0.0
H659 H 0.29272 0.35872 0.31156 0.0
H660 H 0.69228 0.1725 0.96626 0.0
H661 H 0.75339 0.15582 0.99096 0.0
H662 H 0.75558 0.27179 0.95012 0.0
H663 H 0.69466 0.28815 0.9237 0.0
H664 H 0.79382 0.22654 0.90274 0.0
H665 H 0.77996 0.23917 0.12832 0.0
H666 H 0.75828 0.22209 0.21282 0.0
H667 H 0.81154 0.10897 0.23337 0.0
H668 H 0.83325 0.12535 0.14837 0.0
H669 H 0.94484 0.29519 0.13485 0.0
H670 H 0.88963 0.27623 0.11114 0.0
H671 H 0.93166 0.15949 0.11105 0.0
H672 H 0.98768 0.17822 0.13527 0.0
H673 H 0.87483 0.18568 0.17018 0.0
H674 H 0.9003 0.18782 0.96136 0.0
H675 H 0.92331 0.21739 0.89079 0.0
H676 H 0.84604 0.31546 0.84652 0.0
H677 H 0.82348 0.28707 0.91907 0.0
C678 C 0.70554 0.19401 0.95999 0.0
C679 C 0.68919 0.23167 0.94411 0.0
C680 C 0.74042 0.18455 0.97465 0.0
C681 C 0.75913 0.21273 0.97379 0.0
C682 C 0.74166 0.24962 0.95132 0.0
C683 C 0.70696 0.25902 0.93662 0.0
C684 C 0.79775 0.20567 1.00458 0.0
C685 C 0.81158 0.21703 0.96078 0.0
C686 C 0.82087 0.19315 0.08038 0.0
C687 C 0.80778 0.1833 0.13124 0.0
C688 C 0.78681 0.21059 0.15044 0.0
C689 C 0.77457 0.20106 0.19848 0.0
C690 C 0.78341 0.16442 0.22815 0.0
C691 C 0.80463 0.13729 0.21012 0.0
C692 C 0.8169 0.14668 0.16205 0.0
C693 C 0.94317 0.26535 0.13366 0.0
C694 C 0.97035 0.23819 0.13555 0.0
C695 C 0.91148 0.2546 0.11975 0.0
C696 C 0.90664 0.21665 0.10783 0.0
C697 C 0.93511 0.18895 0.1196 0.0
C698 C 0.96691 0.19971 0.13307 0.0
C699 C 0.87044 0.2076 0.06884 0.0
C700 C 0.85719 0.19346 0.11111 0.0
C701 C 0.84762 0.21875 0.99224 0.0
C702 C 0.86039 0.23532 0.94618 0.0
C703 C 0.88844 0.21579 0.93709 0.0
C704 C 0.9014 0.23234 0.89676 0.0
C705 C 0.88613 0.26823 0.86417 0.0
C706 C 0.85786 0.28764 0.87179 0.0
C707 C 0.84502 0.27134 0.91262 0.0
H708 H 0.8962 0.28103 0.83305 0.0
H709 H 0.7739 0.15703 0.26523 0.0
H710 H 0.94807 0.81704 0.02325 0.0
H711 H 0.88761 0.81391 0.99517 0.0
H712 H 0.91585 0.6953 0.05392 0.0
H713 H 0.97547 0.69794 0.07585 0.0
H714 H 0.84821 0.71033 0.95069 0.0
H715 H 0.92692 0.77136 0.18405 0.0
H716 H 0.96293 0.82177 0.24998 0.0
H717 H 0.8718 0.90549 0.14358 0.0
H718 H 0.83547 0.85614 0.0729 0.0
H719 H 0.70677 0.70687 0.02467 0.0
H720 H 0.7692 0.70054 0.05671 0.0
H721 H 0.75582 0.81894 1.00563 0.0
H722 H 0.6943 0.82518 0.97512 0.0
H723 H 0.81869 0.79898 0.11606 0.0
H724 H 0.7438 0.75217 0.87025 0.0
H725 H 0.70179 0.71147 0.78038 0.0
H726 H 0.77701 0.61311 0.88771 0.0
H727 H 0.8193 0.6532 0.97936 0.0
C728 C 0.94081 0.79 0.02675 0.0
C729 C 0.96633 0.75777 0.05268 0.0
C730 C 0.90647 0.78831 1.01172 0.0
C731 C 0.89778 0.75479 0.02614 0.0
C732 C 0.92219 0.72166 0.0439 0.0
C733 C 0.95625 0.7231 0.05631 0.0
C734 C 0.86508 0.75506 0.03099 0.0
C735 C 0.842 0.72938 0.9876 0.0
C736 C 0.85649 0.78062 0.07788 0.0
C737 C 0.87849 0.80995 0.12274 0.0
C738 C 0.91455 0.8005 0.1744 0.0
C739 C 0.93504 0.82889 0.2126 0.0
C740 C 0.91968 0.86664 0.20182 0.0
C741 C 0.88371 0.87622 0.15209 0.0
C742 C 0.86319 0.84809 0.11248 0.0
C743 C 0.71782 0.73169 0.02378 0.0
C744 C 0.69617 0.7665 0.99787 0.0
C745 C 0.75319 0.72801 0.04092 0.0
C746 C 0.76687 0.75913 0.03193 0.0
C747 C 0.74586 0.79455 1.01278 0.0
C748 C 0.71077 0.79815 0.99562 0.0
C749 C 0.80158 0.75488 0.03472 0.0
C750 C 0.82521 0.77957 0.08 0.0
C751 C 0.80986 0.72974 0.98714 0.0
C752 C 0.7845 0.70561 0.9323 0.0
C753 C 0.75126 0.72184 0.87513 0.0
C754 C 0.72743 0.69891 0.82376 0.0
C755 C 0.73669 0.65976 0.82836 0.0
C756 C 0.76984 0.64344 0.88433 0.0
C757 C 0.79375 0.66624 0.93607 0.0
H758 H 0.71819 0.64208 0.78845 0.0
H759 H 0.93569 0.88845 0.23179 0.0
loop_
_geom_bond_atom_site_label_1
_geom_bond_atom_site_label_2
_geom_bond_distance
_geom_bond_site_symmetry_2
_ccdc_geom_bond_type
Dy0 O3 2.307 . S
Dy0 O5 2.395 . S
Dy0 O6 2.379 . S
Dy0 O8 2.339 . S
Dy0 O10 2.298 1_455 S
Dy0 O14 2.275 . S
Dy0 C22 2.738 1_455 S
Dy1 O4 2.298 . S
Dy1 O7 2.275 . S
Dy1 O9 2.307 1_455 S
Dy1 O11 2.395 . S
Dy1 O12 2.379 . S
Dy1 O15 2.339 . S
Dy1 C31 2.738 . S
C2 O14 1.254 . S
C2 O15 1.257 . S
O3 Dy0 2.307 . S
O3 C13 1.266 . S
O4 Dy1 2.298 . S
O4 C13 1.236 . S
O5 Dy0 2.395 . S
O5 C22 1.255 1_455 S
O6 Dy0 2.379 . S
O6 C22 1.249 1_455 S
O7 Dy1 2.275 . S
O7 C23 1.254 . S
O8 Dy0 2.339 . S
O8 C23 1.257 . S
O9 Dy1 2.307 1_655 S
O9 C24 1.266 . S
O10 Dy0 2.298 1_655 S
O10 C24 1.236 . S
O11 Dy1 2.395 . S
O11 C31 1.255 . S
O12 Dy1 2.379 . S
O12 C31 1.249 . S
C13 O3 1.266 . S
C13 O4 1.236 . S
O14 Dy0 2.275 . S
O14 C2 1.254 . S
O15 Dy1 2.339 . S
O15 C2 1.257 . S
C16 C19 1.344 . S
C16 C20 1.328 . S
C16 C22 1.516 . S
C17 C18 1.304 . S
C17 C21 1.323 . S
C18 C17 1.304 . S
C18 C19 1.371 . S
C18 H32 0.930 . S
C19 C16 1.344 . S
C19 C18 1.371 . S
C19 H33 0.931 . S
C20 C16 1.328 . S
C20 C21 1.433 . S
C20 H34 0.931 . S
C21 C17 1.323 . S
C21 C20 1.433 . S
C21 H35 0.933 . S
C22 Dy0 2.738 1_655 S
C22 O5 1.255 1_655 S
C22 O6 1.249 1_655 S
C22 C16 1.516 . S
C23 O7 1.254 . S
C23 O8 1.257 . S
C24 O9 1.266 . S
C24 O10 1.236 . S
C25 C28 1.344 . S
C25 C29 1.328 1_554 S
C25 C31 1.516 . S
C26 C27 1.304 1_556 S
C26 C30 1.323 . S
C27 C26 1.304 1_554 S
C27 C28 1.371 . S
C27 H36 0.930 . S
C28 C25 1.344 . S
C28 C27 1.371 . S
C28 H37 0.931 . S
C29 C25 1.328 1_556 S
C29 C30 1.433 . S
C29 H38 0.931 . S
C30 C26 1.323 . S
C30 C29 1.433 . S
C30 H39 0.933 . S
C31 Dy1 2.738 . S
C31 O11 1.255 . S
C31 O12 1.249 . S
C31 C25 1.516 . S
H32 C18 0.930 . S
H33 C19 0.931 . S
H34 C20 0.931 . S
H35 C21 0.933 . S
H36 C27 0.930 . S
H37 C28 0.931 . S
H38 C29 0.931 . S
H39 C30 0.933 . S
Dy40 O43 2.307 . S
Dy40 O45 2.395 . S
Dy40 O46 2.379 . S
Dy40 O48 2.339 . S
Dy40 O50 2.298 . S
Dy40 O54 2.275 . S
Dy40 C62 2.738 . S
Dy41 O44 2.298 . S
Dy41 O47 2.275 . S
Dy41 O49 2.307 . S
Dy41 O51 2.395 . S
Dy41 O52 2.379 . S
Dy41 O55 2.339 . S
Dy41 C71 2.738 . S
C42 O54 1.254 . S
C42 O55 1.257 . S
O43 Dy40 2.307 . S
O43 C53 1.266 . S
O44 Dy41 2.298 . S
O44 C53 1.236 . S
O45 Dy40 2.395 . S
O45 C62 1.255 . S
O46 Dy40 2.379 . S
O46 C62 1.249 . S
O47 Dy41 2.275 . S
O47 C63 1.254 . S
O48 Dy40 2.339 . S
O48 C63 1.257 . S
O49 Dy41 2.307 . S
O49 C64 1.266 . S
O50 Dy40 2.298 . S
O50 C64 1.236 . S
O51 Dy41 2.395 . S
O51 C71 1.255 . S
O52 Dy41 2.379 . S
O52 C71 1.249 . S
C53 O43 1.266 . S
C53 O44 1.236 . S
O54 Dy40 2.275 . S
O54 C42 1.254 . S
O55 Dy41 2.339 . S
O55 C42 1.257 . S
C56 C59 1.344 . S
C56 C60 1.328 . S
C56 C62 1.516 . S
C57 C58 1.304 . S
C57 C61 1.323 . S
C58 C57 1.304 . S
C58 C59 1.371 . S
C58 H72 0.930 . S
C59 C56 1.344 . S
C59 C58 1.371 . S
C59 H73 0.931 . S
C60 C56 1.328 . S
C60 C61 1.433 . S
C60 H74 0.931 . S
C61 C57 1.323 . S
C61 C60 1.433 . S
C61 H75 0.933 . S
C62 Dy40 2.738 . S
C62 O45 1.255 . S
C62 O46 1.249 . S
C62 C56 1.516 . S
C63 O47 1.254 . S
C63 O48 1.257 . S
C64 O49 1.266 . S
C64 O50 1.236 . S
C65 C68 1.344 . S
C65 C69 1.328 1_554 S
C65 C71 1.516 . S
C66 C67 1.304 1_556 S
C66 C70 1.323 . S
C67 C66 1.304 1_554 S
C67 C68 1.371 . S
C67 H76 0.930 . S
C68 C65 1.344 . S
C68 C67 1.371 . S
C68 H77 0.931 . S
C69 C65 1.328 1_556 S
C69 C70 1.433 . S
C69 H78 0.931 . S
C70 C66 1.323 . S
C70 C69 1.433 . S
C70 H79 0.933 . S
C71 Dy41 2.738 . S
C71 O51 1.255 . S
C71 O52 1.249 . S
C71 C65 1.516 . S
H72 C58 0.930 . S
H73 C59 0.931 . S
H74 C60 0.931 . S
H75 C61 0.933 . S
H76 C67 0.930 . S
H77 C68 0.931 . S
H78 C69 0.931 . S
H79 C70 0.933 . S
Dy80 O83 2.307 . S
Dy80 O85 2.395 . S
Dy80 O86 2.379 . S
Dy80 O88 2.339 . S
Dy80 O90 2.298 1_455 S
Dy80 O94 2.275 . S
Dy80 C102 2.738 . S
Dy81 O84 2.298 . S
Dy81 O87 2.275 . S
Dy81 O89 2.307 . S
Dy81 O91 2.395 . S
Dy81 O92 2.379 . S
Dy81 O95 2.339 . S
Dy81 C111 2.738 . S
C82 O94 1.254 . S
C82 O95 1.257 . S
O83 Dy80 2.307 . S
O83 C93 1.266 . S
O84 Dy81 2.298 . S
O84 C93 1.236 . S
O85 Dy80 2.395 . S
O85 C102 1.255 . S
O86 Dy80 2.379 . S
O86 C102 1.249 . S
O87 Dy81 2.275 . S
O87 C103 1.254 . S
O88 Dy80 2.339 . S
O88 C103 1.257 . S
O89 Dy81 2.307 . S
O89 C104 1.266 1_455 S
O90 Dy80 2.298 1_655 S
O90 C104 1.236 . S
O91 Dy81 2.395 . S
O91 C111 1.255 . S
O92 Dy81 2.379 . S
O92 C111 1.249 . S
C93 O83 1.266 . S
C93 O84 1.236 . S
O94 Dy80 2.275 . S
O94 C82 1.254 . S
O95 Dy81 2.339 . S
O95 C82 1.257 . S
C96 C99 1.344 . S
C96 C100 1.328 1_556 S
C96 C102 1.516 1_655 S
C97 C98 1.304 1_554 S
C97 C101 1.323 . S
C98 C97 1.304 1_556 S
C98 C99 1.371 . S
C98 H112 0.930 . S
C99 C96 1.344 . S
C99 C98 1.371 . S
C99 H113 0.931 . S
C100 C96 1.328 1_554 S
C100 C101 1.433 . S
C100 H114 0.931 . S
C101 C97 1.323 . S
C101 C100 1.433 . S
C101 H115 0.933 . S
C102 Dy80 2.738 . S
C102 O85 1.255 . S
C102 O86 1.249 . S
C102 C96 1.516 1_455 S
C103 O87 1.254 . S
C103 O88 1.257 . S
C104 O89 1.266 1_655 S
C104 O90 1.236 . S
C105 C108 1.344 . S
C105 C109 1.328 . S
C105 C111 1.516 . S
C106 C107 1.304 . S
C106 C110 1.323 . S
C107 C106 1.304 . S
C107 C108 1.371 . S
C107 H116 0.930 . S
C108 C105 1.344 . S
C108 C107 1.371 . S
C108 H117 0.931 . S
C109 C105 1.328 . S
C109 C110 1.433 . S
C109 H118 0.931 . S
C110 C106 1.323 . S
C110 C109 1.433 . S
C110 H119 0.933 . S
C111 Dy81 2.738 . S
C111 O91 1.255 . S
C111 O92 1.249 . S
C111 C105 1.516 . S
H112 C98 0.930 . S
H113 C99 0.931 . S
H114 C100 0.931 . S
H115 C101 0.933 . S
H116 C107 0.930 . S
H117 C108 0.931 . S
H118 C109 0.931 . S
H119 C110 0.933 . S
Dy120 O123 2.307 . S
Dy120 O125 2.395 . S
Dy120 O126 2.379 . S
Dy120 O128 2.339 . S
Dy120 O130 2.298 . S
Dy120 O134 2.275 . S
Dy120 C142 2.738 . S
Dy121 O124 2.298 . S
Dy121 O127 2.275 . S
Dy121 O129 2.307 . S
Dy121 O131 2.395 . S
Dy121 O132 2.379 . S
Dy121 O135 2.339 . S
Dy121 C151 2.738 . S
C122 O134 1.254 . S
C122 O135 1.257 . S
O123 Dy120 2.307 . S
O123 C133 1.266 . S
O124 Dy121 2.298 . S
O124 C133 1.236 . S
O125 Dy120 2.395 . S
O125 C142 1.255 . S
O126 Dy120 2.379 . S
O126 C142 1.249 . S
O127 Dy121 2.275 . S
O127 C143 1.254 . S
O128 Dy120 2.339 . S
O128 C143 1.257 . S
O129 Dy121 2.307 . S
O129 C144 1.266 . S
O130 Dy120 2.298 . S
O130 C144 1.236 . S
O131 Dy121 2.395 . S
O131 C151 1.255 . S
O132 Dy121 2.379 . S
O132 C151 1.249 . S
C133 O123 1.266 . S
C133 O124 1.236 . S
O134 Dy120 2.275 . S
O134 C122 1.254 . S
O135 Dy121 2.339 . S
O135 C122 1.257 . S
C136 C139 1.344 . S
C136 C140 1.328 1_556 S
C136 C142 1.516 . S
C137 C138 1.304 1_554 S
C137 C141 1.323 . S
C138 C137 1.304 1_556 S
C138 C139 1.371 . S
C138 H152 0.930 . S
C139 C136 1.344 . S
C139 C138 1.371 . S
C139 H153 0.931 . S
C140 C136 1.328 1_554 S
C140 C141 1.433 . S
C140 H154 0.931 . S
C141 C137 1.323 . S
C141 C140 1.433 . S
C141 H155 0.933 . S
C142 Dy120 2.738 . S
C142 O125 1.255 . S
C142 O126 1.249 . S
C142 C136 1.516 . S
C143 O127 1.254 . S
C143 O128 1.257 . S
C144 O129 1.266 . S
C144 O130 1.236 . S
C145 C148 1.344 . S
C145 C149 1.328 . S
C145 C151 1.516 . S
C146 C147 1.304 . S
C146 C150 1.323 . S
C147 C146 1.304 . S
C147 C148 1.371 . S
C147 H156 0.930 . S
C148 C145 1.344 . S
C148 C147 1.371 . S
C148 H157 0.931 . S
C149 C145 1.328 . S
C149 C150 1.433 . S
C149 H158 0.931 . S
C150 C146 1.323 . S
C150 C149 1.433 . S
C150 H159 0.933 . S
C151 Dy121 2.738 . S
C151 O131 1.255 . S
C151 O132 1.249 . S
C151 C145 1.516 . S
H152 C138 0.930 . S
H153 C139 0.931 . S
H154 C140 0.931 . S
H155 C141 0.933 . S
H156 C147 0.930 . S
H157 C148 0.931 . S
H158 C149 0.931 . S
H159 C150 0.933 . S
H160 C178 0.951 . S
H161 C180 0.951 . S
H162 C182 0.950 . S
H163 C183 0.950 . S
H164 C185 0.950 . S
H165 C188 0.950 . S
H166 C189 0.950 . S
H167 C191 0.950 . S
H168 C192 0.950 . S
H169 C193 0.951 . S
H170 C195 0.951 . S
H171 C197 0.950 . S
H172 C198 0.950 . S
H173 C200 0.965 . S
H174 C203 0.950 . S
H175 C204 0.950 . S
H176 C206 0.950 . S
H177 C207 0.950 . S
C178 H160 0.951 . S
C178 C179 1.366 . S
C178 C180 1.388 . S
C179 C178 1.366 . S
C179 C183 1.385 . S
C180 H161 0.951 . S
C180 C178 1.388 . S
C180 C181 1.366 . S
C181 C180 1.366 . S
C181 C182 1.414 . S
C181 C184 1.499 . S
C182 H162 0.950 . S
C182 C181 1.414 . S
C182 C183 1.374 . S
C183 H163 0.950 . S
C183 C179 1.385 . S
C183 C182 1.374 . S
C184 C181 1.499 . S
C184 C185 1.373 1_556 S
C184 C186 1.389 . S
C185 H164 0.950 . S
C185 C184 1.373 1_554 S
C185 C201 1.377 . S
C186 C184 1.389 . S
C186 C187 1.524 1_455 S
C186 C200 1.377 . S
C187 C186 1.524 1_655 S
C187 C188 1.397 . S
C187 C192 1.363 . S
C188 H165 0.950 . S
C188 C187 1.397 . S
C188 C189 1.334 . S
C189 H166 0.950 . S
C189 C188 1.334 . S
C189 C190 1.287 . S
C190 C189 1.287 . S
C190 C191 1.524 . S
C190 H209 0.913 . S
C191 H167 0.950 . S
C191 C190 1.524 . S
C191 C192 1.415 . S
C192 H168 0.950 . S
C192 C187 1.363 . S
C192 C191 1.415 . S
C193 H169 0.951 . S
C193 C194 1.366 . S
C193 C195 1.388 . S
C194 C193 1.366 . S
C194 C198 1.385 . S
C195 H170 0.951 . S
C195 C193 1.388 . S
C195 C196 1.366 . S
C196 C195 1.366 . S
C196 C197 1.414 . S
C196 C199 1.499 . S
C197 H171 0.950 . S
C197 C196 1.414 . S
C197 C198 1.374 . S
C198 H172 0.950 . S
C198 C194 1.385 . S
C198 C197 1.374 . S
C199 C196 1.499 . S
C199 C200 1.373 1_554 S
C199 C201 1.389 . S
C200 H173 0.965 . S
C200 C186 1.377 . S
C200 C199 1.373 1_556 S
C201 C185 1.377 . S
C201 C199 1.389 . S
C201 C202 1.524 . S
C202 C201 1.524 . S
C202 C203 1.397 . S
C202 C207 1.363 . S
C203 H174 0.950 . S
C203 C202 1.397 . S
C203 C204 1.334 . S
C204 H175 0.950 . S
C204 C203 1.334 . S
C204 C205 1.287 . S
C205 C204 1.287 . S
C205 C206 1.524 . S
C205 H208 0.999 . S
C206 H176 0.950 . S
C206 C205 1.524 . S
C206 C207 1.415 . S
C207 H177 0.950 . S
C207 C202 1.363 . S
C207 C206 1.415 . S
H208 C205 0.999 . S
H209 C190 0.913 . S
H210 C228 0.951 . S
H211 C230 0.951 1_556 S
H212 C232 0.950 . S
H213 C233 0.950 . S
H214 C235 0.950 . S
H215 C238 0.950 . S
H216 C239 0.950 . S
H217 C241 0.950 . S
H218 C242 0.950 . S
H219 C243 0.951 . S
H220 C245 0.951 1_554 S
H221 C247 0.950 . S
H222 C248 0.950 . S
H223 C250 0.950 . S
H224 C253 0.950 . S
H225 C254 0.950 . S
H226 C256 0.950 . S
H227 C257 0.950 . S
C228 H210 0.951 . S
C228 C229 1.366 . S
C228 C230 1.388 . S
C229 C228 1.366 . S
C229 C233 1.385 . S
C230 H211 0.951 1_554 S
C230 C228 1.388 . S
C230 C231 1.366 . S
C231 C230 1.366 . S
C231 C232 1.414 . S
C231 C234 1.499 . S
C232 H212 0.950 . S
C232 C231 1.414 . S
C232 C233 1.374 . S
C233 H213 0.950 . S
C233 C229 1.385 . S
C233 C232 1.374 . S
C234 C231 1.499 . S
C234 C235 1.373 . S
C234 C236 1.389 1_554 S
C235 H214 0.950 . S
C235 C234 1.373 . S
C235 C251 1.377 . S
C236 C234 1.389 1_556 S
C236 C237 1.524 . S
C236 C250 1.377 . S
C237 C236 1.524 . S
C237 C238 1.397 1_556 S
C237 C242 1.363 . S
C238 H215 0.950 . S
C238 C237 1.397 1_554 S
C238 C239 1.334 . S
C239 H216 0.950 . S
C239 C238 1.334 . S
C239 C240 1.287 1_554 S
C240 C239 1.287 1_556 S
C240 C241 1.524 . S
C240 H259 0.913 . S
C241 H217 0.950 . S
C241 C240 1.524 . S
C241 C242 1.415 . S
C242 H218 0.950 . S
C242 C237 1.363 . S
C242 C241 1.415 . S
C243 H219 0.951 . S
C243 C244 1.366 . S
C243 C245 1.388 . S
C244 C243 1.366 . S
C244 C248 1.385 . S
C245 H220 0.951 1_556 S
C245 C243 1.388 . S
C245 C246 1.366 . S
C246 C245 1.366 . S
C246 C247 1.414 . S
C246 C249 1.499 . S
C247 H221 0.950 . S
C247 C246 1.414 . S
C247 C248 1.374 . S
C248 H222 0.950 . S
C248 C244 1.385 . S
C248 C247 1.374 . S
C249 C246 1.499 . S
C249 C250 1.373 . S
C249 C251 1.389 1_556 S
C250 H223 0.950 . S
C250 C236 1.377 . S
C250 C249 1.373 . S
C251 C235 1.377 . S
C251 C249 1.389 1_554 S
C251 C252 1.524 . S
C252 C251 1.524 . S
C252 C253 1.397 1_554 S
C252 C257 1.363 . S
C253 H224 0.950 . S
C253 C252 1.397 1_556 S
C253 C254 1.334 . S
C254 H225 0.950 . S
C254 C253 1.334 . S
C254 C255 1.287 1_556 S
C255 C254 1.287 1_554 S
C255 C256 1.524 . S
C255 H258 0.999 . S
C256 H226 0.950 . S
C256 C255 1.524 . S
C256 C257 1.415 . S
C257 H227 0.950 . S
C257 C252 1.363 . S
C257 C256 1.415 . S
H258 C255 0.999 . S
H259 C240 0.913 . S
H260 C278 0.951 . S
H261 C280 0.951 . S
H262 C282 0.950 . S
H263 C283 0.950 . S
H264 C285 0.950 . S
H265 C288 0.950 . S
H266 C289 0.950 . S
H267 C291 0.950 . S
H268 C292 0.950 . S
H269 C293 0.951 . S
H270 C295 0.951 . S
H271 C297 0.950 . S
H272 C298 0.950 . S
H273 C300 0.950 . S
H274 C303 0.950 . S
H275 C304 0.950 . S
H276 C306 0.950 . S
H277 C307 0.950 . S
C278 H260 0.951 . S
C278 C279 1.366 . S
C278 C280 1.388 . S
C279 C278 1.366 . S
C279 C283 1.385 . S
C280 H261 0.951 . S
C280 C278 1.388 . S
C280 C281 1.366 . S
C281 C280 1.366 . S
C281 C282 1.414 . S
C281 C284 1.499 . S
C282 H262 0.950 . S
C282 C281 1.414 . S
C282 C283 1.374 . S
C283 H263 0.950 . S
C283 C279 1.385 . S
C283 C282 1.374 . S
C284 C281 1.499 . S
C284 C285 1.373 . S
C284 C286 1.389 1_556 S
C285 H264 0.950 . S
C285 C284 1.373 . S
C285 C301 1.377 1_565 S
C286 C284 1.389 1_554 S
C286 C287 1.524 . S
C286 C300 1.377 1_565 S
C287 C286 1.524 . S
C287 C288 1.397 . S
C287 C292 1.363 . S
C288 H265 0.950 . S
C288 C287 1.397 . S
C288 C289 1.334 . S
C289 H266 0.950 . S
C289 C288 1.334 . S
C289 C290 1.287 . S
C290 C289 1.287 . S
C290 C291 1.524 . S
C290 H309 0.913 . S
C291 H267 0.950 . S
C291 C290 1.524 . S
C291 C292 1.415 . S
C292 H268 0.950 . S
C292 C287 1.363 . S
C292 C291 1.415 . S
C293 H269 0.951 . S
C293 C294 1.366 . S
C293 C295 1.388 . S
C294 C293 1.366 . S
C294 C298 1.385 . S
C295 H270 0.951 . S
C295 C293 1.388 . S
C295 C296 1.366 . S
C296 C295 1.366 . S
C296 C297 1.414 . S
C296 C299 1.499 . S
C297 H271 0.950 . S
C297 C296 1.414 . S
C297 C298 1.374 . S
C298 H272 0.950 . S
C298 C294 1.385 . S
C298 C297 1.374 . S
C299 C296 1.499 . S
C299 C300 1.373 . S
C299 C301 1.389 1_554 S
C300 H273 0.950 . S
C300 C286 1.377 1_545 S
C300 C299 1.373 . S
C301 C285 1.377 1_545 S
C301 C299 1.389 1_556 S
C301 C302 1.524 . S
C302 C301 1.524 . S
C302 C303 1.397 . S
C302 C307 1.363 . S
C303 H274 0.950 . S
C303 C302 1.397 . S
C303 C304 1.334 . S
C304 H275 0.950 . S
C304 C303 1.334 . S
C304 C305 1.287 . S
C305 C304 1.287 . S
C305 C306 1.524 . S
C305 H308 0.999 . S
C306 H276 0.950 . S
C306 C305 1.524 . S
C306 C307 1.415 . S
C307 H277 0.950 . S
C307 C302 1.363 . S
C307 C306 1.415 . S
H308 C305 0.999 . S
H309 C290 0.913 . S
H310 C328 0.951 . S
H311 C330 0.951 . S
H312 C332 0.950 . S
H313 C333 0.950 . S
H314 C335 0.950 . S
H315 C338 0.950 . S
H316 C339 0.950 . S
H317 C341 0.950 . S
H318 C342 0.950 1_556 S
H319 C343 0.951 . S
H320 C345 0.951 . S
H321 C347 0.950 . S
H322 C348 0.950 . S
H323 C350 0.950 . S
H324 C353 0.950 . S
H325 C354 0.950 . S
H326 C356 0.950 . S
H327 C357 0.950 1_554 S
C328 H310 0.951 . S
C328 C329 1.366 . S
C328 C330 1.388 . S
C329 C328 1.366 . S
C329 C333 1.385 . S
C330 H311 0.951 . S
C330 C328 1.388 . S
C330 C331 1.366 . S
C331 C330 1.366 . S
C331 C332 1.414 . S
C331 C334 1.499 . S
C332 H312 0.950 . S
C332 C331 1.414 . S
C332 C333 1.374 . S
C333 H313 0.950 . S
C333 C329 1.385 . S
C333 C332 1.374 . S
C334 C331 1.499 . S
C334 C335 1.373 . S
C334 C336 1.389 . S
C335 H314 0.950 . S
C335 C334 1.373 . S
C335 C351 1.377 1_564 S
C336 C334 1.389 . S
C336 C337 1.524 . S
C336 C350 1.377 1_564 S
C337 C336 1.524 . S
C337 C338 1.397 . S
C337 C342 1.363 . S
C338 H315 0.950 . S
C338 C337 1.397 . S
C338 C339 1.334 . S
C339 H316 0.950 . S
C339 C338 1.334 . S
C339 C340 1.287 . S
C340 C339 1.287 . S
C340 C341 1.524 . S
C340 H359 0.913 . S
C341 H317 0.950 . S
C341 C340 1.524 . S
C341 C342 1.415 . S
C342 H318 0.950 1_554 S
C342 C337 1.363 . S
C342 C341 1.415 . S
C343 H319 0.951 . S
C343 C344 1.366 . S
C343 C345 1.388 . S
C344 C343 1.366 . S
C344 C348 1.385 . S
C345 H320 0.951 . S
C345 C343 1.388 . S
C345 C346 1.366 . S
C346 C345 1.366 . S
C346 C347 1.414 . S
C346 C349 1.499 . S
C347 H321 0.950 . S
C347 C346 1.414 . S
C347 C348 1.374 . S
C348 H322 0.950 . S
C348 C344 1.385 . S
C348 C347 1.374 . S
C349 C346 1.499 . S
C349 C350 1.373 . S
C349 C351 1.389 . S
C350 H323 0.950 . S
C350 C336 1.377 1_546 S
C350 C349 1.373 . S
C351 C335 1.377 1_546 S
C351 C349 1.389 . S
C351 C352 1.524 1_455 S
C352 C351 1.524 1_655 S
C352 C353 1.397 . S
C352 C357 1.363 . S
C353 H324 0.950 . S
C353 C352 1.397 . S
C353 C354 1.334 . S
C354 H325 0.950 . S
C354 C353 1.334 . S
C354 C355 1.287 . S
C355 C354 1.287 . S
C355 C356 1.524 . S
C355 H358 0.999 . S
C356 H326 0.950 . S
C356 C355 1.524 . S
C356 C357 1.415 . S
C357 H327 0.950 1_556 S
C357 C352 1.363 . S
C357 C356 1.415 . S
H358 C355 0.999 . S
H359 C340 0.913 . S
H360 C378 0.951 . S
H361 C380 0.951 . S
H362 C382 0.950 . S
H363 C383 0.950 . S
H364 C385 0.950 . S
H365 C388 0.950 . S
H366 C389 0.950 . S
H367 C391 0.950 . S
H368 C392 0.950 . S
H369 C393 0.951 . S
H370 C395 0.951 . S
H371 C397 0.950 . S
H372 C398 0.950 . S
H373 C400 0.950 . S
H374 C403 0.950 . S
H375 C404 0.950 . S
H376 C406 0.950 . S
H377 C407 0.950 . S
C378 H360 0.951 . S
C378 C379 1.366 . S
C378 C380 1.388 . S
C379 C378 1.366 . S
C379 C383 1.385 . S
C380 H361 0.951 . S
C380 C378 1.388 . S
C380 C381 1.366 . S
C381 C380 1.366 . S
C381 C382 1.414 . S
C381 C384 1.499 . S
C382 H362 0.950 . S
C382 C381 1.414 . S
C382 C383 1.374 . S
C383 H363 0.950 . S
C383 C379 1.385 . S
C383 C382 1.374 . S
C384 C381 1.499 . S
C384 C385 1.373 . S
C384 C386 1.389 . S
C385 H364 0.950 . S
C385 C384 1.373 . S
C385 C401 1.377 . S
C386 C384 1.389 . S
C386 C387 1.524 . S
C386 C400 1.377 . S
C387 C386 1.524 . S
C387 C388 1.397 . S
C387 C392 1.363 . S
C388 H365 0.950 . S
C388 C387 1.397 . S
C388 C389 1.334 . S
C389 H366 0.950 . S
C389 C388 1.334 . S
C389 C390 1.287 . S
C390 C389 1.287 . S
C390 C391 1.524 . S
C390 H409 0.913 . S
C391 H367 0.950 . S
C391 C390 1.524 . S
C391 C392 1.415 . S
C392 H368 0.950 . S
C392 C387 1.363 . S
C392 C391 1.415 . S
C393 H369 0.951 . S
C393 C394 1.366 . S
C393 C395 1.388 . S
C394 C393 1.366 . S
C394 C398 1.385 . S
C395 H370 0.951 . S
C395 C393 1.388 . S
C395 C396 1.366 . S
C396 C395 1.366 . S
C396 C397 1.414 . S
C396 C399 1.499 . S
C397 H371 0.950 . S
C397 C396 1.414 . S
C397 C398 1.374 . S
C398 H372 0.950 . S
C398 C394 1.385 . S
C398 C397 1.374 . S
C399 C396 1.499 . S
C399 C400 1.373 . S
C399 C401 1.389 . S
C400 H373 0.950 . S
C400 C386 1.377 . S
C400 C399 1.373 . S
C401 C385 1.377 . S
C401 C399 1.389 . S
C401 C402 1.524 . S
C402 C401 1.524 . S
C402 C403 1.397 . S
C402 C407 1.363 . S
C403 H374 0.950 . S
C403 C402 1.397 . S
C403 C404 1.334 . S
C404 H375 0.950 . S
C404 C403 1.334 . S
C404 C405 1.287 . S
C405 C404 1.287 . S
C405 C406 1.524 . S
C405 H408 0.999 . S
C406 H376 0.950 . S
C406 C405 1.524 . S
C406 C407 1.415 . S
C407 H377 0.950 . S
C407 C402 1.363 . S
C407 C406 1.415 . S
H408 C405 0.999 . S
H409 C390 0.913 . S
H410 C428 0.951 . S
H411 C430 0.951 . S
H412 C432 0.950 . S
H413 C433 0.950 . S
H414 C435 0.950 . S
H415 C438 0.950 . S
H416 C439 0.950 . S
H417 C441 0.950 . S
H418 C442 0.950 . S
H419 C443 0.951 . S
H420 C445 0.951 . S
H421 C447 0.950 . S
H422 C448 0.950 . S
H423 C450 0.950 . S
H424 C453 0.950 . S
H425 C454 0.950 . S
H426 C456 0.950 . S
H427 C457 0.950 . S
C428 H410 0.951 . S
C428 C429 1.366 . S
C428 C430 1.388 . S
C429 C428 1.366 . S
C429 C433 1.385 . S
C430 H411 0.951 . S
C430 C428 1.388 . S
C430 C431 1.366 . S
C431 C430 1.366 . S
C431 C432 1.414 . S
C431 C434 1.499 . S
C432 H412 0.950 . S
C432 C431 1.414 . S
C432 C433 1.374 . S
C433 H413 0.950 . S
C433 C429 1.385 . S
C433 C432 1.374 . S
C434 C431 1.499 . S
C434 C435 1.373 . S
C434 C436 1.389 . S
C435 H414 0.950 . S
C435 C434 1.373 . S
C435 C451 1.377 . S
C436 C434 1.389 . S
C436 C437 1.524 . S
C436 C450 1.377 . S
C437 C436 1.524 . S
C437 C438 1.397 . S
C437 C442 1.363 . S
C438 H415 0.950 . S
C438 C437 1.397 . S
C438 C439 1.334 . S
C439 H416 0.950 . S
C439 C438 1.334 . S
C439 C440 1.287 . S
C440 C439 1.287 . S
C440 C441 1.524 . S
C440 H459 0.913 . S
C441 H417 0.950 . S
C441 C440 1.524 . S
C441 C442 1.415 . S
C442 H418 0.950 . S
C442 C437 1.363 . S
C442 C441 1.415 . S
C443 H419 0.951 . S
C443 C444 1.366 . S
C443 C445 1.388 . S
C444 C443 1.366 . S
C444 C448 1.385 . S
C445 H420 0.951 . S
C445 C443 1.388 . S
C445 C446 1.366 . S
C446 C445 1.366 . S
C446 C447 1.414 . S
C446 C449 1.499 . S
C447 H421 0.950 . S
C447 C446 1.414 . S
C447 C448 1.374 . S
C448 H422 0.950 . S
C448 C444 1.385 . S
C448 C447 1.374 . S
C449 C446 1.499 . S
C449 C450 1.373 . S
C449 C451 1.389 . S
C450 H423 0.950 . S
C450 C436 1.377 . S
C450 C449 1.373 . S
C451 C435 1.377 . S
C451 C449 1.389 . S
C451 C452 1.524 . S
C452 C451 1.524 . S
C452 C453 1.397 . S
C452 C457 1.363 . S
C453 H424 0.950 . S
C453 C452 1.397 . S
C453 C454 1.334 . S
C454 H425 0.950 . S
C454 C453 1.334 . S
C454 C455 1.287 . S
C455 C454 1.287 . S
C455 C456 1.524 . S
C455 H458 0.999 . S
C456 H426 0.950 . S
C456 C455 1.524 . S
C456 C457 1.415 . S
C457 H427 0.950 . S
C457 C452 1.363 . S
C457 C456 1.415 . S
H458 C455 0.999 . S
H459 C440 0.913 . S
H460 C478 0.951 . S
H461 C480 0.951 . S
H462 C482 0.950 . S
H463 C483 0.950 . S
H464 C485 0.950 . S
H465 C488 0.950 . S
H466 C489 0.950 . S
H467 C491 0.950 . S
H468 C492 0.950 . S
H469 C493 0.951 . S
H470 C495 0.951 . S
H471 C497 0.950 . S
H472 C498 0.950 . S
H473 C500 0.950 . S
H474 C503 0.950 . S
H475 C504 0.950 . S
H476 C506 0.950 . S
H477 C507 0.950 . S
C478 H460 0.951 . S
C478 C479 1.366 . S
C478 C480 1.388 . S
C479 C478 1.366 . S
C479 C483 1.385 . S
C480 H461 0.951 . S
C480 C478 1.388 . S
C480 C481 1.366 . S
C481 C480 1.366 . S
C481 C482 1.414 . S
C481 C484 1.499 . S
C482 H462 0.950 . S
C482 C481 1.414 . S
C482 C483 1.374 . S
C483 H463 0.950 . S
C483 C479 1.385 . S
C483 C482 1.374 . S
C484 C481 1.499 . S
C484 C485 1.373 . S
C484 C486 1.389 . S
C485 H464 0.950 . S
C485 C484 1.373 . S
C485 C501 1.377 . S
C486 C484 1.389 . S
C486 C487 1.524 . S
C486 C500 1.377 . S
C487 C486 1.524 . S
C487 C488 1.397 . S
C487 C492 1.363 . S
C488 H465 0.950 . S
C488 C487 1.397 . S
C488 C489 1.334 . S
C489 H466 0.950 . S
C489 C488 1.334 . S
C489 C490 1.287 . S
C490 C489 1.287 . S
C490 C491 1.524 . S
C490 H509 0.913 . S
C491 H467 0.950 . S
C491 C490 1.524 . S
C491 C492 1.415 . S
C492 H468 0.950 . S
C492 C487 1.363 . S
C492 C491 1.415 . S
C493 H469 0.951 . S
C493 C494 1.366 . S
C493 C495 1.388 . S
C494 C493 1.366 . S
C494 C498 1.385 . S
C495 H470 0.951 . S
C495 C493 1.388 . S
C495 C496 1.366 . S
C496 C495 1.366 . S
C496 C497 1.414 . S
C496 C499 1.499 . S
C497 H471 0.950 . S
C497 C496 1.414 . S
C497 C498 1.374 . S
C498 H472 0.950 . S
C498 C494 1.385 . S
C498 C497 1.374 . S
C499 C496 1.499 . S
C499 C500 1.373 . S
C499 C501 1.389 . S
C500 H473 0.950 . S
C500 C486 1.377 . S
C500 C499 1.373 . S
C501 C485 1.377 . S
C501 C499 1.389 . S
C501 C502 1.524 . S
C502 C501 1.524 . S
C502 C503 1.397 . S
C502 C507 1.363 . S
C503 H474 0.950 . S
C503 C502 1.397 . S
C503 C504 1.334 . S
C504 H475 0.950 . S
C504 C503 1.334 . S
C504 C505 1.287 . S
C505 C504 1.287 . S
C505 C506 1.524 . S
C505 H508 0.999 . S
C506 H476 0.950 . S
C506 C505 1.524 . S
C506 C507 1.415 . S
C507 H477 0.950 . S
C507 C502 1.363 . S
C507 C506 1.415 . S
H508 C505 0.999 . S
H509 C490 0.913 . S
H510 C528 0.951 . S
H511 C530 0.951 . S
H512 C532 0.950 . S
H513 C533 0.950 . S
H514 C535 0.950 . S
H515 C538 0.950 . S
H516 C539 0.950 . S
H517 C541 0.950 . S
H518 C542 0.950 . S
H519 C543 0.951 . S
H520 C545 0.951 . S
H521 C547 0.950 . S
H522 C548 0.950 . S
H523 C550 0.950 . S
H524 C553 0.950 . S
H525 C554 0.950 . S
H526 C556 0.950 . S
H527 C557 0.950 . S
C528 H510 0.951 . S
C528 C529 1.366 . S
C528 C530 1.388 . S
C529 C528 1.366 . S
C529 C533 1.385 . S
C530 H511 0.951 . S
C530 C528 1.388 . S
C530 C531 1.366 . S
C531 C530 1.366 . S
C531 C532 1.414 . S
C531 C534 1.499 . S
C532 H512 0.950 . S
C532 C531 1.414 . S
C532 C533 1.374 . S
C533 H513 0.950 . S
C533 C529 1.385 . S
C533 C532 1.374 . S
C534 C531 1.499 . S
C534 C535 1.373 . S
C534 C536 1.389 . S
C535 H514 0.950 . S
C535 C534 1.373 . S
C535 C551 1.377 . S
C536 C534 1.389 . S
C536 C537 1.524 . S
C536 C550 1.377 . S
C537 C536 1.524 . S
C537 C538 1.397 . S
C537 C542 1.363 . S
C538 H515 0.950 . S
C538 C537 1.397 . S
C538 C539 1.334 . S
C539 H516 0.950 . S
C539 C538 1.334 . S
C539 C540 1.287 . S
C540 C539 1.287 . S
C540 C541 1.524 . S
C540 H559 0.913 . S
C541 H517 0.950 . S
C541 C540 1.524 . S
C541 C542 1.415 . S
C542 H518 0.950 . S
C542 C537 1.363 . S
C542 C541 1.415 . S
C543 H519 0.951 . S
C543 C544 1.366 . S
C543 C545 1.388 . S
C544 C543 1.366 . S
C544 C548 1.385 . S
C545 H520 0.951 . S
C545 C543 1.388 . S
C545 C546 1.366 . S
C546 C545 1.366 . S
C546 C547 1.414 . S
C546 C549 1.499 . S
C547 H521 0.950 . S
C547 C546 1.414 . S
C547 C548 1.374 . S
C548 H522 0.950 . S
C548 C544 1.385 . S
C548 C547 1.374 . S
C549 C546 1.499 . S
C549 C550 1.373 . S
C549 C551 1.389 . S
C550 H523 0.950 . S
C550 C536 1.377 . S
C550 C549 1.373 . S
C551 C535 1.377 . S
C551 C549 1.389 . S
C551 C552 1.524 . S
C552 C551 1.524 . S
C552 C553 1.397 . S
C552 C557 1.363 . S
C553 H524 0.950 . S
C553 C552 1.397 . S
C553 C554 1.334 . S
C554 H525 0.950 . S
C554 C553 1.334 . S
C554 C555 1.287 . S
C555 C554 1.287 . S
C555 C556 1.524 . S
C555 H558 0.999 . S
C556 H526 0.950 . S
C556 C555 1.524 . S
C556 C557 1.415 . S
C557 H527 0.950 . S
C557 C552 1.363 . S
C557 C556 1.415 . S
H558 C555 0.999 . S
H559 C540 0.913 . S
H560 C578 0.951 1_556 S
H561 C580 0.951 . S
H562 C582 0.950 . S
H563 C583 0.950 . S
H564 C585 0.950 . S
H565 C588 0.950 . S
H566 C589 0.950 . S
H567 C591 0.950 . S
H568 C592 0.950 . S
H569 C593 0.951 1_554 S
H570 C595 0.951 . S
H571 C597 0.950 . S
H572 C598 0.950 . S
H573 C600 0.950 . S
H574 C603 0.950 . S
H575 C604 0.950 . S
H576 C606 0.950 . S
H577 C607 0.950 . S
C578 H560 0.951 1_554 S
C578 C579 1.366 . S
C578 C580 1.388 1_554 S
C579 C578 1.366 . S
C579 C583 1.385 . S
C580 H561 0.951 . S
C580 C578 1.388 1_556 S
C580 C581 1.366 1_556 S
C581 C580 1.366 1_554 S
C581 C582 1.414 . S
C581 C584 1.499 . S
C582 H562 0.950 . S
C582 C581 1.414 . S
C582 C583 1.374 . S
C583 H563 0.950 . S
C583 C579 1.385 . S
C583 C582 1.374 . S
C584 C581 1.499 . S
C584 C585 1.373 . S
C584 C586 1.389 1_554 S
C585 H564 0.950 . S
C585 C584 1.373 . S
C585 C601 1.377 . S
C586 C584 1.389 1_556 S
C586 C587 1.524 . S
C586 C600 1.377 . S
C587 C586 1.524 . S
C587 C588 1.397 . S
C587 C592 1.363 . S
C588 H565 0.950 . S
C588 C587 1.397 . S
C588 C589 1.334 . S
C589 H566 0.950 . S
C589 C588 1.334 . S
C589 C590 1.287 . S
C590 C589 1.287 . S
C590 C591 1.524 . S
C590 H609 0.913 . S
C591 H567 0.950 . S
C591 C590 1.524 . S
C591 C592 1.415 . S
C592 H568 0.950 . S
C592 C587 1.363 . S
C592 C591 1.415 . S
C593 H569 0.951 1_556 S
C593 C594 1.366 . S
C593 C595 1.388 1_556 S
C594 C593 1.366 . S
C594 C598 1.385 . S
C595 H570 0.951 . S
C595 C593 1.388 1_554 S
C595 C596 1.366 1_554 S
C596 C595 1.366 1_556 S
C596 C597 1.414 . S
C596 C599 1.499 . S
C597 H571 0.950 . S
C597 C596 1.414 . S
C597 C598 1.374 . S
C598 H572 0.950 . S
C598 C594 1.385 . S
C598 C597 1.374 . S
C599 C596 1.499 . S
C599 C600 1.373 . S
C599 C601 1.389 1_556 S
C600 H573 0.950 . S
C600 C586 1.377 . S
C600 C599 1.373 . S
C601 C585 1.377 . S
C601 C599 1.389 1_554 S
C601 C602 1.524 . S
C602 C601 1.524 . S
C602 C603 1.397 . S
C602 C607 1.363 . S
C603 H574 0.950 . S
C603 C602 1.397 . S
C603 C604 1.334 . S
C604 H575 0.950 . S
C604 C603 1.334 . S
C604 C605 1.287 . S
C605 C604 1.287 . S
C605 C606 1.524 . S
C605 H608 0.999 . S
C606 H576 0.950 . S
C606 C605 1.524 . S
C606 C607 1.415 . S
C607 H577 0.950 . S
C607 C602 1.363 . S
C607 C606 1.415 . S
H608 C605 0.999 . S
H609 C590 0.913 . S
H610 C628 0.951 . S
H611 C630 0.951 . S
H612 C632 0.950 . S
H613 C633 0.950 . S
H614 C635 0.950 . S
H615 C638 0.950 . S
H616 C639 0.950 . S
H617 C641 0.950 . S
H618 C642 0.950 . S
H619 C643 0.951 . S
H620 C645 0.951 . S
H621 C647 0.950 . S
H622 C648 0.950 . S
H623 C650 0.950 . S
H624 C653 0.950 . S
H625 C654 0.950 . S
H626 C656 0.950 . S
H627 C657 0.950 . S
C628 H610 0.951 . S
C628 C629 1.366 1_554 S
C628 C630 1.388 . S
C629 C628 1.366 1_556 S
C629 C633 1.385 . S
C630 H611 0.951 . S
C630 C628 1.388 . S
C630 C631 1.366 1_554 S
C631 C630 1.366 1_556 S
C631 C632 1.414 . S
C631 C634 1.499 . S
C632 H612 0.950 . S
C632 C631 1.414 . S
C632 C633 1.374 . S
C633 H613 0.950 . S
C633 C629 1.385 . S
C633 C632 1.374 . S
C634 C631 1.499 . S
C634 C635 1.373 . S
C634 C636 1.389 1_556 S
C635 H614 0.950 . S
C635 C634 1.373 . S
C635 C651 1.377 . S
C636 C634 1.389 1_554 S
C636 C637 1.524 . S
C636 C650 1.377 . S
C637 C636 1.524 . S
C637 C638 1.397 . S
C637 C642 1.363 . S
C638 H615 0.950 . S
C638 C637 1.397 . S
C638 C639 1.334 . S
C639 H616 0.950 . S
C639 C638 1.334 . S
C639 C640 1.287 . S
C640 C639 1.287 . S
C640 C641 1.524 . S
C640 H659 0.913 . S
C641 H617 0.950 . S
C641 C640 1.524 . S
C641 C642 1.415 . S
C642 H618 0.950 . S
C642 C637 1.363 . S
C642 C641 1.415 . S
C643 H619 0.951 . S
C643 C644 1.366 1_556 S
C643 C645 1.388 . S
C644 C643 1.366 1_554 S
C644 C648 1.385 . S
C645 H620 0.951 . S
C645 C643 1.388 . S
C645 C646 1.366 1_556 S
C646 C645 1.366 1_554 S
C646 C647 1.414 . S
C646 C649 1.499 . S
C647 H621 0.950 . S
C647 C646 1.414 . S
C647 C648 1.374 . S
C648 H622 0.950 . S
C648 C644 1.385 . S
C648 C647 1.374 . S
C649 C646 1.499 . S
C649 C650 1.373 . S
C649 C651 1.389 1_554 S
C650 H623 0.950 . S
C650 C636 1.377 . S
C650 C649 1.373 . S
C651 C635 1.377 . S
C651 C649 1.389 1_556 S
C651 C652 1.524 . S
C652 C651 1.524 . S
C652 C653 1.397 . S
C652 C657 1.363 . S
C653 H624 0.950 . S
C653 C652 1.397 . S
C653 C654 1.334 . S
C654 H625 0.950 . S
C654 C653 1.334 . S
C654 C655 1.287 . S
C655 C654 1.287 . S
C655 C656 1.524 . S
C655 H658 0.999 . S
C656 H626 0.950 . S
C656 C655 1.524 . S
C656 C657 1.415 . S
C657 H627 0.950 . S
C657 C652 1.363 . S
C657 C656 1.415 . S
H658 C655 0.999 . S
H659 C640 0.913 . S
H660 C678 0.951 . S
H661 C680 0.951 . S
H662 C682 0.950 1_554 S
H663 C683 0.950 1_554 S
H664 C685 0.950 . S
H665 C688 0.950 . S
H666 C689 0.950 . S
H667 C691 0.950 . S
H668 C692 0.950 1_556 S
H669 C693 0.951 . S
H670 C695 0.951 . S
H671 C697 0.950 1_556 S
H672 C698 0.950 1_556 S
H673 C700 0.950 . S
H674 C703 0.950 . S
H675 C704 0.950 . S
H676 C706 0.950 . S
H677 C707 0.950 1_554 S
C678 H660 0.951 . S
C678 C679 1.366 . S
C678 C680 1.388 . S
C679 C678 1.366 . S
C679 C683 1.385 . S
C680 H661 0.951 . S
C680 C678 1.388 . S
C680 C681 1.366 . S
C681 C680 1.366 . S
C681 C682 1.414 . S
C681 C684 1.499 . S
C682 H662 0.950 1_556 S
C682 C681 1.414 . S
C682 C683 1.374 . S
C683 H663 0.950 1_556 S
C683 C679 1.385 . S
C683 C682 1.374 . S
C684 C681 1.499 . S
C684 C685 1.373 . S
C684 C686 1.389 1_556 S
C685 H664 0.950 . S
C685 C684 1.373 . S
C685 C701 1.377 . S
C686 C684 1.389 1_554 S
C686 C687 1.524 . S
C686 C700 1.377 . S
C687 C686 1.524 . S
C687 C688 1.397 . S
C687 C692 1.363 . S
C688 H665 0.950 . S
C688 C687 1.397 . S
C688 C689 1.334 . S
C689 H666 0.950 . S
C689 C688 1.334 . S
C689 C690 1.287 . S
C690 C689 1.287 . S
C690 C691 1.524 . S
C690 H709 0.913 . S
C691 H667 0.950 . S
C691 C690 1.524 . S
C691 C692 1.415 . S
C692 H668 0.950 1_554 S
C692 C687 1.363 . S
C692 C691 1.415 . S
C693 H669 0.951 . S
C693 C694 1.366 . S
C693 C695 1.388 . S
C694 C693 1.366 . S
C694 C698 1.385 . S
C695 H670 0.951 . S
C695 C693 1.388 . S
C695 C696 1.366 . S
C696 C695 1.366 . S
C696 C697 1.414 . S
C696 C699 1.499 . S
C697 H671 0.950 1_554 S
C697 C696 1.414 . S
C697 C698 1.374 . S
C698 H672 0.950 1_554 S
C698 C694 1.385 . S
C698 C697 1.374 . S
C699 C696 1.499 . S
C699 C700 1.373 . S
C699 C701 1.389 1_554 S
C700 H673 0.950 . S
C700 C686 1.377 . S
C700 C699 1.373 . S
C701 C685 1.377 . S
C701 C699 1.389 1_556 S
C701 C702 1.524 . S
C702 C701 1.524 . S
C702 C703 1.397 . S
C702 C707 1.363 . S
C703 H674 0.950 . S
C703 C702 1.397 . S
C703 C704 1.334 . S
C704 H675 0.950 . S
C704 C703 1.334 . S
C704 C705 1.287 . S
C705 C704 1.287 . S
C705 C706 1.524 . S
C705 H708 0.999 . S
C706 H676 0.950 . S
C706 C705 1.524 . S
C706 C707 1.415 . S
C707 H677 0.950 1_556 S
C707 C702 1.363 . S
C707 C706 1.415 . S
H708 C705 0.999 . S
H709 C690 0.913 . S
H710 C728 0.951 . S
H711 C730 0.951 . S
H712 C732 0.950 . S
H713 C733 0.950 . S
H714 C735 0.950 . S
H715 C738 0.950 . S
H716 C739 0.950 . S
H717 C741 0.950 . S
H718 C742 0.950 . S
H719 C743 0.951 . S
H720 C745 0.951 . S
H721 C747 0.950 . S
H722 C748 0.950 . S
H723 C750 0.950 . S
H724 C753 0.950 . S
H725 C754 0.950 . S
H726 C756 0.950 . S
H727 C757 0.950 . S
C728 H710 0.951 . S
C728 C729 1.366 . S
C728 C730 1.388 . S
C729 C728 1.366 . S
C729 C733 1.385 . S
C730 H711 0.951 . S
C730 C728 1.388 . S
C730 C731 1.366 . S
C731 C730 1.366 . S
C731 C732 1.414 . S
C731 C734 1.499 . S
C732 H712 0.950 . S
C732 C731 1.414 . S
C732 C733 1.374 . S
C733 H713 0.950 . S
C733 C729 1.385 . S
C733 C732 1.374 . S
C734 C731 1.499 . S
C734 C735 1.373 1_554 S
C734 C736 1.389 . S
C735 H714 0.950 . S
C735 C734 1.373 1_556 S
C735 C751 1.377 . S
C736 C734 1.389 . S
C736 C737 1.524 . S
C736 C750 1.377 . S
C737 C736 1.524 . S
C737 C738 1.397 . S
C737 C742 1.363 . S
C738 H715 0.950 . S
C738 C737 1.397 . S
C738 C739 1.334 . S
C739 H716 0.950 . S
C739 C738 1.334 . S
C739 C740 1.287 . S
C740 C739 1.287 . S
C740 C741 1.524 . S
C740 H759 0.913 . S
C741 H717 0.950 . S
C741 C740 1.524 . S
C741 C742 1.415 . S
C742 H718 0.950 . S
C742 C737 1.363 . S
C742 C741 1.415 . S
C743 H719 0.951 . S
C743 C744 1.366 . S
C743 C745 1.388 . S
C744 C743 1.366 . S
C744 C748 1.385 . S
C745 H720 0.951 . S
C745 C743 1.388 . S
C745 C746 1.366 . S
C746 C745 1.366 . S
C746 C747 1.414 . S
C746 C749 1.499 . S
C747 H721 0.950 . S
C747 C746 1.414 . S
C747 C748 1.374 . S
C748 H722 0.950 . S
C748 C744 1.385 . S
C748 C747 1.374 . S
C749 C746 1.499 . S
C749 C750 1.373 1_556 S
C749 C751 1.389 . S
C750 H723 0.950 . S
C750 C736 1.377 . S
C750 C749 1.373 1_554 S
C751 C735 1.377 . S
C751 C749 1.389 . S
C751 C752 1.524 . S
C752 C751 1.524 . S
C752 C753 1.397 . S
C752 C757 1.363 . S
C753 H724 0.950 . S
C753 C752 1.397 . S
C753 C754 1.334 . S
C754 H725 0.950 . S
C754 C753 1.334 . S
C754 C755 1.287 . S
C755 C754 1.287 . S
C755 C756 1.524 . S
C755 H758 0.999 . S
C756 H726 0.950 . S
C756 C755 1.524 . S
C756 C757 1.415 . S
C757 H727 0.950 . S
C757 C752 1.363 . S
C757 C756 1.415 . S
H758 C755 0.999 . S
H759 C740 0.913 . S
C179 C103 1.894 . S
C194 C2 1.894 . S
C229 C63 2.472 . S
C244 C122 2.472 . S
C279 C143 1.895 . S
C294 C42 1.895 . S
C329 C23 2.472 . S
C344 C82 2.472 . S
C379 C144 1.586 . S
C394 C13 1.586 . S
C429 C106 1.580 . S
C444 C57 1.580 . S
C479 C104 1.587 . S
C494 C53 1.587 . S
C529 C17 1.580 . S
C544 C146 1.580 . S
C579 C137 0.489 . S
C594 C26 0.489 . S
C629 C93 1.664 . S
C644 C64 1.664 . S
C679 C66 0.489 . S
C694 C97 0.489 . S
C729 C24 1.665 . S
C744 C133 1.665 . S
