# Generated by pormake.
# Topology wmi, (6)-cn, num edge types: 1
# Building blocks:
#     Node 0, Type 0, BuildingBlock: VOLQOD_clean_sbu_1, # of connection points: 6
#     Node 1, Type 0, BuildingBlock: VOLQOD_clean_sbu_1, # of connection points: 6
#     Node 2, Type 0, BuildingBlock: VOLQOD_clean_sbu_1, # of connection points: 6
#     Node 3, Type 0, BuildingBlock: VOLQOD_clean_sbu_1, # of connection points: 6
#     Node 4, Type 0, BuildingBlock: VOLQOD_clean_sbu_1, # of connection points: 6
#     Node 5, Type 0, BuildingBlock: VOLQOD_clean_sbu_1, # of connection points: 6
#     Node 6, Type 0, BuildingBlock: VOLQOD_clean_sbu_1, # of connection points: 6
#     Node 7, Type 0, BuildingBlock: VOLQOD_clean_sbu_1, # of connection points: 6
#     Node 8, Type 0, BuildingBlock: VOLQOD_clean_sbu_1, # of connection points: 6
#     Node 9, Type 0, BuildingBlock: VOLQOD_clean_sbu_1, # of connection points: 6
#     Node 10, Type 0, BuildingBlock: VOLQOD_clean_sbu_1, # of connection points: 6
#     Node 11, Type 0, BuildingBlock: VOLQOD_clean_sbu_1, # of connection points: 6
#     Node 12, Type 0, BuildingBlock: VOLQOD_clean_sbu_1, # of connection points: 6
#     Node 13, Type 0, BuildingBlock: VOLQOD_clean_sbu_1, # of connection points: 6
#     Node 14, Type 0, BuildingBlock: VOLQOD_clean_sbu_1, # of connection points: 6
#     Node 15, Type 0, BuildingBlock: VOLQOD_clean_sbu_1, # of connection points: 6
#     Node 16, Type 0, BuildingBlock: VOLQOD_clean_sbu_1, # of connection points: 6
#     Node 17, Type 0, BuildingBlock: VOLQOD_clean_sbu_1, # of connection points: 6
#     Edge 18, Type (0, 0), BuildingBlock: OJICUG_clean_linker_0, # of connection points: 2
#     Edge 19, Type (0, 0), BuildingBlock: OJICUG_clean_linker_0, # of connection points: 2
#     Edge 20, Type (0, 0), BuildingBlock: OJICUG_clean_linker_0, # of connection points: 2
#     Edge 21, Type (0, 0), BuildingBlock: OJICUG_clean_linker_0, # of connection points: 2
#     Edge 22, Type (0, 0), BuildingBlock: OJICUG_clean_linker_0, # of connection points: 2
#     Edge 23, Type (0, 0), BuildingBlock: OJICUG_clean_linker_0, # of connection points: 2
#     Edge 24, Type (0, 0), BuildingBlock: OJICUG_clean_linker_0, # of connection points: 2
#     Edge 25, Type (0, 0), BuildingBlock: OJICUG_clean_linker_0, # of connection points: 2
#     Edge 26, Type (0, 0), BuildingBlock: OJICUG_clean_linker_0, # of connection points: 2
#     Edge 27, Type (0, 0), BuildingBlock: OJICUG_clean_linker_0, # of connection points: 2
#     Edge 28, Type (0, 0), BuildingBlock: OJICUG_clean_linker_0, # of connection points: 2
#     Edge 29, Type (0, 0), BuildingBlock: OJICUG_clean_linker_0, # of connection points: 2
#     Edge 30, Type (0, 0), BuildingBlock: OJICUG_clean_linker_0, # of connection points: 2
#     Edge 31, Type (0, 0), BuildingBlock: OJICUG_clean_linker_0, # of connection points: 2
#     Edge 32, Type (0, 0), BuildingBlock: OJICUG_clean_linker_0, # of connection points: 2
#     Edge 33, Type (0, 0), BuildingBlock: OJICUG_clean_linker_0, # of connection points: 2
#     Edge 34, Type (0, 0), BuildingBlock: OJICUG_clean_linker_0, # of connection points: 2
#     Edge 35, Type (0, 0), BuildingBlock: OJICUG_clean_linker_0, # of connection points: 2
#     Edge 36, Type (0, 0), BuildingBlock: OJICUG_clean_linker_0, # of connection points: 2
#     Edge 37, Type (0, 0), BuildingBlock: OJICUG_clean_linker_0, # of connection points: 2
#     Edge 38, Type (0, 0), BuildingBlock: OJICUG_clean_linker_0, # of connection points: 2
#     Edge 39, Type (0, 0), BuildingBlock: OJICUG_clean_linker_0, # of connection points: 2
#     Edge 40, Type (0, 0), BuildingBlock: OJICUG_clean_linker_0, # of connection points: 2
#     Edge 41, Type (0, 0), BuildingBlock: OJICUG_clean_linker_0, # of connection points: 2
#     Edge 42, Type (0, 0), BuildingBlock: OJICUG_clean_linker_0, # of connection points: 2
#     Edge 43, Type (0, 0), BuildingBlock: OJICUG_clean_linker_0, # of connection points: 2
#     Edge 44, Type (0, 0), BuildingBlock: OJICUG_clean_linker_0, # of connection points: 2
#     Edge 45, Type (0, 0), BuildingBlock: OJICUG_clean_linker_0, # of connection points: 2
#     Edge 46, Type (0, 0), BuildingBlock: OJICUG_clean_linker_0, # of connection points: 2
#     Edge 47, Type (0, 0), BuildingBlock: OJICUG_clean_linker_0, # of connection points: 2
#     Edge 48, Type (0, 0), BuildingBlock: OJICUG_clean_linker_0, # of connection points: 2
#     Edge 49, Type (0, 0), BuildingBlock: OJICUG_clean_linker_0, # of connection points: 2
#     Edge 50, Type (0, 0), BuildingBlock: OJICUG_clean_linker_0, # of connection points: 2
#     Edge 51, Type (0, 0), BuildingBlock: OJICUG_clean_linker_0, # of connection points: 2
#     Edge 52, Type (0, 0), BuildingBlock: OJICUG_clean_linker_0, # of connection points: 2
#     Edge 53, Type (0, 0), BuildingBlock: OJICUG_clean_linker_0, # of connection points: 2
#     Edge 54, Type (0, 0), BuildingBlock: OJICUG_clean_linker_0, # of connection points: 2
#     Edge 55, Type (0, 0), BuildingBlock: OJICUG_clean_linker_0, # of connection points: 2
#     Edge 56, Type (0, 0), BuildingBlock: OJICUG_clean_linker_0, # of connection points: 2
#     Edge 57, Type (0, 0), BuildingBlock: OJICUG_clean_linker_0, # of connection points: 2
#     Edge 58, Type (0, 0), BuildingBlock: OJICUG_clean_linker_0, # of connection points: 2
#     Edge 59, Type (0, 0), BuildingBlock: OJICUG_clean_linker_0, # of connection points: 2
#     Edge 60, Type (0, 0), BuildingBlock: OJICUG_clean_linker_0, # of connection points: 2
#     Edge 61, Type (0, 0), BuildingBlock: OJICUG_clean_linker_0, # of connection points: 2
#     Edge 62, Type (0, 0), BuildingBlock: OJICUG_clean_linker_0, # of connection points: 2
#     Edge 63, Type (0, 0), BuildingBlock: OJICUG_clean_linker_0, # of connection points: 2
#     Edge 64, Type (0, 0), BuildingBlock: OJICUG_clean_linker_0, # of connection points: 2
#     Edge 65, Type (0, 0), BuildingBlock: OJICUG_clean_linker_0, # of connection points: 2
#     Edge 66, Type (0, 0), BuildingBlock: OJICUG_clean_linker_0, # of connection points: 2
#     Edge 67, Type (0, 0), BuildingBlock: OJICUG_clean_linker_0, # of connection points: 2
#     Edge 68, Type (0, 0), BuildingBlock: OJICUG_clean_linker_0, # of connection points: 2
#     Edge 69, Type (0, 0), BuildingBlock: OJICUG_clean_linker_0, # of connection points: 2
#     Edge 70, Type (0, 0), BuildingBlock: OJICUG_clean_linker_0, # of connection points: 2
#     Edge 71, Type (0, 0), BuildingBlock: OJICUG_clean_linker_0, # of connection points: 2
# Relax obj value: 0.313
# Max RMSD: 0.231
# Mean RMSD: 0.231
data_MOF--net-wmi--node1-VOLQOD_clean_sbu_1--edge1-OJICUG_clean_linker_0
_symmetry_space_group_name_H-M    P1
_symmetry_Int_Tables_number       1
_symmetry_cell_setting            triclinic
loop_
_symmetry_equiv_pos_as_xyz
'x, y, z'
_cell_length_a     24.20401
_cell_length_b     24.138029
_cell_length_c     75.616739
_cell_angle_alpha  90.145715
_cell_angle_beta   90.071332
_cell_angle_gamma 119.89426
loop_
_atom_site_label
_atom_site_type_symbol
_atom_site_fract_x
_atom_site_fract_y
_atom_site_fract_z
_atom_type_partial_charge
O0 O 0.55878 0.07713 0.09438 0.0
Zn1 Zn 0.47405 -0.00347 0.09407 0.0
O2 O 0.41922 -0.00231 0.07534 0.0
Zn3 Zn 0.34393 -0.00555 0.08493 0.0
Zn4 Zn 0.46641 0.07107 0.06115 0.0
Zn5 Zn 0.39515 0.92775 0.06 0.0
O6 O 0.26338 0.9197 0.07513 0.0
O7 O 0.3067 0.86377 0.06448 0.0
O8 O 0.42966 0.97724 0.11768 0.0
O9 O 0.33894 0.97376 0.11034 0.0
O10 O 0.35075 0.08136 0.08325 0.0
O11 O 0.44129 0.13409 0.06796 0.0
O12 O 0.45259 0.05507 0.03494 0.0
O13 O 0.5013 0.93244 0.08858 0.0
O14 O 0.39871 0.94962 0.03489 0.0
O15 O 0.45325 0.89354 0.06283 0.0
C16 C 0.58789 0.10701 0.08047 0.0
C17 C 0.25846 0.86827 0.0689 0.0
C18 C 0.39491 0.13237 0.07632 0.0
C19 C 0.37454 0.96806 0.12166 0.0
C20 C 0.4237 0.00218 0.02666 0.0
C21 C 0.49258 0.89891 0.07476 0.0
O22 O 0.55794 0.10479 0.06639 0.0
O23 O 0.90739 0.49859 0.09376 0.0
Zn24 Zn -0.01252 0.4929 0.09487 0.0
O25 O -0.01209 0.43621 0.07663 0.0
Zn26 Zn -0.01175 0.36311 0.08641 0.0
Zn27 Zn 0.91675 0.41089 0.06194 0.0
Zn28 Zn 0.05888 0.48046 0.0617 0.0
O29 O 0.06366 0.35652 0.07778 0.0
O30 O 0.12255 0.45719 0.06845 0.0
O31 O 0.00602 0.46871 0.11889 0.0
O32 O 0.00718 0.37976 0.11175 0.0
O33 O 0.90154 0.28352 0.08401 0.0
O34 O 0.8517 0.32483 0.06876 0.0
O35 O 0.93439 0.4066 0.03643 0.0
O36 O 0.05243 0.5834 0.08929 0.0
O37 O 0.03956 0.45595 0.03646 0.0
O38 O 0.09129 0.57337 0.06364 0.0
C39 C 0.88046 0.49875 0.07926 0.0
C40 C 0.11666 0.40378 0.07293 0.0
C41 C 0.8516 0.27878 0.07686 0.0
C42 C 0.01401 0.42191 0.12298 0.0
C43 C -0.01324 0.42633 0.02833 0.0
C44 C 0.08573 0.60774 0.07549 0.0
O45 O 0.88494 0.47098 0.06547 0.0
O46 O 0.48878 0.42681 0.0956 0.0
Zn47 Zn 0.49697 0.51452 0.09555 0.0
O48 O 0.54726 0.56502 0.07546 0.0
Zn49 Zn 0.62263 0.6417 0.08266 0.0
Zn50 Zn 0.56879 0.51465 0.06132 0.0
Zn51 Zn 0.49833 0.58673 0.06066 0.0
O52 O 0.62642 0.72021 0.07225 0.0
O53 O 0.52353 0.67597 0.06501 0.0
O54 O 0.53136 0.5653 0.11841 0.0
O55 O 0.61496 0.65346 0.10801 0.0
O56 O 0.70106 0.63336 0.0796 0.0
O57 O 0.65663 0.53725 0.06676 0.0
O58 O 0.56428 0.52748 0.0355 0.0
O59 O 0.405 0.48933 0.09205 0.0
O60 O 0.51257 0.58126 0.03511 0.0
O61 O 0.40737 0.52801 0.06525 0.0
C62 C 0.48474 0.39596 0.08147 0.0
C63 C 0.57802 0.72464 0.06774 0.0
C64 C 0.70439 0.58591 0.07345 0.0
C65 C 0.57843 0.62177 0.12062 0.0
C66 C 0.54005 0.55564 0.02706 0.0
C67 C 0.37676 0.49317 0.07829 0.0
O68 O 0.50975 0.42449 0.06706 0.0
O69 O 0.05777 0.55087 0.88722 0.0
Zn70 Zn -0.02232 0.46525 0.88622 0.0
O71 O -0.02143 0.4068 0.90396 0.0
Zn72 Zn -0.02386 0.33338 0.89291 0.0
Zn73 Zn 0.05204 0.45038 0.91831 0.0
Zn74 Zn 0.90859 0.37942 0.91954 0.0
O75 O 0.9024 0.25063 0.90138 0.0
O76 O 0.84662 0.29048 0.91414 0.0
O77 O 0.958 0.42479 0.86183 0.0
O78 O 0.95473 0.33305 0.86787 0.0
O79 O 0.06173 0.33813 0.89397 0.0
O80 O 0.11309 0.42365 0.9114 0.0
O81 O 0.0363 0.43496 0.94418 0.0
O82 O 0.91218 0.48944 0.89253 0.0
O83 O 0.93113 0.38172 0.94476 0.0
O84 O 0.87077 0.43509 0.91724 0.0
C85 C 0.09144 0.57619 0.90101 0.0
C86 C 0.85134 0.24366 0.90826 0.0
C87 C 0.11171 0.37916 0.90208 0.0
C88 C 0.94835 0.36985 0.85716 0.0
C89 C -0.01564 0.40618 0.95269 0.0
C90 C 0.87615 0.47631 0.90593 0.0
O91 O 0.08989 0.54268 0.91414 0.0
O92 O 0.40458 0.47742 0.88289 0.0
Zn93 Zn 0.48998 0.48275 0.88379 0.0
O94 O 0.54188 0.53722 0.90307 0.0
Zn95 Zn 0.62019 0.60846 0.89498 0.0
Zn96 Zn 0.49403 0.56565 0.91589 0.0
Zn97 Zn 0.55937 0.48874 0.91915 0.0
O98 O 0.69662 0.60853 0.90581 0.0
O99 O 0.64706 0.50812 0.91565 0.0
O100 O 0.53804 0.51067 0.86082 0.0
O101 O 0.62889 0.59513 0.86963 0.0
O102 O 0.61656 0.69055 0.89671 0.0
O103 O 0.51838 0.65196 0.90761 0.0
O104 O 0.50896 0.56998 0.94211 0.0
O105 O 0.46281 0.39108 0.88866 0.0
O106 O 0.5555 0.51134 0.94388 0.0
O107 O 0.49782 0.39688 0.91611 0.0
C108 C 0.3744 0.47648 0.89678 0.0
C109 C 0.69764 0.55978 0.91189 0.0
C110 C 0.56913 0.69706 0.90099 0.0
C111 C 0.5944 0.55597 0.8577 0.0
C112 C 0.53464 0.54454 0.95117 0.0
C113 C 0.46409 0.3645 0.90303 0.0
O114 O 0.4033 0.505 0.91091 0.0
O115 O 0.47807 0.8994 0.88291 0.0
Zn116 Zn 0.47233 0.98008 0.88268 0.0
O117 O 0.42246 -0.0181 0.90251 0.0
Zn118 Zn 0.34491 0.97771 0.89514 0.0
Zn119 Zn 0.40762 0.91491 0.91778 0.0
Zn120 Zn 0.46892 0.05635 0.91601 0.0
O121 O 0.33714 0.05116 0.90516 0.0
O122 O 0.44139 0.11697 0.9094 0.0
O123 O 0.43882 -0.00356 0.85974 0.0
O124 O 0.35155 -0.00469 0.86959 0.0
O125 O 0.27049 0.88887 0.89905 0.0
O126 O 0.32066 0.84567 0.91328 0.0
O127 O 0.41266 0.938 0.94333 0.0
O128 O 0.56438 0.04538 0.88654 0.0
O129 O 0.45306 0.04253 0.94178 0.0
O130 O 0.56013 0.08797 0.91225 0.0
C131 C 0.48833 0.87764 0.89716 0.0
C132 C 0.38483 0.10685 0.90768 0.0
C133 C 0.27092 0.84133 0.90624 0.0
C134 C 0.38993 0.00259 0.8572 0.0
C135 C 0.43084 -0.00835 0.95076 0.0
C136 C 0.59155 0.08014 0.90001 0.0
O137 O 0.46918 0.886 0.91208 0.0
O138 O 0.23414 0.39632 0.43033 0.0
Zn139 Zn 0.1458 0.31832 0.43043 0.0
O140 O 0.0965 0.31771 0.40993 0.0
Zn141 Zn 0.01637 0.30998 0.4163 0.0
Zn142 Zn 0.14393 0.39289 0.39691 0.0
Zn143 Zn 0.08421 0.25172 0.39422 0.0
O144 O 0.94324 0.23193 0.40512 0.0
O145 O -0.00394 0.18264 0.39652 0.0
O146 O 0.095 0.3052 0.453 0.0
O147 O 0.00397 0.29179 0.44179 0.0
O148 O 0.01772 0.39403 0.41307 0.0
O149 O 0.11806 0.45471 0.40391 0.0
O150 O 0.1318 0.38044 0.37083 0.0
O151 O 0.16931 0.24958 0.42799 0.0
O152 O 0.09321 0.27625 0.36899 0.0
O153 O 0.14572 0.22296 0.3997 0.0
C154 C 0.26353 0.42478 0.41627 0.0
C155 C 0.94436 0.18274 0.3994 0.0
C156 C 0.06535 0.44821 0.40918 0.0
C157 C 0.03725 0.29218 0.45483 0.0
C158 C 0.11167 0.3298 0.36168 0.0
C159 C 0.17363 0.22283 0.41394 0.0
O160 O 0.23389 0.42402 0.40231 0.0
O161 O 0.58132 0.81369 0.423 0.0
Zn162 Zn 0.6612 0.80818 0.42276 0.0
O163 O 0.65796 0.74892 0.40462 0.0
Zn164 Zn 0.66237 0.67826 0.41513 0.0
Zn165 Zn 0.58267 0.71919 0.3908 0.0
Zn166 Zn 0.72669 0.79166 0.3888 0.0
O167 O 0.73446 0.66834 0.40549 0.0
O168 O 0.78864 0.76391 0.39284 0.0
O169 O 0.68201 0.78633 0.44667 0.0
O170 O 0.68658 0.69884 0.44014 0.0
O171 O 0.57633 0.59825 0.4149 0.0
O172 O 0.5225 0.63092 0.39801 0.0
O173 O 0.59618 0.72147 0.36451 0.0
O174 O 0.72663 0.89789 0.4166 0.0
O175 O 0.70138 0.77328 0.36393 0.0
O176 O 0.76643 0.88494 0.39155 0.0
C177 C 0.54521 0.8051 0.40979 0.0
C178 C 0.78468 0.7123 0.39825 0.0
C179 C 0.52522 0.5887 0.40738 0.0
C180 C 0.69272 0.74156 0.45104 0.0
C181 C 0.64822 0.74574 0.35597 0.0
C182 C 0.76232 0.92082 0.40315 0.0
O183 O 0.54474 0.77336 0.39627 0.0
O184 O 0.15179 0.73818 0.42856 0.0
Zn185 Zn 0.1567 0.82377 0.42957 0.0
O186 O 0.21244 0.87969 0.41143 0.0
Zn187 Zn 0.28862 0.9496 0.42081 0.0
Zn188 Zn 0.22904 0.83031 0.39562 0.0
Zn189 Zn 0.17081 0.9132 0.39808 0.0
O190 O 0.29901 0.03407 0.41264 0.0
O191 O 0.1955 -0.00221 0.40768 0.0
O192 O 0.18201 0.86825 0.45335 0.0
O193 O 0.27511 0.9533 0.44635 0.0
O194 O 0.36357 0.93544 0.41692 0.0
O195 O 0.31471 0.84589 0.40085 0.0
O196 O 0.23053 0.85581 0.37053 0.0
O197 O 0.06653 0.79783 0.42355 0.0
O198 O 0.19688 0.92553 0.37284 0.0
O199 O 0.07836 0.85237 0.39887 0.0
C200 C 0.144 0.70872 0.41392 0.0
C201 C 0.25167 0.04313 0.41084 0.0
C202 C 0.36366 0.88908 0.40879 0.0
C203 C 0.23152 0.92099 0.45747 0.0
C204 C 0.21875 0.8968 0.36365 0.0
C205 C 0.04342 0.80931 0.40986 0.0
O206 O 0.16577 0.73891 0.39949 0.0
O207 O 0.75328 0.93712 0.21551 0.0
Zn208 Zn 0.67277 0.85081 0.21427 0.0
O209 O 0.67088 0.79681 0.2333 0.0
Zn210 Zn 0.6766 0.72463 0.22572 0.0
Zn211 Zn 0.7351 0.84714 0.24928 0.0
Zn212 Zn 0.59517 0.76538 0.24598 0.0
O213 O 0.60201 0.64237 0.23494 0.0
O214 O 0.53526 0.68088 0.23656 0.0
O215 O 0.65561 0.80209 0.19103 0.0
O216 O 0.65982 0.71641 0.20014 0.0
O217 O 0.7658 0.73961 0.2302 0.0
O218 O 0.80607 0.83211 0.24487 0.0
O219 O 0.70924 0.82234 0.27425 0.0
O220 O 0.6077 0.87761 0.21882 0.0
O221 O 0.60615 0.75368 0.27147 0.0
O222 O 0.56563 0.82748 0.24409 0.0
C223 C 0.77261 0.9674 0.23017 0.0
C224 C 0.54574 0.63438 0.23532 0.0
C225 C 0.81218 0.78769 0.23777 0.0
C226 C 0.65071 0.7476 0.18809 0.0
C227 C 0.65602 0.7821 0.28092 0.0
C228 C 0.57377 0.86885 0.2325 0.0
O229 O 0.76225 0.93798 0.24482 0.0
O230 O 0.10351 0.86082 0.22239 0.0
Zn231 Zn 0.18864 0.86566 0.222 0.0
O232 O 0.24675 0.92599 0.23964 0.0
Zn233 Zn 0.31907 -0.0036 0.22826 0.0
Zn234 Zn 0.20246 0.95558 0.25403 0.0
Zn235 Zn 0.27647 0.88507 0.25517 0.0
O236 O 0.40268 0.00764 0.2367 0.0
O237 O 0.36558 0.9133 0.24987 0.0
O238 O 0.22829 0.88479 0.19764 0.0
O239 O 0.31906 0.97448 0.20322 0.0
O240 O 0.31325 0.07647 0.22918 0.0
O241 O 0.23076 0.04436 0.24748 0.0
O242 O 0.21561 0.95247 0.28011 0.0
O243 O 0.16498 0.77662 0.22881 0.0
O244 O 0.27316 0.90466 0.28033 0.0
O245 O 0.22273 0.79149 0.25301 0.0
C246 C 0.07752 0.87079 0.23572 0.0
C247 C 0.4113 0.96479 0.24379 0.0
C248 C 0.27396 0.08658 0.23777 0.0
C249 C 0.28231 0.93024 0.19272 0.0
C250 C 0.24605 0.9305 0.28846 0.0
C251 C 0.18026 0.75479 0.24206 0.0
O252 O 0.11012 0.90288 0.24902 0.0
O253 O 0.17509 0.28069 0.21718 0.0
Zn254 Zn 0.16584 0.35895 0.2175 0.0
O255 O 0.11565 0.35836 0.23762 0.0
Zn256 Zn 0.04396 0.36671 0.23054 0.0
Zn257 Zn 0.08677 0.2819 0.25026 0.0
Zn258 Zn 0.16835 0.42347 0.25368 0.0
O259 O 0.04734 0.44397 0.2419 0.0
O260 O 0.1479 0.49198 0.25162 0.0
O261 O 0.13077 0.3732 0.19482 0.0
O262 O 0.05212 0.38676 0.20506 0.0
O263 O 0.96141 0.28213 0.23276 0.0
O264 O 2e-05 0.22057 0.24229 0.0
O265 O 0.08548 0.29263 0.27646 0.0
O266 O 0.25741 0.42678 0.22044 0.0
O267 O 0.15183 0.39656 0.27865 0.0
O268 O 0.25946 0.45424 0.24858 0.0
C269 C 0.17549 0.25115 0.23107 0.0
C270 C 0.09667 0.49249 0.24823 0.0
C271 C 0.95464 0.22752 0.23641 0.0
C272 C 0.08648 0.38652 0.19242 0.0
C273 C 0.11629 0.34282 0.28578 0.0
C274 C 0.28799 0.45439 0.23446 0.0
O275 O 0.14619 0.251 0.24502 0.0
O276 O 0.87557 0.72832 0.75821 0.0
Zn277 Zn 0.79044 0.64787 0.75889 0.0
O278 O 0.7322 0.64884 0.74128 0.0
Zn279 Zn 0.65977 0.64762 0.75213 0.0
Zn280 Zn 0.77678 0.72168 0.727 0.0
Zn281 Zn 0.70335 0.57801 0.72588 0.0
O282 O 0.57683 0.574 0.74365 0.0
O283 O 0.61594 0.51529 0.73228 0.0
O284 O 0.74998 0.62724 0.78313 0.0
O285 O 0.6595 0.62636 0.77712 0.0
O286 O 0.66578 0.73384 0.75096 0.0
O287 O 0.75296 0.78471 0.73431 0.0
O288 O 0.75654 0.70491 0.70133 0.0
O289 O 0.81513 0.58314 0.75212 0.0
O290 O 0.69994 0.59947 0.70086 0.0
O291 O 0.76101 0.54223 0.72724 0.0
C292 C 0.90187 0.7594 0.74418 0.0
C293 C 0.56955 0.52139 0.73769 0.0
C294 C 0.70831 0.78393 0.74331 0.0
C295 C 0.69564 0.61867 0.78777 0.0
C296 C 0.72414 0.65272 0.69297 0.0
C297 C 0.80272 0.54806 0.73846 0.0
O298 O 0.86916 0.7568 0.73069 0.0
O299 O 0.22309 0.15015 0.76319 0.0
Zn300 Zn 0.30315 0.14323 0.76358 0.0
O301 O 0.3048 0.09205 0.74382 0.0
Zn302 Zn 0.30222 0.01512 0.75141 0.0
Zn303 Zn 0.23651 0.07449 0.7287 0.0
Zn304 Zn 0.37805 0.1388 0.72991 0.0
O305 O 0.37677 0.00859 0.74179 0.0
O306 O 0.43985 0.11231 0.73595 0.0
O307 O 0.31963 0.11057 0.78667 0.0
O308 O 0.31961 0.02328 0.777 0.0
O309 O 0.21426 0.93871 0.7474 0.0
O310 O 0.16909 -0.01332 0.73305 0.0
O311 O 0.25821 0.08073 0.70318 0.0
O312 O 0.36882 0.23534 0.75976 0.0
O313 O 0.36286 0.12405 0.70407 0.0
O314 O 0.40984 0.2301 0.73394 0.0
C315 C 0.19937 0.15696 0.74883 0.0
C316 C 0.43137 0.05655 0.73844 0.0
C317 C 0.16618 0.93756 0.74008 0.0
C318 C 0.3264 0.062 0.78932 0.0
C319 C 0.31123 0.10095 0.69538 0.0
C320 C 0.40299 0.26207 0.74624 0.0
O321 O 0.20599 0.13459 0.73425 0.0
O322 O 0.80477 0.07818 0.76144 0.0
Zn323 Zn 0.80954 0.16342 0.76073 0.0
O324 O 0.86248 0.2147 0.74125 0.0
Zn325 Zn 0.93421 0.29305 0.74945 0.0
Zn326 Zn 0.88986 0.16651 0.72795 0.0
Zn327 Zn 0.81297 0.23203 0.72547 0.0
O328 O 0.93558 0.36963 0.73828 0.0
O329 O 0.83497 0.3209 0.72861 0.0
O330 O 0.83901 0.212 0.78375 0.0
O331 O 0.92204 0.30336 0.77483 0.0
O332 O 0.01524 0.28797 0.74793 0.0
O333 O -0.02332 0.19115 0.73576 0.0
O334 O 0.89129 0.17985 0.70162 0.0
O335 O 0.71757 0.13596 0.75636 0.0
O336 O 0.83177 0.22544 0.70057 0.0
O337 O 0.72128 0.17212 0.72919 0.0
C338 C 0.8032 0.04741 0.74756 0.0
C339 C 0.88732 0.37127 0.73212 0.0
C340 C 0.02165 0.24097 0.74293 0.0
C341 C 0.88395 0.26875 0.78685 0.0
C342 C 0.86411 0.20446 0.69286 0.0
C343 C 0.68992 0.13816 0.74228 0.0
O344 O 0.83031 0.07575 0.7333 0.0
O345 O 0.37854 0.22936 0.55012 0.0
Zn346 Zn 0.29889 0.14354 0.55117 0.0
O347 O 0.30156 0.09426 0.57113 0.0
Zn348 Zn 0.29509 0.01492 0.56394 0.0
Zn349 Zn 0.37687 0.14399 0.58428 0.0
Zn350 Zn 0.23517 0.07785 0.58678 0.0
O351 O 0.21898 0.93913 0.57501 0.0
O352 O 0.16746 -0.01032 0.58356 0.0
O353 O 0.28084 0.09272 0.52848 0.0
O354 O 0.2737 0.00282 0.53858 0.0
O355 O 0.38106 0.01996 0.56596 0.0
O356 O 0.43912 0.11899 0.57678 0.0
O357 O 0.36534 0.13187 0.61064 0.0
O358 O 0.23337 0.17042 0.55518 0.0
O359 O 0.26034 0.08421 0.61167 0.0
O360 O 0.20461 0.13857 0.58283 0.0
C361 C 0.40814 0.26144 0.5638 0.0
C362 C 0.16888 0.93863 0.5805 0.0
C363 C 0.43439 0.06808 0.57036 0.0
C364 C 0.26996 0.03577 0.52608 0.0
C365 C 0.3137 0.10633 0.61939 0.0
C366 C 0.20544 0.17053 0.56942 0.0
O367 O 0.40737 0.23443 0.57831 0.0
O368 O 0.72552 0.16098 0.5494 0.0
Zn369 Zn 0.81182 0.16663 0.54867 0.0
O370 O 0.86545 0.21681 0.56839 0.0
Zn371 Zn 0.93953 0.2929 0.56055 0.0
Zn372 Zn 0.81626 0.236 0.58362 0.0
Zn373 Zn 0.89139 0.16884 0.58216 0.0
O374 O 0.02007 0.29871 0.57012 0.0
O375 O -0.02052 0.19485 0.57594 0.0
O376 O 0.86004 0.19791 0.5255 0.0
O377 O 0.94822 0.28398 0.53499 0.0
O378 O 0.92918 0.3701 0.56437 0.0
O379 O 0.83713 0.32405 0.57907 0.0
O380 O 0.83295 0.23021 0.60909 0.0
O381 O 0.78475 0.07445 0.55228 0.0
O382 O 0.89155 0.18359 0.60808 0.0
O383 O 0.83114 0.07753 0.57796 0.0
C384 C 0.69583 0.15421 0.5639 0.0
C385 C 0.02662 0.25047 0.57335 0.0
C386 C 0.88315 0.37245 0.57181 0.0
C387 C 0.91563 0.24541 0.52273 0.0
C388 C 0.86472 0.20847 0.61682 0.0
C389 C 0.79205 0.04665 0.5656 0.0
O390 O 0.72552 0.17646 0.5784 0.0
O391 O 0.80353 0.583 0.55251 0.0
Zn392 Zn 0.79766 0.66299 0.55166 0.0
O393 O 0.73689 0.66095 0.56888 0.0
Zn394 Zn 0.66592 0.66173 0.55752 0.0
Zn395 Zn 0.70837 0.58774 0.58311 0.0
Zn396 Zn 0.7775 0.73141 0.58449 0.0
O397 O 0.65521 0.73494 0.56595 0.0
O398 O 0.75117 0.79323 0.57831 0.0
O399 O 0.77843 0.68306 0.52727 0.0
O400 O 0.68801 0.68318 0.53252 0.0
O401 O 0.58615 0.57502 0.55855 0.0
O402 O 0.62223 0.52442 0.57555 0.0
O403 O 0.70405 0.60372 0.6088 0.0
O404 O 0.88634 0.7283 0.55875 0.0
O405 O 0.75278 0.70913 0.60943 0.0
O406 O 0.87103 0.76877 0.58341 0.0
C407 C 0.79773 0.55137 0.56652 0.0
C408 C 0.69906 0.78706 0.57253 0.0
C409 C 0.57868 0.52496 0.56631 0.0
C410 C 0.73266 0.69112 0.5222 0.0
C411 C 0.72382 0.65576 0.61724 0.0
C412 C 0.90786 0.76354 0.57242 0.0
O413 O 0.76618 0.55312 0.57974 0.0
C414 C 0.52869 0.84022 0.0554 0.0
C415 C 0.52921 0.86607 0.07211 0.0
H416 H 0.54747 0.77572 0.04076 0.0
C417 C 0.56239 0.85759 0.08613 0.0
H418 H 0.5052 0.84756 0.04418 0.0
C419 C 0.58804 0.81746 0.08396 0.0
C420 C 0.58052 0.78593 0.06778 0.0
H421 H 0.56452 0.87804 0.09905 0.0
H422 H 0.6074 0.8058 0.09537 0.0
C423 C 0.55406 0.80027 0.05328 0.0
C424 C 0.16612 0.78469 0.08495 0.0
C425 C 0.19773 0.80888 0.06888 0.0
H426 H 0.10586 0.70047 0.09983 0.0
C427 C 0.18368 0.76808 0.05431 0.0
H428 H 0.17732 0.81558 0.09641 0.0
C429 C 0.14424 0.70269 0.05629 0.0
C430 C 0.11833 0.67724 0.0729 0.0
H431 H 0.20804 0.78614 0.04183 0.0
H432 H 0.13724 0.67192 0.04505 0.0
C433 C 0.12639 0.71887 0.08697 0.0
C434 C 0.20255 0.4045 0.09044 0.0
C435 C 0.1752 0.40118 0.07383 0.0
H436 H 0.28955 0.43772 0.10501 0.0
C437 C 0.21288 0.41814 0.05863 0.0
H438 H 0.17398 0.39275 0.10234 0.0
C439 C 0.2784 0.44485 0.06013 0.0
C440 C 0.30708 0.45514 0.07689 0.0
H441 H 0.19238 0.41651 0.04575 0.0
H442 H 0.30681 0.46091 0.04821 0.0
C443 C 0.26854 0.43132 0.09198 0.0
C444 C 0.80649 0.50065 0.92455 0.0
C445 C 0.83992 0.50962 0.90868 0.0
H446 H 0.73598 0.51251 0.93822 0.0
C447 C 0.83634 0.54859 0.89545 0.0
H448 H 0.80956 0.47237 0.93521 0.0
C449 C 0.79485 0.57269 0.89739 0.0
C450 C 0.75677 0.55778 0.91253 0.0
H451 H 0.86255 0.55725 0.8832 0.0
H452 H 0.78825 0.59767 0.88642 0.0
C453 C 0.76516 0.52445 0.92644 0.0
C454 C 0.37693 0.18958 0.89111 0.0
C455 C 0.37779 0.16305 0.9075 0.0
H456 H 0.40475 0.27576 0.87673 0.0
C457 C 0.39605 0.20104 0.92274 0.0
H458 H 0.36416 0.16081 0.87917 0.0
C459 C 0.42027 0.26649 0.92137 0.0
C460 C 0.42684 0.29463 0.90469 0.0
H461 H 0.39785 0.18119 0.93543 0.0
H462 H 0.43792 0.2954 0.93324 0.0
C463 C 0.40129 0.25535 0.8897 0.0
C464 C 0.70131 0.12196 0.88778 0.0
C465 C 0.66065 0.10937 0.9023 0.0
H466 H 0.7977 0.17459 0.87857 0.0
C467 C 0.68665 0.12703 0.91937 0.0
H468 H 0.68222 0.10757 0.87455 0.0
C469 C 0.75205 0.16361 0.92168 0.0
C470 C 0.7922 0.18312 0.90696 0.0
H471 H 0.65637 0.11587 0.93089 0.0
H472 H 0.77073 0.18219 0.93474 0.0
C473 C 0.76721 0.15899 0.89012 0.0
C474 C 0.25477 0.13552 0.39702 0.0
C475 C 0.25913 0.10636 0.41249 0.0
H476 H 0.22392 0.19591 0.38542 0.0
C477 C 0.2462 0.12452 0.42891 0.0
H478 H 0.26345 0.12095 0.38423 0.0
C479 C 0.22246 0.16664 0.42964 0.0
C480 C 0.21084 0.18992 0.41391 0.0
H481 H 0.24798 0.10107 0.44092 0.0
H482 H 0.20823 0.17647 0.44231 0.0
C483 C 0.23081 0.17718 0.39771 0.0
C484 C 0.88066 0.08004 0.38428 0.0
C485 C 0.88587 0.12136 0.39802 0.0
H486 H 0.83726 -0.01601 0.37514 0.0
C487 C 0.84393 0.09809 0.41238 0.0
H488 H 0.91283 0.09743 0.37309 0.0
C489 C 0.80127 0.03263 0.4138 0.0
C490 C 0.80026 -0.00963 0.4008 0.0
H491 H 0.84798 0.12943 0.42321 0.0
H492 H 0.77179 0.01495 0.4255 0.0
C493 C 0.83801 0.01507 0.38561 0.0
C494 C 0.95293 0.76961 0.38883 0.0
C495 C -0.02488 0.77008 0.40602 0.0
H496 H 0.87205 0.74618 0.37258 0.0
C497 C 0.93143 0.73421 0.41932 0.0
H498 H -0.01437 0.79488 0.37814 0.0
C499 C 0.86609 0.70512 0.41597 0.0
C500 C 0.84453 0.71195 0.39933 0.0
H501 H 0.94751 0.73258 0.43258 0.0
H502 H 0.83313 0.68391 0.42687 0.0
C503 C 0.88801 0.74048 0.3855 0.0
C504 C 0.49554 0.96814 0.22496 0.0
C505 C 0.47195 0.96664 0.24201 0.0
H506 H 0.54615 0.93636 0.20838 0.0
C507 C 0.49231 0.94424 0.25621 0.0
H508 H 0.47945 -0.01542 0.21381 0.0
C509 C 0.5288 0.91562 0.25309 0.0
C510 C 0.54551 0.9093 0.23573 0.0
H511 H 0.47432 0.94268 0.26943 0.0
H512 H 0.54044 0.89488 0.26418 0.0
C513 C 0.53243 0.93944 0.22182 0.0
C514 C 0.16115 0.66207 0.26054 0.0
C515 C 0.14787 0.68553 0.24509 0.0
H516 H 0.15247 0.5804 0.27391 0.0
C517 C 0.1051 0.64225 0.23255 0.0
H518 H 0.1925 0.69406 0.2707 0.0
C519 C 0.08113 0.57675 0.23462 0.0
C520 C 0.10008 0.5544 0.2492 0.0
H521 H 0.09302 0.65902 0.22068 0.0
H522 H 0.0528 0.54448 0.22409 0.0
C523 C 0.1375 0.597 0.26255 0.0
C524 C 0.4579 0.54827 0.21877 0.0
C525 C 0.48978 0.57116 0.23493 0.0
H526 H 0.36773 0.49273 0.20589 0.0
C527 C 0.45698 0.54729 0.25081 0.0
H528 H 0.4825 0.56768 0.20639 0.0
C529 C 0.39143 0.50599 0.2506 0.0
C530 C 0.35805 0.48819 0.23446 0.0
H531 H 0.48082 0.56572 0.26339 0.0
H532 H 0.36648 0.49132 0.2631 0.0
C533 C 0.3922 0.50648 0.21852 0.0
C534 C 0.87699 0.51045 0.74856 0.0
C535 C 0.83724 0.51322 0.73542 0.0
H536 H 0.9269 0.4631 0.75743 0.0
C537 C 0.82846 0.48005 0.71945 0.0
H538 H 0.88562 0.53661 0.76086 0.0
C539 C 0.85287 0.43921 0.71743 0.0
C540 C 0.88648 0.43108 0.73132 0.0
H541 H 0.79963 0.48264 0.70886 0.0
H542 H 0.84076 0.40977 0.70563 0.0
C543 C 0.90165 0.46945 0.74649 0.0
C544 C 0.48585 0.43857 0.75614 0.0
C545 C 0.50878 0.46282 0.73922 0.0
H546 H 0.43422 0.35403 0.7718 0.0
C547 C 0.48736 0.42221 0.72452 0.0
H548 H 0.50302 0.46948 0.76766 0.0
C549 C 0.44964 0.35686 0.72687 0.0
C550 C 0.43295 0.33138 0.74398 0.0
H551 H 0.50512 0.44036 0.7114 0.0
H552 H 0.43689 0.32609 0.71534 0.0
C553 C 0.44773 0.37269 0.75852 0.0
C554 C 0.51608 0.0512 0.75482 0.0
C555 C 0.48842 0.0511 0.73852 0.0
H556 H 0.60312 0.08004 0.76891 0.0
C557 C 0.52545 0.06926 0.72317 0.0
H558 H 0.48812 0.03859 0.76684 0.0
C559 C 0.59086 0.09398 0.72434 0.0
C560 C 0.62006 0.10115 0.74091 0.0
H561 H 0.50476 0.07032 0.71054 0.0
H562 H 0.61889 0.11127 0.71238 0.0
C563 C 0.58187 0.07605 0.75602 0.0
C564 C 0.11497 0.25405 0.55658 0.0
C565 C 0.08891 0.25565 0.57298 0.0
H566 H 0.17283 0.22474 0.54247 0.0
C567 C 0.1098 0.23974 0.58838 0.0
H568 H 0.09803 0.26498 0.54454 0.0
C569 C 0.15142 0.21599 0.58723 0.0
C570 C 0.17211 0.20727 0.57063 0.0
H571 H 0.08921 0.23988 0.60109 0.0
H572 H 0.16388 0.2005 0.59928 0.0
C573 C 0.15672 0.23001 0.55539 0.0
C574 C 0.69815 0.87118 0.5546 0.0
C575 C 0.69592 0.8454 0.57136 0.0
H576 H 0.73223 0.95711 0.53949 0.0
C577 C 0.7142 0.88477 0.58634 0.0
H578 H 0.68509 0.84127 0.54288 0.0
C579 C 0.74236 0.9504 0.58441 0.0
C580 C 0.75226 0.9773 0.56746 0.0
H581 H 0.71304 0.86543 0.59935 0.0
H582 H 0.75993 0.98023 0.59612 0.0
C583 C 0.72626 0.93729 0.55265 0.0
C584 C 0.08573 0.84113 0.56573 0.0
C585 C 0.10773 0.87956 0.58092 0.0
H586 H 0.00392 0.77436 0.55089 0.0
C587 C 0.06484 0.87243 0.59433 0.0
H588 H 0.11822 0.8468 0.55513 0.0
C589 C -0.00011 0.83224 0.59185 0.0
C590 C -0.02314 0.79868 0.57586 0.0
H591 H 0.08116 0.902 0.60613 0.0
H592 H 0.96771 0.83028 0.60209 0.0
C593 C 0.02037 0.80078 0.56319 0.0
C594 C 0.39307 0.94131 -0.00166 0.0
C595 C 0.42204 0.00052 0.00719 0.0
H596 H 0.37335 0.89213 0.97364 0.0
C597 C 0.45185 0.05708 -0.00271 0.0
H598 H 0.36946 0.89673 0.00556 0.0
C599 C 0.45394 0.05432 0.97888 0.0
C600 C 0.4265 -0.00503 0.97011 0.0
H601 H 0.47451 0.10337 0.00374 0.0
H602 H 0.47804 0.09867 0.97157 0.0
C603 C 0.39544 0.93857 0.98001 0.0
C604 C 0.04347 0.43679 0.98137 0.0
C605 C -0.01459 0.40544 0.97213 0.0
H606 H 0.08946 0.46796 0.00646 0.0
C607 C 0.92794 0.37718 0.98162 0.0
H608 H 0.08854 0.45878 0.97442 0.0
C609 C 0.92844 0.38266 -5e-05 0.0
C610 C -0.0136 0.41635 0.00913 0.0
H611 H 0.88237 0.35233 0.97488 0.0
H612 H 0.8833 0.36165 0.00685 0.0
C613 C 0.04396 0.44216 -0.00028 0.0
C614 C 0.51049 0.58147 0.97955 0.0
C615 C 0.53917 0.55154 0.97052 0.0
H616 H 0.48833 0.60637 0.00463 0.0
C617 C 0.57084 0.52598 0.9802 0.0
H618 H 0.48594 0.60175 0.97242 0.0
C619 C 0.5722 0.52854 -0.00144 0.0
C620 C 0.54195 0.55673 0.00763 0.0
H621 H 0.59392 0.50303 0.97363 0.0
H622 H 0.59616 0.50748 0.00561 0.0
C623 C 0.51185 0.58403 -0.00203 0.0
C624 C 0.13873 0.39242 0.33374 0.0
C625 C 0.11046 0.33305 0.34228 0.0
H626 H 0.16263 0.442 0.30915 0.0
C627 C 0.08197 0.27668 0.33211 0.0
H628 H 0.16093 0.43666 0.34122 0.0
C629 C 0.0827 0.27968 0.3137 0.0
C630 C 0.11227 0.3391 0.30517 0.0
H631 H 0.05946 0.23014 0.33833 0.0
H632 H 0.06108 0.2355 0.3062 0.0
C633 C 0.13978 0.39542 0.31536 0.0
C634 C 0.70691 0.77709 0.32754 0.0
C635 C 0.64839 0.74791 0.33654 0.0
H636 H 0.75505 0.81101 0.30299 0.0
C637 C 0.59162 0.72626 0.3269 0.0
H638 H 0.75159 0.79388 0.33453 0.0
C639 C 0.59373 0.73603 0.30866 0.0
C640 C 0.65264 0.76798 0.29989 0.0
H641 H 0.54584 0.70354 0.33348 0.0
H642 H 0.54946 0.72025 0.30154 0.0
C643 C 0.70902 0.78727 0.30944 0.0
C644 C 0.27262 0.89781 0.31694 0.0
C645 C 0.24503 0.92889 0.30792 0.0
H646 H 0.28564 0.86309 0.34159 0.0
C647 C 0.2123 0.95332 0.31756 0.0
H648 H 0.29849 0.87871 0.30992 0.0
C649 C 0.20508 0.94442 0.33582 0.0
C650 C 0.2301 0.91057 0.34465 0.0
H651 H 0.19071 0.97767 0.31098 0.0
H652 H 0.1783 0.96235 0.3429 0.0
C653 C 0.26499 0.88851 0.3351 0.0
C654 C 0.68748 0.59587 0.66409 0.0
C655 C 0.7176 0.65351 0.67367 0.0
H656 H 0.66554 0.55133 0.63864 0.0
C657 C 0.74452 0.71175 0.66456 0.0
H658 H 0.66578 0.55015 0.67075 0.0
C659 C 0.7442 0.71237 0.64616 0.0
C660 C 0.71712 0.65476 0.63657 0.0
H661 H 0.7675 0.75693 0.6716 0.0
H662 H 0.76707 0.75811 0.6395 0.0
C663 C 0.68732 0.59649 0.64568 0.0
C664 C 0.37185 0.13022 0.64833 0.0
C665 C 0.31437 0.10263 0.6388 0.0
H666 H 0.41604 0.15121 0.67386 0.0
C667 C 0.2563 0.07212 0.64801 0.0
H668 H 0.41729 0.15384 0.64158 0.0
C669 C 0.25554 0.07064 0.66636 0.0
C670 C 0.31281 0.09951 0.67595 0.0
H671 H 0.21106 0.0499 0.64108 0.0
H672 H 0.20987 0.04744 0.67301 0.0
C673 C 0.37107 0.12863 0.66679 0.0
C674 C 0.84095 0.24012 0.64588 0.0
C675 C 0.86851 0.21036 0.63626 0.0
H676 H 0.8184 0.26188 0.67119 0.0
C677 C 0.89757 0.18088 0.6454 0.0
H678 H 0.81857 0.26362 0.63926 0.0
C679 C 0.89745 0.17977 0.66388 0.0
C680 C 0.86827 0.20814 0.67344 0.0
H681 H 0.91937 0.15766 0.63832 0.0
H682 H 0.91909 0.15578 0.67062 0.0
C683 C 0.84086 0.23905 0.66424 0.0
C684 C 0.37062 0.96223 0.17134 0.0
C685 C 0.30475 0.93269 0.17459 0.0
H686 H 0.44448 -0.00433 0.15192 0.0
C687 C 0.26186 0.9097 0.16039 0.0
H688 H 0.40462 0.97959 0.18216 0.0
C689 C 0.2848 0.91971 0.1431 0.0
C690 C 0.35082 0.95171 0.13984 0.0
H691 H 0.21095 0.88664 0.16261 0.0
H692 H 0.25087 0.90351 0.13227 0.0
C693 C 0.39348 0.97115 0.15409 0.0
C694 C 0.02106 0.44238 0.15553 0.0
C695 C 0.03568 0.41715 0.14074 0.0
H696 H 0.02567 0.45199 0.18368 0.0
C697 C 0.07085 0.38556 0.14294 0.0
H698 H -0.00565 0.46719 0.15413 0.0
C699 C 0.08953 0.37762 0.15971 0.0
C700 C 0.07248 0.40025 0.17459 0.0
H701 H 0.0837 0.36654 0.13167 0.0
H702 H 0.11547 0.352 0.16104 0.0
C703 C 0.03885 0.43347 0.17238 0.0
C704 C 0.59597 0.64879 0.16984 0.0
C705 C 0.62913 0.71608 0.1708 0.0
H706 H 0.55267 0.56586 0.15314 0.0
C707 C 0.64143 0.75168 0.15529 0.0
H708 H 0.58485 0.62011 0.18171 0.0
C709 C 0.62351 0.72049 0.13898 0.0
C710 C 0.59195 0.65324 0.138 0.0
H711 H 0.66642 0.80343 0.15571 0.0
H712 H 0.63491 0.74909 0.12709 0.0
C713 C 0.577 0.61759 0.15357 0.0
C714 C 0.88912 0.27925 0.83647 0.0
C715 C 0.92678 0.34557 0.83919 0.0
H716 H 0.84512 0.2029 0.81772 0.0
C717 C 0.94556 0.38683 0.82468 0.0
H718 H 0.87317 0.24644 0.84753 0.0
C719 C 0.92999 0.36172 0.80759 0.0
C720 C 0.89449 0.29515 0.80485 0.0
H721 H -0.02567 0.43807 0.8265 0.0
H722 H 0.94677 0.39437 0.7965 0.0
C723 C 0.87268 0.25426 0.81945 0.0
C724 C 0.68714 0.60049 0.83723 0.0
C725 C 0.62071 0.56549 0.83979 0.0
H726 H 0.76346 0.64418 0.81851 0.0
C727 C 0.57999 0.54342 0.82512 0.0
H728 H 0.71961 0.61733 0.8484 0.0
C729 C 0.60507 0.55943 0.80816 0.0
C730 C 0.67126 0.59687 0.80562 0.0
H731 H 0.52874 0.51618 0.82674 0.0
H732 H 0.57248 0.54353 0.79701 0.0
C733 C 0.71232 0.61561 0.82021 0.0
C734 C 0.38062 0.01832 0.80787 0.0
C735 C 0.34573 0.05065 0.80675 0.0
H736 H 0.42301 0.97855 0.82479 0.0
C737 C 0.32865 0.06995 0.82228 0.0
H738 H 0.39518 0.00367 0.79603 0.0
C739 C 0.34383 0.0547 0.83868 0.0
C740 C 0.37746 0.02109 0.83979 0.0
H741 H 0.30203 0.09508 0.82175 0.0
H742 H 0.32899 0.06904 0.85053 0.0
C743 C 0.39692 0.00422 0.82427 0.0
C744 C 0.90968 0.23026 0.48993 0.0
C745 C 0.94611 0.25484 0.50533 0.0
H746 H 0.91038 0.2232 0.46178 0.0
C747 C 0.01313 0.2891 0.50412 0.0
H748 H 0.85811 0.20344 0.4905 0.0
C749 C 0.04317 0.29968 0.48777 0.0
C750 C 0.00669 0.27709 0.47231 0.0
H751 H 0.04255 0.3078 0.51586 0.0
H752 H 0.09473 0.32693 0.48719 0.0
C753 C 0.93972 0.24177 0.47353 0.0
C754 C 0.69043 0.75966 0.48335 0.0
C755 C 0.71072 0.73667 0.46924 0.0
H756 H 0.68148 0.76262 0.51137 0.0
C757 C 0.74431 0.70413 0.47267 0.0
H758 H 0.66469 0.78501 0.48102 0.0
C759 C 0.75459 0.69189 0.49001 0.0
C760 C 0.73036 0.71104 0.50406 0.0
H761 H 0.7612 0.68668 0.46194 0.0
H762 H 0.77864 0.66489 0.49236 0.0
C763 C 0.6997 0.74644 0.50065 0.0
C764 C 0.27063 0.01649 0.47679 0.0
C765 C 0.23721 0.9495 0.47501 0.0
H766 H 0.30598 0.09654 0.49442 0.0
C767 C 0.21031 0.91133 0.48994 0.0
H768 H 0.29087 0.04706 0.46537 0.0
C769 C 0.21961 0.93979 0.50658 0.0
C770 C 0.25469 0.00676 0.5084 0.0
H771 H 0.18396 0.85971 0.48884 0.0
H772 H 0.20006 0.90936 0.51805 0.0
C773 C 0.27878 0.04493 0.49335 0.0
C774 C 0.42876 0.29444 0.06468 0.0
C775 C 0.44887 0.32567 0.08111 0.0
H776 H 0.3932 0.20661 0.05047 0.0
C777 C 0.43674 0.28918 0.09655 0.0
H778 H 0.43573 0.32104 0.05257 0.0
C779 C 0.41088 0.22291 0.09528 0.0
C780 C 0.39682 0.19319 0.07861 0.0
H781 H 0.45102 0.3121 0.10938 0.0
H782 H 0.40728 0.19597 0.10709 0.0
C783 C 0.40325 0.22883 0.06344 0.0
C784 C 0.69449 0.16082 0.09564 0.0
C785 C 0.65787 0.14226 0.08004 0.0
H786 H 0.78782 0.21899 0.10682 0.0
C787 C 0.6887 0.15826 0.06359 0.0
H788 H 0.67183 0.14813 0.10849 0.0
C789 C 0.75428 0.19708 0.06269 0.0
C790 C 0.7902 0.22051 0.07821 0.0
H791 H 0.66198 0.14307 0.05131 0.0
H792 H 0.77644 0.21286 0.04985 0.0
C793 C 0.76068 0.20017 0.09472 0.0
C794 C 0.7835 0.56541 0.05963 0.0
C795 C 0.76288 0.58316 0.07475 0.0
H796 H 0.837 0.52495 0.04924 0.0
C797 C 0.78721 0.58079 0.0914 0.0
H798 H 0.76462 0.56653 0.0467 0.0
C799 C 0.82788 0.5555 0.093 0.0
C800 C 0.84413 0.53249 0.07793 0.0
H801 H 0.77063 0.59333 0.10324 0.0
H802 H 0.84362 0.55077 0.10604 0.0
C803 C 0.82399 0.54058 0.06117 0.0
C804 C 0.27439 0.41774 0.91368 0.0
C805 C 0.30464 0.4384 0.89723 0.0
H806 H 0.18694 0.37901 0.92789 0.0
C807 C 0.26763 0.42382 0.88178 0.0
H808 H 0.30167 0.42641 0.92576 0.0
C809 C 0.20135 0.39539 0.88305 0.0
C810 C 0.17231 0.38123 0.89974 0.0
H811 H 0.28999 0.43832 0.86894 0.0
H812 H 0.17378 0.39036 0.87124 0.0
C813 C 0.20873 0.38936 0.9149 0.0
C814 C 0.54909 0.8343 0.91259 0.0
C815 C 0.52266 0.84166 0.89681 0.0
H816 H 0.58735 0.78299 0.92602 0.0
C817 C 0.52608 0.81117 0.88134 0.0
H818 H 0.54848 0.85836 0.92464 0.0
C819 C 0.54951 0.7687 0.88216 0.0
C820 C 0.57036 0.75731 0.89836 0.0
H821 H 0.50658 0.81652 0.86898 0.0
H822 H 0.54615 0.74074 0.87055 0.0
C823 C 0.57252 0.79223 0.91336 0.0
C824 C 0.20315 0.73772 0.92021 0.0
C825 C 0.21482 0.77771 0.90566 0.0
H826 H 0.15552 0.64301 0.93009 0.0
C827 C 0.18131 0.75247 0.88981 0.0
H828 H 0.22859 0.75649 0.93257 0.0
C829 C 0.13972 0.68663 0.88821 0.0
C830 C 0.1315 0.646 0.90248 0.0
H831 H 0.19049 0.78277 0.87837 0.0
H832 H 0.11602 0.66744 0.87568 0.0
C833 C 0.16189 0.67261 0.91867 0.0
C834 C 0.09239 0.60713 0.39686 0.0
C835 C 0.10996 0.63844 0.41333 0.0
H836 H 0.06151 0.5196 0.38279 0.0
C837 C 0.09754 0.60212 0.42882 0.0
H838 H 0.09994 0.63357 0.38469 0.0
C839 C 0.07409 0.53631 0.42765 0.0
C840 C 0.06252 0.50665 0.41103 0.0
H841 H 0.10987 0.62495 0.44169 0.0
H842 H 0.07058 0.50986 0.43956 0.0
C843 C 0.06915 0.54175 0.39573 0.0
C844 C 0.42622 0.49909 0.3963 0.0
C845 C 0.46491 0.53097 0.41082 0.0
H846 H 0.33181 0.43999 0.38681 0.0
C847 C 0.43856 0.51983 0.42787 0.0
H848 H 0.44587 0.50761 0.38306 0.0
C849 C 0.37257 0.48193 0.43007 0.0
C850 C 0.33321 0.45567 0.41518 0.0
H851 H 0.46796 0.5452 0.43918 0.0
H852 H 0.35222 0.47711 0.44311 0.0
C853 C 0.36092 0.46155 0.39846 0.0
C854 C 0.49571 0.86293 0.42471 0.0
C855 C 0.50464 0.83448 0.40953 0.0
H856 H 0.44369 0.90454 0.43632 0.0
C857 C 0.47432 0.83422 0.39367 0.0
H858 H 0.51933 0.86463 0.43704 0.0
C859 C 0.43245 0.8576 0.39325 0.0
C860 C 0.41997 0.88177 0.40865 0.0
H861 H 0.48138 0.81425 0.38161 0.0
H862 H 0.40727 0.85383 0.38104 0.0
C863 C 0.45338 0.88657 0.42427 0.0
C864 C 0.91483 0.82572 0.25274 0.0
C865 C 0.87622 0.79599 0.23796 0.0
H866 H 0.00829 0.87294 0.26354 0.0
C867 C 0.9029 0.78587 0.2227 0.0
H868 H 0.89502 0.83375 0.26468 0.0
C869 C 0.96865 0.80926 0.2219 0.0
C870 C 0.00786 0.8427 0.23639 0.0
H871 H 0.87378 0.76359 0.2111 0.0
H872 H -0.01111 0.803 0.20981 0.0
C873 C -0.02014 0.84879 0.25198 0.0
C874 C 0.26286 0.17384 0.2501 0.0
C875 C 0.2713 0.1448 0.23515 0.0
H876 H 0.22557 0.23044 0.26041 0.0
C877 C 0.25768 0.15911 0.21828 0.0
H878 H 0.27301 0.163 0.26321 0.0
C879 C 0.22915 0.19694 0.21662 0.0
C880 C 0.21411 0.21997 0.23186 0.0
H881 H 0.26315 0.13609 0.20662 0.0
H882 H 0.21486 0.20422 0.20365 0.0
C883 C 0.23453 0.21123 0.24848 0.0
C884 C 0.83892 0.07352 0.21542 0.0
C885 C 0.80893 0.03776 0.23061 0.0
H886 H 0.90916 0.16499 0.20542 0.0
C887 C 0.81734 0.06961 0.24685 0.0
H888 H 0.8328 0.05028 0.20272 0.0
C889 C 0.85995 0.13479 0.24828 0.0
C890 C 0.89419 0.16923 0.23348 0.0
H891 H 0.79378 0.0436 0.25873 0.0
H892 H 0.87 0.15719 0.26123 0.0
C893 C 0.88175 0.13911 0.2169 0.0
C894 C 0.71776 0.88001 0.73006 0.0
C895 C 0.71055 0.84481 0.74538 0.0
H896 H 0.7532 0.97221 0.71882 0.0
C897 C 0.72512 0.87513 0.76195 0.0
H898 H 0.70708 0.85715 0.71717 0.0
C899 C 0.75278 0.94156 0.76295 0.0
C900 C 0.76622 0.97744 0.74735 0.0
H901 H 0.72079 0.84844 0.77387 0.0
H902 H 0.76749 0.96497 0.77571 0.0
C903 C 0.74535 0.94585 0.73102 0.0
C904 C 0.07693 0.84949 0.75651 0.0
C905 C 0.10343 0.88034 0.74048 0.0
H906 H -0.00908 0.78707 0.77044 0.0
C907 C 0.06476 0.86605 0.72546 0.0
H908 H 0.10618 0.86082 0.76829 0.0
C909 C -0.0004 0.82519 0.72668 0.0
C910 C 0.97171 0.79796 0.74299 0.0
H911 H 0.08453 0.8896 0.71298 0.0
H912 H 0.97093 0.81698 0.71491 0.0
C913 C 0.0111 0.80835 0.75778 0.0
C914 C 0.13548 0.19963 0.76378 0.0
C915 C 0.16395 0.19189 0.74852 0.0
H916 H 0.06743 0.22399 0.77394 0.0
C917 C 0.15538 0.21476 0.73224 0.0
H918 H 0.14187 0.18299 0.7765 0.0
C919 C 0.11402 0.23877 0.73088 0.0
C920 C 0.08111 0.24099 0.74577 0.0
H921 H 0.17797 0.21095 0.7203 0.0
H922 H 0.10388 0.25085 0.71794 0.0
C923 C 0.09381 0.22388 0.76238 0.0
C924 C 0.52289 0.0849 0.55081 0.0
C925 C 0.49391 0.06832 0.56751 0.0
H926 H 0.61096 0.126 0.53646 0.0
C927 C 0.52991 0.07199 0.58237 0.0
H928 H 0.4957 0.08374 0.53928 0.0
C929 C 0.59523 0.09683 0.58086 0.0
C930 C 0.62571 0.11905 0.56446 0.0
H931 H 0.50835 0.06046 0.59537 0.0
H932 H 0.62226 0.10168 0.59276 0.0
C933 C 0.58871 0.10993 0.54926 0.0
C934 C 0.88249 0.46017 0.55493 0.0
C935 C 0.87818 0.4301 0.57113 0.0
H936 H 0.8589 0.52216 0.54059 0.0
C937 C 0.85438 0.44567 0.58602 0.0
H938 H 0.90005 0.44788 0.54325 0.0
C939 C 0.83032 0.48684 0.58451 0.0
C940 C 0.82935 0.51306 0.56803 0.0
H941 H 0.85074 0.4228 0.59862 0.0
H942 H 0.81019 0.49601 0.59619 0.0
C943 C 0.85805 0.50163 0.55337 0.0
C944 C 0.45257 0.36489 0.57947 0.0
C945 C 0.44165 0.3315 0.56344 0.0
H946 H 0.50362 0.45484 0.59267 0.0
C947 C 0.46481 0.36569 0.54761 0.0
H948 H 0.43364 0.33989 0.59182 0.0
C949 C 0.5043 0.43211 0.54813 0.0
C950 C 0.51999 0.46415 0.56445 0.0
H951 H 0.4561 0.3409 0.53506 0.0
H952 H 0.52706 0.45736 0.53608 0.0
C953 C 0.49147 0.4307 0.57996 0.0
loop_
_geom_bond_atom_site_label_1
_geom_bond_atom_site_label_2
_geom_bond_distance
_geom_bond_site_symmetry_2
_ccdc_geom_bond_type
O0 Zn1 1.953 . S
O0 C16 1.225 . S
Zn1 O0 1.953 . S
Zn1 O2 1.949 . S
Zn1 O8 1.919 . S
Zn1 O13 1.924 1_545 S
O2 Zn1 1.949 . S
O2 Zn3 1.923 . S
O2 Zn4 1.950 . S
O2 Zn5 1.945 1_545 S
Zn3 O2 1.923 . S
Zn3 O6 1.933 1_545 S
Zn3 O9 1.941 . S
Zn3 O10 1.965 . S
Zn4 O2 1.950 . S
Zn4 O11 1.938 . S
Zn4 O12 1.906 . S
Zn4 O22 1.953 . S
Zn5 O2 1.945 1_565 S
Zn5 O7 1.932 . S
Zn5 O14 1.977 . S
Zn5 O15 1.910 . S
O6 Zn3 1.933 1_565 S
O6 C17 1.226 . S
O7 Zn5 1.932 . S
O7 C17 1.307 . S
O8 Zn1 1.919 . S
O8 C19 1.255 1_545 S
O9 Zn3 1.941 . S
O9 C19 1.280 1_545 S
O10 Zn3 1.965 . S
O10 C18 1.303 . S
O11 Zn4 1.938 . S
O11 C18 1.247 . S
O12 Zn4 1.906 . S
O12 C20 1.304 1_545 S
O13 Zn1 1.924 1_565 S
O13 C21 1.311 . S
O14 Zn5 1.977 . S
O14 C20 1.272 . S
O15 Zn5 1.910 . S
O15 C21 1.231 . S
C16 O0 1.225 . S
C16 O22 1.298 . S
C17 O6 1.226 . S
C17 O7 1.307 . S
C18 O10 1.303 . S
C18 O11 1.247 . S
C19 O8 1.255 1_565 S
C19 O9 1.280 1_565 S
C20 O12 1.304 1_565 S
C20 O14 1.272 . S
C21 O13 1.311 . S
C21 O15 1.231 . S
O22 Zn4 1.953 . S
O22 C16 1.298 . S
O23 Zn24 1.953 1_655 S
O23 C39 1.225 . S
Zn24 O23 1.953 1_455 S
Zn24 O25 1.949 . S
Zn24 O31 1.919 . S
Zn24 O36 1.924 . S
O25 Zn24 1.949 . S
O25 Zn26 1.923 . S
O25 Zn27 1.950 1_455 S
O25 Zn28 1.945 . S
Zn26 O25 1.923 . S
Zn26 O29 1.933 . S
Zn26 O32 1.941 . S
Zn26 O33 1.965 1_455 S
Zn27 O25 1.950 1_655 S
Zn27 O34 1.938 . S
Zn27 O35 1.906 . S
Zn27 O45 1.953 . S
Zn28 O25 1.945 . S
Zn28 O30 1.932 . S
Zn28 O37 1.977 . S
Zn28 O38 1.910 . S
O29 Zn26 1.933 . S
O29 C40 1.226 . S
O30 Zn28 1.932 . S
O30 C40 1.307 . S
O31 Zn24 1.919 . S
O31 C42 1.253 . S
O32 Zn26 1.941 . S
O32 C42 1.283 . S
O33 Zn26 1.965 1_655 S
O33 C41 1.303 . S
O34 Zn27 1.938 . S
O34 C41 1.247 . S
O35 Zn27 1.906 . S
O35 C43 1.304 1_655 S
O36 Zn24 1.924 . S
O36 C44 1.311 . S
O37 Zn28 1.977 . S
O37 C43 1.272 . S
O38 Zn28 1.910 . S
O38 C44 1.231 . S
C39 O23 1.225 . S
C39 O45 1.298 . S
C40 O29 1.226 . S
C40 O30 1.307 . S
C41 O33 1.303 . S
C41 O34 1.247 . S
C42 O31 1.253 . S
C42 O32 1.283 . S
C43 O35 1.304 1_455 S
C43 O37 1.272 . S
C44 O36 1.311 . S
C44 O38 1.231 . S
O45 Zn27 1.953 . S
O45 C39 1.298 . S
O46 Zn47 1.953 . S
O46 C62 1.225 . S
Zn47 O46 1.953 . S
Zn47 O48 1.949 . S
Zn47 O54 1.919 . S
Zn47 O59 1.924 . S
O48 Zn47 1.949 . S
O48 Zn49 1.923 . S
O48 Zn50 1.950 . S
O48 Zn51 1.945 . S
Zn49 O48 1.923 . S
Zn49 O52 1.933 . S
Zn49 O55 1.941 . S
Zn49 O56 1.965 . S
Zn50 O48 1.950 . S
Zn50 O57 1.938 . S
Zn50 O58 1.906 . S
Zn50 O68 1.953 . S
Zn51 O48 1.945 . S
Zn51 O53 1.932 . S
Zn51 O60 1.977 . S
Zn51 O61 1.910 . S
O52 Zn49 1.933 . S
O52 C63 1.226 . S
O53 Zn51 1.932 . S
O53 C63 1.307 . S
O54 Zn47 1.919 . S
O54 C65 1.253 . S
O55 Zn49 1.941 . S
O55 C65 1.283 . S
O56 Zn49 1.965 . S
O56 C64 1.303 . S
O57 Zn50 1.938 . S
O57 C64 1.247 . S
O58 Zn50 1.906 . S
O58 C66 1.304 . S
O59 Zn47 1.924 . S
O59 C67 1.311 . S
O60 Zn51 1.977 . S
O60 C66 1.272 . S
O61 Zn51 1.910 . S
O61 C67 1.231 . S
C62 O46 1.225 . S
C62 O68 1.298 . S
C63 O52 1.226 . S
C63 O53 1.307 . S
C64 O56 1.303 . S
C64 O57 1.247 . S
C65 O54 1.253 . S
C65 O55 1.283 . S
C66 O58 1.304 . S
C66 O60 1.272 . S
C67 O59 1.311 . S
C67 O61 1.231 . S
O68 Zn50 1.953 . S
O68 C62 1.298 . S
O69 Zn70 1.953 . S
O69 C85 1.225 . S
Zn70 O69 1.953 . S
Zn70 O71 1.949 . S
Zn70 O77 1.919 . S
Zn70 O82 1.924 1_455 S
O71 Zn70 1.949 . S
O71 Zn72 1.923 . S
O71 Zn73 1.950 . S
O71 Zn74 1.945 1_455 S
Zn72 O71 1.923 . S
Zn72 O75 1.933 1_455 S
Zn72 O78 1.941 . S
Zn72 O79 1.965 . S
Zn73 O71 1.950 . S
Zn73 O80 1.938 . S
Zn73 O81 1.906 . S
Zn73 O91 1.953 . S
Zn74 O71 1.945 1_655 S
Zn74 O76 1.932 . S
Zn74 O83 1.977 . S
Zn74 O84 1.910 . S
O75 Zn72 1.933 1_655 S
O75 C86 1.226 . S
O76 Zn74 1.932 . S
O76 C86 1.307 . S
O77 Zn70 1.919 . S
O77 C88 1.255 1_455 S
O78 Zn72 1.941 . S
O78 C88 1.280 1_455 S
O79 Zn72 1.965 . S
O79 C87 1.303 . S
O80 Zn73 1.938 . S
O80 C87 1.247 . S
O81 Zn73 1.906 . S
O81 C89 1.304 1_455 S
O82 Zn70 1.924 1_655 S
O82 C90 1.311 . S
O83 Zn74 1.977 . S
O83 C89 1.272 . S
O84 Zn74 1.910 . S
O84 C90 1.231 . S
C85 O69 1.225 . S
C85 O91 1.298 . S
C86 O75 1.226 . S
C86 O76 1.307 . S
C87 O79 1.303 . S
C87 O80 1.247 . S
C88 O77 1.255 1_655 S
C88 O78 1.280 1_655 S
C89 O81 1.304 1_655 S
C89 O83 1.272 . S
C90 O82 1.311 . S
C90 O84 1.231 . S
O91 Zn73 1.953 . S
O91 C85 1.298 . S
O92 Zn93 1.953 . S
O92 C108 1.225 . S
Zn93 O92 1.953 . S
Zn93 O94 1.949 . S
Zn93 O100 1.919 . S
Zn93 O105 1.924 . S
O94 Zn93 1.949 . S
O94 Zn95 1.923 . S
O94 Zn96 1.950 . S
O94 Zn97 1.945 . S
Zn95 O94 1.923 . S
Zn95 O98 1.933 . S
Zn95 O101 1.941 . S
Zn95 O102 1.965 . S
Zn96 O94 1.950 . S
Zn96 O103 1.938 . S
Zn96 O104 1.906 . S
Zn96 O114 1.953 . S
Zn97 O94 1.945 . S
Zn97 O99 1.932 . S
Zn97 O106 1.977 . S
Zn97 O107 1.910 . S
O98 Zn95 1.933 . S
O98 C109 1.226 . S
O99 Zn97 1.932 . S
O99 C109 1.307 . S
O100 Zn93 1.919 . S
O100 C111 1.253 . S
O101 Zn95 1.941 . S
O101 C111 1.283 . S
O102 Zn95 1.965 . S
O102 C110 1.303 . S
O103 Zn96 1.938 . S
O103 C110 1.247 . S
O104 Zn96 1.906 . S
O104 C112 1.304 . S
O105 Zn93 1.924 . S
O105 C113 1.311 . S
O106 Zn97 1.977 . S
O106 C112 1.272 . S
O107 Zn97 1.910 . S
O107 C113 1.231 . S
C108 O92 1.225 . S
C108 O114 1.298 . S
C109 O98 1.226 . S
C109 O99 1.307 . S
C110 O102 1.303 . S
C110 O103 1.247 . S
C111 O100 1.253 . S
C111 O101 1.283 . S
C112 O104 1.304 . S
C112 O106 1.272 . S
C113 O105 1.311 . S
C113 O107 1.231 . S
O114 Zn96 1.953 . S
O114 C108 1.298 . S
O115 Zn116 1.953 1_565 S
O115 C131 1.225 . S
Zn116 O115 1.953 1_545 S
Zn116 O117 1.949 . S
Zn116 O123 1.919 . S
Zn116 O128 1.924 . S
O117 Zn116 1.949 . S
O117 Zn118 1.923 . S
O117 Zn119 1.950 1_545 S
O117 Zn120 1.945 . S
Zn118 O117 1.923 . S
Zn118 O121 1.933 . S
Zn118 O124 1.941 . S
Zn118 O125 1.965 1_545 S
Zn119 O117 1.950 1_565 S
Zn119 O126 1.938 . S
Zn119 O127 1.906 . S
Zn119 O137 1.953 . S
Zn120 O117 1.945 . S
Zn120 O122 1.932 . S
Zn120 O129 1.977 . S
Zn120 O130 1.910 . S
O121 Zn118 1.933 . S
O121 C132 1.226 . S
O122 Zn120 1.932 . S
O122 C132 1.307 . S
O123 Zn116 1.919 . S
O123 C134 1.253 . S
O124 Zn118 1.941 . S
O124 C134 1.283 . S
O125 Zn118 1.965 1_565 S
O125 C133 1.303 . S
O126 Zn119 1.938 . S
O126 C133 1.247 . S
O127 Zn119 1.906 . S
O127 C135 1.304 1_565 S
O128 Zn116 1.924 . S
O128 C136 1.311 . S
O129 Zn120 1.977 . S
O129 C135 1.272 . S
O130 Zn120 1.910 . S
O130 C136 1.231 . S
C131 O115 1.225 . S
C131 O137 1.298 . S
C132 O121 1.226 . S
C132 O122 1.307 . S
C133 O125 1.303 . S
C133 O126 1.247 . S
C134 O123 1.253 . S
C134 O124 1.283 . S
C135 O127 1.304 1_545 S
C135 O129 1.272 . S
C136 O128 1.311 . S
C136 O130 1.231 . S
O137 Zn119 1.953 . S
O137 C131 1.298 . S
O138 Zn139 1.953 . S
O138 C154 1.225 . S
Zn139 O138 1.953 . S
Zn139 O140 1.949 . S
Zn139 O146 1.919 . S
Zn139 O151 1.924 . S
O140 Zn139 1.949 . S
O140 Zn141 1.923 . S
O140 Zn142 1.950 . S
O140 Zn143 1.945 . S
Zn141 O140 1.923 . S
Zn141 O144 1.933 1_455 S
Zn141 O147 1.941 . S
Zn141 O148 1.965 . S
Zn142 O140 1.950 . S
Zn142 O149 1.938 . S
Zn142 O150 1.906 . S
Zn142 O160 1.953 . S
Zn143 O140 1.945 . S
Zn143 O145 1.932 1_455 S
Zn143 O152 1.977 . S
Zn143 O153 1.910 . S
O144 Zn141 1.933 1_655 S
O144 C155 1.226 . S
O145 Zn143 1.932 1_655 S
O145 C155 1.307 . S
O146 Zn139 1.919 . S
O146 C157 1.253 . S
O147 Zn141 1.941 . S
O147 C157 1.283 . S
O148 Zn141 1.965 . S
O148 C156 1.303 . S
O149 Zn142 1.938 . S
O149 C156 1.247 . S
O150 Zn142 1.906 . S
O150 C158 1.304 . S
O151 Zn139 1.924 . S
O151 C159 1.311 . S
O152 Zn143 1.977 . S
O152 C158 1.272 . S
O153 Zn143 1.910 . S
O153 C159 1.231 . S
C154 O138 1.225 . S
C154 O160 1.298 . S
C155 O144 1.226 . S
C155 O145 1.307 . S
C156 O148 1.303 . S
C156 O149 1.247 . S
C157 O146 1.253 . S
C157 O147 1.283 . S
C158 O150 1.304 . S
C158 O152 1.272 . S
C159 O151 1.311 . S
C159 O153 1.231 . S
O160 Zn142 1.953 . S
O160 C154 1.298 . S
O161 Zn162 1.953 . S
O161 C177 1.225 . S
Zn162 O161 1.953 . S
Zn162 O163 1.949 . S
Zn162 O169 1.919 . S
Zn162 O174 1.924 . S
O163 Zn162 1.949 . S
O163 Zn164 1.923 . S
O163 Zn165 1.950 . S
O163 Zn166 1.945 . S
Zn164 O163 1.923 . S
Zn164 O167 1.933 . S
Zn164 O170 1.941 . S
Zn164 O171 1.965 . S
Zn165 O163 1.950 . S
Zn165 O172 1.938 . S
Zn165 O173 1.906 . S
Zn165 O183 1.953 . S
Zn166 O163 1.945 . S
Zn166 O168 1.932 . S
Zn166 O175 1.977 . S
Zn166 O176 1.910 . S
O167 Zn164 1.933 . S
O167 C178 1.226 . S
O168 Zn166 1.932 . S
O168 C178 1.307 . S
O169 Zn162 1.919 . S
O169 C180 1.253 . S
O170 Zn164 1.941 . S
O170 C180 1.283 . S
O171 Zn164 1.965 . S
O171 C179 1.303 . S
O172 Zn165 1.938 . S
O172 C179 1.247 . S
O173 Zn165 1.906 . S
O173 C181 1.304 . S
O174 Zn162 1.924 . S
O174 C182 1.311 . S
O175 Zn166 1.977 . S
O175 C181 1.272 . S
O176 Zn166 1.910 . S
O176 C182 1.231 . S
C177 O161 1.225 . S
C177 O183 1.298 . S
C178 O167 1.226 . S
C178 O168 1.307 . S
C179 O171 1.303 . S
C179 O172 1.247 . S
C180 O169 1.253 . S
C180 O170 1.283 . S
C181 O173 1.304 . S
C181 O175 1.272 . S
C182 O174 1.311 . S
C182 O176 1.231 . S
O183 Zn165 1.953 . S
O183 C177 1.298 . S
O184 Zn185 1.953 . S
O184 C200 1.225 . S
Zn185 O184 1.953 . S
Zn185 O186 1.949 . S
Zn185 O192 1.919 . S
Zn185 O197 1.924 . S
O186 Zn185 1.949 . S
O186 Zn187 1.923 . S
O186 Zn188 1.950 . S
O186 Zn189 1.945 . S
Zn187 O186 1.923 . S
Zn187 O190 1.933 1_565 S
Zn187 O193 1.941 . S
Zn187 O194 1.965 . S
Zn188 O186 1.950 . S
Zn188 O195 1.938 . S
Zn188 O196 1.906 . S
Zn188 O206 1.953 . S
Zn189 O186 1.945 . S
Zn189 O191 1.932 1_565 S
Zn189 O198 1.977 . S
Zn189 O199 1.910 . S
O190 Zn187 1.933 1_545 S
O190 C201 1.226 . S
O191 Zn189 1.932 1_545 S
O191 C201 1.307 . S
O192 Zn185 1.919 . S
O192 C203 1.253 . S
O193 Zn187 1.941 . S
O193 C203 1.283 . S
O194 Zn187 1.965 . S
O194 C202 1.303 . S
O195 Zn188 1.938 . S
O195 C202 1.247 . S
O196 Zn188 1.906 . S
O196 C204 1.304 . S
O197 Zn185 1.924 . S
O197 C205 1.311 . S
O198 Zn189 1.977 . S
O198 C204 1.272 . S
O199 Zn189 1.910 . S
O199 C205 1.231 . S
C200 O184 1.225 . S
C200 O206 1.298 . S
C201 O190 1.226 . S
C201 O191 1.307 . S
C202 O194 1.303 . S
C202 O195 1.247 . S
C203 O192 1.253 . S
C203 O193 1.283 . S
C204 O196 1.304 . S
C204 O198 1.272 . S
C205 O197 1.311 . S
C205 O199 1.231 . S
O206 Zn188 1.953 . S
O206 C200 1.298 . S
O207 Zn208 1.953 . S
O207 C223 1.225 . S
Zn208 O207 1.953 . S
Zn208 O209 1.949 . S
Zn208 O215 1.919 . S
Zn208 O220 1.924 . S
O209 Zn208 1.949 . S
O209 Zn210 1.923 . S
O209 Zn211 1.950 . S
O209 Zn212 1.945 . S
Zn210 O209 1.923 . S
Zn210 O213 1.933 . S
Zn210 O216 1.941 . S
Zn210 O217 1.965 . S
Zn211 O209 1.950 . S
Zn211 O218 1.938 . S
Zn211 O219 1.906 . S
Zn211 O229 1.953 . S
Zn212 O209 1.945 . S
Zn212 O214 1.932 . S
Zn212 O221 1.977 . S
Zn212 O222 1.910 . S
O213 Zn210 1.933 . S
O213 C224 1.226 . S
O214 Zn212 1.932 . S
O214 C224 1.307 . S
O215 Zn208 1.919 . S
O215 C226 1.253 . S
O216 Zn210 1.941 . S
O216 C226 1.283 . S
O217 Zn210 1.965 . S
O217 C225 1.303 . S
O218 Zn211 1.938 . S
O218 C225 1.247 . S
O219 Zn211 1.906 . S
O219 C227 1.304 . S
O220 Zn208 1.924 . S
O220 C228 1.311 . S
O221 Zn212 1.977 . S
O221 C227 1.272 . S
O222 Zn212 1.910 . S
O222 C228 1.231 . S
C223 O207 1.225 . S
C223 O229 1.298 . S
C224 O213 1.226 . S
C224 O214 1.307 . S
C225 O217 1.303 . S
C225 O218 1.247 . S
C226 O215 1.253 . S
C226 O216 1.283 . S
C227 O219 1.304 . S
C227 O221 1.272 . S
C228 O220 1.311 . S
C228 O222 1.231 . S
O229 Zn211 1.953 . S
O229 C223 1.298 . S
O230 Zn231 1.953 . S
O230 C246 1.225 . S
Zn231 O230 1.953 . S
Zn231 O232 1.949 . S
Zn231 O238 1.919 . S
Zn231 O243 1.924 . S
O232 Zn231 1.949 . S
O232 Zn233 1.923 . S
O232 Zn234 1.950 . S
O232 Zn235 1.945 . S
Zn233 O232 1.923 . S
Zn233 O236 1.933 . S
Zn233 O239 1.941 . S
Zn233 O240 1.965 1_565 S
Zn234 O232 1.950 . S
Zn234 O241 1.938 1_565 S
Zn234 O242 1.906 . S
Zn234 O252 1.953 . S
Zn235 O232 1.945 . S
Zn235 O237 1.932 . S
Zn235 O244 1.977 . S
Zn235 O245 1.910 . S
O236 Zn233 1.933 . S
O236 C247 1.226 . S
O237 Zn235 1.932 . S
O237 C247 1.307 . S
O238 Zn231 1.919 . S
O238 C249 1.253 . S
O239 Zn233 1.941 . S
O239 C249 1.283 . S
O240 Zn233 1.965 1_545 S
O240 C248 1.303 . S
O241 Zn234 1.938 1_545 S
O241 C248 1.247 . S
O242 Zn234 1.906 . S
O242 C250 1.304 . S
O243 Zn231 1.924 . S
O243 C251 1.311 . S
O244 Zn235 1.977 . S
O244 C250 1.272 . S
O245 Zn235 1.910 . S
O245 C251 1.231 . S
C246 O230 1.225 . S
C246 O252 1.298 . S
C247 O236 1.226 . S
C247 O237 1.307 . S
C248 O240 1.303 . S
C248 O241 1.247 . S
C249 O238 1.253 . S
C249 O239 1.283 . S
C250 O242 1.304 . S
C250 O244 1.272 . S
C251 O243 1.311 . S
C251 O245 1.231 . S
O252 Zn234 1.953 . S
O252 C246 1.298 . S
O253 Zn254 1.953 . S
O253 C269 1.225 . S
Zn254 O253 1.953 . S
Zn254 O255 1.949 . S
Zn254 O261 1.919 . S
Zn254 O266 1.924 . S
O255 Zn254 1.949 . S
O255 Zn256 1.923 . S
O255 Zn257 1.950 . S
O255 Zn258 1.945 . S
Zn256 O255 1.923 . S
Zn256 O259 1.933 . S
Zn256 O262 1.941 . S
Zn256 O263 1.965 1_455 S
Zn257 O255 1.950 . S
Zn257 O264 1.938 . S
Zn257 O265 1.906 . S
Zn257 O275 1.953 . S
Zn258 O255 1.945 . S
Zn258 O260 1.932 . S
Zn258 O267 1.977 . S
Zn258 O268 1.910 . S
O259 Zn256 1.933 . S
O259 C270 1.226 . S
O260 Zn258 1.932 . S
O260 C270 1.307 . S
O261 Zn254 1.919 . S
O261 C272 1.253 . S
O262 Zn256 1.941 . S
O262 C272 1.283 . S
O263 Zn256 1.965 1_655 S
O263 C271 1.303 . S
O264 Zn257 1.938 . S
O264 C271 1.247 1_455 S
O265 Zn257 1.906 . S
O265 C273 1.304 . S
O266 Zn254 1.924 . S
O266 C274 1.311 . S
O267 Zn258 1.977 . S
O267 C273 1.272 . S
O268 Zn258 1.910 . S
O268 C274 1.231 . S
C269 O253 1.225 . S
C269 O275 1.298 . S
C270 O259 1.226 . S
C270 O260 1.307 . S
C271 O263 1.303 . S
C271 O264 1.247 1_655 S
C272 O261 1.253 . S
C272 O262 1.283 . S
C273 O265 1.304 . S
C273 O267 1.272 . S
C274 O266 1.311 . S
C274 O268 1.231 . S
O275 Zn257 1.953 . S
O275 C269 1.298 . S
O276 Zn277 1.953 . S
O276 C292 1.225 . S
Zn277 O276 1.953 . S
Zn277 O278 1.949 . S
Zn277 O284 1.919 . S
Zn277 O289 1.924 . S
O278 Zn277 1.949 . S
O278 Zn279 1.923 . S
O278 Zn280 1.950 . S
O278 Zn281 1.945 . S
Zn279 O278 1.923 . S
Zn279 O282 1.933 . S
Zn279 O285 1.941 . S
Zn279 O286 1.965 . S
Zn280 O278 1.950 . S
Zn280 O287 1.938 . S
Zn280 O288 1.906 . S
Zn280 O298 1.953 . S
Zn281 O278 1.945 . S
Zn281 O283 1.932 . S
Zn281 O290 1.977 . S
Zn281 O291 1.910 . S
O282 Zn279 1.933 . S
O282 C293 1.226 . S
O283 Zn281 1.932 . S
O283 C293 1.307 . S
O284 Zn277 1.919 . S
O284 C295 1.253 . S
O285 Zn279 1.941 . S
O285 C295 1.283 . S
O286 Zn279 1.965 . S
O286 C294 1.303 . S
O287 Zn280 1.938 . S
O287 C294 1.247 . S
O288 Zn280 1.906 . S
O288 C296 1.304 . S
O289 Zn277 1.924 . S
O289 C297 1.311 . S
O290 Zn281 1.977 . S
O290 C296 1.272 . S
O291 Zn281 1.910 . S
O291 C297 1.231 . S
C292 O276 1.225 . S
C292 O298 1.298 . S
C293 O282 1.226 . S
C293 O283 1.307 . S
C294 O286 1.303 . S
C294 O287 1.247 . S
C295 O284 1.253 . S
C295 O285 1.283 . S
C296 O288 1.304 . S
C296 O290 1.272 . S
C297 O289 1.311 . S
C297 O291 1.231 . S
O298 Zn280 1.953 . S
O298 C292 1.298 . S
O299 Zn300 1.953 . S
O299 C315 1.225 . S
Zn300 O299 1.953 . S
Zn300 O301 1.949 . S
Zn300 O307 1.919 . S
Zn300 O312 1.924 . S
O301 Zn300 1.949 . S
O301 Zn302 1.923 . S
O301 Zn303 1.950 . S
O301 Zn304 1.945 . S
Zn302 O301 1.923 . S
Zn302 O305 1.933 . S
Zn302 O308 1.941 . S
Zn302 O309 1.965 1_545 S
Zn303 O301 1.950 . S
Zn303 O310 1.938 . S
Zn303 O311 1.906 . S
Zn303 O321 1.953 . S
Zn304 O301 1.945 . S
Zn304 O306 1.932 . S
Zn304 O313 1.977 . S
Zn304 O314 1.910 . S
O305 Zn302 1.933 . S
O305 C316 1.226 . S
O306 Zn304 1.932 . S
O306 C316 1.307 . S
O307 Zn300 1.919 . S
O307 C318 1.253 . S
O308 Zn302 1.941 . S
O308 C318 1.283 . S
O309 Zn302 1.965 1_565 S
O309 C317 1.303 . S
O310 Zn303 1.938 . S
O310 C317 1.247 1_545 S
O311 Zn303 1.906 . S
O311 C319 1.304 . S
O312 Zn300 1.924 . S
O312 C320 1.311 . S
O313 Zn304 1.977 . S
O313 C319 1.272 . S
O314 Zn304 1.910 . S
O314 C320 1.231 . S
C315 O299 1.225 . S
C315 O321 1.298 . S
C316 O305 1.226 . S
C316 O306 1.307 . S
C317 O309 1.303 . S
C317 O310 1.247 1_565 S
C318 O307 1.253 . S
C318 O308 1.283 . S
C319 O311 1.304 . S
C319 O313 1.272 . S
C320 O312 1.311 . S
C320 O314 1.231 . S
O321 Zn303 1.953 . S
O321 C315 1.298 . S
O322 Zn323 1.953 . S
O322 C338 1.225 . S
Zn323 O322 1.953 . S
Zn323 O324 1.949 . S
Zn323 O330 1.919 . S
Zn323 O335 1.924 . S
O324 Zn323 1.949 . S
O324 Zn325 1.923 . S
O324 Zn326 1.950 . S
O324 Zn327 1.945 . S
Zn325 O324 1.923 . S
Zn325 O328 1.933 . S
Zn325 O331 1.941 . S
Zn325 O332 1.965 1_655 S
Zn326 O324 1.950 . S
Zn326 O333 1.938 1_655 S
Zn326 O334 1.906 . S
Zn326 O344 1.953 . S
Zn327 O324 1.945 . S
Zn327 O329 1.932 . S
Zn327 O336 1.977 . S
Zn327 O337 1.910 . S
O328 Zn325 1.933 . S
O328 C339 1.226 . S
O329 Zn327 1.932 . S
O329 C339 1.307 . S
O330 Zn323 1.919 . S
O330 C341 1.253 . S
O331 Zn325 1.941 . S
O331 C341 1.283 . S
O332 Zn325 1.965 1_455 S
O332 C340 1.303 . S
O333 Zn326 1.938 1_455 S
O333 C340 1.247 . S
O334 Zn326 1.906 . S
O334 C342 1.304 . S
O335 Zn323 1.924 . S
O335 C343 1.311 . S
O336 Zn327 1.977 . S
O336 C342 1.272 . S
O337 Zn327 1.910 . S
O337 C343 1.231 . S
C338 O322 1.225 . S
C338 O344 1.298 . S
C339 O328 1.226 . S
C339 O329 1.307 . S
C340 O332 1.303 . S
C340 O333 1.247 . S
C341 O330 1.253 . S
C341 O331 1.283 . S
C342 O334 1.304 . S
C342 O336 1.272 . S
C343 O335 1.311 . S
C343 O337 1.231 . S
O344 Zn326 1.953 . S
O344 C338 1.298 . S
O345 Zn346 1.953 . S
O345 C361 1.225 . S
Zn346 O345 1.953 . S
Zn346 O347 1.949 . S
Zn346 O353 1.919 . S
Zn346 O358 1.924 . S
O347 Zn346 1.949 . S
O347 Zn348 1.923 . S
O347 Zn349 1.950 . S
O347 Zn350 1.945 . S
Zn348 O347 1.923 . S
Zn348 O351 1.933 1_545 S
Zn348 O354 1.941 . S
Zn348 O355 1.965 . S
Zn349 O347 1.950 . S
Zn349 O356 1.938 . S
Zn349 O357 1.906 . S
Zn349 O367 1.953 . S
Zn350 O347 1.945 . S
Zn350 O352 1.932 1_545 S
Zn350 O359 1.977 . S
Zn350 O360 1.910 . S
O351 Zn348 1.933 1_565 S
O351 C362 1.226 . S
O352 Zn350 1.932 1_565 S
O352 C362 1.307 . S
O353 Zn346 1.919 . S
O353 C364 1.253 . S
O354 Zn348 1.941 . S
O354 C364 1.283 . S
O355 Zn348 1.965 . S
O355 C363 1.303 . S
O356 Zn349 1.938 . S
O356 C363 1.247 . S
O357 Zn349 1.906 . S
O357 C365 1.304 . S
O358 Zn346 1.924 . S
O358 C366 1.311 . S
O359 Zn350 1.977 . S
O359 C365 1.272 . S
O360 Zn350 1.910 . S
O360 C366 1.231 . S
C361 O345 1.225 . S
C361 O367 1.298 . S
C362 O351 1.226 . S
C362 O352 1.307 . S
C363 O355 1.303 . S
C363 O356 1.247 . S
C364 O353 1.253 . S
C364 O354 1.283 . S
C365 O357 1.304 . S
C365 O359 1.272 . S
C366 O358 1.311 . S
C366 O360 1.231 . S
O367 Zn349 1.953 . S
O367 C361 1.298 . S
O368 Zn369 1.953 . S
O368 C384 1.225 . S
Zn369 O368 1.953 . S
Zn369 O370 1.949 . S
Zn369 O376 1.919 . S
Zn369 O381 1.924 . S
O370 Zn369 1.949 . S
O370 Zn371 1.923 . S
O370 Zn372 1.950 . S
O370 Zn373 1.945 . S
Zn371 O370 1.923 . S
Zn371 O374 1.933 1_655 S
Zn371 O377 1.941 . S
Zn371 O378 1.965 . S
Zn372 O370 1.950 . S
Zn372 O379 1.938 . S
Zn372 O380 1.906 . S
Zn372 O390 1.953 . S
Zn373 O370 1.945 . S
Zn373 O375 1.932 1_655 S
Zn373 O382 1.977 . S
Zn373 O383 1.910 . S
O374 Zn371 1.933 1_455 S
O374 C385 1.226 . S
O375 Zn373 1.932 1_455 S
O375 C385 1.307 . S
O376 Zn369 1.919 . S
O376 C387 1.253 . S
O377 Zn371 1.941 . S
O377 C387 1.283 . S
O378 Zn371 1.965 . S
O378 C386 1.303 . S
O379 Zn372 1.938 . S
O379 C386 1.247 . S
O380 Zn372 1.906 . S
O380 C388 1.304 . S
O381 Zn369 1.924 . S
O381 C389 1.311 . S
O382 Zn373 1.977 . S
O382 C388 1.272 . S
O383 Zn373 1.910 . S
O383 C389 1.231 . S
C384 O368 1.225 . S
C384 O390 1.298 . S
C385 O374 1.226 . S
C385 O375 1.307 . S
C386 O378 1.303 . S
C386 O379 1.247 . S
C387 O376 1.253 . S
C387 O377 1.283 . S
C388 O380 1.304 . S
C388 O382 1.272 . S
C389 O381 1.311 . S
C389 O383 1.231 . S
O390 Zn372 1.953 . S
O390 C384 1.298 . S
O391 Zn392 1.953 . S
O391 C407 1.225 . S
Zn392 O391 1.953 . S
Zn392 O393 1.949 . S
Zn392 O399 1.919 . S
Zn392 O404 1.924 . S
O393 Zn392 1.949 . S
O393 Zn394 1.923 . S
O393 Zn395 1.950 . S
O393 Zn396 1.945 . S
Zn394 O393 1.923 . S
Zn394 O397 1.933 . S
Zn394 O400 1.941 . S
Zn394 O401 1.965 . S
Zn395 O393 1.950 . S
Zn395 O402 1.938 . S
Zn395 O403 1.906 . S
Zn395 O413 1.953 . S
Zn396 O393 1.945 . S
Zn396 O398 1.932 . S
Zn396 O405 1.977 . S
Zn396 O406 1.910 . S
O397 Zn394 1.933 . S
O397 C408 1.226 . S
O398 Zn396 1.932 . S
O398 C408 1.307 . S
O399 Zn392 1.919 . S
O399 C410 1.253 . S
O400 Zn394 1.941 . S
O400 C410 1.283 . S
O401 Zn394 1.965 . S
O401 C409 1.303 . S
O402 Zn395 1.938 . S
O402 C409 1.247 . S
O403 Zn395 1.906 . S
O403 C411 1.304 . S
O404 Zn392 1.924 . S
O404 C412 1.311 . S
O405 Zn396 1.977 . S
O405 C411 1.272 . S
O406 Zn396 1.910 . S
O406 C412 1.231 . S
C407 O391 1.225 . S
C407 O413 1.298 . S
C408 O397 1.226 . S
C408 O398 1.307 . S
C409 O401 1.303 . S
C409 O402 1.247 . S
C410 O399 1.253 . S
C410 O400 1.283 . S
C411 O403 1.304 . S
C411 O405 1.272 . S
C412 O404 1.311 . S
C412 O406 1.231 . S
O413 Zn395 1.953 . S
O413 C407 1.298 . S
C414 C415 1.387 . S
C414 H418 0.950 . S
C414 C423 1.390 . S
C415 C414 1.387 . S
C415 C417 1.387 . S
H416 C423 0.950 . S
C417 C415 1.387 . S
C417 C419 1.390 . S
C417 H421 0.950 . S
H418 C414 0.950 . S
C419 C417 1.390 . S
C419 C420 1.387 . S
C419 H422 0.950 . S
C420 C419 1.387 . S
C420 C423 1.387 . S
H421 C417 0.950 . S
H422 C419 0.950 . S
C423 C414 1.390 . S
C423 H416 0.950 . S
C423 C420 1.387 . S
C424 C425 1.387 . S
C424 H428 0.950 . S
C424 C433 1.390 . S
C425 C424 1.387 . S
C425 C427 1.387 . S
H426 C433 0.950 . S
C427 C425 1.387 . S
C427 C429 1.390 . S
C427 H431 0.950 . S
H428 C424 0.950 . S
C429 C427 1.390 . S
C429 C430 1.387 . S
C429 H432 0.950 . S
C430 C429 1.387 . S
C430 C433 1.387 . S
H431 C427 0.950 . S
H432 C429 0.950 . S
C433 C424 1.390 . S
C433 H426 0.950 . S
C433 C430 1.387 . S
C434 C435 1.387 . S
C434 H438 0.950 . S
C434 C443 1.390 . S
C435 C434 1.387 . S
C435 C437 1.387 . S
H436 C443 0.950 . S
C437 C435 1.387 . S
C437 C439 1.390 . S
C437 H441 0.950 . S
H438 C434 0.950 . S
C439 C437 1.390 . S
C439 C440 1.387 . S
C439 H442 0.950 . S
C440 C439 1.387 . S
C440 C443 1.387 . S
H441 C437 0.950 . S
H442 C439 0.950 . S
C443 C434 1.390 . S
C443 H436 0.950 . S
C443 C440 1.387 . S
C444 C445 1.387 . S
C444 H448 0.950 . S
C444 C453 1.390 . S
C445 C444 1.387 . S
C445 C447 1.387 . S
H446 C453 0.950 . S
C447 C445 1.387 . S
C447 C449 1.390 . S
C447 H451 0.950 . S
H448 C444 0.950 . S
C449 C447 1.390 . S
C449 C450 1.387 . S
C449 H452 0.950 . S
C450 C449 1.387 . S
C450 C453 1.387 . S
H451 C447 0.950 . S
H452 C449 0.950 . S
C453 C444 1.390 . S
C453 H446 0.950 . S
C453 C450 1.387 . S
C454 C455 1.387 . S
C454 H458 0.950 . S
C454 C463 1.390 . S
C455 C454 1.387 . S
C455 C457 1.387 . S
H456 C463 0.950 . S
C457 C455 1.387 . S
C457 C459 1.390 . S
C457 H461 0.950 . S
H458 C454 0.950 . S
C459 C457 1.390 . S
C459 C460 1.387 . S
C459 H462 0.950 . S
C460 C459 1.387 . S
C460 C463 1.387 . S
H461 C457 0.950 . S
H462 C459 0.950 . S
C463 C454 1.390 . S
C463 H456 0.950 . S
C463 C460 1.387 . S
C464 C465 1.387 . S
C464 H468 0.950 . S
C464 C473 1.390 . S
C465 C464 1.387 . S
C465 C467 1.387 . S
H466 C473 0.950 . S
C467 C465 1.387 . S
C467 C469 1.390 . S
C467 H471 0.950 . S
H468 C464 0.950 . S
C469 C467 1.390 . S
C469 C470 1.387 . S
C469 H472 0.950 . S
C470 C469 1.387 . S
C470 C473 1.387 . S
H471 C467 0.950 . S
H472 C469 0.950 . S
C473 C464 1.390 . S
C473 H466 0.950 . S
C473 C470 1.387 . S
C474 C475 1.387 . S
C474 H478 0.950 . S
C474 C483 1.390 . S
C475 C474 1.387 . S
C475 C477 1.387 . S
H476 C483 0.950 . S
C477 C475 1.387 . S
C477 C479 1.390 . S
C477 H481 0.950 . S
H478 C474 0.950 . S
C479 C477 1.390 . S
C479 C480 1.387 . S
C479 H482 0.950 . S
C480 C479 1.387 . S
C480 C483 1.387 . S
H481 C477 0.950 . S
H482 C479 0.950 . S
C483 C474 1.390 . S
C483 H476 0.950 . S
C483 C480 1.387 . S
C484 C485 1.387 . S
C484 H488 0.950 . S
C484 C493 1.390 . S
C485 C484 1.387 . S
C485 C487 1.387 . S
H486 C493 0.950 . S
C487 C485 1.387 . S
C487 C489 1.390 . S
C487 H491 0.950 . S
H488 C484 0.950 . S
C489 C487 1.390 . S
C489 C490 1.387 . S
C489 H492 0.950 . S
C490 C489 1.387 . S
C490 C493 1.387 . S
H491 C487 0.950 . S
H492 C489 0.950 . S
C493 C484 1.390 . S
C493 H486 0.950 . S
C493 C490 1.387 . S
C494 C495 1.387 . S
C494 H498 0.950 1_655 S
C494 C503 1.390 . S
C495 C494 1.387 . S
C495 C497 1.387 . S
H496 C503 0.950 . S
C497 C495 1.387 . S
C497 C499 1.390 . S
C497 H501 0.950 . S
H498 C494 0.950 1_455 S
C499 C497 1.390 . S
C499 C500 1.387 . S
C499 H502 0.950 . S
C500 C499 1.387 . S
C500 C503 1.387 . S
H501 C497 0.950 . S
H502 C499 0.950 . S
C503 C494 1.390 . S
C503 H496 0.950 . S
C503 C500 1.387 . S
C504 C505 1.387 . S
C504 H508 0.950 . S
C504 C513 1.390 . S
C505 C504 1.387 . S
C505 C507 1.387 . S
H506 C513 0.950 . S
C507 C505 1.387 . S
C507 C509 1.390 . S
C507 H511 0.950 . S
H508 C504 0.950 . S
C509 C507 1.390 . S
C509 C510 1.387 . S
C509 H512 0.950 . S
C510 C509 1.387 . S
C510 C513 1.387 . S
H511 C507 0.950 . S
H512 C509 0.950 . S
C513 C504 1.390 . S
C513 H506 0.950 . S
C513 C510 1.387 . S
C514 C515 1.387 . S
C514 H518 0.950 . S
C514 C523 1.390 . S
C515 C514 1.387 . S
C515 C517 1.387 . S
H516 C523 0.950 . S
C517 C515 1.387 . S
C517 C519 1.390 . S
C517 H521 0.950 . S
H518 C514 0.950 . S
C519 C517 1.390 . S
C519 C520 1.387 . S
C519 H522 0.950 . S
C520 C519 1.387 . S
C520 C523 1.387 . S
H521 C517 0.950 . S
H522 C519 0.950 . S
C523 C514 1.390 . S
C523 H516 0.950 . S
C523 C520 1.387 . S
C524 C525 1.387 . S
C524 H528 0.950 . S
C524 C533 1.390 . S
C525 C524 1.387 . S
C525 C527 1.387 . S
H526 C533 0.950 . S
C527 C525 1.387 . S
C527 C529 1.390 . S
C527 H531 0.950 . S
H528 C524 0.950 . S
C529 C527 1.390 . S
C529 C530 1.387 . S
C529 H532 0.950 . S
C530 C529 1.387 . S
C530 C533 1.387 . S
H531 C527 0.950 . S
H532 C529 0.950 . S
C533 C524 1.390 . S
C533 H526 0.950 . S
C533 C530 1.387 . S
C534 C535 1.387 . S
C534 H538 0.950 . S
C534 C543 1.390 . S
C535 C534 1.387 . S
C535 C537 1.387 . S
H536 C543 0.950 . S
C537 C535 1.387 . S
C537 C539 1.390 . S
C537 H541 0.950 . S
H538 C534 0.950 . S
C539 C537 1.390 . S
C539 C540 1.387 . S
C539 H542 0.950 . S
C540 C539 1.387 . S
C540 C543 1.387 . S
H541 C537 0.950 . S
H542 C539 0.950 . S
C543 C534 1.390 . S
C543 H536 0.950 . S
C543 C540 1.387 . S
C544 C545 1.387 . S
C544 H548 0.950 . S
C544 C553 1.390 . S
C545 C544 1.387 . S
C545 C547 1.387 . S
H546 C553 0.950 . S
C547 C545 1.387 . S
C547 C549 1.390 . S
C547 H551 0.950 . S
H548 C544 0.950 . S
C549 C547 1.390 . S
C549 C550 1.387 . S
C549 H552 0.950 . S
C550 C549 1.387 . S
C550 C553 1.387 . S
H551 C547 0.950 . S
H552 C549 0.950 . S
C553 C544 1.390 . S
C553 H546 0.950 . S
C553 C550 1.387 . S
C554 C555 1.387 . S
C554 H558 0.950 . S
C554 C563 1.390 . S
C555 C554 1.387 . S
C555 C557 1.387 . S
H556 C563 0.950 . S
C557 C555 1.387 . S
C557 C559 1.390 . S
C557 H561 0.950 . S
H558 C554 0.950 . S
C559 C557 1.390 . S
C559 C560 1.387 . S
C559 H562 0.950 . S
C560 C559 1.387 . S
C560 C563 1.387 . S
H561 C557 0.950 . S
H562 C559 0.950 . S
C563 C554 1.390 . S
C563 H556 0.950 . S
C563 C560 1.387 . S
C564 C565 1.387 . S
C564 H568 0.950 . S
C564 C573 1.390 . S
C565 C564 1.387 . S
C565 C567 1.387 . S
H566 C573 0.950 . S
C567 C565 1.387 . S
C567 C569 1.390 . S
C567 H571 0.950 . S
H568 C564 0.950 . S
C569 C567 1.390 . S
C569 C570 1.387 . S
C569 H572 0.950 . S
C570 C569 1.387 . S
C570 C573 1.387 . S
H571 C567 0.950 . S
H572 C569 0.950 . S
C573 C564 1.390 . S
C573 H566 0.950 . S
C573 C570 1.387 . S
C574 C575 1.387 . S
C574 H578 0.950 . S
C574 C583 1.390 . S
C575 C574 1.387 . S
C575 C577 1.387 . S
H576 C583 0.950 . S
C577 C575 1.387 . S
C577 C579 1.390 . S
C577 H581 0.950 . S
H578 C574 0.950 . S
C579 C577 1.390 . S
C579 C580 1.387 . S
C579 H582 0.950 . S
C580 C579 1.387 . S
C580 C583 1.387 . S
H581 C577 0.950 . S
H582 C579 0.950 . S
C583 C574 1.390 . S
C583 H576 0.950 . S
C583 C580 1.387 . S
C584 C585 1.387 . S
C584 H588 0.950 . S
C584 C593 1.390 . S
C585 C584 1.387 . S
C585 C587 1.387 . S
H586 C593 0.950 . S
C587 C585 1.387 . S
C587 C589 1.390 . S
C587 H591 0.950 . S
H588 C584 0.950 . S
C589 C587 1.390 . S
C589 C590 1.387 . S
C589 H592 0.950 . S
C590 C589 1.387 . S
C590 C593 1.387 . S
H591 C587 0.950 . S
H592 C589 0.950 . S
C593 C584 1.390 . S
C593 H586 0.950 . S
C593 C590 1.387 . S
C594 C595 1.392 . S
C594 H598 0.945 . S
C594 C603 1.390 1_554 S
C595 C594 1.392 . S
C595 C597 1.385 . S
H596 C603 0.950 . S
C597 C595 1.385 . S
C597 C599 1.390 1_554 S
C597 H601 0.950 . S
H598 C594 0.945 . S
C599 C597 1.390 1_556 S
C599 C600 1.387 . S
C599 H602 0.950 . S
C600 C599 1.387 . S
C600 C603 1.387 . S
H601 C597 0.950 . S
H602 C599 0.950 . S
C603 C594 1.390 1_556 S
C603 H596 0.950 . S
C603 C600 1.387 . S
C604 C605 1.390 . S
C604 H608 0.950 . S
C604 C613 1.390 1_556 S
C605 C604 1.390 . S
C605 C607 1.388 1_455 S
H606 C613 0.950 . S
C607 C605 1.388 1_655 S
C607 C609 1.390 1_556 S
C607 H611 0.950 . S
H608 C604 0.950 . S
C609 C607 1.390 1_554 S
C609 C610 1.387 1_655 S
C609 H612 0.950 . S
C610 C609 1.387 1_455 S
C610 C613 1.387 . S
H611 C607 0.950 . S
H612 C609 0.950 . S
C613 C604 1.390 1_554 S
C613 H606 0.950 . S
C613 C610 1.387 . S
C614 C615 1.387 . S
C614 H618 0.950 . S
C614 C623 1.390 1_556 S
C615 C614 1.387 . S
C615 C617 1.387 . S
H616 C623 0.950 . S
C617 C615 1.387 . S
C617 C619 1.390 1_556 S
C617 H621 0.950 . S
H618 C614 0.950 . S
C619 C617 1.390 1_554 S
C619 C620 1.387 . S
C619 H622 0.950 . S
C620 C619 1.387 . S
C620 C623 1.387 . S
H621 C617 0.950 . S
H622 C619 0.950 . S
C623 C614 1.390 1_554 S
C623 H616 0.950 . S
C623 C620 1.387 . S
C624 C625 1.387 . S
C624 H628 0.950 . S
C624 C633 1.390 . S
C625 C624 1.387 . S
C625 C627 1.387 . S
H626 C633 0.950 . S
C627 C625 1.387 . S
C627 C629 1.390 . S
C627 H631 0.950 . S
H628 C624 0.950 . S
C629 C627 1.390 . S
C629 C630 1.387 . S
C629 H632 0.950 . S
C630 C629 1.387 . S
C630 C633 1.387 . S
H631 C627 0.950 . S
H632 C629 0.950 . S
C633 C624 1.390 . S
C633 H626 0.950 . S
C633 C630 1.387 . S
C634 C635 1.387 . S
C634 H638 0.950 . S
C634 C643 1.390 . S
C635 C634 1.387 . S
C635 C637 1.387 . S
H636 C643 0.950 . S
C637 C635 1.387 . S
C637 C639 1.390 . S
C637 H641 0.950 . S
H638 C634 0.950 . S
C639 C637 1.390 . S
C639 C640 1.387 . S
C639 H642 0.950 . S
C640 C639 1.387 . S
C640 C643 1.387 . S
H641 C637 0.950 . S
H642 C639 0.950 . S
C643 C634 1.390 . S
C643 H636 0.950 . S
C643 C640 1.387 . S
C644 C645 1.387 . S
C644 H648 0.950 . S
C644 C653 1.390 . S
C645 C644 1.387 . S
C645 C647 1.387 . S
H646 C653 0.950 . S
C647 C645 1.387 . S
C647 C649 1.390 . S
C647 H651 0.950 . S
H648 C644 0.950 . S
C649 C647 1.390 . S
C649 C650 1.387 . S
C649 H652 0.950 1_565 S
C650 C649 1.387 . S
C650 C653 1.387 . S
H651 C647 0.950 . S
H652 C649 0.950 1_545 S
C653 C644 1.390 . S
C653 H646 0.950 . S
C653 C650 1.387 . S
C654 C655 1.387 . S
C654 H658 0.950 . S
C654 C663 1.390 . S
C655 C654 1.387 . S
C655 C657 1.387 . S
H656 C663 0.950 . S
C657 C655 1.387 . S
C657 C659 1.390 . S
C657 H661 0.950 . S
H658 C654 0.950 . S
C659 C657 1.390 . S
C659 C660 1.387 . S
C659 H662 0.950 . S
C660 C659 1.387 . S
C660 C663 1.387 . S
H661 C657 0.950 . S
H662 C659 0.950 . S
C663 C654 1.390 . S
C663 H656 0.950 . S
C663 C660 1.387 . S
C664 C665 1.387 . S
C664 H668 0.950 . S
C664 C673 1.390 . S
C665 C664 1.387 . S
C665 C667 1.387 . S
H666 C673 0.950 . S
C667 C665 1.387 . S
C667 C669 1.390 . S
C667 H671 0.950 . S
H668 C664 0.950 . S
C669 C667 1.390 . S
C669 C670 1.387 . S
C669 H672 0.950 . S
C670 C669 1.387 . S
C670 C673 1.387 . S
H671 C667 0.950 . S
H672 C669 0.950 . S
C673 C664 1.390 . S
C673 H666 0.950 . S
C673 C670 1.387 . S
C674 C675 1.387 . S
C674 H678 0.950 . S
C674 C683 1.390 . S
C675 C674 1.387 . S
C675 C677 1.387 . S
H676 C683 0.950 . S
C677 C675 1.387 . S
C677 C679 1.390 . S
C677 H681 0.950 . S
H678 C674 0.950 . S
C679 C677 1.390 . S
C679 C680 1.387 . S
C679 H682 0.950 . S
C680 C679 1.387 . S
C680 C683 1.387 . S
H681 C677 0.950 . S
H682 C679 0.950 . S
C683 C674 1.390 . S
C683 H676 0.950 . S
C683 C680 1.387 . S
C684 C685 1.387 1_545 S
C684 H688 0.950 . S
C684 C693 1.390 . S
C685 C684 1.387 1_565 S
C685 C687 1.387 . S
H686 C693 0.950 . S
C687 C685 1.387 . S
C687 C689 1.390 . S
C687 H691 0.950 . S
H688 C684 0.950 . S
C689 C687 1.390 . S
C689 C690 1.387 . S
C689 H692 0.950 . S
C690 C689 1.387 . S
C690 C693 1.387 1_565 S
H691 C687 0.950 . S
H692 C689 0.950 . S
C693 C684 1.390 . S
C693 H686 0.950 . S
C693 C690 1.387 1_545 S
C694 C695 1.387 . S
C694 H698 0.950 . S
C694 C703 1.390 . S
C695 C694 1.387 . S
C695 C697 1.387 . S
H696 C703 0.950 . S
C697 C695 1.387 . S
C697 C699 1.390 . S
C697 H701 0.950 1_455 S
H698 C694 0.950 . S
C699 C697 1.390 . S
C699 C700 1.387 . S
C699 H702 0.950 . S
C700 C699 1.387 . S
C700 C703 1.387 . S
H701 C697 0.950 1_655 S
H702 C699 0.950 . S
C703 C694 1.390 . S
C703 H696 0.950 . S
C703 C700 1.387 . S
C704 C705 1.387 . S
C704 H708 0.950 . S
C704 C713 1.390 . S
C705 C704 1.387 . S
C705 C707 1.387 . S
H706 C713 0.950 . S
C707 C705 1.387 . S
C707 C709 1.390 . S
C707 H711 0.950 . S
H708 C704 0.950 . S
C709 C707 1.390 . S
C709 C710 1.387 . S
C709 H712 0.950 . S
C710 C709 1.387 . S
C710 C713 1.387 . S
H711 C707 0.950 . S
H712 C709 0.950 . S
C713 C704 1.390 . S
C713 H706 0.950 . S
C713 C710 1.387 . S
C714 C715 1.387 . S
C714 H718 0.950 . S
C714 C723 1.390 . S
C715 C714 1.387 . S
C715 C717 1.387 1_655 S
H716 C723 0.950 . S
C717 C715 1.387 1_455 S
C717 C719 1.390 1_455 S
C717 H721 0.950 . S
H718 C714 0.950 . S
C719 C717 1.390 1_655 S
C719 C720 1.387 . S
C719 H722 0.950 1_655 S
C720 C719 1.387 . S
C720 C723 1.387 . S
H721 C717 0.950 . S
H722 C719 0.950 1_455 S
C723 C714 1.390 . S
C723 H716 0.950 . S
C723 C720 1.387 . S
C724 C725 1.387 . S
C724 H728 0.950 . S
C724 C733 1.390 . S
C725 C724 1.387 . S
C725 C727 1.387 . S
H726 C733 0.950 . S
C727 C725 1.387 . S
C727 C729 1.390 . S
C727 H731 0.950 . S
H728 C724 0.950 . S
C729 C727 1.390 . S
C729 C730 1.387 . S
C729 H732 0.950 . S
C730 C729 1.387 . S
C730 C733 1.387 . S
H731 C727 0.950 . S
H732 C729 0.950 . S
C733 C724 1.390 . S
C733 H726 0.950 . S
C733 C730 1.387 . S
C734 C735 1.387 . S
C734 H738 0.950 1_545 S
C734 C743 1.390 . S
C735 C734 1.387 . S
C735 C737 1.387 . S
H736 C743 0.950 1_565 S
C737 C735 1.387 . S
C737 C739 1.390 . S
C737 H741 0.950 . S
H738 C734 0.950 1_565 S
C739 C737 1.390 . S
C739 C740 1.387 . S
C739 H742 0.950 . S
C740 C739 1.387 . S
C740 C743 1.387 . S
H741 C737 0.950 . S
H742 C739 0.950 . S
C743 C734 1.390 . S
C743 H736 0.950 1_545 S
C743 C740 1.387 . S
C744 C745 1.387 . S
C744 H748 0.950 . S
C744 C753 1.390 1_655 S
C745 C744 1.387 . S
C745 C747 1.387 1_655 S
H746 C753 0.950 1_655 S
C747 C745 1.387 1_455 S
C747 C749 1.390 . S
C747 H751 0.950 . S
H748 C744 0.950 . S
C749 C747 1.390 . S
C749 C750 1.387 . S
C749 H752 0.950 . S
C750 C749 1.387 . S
C750 C753 1.387 . S
H751 C747 0.950 . S
H752 C749 0.950 . S
C753 C744 1.390 1_455 S
C753 H746 0.950 1_455 S
C753 C750 1.387 . S
C754 C755 1.387 . S
C754 H758 0.950 . S
C754 C763 1.390 . S
C755 C754 1.387 . S
C755 C757 1.387 . S
H756 C763 0.950 . S
C757 C755 1.387 . S
C757 C759 1.390 . S
C757 H761 0.950 . S
H758 C754 0.950 . S
C759 C757 1.390 . S
C759 C760 1.387 . S
C759 H762 0.950 . S
C760 C759 1.387 . S
C760 C763 1.387 . S
H761 C757 0.950 . S
H762 C759 0.950 . S
C763 C754 1.390 . S
C763 H756 0.950 . S
C763 C760 1.387 . S
C764 C765 1.387 . S
C764 H768 0.950 . S
C764 C773 1.390 1_565 S
C765 C764 1.387 . S
C765 C767 1.387 . S
H766 C773 0.950 . S
C767 C765 1.387 . S
C767 C769 1.390 1_565 S
C767 H771 0.950 . S
H768 C764 0.950 . S
C769 C767 1.390 1_545 S
C769 C770 1.387 . S
C769 H772 0.950 . S
C770 C769 1.387 . S
C770 C773 1.387 . S
H771 C767 0.950 . S
H772 C769 0.950 . S
C773 C764 1.390 1_545 S
C773 H766 0.950 . S
C773 C770 1.387 . S
C774 C775 1.387 . S
C774 H778 0.950 . S
C774 C783 1.390 . S
C775 C774 1.387 . S
C775 C777 1.387 . S
H776 C783 0.950 . S
C777 C775 1.387 . S
C777 C779 1.390 . S
C777 H781 0.950 . S
H778 C774 0.950 . S
C779 C777 1.390 . S
C779 C780 1.387 . S
C779 H782 0.950 . S
C780 C779 1.387 . S
C780 C783 1.387 . S
H781 C777 0.950 . S
H782 C779 0.950 . S
C783 C774 1.390 . S
C783 H776 0.950 . S
C783 C780 1.387 . S
C784 C785 1.387 . S
C784 H788 0.950 . S
C784 C793 1.390 . S
C785 C784 1.387 . S
C785 C787 1.387 . S
H786 C793 0.950 . S
C787 C785 1.387 . S
C787 C789 1.390 . S
C787 H791 0.950 . S
H788 C784 0.950 . S
C789 C787 1.390 . S
C789 C790 1.387 . S
C789 H792 0.950 . S
C790 C789 1.387 . S
C790 C793 1.387 . S
H791 C787 0.950 . S
H792 C789 0.950 . S
C793 C784 1.390 . S
C793 H786 0.950 . S
C793 C790 1.387 . S
C794 C795 1.387 . S
C794 H798 0.950 . S
C794 C803 1.390 . S
C795 C794 1.387 . S
C795 C797 1.387 . S
H796 C803 0.950 . S
C797 C795 1.387 . S
C797 C799 1.390 . S
C797 H801 0.950 . S
H798 C794 0.950 . S
C799 C797 1.390 . S
C799 C800 1.387 . S
C799 H802 0.950 . S
C800 C799 1.387 . S
C800 C803 1.387 . S
H801 C797 0.950 . S
H802 C799 0.950 . S
C803 C794 1.390 . S
C803 H796 0.950 . S
C803 C800 1.387 . S
C804 C805 1.387 . S
C804 H808 0.950 . S
C804 C813 1.390 . S
C805 C804 1.387 . S
C805 C807 1.387 . S
H806 C813 0.950 . S
C807 C805 1.387 . S
C807 C809 1.390 . S
C807 H811 0.950 . S
H808 C804 0.950 . S
C809 C807 1.390 . S
C809 C810 1.387 . S
C809 H812 0.950 . S
C810 C809 1.387 . S
C810 C813 1.387 . S
H811 C807 0.950 . S
H812 C809 0.950 . S
C813 C804 1.390 . S
C813 H806 0.950 . S
C813 C810 1.387 . S
C814 C815 1.387 . S
C814 H818 0.950 . S
C814 C823 1.390 . S
C815 C814 1.387 . S
C815 C817 1.387 . S
H816 C823 0.950 . S
C817 C815 1.387 . S
C817 C819 1.390 . S
C817 H821 0.950 . S
H818 C814 0.950 . S
C819 C817 1.390 . S
C819 C820 1.387 . S
C819 H822 0.950 . S
C820 C819 1.387 . S
C820 C823 1.387 . S
H821 C817 0.950 . S
H822 C819 0.950 . S
C823 C814 1.390 . S
C823 H816 0.950 . S
C823 C820 1.387 . S
C824 C825 1.387 . S
C824 H828 0.950 . S
C824 C833 1.390 . S
C825 C824 1.387 . S
C825 C827 1.387 . S
H826 C833 0.950 . S
C827 C825 1.387 . S
C827 C829 1.390 . S
C827 H831 0.950 . S
H828 C824 0.950 . S
C829 C827 1.390 . S
C829 C830 1.387 . S
C829 H832 0.950 . S
C830 C829 1.387 . S
C830 C833 1.387 . S
H831 C827 0.950 . S
H832 C829 0.950 . S
C833 C824 1.390 . S
C833 H826 0.950 . S
C833 C830 1.387 . S
C834 C835 1.387 . S
C834 H838 0.950 . S
C834 C843 1.390 . S
C835 C834 1.387 . S
C835 C837 1.387 . S
H836 C843 0.950 . S
C837 C835 1.387 . S
C837 C839 1.390 . S
C837 H841 0.950 . S
H838 C834 0.950 . S
C839 C837 1.390 . S
C839 C840 1.387 . S
C839 H842 0.950 . S
C840 C839 1.387 . S
C840 C843 1.387 . S
H841 C837 0.950 . S
H842 C839 0.950 . S
C843 C834 1.390 . S
C843 H836 0.950 . S
C843 C840 1.387 . S
C844 C845 1.387 . S
C844 H848 0.950 . S
C844 C853 1.390 . S
C845 C844 1.387 . S
C845 C847 1.387 . S
H846 C853 0.950 . S
C847 C845 1.387 . S
C847 C849 1.390 . S
C847 H851 0.950 . S
H848 C844 0.950 . S
C849 C847 1.390 . S
C849 C850 1.387 . S
C849 H852 0.950 . S
C850 C849 1.387 . S
C850 C853 1.387 . S
H851 C847 0.950 . S
H852 C849 0.950 . S
C853 C844 1.390 . S
C853 H846 0.950 . S
C853 C850 1.387 . S
C854 C855 1.387 . S
C854 H858 0.950 . S
C854 C863 1.390 . S
C855 C854 1.387 . S
C855 C857 1.387 . S
H856 C863 0.950 . S
C857 C855 1.387 . S
C857 C859 1.390 . S
C857 H861 0.950 . S
H858 C854 0.950 . S
C859 C857 1.390 . S
C859 C860 1.387 . S
C859 H862 0.950 . S
C860 C859 1.387 . S
C860 C863 1.387 . S
H861 C857 0.950 . S
H862 C859 0.950 . S
C863 C854 1.390 . S
C863 H856 0.950 . S
C863 C860 1.387 . S
C864 C865 1.387 . S
C864 H868 0.950 . S
C864 C873 1.390 . S
C865 C864 1.387 . S
C865 C867 1.387 . S
H866 C873 0.950 1_455 S
C867 C865 1.387 . S
C867 C869 1.390 . S
C867 H871 0.950 . S
H868 C864 0.950 . S
C869 C867 1.390 . S
C869 C870 1.387 1_655 S
C869 H872 0.950 . S
C870 C869 1.387 1_455 S
C870 C873 1.387 1_455 S
H871 C867 0.950 . S
H872 C869 0.950 . S
C873 C864 1.390 . S
C873 H866 0.950 1_655 S
C873 C870 1.387 1_655 S
C874 C875 1.387 . S
C874 H878 0.950 . S
C874 C883 1.390 . S
C875 C874 1.387 . S
C875 C877 1.387 . S
H876 C883 0.950 . S
C877 C875 1.387 . S
C877 C879 1.390 . S
C877 H881 0.950 . S
H878 C874 0.950 . S
C879 C877 1.390 . S
C879 C880 1.387 . S
C879 H882 0.950 . S
C880 C879 1.387 . S
C880 C883 1.387 . S
H881 C877 0.950 . S
H882 C879 0.950 . S
C883 C874 1.390 . S
C883 H876 0.950 . S
C883 C880 1.387 . S
C884 C885 1.387 . S
C884 H888 0.950 . S
C884 C893 1.390 . S
C885 C884 1.387 . S
C885 C887 1.387 . S
H886 C893 0.950 . S
C887 C885 1.387 . S
C887 C889 1.390 . S
C887 H891 0.950 . S
H888 C884 0.950 . S
C889 C887 1.390 . S
C889 C890 1.387 . S
C889 H892 0.950 . S
C890 C889 1.387 . S
C890 C893 1.387 . S
H891 C887 0.950 . S
H892 C889 0.950 . S
C893 C884 1.390 . S
C893 H886 0.950 . S
C893 C890 1.387 . S
C894 C895 1.387 . S
C894 H898 0.950 . S
C894 C903 1.390 . S
C895 C894 1.387 . S
C895 C897 1.387 . S
H896 C903 0.950 1_545 S
C897 C895 1.387 . S
C897 C899 1.390 . S
C897 H901 0.950 . S
H898 C894 0.950 . S
C899 C897 1.390 . S
C899 C900 1.387 1_565 S
C899 H902 0.950 . S
C900 C899 1.387 1_545 S
C900 C903 1.387 1_545 S
H901 C897 0.950 . S
H902 C899 0.950 . S
C903 C894 1.390 . S
C903 H896 0.950 1_565 S
C903 C900 1.387 1_565 S
C904 C905 1.387 . S
C904 H908 0.950 . S
C904 C913 1.390 . S
C905 C904 1.387 . S
C905 C907 1.387 . S
H906 C913 0.950 . S
C907 C905 1.387 . S
C907 C909 1.390 . S
C907 H911 0.950 . S
H908 C904 0.950 . S
C909 C907 1.390 . S
C909 C910 1.387 . S
C909 H912 0.950 . S
C910 C909 1.387 . S
C910 C913 1.387 . S
H911 C907 0.950 . S
H912 C909 0.950 . S
C913 C904 1.390 . S
C913 H906 0.950 . S
C913 C910 1.387 . S
C914 C915 1.387 . S
C914 H918 0.950 . S
C914 C923 1.390 . S
C915 C914 1.387 . S
C915 C917 1.387 . S
H916 C923 0.950 . S
C917 C915 1.387 . S
C917 C919 1.390 . S
C917 H921 0.950 . S
H918 C914 0.950 . S
C919 C917 1.390 . S
C919 C920 1.387 . S
C919 H922 0.950 . S
C920 C919 1.387 . S
C920 C923 1.387 . S
H921 C917 0.950 . S
H922 C919 0.950 . S
C923 C914 1.390 . S
C923 H916 0.950 . S
C923 C920 1.387 . S
C924 C925 1.387 . S
C924 H928 0.950 . S
C924 C933 1.390 . S
C925 C924 1.387 . S
C925 C927 1.387 . S
H926 C933 0.950 . S
C927 C925 1.387 . S
C927 C929 1.390 . S
C927 H931 0.950 . S
H928 C924 0.950 . S
C929 C927 1.390 . S
C929 C930 1.387 . S
C929 H932 0.950 . S
C930 C929 1.387 . S
C930 C933 1.387 . S
H931 C927 0.950 . S
H932 C929 0.950 . S
C933 C924 1.390 . S
C933 H926 0.950 . S
C933 C930 1.387 . S
C934 C935 1.387 . S
C934 H938 0.950 . S
C934 C943 1.390 . S
C935 C934 1.387 . S
C935 C937 1.387 . S
H936 C943 0.950 . S
C937 C935 1.387 . S
C937 C939 1.390 . S
C937 H941 0.950 . S
H938 C934 0.950 . S
C939 C937 1.390 . S
C939 C940 1.387 . S
C939 H942 0.950 . S
C940 C939 1.387 . S
C940 C943 1.387 . S
H941 C937 0.950 . S
H942 C939 0.950 . S
C943 C934 1.390 . S
C943 H936 0.950 . S
C943 C940 1.387 . S
C944 C945 1.387 . S
C944 H948 0.950 . S
C944 C953 1.390 . S
C945 C944 1.387 . S
C945 C947 1.387 . S
H946 C953 0.950 . S
C947 C945 1.387 . S
C947 C949 1.390 . S
C947 H951 0.950 . S
H948 C944 0.950 . S
C949 C947 1.390 . S
C949 C950 1.387 . S
C949 H952 0.950 . S
C950 C949 1.387 . S
C950 C953 1.387 . S
H951 C947 0.950 . S
H952 C949 0.950 . S
C953 C944 1.390 . S
C953 H946 0.950 . S
C953 C950 1.387 . S
C415 C21 1.292 . S
C420 C63 1.253 . S
C425 C17 1.251 . S
C430 C44 1.293 . S
C435 C40 1.249 . S
C440 C67 1.294 . S
C445 C90 1.292 . S
C450 C109 1.253 . S
C455 C132 1.250 . S
C460 C113 1.294 . S
C465 C136 1.294 . S
C470 C86 1.250 . S
C475 C201 1.253 . S
C480 C159 1.291 . S
C485 C155 1.253 . S
C490 C182 1.292 1_545 S
C495 C205 1.292 1_655 S
C500 C178 1.253 . S
C505 C247 1.249 . S
C510 C228 1.293 . S
C515 C251 1.292 . S
C520 C270 1.253 . S
C525 C224 1.250 . S
C530 C274 1.294 . S
C535 C297 1.294 . S
C540 C339 1.249 . S
C545 C293 1.249 . S
C550 C320 1.294 . S
C555 C316 1.249 . S
C560 C343 1.294 . S
C565 C385 1.249 . S
C570 C366 1.294 . S
C575 C408 1.249 . S
C580 C389 1.294 1_565 S
C585 C362 1.249 . S
C590 C412 1.294 1_455 S
C595 C20 1.524 1_545 S
C600 C135 1.524 . S
C605 C89 1.522 1_455 S
C610 C43 1.523 . S
C615 C112 1.523 . S
C620 C66 1.523 . S
C625 C158 1.523 . S
C630 C273 1.523 . S
C635 C181 1.523 . S
C640 C227 1.523 . S
C645 C250 1.523 . S
C650 C204 1.524 . S
C655 C296 1.523 . S
C660 C411 1.523 . S
C665 C365 1.524 . S
C670 C319 1.523 . S
C675 C388 1.525 . S
C680 C342 1.524 . S
C685 C249 1.563 . S
C690 C19 1.564 . S
C695 C42 1.563 . S
C700 C272 1.562 . S
C705 C226 1.563 . S
C710 C65 1.563 . S
C715 C88 1.563 . S
C720 C341 1.562 . S
C725 C111 1.563 . S
C730 C295 1.563 . S
C735 C318 1.563 . S
C740 C134 1.563 . S
C745 C387 1.563 . S
C750 C157 1.562 . S
C755 C180 1.563 . S
C760 C410 1.563 . S
C765 C203 1.562 . S
C770 C364 1.562 . S
C775 C62 1.163 . S
C780 C18 1.154 . S
C785 C16 1.164 . S
C790 C41 1.156 . S
C795 C64 1.154 . S
C800 C39 1.163 . S
C805 C108 1.164 . S
C810 C87 1.154 . S
C815 C131 1.164 . S
C820 C110 1.154 . S
C825 C133 1.155 . S
C830 C85 1.163 . S
C835 C200 1.163 . S
C840 C156 1.154 . S
C845 C179 1.154 . S
C850 C154 1.163 . S
C855 C177 1.164 . S
C860 C202 1.156 . S
C865 C225 1.155 . S
C870 C246 1.163 . S
C875 C248 1.154 . S
C880 C269 1.163 . S
C885 C223 1.164 1_545 S
C890 C271 1.156 . S
C895 C294 1.154 . S
C900 C338 1.164 . S
C905 C317 1.156 . S
C910 C292 1.164 1_455 S
C915 C315 1.164 . S
C920 C340 1.155 . S
C925 C363 1.156 . S
C930 C384 1.164 . S
C935 C386 1.156 . S
C940 C407 1.164 . S
C945 C361 1.164 . S
C950 C409 1.154 . S
