# Generated by pormake.
# Topology ukc, (4)-cn, num edge types: 1
# Building blocks:
#     Node 0, Type 0, BuildingBlock: QUQFOY_clean_sbu_3, # of connection points: 4
#     Node 1, Type 0, BuildingBlock: QUQFOY_clean_sbu_3, # of connection points: 4
#     Node 2, Type 0, BuildingBlock: QUQFOY_clean_sbu_3, # of connection points: 4
#     Node 3, Type 0, BuildingBlock: QUQFOY_clean_sbu_3, # of connection points: 4
#     Node 4, Type 0, BuildingBlock: QUQFOY_clean_sbu_3, # of connection points: 4
#     Node 5, Type 0, BuildingBlock: QUQFOY_clean_sbu_3, # of connection points: 4
#     Node 6, Type 0, BuildingBlock: QUQFOY_clean_sbu_3, # of connection points: 4
#     Node 7, Type 0, BuildingBlock: QUQFOY_clean_sbu_3, # of connection points: 4
#     Node 8, Type 0, BuildingBlock: QUQFOY_clean_sbu_3, # of connection points: 4
#     Node 9, Type 0, BuildingBlock: QUQFOY_clean_sbu_3, # of connection points: 4
#     Node 10, Type 0, BuildingBlock: QUQFOY_clean_sbu_3, # of connection points: 4
#     Node 11, Type 0, BuildingBlock: QUQFOY_clean_sbu_3, # of connection points: 4
#     Node 12, Type 0, BuildingBlock: QUQFOY_clean_sbu_3, # of connection points: 4
#     Node 13, Type 0, BuildingBlock: QUQFOY_clean_sbu_3, # of connection points: 4
#     Node 14, Type 0, BuildingBlock: QUQFOY_clean_sbu_3, # of connection points: 4
#     Node 15, Type 0, BuildingBlock: QUQFOY_clean_sbu_3, # of connection points: 4
#     Node 16, Type 0, BuildingBlock: QUQFOY_clean_sbu_3, # of connection points: 4
#     Node 17, Type 0, BuildingBlock: QUQFOY_clean_sbu_3, # of connection points: 4
#     Node 18, Type 0, BuildingBlock: QUQFOY_clean_sbu_3, # of connection points: 4
#     Node 19, Type 0, BuildingBlock: QUQFOY_clean_sbu_3, # of connection points: 4
#     Node 20, Type 0, BuildingBlock: QUQFOY_clean_sbu_3, # of connection points: 4
#     Node 21, Type 0, BuildingBlock: QUQFOY_clean_sbu_3, # of connection points: 4
#     Node 22, Type 0, BuildingBlock: QUQFOY_clean_sbu_3, # of connection points: 4
#     Node 23, Type 0, BuildingBlock: QUQFOY_clean_sbu_3, # of connection points: 4
#     Node 24, Type 0, BuildingBlock: QUQFOY_clean_sbu_3, # of connection points: 4
#     Node 25, Type 0, BuildingBlock: QUQFOY_clean_sbu_3, # of connection points: 4
#     Node 26, Type 0, BuildingBlock: QUQFOY_clean_sbu_3, # of connection points: 4
#     Node 27, Type 0, BuildingBlock: QUQFOY_clean_sbu_3, # of connection points: 4
#     Node 28, Type 0, BuildingBlock: QUQFOY_clean_sbu_3, # of connection points: 4
#     Node 29, Type 0, BuildingBlock: QUQFOY_clean_sbu_3, # of connection points: 4
#     Node 30, Type 0, BuildingBlock: QUQFOY_clean_sbu_3, # of connection points: 4
#     Node 31, Type 0, BuildingBlock: QUQFOY_clean_sbu_3, # of connection points: 4
#     Edge 32, Type (0, 0), BuildingBlock: EZIPEK_clean_linker_0, # of connection points: 2
#     Edge 33, Type (0, 0), BuildingBlock: EZIPEK_clean_linker_0, # of connection points: 2
#     Edge 34, Type (0, 0), BuildingBlock: EZIPEK_clean_linker_0, # of connection points: 2
#     Edge 35, Type (0, 0), BuildingBlock: EZIPEK_clean_linker_0, # of connection points: 2
#     Edge 36, Type (0, 0), BuildingBlock: EZIPEK_clean_linker_0, # of connection points: 2
#     Edge 37, Type (0, 0), BuildingBlock: EZIPEK_clean_linker_0, # of connection points: 2
#     Edge 38, Type (0, 0), BuildingBlock: EZIPEK_clean_linker_0, # of connection points: 2
#     Edge 39, Type (0, 0), BuildingBlock: EZIPEK_clean_linker_0, # of connection points: 2
#     Edge 40, Type (0, 0), BuildingBlock: EZIPEK_clean_linker_0, # of connection points: 2
#     Edge 41, Type (0, 0), BuildingBlock: EZIPEK_clean_linker_0, # of connection points: 2
#     Edge 42, Type (0, 0), BuildingBlock: EZIPEK_clean_linker_0, # of connection points: 2
#     Edge 43, Type (0, 0), BuildingBlock: EZIPEK_clean_linker_0, # of connection points: 2
#     Edge 44, Type (0, 0), BuildingBlock: EZIPEK_clean_linker_0, # of connection points: 2
#     Edge 45, Type (0, 0), BuildingBlock: EZIPEK_clean_linker_0, # of connection points: 2
#     Edge 46, Type (0, 0), BuildingBlock: EZIPEK_clean_linker_0, # of connection points: 2
#     Edge 47, Type (0, 0), BuildingBlock: EZIPEK_clean_linker_0, # of connection points: 2
#     Edge 48, Type (0, 0), BuildingBlock: EZIPEK_clean_linker_0, # of connection points: 2
#     Edge 49, Type (0, 0), BuildingBlock: EZIPEK_clean_linker_0, # of connection points: 2
#     Edge 50, Type (0, 0), BuildingBlock: EZIPEK_clean_linker_0, # of connection points: 2
#     Edge 51, Type (0, 0), BuildingBlock: EZIPEK_clean_linker_0, # of connection points: 2
#     Edge 52, Type (0, 0), BuildingBlock: EZIPEK_clean_linker_0, # of connection points: 2
#     Edge 53, Type (0, 0), BuildingBlock: EZIPEK_clean_linker_0, # of connection points: 2
#     Edge 54, Type (0, 0), BuildingBlock: EZIPEK_clean_linker_0, # of connection points: 2
#     Edge 55, Type (0, 0), BuildingBlock: EZIPEK_clean_linker_0, # of connection points: 2
#     Edge 56, Type (0, 0), BuildingBlock: EZIPEK_clean_linker_0, # of connection points: 2
#     Edge 57, Type (0, 0), BuildingBlock: EZIPEK_clean_linker_0, # of connection points: 2
#     Edge 58, Type (0, 0), BuildingBlock: EZIPEK_clean_linker_0, # of connection points: 2
#     Edge 59, Type (0, 0), BuildingBlock: EZIPEK_clean_linker_0, # of connection points: 2
#     Edge 60, Type (0, 0), BuildingBlock: EZIPEK_clean_linker_0, # of connection points: 2
#     Edge 61, Type (0, 0), BuildingBlock: EZIPEK_clean_linker_0, # of connection points: 2
#     Edge 62, Type (0, 0), BuildingBlock: EZIPEK_clean_linker_0, # of connection points: 2
#     Edge 63, Type (0, 0), BuildingBlock: EZIPEK_clean_linker_0, # of connection points: 2
#     Edge 64, Type (0, 0), BuildingBlock: EZIPEK_clean_linker_0, # of connection points: 2
#     Edge 65, Type (0, 0), BuildingBlock: EZIPEK_clean_linker_0, # of connection points: 2
#     Edge 66, Type (0, 0), BuildingBlock: EZIPEK_clean_linker_0, # of connection points: 2
#     Edge 67, Type (0, 0), BuildingBlock: EZIPEK_clean_linker_0, # of connection points: 2
#     Edge 68, Type (0, 0), BuildingBlock: EZIPEK_clean_linker_0, # of connection points: 2
#     Edge 69, Type (0, 0), BuildingBlock: EZIPEK_clean_linker_0, # of connection points: 2
#     Edge 70, Type (0, 0), BuildingBlock: EZIPEK_clean_linker_0, # of connection points: 2
#     Edge 71, Type (0, 0), BuildingBlock: EZIPEK_clean_linker_0, # of connection points: 2
#     Edge 72, Type (0, 0), BuildingBlock: EZIPEK_clean_linker_0, # of connection points: 2
#     Edge 73, Type (0, 0), BuildingBlock: EZIPEK_clean_linker_0, # of connection points: 2
#     Edge 74, Type (0, 0), BuildingBlock: EZIPEK_clean_linker_0, # of connection points: 2
#     Edge 75, Type (0, 0), BuildingBlock: EZIPEK_clean_linker_0, # of connection points: 2
#     Edge 76, Type (0, 0), BuildingBlock: EZIPEK_clean_linker_0, # of connection points: 2
#     Edge 77, Type (0, 0), BuildingBlock: EZIPEK_clean_linker_0, # of connection points: 2
#     Edge 78, Type (0, 0), BuildingBlock: EZIPEK_clean_linker_0, # of connection points: 2
#     Edge 79, Type (0, 0), BuildingBlock: EZIPEK_clean_linker_0, # of connection points: 2
#     Edge 80, Type (0, 0), BuildingBlock: EZIPEK_clean_linker_0, # of connection points: 2
#     Edge 81, Type (0, 0), BuildingBlock: EZIPEK_clean_linker_0, # of connection points: 2
#     Edge 82, Type (0, 0), BuildingBlock: EZIPEK_clean_linker_0, # of connection points: 2
#     Edge 83, Type (0, 0), BuildingBlock: EZIPEK_clean_linker_0, # of connection points: 2
#     Edge 84, Type (0, 0), BuildingBlock: EZIPEK_clean_linker_0, # of connection points: 2
#     Edge 85, Type (0, 0), BuildingBlock: EZIPEK_clean_linker_0, # of connection points: 2
#     Edge 86, Type (0, 0), BuildingBlock: EZIPEK_clean_linker_0, # of connection points: 2
#     Edge 87, Type (0, 0), BuildingBlock: EZIPEK_clean_linker_0, # of connection points: 2
#     Edge 88, Type (0, 0), BuildingBlock: EZIPEK_clean_linker_0, # of connection points: 2
#     Edge 89, Type (0, 0), BuildingBlock: EZIPEK_clean_linker_0, # of connection points: 2
#     Edge 90, Type (0, 0), BuildingBlock: EZIPEK_clean_linker_0, # of connection points: 2
#     Edge 91, Type (0, 0), BuildingBlock: EZIPEK_clean_linker_0, # of connection points: 2
#     Edge 92, Type (0, 0), BuildingBlock: EZIPEK_clean_linker_0, # of connection points: 2
#     Edge 93, Type (0, 0), BuildingBlock: EZIPEK_clean_linker_0, # of connection points: 2
#     Edge 94, Type (0, 0), BuildingBlock: EZIPEK_clean_linker_0, # of connection points: 2
#     Edge 95, Type (0, 0), BuildingBlock: EZIPEK_clean_linker_0, # of connection points: 2
# Relax obj value: 0.044
# Max RMSD: 0.063
# Mean RMSD: 0.063
data_MOF--net-ukc--node1-QUQFOY_clean_sbu_3--edge1-EZIPEK_clean_linker_0
_symmetry_space_group_name_H-M    P1
_symmetry_Int_Tables_number       1
_symmetry_cell_setting            triclinic
loop_
_symmetry_equiv_pos_as_xyz
'x, y, z'
_cell_length_a     34.20623
_cell_length_b     34.143768
_cell_length_c     66.080953
_cell_angle_alpha  90.031441
_cell_angle_beta   89.943941
_cell_angle_gamma 89.965514
loop_
_atom_site_label
_atom_site_type_symbol
_atom_site_fract_x
_atom_site_fract_y
_atom_site_fract_z
_atom_type_partial_charge
C0 C 0.08212 0.38249 0.06859 0.0
O1 O 0.05145 0.40349 0.06859 0.0
Cd2 Cd 0.01342 0.41726 0.0391 0.0
O3 O 0.09621 0.36806 0.05239 0.0
Cd4 Cd 0.08571 0.36601 0.01586 0.0
C5 C 0.00037 0.31979 0.02686 0.0
O6 O 0.06151 0.43041 0.01432 0.0
O7 O 0.05584 0.39781 0.98647 0.0
O8 O 0.15476 0.37546 0.01218 0.0
C9 C 0.05025 0.4294 -0.00385 0.0
O10 O 0.98589 0.35229 0.03273 0.0
C11 C 0.15944 0.34805 -0.00058 0.0
O12 O 0.03559 0.31685 0.02074 0.0
O13 O 0.12983 0.32742 -0.00522 0.0
C14 C 0.84605 0.84264 0.33583 0.0
O15 O 0.83198 0.80828 0.33509 0.0
Cd16 Cd 0.80601 0.77778 0.30544 0.0
O17 O 0.84838 0.86414 0.32018 0.0
Cd18 Cd 0.83253 0.85774 0.28427 0.0
C19 C 0.89123 0.77848 0.27919 0.0
O20 O 0.76938 0.82802 0.28903 0.0
O21 O 0.79116 0.82781 0.25857 0.0
O22 O 0.81746 0.92708 0.28267 0.0
C23 C 0.76328 0.82029 0.27063 0.0
O24 O 0.86375 0.75746 0.28633 0.0
C25 C 0.84012 0.93343 0.2678 0.0
O26 O 0.88816 0.81553 0.27822 0.0
O27 O 0.85949 0.90471 0.26083 0.0
C28 C 0.34833 0.59712 0.56975 0.0
O29 O 0.38068 0.58511 0.57686 0.0
Cd30 Cd 0.43694 0.56959 0.55692 0.0
O31 O 0.34247 0.59969 0.5508 0.0
Cd32 Cd 0.37568 0.58837 0.51846 0.0
C33 C 0.44057 0.65856 0.53221 0.0
O34 O 0.41098 0.53234 0.52975 0.0
O35 O 0.42633 0.5527 0.49985 0.0
O36 O 0.31484 0.56177 0.50655 0.0
C37 C 0.43177 0.52836 0.51407 0.0
O38 O 0.45504 0.63484 0.54506 0.0
C39 C 0.3108 0.58619 0.49221 0.0
O40 O 0.41138 0.64945 0.52125 0.0
O41 O 0.33806 0.61088 0.4894 0.0
C42 C 0.65115 0.16025 0.80119 0.0
O43 O 0.67379 0.18861 0.79707 0.0
Cd44 Cd 0.66749 0.22308 0.76585 0.0
O45 O 0.62915 0.14502 0.78778 0.0
Cd46 Cd 0.61249 0.14677 0.75151 0.0
C47 C 0.56582 0.22913 0.76534 0.0
O48 O 0.67278 0.17291 0.74126 0.0
O49 O 0.62835 0.17545 0.71814 0.0
O50 O 0.62411 0.07735 0.75022 0.0
C51 C 0.66313 0.18282 0.72356 0.0
O52 O 0.59898 0.24542 0.76796 0.0
C53 C 0.59195 0.06923 0.74162 0.0
O54 O 0.56262 0.19369 0.75966 0.0
O55 O 0.56861 0.09727 0.73786 0.0
C56 C 0.07077 0.59517 0.38161 0.0
O57 O 0.03615 0.58209 0.38311 0.0
Cd58 Cd 0.00625 0.55978 0.41388 0.0
O59 O 0.09305 0.59794 0.39691 0.0
Cd60 Cd 0.08799 0.58494 0.43306 0.0
C61 C 0.01176 0.64763 0.43774 0.0
O62 O 0.05436 0.52253 0.43166 0.0
O63 O 0.05732 0.55092 0.46093 0.0
O64 O 0.15573 0.56362 0.43596 0.0
C65 C 0.04869 0.52093 0.45057 0.0
O66 O 0.9893 0.62056 0.4314 0.0
C67 C 0.16426 0.5892 0.4492 0.0
O68 O 0.04861 0.64296 0.43844 0.0
O69 O 0.13783 0.61346 0.4542 0.0
C70 C 0.62003 0.82246 0.65246 0.0
O71 O 0.6403 0.79145 0.65411 0.0
Cd72 Cd 0.63925 0.75357 0.68435 0.0
O73 O 0.6031 0.8378 0.66768 0.0
Cd74 Cd 0.59666 0.83107 0.70455 0.0
C75 C 0.53872 0.75641 0.69102 0.0
O76 O 0.65711 0.7987 0.71004 0.0
O77 O 0.61659 0.79511 0.73508 0.0
O78 O 0.61396 0.89908 0.70715 0.0
C79 C 0.64993 0.78694 0.72778 0.0
O80 O 0.56923 0.73715 0.6861 0.0
C81 C 0.58515 0.90831 0.7183 0.0
O82 O 0.54054 0.79122 0.69776 0.0
O83 O 0.56122 0.88145 0.72318 0.0
C84 C 0.39071 0.42714 0.90307 0.0
O85 O 0.4262 0.43755 0.90489 0.0
Cd86 Cd 0.46752 0.42475 0.93327 0.0
O87 O 0.37448 0.4067 0.91687 0.0
Cd88 Cd 0.38687 0.37968 0.95084 0.0
C89 C 0.46245 0.32405 0.93374 0.0
O90 O 0.423 0.43566 0.96014 0.0
O91 O 0.41967 0.39196 0.98361 0.0
O92 O 0.31904 0.39261 0.95845 0.0
C93 C 0.43265 0.42474 0.97766 0.0
O94 O 0.48301 0.3547 0.93101 0.0
C95 C 0.31241 0.35877 0.96564 0.0
O96 O 0.42729 0.32578 0.93992 0.0
O97 O 0.34034 0.33426 0.96571 0.0
C98 C 0.83177 0.15963 0.16057 0.0
O99 O 0.83143 0.1968 0.16042 0.0
Cd100 Cd 0.83191 0.23616 0.1906 0.0
O101 O 0.8349 0.14127 0.17717 0.0
Cd102 Cd 0.85119 0.15969 0.21192 0.0
C103 C 0.9262 0.22014 0.20111 0.0
O104 O 0.79734 0.2045 0.21783 0.0
O105 O 0.84147 0.20077 0.24136 0.0
O106 O 0.82054 0.09847 0.22089 0.0
C107 C 0.80825 0.21284 0.23565 0.0
O108 O 0.90056 0.24624 0.19763 0.0
C109 C 0.84947 0.08576 0.23092 0.0
O110 O 0.91647 0.18487 0.20464 0.0
O111 O 0.87947 0.10747 0.23218 0.0
C112 C 0.901 0.60822 0.90273 0.0
O113 O 0.93536 0.59412 0.90218 0.0
Cd114 Cd 0.97471 0.58288 0.93141 0.0
O115 O 0.88416 0.61602 0.91942 0.0
Cd116 Cd 0.89699 0.60988 0.95564 0.0
C117 C 0.96973 0.67527 0.95206 0.0
O118 O 0.93174 0.54948 0.95356 0.0
O119 O 0.93563 0.57918 0.9824 0.0
O120 O 0.83189 0.58448 0.95972 0.0
C121 C 0.94322 0.5493 0.9717 0.0
O122 O 0.99055 0.648 0.94447 0.0
C123 C 0.82241 0.60829 0.97362 0.0
O124 O 0.93384 0.67002 0.95629 0.0
O125 O 0.84741 0.63385 0.97887 0.0
C126 C 0.15463 0.12389 0.66281 0.0
O127 O 0.16247 0.16004 0.66084 0.0
Cd128 Cd 0.16121 0.2048 0.68901 0.0
O129 O 0.14542 0.10982 0.67996 0.0
Cd130 Cd 0.13278 0.12937 0.71478 0.0
C131 C 0.06405 0.19472 0.70035 0.0
O132 O 0.18866 0.17125 0.71749 0.0
O133 O 0.14891 0.17111 0.74315 0.0
O134 O 0.16019 0.06638 0.72304 0.0
C135 C 0.18027 0.18327 0.73511 0.0
O136 O 0.0917 0.21635 0.69394 0.0
C137 C 0.13148 0.05578 0.73389 0.0
O138 O 0.07047 0.16072 0.7075 0.0
O139 O 0.1033 0.07966 0.73609 0.0
C140 C 0.6131 0.42818 0.42758 0.0
O141 O 0.57931 0.44332 0.4293 0.0
Cd142 Cd 0.53692 0.43621 0.45772 0.0
O143 O 0.62715 0.40787 0.44203 0.0
Cd144 Cd 0.61494 0.38753 0.47738 0.0
C145 C 0.53848 0.33472 0.45922 0.0
O146 O 0.58062 0.44518 0.48495 0.0
O147 O 0.57952 0.40317 0.50921 0.0
O148 O 0.68304 0.40167 0.48291 0.0
C149 C 0.56803 0.43577 0.50221 0.0
O150 O 0.52003 0.36645 0.45568 0.0
C151 C 0.6904 0.36945 0.49169 0.0
O152 O 0.57298 0.33454 0.46643 0.0
O153 O 0.66247 0.34534 0.49404 0.0
C154 C 0.36623 0.85113 0.1476 0.0
O155 O 0.34331 0.82186 0.14691 0.0
Cd156 Cd 0.32082 0.78385 0.17503 0.0
O157 O 0.37855 0.86481 0.16434 0.0
Cd158 Cd 0.3703 0.85278 0.20075 0.0
C159 C 0.41309 0.76363 0.19261 0.0
O160 O 0.30403 0.83188 0.19935 0.0
O161 O 0.33158 0.82416 0.2284 0.0
O162 O 0.36578 0.92231 0.20585 0.0
C163 C 0.3015 0.82 0.21741 0.0
O164 O 0.38125 0.75057 0.18523 0.0
C165 C 0.39274 0.92397 0.21903 0.0
O166 O 0.41645 0.79904 0.19847 0.0
O167 O 0.41028 0.89231 0.22353 0.0
C168 C 0.95072 0.39415 0.5758 0.0
O169 O 0.98351 0.40963 0.57174 0.0
Cd170 Cd 0.01235 0.39797 0.53934 0.0
O171 O 0.93099 0.37643 0.5623 0.0
Cd172 Cd 0.93025 0.35996 0.52628 0.0
C173 C 0.0022 0.29738 0.53718 0.0
O174 O 0.96388 0.41754 0.51521 0.0
O175 O 0.95947 0.37075 0.4931 0.0
O176 O 0.86337 0.38277 0.52599 0.0
C177 C 0.96921 0.40562 0.49729 0.0
O178 O 0.02448 0.32695 0.53939 0.0
C179 C 0.8502 0.35345 0.51639 0.0
O180 O 0.96621 0.30106 0.53289 0.0
O181 O 0.87406 0.32638 0.51174 0.0
C182 C 0.34147 0.16483 0.31643 0.0
O183 O 0.31664 0.19157 0.3128 0.0
Cd184 Cd 0.32121 0.22831 0.28238 0.0
O185 O 0.36343 0.15099 0.30255 0.0
Cd186 Cd 0.37669 0.15357 0.26583 0.0
C187 C 0.42319 0.23486 0.281 0.0
O188 O 0.31556 0.17982 0.25719 0.0
O189 O 0.35893 0.18586 0.23369 0.0
O190 O 0.36494 0.0844 0.26209 0.0
C191 C 0.32427 0.19205 0.23976 0.0
O192 O 0.3899 0.25029 0.28455 0.0
C193 C 0.39677 0.0774 0.25286 0.0
O194 O 0.42668 0.20018 0.27418 0.0
O195 O 0.42038 0.10573 0.25034 0.0
C196 C 0.59228 0.57787 0.0832 0.0
O197 O 0.55934 0.56076 0.08351 0.0
Cd198 Cd 0.52067 0.55305 0.0538 0.0
O199 O 0.60859 0.58757 0.06664 0.0
Cd200 Cd 0.59838 0.58087 0.02999 0.0
C201 C 0.52707 0.64762 0.03593 0.0
O202 O 0.56237 0.52049 0.03013 0.0
O203 O 0.56016 0.5534 0.00226 0.0
O204 O 0.66568 0.56148 0.02395 0.0
C205 C 0.55103 0.52275 0.01197 0.0
O206 O 0.50599 0.62147 0.0443 0.0
C207 C 0.67221 0.58941 0.01169 0.0
O208 O 0.56163 0.64046 0.03003 0.0
O209 O 0.6444 0.61293 0.00799 0.0
C210 C 0.11601 0.82242 0.83945 0.0
O211 O 0.12338 0.78601 0.83961 0.0
Cd212 Cd 0.12805 0.74893 0.80893 0.0
O213 O 0.1119 0.84095 0.82295 0.0
Cd214 Cd 0.11587 0.82756 0.78666 0.0
C215 C 0.03839 0.7682 0.78867 0.0
O216 O 0.17109 0.78235 0.78591 0.0
O217 O 0.1365 0.78771 0.75852 0.0
O218 O 0.14843 0.89025 0.78286 0.0
C219 C 0.16655 0.7744 0.76731 0.0
O220 O 0.06107 0.74269 0.79635 0.0
C221 C 0.12435 0.90273 0.76976 0.0
O222 O 0.05016 0.8026 0.78473 0.0
O223 O 0.0967 0.88021 0.76449 0.0
C224 C 0.57303 0.88283 0.57503 0.0
O225 O 0.54025 0.90017 0.57443 0.0
Cd226 Cd 0.50585 0.91044 0.54331 0.0
O227 O 0.59053 0.87249 0.55894 0.0
Cd228 Cd 0.58217 0.87494 0.52236 0.0
C229 C 0.50646 0.8137 0.52951 0.0
O230 O 0.54936 0.93677 0.51841 0.0
O231 O 0.5473 0.89686 0.49276 0.0
O232 O 0.6485 0.89778 0.51998 0.0
C233 C 0.54031 0.93046 0.50008 0.0
O234 O 0.48656 0.84354 0.53484 0.0
C235 C 0.65946 0.8712 0.50781 0.0
O236 O 0.54258 0.81639 0.52506 0.0
O237 O 0.63448 0.84562 0.50252 0.0
C238 C 0.34324 0.37303 0.82906 0.0
O239 O 0.33805 0.337 0.8329 0.0
Cd240 Cd 0.32865 0.28785 0.80779 0.0
O241 O 0.34389 0.38554 0.81095 0.0
Cd242 Cd 0.34003 0.35605 0.77712 0.0
C243 C 0.4165 0.29688 0.784 0.0
O244 O 0.28367 0.31472 0.78373 0.0
O245 O 0.31526 0.3041 0.75586 0.0
O246 O 0.31277 0.41862 0.76712 0.0
C247 C 0.28541 0.29788 0.7667 0.0
O248 O 0.39343 0.27471 0.79384 0.0
C249 C 0.33085 0.41998 0.75035 0.0
O250 O 0.40568 0.33033 0.77775 0.0
O251 O 0.35325 0.39152 0.74611 0.0
C252 C 0.86239 0.09864 0.08224 0.0
O253 O 0.89891 0.09185 0.08259 0.0
Cd254 Cd 0.94282 0.07928 0.05548 0.0
O255 O 0.84361 0.09926 0.06562 0.0
Cd256 Cd 0.86268 0.09567 0.02946 0.0
C257 C 0.9286 0.16931 0.03464 0.0
O258 O 0.90676 0.04094 0.03213 0.0
O259 O 0.9063 0.06997 0.00318 0.0
O260 O 0.80028 0.06715 0.01944 0.0
C261 C 0.91936 0.04256 0.01416 0.0
O262 O 0.95194 0.14542 0.04312 0.0
C263 C 0.79319 0.09373 0.00649 0.0
O264 O 0.89422 0.15942 0.02942 0.0
O265 O 0.81785 0.12125 0.00469 0.0
C266 C 0.12063 0.67018 0.3082 0.0
O267 O 0.13401 0.70484 0.30888 0.0
Cd268 Cd 0.13983 0.74374 0.27923 0.0
O269 O 0.11403 0.65299 0.29144 0.0
Cd270 Cd 0.12099 0.66238 0.25465 0.0
C271 C 0.04623 0.72431 0.2617 0.0
O272 O 0.17698 0.70319 0.25731 0.0
O273 O 0.15045 0.70252 0.22762 0.0
O274 O 0.15112 0.59828 0.25312 0.0
C275 C 0.17792 0.71403 0.23907 0.0
O276 O 0.0706 0.7472 0.27017 0.0
C277 C 0.12845 0.58522 0.23949 0.0
O278 O 0.05652 0.69126 0.25462 0.0
O279 O 0.10229 0.60822 0.23276 0.0
C280 C 0.60036 0.10247 0.87746 0.0
O281 O 0.56574 0.09021 0.87491 0.0
Cd282 Cd 0.52171 0.07744 0.9021 0.0
O283 O 0.6146 0.10677 0.89507 0.0
Cd284 Cd 0.59096 0.09857 0.92977 0.0
C285 C 0.52429 0.16896 0.92207 0.0
O286 O 0.55366 0.038 0.92732 0.0
O287 O 0.54427 0.07414 0.95394 0.0
O288 O 0.65363 0.07168 0.93998 0.0
C289 C 0.53946 0.04175 0.94495 0.0
O290 O 0.50359 0.14322 0.9132 0.0
C291 C 0.65869 0.09623 0.95416 0.0
O292 O 0.55825 0.16111 0.92866 0.0
O293 O 0.63274 0.12237 0.95668 0.0
C294 C 0.14662 0.33025 0.14411 0.0
O295 O 0.16431 0.29755 0.1448 0.0
Cd296 Cd 0.17899 0.26399 0.17532 0.0
O297 O 0.13898 0.34982 0.16006 0.0
Cd298 Cd 0.14959 0.348 0.1969 0.0
C299 C 0.08597 0.27207 0.19571 0.0
O300 O 0.20975 0.31413 0.19426 0.0
O301 O 0.18709 0.31789 0.22464 0.0
O302 O 0.16813 0.41668 0.19713 0.0
C303 C 0.21409 0.30673 0.2128 0.0
O304 O 0.11223 0.251 0.18741 0.0
C305 C 0.14311 0.42629 0.21047 0.0
O306 O 0.09197 0.30773 0.20029 0.0
O307 O 0.12116 0.39947 0.21742 0.0
C308 C 0.91285 0.88779 0.41194 0.0
O309 O 0.94747 0.9009 0.41352 0.0
Cd310 Cd 0.98228 0.90145 0.44468 0.0
O311 O 0.89284 0.87795 0.42739 0.0
Cd312 Cd 0.89593 0.87615 0.46463 0.0
C313 C 0.96148 0.80445 0.45594 0.0
O314 O 0.93731 0.93148 0.46714 0.0
O315 O 0.93075 0.89922 0.49499 0.0
O316 O 0.82969 0.90142 0.46651 0.0
C317 C 0.94557 0.92806 0.48566 0.0
O318 O 0.98569 0.83042 0.45006 0.0
C319 C 0.8179 0.87455 0.47833 0.0
O320 O 0.92722 0.81323 0.46185 0.0
O321 O 0.84242 0.84867 0.48374 0.0
C322 C 0.27891 0.65484 0.6384 0.0
O323 O 0.27416 0.69117 0.6416 0.0
Cd324 Cd 0.28414 0.72143 0.67392 0.0
O325 O 0.29129 0.63291 0.65259 0.0
Cd326 Cd 0.30887 0.63778 0.68836 0.0
C327 C 0.38099 0.702 0.68109 0.0
O328 O 0.25455 0.67903 0.69841 0.0
O329 O 0.3001 0.67033 0.7207 0.0
O330 O 0.28552 0.57053 0.69194 0.0
C331 C 0.26658 0.68342 0.71637 0.0
O332 O 0.35469 0.72813 0.67921 0.0
C333 C 0.31362 0.56052 0.70338 0.0
O334 O 0.37228 0.66598 0.68253 0.0
O335 O 0.33971 0.58595 0.70694 0.0
C336 C 0.40188 0.11597 0.39264 0.0
O337 O 0.4374 0.10621 0.39041 0.0
Cd338 Cd 0.4808 0.09458 0.41799 0.0
O339 O 0.38655 0.11906 0.41008 0.0
Cd340 Cd 0.40738 0.11103 0.44516 0.0
C341 C 0.47273 0.18375 0.44092 0.0
O342 O 0.4475 0.05285 0.44146 0.0
O343 O 0.45141 0.08425 0.46998 0.0
O344 O 0.34512 0.0801 0.45209 0.0
C345 C 0.45961 0.05425 0.45955 0.0
O346 O 0.49446 0.15965 0.43145 0.0
C347 C 0.33693 0.10216 0.46695 0.0
O348 O 0.4385 0.17451 0.44667 0.0
O349 O 0.361 0.12912 0.47137 0.0
C350 C 0.65335 0.64304 0.15682 0.0
O351 O 0.67019 0.67608 0.1569 0.0
Cd352 Cd 0.65968 0.7169 0.18563 0.0
O353 O 0.63985 0.62833 0.17304 0.0
Cd354 Cd 0.64084 0.64099 0.20966 0.0
C355 C 0.56371 0.69346 0.1977 0.0
O356 O 0.68971 0.69158 0.21526 0.0
O357 O 0.64191 0.68786 0.23686 0.0
O358 O 0.67884 0.58295 0.21808 0.0
C359 C 0.67419 0.70302 0.23171 0.0
O360 O 0.58844 0.71768 0.19054 0.0
C361 C 0.65288 0.56954 0.22997 0.0
O362 O 0.57419 0.66096 0.2053 0.0
O363 O 0.62149 0.58897 0.23203 0.0
C364 C 0.07671 0.90151 0.91359 0.0
O365 O 0.04502 0.92066 0.91532 0.0
Cd366 Cd 0.01353 0.9279 0.94728 0.0
O367 O 0.09687 0.89186 0.92901 0.0
Cd368 Cd 0.09963 0.89972 0.96616 0.0
C369 C 0.0301 0.83123 0.96183 0.0
O370 O 0.06058 0.95692 0.96874 0.0
O371 O 0.06782 0.92539 -0.00324 0.0
O372 O 0.16681 0.92261 0.96554 0.0
C373 C 0.05285 0.9541 0.98739 0.0
O374 O 0.00728 0.85783 0.95523 0.0
C375 C 0.17851 0.89677 0.978 0.0
O376 O 0.06521 0.83844 0.96688 0.0
O377 O 0.15356 0.87256 0.98477 0.0
C378 C 0.87218 0.35156 0.64687 0.0
O379 O 0.85513 0.32047 0.64113 0.0
Cd380 Cd 0.82667 0.27326 0.66316 0.0
O381 O 0.87296 0.36174 0.66536 0.0
Cd382 Cd 0.84838 0.33769 0.69792 0.0
C383 C 0.9107 0.26189 0.69101 0.0
O384 O 0.78776 0.30989 0.68616 0.0
O385 O 0.80529 0.29368 0.71643 0.0
O386 O 0.82887 0.40416 0.7047 0.0
C387 C 0.77991 0.29224 0.70248 0.0
O388 O 0.88587 0.2473 0.6788 0.0
C389 C 0.84572 0.40643 0.72176 0.0
O390 O 0.90509 0.29489 0.69952 0.0
O391 O 0.86413 0.3764 0.72797 0.0
C392 C 0.43013 0.89726 0.0708 0.0
O393 O 0.46553 0.90756 0.06871 0.0
Cd394 Cd 0.49756 0.90609 0.03631 0.0
O395 O 0.40964 0.88724 0.05565 0.0
Cd396 Cd 0.4156 0.88114 0.01906 0.0
C397 C 0.48046 0.80909 0.0278 0.0
O398 O 0.45662 0.93673 0.01156 0.0
O399 O 0.45009 0.89328 0.98772 0.0
O400 O 0.35233 0.91191 0.01669 0.0
C401 C 0.46218 0.92666 -0.0067 0.0
O402 O 0.50587 0.83589 0.03037 0.0
C403 C 0.33756 0.88524 0.00572 0.0
O404 O 0.44474 0.81737 0.02459 0.0
O405 O 0.35897 0.85613 0.00114 0.0
C406 C 0.823 0.64795 0.82857 0.0
O407 O 0.80481 0.68038 0.82809 0.0
Cd408 Cd 0.78515 0.71369 0.79786 0.0
O409 O 0.83084 0.62888 0.81254 0.0
Cd410 Cd 0.82213 0.63324 0.77596 0.0
C411 C 0.88003 0.71397 0.78122 0.0
O412 O 0.75975 0.66412 0.77658 0.0
O413 O 0.78799 0.66362 0.74738 0.0
O414 O 0.80836 0.56368 0.77562 0.0
C415 C 0.75863 0.67311 0.75805 0.0
O416 O 0.85012 0.73384 0.78645 0.0
C417 C 0.83222 0.55615 0.76138 0.0
O418 O 0.87773 0.67747 0.77733 0.0
O419 O 0.8521 0.58442 0.75425 0.0
C420 C 0.12643 0.05242 0.58806 0.0
O421 O 0.09054 0.04293 0.58742 0.0
Cd422 Cd 0.04803 0.04332 0.55909 0.0
O423 O 0.14356 0.06397 0.57203 0.0
Cd424 Cd 0.12665 0.07071 0.53579 0.0
C425 C 0.0584 0.13964 0.54608 0.0
O426 O 0.08628 0.01328 0.53334 0.0
O427 O 0.08431 0.05154 0.50744 0.0
O428 O 0.19122 0.04883 0.52501 0.0
C429 C 0.07359 0.01991 0.51574 0.0
O430 O 0.03578 0.1129 0.55261 0.0
C431 C 0.19747 0.07908 0.51429 0.0
O432 O 0.09293 0.13214 0.54015 0.0
O433 O 0.17116 0.10525 0.51388 0.0
C434 C 0.65044 0.36596 0.35194 0.0
O435 O 0.65411 0.32917 0.35386 0.0
Cd436 Cd 0.65982 0.28575 0.32542 0.0
O437 O 0.6492 0.38168 0.33454 0.0
Cd438 Cd 0.64937 0.35905 0.29947 0.0
C439 C 0.57182 0.2997 0.30322 0.0
O440 O 0.70454 0.31356 0.30122 0.0
O441 O 0.67044 0.31434 0.27353 0.0
O442 O 0.68241 0.41981 0.29068 0.0
C443 C 0.70049 0.30285 0.28297 0.0
O444 O 0.59462 0.27531 0.3117 0.0
C445 C 0.65779 0.42895 0.27713 0.0
O446 O 0.58315 0.3341 0.29889 0.0
O447 O 0.62944 0.40579 0.2741 0.0
C448 C 0.01092 0.52794 0.97994 0.0
C449 C 0.97048 0.51903 0.97856 0.0
C450 C 0.98276 0.45063 0.98737 0.0
C451 C 0.02326 0.45944 0.98871 0.0
N452 N 0.07639 0.50577 0.98832 0.0
N453 N 0.91764 0.47233 0.97823 0.0
C454 C 0.0375 0.49794 0.98553 0.0
C455 C 0.95633 0.48047 0.98149 0.0
N456 N 0.02398 0.56451 0.97479 0.0
N457 N 0.96935 0.41444 -0.00702 0.0
H458 H 0.89682 0.49388 0.9752 0.0
H459 H 0.90626 0.44413 0.97741 0.0
H460 H 0.98763 0.39147 -0.00279 0.0
H461 H 0.93995 0.40757 -0.00516 0.0
H462 H 0.05329 0.57199 0.97324 0.0
H463 H 0.00538 0.58741 0.97081 0.0
H464 H 0.08823 0.53379 0.98874 0.0
H465 H 0.09711 0.48401 -0.00887 0.0
C466 C 0.70548 0.72885 0.26304 0.0
C467 C 0.6907 0.73567 0.24338 0.0
C468 C 0.71363 0.8033 0.24445 0.0
C469 C 0.73006 0.79588 0.26378 0.0
N470 N 0.72435 0.75817 0.29475 0.0
N471 N 0.66782 0.78223 0.21871 0.0
C472 C 0.72052 0.7608 0.27423 0.0
C473 C 0.6908 0.77385 0.23503 0.0
N474 N 0.70647 0.69174 0.27079 0.0
N475 N 0.71995 0.83849 0.23516 0.0
H476 H 0.64872 0.76177 0.21249 0.0
H477 H 0.66429 0.81032 0.21284 0.0
H478 H 0.73296 0.86207 0.24258 0.0
H479 H 0.71324 0.84385 0.22006 0.0
H480 H 0.72112 0.68464 0.2841 0.0
H481 H 0.69545 0.66748 0.26308 0.0
H482 H 0.71533 0.73376 0.30301 0.0
H483 H 0.73055 0.78209 0.30392 0.0
C484 C 0.49574 0.43902 0.50775 0.0
C485 C 0.53335 0.45603 0.51021 0.0
C486 C 0.50405 0.51996 0.51699 0.0
C487 C 0.46652 0.50303 0.51433 0.0
N488 N 0.42569 0.44566 0.51224 0.0
N489 N 0.57362 0.50915 0.52175 0.0
C490 C 0.46208 0.46219 0.51152 0.0
C491 C 0.53753 0.49547 0.51636 0.0
N492 N 0.49207 0.40172 0.50046 0.0
N493 N 0.50767 0.55952 0.51965 0.0
H494 H 0.5985 0.49142 0.52157 0.0
H495 H 0.57845 0.53663 0.52809 0.0
H496 H 0.48371 0.57816 0.52119 0.0
H497 H 0.53426 0.5743 0.51929 0.0
H498 H 0.46561 0.38967 0.4958 0.0
H499 H 0.51581 0.38338 0.49775 0.0
H500 H 0.42097 0.41554 0.51248 0.0
H501 H 0.40021 0.46202 0.51425 0.0
C502 C 0.75525 0.22351 0.70203 0.0
C503 C 0.74742 0.26422 0.70355 0.0
C504 C 0.67985 0.25118 0.71336 0.0
C505 C 0.6881 0.21045 0.7125 0.0
N506 N 0.72884 0.15752 0.70115 0.0
N507 N 0.70099 0.31721 0.70536 0.0
C508 C 0.72433 0.19656 0.70514 0.0
C509 C 0.70912 0.27818 0.7073 0.0
N510 N 0.79245 0.21072 0.69828 0.0
N511 N 0.64521 0.26408 0.72129 0.0
H512 H 0.72216 0.33788 0.70151 0.0
H513 H 0.6728 0.32868 0.70593 0.0
H514 H 0.62261 0.24531 0.72546 0.0
H515 H 0.63956 0.29326 0.7248 0.0
H516 H 0.80104 0.18154 0.69933 0.0
H517 H 0.81549 0.22967 0.69506 0.0
H518 H 0.7534 0.14561 0.69415 0.0
H519 H 0.7062 0.13739 0.7032 0.0
C520 C 0.02704 0.42497 0.47654 0.0
C521 C 0.98762 0.43133 0.4823 0.0
C522 C 0.987 0.49482 0.46535 0.0
C523 C 0.02653 0.48864 0.45968 0.0
N524 N 0.0819 0.44556 0.45581 0.0
N525 N 0.92714 0.4667 0.47863 0.0
C526 C 0.04574 0.45278 0.46385 0.0
C527 C 0.96665 0.46459 0.47557 0.0
N528 N 0.04717 0.39362 0.48413 0.0
N529 N 0.96929 0.5299 0.46134 0.0
H530 H 0.91139 0.44468 0.48594 0.0
H531 H 0.90937 0.48835 0.47245 0.0
H532 H 0.98251 0.55188 0.4528 0.0
H533 H 0.94229 0.53811 0.46726 0.0
H534 H 0.0772 0.38986 0.48248 0.0
H535 H 0.03427 0.37232 0.49326 0.0
H536 H 0.09578 0.41847 0.45659 0.0
H537 H 0.09691 0.46589 0.44696 0.0
C538 C 0.71398 0.77053 0.74317 0.0
C539 C 0.67607 0.75833 0.73739 0.0
C540 C 0.69114 0.69087 0.74717 0.0
C541 C 0.7303 0.70232 0.75084 0.0
N542 N 0.78059 0.75205 0.75092 0.0
N543 N 0.62967 0.70648 0.73093 0.0
C544 C 0.74223 0.74189 0.74842 0.0
C545 C 0.66472 0.71843 0.73874 0.0
N546 N 0.72248 0.80963 0.74422 0.0
N547 N 0.67923 0.65368 0.75175 0.0
H548 H 0.60948 0.72564 0.7245 0.0
H549 H 0.62179 0.6772 0.72933 0.0
H550 H 0.69822 0.63211 0.75709 0.0
H551 H 0.65008 0.64495 0.75163 0.0
H552 H 0.74821 0.82073 0.75037 0.0
H553 H 0.70226 0.8314 0.74057 0.0
H554 H 0.7919 0.77932 0.74701 0.0
H555 H 0.80199 0.73243 0.75568 0.0
C556 C 0.50043 0.43269 -0.00892 0.0
C557 C 0.46171 0.44731 -0.01088 0.0
C558 C 0.48105 0.50985 0.00413 0.0
C559 C 0.52032 0.49647 0.00447 0.0
N560 N 0.56885 0.44712 -0.00239 0.0
N561 N 0.41446 0.49924 -0.00712 0.0
C562 C 0.53038 0.45821 -0.00199 0.0
C563 C 0.45179 0.48569 -0.0045 0.0
N564 N 0.50859 0.39469 0.98601 0.0
N565 N 0.47167 0.54525 0.01256 0.0
H566 H 0.39149 0.48141 0.9881 0.0
H567 H 0.40632 0.52842 -0.00541 0.0
H568 H 0.49248 0.56436 0.01844 0.0
H569 H 0.44319 0.5549 0.01497 0.0
H570 H 0.53501 0.38085 -0.01091 0.0
H571 H 0.48814 0.37581 0.97961 0.0
H572 H 0.57902 0.42133 -0.00891 0.0
H573 H 0.59142 0.46499 0.00283 0.0
C574 C 0.77907 0.27714 0.24514 0.0
C575 C 0.7835 0.23656 0.24907 0.0
C576 C 0.73492 0.23979 0.27621 0.0
C577 C 0.7309 0.28043 0.27244 0.0
N578 N 0.75318 0.3397 0.25634 0.0
N579 N 0.77129 0.17995 0.27 0.0
C580 C 0.75416 0.2997 0.25775 0.0
C581 C 0.76333 0.21813 0.26523 0.0
N582 N 0.79846 0.29393 0.22925 0.0
N583 N 0.71025 0.22166 0.28955 0.0
H584 H 0.79059 0.16256 0.2617 0.0
H585 H 0.76086 0.1661 0.28294 0.0
H586 H 0.68945 0.23677 0.29807 0.0
H587 H 0.70848 0.19143 0.2913 0.0
H588 H 0.7928 0.32203 0.22391 0.0
H589 H 0.81937 0.27906 0.22071 0.0
H590 H 0.77209 0.35602 0.24735 0.0
H591 H 0.73531 0.35715 0.26544 0.0
C592 C 0.21941 0.28016 0.75386 0.0
C593 C 0.25669 0.26819 0.76085 0.0
C594 C 0.24278 0.20009 0.75215 0.0
C595 C 0.20531 0.21192 0.74533 0.0
N596 N 0.15501 0.26118 0.74209 0.0
N597 N 0.30165 0.2172 0.77055 0.0
C598 C 0.19257 0.25134 0.74709 0.0
C599 C 0.26776 0.22821 0.76114 0.0
N600 N 0.21056 0.31921 0.75275 0.0
N601 N 0.25461 0.16208 0.7497 0.0
H602 H 0.32065 0.23719 0.77731 0.0
H603 H 0.3096 0.18822 0.77314 0.0
H604 H 0.23618 0.14002 0.74439 0.0
H605 H 0.28318 0.15257 0.75198 0.0
H606 H 0.18583 0.33029 0.74561 0.0
H607 H 0.22928 0.34112 0.75795 0.0
H608 H 0.14257 0.28836 0.74517 0.0
H609 H 0.13512 0.2414 0.7359 0.0
C610 C 0.20002 0.7805 0.22817 0.0
C611 C 0.20889 0.74062 0.2321 0.0
C612 C 0.2783 0.75251 0.22564 0.0
C613 C 0.26991 0.79298 0.22321 0.0
N614 N 0.22446 0.84684 0.22417 0.0
N615 N 0.25596 0.68866 0.23657 0.0
C616 C 0.23115 0.80734 0.22488 0.0
C617 C 0.24791 0.72666 0.23144 0.0
N618 N 0.16192 0.79267 0.22772 0.0
N619 N 0.31489 0.73845 0.22145 0.0
H620 H 0.23433 0.66781 0.23934 0.0
H621 H 0.2841 0.67815 0.23915 0.0
H622 H 0.33828 0.7563 0.21745 0.0
H623 H 0.3216 0.70877 0.22042 0.0
H624 H 0.15314 0.82021 0.22275 0.0
H625 H 0.13845 0.77439 0.23117 0.0
H626 H 0.19762 0.8598 0.22735 0.0
H627 H 0.24667 0.86728 0.22182 0.0
C628 C 0.26074 0.20882 0.22417 0.0
C629 C 0.29862 0.22093 0.23005 0.0
C630 C 0.28212 0.28908 0.22249 0.0
C631 C 0.24297 0.27744 0.2191 0.0
N632 N 0.19333 0.22718 0.2183 0.0
N633 N 0.34422 0.273 0.23779 0.0
C634 C 0.23174 0.23753 0.22036 0.0
C635 C 0.30928 0.26114 0.22983 0.0
N636 N 0.25287 0.1698 0.22184 0.0
N637 N 0.29334 0.32679 0.21866 0.0
H638 H 0.3651 0.25372 0.24346 0.0
H639 H 0.35135 0.30225 0.24028 0.0
H640 H 0.27384 0.34852 0.21404 0.0
H641 H 0.32242 0.33583 0.21861 0.0
H642 H 0.227 0.15908 0.21568 0.0
H643 H 0.2738 0.14807 0.22433 0.0
H644 H 0.18274 0.19919 0.22128 0.0
H645 H 0.17128 0.24727 0.21504 0.0
C646 C 0.22149 0.77038 0.74276 0.0
C647 C 0.19527 0.75106 0.75605 0.0
C648 C 0.21769 0.68704 0.74414 0.0
C649 C 0.24407 0.70642 0.73101 0.0
N650 N 0.27726 0.76503 0.72021 0.0
N651 N 0.17163 0.69208 0.77195 0.0
C652 C 0.24789 0.74771 0.73106 0.0
C653 C 0.19453 0.70965 0.75762 0.0
N654 N 0.2204 0.8103 0.74101 0.0
N655 N 0.21388 0.64718 0.74315 0.0
H656 H 0.15289 0.7077 0.78141 0.0
H657 H 0.17278 0.66238 0.7754 0.0
H658 H 0.2314 0.62962 0.73391 0.0
H659 H 0.19216 0.63146 0.75059 0.0
H660 H 0.23527 0.82586 0.72986 0.0
H661 H 0.20285 0.82807 0.75011 0.0
H662 H 0.28417 0.79465 0.72114 0.0
H663 H 0.29699 0.74916 0.71137 0.0
C664 C 0.47819 0.96396 0.49097 0.0
C665 C 0.51913 0.95995 0.48831 0.0
C666 C 0.52088 0.01716 0.46614 0.0
C667 C 0.47994 0.02099 0.46868 0.0
N668 N 0.41814 -0.00377 0.48071 0.0
N669 N 0.57882 0.97724 0.47109 0.0
C670 C 0.45811 -0.00617 0.48031 0.0
C671 C 0.54032 0.98486 0.47513 0.0
N672 N 0.45878 0.93936 0.50386 0.0
N673 N 0.54121 0.0452 0.45574 0.0
H674 H 0.59416 0.95425 0.47782 0.0
H675 H 0.59498 -0.00824 0.46007 0.0
H676 H 0.52768 0.06883 0.44859 0.0
H677 H 0.57157 0.0466 0.45517 0.0
H678 H 0.43002 0.9435 0.50855 0.0
H679 H 0.47199 0.91509 0.51053 0.0
H680 H 0.40005 0.9753 0.48725 0.0
H681 H 0.40251 0.01819 0.47328 0.0
C682 C 0.02314 0.01719 -0.00161 0.0
C683 C 0.01969 0.97609 -0.00406 0.0
C684 C 0.95073 0.97847 0.0061 0.0
C685 C 0.95389 0.01969 0.00798 0.0
N686 N -0.00632 0.07798 0.00972 0.0
N687 N 0.97975 0.91778 -0.00554 0.0
C688 C 0.99022 0.03907 0.00504 0.0
C689 C 0.9835 0.95662 -0.00074 0.0
N690 N 0.05774 0.03529 -0.00618 0.0
N691 N 0.91643 0.96022 0.01108 0.0
H692 H 0.00287 0.90049 -0.01057 0.0
H693 H 0.95322 0.90294 -0.00597 0.0
H694 H 0.89097 0.97536 0.01488 0.0
H695 H 0.91352 0.93004 0.01267 0.0
H696 H 0.06117 0.06547 -0.00733 0.0
H697 H 0.08317 0.01994 -0.00983 0.0
H698 H 0.02003 0.09312 0.01009 0.0
H699 H 0.97036 0.09502 0.01474 0.0
C700 C 0.54223 0.98839 0.97045 0.0
C701 C 0.5208 0.00887 0.95545 0.0
C702 C 0.46119 0.97346 0.96439 0.0
C703 C 0.48277 0.95266 0.97922 0.0
N704 N 0.5445 0.93337 -0.00638 0.0
N705 N 0.46257 0.01701 0.93539 0.0
C706 C 0.52356 0.95807 0.98145 0.0
C707 C 0.4811 -1e-05 0.95147 0.0
N708 N 0.58016 -0.00151 0.97442 0.0
N709 N 0.42146 0.96917 0.96334 0.0
H710 H 0.47605 0.03754 0.92602 0.0
H711 H 0.43492 0.00883 0.93038 0.0
H712 H 0.40594 0.94951 0.97237 0.0
H713 H 0.40342 0.98672 0.95449 0.0
H714 H 0.59581 0.98819 0.98683 0.0
H715 H 0.59561 0.01897 0.96586 0.0
H716 H 0.57488 0.93327 -0.00557 0.0
H717 H 0.53164 0.91042 0.00162 0.0
C718 C 0.04761 0.95737 0.50182 0.0
C719 C 0.04093 -0.00326 0.50766 0.0
C720 C 0.97173 0.99112 0.49875 0.0
C721 C 0.97783 0.951 0.49427 0.0
N722 N 0.02007 0.89432 0.49279 0.0
N723 N -0.00379 0.0497 0.51498 0.0
C724 C 0.01533 0.93356 0.49628 0.0
C725 C 0.0029 0.01337 0.50695 0.0
N726 N 0.08506 0.94337 0.50079 0.0
N727 N 0.93623 0.00804 0.49493 0.0
H728 H 0.01822 0.06711 0.5211 0.0
H729 H 0.96843 0.06149 0.51709 0.0
H730 H 0.91197 -0.00778 0.48998 0.0
H731 H 0.93137 0.03814 0.49544 0.0
H732 H 0.09253 0.91635 0.4946 0.0
H733 H 0.10941 0.9601 0.50473 0.0
H734 H 0.04543 0.87893 0.49628 0.0
H735 H -0.0022 0.87627 0.48743 0.0
C736 C 0.95525 0.22253 0.0127 0.0
C737 C 0.94137 0.20997 0.03183 0.0
C738 C 0.96327 0.27084 0.04755 0.0
C739 C 0.9766 0.2839 0.02832 0.0
N740 N 0.97724 0.27691 -0.00798 0.0
N741 N 0.92309 0.22485 0.06619 0.0
C742 C 0.97009 0.26115 0.01068 0.0
C743 C 0.9424 0.23509 0.04885 0.0
N744 N 0.9556 0.19707 -0.00328 0.0
N745 N 0.97256 0.2912 0.06472 0.0
H746 H 0.90765 0.19864 0.06766 0.0
H747 H 0.91929 0.24377 0.0784 0.0
H748 H 0.98777 0.3176 0.06464 0.0
H749 H 0.9679 0.2804 0.07926 0.0
H750 H 0.96955 0.20293 0.98305 0.0
H751 H 0.94397 0.16887 -0.00244 0.0
H752 H 0.96966 0.2632 0.97851 0.0
H753 H 0.98748 0.30544 -0.00994 0.0
C754 C 0.98488 0.75782 0.25025 0.0
C755 C 0.00434 0.73295 0.26407 0.0
C756 C 0.94926 0.7366 0.28752 0.0
C757 C 0.92871 0.76009 0.27333 0.0
N758 N 0.92307 0.78551 0.23938 0.0
N759 N 0.00146 0.69012 0.29309 0.0
C760 C 0.94537 0.76845 0.25409 0.0
C761 C 0.98519 0.71935 0.28173 0.0
N762 N 0.00441 0.77186 0.23373 0.0
N763 N 0.93624 0.73314 0.30702 0.0
H764 H 0.0282 0.6771 0.28956 0.0
H765 H 0.98674 0.67634 0.30492 0.0
H766 H 0.911 0.74663 0.31243 0.0
H767 H 0.95266 0.72014 0.31847 0.0
H768 H -0.00668 0.79363 0.22432 0.0
H769 H 0.03286 0.76322 0.23012 0.0
H770 H 0.9325 0.78918 0.22451 0.0
H771 H 0.89369 0.79262 0.24153 0.0
C772 C 0.4749 0.71189 0.51323 0.0
C773 C 0.45627 0.69865 0.53113 0.0
C774 C 0.4719 0.76019 0.54821 0.0
C775 C 0.48793 0.77468 0.52984 0.0
N776 N 0.49805 0.76754 0.49389 0.0
N777 N 0.42944 0.71269 0.56415 0.0
C778 C 0.48758 0.75143 0.51204 0.0
C779 C 0.45255 0.72352 0.5482 0.0
N780 N 0.48174 0.68635 0.49768 0.0
N781 N 0.47668 0.78048 0.5659 0.0
H782 H 0.41448 0.6861 0.56471 0.0
H783 H 0.42213 0.73155 0.57597 0.0
H784 H 0.49068 0.80751 0.56677 0.0
H785 H 0.46981 0.76891 0.58004 0.0
H786 H 0.49898 0.69318 0.48518 0.0
H787 H 0.47288 0.65712 0.49804 0.0
H788 H 0.49458 0.75325 0.48009 0.0
H789 H 0.50685 0.79665 0.49239 0.0
C790 C 0.50581 0.26431 0.75424 0.0
C791 C 0.52987 0.25083 0.77019 0.0
C792 C 0.48242 0.27415 0.79517 0.0
C793 C 0.45621 0.28295 0.7792 0.0
N794 N 0.44048 0.28192 0.74354 0.0
N795 N 0.53999 0.23833 0.80574 0.0
C796 C 0.46731 0.2772 0.75869 0.0
C797 C 0.51804 0.25471 0.79067 0.0
N798 N 0.51998 0.26512 0.7349 0.0
N799 N 0.47368 0.2853 0.81454 0.0
H800 H 0.5664 0.22402 0.80302 0.0
H801 H 0.53068 0.23628 0.82071 0.0
H802 H 0.44797 0.30004 0.81834 0.0
H803 H 0.49337 0.28321 0.8265 0.0
H804 H 0.50537 0.27842 0.72291 0.0
H805 H 0.54805 0.25554 0.73116 0.0
H806 H 0.44569 0.27396 0.72857 0.0
H807 H 0.41169 0.29067 0.74612 0.0
C808 C 0.9572 0.74446 0.43475 0.0
C809 C 0.97111 0.76296 0.45255 0.0
C810 C 0.00458 0.70271 0.46253 0.0
C811 C -0.00475 0.68613 0.44341 0.0
N812 N 0.9679 0.69382 0.40985 0.0
N813 N 0.01017 0.7617 0.48284 0.0
C814 C 0.97259 0.70747 0.42917 0.0
C815 C -0.00456 0.74266 0.46632 0.0
N816 N 0.92934 0.76223 0.42308 0.0
N817 N 0.02088 0.67986 0.47726 0.0
H818 H 0.0027 0.79051 0.48647 0.0
H819 H 0.0316 0.74987 0.4922 0.0
H820 H 0.02682 0.65016 0.47519 0.0
H821 H 0.02502 0.68924 0.49211 0.0
H822 H 0.91495 0.74812 0.41127 0.0
H823 H 0.91814 0.79001 0.42616 0.0
H824 H 0.95595 0.71056 0.39822 0.0
H825 H 0.97911 0.66722 0.40478 0.0
C826 C 0.48332 0.7145 0.70236 0.0
C827 C 0.49992 0.73927 0.68752 0.0
C828 C 0.4406 0.73446 0.66698 0.0
C829 C 0.4223 0.71378 0.68298 0.0
N830 N 0.42393 0.68905 0.71726 0.0
N831 N 0.49412 0.77634 0.65657 0.0
C832 C 0.44311 0.70475 0.701 0.0
C833 C 0.47851 0.75023 0.67003 0.0
N834 N 0.50598 0.70041 0.71777 0.0
N835 N 0.4223 0.73781 0.64867 0.0
H836 H 0.52233 0.78761 0.65796 0.0
H837 H 0.47829 0.78886 0.64479 0.0
H838 H 0.39468 0.72613 0.64582 0.0
H839 H 0.43581 0.74898 0.63577 0.0
H840 H 0.49664 0.67885 0.72781 0.0
H841 H 0.53536 0.70788 0.7195 0.0
H842 H 0.43662 0.68581 0.73148 0.0
H843 H 0.39417 0.68252 0.71721 0.0
C844 C 0.49876 0.22157 0.94467 0.0
C845 C 0.50866 0.20875 0.92492 0.0
C846 C 0.48753 0.27152 0.91072 0.0
C847 C 0.48007 0.28517 0.93062 0.0
N848 N 0.48463 0.27643 0.96676 0.0
N849 N 0.51871 0.22264 0.88949 0.0
C850 C 0.48741 0.2611 0.94768 0.0
C851 C 0.50478 0.23403 0.908 0.0
N852 N 0.49884 0.19555 0.96041 0.0
N853 N 0.47682 0.29379 0.89444 0.0
H854 H 0.53111 0.19518 0.88688 0.0
H855 H 0.52076 0.24134 0.8771 0.0
H856 H 0.46457 0.32165 0.89587 0.0
H857 H 0.47738 0.28364 0.87958 0.0
H858 H 0.48774 0.202 0.97471 0.0
H859 H 0.50704 0.16629 0.95879 0.0
H860 H 0.49374 0.26169 0.97971 0.0
H861 H 0.47629 0.30532 0.96957 0.0
C862 C 0.01956 0.26465 0.18094 0.0
C863 C 0.0458 0.25689 0.19704 0.0
C864 C -0.00659 0.22543 0.21633 0.0
C865 C 0.96794 0.23076 0.19958 0.0
N866 N 0.95947 0.24636 0.16421 0.0
N867 N 0.06032 0.22487 0.22861 0.0
C868 C 0.98179 0.24778 0.18136 0.0
C869 C 0.03357 0.23553 0.21428 0.0
N870 N 0.03036 0.28893 0.16546 0.0
N871 N 0.9789 0.21267 0.23445 0.0
H872 H 0.08974 0.2328 0.22777 0.0
H873 H 0.05405 0.20579 0.24047 0.0
H874 H 0.94955 0.20558 0.23665 0.0
H875 H -0.00483 0.21216 0.24775 0.0
H876 H 0.01093 0.29903 0.15451 0.0
H877 H 0.05796 0.30174 0.16446 0.0
H878 H 0.96977 0.25471 0.15001 0.0
H879 H 0.93207 0.233 0.16368 0.0
C880 C 0.00703 0.73303 0.93901 0.0
C881 C 0.98713 0.71437 0.9552 0.0
C882 C -0.00497 0.77315 0.97611 0.0
C883 C 0.01747 0.79022 0.96045 0.0
N884 N 0.05355 0.78271 0.92925 0.0
N885 N 0.97 0.71311 -0.0093 0.0
C886 C 0.0264 0.7689 0.94265 0.0
C887 C 0.98326 0.73342 0.97424 0.0
N888 N 0.00537 0.718 0.91983 0.0
N889 N 0.98476 0.79491 -0.00735 0.0
H890 H 0.96263 0.6835 -0.00988 0.0
H891 H 0.97004 0.72448 0.00532 0.0
H892 H -0.00569 0.82363 -0.00518 0.0
H893 H 0.9648 0.78539 0.00348 0.0
H894 H 0.01598 0.73287 0.9072 0.0
H895 H 0.98968 0.69287 0.91611 0.0
H896 H 0.06396 0.76624 0.9171 0.0
H897 H 0.06828 0.80916 0.93125 0.0
C898 C 0.97325 0.23688 0.67631 0.0
C899 C 0.94883 0.24222 0.69349 0.0
C900 C 0.00032 0.21648 0.71553 0.0
C901 C 0.02351 0.20875 0.69817 0.0
N902 N 0.02864 0.20275 0.66188 0.0
N903 N 0.9357 0.23063 0.72883 0.0
C904 C 0.00892 0.21627 0.67849 0.0
C905 C 0.96135 0.2301 0.71296 0.0
N906 N 0.96347 0.25323 0.6581 0.0
N907 N 0.01603 0.21242 0.73443 0.0
H908 H 0.90686 0.24017 0.72741 0.0
H909 H 0.94188 0.21843 0.74291 0.0
H910 H 0.04446 0.20247 0.73691 0.0
H911 H 0.00202 0.22177 0.74757 0.0
H912 H 0.98246 0.25412 0.64577 0.0
H913 H 0.93792 0.26924 0.65575 0.0
H914 H 0.01725 0.20381 0.64727 0.0
H915 H 0.05467 0.18691 0.66287 0.0
C916 C 0.51286 0.28633 0.43411 0.0
C917 C 0.51969 0.29697 0.45456 0.0
C918 C 0.49705 0.23269 0.46598 0.0
C919 C 0.48791 0.22302 0.44566 0.0
N920 N 0.48023 0.24231 0.4108 0.0
N921 N 0.51222 0.28375 0.49021 0.0
C922 C 0.49381 0.25034 0.42981 0.0
C923 C 0.51003 0.27113 0.47059 0.0
N924 N 0.52607 0.30979 0.41879 0.0
N925 N 0.49482 0.20468 0.48074 0.0
H926 H 0.52182 0.31169 0.49418 0.0
H927 H 0.50146 0.26783 0.50244 0.0
H928 H 0.48527 0.17616 0.47798 0.0
H929 H 0.50535 0.20868 0.49537 0.0
H930 H 0.5259 0.30149 0.40362 0.0
H931 H 0.54019 0.33642 0.4213 0.0
H932 H 0.47985 0.26276 0.39911 0.0
H933 H 0.46622 0.21613 0.4071 0.0
C934 C 0.46412 0.71899 0.17747 0.0
C935 C 0.44735 0.73753 0.19471 0.0
C936 C 0.50516 0.72163 0.21488 0.0
C937 C 0.52209 0.70402 0.19757 0.0
N938 N 0.51435 0.67537 0.16457 0.0
N939 N 0.44608 0.74561 0.23094 0.0
C940 C 0.50038 0.6992 0.17955 0.0
C941 C 0.46608 0.73533 0.21382 0.0
N942 N 0.44683 0.72214 0.15891 0.0
N943 N 0.52689 0.7266 0.23204 0.0
H944 H 0.41693 0.75463 0.23063 0.0
H945 H 0.45689 0.74142 0.24551 0.0
H946 H 0.55529 0.71578 0.23357 0.0
H947 H 0.51772 0.74342 0.24431 0.0
H948 H 0.46048 0.71387 0.14548 0.0
H949 H 0.4197 0.7351 0.15662 0.0
H950 H 0.49829 0.6677 0.15178 0.0
H951 H 0.54066 0.66009 0.16591 0.0
C952 C 0.02643 0.2351 0.52215 0.0
C953 C 0.01821 0.25771 0.53962 0.0
C954 C 0.03853 0.20354 0.5615 0.0
C955 C 0.04372 0.17996 0.54403 0.0
N956 N 0.03727 0.17052 0.508 0.0
N957 N 0.01155 0.26316 0.57585 0.0
C958 C 0.03629 0.19499 0.5244 0.0
C959 C 0.02297 0.2419 0.55932 0.0
N960 N 0.02569 0.25231 0.50347 0.0
N961 N 0.04961 0.18966 0.58004 0.0
H962 H 0.00084 0.29171 0.57483 0.0
H963 H 0.01013 0.25175 0.59044 0.0
H964 H 0.06064 0.16148 0.5822 0.0
H965 H 0.05058 0.20684 0.59305 0.0
H966 H 0.03551 0.23859 0.49034 0.0
H967 H 0.01823 0.28165 0.50126 0.0
H968 H 0.02798 0.17869 0.4936 0.0
H969 H 0.04432 0.14086 0.50904 0.0
C970 C 0.4708 0.25556 0.30746 0.0
C971 C 0.45891 0.25589 0.2869 0.0
C972 C 0.52089 0.28578 0.27693 0.0
C973 C 0.53199 0.28725 0.29764 0.0
N974 N 0.51438 0.28207 0.33288 0.0
N975 N 0.46835 0.27775 0.25263 0.0
C976 C 0.50593 0.27475 0.31301 0.0
C977 C 0.48261 0.27318 0.2718 0.0
N978 N 0.44948 0.23535 0.32151 0.0
N979 N 0.54755 0.29419 0.26212 0.0
H980 H 0.44049 0.26838 0.24841 0.0
H981 H 0.48263 0.29377 0.24144 0.0
H982 H 0.57615 0.30292 0.26515 0.0
H983 H 0.54243 0.2894 0.24679 0.0
H984 H 0.45895 0.23042 0.33626 0.0
H985 H 0.42366 0.22067 0.31797 0.0
H986 H 0.49467 0.27716 0.34464 0.0
H987 H 0.53972 0.29655 0.33747 0.0
C988 C 0.51187 0.75506 0.04773 0.0
C989 C 0.49212 0.76755 0.02993 0.0
C990 C 0.48956 0.69967 0.01784 0.0
C991 C 0.51286 0.68818 0.0345 0.0
N992 N 0.5516 0.7053 0.0637 0.0
N993 N 0.46822 0.75302 -0.00363 0.0
C994 C 0.52562 0.71599 0.04898 0.0
C995 C 0.48234 0.74016 0.01455 0.0
N996 N 0.51602 0.77983 0.06386 0.0
N997 N 0.47444 0.67189 0.00517 0.0
H998 H 0.464 0.78258 -0.00695 0.0
H999 H 0.46427 0.73485 0.98388 0.0
H1000 H 0.48007 0.64204 0.00687 0.0
H1001 H 0.45387 0.67808 -0.006 0.0
H1002 H 0.52576 0.77067 0.07802 0.0
H1003 H 0.50647 0.80878 0.06386 0.0
H1004 H 0.56554 0.72532 0.07315 0.0
H1005 H 0.56169 0.67669 0.0655 0.0
C1006 C 0.93151 0.75235 0.79978 0.0
C1007 C 0.91916 0.73242 0.78195 0.0
C1008 C 0.98554 0.73679 0.76813 0.0
C1009 C -0.00301 0.75837 0.78545 0.0
N1010 N 0.97905 0.79559 0.81506 0.0
N1011 N 0.93183 0.71407 0.7473 0.0
C1012 C 0.96929 0.76922 0.80033 0.0
C1013 C 0.94546 0.7271 0.76554 0.0
N1014 N 0.90861 0.75288 0.81677 0.0
N1015 N 0.013 0.72518 0.75433 0.0
H1016 H 0.90236 0.70807 0.7447 0.0
H1017 H 0.94888 0.71296 0.73424 0.0
H1018 H 0.04236 0.73326 0.75534 0.0
H1019 H 0.00717 0.7056 0.74263 0.0
H1020 H 0.91855 0.76283 0.83075 0.0
H1021 H 0.88122 0.7398 0.81774 0.0
H1022 H 0.95871 0.80767 0.82501 0.0
H1023 H 0.00665 0.80836 0.81609 0.0
C1024 C 0.24084 0.35051 0.9605 0.0
C1025 C 0.27351 0.34867 0.97362 0.0
C1026 C 0.23046 0.33375 0.00216 0.0
C1027 C 0.19781 0.34229 -0.01024 0.0
N1028 N 0.17129 0.36171 0.95739 0.0
N1029 N 0.3001 0.34124 0.00727 0.0
C1030 C 0.20268 0.35085 0.9689 0.0
C1031 C 0.26865 0.34039 -0.00548 0.0
N1032 N 0.2464 0.35144 0.94001 0.0
N1033 N 0.22478 0.31902 0.02117 0.0
H1034 H 0.32863 0.34617 0.00234 0.0
H1035 H 0.29764 0.34 0.02297 0.0
H1036 H 0.19698 0.31358 0.02705 0.0
H1037 H 0.24737 0.3087 0.03028 0.0
H1038 H 0.22372 0.34891 0.92959 0.0
H1039 H 0.2741 0.35094 0.93338 0.0
H1040 H 0.17385 0.37295 0.94281 0.0
H1041 H 0.14269 0.36224 0.96285 0.0
C1042 C 0.85277 0.04313 0.26165 0.0
C1043 C 0.84829 0.04681 0.24041 0.0
C1044 C 0.83456 0.97683 0.23757 0.0
C1045 C 0.84295 0.97247 0.25846 0.0
N1046 N 0.86728 -5e-05 0.28969 0.0
N1047 N 0.84306 0.01632 0.20753 0.0
C1048 C 0.85408 0.0052 0.27036 0.0
C1049 C 0.84151 0.01341 0.22816 0.0
N1050 N 0.85412 0.0758 0.27361 0.0
N1051 N 0.81829 0.94663 0.2269 0.0
H1052 H 0.84892 0.04253 0.20001 0.0
H1053 H 0.8424 -0.00791 0.19795 0.0
H1054 H 0.81156 0.91958 0.23334 0.0
H1055 H 0.80782 0.94966 0.21218 0.0
H1056 H 0.85307 0.07473 0.28936 0.0
H1057 H 0.85267 0.1042 0.26785 0.0
H1058 H 0.87963 0.02233 0.29828 0.0
H1059 H 0.86934 0.97249 0.29652 0.0
C1060 C 0.2025 0.58672 0.48126 0.0
C1061 C 0.20217 0.58866 0.45983 0.0
C1062 C 0.27373 0.5859 0.45933 0.0
C1063 C 0.27384 0.58818 0.48077 0.0
N1064 N 0.23841 0.6013 0.51174 0.0
N1065 N 0.23731 0.59724 0.42844 0.0
C1066 C 0.23825 0.59167 0.49164 0.0
C1067 C 0.23776 0.59022 0.4488 0.0
N1068 N 0.16906 0.57829 0.49175 0.0
N1069 N 0.30758 0.57812 0.44909 0.0
H1070 H 0.21155 0.60125 0.42027 0.0
H1071 H 0.26248 0.60266 0.42002 0.0
H1072 H 0.3344 0.57426 0.45631 0.0
H1073 H 0.30846 0.57207 0.43364 0.0
H1074 H 0.16881 0.57268 0.50726 0.0
H1075 H 0.14234 0.57257 0.48477 0.0
H1076 H 0.21304 0.60802 0.51977 0.0
H1077 H 0.26394 0.6069 0.51985 0.0
C1078 C 0.57965 0.01828 0.71513 0.0
C1079 C 0.58294 0.02855 0.73587 0.0
C1080 C 0.58339 0.95937 0.74552 0.0
C1081 C 0.57965 0.94918 0.72481 0.0
N1082 N 0.56382 0.96791 0.69063 0.0
N1083 N 0.57805 0.01025 0.77099 0.0
C1084 C 0.57437 0.97839 0.70984 0.0
C1085 C 0.5816 -0.00055 0.75115 0.0
N1086 N 0.58398 0.04615 0.70045 0.0
N1087 N 0.59082 0.93108 0.75964 0.0
H1088 H 0.57624 0.03946 0.77555 0.0
H1089 H 0.57315 0.99042 0.78269 0.0
H1090 H 0.59214 0.90132 0.75615 0.0
H1091 H 0.59845 0.93723 0.77456 0.0
H1092 H 0.58657 0.03956 0.68512 0.0
H1093 H 0.58808 0.07578 0.70359 0.0
H1094 H 0.55577 0.98804 0.67956 0.0
H1095 H 0.55938 0.93883 0.68632 0.0
C1096 C 0.74457 0.59854 0.01424 0.0
C1097 C 0.7107 0.59461 0.00206 0.0
C1098 C 0.74964 0.60635 0.97163 0.0
C1099 C 0.78401 0.60542 0.98358 0.0
N1100 N 0.81494 0.59304 0.01584 0.0
N1101 N 0.68179 0.58734 0.96891 0.0
C1102 C 0.78177 0.59954 0.0048 0.0
C1103 C 0.71337 0.59654 0.98066 0.0
N1104 N 0.74123 0.60282 0.03475 0.0
N1105 N 0.75144 0.61781 0.95182 0.0
H1106 H 0.65491 0.5788 0.97491 0.0
H1107 H 0.68336 0.58435 0.95324 0.0
H1108 H 0.77743 0.62616 0.94477 0.0
H1109 H 0.72672 0.62282 0.943 0.0
H1110 H 0.76476 0.60993 0.04405 0.0
H1111 H 0.71442 0.60313 0.04227 0.0
H1112 H 0.81446 0.58437 0.03095 0.0
H1113 H 0.84286 0.59253 0.0095 0.0
C1114 C 0.12422 0.97559 0.77329 0.0
C1115 C 0.12822 0.94196 0.76086 0.0
C1116 C 0.13161 0.98301 0.73065 0.0
C1117 C 0.13064 0.01671 0.7432 0.0
N1118 N 0.13376 0.04559 0.7765 0.0
N1119 N 0.14383 0.9133 0.72846 0.0
C1120 C 0.12913 0.0132 0.76456 0.0
C1121 C 0.13428 0.94554 0.73973 0.0
N1122 N 0.11414 0.9717 0.79322 0.0
N1123 N 0.12827 0.98668 0.71011 0.0
H1124 H 0.14659 0.88535 0.73466 0.0
H1125 H 0.15264 0.91483 0.71338 0.0
H1126 H 0.12558 0.01364 0.70282 0.0
H1127 H 0.12455 0.96291 0.70042 0.0
H1128 H 0.10653 -0.0047 0.80241 0.0
H1129 H 0.11013 0.94463 0.80022 0.0
H1130 H 0.13715 0.04421 0.79215 0.0
H1131 H 0.13779 0.07366 0.77065 0.0
C1132 C 0.77914 0.35078 0.52483 0.0
C1133 C 0.80902 0.35226 0.50996 0.0
C1134 C 0.75996 0.35613 0.48314 0.0
C1135 C 0.73053 0.36006 0.49811 0.0
N1136 N 0.71145 0.36434 0.5332 0.0
N1137 N 0.82884 0.3607 0.47514 0.0
C1138 C 0.73981 0.35783 0.51899 0.0
C1139 C 0.79975 0.35569 0.48912 0.0
N1140 N 0.78841 0.34193 0.54442 0.0
N1141 N 0.74975 0.35206 0.46324 0.0
H1142 H 0.85847 0.36061 0.47883 0.0
H1143 H 0.82363 0.36807 0.46009 0.0
H1144 H 0.72075 0.35197 0.45834 0.0
H1145 H 0.76962 0.3451 0.45185 0.0
H1146 H 0.76762 0.33657 0.5556 0.0
H1147 H 0.817 0.33651 0.54914 0.0
H1148 H 0.71724 0.36764 0.54857 0.0
H1149 H 0.68222 0.36924 0.52951 0.0
C1150 C 0.40964 0.03231 0.22356 0.0
C1151 C 0.40469 0.03792 0.24471 0.0
C1152 C 0.39764 0.96727 0.24968 0.0
C1153 C 0.40277 0.96172 0.22856 0.0
N1154 N 0.42535 0.98686 0.19658 0.0
N1155 N 0.40541 0.01088 0.27837 0.0
C1156 C 0.41273 -0.00636 0.2159 0.0
C1157 C 0.4025 0.00534 0.25794 0.0
N1158 N 0.4086 0.0635 0.2106 0.0
N1159 N 0.38569 0.93692 0.26167 0.0
H1160 H 0.40957 0.03849 0.28481 0.0
H1161 H 0.40768 0.98796 0.28869 0.0
H1162 H 0.38158 0.90852 0.2563 0.0
H1163 H 0.377 0.94048 0.27667 0.0
H1164 H 0.40737 0.06046 0.19493 0.0
H1165 H 0.40569 0.09243 0.21536 0.0
H1166 H 0.43658 0.00871 0.18725 0.0
H1167 H 0.4284 0.95867 0.19065 0.0
C1168 C 0.74591 0.87139 0.47175 0.0
C1169 C 0.77727 0.87354 0.48575 0.0
C1170 C 0.73132 0.86842 0.51399 0.0
C1171 C 0.69985 0.87052 0.50009 0.0
N1172 N 0.67677 0.88142 0.46601 0.0
N1173 N 0.79969 0.88189 0.52013 0.0
C1174 C 0.70695 0.87396 0.47901 0.0
C1175 C 0.76999 0.87414 0.50688 0.0
N1176 N 0.75323 0.86541 0.45164 0.0
N1177 N 0.7244 0.85968 0.53386 0.0
H1178 H 0.82835 0.88726 0.51552 0.0
H1179 H 0.7952 0.88681 0.53552 0.0
H1180 H 0.69645 0.85452 0.53961 0.0
H1181 H 0.74658 0.85377 0.54421 0.0
H1182 H 0.73136 0.85944 0.44112 0.0
H1183 H 0.78137 0.86274 0.44572 0.0
H1184 H 0.68088 0.8885 0.45083 0.0
H1185 H 0.64778 0.88412 0.47073 0.0
C1186 C 0.35271 0.50198 0.71316 0.0
C1187 C 0.31607 0.52137 0.71278 0.0
C1188 C 0.28772 0.46808 0.73258 0.0
C1189 C 0.32579 0.45333 0.73637 0.0
N1190 N 0.3959 0.46141 0.7329 0.0
N1191 N 0.24965 0.52587 0.72549 0.0
C1192 C 0.35877 0.47141 0.72726 0.0
C1193 C 0.28359 0.50517 0.72324 0.0
N1194 N 0.38153 0.51233 0.69988 0.0
N1195 N 0.25547 0.44637 0.73739 0.0
H1196 H 0.24555 0.55406 0.71988 0.0
H1197 H 0.22689 0.51654 0.73481 0.0
H1198 H 0.25725 0.41813 0.74334 0.0
H1199 H 0.22723 0.4546 0.73326 0.0
H1200 H 0.40759 0.4967 0.69845 0.0
H1201 H 0.37751 0.53356 0.68872 0.0
H1202 H 0.42052 0.47667 0.72799 0.0
H1203 H 0.40208 0.441 0.74416 0.0
C1204 C 0.7205 0.09231 0.00172 0.0
C1205 C 0.75858 0.09206 -0.00676 0.0
C1206 C 0.73114 0.09684 0.95916 0.0
C1207 C 0.69309 0.09407 0.96753 0.0
N1208 N 0.65154 0.08052 -0.00374 0.0
N1209 N 0.80022 0.08487 0.96394 0.0
C1210 C 0.68771 0.08931 0.98868 0.0
C1211 C 0.76396 0.09164 0.97195 0.0
N1212 N 0.71553 0.09711 0.02211 0.0
N1213 N 0.73604 0.1061 0.93918 0.0
H1214 H 0.82492 0.0799 0.97281 0.0
H1215 H 0.80509 0.08023 0.94855 0.0
H1216 H 0.71273 0.11082 0.92932 0.0
H1217 H 0.76313 0.11271 0.93283 0.0
H1218 H 0.68837 0.10187 0.02881 0.0
H1219 H 0.73881 0.09981 0.03219 0.0
H1220 H 0.64674 0.07263 0.01128 0.0
H1221 H 0.62683 0.07739 0.98717 0.0
C1222 C 0.13567 0.53736 0.21091 0.0
C1223 C 0.13217 0.54462 0.23198 0.0
C1224 C 0.14122 0.47482 0.23888 0.0
C1225 C 0.13981 0.46706 0.21779 0.0
N1226 N 0.12762 0.49038 0.18385 0.0
N1227 N 0.1232 0.5192 0.26581 0.0
C1228 C 0.13482 0.49817 0.20379 0.0
C1229 C 0.13261 0.51306 0.24595 0.0
N1230 N 0.14145 0.56768 0.19774 0.0
N1231 N 0.15237 0.44618 0.25212 0.0
H1232 H 0.11528 0.54653 0.27155 0.0
H1233 H 0.11925 0.49647 0.27613 0.0
H1234 H 0.16036 0.41806 0.24754 0.0
H1235 H 0.15769 0.45151 0.2674 0.0
H1236 H 0.1482 0.56355 0.18251 0.0
H1237 H 0.14352 0.59681 0.20237 0.0
H1238 H 0.11978 0.51195 0.17346 0.0
H1239 H 0.12551 0.46206 0.17805 0.0
C1240 C 0.27034 0.08416 0.51189 0.0
C1241 C 0.23339 0.08345 0.50219 0.0
C1242 C 0.26418 0.09834 0.46966 0.0
C1243 C 0.30133 0.0958 0.47905 0.0
N1244 N 0.34046 0.07819 0.50806 0.0
N1245 N 0.19556 0.08154 0.47137 0.0
C1246 C 0.30467 0.08644 0.49989 0.0
C1247 C 0.23039 0.08819 0.48092 0.0
N1248 N 0.27263 0.08429 0.53255 0.0
N1249 N 0.26103 0.11185 0.45025 0.0
H1250 H 0.17025 0.07315 0.47904 0.0
H1251 H 0.19265 0.08057 0.45569 0.0
H1252 H 0.28513 0.12006 0.44156 0.0
H1253 H 0.23438 0.11833 0.44342 0.0
H1254 H 0.29857 0.08916 0.54039 0.0
H1255 H 0.24813 0.08303 0.54192 0.0
H1256 H 0.34411 0.06709 0.52261 0.0
H1257 H 0.36634 0.07885 0.4997 0.0
C1258 C 0.66657 0.46265 0.24402 0.0
C1259 C 0.6616 0.4652 0.26529 0.0
C1260 C 0.66038 0.53662 0.26328 0.0
C1261 C 0.6594 0.53376 0.24188 0.0
N1262 N 0.65844 0.49444 0.21153 0.0
N1263 N 0.64989 0.50391 0.29529 0.0
C1264 C 0.66208 0.49691 0.23209 0.0
C1265 C 0.65787 0.50201 0.27503 0.0
N1266 N 0.67647 0.42766 0.23533 0.0
N1267 N 0.6646 0.5724 0.27232 0.0
H1268 H 0.64773 0.47922 0.3045 0.0
H1269 H 0.64232 0.52974 0.3027 0.0
H1270 H 0.66691 0.59841 0.26412 0.0
H1271 H 0.66956 0.576 0.28776 0.0
H1272 H 0.68433 0.42472 0.22018 0.0
H1273 H 0.68041 0.40205 0.2437 0.0
H1274 H 0.65559 0.46804 0.20377 0.0
H1275 H 0.65537 0.51893 0.20224 0.0
C1276 C 0.24995 0.88915 0.97064 0.0
C1277 C 0.21944 0.89524 0.98485 0.0
C1278 C 0.26611 0.89092 0.01277 0.0
C1279 C 0.29698 0.88828 -0.00149 0.0
N1280 N 0.31944 0.89278 0.96393 0.0
N1281 N 0.19915 0.91033 0.01899 0.0
C1282 C 0.28928 0.88959 0.97743 0.0
C1283 C 0.22768 0.89851 0.00582 0.0
N1284 N 0.24137 0.88134 0.95084 0.0
N1285 N 0.2732 0.88469 0.03288 0.0
H1286 H 0.17076 0.91711 0.01442 0.0
H1287 H 0.20458 0.91717 0.03409 0.0
H1288 H 0.30092 0.87836 0.03858 0.0
H1289 H 0.2511 0.8821 0.04365 0.0
H1290 H 0.26227 0.87242 0.94032 0.0
H1291 H 0.21289 0.88032 0.94527 0.0
H1292 H 0.31532 0.89816 0.94857 0.0
H1293 H 0.34872 0.8937 0.9683 0.0
C1294 C 0.87682 0.46304 0.74004 0.0
C1295 C 0.8427 0.44256 0.73397 0.0
C1296 C 0.80178 0.49695 0.74545 0.0
C1297 C 0.83562 0.51629 0.75283 0.0
N1298 N 0.90411 0.51366 0.76147 0.0
N1299 N 0.77262 0.43522 0.7358 0.0
C1300 C 0.87283 0.4981 0.75144 0.0
C1301 C 0.80512 0.45804 0.73821 0.0
N1302 N 0.91293 0.45027 0.73408 0.0
N1303 N 0.76687 0.51634 0.74422 0.0
H1304 H 0.77398 0.4061 0.73104 0.0
H1305 H 0.74486 0.4438 0.74057 0.0
H1306 H 0.76319 0.54544 0.7486 0.0
H1307 H 0.74245 0.5048 0.73693 0.0
H1308 H 0.93836 0.46654 0.73617 0.0
H1309 H 0.91724 0.42506 0.72546 0.0
H1310 H 0.93099 0.49948 0.76264 0.0
H1311 H 0.9021 0.53885 0.77035 0.0
C1312 C 0.09069 0.33118 0.09477 0.0
C1313 C 0.09865 0.36973 0.08796 0.0
C1314 C 0.14115 0.38125 0.11707 0.0
C1315 C 0.13076 0.3438 0.12466 0.0
N1316 N 0.08938 0.2864 0.12302 0.0
N1317 N 0.12688 0.43354 0.09333 0.0
C1318 C 0.10392 0.31954 0.11412 0.0
C1319 C 0.12241 0.39551 0.09938 0.0
N1320 N 0.07067 0.30552 0.0827 0.0
N1321 N 0.1701 0.40235 0.12628 0.0
H1322 H 0.11477 0.44446 0.07999 0.0
H1323 H 0.14026 0.45493 0.10216 0.0
H1324 H 0.18496 0.39246 0.13907 0.0
H1325 H 0.18175 0.42804 0.12033 0.0
H1326 H 0.06833 0.27571 0.0858 0.0
H1327 H 0.05868 0.31322 0.06877 0.0
H1328 H 0.06611 0.27042 0.11711 0.0
H1329 H 0.09786 0.27662 0.13728 0.0
C1330 C 0.86273 0.89768 0.38494 0.0
C1331 C 0.89723 0.87881 0.39175 0.0
C1332 C 0.9006 0.8406 0.3605 0.0
C1333 C 0.86394 0.85627 0.35474 0.0
N1334 N 0.80786 0.89688 0.36168 0.0
N1335 N 0.94598 0.82797 0.3877 0.0
C1336 C 0.84438 0.88421 0.36697 0.0
C1337 C 0.91555 0.84924 0.37995 0.0
N1338 N 0.84822 0.92906 0.39541 0.0
N1339 N 0.92156 0.81819 0.34717 0.0
H1340 H 0.95806 0.83306 0.40193 0.0
H1341 H 0.95713 0.80292 0.38079 0.0
H1342 H 0.91149 0.81108 0.33273 0.0
H1343 H 0.95036 0.80956 0.34968 0.0
H1344 H 0.8254 0.94654 0.39022 0.0
H1345 H 0.86118 0.9397 0.4086 0.0
H1346 H 0.79023 0.91392 0.37104 0.0
H1347 H 0.79394 0.88808 0.34839 0.0
C1348 C 0.2831 0.66359 0.60075 0.0
C1349 C 0.27723 0.63859 0.61748 0.0
C1350 C 0.30178 0.58307 0.59791 0.0
C1351 C 0.31772 0.6102 0.58389 0.0
N1352 N 0.32238 0.67663 0.57116 0.0
N1353 N 0.26175 0.57328 0.62802 0.0
C1354 C 0.30716 0.65045 0.58469 0.0
C1355 C 0.28027 0.59761 0.61472 0.0
N1356 N 0.26467 0.699 0.59996 0.0
N1357 N 0.30857 0.5439 0.59543 0.0
H1358 H 0.24373 0.58431 0.63946 0.0
H1359 H 0.26124 0.54292 0.62684 0.0
H1360 H 0.32244 0.53261 0.58261 0.0
H1361 H 0.30103 0.5226 0.60597 0.0
H1362 H 0.26585 0.7174 0.5874 0.0
H1363 H 0.24371 0.70712 0.61064 0.0
H1364 H 0.31936 0.70684 0.57275 0.0
H1365 H 0.34033 0.66858 0.55912 0.0
C1366 C 0.65114 0.10623 0.82653 0.0
C1367 C 0.64697 0.14672 0.82227 0.0
C1368 C 0.62397 0.1585 0.85682 0.0
C1369 C 0.6219 0.11741 0.85981 0.0
N1370 N 0.63308 0.05159 0.84806 0.0
N1371 N 0.62584 0.21144 0.83267 0.0
C1372 C 0.63569 0.09105 0.84487 0.0
C1373 C 0.63326 0.17309 0.83735 0.0
N1374 N 0.67038 0.0826 0.8131 0.0
N1375 N 0.61606 0.18368 0.87242 0.0
H1376 H 0.63182 0.22397 0.81866 0.0
H1377 H 0.61059 0.23041 0.84218 0.0
H1378 H 0.6067 0.17461 0.88667 0.0
H1379 H 0.62177 0.21361 0.87177 0.0
H1380 H 0.67736 0.05346 0.81598 0.0
H1381 H 0.68262 0.09326 0.79971 0.0
H1382 H 0.63819 0.03072 0.83687 0.0
H1383 H 0.62395 0.03966 0.86182 0.0
C1384 C 0.07889 0.6685 0.3391 0.0
C1385 C 0.10852 0.65089 0.3271 0.0
C1386 C 0.11027 0.59424 0.34979 0.0
C1387 C 0.08325 0.61356 0.36262 0.0
N1388 N 0.04728 0.67182 0.37178 0.0
N1389 N 0.15651 0.59997 0.3221 0.0
C1390 C 0.06907 0.65148 0.35793 0.0
C1391 C 0.12531 0.61445 0.33269 0.0
N1392 N 0.05889 0.7005 0.33215 0.0
N1393 N 0.12086 0.55641 0.35378 0.0
H1394 H 0.16854 0.61426 0.30962 0.0
H1395 H 0.17254 0.57557 0.32661 0.0
H1396 H 0.11071 0.5411 0.36641 0.0
H1397 H 0.13722 0.53924 0.34389 0.0
H1398 H 0.03392 0.71152 0.33917 0.0
H1399 H 0.06479 0.71399 0.31834 0.0
H1400 H 0.03993 0.70125 0.37012 0.0
H1401 H 0.03944 0.6604 0.38584 0.0
C1402 C 0.61898 0.87729 0.6273 0.0
C1403 C 0.61082 0.83765 0.63217 0.0
C1404 C 0.58273 0.82709 0.59864 0.0
C1405 C 0.58735 0.8676 0.59447 0.0
N1406 N 0.60614 0.93243 0.60506 0.0
N1407 N 0.57731 0.77712 0.62427 0.0
C1408 C 0.60434 0.89314 0.6089 0.0
C1409 C 0.59091 0.81302 0.61829 0.0
N1410 N 0.64172 0.89927 0.63996 0.0
N1411 N 0.57029 0.80189 0.58387 0.0
H1412 H 0.58153 0.7656 0.6387 0.0
H1413 H 0.55832 0.76022 0.6156 0.0
H1414 H 0.5616 0.81084 0.5695 0.0
H1415 H 0.57129 0.77154 0.58537 0.0
H1416 H 0.65185 0.92718 0.63641 0.0
H1417 H 0.65329 0.8883 0.65341 0.0
H1418 H 0.61418 0.95318 0.61584 0.0
H1419 H 0.59722 0.94466 0.59136 0.0
C1420 C 0.32099 0.40146 0.86192 0.0
C1421 C 0.34913 0.40034 0.84607 0.0
C1422 C 0.39235 0.44203 0.86596 0.0
C1423 C 0.3703 0.43235 0.8833 0.0
N1424 N 0.30567 0.42222 0.89636 0.0
N1425 N 0.41181 0.42124 0.8326 0.0
C1426 C 0.33171 0.41826 0.88082 0.0
C1427 C 0.38441 0.42212 0.84767 0.0
N1428 N 0.28478 0.38559 0.85887 0.0
N1429 N 0.41994 0.47079 0.86694 0.0
H1430 H 0.40806 0.40635 0.819 0.0
H1431 H 0.43972 0.43298 0.8343 0.0
H1432 H 0.42342 0.488 0.87988 0.0
H1433 H 0.43509 0.48097 0.85431 0.0
H1434 H 0.26362 0.38254 0.87006 0.0
H1435 H 0.27568 0.3755 0.84473 0.0
H1436 H 0.27675 0.41289 0.89594 0.0
H1437 H 0.31264 0.43813 0.90937 0.0
C1438 C 0.80929 0.15263 0.12464 0.0
C1439 C 0.83152 0.13785 0.14109 0.0
C1440 C 0.85548 0.08592 0.11888 0.0
C1441 C 0.84299 0.10746 0.10181 0.0
N1442 N 0.80899 0.16467 0.08873 0.0
N1443 N 0.88207 0.09228 0.15228 0.0
C1444 C 0.81945 0.1414 0.10464 0.0
C1445 C 0.85581 0.10443 0.13801 0.0
N1446 N 0.77839 0.17708 0.1281 0.0
N1447 N 0.86833 0.0483 0.11666 0.0
H1448 H 0.88758 0.10703 0.16574 0.0
H1449 H 0.90228 0.07002 0.14954 0.0
H1450 H 0.86769 0.03393 0.10271 0.0
H1451 H 0.87516 0.03043 0.12896 0.0
H1452 H 0.7595 0.18617 0.11664 0.0
H1453 H 0.76895 0.18425 0.14265 0.0
H1454 H 0.79579 0.19194 0.0907 0.0
H1455 H 0.81592 0.1587 0.07373 0.0
C1456 C 0.88201 0.64809 0.85033 0.0
C1457 C 0.84264 0.63643 0.84737 0.0
C1458 C 0.84301 0.60212 0.87978 0.0
C1459 C 0.88085 0.61756 0.88367 0.0
N1460 N 0.93247 0.6627 0.87467 0.0
N1461 N 0.78361 0.60656 0.85985 0.0
C1462 C 0.89941 0.64252 0.86948 0.0
C1463 C 0.82241 0.61478 0.86231 0.0
N1464 N 0.90303 0.66406 0.83477 0.0
N1465 N 0.82757 0.57414 0.89223 0.0
H1466 H 0.76811 0.61431 0.84686 0.0
H1467 H 0.76622 0.59458 0.87121 0.0
H1468 H 0.84228 0.56324 0.90485 0.0
H1469 H 0.80182 0.55911 0.88906 0.0
H1470 H 0.93304 0.6691 0.83554 0.0
H1471 H 0.89135 0.66912 0.82046 0.0
H1472 H 0.94467 0.68448 0.86561 0.0
H1473 H 0.94546 0.66083 0.8889 0.0
C1474 C 0.17919 0.07995 0.61134 0.0
C1475 C 0.14529 0.05662 0.60837 0.0
C1476 C 0.12219 0.07131 0.6422 0.0
C1477 C 0.15366 0.09803 0.64482 0.0
N1478 N 0.21903 0.11699 0.63508 0.0
N1479 N 0.10154 0.01223 0.62523 0.0
C1480 C 0.18447 0.09913 0.63033 0.0
C1481 C 0.1228 0.04601 0.62539 0.0
N1482 N 0.20631 0.08323 0.59628 0.0
N1483 N 0.09001 0.0721 0.65448 0.0
H1484 H 0.10341 -0.00761 0.61323 0.0
H1485 H 0.08642 0.00209 0.6379 0.0
H1486 H 0.0855 0.093 0.66572 0.0
H1487 H 0.06542 0.05484 0.65176 0.0
H1488 H 0.22835 0.10424 0.59615 0.0
H1489 H 0.20729 0.06378 0.58412 0.0
H1490 H 0.24363 0.11646 0.62581 0.0
H1491 H 0.22437 0.12937 0.64924 0.0
C1492 C 0.61102 0.43891 0.39015 0.0
C1493 C 0.63274 0.42759 0.40733 0.0
C1494 C 0.67601 0.38906 0.38544 0.0
C1495 C 0.64683 0.39079 0.37014 0.0
N1496 N 0.58511 0.41723 0.35823 0.0
N1497 N 0.69484 0.4055 0.41998 0.0
C1498 C 0.61432 0.41635 0.37232 0.0
C1499 C 0.6684 0.407 0.40453 0.0
N1500 N 0.58817 0.47164 0.39075 0.0
N1501 N 0.71091 0.37105 0.38145 0.0
H1502 H 0.69235 0.42359 0.43265 0.0
H1503 H 0.71956 0.38777 0.42011 0.0
H1504 H 0.71767 0.35929 0.36729 0.0
H1505 H 0.73417 0.36967 0.39152 0.0
H1506 H 0.5737 0.48259 0.37808 0.0
H1507 H 0.58844 0.49059 0.40315 0.0
H1508 H 0.55916 0.43268 0.36043 0.0
H1509 H 0.58487 0.39978 0.3453 0.0
C1510 C 0.39788 0.91586 0.10356 0.0
C1511 C 0.41548 0.88712 0.09104 0.0
C1512 C 0.4066 0.83761 0.11722 0.0
C1513 C 0.38432 0.86475 0.12864 0.0
N1514 N 0.35601 0.929 0.13251 0.0
N1515 N 0.43131 0.81924 0.0844 0.0
C1516 C 0.37943 0.9039 0.12188 0.0
C1517 C 0.4183 0.84757 0.09741 0.0
N1518 N 0.39895 0.95435 0.09794 0.0
N1519 N 0.41818 0.80295 0.12568 0.0
H1520 H 0.44076 0.82513 0.06973 0.0
H1521 H 0.42962 0.78938 0.08756 0.0
H1522 H 0.4116 0.79531 0.14056 0.0
H1523 H 0.43788 0.78385 0.11879 0.0
H1524 H 0.39002 0.97723 0.10728 0.0
H1525 H 0.41146 0.96363 0.08436 0.0
H1526 H 0.34807 0.95668 0.12736 0.0
H1527 H 0.34217 0.92108 0.14598 0.0
C1528 C 0.93582 0.36606 0.63057 0.0
C1529 C 0.89516 0.37351 0.63192 0.0
C1530 C 0.89713 0.40899 0.5999 0.0
C1531 C 0.93535 0.39424 0.5966 0.0
N1532 N -0.00883 0.35704 0.60832 0.0
N1533 N 0.83671 0.40357 0.61898 0.0
C1534 C 0.95524 0.37319 0.612 0.0
C1535 C 0.87577 0.39599 0.61703 0.0
N1536 N 0.95556 0.35124 0.64684 0.0
N1537 N 0.88155 0.43528 0.58657 0.0
H1538 H 0.82092 0.39608 0.63194 0.0
H1539 H 0.8197 0.41577 0.60755 0.0
H1540 H 0.89712 0.44556 0.57406 0.0
H1541 H 0.85498 0.44951 0.58883 0.0
H1542 H 0.98589 0.34873 0.64735 0.0
H1543 H 0.94203 0.3448 0.66058 0.0
H1544 H 0.00448 0.33695 0.61797 0.0
H1545 H 0.00676 0.36133 0.59497 0.0
C1546 C 0.36119 0.18114 0.35193 0.0
C1547 C 0.34893 0.15277 0.33748 0.0
C1548 C 0.36742 0.09967 0.36041 0.0
C1549 C 0.37939 0.12803 0.37478 0.0
N1550 N 0.37962 0.1951 0.3865 0.0
N1551 N 0.33143 0.08622 0.32955 0.0
C1552 C 0.37316 0.16852 0.37136 0.0
C1553 C 0.34922 0.1123 0.34225 0.0
N1554 N 0.36472 0.21976 0.34666 0.0
N1555 N 0.37423 0.06083 0.36398 0.0
H1556 H 0.31715 0.09491 0.31634 0.0
H1557 H 0.32763 0.05669 0.33293 0.0
H1558 H 0.38553 0.0505 0.37763 0.0
H1559 H 0.37052 0.03904 0.35312 0.0
H1560 H 0.37857 0.24053 0.35569 0.0
H1561 H 0.35729 0.23099 0.33255 0.0
H1562 H 0.37081 0.22426 0.38566 0.0
H1563 H 0.39099 0.18767 0.40061 0.0
C1564 C 0.65718 0.59271 0.12925 0.0
C1565 C 0.63976 0.62687 0.13746 0.0
C1566 C 0.58942 0.62623 0.1112 0.0
C1567 C 0.60825 0.59353 0.10219 0.0
N1568 N 0.66195 0.54789 0.10077 0.0
N1569 N 0.59285 0.67974 0.13507 0.0
C1570 C 0.64282 0.57744 0.11064 0.0
C1571 C 0.60697 0.64471 0.12806 0.0
N1572 N 0.68691 0.57466 0.13944 0.0
N1573 N 0.55429 0.63927 0.1039 0.0
H1574 H 0.60283 0.69336 0.1482 0.0
H1575 H 0.57273 0.69682 0.12722 0.0
H1576 H 0.54116 0.62835 0.09084 0.0
H1577 H 0.53659 0.65929 0.11148 0.0
H1578 H 0.69822 0.54739 0.13548 0.0
H1579 H 0.69895 0.58607 0.15269 0.0
H1580 H 0.68944 0.5376 0.10492 0.0
H1581 H 0.65121 0.53497 0.08759 0.0
C1582 C 0.06955 0.83585 0.86751 0.0
C1583 C 0.10655 0.84256 0.8585 0.0
C1584 C 0.12184 0.89212 0.88412 0.0
C1585 C 0.08615 0.88315 0.894 0.0
N1586 N 0.02851 0.84238 0.89707 0.0
N1587 N 0.1698 0.87349 0.85872 0.0
C1588 C 0.06052 0.85408 0.88618 0.0
C1589 C 0.13325 0.86982 0.86691 0.0
N1590 N 0.04262 0.81274 0.85793 0.0
N1591 N 0.14409 0.9227 0.89088 0.0
H1592 H 0.1788 0.85779 0.84599 0.0
H1593 H 0.19212 0.88984 0.86527 0.0
H1594 H 0.13632 0.93959 0.90342 0.0
H1595 H 0.16853 0.93334 0.88328 0.0
H1596 H 0.0134 0.81098 0.86226 0.0
H1597 H 0.04862 0.79731 0.84466 0.0
H1598 H 0.01162 0.81807 0.89334 0.0
H1599 H 0.02056 0.85445 0.91095 0.0
loop_
_geom_bond_atom_site_label_1
_geom_bond_atom_site_label_2
_geom_bond_distance
_geom_bond_site_symmetry_2
_ccdc_geom_bond_type
C0 O1 1.306 . S
C0 O3 1.160 . S
O1 C0 1.306 . S
O1 Cd2 2.228 . S
Cd2 O1 2.228 . S
Cd2 O6 2.273 . S
Cd2 O10 2.277 . S
O3 C0 1.160 . S
O3 Cd4 2.203 . S
Cd4 O3 2.203 . S
Cd4 O6 2.411 . S
Cd4 O7 2.333 . S
Cd4 O8 2.352 . S
Cd4 O12 2.277 . S
Cd4 O13 2.356 . S
C5 O10 1.209 . S
C5 O12 1.226 . S
O6 Cd2 2.273 . S
O6 Cd4 2.411 . S
O6 C9 1.320 . S
O7 Cd4 2.333 . S
O7 C9 1.214 . S
O8 Cd4 2.352 . S
O8 C11 1.258 . S
C9 O6 1.320 . S
C9 O7 1.214 . S
O10 Cd2 2.277 . S
O10 C5 1.209 . S
C11 O8 1.258 . S
C11 O13 1.282 . S
O12 Cd4 2.277 . S
O12 C5 1.226 . S
O13 Cd4 2.356 . S
O13 C11 1.282 . S
C14 O15 1.306 . S
C14 O17 1.160 . S
O15 C14 1.306 . S
O15 Cd16 2.228 . S
Cd16 O15 2.228 . S
Cd16 O20 2.273 . S
Cd16 O24 2.277 . S
O17 C14 1.160 . S
O17 Cd18 2.203 . S
Cd18 O17 2.203 . S
Cd18 O20 2.411 . S
Cd18 O21 2.333 . S
Cd18 O22 2.352 . S
Cd18 O26 2.277 . S
Cd18 O27 2.356 . S
C19 O24 1.209 . S
C19 O26 1.226 . S
O20 Cd16 2.273 . S
O20 Cd18 2.411 . S
O20 C23 1.320 . S
O21 Cd18 2.333 . S
O21 C23 1.214 . S
O22 Cd18 2.352 . S
O22 C25 1.258 . S
C23 O20 1.320 . S
C23 O21 1.214 . S
O24 Cd16 2.277 . S
O24 C19 1.209 . S
C25 O22 1.258 . S
C25 O27 1.282 . S
O26 Cd18 2.277 . S
O26 C19 1.226 . S
O27 Cd18 2.356 . S
O27 C25 1.282 . S
C28 O29 1.306 . S
C28 O31 1.160 . S
O29 C28 1.306 . S
O29 Cd30 2.228 . S
Cd30 O29 2.228 . S
Cd30 O34 2.273 . S
Cd30 O38 2.277 . S
O31 C28 1.160 . S
O31 Cd32 2.203 . S
Cd32 O31 2.203 . S
Cd32 O34 2.411 . S
Cd32 O35 2.333 . S
Cd32 O36 2.352 . S
Cd32 O40 2.277 . S
Cd32 O41 2.356 . S
C33 O38 1.209 . S
C33 O40 1.226 . S
O34 Cd30 2.273 . S
O34 Cd32 2.411 . S
O34 C37 1.320 . S
O35 Cd32 2.333 . S
O35 C37 1.214 . S
O36 Cd32 2.352 . S
O36 C39 1.258 . S
C37 O34 1.320 . S
C37 O35 1.214 . S
O38 Cd30 2.277 . S
O38 C33 1.209 . S
C39 O36 1.258 . S
C39 O41 1.282 . S
O40 Cd32 2.277 . S
O40 C33 1.226 . S
O41 Cd32 2.356 . S
O41 C39 1.282 . S
C42 O43 1.306 . S
C42 O45 1.160 . S
O43 C42 1.306 . S
O43 Cd44 2.228 . S
Cd44 O43 2.228 . S
Cd44 O48 2.273 . S
Cd44 O52 2.277 . S
O45 C42 1.160 . S
O45 Cd46 2.203 . S
Cd46 O45 2.203 . S
Cd46 O48 2.411 . S
Cd46 O49 2.333 . S
Cd46 O50 2.352 . S
Cd46 O54 2.277 . S
Cd46 O55 2.356 . S
C47 O52 1.209 . S
C47 O54 1.226 . S
O48 Cd44 2.273 . S
O48 Cd46 2.411 . S
O48 C51 1.320 . S
O49 Cd46 2.333 . S
O49 C51 1.214 . S
O50 Cd46 2.352 . S
O50 C53 1.258 . S
C51 O48 1.320 . S
C51 O49 1.214 . S
O52 Cd44 2.277 . S
O52 C47 1.209 . S
C53 O50 1.258 . S
C53 O55 1.282 . S
O54 Cd46 2.277 . S
O54 C47 1.226 . S
O55 Cd46 2.356 . S
O55 C53 1.282 . S
C56 O57 1.306 . S
C56 O59 1.160 . S
O57 C56 1.306 . S
O57 Cd58 2.228 . S
Cd58 O57 2.228 . S
Cd58 O62 2.273 . S
Cd58 O66 2.277 . S
O59 C56 1.160 . S
O59 Cd60 2.203 . S
Cd60 O59 2.203 . S
Cd60 O62 2.411 . S
Cd60 O63 2.333 . S
Cd60 O64 2.352 . S
Cd60 O68 2.277 . S
Cd60 O69 2.356 . S
C61 O66 1.209 . S
C61 O68 1.226 . S
O62 Cd58 2.273 . S
O62 Cd60 2.411 . S
O62 C65 1.320 . S
O63 Cd60 2.333 . S
O63 C65 1.214 . S
O64 Cd60 2.352 . S
O64 C67 1.258 . S
C65 O62 1.320 . S
C65 O63 1.214 . S
O66 Cd58 2.277 . S
O66 C61 1.209 . S
C67 O64 1.258 . S
C67 O69 1.282 . S
O68 Cd60 2.277 . S
O68 C61 1.226 . S
O69 Cd60 2.356 . S
O69 C67 1.282 . S
C70 O71 1.306 . S
C70 O73 1.160 . S
O71 C70 1.306 . S
O71 Cd72 2.228 . S
Cd72 O71 2.228 . S
Cd72 O76 2.273 . S
Cd72 O80 2.277 . S
O73 C70 1.160 . S
O73 Cd74 2.203 . S
Cd74 O73 2.203 . S
Cd74 O76 2.411 . S
Cd74 O77 2.333 . S
Cd74 O78 2.352 . S
Cd74 O82 2.277 . S
Cd74 O83 2.356 . S
C75 O80 1.209 . S
C75 O82 1.226 . S
O76 Cd72 2.273 . S
O76 Cd74 2.411 . S
O76 C79 1.320 . S
O77 Cd74 2.333 . S
O77 C79 1.214 . S
O78 Cd74 2.352 . S
O78 C81 1.258 . S
C79 O76 1.320 . S
C79 O77 1.214 . S
O80 Cd72 2.277 . S
O80 C75 1.209 . S
C81 O78 1.258 . S
C81 O83 1.282 . S
O82 Cd74 2.277 . S
O82 C75 1.226 . S
O83 Cd74 2.356 . S
O83 C81 1.282 . S
C84 O85 1.306 . S
C84 O87 1.160 . S
O85 C84 1.306 . S
O85 Cd86 2.228 . S
Cd86 O85 2.228 . S
Cd86 O90 2.273 . S
Cd86 O94 2.277 . S
O87 C84 1.160 . S
O87 Cd88 2.203 . S
Cd88 O87 2.203 . S
Cd88 O90 2.411 . S
Cd88 O91 2.333 . S
Cd88 O92 2.352 . S
Cd88 O96 2.277 . S
Cd88 O97 2.356 . S
C89 O94 1.209 . S
C89 O96 1.226 . S
O90 Cd86 2.273 . S
O90 Cd88 2.411 . S
O90 C93 1.320 . S
O91 Cd88 2.333 . S
O91 C93 1.214 . S
O92 Cd88 2.352 . S
O92 C95 1.258 . S
C93 O90 1.320 . S
C93 O91 1.214 . S
O94 Cd86 2.277 . S
O94 C89 1.209 . S
C95 O92 1.258 . S
C95 O97 1.282 . S
O96 Cd88 2.277 . S
O96 C89 1.226 . S
O97 Cd88 2.356 . S
O97 C95 1.282 . S
C98 O99 1.306 . S
C98 O101 1.160 . S
O99 C98 1.306 . S
O99 Cd100 2.228 . S
Cd100 O99 2.228 . S
Cd100 O104 2.273 . S
Cd100 O108 2.277 . S
O101 C98 1.160 . S
O101 Cd102 2.203 . S
Cd102 O101 2.203 . S
Cd102 O104 2.411 . S
Cd102 O105 2.333 . S
Cd102 O106 2.352 . S
Cd102 O110 2.277 . S
Cd102 O111 2.356 . S
C103 O108 1.209 . S
C103 O110 1.226 . S
O104 Cd100 2.273 . S
O104 Cd102 2.411 . S
O104 C107 1.320 . S
O105 Cd102 2.333 . S
O105 C107 1.214 . S
O106 Cd102 2.352 . S
O106 C109 1.258 . S
C107 O104 1.320 . S
C107 O105 1.214 . S
O108 Cd100 2.277 . S
O108 C103 1.209 . S
C109 O106 1.258 . S
C109 O111 1.282 . S
O110 Cd102 2.277 . S
O110 C103 1.226 . S
O111 Cd102 2.356 . S
O111 C109 1.282 . S
C112 O113 1.306 . S
C112 O115 1.160 . S
O113 C112 1.306 . S
O113 Cd114 2.228 . S
Cd114 O113 2.228 . S
Cd114 O118 2.273 . S
Cd114 O122 2.277 . S
O115 C112 1.160 . S
O115 Cd116 2.203 . S
Cd116 O115 2.203 . S
Cd116 O118 2.411 . S
Cd116 O119 2.333 . S
Cd116 O120 2.352 . S
Cd116 O124 2.277 . S
Cd116 O125 2.356 . S
C117 O122 1.209 . S
C117 O124 1.226 . S
O118 Cd114 2.273 . S
O118 Cd116 2.411 . S
O118 C121 1.320 . S
O119 Cd116 2.333 . S
O119 C121 1.214 . S
O120 Cd116 2.352 . S
O120 C123 1.258 . S
C121 O118 1.320 . S
C121 O119 1.214 . S
O122 Cd114 2.277 . S
O122 C117 1.209 . S
C123 O120 1.258 . S
C123 O125 1.282 . S
O124 Cd116 2.277 . S
O124 C117 1.226 . S
O125 Cd116 2.356 . S
O125 C123 1.282 . S
C126 O127 1.306 . S
C126 O129 1.160 . S
O127 C126 1.306 . S
O127 Cd128 2.228 . S
Cd128 O127 2.228 . S
Cd128 O132 2.273 . S
Cd128 O136 2.277 . S
O129 C126 1.160 . S
O129 Cd130 2.203 . S
Cd130 O129 2.203 . S
Cd130 O132 2.411 . S
Cd130 O133 2.333 . S
Cd130 O134 2.352 . S
Cd130 O138 2.277 . S
Cd130 O139 2.356 . S
C131 O136 1.209 . S
C131 O138 1.226 . S
O132 Cd128 2.273 . S
O132 Cd130 2.411 . S
O132 C135 1.320 . S
O133 Cd130 2.333 . S
O133 C135 1.214 . S
O134 Cd130 2.352 . S
O134 C137 1.258 . S
C135 O132 1.320 . S
C135 O133 1.214 . S
O136 Cd128 2.277 . S
O136 C131 1.209 . S
C137 O134 1.258 . S
C137 O139 1.282 . S
O138 Cd130 2.277 . S
O138 C131 1.226 . S
O139 Cd130 2.356 . S
O139 C137 1.282 . S
C140 O141 1.306 . S
C140 O143 1.160 . S
O141 C140 1.306 . S
O141 Cd142 2.228 . S
Cd142 O141 2.228 . S
Cd142 O146 2.273 . S
Cd142 O150 2.277 . S
O143 C140 1.160 . S
O143 Cd144 2.203 . S
Cd144 O143 2.203 . S
Cd144 O146 2.411 . S
Cd144 O147 2.333 . S
Cd144 O148 2.352 . S
Cd144 O152 2.277 . S
Cd144 O153 2.356 . S
C145 O150 1.209 . S
C145 O152 1.226 . S
O146 Cd142 2.273 . S
O146 Cd144 2.411 . S
O146 C149 1.320 . S
O147 Cd144 2.333 . S
O147 C149 1.214 . S
O148 Cd144 2.352 . S
O148 C151 1.258 . S
C149 O146 1.320 . S
C149 O147 1.214 . S
O150 Cd142 2.277 . S
O150 C145 1.209 . S
C151 O148 1.258 . S
C151 O153 1.282 . S
O152 Cd144 2.277 . S
O152 C145 1.226 . S
O153 Cd144 2.356 . S
O153 C151 1.282 . S
C154 O155 1.306 . S
C154 O157 1.160 . S
O155 C154 1.306 . S
O155 Cd156 2.228 . S
Cd156 O155 2.228 . S
Cd156 O160 2.273 . S
Cd156 O164 2.277 . S
O157 C154 1.160 . S
O157 Cd158 2.203 . S
Cd158 O157 2.203 . S
Cd158 O160 2.411 . S
Cd158 O161 2.333 . S
Cd158 O162 2.352 . S
Cd158 O166 2.277 . S
Cd158 O167 2.356 . S
C159 O164 1.209 . S
C159 O166 1.226 . S
O160 Cd156 2.273 . S
O160 Cd158 2.411 . S
O160 C163 1.320 . S
O161 Cd158 2.333 . S
O161 C163 1.214 . S
O162 Cd158 2.352 . S
O162 C165 1.258 . S
C163 O160 1.320 . S
C163 O161 1.214 . S
O164 Cd156 2.277 . S
O164 C159 1.209 . S
C165 O162 1.258 . S
C165 O167 1.282 . S
O166 Cd158 2.277 . S
O166 C159 1.226 . S
O167 Cd158 2.356 . S
O167 C165 1.282 . S
C168 O169 1.306 . S
C168 O171 1.160 . S
O169 C168 1.306 . S
O169 Cd170 2.228 . S
Cd170 O169 2.228 . S
Cd170 O174 2.273 . S
Cd170 O178 2.277 . S
O171 C168 1.160 . S
O171 Cd172 2.203 . S
Cd172 O171 2.203 . S
Cd172 O174 2.411 . S
Cd172 O175 2.333 . S
Cd172 O176 2.352 . S
Cd172 O180 2.277 . S
Cd172 O181 2.356 . S
C173 O178 1.209 . S
C173 O180 1.226 . S
O174 Cd170 2.273 . S
O174 Cd172 2.411 . S
O174 C177 1.320 . S
O175 Cd172 2.333 . S
O175 C177 1.214 . S
O176 Cd172 2.352 . S
O176 C179 1.258 . S
C177 O174 1.320 . S
C177 O175 1.214 . S
O178 Cd170 2.277 . S
O178 C173 1.209 . S
C179 O176 1.258 . S
C179 O181 1.282 . S
O180 Cd172 2.277 . S
O180 C173 1.226 . S
O181 Cd172 2.356 . S
O181 C179 1.282 . S
C182 O183 1.306 . S
C182 O185 1.160 . S
O183 C182 1.306 . S
O183 Cd184 2.228 . S
Cd184 O183 2.228 . S
Cd184 O188 2.273 . S
Cd184 O192 2.277 . S
O185 C182 1.160 . S
O185 Cd186 2.203 . S
Cd186 O185 2.203 . S
Cd186 O188 2.411 . S
Cd186 O189 2.333 . S
Cd186 O190 2.352 . S
Cd186 O194 2.277 . S
Cd186 O195 2.356 . S
C187 O192 1.209 . S
C187 O194 1.226 . S
O188 Cd184 2.273 . S
O188 Cd186 2.411 . S
O188 C191 1.320 . S
O189 Cd186 2.333 . S
O189 C191 1.214 . S
O190 Cd186 2.352 . S
O190 C193 1.258 . S
C191 O188 1.320 . S
C191 O189 1.214 . S
O192 Cd184 2.277 . S
O192 C187 1.209 . S
C193 O190 1.258 . S
C193 O195 1.282 . S
O194 Cd186 2.277 . S
O194 C187 1.226 . S
O195 Cd186 2.356 . S
O195 C193 1.282 . S
C196 O197 1.306 . S
C196 O199 1.160 . S
O197 C196 1.306 . S
O197 Cd198 2.228 . S
Cd198 O197 2.228 . S
Cd198 O202 2.273 . S
Cd198 O206 2.277 . S
O199 C196 1.160 . S
O199 Cd200 2.203 . S
Cd200 O199 2.203 . S
Cd200 O202 2.411 . S
Cd200 O203 2.333 . S
Cd200 O204 2.352 . S
Cd200 O208 2.277 . S
Cd200 O209 2.356 . S
C201 O206 1.209 . S
C201 O208 1.226 . S
O202 Cd198 2.273 . S
O202 Cd200 2.411 . S
O202 C205 1.320 . S
O203 Cd200 2.333 . S
O203 C205 1.214 . S
O204 Cd200 2.352 . S
O204 C207 1.258 . S
C205 O202 1.320 . S
C205 O203 1.214 . S
O206 Cd198 2.277 . S
O206 C201 1.209 . S
C207 O204 1.258 . S
C207 O209 1.282 . S
O208 Cd200 2.277 . S
O208 C201 1.226 . S
O209 Cd200 2.356 . S
O209 C207 1.282 . S
C210 O211 1.306 . S
C210 O213 1.160 . S
O211 C210 1.306 . S
O211 Cd212 2.228 . S
Cd212 O211 2.228 . S
Cd212 O216 2.273 . S
Cd212 O220 2.277 . S
O213 C210 1.160 . S
O213 Cd214 2.203 . S
Cd214 O213 2.203 . S
Cd214 O216 2.411 . S
Cd214 O217 2.333 . S
Cd214 O218 2.352 . S
Cd214 O222 2.277 . S
Cd214 O223 2.356 . S
C215 O220 1.209 . S
C215 O222 1.226 . S
O216 Cd212 2.273 . S
O216 Cd214 2.411 . S
O216 C219 1.320 . S
O217 Cd214 2.333 . S
O217 C219 1.214 . S
O218 Cd214 2.352 . S
O218 C221 1.258 . S
C219 O216 1.320 . S
C219 O217 1.214 . S
O220 Cd212 2.277 . S
O220 C215 1.209 . S
C221 O218 1.258 . S
C221 O223 1.282 . S
O222 Cd214 2.277 . S
O222 C215 1.226 . S
O223 Cd214 2.356 . S
O223 C221 1.282 . S
C224 O225 1.306 . S
C224 O227 1.160 . S
O225 C224 1.306 . S
O225 Cd226 2.228 . S
Cd226 O225 2.228 . S
Cd226 O230 2.273 . S
Cd226 O234 2.277 . S
O227 C224 1.160 . S
O227 Cd228 2.203 . S
Cd228 O227 2.203 . S
Cd228 O230 2.411 . S
Cd228 O231 2.333 . S
Cd228 O232 2.352 . S
Cd228 O236 2.277 . S
Cd228 O237 2.356 . S
C229 O234 1.209 . S
C229 O236 1.226 . S
O230 Cd226 2.273 . S
O230 Cd228 2.411 . S
O230 C233 1.320 . S
O231 Cd228 2.333 . S
O231 C233 1.214 . S
O232 Cd228 2.352 . S
O232 C235 1.258 . S
C233 O230 1.320 . S
C233 O231 1.214 . S
O234 Cd226 2.277 . S
O234 C229 1.209 . S
C235 O232 1.258 . S
C235 O237 1.282 . S
O236 Cd228 2.277 . S
O236 C229 1.226 . S
O237 Cd228 2.356 . S
O237 C235 1.282 . S
C238 O239 1.306 . S
C238 O241 1.160 . S
O239 C238 1.306 . S
O239 Cd240 2.228 . S
Cd240 O239 2.228 . S
Cd240 O244 2.273 . S
Cd240 O248 2.277 . S
O241 C238 1.160 . S
O241 Cd242 2.203 . S
Cd242 O241 2.203 . S
Cd242 O244 2.411 . S
Cd242 O245 2.333 . S
Cd242 O246 2.352 . S
Cd242 O250 2.277 . S
Cd242 O251 2.356 . S
C243 O248 1.209 . S
C243 O250 1.226 . S
O244 Cd240 2.273 . S
O244 Cd242 2.411 . S
O244 C247 1.320 . S
O245 Cd242 2.333 . S
O245 C247 1.214 . S
O246 Cd242 2.352 . S
O246 C249 1.258 . S
C247 O244 1.320 . S
C247 O245 1.214 . S
O248 Cd240 2.277 . S
O248 C243 1.209 . S
C249 O246 1.258 . S
C249 O251 1.282 . S
O250 Cd242 2.277 . S
O250 C243 1.226 . S
O251 Cd242 2.356 . S
O251 C249 1.282 . S
C252 O253 1.306 . S
C252 O255 1.160 . S
O253 C252 1.306 . S
O253 Cd254 2.228 . S
Cd254 O253 2.228 . S
Cd254 O258 2.273 . S
Cd254 O262 2.277 . S
O255 C252 1.160 . S
O255 Cd256 2.203 . S
Cd256 O255 2.203 . S
Cd256 O258 2.411 . S
Cd256 O259 2.333 . S
Cd256 O260 2.352 . S
Cd256 O264 2.277 . S
Cd256 O265 2.356 . S
C257 O262 1.209 . S
C257 O264 1.226 . S
O258 Cd254 2.273 . S
O258 Cd256 2.411 . S
O258 C261 1.320 . S
O259 Cd256 2.333 . S
O259 C261 1.214 . S
O260 Cd256 2.352 . S
O260 C263 1.258 . S
C261 O258 1.320 . S
C261 O259 1.214 . S
O262 Cd254 2.277 . S
O262 C257 1.209 . S
C263 O260 1.258 . S
C263 O265 1.282 . S
O264 Cd256 2.277 . S
O264 C257 1.226 . S
O265 Cd256 2.356 . S
O265 C263 1.282 . S
C266 O267 1.306 . S
C266 O269 1.160 . S
O267 C266 1.306 . S
O267 Cd268 2.228 . S
Cd268 O267 2.228 . S
Cd268 O272 2.273 . S
Cd268 O276 2.277 . S
O269 C266 1.160 . S
O269 Cd270 2.203 . S
Cd270 O269 2.203 . S
Cd270 O272 2.411 . S
Cd270 O273 2.333 . S
Cd270 O274 2.352 . S
Cd270 O278 2.277 . S
Cd270 O279 2.356 . S
C271 O276 1.209 . S
C271 O278 1.226 . S
O272 Cd268 2.273 . S
O272 Cd270 2.411 . S
O272 C275 1.320 . S
O273 Cd270 2.333 . S
O273 C275 1.214 . S
O274 Cd270 2.352 . S
O274 C277 1.258 . S
C275 O272 1.320 . S
C275 O273 1.214 . S
O276 Cd268 2.277 . S
O276 C271 1.209 . S
C277 O274 1.258 . S
C277 O279 1.282 . S
O278 Cd270 2.277 . S
O278 C271 1.226 . S
O279 Cd270 2.356 . S
O279 C277 1.282 . S
C280 O281 1.306 . S
C280 O283 1.160 . S
O281 C280 1.306 . S
O281 Cd282 2.228 . S
Cd282 O281 2.228 . S
Cd282 O286 2.273 . S
Cd282 O290 2.277 . S
O283 C280 1.160 . S
O283 Cd284 2.203 . S
Cd284 O283 2.203 . S
Cd284 O286 2.411 . S
Cd284 O287 2.333 . S
Cd284 O288 2.352 . S
Cd284 O292 2.277 . S
Cd284 O293 2.356 . S
C285 O290 1.209 . S
C285 O292 1.226 . S
O286 Cd282 2.273 . S
O286 Cd284 2.411 . S
O286 C289 1.320 . S
O287 Cd284 2.333 . S
O287 C289 1.214 . S
O288 Cd284 2.352 . S
O288 C291 1.258 . S
C289 O286 1.320 . S
C289 O287 1.214 . S
O290 Cd282 2.277 . S
O290 C285 1.209 . S
C291 O288 1.258 . S
C291 O293 1.282 . S
O292 Cd284 2.277 . S
O292 C285 1.226 . S
O293 Cd284 2.356 . S
O293 C291 1.282 . S
C294 O295 1.306 . S
C294 O297 1.160 . S
O295 C294 1.306 . S
O295 Cd296 2.228 . S
Cd296 O295 2.228 . S
Cd296 O300 2.273 . S
Cd296 O304 2.277 . S
O297 C294 1.160 . S
O297 Cd298 2.203 . S
Cd298 O297 2.203 . S
Cd298 O300 2.411 . S
Cd298 O301 2.333 . S
Cd298 O302 2.352 . S
Cd298 O306 2.277 . S
Cd298 O307 2.356 . S
C299 O304 1.209 . S
C299 O306 1.226 . S
O300 Cd296 2.273 . S
O300 Cd298 2.411 . S
O300 C303 1.320 . S
O301 Cd298 2.333 . S
O301 C303 1.214 . S
O302 Cd298 2.352 . S
O302 C305 1.258 . S
C303 O300 1.320 . S
C303 O301 1.214 . S
O304 Cd296 2.277 . S
O304 C299 1.209 . S
C305 O302 1.258 . S
C305 O307 1.282 . S
O306 Cd298 2.277 . S
O306 C299 1.226 . S
O307 Cd298 2.356 . S
O307 C305 1.282 . S
C308 O309 1.306 . S
C308 O311 1.160 . S
O309 C308 1.306 . S
O309 Cd310 2.228 . S
Cd310 O309 2.228 . S
Cd310 O314 2.273 . S
Cd310 O318 2.277 . S
O311 C308 1.160 . S
O311 Cd312 2.203 . S
Cd312 O311 2.203 . S
Cd312 O314 2.411 . S
Cd312 O315 2.333 . S
Cd312 O316 2.352 . S
Cd312 O320 2.277 . S
Cd312 O321 2.356 . S
C313 O318 1.209 . S
C313 O320 1.226 . S
O314 Cd310 2.273 . S
O314 Cd312 2.411 . S
O314 C317 1.320 . S
O315 Cd312 2.333 . S
O315 C317 1.214 . S
O316 Cd312 2.352 . S
O316 C319 1.258 . S
C317 O314 1.320 . S
C317 O315 1.214 . S
O318 Cd310 2.277 . S
O318 C313 1.209 . S
C319 O316 1.258 . S
C319 O321 1.282 . S
O320 Cd312 2.277 . S
O320 C313 1.226 . S
O321 Cd312 2.356 . S
O321 C319 1.282 . S
C322 O323 1.306 . S
C322 O325 1.160 . S
O323 C322 1.306 . S
O323 Cd324 2.228 . S
Cd324 O323 2.228 . S
Cd324 O328 2.273 . S
Cd324 O332 2.277 . S
O325 C322 1.160 . S
O325 Cd326 2.203 . S
Cd326 O325 2.203 . S
Cd326 O328 2.411 . S
Cd326 O329 2.333 . S
Cd326 O330 2.352 . S
Cd326 O334 2.277 . S
Cd326 O335 2.356 . S
C327 O332 1.209 . S
C327 O334 1.226 . S
O328 Cd324 2.273 . S
O328 Cd326 2.411 . S
O328 C331 1.320 . S
O329 Cd326 2.333 . S
O329 C331 1.214 . S
O330 Cd326 2.352 . S
O330 C333 1.258 . S
C331 O328 1.320 . S
C331 O329 1.214 . S
O332 Cd324 2.277 . S
O332 C327 1.209 . S
C333 O330 1.258 . S
C333 O335 1.282 . S
O334 Cd326 2.277 . S
O334 C327 1.226 . S
O335 Cd326 2.356 . S
O335 C333 1.282 . S
C336 O337 1.306 . S
C336 O339 1.160 . S
O337 C336 1.306 . S
O337 Cd338 2.228 . S
Cd338 O337 2.228 . S
Cd338 O342 2.273 . S
Cd338 O346 2.277 . S
O339 C336 1.160 . S
O339 Cd340 2.203 . S
Cd340 O339 2.203 . S
Cd340 O342 2.411 . S
Cd340 O343 2.333 . S
Cd340 O344 2.352 . S
Cd340 O348 2.277 . S
Cd340 O349 2.356 . S
C341 O346 1.209 . S
C341 O348 1.226 . S
O342 Cd338 2.273 . S
O342 Cd340 2.411 . S
O342 C345 1.320 . S
O343 Cd340 2.333 . S
O343 C345 1.214 . S
O344 Cd340 2.352 . S
O344 C347 1.258 . S
C345 O342 1.320 . S
C345 O343 1.214 . S
O346 Cd338 2.277 . S
O346 C341 1.209 . S
C347 O344 1.258 . S
C347 O349 1.282 . S
O348 Cd340 2.277 . S
O348 C341 1.226 . S
O349 Cd340 2.356 . S
O349 C347 1.282 . S
C350 O351 1.306 . S
C350 O353 1.160 . S
O351 C350 1.306 . S
O351 Cd352 2.228 . S
Cd352 O351 2.228 . S
Cd352 O356 2.273 . S
Cd352 O360 2.277 . S
O353 C350 1.160 . S
O353 Cd354 2.203 . S
Cd354 O353 2.203 . S
Cd354 O356 2.411 . S
Cd354 O357 2.333 . S
Cd354 O358 2.352 . S
Cd354 O362 2.277 . S
Cd354 O363 2.356 . S
C355 O360 1.209 . S
C355 O362 1.226 . S
O356 Cd352 2.273 . S
O356 Cd354 2.411 . S
O356 C359 1.320 . S
O357 Cd354 2.333 . S
O357 C359 1.214 . S
O358 Cd354 2.352 . S
O358 C361 1.258 . S
C359 O356 1.320 . S
C359 O357 1.214 . S
O360 Cd352 2.277 . S
O360 C355 1.209 . S
C361 O358 1.258 . S
C361 O363 1.282 . S
O362 Cd354 2.277 . S
O362 C355 1.226 . S
O363 Cd354 2.356 . S
O363 C361 1.282 . S
C364 O365 1.306 . S
C364 O367 1.160 . S
O365 C364 1.306 . S
O365 Cd366 2.228 . S
Cd366 O365 2.228 . S
Cd366 O370 2.273 . S
Cd366 O374 2.277 . S
O367 C364 1.160 . S
O367 Cd368 2.203 . S
Cd368 O367 2.203 . S
Cd368 O370 2.411 . S
Cd368 O371 2.333 . S
Cd368 O372 2.352 . S
Cd368 O376 2.277 . S
Cd368 O377 2.356 . S
C369 O374 1.209 . S
C369 O376 1.226 . S
O370 Cd366 2.273 . S
O370 Cd368 2.411 . S
O370 C373 1.320 . S
O371 Cd368 2.333 . S
O371 C373 1.214 . S
O372 Cd368 2.352 . S
O372 C375 1.258 . S
C373 O370 1.320 . S
C373 O371 1.214 . S
O374 Cd366 2.277 . S
O374 C369 1.209 . S
C375 O372 1.258 . S
C375 O377 1.282 . S
O376 Cd368 2.277 . S
O376 C369 1.226 . S
O377 Cd368 2.356 . S
O377 C375 1.282 . S
C378 O379 1.306 . S
C378 O381 1.160 . S
O379 C378 1.306 . S
O379 Cd380 2.228 . S
Cd380 O379 2.228 . S
Cd380 O384 2.273 . S
Cd380 O388 2.277 . S
O381 C378 1.160 . S
O381 Cd382 2.203 . S
Cd382 O381 2.203 . S
Cd382 O384 2.411 . S
Cd382 O385 2.333 . S
Cd382 O386 2.352 . S
Cd382 O390 2.277 . S
Cd382 O391 2.356 . S
C383 O388 1.209 . S
C383 O390 1.226 . S
O384 Cd380 2.273 . S
O384 Cd382 2.411 . S
O384 C387 1.320 . S
O385 Cd382 2.333 . S
O385 C387 1.214 . S
O386 Cd382 2.352 . S
O386 C389 1.258 . S
C387 O384 1.320 . S
C387 O385 1.214 . S
O388 Cd380 2.277 . S
O388 C383 1.209 . S
C389 O386 1.258 . S
C389 O391 1.282 . S
O390 Cd382 2.277 . S
O390 C383 1.226 . S
O391 Cd382 2.356 . S
O391 C389 1.282 . S
C392 O393 1.306 . S
C392 O395 1.160 . S
O393 C392 1.306 . S
O393 Cd394 2.228 . S
Cd394 O393 2.228 . S
Cd394 O398 2.273 . S
Cd394 O402 2.277 . S
O395 C392 1.160 . S
O395 Cd396 2.203 . S
Cd396 O395 2.203 . S
Cd396 O398 2.411 . S
Cd396 O399 2.333 . S
Cd396 O400 2.352 . S
Cd396 O404 2.277 . S
Cd396 O405 2.356 . S
C397 O402 1.209 . S
C397 O404 1.226 . S
O398 Cd394 2.273 . S
O398 Cd396 2.411 . S
O398 C401 1.320 . S
O399 Cd396 2.333 . S
O399 C401 1.214 . S
O400 Cd396 2.352 . S
O400 C403 1.258 . S
C401 O398 1.320 . S
C401 O399 1.214 . S
O402 Cd394 2.277 . S
O402 C397 1.209 . S
C403 O400 1.258 . S
C403 O405 1.282 . S
O404 Cd396 2.277 . S
O404 C397 1.226 . S
O405 Cd396 2.356 . S
O405 C403 1.282 . S
C406 O407 1.306 . S
C406 O409 1.160 . S
O407 C406 1.306 . S
O407 Cd408 2.228 . S
Cd408 O407 2.228 . S
Cd408 O412 2.273 . S
Cd408 O416 2.277 . S
O409 C406 1.160 . S
O409 Cd410 2.203 . S
Cd410 O409 2.203 . S
Cd410 O412 2.411 . S
Cd410 O413 2.333 . S
Cd410 O414 2.352 . S
Cd410 O418 2.277 . S
Cd410 O419 2.356 . S
C411 O416 1.209 . S
C411 O418 1.226 . S
O412 Cd408 2.273 . S
O412 Cd410 2.411 . S
O412 C415 1.320 . S
O413 Cd410 2.333 . S
O413 C415 1.214 . S
O414 Cd410 2.352 . S
O414 C417 1.258 . S
C415 O412 1.320 . S
C415 O413 1.214 . S
O416 Cd408 2.277 . S
O416 C411 1.209 . S
C417 O414 1.258 . S
C417 O419 1.282 . S
O418 Cd410 2.277 . S
O418 C411 1.226 . S
O419 Cd410 2.356 . S
O419 C417 1.282 . S
C420 O421 1.306 . S
C420 O423 1.160 . S
O421 C420 1.306 . S
O421 Cd422 2.228 . S
Cd422 O421 2.228 . S
Cd422 O426 2.273 . S
Cd422 O430 2.277 . S
O423 C420 1.160 . S
O423 Cd424 2.203 . S
Cd424 O423 2.203 . S
Cd424 O426 2.411 . S
Cd424 O427 2.333 . S
Cd424 O428 2.352 . S
Cd424 O432 2.277 . S
Cd424 O433 2.356 . S
C425 O430 1.209 . S
C425 O432 1.226 . S
O426 Cd422 2.273 . S
O426 Cd424 2.411 . S
O426 C429 1.320 . S
O427 Cd424 2.333 . S
O427 C429 1.214 . S
O428 Cd424 2.352 . S
O428 C431 1.258 . S
C429 O426 1.320 . S
C429 O427 1.214 . S
O430 Cd422 2.277 . S
O430 C425 1.209 . S
C431 O428 1.258 . S
C431 O433 1.282 . S
O432 Cd424 2.277 . S
O432 C425 1.226 . S
O433 Cd424 2.356 . S
O433 C431 1.282 . S
C434 O435 1.306 . S
C434 O437 1.160 . S
O435 C434 1.306 . S
O435 Cd436 2.228 . S
Cd436 O435 2.228 . S
Cd436 O440 2.273 . S
Cd436 O444 2.277 . S
O437 C434 1.160 . S
O437 Cd438 2.203 . S
Cd438 O437 2.203 . S
Cd438 O440 2.411 . S
Cd438 O441 2.333 . S
Cd438 O442 2.352 . S
Cd438 O446 2.277 . S
Cd438 O447 2.356 . S
C439 O444 1.209 . S
C439 O446 1.226 . S
O440 Cd436 2.273 . S
O440 Cd438 2.411 . S
O440 C443 1.320 . S
O441 Cd438 2.333 . S
O441 C443 1.214 . S
O442 Cd438 2.352 . S
O442 C445 1.258 . S
C443 O440 1.320 . S
C443 O441 1.214 . S
O444 Cd436 2.277 . S
O444 C439 1.209 . S
C445 O442 1.258 . S
C445 O447 1.282 . S
O446 Cd438 2.277 . S
O446 C439 1.226 . S
O447 Cd438 2.356 . S
O447 C445 1.282 . S
C448 C449 1.363 1_554 S
C448 C454 1.379 1_655 S
C448 N456 1.356 . S
C449 C448 1.363 1_556 S
C449 C455 1.363 . S
C450 C451 1.363 1_556 S
C450 C455 1.379 1_455 S
C450 N457 1.356 . S
C451 C450 1.363 1_554 S
C451 C454 1.363 . S
N452 C454 1.356 . S
N452 H464 0.984 . S
N452 H465 0.985 . S
N453 C455 1.356 . S
N453 H458 0.984 . S
N453 H459 0.985 . S
C454 C448 1.379 1_455 S
C454 C451 1.363 . S
C454 N452 1.356 . S
C455 C449 1.363 . S
C455 C450 1.379 1_655 S
C455 N453 1.356 . S
N456 C448 1.356 . S
N456 H462 0.984 1_655 S
N456 H463 0.984 1_554 S
N457 C450 1.356 . S
N457 H460 0.984 1_556 S
N457 H461 0.985 1_455 S
H458 N453 0.984 . S
H459 N453 0.985 . S
H460 N457 0.984 1_554 S
H461 N457 0.985 1_655 S
H462 N456 0.984 1_455 S
H463 N456 0.984 1_556 S
H464 N452 0.984 . S
H465 N452 0.985 . S
C466 C467 1.363 . S
C466 C472 1.379 . S
C466 N474 1.356 . S
C467 C466 1.363 . S
C467 C473 1.363 . S
C468 C469 1.363 . S
C468 C473 1.379 . S
C468 N475 1.356 . S
C469 C468 1.363 . S
C469 C472 1.363 . S
N470 C472 1.356 . S
N470 H482 0.984 . S
N470 H483 0.985 . S
N471 C473 1.356 . S
N471 H476 0.984 . S
N471 H477 0.985 . S
C472 C466 1.379 . S
C472 C469 1.363 . S
C472 N470 1.356 . S
C473 C467 1.363 . S
C473 C468 1.379 . S
C473 N471 1.356 . S
N474 C466 1.356 . S
N474 H480 0.984 . S
N474 H481 0.984 . S
N475 C468 1.356 . S
N475 H478 0.984 . S
N475 H479 0.985 . S
H476 N471 0.984 . S
H477 N471 0.985 . S
H478 N475 0.984 . S
H479 N475 0.985 . S
H480 N474 0.984 . S
H481 N474 0.984 . S
H482 N470 0.984 . S
H483 N470 0.985 . S
C484 C485 1.363 . S
C484 C490 1.379 . S
C484 N492 1.356 . S
C485 C484 1.363 . S
C485 C491 1.363 . S
C486 C487 1.363 . S
C486 C491 1.379 . S
C486 N493 1.356 . S
C487 C486 1.363 . S
C487 C490 1.363 . S
N488 C490 1.356 . S
N488 H500 0.984 . S
N488 H501 0.985 . S
N489 C491 1.356 . S
N489 H494 0.984 . S
N489 H495 0.985 . S
C490 C484 1.379 . S
C490 C487 1.363 . S
C490 N488 1.356 . S
C491 C485 1.363 . S
C491 C486 1.379 . S
C491 N489 1.356 . S
N492 C484 1.356 . S
N492 H498 0.984 . S
N492 H499 0.984 . S
N493 C486 1.356 . S
N493 H496 0.984 . S
N493 H497 0.985 . S
H494 N489 0.984 . S
H495 N489 0.985 . S
H496 N493 0.984 . S
H497 N493 0.985 . S
H498 N492 0.984 . S
H499 N492 0.984 . S
H500 N488 0.984 . S
H501 N488 0.985 . S
C502 C503 1.363 . S
C502 C508 1.379 . S
C502 N510 1.356 . S
C503 C502 1.363 . S
C503 C509 1.363 . S
C504 C505 1.363 . S
C504 C509 1.379 . S
C504 N511 1.356 . S
C505 C504 1.363 . S
C505 C508 1.363 . S
N506 C508 1.356 . S
N506 H518 0.984 . S
N506 H519 0.985 . S
N507 C509 1.356 . S
N507 H512 0.984 . S
N507 H513 0.985 . S
C508 C502 1.379 . S
C508 C505 1.363 . S
C508 N506 1.356 . S
C509 C503 1.363 . S
C509 C504 1.379 . S
C509 N507 1.356 . S
N510 C502 1.356 . S
N510 H516 0.984 . S
N510 H517 0.984 . S
N511 C504 1.356 . S
N511 H514 0.984 . S
N511 H515 0.985 . S
H512 N507 0.984 . S
H513 N507 0.985 . S
H514 N511 0.984 . S
H515 N511 0.985 . S
H516 N510 0.984 . S
H517 N510 0.984 . S
H518 N506 0.984 . S
H519 N506 0.985 . S
C520 C521 1.363 1_455 S
C520 C526 1.379 . S
C520 N528 1.356 . S
C521 C520 1.363 1_655 S
C521 C527 1.363 . S
C522 C523 1.363 1_655 S
C522 C527 1.379 . S
C522 N529 1.356 . S
C523 C522 1.363 1_455 S
C523 C526 1.363 . S
N524 C526 1.356 . S
N524 H536 0.984 . S
N524 H537 0.985 . S
N525 C527 1.356 . S
N525 H530 0.984 . S
N525 H531 0.985 . S
C526 C520 1.379 . S
C526 C523 1.363 . S
C526 N524 1.356 . S
C527 C521 1.363 . S
C527 C522 1.379 . S
C527 N525 1.356 . S
N528 C520 1.356 . S
N528 H534 0.984 . S
N528 H535 0.984 1_455 S
N529 C522 1.356 . S
N529 H532 0.984 1_655 S
N529 H533 0.985 . S
H530 N525 0.984 . S
H531 N525 0.985 . S
H532 N529 0.984 1_455 S
H533 N529 0.985 . S
H534 N528 0.984 . S
H535 N528 0.984 1_655 S
H536 N524 0.984 . S
H537 N524 0.985 . S
C538 C539 1.363 . S
C538 C544 1.379 . S
C538 N546 1.356 . S
C539 C538 1.363 . S
C539 C545 1.363 . S
C540 C541 1.363 . S
C540 C545 1.379 . S
C540 N547 1.356 . S
C541 C540 1.363 . S
C541 C544 1.363 . S
N542 C544 1.356 . S
N542 H554 0.984 . S
N542 H555 0.985 . S
N543 C545 1.356 . S
N543 H548 0.984 . S
N543 H549 0.985 . S
C544 C538 1.379 . S
C544 C541 1.363 . S
C544 N542 1.356 . S
C545 C539 1.363 . S
C545 C540 1.379 . S
C545 N543 1.356 . S
N546 C538 1.356 . S
N546 H552 0.984 . S
N546 H553 0.984 . S
N547 C540 1.356 . S
N547 H550 0.984 . S
N547 H551 0.985 . S
H548 N543 0.984 . S
H549 N543 0.985 . S
H550 N547 0.984 . S
H551 N547 0.985 . S
H552 N546 0.984 . S
H553 N546 0.984 . S
H554 N542 0.984 . S
H555 N542 0.985 . S
C556 C557 1.363 . S
C556 C562 1.379 . S
C556 N564 1.356 . S
C557 C556 1.363 . S
C557 C563 1.363 1_556 S
C558 C559 1.363 . S
C558 C563 1.379 . S
C558 N565 1.356 . S
C559 C558 1.363 . S
C559 C562 1.363 1_554 S
N560 C562 1.356 . S
N560 H572 0.984 . S
N560 H573 0.985 1_556 S
N561 C563 1.356 . S
N561 H566 0.984 1_554 S
N561 H567 0.985 . S
C562 C556 1.379 . S
C562 C559 1.363 1_556 S
C562 N560 1.356 . S
C563 C557 1.363 1_554 S
C563 C558 1.379 . S
C563 N561 1.356 . S
N564 C556 1.356 . S
N564 H570 0.984 . S
N564 H571 0.984 . S
N565 C558 1.356 . S
N565 H568 0.984 . S
N565 H569 0.985 . S
H566 N561 0.984 1_556 S
H567 N561 0.985 . S
H568 N565 0.984 . S
H569 N565 0.985 . S
H570 N564 0.984 . S
H571 N564 0.984 . S
H572 N560 0.984 . S
H573 N560 0.985 1_554 S
C574 C575 1.363 . S
C574 C580 1.379 . S
C574 N582 1.356 . S
C575 C574 1.363 . S
C575 C581 1.363 . S
C576 C577 1.363 . S
C576 C581 1.379 . S
C576 N583 1.356 . S
C577 C576 1.363 . S
C577 C580 1.363 . S
N578 C580 1.356 . S
N578 H590 0.984 . S
N578 H591 0.985 . S
N579 C581 1.356 . S
N579 H584 0.984 . S
N579 H585 0.985 . S
C580 C574 1.379 . S
C580 C577 1.363 . S
C580 N578 1.356 . S
C581 C575 1.363 . S
C581 C576 1.379 . S
C581 N579 1.356 . S
N582 C574 1.356 . S
N582 H588 0.984 . S
N582 H589 0.984 . S
N583 C576 1.356 . S
N583 H586 0.984 . S
N583 H587 0.985 . S
H584 N579 0.984 . S
H585 N579 0.985 . S
H586 N583 0.984 . S
H587 N583 0.985 . S
H588 N582 0.984 . S
H589 N582 0.984 . S
H590 N578 0.984 . S
H591 N578 0.985 . S
C592 C593 1.363 . S
C592 C598 1.379 . S
C592 N600 1.356 . S
C593 C592 1.363 . S
C593 C599 1.363 . S
C594 C595 1.363 . S
C594 C599 1.379 . S
C594 N601 1.356 . S
C595 C594 1.363 . S
C595 C598 1.363 . S
N596 C598 1.356 . S
N596 H608 0.984 . S
N596 H609 0.985 . S
N597 C599 1.356 . S
N597 H602 0.984 . S
N597 H603 0.985 . S
C598 C592 1.379 . S
C598 C595 1.363 . S
C598 N596 1.356 . S
C599 C593 1.363 . S
C599 C594 1.379 . S
C599 N597 1.356 . S
N600 C592 1.356 . S
N600 H606 0.984 . S
N600 H607 0.984 . S
N601 C594 1.356 . S
N601 H604 0.984 . S
N601 H605 0.985 . S
H602 N597 0.984 . S
H603 N597 0.985 . S
H604 N601 0.984 . S
H605 N601 0.985 . S
H606 N600 0.984 . S
H607 N600 0.984 . S
H608 N596 0.984 . S
H609 N596 0.985 . S
C610 C611 1.363 . S
C610 C616 1.379 . S
C610 N618 1.356 . S
C611 C610 1.363 . S
C611 C617 1.363 . S
C612 C613 1.363 . S
C612 C617 1.379 . S
C612 N619 1.356 . S
C613 C612 1.363 . S
C613 C616 1.363 . S
N614 C616 1.356 . S
N614 H626 0.984 . S
N614 H627 0.985 . S
N615 C617 1.356 . S
N615 H620 0.984 . S
N615 H621 0.985 . S
C616 C610 1.379 . S
C616 C613 1.363 . S
C616 N614 1.356 . S
C617 C611 1.363 . S
C617 C612 1.379 . S
C617 N615 1.356 . S
N618 C610 1.356 . S
N618 H624 0.984 . S
N618 H625 0.984 . S
N619 C612 1.356 . S
N619 H622 0.984 . S
N619 H623 0.985 . S
H620 N615 0.984 . S
H621 N615 0.985 . S
H622 N619 0.984 . S
H623 N619 0.985 . S
H624 N618 0.984 . S
H625 N618 0.984 . S
H626 N614 0.984 . S
H627 N614 0.985 . S
C628 C629 1.363 . S
C628 C634 1.379 . S
C628 N636 1.356 . S
C629 C628 1.363 . S
C629 C635 1.363 . S
C630 C631 1.363 . S
C630 C635 1.379 . S
C630 N637 1.356 . S
C631 C630 1.363 . S
C631 C634 1.363 . S
N632 C634 1.356 . S
N632 H644 0.984 . S
N632 H645 0.985 . S
N633 C635 1.356 . S
N633 H638 0.984 . S
N633 H639 0.985 . S
C634 C628 1.379 . S
C634 C631 1.363 . S
C634 N632 1.356 . S
C635 C629 1.363 . S
C635 C630 1.379 . S
C635 N633 1.356 . S
N636 C628 1.356 . S
N636 H642 0.984 . S
N636 H643 0.984 . S
N637 C630 1.356 . S
N637 H640 0.984 . S
N637 H641 0.985 . S
H638 N633 0.984 . S
H639 N633 0.985 . S
H640 N637 0.984 . S
H641 N637 0.985 . S
H642 N636 0.984 . S
H643 N636 0.984 . S
H644 N632 0.984 . S
H645 N632 0.985 . S
C646 C647 1.363 . S
C646 C652 1.379 . S
C646 N654 1.356 . S
C647 C646 1.363 . S
C647 C653 1.363 . S
C648 C649 1.363 . S
C648 C653 1.379 . S
C648 N655 1.356 . S
C649 C648 1.363 . S
C649 C652 1.363 . S
N650 C652 1.356 . S
N650 H662 0.984 . S
N650 H663 0.985 . S
N651 C653 1.356 . S
N651 H656 0.984 . S
N651 H657 0.985 . S
C652 C646 1.379 . S
C652 C649 1.363 . S
C652 N650 1.356 . S
C653 C647 1.363 . S
C653 C648 1.379 . S
C653 N651 1.356 . S
N654 C646 1.356 . S
N654 H660 0.984 . S
N654 H661 0.984 . S
N655 C648 1.356 . S
N655 H658 0.984 . S
N655 H659 0.985 . S
H656 N651 0.984 . S
H657 N651 0.985 . S
H658 N655 0.984 . S
H659 N655 0.985 . S
H660 N654 0.984 . S
H661 N654 0.984 . S
H662 N650 0.984 . S
H663 N650 0.985 . S
C664 C665 1.363 . S
C664 C670 1.379 1_565 S
C664 N672 1.356 . S
C665 C664 1.363 . S
C665 C671 1.363 . S
C666 C667 1.363 . S
C666 C671 1.379 1_545 S
C666 N673 1.356 . S
C667 C666 1.363 . S
C667 C670 1.363 . S
N668 C670 1.356 . S
N668 H680 0.984 . S
N668 H681 0.985 . S
N669 C671 1.356 . S
N669 H674 0.984 . S
N669 H675 0.985 . S
C670 C664 1.379 1_545 S
C670 C667 1.363 . S
C670 N668 1.356 . S
C671 C665 1.363 . S
C671 C666 1.379 1_565 S
C671 N669 1.356 . S
N672 C664 1.356 . S
N672 H678 0.984 . S
N672 H679 0.984 . S
N673 C666 1.356 . S
N673 H676 0.984 . S
N673 H677 0.985 . S
H674 N669 0.984 . S
H675 N669 0.985 . S
H676 N673 0.984 . S
H677 N673 0.985 . S
H678 N672 0.984 . S
H679 N672 0.984 . S
H680 N668 0.984 . S
H681 N668 0.985 . S
C682 C683 1.363 1_545 S
C682 C688 1.379 1_455 S
C682 N690 1.356 . S
C683 C682 1.363 1_565 S
C683 C689 1.363 1_556 S
C684 C685 1.363 1_565 S
C684 C689 1.379 1_655 S
C684 N691 1.356 . S
C685 C684 1.363 1_545 S
C685 C688 1.363 1_554 S
N686 C688 1.356 . S
N686 H698 0.984 . S
N686 H699 0.985 1_556 S
N687 C689 1.356 . S
N687 H692 0.984 1_554 S
N687 H693 0.985 . S
C688 C682 1.379 1_655 S
C688 C685 1.363 1_556 S
C688 N686 1.356 . S
C689 C683 1.363 1_554 S
C689 C684 1.379 1_455 S
C689 N687 1.356 . S
N690 C682 1.356 . S
N690 H696 0.984 . S
N690 H697 0.984 1_545 S
N691 C684 1.356 . S
N691 H694 0.984 1_565 S
N691 H695 0.985 . S
H692 N687 0.984 1_556 S
H693 N687 0.985 . S
H694 N691 0.984 1_545 S
H695 N691 0.985 . S
H696 N690 0.984 . S
H697 N690 0.984 1_565 S
H698 N686 0.984 . S
H699 N686 0.985 1_554 S
C700 C701 1.363 1_554 S
C700 C706 1.379 1_545 S
C700 N708 1.356 . S
C701 C700 1.363 1_556 S
C701 C707 1.363 . S
C702 C703 1.363 1_556 S
C702 C707 1.379 1_565 S
C702 N709 1.356 . S
C703 C702 1.363 1_554 S
C703 C706 1.363 . S
N704 C706 1.356 . S
N704 H716 0.984 . S
N704 H717 0.985 . S
N705 C707 1.356 . S
N705 H710 0.984 . S
N705 H711 0.985 . S
C706 C700 1.379 1_565 S
C706 C703 1.363 . S
C706 N704 1.356 . S
C707 C701 1.363 . S
C707 C702 1.379 1_545 S
C707 N705 1.356 . S
N708 C700 1.356 . S
N708 H714 0.995 . S
N708 H715 0.984 1_554 S
N709 C702 1.356 . S
N709 H712 0.984 1_556 S
N709 H713 0.995 . S
H710 N705 0.984 . S
H711 N705 0.985 . S
H712 N709 0.984 1_554 S
H713 N709 0.995 . S
H714 N708 0.995 . S
H715 N708 0.984 1_556 S
H716 N704 0.984 . S
H717 N704 0.985 . S
C718 C719 1.363 1_565 S
C718 C724 1.379 . S
C718 N726 1.356 . S
C719 C718 1.363 1_545 S
C719 C725 1.363 1_455 S
C720 C721 1.363 1_545 S
C720 C725 1.379 . S
C720 N727 1.356 . S
C721 C720 1.363 1_565 S
C721 C724 1.363 1_655 S
N722 C724 1.356 . S
N722 H734 0.984 . S
N722 H735 0.985 1_455 S
N723 C725 1.356 . S
N723 H728 0.984 1_655 S
N723 H729 0.985 . S
C724 C718 1.379 . S
C724 C721 1.363 1_455 S
C724 N722 1.356 . S
C725 C719 1.363 1_655 S
C725 C720 1.379 . S
C725 N723 1.356 . S
N726 C718 1.356 . S
N726 H732 0.984 . S
N726 H733 0.984 1_565 S
N727 C720 1.356 . S
N727 H730 0.984 1_545 S
N727 H731 0.985 . S
H728 N723 0.984 1_455 S
H729 N723 0.985 . S
H730 N727 0.984 1_565 S
H731 N727 0.985 . S
H732 N726 0.984 . S
H733 N726 0.984 1_545 S
H734 N722 0.984 . S
H735 N722 0.985 1_655 S
C736 C737 1.363 1_455 S
C736 C742 1.379 . S
C736 N744 1.356 . S
C737 C736 1.363 1_655 S
C737 C743 1.363 . S
C738 C739 1.363 1_655 S
C738 C743 1.379 . S
C738 N745 1.356 . S
C739 C738 1.363 1_455 S
C739 C742 1.363 . S
N740 C742 1.356 . S
N740 H752 0.984 . S
N740 H753 0.985 . S
N741 C743 1.356 . S
N741 H746 0.984 . S
N741 H747 0.985 . S
C742 C736 1.379 . S
C742 C739 1.363 . S
C742 N740 1.356 . S
C743 C737 1.363 . S
C743 C738 1.379 . S
C743 N741 1.356 . S
N744 C736 1.356 . S
N744 H750 0.984 . S
N744 H751 0.984 1_455 S
N745 C738 1.356 . S
N745 H748 0.984 1_655 S
N745 H749 0.985 . S
H746 N741 0.984 . S
H747 N741 0.985 . S
H748 N745 0.984 1_455 S
H749 N745 0.985 . S
H750 N744 0.984 . S
H751 N744 0.984 1_655 S
H752 N740 0.984 . S
H753 N740 0.985 . S
C754 C755 1.363 . S
C754 C760 1.379 1_455 S
C754 N762 1.356 . S
C755 C754 1.363 . S
C755 C761 1.363 . S
C756 C757 1.363 . S
C756 C761 1.379 1_655 S
C756 N763 1.356 . S
C757 C756 1.363 . S
C757 C760 1.363 . S
N758 C760 1.356 . S
N758 H770 0.984 . S
N758 H771 0.985 . S
N759 C761 1.356 . S
N759 H764 0.984 . S
N759 H765 0.985 . S
C760 C754 1.379 1_655 S
C760 C757 1.363 . S
C760 N758 1.356 . S
C761 C755 1.363 . S
C761 C756 1.379 1_455 S
C761 N759 1.356 . S
N762 C754 1.356 . S
N762 H768 0.984 . S
N762 H769 0.984 . S
N763 C756 1.356 . S
N763 H766 0.984 . S
N763 H767 0.985 . S
H764 N759 0.984 . S
H765 N759 0.985 . S
H766 N763 0.984 . S
H767 N763 0.985 . S
H768 N762 0.984 . S
H769 N762 0.984 . S
H770 N758 0.984 . S
H771 N758 0.985 . S
C772 C773 1.363 . S
C772 C778 1.379 . S
C772 N780 1.356 . S
C773 C772 1.363 . S
C773 C779 1.363 . S
C774 C775 1.363 . S
C774 C779 1.379 . S
C774 N781 1.356 . S
C775 C774 1.363 . S
C775 C778 1.363 . S
N776 C778 1.356 . S
N776 H788 0.984 . S
N776 H789 0.985 . S
N777 C779 1.356 . S
N777 H782 0.984 . S
N777 H783 0.985 . S
C778 C772 1.379 . S
C778 C775 1.363 . S
C778 N776 1.356 . S
C779 C773 1.363 . S
C779 C774 1.379 . S
C779 N777 1.356 . S
N780 C772 1.356 . S
N780 H786 0.984 . S
N780 H787 0.984 . S
N781 C774 1.356 . S
N781 H784 0.984 . S
N781 H785 0.985 . S
H782 N777 0.984 . S
H783 N777 0.985 . S
H784 N781 0.984 . S
H785 N781 0.985 . S
H786 N780 0.984 . S
H787 N780 0.984 . S
H788 N776 0.984 . S
H789 N776 0.985 . S
C790 C791 1.363 . S
C790 C796 1.379 . S
C790 N798 1.356 . S
C791 C790 1.363 . S
C791 C797 1.363 . S
C792 C793 1.363 . S
C792 C797 1.379 . S
C792 N799 1.356 . S
C793 C792 1.363 . S
C793 C796 1.363 . S
N794 C796 1.356 . S
N794 H806 0.984 . S
N794 H807 0.985 . S
N795 C797 1.356 . S
N795 H800 0.984 . S
N795 H801 0.985 . S
C796 C790 1.379 . S
C796 C793 1.363 . S
C796 N794 1.356 . S
C797 C791 1.363 . S
C797 C792 1.379 . S
C797 N795 1.356 . S
N798 C790 1.356 . S
N798 H804 0.984 . S
N798 H805 0.984 . S
N799 C792 1.356 . S
N799 H802 0.984 . S
N799 H803 0.985 . S
H800 N795 0.984 . S
H801 N795 0.985 . S
H802 N799 0.984 . S
H803 N799 0.985 . S
H804 N798 0.984 . S
H805 N798 0.984 . S
H806 N794 0.984 . S
H807 N794 0.985 . S
C808 C809 1.363 . S
C808 C814 1.379 . S
C808 N816 1.356 . S
C809 C808 1.363 . S
C809 C815 1.363 1_655 S
C810 C811 1.363 . S
C810 C815 1.379 . S
C810 N817 1.356 . S
C811 C810 1.363 . S
C811 C814 1.363 1_455 S
N812 C814 1.356 . S
N812 H824 0.984 . S
N812 H825 0.985 1_655 S
N813 C815 1.356 . S
N813 H818 0.984 1_455 S
N813 H819 0.985 . S
C814 C808 1.379 . S
C814 C811 1.363 1_655 S
C814 N812 1.356 . S
C815 C809 1.363 1_455 S
C815 C810 1.379 . S
C815 N813 1.356 . S
N816 C808 1.356 . S
N816 H822 0.984 . S
N816 H823 0.984 . S
N817 C810 1.356 . S
N817 H820 0.984 . S
N817 H821 0.985 . S
H818 N813 0.984 1_655 S
H819 N813 0.985 . S
H820 N817 0.984 . S
H821 N817 0.985 . S
H822 N816 0.984 . S
H823 N816 0.984 . S
H824 N812 0.984 . S
H825 N812 0.985 1_455 S
C826 C827 1.363 . S
C826 C832 1.379 . S
C826 N834 1.356 . S
C827 C826 1.363 . S
C827 C833 1.363 . S
C828 C829 1.363 . S
C828 C833 1.379 . S
C828 N835 1.356 . S
C829 C828 1.363 . S
C829 C832 1.363 . S
N830 C832 1.356 . S
N830 H842 0.984 . S
N830 H843 0.985 . S
N831 C833 1.356 . S
N831 H836 0.984 . S
N831 H837 0.985 . S
C832 C826 1.379 . S
C832 C829 1.363 . S
C832 N830 1.356 . S
C833 C827 1.363 . S
C833 C828 1.379 . S
C833 N831 1.356 . S
N834 C826 1.356 . S
N834 H840 0.984 . S
N834 H841 0.984 . S
N835 C828 1.356 . S
N835 H838 0.984 . S
N835 H839 0.985 . S
H836 N831 0.984 . S
H837 N831 0.985 . S
H838 N835 0.984 . S
H839 N835 0.985 . S
H840 N834 0.984 . S
H841 N834 0.984 . S
H842 N830 0.984 . S
H843 N830 0.985 . S
C844 C845 1.363 . S
C844 C850 1.379 . S
C844 N852 1.356 . S
C845 C844 1.363 . S
C845 C851 1.363 . S
C846 C847 1.363 . S
C846 C851 1.379 . S
C846 N853 1.356 . S
C847 C846 1.363 . S
C847 C850 1.363 . S
N848 C850 1.356 . S
N848 H860 0.984 . S
N848 H861 0.985 . S
N849 C851 1.356 . S
N849 H854 0.984 . S
N849 H855 0.985 . S
C850 C844 1.379 . S
C850 C847 1.363 . S
C850 N848 1.356 . S
C851 C845 1.363 . S
C851 C846 1.379 . S
C851 N849 1.356 . S
N852 C844 1.356 . S
N852 H858 0.984 . S
N852 H859 0.984 . S
N853 C846 1.356 . S
N853 H856 0.984 . S
N853 H857 0.985 . S
H854 N849 0.984 . S
H855 N849 0.985 . S
H856 N853 0.984 . S
H857 N853 0.985 . S
H858 N852 0.984 . S
H859 N852 0.984 . S
H860 N848 0.984 . S
H861 N848 0.985 . S
C862 C863 1.363 . S
C862 C868 1.379 1_455 S
C862 N870 1.356 . S
C863 C862 1.363 . S
C863 C869 1.363 . S
C864 C865 1.363 . S
C864 C869 1.379 1_655 S
C864 N871 1.356 . S
C865 C864 1.363 . S
C865 C868 1.363 . S
N866 C868 1.356 . S
N866 H878 0.984 . S
N866 H879 0.985 . S
N867 C869 1.356 . S
N867 H872 0.984 . S
N867 H873 0.985 . S
C868 C862 1.379 1_655 S
C868 C865 1.363 . S
C868 N866 1.356 . S
C869 C863 1.363 . S
C869 C864 1.379 1_455 S
C869 N867 1.356 . S
N870 C862 1.356 . S
N870 H876 0.984 . S
N870 H877 0.984 . S
N871 C864 1.356 . S
N871 H874 0.984 . S
N871 H875 0.985 . S
H872 N867 0.984 . S
H873 N867 0.985 . S
H874 N871 0.984 . S
H875 N871 0.985 . S
H876 N870 0.984 . S
H877 N870 0.984 . S
H878 N866 0.984 . S
H879 N866 0.985 . S
C880 C881 1.363 1_455 S
C880 C886 1.379 . S
C880 N888 1.356 . S
C881 C880 1.363 1_655 S
C881 C887 1.363 . S
C882 C883 1.363 1_655 S
C882 C887 1.379 . S
C882 N889 1.356 . S
C883 C882 1.363 1_455 S
C883 C886 1.363 . S
N884 C886 1.356 . S
N884 H896 0.984 . S
N884 H897 0.985 . S
N885 C887 1.356 . S
N885 H890 0.984 . S
N885 H891 0.985 . S
C886 C880 1.379 . S
C886 C883 1.363 . S
C886 N884 1.356 . S
C887 C881 1.363 . S
C887 C882 1.379 . S
C887 N885 1.356 . S
N888 C880 1.356 . S
N888 H894 0.984 . S
N888 H895 0.984 1_455 S
N889 C882 1.356 . S
N889 H892 0.984 1_655 S
N889 H893 0.985 . S
H890 N885 0.984 . S
H891 N885 0.985 . S
H892 N889 0.984 1_455 S
H893 N889 0.985 . S
H894 N888 0.984 . S
H895 N888 0.984 1_655 S
H896 N884 0.984 . S
H897 N884 0.985 . S
C898 C899 1.363 . S
C898 C904 1.379 1_655 S
C898 N906 1.356 . S
C899 C898 1.363 . S
C899 C905 1.363 . S
C900 C901 1.363 . S
C900 C905 1.379 1_455 S
C900 N907 1.356 . S
C901 C900 1.363 . S
C901 C904 1.363 . S
N902 C904 1.356 . S
N902 H914 0.984 . S
N902 H915 0.985 . S
N903 C905 1.356 . S
N903 H908 0.984 . S
N903 H909 0.985 . S
C904 C898 1.379 1_455 S
C904 C901 1.363 . S
C904 N902 1.356 . S
C905 C899 1.363 . S
C905 C900 1.379 1_655 S
C905 N903 1.356 . S
N906 C898 1.356 . S
N906 H912 0.984 . S
N906 H913 0.984 . S
N907 C900 1.356 . S
N907 H910 0.984 . S
N907 H911 0.985 . S
H908 N903 0.984 . S
H909 N903 0.985 . S
H910 N907 0.984 . S
H911 N907 0.985 . S
H912 N906 0.984 . S
H913 N906 0.984 . S
H914 N902 0.984 . S
H915 N902 0.985 . S
C916 C917 1.363 . S
C916 C922 1.379 . S
C916 N924 1.356 . S
C917 C916 1.363 . S
C917 C923 1.363 . S
C918 C919 1.363 . S
C918 C923 1.379 . S
C918 N925 1.356 . S
C919 C918 1.363 . S
C919 C922 1.363 . S
N920 C922 1.356 . S
N920 H932 0.984 . S
N920 H933 0.985 . S
N921 C923 1.356 . S
N921 H926 0.984 . S
N921 H927 0.985 . S
C922 C916 1.379 . S
C922 C919 1.363 . S
C922 N920 1.356 . S
C923 C917 1.363 . S
C923 C918 1.379 . S
C923 N921 1.356 . S
N924 C916 1.356 . S
N924 H930 0.984 . S
N924 H931 0.984 . S
N925 C918 1.356 . S
N925 H928 0.984 . S
N925 H929 0.985 . S
H926 N921 0.984 . S
H927 N921 0.985 . S
H928 N925 0.984 . S
H929 N925 0.985 . S
H930 N924 0.984 . S
H931 N924 0.984 . S
H932 N920 0.984 . S
H933 N920 0.985 . S
C934 C935 1.363 . S
C934 C940 1.379 . S
C934 N942 1.356 . S
C935 C934 1.363 . S
C935 C941 1.363 . S
C936 C937 1.363 . S
C936 C941 1.379 . S
C936 N943 1.356 . S
C937 C936 1.363 . S
C937 C940 1.363 . S
N938 C940 1.356 . S
N938 H950 0.984 . S
N938 H951 0.985 . S
N939 C941 1.356 . S
N939 H944 0.984 . S
N939 H945 0.985 . S
C940 C934 1.379 . S
C940 C937 1.363 . S
C940 N938 1.356 . S
C941 C935 1.363 . S
C941 C936 1.379 . S
C941 N939 1.356 . S
N942 C934 1.356 . S
N942 H948 0.984 . S
N942 H949 0.984 . S
N943 C936 1.356 . S
N943 H946 0.984 . S
N943 H947 0.985 . S
H944 N939 0.984 . S
H945 N939 0.985 . S
H946 N943 0.984 . S
H947 N943 0.985 . S
H948 N942 0.984 . S
H949 N942 0.984 . S
H950 N938 0.984 . S
H951 N938 0.985 . S
C952 C953 1.363 . S
C952 C958 1.379 . S
C952 N960 1.356 . S
C953 C952 1.363 . S
C953 C959 1.363 1_655 S
C954 C955 1.363 . S
C954 C959 1.379 . S
C954 N961 1.356 . S
C955 C954 1.363 . S
C955 C958 1.363 1_455 S
N956 C958 1.356 . S
N956 H968 0.984 . S
N956 H969 0.985 1_655 S
N957 C959 1.356 . S
N957 H962 0.984 1_455 S
N957 H963 0.985 . S
C958 C952 1.379 . S
C958 C955 1.363 1_655 S
C958 N956 1.356 . S
C959 C953 1.363 1_455 S
C959 C954 1.379 . S
C959 N957 1.356 . S
N960 C952 1.356 . S
N960 H966 0.984 . S
N960 H967 0.984 . S
N961 C954 1.356 . S
N961 H964 0.984 . S
N961 H965 0.985 . S
H962 N957 0.984 1_655 S
H963 N957 0.985 . S
H964 N961 0.984 . S
H965 N961 0.985 . S
H966 N960 0.984 . S
H967 N960 0.984 . S
H968 N956 0.984 . S
H969 N956 0.985 1_455 S
C970 C971 1.363 . S
C970 C976 1.379 . S
C970 N978 1.356 . S
C971 C970 1.363 . S
C971 C977 1.363 . S
C972 C973 1.363 . S
C972 C977 1.379 . S
C972 N979 1.356 . S
C973 C972 1.363 . S
C973 C976 1.363 . S
N974 C976 1.356 . S
N974 H986 0.984 . S
N974 H987 0.985 . S
N975 C977 1.356 . S
N975 H980 0.984 . S
N975 H981 0.985 . S
C976 C970 1.379 . S
C976 C973 1.363 . S
C976 N974 1.356 . S
C977 C971 1.363 . S
C977 C972 1.379 . S
C977 N975 1.356 . S
N978 C970 1.356 . S
N978 H984 0.984 . S
N978 H985 0.984 . S
N979 C972 1.356 . S
N979 H982 0.984 . S
N979 H983 0.985 . S
H980 N975 0.984 . S
H981 N975 0.985 . S
H982 N979 0.984 . S
H983 N979 0.985 . S
H984 N978 0.984 . S
H985 N978 0.984 . S
H986 N974 0.984 . S
H987 N974 0.985 . S
C988 C989 1.363 . S
C988 C994 1.379 . S
C988 N996 1.356 . S
C989 C988 1.363 . S
C989 C995 1.363 . S
C990 C991 1.363 . S
C990 C995 1.379 . S
C990 N997 1.356 . S
C991 C990 1.363 . S
C991 C994 1.363 . S
N992 C994 1.356 . S
N992 H1004 0.984 . S
N992 H1005 0.985 . S
N993 C995 1.356 . S
N993 H998 0.984 . S
N993 H999 0.985 . S
C994 C988 1.379 . S
C994 C991 1.363 . S
C994 N992 1.356 . S
C995 C989 1.363 . S
C995 C990 1.379 . S
C995 N993 1.356 . S
N996 C988 1.356 . S
N996 H1002 0.984 . S
N996 H1003 0.984 . S
N997 C990 1.356 . S
N997 H1000 0.984 . S
N997 H1001 0.985 . S
H998 N993 0.984 . S
H999 N993 0.985 . S
H1000 N997 0.984 . S
H1001 N997 0.985 . S
H1002 N996 0.984 . S
H1003 N996 0.984 . S
H1004 N992 0.984 . S
H1005 N992 0.985 . S
C1006 C1007 1.363 . S
C1006 C1012 1.379 1_655 S
C1006 N1014 1.356 . S
C1007 C1006 1.363 . S
C1007 C1013 1.363 . S
C1008 C1009 1.363 . S
C1008 C1013 1.379 1_455 S
C1008 N1015 1.356 . S
C1009 C1008 1.363 . S
C1009 C1012 1.363 . S
N1010 C1012 1.356 . S
N1010 H1022 0.984 . S
N1010 H1023 0.985 . S
N1011 C1013 1.356 . S
N1011 H1016 0.984 . S
N1011 H1017 0.985 . S
C1012 C1006 1.379 1_455 S
C1012 C1009 1.363 . S
C1012 N1010 1.356 . S
C1013 C1007 1.363 . S
C1013 C1008 1.379 1_655 S
C1013 N1011 1.356 . S
N1014 C1006 1.356 . S
N1014 H1020 0.984 . S
N1014 H1021 0.984 . S
N1015 C1008 1.356 . S
N1015 H1018 0.984 . S
N1015 H1019 0.985 . S
H1016 N1011 0.984 . S
H1017 N1011 0.985 . S
H1018 N1015 0.984 . S
H1019 N1015 0.985 . S
H1020 N1014 0.984 . S
H1021 N1014 0.984 . S
H1022 N1010 0.984 . S
H1023 N1010 0.985 . S
C1024 C1025 1.363 . S
C1024 C1030 1.379 . S
C1024 N1032 1.356 . S
C1025 C1024 1.363 . S
C1025 C1031 1.363 1_556 S
C1026 C1027 1.363 . S
C1026 C1031 1.379 . S
C1026 N1033 1.356 . S
C1027 C1026 1.363 . S
C1027 C1030 1.363 1_554 S
N1028 C1030 1.356 . S
N1028 H1040 0.984 . S
N1028 H1041 0.985 1_556 S
N1029 C1031 1.356 . S
N1029 H1034 0.984 1_554 S
N1029 H1035 0.985 . S
C1030 C1024 1.379 . S
C1030 C1027 1.363 1_556 S
C1030 N1028 1.356 . S
C1031 C1025 1.363 1_554 S
C1031 C1026 1.379 . S
C1031 N1029 1.356 . S
N1032 C1024 1.356 . S
N1032 H1038 0.984 . S
N1032 H1039 0.984 . S
N1033 C1026 1.356 . S
N1033 H1036 0.984 . S
N1033 H1037 0.985 . S
H1034 N1029 0.984 1_556 S
H1035 N1029 0.985 . S
H1036 N1033 0.984 . S
H1037 N1033 0.985 . S
H1038 N1032 0.984 . S
H1039 N1032 0.984 . S
H1040 N1028 0.984 . S
H1041 N1028 0.985 1_554 S
C1042 C1043 1.363 . S
C1042 C1048 1.379 1_545 S
C1042 N1050 1.356 . S
C1043 C1042 1.363 . S
C1043 C1049 1.363 . S
C1044 C1045 1.363 . S
C1044 C1049 1.379 1_565 S
C1044 N1051 1.356 . S
C1045 C1044 1.363 . S
C1045 C1048 1.363 . S
N1046 C1048 1.356 . S
N1046 H1058 0.984 1_565 S
N1046 H1059 0.985 . S
N1047 C1049 1.356 . S
N1047 H1052 0.984 . S
N1047 H1053 0.985 1_545 S
C1048 C1042 1.379 1_565 S
C1048 C1045 1.363 . S
C1048 N1046 1.356 . S
C1049 C1043 1.363 . S
C1049 C1044 1.379 1_545 S
C1049 N1047 1.356 . S
N1050 C1042 1.356 . S
N1050 H1056 0.984 . S
N1050 H1057 0.984 . S
N1051 C1044 1.356 . S
N1051 H1054 0.984 . S
N1051 H1055 0.985 . S
H1052 N1047 0.984 . S
H1053 N1047 0.985 1_565 S
H1054 N1051 0.984 . S
H1055 N1051 0.985 . S
H1056 N1050 0.984 . S
H1057 N1050 0.984 . S
H1058 N1046 0.984 1_545 S
H1059 N1046 0.985 . S
C1060 C1061 1.363 . S
C1060 C1066 1.379 . S
C1060 N1068 1.356 . S
C1061 C1060 1.363 . S
C1061 C1067 1.363 . S
C1062 C1063 1.363 . S
C1062 C1067 1.379 . S
C1062 N1069 1.356 . S
C1063 C1062 1.363 . S
C1063 C1066 1.363 . S
N1064 C1066 1.356 . S
N1064 H1076 0.984 . S
N1064 H1077 0.985 . S
N1065 C1067 1.356 . S
N1065 H1070 0.984 . S
N1065 H1071 0.985 . S
C1066 C1060 1.379 . S
C1066 C1063 1.363 . S
C1066 N1064 1.356 . S
C1067 C1061 1.363 . S
C1067 C1062 1.379 . S
C1067 N1065 1.356 . S
N1068 C1060 1.356 . S
N1068 H1074 0.984 . S
N1068 H1075 0.984 . S
N1069 C1062 1.356 . S
N1069 H1072 0.984 . S
N1069 H1073 0.985 . S
H1070 N1065 0.984 . S
H1071 N1065 0.985 . S
H1072 N1069 0.984 . S
H1073 N1069 0.985 . S
H1074 N1068 0.984 . S
H1075 N1068 0.984 . S
H1076 N1064 0.984 . S
H1077 N1064 0.985 . S
C1078 C1079 1.363 . S
C1078 C1084 1.379 1_545 S
C1078 N1086 1.356 . S
C1079 C1078 1.363 . S
C1079 C1085 1.363 . S
C1080 C1081 1.363 . S
C1080 C1085 1.379 1_565 S
C1080 N1087 1.356 . S
C1081 C1080 1.363 . S
C1081 C1084 1.363 . S
N1082 C1084 1.356 . S
N1082 H1094 0.984 . S
N1082 H1095 0.985 . S
N1083 C1085 1.356 . S
N1083 H1088 0.984 . S
N1083 H1089 0.985 . S
C1084 C1078 1.379 1_565 S
C1084 C1081 1.363 . S
C1084 N1082 1.356 . S
C1085 C1079 1.363 . S
C1085 C1080 1.379 1_545 S
C1085 N1083 1.356 . S
N1086 C1078 1.356 . S
N1086 H1092 0.984 . S
N1086 H1093 0.984 . S
N1087 C1080 1.356 . S
N1087 H1090 0.984 . S
N1087 H1091 0.985 . S
H1088 N1083 0.984 . S
H1089 N1083 0.985 . S
H1090 N1087 0.984 . S
H1091 N1087 0.985 . S
H1092 N1086 0.984 . S
H1093 N1086 0.984 . S
H1094 N1082 0.984 . S
H1095 N1082 0.985 . S
C1096 C1097 1.363 . S
C1096 C1102 1.379 . S
C1096 N1104 1.356 . S
C1097 C1096 1.363 . S
C1097 C1103 1.363 1_554 S
C1098 C1099 1.363 . S
C1098 C1103 1.379 . S
C1098 N1105 1.356 . S
C1099 C1098 1.363 . S
C1099 C1102 1.363 1_556 S
N1100 C1102 1.356 . S
N1100 H1112 0.984 . S
N1100 H1113 0.985 1_554 S
N1101 C1103 1.356 . S
N1101 H1106 0.984 1_556 S
N1101 H1107 0.985 . S
C1102 C1096 1.379 . S
C1102 C1099 1.363 1_554 S
C1102 N1100 1.356 . S
C1103 C1097 1.363 1_556 S
C1103 C1098 1.379 . S
C1103 N1101 1.356 . S
N1104 C1096 1.356 . S
N1104 H1110 0.984 . S
N1104 H1111 0.984 . S
N1105 C1098 1.356 . S
N1105 H1108 0.984 . S
N1105 H1109 0.985 . S
H1106 N1101 0.984 1_554 S
H1107 N1101 0.985 . S
H1108 N1105 0.984 . S
H1109 N1105 0.985 . S
H1110 N1104 0.984 . S
H1111 N1104 0.984 . S
H1112 N1100 0.984 . S
H1113 N1100 0.985 1_556 S
C1114 C1115 1.371 . S
C1114 C1120 1.371 1_565 S
C1114 N1122 1.359 . S
C1115 C1114 1.371 . S
C1115 C1121 1.363 . S
C1116 C1117 1.371 . S
C1116 C1121 1.371 1_545 S
C1116 N1123 1.359 . S
C1117 C1116 1.371 . S
C1117 C1120 1.363 . S
N1118 C1120 1.356 . S
N1118 H1130 0.984 . S
N1118 H1131 0.985 . S
N1119 C1121 1.356 . S
N1119 H1124 0.984 . S
N1119 H1125 0.985 . S
C1120 C1114 1.371 1_545 S
C1120 C1117 1.363 . S
C1120 N1118 1.356 . S
C1121 C1115 1.363 . S
C1121 C1116 1.371 1_565 S
C1121 N1119 1.356 . S
N1122 C1114 1.359 . S
N1122 H1128 0.984 1_565 S
N1122 H1129 0.984 . S
N1123 C1116 1.359 . S
N1123 H1126 0.984 . S
N1123 H1127 0.985 1_545 S
H1124 N1119 0.984 . S
H1125 N1119 0.985 . S
H1126 N1123 0.984 . S
H1127 N1123 0.985 1_565 S
H1128 N1122 0.984 1_545 S
H1129 N1122 0.984 . S
H1130 N1118 0.984 . S
H1131 N1118 0.985 . S
C1132 C1133 1.363 . S
C1132 C1138 1.379 . S
C1132 N1140 1.356 . S
C1133 C1132 1.363 . S
C1133 C1139 1.363 . S
C1134 C1135 1.363 . S
C1134 C1139 1.379 . S
C1134 N1141 1.356 . S
C1135 C1134 1.363 . S
C1135 C1138 1.363 . S
N1136 C1138 1.356 . S
N1136 H1148 0.984 . S
N1136 H1149 0.985 . S
N1137 C1139 1.356 . S
N1137 H1142 0.984 . S
N1137 H1143 0.985 . S
C1138 C1132 1.379 . S
C1138 C1135 1.363 . S
C1138 N1136 1.356 . S
C1139 C1133 1.363 . S
C1139 C1134 1.379 . S
C1139 N1137 1.356 . S
N1140 C1132 1.356 . S
N1140 H1146 0.984 . S
N1140 H1147 0.984 . S
N1141 C1134 1.356 . S
N1141 H1144 0.984 . S
N1141 H1145 0.985 . S
H1142 N1137 0.984 . S
H1143 N1137 0.985 . S
H1144 N1141 0.984 . S
H1145 N1141 0.985 . S
H1146 N1140 0.984 . S
H1147 N1140 0.984 . S
H1148 N1136 0.984 . S
H1149 N1136 0.985 . S
C1150 C1151 1.363 . S
C1150 C1156 1.379 1_545 S
C1150 N1158 1.356 . S
C1151 C1150 1.363 . S
C1151 C1157 1.363 . S
C1152 C1153 1.363 . S
C1152 C1157 1.379 1_565 S
C1152 N1159 1.356 . S
C1153 C1152 1.363 . S
C1153 C1156 1.363 . S
N1154 C1156 1.356 . S
N1154 H1166 0.984 1_565 S
N1154 H1167 0.985 . S
N1155 C1157 1.356 . S
N1155 H1160 0.984 . S
N1155 H1161 0.984 1_545 S
C1156 C1150 1.379 1_565 S
C1156 C1153 1.363 . S
C1156 N1154 1.356 . S
C1157 C1151 1.363 . S
C1157 C1152 1.379 1_545 S
C1157 N1155 1.356 . S
N1158 C1150 1.356 . S
N1158 H1164 0.984 . S
N1158 H1165 0.984 . S
N1159 C1152 1.356 . S
N1159 H1162 0.984 . S
N1159 H1163 0.985 . S
H1160 N1155 0.984 . S
H1161 N1155 0.984 1_565 S
H1162 N1159 0.984 . S
H1163 N1159 0.985 . S
H1164 N1158 0.984 . S
H1165 N1158 0.984 . S
H1166 N1154 0.984 1_545 S
H1167 N1154 0.985 . S
C1168 C1169 1.363 . S
C1168 C1174 1.379 . S
C1168 N1176 1.356 . S
C1169 C1168 1.363 . S
C1169 C1175 1.363 . S
C1170 C1171 1.363 . S
C1170 C1175 1.379 . S
C1170 N1177 1.356 . S
C1171 C1170 1.363 . S
C1171 C1174 1.363 . S
N1172 C1174 1.356 . S
N1172 H1184 0.984 . S
N1172 H1185 0.985 . S
N1173 C1175 1.356 . S
N1173 H1178 0.984 . S
N1173 H1179 0.985 . S
C1174 C1168 1.379 . S
C1174 C1171 1.363 . S
C1174 N1172 1.356 . S
C1175 C1169 1.363 . S
C1175 C1170 1.379 . S
C1175 N1173 1.356 . S
N1176 C1168 1.356 . S
N1176 H1182 0.984 . S
N1176 H1183 0.984 . S
N1177 C1170 1.356 . S
N1177 H1180 0.984 . S
N1177 H1181 0.985 . S
H1178 N1173 0.984 . S
H1179 N1173 0.985 . S
H1180 N1177 0.984 . S
H1181 N1177 0.985 . S
H1182 N1176 0.984 . S
H1183 N1176 0.984 . S
H1184 N1172 0.984 . S
H1185 N1172 0.985 . S
C1186 C1187 1.363 . S
C1186 C1192 1.379 . S
C1186 N1194 1.356 . S
C1187 C1186 1.363 . S
C1187 C1193 1.363 . S
C1188 C1189 1.363 . S
C1188 C1193 1.379 . S
C1188 N1195 1.356 . S
C1189 C1188 1.363 . S
C1189 C1192 1.363 . S
N1190 C1192 1.356 . S
N1190 H1202 0.984 . S
N1190 H1203 0.985 . S
N1191 C1193 1.356 . S
N1191 H1196 0.984 . S
N1191 H1197 0.985 . S
C1192 C1186 1.379 . S
C1192 C1189 1.363 . S
C1192 N1190 1.356 . S
C1193 C1187 1.363 . S
C1193 C1188 1.379 . S
C1193 N1191 1.356 . S
N1194 C1186 1.356 . S
N1194 H1200 0.984 . S
N1194 H1201 0.984 . S
N1195 C1188 1.356 . S
N1195 H1198 0.984 . S
N1195 H1199 0.985 . S
H1196 N1191 0.984 . S
H1197 N1191 0.985 . S
H1198 N1195 0.984 . S
H1199 N1195 0.985 . S
H1200 N1194 0.984 . S
H1201 N1194 0.984 . S
H1202 N1190 0.984 . S
H1203 N1190 0.985 . S
C1204 C1205 1.363 . S
C1204 C1210 1.379 . S
C1204 N1212 1.356 . S
C1205 C1204 1.363 . S
C1205 C1211 1.363 1_554 S
C1206 C1207 1.363 . S
C1206 C1211 1.379 . S
C1206 N1213 1.356 . S
C1207 C1206 1.363 . S
C1207 C1210 1.363 1_556 S
N1208 C1210 1.356 . S
N1208 H1220 0.984 . S
N1208 H1221 0.985 1_554 S
N1209 C1211 1.356 . S
N1209 H1214 0.984 1_556 S
N1209 H1215 0.985 . S
C1210 C1204 1.379 . S
C1210 C1207 1.363 1_554 S
C1210 N1208 1.356 . S
C1211 C1205 1.363 1_556 S
C1211 C1206 1.379 . S
C1211 N1209 1.356 . S
N1212 C1204 1.356 . S
N1212 H1218 0.984 . S
N1212 H1219 0.984 . S
N1213 C1206 1.356 . S
N1213 H1216 0.984 . S
N1213 H1217 0.985 . S
H1214 N1209 0.984 1_554 S
H1215 N1209 0.985 . S
H1216 N1213 0.984 . S
H1217 N1213 0.985 . S
H1218 N1212 0.984 . S
H1219 N1212 0.984 . S
H1220 N1208 0.984 . S
H1221 N1208 0.985 1_556 S
C1222 C1223 1.363 . S
C1222 C1228 1.379 . S
C1222 N1230 1.356 . S
C1223 C1222 1.363 . S
C1223 C1229 1.363 . S
C1224 C1225 1.363 . S
C1224 C1229 1.379 . S
C1224 N1231 1.356 . S
C1225 C1224 1.363 . S
C1225 C1228 1.363 . S
N1226 C1228 1.356 . S
N1226 H1238 0.984 . S
N1226 H1239 0.985 . S
N1227 C1229 1.356 . S
N1227 H1232 0.984 . S
N1227 H1233 0.985 . S
C1228 C1222 1.379 . S
C1228 C1225 1.363 . S
C1228 N1226 1.356 . S
C1229 C1223 1.363 . S
C1229 C1224 1.379 . S
C1229 N1227 1.356 . S
N1230 C1222 1.356 . S
N1230 H1236 0.984 . S
N1230 H1237 0.984 . S
N1231 C1224 1.356 . S
N1231 H1234 0.984 . S
N1231 H1235 0.985 . S
H1232 N1227 0.984 . S
H1233 N1227 0.985 . S
H1234 N1231 0.984 . S
H1235 N1231 0.985 . S
H1236 N1230 0.984 . S
H1237 N1230 0.984 . S
H1238 N1226 0.984 . S
H1239 N1226 0.985 . S
C1240 C1241 1.363 . S
C1240 C1246 1.379 . S
C1240 N1248 1.356 . S
C1241 C1240 1.363 . S
C1241 C1247 1.363 . S
C1242 C1243 1.363 . S
C1242 C1247 1.379 . S
C1242 N1249 1.356 . S
C1243 C1242 1.363 . S
C1243 C1246 1.363 . S
N1244 C1246 1.356 . S
N1244 H1256 0.984 . S
N1244 H1257 0.985 . S
N1245 C1247 1.356 . S
N1245 H1250 0.984 . S
N1245 H1251 0.985 . S
C1246 C1240 1.379 . S
C1246 C1243 1.363 . S
C1246 N1244 1.356 . S
C1247 C1241 1.363 . S
C1247 C1242 1.379 . S
C1247 N1245 1.356 . S
N1248 C1240 1.356 . S
N1248 H1254 0.984 . S
N1248 H1255 0.984 . S
N1249 C1242 1.356 . S
N1249 H1252 0.984 . S
N1249 H1253 0.985 . S
H1250 N1245 0.984 . S
H1251 N1245 0.985 . S
H1252 N1249 0.984 . S
H1253 N1249 0.985 . S
H1254 N1248 0.984 . S
H1255 N1248 0.984 . S
H1256 N1244 0.984 . S
H1257 N1244 0.985 . S
C1258 C1259 1.363 . S
C1258 C1264 1.379 . S
C1258 N1266 1.356 . S
C1259 C1258 1.363 . S
C1259 C1265 1.363 . S
C1260 C1261 1.363 . S
C1260 C1265 1.379 . S
C1260 N1267 1.356 . S
C1261 C1260 1.363 . S
C1261 C1264 1.363 . S
N1262 C1264 1.356 . S
N1262 H1274 0.984 . S
N1262 H1275 0.985 . S
N1263 C1265 1.356 . S
N1263 H1268 0.984 . S
N1263 H1269 0.985 . S
C1264 C1258 1.379 . S
C1264 C1261 1.363 . S
C1264 N1262 1.356 . S
C1265 C1259 1.363 . S
C1265 C1260 1.379 . S
C1265 N1263 1.356 . S
N1266 C1258 1.356 . S
N1266 H1272 0.984 . S
N1266 H1273 0.984 . S
N1267 C1260 1.356 . S
N1267 H1270 0.984 . S
N1267 H1271 0.985 . S
H1268 N1263 0.984 . S
H1269 N1263 0.985 . S
H1270 N1267 0.984 . S
H1271 N1267 0.985 . S
H1272 N1266 0.984 . S
H1273 N1266 0.984 . S
H1274 N1262 0.984 . S
H1275 N1262 0.985 . S
C1276 C1277 1.363 . S
C1276 C1282 1.379 . S
C1276 N1284 1.356 . S
C1277 C1276 1.363 . S
C1277 C1283 1.363 1_556 S
C1278 C1279 1.363 . S
C1278 C1283 1.379 . S
C1278 N1285 1.356 . S
C1279 C1278 1.363 . S
C1279 C1282 1.363 1_554 S
N1280 C1282 1.356 . S
N1280 H1292 0.984 . S
N1280 H1293 0.985 1_556 S
N1281 C1283 1.356 . S
N1281 H1286 0.984 1_554 S
N1281 H1287 0.985 . S
C1282 C1276 1.379 . S
C1282 C1279 1.363 1_556 S
C1282 N1280 1.356 . S
C1283 C1277 1.363 1_554 S
C1283 C1278 1.379 . S
C1283 N1281 1.356 . S
N1284 C1276 1.356 . S
N1284 H1290 0.984 . S
N1284 H1291 0.984 . S
N1285 C1278 1.356 . S
N1285 H1288 0.984 . S
N1285 H1289 0.985 . S
H1286 N1281 0.984 1_556 S
H1287 N1281 0.985 . S
H1288 N1285 0.984 . S
H1289 N1285 0.985 . S
H1290 N1284 0.984 . S
H1291 N1284 0.984 . S
H1292 N1280 0.984 . S
H1293 N1280 0.985 1_554 S
C1294 C1295 1.363 . S
C1294 C1300 1.379 . S
C1294 N1302 1.356 . S
C1295 C1294 1.363 . S
C1295 C1301 1.363 . S
C1296 C1297 1.363 . S
C1296 C1301 1.379 . S
C1296 N1303 1.356 . S
C1297 C1296 1.363 . S
C1297 C1300 1.363 . S
N1298 C1300 1.356 . S
N1298 H1310 0.984 . S
N1298 H1311 0.985 . S
N1299 C1301 1.356 . S
N1299 H1304 0.984 . S
N1299 H1305 0.985 . S
C1300 C1294 1.379 . S
C1300 C1297 1.363 . S
C1300 N1298 1.356 . S
C1301 C1295 1.363 . S
C1301 C1296 1.379 . S
C1301 N1299 1.356 . S
N1302 C1294 1.356 . S
N1302 H1308 0.984 . S
N1302 H1309 0.984 . S
N1303 C1296 1.356 . S
N1303 H1306 0.984 . S
N1303 H1307 0.985 . S
H1304 N1299 0.984 . S
H1305 N1299 0.985 . S
H1306 N1303 0.984 . S
H1307 N1303 0.985 . S
H1308 N1302 0.984 . S
H1309 N1302 0.984 . S
H1310 N1298 0.984 . S
H1311 N1298 0.985 . S
C1312 C1313 1.363 . S
C1312 C1318 1.379 . S
C1312 N1320 1.356 . S
C1313 C1312 1.363 . S
C1313 C1319 1.363 . S
C1314 C1315 1.363 . S
C1314 C1319 1.379 . S
C1314 N1321 1.356 . S
C1315 C1314 1.363 . S
C1315 C1318 1.363 . S
N1316 C1318 1.356 . S
N1316 H1328 0.984 . S
N1316 H1329 0.985 . S
N1317 C1319 1.356 . S
N1317 H1322 0.984 . S
N1317 H1323 0.985 . S
C1318 C1312 1.379 . S
C1318 C1315 1.363 . S
C1318 N1316 1.356 . S
C1319 C1313 1.363 . S
C1319 C1314 1.379 . S
C1319 N1317 1.356 . S
N1320 C1312 1.356 . S
N1320 H1326 0.984 . S
N1320 H1327 0.984 . S
N1321 C1314 1.356 . S
N1321 H1324 0.984 . S
N1321 H1325 0.985 . S
H1322 N1317 0.984 . S
H1323 N1317 0.985 . S
H1324 N1321 0.984 . S
H1325 N1321 0.985 . S
H1326 N1320 0.984 . S
H1327 N1320 0.984 . S
H1328 N1316 0.984 . S
H1329 N1316 0.985 . S
C1330 C1331 1.363 . S
C1330 C1336 1.379 . S
C1330 N1338 1.356 . S
C1331 C1330 1.363 . S
C1331 C1337 1.363 . S
C1332 C1333 1.363 . S
C1332 C1337 1.379 . S
C1332 N1339 1.356 . S
C1333 C1332 1.363 . S
C1333 C1336 1.363 . S
N1334 C1336 1.356 . S
N1334 H1346 0.984 . S
N1334 H1347 0.985 . S
N1335 C1337 1.356 . S
N1335 H1340 0.984 . S
N1335 H1341 0.985 . S
C1336 C1330 1.379 . S
C1336 C1333 1.363 . S
C1336 N1334 1.356 . S
C1337 C1331 1.363 . S
C1337 C1332 1.379 . S
C1337 N1335 1.356 . S
N1338 C1330 1.356 . S
N1338 H1344 0.984 . S
N1338 H1345 0.984 . S
N1339 C1332 1.356 . S
N1339 H1342 0.984 . S
N1339 H1343 0.985 . S
H1340 N1335 0.984 . S
H1341 N1335 0.985 . S
H1342 N1339 0.984 . S
H1343 N1339 0.985 . S
H1344 N1338 0.984 . S
H1345 N1338 0.984 . S
H1346 N1334 0.984 . S
H1347 N1334 0.985 . S
C1348 C1349 1.363 . S
C1348 C1354 1.379 . S
C1348 N1356 1.356 . S
C1349 C1348 1.363 . S
C1349 C1355 1.363 . S
C1350 C1351 1.363 . S
C1350 C1355 1.379 . S
C1350 N1357 1.356 . S
C1351 C1350 1.363 . S
C1351 C1354 1.363 . S
N1352 C1354 1.356 . S
N1352 H1364 0.984 . S
N1352 H1365 0.985 . S
N1353 C1355 1.356 . S
N1353 H1358 0.984 . S
N1353 H1359 0.985 . S
C1354 C1348 1.379 . S
C1354 C1351 1.363 . S
C1354 N1352 1.356 . S
C1355 C1349 1.363 . S
C1355 C1350 1.379 . S
C1355 N1353 1.356 . S
N1356 C1348 1.356 . S
N1356 H1362 0.984 . S
N1356 H1363 0.984 . S
N1357 C1350 1.356 . S
N1357 H1360 0.984 . S
N1357 H1361 0.985 . S
H1358 N1353 0.984 . S
H1359 N1353 0.985 . S
H1360 N1357 0.984 . S
H1361 N1357 0.985 . S
H1362 N1356 0.984 . S
H1363 N1356 0.984 . S
H1364 N1352 0.984 . S
H1365 N1352 0.985 . S
C1366 C1367 1.363 . S
C1366 C1372 1.379 . S
C1366 N1374 1.356 . S
C1367 C1366 1.363 . S
C1367 C1373 1.363 . S
C1368 C1369 1.363 . S
C1368 C1373 1.379 . S
C1368 N1375 1.356 . S
C1369 C1368 1.363 . S
C1369 C1372 1.363 . S
N1370 C1372 1.356 . S
N1370 H1382 0.984 . S
N1370 H1383 0.985 . S
N1371 C1373 1.356 . S
N1371 H1376 0.984 . S
N1371 H1377 0.985 . S
C1372 C1366 1.379 . S
C1372 C1369 1.363 . S
C1372 N1370 1.356 . S
C1373 C1367 1.363 . S
C1373 C1368 1.379 . S
C1373 N1371 1.356 . S
N1374 C1366 1.356 . S
N1374 H1380 0.984 . S
N1374 H1381 0.984 . S
N1375 C1368 1.356 . S
N1375 H1378 0.984 . S
N1375 H1379 0.985 . S
H1376 N1371 0.984 . S
H1377 N1371 0.985 . S
H1378 N1375 0.984 . S
H1379 N1375 0.985 . S
H1380 N1374 0.984 . S
H1381 N1374 0.984 . S
H1382 N1370 0.984 . S
H1383 N1370 0.985 . S
C1384 C1385 1.363 . S
C1384 C1390 1.379 . S
C1384 N1392 1.356 . S
C1385 C1384 1.363 . S
C1385 C1391 1.363 . S
C1386 C1387 1.363 . S
C1386 C1391 1.379 . S
C1386 N1393 1.356 . S
C1387 C1386 1.363 . S
C1387 C1390 1.363 . S
N1388 C1390 1.356 . S
N1388 H1400 0.984 . S
N1388 H1401 0.985 . S
N1389 C1391 1.356 . S
N1389 H1394 0.984 . S
N1389 H1395 0.985 . S
C1390 C1384 1.379 . S
C1390 C1387 1.363 . S
C1390 N1388 1.356 . S
C1391 C1385 1.363 . S
C1391 C1386 1.379 . S
C1391 N1389 1.356 . S
N1392 C1384 1.356 . S
N1392 H1398 0.984 . S
N1392 H1399 0.984 . S
N1393 C1386 1.356 . S
N1393 H1396 0.984 . S
N1393 H1397 0.985 . S
H1394 N1389 0.984 . S
H1395 N1389 0.985 . S
H1396 N1393 0.984 . S
H1397 N1393 0.985 . S
H1398 N1392 0.984 . S
H1399 N1392 0.984 . S
H1400 N1388 0.984 . S
H1401 N1388 0.985 . S
C1402 C1403 1.363 . S
C1402 C1408 1.379 . S
C1402 N1410 1.356 . S
C1403 C1402 1.363 . S
C1403 C1409 1.363 . S
C1404 C1405 1.363 . S
C1404 C1409 1.379 . S
C1404 N1411 1.356 . S
C1405 C1404 1.363 . S
C1405 C1408 1.363 . S
N1406 C1408 1.356 . S
N1406 H1418 0.984 . S
N1406 H1419 0.985 . S
N1407 C1409 1.356 . S
N1407 H1412 0.984 . S
N1407 H1413 0.985 . S
C1408 C1402 1.379 . S
C1408 C1405 1.363 . S
C1408 N1406 1.356 . S
C1409 C1403 1.363 . S
C1409 C1404 1.379 . S
C1409 N1407 1.356 . S
N1410 C1402 1.356 . S
N1410 H1416 0.984 . S
N1410 H1417 0.984 . S
N1411 C1404 1.356 . S
N1411 H1414 0.984 . S
N1411 H1415 0.985 . S
H1412 N1407 0.984 . S
H1413 N1407 0.985 . S
H1414 N1411 0.984 . S
H1415 N1411 0.985 . S
H1416 N1410 0.984 . S
H1417 N1410 0.984 . S
H1418 N1406 0.984 . S
H1419 N1406 0.985 . S
C1420 C1421 1.363 . S
C1420 C1426 1.379 . S
C1420 N1428 1.356 . S
C1421 C1420 1.363 . S
C1421 C1427 1.363 . S
C1422 C1423 1.363 . S
C1422 C1427 1.379 . S
C1422 N1429 1.356 . S
C1423 C1422 1.363 . S
C1423 C1426 1.363 . S
N1424 C1426 1.356 . S
N1424 H1436 0.984 . S
N1424 H1437 0.985 . S
N1425 C1427 1.356 . S
N1425 H1430 0.984 . S
N1425 H1431 0.985 . S
C1426 C1420 1.379 . S
C1426 C1423 1.363 . S
C1426 N1424 1.356 . S
C1427 C1421 1.363 . S
C1427 C1422 1.379 . S
C1427 N1425 1.356 . S
N1428 C1420 1.356 . S
N1428 H1434 0.984 . S
N1428 H1435 0.984 . S
N1429 C1422 1.356 . S
N1429 H1432 0.984 . S
N1429 H1433 0.985 . S
H1430 N1425 0.984 . S
H1431 N1425 0.985 . S
H1432 N1429 0.984 . S
H1433 N1429 0.985 . S
H1434 N1428 0.984 . S
H1435 N1428 0.984 . S
H1436 N1424 0.984 . S
H1437 N1424 0.985 . S
C1438 C1439 1.363 . S
C1438 C1444 1.379 . S
C1438 N1446 1.356 . S
C1439 C1438 1.363 . S
C1439 C1445 1.363 . S
C1440 C1441 1.363 . S
C1440 C1445 1.379 . S
C1440 N1447 1.356 . S
C1441 C1440 1.363 . S
C1441 C1444 1.363 . S
N1442 C1444 1.356 . S
N1442 H1454 0.984 . S
N1442 H1455 0.985 . S
N1443 C1445 1.356 . S
N1443 H1448 0.984 . S
N1443 H1449 0.985 . S
C1444 C1438 1.379 . S
C1444 C1441 1.363 . S
C1444 N1442 1.356 . S
C1445 C1439 1.363 . S
C1445 C1440 1.379 . S
C1445 N1443 1.356 . S
N1446 C1438 1.356 . S
N1446 H1452 0.984 . S
N1446 H1453 0.984 . S
N1447 C1440 1.356 . S
N1447 H1450 0.984 . S
N1447 H1451 0.985 . S
H1448 N1443 0.984 . S
H1449 N1443 0.985 . S
H1450 N1447 0.984 . S
H1451 N1447 0.985 . S
H1452 N1446 0.984 . S
H1453 N1446 0.984 . S
H1454 N1442 0.984 . S
H1455 N1442 0.985 . S
C1456 C1457 1.363 . S
C1456 C1462 1.379 . S
C1456 N1464 1.356 . S
C1457 C1456 1.363 . S
C1457 C1463 1.363 . S
C1458 C1459 1.363 . S
C1458 C1463 1.379 . S
C1458 N1465 1.356 . S
C1459 C1458 1.363 . S
C1459 C1462 1.363 . S
N1460 C1462 1.356 . S
N1460 H1472 0.984 . S
N1460 H1473 0.985 . S
N1461 C1463 1.356 . S
N1461 H1466 0.984 . S
N1461 H1467 0.985 . S
C1462 C1456 1.379 . S
C1462 C1459 1.363 . S
C1462 N1460 1.356 . S
C1463 C1457 1.363 . S
C1463 C1458 1.379 . S
C1463 N1461 1.356 . S
N1464 C1456 1.356 . S
N1464 H1470 0.984 . S
N1464 H1471 0.984 . S
N1465 C1458 1.356 . S
N1465 H1468 0.984 . S
N1465 H1469 0.985 . S
H1466 N1461 0.984 . S
H1467 N1461 0.985 . S
H1468 N1465 0.984 . S
H1469 N1465 0.985 . S
H1470 N1464 0.984 . S
H1471 N1464 0.984 . S
H1472 N1460 0.984 . S
H1473 N1460 0.985 . S
C1474 C1475 1.363 . S
C1474 C1480 1.379 . S
C1474 N1482 1.356 . S
C1475 C1474 1.363 . S
C1475 C1481 1.363 . S
C1476 C1477 1.363 . S
C1476 C1481 1.379 . S
C1476 N1483 1.356 . S
C1477 C1476 1.363 . S
C1477 C1480 1.363 . S
N1478 C1480 1.356 . S
N1478 H1490 0.984 . S
N1478 H1491 0.985 . S
N1479 C1481 1.356 . S
N1479 H1484 0.984 . S
N1479 H1485 0.985 . S
C1480 C1474 1.379 . S
C1480 C1477 1.363 . S
C1480 N1478 1.356 . S
C1481 C1475 1.363 . S
C1481 C1476 1.379 . S
C1481 N1479 1.356 . S
N1482 C1474 1.356 . S
N1482 H1488 0.984 . S
N1482 H1489 0.984 . S
N1483 C1476 1.356 . S
N1483 H1486 0.984 . S
N1483 H1487 0.985 . S
H1484 N1479 0.984 . S
H1485 N1479 0.985 . S
H1486 N1483 0.984 . S
H1487 N1483 0.985 . S
H1488 N1482 0.984 . S
H1489 N1482 0.984 . S
H1490 N1478 0.984 . S
H1491 N1478 0.985 . S
C1492 C1493 1.363 . S
C1492 C1498 1.379 . S
C1492 N1500 1.356 . S
C1493 C1492 1.363 . S
C1493 C1499 1.363 . S
C1494 C1495 1.363 . S
C1494 C1499 1.379 . S
C1494 N1501 1.356 . S
C1495 C1494 1.363 . S
C1495 C1498 1.363 . S
N1496 C1498 1.356 . S
N1496 H1508 0.984 . S
N1496 H1509 0.985 . S
N1497 C1499 1.356 . S
N1497 H1502 0.984 . S
N1497 H1503 0.985 . S
C1498 C1492 1.379 . S
C1498 C1495 1.363 . S
C1498 N1496 1.356 . S
C1499 C1493 1.363 . S
C1499 C1494 1.379 . S
C1499 N1497 1.356 . S
N1500 C1492 1.356 . S
N1500 H1506 0.984 . S
N1500 H1507 0.984 . S
N1501 C1494 1.356 . S
N1501 H1504 0.984 . S
N1501 H1505 0.985 . S
H1502 N1497 0.984 . S
H1503 N1497 0.985 . S
H1504 N1501 0.984 . S
H1505 N1501 0.985 . S
H1506 N1500 0.984 . S
H1507 N1500 0.984 . S
H1508 N1496 0.984 . S
H1509 N1496 0.985 . S
C1510 C1511 1.363 . S
C1510 C1516 1.379 . S
C1510 N1518 1.356 . S
C1511 C1510 1.363 . S
C1511 C1517 1.363 . S
C1512 C1513 1.363 . S
C1512 C1517 1.379 . S
C1512 N1519 1.356 . S
C1513 C1512 1.363 . S
C1513 C1516 1.363 . S
N1514 C1516 1.356 . S
N1514 H1526 0.984 . S
N1514 H1527 0.985 . S
N1515 C1517 1.356 . S
N1515 H1520 0.984 . S
N1515 H1521 0.985 . S
C1516 C1510 1.379 . S
C1516 C1513 1.363 . S
C1516 N1514 1.356 . S
C1517 C1511 1.363 . S
C1517 C1512 1.379 . S
C1517 N1515 1.356 . S
N1518 C1510 1.356 . S
N1518 H1524 0.984 . S
N1518 H1525 0.984 . S
N1519 C1512 1.356 . S
N1519 H1522 0.984 . S
N1519 H1523 0.985 . S
H1520 N1515 0.984 . S
H1521 N1515 0.985 . S
H1522 N1519 0.984 . S
H1523 N1519 0.985 . S
H1524 N1518 0.984 . S
H1525 N1518 0.984 . S
H1526 N1514 0.984 . S
H1527 N1514 0.985 . S
C1528 C1529 1.363 . S
C1528 C1534 1.379 . S
C1528 N1536 1.356 . S
C1529 C1528 1.363 . S
C1529 C1535 1.363 . S
C1530 C1531 1.363 . S
C1530 C1535 1.379 . S
C1530 N1537 1.356 . S
C1531 C1530 1.363 . S
C1531 C1534 1.363 . S
N1532 C1534 1.356 . S
N1532 H1544 0.984 . S
N1532 H1545 0.985 . S
N1533 C1535 1.356 . S
N1533 H1538 0.984 . S
N1533 H1539 0.985 . S
C1534 C1528 1.379 . S
C1534 C1531 1.363 . S
C1534 N1532 1.356 . S
C1535 C1529 1.363 . S
C1535 C1530 1.379 . S
C1535 N1533 1.356 . S
N1536 C1528 1.356 . S
N1536 H1542 0.984 . S
N1536 H1543 0.984 . S
N1537 C1530 1.356 . S
N1537 H1540 0.984 . S
N1537 H1541 0.985 . S
H1538 N1533 0.984 . S
H1539 N1533 0.985 . S
H1540 N1537 0.984 . S
H1541 N1537 0.985 . S
H1542 N1536 0.984 . S
H1543 N1536 0.984 . S
H1544 N1532 0.984 . S
H1545 N1532 0.985 . S
C1546 C1547 1.363 . S
C1546 C1552 1.379 . S
C1546 N1554 1.356 . S
C1547 C1546 1.363 . S
C1547 C1553 1.363 . S
C1548 C1549 1.363 . S
C1548 C1553 1.379 . S
C1548 N1555 1.356 . S
C1549 C1548 1.363 . S
C1549 C1552 1.363 . S
N1550 C1552 1.356 . S
N1550 H1562 0.984 . S
N1550 H1563 0.985 . S
N1551 C1553 1.356 . S
N1551 H1556 0.984 . S
N1551 H1557 0.985 . S
C1552 C1546 1.379 . S
C1552 C1549 1.363 . S
C1552 N1550 1.356 . S
C1553 C1547 1.363 . S
C1553 C1548 1.379 . S
C1553 N1551 1.356 . S
N1554 C1546 1.356 . S
N1554 H1560 0.984 . S
N1554 H1561 0.984 . S
N1555 C1548 1.356 . S
N1555 H1558 0.984 . S
N1555 H1559 0.985 . S
H1556 N1551 0.984 . S
H1557 N1551 0.985 . S
H1558 N1555 0.984 . S
H1559 N1555 0.985 . S
H1560 N1554 0.984 . S
H1561 N1554 0.984 . S
H1562 N1550 0.984 . S
H1563 N1550 0.985 . S
C1564 C1565 1.363 . S
C1564 C1570 1.379 . S
C1564 N1572 1.356 . S
C1565 C1564 1.363 . S
C1565 C1571 1.363 . S
C1566 C1567 1.363 . S
C1566 C1571 1.379 . S
C1566 N1573 1.356 . S
C1567 C1566 1.363 . S
C1567 C1570 1.363 . S
N1568 C1570 1.356 . S
N1568 H1580 0.984 . S
N1568 H1581 0.985 . S
N1569 C1571 1.356 . S
N1569 H1574 0.984 . S
N1569 H1575 0.985 . S
C1570 C1564 1.379 . S
C1570 C1567 1.363 . S
C1570 N1568 1.356 . S
C1571 C1565 1.363 . S
C1571 C1566 1.379 . S
C1571 N1569 1.356 . S
N1572 C1564 1.356 . S
N1572 H1578 0.984 . S
N1572 H1579 0.984 . S
N1573 C1566 1.356 . S
N1573 H1576 0.984 . S
N1573 H1577 0.985 . S
H1574 N1569 0.984 . S
H1575 N1569 0.985 . S
H1576 N1573 0.984 . S
H1577 N1573 0.985 . S
H1578 N1572 0.984 . S
H1579 N1572 0.984 . S
H1580 N1568 0.984 . S
H1581 N1568 0.985 . S
C1582 C1583 1.363 . S
C1582 C1588 1.379 . S
C1582 N1590 1.356 . S
C1583 C1582 1.363 . S
C1583 C1589 1.363 . S
C1584 C1585 1.363 . S
C1584 C1589 1.379 . S
C1584 N1591 1.356 . S
C1585 C1584 1.363 . S
C1585 C1588 1.363 . S
N1586 C1588 1.356 . S
N1586 H1598 0.984 . S
N1586 H1599 0.985 . S
N1587 C1589 1.356 . S
N1587 H1592 0.984 . S
N1587 H1593 0.985 . S
C1588 C1582 1.379 . S
C1588 C1585 1.363 . S
C1588 N1586 1.356 . S
C1589 C1583 1.363 . S
C1589 C1584 1.379 . S
C1589 N1587 1.356 . S
N1590 C1582 1.356 . S
N1590 H1596 0.984 . S
N1590 H1597 0.984 . S
N1591 C1584 1.356 . S
N1591 H1594 0.984 . S
N1591 H1595 0.985 . S
H1592 N1587 0.984 . S
H1593 N1587 0.985 . S
H1594 N1591 0.984 . S
H1595 N1591 0.985 . S
H1596 N1590 0.984 . S
H1597 N1590 0.984 . S
H1598 N1586 0.984 . S
H1599 N1586 0.985 . S
C449 C121 1.575 . S
C451 C9 1.575 . S
C467 C359 1.575 . S
C469 C23 1.575 . S
C485 C149 1.575 . S
C487 C37 1.575 . S
C503 C387 1.575 . S
C505 C51 1.575 . S
C521 C177 1.575 . S
C523 C65 1.575 . S
C539 C79 1.575 . S
C541 C415 1.575 . S
C557 C93 1.575 . S
C559 C205 1.575 . S
C575 C107 1.575 . S
C577 C443 1.575 . S
C593 C247 1.575 . S
C595 C135 1.575 . S
C611 C275 1.575 . S
C613 C163 1.575 . S
C629 C191 1.575 . S
C631 C303 1.575 . S
C647 C219 1.575 . S
C649 C331 1.575 . S
C665 C233 1.575 . S
C667 C345 1.575 . S
C683 C373 1.575 . S
C685 C261 1.575 . S
C701 C289 1.575 . S
C703 C401 1.575 . S
C719 C429 1.575 . S
C721 C317 1.575 . S
C737 C257 1.606 . S
C739 C5 1.606 . S
C755 C271 1.606 . S
C757 C19 1.606 . S
C773 C33 1.606 . S
C775 C229 1.606 . S
C791 C47 1.606 . S
C793 C243 1.606 . S
C809 C313 1.606 . S
C811 C61 1.606 . S
C827 C75 1.606 . S
C829 C327 1.606 . S
C845 C285 1.606 . S
C847 C89 1.606 . S
C863 C299 1.606 . S
C865 C103 1.606 . S
C881 C117 1.606 . S
C883 C369 1.606 . S
C899 C383 1.606 . S
C901 C131 1.606 . S
C917 C145 1.606 . S
C919 C341 1.606 . S
C935 C159 1.606 . S
C937 C355 1.606 . S
C953 C173 1.606 . S
C955 C425 1.606 . S
C971 C187 1.606 . S
C973 C439 1.606 . S
C989 C397 1.606 . S
C991 C201 1.606 . S
C1007 C411 1.606 . S
C1009 C215 1.606 . S
C1025 C95 1.462 . S
C1027 C11 1.462 . S
C1043 C109 1.462 . S
C1045 C25 1.462 . S
C1061 C67 1.462 . S
C1063 C39 1.462 . S
C1079 C53 1.462 . S
C1081 C81 1.462 . S
C1097 C207 1.462 . S
C1099 C123 1.462 . S
C1115 C221 1.462 . S
C1117 C137 1.462 . S
C1133 C179 1.462 . S
C1135 C151 1.462 . S
C1151 C193 1.462 . S
C1153 C165 1.462 . S
C1169 C319 1.462 . S
C1171 C235 1.462 . S
C1187 C333 1.462 . S
C1189 C249 1.462 . S
C1205 C263 1.462 . S
C1207 C291 1.462 . S
C1223 C277 1.462 . S
C1225 C305 1.462 . S
C1241 C431 1.462 . S
C1243 C347 1.462 . S
C1259 C445 1.462 . S
C1261 C361 1.462 . S
C1277 C375 1.462 . S
C1279 C403 1.462 . S
C1295 C389 1.462 . S
C1297 C417 1.462 . S
C1313 C0 1.436 . S
C1315 C294 1.436 . S
C1331 C308 1.436 . S
C1333 C14 1.436 . S
C1349 C322 1.436 . S
C1351 C28 1.436 . S
C1367 C42 1.436 . S
C1369 C280 1.436 . S
C1385 C266 1.436 . S
C1387 C56 1.436 . S
C1403 C70 1.436 . S
C1405 C224 1.436 . S
C1421 C238 1.436 . S
C1423 C84 1.436 . S
C1439 C98 1.436 . S
C1441 C252 1.436 . S
C1457 C406 1.436 . S
C1459 C112 1.436 . S
C1475 C420 1.436 . S
C1477 C126 1.436 . S
C1493 C140 1.436 . S
C1495 C434 1.436 . S
C1511 C392 1.436 . S
C1513 C154 1.436 . S
C1529 C378 1.436 . S
C1531 C168 1.436 . S
C1547 C182 1.436 . S
C1549 C336 1.436 . S
C1565 C350 1.436 . S
C1567 C196 1.436 . S
C1583 C210 1.436 . S
C1585 C364 1.436 . S
