# Generated by pormake.
# Topology pcl, (4)-cn, num edge types: 1
# Building blocks:
#     Node 0, Type 0, BuildingBlock: CEKHIL_clean_sbu_0, # of connection points: 4
#     Node 1, Type 0, BuildingBlock: CEKHIL_clean_sbu_0, # of connection points: 4
#     Node 2, Type 0, BuildingBlock: CEKHIL_clean_sbu_0, # of connection points: 4
#     Node 3, Type 0, BuildingBlock: CEKHIL_clean_sbu_0, # of connection points: 4
#     Node 4, Type 0, BuildingBlock: CEKHIL_clean_sbu_0, # of connection points: 4
#     Node 5, Type 0, BuildingBlock: CEKHIL_clean_sbu_0, # of connection points: 4
#     Node 6, Type 0, BuildingBlock: CEKHIL_clean_sbu_0, # of connection points: 4
#     Node 7, Type 0, BuildingBlock: CEKHIL_clean_sbu_0, # of connection points: 4
#     Node 8, Type 0, BuildingBlock: CEKHIL_clean_sbu_0, # of connection points: 4
#     Node 9, Type 0, BuildingBlock: CEKHIL_clean_sbu_0, # of connection points: 4
#     Node 10, Type 0, BuildingBlock: CEKHIL_clean_sbu_0, # of connection points: 4
#     Node 11, Type 0, BuildingBlock: CEKHIL_clean_sbu_0, # of connection points: 4
#     Node 12, Type 0, BuildingBlock: CEKHIL_clean_sbu_0, # of connection points: 4
#     Node 13, Type 0, BuildingBlock: CEKHIL_clean_sbu_0, # of connection points: 4
#     Node 14, Type 0, BuildingBlock: CEKHIL_clean_sbu_0, # of connection points: 4
#     Node 15, Type 0, BuildingBlock: CEKHIL_clean_sbu_0, # of connection points: 4
#     Edge 16, Type (0, 0), BuildingBlock: KIFKEQ_clean_linker_1, # of connection points: 2
#     Edge 17, Type (0, 0), BuildingBlock: KIFKEQ_clean_linker_1, # of connection points: 2
#     Edge 18, Type (0, 0), BuildingBlock: KIFKEQ_clean_linker_1, # of connection points: 2
#     Edge 19, Type (0, 0), BuildingBlock: KIFKEQ_clean_linker_1, # of connection points: 2
#     Edge 20, Type (0, 0), BuildingBlock: KIFKEQ_clean_linker_1, # of connection points: 2
#     Edge 21, Type (0, 0), BuildingBlock: KIFKEQ_clean_linker_1, # of connection points: 2
#     Edge 22, Type (0, 0), BuildingBlock: KIFKEQ_clean_linker_1, # of connection points: 2
#     Edge 23, Type (0, 0), BuildingBlock: KIFKEQ_clean_linker_1, # of connection points: 2
#     Edge 24, Type (0, 0), BuildingBlock: KIFKEQ_clean_linker_1, # of connection points: 2
#     Edge 25, Type (0, 0), BuildingBlock: KIFKEQ_clean_linker_1, # of connection points: 2
#     Edge 26, Type (0, 0), BuildingBlock: KIFKEQ_clean_linker_1, # of connection points: 2
#     Edge 27, Type (0, 0), BuildingBlock: KIFKEQ_clean_linker_1, # of connection points: 2
#     Edge 28, Type (0, 0), BuildingBlock: KIFKEQ_clean_linker_1, # of connection points: 2
#     Edge 29, Type (0, 0), BuildingBlock: KIFKEQ_clean_linker_1, # of connection points: 2
#     Edge 30, Type (0, 0), BuildingBlock: KIFKEQ_clean_linker_1, # of connection points: 2
#     Edge 31, Type (0, 0), BuildingBlock: KIFKEQ_clean_linker_1, # of connection points: 2
#     Edge 32, Type (0, 0), BuildingBlock: KIFKEQ_clean_linker_1, # of connection points: 2
#     Edge 33, Type (0, 0), BuildingBlock: KIFKEQ_clean_linker_1, # of connection points: 2
#     Edge 34, Type (0, 0), BuildingBlock: KIFKEQ_clean_linker_1, # of connection points: 2
#     Edge 35, Type (0, 0), BuildingBlock: KIFKEQ_clean_linker_1, # of connection points: 2
#     Edge 36, Type (0, 0), BuildingBlock: KIFKEQ_clean_linker_1, # of connection points: 2
#     Edge 37, Type (0, 0), BuildingBlock: KIFKEQ_clean_linker_1, # of connection points: 2
#     Edge 38, Type (0, 0), BuildingBlock: KIFKEQ_clean_linker_1, # of connection points: 2
#     Edge 39, Type (0, 0), BuildingBlock: KIFKEQ_clean_linker_1, # of connection points: 2
#     Edge 40, Type (0, 0), BuildingBlock: KIFKEQ_clean_linker_1, # of connection points: 2
#     Edge 41, Type (0, 0), BuildingBlock: KIFKEQ_clean_linker_1, # of connection points: 2
#     Edge 42, Type (0, 0), BuildingBlock: KIFKEQ_clean_linker_1, # of connection points: 2
#     Edge 43, Type (0, 0), BuildingBlock: KIFKEQ_clean_linker_1, # of connection points: 2
#     Edge 44, Type (0, 0), BuildingBlock: KIFKEQ_clean_linker_1, # of connection points: 2
#     Edge 45, Type (0, 0), BuildingBlock: KIFKEQ_clean_linker_1, # of connection points: 2
#     Edge 46, Type (0, 0), BuildingBlock: KIFKEQ_clean_linker_1, # of connection points: 2
#     Edge 47, Type (0, 0), BuildingBlock: KIFKEQ_clean_linker_1, # of connection points: 2
# Relax obj value: 0.073
# Max RMSD: 0.055
# Mean RMSD: 0.054
data_MOF--net-pcl--node1-CEKHIL_clean_sbu_0--edge1-KIFKEQ_clean_linker_1
_symmetry_space_group_name_H-M    P1
_symmetry_Int_Tables_number       1
_symmetry_cell_setting            triclinic
loop_
_symmetry_equiv_pos_as_xyz
'x, y, z'
_cell_length_a     53.150566
_cell_length_b     41.551112
_cell_length_c     43.432247
_cell_angle_alpha  90.038868
_cell_angle_beta   90.025291
_cell_angle_gamma 89.994151
loop_
_atom_site_label
_atom_site_type_symbol
_atom_site_fract_x
_atom_site_fract_y
_atom_site_fract_z
_atom_type_partial_charge
Co0 Co 0.14251 0.34139 0.07232 0.0
O1 O 0.17855 0.33718 0.06732 0.0
O2 O 0.15122 0.29864 0.05726 0.0
C3 C 0.13995 0.39002 0.04888 0.0
O4 O 0.10384 0.33703 0.0733 0.0
Co5 Co 0.11806 0.3972 0.10941 0.0
O6 O 0.08755 0.38518 0.086 0.0
C7 C 0.13917 0.34069 0.14235 0.0
C8 C 0.17454 0.30821 0.0573 0.0
C9 C 0.08506 0.35662 0.07587 0.0
O10 O 0.14504 0.32681 0.11677 0.0
O11 O 0.12922 0.3687 0.14406 0.0
O12 O 0.14056 0.36375 0.03266 0.0
O13 O 0.14246 0.38626 0.0782 0.0
Co14 Co 0.87354 0.66177 0.57113 0.0
O15 O 0.8383 0.66901 0.56305 0.0
O16 O 0.8679 0.7056 0.55635 0.0
C17 C 0.87574 0.61366 0.54645 0.0
O18 O 0.91215 0.66183 0.57668 0.0
Co19 Co 0.88823 0.60198 0.61095 0.0
O20 O 0.92274 0.61472 0.59895 0.0
C21 C 0.86465 0.65847 0.64003 0.0
C22 C 0.84417 0.6979 0.55458 0.0
C23 C 0.92876 0.64158 0.58677 0.0
O24 O 0.86842 0.67545 0.61563 0.0
O25 O 0.86862 0.62813 0.6414 0.0
O26 O 0.87741 0.64032 0.53099 0.0
O27 O 0.87052 0.61711 0.57521 0.0
Co28 Co 0.14726 0.66111 0.93263 0.0
O29 O 0.18254 0.66596 0.9419 0.0
O30 O 0.15457 0.70472 0.94723 0.0
C31 C 0.14278 0.61326 0.95727 0.0
O32 O 0.10881 0.66369 0.92601 0.0
Co33 Co 0.13094 0.60204 0.89254 0.0
O34 O 0.09674 0.61766 0.90262 0.0
C35 C 0.15713 0.65682 0.86395 0.0
C36 C 0.17787 0.69532 0.95004 0.0
C37 C 0.09165 0.6448 0.91492 0.0
O38 O 0.15365 0.67416 0.88821 0.0
O39 O 0.15212 0.62673 0.86263 0.0
O40 O 0.14183 0.64002 0.97272 0.0
O41 O 0.14855 0.61636 0.92867 0.0
Co42 Co 0.87624 0.34259 0.42849 0.0
O43 O 0.84008 0.33808 0.43227 0.0
O44 O 0.86749 0.29999 0.44366 0.0
C45 C 0.87815 0.39123 0.45205 0.0
O46 O 0.91496 0.3385 0.42866 0.0
Co47 Co 0.90107 0.39836 0.39199 0.0
O48 O 0.93133 0.38659 0.41599 0.0
C49 C 0.88048 0.34185 0.3585 0.0
C50 C 0.84413 0.30931 0.44272 0.0
C51 C 0.93375 0.35813 0.42636 0.0
O52 O 0.87455 0.32787 0.38399 0.0
O53 O 0.89026 0.36997 0.35701 0.0
O54 O 0.87734 0.36494 0.46816 0.0
O55 O 0.87617 0.38752 0.42263 0.0
Co56 Co 0.84865 0.66524 0.9161 0.0
O57 O 0.81275 0.66891 0.9227 0.0
O58 O 0.84152 0.69042 0.95298 0.0
C59 C 0.84675 0.67636 0.86495 0.0
O60 O 0.88745 0.66782 0.91611 0.0
Co61 Co 0.87111 0.61501 0.87036 0.0
O62 O 0.90162 0.64215 0.87389 0.0
C63 C 0.85236 0.59396 0.9315 0.0
C64 C 0.81777 0.68615 0.94683 0.0
C65 C 0.90522 0.66043 0.89705 0.0
O66 O 0.84932 0.62343 0.94035 0.0
O67 O 0.859 0.58623 0.90414 0.0
O68 O 0.84711 0.69979 0.88483 0.0
O69 O 0.84621 0.64796 0.87663 0.0
Co70 Co 0.17463 0.33626 0.41278 0.0
O71 O 0.21051 0.33099 0.41792 0.0
O72 O 0.18208 0.31365 0.45098 0.0
C73 C 0.17413 0.32097 0.36278 0.0
O74 O 0.13597 0.33612 0.41486 0.0
Co75 Co 0.15264 0.38474 0.36551 0.0
O76 O 0.12071 0.36112 0.3729 0.0
C77 C 0.17429 0.40849 0.42402 0.0
C78 C 0.20572 0.31615 0.4435 0.0
C79 C 0.11756 0.34415 0.39703 0.0
O80 O 0.17601 0.37944 0.43429 0.0
O81 O 0.16753 0.41522 0.39645 0.0
O82 O 0.17357 0.29934 0.38438 0.0
O83 O 0.17641 0.35029 0.37194 0.0
Co84 Co 0.84448 0.33338 0.08856 0.0
O85 O 0.80878 0.328 0.0813 0.0
O86 O 0.83863 0.31047 0.05013 0.0
C87 C 0.84344 0.31795 0.13853 0.0
O88 O 0.88315 0.33338 0.08823 0.0
Co89 Co 0.8654 0.38112 0.13732 0.0
O90 O 0.8976 0.35783 0.13089 0.0
C91 C 0.84594 0.40572 0.07776 0.0
C92 C 0.81474 0.31293 0.05616 0.0
C93 C 0.90122 0.34124 0.10662 0.0
O94 O 0.84363 0.37677 0.06725 0.0
O95 O 0.85243 0.41194 0.10555 0.0
O96 O 0.84475 0.29642 0.11687 0.0
O97 O 0.84139 0.34731 0.12942 0.0
Co98 Co 0.17213 0.66716 0.587 0.0
O99 O 0.2079 0.67218 0.58097 0.0
O100 O 0.17899 0.6937 0.55091 0.0
C101 C 0.17322 0.67669 0.63848 0.0
O102 O 0.13332 0.66805 0.58695 0.0
Co103 Co 0.15187 0.61326 0.63046 0.0
O104 O 0.12005 0.63796 0.62691 0.0
C105 C 0.17291 0.5965 0.56961 0.0
C106 C 0.20277 0.6898 0.55718 0.0
C107 C 0.11581 0.65783 0.60514 0.0
O108 O 0.17256 0.62634 0.56135 0.0
O109 O 0.1678 0.58708 0.59697 0.0
O110 O 0.17264 0.70074 0.61932 0.0
O111 O 0.1748 0.64876 0.62588 0.0
Co112 Co 0.64711 0.84273 0.07225 0.0
O113 O 0.68234 0.83791 0.06267 0.0
O114 O 0.65433 0.79923 0.05727 0.0
C115 C 0.64258 0.8908 0.04803 0.0
O116 O 0.60868 0.84011 0.07913 0.0
Co117 Co 0.63094 0.90148 0.11284 0.0
O118 O 0.59668 0.886 0.10282 0.0
C119 C 0.65732 0.84649 0.14085 0.0
C120 C 0.67761 0.8086 0.05436 0.0
C121 C 0.59156 0.85894 0.0904 0.0
O122 O 0.65378 0.82933 0.11649 0.0
O123 O 0.65221 0.87653 0.14248 0.0
O124 O 0.64148 0.86416 0.03239 0.0
O125 O 0.64848 0.88746 0.07657 0.0
Co126 Co 0.37543 0.16265 0.5729 0.0
O127 O 0.34044 0.16794 0.56272 0.0
O128 O 0.36896 0.20594 0.55685 0.0
C129 C 0.37933 0.11394 0.54964 0.0
O130 O 0.41376 0.16442 0.58036 0.0
Co131 Co 0.3901 0.10461 0.61484 0.0
O132 O 0.42468 0.11806 0.60379 0.0
C133 C 0.36499 0.16127 0.64162 0.0
C134 C 0.34558 0.19693 0.55393 0.0
C135 C 0.43048 0.14489 0.59139 0.0
O136 O 0.36849 0.17742 0.61666 0.0
O137 O 0.36983 0.13124 0.64423 0.0
O138 O 0.38136 0.14023 0.53364 0.0
O139 O 0.37306 0.11807 0.57799 0.0
Co140 Co 0.64361 0.16071 0.92931 0.0
O141 O 0.67956 0.16588 0.93484 0.0
O142 O 0.65151 0.20417 0.9429 0.0
C143 C 0.64102 0.1132 0.95483 0.0
O144 O 0.60496 0.16432 0.92729 0.0
Co145 Co 0.62074 0.10214 0.89418 0.0
O146 O 0.58904 0.11601 0.91415 0.0
C147 C 0.6466 0.15449 0.86001 0.0
C148 C 0.67494 0.19511 0.94369 0.0
C149 C 0.58629 0.14469 0.92393 0.0
O150 O 0.64695 0.17269 0.88412 0.0
O151 O 0.639 0.12522 0.86044 0.0
O152 O 0.64121 0.14016 0.97 0.0
O153 O 0.64405 0.11577 0.92553 0.0
Co154 Co 0.3759 0.84255 0.43343 0.0
O155 O 0.34022 0.83806 0.44032 0.0
O156 O 0.36796 0.79976 0.44937 0.0
C157 C 0.37892 0.89144 0.45631 0.0
O158 O 0.4146 0.83943 0.4302 0.0
Co159 Co 0.39647 0.89877 0.39344 0.0
O160 O 0.42851 0.8878 0.41422 0.0
C161 C 0.37386 0.84181 0.36331 0.0
C162 C 0.34457 0.80918 0.45016 0.0
C163 C 0.43251 0.85993 0.42542 0.0
O164 O 0.37164 0.82727 0.38937 0.0
O165 O 0.38188 0.87068 0.3604 0.0
O166 O 0.37946 0.86533 0.47274 0.0
O167 O 0.37482 0.88725 0.42732 0.0
Co168 Co 0.3453 0.16768 0.91602 0.0
O169 O 0.30945 0.17211 0.92253 0.0
O170 O 0.33848 0.19229 0.95328 0.0
C171 C 0.34369 0.1797 0.86508 0.0
O172 O 0.38401 0.1693 0.91656 0.0
Co173 Co 0.36784 0.11827 0.86959 0.0
O174 O 0.39908 0.14381 0.87475 0.0
C175 C 0.34817 0.09617 0.93003 0.0
C176 C 0.3147 0.18874 0.94699 0.0
C177 C 0.40226 0.16155 0.89836 0.0
O178 O 0.34543 0.12547 0.93949 0.0
O179 O 0.35486 0.08896 0.90255 0.0
O180 O 0.34435 0.2028 0.88531 0.0
O181 O 0.34289 0.15111 0.87628 0.0
Co182 Co 0.67402 0.84255 0.41684 0.0
O183 O 0.70974 0.83791 0.42413 0.0
O184 O 0.68017 0.81658 0.4534 0.0
C185 C 0.67597 0.83171 0.36568 0.0
O186 O 0.63527 0.84143 0.41615 0.0
Co187 Co 0.65369 0.89472 0.37167 0.0
O188 O 0.62133 0.87152 0.37659 0.0
C189 C 0.67396 0.91361 0.43247 0.0
C190 C 0.70405 0.82051 0.44789 0.0
C191 C 0.61739 0.85187 0.39861 0.0
O192 O 0.67388 0.88401 0.44155 0.0
O193 O 0.66904 0.92206 0.40476 0.0
O194 O 0.67511 0.8082 0.38541 0.0
O195 O 0.67722 0.86003 0.37754 0.0
Co196 Co 0.34853 0.83681 0.09036 0.0
O197 O 0.3127 0.83271 0.08365 0.0
O198 O 0.34164 0.81294 0.05259 0.0
C199 C 0.34674 0.82352 0.14094 0.0
O200 O 0.38736 0.83501 0.09029 0.0
Co201 Co 0.37027 0.88571 0.13773 0.0
O202 O 0.40117 0.8594 0.13337 0.0
C203 C 0.35154 0.90866 0.07726 0.0
C204 C 0.31786 0.81653 0.05892 0.0
C205 C 0.40502 0.84205 0.10963 0.0
O206 O 0.34869 0.87946 0.06762 0.0
O207 O 0.35816 0.91566 0.10483 0.0
O208 O 0.34759 0.80099 0.12016 0.0
O209 O 0.34575 0.85245 0.13051 0.0
Co210 Co 0.67299 0.17592 0.58811 0.0
O211 O 0.70835 0.18108 0.57921 0.0
O212 O 0.67774 0.19972 0.5498 0.0
C213 C 0.67613 0.19018 0.63826 0.0
O214 O 0.63427 0.17582 0.59042 0.0
Co215 Co 0.65541 0.12604 0.63698 0.0
O216 O 0.62293 0.14928 0.63339 0.0
C217 C 0.67333 0.10384 0.57613 0.0
C218 C 0.70181 0.19662 0.55463 0.0
C219 C 0.61755 0.16686 0.61025 0.0
O220 O 0.67309 0.13299 0.5658 0.0
O221 O 0.6691 0.09676 0.60435 0.0
O222 O 0.67392 0.21232 0.61731 0.0
O223 O 0.67793 0.16115 0.62824 0.0
H224 H 0.0473 0.38756 0.04603 0.0
H225 H 0.06358 0.30133 0.09753 0.0
H226 H 1.00227 0.37602 0.0493 0.0
H227 H 0.01829 0.2902 0.10163 0.0
H228 H 0.92186 0.33687 0.0489 0.0
H229 H 0.96672 0.33359 0.03581 0.0
H230 H 0.98516 0.32559 0.13224 0.0
H231 H 0.94056 0.32967 0.14537 0.0
C232 C 0.04123 0.3656 0.05724 0.0
C233 C 0.05892 0.34521 0.07132 0.0
C234 C 0.01546 0.359 0.05913 0.0
C235 C 1.00675 0.33229 0.07584 0.0
C236 C 0.02449 0.31096 0.08861 0.0
C237 C 0.05038 0.31716 0.08604 0.0
C238 C 0.93546 0.33369 0.06723 0.0
C239 C 0.92767 0.33366 0.09819 0.0
C240 C 0.96112 0.33195 0.05974 0.0
C241 C 0.97944 0.32928 0.083 0.0
C242 C 0.97149 0.3273 0.1138 0.0
C243 C 0.94596 0.32981 0.12132 0.0
H244 H 0.9657 0.61096 0.61837 0.0
H245 H 0.95448 0.68997 0.55508 0.0
H246 H 1.01007 0.62252 0.6204 0.0
H247 H 1.00008 0.70153 0.5572 0.0
H248 H 0.09047 0.66823 0.55039 0.0
H249 H 0.04444 0.67034 0.54363 0.0
H250 H 0.03506 0.66984 0.64228 0.0
H251 H 0.08045 0.66731 0.64897 0.0
C252 C 0.97262 0.63085 0.60468 0.0
C253 C 0.9562 0.64954 0.58654 0.0
C254 C 0.99824 0.63759 0.60607 0.0
C255 C 1.00862 0.66317 0.58929 0.0
C256 C 0.99257 0.68169 0.57048 0.0
C257 C 0.96649 0.67514 0.56935 0.0
C258 C 0.07853 0.66958 0.57055 0.0
C259 C 0.08907 0.66711 0.60022 0.0
C260 C 0.0522 0.67079 0.56668 0.0
C261 C 0.03612 0.66969 0.59243 0.0
C262 C 0.04691 0.67017 0.62198 0.0
C263 C 0.07295 0.66876 0.62581 0.0
H264 H 0.93931 0.6791 0.85445 0.0
H265 H 0.93103 0.66363 0.95211 0.0
H266 H 0.9847 0.6832 0.8606 0.0
H267 H 0.977 0.66686 0.95828 0.0
H268 H 0.06511 0.68587 0.95404 0.0
H269 H 0.01958 0.69797 0.95214 0.0
H270 H 0.01243 0.63746 0.87177 0.0
H271 H 0.05683 0.62572 0.87352 0.0
C272 C 0.94719 0.67728 0.8774 0.0
C273 C 0.93161 0.67071 0.90272 0.0
C274 C 0.97325 0.67948 0.88093 0.0
C275 C 0.98459 0.67461 0.90983 0.0
C276 C 0.96889 0.67075 0.9357 0.0
C277 C 0.94256 0.66891 0.93219 0.0
C278 C 0.05373 0.67552 0.93587 0.0
C279 C 0.06468 0.65471 0.91403 0.0
C280 C 0.02769 0.68228 0.93487 0.0
C281 C 0.01235 0.66893 0.91161 0.0
C282 C 0.02359 0.64867 0.88969 0.0
C283 C 0.04919 0.64167 0.89091 0.0
H284 H 0.07847 0.33037 0.35869 0.0
H285 H 0.09702 0.34099 0.4549 0.0
H286 H 0.03393 0.32582 0.37187 0.0
H287 H 0.05216 0.33725 0.46806 0.0
H288 H 0.95557 0.30239 0.40614 0.0
H289 H 1.00092 0.29138 0.40284 0.0
H290 H 0.01624 0.37839 0.45376 0.0
H291 H 0.97116 0.38977 0.45626 0.0
C292 C 0.07305 0.33113 0.38273 0.0
C293 C 0.09126 0.3361 0.40575 0.0
C294 C 0.04754 0.32835 0.39028 0.0
C295 C 0.03952 0.33119 0.421 0.0
C296 C 0.0578 0.33493 0.44419 0.0
C297 C 0.08346 0.33693 0.43668 0.0
C298 C 0.96862 0.31852 0.41751 0.0
C299 C 0.95986 0.34686 0.43156 0.0
C300 C 0.99456 0.31238 0.4154 0.0
C301 C 0.01214 0.33408 0.42797 0.0
C302 C 1.0032 0.36108 0.4441 0.0
C303 C 0.97738 0.3676 0.44553 0.0
H304 H 0.4396 0.82364 0.15182 0.0
H305 H 0.43063 0.83985 0.05435 0.0
H306 H 0.48496 0.82002 0.14527 0.0
H307 H 0.47658 0.83709 0.04779 0.0
H308 H 0.56477 0.81823 0.05112 0.0
H309 H 0.51926 0.80611 0.05328 0.0
H310 H 0.51259 0.86583 0.13424 0.0
H311 H 0.55698 0.87759 0.13224 0.0
C312 C 0.44733 0.82579 0.12883 0.0
C313 C 0.43153 0.83241 0.10368 0.0
C314 C 0.47338 0.82385 0.12507 0.0
C315 C 0.48452 0.82901 0.09611 0.0
C316 C 0.46863 0.83298 0.0704 0.0
C317 C 0.44231 0.83457 0.07415 0.0
C318 C 0.55351 0.82841 0.06948 0.0
C319 C 0.56459 0.84899 0.09141 0.0
C320 C 0.52747 0.82164 0.07062 0.0
C321 C 0.51227 0.83476 0.09412 0.0
C322 C 0.52364 0.85481 0.11613 0.0
C323 C 0.54923 0.86181 0.11477 0.0
H324 H 0.58205 0.17498 0.65434 0.0
H325 H 0.59158 0.1753 0.55565 0.0
H326 H 0.53661 0.17592 0.64793 0.0
H327 H 0.54554 0.17578 0.5492 0.0
H328 H 0.45605 0.19247 0.55858 0.0
H329 H 0.50145 0.20499 0.56115 0.0
H330 H 0.51138 0.12923 0.62795 0.0
H331 H 0.46714 0.11685 0.62555 0.0
C332 C 0.57443 0.17583 0.63121 0.0
C333 C 0.59047 0.17455 0.60552 0.0
C334 C 0.54834 0.17633 0.62754 0.0
C335 C 0.53743 0.17528 0.59806 0.0
C336 C 0.55338 0.17663 0.57221 0.0
C337 C 0.57973 0.17633 0.57591 0.0
C338 C 0.468 0.17862 0.5738 0.0
C339 C 0.45775 0.15365 0.59183 0.0
C340 C 0.49397 0.1857 0.57518 0.0
C341 C 0.50996 0.16835 0.59506 0.0
C342 C 0.4996 0.14346 0.6128 0.0
C343 C 0.47407 0.13621 0.61118 0.0
H344 H 0.54839 0.11251 0.95215 0.0
H345 H 0.56486 0.20114 0.90462 0.0
H346 H 0.50349 0.12506 0.95062 0.0
H347 H 0.51962 0.21333 0.90224 0.0
H348 H 0.44039 0.17664 0.85913 0.0
H349 H 0.48524 0.18046 0.87105 0.0
H350 H 0.4689 0.1673 0.96751 0.0
H351 H 0.42377 0.16434 0.95565 0.0
C352 C 0.5424 0.13509 0.94206 0.0
C353 C 0.5601 0.1559 0.92859 0.0
C354 C 0.5167 0.14231 0.94124 0.0
C355 C 0.50802 0.17013 0.92624 0.0
C356 C 0.52579 0.19173 0.91397 0.0
C357 C 0.55165 0.18488 0.9155 0.0
C358 C 0.44631 0.17548 0.88299 0.0
C359 C 0.42856 0.17017 0.90645 0.0
C360 C 0.47199 0.1778 0.88982 0.0
C361 C 0.4806 0.17411 0.9202 0.0
C362 C 0.46278 0.17026 0.94389 0.0
C363 C 0.43697 0.16873 0.93712 0.0
H364 H 0.47013 0.89874 0.44527 0.0
H365 H 0.45563 0.80161 0.41472 0.0
H366 H 0.51537 0.88883 0.44242 0.0
H367 H 0.50133 0.792 0.4113 0.0
H368 H 0.59647 0.83063 0.45313 0.0
H369 H 0.55137 0.82572 0.46518 0.0
H370 H 0.53292 0.84921 0.37126 0.0
H371 H 0.57754 0.85461 0.35913 0.0
C372 C 0.47662 0.87497 0.43873 0.0
C373 C 0.45929 0.85095 0.43021 0.0
C374 C 0.50251 0.86934 0.43719 0.0
C375 C 0.51173 0.83967 0.42679 0.0
C376 C 0.49458 0.81497 0.41973 0.0
C377 C 0.46849 0.82044 0.42178 0.0
C378 C 0.58283 0.83398 0.43488 0.0
C379 C 0.59069 0.84323 0.4052 0.0
C380 C 0.55706 0.83117 0.44181 0.0
C381 C 0.53881 0.83685 0.41903 0.0
C382 C 0.54668 0.84434 0.38909 0.0
C383 C 0.57226 0.84759 0.38226 0.0
H384 H 0.10674 0.33161 0.18945 0.0
H385 H 0.18365 0.31504 0.16204 0.0
H386 H 0.11715 0.31641 0.24231 0.0
H387 H 0.19433 0.30074 0.2154 0.0
H388 H 0.14427 0.27564 0.33479 0.0
H389 H 0.13661 0.27001 0.27906 0.0
H390 H 0.19159 0.34409 0.26116 0.0
H391 H 0.19852 0.35041 0.31635 0.0
C392 C 0.12572 0.32379 0.19466 0.0
C393 C 0.14443 0.32446 0.17183 0.0
C394 C 0.13165 0.31497 0.22483 0.0
C395 C 0.15653 0.30747 0.2329 0.0
C396 C 0.17498 0.30632 0.20968 0.0
C397 C 0.16889 0.31437 0.17922 0.0
C398 C 0.15503 0.29014 0.31879 0.0
C399 C 0.17189 0.31353 0.3297 0.0
C400 C 0.15065 0.28697 0.28705 0.0
C401 C 0.16369 0.30644 0.26588 0.0
C402 C 0.18157 0.32845 0.2769 0.0
C403 C 0.18539 0.33223 0.30847 0.0
H404 H 0.88939 0.70399 0.67386 0.0
H405 H 0.82236 0.64566 0.67181 0.0
H406 H 0.8823 0.71526 0.72874 0.0
H407 H 0.81471 0.65767 0.72596 0.0
H408 H 0.84013 0.6299 0.82244 0.0
H409 H 0.84077 0.6342 0.76708 0.0
H410 H 0.85493 0.73629 0.77401 0.0
H411 H 0.85436 0.73192 0.8307 0.0
C412 C 0.87253 0.69489 0.68482 0.0
C413 C 0.85642 0.67392 0.66883 0.0
C414 C 0.86848 0.70127 0.71621 0.0
C415 C 0.84824 0.68678 0.73181 0.0
C416 C 0.83076 0.66865 0.71474 0.0
C417 C 0.83498 0.66197 0.68369 0.0
C418 C 0.84329 0.65342 0.81241 0.0
C419 C 0.84715 0.6806 0.83107 0.0
C420 C 0.84341 0.65592 0.78051 0.0
C421 C 0.84744 0.68569 0.76606 0.0
C422 C 0.85161 0.71306 0.78454 0.0
C423 C 0.85126 0.71058 0.81688 0.0
H424 H 0.13495 0.70561 0.8317 0.0
H425 H 0.19747 0.63954 0.83028 0.0
H426 H 0.14124 0.71659 0.77665 0.0
H427 H 0.20438 0.65118 0.77595 0.0
H428 H 0.17604 0.62847 0.6799 0.0
H429 H 0.17598 0.63159 0.73539 0.0
H430 H 0.16865 0.73499 0.73074 0.0
H431 H 0.16855 0.73183 0.67402 0.0
C432 C 0.15075 0.69467 0.81993 0.0
C433 C 0.16571 0.67167 0.83502 0.0
C434 C 0.15431 0.70085 0.78843 0.0
C435 C 0.17294 0.68416 0.77182 0.0
C436 C 0.18951 0.66386 0.78795 0.0
C437 C 0.18574 0.6574 0.81911 0.0
C438 C 0.17445 0.652 0.69047 0.0
C439 C 0.17241 0.67993 0.67245 0.0
C440 C 0.17466 0.65381 0.72243 0.0
C441 C 0.17285 0.6836 0.73755 0.0
C442 C 0.17026 0.7117 0.7197 0.0
C443 C 0.1702 0.7099 0.68732 0.0
H444 H 0.8755 0.27521 0.16643 0.0
H445 H 0.81764 0.34538 0.185 0.0
H446 H 0.88407 0.27103 0.22204 0.0
H447 H 0.8255 0.34043 0.24018 0.0
H448 H 0.83688 0.31294 0.33979 0.0
H449 H 0.82591 0.29767 0.28674 0.0
H450 H 0.90156 0.31973 0.25759 0.0
H451 H 0.91221 0.3359 0.31013 0.0
C452 C 0.86412 0.28889 0.18246 0.0
C453 C 0.84593 0.31061 0.1716 0.0
C454 C 0.86904 0.28658 0.21415 0.0
C455 C 0.8553 0.30524 0.23535 0.0
C456 C 0.83611 0.32543 0.22442 0.0
C457 C 0.83171 0.3284 0.19287 0.0
C458 C 0.85129 0.31356 0.32217 0.0
C459 C 0.87533 0.32567 0.32889 0.0
C460 C 0.84502 0.30494 0.29189 0.0
C461 C 0.86293 0.30749 0.26814 0.0
C462 C 0.8875 0.31719 0.27548 0.0
C463 C 0.89355 0.32658 0.30548 0.0
H464 H 0.68259 0.87801 0.32292 0.0
H465 H 0.66847 0.77604 0.3318 0.0
H466 H 0.68214 0.87314 0.26751 0.0
H467 H 0.66815 0.77107 0.27523 0.0
H468 H 0.63378 0.80054 0.1751 0.0
H469 H 0.64119 0.79046 0.23006 0.0
H470 H 0.70772 0.85 0.22627 0.0
H471 H 0.6997 0.86085 0.17197 0.0
C472 C 0.6795 0.8544 0.31301 0.0
C473 C 0.67559 0.82739 0.33182 0.0
C474 C 0.67951 0.85155 0.28111 0.0
C475 C 0.67557 0.82161 0.26688 0.0
C476 C 0.67138 0.79443 0.28556 0.0
C477 C 0.67158 0.79727 0.31785 0.0
C478 C 0.65052 0.81029 0.18586 0.0
C479 C 0.6662 0.83145 0.16952 0.0
C480 C 0.65474 0.80463 0.21731 0.0
C481 C 0.67472 0.82004 0.23265 0.0
C482 C 0.69185 0.83836 0.21527 0.0
C483 C 0.68745 0.84432 0.18413 0.0
H484 H 0.35367 0.23509 0.83147 0.0
H485 H 0.33443 0.13454 0.82213 0.0
H486 H 0.35476 0.23997 0.77484 0.0
H487 H 0.33559 0.13929 0.76685 0.0
H488 H 0.32105 0.15148 0.67106 0.0
H489 H 0.31209 0.16435 0.72476 0.0
H490 H 0.38177 0.21748 0.73062 0.0
H491 H 0.39014 0.20547 0.67623 0.0
C492 C 0.34952 0.21421 0.81743 0.0
C493 C 0.34398 0.18445 0.83128 0.0
C494 C 0.35017 0.21697 0.78512 0.0
C495 C 0.34483 0.19014 0.76634 0.0
C496 C 0.33915 0.16066 0.78048 0.0
C497 C 0.33877 0.15786 0.81235 0.0
C498 C 0.33384 0.16711 0.68348 0.0
C499 C 0.35619 0.17759 0.66968 0.0
C500 C 0.32888 0.17425 0.71428 0.0
C501 C 0.34653 0.19129 0.73214 0.0
C502 C 0.36779 0.20439 0.71748 0.0
C503 C 0.37258 0.19758 0.68637 0.0
H504 H 0.64416 0.21642 0.83654 0.0
H505 H 0.66852 0.11985 0.81498 0.0
H506 H 0.65476 0.23327 0.78365 0.0
H507 H 0.67866 0.13621 0.76313 0.0
H508 H 0.71089 0.16945 0.67831 0.0
H509 H 0.70797 0.16859 0.73424 0.0
H510 H 0.6382 0.22174 0.72955 0.0
H511 H 0.64193 0.22377 0.6731 0.0
C512 C 0.65213 0.19901 0.82074 0.0
C513 C 0.65542 0.16679 0.82986 0.0
C514 C 0.658 0.20855 0.79047 0.0
C515 C 0.66771 0.18615 0.76919 0.0
C516 C 0.67168 0.15431 0.77893 0.0
C517 C 0.66563 0.14482 0.8087 0.0
C518 C 0.69536 0.18182 0.68933 0.0
C519 C 0.67661 0.19657 0.6716 0.0
C520 C 0.69358 0.18119 0.72133 0.0
C521 C 0.67256 0.19446 0.73635 0.0
C522 C 0.65468 0.21141 0.7187 0.0
C523 C 0.65676 0.21257 0.68645 0.0
H524 H 0.32894 0.86298 0.185 0.0
H525 H 0.36587 0.77133 0.1726 0.0
H526 H 0.33232 0.85743 0.24044 0.0
H527 H 0.36962 0.76589 0.22895 0.0
H528 H 0.40491 0.81215 0.32286 0.0
H529 H 0.39513 0.79892 0.26917 0.0
H530 H 0.31732 0.8237 0.2851 0.0
H531 H 0.32724 0.83679 0.33877 0.0
C532 C 0.33757 0.8414 0.19421 0.0
C533 C 0.34724 0.81764 0.17449 0.0
C534 C 0.33928 0.83808 0.22604 0.0
C535 C 0.35105 0.81111 0.2391 0.0
C536 C 0.36037 0.78688 0.21946 0.0
C537 C 0.35819 0.78994 0.18733 0.0
C538 C 0.38556 0.81342 0.31509 0.0
C539 C 0.36674 0.82516 0.33476 0.0
C540 C 0.37995 0.80585 0.28442 0.0
C541 C 0.35551 0.81054 0.27288 0.0
C542 C 0.33634 0.82002 0.29334 0.0
C543 C 0.34193 0.82728 0.32405 0.0
H544 H 0.31922 0.22377 1.0005 0.0
H545 H 0.26411 0.18804 0.93595 0.0
H546 H 0.28577 0.25006 0.02984 0.0
H547 H 0.23087 0.21497 0.96454 0.0
H548 H 0.17242 0.2467 0.03399 0.0
H549 H 0.20638 0.21584 0.01017 0.0
H550 H 0.25777 0.29448 0.02703 0.0
H551 H 0.22409 0.32472 0.05156 0.0
C552 C 0.29997 0.22149 0.99257 0.0
C553 C 0.29441 0.20379 0.96582 0.0
C554 C 0.28075 0.23675 0.0093 0.0
C555 C 0.25544 0.23484 0.99965 0.0
C556 C 0.24996 0.21668 0.9731 0.0
C557 C 0.26913 0.20136 0.9565 0.0
C558 C 0.19104 0.25723 0.0329 0.0
C559 C 0.19545 0.28824 0.04469 0.0
C560 C 0.21053 0.23963 0.01899 0.0
C561 C 0.23497 0.2526 0.01638 0.0
C562 C 0.23941 0.28336 0.02887 0.0
C563 C 0.21997 0.30086 0.04284 0.0
H564 H 0.84864 0.74439 0.51008 0.0
H565 H 0.79502 0.70036 0.57134 0.0
H566 H 0.81484 0.77485 0.48573 0.0
H567 H 0.76142 0.73237 0.54901 0.0
H568 H 0.70116 0.76513 0.4818 0.0
H569 H 0.73508 0.73746 0.50852 0.0
H570 H 0.78593 0.81495 0.4848 0.0
H571 H 0.75228 0.84103 0.45619 0.0
C572 C 0.82967 0.7419 0.51885 0.0
C573 C 0.82448 0.71991 0.54251 0.0
C574 C 0.81013 0.7595 0.50499 0.0
C575 C 0.78493 0.75618 0.51496 0.0
C576 C 0.78018 0.73514 0.53974 0.0
C577 C 0.79958 0.71696 0.55295 0.0
C578 C 0.71959 0.77625 0.4825 0.0
C579 C 0.72404 0.80519 0.4668 0.0
C580 C 0.73918 0.76048 0.49807 0.0
C581 C 0.76369 0.77365 0.4991 0.0
C582 C 0.76773 0.80331 0.48411 0.0
C583 C 0.7483 0.81858 0.46789 0.0
H584 H 0.32201 0.78116 0.00556 0.0
H585 H 0.26723 0.81867 0.06954 0.0
H586 H 0.28831 0.75501 0.97652 0.0
H587 H 0.23371 0.79192 0.04122 0.0
H588 H 0.17501 0.75763 0.97212 0.0
H589 H 0.20883 0.78951 0.99545 0.0
H590 H 0.26054 0.71065 0.98127 0.0
H591 H 0.2272 0.67951 0.95745 0.0
C592 C 0.30279 0.7839 0.0134 0.0
C593 C 0.29742 0.80193 0.03998 0.0
C594 C 0.28341 0.76873 0.99685 0.0
C595 C 0.25811 0.77107 0.00651 0.0
C596 C 0.25279 0.7898 0.03271 0.0
C597 C 0.27213 0.80501 0.04916 0.0
C598 C 0.19367 0.7473 0.97376 0.0
C599 C 0.1983 0.71597 0.96291 0.0
C600 C 0.21308 0.76548 0.98732 0.0
C601 C 0.2376 0.75277 0.99038 0.0
C602 C 0.24216 0.72162 0.97897 0.0
C603 C 0.22286 0.70357 0.96545 0.0
H604 H 0.7484 0.17285 0.54289 0.0
H605 H 0.69934 0.25192 0.52025 0.0
H606 H 0.78184 0.19675 0.51247 0.0
H607 H 0.73334 0.27759 0.49167 0.0
H608 H 0.79425 0.31197 0.42756 0.0
H609 H 0.75946 0.28248 0.45065 0.0
H610 H 0.81196 0.23478 0.5117 0.0
H611 H 0.8466 0.26255 0.48677 0.0
C612 C 0.74485 0.19555 0.53142 0.0
C613 C 0.72125 0.21051 0.53398 0.0
C614 C 0.7642 0.2096 0.51418 0.0
C615 C 0.76086 0.23968 0.49969 0.0
C616 C 0.73689 0.25429 0.50187 0.0
C617 C 0.71727 0.23968 0.51845 0.0
C618 C 0.79829 0.29475 0.44561 0.0
C619 C 0.8232 0.28947 0.45521 0.0
C620 C 0.77825 0.27801 0.45923 0.0
C621 C 0.78244 0.25608 0.4835 0.0
C622 C 0.80759 0.25071 0.49275 0.0
C623 C 0.82765 0.26683 0.47854 0.0
H624 H 0.7268 0.82465 0.04617 0.0
H625 H 0.67479 0.74611 0.0327 0.0
H626 H 0.76011 0.79341 0.02244 0.0
H627 H 0.70858 0.71412 0.00948 0.0
H628 H 0.82175 0.72278 0.99939 0.0
H629 H 0.78798 0.74937 0.02784 0.0
H630 H 0.7335 0.71083 0.96382 0.0
H631 H 0.76713 0.6836 0.93608 0.0
C632 C 0.72249 0.80048 0.03844 0.0
C633 C 0.69799 0.78799 0.04133 0.0
C634 C 0.74177 0.78237 0.02497 0.0
C635 C 0.73727 0.75104 0.01397 0.0
C636 C 0.71279 0.73828 0.01729 0.0
C637 C 0.6934 0.75653 0.0308 0.0
C638 C 0.80254 0.71979 0.99156 0.0
C639 C 0.79724 0.70113 0.96535 0.0
C640 C 0.78312 0.73522 0.00777 0.0
C641 C 0.75783 0.73255 0.99814 0.0
C642 C 0.75257 0.71323 0.9723 0.0
C643 C 0.77196 0.69774 0.95619 0.0
H644 H 0.34927 0.2581 0.52917 0.0
H645 H 0.29601 0.18217 0.54801 0.0
H646 H 0.31561 0.28977 0.50514 0.0
H647 H 0.26289 0.21305 0.52362 0.0
H648 H 0.20224 0.28401 0.49863 0.0
H649 H 0.23616 0.25866 0.52785 0.0
H650 H 0.28985 0.29019 0.45957 0.0
H651 H 0.25609 0.31617 0.43095 0.0
C652 C 0.33042 0.24822 0.52831 0.0
C653 C 0.32543 0.21756 0.54051 0.0
C654 C 0.31112 0.26626 0.51437 0.0
C655 C 0.28637 0.25408 0.51238 0.0
C656 C 0.28147 0.22362 0.5251 0.0
C657 C 0.30064 0.20571 0.53893 0.0
C658 C 0.22131 0.28573 0.49001 0.0
C659 C 0.22636 0.30199 0.46234 0.0
C660 C 0.2408 0.27104 0.50667 0.0
C661 C 0.26588 0.27211 0.49607 0.0
C662 C 0.27093 0.28911 0.46876 0.0
C663 C 0.25147 0.30385 0.45217 0.0
H664 H 0.81804 0.25828 0.02132 0.0
H665 H 0.76696 0.3344 0.04644 0.0
H666 H 0.78458 0.23147 0.99297 0.0
H667 H 0.73389 0.30948 0.01598 0.0
H668 H 0.6709 0.24176 0.98767 0.0
H669 H 0.70463 0.27083 0.01319 0.0
H670 H 0.75872 0.22553 0.95248 0.0
H671 H 0.7249 0.19457 0.92904 0.0
C672 C 0.79972 0.26965 0.02013 0.0
C673 C 0.79509 0.29833 0.03623 0.0
C674 C 0.7804 0.25439 0.0036 0.0
C675 C 0.75601 0.26789 1.00192 0.0
C676 C 0.7519 0.29744 0.01719 0.0
C677 C 0.77102 0.3121 0.03449 0.0
C678 C 0.69002 0.23828 0.97969 0.0
C679 C 0.69523 0.21584 0.95639 0.0
C680 C 0.70956 0.25517 0.99424 0.0
C681 C 0.7349 0.25083 0.98531 0.0
C682 C 0.7398 0.22919 0.96095 0.0
C683 C 0.72031 0.2116 0.94709 0.0
H684 H 0.19907 0.72581 0.50414 0.0
H685 H 0.25315 0.68832 0.56904 0.0
H686 H 0.23313 0.7518 0.47563 0.0
H687 H 0.28696 0.71497 0.54136 0.0
H688 H 0.34658 0.74743 0.47339 0.0
H689 H 0.31223 0.71646 0.4964 0.0
H690 H 0.2613 0.79561 0.47963 0.0
H691 H 0.29523 0.82582 0.45596 0.0
C692 C 0.21821 0.72313 0.51234 0.0
C693 C 0.2233 0.70504 0.53895 0.0
C694 C 0.23779 0.73818 0.49609 0.0
C695 C 0.26299 0.73569 0.50612 0.0
C696 C 0.26799 0.71714 0.53251 0.0
C697 C 0.24847 0.70201 0.54861 0.0
C698 C 0.32799 0.75802 0.47439 0.0
C699 C 0.32375 0.78915 0.46284 0.0
C700 C 0.30826 0.74037 0.48779 0.0
C701 C 0.2838 0.75344 0.49007 0.0
C702 C 0.27962 0.78437 0.47796 0.0
C703 C 0.29924 0.80188 0.46452 0.0
H704 H 0.12873 0.558 0.92837 0.0
H705 H 0.14804 0.59623 0.01766 0.0
H706 H 0.12484 0.50443 0.95029 0.0
H707 H 0.14583 0.5423 0.03953 0.0
H708 H 0.14933 0.40778 0.98952 0.0
H709 H 0.14835 0.4618 0.9679 0.0
H710 H 0.12194 0.49902 0.05518 0.0
H711 H 0.12456 0.44525 0.07706 0.0
C712 C 0.13221 0.55487 0.95275 0.0
C713 C 0.13871 0.58127 0.97131 0.0
C714 C 0.13024 0.52402 0.96535 0.0
C715 C 0.1353 0.51859 0.99675 0.0
C716 C 0.14137 0.54532 0.01539 0.0
C717 C 0.14278 0.57633 0.00287 0.0
C718 C 0.14318 0.42754 0.00395 0.0
C719 C 0.13712 0.42231 0.03498 0.0
C720 C 0.14244 0.45862 0.99154 0.0
C721 C 0.1351 0.48518 0.00969 0.0
C722 C 0.12826 0.47954 0.04055 0.0
C723 C 0.12953 0.44858 0.05309 0.0
H724 H 0.87064 0.59731 0.4859 0.0
H725 H 0.88788 0.55749 0.57513 0.0
H726 H 0.8724 0.54365 0.46336 0.0
H727 H 0.89136 0.50412 0.55257 0.0
H728 H 0.86747 0.40833 0.51121 0.0
H729 H 0.86809 0.46201 0.5336 0.0
H730 H 0.89617 0.50037 0.4476 0.0
H731 H 0.89388 0.44688 0.42488 0.0
C732 C 0.87528 0.57709 0.50057 0.0
C733 C 0.87897 0.58155 0.53227 0.0
C734 C 0.87647 0.54623 0.48765 0.0
C735 C 0.88193 0.51913 0.50604 0.0
C736 C 0.88646 0.52402 0.53766 0.0
C737 C 0.8847 0.55475 0.55064 0.0
C738 C 0.87388 0.42827 0.4972 0.0
C739 C 0.88053 0.42344 0.46629 0.0
C740 C 0.87442 0.45916 0.51008 0.0
C741 C 0.88217 0.48594 0.49253 0.0
C742 C 0.88953 0.48071 0.46177 0.0
C743 C 0.88845 0.44993 0.44874 0.0
H744 H 0.83254 0.40538 0.01649 0.0
H745 H 0.85125 0.4696 0.09147 0.0
H746 H 0.83031 0.45138 0.98168 0.0
H747 H 0.84985 0.51506 0.05666 0.0
H748 H 0.83115 0.59549 0.98958 0.0
H749 H 0.82531 0.55012 0.02484 0.0
H750 H 0.86 0.48659 0.95846 0.0
H751 H 0.86514 0.53109 0.92333 0.0
C752 C 0.83606 0.42923 0.02562 0.0
C753 C 0.84234 0.43359 0.05676 0.0
C754 C 0.83492 0.45563 0.00562 0.0
C755 C 0.84016 0.48699 0.01627 0.0
C756 C 0.84544 0.49142 0.04765 0.0
C757 C 0.84646 0.46514 0.06762 0.0
C758 C 0.83742 0.57179 0.98255 0.0
C759 C 0.84858 0.56707 0.95357 0.0
C760 C 0.83411 0.54578 0.00275 0.0
C761 C 0.84202 0.51455 0.99443 0.0
C762 C 0.85311 0.51001 0.96544 0.0
C763 C 0.85627 0.53579 0.94532 0.0
H764 H 0.18698 0.47013 0.40888 0.0
H765 H 0.17149 0.40892 0.48693 0.0
H766 H 0.19076 0.51637 0.44298 0.0
H767 H 0.17407 0.45533 0.52097 0.0
H768 H 0.19514 0.53872 0.57988 0.0
H769 H 0.19958 0.49393 0.54431 0.0
H770 H 0.16564 0.55125 0.47231 0.0
H771 H 0.16243 0.59666 0.5078 0.0
C772 C 0.18441 0.46655 0.43338 0.0
C773 C 0.17887 0.43584 0.4452 0.0
C774 C 0.18639 0.49316 0.45294 0.0
C775 C 0.18252 0.48985 0.4848 0.0
C776 C 0.17759 0.45889 0.49666 0.0
C777 C 0.176 0.43219 0.47713 0.0
C778 C 0.18895 0.54186 0.5563 0.0
C779 C 0.17828 0.57112 0.54664 0.0
C780 C 0.19129 0.51606 0.53593 0.0
C781 C 0.18258 0.51858 0.50546 0.0
C782 C 0.1728 0.54838 0.49547 0.0
C783 C 0.17087 0.57446 0.5158 0.0
H784 H 0.65093 0.09641 0.01448 0.0
H785 H 0.62385 0.05814 0.92827 0.0
H786 H 0.6496 0.04265 0.0369 0.0
H787 H 0.62083 0.0049 0.95093 0.0
H788 H 0.6469 0.90781 0.98758 0.0
H789 H 0.64492 0.96172 0.9658 0.0
H790 H 0.62635 1.0001 0.05563 0.0
H791 H 0.63 0.9464 0.07744 0.0
C792 C 0.64417 0.07657 1.00055 0.0
C793 C 0.63765 0.08144 0.96961 0.0
C794 C 0.64325 0.04567 0.01341 0.0
C795 C 0.63526 0.01901 0.99577 0.0
C796 C 0.62776 0.02441 0.96512 0.0
C797 C 0.62923 0.05511 0.95213 0.0
C798 C 0.64221 0.9278 0.00254 0.0
C799 C 0.63871 0.92292 0.03419 0.0
C800 C 0.64092 0.95882 0.99007 0.0
C801 C 0.63554 0.98567 0.00887 0.0
C802 C 0.63115 0.98038 0.04043 0.0
C803 C 0.63299 0.94947 0.05296 0.0
H804 H 0.39378 0.9072 0.51476 0.0
H805 H 0.3713 0.94913 0.42811 0.0
H806 H 0.39727 0.96089 0.5372 0.0
H807 H 0.37367 0.00261 0.45069 0.0
H808 H 0.39643 0.09784 0.49212 0.0
H809 H 0.39961 0.04405 0.46971 0.0
H810 H 0.37141 0.00308 0.55444 0.0
H811 H 0.36933 0.0565 0.57702 0.0
C812 C 0.38957 0.92791 0.50053 0.0
C813 C 0.38219 0.92394 0.46972 0.0
C814 C 0.3914 0.95873 0.51342 0.0
C815 C 0.38561 0.98629 0.49588 0.0
C816 C 0.37867 0.98215 0.46485 0.0
C817 C 0.37712 0.9514 0.45191 0.0
C818 C 0.39117 0.07725 0.50598 0.0
C819 C 0.38259 0.08141 0.53629 0.0
C820 C 0.39281 0.04639 0.4931 0.0
C821 C 0.38566 0.01902 0.51015 0.0
C822 C 0.3775 0.02335 0.54069 0.0
C823 C 0.37612 0.0541 0.55362 0.0
H824 H 0.36369 0.97164 0.08686 0.0
H825 H 0.33089 0.90801 0.01902 0.0
H826 H 0.35937 0.01652 0.05185 0.0
H827 H 0.32578 0.95361 0.98404 0.0
H828 H 0.35382 0.03212 0.91793 0.0
H829 H 0.35158 0.98746 0.95336 0.0
H830 H 0.33125 0.05263 0.02684 0.0
H831 H 0.33436 0.09803 0.99127 0.0
C832 C 0.35522 0.96722 0.06457 0.0
C833 C 0.34776 0.93601 0.05574 0.0
C834 C 0.35253 0.99319 0.04453 0.0
C835 C 0.34215 0.98886 0.0151 0.0
C836 C 0.33417 0.95778 0.00642 0.0
C837 C 0.33703 0.93162 0.02647 0.0
C838 C 0.34871 0.03715 0.94158 0.0
C839 C 0.34453 0.06892 0.95174 0.0
C840 C 0.34718 0.01129 0.96192 0.0
C841 C 0.34128 0.0163 0.99304 0.0
C842 C 0.33623 0.04793 0.00309 0.0
C843 C 0.33789 0.07397 0.98268 0.0
H844 H 0.68875 0.04314 0.59054 0.0
H845 H 0.66731 0.10264 0.51335 0.0
H846 H 0.69247 0.99687 0.55665 0.0
H847 H 0.67005 0.05596 0.47946 0.0
H848 H 0.69341 0.97275 0.42051 0.0
H849 H 0.69667 0.0185 0.45515 0.0
H850 H 0.66692 0.96038 0.52923 0.0
H851 H 0.6647 0.91412 0.49462 0.0
C852 C 0.68482 0.04636 0.56627 0.0
C853 C 0.6776 0.07661 0.55467 0.0
C854 C 0.68678 0.01969 0.54684 0.0
C855 C 0.68134 0.02241 0.51529 0.0
C856 C 0.67474 0.05292 0.50354 0.0
C857 C 0.67306 0.07975 0.52298 0.0
C858 C 0.68784 0.96964 0.44432 0.0
C859 C 0.67864 0.93986 0.45481 0.0
C860 C 0.68952 0.99599 0.46414 0.0
C861 C 0.6817 0.99345 0.49495 0.0
C862 C 0.67336 0.96326 0.50575 0.0
C863 C 0.67203 0.93668 0.48593 0.0
loop_
_geom_bond_atom_site_label_1
_geom_bond_atom_site_label_2
_geom_bond_distance
_geom_bond_site_symmetry_2
_ccdc_geom_bond_type
Co0 O1 2.216 . S
Co0 O2 2.091 . S
Co0 O4 2.004 . S
Co0 O10 2.021 . S
Co0 O12 2.137 . S
Co0 O13 2.244 . S
O1 Co0 2.216 . S
O1 C8 1.247 . S
O2 Co0 2.091 . S
O2 C8 1.261 . S
C3 O12 1.247 . S
C3 O13 1.272 . S
O4 Co0 2.004 . S
O4 C9 1.259 . S
Co5 O6 2.061 . S
Co5 O11 2.052 . S
Co5 O13 2.135 . S
O6 Co5 2.061 . S
O6 C9 1.235 . S
C7 O10 1.238 . S
C7 O11 1.241 . S
C8 O1 1.247 . S
C8 O2 1.261 . S
C9 O4 1.259 . S
C9 O6 1.235 . S
O10 Co0 2.021 . S
O10 C7 1.238 . S
O11 Co5 2.052 . S
O11 C7 1.241 . S
O12 Co0 2.137 . S
O12 C3 1.247 . S
O13 Co0 2.244 . S
O13 C3 1.272 . S
O13 Co5 2.135 . S
Co14 O15 2.216 . S
Co14 O16 2.091 . S
Co14 O18 2.004 . S
Co14 O24 2.021 . S
Co14 O26 2.137 . S
Co14 O27 2.244 . S
O15 Co14 2.216 . S
O15 C22 1.247 . S
O16 Co14 2.091 . S
O16 C22 1.261 . S
C17 O26 1.247 . S
C17 O27 1.272 . S
O18 Co14 2.004 . S
O18 C23 1.259 . S
Co19 O20 2.061 . S
Co19 O25 2.052 . S
Co19 O27 2.135 . S
O20 Co19 2.061 . S
O20 C23 1.235 . S
C21 O24 1.238 . S
C21 O25 1.241 . S
C22 O15 1.247 . S
C22 O16 1.261 . S
C23 O18 1.259 . S
C23 O20 1.235 . S
O24 Co14 2.021 . S
O24 C21 1.238 . S
O25 Co19 2.052 . S
O25 C21 1.241 . S
O26 Co14 2.137 . S
O26 C17 1.247 . S
O27 Co14 2.244 . S
O27 C17 1.272 . S
O27 Co19 2.135 . S
Co28 O29 2.216 . S
Co28 O30 2.091 . S
Co28 O32 2.004 . S
Co28 O38 2.021 . S
Co28 O40 2.137 . S
Co28 O41 2.244 . S
O29 Co28 2.216 . S
O29 C36 1.247 . S
O30 Co28 2.091 . S
O30 C36 1.261 . S
C31 O40 1.247 . S
C31 O41 1.272 . S
O32 Co28 2.004 . S
O32 C37 1.259 . S
Co33 O34 2.061 . S
Co33 O39 2.052 . S
Co33 O41 2.135 . S
O34 Co33 2.061 . S
O34 C37 1.235 . S
C35 O38 1.238 . S
C35 O39 1.241 . S
C36 O29 1.247 . S
C36 O30 1.261 . S
C37 O32 1.259 . S
C37 O34 1.235 . S
O38 Co28 2.021 . S
O38 C35 1.238 . S
O39 Co33 2.052 . S
O39 C35 1.241 . S
O40 Co28 2.137 . S
O40 C31 1.247 . S
O41 Co28 2.244 . S
O41 C31 1.272 . S
O41 Co33 2.135 . S
Co42 O43 2.216 . S
Co42 O44 2.091 . S
Co42 O46 2.004 . S
Co42 O52 2.021 . S
Co42 O54 2.137 . S
Co42 O55 2.244 . S
O43 Co42 2.216 . S
O43 C50 1.247 . S
O44 Co42 2.091 . S
O44 C50 1.261 . S
C45 O54 1.247 . S
C45 O55 1.272 . S
O46 Co42 2.004 . S
O46 C51 1.259 . S
Co47 O48 2.061 . S
Co47 O53 2.052 . S
Co47 O55 2.135 . S
O48 Co47 2.061 . S
O48 C51 1.235 . S
C49 O52 1.238 . S
C49 O53 1.241 . S
C50 O43 1.247 . S
C50 O44 1.261 . S
C51 O46 1.259 . S
C51 O48 1.235 . S
O52 Co42 2.021 . S
O52 C49 1.238 . S
O53 Co47 2.052 . S
O53 C49 1.241 . S
O54 Co42 2.137 . S
O54 C45 1.247 . S
O55 Co42 2.244 . S
O55 C45 1.272 . S
O55 Co47 2.135 . S
Co56 O57 2.216 . S
Co56 O58 2.091 . S
Co56 O60 2.004 . S
Co56 O66 2.021 . S
Co56 O68 2.137 . S
Co56 O69 2.244 . S
O57 Co56 2.216 . S
O57 C64 1.247 . S
O58 Co56 2.091 . S
O58 C64 1.261 . S
C59 O68 1.247 . S
C59 O69 1.272 . S
O60 Co56 2.004 . S
O60 C65 1.259 . S
Co61 O62 2.061 . S
Co61 O67 2.052 . S
Co61 O69 2.135 . S
O62 Co61 2.061 . S
O62 C65 1.235 . S
C63 O66 1.238 . S
C63 O67 1.241 . S
C64 O57 1.247 . S
C64 O58 1.261 . S
C65 O60 1.259 . S
C65 O62 1.235 . S
O66 Co56 2.021 . S
O66 C63 1.238 . S
O67 Co61 2.052 . S
O67 C63 1.241 . S
O68 Co56 2.137 . S
O68 C59 1.247 . S
O69 Co56 2.244 . S
O69 C59 1.272 . S
O69 Co61 2.135 . S
Co70 O71 2.216 . S
Co70 O72 2.091 . S
Co70 O74 2.004 . S
Co70 O80 2.021 . S
Co70 O82 2.137 . S
Co70 O83 2.244 . S
O71 Co70 2.216 . S
O71 C78 1.247 . S
O72 Co70 2.091 . S
O72 C78 1.261 . S
C73 O82 1.247 . S
C73 O83 1.272 . S
O74 Co70 2.004 . S
O74 C79 1.259 . S
Co75 O76 2.061 . S
Co75 O81 2.052 . S
Co75 O83 2.135 . S
O76 Co75 2.061 . S
O76 C79 1.235 . S
C77 O80 1.238 . S
C77 O81 1.241 . S
C78 O71 1.247 . S
C78 O72 1.261 . S
C79 O74 1.259 . S
C79 O76 1.235 . S
O80 Co70 2.021 . S
O80 C77 1.238 . S
O81 Co75 2.052 . S
O81 C77 1.241 . S
O82 Co70 2.137 . S
O82 C73 1.247 . S
O83 Co70 2.244 . S
O83 C73 1.272 . S
O83 Co75 2.135 . S
Co84 O85 2.216 . S
Co84 O86 2.091 . S
Co84 O88 2.004 . S
Co84 O94 2.021 . S
Co84 O96 2.137 . S
Co84 O97 2.244 . S
O85 Co84 2.216 . S
O85 C92 1.247 . S
O86 Co84 2.091 . S
O86 C92 1.261 . S
C87 O96 1.247 . S
C87 O97 1.272 . S
O88 Co84 2.004 . S
O88 C93 1.259 . S
Co89 O90 2.061 . S
Co89 O95 2.052 . S
Co89 O97 2.135 . S
O90 Co89 2.061 . S
O90 C93 1.235 . S
C91 O94 1.238 . S
C91 O95 1.241 . S
C92 O85 1.247 . S
C92 O86 1.261 . S
C93 O88 1.259 . S
C93 O90 1.235 . S
O94 Co84 2.021 . S
O94 C91 1.238 . S
O95 Co89 2.052 . S
O95 C91 1.241 . S
O96 Co84 2.137 . S
O96 C87 1.247 . S
O97 Co84 2.244 . S
O97 C87 1.272 . S
O97 Co89 2.135 . S
Co98 O99 2.216 . S
Co98 O100 2.091 . S
Co98 O102 2.004 . S
Co98 O108 2.021 . S
Co98 O110 2.137 . S
Co98 O111 2.244 . S
O99 Co98 2.216 . S
O99 C106 1.247 . S
O100 Co98 2.091 . S
O100 C106 1.261 . S
C101 O110 1.247 . S
C101 O111 1.272 . S
O102 Co98 2.004 . S
O102 C107 1.259 . S
Co103 O104 2.061 . S
Co103 O109 2.052 . S
Co103 O111 2.135 . S
O104 Co103 2.061 . S
O104 C107 1.235 . S
C105 O108 1.238 . S
C105 O109 1.241 . S
C106 O99 1.247 . S
C106 O100 1.261 . S
C107 O102 1.259 . S
C107 O104 1.235 . S
O108 Co98 2.021 . S
O108 C105 1.238 . S
O109 Co103 2.052 . S
O109 C105 1.241 . S
O110 Co98 2.137 . S
O110 C101 1.247 . S
O111 Co98 2.244 . S
O111 C101 1.272 . S
O111 Co103 2.135 . S
Co112 O113 2.216 . S
Co112 O114 2.091 . S
Co112 O116 2.004 . S
Co112 O122 2.021 . S
Co112 O124 2.137 . S
Co112 O125 2.244 . S
O113 Co112 2.216 . S
O113 C120 1.247 . S
O114 Co112 2.091 . S
O114 C120 1.261 . S
C115 O124 1.247 . S
C115 O125 1.272 . S
O116 Co112 2.004 . S
O116 C121 1.259 . S
Co117 O118 2.061 . S
Co117 O123 2.052 . S
Co117 O125 2.135 . S
O118 Co117 2.061 . S
O118 C121 1.235 . S
C119 O122 1.238 . S
C119 O123 1.241 . S
C120 O113 1.247 . S
C120 O114 1.261 . S
C121 O116 1.259 . S
C121 O118 1.235 . S
O122 Co112 2.021 . S
O122 C119 1.238 . S
O123 Co117 2.052 . S
O123 C119 1.241 . S
O124 Co112 2.137 . S
O124 C115 1.247 . S
O125 Co112 2.244 . S
O125 C115 1.272 . S
O125 Co117 2.135 . S
Co126 O127 2.216 . S
Co126 O128 2.091 . S
Co126 O130 2.004 . S
Co126 O136 2.021 . S
Co126 O138 2.137 . S
Co126 O139 2.244 . S
O127 Co126 2.216 . S
O127 C134 1.247 . S
O128 Co126 2.091 . S
O128 C134 1.261 . S
C129 O138 1.247 . S
C129 O139 1.272 . S
O130 Co126 2.004 . S
O130 C135 1.259 . S
Co131 O132 2.061 . S
Co131 O137 2.052 . S
Co131 O139 2.135 . S
O132 Co131 2.061 . S
O132 C135 1.235 . S
C133 O136 1.238 . S
C133 O137 1.241 . S
C134 O127 1.247 . S
C134 O128 1.261 . S
C135 O130 1.259 . S
C135 O132 1.235 . S
O136 Co126 2.021 . S
O136 C133 1.238 . S
O137 Co131 2.052 . S
O137 C133 1.241 . S
O138 Co126 2.137 . S
O138 C129 1.247 . S
O139 Co126 2.244 . S
O139 C129 1.272 . S
O139 Co131 2.135 . S
Co140 O141 2.216 . S
Co140 O142 2.091 . S
Co140 O144 2.004 . S
Co140 O150 2.021 . S
Co140 O152 2.137 . S
Co140 O153 2.244 . S
O141 Co140 2.216 . S
O141 C148 1.247 . S
O142 Co140 2.091 . S
O142 C148 1.261 . S
C143 O152 1.247 . S
C143 O153 1.272 . S
O144 Co140 2.004 . S
O144 C149 1.259 . S
Co145 O146 2.061 . S
Co145 O151 2.052 . S
Co145 O153 2.135 . S
O146 Co145 2.061 . S
O146 C149 1.235 . S
C147 O150 1.238 . S
C147 O151 1.241 . S
C148 O141 1.247 . S
C148 O142 1.261 . S
C149 O144 1.259 . S
C149 O146 1.235 . S
O150 Co140 2.021 . S
O150 C147 1.238 . S
O151 Co145 2.052 . S
O151 C147 1.241 . S
O152 Co140 2.137 . S
O152 C143 1.247 . S
O153 Co140 2.244 . S
O153 C143 1.272 . S
O153 Co145 2.135 . S
Co154 O155 2.216 . S
Co154 O156 2.091 . S
Co154 O158 2.004 . S
Co154 O164 2.021 . S
Co154 O166 2.137 . S
Co154 O167 2.244 . S
O155 Co154 2.216 . S
O155 C162 1.247 . S
O156 Co154 2.091 . S
O156 C162 1.261 . S
C157 O166 1.247 . S
C157 O167 1.272 . S
O158 Co154 2.004 . S
O158 C163 1.259 . S
Co159 O160 2.061 . S
Co159 O165 2.052 . S
Co159 O167 2.135 . S
O160 Co159 2.061 . S
O160 C163 1.235 . S
C161 O164 1.238 . S
C161 O165 1.241 . S
C162 O155 1.247 . S
C162 O156 1.261 . S
C163 O158 1.259 . S
C163 O160 1.235 . S
O164 Co154 2.021 . S
O164 C161 1.238 . S
O165 Co159 2.052 . S
O165 C161 1.241 . S
O166 Co154 2.137 . S
O166 C157 1.247 . S
O167 Co154 2.244 . S
O167 C157 1.272 . S
O167 Co159 2.135 . S
Co168 O169 2.216 . S
Co168 O170 2.091 . S
Co168 O172 2.004 . S
Co168 O178 2.021 . S
Co168 O180 2.137 . S
Co168 O181 2.244 . S
O169 Co168 2.216 . S
O169 C176 1.247 . S
O170 Co168 2.091 . S
O170 C176 1.261 . S
C171 O180 1.247 . S
C171 O181 1.272 . S
O172 Co168 2.004 . S
O172 C177 1.259 . S
Co173 O174 2.061 . S
Co173 O179 2.052 . S
Co173 O181 2.135 . S
O174 Co173 2.061 . S
O174 C177 1.235 . S
C175 O178 1.238 . S
C175 O179 1.241 . S
C176 O169 1.247 . S
C176 O170 1.261 . S
C177 O172 1.259 . S
C177 O174 1.235 . S
O178 Co168 2.021 . S
O178 C175 1.238 . S
O179 Co173 2.052 . S
O179 C175 1.241 . S
O180 Co168 2.137 . S
O180 C171 1.247 . S
O181 Co168 2.244 . S
O181 C171 1.272 . S
O181 Co173 2.135 . S
Co182 O183 2.216 . S
Co182 O184 2.091 . S
Co182 O186 2.004 . S
Co182 O192 2.021 . S
Co182 O194 2.137 . S
Co182 O195 2.244 . S
O183 Co182 2.216 . S
O183 C190 1.247 . S
O184 Co182 2.091 . S
O184 C190 1.261 . S
C185 O194 1.247 . S
C185 O195 1.272 . S
O186 Co182 2.004 . S
O186 C191 1.259 . S
Co187 O188 2.061 . S
Co187 O193 2.052 . S
Co187 O195 2.135 . S
O188 Co187 2.061 . S
O188 C191 1.235 . S
C189 O192 1.238 . S
C189 O193 1.241 . S
C190 O183 1.247 . S
C190 O184 1.261 . S
C191 O186 1.259 . S
C191 O188 1.235 . S
O192 Co182 2.021 . S
O192 C189 1.238 . S
O193 Co187 2.052 . S
O193 C189 1.241 . S
O194 Co182 2.137 . S
O194 C185 1.247 . S
O195 Co182 2.244 . S
O195 C185 1.272 . S
O195 Co187 2.135 . S
Co196 O197 2.216 . S
Co196 O198 2.091 . S
Co196 O200 2.004 . S
Co196 O206 2.021 . S
Co196 O208 2.137 . S
Co196 O209 2.244 . S
O197 Co196 2.216 . S
O197 C204 1.247 . S
O198 Co196 2.091 . S
O198 C204 1.261 . S
C199 O208 1.247 . S
C199 O209 1.272 . S
O200 Co196 2.004 . S
O200 C205 1.259 . S
Co201 O202 2.061 . S
Co201 O207 2.052 . S
Co201 O209 2.135 . S
O202 Co201 2.061 . S
O202 C205 1.235 . S
C203 O206 1.238 . S
C203 O207 1.241 . S
C204 O197 1.247 . S
C204 O198 1.261 . S
C205 O200 1.259 . S
C205 O202 1.235 . S
O206 Co196 2.021 . S
O206 C203 1.238 . S
O207 Co201 2.052 . S
O207 C203 1.241 . S
O208 Co196 2.137 . S
O208 C199 1.247 . S
O209 Co196 2.244 . S
O209 C199 1.272 . S
O209 Co201 2.135 . S
Co210 O211 2.216 . S
Co210 O212 2.091 . S
Co210 O214 2.004 . S
Co210 O220 2.021 . S
Co210 O222 2.137 . S
Co210 O223 2.244 . S
O211 Co210 2.216 . S
O211 C218 1.247 . S
O212 Co210 2.091 . S
O212 C218 1.261 . S
C213 O222 1.247 . S
C213 O223 1.272 . S
O214 Co210 2.004 . S
O214 C219 1.259 . S
Co215 O216 2.061 . S
Co215 O221 2.052 . S
Co215 O223 2.135 . S
O216 Co215 2.061 . S
O216 C219 1.235 . S
C217 O220 1.238 . S
C217 O221 1.241 . S
C218 O211 1.247 . S
C218 O212 1.261 . S
C219 O214 1.259 . S
C219 O216 1.235 . S
O220 Co210 2.021 . S
O220 C217 1.238 . S
O221 Co215 2.052 . S
O221 C217 1.241 . S
O222 Co210 2.137 . S
O222 C213 1.247 . S
O223 Co210 2.244 . S
O223 C213 1.272 . S
O223 Co215 2.135 . S
H224 C232 0.950 . S
H225 C237 0.950 . S
H226 C234 0.950 . S
H227 C236 0.950 . S
H228 C238 0.950 . S
H229 C240 0.950 . S
H230 C242 0.950 . S
H231 C243 0.950 . S
C232 H224 0.950 . S
C232 C233 1.386 . S
C232 C234 1.391 . S
C233 C232 1.386 . S
C233 C237 1.393 . S
C234 H226 0.950 . S
C234 C232 1.391 . S
C234 C235 1.400 . S
C235 C234 1.400 . S
C235 C236 1.398 . S
C235 C241 1.491 1_455 S
C236 H227 0.950 . S
C236 C235 1.398 . S
C236 C237 1.391 . S
C237 H225 0.950 . S
C237 C233 1.393 . S
C237 C236 1.391 . S
C238 H228 0.950 . S
C238 C239 1.386 . S
C238 C240 1.391 . S
C239 C238 1.386 . S
C239 C243 1.393 . S
C240 H229 0.950 . S
C240 C238 1.391 . S
C240 C241 1.400 . S
C241 C235 1.491 1_655 S
C241 C240 1.400 . S
C241 C242 1.398 . S
C242 H230 0.950 . S
C242 C241 1.398 . S
C242 C243 1.391 . S
C243 H231 0.950 . S
C243 C239 1.393 . S
C243 C242 1.391 . S
H244 C252 0.950 . S
H245 C257 0.950 . S
H246 C254 0.950 . S
H247 C256 0.950 . S
H248 C258 0.950 . S
H249 C260 0.950 . S
H250 C262 0.950 . S
H251 C263 0.950 . S
C252 H244 0.950 . S
C252 C253 1.386 . S
C252 C254 1.391 . S
C253 C252 1.386 . S
C253 C257 1.393 . S
C254 H246 0.950 . S
C254 C252 1.391 . S
C254 C255 1.400 . S
C255 C254 1.400 . S
C255 C256 1.398 . S
C255 C261 1.491 1_655 S
C256 H247 0.950 . S
C256 C255 1.398 . S
C256 C257 1.391 . S
C257 H245 0.950 . S
C257 C253 1.393 . S
C257 C256 1.391 . S
C258 H248 0.950 . S
C258 C259 1.386 . S
C258 C260 1.391 . S
C259 C258 1.386 . S
C259 C263 1.393 . S
C260 H249 0.950 . S
C260 C258 1.391 . S
C260 C261 1.400 . S
C261 C255 1.491 1_455 S
C261 C260 1.400 . S
C261 C262 1.398 . S
C262 H250 0.950 . S
C262 C261 1.398 . S
C262 C263 1.391 . S
C263 H251 0.950 . S
C263 C259 1.393 . S
C263 C262 1.391 . S
H264 C272 0.950 . S
H265 C277 0.950 . S
H266 C274 0.950 . S
H267 C276 0.950 . S
H268 C278 0.950 . S
H269 C280 0.950 . S
H270 C282 0.950 . S
H271 C283 0.950 . S
C272 H264 0.950 . S
C272 C273 1.386 . S
C272 C274 1.391 . S
C273 C272 1.386 . S
C273 C277 1.393 . S
C274 H266 0.950 . S
C274 C272 1.391 . S
C274 C275 1.400 . S
C275 C274 1.400 . S
C275 C276 1.398 . S
C275 C281 1.491 1_655 S
C276 H267 0.950 . S
C276 C275 1.398 . S
C276 C277 1.391 . S
C277 H265 0.950 . S
C277 C273 1.393 . S
C277 C276 1.391 . S
C278 H268 0.950 . S
C278 C279 1.386 . S
C278 C280 1.391 . S
C279 C278 1.386 . S
C279 C283 1.393 . S
C280 H269 0.950 . S
C280 C278 1.391 . S
C280 C281 1.400 . S
C281 C275 1.491 1_455 S
C281 C280 1.400 . S
C281 C282 1.398 . S
C282 H270 0.950 . S
C282 C281 1.398 . S
C282 C283 1.391 . S
C283 H271 0.950 . S
C283 C279 1.393 . S
C283 C282 1.391 . S
H284 C292 0.950 . S
H285 C297 0.950 . S
H286 C294 0.950 . S
H287 C296 0.950 . S
H288 C298 0.950 . S
H289 C300 0.950 . S
H290 C302 0.950 . S
H291 C303 0.950 . S
C292 H284 0.950 . S
C292 C293 1.386 . S
C292 C294 1.391 . S
C293 C292 1.386 . S
C293 C297 1.393 . S
C294 H286 0.950 . S
C294 C292 1.391 . S
C294 C295 1.400 . S
C295 C294 1.400 . S
C295 C296 1.398 . S
C295 C301 1.491 1_455 S
C296 H287 0.950 . S
C296 C295 1.398 . S
C296 C297 1.391 . S
C297 H285 0.950 . S
C297 C293 1.393 . S
C297 C296 1.391 . S
C298 H288 0.950 . S
C298 C299 1.386 . S
C298 C300 1.391 . S
C299 C298 1.386 . S
C299 C303 1.393 . S
C300 H289 0.950 . S
C300 C298 1.391 . S
C300 C301 1.400 . S
C301 C295 1.491 1_655 S
C301 C300 1.400 . S
C301 C302 1.398 . S
C302 H290 0.950 . S
C302 C301 1.398 . S
C302 C303 1.391 . S
C303 H291 0.950 . S
C303 C299 1.393 . S
C303 C302 1.391 . S
H304 C312 0.950 . S
H305 C317 0.950 . S
H306 C314 0.950 . S
H307 C316 0.950 . S
H308 C318 0.950 . S
H309 C320 0.950 . S
H310 C322 0.950 . S
H311 C323 0.950 . S
C312 H304 0.950 . S
C312 C313 1.386 . S
C312 C314 1.391 . S
C313 C312 1.386 . S
C313 C317 1.393 . S
C314 H306 0.950 . S
C314 C312 1.391 . S
C314 C315 1.400 . S
C315 C314 1.400 . S
C315 C316 1.398 . S
C315 C321 1.491 . S
C316 H307 0.950 . S
C316 C315 1.398 . S
C316 C317 1.391 . S
C317 H305 0.950 . S
C317 C313 1.393 . S
C317 C316 1.391 . S
C318 H308 0.950 . S
C318 C319 1.386 . S
C318 C320 1.391 . S
C319 C318 1.386 . S
C319 C323 1.393 . S
C320 H309 0.950 . S
C320 C318 1.391 . S
C320 C321 1.400 . S
C321 C315 1.491 . S
C321 C320 1.400 . S
C321 C322 1.398 . S
C322 H310 0.950 . S
C322 C321 1.398 . S
C322 C323 1.391 . S
C323 H311 0.950 . S
C323 C319 1.393 . S
C323 C322 1.391 . S
H324 C332 0.950 . S
H325 C337 0.950 . S
H326 C334 0.950 . S
H327 C336 0.950 . S
H328 C338 0.950 . S
H329 C340 0.950 . S
H330 C342 0.950 . S
H331 C343 0.950 . S
C332 H324 0.950 . S
C332 C333 1.386 . S
C332 C334 1.391 . S
C333 C332 1.386 . S
C333 C337 1.393 . S
C334 H326 0.950 . S
C334 C332 1.391 . S
C334 C335 1.400 . S
C335 C334 1.400 . S
C335 C336 1.398 . S
C335 C341 1.491 . S
C336 H327 0.950 . S
C336 C335 1.398 . S
C336 C337 1.391 . S
C337 H325 0.950 . S
C337 C333 1.393 . S
C337 C336 1.391 . S
C338 H328 0.950 . S
C338 C339 1.386 . S
C338 C340 1.391 . S
C339 C338 1.386 . S
C339 C343 1.393 . S
C340 H329 0.950 . S
C340 C338 1.391 . S
C340 C341 1.400 . S
C341 C335 1.491 . S
C341 C340 1.400 . S
C341 C342 1.398 . S
C342 H330 0.950 . S
C342 C341 1.398 . S
C342 C343 1.391 . S
C343 H331 0.950 . S
C343 C339 1.393 . S
C343 C342 1.391 . S
H344 C352 0.950 . S
H345 C357 0.950 . S
H346 C354 0.950 . S
H347 C356 0.950 . S
H348 C358 0.950 . S
H349 C360 0.950 . S
H350 C362 0.950 . S
H351 C363 0.950 . S
C352 H344 0.950 . S
C352 C353 1.386 . S
C352 C354 1.391 . S
C353 C352 1.386 . S
C353 C357 1.393 . S
C354 H346 0.950 . S
C354 C352 1.391 . S
C354 C355 1.400 . S
C355 C354 1.400 . S
C355 C356 1.398 . S
C355 C361 1.491 . S
C356 H347 0.950 . S
C356 C355 1.398 . S
C356 C357 1.391 . S
C357 H345 0.950 . S
C357 C353 1.393 . S
C357 C356 1.391 . S
C358 H348 0.950 . S
C358 C359 1.386 . S
C358 C360 1.391 . S
C359 C358 1.386 . S
C359 C363 1.393 . S
C360 H349 0.950 . S
C360 C358 1.391 . S
C360 C361 1.400 . S
C361 C355 1.491 . S
C361 C360 1.400 . S
C361 C362 1.398 . S
C362 H350 0.950 . S
C362 C361 1.398 . S
C362 C363 1.391 . S
C363 H351 0.950 . S
C363 C359 1.393 . S
C363 C362 1.391 . S
H364 C372 0.950 . S
H365 C377 0.950 . S
H366 C374 0.950 . S
H367 C376 0.950 . S
H368 C378 0.950 . S
H369 C380 0.950 . S
H370 C382 0.950 . S
H371 C383 0.950 . S
C372 H364 0.950 . S
C372 C373 1.386 . S
C372 C374 1.391 . S
C373 C372 1.386 . S
C373 C377 1.393 . S
C374 H366 0.950 . S
C374 C372 1.391 . S
C374 C375 1.400 . S
C375 C374 1.400 . S
C375 C376 1.398 . S
C375 C381 1.491 . S
C376 H367 0.950 . S
C376 C375 1.398 . S
C376 C377 1.391 . S
C377 H365 0.950 . S
C377 C373 1.393 . S
C377 C376 1.391 . S
C378 H368 0.950 . S
C378 C379 1.386 . S
C378 C380 1.391 . S
C379 C378 1.386 . S
C379 C383 1.393 . S
C380 H369 0.950 . S
C380 C378 1.391 . S
C380 C381 1.400 . S
C381 C375 1.491 . S
C381 C380 1.400 . S
C381 C382 1.398 . S
C382 H370 0.950 . S
C382 C381 1.398 . S
C382 C383 1.391 . S
C383 H371 0.950 . S
C383 C379 1.393 . S
C383 C382 1.391 . S
H384 C392 0.950 . S
H385 C397 0.950 . S
H386 C394 0.950 . S
H387 C396 0.950 . S
H388 C398 0.950 . S
H389 C400 0.950 . S
H390 C402 0.950 . S
H391 C403 0.950 . S
C392 H384 0.950 . S
C392 C393 1.386 . S
C392 C394 1.391 . S
C393 C392 1.386 . S
C393 C397 1.393 . S
C394 H386 0.950 . S
C394 C392 1.391 . S
C394 C395 1.400 . S
C395 C394 1.400 . S
C395 C396 1.398 . S
C395 C401 1.491 . S
C396 H387 0.950 . S
C396 C395 1.398 . S
C396 C397 1.391 . S
C397 H385 0.950 . S
C397 C393 1.393 . S
C397 C396 1.391 . S
C398 H388 0.950 . S
C398 C399 1.386 . S
C398 C400 1.391 . S
C399 C398 1.386 . S
C399 C403 1.393 . S
C400 H389 0.950 . S
C400 C398 1.391 . S
C400 C401 1.400 . S
C401 C395 1.491 . S
C401 C400 1.400 . S
C401 C402 1.398 . S
C402 H390 0.950 . S
C402 C401 1.398 . S
C402 C403 1.391 . S
C403 H391 0.950 . S
C403 C399 1.393 . S
C403 C402 1.391 . S
H404 C412 0.950 . S
H405 C417 0.950 . S
H406 C414 0.950 . S
H407 C416 0.950 . S
H408 C418 0.950 . S
H409 C420 0.950 . S
H410 C422 0.950 . S
H411 C423 0.950 . S
C412 H404 0.950 . S
C412 C413 1.386 . S
C412 C414 1.391 . S
C413 C412 1.386 . S
C413 C417 1.393 . S
C414 H406 0.950 . S
C414 C412 1.391 . S
C414 C415 1.400 . S
C415 C414 1.400 . S
C415 C416 1.398 . S
C415 C421 1.491 . S
C416 H407 0.950 . S
C416 C415 1.398 . S
C416 C417 1.391 . S
C417 H405 0.950 . S
C417 C413 1.393 . S
C417 C416 1.391 . S
C418 H408 0.950 . S
C418 C419 1.386 . S
C418 C420 1.391 . S
C419 C418 1.386 . S
C419 C423 1.393 . S
C420 H409 0.950 . S
C420 C418 1.391 . S
C420 C421 1.400 . S
C421 C415 1.491 . S
C421 C420 1.400 . S
C421 C422 1.398 . S
C422 H410 0.950 . S
C422 C421 1.398 . S
C422 C423 1.391 . S
C423 H411 0.950 . S
C423 C419 1.393 . S
C423 C422 1.391 . S
H424 C432 0.950 . S
H425 C437 0.950 . S
H426 C434 0.950 . S
H427 C436 0.950 . S
H428 C438 0.950 . S
H429 C440 0.950 . S
H430 C442 0.950 . S
H431 C443 0.950 . S
C432 H424 0.950 . S
C432 C433 1.386 . S
C432 C434 1.391 . S
C433 C432 1.386 . S
C433 C437 1.393 . S
C434 H426 0.950 . S
C434 C432 1.391 . S
C434 C435 1.400 . S
C435 C434 1.400 . S
C435 C436 1.398 . S
C435 C441 1.491 . S
C436 H427 0.950 . S
C436 C435 1.398 . S
C436 C437 1.391 . S
C437 H425 0.950 . S
C437 C433 1.393 . S
C437 C436 1.391 . S
C438 H428 0.950 . S
C438 C439 1.386 . S
C438 C440 1.391 . S
C439 C438 1.386 . S
C439 C443 1.393 . S
C440 H429 0.950 . S
C440 C438 1.391 . S
C440 C441 1.400 . S
C441 C435 1.491 . S
C441 C440 1.400 . S
C441 C442 1.398 . S
C442 H430 0.950 . S
C442 C441 1.398 . S
C442 C443 1.391 . S
C443 H431 0.950 . S
C443 C439 1.393 . S
C443 C442 1.391 . S
H444 C452 0.950 . S
H445 C457 0.950 . S
H446 C454 0.950 . S
H447 C456 0.950 . S
H448 C458 0.950 . S
H449 C460 0.950 . S
H450 C462 0.950 . S
H451 C463 0.950 . S
C452 H444 0.950 . S
C452 C453 1.386 . S
C452 C454 1.391 . S
C453 C452 1.386 . S
C453 C457 1.393 . S
C454 H446 0.950 . S
C454 C452 1.391 . S
C454 C455 1.400 . S
C455 C454 1.400 . S
C455 C456 1.398 . S
C455 C461 1.491 . S
C456 H447 0.950 . S
C456 C455 1.398 . S
C456 C457 1.391 . S
C457 H445 0.950 . S
C457 C453 1.393 . S
C457 C456 1.391 . S
C458 H448 0.950 . S
C458 C459 1.386 . S
C458 C460 1.391 . S
C459 C458 1.386 . S
C459 C463 1.393 . S
C460 H449 0.950 . S
C460 C458 1.391 . S
C460 C461 1.400 . S
C461 C455 1.491 . S
C461 C460 1.400 . S
C461 C462 1.398 . S
C462 H450 0.950 . S
C462 C461 1.398 . S
C462 C463 1.391 . S
C463 H451 0.950 . S
C463 C459 1.393 . S
C463 C462 1.391 . S
H464 C472 0.950 . S
H465 C477 0.950 . S
H466 C474 0.950 . S
H467 C476 0.950 . S
H468 C478 0.950 . S
H469 C480 0.950 . S
H470 C482 0.950 . S
H471 C483 0.950 . S
C472 H464 0.950 . S
C472 C473 1.386 . S
C472 C474 1.391 . S
C473 C472 1.386 . S
C473 C477 1.393 . S
C474 H466 0.950 . S
C474 C472 1.391 . S
C474 C475 1.400 . S
C475 C474 1.400 . S
C475 C476 1.398 . S
C475 C481 1.491 . S
C476 H467 0.950 . S
C476 C475 1.398 . S
C476 C477 1.391 . S
C477 H465 0.950 . S
C477 C473 1.393 . S
C477 C476 1.391 . S
C478 H468 0.950 . S
C478 C479 1.386 . S
C478 C480 1.391 . S
C479 C478 1.386 . S
C479 C483 1.393 . S
C480 H469 0.950 . S
C480 C478 1.391 . S
C480 C481 1.400 . S
C481 C475 1.491 . S
C481 C480 1.400 . S
C481 C482 1.398 . S
C482 H470 0.950 . S
C482 C481 1.398 . S
C482 C483 1.391 . S
C483 H471 0.950 . S
C483 C479 1.393 . S
C483 C482 1.391 . S
H484 C492 0.950 . S
H485 C497 0.950 . S
H486 C494 0.950 . S
H487 C496 0.950 . S
H488 C498 0.950 . S
H489 C500 0.950 . S
H490 C502 0.950 . S
H491 C503 0.950 . S
C492 H484 0.950 . S
C492 C493 1.386 . S
C492 C494 1.391 . S
C493 C492 1.386 . S
C493 C497 1.393 . S
C494 H486 0.950 . S
C494 C492 1.391 . S
C494 C495 1.400 . S
C495 C494 1.400 . S
C495 C496 1.398 . S
C495 C501 1.491 . S
C496 H487 0.950 . S
C496 C495 1.398 . S
C496 C497 1.391 . S
C497 H485 0.950 . S
C497 C493 1.393 . S
C497 C496 1.391 . S
C498 H488 0.950 . S
C498 C499 1.386 . S
C498 C500 1.391 . S
C499 C498 1.386 . S
C499 C503 1.393 . S
C500 H489 0.950 . S
C500 C498 1.391 . S
C500 C501 1.400 . S
C501 C495 1.491 . S
C501 C500 1.400 . S
C501 C502 1.398 . S
C502 H490 0.950 . S
C502 C501 1.398 . S
C502 C503 1.391 . S
C503 H491 0.950 . S
C503 C499 1.393 . S
C503 C502 1.391 . S
H504 C512 0.950 . S
H505 C517 0.950 . S
H506 C514 0.950 . S
H507 C516 0.950 . S
H508 C518 0.950 . S
H509 C520 0.950 . S
H510 C522 0.950 . S
H511 C523 0.950 . S
C512 H504 0.950 . S
C512 C513 1.386 . S
C512 C514 1.391 . S
C513 C512 1.386 . S
C513 C517 1.393 . S
C514 H506 0.950 . S
C514 C512 1.391 . S
C514 C515 1.400 . S
C515 C514 1.400 . S
C515 C516 1.398 . S
C515 C521 1.491 . S
C516 H507 0.950 . S
C516 C515 1.398 . S
C516 C517 1.391 . S
C517 H505 0.950 . S
C517 C513 1.393 . S
C517 C516 1.391 . S
C518 H508 0.950 . S
C518 C519 1.386 . S
C518 C520 1.391 . S
C519 C518 1.386 . S
C519 C523 1.393 . S
C520 H509 0.950 . S
C520 C518 1.391 . S
C520 C521 1.400 . S
C521 C515 1.491 . S
C521 C520 1.400 . S
C521 C522 1.398 . S
C522 H510 0.950 . S
C522 C521 1.398 . S
C522 C523 1.391 . S
C523 H511 0.950 . S
C523 C519 1.393 . S
C523 C522 1.391 . S
H524 C532 0.950 . S
H525 C537 0.950 . S
H526 C534 0.950 . S
H527 C536 0.950 . S
H528 C538 0.950 . S
H529 C540 0.950 . S
H530 C542 0.950 . S
H531 C543 0.950 . S
C532 H524 0.950 . S
C532 C533 1.386 . S
C532 C534 1.391 . S
C533 C532 1.386 . S
C533 C537 1.393 . S
C534 H526 0.950 . S
C534 C532 1.391 . S
C534 C535 1.400 . S
C535 C534 1.400 . S
C535 C536 1.398 . S
C535 C541 1.491 . S
C536 H527 0.950 . S
C536 C535 1.398 . S
C536 C537 1.391 . S
C537 H525 0.950 . S
C537 C533 1.393 . S
C537 C536 1.391 . S
C538 H528 0.950 . S
C538 C539 1.386 . S
C538 C540 1.391 . S
C539 C538 1.386 . S
C539 C543 1.393 . S
C540 H529 0.950 . S
C540 C538 1.391 . S
C540 C541 1.400 . S
C541 C535 1.491 . S
C541 C540 1.400 . S
C541 C542 1.398 . S
C542 H530 0.950 . S
C542 C541 1.398 . S
C542 C543 1.391 . S
C543 H531 0.950 . S
C543 C539 1.393 . S
C543 C542 1.391 . S
H544 C552 0.950 . S
H545 C557 0.950 . S
H546 C554 0.950 1_554 S
H547 C556 0.950 . S
H548 C558 0.950 . S
H549 C560 0.950 1_556 S
H550 C562 0.950 . S
H551 C563 0.950 . S
C552 H544 0.950 . S
C552 C553 1.386 . S
C552 C554 1.391 . S
C553 C552 1.386 . S
C553 C557 1.393 . S
C554 H546 0.950 1_556 S
C554 C552 1.391 . S
C554 C555 1.400 . S
C555 C554 1.400 . S
C555 C556 1.398 . S
C555 C561 1.491 1_556 S
C556 H547 0.950 . S
C556 C555 1.398 . S
C556 C557 1.391 . S
C557 H545 0.950 . S
C557 C553 1.393 . S
C557 C556 1.391 . S
C558 H548 0.950 . S
C558 C559 1.386 . S
C558 C560 1.391 . S
C559 C558 1.386 . S
C559 C563 1.393 . S
C560 H549 0.950 1_554 S
C560 C558 1.391 . S
C560 C561 1.400 . S
C561 C555 1.491 1_554 S
C561 C560 1.400 . S
C561 C562 1.398 . S
C562 H550 0.950 . S
C562 C561 1.398 . S
C562 C563 1.391 . S
C563 H551 0.950 . S
C563 C559 1.393 . S
C563 C562 1.391 . S
H564 C572 0.950 . S
H565 C577 0.950 . S
H566 C574 0.950 . S
H567 C576 0.950 . S
H568 C578 0.950 . S
H569 C580 0.950 . S
H570 C582 0.950 . S
H571 C583 0.950 . S
C572 H564 0.950 . S
C572 C573 1.386 . S
C572 C574 1.391 . S
C573 C572 1.386 . S
C573 C577 1.393 . S
C574 H566 0.950 . S
C574 C572 1.391 . S
C574 C575 1.400 . S
C575 C574 1.400 . S
C575 C576 1.398 . S
C575 C581 1.491 . S
C576 H567 0.950 . S
C576 C575 1.398 . S
C576 C577 1.391 . S
C577 H565 0.950 . S
C577 C573 1.393 . S
C577 C576 1.391 . S
C578 H568 0.950 . S
C578 C579 1.386 . S
C578 C580 1.391 . S
C579 C578 1.386 . S
C579 C583 1.393 . S
C580 H569 0.950 . S
C580 C578 1.391 . S
C580 C581 1.400 . S
C581 C575 1.491 . S
C581 C580 1.400 . S
C581 C582 1.398 . S
C582 H570 0.950 . S
C582 C581 1.398 . S
C582 C583 1.391 . S
C583 H571 0.950 . S
C583 C579 1.393 . S
C583 C582 1.391 . S
H584 C592 0.950 . S
H585 C597 0.950 . S
H586 C594 0.950 1_556 S
H587 C596 0.950 . S
H588 C598 0.950 . S
H589 C600 0.950 1_554 S
H590 C602 0.950 . S
H591 C603 0.950 . S
C592 H584 0.950 . S
C592 C593 1.386 . S
C592 C594 1.391 . S
C593 C592 1.386 . S
C593 C597 1.393 . S
C594 H586 0.950 1_554 S
C594 C592 1.391 . S
C594 C595 1.400 . S
C595 C594 1.400 . S
C595 C596 1.398 . S
C595 C601 1.491 1_554 S
C596 H587 0.950 . S
C596 C595 1.398 . S
C596 C597 1.391 . S
C597 H585 0.950 . S
C597 C593 1.393 . S
C597 C596 1.391 . S
C598 H588 0.950 . S
C598 C599 1.386 . S
C598 C600 1.391 . S
C599 C598 1.386 . S
C599 C603 1.393 . S
C600 H589 0.950 1_556 S
C600 C598 1.391 . S
C600 C601 1.400 . S
C601 C595 1.491 1_556 S
C601 C600 1.400 . S
C601 C602 1.398 . S
C602 H590 0.950 . S
C602 C601 1.398 . S
C602 C603 1.391 . S
C603 H591 0.950 . S
C603 C599 1.393 . S
C603 C602 1.391 . S
H604 C612 0.950 . S
H605 C617 0.950 . S
H606 C614 0.950 . S
H607 C616 0.950 . S
H608 C618 0.950 . S
H609 C620 0.950 . S
H610 C622 0.950 . S
H611 C623 0.950 . S
C612 H604 0.950 . S
C612 C613 1.386 . S
C612 C614 1.391 . S
C613 C612 1.386 . S
C613 C617 1.393 . S
C614 H606 0.950 . S
C614 C612 1.391 . S
C614 C615 1.400 . S
C615 C614 1.400 . S
C615 C616 1.398 . S
C615 C621 1.491 . S
C616 H607 0.950 . S
C616 C615 1.398 . S
C616 C617 1.391 . S
C617 H605 0.950 . S
C617 C613 1.393 . S
C617 C616 1.391 . S
C618 H608 0.950 . S
C618 C619 1.386 . S
C618 C620 1.391 . S
C619 C618 1.386 . S
C619 C623 1.393 . S
C620 H609 0.950 . S
C620 C618 1.391 . S
C620 C621 1.400 . S
C621 C615 1.491 . S
C621 C620 1.400 . S
C621 C622 1.398 . S
C622 H610 0.950 . S
C622 C621 1.398 . S
C622 C623 1.391 . S
C623 H611 0.950 . S
C623 C619 1.393 . S
C623 C622 1.391 . S
H624 C632 0.953 . S
H625 C637 0.950 . S
H626 C634 0.950 . S
H627 C636 0.950 . S
H628 C638 0.962 . S
H629 C640 0.950 . S
H630 C642 0.950 . S
H631 C643 0.950 . S
C632 H624 0.953 . S
C632 C633 1.386 . S
C632 C634 1.391 1_554 S
C633 C632 1.386 . S
C633 C637 1.393 . S
C634 H626 0.950 . S
C634 C632 1.391 1_556 S
C634 C635 1.400 1_556 S
C635 C634 1.400 1_554 S
C635 C636 1.398 . S
C635 C641 1.491 1_554 S
C636 H627 0.950 . S
C636 C635 1.398 . S
C636 C637 1.391 . S
C637 H625 0.950 . S
C637 C633 1.393 . S
C637 C636 1.391 . S
C638 H628 0.962 . S
C638 C639 1.386 . S
C638 C640 1.391 1_556 S
C639 C638 1.386 . S
C639 C643 1.393 . S
C640 H629 0.950 . S
C640 C638 1.391 1_554 S
C640 C641 1.400 1_554 S
C641 C635 1.491 1_556 S
C641 C640 1.400 1_556 S
C641 C642 1.398 . S
C642 H630 0.950 . S
C642 C641 1.398 . S
C642 C643 1.391 . S
C643 H631 0.950 . S
C643 C639 1.393 . S
C643 C642 1.391 . S
H644 C652 0.950 . S
H645 C657 0.950 . S
H646 C654 0.950 . S
H647 C656 0.950 . S
H648 C658 0.950 . S
H649 C660 0.950 . S
H650 C662 0.950 . S
H651 C663 0.950 . S
C652 H644 0.950 . S
C652 C653 1.386 . S
C652 C654 1.391 . S
C653 C652 1.386 . S
C653 C657 1.393 . S
C654 H646 0.950 . S
C654 C652 1.391 . S
C654 C655 1.400 . S
C655 C654 1.400 . S
C655 C656 1.398 . S
C655 C661 1.491 . S
C656 H647 0.950 . S
C656 C655 1.398 . S
C656 C657 1.391 . S
C657 H645 0.950 . S
C657 C653 1.393 . S
C657 C656 1.391 . S
C658 H648 0.950 . S
C658 C659 1.386 . S
C658 C660 1.391 . S
C659 C658 1.386 . S
C659 C663 1.393 . S
C660 H649 0.950 . S
C660 C658 1.391 . S
C660 C661 1.400 . S
C661 C655 1.491 . S
C661 C660 1.400 . S
C661 C662 1.398 . S
C662 H650 0.950 . S
C662 C661 1.398 . S
C662 C663 1.391 . S
C663 H651 0.950 . S
C663 C659 1.393 . S
C663 C662 1.391 . S
H664 C672 0.950 . S
H665 C677 0.950 . S
H666 C674 0.950 . S
H667 C676 0.950 1_556 S
H668 C678 0.950 . S
H669 C680 0.950 . S
H670 C682 0.950 1_554 S
H671 C683 0.950 . S
C672 H664 0.950 . S
C672 C673 1.386 . S
C672 C674 1.391 . S
C673 C672 1.386 . S
C673 C677 1.393 . S
C674 H666 0.950 . S
C674 C672 1.391 . S
C674 C675 1.400 . S
C675 C674 1.400 . S
C675 C676 1.398 . S
C675 C681 1.491 1_554 S
C676 H667 0.950 1_554 S
C676 C675 1.398 . S
C676 C677 1.391 . S
C677 H665 0.950 . S
C677 C673 1.393 . S
C677 C676 1.391 . S
C678 H668 0.950 . S
C678 C679 1.386 . S
C678 C680 1.391 . S
C679 C678 1.386 . S
C679 C683 1.393 . S
C680 H669 0.950 . S
C680 C678 1.391 . S
C680 C681 1.400 . S
C681 C675 1.491 1_556 S
C681 C680 1.400 . S
C681 C682 1.398 . S
C682 H670 0.950 1_556 S
C682 C681 1.398 . S
C682 C683 1.391 . S
C683 H671 0.950 . S
C683 C679 1.393 . S
C683 C682 1.391 . S
H684 C692 0.950 . S
H685 C697 0.950 . S
H686 C694 0.950 . S
H687 C696 0.950 . S
H688 C698 0.950 . S
H689 C700 0.950 . S
H690 C702 0.950 . S
H691 C703 0.950 . S
C692 H684 0.950 . S
C692 C693 1.386 . S
C692 C694 1.391 . S
C693 C692 1.386 . S
C693 C697 1.393 . S
C694 H686 0.950 . S
C694 C692 1.391 . S
C694 C695 1.400 . S
C695 C694 1.400 . S
C695 C696 1.398 . S
C695 C701 1.491 . S
C696 H687 0.950 . S
C696 C695 1.398 . S
C696 C697 1.391 . S
C697 H685 0.950 . S
C697 C693 1.393 . S
C697 C696 1.391 . S
C698 H688 0.950 . S
C698 C699 1.386 . S
C698 C700 1.391 . S
C699 C698 1.386 . S
C699 C703 1.393 . S
C700 H689 0.950 . S
C700 C698 1.391 . S
C700 C701 1.400 . S
C701 C695 1.491 . S
C701 C700 1.400 . S
C701 C702 1.398 . S
C702 H690 0.950 . S
C702 C701 1.398 . S
C702 C703 1.391 . S
C703 H691 0.950 . S
C703 C699 1.393 . S
C703 C702 1.391 . S
H704 C712 0.950 . S
H705 C717 0.950 . S
H706 C714 0.950 . S
H707 C716 0.950 . S
H708 C718 0.950 . S
H709 C720 0.950 . S
H710 C722 0.950 . S
H711 C723 0.950 . S
C712 H704 0.950 . S
C712 C713 1.386 . S
C712 C714 1.391 . S
C713 C712 1.386 . S
C713 C717 1.393 . S
C714 H706 0.950 . S
C714 C712 1.391 . S
C714 C715 1.400 . S
C715 C714 1.400 . S
C715 C716 1.398 . S
C715 C721 1.491 1_556 S
C716 H707 0.950 . S
C716 C715 1.398 . S
C716 C717 1.391 . S
C717 H705 0.950 . S
C717 C713 1.393 . S
C717 C716 1.391 . S
C718 H708 0.950 . S
C718 C719 1.386 . S
C718 C720 1.391 . S
C719 C718 1.386 . S
C719 C723 1.393 . S
C720 H709 0.950 . S
C720 C718 1.391 . S
C720 C721 1.400 . S
C721 C715 1.491 1_554 S
C721 C720 1.400 . S
C721 C722 1.398 . S
C722 H710 0.950 . S
C722 C721 1.398 . S
C722 C723 1.391 . S
C723 H711 0.950 . S
C723 C719 1.393 . S
C723 C722 1.391 . S
H724 C732 0.950 . S
H725 C737 0.950 . S
H726 C734 0.950 . S
H727 C736 0.950 . S
H728 C738 0.950 . S
H729 C740 0.950 . S
H730 C742 0.950 . S
H731 C743 0.950 . S
C732 H724 0.950 . S
C732 C733 1.386 . S
C732 C734 1.391 . S
C733 C732 1.386 . S
C733 C737 1.393 . S
C734 H726 0.950 . S
C734 C732 1.391 . S
C734 C735 1.400 . S
C735 C734 1.400 . S
C735 C736 1.398 . S
C735 C741 1.491 . S
C736 H727 0.950 . S
C736 C735 1.398 . S
C736 C737 1.391 . S
C737 H725 0.950 . S
C737 C733 1.393 . S
C737 C736 1.391 . S
C738 H728 0.950 . S
C738 C739 1.386 . S
C738 C740 1.391 . S
C739 C738 1.386 . S
C739 C743 1.393 . S
C740 H729 0.950 . S
C740 C738 1.391 . S
C740 C741 1.400 . S
C741 C735 1.491 . S
C741 C740 1.400 . S
C741 C742 1.398 . S
C742 H730 0.950 . S
C742 C741 1.398 . S
C742 C743 1.391 . S
C743 H731 0.950 . S
C743 C739 1.393 . S
C743 C742 1.391 . S
H744 C752 0.950 . S
H745 C757 0.950 . S
H746 C754 0.950 1_556 S
H747 C756 0.950 . S
H748 C758 0.950 . S
H749 C760 0.950 1_554 S
H750 C762 0.950 . S
H751 C763 0.950 . S
C752 H744 0.950 . S
C752 C753 1.386 . S
C752 C754 1.391 . S
C753 C752 1.386 . S
C753 C757 1.393 . S
C754 H746 0.950 1_554 S
C754 C752 1.391 . S
C754 C755 1.400 . S
C755 C754 1.400 . S
C755 C756 1.398 . S
C755 C761 1.491 1_554 S
C756 H747 0.950 . S
C756 C755 1.398 . S
C756 C757 1.391 . S
C757 H745 0.950 . S
C757 C753 1.393 . S
C757 C756 1.391 . S
C758 H748 0.950 . S
C758 C759 1.386 . S
C758 C760 1.391 . S
C759 C758 1.386 . S
C759 C763 1.393 . S
C760 H749 0.950 1_556 S
C760 C758 1.391 . S
C760 C761 1.400 . S
C761 C755 1.491 1_556 S
C761 C760 1.400 . S
C761 C762 1.398 . S
C762 H750 0.950 . S
C762 C761 1.398 . S
C762 C763 1.391 . S
C763 H751 0.950 . S
C763 C759 1.393 . S
C763 C762 1.391 . S
H764 C772 0.950 . S
H765 C777 0.950 . S
H766 C774 0.950 . S
H767 C776 0.950 . S
H768 C778 0.950 . S
H769 C780 0.950 . S
H770 C782 0.950 . S
H771 C783 0.950 . S
C772 H764 0.950 . S
C772 C773 1.386 . S
C772 C774 1.391 . S
C773 C772 1.386 . S
C773 C777 1.393 . S
C774 H766 0.950 . S
C774 C772 1.391 . S
C774 C775 1.400 . S
C775 C774 1.400 . S
C775 C776 1.398 . S
C775 C781 1.491 . S
C776 H767 0.950 . S
C776 C775 1.398 . S
C776 C777 1.391 . S
C777 H765 0.950 . S
C777 C773 1.393 . S
C777 C776 1.391 . S
C778 H768 0.950 . S
C778 C779 1.386 . S
C778 C780 1.391 . S
C779 C778 1.386 . S
C779 C783 1.393 . S
C780 H769 0.950 . S
C780 C778 1.391 . S
C780 C781 1.400 . S
C781 C775 1.491 . S
C781 C780 1.400 . S
C781 C782 1.398 . S
C782 H770 0.950 . S
C782 C781 1.398 . S
C782 C783 1.391 . S
C783 H771 0.950 . S
C783 C779 1.393 . S
C783 C782 1.391 . S
H784 C792 0.930 1_554 S
H785 C797 0.950 . S
H786 C794 0.950 . S
H787 C796 0.950 . S
H788 C798 0.930 1_556 S
H789 C800 0.950 . S
H790 C802 0.950 . S
H791 C803 0.950 . S
C792 H784 0.930 1_556 S
C792 C793 1.419 . S
C792 C794 1.378 1_556 S
C793 C792 1.419 . S
C793 C797 1.393 . S
C794 H786 0.950 . S
C794 C792 1.378 1_554 S
C794 C795 1.400 1_554 S
C795 C794 1.400 1_556 S
C795 C796 1.398 . S
C795 C801 1.491 1_546 S
C796 H787 0.950 . S
C796 C795 1.398 . S
C796 C797 1.391 . S
C797 H785 0.950 . S
C797 C793 1.393 . S
C797 C796 1.391 . S
C798 H788 0.930 1_554 S
C798 C799 1.419 . S
C798 C800 1.378 1_554 S
C799 C798 1.419 . S
C799 C803 1.393 . S
C800 H789 0.950 . S
C800 C798 1.378 1_556 S
C800 C801 1.400 1_556 S
C801 C795 1.491 1_564 S
C801 C800 1.400 1_554 S
C801 C802 1.398 . S
C802 H790 0.950 . S
C802 C801 1.398 . S
C802 C803 1.391 . S
C803 H791 0.950 . S
C803 C799 1.393 . S
C803 C802 1.391 . S
H804 C812 0.950 . S
H805 C817 0.950 . S
H806 C814 0.950 . S
H807 C816 0.950 . S
H808 C818 0.950 . S
H809 C820 0.950 . S
H810 C822 0.950 . S
H811 C823 0.950 . S
C812 H804 0.950 . S
C812 C813 1.386 . S
C812 C814 1.391 . S
C813 C812 1.386 . S
C813 C817 1.393 . S
C814 H806 0.950 . S
C814 C812 1.391 . S
C814 C815 1.400 . S
C815 C814 1.400 . S
C815 C816 1.398 . S
C815 C821 1.491 1_565 S
C816 H807 0.950 . S
C816 C815 1.398 . S
C816 C817 1.391 . S
C817 H805 0.950 . S
C817 C813 1.393 . S
C817 C816 1.391 . S
C818 H808 0.950 . S
C818 C819 1.386 . S
C818 C820 1.391 . S
C819 C818 1.386 . S
C819 C823 1.393 . S
C820 H809 0.950 . S
C820 C818 1.391 . S
C820 C821 1.400 . S
C821 C815 1.491 1_545 S
C821 C820 1.400 . S
C821 C822 1.398 . S
C822 H810 0.950 . S
C822 C821 1.398 . S
C822 C823 1.391 . S
C823 H811 0.950 . S
C823 C819 1.393 . S
C823 C822 1.391 . S
H824 C832 0.950 . S
H825 C837 0.950 . S
H826 C834 0.950 . S
H827 C836 0.950 . S
H828 C838 0.950 . S
H829 C840 0.950 . S
H830 C842 0.950 . S
H831 C843 0.950 . S
C832 H824 0.950 . S
C832 C833 1.386 . S
C832 C834 1.391 . S
C833 C832 1.386 . S
C833 C837 1.393 . S
C834 H826 0.950 . S
C834 C832 1.391 . S
C834 C835 1.400 . S
C835 C834 1.400 . S
C835 C836 1.398 . S
C835 C841 1.491 1_564 S
C836 H827 0.950 . S
C836 C835 1.398 . S
C836 C837 1.391 . S
C837 H825 0.950 . S
C837 C833 1.393 . S
C837 C836 1.391 . S
C838 H828 0.950 . S
C838 C839 1.386 . S
C838 C840 1.391 . S
C839 C838 1.386 . S
C839 C843 1.393 . S
C840 H829 0.950 . S
C840 C838 1.391 . S
C840 C841 1.400 . S
C841 C835 1.491 1_546 S
C841 C840 1.400 . S
C841 C842 1.398 . S
C842 H830 0.950 . S
C842 C841 1.398 . S
C842 C843 1.391 . S
C843 H831 0.950 . S
C843 C839 1.393 . S
C843 C842 1.391 . S
H844 C852 0.950 . S
H845 C857 0.950 . S
H846 C854 0.950 . S
H847 C856 0.950 . S
H848 C858 0.950 . S
H849 C860 0.950 . S
H850 C862 0.950 . S
H851 C863 0.950 . S
C852 H844 0.950 . S
C852 C853 1.386 . S
C852 C854 1.391 . S
C853 C852 1.386 . S
C853 C857 1.393 . S
C854 H846 0.950 . S
C854 C852 1.391 . S
C854 C855 1.400 . S
C855 C854 1.400 . S
C855 C856 1.398 . S
C855 C861 1.491 1_545 S
C856 H847 0.950 . S
C856 C855 1.398 . S
C856 C857 1.391 . S
C857 H845 0.950 . S
C857 C853 1.393 . S
C857 C856 1.391 . S
C858 H848 0.950 . S
C858 C859 1.386 . S
C858 C860 1.391 . S
C859 C858 1.386 . S
C859 C863 1.393 . S
C860 H849 0.950 . S
C860 C858 1.391 . S
C860 C861 1.400 . S
C861 C855 1.491 1_565 S
C861 C860 1.400 . S
C861 C862 1.398 . S
C862 H850 0.950 . S
C862 C861 1.398 . S
C862 C863 1.391 . S
C863 H851 0.950 . S
C863 C859 1.393 . S
C863 C862 1.391 . S
C233 C9 1.425 . S
C239 C93 1.410 . S
C253 C23 1.407 . S
C259 C107 1.427 . S
C273 C65 1.424 . S
C279 C37 1.410 . S
C293 C79 1.417 . S
C299 C51 1.417 . S
C313 C205 1.428 . S
C319 C121 1.408 . S
C333 C219 1.424 . S
C339 C135 1.410 . S
C353 C149 1.427 . S
C359 C177 1.410 . S
C373 C163 1.424 . S
C379 C191 1.410 . S
C393 C7 1.425 . S
C399 C73 1.493 . S
C413 C21 1.441 . S
C419 C59 1.486 . S
C433 C35 1.441 . S
C439 C101 1.486 . S
C453 C87 1.488 . S
C459 C49 1.443 . S
C473 C185 1.491 . S
C479 C119 1.417 . S
C493 C171 1.487 . S
C499 C133 1.445 . S
C513 C147 1.443 . S
C519 C213 1.488 . S
C533 C199 1.493 . S
C539 C161 1.417 . S
C553 C176 1.395 . S
C559 C8 1.391 . S
C573 C22 1.386 . S
C579 C190 1.394 . S
C593 C204 1.395 . S
C599 C36 1.391 . S
C613 C218 1.390 . S
C619 C50 1.382 . S
C633 C120 1.386 . S
C639 C64 1.394 . S
C653 C134 1.380 . S
C659 C78 1.390 . S
C673 C92 1.395 . S
C679 C148 1.388 . S
C693 C106 1.395 . S
C699 C162 1.391 . S
C713 C31 1.502 . S
C719 C3 1.502 . S
C733 C17 1.502 . S
C739 C45 1.505 . S
C753 C91 1.432 . S
C759 C63 1.423 . S
C773 C77 1.414 . S
C779 C105 1.430 . S
C793 C143 1.501 . S
C799 C115 1.505 . S
C813 C157 1.503 . S
C819 C129 1.505 . S
C833 C203 1.430 . S
C839 C175 1.428 . S
C853 C217 1.408 . S
C859 C189 1.425 . S
