# Generated by pormake.
# Topology vbm, (6)-cn, num edge types: 1
# Building blocks:
#     Node 0, Type 0, BuildingBlock: FUNLAD_clean_sbu_0, # of connection points: 6
#     Node 1, Type 0, BuildingBlock: FUNLAD_clean_sbu_0, # of connection points: 6
#     Node 2, Type 0, BuildingBlock: FUNLAD_clean_sbu_0, # of connection points: 6
#     Node 3, Type 0, BuildingBlock: FUNLAD_clean_sbu_0, # of connection points: 6
#     Node 4, Type 0, BuildingBlock: FUNLAD_clean_sbu_0, # of connection points: 6
#     Node 5, Type 0, BuildingBlock: FUNLAD_clean_sbu_0, # of connection points: 6
#     Node 6, Type 0, BuildingBlock: FUNLAD_clean_sbu_0, # of connection points: 6
#     Node 7, Type 0, BuildingBlock: FUNLAD_clean_sbu_0, # of connection points: 6
#     Node 8, Type 0, BuildingBlock: FUNLAD_clean_sbu_0, # of connection points: 6
#     Node 9, Type 0, BuildingBlock: FUNLAD_clean_sbu_0, # of connection points: 6
#     Node 10, Type 0, BuildingBlock: FUNLAD_clean_sbu_0, # of connection points: 6
#     Node 11, Type 0, BuildingBlock: FUNLAD_clean_sbu_0, # of connection points: 6
#     Node 12, Type 0, BuildingBlock: FUNLAD_clean_sbu_0, # of connection points: 6
#     Node 13, Type 0, BuildingBlock: FUNLAD_clean_sbu_0, # of connection points: 6
#     Node 14, Type 0, BuildingBlock: FUNLAD_clean_sbu_0, # of connection points: 6
#     Node 15, Type 0, BuildingBlock: FUNLAD_clean_sbu_0, # of connection points: 6
#     Edge 16, Type (0, 0), BuildingBlock: CIFDUS_clean_linker_0, # of connection points: 2
#     Edge 17, Type (0, 0), BuildingBlock: CIFDUS_clean_linker_0, # of connection points: 2
#     Edge 18, Type (0, 0), BuildingBlock: CIFDUS_clean_linker_0, # of connection points: 2
#     Edge 19, Type (0, 0), BuildingBlock: CIFDUS_clean_linker_0, # of connection points: 2
#     Edge 20, Type (0, 0), BuildingBlock: CIFDUS_clean_linker_0, # of connection points: 2
#     Edge 21, Type (0, 0), BuildingBlock: CIFDUS_clean_linker_0, # of connection points: 2
#     Edge 22, Type (0, 0), BuildingBlock: CIFDUS_clean_linker_0, # of connection points: 2
#     Edge 23, Type (0, 0), BuildingBlock: CIFDUS_clean_linker_0, # of connection points: 2
#     Edge 24, Type (0, 0), BuildingBlock: CIFDUS_clean_linker_0, # of connection points: 2
#     Edge 25, Type (0, 0), BuildingBlock: CIFDUS_clean_linker_0, # of connection points: 2
#     Edge 26, Type (0, 0), BuildingBlock: CIFDUS_clean_linker_0, # of connection points: 2
#     Edge 27, Type (0, 0), BuildingBlock: CIFDUS_clean_linker_0, # of connection points: 2
#     Edge 28, Type (0, 0), BuildingBlock: CIFDUS_clean_linker_0, # of connection points: 2
#     Edge 29, Type (0, 0), BuildingBlock: CIFDUS_clean_linker_0, # of connection points: 2
#     Edge 30, Type (0, 0), BuildingBlock: CIFDUS_clean_linker_0, # of connection points: 2
#     Edge 31, Type (0, 0), BuildingBlock: CIFDUS_clean_linker_0, # of connection points: 2
#     Edge 32, Type (0, 0), BuildingBlock: CIFDUS_clean_linker_0, # of connection points: 2
#     Edge 33, Type (0, 0), BuildingBlock: CIFDUS_clean_linker_0, # of connection points: 2
#     Edge 34, Type (0, 0), BuildingBlock: CIFDUS_clean_linker_0, # of connection points: 2
#     Edge 35, Type (0, 0), BuildingBlock: CIFDUS_clean_linker_0, # of connection points: 2
#     Edge 36, Type (0, 0), BuildingBlock: CIFDUS_clean_linker_0, # of connection points: 2
#     Edge 37, Type (0, 0), BuildingBlock: CIFDUS_clean_linker_0, # of connection points: 2
#     Edge 38, Type (0, 0), BuildingBlock: CIFDUS_clean_linker_0, # of connection points: 2
#     Edge 39, Type (0, 0), BuildingBlock: CIFDUS_clean_linker_0, # of connection points: 2
#     Edge 40, Type (0, 0), BuildingBlock: CIFDUS_clean_linker_0, # of connection points: 2
#     Edge 41, Type (0, 0), BuildingBlock: CIFDUS_clean_linker_0, # of connection points: 2
#     Edge 42, Type (0, 0), BuildingBlock: CIFDUS_clean_linker_0, # of connection points: 2
#     Edge 43, Type (0, 0), BuildingBlock: CIFDUS_clean_linker_0, # of connection points: 2
#     Edge 44, Type (0, 0), BuildingBlock: CIFDUS_clean_linker_0, # of connection points: 2
#     Edge 45, Type (0, 0), BuildingBlock: CIFDUS_clean_linker_0, # of connection points: 2
#     Edge 46, Type (0, 0), BuildingBlock: CIFDUS_clean_linker_0, # of connection points: 2
#     Edge 47, Type (0, 0), BuildingBlock: CIFDUS_clean_linker_0, # of connection points: 2
#     Edge 48, Type (0, 0), BuildingBlock: CIFDUS_clean_linker_0, # of connection points: 2
#     Edge 49, Type (0, 0), BuildingBlock: CIFDUS_clean_linker_0, # of connection points: 2
#     Edge 50, Type (0, 0), BuildingBlock: CIFDUS_clean_linker_0, # of connection points: 2
#     Edge 51, Type (0, 0), BuildingBlock: CIFDUS_clean_linker_0, # of connection points: 2
#     Edge 52, Type (0, 0), BuildingBlock: CIFDUS_clean_linker_0, # of connection points: 2
#     Edge 53, Type (0, 0), BuildingBlock: CIFDUS_clean_linker_0, # of connection points: 2
#     Edge 54, Type (0, 0), BuildingBlock: CIFDUS_clean_linker_0, # of connection points: 2
#     Edge 55, Type (0, 0), BuildingBlock: CIFDUS_clean_linker_0, # of connection points: 2
#     Edge 56, Type (0, 0), BuildingBlock: CIFDUS_clean_linker_0, # of connection points: 2
#     Edge 57, Type (0, 0), BuildingBlock: CIFDUS_clean_linker_0, # of connection points: 2
#     Edge 58, Type (0, 0), BuildingBlock: CIFDUS_clean_linker_0, # of connection points: 2
#     Edge 59, Type (0, 0), BuildingBlock: CIFDUS_clean_linker_0, # of connection points: 2
#     Edge 60, Type (0, 0), BuildingBlock: CIFDUS_clean_linker_0, # of connection points: 2
#     Edge 61, Type (0, 0), BuildingBlock: CIFDUS_clean_linker_0, # of connection points: 2
#     Edge 62, Type (0, 0), BuildingBlock: CIFDUS_clean_linker_0, # of connection points: 2
#     Edge 63, Type (0, 0), BuildingBlock: CIFDUS_clean_linker_0, # of connection points: 2
# Relax obj value: 0.029
# Max RMSD: 0.080
# Mean RMSD: 0.080
data_MOF--net-vbm--node1-FUNLAD_clean_sbu_0--edge1-CIFDUS_clean_linker_0
_symmetry_space_group_name_H-M    P1
_symmetry_Int_Tables_number       1
_symmetry_cell_setting            triclinic
loop_
_symmetry_equiv_pos_as_xyz
'x, y, z'
_cell_length_a     51.158575
_cell_length_b     13.281034
_cell_length_c     79.473801
_cell_angle_alpha  90.040309
_cell_angle_beta   89.90442
_cell_angle_gamma 90.025705
loop_
_atom_site_label
_atom_site_type_symbol
_atom_site_fract_x
_atom_site_fract_y
_atom_site_fract_z
_atom_type_partial_charge
C0 C 0.12166 0.21779 0.14521 0.0
N1 N 0.1252 0.02809 0.10282 0.0
C2 C 0.10777 0.08516 0.09409 0.0
C3 C 0.10914 0.09026 0.07649 0.0
C4 C 0.12876 0.03677 0.06785 0.0
C5 C 0.14618 0.97771 0.07722 0.0
C6 C 0.14402 0.9743 0.09469 0.0
Zn7 Zn 0.12542 0.02083 0.1287 0.0
C8 C 0.18009 0.04515 0.14125 0.0
N9 N 0.12962 -0.00105 0.18266 0.0
C10 C 0.11254 0.05728 0.1915 0.0
C11 C 0.14622 0.935 0.19072 0.0
C12 C 0.14603 0.92819 0.20831 0.0
C13 C 0.12887 -0.01114 0.21769 0.0
C14 C 0.11198 0.05396 0.20905 0.0
Zn15 Zn 0.1289 0.00834 0.15675 0.0
O16 O 0.12154 0.17719 0.13072 0.0
C17 C 0.07395 -0.01017 0.14406 0.0
O18 O 0.12385 0.1635 0.15825 0.0
H19 H 0.15964 0.88916 0.1835 0.0
H20 H 0.09298 0.12752 0.10078 0.0
H21 H 0.09919 0.10652 0.18493 0.0
O22 O 0.08457 0.00387 0.12976 0.0
O23 O 0.08808 -0.01285 0.15719 0.0
H24 H 0.15765 0.92888 0.10177 0.0
O25 O 0.13387 0.85228 0.1546 0.0
O26 O 0.12941 0.86538 0.12721 0.0
O27 O 0.16985 0.03316 0.15572 0.0
O28 O 0.16595 0.03922 0.1282 0.0
C29 C 0.13274 0.81141 0.14017 0.0
H30 H 0.09538 0.13714 0.06974 0.0
H31 H 0.16131 0.9339 0.07109 0.0
H32 H 0.15948 0.87746 0.21453 0.0
H33 H 0.09825 0.10115 0.21581 0.0
C34 C 0.87298 0.70463 0.13702 0.0
N35 N 0.86396 0.91625 0.09847 0.0
C36 C 0.8833 0.86545 0.09029 0.0
C37 C 0.88494 0.86712 0.07275 0.0
C38 C 0.86649 0.92146 0.06335 0.0
C39 C 0.84641 0.97182 0.07207 0.0
C40 C 0.84555 0.96846 0.08972 0.0
Zn41 Zn 0.86449 0.91365 0.12451 0.0
C42 C 0.8134 0.87192 0.14022 0.0
N43 N 0.86855 0.90341 0.17868 0.0
C44 C 0.88663 0.85242 0.18793 0.0
C45 C 0.85069 0.96442 0.1863 0.0
C46 C 0.85119 -0.02054 0.20365 0.0
C47 C 0.86998 0.93024 0.21346 0.0
C48 C 0.88754 0.86418 0.20549 0.0
Zn49 Zn 0.86783 0.90189 0.15265 0.0
O50 O 0.87079 0.75877 0.12394 0.0
C51 C 0.9192 0.93775 0.13716 0.0
O52 O 0.87253 0.74518 0.15153 0.0
H53 H 0.83631 0.00388 0.17885 0.0
H54 H 0.89772 0.82394 0.09739 0.0
H55 H 0.90071 0.80451 0.18167 0.0
O56 O 0.90511 0.93966 0.12402 0.0
O57 O 0.90862 0.92208 0.15141 0.0
H58 H 0.83036 0.00856 0.09642 0.0
O59 O 0.86302 0.05754 0.15304 0.0
O60 O 0.85834 0.0699 0.12565 0.0
O61 O 0.82736 0.88013 0.15333 0.0
O62 O 0.82372 0.88437 0.12577 0.0
C63 C 0.85932 0.11107 0.14008 0.0
H64 H 0.9005 0.82577 0.06661 0.0
H65 H 0.83187 0.0153 0.06537 0.0
H66 H 0.83711 0.03003 0.20935 0.0
H67 H 0.90236 0.82502 0.21267 0.0
C68 C 0.12578 0.70441 0.39488 0.0
N69 N 0.13689 0.92271 0.43218 0.0
C70 C 0.11874 0.87445 0.4418 0.0
C71 C 0.12 0.87866 0.45937 0.0
C72 C 0.14015 0.93293 0.46726 0.0
C73 C 0.15863 -0.01795 0.45701 0.0
C74 C 0.1566 0.97606 0.43945 0.0
Zn75 Zn 0.13401 0.91358 0.40625 0.0
C76 C 0.18462 0.87305 0.38938 0.0
N77 N 0.12763 0.89415 0.35229 0.0
C78 C 0.11002 0.83397 0.34429 0.0
C79 C 0.14464 0.95233 0.34337 0.0
C80 C 0.14418 0.9526 0.32582 0.0
C81 C 0.12621 0.89174 0.31721 0.0
C82 C 0.10906 0.83121 0.32666 0.0
Zn83 Zn 0.12997 0.90144 0.37818 0.0
O84 O 0.12808 0.75876 0.40793 0.0
C85 C 0.07902 0.93636 0.3946 0.0
O86 O 0.12576 0.74498 0.38038 0.0
H87 H 0.15872 -0.00113 0.34988 0.0
H88 H 0.10326 0.83205 0.43584 0.0
H89 H 0.09666 0.78824 0.35158 0.0
O90 O 0.09328 0.93866 0.40769 0.0
O91 O 0.08942 0.92053 0.3803 0.0
H92 H 0.1708 0.01419 0.43162 0.0
O93 O 0.13434 0.05704 0.37668 0.0
O94 O 0.13979 0.06958 0.40402 0.0
O95 O 0.17026 0.88131 0.37647 0.0
O96 O 0.17475 0.88492 0.40397 0.0
C97 C 0.13826 0.11075 0.38963 0.0
H98 H 0.10553 0.83831 0.4667 0.0
H99 H 0.17435 0.0257 0.46248 0.0
H100 H 0.15803 -0.0008 0.31905 0.0
H101 H 0.0948 0.78353 0.3205 0.0
C102 C 0.87707 0.23561 0.38472 0.0
N103 N 0.8755 0.05467 0.42812 0.0
C104 C 0.89389 0.11444 0.43541 0.0
C105 C 0.8945 0.12636 0.45292 0.0
C106 C 0.87598 0.07645 0.46302 0.0
C107 C 0.85732 0.01503 0.45509 0.0
C108 C 0.85748 0.00503 0.43761 0.0
Zn109 Zn 0.87359 0.03904 0.4024 0.0
C110 C 0.81893 0.0637 0.39047 0.0
N111 N 0.86796 0.00715 0.34862 0.0
C112 C 0.88509 0.05701 0.33847 0.0
C113 C 0.85064 0.93979 0.3421 0.0
C114 C 0.85057 0.91847 0.32486 0.0
C115 C 0.86832 0.96761 0.31413 0.0
C116 C 0.8855 0.03876 0.32113 0.0
Zn117 Zn 0.87007 0.02605 0.37437 0.0
O118 O 0.87744 0.19479 0.39919 0.0
C119 C 0.92498 0.0073 0.3865 0.0
O120 O 0.87486 0.18127 0.37165 0.0
H121 H 0.83713 0.90099 0.35033 0.0
H122 H 0.90806 0.15326 0.42765 0.0
H123 H 0.8989 0.10951 0.34388 0.0
O124 O 0.91431 0.0212 0.40077 0.0
O125 O 0.91091 0.00528 0.37334 0.0
H126 H 0.84295 0.95811 0.4316 0.0
O127 O 0.86545 0.87048 0.3777 0.0
O128 O 0.8696 0.88355 0.4051 0.0
O129 O 0.82918 0.05028 0.37603 0.0
O130 O 0.83305 0.05821 0.40354 0.0
C131 C 0.86653 0.82942 0.3921 0.0
H132 H 0.90944 0.17359 0.45846 0.0
H133 H 0.84238 0.97638 0.46228 0.0
H134 H 0.83677 0.86401 0.31996 0.0
H135 H 0.89964 0.07777 0.31335 0.0
C136 C 0.85392 0.16783 0.89065 0.0
N137 N 0.86073 -0.01005 0.84767 0.0
C138 C 0.84402 0.05643 0.84033 0.0
C139 C 0.84604 0.07816 0.82318 0.0
C140 C 0.8653 0.03048 0.8134 0.0
C141 C 0.88181 0.96011 0.8212 0.0
C142 C 0.87926 0.94124 0.83843 0.0
Zn143 Zn 0.85972 0.97227 0.87337 0.0
C144 C 0.91344 -0.00747 0.88762 0.0
N145 N 0.85953 0.94426 0.92739 0.0
C146 C 0.8397 -0.00773 0.93555 0.0
C147 C 0.87773 0.89081 0.93611 0.0
C148 C 0.87633 0.88426 0.95371 0.0
C149 C 0.85593 0.93275 0.96243 0.0
C150 C 0.83752 -0.01258 0.95305 0.0
Zn151 Zn 0.86082 0.95696 0.90146 0.0
O152 O 0.85494 0.12741 0.8762 0.0
C153 C 0.80748 0.92801 0.88641 0.0
O154 O 0.8552 0.11306 0.90369 0.0
H155 H 0.89333 0.85305 0.92942 0.0
H156 H 0.8294 0.09433 0.84786 0.0
H157 H 0.82549 0.03498 0.92846 0.0
O158 O 0.81923 0.94957 0.87279 0.0
O159 O 0.81998 0.92985 0.90024 0.0
H160 H 0.89251 0.88936 0.84452 0.0
O161 O 0.86635 0.80215 0.89874 0.0
O162 O 0.86467 0.81607 0.87116 0.0
O163 O 0.90202 -0.02 0.90171 0.0
O164 O 0.90009 -0.00766 0.87418 0.0
C165 C 0.86662 0.7616 0.88424 0.0
H166 H 0.83266 0.13181 0.81762 0.0
H167 H 0.89704 0.92216 0.81415 0.0
H168 H 0.89084 0.84051 0.96038 0.0
H169 H 0.82171 0.02738 0.95919 0.0
C170 C 0.12804 0.84566 0.891 0.0
N171 N 0.119 0.05062 0.85228 0.0
C172 C 0.13668 -0.01217 0.8449 0.0
C173 C 0.1358 0.96897 0.82768 0.0
C174 C 0.11685 0.01632 0.81777 0.0
C175 C 0.09952 0.08444 0.82544 0.0
C176 C 0.10078 0.0999 0.84291 0.0
Zn177 Zn 0.11996 0.05507 0.87821 0.0
C178 C 0.06868 0.02267 0.89395 0.0
N179 N 0.1242 0.04262 0.93211 0.0
C180 C 0.142 -0.01095 0.94113 0.0
C181 C 0.10505 0.09623 0.93997 0.0
C182 C 0.10295 0.0961 0.95746 0.0
C183 C 0.12071 0.0403 0.96712 0.0
C184 C 0.14066 -0.01293 0.95875 0.0
Zn185 Zn 0.12377 0.04286 0.90622 0.0
O186 O 0.1241 0.89944 0.87811 0.0
C187 C 0.17486 0.08076 0.89032 0.0
O188 O 0.12946 0.88655 0.90542 0.0
H189 H 0.09108 0.13861 0.93265 0.0
H190 H 0.15115 0.94961 0.85245 0.0
H191 H 0.15702 0.9467 0.93466 0.0
O192 O 0.16057 0.07383 0.87733 0.0
O193 O 0.16474 0.06973 0.90485 0.0
H194 H 0.08683 0.14912 0.849 0.0
O195 O 0.11799 0.19776 0.9065 0.0
O196 O 0.1159 0.21184 0.87894 0.0
O197 O 0.08302 0.0189 0.90695 0.0
O198 O 0.07909 0.03799 0.87964 0.0
C199 C 0.11571 0.25213 0.89347 0.0
H200 H 0.1497 0.91698 0.82216 0.0
H201 H 0.08464 0.12237 0.81813 0.0
H202 H 0.08755 0.13961 0.96335 0.0
H203 H 0.15467 0.94251 0.96571 0.0
C204 C 0.86253 0.88303 0.64042 0.0
N205 N 0.87245 0.09273 0.67846 0.0
C206 C 0.85445 0.03292 0.6862 0.0
C207 C 0.85512 0.01838 0.70353 0.0
C208 C 0.87422 0.06694 0.71318 0.0
C209 C 0.89194 0.13188 0.70511 0.0
C210 C 0.89085 0.14311 0.68755 0.0
Zn211 Zn 0.87117 0.09244 0.65254 0.0
C212 C 0.92234 0.0559 0.6366 0.0
N213 N 0.86581 0.07418 0.59872 0.0
C214 C 0.84699 0.01837 0.59102 0.0
C215 C 0.88436 0.1234 0.58958 0.0
C216 C 0.88472 0.11625 0.57204 0.0
C217 C 0.86582 0.05775 0.56374 0.0
C218 C 0.84663 0.00909 0.57349 0.0
Zn219 Zn 0.86752 0.08045 0.62453 0.0
O220 O 0.8662 0.9368 0.65336 0.0
C221 C 0.81662 0.12294 0.6406 0.0
O222 O 0.86151 0.92414 0.62602 0.0
H223 H 0.89924 0.16707 0.59592 0.0
H224 H 0.83983 -0.00607 0.67887 0.0
H225 H 0.8324 -0.02005 0.5985 0.0
O226 O 0.83073 0.11536 0.65365 0.0
O227 O 0.82677 0.10936 0.62615 0.0
H228 H 0.90502 0.19006 0.68118 0.0
O229 O 0.8737 0.23533 0.62351 0.0
O230 O 0.87607 0.24898 0.65109 0.0
O231 O 0.90815 0.05499 0.6235 0.0
O232 O 0.91189 0.07102 0.65091 0.0
C233 C 0.87618 0.28953 0.63658 0.0
H234 H 0.84094 0.9687 0.70935 0.0
H235 H 0.90695 0.17056 0.71221 0.0
H236 H 0.90008 0.15406 0.56509 0.0
H237 H 0.83147 0.96427 0.56764 0.0
C238 C 0.13647 0.13344 0.64473 0.0
N239 N 0.12934 0.92553 0.68335 0.0
C240 C 0.14743 -0.01506 0.69105 0.0
C241 C 0.14586 0.00406 0.70828 0.0
C242 C 0.12564 0.96098 0.71781 0.0
C243 C 0.10804 0.89554 0.70976 0.0
C244 C 0.11015 0.87927 0.69239 0.0
Zn245 Zn 0.12907 0.92474 0.65745 0.0
C246 C 0.07575 0.96409 0.64439 0.0
N247 N 0.12764 0.93963 0.60324 0.0
C248 C 0.1464 -0.00953 0.59452 0.0
C249 C 0.10812 0.89031 0.59503 0.0
C250 C 0.10685 0.89129 0.57746 0.0
C251 C 0.12583 0.94362 0.56808 0.0
C252 C 0.14588 -0.00664 0.57689 0.0
Zn253 Zn 0.12828 0.9355 0.62927 0.0
O254 O 0.13479 0.08014 0.6579 0.0
C255 C 0.18132 0.88991 0.64305 0.0
O256 O 0.13507 0.09187 0.63035 0.0
H257 H 0.09345 0.84982 0.60213 0.0
H258 H 0.16253 0.02121 0.68369 0.0
H259 H 0.16176 0.02929 0.60125 0.0
O260 O 0.16921 0.89983 0.65689 0.0
O261 O 0.16921 0.90329 0.62922 0.0
H262 H 0.09583 0.83305 0.68602 0.0
O263 O 0.12139 0.78077 0.62874 0.0
O264 O 0.12343 0.76795 0.65633 0.0
O265 O 0.0874 0.96381 0.63023 0.0
O266 O 0.08873 0.94851 0.65772 0.0
C267 C 0.12093 0.72694 0.64193 0.0
H268 H 0.16007 0.0537 0.71406 0.0
H269 H 0.09213 0.861 0.71667 0.0
H270 H 0.09126 0.85043 0.57128 0.0
H271 H 0.16079 0.03554 0.57026 0.0
C272 C 0.61898 0.75145 0.14483 0.0
N273 N 0.62062 0.56571 0.10201 0.0
C274 C 0.60171 0.62265 0.09465 0.0
C275 C 0.60031 0.63016 0.07711 0.0
C276 C 0.61852 0.57854 0.06701 0.0
C277 C 0.6378 0.52044 0.075 0.0
C278 C 0.63848 0.51498 0.09254 0.0
Zn279 Zn 0.62304 0.55442 0.12777 0.0
C280 C 0.6777 0.58218 0.1394 0.0
N281 N 0.62888 0.5292 0.18173 0.0
C282 C 0.6124 0.58658 0.19119 0.0
C283 C 0.64545 0.4623 0.18913 0.0
C284 C 0.64572 0.45093 0.20667 0.0
C285 C 0.62908 0.51009 0.21669 0.0
C286 C 0.61235 0.57882 0.20872 0.0
Zn287 Zn 0.6268 0.54208 0.15583 0.0
O288 O 0.6185 0.71049 0.13038 0.0
C289 C 0.57192 0.51932 0.14393 0.0
O290 O 0.62161 0.69737 0.15787 0.0
H291 H 0.65838 0.41718 0.18143 0.0
H292 H 0.58768 0.66227 0.1024 0.0
H293 H 0.59902 0.63805 0.18515 0.0
O294 O 0.58247 0.53338 0.12964 0.0
O295 O 0.58602 0.51933 0.15708 0.0
H296 H 0.65341 0.47033 0.09859 0.0
O297 O 0.63188 0.38617 0.15309 0.0
O298 O 0.62775 0.39907 0.12567 0.0
O299 O 0.66769 0.56818 0.1539 0.0
O300 O 0.66342 0.5762 0.1264 0.0
C301 C 0.63095 0.34511 0.13866 0.0
H302 H 0.58494 0.67501 0.07152 0.0
H303 H 0.65251 0.48066 0.06779 0.0
H304 H 0.65904 0.39752 0.21235 0.0
H305 H 0.59902 0.62508 0.21598 0.0
C306 C 0.37292 0.17983 0.13993 0.0
N307 N 0.3648 0.36053 0.09678 0.0
C308 C 0.38345 0.30282 0.08925 0.0
C309 C 0.38473 0.29548 0.0717 0.0
C310 C 0.36675 0.3484 0.06169 0.0
C311 C 0.34756 0.40671 0.06982 0.0
C312 C 0.3469 0.41157 0.08742 0.0
Zn313 Zn 0.36509 0.37537 0.12268 0.0
C314 C 0.31361 0.34726 0.13851 0.0
N315 N 0.36742 0.40712 0.17656 0.0
C316 C 0.3845 0.35619 0.18654 0.0
C317 C 0.34886 0.4683 0.18337 0.0
C318 C 0.34671 0.47916 0.20079 0.0
C319 C 0.36372 0.42631 0.21146 0.0
C320 C 0.38301 0.36481 0.20409 0.0
Zn321 Zn 0.36755 0.39025 0.15078 0.0
O322 O 0.37102 0.22054 0.12552 0.0
C323 C 0.41932 0.41307 0.13537 0.0
O324 O 0.37251 0.23426 0.15309 0.0
H325 H 0.33542 0.50816 0.17528 0.0
H326 H 0.39765 0.26341 0.09685 0.0
H327 H 0.39905 0.30763 0.1809 0.0
O328 O 0.40586 0.40079 0.12208 0.0
O329 O 0.40814 0.41082 0.14966 0.0
H330 H 0.33222 0.45706 0.09361 0.0
O331 O 0.36271 0.54546 0.14784 0.0
O332 O 0.35906 0.53117 0.12042 0.0
O333 O 0.32704 0.36774 0.15147 0.0
O334 O 0.32443 0.34764 0.12407 0.0
C335 C 0.3597 0.58594 0.13351 0.0
H336 H 0.40006 0.25055 0.06603 0.0
H337 H 0.33309 0.44779 0.06265 0.0
H338 H 0.33184 0.52883 0.20583 0.0
H339 H 0.39641 0.32195 0.2118 0.0
C340 C 0.62363 0.18405 0.3928 0.0
N341 N 0.63358 0.40111 0.43051 0.0
C342 C 0.61496 0.35168 0.43958 0.0
C343 C 0.61438 0.35866 0.45714 0.0
C344 C 0.63312 0.41723 0.46558 0.0
C345 C 0.65234 0.46639 0.4559 0.0
C346 C 0.65221 0.45727 0.43834 0.0
Zn347 Zn 0.63212 0.39316 0.40454 0.0
C348 C 0.68304 0.35105 0.38851 0.0
N349 N 0.62723 0.3764 0.35042 0.0
C350 C 0.60933 0.32015 0.34191 0.0
C351 C 0.64492 0.43426 0.342 0.0
C352 C 0.64476 0.4388 0.32446 0.0
C353 C 0.6264 0.3826 0.31532 0.0
C354 C 0.60866 0.32172 0.32426 0.0
Zn355 Zn 0.62859 0.38117 0.37641 0.0
O356 O 0.62598 0.23825 0.40587 0.0
C357 C 0.57743 0.41816 0.39228 0.0
O358 O 0.62378 0.22469 0.3783 0.0
H359 H 0.65918 0.47783 0.3489 0.0
H360 H 0.60022 0.30775 0.43317 0.0
H361 H 0.59541 0.27472 0.3488 0.0
O362 O 0.59161 0.41886 0.40539 0.0
O363 O 0.58786 0.40253 0.37798 0.0
H364 H 0.66687 0.49593 0.43094 0.0
O365 O 0.63353 0.53672 0.37522 0.0
O366 O 0.6381 0.54931 0.40262 0.0
O367 O 0.66902 0.35874 0.37542 0.0
O368 O 0.67281 0.36433 0.40296 0.0
C369 C 0.6371 0.59045 0.3882 0.0
H370 H 0.59897 0.3205 0.46398 0.0
H371 H 0.6674 0.51134 0.46183 0.0
H372 H 0.65906 0.48546 0.31809 0.0
H373 H 0.5941 0.2775 0.31769 0.0
C374 C 0.3771 0.74149 0.38358 0.0
N375 N 0.37317 0.55463 0.42622 0.0
C376 C 0.3905 0.61372 0.43468 0.0
C377 C 0.38905 0.62235 0.45224 0.0
C378 C 0.36946 0.57019 0.46111 0.0
C379 C 0.35223 0.50851 0.45204 0.0
C380 C 0.35443 0.5018 0.4346 0.0
Zn381 Zn 0.37282 0.54457 0.4004 0.0
C382 C 0.3182 0.57176 0.38785 0.0
N383 N 0.36864 0.51994 0.34653 0.0
C384 C 0.38721 0.57086 0.33768 0.0
C385 C 0.35131 0.45835 0.33859 0.0
C386 C 0.35264 0.44465 0.32113 0.0
C387 C 0.372 0.49475 0.31172 0.0
C388 C 0.38918 0.55958 0.32026 0.0
Zn389 Zn 0.36918 0.53211 0.37238 0.0
O390 O 0.37717 0.70081 0.39805 0.0
C391 C 0.42404 0.5097 0.38514 0.0
O392 O 0.37481 0.68718 0.37052 0.0
H393 H 0.33677 0.41811 0.34585 0.0
H394 H 0.40521 0.65532 0.42778 0.0
H395 H 0.40088 0.61927 0.34417 0.0
O396 O 0.41355 0.52515 0.39943 0.0
O397 O 0.40988 0.50825 0.37203 0.0
H398 H 0.34084 0.45499 0.42772 0.0
O399 O 0.36365 0.37619 0.3748 0.0
O400 O 0.36832 0.38901 0.40218 0.0
O401 O 0.32835 0.55909 0.37337 0.0
O402 O 0.33235 0.56499 0.40088 0.0
C403 C 0.3648 0.33513 0.38921 0.0
H404 H 0.40267 0.67112 0.45875 0.0
H405 H 0.33714 0.46553 0.45836 0.0
H406 H 0.3391 0.39323 0.31515 0.0
H407 H 0.40412 0.60124 0.31355 0.0
C408 C 0.36005 0.58473 0.88371 0.0
N409 N 0.36334 0.36731 0.84583 0.0
C410 C 0.34554 0.42495 0.83752 0.0
C411 C 0.34647 0.43384 0.81997 0.0
C412 C 0.36583 0.38258 0.81073 0.0
C413 C 0.38322 0.32009 0.81963 0.0
C414 C 0.3817 0.3139 0.8372 0.0
Zn415 Zn 0.36516 0.3744 0.87185 0.0
C416 C 0.41996 0.41194 0.8834 0.0
N417 N 0.37039 0.39953 0.92593 0.0
C418 C 0.35229 0.45791 0.93386 0.0
C419 C 0.3884 0.34664 0.93491 0.0
C420 C 0.38847 0.35071 0.95254 0.0
C421 C 0.36989 0.41004 0.96106 0.0
C422 C 0.35171 0.46433 0.95141 0.0
Zn423 Zn 0.36871 0.38863 0.89998 0.0
O424 O 0.35918 0.53009 0.87063 0.0
C425 C 0.31418 0.34623 0.88874 0.0
O426 O 0.36353 0.54435 0.89801 0.0
H427 H 0.40261 0.30051 0.92841 0.0
H428 H 0.33117 0.46739 0.84455 0.0
H429 H 0.33798 0.49875 0.92656 0.0
O430 O 0.32447 0.34742 0.87413 0.0
O431 O 0.32816 0.36539 0.90153 0.0
H432 H 0.39577 0.26879 0.84398 0.0
O433 O 0.37398 0.23286 0.9013 0.0
O434 O 0.37113 0.219 0.87375 0.0
O435 O 0.40925 0.40997 0.89786 0.0
O436 O 0.40602 0.39937 0.87034 0.0
C437 C 0.37385 0.1785 0.88814 0.0
H438 H 0.33279 0.48381 0.81381 0.0
H439 H 0.39817 0.27745 0.81313 0.0
H440 H 0.40304 0.30839 0.95941 0.0
H441 H 0.33678 0.50988 0.95736 0.0
C442 C 0.63347 0.35255 0.8898 0.0
N443 N 0.62654 0.5639 0.8514 0.0
C444 C 0.64575 0.50747 0.84418 0.0
C445 C 0.64648 0.49297 0.8268 0.0
C446 C 0.62752 0.53809 0.81657 0.0
C447 C 0.60857 0.59991 0.82417 0.0
C448 C 0.60829 0.61119 0.84175 0.0
Zn449 Zn 0.62526 0.5628 0.87744 0.0
C450 C 0.57273 0.52092 0.89144 0.0
N451 N 0.62556 0.54263 0.93141 0.0
C452 C 0.644 0.48734 0.93956 0.0
C453 C 0.6067 0.5929 0.94012 0.0
C454 C 0.60582 0.58822 0.9577 0.0
C455 C 0.62451 0.53112 0.96644 0.0
C456 C 0.64384 0.48053 0.9571 0.0
Zn457 Zn 0.62611 0.54908 0.90557 0.0
O458 O 0.632 0.40696 0.87674 0.0
C459 C 0.67821 0.59836 0.89225 0.0
O460 O 0.63198 0.39312 0.90423 0.0
H461 H 0.59217 0.63628 0.93343 0.0
H462 H 0.6602 0.47083 0.85197 0.0
H463 H 0.65889 0.44823 0.93242 0.0
O464 O 0.66584 0.59477 0.87838 0.0
O465 O 0.66647 0.57633 0.90585 0.0
H466 H 0.59311 0.65536 0.8477 0.0
O467 O 0.62004 0.70491 0.90637 0.0
O468 O 0.61859 0.71827 0.87876 0.0
O469 O 0.58588 0.52434 0.90496 0.0
O470 O 0.58423 0.53403 0.87738 0.0
C471 C 0.6179 0.75897 0.89326 0.0
H472 H 0.66158 0.44566 0.82142 0.0
H473 H 0.59356 0.63575 0.81668 0.0
H474 H 0.59039 0.62751 0.96433 0.0
H475 H 0.65886 0.43677 0.9633 0.0
C476 C 0.35966 0.33894 0.63266 0.0
N477 N 0.36305 0.51685 0.67626 0.0
C478 C 0.34333 0.45797 0.68224 0.0
C479 C 0.34063 0.4404 0.6995 0.0
C480 C 0.35834 0.48389 0.71091 0.0
C481 C 0.37856 0.54436 0.70438 0.0
C482 C 0.38056 0.55993 0.68696 0.0
Zn483 Zn 0.36584 0.53621 0.65044 0.0
C484 C 0.41906 0.51245 0.63697 0.0
N485 N 0.36887 0.56435 0.59664 0.0
C486 C 0.35189 0.51424 0.58647 0.0
C487 C 0.38837 0.62201 0.59006 0.0
C488 C 0.39163 0.62958 0.57265 0.0
C489 C 0.37462 0.57754 0.56183 0.0
C490 C 0.3544 0.51991 0.56898 0.0
Zn491 Zn 0.36611 0.54798 0.62228 0.0
O492 O 0.36032 0.38057 0.64705 0.0
C493 C 0.31319 0.57871 0.63495 0.0
O494 O 0.36129 0.39264 0.6195 0.0
H495 H 0.40166 0.66136 0.59835 0.0
H496 H 0.32966 0.42383 0.67357 0.0
H497 H 0.33659 0.4684 0.59193 0.0
O498 O 0.32478 0.56505 0.64894 0.0
O499 O 0.3259 0.57035 0.6213 0.0
H500 H 0.39611 0.60649 0.682 0.0
O501 O 0.37079 0.70382 0.62567 0.0
O502 O 0.3715 0.69109 0.65327 0.0
O503 O 0.40636 0.52659 0.62349 0.0
O504 O 0.40703 0.51197 0.65101 0.0
C505 C 0.37221 0.7451 0.64008 0.0
H506 H 0.32498 0.39193 0.70382 0.0
H507 H 0.39252 0.58048 0.71264 0.0
H508 H 0.40729 0.67585 0.5677 0.0
H509 H 0.34103 0.47751 0.56115 0.0
C510 C 0.63177 0.63816 0.63784 0.0
N511 N 0.63165 0.45976 0.68134 0.0
C512 C 0.64846 0.52923 0.68781 0.0
C513 C 0.64851 0.55038 0.70507 0.0
C514 C 0.63134 0.49878 0.71586 0.0
C515 C 0.61478 0.42535 0.70892 0.0
C516 C 0.61512 0.40745 0.69156 0.0
Zn517 Zn 0.62902 0.44161 0.65554 0.0
C518 C 0.57376 0.45754 0.64409 0.0
N519 N 0.62253 0.41421 0.60156 0.0
C520 C 0.64042 0.4649 0.59209 0.0
C521 C 0.60415 0.35484 0.59414 0.0
C522 C 0.60346 0.34435 0.57659 0.0
C523 C 0.62189 0.39524 0.56651 0.0
C524 C 0.64049 0.45633 0.57457 0.0
Zn525 Zn 0.62491 0.42846 0.62744 0.0
O526 O 0.63315 0.59728 0.65225 0.0
C527 C 0.67991 0.40554 0.63891 0.0
O528 O 0.62858 0.58393 0.62487 0.0
H529 H 0.59007 0.31516 0.60184 0.0
H530 H 0.66149 0.57002 0.67953 0.0
H531 H 0.65495 0.51156 0.59816 0.0
O532 O 0.66992 0.41914 0.65341 0.0
O533 O 0.66552 0.41027 0.62594 0.0
H534 H 0.60168 0.35339 0.6862 0.0
O535 O 0.62137 0.2727 0.63058 0.0
O536 O 0.62471 0.28633 0.65811 0.0
O537 O 0.58408 0.44493 0.62966 0.0
O538 O 0.5882 0.46024 0.65707 0.0
C539 C 0.62219 0.23199 0.64505 0.0
H540 H 0.66182 0.60676 0.70992 0.0
H541 H 0.60107 0.3844 0.71675 0.0
H542 H 0.58853 0.29731 0.57098 0.0
H543 H 0.65538 0.49575 0.56746 0.0
H544 H 0.20669 0.16412 0.16285 0.0
H545 H 0.21265 0.01508 0.11476 0.0
H546 H 0.25378 0.10228 0.10901 0.0
H547 H 0.28731 0.22418 0.11734 0.0
H548 H 0.28119 0.37494 0.1653 0.0
H549 H 0.2404 0.28594 0.17123 0.0
C550 C 0.21734 0.14915 0.1513 0.0
C551 C 0.20697 0.08246 0.13935 0.0
C552 C 0.24048 0.20197 0.14785 0.0
C553 C 0.22052 0.06549 0.12422 0.0
C554 C 0.24384 0.11603 0.12085 0.0
C555 C 0.27679 0.23892 0.12894 0.0
C556 C 0.28704 0.30673 0.14078 0.0
C557 C 0.25375 0.18575 0.13244 0.0
C558 C 0.27351 0.32357 0.15593 0.0
C559 C 0.25035 0.27206 0.1594 0.0
H560 H 0.78544 0.7674 0.11713 0.0
H561 H 0.78195 0.88503 0.16771 0.0
H562 H 0.74054 0.79803 0.17246 0.0
H563 H 0.70572 0.68636 0.16241 0.0
H564 H 0.709 0.56933 0.1118 0.0
H565 H 0.75048 0.6561 0.10704 0.0
C566 C 0.77535 0.77544 0.12907 0.0
C567 C 0.78656 0.83317 0.14199 0.0
C568 C 0.75189 0.72328 0.13186 0.0
C569 C 0.77357 0.84139 0.15753 0.0
C570 C 0.75003 0.79103 0.16032 0.0
C571 C 0.71578 0.67835 0.15046 0.0
C572 C 0.70454 0.62072 0.13755 0.0
C573 C 0.73921 0.73059 0.14766 0.0
C574 C 0.71745 0.61275 0.12198 0.0
C575 C 0.74102 0.663 0.11919 0.0
H576 H 0.29096 0.68392 0.36555 0.0
H577 H 0.28644 0.55137 0.41501 0.0
H578 H 0.2456 0.64084 0.42049 0.0
H579 H 0.21176 0.75955 0.41146 0.0
H580 H 0.21611 0.89199 0.36199 0.0
H581 H 0.2569 0.80204 0.35644 0.0
C582 C 0.28071 0.67305 0.37737 0.0
C583 C 0.29145 0.61046 0.38978 0.0
C584 C 0.25767 0.72689 0.38061 0.0
C585 C 0.27835 0.59868 0.40521 0.0
C586 C 0.25518 0.65052 0.40842 0.0
C587 C 0.22194 0.77022 0.39961 0.0
C588 C 0.21122 0.83313 0.38724 0.0
C589 C 0.2449 0.71611 0.39633 0.0
C590 C 0.22421 0.84453 0.37176 0.0
C591 C 0.24735 0.79243 0.36852 0.0
H592 H 0.79075 0.16313 0.36699 0.0
H593 H 0.78757 0.05415 0.41809 0.0
H594 H 0.746 0.14077 0.42247 0.0
H595 H 0.71103 0.25006 0.41193 0.0
H596 H 0.71432 0.35946 0.36085 0.0
H597 H 0.75578 0.27218 0.35645 0.0
C598 C 0.78069 0.15679 0.37897 0.0
C599 C 0.79202 0.10159 0.39214 0.0
C600 C 0.7572 0.20891 0.38154 0.0
C601 C 0.77908 0.09571 0.40773 0.0
C602 C 0.75546 0.14589 0.41029 0.0
C603 C 0.72107 0.25622 0.39994 0.0
C604 C 0.70982 0.31179 0.3868 0.0
C605 C 0.74454 0.20392 0.39737 0.0
C606 C 0.72274 0.31755 0.37121 0.0
C607 C 0.74631 0.26703 0.36863 0.0
H608 H 0.70061 0.71915 0.8689 0.0
H609 H 0.7137 0.58644 0.91773 0.0
H610 H 0.75388 0.68425 0.92082 0.0
H611 H 0.78481 0.80875 0.90984 0.0
H612 H 0.77185 0.94126 0.86098 0.0
H613 H 0.73154 0.84408 0.85793 0.0
C614 C 0.71249 0.71027 0.88009 0.0
C615 C 0.70436 0.64486 0.89299 0.0
C616 C 0.73517 0.76851 0.88197 0.0
C617 C 0.71968 0.63572 0.90756 0.0
C618 C 0.74251 0.69224 0.90941 0.0
C619 C 0.77294 0.81782 0.89865 0.0
C620 C 0.78116 0.88287 0.88572 0.0
C621 C 0.75023 0.75981 0.89679 0.0
C622 C 0.76581 0.89225 0.87116 0.0
C623 C 0.74291 0.83605 0.86934 0.0
H624 H 0.28466 0.23982 0.86671 0.0
H625 H 0.28373 0.36675 0.91672 0.0
H626 H 0.24137 0.2884 0.9222 0.0
H627 H 0.20461 0.18317 0.9128 0.0
H628 H 0.20563 0.05739 0.86273 0.0
H629 H 0.24822 0.13398 0.85741 0.0
C630 C 0.27502 0.25154 0.87872 0.0
C631 C 0.2872 0.30969 0.89122 0.0
C632 C 0.25093 0.20474 0.88191 0.0
C633 C 0.27466 0.32275 0.90683 0.0
C634 C 0.25054 0.27741 0.91003 0.0
C635 C 0.21441 0.17112 0.90085 0.0
C636 C 0.20214 0.11418 0.88823 0.0
C637 C 0.23861 0.21742 0.89772 0.0
C638 C 0.21478 0.10066 0.87268 0.0
C639 C 0.23903 0.14499 0.86957 0.0
H640 H 0.70881 0.30924 0.66238 0.0
H641 H 0.71072 0.41322 0.61097 0.0
H642 H 0.75247 0.32791 0.60651 0.0
H643 H 0.78799 0.22113 0.6171 0.0
H644 H 0.78579 0.11641 0.66848 0.0
H645 H 0.74422 0.20259 0.67295 0.0
C646 C 0.71861 0.31478 0.6503 0.0
C647 C 0.70688 0.36824 0.63708 0.0
C648 C 0.74221 0.26339 0.6477 0.0
C649 C 0.71951 0.37305 0.62138 0.0
C650 C 0.74325 0.32361 0.61878 0.0
C651 C 0.77817 0.21578 0.62918 0.0
C652 C 0.78979 0.16184 0.64239 0.0
C653 C 0.75458 0.26735 0.63178 0.0
C654 C 0.77712 0.15708 0.65808 0.0
C655 C 0.75347 0.20696 0.66069 0.0
H656 H 0.20513 0.78168 0.61847 0.0
H657 H 0.21638 0.89808 0.66865 0.0
H658 H 0.25721 0.80423 0.67113 0.0
H659 H 0.28923 0.68687 0.65929 0.0
H660 H 0.27845 0.57136 0.60902 0.0
H661 H 0.23749 0.66496 0.6065 0.0
C662 C 0.21679 0.78798 0.62981 0.0
C663 C 0.20791 0.84736 0.64329 0.0
C664 C 0.23993 0.73194 0.63131 0.0
C665 C 0.22294 0.85328 0.65805 0.0
C666 C 0.24614 0.79899 0.65955 0.0
C667 C 0.27766 0.68067 0.64791 0.0
C668 C 0.28662 0.62135 0.63445 0.0
C669 C 0.2546 0.7369 0.64636 0.0
C670 C 0.27176 0.61589 0.61962 0.0
C671 C 0.2485 0.67007 0.61811 0.0
H672 H 0.1278 0.05413 0.29647 0.0
H673 H 0.12322 0.72995 0.29589 0.0
H674 H 0.12412 0.73067 0.26508 0.0
H675 H 0.12679 0.8241 0.2382 0.0
H676 H 0.13043 0.14848 0.2391 0.0
H677 H 0.12957 0.14708 0.26984 0.0
C678 C 0.12712 -0.01642 0.2896 0.0
C679 C 0.12558 0.8921 0.29847 0.0
C680 C 0.12758 -0.01534 0.27192 0.0
C681 C 0.12422 0.80144 0.28937 0.0
C682 C 0.1249 0.8018 0.27175 0.0
C683 C 0.12755 0.89428 0.24516 0.0
C684 C 0.12874 -0.01373 0.2364 0.0
C685 C 0.12671 0.89297 0.26288 0.0
C686 C 0.12935 0.07679 0.24556 0.0
C687 C 0.12891 0.07603 0.26313 0.0
H688 H 0.87143 0.0987 0.28786 0.0
H689 H 0.86725 0.78179 0.2993 0.0
H690 H 0.86865 0.74131 0.26928 0.0
H691 H 0.87031 0.79642 0.23955 0.0
H692 H 0.87288 0.11378 0.22834 0.0
H693 H 0.8732 0.15357 0.25836 0.0
C694 C 0.87102 0.02076 0.28378 0.0
C695 C 0.86922 0.94347 0.29582 0.0
C696 C 0.8716 -0.00193 0.26649 0.0
C697 C 0.86834 0.84284 0.2903 0.0
C698 C 0.86929 0.81958 0.27313 0.0
C699 C 0.87118 0.87409 0.24374 0.0
C700 C 0.87159 0.95205 0.23177 0.0
C701 C 0.87083 0.89656 0.26108 0.0
C702 C 0.87241 0.05253 0.23734 0.0
C703 C 0.8726 0.07533 0.25449 0.0
H704 H 0.87278 0.20138 0.73908 0.0
H705 H 0.87852 0.88438 0.72807 0.0
H706 H 0.87728 0.84498 0.7581 0.0
H707 H 0.87234 0.89986 0.78741 0.0
H708 H 0.8649 0.21631 0.79862 0.0
H709 H 0.86878 0.25677 0.76871 0.0
C710 C 0.8741 0.12397 0.74334 0.0
C711 C 0.87578 0.04585 0.73146 0.0
C712 C 0.87275 0.10171 0.76065 0.0
C713 C 0.87713 0.94561 0.73704 0.0
C714 C 0.87639 0.92307 0.75419 0.0
C715 C 0.87184 0.97773 0.78332 0.0
C716 C 0.86827 0.05485 0.79523 0.0
C717 C 0.87385 0.00036 0.76609 0.0
C718 C 0.86731 0.15537 0.78969 0.0
C719 C 0.86967 0.17864 0.77259 0.0
H720 H 0.11878 0.14511 0.79119 0.0
H721 H 0.11166 0.83089 0.80385 0.0
H722 H 0.11242 0.78564 0.77401 0.0
H723 H 0.11738 0.83481 0.74431 0.0
H724 H 0.12673 0.14846 0.73169 0.0
H725 H 0.12294 0.1946 0.76137 0.0
C726 C 0.11707 0.06702 0.78734 0.0
C727 C 0.11511 -0.00859 0.79962 0.0
C728 C 0.11819 0.04138 0.77016 0.0
C729 C 0.11325 0.89024 0.79456 0.0
C730 C 0.11371 0.86436 0.77752 0.0
C731 C 0.11835 0.91324 0.74808 0.0
C732 C 0.12245 -0.01201 0.73584 0.0
C733 C 0.11653 0.93914 0.76521 0.0
C734 C 0.12391 0.08936 0.74091 0.0
C735 C 0.12163 0.11588 0.75787 0.0
H736 H 0.62928 0.55088 0.29596 0.0
H737 H 0.62226 0.22795 0.29262 0.0
H738 H 0.62306 0.23809 0.26185 0.0
H739 H 0.62619 0.33942 0.23578 0.0
H740 H 0.63205 0.66261 0.23945 0.0
H741 H 0.63153 0.65174 0.27014 0.0
C742 C 0.62806 0.48264 0.2885 0.0
C743 C 0.62586 0.38874 0.2966 0.0
C744 C 0.62842 0.48914 0.27085 0.0
C745 C 0.62379 0.30121 0.28672 0.0
C746 C 0.62441 0.30695 0.26912 0.0
C747 C 0.62752 0.40724 0.24334 0.0
C748 C 0.62924 0.5017 0.23536 0.0
C749 C 0.62682 0.40051 0.26103 0.0
C750 C 0.63056 0.58913 0.24529 0.0
C751 C 0.63032 0.58295 0.26284 0.0
H752 H 0.33316 0.4759 0.2883 0.0
H753 H 0.41714 0.47623 0.29345 0.0
H754 H 0.42202 0.45474 0.26313 0.0
H755 H 0.40256 0.43875 0.23499 0.0
H756 H 0.31858 0.43273 0.22996 0.0
H757 H 0.3137 0.4531 0.26029 0.0
C758 C 0.35254 0.47015 0.28283 0.0
C759 C 0.37472 0.4785 0.29322 0.0
C760 C 0.35526 0.45708 0.26534 0.0
C761 C 0.39968 0.47204 0.2858 0.0
C762 C 0.40252 0.45904 0.26844 0.0
C763 C 0.38318 0.4407 0.24053 0.0
C764 C 0.361 0.43488 0.23011 0.0
C765 C 0.38046 0.45194 0.25806 0.0
C766 C 0.33604 0.43884 0.23757 0.0
C767 C 0.3332 0.4499 0.25497 0.0
H768 H 0.32717 0.40743 0.78715 0.0
H769 H 0.41112 0.39428 0.79227 0.0
H770 H 0.41619 0.4229 0.76216 0.0
H771 H 0.39697 0.45353 0.73425 0.0
H772 H 0.31313 0.4747 0.7294 0.0
H773 H 0.30801 0.44199 0.75941 0.0
C774 C 0.34662 0.41161 0.78176 0.0
C775 C 0.36868 0.39801 0.79214 0.0
C776 C 0.34949 0.42979 0.76438 0.0
C777 C 0.39368 0.40231 0.78469 0.0
C778 C 0.39665 0.41969 0.76743 0.0
C779 C 0.37758 0.45208 0.73976 0.0
C780 C 0.3555 0.46631 0.72943 0.0
C781 C 0.37471 0.43389 0.75714 0.0
C782 C 0.33052 0.4625 0.73688 0.0
C783 C 0.32754 0.44431 0.75411 0.0
H784 H 0.62631 0.67111 0.79034 0.0
H785 H 0.62793 0.35396 0.80178 0.0
H786 H 0.62879 0.31346 0.77179 0.0
H787 H 0.63001 0.36785 0.74223 0.0
H788 H 0.63016 0.68485 0.73058 0.0
H789 H 0.62791 0.72575 0.76057 0.0
C790 C 0.62667 0.59328 0.78621 0.0
C791 C 0.62703 0.51564 0.79824 0.0
C792 C 0.62768 0.57048 0.76888 0.0
C793 C 0.62779 0.41502 0.79274 0.0
C794 C 0.62826 0.3918 0.7756 0.0
C795 C 0.6294 0.44586 0.74627 0.0
C796 C 0.63025 0.5231 0.73417 0.0
C797 C 0.62836 0.46884 0.76355 0.0
C798 C 0.6298 0.6239 0.73963 0.0
C799 C 0.62837 0.64736 0.75678 0.0
H800 H 0.15933 0.05269 0.9907 0.0
H801 H 0.0758 0.02082 0.98547 0.0
H802 H 0.07075 0.02062 0.01601 0.0
H803 H 0.09006 0.02735 0.04432 0.0
H804 H 0.1736 0.05812 0.04955 0.0
H805 H 0.17863 0.05973 0.019 0.0
C806 C 0.14005 0.04479 0.99624 0.0
C807 C 0.118 0.03715 0.98577 0.0
C808 C 0.13726 0.04452 1.01386 0.0
C809 C 0.09311 0.02824 0.9932 0.0
C810 C 0.09019 0.0277 1.01069 0.0
C811 C 0.10933 0.03543 0.03877 0.0
C812 C 0.13141 0.04228 0.04923 0.0
C813 C 0.11211 0.03607 0.02115 0.0
C814 C 0.15629 0.05145 0.0418 0.0
C815 C 0.15919 0.05271 0.02432 0.0
H816 H 0.89505 0.94477 0.98577 0.0
H817 H 0.81156 0.90761 0.98127 0.0
H818 H 0.80731 0.90333 1.01185 0.0
H819 H 0.82728 0.90877 0.04003 0.0
H820 H 0.91078 0.94568 0.04448 0.0
H821 H 0.91501 0.94976 1.01391 0.0
C822 C 0.87595 0.9347 0.99147 0.0
C823 C 0.85368 0.92685 0.98115 0.0
C824 C 0.87361 0.93206 1.00913 0.0
C825 C 0.82904 0.91527 0.98883 0.0
C826 C 0.82658 0.91234 1.00636 0.0
C827 C 0.84637 0.91856 0.03432 0.0
C828 C 0.86867 0.92644 0.04462 0.0
C829 C 0.84871 0.92102 0.01665 0.0
C830 C 0.8933 0.9379 0.03693 0.0
C831 C 0.89575 0.94074 0.01941 0.0
H832 H 0.1004 0.9535 0.49004 0.0
H833 H 0.18419 0.9215 0.48681 0.0
H834 H 0.1873 0.92476 0.51747 0.0
H835 H 0.1661 0.9313 0.54534 0.0
H836 H 0.08227 0.96347 0.54841 0.0
H837 H 0.07935 0.96325 0.5178 0.0
C838 C 0.11935 0.9465 0.49602 0.0
C839 C 0.14201 0.93708 0.48603 0.0
C840 C 0.121 0.94772 0.5137 0.0
C841 C 0.16642 0.93 0.49409 0.0
C842 C 0.16821 0.93122 0.51167 0.0
C843 C 0.14721 0.93934 0.53933 0.0
C844 C 0.12443 0.94667 0.54929 0.0
C845 C 0.14563 0.93966 0.52162 0.0
C846 C 0.10011 0.95585 0.54117 0.0
C847 C 0.09841 0.95637 0.52362 0.0
H848 H 0.87622 0.20101 0.53999 0.0
H849 H 0.85734 0.88598 0.54556 0.0
H850 H 0.85902 0.86405 0.5151 0.0
H851 H 0.86644 0.9333 0.48689 0.0
H852 H 0.8849 0.24865 0.48119 0.0
H853 H 0.88362 0.27046 0.51168 0.0
C854 C 0.87266 0.12736 0.53456 0.0
C855 C 0.86657 0.0454 0.54511 0.0
C856 C 0.87382 0.11501 0.51699 0.0
C857 C 0.86166 0.95082 0.53778 0.0
C858 C 0.86281 0.93797 0.52034 0.0
C859 C 0.86996 0.00711 0.49228 0.0
C860 C 0.87576 0.08914 0.48167 0.0
C861 C 0.86886 0.0195 0.50983 0.0
C862 C 0.88075 0.18374 0.48899 0.0
C863 C 0.87982 0.19652 0.50645 0.0
H864 H 0.62665 0.42844 0.04415 0.0
H865 H 0.60857 0.74514 0.04773 0.0
H866 H 0.60823 0.75797 0.01707 0.0
H867 H 0.61441 0.68045 0.98921 0.0
H868 H 0.63282 0.36396 0.98576 0.0
H869 H 0.63235 0.35071 0.01638 0.0
C870 C 0.62283 0.50054 0.03825 0.0
C871 C 0.61769 0.58569 0.0483 0.0
C872 C 0.62294 0.50768 0.02061 0.0
C873 C 0.61229 0.67801 0.04036 0.0
C874 C 0.61227 0.68562 0.02281 0.0
C875 C 0.61807 0.60834 0.99514 0.0
C876 C 0.62375 0.52347 0.98514 0.0
C877 C 0.61767 0.60104 1.0128 0.0
C878 C 0.6288 0.43093 0.99311 0.0
C879 C 0.62837 0.42307 1.01064 0.0
H880 H 0.37676 0.25652 0.9836 0.0
H881 H 0.3614 0.57559 0.98086 0.0
H882 H 0.35862 0.58432 1.01148 0.0
H883 H 0.3607 0.50193 0.03915 0.0
H884 H 0.37622 0.18309 0.04197 0.0
H885 H 0.37926 0.17434 1.01133 0.0
C886 C 0.37308 0.32822 0.98969 0.0
C887 C 0.3692 0.41515 0.97984 0.0
C888 C 0.37158 0.33291 1.00738 0.0
C889 C 0.3641 0.50709 0.98804 0.0
C890 C 0.36262 0.51232 1.00559 0.0
C891 C 0.36451 0.4303 0.03307 0.0
C892 C 0.3682 0.34332 0.04293 0.0
C893 C 0.3662 0.42568 0.0154 0.0
C894 C 0.37357 0.25152 0.03477 0.0
C895 C 0.3752 0.24631 0.01721 0.0
H896 H 0.62193 0.2737 0.48927 0.0
H897 H 0.64195 0.58792 0.48407 0.0
H898 H 0.64001 0.60884 0.51455 0.0
H899 H 0.63207 0.53904 0.54271 0.0
H900 H 0.61248 0.22444 0.54801 0.0
H901 H 0.61396 0.20379 0.51751 0.0
C902 C 0.62567 0.34701 0.49477 0.0
C903 C 0.63217 0.42896 0.48428 0.0
C904 C 0.62435 0.35885 0.51237 0.0
C905 C 0.63732 0.523 0.49176 0.0
C906 C 0.63602 0.5353 0.50922 0.0
C907 C 0.62834 0.46561 0.53725 0.0
C908 C 0.62216 0.38351 0.54778 0.0
C909 C 0.62957 0.45379 0.51966 0.0
C910 C 0.61691 0.28951 0.54031 0.0
C911 C 0.61796 0.27734 0.52283 0.0
H912 H 0.33704 0.59446 0.53776 0.0
H913 H 0.42052 0.56895 0.54411 0.0
H914 H 0.4265 0.56958 0.51361 0.0
H915 H 0.40782 0.56975 0.48501 0.0
H916 H 0.32426 0.59349 0.4789 0.0
H917 H 0.31854 0.59961 0.50935 0.0
C918 C 0.35654 0.58851 0.53248 0.0
C919 C 0.37826 0.58139 0.54325 0.0
C920 C 0.35984 0.58799 0.51493 0.0
C921 C 0.40344 0.57559 0.53615 0.0
C922 C 0.40689 0.57532 0.51869 0.0
C923 C 0.3884 0.57747 0.49035 0.0
C924 C 0.3665 0.58027 0.47967 0.0
C925 C 0.38521 0.58078 0.50794 0.0
C926 C 0.34143 0.58943 0.48682 0.0
C927 C 0.33813 0.59339 0.50424 0.0
H928 H 0.95504 0.93133 0.1623 0.0
H929 H 0.94739 0.97521 0.10869 0.0
H930 H 0.99461 -0.00505 0.1061 0.0
H931 H 0.03804 -0.00141 0.11897 0.0
H932 H 0.04569 0.95449 0.17258 0.0
H933 H -0.00154 0.93581 0.1752 0.0
C934 C 0.96368 0.94544 0.15005 0.0
C935 C 0.94772 0.95179 0.13573 0.0
C936 C 0.99084 0.9564 0.14862 0.0
C937 C 0.95924 0.96998 0.11994 0.0
C938 C 0.98624 -0.0188 0.11842 0.0
C939 C 0.02939 -0.01523 0.13123 0.0
C940 C 0.04537 0.97778 0.14553 0.0
C941 C 0.00223 0.97427 0.13267 0.0
C942 C 0.03384 0.96011 0.16134 0.0
C943 C 0.00682 0.94947 0.16287 0.0
H944 H 0.96028 0.00775 0.41197 0.0
H945 H 0.95371 0.97504 0.35805 0.0
H946 H 0.00083 0.95045 0.35587 0.0
H947 H 0.04371 0.9376 0.36921 0.0
H948 H 0.05042 0.97014 0.42311 0.0
H949 H 0.00328 -0.00451 0.42532 0.0
C950 C 0.96914 -0.00473 0.39973 0.0
C951 C 0.9535 -0.00687 0.38521 0.0
C952 C 0.99621 -0.01886 0.39855 0.0
C953 C 0.9653 0.97698 0.36945 0.0
C954 C 0.99223 0.9629 0.36817 0.0
C955 C 0.0349 0.95025 0.38145 0.0
C956 C 0.05055 0.95194 0.39596 0.0
C957 C 0.00785 0.96472 0.38264 0.0
C958 C 0.0388 0.96848 0.41173 0.0
C959 C 0.01186 -0.01703 0.41301 0.0
H960 H 0.03242 0.0431 0.86939 0.0
H961 H 0.04072 -0.01972 0.92241 0.0
H962 H 0.99332 0.96761 0.92532 0.0
H963 H 0.94942 0.97397 0.91273 0.0
H964 H 0.94174 0.03734 0.85965 0.0
H965 H 0.98894 0.05071 0.85694 0.0
C966 C 0.02389 0.02631 0.88158 0.0
C967 C 0.04007 0.01239 0.89563 0.0
C968 C 0.99669 0.01967 0.8832 0.0
C969 C 0.02869 -0.00882 0.91136 0.0
C970 C 0.00158 -0.01593 0.91306 0.0
C971 C 0.95809 -0.00881 0.90061 0.0
C972 C 0.94206 0.00455 0.88645 0.0
C973 C 0.98537 -0.00165 0.89906 0.0
C974 C 0.9536 0.02648 0.87079 0.0
C975 C 0.98062 0.03408 0.86918 0.0
H976 H 0.95739 0.03969 0.662 0.0
H977 H 0.9511 0.03475 0.60782 0.0
H978 H -0.00189 0.00686 0.60539 0.0
H979 H 0.04099 -0.0169 0.61868 0.0
H980 H 0.04679 -0.01383 0.6729 0.0
H981 H -3e-05 0.01564 0.67522 0.0
C982 C 0.96628 0.03265 0.64965 0.0
C983 C 0.95077 0.03931 0.63514 0.0
C984 C 0.99324 0.01625 0.64833 0.0
C985 C 0.9626 0.02976 0.61922 0.0
C986 C 0.98948 0.01388 0.61781 0.0
C987 C 0.03201 -0.0096 0.63099 0.0
C988 C 0.04737 -0.01752 0.64556 0.0
C989 C 0.00499 0.0069 0.63228 0.0
C990 C 0.03543 -0.00822 0.66145 0.0
C991 C 0.00864 0.00871 0.66282 0.0
H992 H 0.45357 0.43769 0.16109 0.0
H993 H 0.44872 0.43046 0.10684 0.0
H994 H 0.49547 0.46419 0.10476 0.0
H995 H 0.53759 0.49575 0.11828 0.0
H996 H 0.54263 0.50132 0.17252 0.0
H997 H 0.4958 0.46841 0.17462 0.0
C998 C 0.46273 0.4434 0.1488 0.0
C999 C 0.44768 0.43165 0.13415 0.0
C1000 C 0.4896 0.46268 0.14768 0.0
C1001 C 0.45986 0.43912 0.11833 0.0
C1002 C 0.48658 0.45853 0.11711 0.0
C1003 C 0.52846 0.49005 0.13057 0.0
C1004 C 0.54355 0.5011 0.14521 0.0
C1005 C 0.50161 0.47056 0.1317 0.0
C1006 C 0.53144 0.49306 0.16104 0.0
C1007 C 0.50467 0.47421 0.16227 0.0
H1008 H 0.45959 0.50257 0.41044 0.0
H1009 H 0.45215 0.47751 0.35646 0.0
H1010 H 0.49895 0.44657 0.35394 0.0
H1011 H 0.5419 0.42619 0.367 0.0
H1012 H 0.54937 0.45112 0.42097 0.0
H1013 H 0.50258 0.48246 0.4235 0.0
C1014 C 0.4682 0.49047 0.39812 0.0
C1015 C 0.45242 0.49232 0.38369 0.0
C1016 C 0.49511 0.47257 0.39673 0.0
C1017 C 0.46387 0.47644 0.3678 0.0
C1018 C 0.49063 0.4587 0.36633 0.0
C1019 C 0.53331 0.43839 0.37932 0.0
C1020 C 0.54909 0.43629 0.39375 0.0
C1021 C 0.50641 0.45646 0.38071 0.0
C1022 C 0.53765 0.45235 0.40963 0.0
C1023 C 0.51089 0.47031 0.41111 0.0
H1024 H 0.45463 0.43837 0.90869 0.0
H1025 H 0.44898 0.42708 0.85452 0.0
H1026 H 0.49583 0.46057 0.8521 0.0
H1027 H 0.53845 0.49381 0.86548 0.0
H1028 H 0.54324 0.50385 0.91974 0.0
H1029 H 0.49668 0.47028 0.92193 0.0
C1030 C 0.4636 0.44311 0.89633 0.0
C1031 C 0.44833 0.43034 0.88183 0.0
C1032 C 0.49043 0.46236 0.89503 0.0
C1033 C 0.46031 0.4366 0.86592 0.0
C1034 C 0.48709 0.45586 0.86451 0.0
C1035 C 0.52927 0.48878 0.87777 0.0
C1036 C 0.54435 0.50138 0.89239 0.0
C1037 C 0.50235 0.46907 0.879 0.0
C1038 C 0.53217 0.49437 0.90824 0.0
C1039 C 0.5055 0.47516 0.90954 0.0
H1040 H 0.45439 0.50775 0.66271 0.0
H1041 H 0.44782 0.484 0.60865 0.0
H1042 H 0.49486 0.46445 0.60618 0.0
H1043 H 0.53791 0.45643 0.61909 0.0
H1044 H 0.54539 0.48172 0.67303 0.0
H1045 H 0.49802 0.49845 0.67577 0.0
C1046 C 0.46328 0.49787 0.65042 0.0
C1047 C 0.4476 0.49754 0.63592 0.0
C1048 C 0.49052 0.48731 0.64901 0.0
C1049 C 0.4594 0.48497 0.62005 0.0
C1050 C 0.48634 0.47373 0.61858 0.0
C1051 C 0.52923 0.46561 0.63146 0.0
C1052 C 0.54516 0.46802 0.6458 0.0
C1053 C 0.50208 0.47533 0.63295 0.0
C1054 C 0.53355 0.47984 0.66175 0.0
C1055 C 0.50646 0.4893 0.66334 0.0
H1056 H 0.12636 0.67468 0.16495 0.0
H1057 H 0.13909 0.70282 0.11142 0.0
H1058 H 0.13557 0.52069 0.10816 0.0
H1059 H 0.12836 0.35463 0.12047 0.0
H1060 H 0.11545 0.32651 0.17399 0.0
H1061 H 0.11917 0.50853 0.17726 0.0
C1062 C 0.12863 0.64082 0.1526 0.0
C1063 C 0.13302 0.70158 0.13846 0.0
C1064 C 0.12619 0.53666 0.15078 0.0
C1065 C 0.13568 0.65717 0.1225 0.0
C1066 C 0.13358 0.55329 0.12061 0.0
C1067 C 0.12611 0.38842 0.13282 0.0
C1068 C 0.12158 0.32766 0.14694 0.0
C1069 C 0.12859 0.49256 0.13464 0.0
C1070 C 0.11894 0.37209 0.16291 0.0
C1071 C 0.12116 0.47593 0.16481 0.0
H1072 H 0.86907 0.24938 0.11596 0.0
H1073 H 0.84923 0.21778 0.16851 0.0
H1074 H 0.85318 0.3993 0.17245 0.0
H1075 H 0.86287 0.56611 0.16106 0.0
H1076 H 0.88298 0.59772 0.10854 0.0
H1077 H 0.87879 0.41635 0.10457 0.0
C1078 C 0.86528 0.2825 0.12821 0.0
C1079 C 0.85878 0.22088 0.14189 0.0
C1080 C 0.86808 0.38637 0.13046 0.0
C1081 C 0.85425 0.26419 0.15777 0.0
C1082 C 0.85663 0.3677 0.16007 0.0
C1083 C 0.86665 0.5331 0.14881 0.0
C1084 C 0.87331 0.59475 0.13515 0.0
C1085 C 0.86382 0.42928 0.14654 0.0
C1086 C 0.87785 0.55141 0.11927 0.0
C1087 C 0.87534 0.44794 0.11695 0.0
H1088 H 0.1317 0.24731 0.41448 0.0
H1089 H 0.14453 0.21989 0.36095 0.0
H1090 H 0.14047 0.40188 0.35775 0.0
H1091 H 0.13271 0.56763 0.37009 0.0
H1092 H 0.11966 0.59517 0.42361 0.0
H1093 H 0.12394 0.41328 0.42683 0.0
C1094 C 0.1339 0.28133 0.40215 0.0
C1095 C 0.13848 0.22073 0.38799 0.0
C1096 C 0.13111 0.38544 0.40036 0.0
C1097 C 0.14101 0.26537 0.37205 0.0
C1098 C 0.13858 0.36918 0.37019 0.0
C1099 C 0.13053 0.53375 0.38243 0.0
C1100 C 0.12579 0.59439 0.39657 0.0
C1101 C 0.13336 0.42969 0.38423 0.0
C1102 C 0.12327 0.54975 0.41252 0.0
C1103 C 0.12584 0.44597 0.41439 0.0
H1104 H 0.87303 0.37026 0.41008 0.0
H1105 H 0.87998 0.34766 0.35602 0.0
H1106 H 0.87604 0.53019 0.35356 0.0
H1107 H 0.87033 0.69488 0.36672 0.0
H1108 H 0.8635 0.71744 0.42078 0.0
H1109 H 0.86729 0.53484 0.42324 0.0
C1110 C 0.8739 0.40523 0.39776 0.0
C1111 C 0.87687 0.34581 0.38326 0.0
C1112 C 0.87132 0.50961 0.39642 0.0
C1113 C 0.87777 0.39203 0.36738 0.0
C1114 C 0.8754 0.49618 0.36595 0.0
C1115 C 0.86944 0.65984 0.37904 0.0
C1116 C 0.86658 0.71925 0.39354 0.0
C1117 C 0.87199 0.55544 0.38038 0.0
C1118 C 0.86566 0.67303 0.40943 0.0
C1119 C 0.86793 0.56886 0.41085 0.0
H1120 H 0.86078 0.30289 0.86564 0.0
H1121 H 0.84775 0.27956 0.91922 0.0
H1122 H 0.8518 0.46202 0.922 0.0
H1123 H 0.85956 0.6267 0.90927 0.0
H1124 H 0.87263 0.64984 0.85569 0.0
H1125 H 0.86846 0.46746 0.85291 0.0
C1126 C 0.85858 0.33769 0.87792 0.0
C1127 C 0.85391 0.27807 0.8922 0.0
C1128 C 0.86131 0.44196 0.87945 0.0
C1129 C 0.85131 0.32409 0.90803 0.0
C1130 C 0.85374 0.42818 0.90964 0.0
C1131 C 0.86176 0.59183 0.897 0.0
C1132 C 0.86651 0.65138 0.88272 0.0
C1133 C 0.85898 0.48756 0.89546 0.0
C1134 C 0.86904 0.60535 0.86688 0.0
C1135 C 0.86654 0.50131 0.86527 0.0
H1136 H 0.12527 0.39167 0.86952 0.0
H1137 H 0.10589 0.35741 0.92212 0.0
H1138 H 0.10967 0.53867 0.92627 0.0
H1139 H 0.11881 0.70636 0.91501 0.0
H1140 H 0.13789 0.74066 0.86239 0.0
H1141 H 0.13435 0.55923 0.85826 0.0
C1142 C 0.12158 0.42409 0.88183 0.0
C1143 C 0.11526 0.36178 0.89546 0.0
C1144 C 0.12414 0.52788 0.8842 0.0
C1145 C 0.11079 0.40429 0.91141 0.0
C1146 C 0.11306 0.50769 0.91383 0.0
C1147 C 0.12251 0.67382 0.90271 0.0
C1148 C 0.12867 0.73609 0.88906 0.0
C1149 C 0.11997 0.57 0.90035 0.0
C1150 C 0.1331 0.69365 0.8731 0.0
C1151 C 0.13097 0.5902 0.8707 0.0
H1152 H 0.87128 0.74529 0.61603 0.0
H1153 H 0.85382 0.7755 0.66897 0.0
H1154 H 0.85799 0.59389 0.67265 0.0
H1155 H 0.86716 0.42747 0.66091 0.0
H1156 H 0.88483 0.39723 0.608 0.0
H1157 H 0.88048 0.57872 0.60429 0.0
C1158 C 0.86806 0.71188 0.62832 0.0
C1159 C 0.86216 0.77315 0.64218 0.0
C1160 C 0.87096 0.60797 0.63041 0.0
C1161 C 0.85836 0.72942 0.65809 0.0
C1162 C 0.86087 0.62584 0.66024 0.0
C1163 C 0.87037 0.46077 0.64862 0.0
C1164 C 0.8764 0.39946 0.63478 0.0
C1165 C 0.86744 0.56464 0.64652 0.0
C1166 C 0.88021 0.44323 0.61887 0.0
C1167 C 0.87759 0.54678 0.6167 0.0
H1168 H 0.12311 0.27071 0.62116 0.0
H1169 H 0.15036 0.24193 0.67231 0.0
H1170 H 0.14643 0.42348 0.67631 0.0
H1171 H 0.13465 0.5895 0.66541 0.0
H1172 H 0.10716 0.61827 0.61429 0.0
H1173 H 0.11131 0.43688 0.61026 0.0
C1174 C 0.12852 0.30443 0.63309 0.0
C1175 C 0.13712 0.2435 0.64638 0.0
C1176 C 0.12572 0.40832 0.63542 0.0
C1177 C 0.14373 0.2877 0.66188 0.0
C1178 C 0.14136 0.39125 0.66421 0.0
C1179 C 0.12924 0.55588 0.65346 0.0
C1180 C 0.1205 0.61682 0.64021 0.0
C1181 C 0.13208 0.45204 0.65113 0.0
C1182 C 0.11389 0.5726 0.62471 0.0
C1183 C 0.11639 0.4691 0.62235 0.0
H1184 H 0.62478 0.887 0.11978 0.0
H1185 H 0.61414 0.86217 0.17355 0.0
H1186 H 0.61836 0.04436 0.17644 0.0
H1187 H 0.62539 0.20957 0.16373 0.0
H1188 H 0.63592 0.23445 0.10996 0.0
H1189 H 0.63185 0.05218 0.10708 0.0
C1190 C 0.62312 0.92151 0.13211 0.0
C1191 C 0.61907 0.86156 0.14641 0.0
C1192 C 0.62592 0.02573 0.13371 0.0
C1193 C 0.61722 0.90703 0.16233 0.0
C1194 C 0.61974 0.01098 0.16402 0.0
C1195 C 0.62707 0.17504 0.1514 0.0
C1196 C 0.63102 0.23502 0.13709 0.0
C1197 C 0.62431 0.0708 0.1498 0.0
C1198 C 0.6329 0.18954 0.12117 0.0
C1199 C 0.63046 0.08556 0.1195 0.0
H1200 H 0.36886 0.72058 0.15831 0.0
H1201 H 0.35096 0.69844 0.10532 0.0
H1202 H 0.35472 0.88101 0.10257 0.0
H1203 H 0.36359 0.04541 0.11512 0.0
H1204 H 0.38148 0.06735 0.1681 0.0
H1205 H 0.37764 0.88485 0.17087 0.0
C1206 C 0.36556 0.75563 0.14617 0.0
C1207 C 0.35958 0.69627 0.13205 0.0
C1208 C 0.36811 0.85996 0.14463 0.0
C1209 C 0.35552 0.7427 0.11639 0.0
C1210 C 0.35779 0.84686 0.11479 0.0
C1211 C 0.36691 0.01028 0.12725 0.0
C1212 C 0.37293 0.06954 0.14137 0.0
C1213 C 0.3643 0.90594 0.12879 0.0
C1214 C 0.3769 0.02312 0.15704 0.0
C1215 C 0.37459 0.919 0.15864 0.0
H1216 H 0.63193 0.04686 0.36824 0.0
H1217 H 0.61591 0.07529 0.4214 0.0
H1218 H 0.6203 0.8936 0.42486 0.0
H1219 H 0.62906 0.72747 0.41282 0.0
H1220 H 0.6449 0.69911 0.35964 0.0
H1221 H 0.64067 0.8809 0.35621 0.0
C1222 C 0.6291 0.01316 0.38054 0.0
C1223 C 0.62352 0.07403 0.39452 0.0
C1224 C 0.63204 0.90919 0.38249 0.0
C1225 C 0.62019 0.02968 0.41043 0.0
C1226 C 0.62282 0.92601 0.41244 0.0
C1227 C 0.6319 0.76127 0.40053 0.0
C1228 C 0.63737 0.70044 0.38653 0.0
C1229 C 0.62899 0.86528 0.39859 0.0
C1230 C 0.6407 0.74478 0.37062 0.0
C1231 C 0.63816 0.84847 0.36862 0.0
H1232 H 0.37031 0.87774 0.40846 0.0
H1233 H 0.38299 0.85133 0.35489 0.0
H1234 H 0.37877 0.03335 0.3518 0.0
H1235 H 0.3712 0.199 0.36428 0.0
H1236 H 0.3587 0.22538 0.41786 0.0
H1237 H 0.36269 0.04324 0.42093 0.0
C1238 C 0.37241 0.91189 0.39613 0.0
C1239 C 0.37704 0.85154 0.38194 0.0
C1240 C 0.36962 0.01601 0.39441 0.0
C1241 C 0.37947 0.89652 0.36601 0.0
C1242 C 0.37694 0.00037 0.36422 0.0
C1243 C 0.36907 0.16477 0.3766 0.0
C1244 C 0.3646 0.22511 0.39081 0.0
C1245 C 0.37181 0.0606 0.37831 0.0
C1246 C 0.36214 0.18013 0.40673 0.0
C1247 C 0.36453 0.07624 0.40851 0.0
H1248 H 0.37212 0.72102 0.90772 0.0
H1249 H 0.34785 0.69474 0.85587 0.0
H1250 H 0.35134 0.87686 0.85246 0.0
H1251 H 0.36173 0.04233 0.86412 0.0
H1252 H 0.38599 0.06849 0.91597 0.0
H1253 H 0.38248 0.8864 0.91938 0.0
C1254 C 0.36734 0.75518 0.89572 0.0
C1255 C 0.35967 0.69483 0.88209 0.0
C1256 C 0.36976 0.85932 0.89378 0.0
C1257 C 0.35376 0.7399 0.86657 0.0
C1258 C 0.35587 0.8438 0.86458 0.0
C1259 C 0.36652 0.00811 0.87611 0.0
C1260 C 0.37421 0.06842 0.88975 0.0
C1261 C 0.36408 0.90397 0.87806 0.0
C1262 C 0.38008 0.02334 0.90527 0.0
C1263 C 0.37796 0.91946 0.90726 0.0
H1264 H 0.6222 0.2151 0.91381 0.0
H1265 H 0.64458 0.2438 0.86162 0.0
H1266 H 0.64017 0.06219 0.85783 0.0
H1267 H 0.62937 0.8962 0.86924 0.0
H1268 H 0.60693 0.86774 0.92142 0.0
H1269 H 0.61147 0.04925 0.92522 0.0
C1270 C 0.62643 0.18146 0.90166 0.0
C1271 C 0.6338 0.24242 0.88804 0.0
C1272 C 0.62339 0.07759 0.89949 0.0
C1273 C 0.63892 0.19813 0.87231 0.0
C1274 C 0.63626 0.09452 0.8701 0.0
C1275 C 0.62513 0.92992 0.88138 0.0
C1276 C 0.61768 0.86907 0.89499 0.0
C1277 C 0.62822 0.03379 0.88356 0.0
C1278 C 0.61262 0.91337 0.91073 0.0
C1279 C 0.61535 0.01691 0.91294 0.0
H1280 H 0.3651 0.87876 0.61487 0.0
H1281 H 0.37822 0.85879 0.66845 0.0
H1282 H 0.37411 0.04135 0.67093 0.0
H1283 H 0.36649 0.20538 0.65793 0.0
H1284 H 0.35348 0.22523 0.60434 0.0
H1285 H 0.35742 0.04261 0.60188 0.0
C1286 C 0.36729 0.9143 0.62709 0.0
C1287 C 0.37206 0.85553 0.64145 0.0
C1288 C 0.36457 0.0187 0.62845 0.0
C1289 C 0.37463 0.90258 0.65719 0.0
C1290 C 0.37216 0.00676 0.65864 0.0
C1291 C 0.36426 0.16976 0.64572 0.0
C1292 C 0.35963 0.22852 0.63134 0.0
C1293 C 0.36694 0.06531 0.64437 0.0
C1294 C 0.35701 0.18144 0.6156 0.0
C1295 C 0.35938 0.07722 0.61417 0.0
H1296 H 0.62866 0.77306 0.66319 0.0
H1297 H 0.63417 0.74952 0.60908 0.0
H1298 H 0.63061 0.93212 0.60658 0.0
H1299 H 0.6255 0.09701 0.61972 0.0
H1300 H 0.61989 0.12057 0.67383 0.0
H1301 H 0.62357 0.93803 0.67634 0.0
C1302 C 0.6293 0.80788 0.65085 0.0
C1303 C 0.63172 0.74824 0.63635 0.0
C1304 C 0.62691 0.91229 0.64949 0.0
C1305 C 0.63233 0.79415 0.62044 0.0
C1306 C 0.63021 0.89832 0.61898 0.0
C1307 C 0.62487 0.06224 0.63206 0.0
C1308 C 0.62236 0.12189 0.64656 0.0
C1309 C 0.62729 0.95785 0.63342 0.0
C1310 C 0.62177 0.07597 0.66247 0.0
C1311 C 0.62397 0.97182 0.66393 0.0
loop_
_geom_bond_atom_site_label_1
_geom_bond_atom_site_label_2
_geom_bond_distance
_geom_bond_site_symmetry_2
_ccdc_geom_bond_type
C0 O16 1.251 . S
C0 O18 1.254 . S
N1 C2 1.333 . S
N1 C6 1.307 . S
N1 Zn7 2.020 . S
C2 N1 1.333 . S
C2 C3 1.379 . S
C2 H20 0.952 . S
C3 C2 1.379 . S
C3 C4 1.390 . S
C3 H30 0.949 . S
C4 C3 1.390 . S
C4 C5 1.357 . S
C5 C4 1.357 . S
C5 C6 1.370 . S
C5 H31 0.950 1_545 S
C6 N1 1.307 . S
C6 C5 1.370 . S
C6 H24 0.948 1_545 S
Zn7 N1 2.020 . S
Zn7 O16 2.039 . S
Zn7 O22 2.034 . S
Zn7 O26 2.025 1_545 S
Zn7 O28 2.024 . S
C8 O27 1.246 . S
C8 O28 1.249 . S
N9 C10 1.307 . S
N9 C11 1.333 . S
N9 Zn15 2.020 . S
C10 N9 1.307 . S
C10 C14 1.370 . S
C10 H21 0.948 . S
C11 N9 1.333 . S
C11 C12 1.379 1_545 S
C11 H19 0.952 1_545 S
C12 C11 1.379 1_565 S
C12 C13 1.387 1_565 S
C12 H32 0.952 . S
C13 C12 1.387 1_545 S
C13 C14 1.357 . S
C14 C10 1.370 . S
C14 C13 1.357 . S
C14 H33 0.950 . S
Zn15 N9 2.020 . S
Zn15 O18 2.025 . S
Zn15 O23 2.024 . S
Zn15 O25 2.039 1_545 S
Zn15 O27 2.034 . S
O16 C0 1.251 . S
O16 Zn7 2.039 . S
C17 O22 1.246 . S
C17 O23 1.249 . S
O18 C0 1.254 . S
O18 Zn15 2.025 . S
H19 C11 0.952 1_565 S
H20 C2 0.952 . S
H21 C10 0.948 . S
O22 Zn7 2.034 . S
O22 C17 1.246 . S
O23 Zn15 2.024 . S
O23 C17 1.249 . S
H24 C6 0.948 1_565 S
O25 Zn15 2.039 1_565 S
O25 C29 1.251 . S
O26 Zn7 2.025 1_565 S
O26 C29 1.254 . S
O27 C8 1.246 . S
O27 Zn15 2.034 . S
O28 Zn7 2.024 . S
O28 C8 1.249 . S
C29 O25 1.251 . S
C29 O26 1.254 . S
H30 C3 0.949 . S
H31 C5 0.950 1_565 S
H32 C12 0.952 . S
H33 C14 0.950 . S
C34 O50 1.251 . S
C34 O52 1.254 . S
N35 C36 1.333 . S
N35 C40 1.307 . S
N35 Zn41 2.020 . S
C36 N35 1.333 . S
C36 C37 1.379 . S
C36 H54 0.952 . S
C37 C36 1.379 . S
C37 C38 1.390 . S
C37 H64 0.949 . S
C38 C37 1.390 . S
C38 C39 1.357 . S
C39 C38 1.357 . S
C39 C40 1.370 . S
C39 H65 0.950 1_565 S
C40 N35 1.307 . S
C40 C39 1.370 . S
C40 H58 0.948 1_565 S
Zn41 N35 2.020 . S
Zn41 O50 2.039 . S
Zn41 O56 2.034 . S
Zn41 O60 2.025 1_565 S
Zn41 O62 2.024 . S
C42 O61 1.246 . S
C42 O62 1.249 . S
N43 C44 1.307 . S
N43 C45 1.333 . S
N43 Zn49 2.020 . S
C44 N43 1.307 . S
C44 C48 1.370 . S
C44 H55 0.948 . S
C45 N43 1.333 . S
C45 C46 1.379 1_565 S
C45 H53 0.952 1_565 S
C46 C45 1.379 1_545 S
C46 C47 1.388 1_545 S
C46 H66 0.952 . S
C47 C46 1.388 1_565 S
C47 C48 1.357 . S
C48 C44 1.370 . S
C48 C47 1.357 . S
C48 H67 0.950 . S
Zn49 N43 2.020 . S
Zn49 O52 2.025 . S
Zn49 O57 2.024 . S
Zn49 O59 2.039 1_565 S
Zn49 O61 2.034 . S
O50 C34 1.251 . S
O50 Zn41 2.039 . S
C51 O56 1.246 . S
C51 O57 1.249 . S
O52 C34 1.254 . S
O52 Zn49 2.025 . S
H53 C45 0.952 1_545 S
H54 C36 0.952 . S
H55 C44 0.948 . S
O56 Zn41 2.034 . S
O56 C51 1.246 . S
O57 Zn49 2.024 . S
O57 C51 1.249 . S
H58 C40 0.948 1_545 S
O59 Zn49 2.039 1_545 S
O59 C63 1.251 . S
O60 Zn41 2.025 1_545 S
O60 C63 1.254 . S
O61 C42 1.246 . S
O61 Zn49 2.034 . S
O62 Zn41 2.024 . S
O62 C42 1.249 . S
C63 O59 1.251 . S
C63 O60 1.254 . S
H64 C37 0.949 . S
H65 C39 0.950 1_545 S
H66 C46 0.952 . S
H67 C48 0.950 . S
C68 O84 1.251 . S
C68 O86 1.254 . S
N69 C70 1.333 . S
N69 C74 1.307 . S
N69 Zn75 2.020 . S
C70 N69 1.333 . S
C70 C71 1.379 . S
C70 H88 0.952 . S
C71 C70 1.379 . S
C71 C72 1.390 . S
C71 H98 0.949 . S
C72 C71 1.390 . S
C72 C73 1.357 . S
C73 C72 1.357 . S
C73 C74 1.370 . S
C73 H99 0.950 1_565 S
C74 N69 1.307 . S
C74 C73 1.370 . S
C74 H92 0.948 1_565 S
Zn75 N69 2.020 . S
Zn75 O84 2.039 . S
Zn75 O90 2.034 . S
Zn75 O94 2.025 1_565 S
Zn75 O96 2.024 . S
C76 O95 1.246 . S
C76 O96 1.249 . S
N77 C78 1.307 . S
N77 C79 1.333 . S
N77 Zn83 2.020 . S
C78 N77 1.307 . S
C78 C82 1.370 . S
C78 H89 0.948 . S
C79 N77 1.333 . S
C79 C80 1.379 1_565 S
C79 H87 0.952 1_565 S
C80 C79 1.379 1_545 S
C80 C81 1.387 1_545 S
C80 H100 0.952 . S
C81 C80 1.387 1_565 S
C81 C82 1.357 . S
C82 C78 1.370 . S
C82 C81 1.357 . S
C82 H101 0.950 . S
Zn83 N77 2.020 . S
Zn83 O86 2.025 . S
Zn83 O91 2.024 . S
Zn83 O93 2.039 1_565 S
Zn83 O95 2.034 . S
O84 C68 1.251 . S
O84 Zn75 2.039 . S
C85 O90 1.246 . S
C85 O91 1.249 . S
O86 C68 1.254 . S
O86 Zn83 2.025 . S
H87 C79 0.952 1_545 S
H88 C70 0.952 . S
H89 C78 0.948 . S
O90 Zn75 2.034 . S
O90 C85 1.246 . S
O91 Zn83 2.024 . S
O91 C85 1.249 . S
H92 C74 0.948 1_545 S
O93 Zn83 2.039 1_545 S
O93 C97 1.251 . S
O94 Zn75 2.025 1_545 S
O94 C97 1.254 . S
O95 C76 1.246 . S
O95 Zn83 2.034 . S
O96 Zn75 2.024 . S
O96 C76 1.249 . S
C97 O93 1.251 . S
C97 O94 1.254 . S
H98 C71 0.949 . S
H99 C73 0.950 1_545 S
H100 C80 0.952 . S
H101 C82 0.950 . S
C102 O118 1.251 . S
C102 O120 1.254 . S
N103 C104 1.333 . S
N103 C108 1.307 . S
N103 Zn109 2.020 . S
C104 N103 1.333 . S
C104 C105 1.379 . S
C104 H122 0.952 . S
C105 C104 1.379 . S
C105 C106 1.390 . S
C105 H132 0.949 . S
C106 C105 1.390 . S
C106 C107 1.357 . S
C107 C106 1.357 . S
C107 C108 1.370 . S
C107 H133 0.950 1_545 S
C108 N103 1.307 . S
C108 C107 1.370 . S
C108 H126 0.948 1_545 S
Zn109 N103 2.020 . S
Zn109 O118 2.039 . S
Zn109 O124 2.034 . S
Zn109 O128 2.025 1_545 S
Zn109 O130 2.024 . S
C110 O129 1.246 . S
C110 O130 1.249 . S
N111 C112 1.307 . S
N111 C113 1.333 . S
N111 Zn117 2.020 . S
C112 N111 1.307 . S
C112 C116 1.370 . S
C112 H123 0.948 . S
C113 N111 1.333 . S
C113 C114 1.379 1_545 S
C113 H121 0.952 1_545 S
C114 C113 1.379 1_565 S
C114 C115 1.388 1_565 S
C114 H134 0.952 . S
C115 C114 1.388 1_545 S
C115 C116 1.357 . S
C116 C112 1.370 . S
C116 C115 1.357 . S
C116 H135 0.950 . S
Zn117 N111 2.020 . S
Zn117 O120 2.025 . S
Zn117 O125 2.024 . S
Zn117 O127 2.039 1_545 S
Zn117 O129 2.034 . S
O118 C102 1.251 . S
O118 Zn109 2.039 . S
C119 O124 1.246 . S
C119 O125 1.249 . S
O120 C102 1.254 . S
O120 Zn117 2.025 . S
H121 C113 0.952 1_565 S
H122 C104 0.952 . S
H123 C112 0.948 . S
O124 Zn109 2.034 . S
O124 C119 1.246 . S
O125 Zn117 2.024 . S
O125 C119 1.249 . S
H126 C108 0.948 1_565 S
O127 Zn117 2.039 1_565 S
O127 C131 1.251 . S
O128 Zn109 2.025 1_565 S
O128 C131 1.254 . S
O129 C110 1.246 . S
O129 Zn117 2.034 . S
O130 Zn109 2.024 . S
O130 C110 1.249 . S
C131 O127 1.251 . S
C131 O128 1.254 . S
H132 C105 0.949 . S
H133 C107 0.950 1_565 S
H134 C114 0.952 . S
H135 C116 0.950 . S
C136 O152 1.251 . S
C136 O154 1.254 . S
N137 C138 1.333 . S
N137 C142 1.307 . S
N137 Zn143 2.020 . S
C138 N137 1.333 . S
C138 C139 1.379 1_565 S
C138 H156 0.952 1_565 S
C139 C138 1.379 1_545 S
C139 C140 1.387 1_545 S
C139 H166 0.952 . S
C140 C139 1.387 1_565 S
C140 C141 1.357 . S
C141 C140 1.357 . S
C141 C142 1.370 . S
C141 H167 0.950 . S
C142 N137 1.307 . S
C142 C141 1.370 . S
C142 H160 0.948 . S
Zn143 N137 2.020 . S
Zn143 O152 2.039 1_565 S
Zn143 O158 2.034 . S
Zn143 O162 2.025 . S
Zn143 O164 2.024 . S
C144 O163 1.246 . S
C144 O164 1.249 . S
N145 C146 1.307 . S
N145 C147 1.333 . S
N145 Zn151 2.020 . S
C146 N145 1.307 . S
C146 C150 1.370 . S
C146 H157 0.948 1_565 S
C147 N145 1.333 . S
C147 C148 1.379 . S
C147 H155 0.952 . S
C148 C147 1.379 . S
C148 C149 1.390 . S
C148 H168 0.949 . S
C149 C148 1.390 . S
C149 C150 1.357 . S
C150 C146 1.370 . S
C150 C149 1.357 . S
C150 H169 0.950 1_565 S
Zn151 N145 2.020 . S
Zn151 O154 2.025 1_565 S
Zn151 O159 2.024 . S
Zn151 O161 2.039 . S
Zn151 O163 2.034 . S
O152 C136 1.251 . S
O152 Zn143 2.039 1_545 S
C153 O158 1.246 . S
C153 O159 1.249 . S
O154 C136 1.254 . S
O154 Zn151 2.025 1_545 S
H155 C147 0.952 . S
H156 C138 0.952 1_545 S
H157 C146 0.948 1_545 S
O158 Zn143 2.034 . S
O158 C153 1.246 . S
O159 Zn151 2.024 . S
O159 C153 1.249 . S
H160 C142 0.948 . S
O161 Zn151 2.039 . S
O161 C165 1.251 . S
O162 Zn143 2.025 . S
O162 C165 1.254 . S
O163 C144 1.246 . S
O163 Zn151 2.034 . S
O164 Zn143 2.024 . S
O164 C144 1.249 . S
C165 O161 1.251 . S
C165 O162 1.254 . S
H166 C139 0.952 . S
H167 C141 0.950 . S
H168 C148 0.949 . S
H169 C150 0.950 1_545 S
C170 O186 1.251 . S
C170 O188 1.254 . S
N171 C172 1.333 . S
N171 C176 1.307 . S
N171 Zn177 2.020 . S
C172 N171 1.333 . S
C172 C173 1.379 1_545 S
C172 H190 0.952 1_545 S
C173 C172 1.379 1_565 S
C173 C174 1.388 1_565 S
C173 H200 0.952 . S
C174 C173 1.388 1_545 S
C174 C175 1.357 . S
C175 C174 1.357 . S
C175 C176 1.370 . S
C175 H201 0.950 . S
C176 N171 1.307 . S
C176 C175 1.370 . S
C176 H194 0.948 . S
Zn177 N171 2.020 . S
Zn177 O186 2.039 1_545 S
Zn177 O192 2.034 . S
Zn177 O196 2.025 . S
Zn177 O198 2.024 . S
C178 O197 1.246 . S
C178 O198 1.249 . S
N179 C180 1.307 . S
N179 C181 1.333 . S
N179 Zn185 2.020 . S
C180 N179 1.307 . S
C180 C184 1.370 . S
C180 H191 0.948 1_545 S
C181 N179 1.333 . S
C181 C182 1.379 . S
C181 H189 0.952 . S
C182 C181 1.379 . S
C182 C183 1.390 . S
C182 H202 0.949 . S
C183 C182 1.390 . S
C183 C184 1.357 . S
C184 C180 1.370 . S
C184 C183 1.357 . S
C184 H203 0.950 1_545 S
Zn185 N179 2.020 . S
Zn185 O188 2.025 1_545 S
Zn185 O193 2.024 . S
Zn185 O195 2.039 . S
Zn185 O197 2.034 . S
O186 C170 1.251 . S
O186 Zn177 2.039 1_565 S
C187 O192 1.246 . S
C187 O193 1.249 . S
O188 C170 1.254 . S
O188 Zn185 2.025 1_565 S
H189 C181 0.952 . S
H190 C172 0.952 1_565 S
H191 C180 0.948 1_565 S
O192 Zn177 2.034 . S
O192 C187 1.246 . S
O193 Zn185 2.024 . S
O193 C187 1.249 . S
H194 C176 0.948 . S
O195 Zn185 2.039 . S
O195 C199 1.251 . S
O196 Zn177 2.025 . S
O196 C199 1.254 . S
O197 C178 1.246 . S
O197 Zn185 2.034 . S
O198 Zn177 2.024 . S
O198 C178 1.249 . S
C199 O195 1.251 . S
C199 O196 1.254 . S
H200 C173 0.952 . S
H201 C175 0.950 . S
H202 C182 0.949 . S
H203 C184 0.950 1_565 S
C204 O220 1.251 . S
C204 O222 1.254 . S
N205 C206 1.333 . S
N205 C210 1.307 . S
N205 Zn211 2.020 . S
C206 N205 1.333 . S
C206 C207 1.379 1_545 S
C206 H224 0.952 1_545 S
C207 C206 1.379 1_565 S
C207 C208 1.387 1_565 S
C207 H234 0.952 . S
C208 C207 1.387 1_545 S
C208 C209 1.357 . S
C209 C208 1.357 . S
C209 C210 1.370 . S
C209 H235 0.950 . S
C210 N205 1.307 . S
C210 C209 1.370 . S
C210 H228 0.948 . S
Zn211 N205 2.020 . S
Zn211 O220 2.039 1_545 S
Zn211 O226 2.034 . S
Zn211 O230 2.025 . S
Zn211 O232 2.024 . S
C212 O231 1.246 . S
C212 O232 1.249 . S
N213 C214 1.307 . S
N213 C215 1.333 . S
N213 Zn219 2.020 . S
C214 N213 1.307 . S
C214 C218 1.370 . S
C214 H225 0.948 1_545 S
C215 N213 1.333 . S
C215 C216 1.379 . S
C215 H223 0.952 . S
C216 C215 1.379 . S
C216 C217 1.390 . S
C216 H236 0.949 . S
C217 C216 1.390 . S
C217 C218 1.357 . S
C218 C214 1.370 . S
C218 C217 1.357 . S
C218 H237 0.950 1_545 S
Zn219 N213 2.020 . S
Zn219 O222 2.025 1_545 S
Zn219 O227 2.024 . S
Zn219 O229 2.039 . S
Zn219 O231 2.034 . S
O220 C204 1.251 . S
O220 Zn211 2.039 1_565 S
C221 O226 1.246 . S
C221 O227 1.249 . S
O222 C204 1.254 . S
O222 Zn219 2.025 1_565 S
H223 C215 0.952 . S
H224 C206 0.952 1_565 S
H225 C214 0.948 1_565 S
O226 Zn211 2.034 . S
O226 C221 1.246 . S
O227 Zn219 2.024 . S
O227 C221 1.249 . S
H228 C210 0.948 . S
O229 Zn219 2.039 . S
O229 C233 1.251 . S
O230 Zn211 2.025 . S
O230 C233 1.254 . S
O231 C212 1.246 . S
O231 Zn219 2.034 . S
O232 Zn211 2.024 . S
O232 C212 1.249 . S
C233 O229 1.251 . S
C233 O230 1.254 . S
H234 C207 0.952 . S
H235 C209 0.950 . S
H236 C216 0.949 . S
H237 C218 0.950 1_565 S
C238 O254 1.251 . S
C238 O256 1.254 . S
N239 C240 1.333 . S
N239 C244 1.307 . S
N239 Zn245 2.020 . S
C240 N239 1.333 . S
C240 C241 1.379 1_565 S
C240 H258 0.952 1_565 S
C241 C240 1.379 1_545 S
C241 C242 1.388 1_545 S
C241 H268 0.952 . S
C242 C241 1.388 1_565 S
C242 C243 1.357 . S
C243 C242 1.357 . S
C243 C244 1.370 . S
C243 H269 0.950 . S
C244 N239 1.307 . S
C244 C243 1.370 . S
C244 H262 0.948 . S
Zn245 N239 2.020 . S
Zn245 O254 2.039 1_565 S
Zn245 O260 2.034 . S
Zn245 O264 2.025 . S
Zn245 O266 2.024 . S
C246 O265 1.246 . S
C246 O266 1.249 . S
N247 C248 1.307 . S
N247 C249 1.333 . S
N247 Zn253 2.020 . S
C248 N247 1.307 . S
C248 C252 1.370 . S
C248 H259 0.948 1_565 S
C249 N247 1.333 . S
C249 C250 1.379 . S
C249 H257 0.952 . S
C250 C249 1.379 . S
C250 C251 1.390 . S
C250 H270 0.949 . S
C251 C250 1.390 . S
C251 C252 1.357 . S
C252 C248 1.370 . S
C252 C251 1.357 . S
C252 H271 0.950 1_565 S
Zn253 N247 2.020 . S
Zn253 O256 2.025 1_565 S
Zn253 O261 2.024 . S
Zn253 O263 2.039 . S
Zn253 O265 2.034 . S
O254 C238 1.251 . S
O254 Zn245 2.039 1_545 S
C255 O260 1.246 . S
C255 O261 1.249 . S
O256 C238 1.254 . S
O256 Zn253 2.025 1_545 S
H257 C249 0.952 . S
H258 C240 0.952 1_545 S
H259 C248 0.948 1_545 S
O260 Zn245 2.034 . S
O260 C255 1.246 . S
O261 Zn253 2.024 . S
O261 C255 1.249 . S
H262 C244 0.948 . S
O263 Zn253 2.039 . S
O263 C267 1.251 . S
O264 Zn245 2.025 . S
O264 C267 1.254 . S
O265 C246 1.246 . S
O265 Zn253 2.034 . S
O266 Zn245 2.024 . S
O266 C246 1.249 . S
C267 O263 1.251 . S
C267 O264 1.254 . S
H268 C241 0.952 . S
H269 C243 0.950 . S
H270 C250 0.949 . S
H271 C252 0.950 1_545 S
C272 O288 1.251 . S
C272 O290 1.254 . S
N273 C274 1.333 . S
N273 C278 1.307 . S
N273 Zn279 2.020 . S
C274 N273 1.333 . S
C274 C275 1.379 . S
C274 H292 0.952 . S
C275 C274 1.379 . S
C275 C276 1.390 . S
C275 H302 0.949 . S
C276 C275 1.390 . S
C276 C277 1.357 . S
C277 C276 1.357 . S
C277 C278 1.370 . S
C277 H303 0.950 . S
C278 N273 1.307 . S
C278 C277 1.370 . S
C278 H296 0.948 . S
Zn279 N273 2.020 . S
Zn279 O288 2.039 . S
Zn279 O294 2.034 . S
Zn279 O298 2.025 . S
Zn279 O300 2.024 . S
C280 O299 1.246 . S
C280 O300 1.249 . S
N281 C282 1.307 . S
N281 C283 1.333 . S
N281 Zn287 2.020 . S
C282 N281 1.307 . S
C282 C286 1.370 . S
C282 H293 0.948 . S
C283 N281 1.333 . S
C283 C284 1.379 . S
C283 H291 0.952 . S
C284 C283 1.379 . S
C284 C285 1.390 . S
C284 H304 0.949 . S
C285 C284 1.390 . S
C285 C286 1.357 . S
C286 C282 1.370 . S
C286 C285 1.357 . S
C286 H305 0.950 . S
Zn287 N281 2.020 . S
Zn287 O290 2.025 . S
Zn287 O295 2.024 . S
Zn287 O297 2.039 . S
Zn287 O299 2.034 . S
O288 C272 1.251 . S
O288 Zn279 2.039 . S
C289 O294 1.246 . S
C289 O295 1.249 . S
O290 C272 1.254 . S
O290 Zn287 2.025 . S
H291 C283 0.952 . S
H292 C274 0.952 . S
H293 C282 0.948 . S
O294 Zn279 2.034 . S
O294 C289 1.246 . S
O295 Zn287 2.024 . S
O295 C289 1.249 . S
H296 C278 0.948 . S
O297 Zn287 2.039 . S
O297 C301 1.251 . S
O298 Zn279 2.025 . S
O298 C301 1.254 . S
O299 C280 1.246 . S
O299 Zn287 2.034 . S
O300 Zn279 2.024 . S
O300 C280 1.249 . S
C301 O297 1.251 . S
C301 O298 1.254 . S
H302 C275 0.949 . S
H303 C277 0.950 . S
H304 C284 0.949 . S
H305 C286 0.950 . S
C306 O322 1.251 . S
C306 O324 1.254 . S
N307 C308 1.333 . S
N307 C312 1.307 . S
N307 Zn313 2.020 . S
C308 N307 1.333 . S
C308 C309 1.379 . S
C308 H326 0.952 . S
C309 C308 1.379 . S
C309 C310 1.390 . S
C309 H336 0.949 . S
C310 C309 1.390 . S
C310 C311 1.357 . S
C311 C310 1.357 . S
C311 C312 1.370 . S
C311 H337 0.950 . S
C312 N307 1.307 . S
C312 C311 1.370 . S
C312 H330 0.948 . S
Zn313 N307 2.020 . S
Zn313 O322 2.039 . S
Zn313 O328 2.034 . S
Zn313 O332 2.025 . S
Zn313 O334 2.024 . S
C314 O333 1.246 . S
C314 O334 1.249 . S
N315 C316 1.307 . S
N315 C317 1.333 . S
N315 Zn321 2.020 . S
C316 N315 1.307 . S
C316 C320 1.370 . S
C316 H327 0.948 . S
C317 N315 1.333 . S
C317 C318 1.379 . S
C317 H325 0.952 . S
C318 C317 1.379 . S
C318 C319 1.390 . S
C318 H338 0.949 . S
C319 C318 1.390 . S
C319 C320 1.357 . S
C320 C316 1.370 . S
C320 C319 1.357 . S
C320 H339 0.950 . S
Zn321 N315 2.020 . S
Zn321 O324 2.025 . S
Zn321 O329 2.024 . S
Zn321 O331 2.039 . S
Zn321 O333 2.034 . S
O322 C306 1.251 . S
O322 Zn313 2.039 . S
C323 O328 1.246 . S
C323 O329 1.249 . S
O324 C306 1.254 . S
O324 Zn321 2.025 . S
H325 C317 0.952 . S
H326 C308 0.952 . S
H327 C316 0.948 . S
O328 Zn313 2.034 . S
O328 C323 1.246 . S
O329 Zn321 2.024 . S
O329 C323 1.249 . S
H330 C312 0.948 . S
O331 Zn321 2.039 . S
O331 C335 1.251 . S
O332 Zn313 2.025 . S
O332 C335 1.254 . S
O333 C314 1.246 . S
O333 Zn321 2.034 . S
O334 Zn313 2.024 . S
O334 C314 1.249 . S
C335 O331 1.251 . S
C335 O332 1.254 . S
H336 C309 0.949 . S
H337 C311 0.950 . S
H338 C318 0.949 . S
H339 C320 0.950 . S
C340 O356 1.251 . S
C340 O358 1.254 . S
N341 C342 1.333 . S
N341 C346 1.307 . S
N341 Zn347 2.020 . S
C342 N341 1.333 . S
C342 C343 1.379 . S
C342 H360 0.952 . S
C343 C342 1.379 . S
C343 C344 1.390 . S
C343 H370 0.949 . S
C344 C343 1.390 . S
C344 C345 1.357 . S
C345 C344 1.357 . S
C345 C346 1.370 . S
C345 H371 0.950 . S
C346 N341 1.307 . S
C346 C345 1.370 . S
C346 H364 0.948 . S
Zn347 N341 2.020 . S
Zn347 O356 2.039 . S
Zn347 O362 2.034 . S
Zn347 O366 2.025 . S
Zn347 O368 2.024 . S
C348 O367 1.246 . S
C348 O368 1.249 . S
N349 C350 1.307 . S
N349 C351 1.333 . S
N349 Zn355 2.020 . S
C350 N349 1.307 . S
C350 C354 1.370 . S
C350 H361 0.948 . S
C351 N349 1.333 . S
C351 C352 1.379 . S
C351 H359 0.952 . S
C352 C351 1.379 . S
C352 C353 1.390 . S
C352 H372 0.949 . S
C353 C352 1.390 . S
C353 C354 1.357 . S
C354 C350 1.370 . S
C354 C353 1.357 . S
C354 H373 0.950 . S
Zn355 N349 2.020 . S
Zn355 O358 2.025 . S
Zn355 O363 2.024 . S
Zn355 O365 2.039 . S
Zn355 O367 2.034 . S
O356 C340 1.251 . S
O356 Zn347 2.039 . S
C357 O362 1.246 . S
C357 O363 1.249 . S
O358 C340 1.254 . S
O358 Zn355 2.025 . S
H359 C351 0.952 . S
H360 C342 0.952 . S
H361 C350 0.948 . S
O362 Zn347 2.034 . S
O362 C357 1.246 . S
O363 Zn355 2.024 . S
O363 C357 1.249 . S
H364 C346 0.948 . S
O365 Zn355 2.039 . S
O365 C369 1.251 . S
O366 Zn347 2.025 . S
O366 C369 1.254 . S
O367 C348 1.246 . S
O367 Zn355 2.034 . S
O368 Zn347 2.024 . S
O368 C348 1.249 . S
C369 O365 1.251 . S
C369 O366 1.254 . S
H370 C343 0.949 . S
H371 C345 0.950 . S
H372 C352 0.949 . S
H373 C354 0.950 . S
C374 O390 1.251 . S
C374 O392 1.254 . S
N375 C376 1.333 . S
N375 C380 1.307 . S
N375 Zn381 2.020 . S
C376 N375 1.333 . S
C376 C377 1.379 . S
C376 H394 0.952 . S
C377 C376 1.379 . S
C377 C378 1.390 . S
C377 H404 0.949 . S
C378 C377 1.390 . S
C378 C379 1.357 . S
C379 C378 1.357 . S
C379 C380 1.370 . S
C379 H405 0.950 . S
C380 N375 1.307 . S
C380 C379 1.370 . S
C380 H398 0.948 . S
Zn381 N375 2.020 . S
Zn381 O390 2.039 . S
Zn381 O396 2.034 . S
Zn381 O400 2.025 . S
Zn381 O402 2.024 . S
C382 O401 1.246 . S
C382 O402 1.249 . S
N383 C384 1.307 . S
N383 C385 1.333 . S
N383 Zn389 2.020 . S
C384 N383 1.307 . S
C384 C388 1.370 . S
C384 H395 0.948 . S
C385 N383 1.333 . S
C385 C386 1.379 . S
C385 H393 0.952 . S
C386 C385 1.379 . S
C386 C387 1.390 . S
C386 H406 0.949 . S
C387 C386 1.390 . S
C387 C388 1.357 . S
C388 C384 1.370 . S
C388 C387 1.357 . S
C388 H407 0.950 . S
Zn389 N383 2.020 . S
Zn389 O392 2.025 . S
Zn389 O397 2.024 . S
Zn389 O399 2.039 . S
Zn389 O401 2.034 . S
O390 C374 1.251 . S
O390 Zn381 2.039 . S
C391 O396 1.246 . S
C391 O397 1.249 . S
O392 C374 1.254 . S
O392 Zn389 2.025 . S
H393 C385 0.952 . S
H394 C376 0.952 . S
H395 C384 0.948 . S
O396 Zn381 2.034 . S
O396 C391 1.246 . S
O397 Zn389 2.024 . S
O397 C391 1.249 . S
H398 C380 0.948 . S
O399 Zn389 2.039 . S
O399 C403 1.251 . S
O400 Zn381 2.025 . S
O400 C403 1.254 . S
O401 C382 1.246 . S
O401 Zn389 2.034 . S
O402 Zn381 2.024 . S
O402 C382 1.249 . S
C403 O399 1.251 . S
C403 O400 1.254 . S
H404 C377 0.949 . S
H405 C379 0.950 . S
H406 C386 0.949 . S
H407 C388 0.950 . S
C408 O424 1.251 . S
C408 O426 1.254 . S
N409 C410 1.333 . S
N409 C414 1.307 . S
N409 Zn415 2.020 . S
C410 N409 1.333 . S
C410 C411 1.379 . S
C410 H428 0.952 . S
C411 C410 1.379 . S
C411 C412 1.390 . S
C411 H438 0.949 . S
C412 C411 1.390 . S
C412 C413 1.357 . S
C413 C412 1.357 . S
C413 C414 1.370 . S
C413 H439 0.950 . S
C414 N409 1.307 . S
C414 C413 1.370 . S
C414 H432 0.948 . S
Zn415 N409 2.020 . S
Zn415 O424 2.039 . S
Zn415 O430 2.034 . S
Zn415 O434 2.025 . S
Zn415 O436 2.024 . S
C416 O435 1.246 . S
C416 O436 1.249 . S
N417 C418 1.307 . S
N417 C419 1.333 . S
N417 Zn423 2.020 . S
C418 N417 1.307 . S
C418 C422 1.370 . S
C418 H429 0.948 . S
C419 N417 1.333 . S
C419 C420 1.379 . S
C419 H427 0.952 . S
C420 C419 1.379 . S
C420 C421 1.390 . S
C420 H440 0.949 . S
C421 C420 1.390 . S
C421 C422 1.357 . S
C422 C418 1.370 . S
C422 C421 1.357 . S
C422 H441 0.950 . S
Zn423 N417 2.020 . S
Zn423 O426 2.025 . S
Zn423 O431 2.024 . S
Zn423 O433 2.039 . S
Zn423 O435 2.034 . S
O424 C408 1.251 . S
O424 Zn415 2.039 . S
C425 O430 1.246 . S
C425 O431 1.249 . S
O426 C408 1.254 . S
O426 Zn423 2.025 . S
H427 C419 0.952 . S
H428 C410 0.952 . S
H429 C418 0.948 . S
O430 Zn415 2.034 . S
O430 C425 1.246 . S
O431 Zn423 2.024 . S
O431 C425 1.249 . S
H432 C414 0.948 . S
O433 Zn423 2.039 . S
O433 C437 1.251 . S
O434 Zn415 2.025 . S
O434 C437 1.254 . S
O435 C416 1.246 . S
O435 Zn423 2.034 . S
O436 Zn415 2.024 . S
O436 C416 1.249 . S
C437 O433 1.251 . S
C437 O434 1.254 . S
H438 C411 0.949 . S
H439 C413 0.950 . S
H440 C420 0.949 . S
H441 C422 0.950 . S
C442 O458 1.251 . S
C442 O460 1.254 . S
N443 C444 1.333 . S
N443 C448 1.307 . S
N443 Zn449 2.020 . S
C444 N443 1.333 . S
C444 C445 1.379 . S
C444 H462 0.952 . S
C445 C444 1.379 . S
C445 C446 1.390 . S
C445 H472 0.949 . S
C446 C445 1.390 . S
C446 C447 1.357 . S
C447 C446 1.357 . S
C447 C448 1.370 . S
C447 H473 0.950 . S
C448 N443 1.307 . S
C448 C447 1.370 . S
C448 H466 0.948 . S
Zn449 N443 2.020 . S
Zn449 O458 2.039 . S
Zn449 O464 2.034 . S
Zn449 O468 2.025 . S
Zn449 O470 2.024 . S
C450 O469 1.246 . S
C450 O470 1.249 . S
N451 C452 1.307 . S
N451 C453 1.333 . S
N451 Zn457 2.020 . S
C452 N451 1.307 . S
C452 C456 1.370 . S
C452 H463 0.948 . S
C453 N451 1.333 . S
C453 C454 1.379 . S
C453 H461 0.952 . S
C454 C453 1.379 . S
C454 C455 1.390 . S
C454 H474 0.949 . S
C455 C454 1.390 . S
C455 C456 1.357 . S
C456 C452 1.370 . S
C456 C455 1.357 . S
C456 H475 0.950 . S
Zn457 N451 2.020 . S
Zn457 O460 2.025 . S
Zn457 O465 2.024 . S
Zn457 O467 2.039 . S
Zn457 O469 2.034 . S
O458 C442 1.251 . S
O458 Zn449 2.039 . S
C459 O464 1.246 . S
C459 O465 1.249 . S
O460 C442 1.254 . S
O460 Zn457 2.025 . S
H461 C453 0.952 . S
H462 C444 0.952 . S
H463 C452 0.948 . S
O464 Zn449 2.034 . S
O464 C459 1.246 . S
O465 Zn457 2.024 . S
O465 C459 1.249 . S
H466 C448 0.948 . S
O467 Zn457 2.039 . S
O467 C471 1.251 . S
O468 Zn449 2.025 . S
O468 C471 1.254 . S
O469 C450 1.246 . S
O469 Zn457 2.034 . S
O470 Zn449 2.024 . S
O470 C450 1.249 . S
C471 O467 1.251 . S
C471 O468 1.254 . S
H472 C445 0.949 . S
H473 C447 0.950 . S
H474 C454 0.949 . S
H475 C456 0.950 . S
C476 O492 1.251 . S
C476 O494 1.254 . S
N477 C478 1.333 . S
N477 C482 1.307 . S
N477 Zn483 2.020 . S
C478 N477 1.333 . S
C478 C479 1.379 . S
C478 H496 0.952 . S
C479 C478 1.379 . S
C479 C480 1.390 . S
C479 H506 0.949 . S
C480 C479 1.390 . S
C480 C481 1.357 . S
C481 C480 1.357 . S
C481 C482 1.370 . S
C481 H507 0.950 . S
C482 N477 1.307 . S
C482 C481 1.370 . S
C482 H500 0.948 . S
Zn483 N477 2.020 . S
Zn483 O492 2.039 . S
Zn483 O498 2.034 . S
Zn483 O502 2.025 . S
Zn483 O504 2.024 . S
C484 O503 1.246 . S
C484 O504 1.249 . S
N485 C486 1.307 . S
N485 C487 1.333 . S
N485 Zn491 2.020 . S
C486 N485 1.307 . S
C486 C490 1.370 . S
C486 H497 0.948 . S
C487 N485 1.333 . S
C487 C488 1.379 . S
C487 H495 0.952 . S
C488 C487 1.379 . S
C488 C489 1.390 . S
C488 H508 0.949 . S
C489 C488 1.390 . S
C489 C490 1.357 . S
C490 C486 1.370 . S
C490 C489 1.357 . S
C490 H509 0.950 . S
Zn491 N485 2.020 . S
Zn491 O494 2.025 . S
Zn491 O499 2.024 . S
Zn491 O501 2.039 . S
Zn491 O503 2.034 . S
O492 C476 1.251 . S
O492 Zn483 2.039 . S
C493 O498 1.246 . S
C493 O499 1.249 . S
O494 C476 1.254 . S
O494 Zn491 2.025 . S
H495 C487 0.952 . S
H496 C478 0.952 . S
H497 C486 0.948 . S
O498 Zn483 2.034 . S
O498 C493 1.246 . S
O499 Zn491 2.024 . S
O499 C493 1.249 . S
H500 C482 0.948 . S
O501 Zn491 2.039 . S
O501 C505 1.251 . S
O502 Zn483 2.025 . S
O502 C505 1.254 . S
O503 C484 1.246 . S
O503 Zn491 2.034 . S
O504 Zn483 2.024 . S
O504 C484 1.249 . S
C505 O501 1.251 . S
C505 O502 1.254 . S
H506 C479 0.949 . S
H507 C481 0.950 . S
H508 C488 0.949 . S
H509 C490 0.950 . S
C510 O526 1.251 . S
C510 O528 1.254 . S
N511 C512 1.333 . S
N511 C516 1.307 . S
N511 Zn517 2.020 . S
C512 N511 1.333 . S
C512 C513 1.379 . S
C512 H530 0.952 . S
C513 C512 1.379 . S
C513 C514 1.390 . S
C513 H540 0.949 . S
C514 C513 1.390 . S
C514 C515 1.357 . S
C515 C514 1.357 . S
C515 C516 1.370 . S
C515 H541 0.950 . S
C516 N511 1.307 . S
C516 C515 1.370 . S
C516 H534 0.948 . S
Zn517 N511 2.020 . S
Zn517 O526 2.039 . S
Zn517 O532 2.034 . S
Zn517 O536 2.025 . S
Zn517 O538 2.024 . S
C518 O537 1.246 . S
C518 O538 1.249 . S
N519 C520 1.307 . S
N519 C521 1.333 . S
N519 Zn525 2.020 . S
C520 N519 1.307 . S
C520 C524 1.370 . S
C520 H531 0.948 . S
C521 N519 1.333 . S
C521 C522 1.379 . S
C521 H529 0.952 . S
C522 C521 1.379 . S
C522 C523 1.390 . S
C522 H542 0.949 . S
C523 C522 1.390 . S
C523 C524 1.357 . S
C524 C520 1.370 . S
C524 C523 1.357 . S
C524 H543 0.950 . S
Zn525 N519 2.020 . S
Zn525 O528 2.025 . S
Zn525 O533 2.024 . S
Zn525 O535 2.039 . S
Zn525 O537 2.034 . S
O526 C510 1.251 . S
O526 Zn517 2.039 . S
C527 O532 1.246 . S
C527 O533 1.249 . S
O528 C510 1.254 . S
O528 Zn525 2.025 . S
H529 C521 0.952 . S
H530 C512 0.952 . S
H531 C520 0.948 . S
O532 Zn517 2.034 . S
O532 C527 1.246 . S
O533 Zn525 2.024 . S
O533 C527 1.249 . S
H534 C516 0.948 . S
O535 Zn525 2.039 . S
O535 C539 1.251 . S
O536 Zn517 2.025 . S
O536 C539 1.254 . S
O537 C518 1.246 . S
O537 Zn525 2.034 . S
O538 Zn517 2.024 . S
O538 C518 1.249 . S
C539 O535 1.251 . S
C539 O536 1.254 . S
H540 C513 0.949 . S
H541 C515 0.950 . S
H542 C522 0.949 . S
H543 C524 0.950 . S
H544 C550 0.930 . S
H545 C553 0.930 . S
H546 C554 0.930 . S
H547 C555 0.930 . S
H548 C558 0.930 . S
H549 C559 0.930 . S
C550 H544 0.930 . S
C550 C551 1.355 . S
C550 C552 1.415 . S
C551 C550 1.355 . S
C551 C553 1.419 . S
C552 C550 1.415 . S
C552 C557 1.425 . S
C552 C559 1.409 . S
C553 H545 0.930 . S
C553 C551 1.419 . S
C553 C554 1.362 . S
C554 H546 0.930 . S
C554 C553 1.362 . S
C554 C557 1.409 . S
C555 H547 0.930 . S
C555 C556 1.355 . S
C555 C557 1.415 . S
C556 C555 1.355 . S
C556 C558 1.419 . S
C557 C552 1.425 . S
C557 C554 1.409 . S
C557 C555 1.415 . S
C558 H548 0.930 . S
C558 C556 1.419 . S
C558 C559 1.362 . S
C559 H549 0.930 . S
C559 C552 1.409 . S
C559 C558 1.362 . S
H560 C566 0.930 . S
H561 C569 0.930 . S
H562 C570 0.930 . S
H563 C571 0.930 . S
H564 C574 0.930 . S
H565 C575 0.930 . S
C566 H560 0.930 . S
C566 C567 1.355 . S
C566 C568 1.415 . S
C567 C566 1.355 . S
C567 C569 1.419 . S
C568 C566 1.415 . S
C568 C573 1.425 . S
C568 C575 1.409 . S
C569 H561 0.930 . S
C569 C567 1.419 . S
C569 C570 1.362 . S
C570 H562 0.930 . S
C570 C569 1.362 . S
C570 C573 1.409 . S
C571 H563 0.930 . S
C571 C572 1.355 . S
C571 C573 1.415 . S
C572 C571 1.355 . S
C572 C574 1.419 . S
C573 C568 1.425 . S
C573 C570 1.409 . S
C573 C571 1.415 . S
C574 H564 0.930 . S
C574 C572 1.419 . S
C574 C575 1.362 . S
C575 H565 0.930 . S
C575 C568 1.409 . S
C575 C574 1.362 . S
H576 C582 0.930 . S
H577 C585 0.930 . S
H578 C586 0.930 . S
H579 C587 0.930 . S
H580 C590 0.930 . S
H581 C591 0.930 . S
C582 H576 0.930 . S
C582 C583 1.355 . S
C582 C584 1.415 . S
C583 C582 1.355 . S
C583 C585 1.419 . S
C584 C582 1.415 . S
C584 C589 1.425 . S
C584 C591 1.409 . S
C585 H577 0.930 . S
C585 C583 1.419 . S
C585 C586 1.362 . S
C586 H578 0.930 . S
C586 C585 1.362 . S
C586 C589 1.409 . S
C587 H579 0.930 . S
C587 C588 1.355 . S
C587 C589 1.415 . S
C588 C587 1.355 . S
C588 C590 1.419 . S
C589 C584 1.425 . S
C589 C586 1.409 . S
C589 C587 1.415 . S
C590 H580 0.930 . S
C590 C588 1.419 . S
C590 C591 1.362 . S
C591 H581 0.930 . S
C591 C584 1.409 . S
C591 C590 1.362 . S
H592 C598 0.930 . S
H593 C601 0.930 . S
H594 C602 0.930 . S
H595 C603 0.930 . S
H596 C606 0.930 . S
H597 C607 0.930 . S
C598 H592 0.930 . S
C598 C599 1.355 . S
C598 C600 1.415 . S
C599 C598 1.355 . S
C599 C601 1.419 . S
C600 C598 1.415 . S
C600 C605 1.425 . S
C600 C607 1.409 . S
C601 H593 0.930 . S
C601 C599 1.419 . S
C601 C602 1.362 . S
C602 H594 0.930 . S
C602 C601 1.362 . S
C602 C605 1.409 . S
C603 H595 0.930 . S
C603 C604 1.355 . S
C603 C605 1.415 . S
C604 C603 1.355 . S
C604 C606 1.419 . S
C605 C600 1.425 . S
C605 C602 1.409 . S
C605 C603 1.415 . S
C606 H596 0.930 . S
C606 C604 1.419 . S
C606 C607 1.362 . S
C607 H597 0.930 . S
C607 C600 1.409 . S
C607 C606 1.362 . S
H608 C614 0.930 . S
H609 C617 0.930 . S
H610 C618 0.930 . S
H611 C619 0.930 . S
H612 C622 0.930 . S
H613 C623 0.930 . S
C614 H608 0.930 . S
C614 C615 1.355 . S
C614 C616 1.415 . S
C615 C614 1.355 . S
C615 C617 1.419 . S
C616 C614 1.415 . S
C616 C621 1.425 . S
C616 C623 1.409 . S
C617 H609 0.930 . S
C617 C615 1.419 . S
C617 C618 1.362 . S
C618 H610 0.930 . S
C618 C617 1.362 . S
C618 C621 1.409 . S
C619 H611 0.930 . S
C619 C620 1.355 . S
C619 C621 1.415 . S
C620 C619 1.355 . S
C620 C622 1.419 . S
C621 C616 1.425 . S
C621 C618 1.409 . S
C621 C619 1.415 . S
C622 H612 0.930 . S
C622 C620 1.419 . S
C622 C623 1.362 . S
C623 H613 0.930 . S
C623 C616 1.409 . S
C623 C622 1.362 . S
H624 C630 0.930 . S
H625 C633 0.930 . S
H626 C634 0.930 . S
H627 C635 0.930 . S
H628 C638 0.930 . S
H629 C639 0.930 . S
C630 H624 0.930 . S
C630 C631 1.355 . S
C630 C632 1.415 . S
C631 C630 1.355 . S
C631 C633 1.419 . S
C632 C630 1.415 . S
C632 C637 1.425 . S
C632 C639 1.409 . S
C633 H625 0.930 . S
C633 C631 1.419 . S
C633 C634 1.362 . S
C634 H626 0.930 . S
C634 C633 1.362 . S
C634 C637 1.409 . S
C635 H627 0.930 . S
C635 C636 1.355 . S
C635 C637 1.415 . S
C636 C635 1.355 . S
C636 C638 1.419 . S
C637 C632 1.425 . S
C637 C634 1.409 . S
C637 C635 1.415 . S
C638 H628 0.930 . S
C638 C636 1.419 . S
C638 C639 1.362 . S
C639 H629 0.930 . S
C639 C632 1.409 . S
C639 C638 1.362 . S
H640 C646 0.930 . S
H641 C649 0.930 . S
H642 C650 0.930 . S
H643 C651 0.930 . S
H644 C654 0.930 . S
H645 C655 0.930 . S
C646 H640 0.930 . S
C646 C647 1.355 . S
C646 C648 1.415 . S
C647 C646 1.355 . S
C647 C649 1.419 . S
C648 C646 1.415 . S
C648 C653 1.425 . S
C648 C655 1.409 . S
C649 H641 0.930 . S
C649 C647 1.419 . S
C649 C650 1.362 . S
C650 H642 0.930 . S
C650 C649 1.362 . S
C650 C653 1.409 . S
C651 H643 0.930 . S
C651 C652 1.355 . S
C651 C653 1.415 . S
C652 C651 1.355 . S
C652 C654 1.419 . S
C653 C648 1.425 . S
C653 C650 1.409 . S
C653 C651 1.415 . S
C654 H644 0.930 . S
C654 C652 1.419 . S
C654 C655 1.362 . S
C655 H645 0.930 . S
C655 C648 1.409 . S
C655 C654 1.362 . S
H656 C662 0.930 . S
H657 C665 0.930 . S
H658 C666 0.930 . S
H659 C667 0.930 . S
H660 C670 0.930 . S
H661 C671 0.930 . S
C662 H656 0.930 . S
C662 C663 1.355 . S
C662 C664 1.415 . S
C663 C662 1.355 . S
C663 C665 1.419 . S
C664 C662 1.415 . S
C664 C669 1.425 . S
C664 C671 1.409 . S
C665 H657 0.930 . S
C665 C663 1.419 . S
C665 C666 1.362 . S
C666 H658 0.930 . S
C666 C665 1.362 . S
C666 C669 1.409 . S
C667 H659 0.930 . S
C667 C668 1.355 . S
C667 C669 1.415 . S
C668 C667 1.355 . S
C668 C670 1.419 . S
C669 C664 1.425 . S
C669 C666 1.409 . S
C669 C667 1.415 . S
C670 H660 0.930 . S
C670 C668 1.419 . S
C670 C671 1.362 . S
C671 H661 0.930 . S
C671 C664 1.409 . S
C671 C670 1.362 . S
H672 C678 0.930 . S
H673 C681 0.930 . S
H674 C682 0.930 . S
H675 C683 0.930 . S
H676 C686 0.930 . S
H677 C687 0.930 . S
C678 H672 0.930 . S
C678 C679 1.355 1_545 S
C678 C680 1.415 . S
C679 C678 1.355 1_565 S
C679 C681 1.419 . S
C680 C678 1.415 . S
C680 C685 1.425 1_545 S
C680 C687 1.409 . S
C681 H673 0.930 . S
C681 C679 1.419 . S
C681 C682 1.362 . S
C682 H674 0.930 . S
C682 C681 1.362 . S
C682 C685 1.409 . S
C683 H675 0.930 . S
C683 C684 1.355 1_565 S
C683 C685 1.415 . S
C684 C683 1.355 1_545 S
C684 C686 1.419 . S
C685 C680 1.425 1_565 S
C685 C682 1.409 . S
C685 C683 1.415 . S
C686 H676 0.930 . S
C686 C684 1.419 . S
C686 C687 1.362 . S
C687 H677 0.930 . S
C687 C680 1.409 . S
C687 C686 1.362 . S
H688 C694 0.930 . S
H689 C697 0.930 . S
H690 C698 0.930 . S
H691 C699 0.930 . S
H692 C702 0.930 . S
H693 C703 0.930 . S
C694 H688 0.930 . S
C694 C695 1.355 . S
C694 C696 1.415 . S
C695 C694 1.355 . S
C695 C697 1.419 1_545 S
C696 C694 1.415 . S
C696 C701 1.425 1_545 S
C696 C703 1.409 . S
C697 H689 0.930 . S
C697 C695 1.419 1_565 S
C697 C698 1.362 . S
C698 H690 0.930 . S
C698 C697 1.362 . S
C698 C701 1.409 . S
C699 H691 0.930 . S
C699 C700 1.355 . S
C699 C701 1.415 . S
C700 C699 1.355 . S
C700 C702 1.419 1_565 S
C701 C696 1.425 1_565 S
C701 C698 1.409 . S
C701 C699 1.415 . S
C702 H692 0.930 . S
C702 C700 1.419 1_545 S
C702 C703 1.362 . S
C703 H693 0.930 . S
C703 C696 1.409 . S
C703 C702 1.362 . S
H704 C710 0.930 . S
H705 C713 0.930 . S
H706 C714 0.930 . S
H707 C715 0.930 . S
H708 C718 0.930 . S
H709 C719 0.930 . S
C710 H704 0.930 . S
C710 C711 1.355 . S
C710 C712 1.415 . S
C711 C710 1.355 . S
C711 C713 1.419 1_545 S
C712 C710 1.415 . S
C712 C717 1.425 1_545 S
C712 C719 1.409 . S
C713 H705 0.930 . S
C713 C711 1.419 1_565 S
C713 C714 1.362 . S
C714 H706 0.930 . S
C714 C713 1.362 . S
C714 C717 1.409 . S
C715 H707 0.930 . S
C715 C716 1.355 . S
C715 C717 1.415 . S
C716 C715 1.355 . S
C716 C718 1.419 1_565 S
C717 C712 1.425 1_565 S
C717 C714 1.409 . S
C717 C715 1.415 . S
C718 H708 0.930 . S
C718 C716 1.419 1_545 S
C718 C719 1.362 . S
C719 H709 0.930 . S
C719 C712 1.409 . S
C719 C718 1.362 . S
H720 C726 0.930 . S
H721 C729 0.930 . S
H722 C730 0.930 . S
H723 C731 0.930 . S
H724 C734 0.930 . S
H725 C735 0.930 . S
C726 H720 0.930 . S
C726 C727 1.355 . S
C726 C728 1.415 . S
C727 C726 1.355 . S
C727 C729 1.419 1_545 S
C728 C726 1.415 . S
C728 C733 1.425 1_545 S
C728 C735 1.409 . S
C729 H721 0.930 . S
C729 C727 1.419 1_565 S
C729 C730 1.362 . S
C730 H722 0.930 . S
C730 C729 1.362 . S
C730 C733 1.409 . S
C731 H723 0.930 . S
C731 C732 1.355 . S
C731 C733 1.415 . S
C732 C731 1.355 . S
C732 C734 1.419 1_565 S
C733 C728 1.425 1_565 S
C733 C730 1.409 . S
C733 C731 1.415 . S
C734 H724 0.930 . S
C734 C732 1.419 1_545 S
C734 C735 1.362 . S
C735 H725 0.930 . S
C735 C728 1.409 . S
C735 C734 1.362 . S
H736 C742 0.930 . S
H737 C745 0.930 . S
H738 C746 0.930 . S
H739 C747 0.930 . S
H740 C750 0.930 . S
H741 C751 0.930 . S
C742 H736 0.930 . S
C742 C743 1.355 . S
C742 C744 1.415 . S
C743 C742 1.355 . S
C743 C745 1.419 . S
C744 C742 1.415 . S
C744 C749 1.425 . S
C744 C751 1.409 . S
C745 H737 0.930 . S
C745 C743 1.419 . S
C745 C746 1.362 . S
C746 H738 0.930 . S
C746 C745 1.362 . S
C746 C749 1.409 . S
C747 H739 0.930 . S
C747 C748 1.355 . S
C747 C749 1.415 . S
C748 C747 1.355 . S
C748 C750 1.419 . S
C749 C744 1.425 . S
C749 C746 1.409 . S
C749 C747 1.415 . S
C750 H740 0.930 . S
C750 C748 1.419 . S
C750 C751 1.362 . S
C751 H741 0.930 . S
C751 C744 1.409 . S
C751 C750 1.362 . S
H752 C758 0.930 . S
H753 C761 0.930 . S
H754 C762 0.930 . S
H755 C763 0.930 . S
H756 C766 0.930 . S
H757 C767 0.930 . S
C758 H752 0.930 . S
C758 C759 1.355 . S
C758 C760 1.415 . S
C759 C758 1.355 . S
C759 C761 1.419 . S
C760 C758 1.415 . S
C760 C765 1.425 . S
C760 C767 1.409 . S
C761 H753 0.930 . S
C761 C759 1.419 . S
C761 C762 1.362 . S
C762 H754 0.930 . S
C762 C761 1.362 . S
C762 C765 1.409 . S
C763 H755 0.930 . S
C763 C764 1.355 . S
C763 C765 1.415 . S
C764 C763 1.355 . S
C764 C766 1.419 . S
C765 C760 1.425 . S
C765 C762 1.409 . S
C765 C763 1.415 . S
C766 H756 0.930 . S
C766 C764 1.419 . S
C766 C767 1.362 . S
C767 H757 0.930 . S
C767 C760 1.409 . S
C767 C766 1.362 . S
H768 C774 0.930 . S
H769 C777 0.930 . S
H770 C778 0.930 . S
H771 C779 0.930 . S
H772 C782 0.930 . S
H773 C783 0.930 . S
C774 H768 0.930 . S
C774 C775 1.355 . S
C774 C776 1.415 . S
C775 C774 1.355 . S
C775 C777 1.419 . S
C776 C774 1.415 . S
C776 C781 1.425 . S
C776 C783 1.409 . S
C777 H769 0.930 . S
C777 C775 1.419 . S
C777 C778 1.362 . S
C778 H770 0.930 . S
C778 C777 1.362 . S
C778 C781 1.409 . S
C779 H771 0.930 . S
C779 C780 1.355 . S
C779 C781 1.415 . S
C780 C779 1.355 . S
C780 C782 1.419 . S
C781 C776 1.425 . S
C781 C778 1.409 . S
C781 C779 1.415 . S
C782 H772 0.930 . S
C782 C780 1.419 . S
C782 C783 1.362 . S
C783 H773 0.930 . S
C783 C776 1.409 . S
C783 C782 1.362 . S
H784 C790 0.930 . S
H785 C793 0.930 . S
H786 C794 0.930 . S
H787 C795 0.930 . S
H788 C798 0.930 . S
H789 C799 0.930 . S
C790 H784 0.930 . S
C790 C791 1.355 . S
C790 C792 1.415 . S
C791 C790 1.355 . S
C791 C793 1.419 . S
C792 C790 1.415 . S
C792 C797 1.425 . S
C792 C799 1.409 . S
C793 H785 0.930 . S
C793 C791 1.419 . S
C793 C794 1.362 . S
C794 H786 0.930 . S
C794 C793 1.362 . S
C794 C797 1.409 . S
C795 H787 0.930 . S
C795 C796 1.355 . S
C795 C797 1.415 . S
C796 C795 1.355 . S
C796 C798 1.419 . S
C797 C792 1.425 . S
C797 C794 1.409 . S
C797 C795 1.415 . S
C798 H788 0.930 . S
C798 C796 1.419 . S
C798 C799 1.362 . S
C799 H789 0.930 . S
C799 C792 1.409 . S
C799 C798 1.362 . S
H800 C806 0.930 . S
H801 C809 0.930 . S
H802 C810 0.930 . S
H803 C811 0.930 . S
H804 C814 0.930 . S
H805 C815 0.930 1_565 S
C806 H800 0.930 . S
C806 C807 1.355 . S
C806 C808 1.415 . S
C807 C806 1.355 . S
C807 C809 1.419 . S
C808 C806 1.415 . S
C808 C813 1.425 1_556 S
C808 C815 1.409 1_556 S
C809 H801 0.930 . S
C809 C807 1.419 . S
C809 C810 1.362 . S
C810 H802 0.930 . S
C810 C809 1.362 . S
C810 C813 1.409 1_556 S
C811 H803 0.930 . S
C811 C812 1.355 . S
C811 C813 1.415 . S
C812 C811 1.355 . S
C812 C814 1.419 . S
C813 C808 1.425 1_554 S
C813 C810 1.409 1_554 S
C813 C811 1.415 . S
C814 H804 0.930 . S
C814 C812 1.419 . S
C814 C815 1.362 . S
C815 H805 0.930 1_545 S
C815 C808 1.409 1_554 S
C815 C814 1.362 . S
H816 C822 0.930 . S
H817 C825 0.930 . S
H818 C826 0.930 . S
H819 C827 0.930 . S
H820 C830 0.930 . S
H821 C831 0.930 . S
C822 H816 0.930 . S
C822 C823 1.355 . S
C822 C824 1.415 . S
C823 C822 1.355 . S
C823 C825 1.419 . S
C824 C822 1.415 . S
C824 C829 1.425 1_556 S
C824 C831 1.409 1_556 S
C825 H817 0.930 . S
C825 C823 1.419 . S
C825 C826 1.362 . S
C826 H818 0.930 . S
C826 C825 1.362 . S
C826 C829 1.409 1_556 S
C827 H819 0.930 . S
C827 C828 1.355 . S
C827 C829 1.415 . S
C828 C827 1.355 . S
C828 C830 1.419 . S
C829 C824 1.425 1_554 S
C829 C826 1.409 1_554 S
C829 C827 1.415 . S
C830 H820 0.930 . S
C830 C828 1.419 . S
C830 C831 1.362 . S
C831 H821 0.930 . S
C831 C824 1.409 1_554 S
C831 C830 1.362 . S
H832 C838 0.930 . S
H833 C841 0.930 . S
H834 C842 0.930 . S
H835 C843 0.930 . S
H836 C846 0.930 . S
H837 C847 0.930 . S
C838 H832 0.930 . S
C838 C839 1.355 . S
C838 C840 1.415 . S
C839 C838 1.355 . S
C839 C841 1.419 . S
C840 C838 1.415 . S
C840 C845 1.425 . S
C840 C847 1.409 . S
C841 H833 0.930 . S
C841 C839 1.419 . S
C841 C842 1.362 . S
C842 H834 0.930 . S
C842 C841 1.362 . S
C842 C845 1.409 . S
C843 H835 0.930 . S
C843 C844 1.355 . S
C843 C845 1.415 . S
C844 C843 1.355 . S
C844 C846 1.419 . S
C845 C840 1.425 . S
C845 C842 1.409 . S
C845 C843 1.415 . S
C846 H836 0.930 . S
C846 C844 1.419 . S
C846 C847 1.362 . S
C847 H837 0.930 . S
C847 C840 1.409 . S
C847 C846 1.362 . S
H848 C854 0.930 . S
H849 C857 0.930 1_565 S
H850 C858 0.930 1_565 S
H851 C859 0.930 1_565 S
H852 C862 0.930 . S
H853 C863 0.930 . S
C854 H848 0.930 . S
C854 C855 1.355 . S
C854 C856 1.415 . S
C855 C854 1.355 . S
C855 C857 1.419 . S
C856 C854 1.415 . S
C856 C861 1.425 . S
C856 C863 1.409 . S
C857 H849 0.930 1_545 S
C857 C855 1.419 . S
C857 C858 1.362 . S
C858 H850 0.930 1_545 S
C858 C857 1.362 . S
C858 C861 1.409 . S
C859 H851 0.930 1_545 S
C859 C860 1.355 . S
C859 C861 1.415 . S
C860 C859 1.355 . S
C860 C862 1.419 . S
C861 C856 1.425 . S
C861 C858 1.409 . S
C861 C859 1.415 . S
C862 H852 0.930 . S
C862 C860 1.419 . S
C862 C863 1.362 . S
C863 H853 0.930 . S
C863 C856 1.409 . S
C863 C862 1.362 . S
H864 C870 0.930 . S
H865 C873 0.930 . S
H866 C874 0.930 . S
H867 C875 0.930 . S
H868 C878 0.930 . S
H869 C879 0.930 . S
C870 H864 0.930 . S
C870 C871 1.355 . S
C870 C872 1.415 . S
C871 C870 1.355 . S
C871 C873 1.419 . S
C872 C870 1.415 . S
C872 C877 1.425 1_554 S
C872 C879 1.409 1_554 S
C873 H865 0.930 . S
C873 C871 1.419 . S
C873 C874 1.362 . S
C874 H866 0.930 . S
C874 C873 1.362 . S
C874 C877 1.409 1_554 S
C875 H867 0.930 . S
C875 C876 1.355 . S
C875 C877 1.415 . S
C876 C875 1.355 . S
C876 C878 1.419 . S
C877 C872 1.425 1_556 S
C877 C874 1.409 1_556 S
C877 C875 1.415 . S
C878 H868 0.930 . S
C878 C876 1.419 . S
C878 C879 1.362 . S
C879 H869 0.930 . S
C879 C872 1.409 1_556 S
C879 C878 1.362 . S
H880 C886 0.930 . S
H881 C889 0.930 . S
H882 C890 0.930 . S
H883 C891 0.930 . S
H884 C894 0.930 . S
H885 C895 0.930 . S
C886 H880 0.930 . S
C886 C887 1.355 . S
C886 C888 1.415 . S
C887 C886 1.355 . S
C887 C889 1.419 . S
C888 C886 1.415 . S
C888 C893 1.425 1_556 S
C888 C895 1.409 1_556 S
C889 H881 0.930 . S
C889 C887 1.419 . S
C889 C890 1.362 . S
C890 H882 0.930 . S
C890 C889 1.362 . S
C890 C893 1.409 1_556 S
C891 H883 0.930 . S
C891 C892 1.355 . S
C891 C893 1.415 . S
C892 C891 1.355 . S
C892 C894 1.419 . S
C893 C888 1.425 1_554 S
C893 C890 1.409 1_554 S
C893 C891 1.415 . S
C894 H884 0.930 . S
C894 C892 1.419 . S
C894 C895 1.362 . S
C895 H885 0.930 . S
C895 C888 1.409 1_554 S
C895 C894 1.362 . S
H896 C902 0.930 . S
H897 C905 0.930 . S
H898 C906 0.930 . S
H899 C907 0.930 . S
H900 C910 0.930 . S
H901 C911 0.930 . S
C902 H896 0.930 . S
C902 C903 1.355 . S
C902 C904 1.415 . S
C903 C902 1.355 . S
C903 C905 1.419 . S
C904 C902 1.415 . S
C904 C909 1.425 . S
C904 C911 1.409 . S
C905 H897 0.930 . S
C905 C903 1.419 . S
C905 C906 1.362 . S
C906 H898 0.930 . S
C906 C905 1.362 . S
C906 C909 1.409 . S
C907 H899 0.930 . S
C907 C908 1.355 . S
C907 C909 1.415 . S
C908 C907 1.355 . S
C908 C910 1.419 . S
C909 C904 1.425 . S
C909 C906 1.409 . S
C909 C907 1.415 . S
C910 H900 0.930 . S
C910 C908 1.419 . S
C910 C911 1.362 . S
C911 H901 0.930 . S
C911 C904 1.409 . S
C911 C910 1.362 . S
H912 C918 0.930 . S
H913 C921 0.930 . S
H914 C922 0.930 . S
H915 C923 0.930 . S
H916 C926 0.930 . S
H917 C927 0.930 . S
C918 H912 0.930 . S
C918 C919 1.355 . S
C918 C920 1.415 . S
C919 C918 1.355 . S
C919 C921 1.419 . S
C920 C918 1.415 . S
C920 C925 1.425 . S
C920 C927 1.409 . S
C921 H913 0.930 . S
C921 C919 1.419 . S
C921 C922 1.362 . S
C922 H914 0.930 . S
C922 C921 1.362 . S
C922 C925 1.409 . S
C923 H915 0.930 . S
C923 C924 1.355 . S
C923 C925 1.415 . S
C924 C923 1.355 . S
C924 C926 1.419 . S
C925 C920 1.425 . S
C925 C922 1.409 . S
C925 C923 1.415 . S
C926 H916 0.930 . S
C926 C924 1.419 . S
C926 C927 1.362 . S
C927 H917 0.930 . S
C927 C920 1.409 . S
C927 C926 1.362 . S
H928 C934 0.930 . S
H929 C937 0.930 . S
H930 C938 0.930 1_455 S
H931 C939 0.930 . S
H932 C942 0.930 . S
H933 C943 0.930 1_655 S
C934 H928 0.930 . S
C934 C935 1.355 1_545 S
C934 C936 1.415 . S
C935 C934 1.355 1_565 S
C935 C937 1.419 . S
C936 C934 1.415 . S
C936 C941 1.425 1_645 S
C936 C943 1.409 1_655 S
C937 H929 0.930 . S
C937 C935 1.419 . S
C937 C938 1.362 . S
C938 H930 0.930 1_655 S
C938 C937 1.362 . S
C938 C941 1.409 1_655 S
C939 H931 0.930 . S
C939 C940 1.355 1_565 S
C939 C941 1.415 . S
C940 C939 1.355 1_545 S
C940 C942 1.419 . S
C941 C936 1.425 1_465 S
C941 C938 1.409 1_455 S
C941 C939 1.415 . S
C942 H932 0.930 . S
C942 C940 1.419 . S
C942 C943 1.362 . S
C943 H933 0.930 1_455 S
C943 C936 1.409 1_455 S
C943 C942 1.362 . S
H944 C950 0.930 1_565 S
H945 C953 0.930 . S
H946 C954 0.930 . S
H947 C955 0.930 1_545 S
H948 C958 0.930 . S
H949 C959 0.930 . S
C950 H944 0.930 1_545 S
C950 C951 1.355 . S
C950 C952 1.415 1_545 S
C951 C950 1.355 . S
C951 C953 1.419 . S
C952 C950 1.415 1_565 S
C952 C957 1.425 1_665 S
C952 C959 1.409 1_655 S
C953 H945 0.930 . S
C953 C951 1.419 . S
C953 C954 1.362 . S
C954 H946 0.930 . S
C954 C953 1.362 . S
C954 C957 1.409 1_655 S
C955 H947 0.930 1_565 S
C955 C956 1.355 . S
C955 C957 1.415 1_565 S
C956 C955 1.355 . S
C956 C958 1.419 . S
C957 C952 1.425 1_445 S
C957 C954 1.409 1_455 S
C957 C955 1.415 1_545 S
C958 H948 0.930 . S
C958 C956 1.419 . S
C958 C959 1.362 . S
C959 H949 0.930 . S
C959 C952 1.409 1_455 S
C959 C958 1.362 . S
H960 C966 0.930 . S
H961 C969 0.930 . S
H962 C970 0.930 . S
H963 C971 0.930 . S
H964 C974 0.930 . S
H965 C975 0.930 . S
C966 H960 0.930 . S
C966 C967 1.355 . S
C966 C968 1.415 1_545 S
C967 C966 1.355 . S
C967 C969 1.419 . S
C968 C966 1.415 1_565 S
C968 C973 1.425 1_465 S
C968 C975 1.409 1_455 S
C969 H961 0.930 . S
C969 C967 1.419 . S
C969 C970 1.362 . S
C970 H962 0.930 . S
C970 C969 1.362 . S
C970 C973 1.409 1_455 S
C971 H963 0.930 . S
C971 C972 1.355 . S
C971 C973 1.415 1_565 S
C972 C971 1.355 . S
C972 C974 1.419 . S
C973 C968 1.425 1_645 S
C973 C970 1.409 1_655 S
C973 C971 1.415 1_545 S
C974 H964 0.930 . S
C974 C972 1.419 . S
C974 C975 1.362 . S
C975 H965 0.930 . S
C975 C968 1.409 1_655 S
C975 C974 1.362 . S
H976 C982 0.930 . S
H977 C985 0.930 . S
H978 C986 0.930 . S
H979 C987 0.930 . S
H980 C990 0.930 . S
H981 C991 0.930 . S
C982 H976 0.930 . S
C982 C983 1.355 . S
C982 C984 1.415 . S
C983 C982 1.355 . S
C983 C985 1.419 1_545 S
C984 C982 1.415 . S
C984 C989 1.425 1_645 S
C984 C991 1.409 1_655 S
C985 H977 0.930 . S
C985 C983 1.419 1_565 S
C985 C986 1.362 . S
C986 H978 0.930 . S
C986 C985 1.362 . S
C986 C989 1.409 1_655 S
C987 H979 0.930 . S
C987 C988 1.355 . S
C987 C989 1.415 . S
C988 C987 1.355 . S
C988 C990 1.419 1_565 S
C989 C984 1.425 1_465 S
C989 C986 1.409 1_455 S
C989 C987 1.415 . S
C990 H980 0.930 . S
C990 C988 1.419 1_545 S
C990 C991 1.362 . S
C991 H981 0.930 . S
C991 C984 1.409 1_455 S
C991 C990 1.362 . S
H992 C998 0.930 . S
H993 C1001 0.930 . S
H994 C1002 0.930 . S
H995 C1003 0.930 . S
H996 C1006 0.930 . S
H997 C1007 0.930 . S
C998 H992 0.930 . S
C998 C999 1.355 . S
C998 C1000 1.415 . S
C999 C998 1.355 . S
C999 C1001 1.419 . S
C1000 C998 1.415 . S
C1000 C1005 1.425 . S
C1000 C1007 1.409 . S
C1001 H993 0.930 . S
C1001 C999 1.419 . S
C1001 C1002 1.362 . S
C1002 H994 0.930 . S
C1002 C1001 1.362 . S
C1002 C1005 1.409 . S
C1003 H995 0.930 . S
C1003 C1004 1.355 . S
C1003 C1005 1.415 . S
C1004 C1003 1.355 . S
C1004 C1006 1.419 . S
C1005 C1000 1.425 . S
C1005 C1002 1.409 . S
C1005 C1003 1.415 . S
C1006 H996 0.930 . S
C1006 C1004 1.419 . S
C1006 C1007 1.362 . S
C1007 H997 0.930 . S
C1007 C1000 1.409 . S
C1007 C1006 1.362 . S
H1008 C1014 0.930 . S
H1009 C1017 0.930 . S
H1010 C1018 0.930 . S
H1011 C1019 0.930 . S
H1012 C1022 0.930 . S
H1013 C1023 0.930 . S
C1014 H1008 0.930 . S
C1014 C1015 1.355 . S
C1014 C1016 1.415 . S
C1015 C1014 1.355 . S
C1015 C1017 1.419 . S
C1016 C1014 1.415 . S
C1016 C1021 1.425 . S
C1016 C1023 1.409 . S
C1017 H1009 0.930 . S
C1017 C1015 1.419 . S
C1017 C1018 1.362 . S
C1018 H1010 0.930 . S
C1018 C1017 1.362 . S
C1018 C1021 1.409 . S
C1019 H1011 0.930 . S
C1019 C1020 1.355 . S
C1019 C1021 1.415 . S
C1020 C1019 1.355 . S
C1020 C1022 1.419 . S
C1021 C1016 1.425 . S
C1021 C1018 1.409 . S
C1021 C1019 1.415 . S
C1022 H1012 0.930 . S
C1022 C1020 1.419 . S
C1022 C1023 1.362 . S
C1023 H1013 0.930 . S
C1023 C1016 1.409 . S
C1023 C1022 1.362 . S
H1024 C1030 0.930 . S
H1025 C1033 0.930 . S
H1026 C1034 0.930 . S
H1027 C1035 0.930 . S
H1028 C1038 0.930 . S
H1029 C1039 0.930 . S
C1030 H1024 0.930 . S
C1030 C1031 1.355 . S
C1030 C1032 1.415 . S
C1031 C1030 1.355 . S
C1031 C1033 1.419 . S
C1032 C1030 1.415 . S
C1032 C1037 1.425 . S
C1032 C1039 1.409 . S
C1033 H1025 0.930 . S
C1033 C1031 1.419 . S
C1033 C1034 1.362 . S
C1034 H1026 0.930 . S
C1034 C1033 1.362 . S
C1034 C1037 1.409 . S
C1035 H1027 0.930 . S
C1035 C1036 1.355 . S
C1035 C1037 1.415 . S
C1036 C1035 1.355 . S
C1036 C1038 1.419 . S
C1037 C1032 1.425 . S
C1037 C1034 1.409 . S
C1037 C1035 1.415 . S
C1038 H1028 0.930 . S
C1038 C1036 1.419 . S
C1038 C1039 1.362 . S
C1039 H1029 0.930 . S
C1039 C1032 1.409 . S
C1039 C1038 1.362 . S
H1040 C1046 0.930 . S
H1041 C1049 0.930 . S
H1042 C1050 0.930 . S
H1043 C1051 0.930 . S
H1044 C1054 0.930 . S
H1045 C1055 0.930 . S
C1046 H1040 0.930 . S
C1046 C1047 1.355 . S
C1046 C1048 1.415 . S
C1047 C1046 1.355 . S
C1047 C1049 1.419 . S
C1048 C1046 1.415 . S
C1048 C1053 1.425 . S
C1048 C1055 1.409 . S
C1049 H1041 0.930 . S
C1049 C1047 1.419 . S
C1049 C1050 1.362 . S
C1050 H1042 0.930 . S
C1050 C1049 1.362 . S
C1050 C1053 1.409 . S
C1051 H1043 0.930 . S
C1051 C1052 1.355 . S
C1051 C1053 1.415 . S
C1052 C1051 1.355 . S
C1052 C1054 1.419 . S
C1053 C1048 1.425 . S
C1053 C1050 1.409 . S
C1053 C1051 1.415 . S
C1054 H1044 0.930 . S
C1054 C1052 1.419 . S
C1054 C1055 1.362 . S
C1055 H1045 0.930 . S
C1055 C1048 1.409 . S
C1055 C1054 1.362 . S
H1056 C1062 0.930 . S
H1057 C1065 0.930 . S
H1058 C1066 0.930 . S
H1059 C1067 0.930 . S
H1060 C1070 0.930 . S
H1061 C1071 0.930 . S
C1062 H1056 0.930 . S
C1062 C1063 1.355 . S
C1062 C1064 1.415 . S
C1063 C1062 1.355 . S
C1063 C1065 1.419 . S
C1064 C1062 1.415 . S
C1064 C1069 1.425 . S
C1064 C1071 1.409 . S
C1065 H1057 0.930 . S
C1065 C1063 1.419 . S
C1065 C1066 1.362 . S
C1066 H1058 0.930 . S
C1066 C1065 1.362 . S
C1066 C1069 1.409 . S
C1067 H1059 0.930 . S
C1067 C1068 1.355 . S
C1067 C1069 1.415 . S
C1068 C1067 1.355 . S
C1068 C1070 1.419 . S
C1069 C1064 1.425 . S
C1069 C1066 1.409 . S
C1069 C1067 1.415 . S
C1070 H1060 0.930 . S
C1070 C1068 1.419 . S
C1070 C1071 1.362 . S
C1071 H1061 0.930 . S
C1071 C1064 1.409 . S
C1071 C1070 1.362 . S
H1072 C1078 0.930 . S
H1073 C1081 0.930 . S
H1074 C1082 0.930 . S
H1075 C1083 0.930 . S
H1076 C1086 0.930 . S
H1077 C1087 0.930 . S
C1078 H1072 0.930 . S
C1078 C1079 1.355 . S
C1078 C1080 1.415 . S
C1079 C1078 1.355 . S
C1079 C1081 1.419 . S
C1080 C1078 1.415 . S
C1080 C1085 1.425 . S
C1080 C1087 1.409 . S
C1081 H1073 0.930 . S
C1081 C1079 1.419 . S
C1081 C1082 1.362 . S
C1082 H1074 0.930 . S
C1082 C1081 1.362 . S
C1082 C1085 1.409 . S
C1083 H1075 0.930 . S
C1083 C1084 1.355 . S
C1083 C1085 1.415 . S
C1084 C1083 1.355 . S
C1084 C1086 1.419 . S
C1085 C1080 1.425 . S
C1085 C1082 1.409 . S
C1085 C1083 1.415 . S
C1086 H1076 0.930 . S
C1086 C1084 1.419 . S
C1086 C1087 1.362 . S
C1087 H1077 0.930 . S
C1087 C1080 1.409 . S
C1087 C1086 1.362 . S
H1088 C1094 0.930 . S
H1089 C1097 0.930 . S
H1090 C1098 0.930 . S
H1091 C1099 0.930 . S
H1092 C1102 0.930 . S
H1093 C1103 0.930 . S
C1094 H1088 0.930 . S
C1094 C1095 1.355 . S
C1094 C1096 1.415 . S
C1095 C1094 1.355 . S
C1095 C1097 1.419 . S
C1096 C1094 1.415 . S
C1096 C1101 1.425 . S
C1096 C1103 1.409 . S
C1097 H1089 0.930 . S
C1097 C1095 1.419 . S
C1097 C1098 1.362 . S
C1098 H1090 0.930 . S
C1098 C1097 1.362 . S
C1098 C1101 1.409 . S
C1099 H1091 0.930 . S
C1099 C1100 1.355 . S
C1099 C1101 1.415 . S
C1100 C1099 1.355 . S
C1100 C1102 1.419 . S
C1101 C1096 1.425 . S
C1101 C1098 1.409 . S
C1101 C1099 1.415 . S
C1102 H1092 0.930 . S
C1102 C1100 1.419 . S
C1102 C1103 1.362 . S
C1103 H1093 0.930 . S
C1103 C1096 1.409 . S
C1103 C1102 1.362 . S
H1104 C1110 0.930 . S
H1105 C1113 0.930 . S
H1106 C1114 0.930 . S
H1107 C1115 0.930 . S
H1108 C1118 0.930 . S
H1109 C1119 0.930 . S
C1110 H1104 0.930 . S
C1110 C1111 1.355 . S
C1110 C1112 1.415 . S
C1111 C1110 1.355 . S
C1111 C1113 1.419 . S
C1112 C1110 1.415 . S
C1112 C1117 1.425 . S
C1112 C1119 1.409 . S
C1113 H1105 0.930 . S
C1113 C1111 1.419 . S
C1113 C1114 1.362 . S
C1114 H1106 0.930 . S
C1114 C1113 1.362 . S
C1114 C1117 1.409 . S
C1115 H1107 0.930 . S
C1115 C1116 1.355 . S
C1115 C1117 1.415 . S
C1116 C1115 1.355 . S
C1116 C1118 1.419 . S
C1117 C1112 1.425 . S
C1117 C1114 1.409 . S
C1117 C1115 1.415 . S
C1118 H1108 0.930 . S
C1118 C1116 1.419 . S
C1118 C1119 1.362 . S
C1119 H1109 0.930 . S
C1119 C1112 1.409 . S
C1119 C1118 1.362 . S
H1120 C1126 0.930 . S
H1121 C1129 0.930 . S
H1122 C1130 0.930 . S
H1123 C1131 0.930 . S
H1124 C1134 0.930 . S
H1125 C1135 0.930 . S
C1126 H1120 0.930 . S
C1126 C1127 1.355 . S
C1126 C1128 1.415 . S
C1127 C1126 1.355 . S
C1127 C1129 1.419 . S
C1128 C1126 1.415 . S
C1128 C1133 1.425 . S
C1128 C1135 1.409 . S
C1129 H1121 0.930 . S
C1129 C1127 1.419 . S
C1129 C1130 1.362 . S
C1130 H1122 0.930 . S
C1130 C1129 1.362 . S
C1130 C1133 1.409 . S
C1131 H1123 0.930 . S
C1131 C1132 1.355 . S
C1131 C1133 1.415 . S
C1132 C1131 1.355 . S
C1132 C1134 1.419 . S
C1133 C1128 1.425 . S
C1133 C1130 1.409 . S
C1133 C1131 1.415 . S
C1134 H1124 0.930 . S
C1134 C1132 1.419 . S
C1134 C1135 1.362 . S
C1135 H1125 0.930 . S
C1135 C1128 1.409 . S
C1135 C1134 1.362 . S
H1136 C1142 0.930 . S
H1137 C1145 0.930 . S
H1138 C1146 0.930 . S
H1139 C1147 0.930 . S
H1140 C1150 0.930 . S
H1141 C1151 0.930 . S
C1142 H1136 0.930 . S
C1142 C1143 1.355 . S
C1142 C1144 1.415 . S
C1143 C1142 1.355 . S
C1143 C1145 1.419 . S
C1144 C1142 1.415 . S
C1144 C1149 1.425 . S
C1144 C1151 1.409 . S
C1145 H1137 0.930 . S
C1145 C1143 1.419 . S
C1145 C1146 1.362 . S
C1146 H1138 0.930 . S
C1146 C1145 1.362 . S
C1146 C1149 1.409 . S
C1147 H1139 0.930 . S
C1147 C1148 1.355 . S
C1147 C1149 1.415 . S
C1148 C1147 1.355 . S
C1148 C1150 1.419 . S
C1149 C1144 1.425 . S
C1149 C1146 1.409 . S
C1149 C1147 1.415 . S
C1150 H1140 0.930 . S
C1150 C1148 1.419 . S
C1150 C1151 1.362 . S
C1151 H1141 0.930 . S
C1151 C1144 1.409 . S
C1151 C1150 1.362 . S
H1152 C1158 0.930 . S
H1153 C1161 0.930 . S
H1154 C1162 0.930 . S
H1155 C1163 0.930 . S
H1156 C1166 0.930 . S
H1157 C1167 0.930 . S
C1158 H1152 0.930 . S
C1158 C1159 1.355 . S
C1158 C1160 1.415 . S
C1159 C1158 1.355 . S
C1159 C1161 1.419 . S
C1160 C1158 1.415 . S
C1160 C1165 1.425 . S
C1160 C1167 1.409 . S
C1161 H1153 0.930 . S
C1161 C1159 1.419 . S
C1161 C1162 1.362 . S
C1162 H1154 0.930 . S
C1162 C1161 1.362 . S
C1162 C1165 1.409 . S
C1163 H1155 0.930 . S
C1163 C1164 1.355 . S
C1163 C1165 1.415 . S
C1164 C1163 1.355 . S
C1164 C1166 1.419 . S
C1165 C1160 1.425 . S
C1165 C1162 1.409 . S
C1165 C1163 1.415 . S
C1166 H1156 0.930 . S
C1166 C1164 1.419 . S
C1166 C1167 1.362 . S
C1167 H1157 0.930 . S
C1167 C1160 1.409 . S
C1167 C1166 1.362 . S
H1168 C1174 0.930 . S
H1169 C1177 0.930 . S
H1170 C1178 0.930 . S
H1171 C1179 0.930 . S
H1172 C1182 0.930 . S
H1173 C1183 0.930 . S
C1174 H1168 0.930 . S
C1174 C1175 1.355 . S
C1174 C1176 1.415 . S
C1175 C1174 1.355 . S
C1175 C1177 1.419 . S
C1176 C1174 1.415 . S
C1176 C1181 1.425 . S
C1176 C1183 1.409 . S
C1177 H1169 0.930 . S
C1177 C1175 1.419 . S
C1177 C1178 1.362 . S
C1178 H1170 0.930 . S
C1178 C1177 1.362 . S
C1178 C1181 1.409 . S
C1179 H1171 0.930 . S
C1179 C1180 1.355 . S
C1179 C1181 1.415 . S
C1180 C1179 1.355 . S
C1180 C1182 1.419 . S
C1181 C1176 1.425 . S
C1181 C1178 1.409 . S
C1181 C1179 1.415 . S
C1182 H1172 0.930 . S
C1182 C1180 1.419 . S
C1182 C1183 1.362 . S
C1183 H1173 0.930 . S
C1183 C1176 1.409 . S
C1183 C1182 1.362 . S
H1184 C1190 0.930 . S
H1185 C1193 0.930 . S
H1186 C1194 0.930 . S
H1187 C1195 0.930 . S
H1188 C1198 0.930 . S
H1189 C1199 0.930 . S
C1190 H1184 0.930 . S
C1190 C1191 1.355 . S
C1190 C1192 1.415 1_565 S
C1191 C1190 1.355 . S
C1191 C1193 1.419 . S
C1192 C1190 1.415 1_545 S
C1192 C1197 1.425 . S
C1192 C1199 1.409 . S
C1193 H1185 0.930 . S
C1193 C1191 1.419 . S
C1193 C1194 1.362 1_565 S
C1194 H1186 0.930 . S
C1194 C1193 1.362 1_545 S
C1194 C1197 1.409 . S
C1195 H1187 0.930 . S
C1195 C1196 1.355 . S
C1195 C1197 1.415 . S
C1196 C1195 1.355 . S
C1196 C1198 1.419 . S
C1197 C1192 1.425 . S
C1197 C1194 1.409 . S
C1197 C1195 1.415 . S
C1198 H1188 0.930 . S
C1198 C1196 1.419 . S
C1198 C1199 1.362 . S
C1199 H1189 0.930 . S
C1199 C1192 1.409 . S
C1199 C1198 1.362 . S
H1200 C1206 0.930 . S
H1201 C1209 0.930 . S
H1202 C1210 0.930 . S
H1203 C1211 0.930 . S
H1204 C1214 0.930 . S
H1205 C1215 0.930 . S
C1206 H1200 0.930 . S
C1206 C1207 1.355 . S
C1206 C1208 1.415 . S
C1207 C1206 1.355 . S
C1207 C1209 1.419 . S
C1208 C1206 1.415 . S
C1208 C1213 1.425 . S
C1208 C1215 1.409 . S
C1209 H1201 0.930 . S
C1209 C1207 1.419 . S
C1209 C1210 1.362 . S
C1210 H1202 0.930 . S
C1210 C1209 1.362 . S
C1210 C1213 1.409 . S
C1211 H1203 0.930 . S
C1211 C1212 1.355 . S
C1211 C1213 1.415 1_545 S
C1212 C1211 1.355 . S
C1212 C1214 1.419 . S
C1213 C1208 1.425 . S
C1213 C1210 1.409 . S
C1213 C1211 1.415 1_565 S
C1214 H1204 0.930 . S
C1214 C1212 1.419 . S
C1214 C1215 1.362 1_545 S
C1215 H1205 0.930 . S
C1215 C1208 1.409 . S
C1215 C1214 1.362 1_565 S
H1216 C1222 0.930 . S
H1217 C1225 0.930 . S
H1218 C1226 0.930 . S
H1219 C1227 0.930 . S
H1220 C1230 0.930 . S
H1221 C1231 0.930 . S
C1222 H1216 0.930 . S
C1222 C1223 1.355 . S
C1222 C1224 1.415 1_545 S
C1223 C1222 1.355 . S
C1223 C1225 1.419 . S
C1224 C1222 1.415 1_565 S
C1224 C1229 1.425 . S
C1224 C1231 1.409 . S
C1225 H1217 0.930 . S
C1225 C1223 1.419 . S
C1225 C1226 1.362 1_545 S
C1226 H1218 0.930 . S
C1226 C1225 1.362 1_565 S
C1226 C1229 1.409 . S
C1227 H1219 0.930 . S
C1227 C1228 1.355 . S
C1227 C1229 1.415 . S
C1228 C1227 1.355 . S
C1228 C1230 1.419 . S
C1229 C1224 1.425 . S
C1229 C1226 1.409 . S
C1229 C1227 1.415 . S
C1230 H1220 0.930 . S
C1230 C1228 1.419 . S
C1230 C1231 1.362 . S
C1231 H1221 0.930 . S
C1231 C1224 1.409 . S
C1231 C1230 1.362 . S
H1232 C1238 0.930 . S
H1233 C1241 0.930 . S
H1234 C1242 0.930 . S
H1235 C1243 0.930 . S
H1236 C1246 0.930 . S
H1237 C1247 0.930 . S
C1238 H1232 0.930 . S
C1238 C1239 1.355 . S
C1238 C1240 1.415 1_565 S
C1239 C1238 1.355 . S
C1239 C1241 1.419 . S
C1240 C1238 1.415 1_545 S
C1240 C1245 1.425 . S
C1240 C1247 1.409 . S
C1241 H1233 0.930 . S
C1241 C1239 1.419 . S
C1241 C1242 1.362 1_565 S
C1242 H1234 0.930 . S
C1242 C1241 1.362 1_545 S
C1242 C1245 1.409 . S
C1243 H1235 0.930 . S
C1243 C1244 1.355 . S
C1243 C1245 1.415 . S
C1244 C1243 1.355 . S
C1244 C1246 1.419 . S
C1245 C1240 1.425 . S
C1245 C1242 1.409 . S
C1245 C1243 1.415 . S
C1246 H1236 0.930 . S
C1246 C1244 1.419 . S
C1246 C1247 1.362 . S
C1247 H1237 0.930 . S
C1247 C1240 1.409 . S
C1247 C1246 1.362 . S
H1248 C1254 0.930 . S
H1249 C1257 0.930 . S
H1250 C1258 0.930 . S
H1251 C1259 0.930 . S
H1252 C1262 0.930 . S
H1253 C1263 0.930 . S
C1254 H1248 0.930 . S
C1254 C1255 1.355 . S
C1254 C1256 1.415 . S
C1255 C1254 1.355 . S
C1255 C1257 1.419 . S
C1256 C1254 1.415 . S
C1256 C1261 1.425 . S
C1256 C1263 1.409 . S
C1257 H1249 0.930 . S
C1257 C1255 1.419 . S
C1257 C1258 1.362 . S
C1258 H1250 0.930 . S
C1258 C1257 1.362 . S
C1258 C1261 1.409 . S
C1259 H1251 0.930 . S
C1259 C1260 1.355 . S
C1259 C1261 1.415 1_545 S
C1260 C1259 1.355 . S
C1260 C1262 1.419 . S
C1261 C1256 1.425 . S
C1261 C1258 1.409 . S
C1261 C1259 1.415 1_565 S
C1262 H1252 0.930 . S
C1262 C1260 1.419 . S
C1262 C1263 1.362 1_545 S
C1263 H1253 0.930 . S
C1263 C1256 1.409 . S
C1263 C1262 1.362 1_565 S
H1264 C1270 0.930 . S
H1265 C1273 0.930 . S
H1266 C1274 0.930 . S
H1267 C1275 0.930 . S
H1268 C1278 0.930 . S
H1269 C1279 0.930 . S
C1270 H1264 0.930 . S
C1270 C1271 1.355 . S
C1270 C1272 1.415 . S
C1271 C1270 1.355 . S
C1271 C1273 1.419 . S
C1272 C1270 1.415 . S
C1272 C1277 1.425 . S
C1272 C1279 1.409 . S
C1273 H1265 0.930 . S
C1273 C1271 1.419 . S
C1273 C1274 1.362 . S
C1274 H1266 0.930 . S
C1274 C1273 1.362 . S
C1274 C1277 1.409 . S
C1275 H1267 0.930 . S
C1275 C1276 1.355 . S
C1275 C1277 1.415 1_565 S
C1276 C1275 1.355 . S
C1276 C1278 1.419 . S
C1277 C1272 1.425 . S
C1277 C1274 1.409 . S
C1277 C1275 1.415 1_545 S
C1278 H1268 0.930 . S
C1278 C1276 1.419 . S
C1278 C1279 1.362 1_565 S
C1279 H1269 0.930 . S
C1279 C1272 1.409 . S
C1279 C1278 1.362 1_545 S
H1280 C1286 0.930 . S
H1281 C1289 0.930 . S
H1282 C1290 0.930 . S
H1283 C1291 0.930 . S
H1284 C1294 0.930 . S
H1285 C1295 0.930 . S
C1286 H1280 0.930 . S
C1286 C1287 1.355 . S
C1286 C1288 1.415 1_565 S
C1287 C1286 1.355 . S
C1287 C1289 1.419 . S
C1288 C1286 1.415 1_545 S
C1288 C1293 1.425 . S
C1288 C1295 1.409 . S
C1289 H1281 0.930 . S
C1289 C1287 1.419 . S
C1289 C1290 1.362 1_565 S
C1290 H1282 0.930 . S
C1290 C1289 1.362 1_545 S
C1290 C1293 1.409 . S
C1291 H1283 0.930 . S
C1291 C1292 1.355 . S
C1291 C1293 1.415 . S
C1292 C1291 1.355 . S
C1292 C1294 1.419 . S
C1293 C1288 1.425 . S
C1293 C1290 1.409 . S
C1293 C1291 1.415 . S
C1294 H1284 0.930 . S
C1294 C1292 1.419 . S
C1294 C1295 1.362 . S
C1295 H1285 0.930 . S
C1295 C1288 1.409 . S
C1295 C1294 1.362 . S
H1296 C1302 0.930 . S
H1297 C1305 0.930 . S
H1298 C1306 0.930 . S
H1299 C1307 0.930 . S
H1300 C1310 0.930 . S
H1301 C1311 0.930 . S
C1302 H1296 0.930 . S
C1302 C1303 1.355 . S
C1302 C1304 1.415 . S
C1303 C1302 1.355 . S
C1303 C1305 1.419 . S
C1304 C1302 1.415 . S
C1304 C1309 1.425 . S
C1304 C1311 1.409 . S
C1305 H1297 0.930 . S
C1305 C1303 1.419 . S
C1305 C1306 1.362 . S
C1306 H1298 0.930 . S
C1306 C1305 1.362 . S
C1306 C1309 1.409 . S
C1307 H1299 0.930 . S
C1307 C1308 1.355 . S
C1307 C1309 1.415 1_545 S
C1308 C1307 1.355 . S
C1308 C1310 1.419 . S
C1309 C1304 1.425 . S
C1309 C1306 1.409 . S
C1309 C1307 1.415 1_565 S
C1310 H1300 0.930 . S
C1310 C1308 1.419 . S
C1310 C1311 1.362 1_545 S
C1311 H1301 0.930 . S
C1311 C1304 1.409 . S
C1311 C1310 1.362 1_565 S
C551 C8 1.546 . S
C556 C314 1.554 . S
C567 C42 1.546 . S
C572 C280 1.542 . S
C583 C382 1.559 . S
C588 C76 1.562 . S
C599 C110 1.553 . S
C604 C348 1.560 . S
C615 C459 1.541 . S
C620 C153 1.545 . S
C631 C425 1.558 . S
C636 C187 1.562 . S
C647 C527 1.562 . S
C652 C221 1.561 . S
C663 C255 1.561 . S
C668 C493 1.555 . S
C679 C81 1.549 . S
C684 C13 1.551 . S
C695 C115 1.542 . S
C700 C47 1.541 . S
C711 C208 1.541 . S
C716 C140 1.543 . S
C727 C174 1.541 . S
C732 C242 1.542 . S
C743 C353 1.552 . S
C748 C285 1.552 . S
C759 C387 1.542 . S
C764 C319 1.543 . S
C775 C412 1.543 . S
C780 C480 1.545 . S
C791 C446 1.541 . S
C796 C514 1.542 . S
C807 C183 1.520 . S
C812 C4 1.510 . S
C823 C149 1.520 . S
C828 C38 1.510 . S
C839 C72 1.509 . S
C844 C251 1.521 . S
C855 C217 1.506 . S
C860 C106 1.524 . S
C871 C276 1.526 . S
C876 C455 1.504 . S
C887 C421 1.504 . S
C892 C310 1.525 . S
C903 C344 1.505 . S
C908 C523 1.525 . S
C919 C489 1.510 . S
C924 C378 1.520 . S
C935 C51 1.501 . S
C940 C17 1.494 . S
C951 C119 1.495 . S
C956 C85 1.501 . S
C967 C178 1.502 . S
C972 C144 1.495 . S
C983 C212 1.507 . S
C988 C246 1.502 . S
C999 C323 1.506 . S
C1004 C289 1.503 . S
C1015 C391 1.495 . S
C1020 C357 1.498 . S
C1031 C416 1.506 . S
C1036 C450 1.504 . S
C1047 C484 1.502 . S
C1052 C518 1.495 . S
C1063 C29 1.307 . S
C1068 C0 1.307 . S
C1079 C63 1.302 . S
C1084 C34 1.302 . S
C1095 C97 1.305 . S
C1100 C68 1.305 . S
C1111 C102 1.303 . S
C1116 C131 1.303 . S
C1127 C136 1.306 . S
C1132 C165 1.306 . S
C1143 C199 1.290 . S
C1148 C170 1.290 . S
C1159 C204 1.303 . S
C1164 C233 1.303 . S
C1175 C238 1.306 . S
C1180 C267 1.306 . S
C1191 C272 1.301 . S
C1196 C301 1.301 . S
C1207 C335 1.287 . S
C1212 C306 1.287 . S
C1223 C340 1.291 . S
C1228 C369 1.291 . S
C1239 C374 1.287 . S
C1244 C403 1.287 . S
C1255 C408 1.303 . S
C1260 C437 1.303 . S
C1271 C442 1.289 . S
C1276 C471 1.289 . S
C1287 C505 1.306 . S
C1292 C476 1.306 . S
C1303 C510 1.287 . S
C1308 C539 1.287 . S
