# Generated by pormake.
# Topology whw, (6)-cn, num edge types: 1
# Building blocks:
#     Node 0, Type 0, BuildingBlock: GEDQOX_clean_sbu_0, # of connection points: 6
#     Node 1, Type 0, BuildingBlock: GEDQOX_clean_sbu_0, # of connection points: 6
#     Node 2, Type 0, BuildingBlock: GEDQOX_clean_sbu_0, # of connection points: 6
#     Node 3, Type 0, BuildingBlock: GEDQOX_clean_sbu_0, # of connection points: 6
#     Node 4, Type 0, BuildingBlock: GEDQOX_clean_sbu_0, # of connection points: 6
#     Node 5, Type 0, BuildingBlock: GEDQOX_clean_sbu_0, # of connection points: 6
#     Node 6, Type 0, BuildingBlock: GEDQOX_clean_sbu_0, # of connection points: 6
#     Node 7, Type 0, BuildingBlock: GEDQOX_clean_sbu_0, # of connection points: 6
#     Node 8, Type 0, BuildingBlock: GEDQOX_clean_sbu_0, # of connection points: 6
#     Node 9, Type 0, BuildingBlock: GEDQOX_clean_sbu_0, # of connection points: 6
#     Node 10, Type 0, BuildingBlock: GEDQOX_clean_sbu_0, # of connection points: 6
#     Node 11, Type 0, BuildingBlock: GEDQOX_clean_sbu_0, # of connection points: 6
#     Node 12, Type 0, BuildingBlock: GEDQOX_clean_sbu_0, # of connection points: 6
#     Node 13, Type 0, BuildingBlock: GEDQOX_clean_sbu_0, # of connection points: 6
#     Node 14, Type 0, BuildingBlock: GEDQOX_clean_sbu_0, # of connection points: 6
#     Node 15, Type 0, BuildingBlock: GEDQOX_clean_sbu_0, # of connection points: 6
#     Edge 16, Type (0, 0), BuildingBlock: OJICUG_clean_linker_0, # of connection points: 2
#     Edge 17, Type (0, 0), BuildingBlock: OJICUG_clean_linker_0, # of connection points: 2
#     Edge 18, Type (0, 0), BuildingBlock: OJICUG_clean_linker_0, # of connection points: 2
#     Edge 19, Type (0, 0), BuildingBlock: OJICUG_clean_linker_0, # of connection points: 2
#     Edge 20, Type (0, 0), BuildingBlock: OJICUG_clean_linker_0, # of connection points: 2
#     Edge 21, Type (0, 0), BuildingBlock: OJICUG_clean_linker_0, # of connection points: 2
#     Edge 22, Type (0, 0), BuildingBlock: OJICUG_clean_linker_0, # of connection points: 2
#     Edge 23, Type (0, 0), BuildingBlock: OJICUG_clean_linker_0, # of connection points: 2
#     Edge 24, Type (0, 0), BuildingBlock: OJICUG_clean_linker_0, # of connection points: 2
#     Edge 25, Type (0, 0), BuildingBlock: OJICUG_clean_linker_0, # of connection points: 2
#     Edge 26, Type (0, 0), BuildingBlock: OJICUG_clean_linker_0, # of connection points: 2
#     Edge 27, Type (0, 0), BuildingBlock: OJICUG_clean_linker_0, # of connection points: 2
#     Edge 28, Type (0, 0), BuildingBlock: OJICUG_clean_linker_0, # of connection points: 2
#     Edge 29, Type (0, 0), BuildingBlock: OJICUG_clean_linker_0, # of connection points: 2
#     Edge 30, Type (0, 0), BuildingBlock: OJICUG_clean_linker_0, # of connection points: 2
#     Edge 31, Type (0, 0), BuildingBlock: OJICUG_clean_linker_0, # of connection points: 2
#     Edge 32, Type (0, 0), BuildingBlock: OJICUG_clean_linker_0, # of connection points: 2
#     Edge 33, Type (0, 0), BuildingBlock: OJICUG_clean_linker_0, # of connection points: 2
#     Edge 34, Type (0, 0), BuildingBlock: OJICUG_clean_linker_0, # of connection points: 2
#     Edge 35, Type (0, 0), BuildingBlock: OJICUG_clean_linker_0, # of connection points: 2
#     Edge 36, Type (0, 0), BuildingBlock: OJICUG_clean_linker_0, # of connection points: 2
#     Edge 37, Type (0, 0), BuildingBlock: OJICUG_clean_linker_0, # of connection points: 2
#     Edge 38, Type (0, 0), BuildingBlock: OJICUG_clean_linker_0, # of connection points: 2
#     Edge 39, Type (0, 0), BuildingBlock: OJICUG_clean_linker_0, # of connection points: 2
#     Edge 40, Type (0, 0), BuildingBlock: OJICUG_clean_linker_0, # of connection points: 2
#     Edge 41, Type (0, 0), BuildingBlock: OJICUG_clean_linker_0, # of connection points: 2
#     Edge 42, Type (0, 0), BuildingBlock: OJICUG_clean_linker_0, # of connection points: 2
#     Edge 43, Type (0, 0), BuildingBlock: OJICUG_clean_linker_0, # of connection points: 2
#     Edge 44, Type (0, 0), BuildingBlock: OJICUG_clean_linker_0, # of connection points: 2
#     Edge 45, Type (0, 0), BuildingBlock: OJICUG_clean_linker_0, # of connection points: 2
#     Edge 46, Type (0, 0), BuildingBlock: OJICUG_clean_linker_0, # of connection points: 2
#     Edge 47, Type (0, 0), BuildingBlock: OJICUG_clean_linker_0, # of connection points: 2
#     Edge 48, Type (0, 0), BuildingBlock: OJICUG_clean_linker_0, # of connection points: 2
#     Edge 49, Type (0, 0), BuildingBlock: OJICUG_clean_linker_0, # of connection points: 2
#     Edge 50, Type (0, 0), BuildingBlock: OJICUG_clean_linker_0, # of connection points: 2
#     Edge 51, Type (0, 0), BuildingBlock: OJICUG_clean_linker_0, # of connection points: 2
#     Edge 52, Type (0, 0), BuildingBlock: OJICUG_clean_linker_0, # of connection points: 2
#     Edge 53, Type (0, 0), BuildingBlock: OJICUG_clean_linker_0, # of connection points: 2
#     Edge 54, Type (0, 0), BuildingBlock: OJICUG_clean_linker_0, # of connection points: 2
#     Edge 55, Type (0, 0), BuildingBlock: OJICUG_clean_linker_0, # of connection points: 2
#     Edge 56, Type (0, 0), BuildingBlock: OJICUG_clean_linker_0, # of connection points: 2
#     Edge 57, Type (0, 0), BuildingBlock: OJICUG_clean_linker_0, # of connection points: 2
#     Edge 58, Type (0, 0), BuildingBlock: OJICUG_clean_linker_0, # of connection points: 2
#     Edge 59, Type (0, 0), BuildingBlock: OJICUG_clean_linker_0, # of connection points: 2
#     Edge 60, Type (0, 0), BuildingBlock: OJICUG_clean_linker_0, # of connection points: 2
#     Edge 61, Type (0, 0), BuildingBlock: OJICUG_clean_linker_0, # of connection points: 2
#     Edge 62, Type (0, 0), BuildingBlock: OJICUG_clean_linker_0, # of connection points: 2
#     Edge 63, Type (0, 0), BuildingBlock: OJICUG_clean_linker_0, # of connection points: 2
# Relax obj value: 0.227
# Max RMSD: 0.208
# Mean RMSD: 0.208
data_MOF--net-whw--node1-GEDQOX_clean_sbu_0--edge1-OJICUG_clean_linker_0
_symmetry_space_group_name_H-M    P1
_symmetry_Int_Tables_number       1
_symmetry_cell_setting            triclinic
loop_
_symmetry_equiv_pos_as_xyz
'x, y, z'
_cell_length_a     33.698422
_cell_length_b     33.685212
_cell_length_c     27.893608
_cell_angle_alpha  89.914149
_cell_angle_beta   90.023383
_cell_angle_gamma 90.147618
loop_
_atom_site_label
_atom_site_type_symbol
_atom_site_fract_x
_atom_site_fract_y
_atom_site_fract_z
_atom_type_partial_charge
Nd0 Nd 0.95962 0.09406 0.13639 0.0
Nd1 Nd 0.04272 0.08995 0.18282 0.0
C2 C 0.89833 0.089 0.07741 0.0
C3 C 0.89254 0.09659 1.02587 0.0
C4 C 0.92137 0.08587 0.99184 0.0
C5 C 0.91835 0.09925 0.9444 0.0
C6 C 0.88665 0.12378 0.93052 0.0
C7 C 0.85688 0.13263 0.96413 0.0
C8 C 0.85982 0.11914 1.01131 0.0
C9 C 0.98088 0.16106 0.18585 0.0
C10 C 0.04058 0.11713 0.07282 0.0
C11 C 0.1049 0.09478 0.24084 0.0
C12 C 0.11365 0.10895 0.28993 0.0
C13 C 0.09175 0.13997 0.31047 0.0
C14 C 0.10167 0.15454 0.35594 0.0
C15 C 0.13356 0.13829 0.38207 0.0
C16 C 0.15467 0.10642 0.36193 0.0
C17 C 0.14488 0.09202 0.31623 0.0
C18 C 0.02324 0.02716 0.12384 0.0
C19 C 0.96122 0.0779 0.2486 0.0
O20 O 0.91991 0.05838 0.0896 0.0
O21 O 0.90625 0.12047 0.10298 0.0
O22 O 0.94497 0.14713 0.18416 0.0
O23 O 0.00384 0.14075 0.15988 0.0
O24 O 0.00268 0.1065 0.07357 0.0
O25 O 0.06234 0.11828 0.11223 0.0
O26 O 0.09581 0.12201 0.2091 0.0
O27 O 0.08287 0.06283 0.23708 0.0
O28 O 0.05907 0.04055 0.12949 0.0
O29 O 0.00038 0.0439 0.15356 0.0
O30 O -0.00149 0.09002 0.246 0.0
O31 O 0.9402 0.07036 0.20964 0.0
H32 H 0.94703 0.06859 1.00232 0.0
H33 H 0.94175 0.09205 0.91927 0.0
H34 H 0.83178 0.15093 0.95421 0.0
H35 H 0.8373 0.12774 0.03698 0.0
H36 H 0.06723 0.15325 0.29114 0.0
H37 H 0.08428 0.17861 0.37068 0.0
H38 H 0.17943 0.09332 0.38094 0.0
H39 H 0.1621 0.06798 0.3011 0.0
Nd40 Nd 0.1477 0.70423 0.38848 0.0
Nd41 Nd 0.15314 0.7872 0.43472 0.0
C42 C 0.15146 0.64329 0.32895 0.0
C43 C 0.14229 0.63787 0.2777 0.0
C44 C 0.15104 0.66752 0.24373 0.0
C45 C 0.13688 0.6643 0.19666 0.0
C46 C 0.11352 0.63154 0.18298 0.0
C47 C 0.10635 0.6012 0.21662 0.0
C48 C 0.12059 0.60437 0.26348 0.0
C49 C 0.08089 0.72616 0.43778 0.0
C50 C 0.12553 0.78539 0.32493 0.0
C51 C 0.14881 0.84921 0.493 0.0
C52 C 0.13432 0.85777 0.54201 0.0
C53 C 0.10386 0.83498 0.56268 0.0
C54 C 0.08876 0.84476 0.60792 0.0
C55 C 0.10389 0.87742 0.63372 0.0
C56 C 0.13528 0.89942 0.6135 0.0
C57 C 0.15022 0.88975 0.56801 0.0
C58 C 0.21572 0.76713 0.3758 0.0
C59 C 0.16438 0.70558 0.50045 0.0
O60 O 0.1822 0.66526 0.33983 0.0
O61 O 0.12083 0.65047 0.3562 0.0
O62 O 0.09453 0.69017 0.43644 0.0
O63 O 0.10161 0.74896 0.41182 0.0
O64 O 0.13497 0.74726 0.3258 0.0
O65 O 0.12567 0.80747 0.36405 0.0
O66 O 0.12171 0.84052 0.46097 0.0
O67 O 0.18045 0.8269 0.4894 0.0
O68 O 0.20292 0.80312 0.38149 0.0
O69 O 0.19858 0.74439 0.4055 0.0
O70 O 0.15253 0.7429 0.4978 0.0
O71 O 0.17158 0.68451 0.46151 0.0
H72 H 0.16756 0.69382 0.25393 0.0
H73 H 0.14274 0.68821 0.17162 0.0
H74 H 0.08904 0.57528 0.20693 0.0
H75 H 0.11347 0.58123 0.28913 0.0
H76 H 0.09136 0.80991 0.54356 0.0
H77 H 0.0651 0.8267 0.62271 0.0
H78 H 0.14753 0.92479 0.63222 0.0
H79 H 0.1738 0.90768 0.55278 0.0
Nd80 Nd 0.53233 0.89146 0.63789 0.0
Nd81 Nd 0.44928 0.89472 0.68306 0.0
C82 C 0.59224 0.89595 0.5769 0.0
C83 C 0.59537 0.88169 0.52721 0.0
C84 C 0.57054 0.85085 0.51142 0.0
C85 C 0.57326 0.83676 0.46457 0.0
C86 C 0.60096 0.85313 0.43245 0.0
C87 C 0.62519 0.88473 0.44798 0.0
C88 C 0.62238 0.89891 0.49509 0.0
C89 C 0.51092 0.82315 0.68466 0.0
C90 C 0.45162 0.86826 0.57333 0.0
C91 C 0.38699 0.89009 0.74078 0.0
C92 C 0.37825 0.87541 0.7896 0.0
C93 C 0.40052 0.84451 0.80991 0.0
C94 C 0.39083 0.82957 0.85527 0.0
C95 C 0.35883 0.84537 0.88148 0.0
C96 C 0.33733 0.87713 0.86159 0.0
C97 C 0.34689 0.89189 0.81597 0.0
C98 C 0.46896 0.95857 0.6256 0.0
C99 C 0.5301 0.90569 0.74998 0.0
O100 O 0.56747 0.92508 0.5839 0.0
O101 O 0.58911 0.8683 0.60955 0.0
O102 O 0.54676 0.83724 0.68378 0.0
O103 O 0.48799 0.84402 0.65917 0.0
O104 O 0.48952 0.87865 0.57487 0.0
O105 O 0.42945 0.86704 0.61233 0.0
O106 O 0.39566 0.86314 0.70864 0.0
O107 O 0.40951 0.92172 0.73759 0.0
O108 O 0.43322 0.94479 0.63051 0.0
O109 O 0.49169 0.94158 0.65538 0.0
O110 O 0.4933 0.89236 0.74624 0.0
O111 O 0.55093 0.91538 0.71149 0.0
H112 H 0.54918 0.83734 0.53547 0.0
H113 H 0.55368 0.81291 0.45353 0.0
H114 H 0.64698 0.89778 0.42414 0.0
H115 H 0.64154 0.92296 0.50656 0.0
H116 H 0.42517 0.83163 0.79048 0.0
H117 H 0.40847 0.80559 0.86988 0.0
H118 H 0.31249 0.88987 0.88074 0.0
H119 H 0.32944 0.91586 0.80099 0.0
Nd120 Nd 0.3491 0.27768 0.88862 0.0
Nd121 Nd 0.34567 0.19371 0.93348 0.0
C122 C 0.34393 0.3391 0.82971 0.0
C123 C 0.35299 0.34492 0.77842 0.0
C124 C 0.34348 0.31587 0.74407 0.0
C125 C 0.35758 0.31929 0.69698 0.0
C126 C 0.38165 0.35165 0.6836 0.0
C127 C 0.38953 0.38147 0.71759 0.0
C128 C 0.37534 0.37811 0.76447 0.0
C129 C 0.41692 0.25583 0.93593 0.0
C130 C 0.3717 0.19778 0.82326 0.0
C131 C 0.35176 0.13029 0.98938 0.0
C132 C 0.36524 0.11912 0.03822 0.0
C133 C 0.39288 0.08832 0.04355 0.0
C134 C 0.40671 0.07739 0.08901 0.0
C135 C 0.39311 0.09689 0.13042 0.0
C136 C 0.36485 0.12733 0.12514 0.0
C137 C 0.35113 0.1384 0.07953 0.0
C138 C 0.28216 0.21352 0.87589 0.0
C139 C 0.33417 0.27417 1.00102 0.0
O140 O 0.31363 0.31648 0.84057 0.0
O141 O 0.3747 0.33241 0.85697 0.0
O142 O 0.40301 0.29173 0.93544 0.0
O143 O 0.39605 0.23321 0.91002 0.0
O144 O 0.36159 0.23572 0.82499 0.0
O145 O 0.3726 0.17517 0.86197 0.0
O146 O 0.37934 0.14117 0.95895 0.0
O147 O 0.31924 0.15135 0.9855 0.0
O148 O 0.29562 0.17769 0.88085 0.0
O149 O 0.29924 0.2362 0.90568 0.0
O150 O 0.34644 0.23705 0.9973 0.0
O151 O 0.32587 0.29571 0.96263 0.0
H152 H 0.32644 0.28981 0.75398 0.0
H153 H 0.35114 0.29576 0.67169 0.0
H154 H 0.40737 0.40711 0.70817 0.0
H155 H 0.38304 0.40082 0.79036 0.0
H156 H 0.40401 0.07278 1.01236 0.0
H157 H 0.42813 0.05356 0.09172 0.0
H158 H 0.3541 0.14332 0.15616 0.0
H159 H 0.32979 0.16226 0.07663 0.0
Nd160 Nd 0.95067 0.89752 0.88586 0.0
Nd161 Nd 0.03339 0.8945 0.9317 0.0
C162 C 0.88858 0.8925 0.82779 0.0
C163 C 0.87981 0.87766 0.77908 0.0
C164 C 0.90186 0.84652 0.7591 0.0
C165 C 0.89207 0.83146 0.71386 0.0
C166 C 0.86018 0.84737 0.68744 0.0
C167 C 0.8389 0.87936 0.70701 0.0
C168 C 0.84856 0.89424 0.7525 0.0
C169 C 0.97017 0.96206 0.94201 0.0
C170 C 0.03173 0.9078 0.81933 0.0
C171 C 0.09302 0.8993 0.99314 0.0
C172 C 0.09621 0.88468 0.04274 0.0
C173 C 0.1233 0.90165 0.07492 0.0
C174 C 0.12619 0.88716 0.12193 0.0
C175 C 0.10198 0.85546 0.13733 0.0
C176 C 0.07423 0.83929 0.10513 0.0
C177 C 0.07142 0.85372 0.05838 0.0
C178 C 0.01191 0.82576 0.88594 0.0
C179 C 0.95236 0.87208 0.99608 0.0
O180 O 0.89724 0.86569 0.8602 0.0
O181 O 0.91108 0.92416 0.83074 0.0
O182 O 0.93445 0.94823 0.93711 0.0
O183 O -0.00686 0.94465 0.91292 0.0
O184 O -0.00508 0.89451 0.82303 0.0
O185 O 0.0524 0.91781 0.85783 0.0
O186 O 0.06783 0.92812 0.98626 0.0
O187 O 0.09038 0.87188 0.96023 0.0
O188 O 0.04778 0.83978 0.88676 0.0
O189 O 0.98907 0.8469 0.91108 0.0
O190 O 0.99031 0.88229 0.99465 0.0
O191 O 0.93035 0.87067 0.95694 0.0
H192 H 0.92641 0.83354 0.77868 0.0
H193 H 0.90955 0.8073 0.6995 0.0
H194 H 0.81415 0.89219 0.68771 0.0
H195 H 0.83127 0.9184 0.76722 0.0
H196 H 0.14245 0.92578 0.06357 0.0
H197 H 0.14801 0.90006 0.14582 0.0
H198 H 0.05468 0.81537 0.11607 0.0
H199 H 0.05 0.84041 1.03427 0.0
Nd200 Nd 0.34347 0.69418 0.13562 0.0
Nd201 Nd 0.34743 0.77795 0.18057 0.0
C202 C 0.34946 0.63101 0.07944 0.0
C203 C 0.36316 0.61986 1.03069 0.0
C204 C 0.39077 0.58901 1.02564 0.0
C205 C 0.40475 0.57803 0.9803 0.0
C206 C 0.39137 0.59754 0.93869 0.0
C207 C 0.36315 0.62805 0.9437 0.0
C208 C 0.34925 0.63915 0.98919 0.0
C209 C 0.28038 0.7138 0.19388 0.0
C210 C 0.33144 0.77487 0.06837 0.0
C211 C 0.34282 0.83938 0.23929 0.0
C212 C 0.35149 0.84516 0.29064 0.0
C213 C 0.34234 0.81578 0.32481 0.0
C214 C 0.35612 0.81926 0.37203 0.0
C215 C 0.3795 0.85201 0.38568 0.0
C216 C 0.38702 0.88211 0.35183 0.0
C217 C 0.37316 0.87868 0.30483 0.0
C218 C 0.41475 0.75603 0.13216 0.0
C219 C 0.37016 0.69775 0.24561 0.0
O220 O 0.37692 0.64155 0.11017 0.0
O221 O 0.31705 0.65228 0.08312 0.0
O222 O 0.29368 0.67797 0.18855 0.0
O223 O 0.2973 0.73668 0.1641 0.0
O224 O 0.34368 0.73772 0.07187 0.0
O225 O 0.32361 0.79631 0.10688 0.0
O226 O 0.31225 0.81724 0.22815 0.0
O227 O 0.37373 0.83213 0.21253 0.0
O228 O 0.40085 0.79194 0.13274 0.0
O229 O 0.39411 0.73355 0.15856 0.0
O230 O 0.36007 0.7357 0.2441 0.0
O231 O 0.37085 0.67534 0.20681 0.0
H232 H 0.40174 0.57344 0.05695 0.0
H233 H 0.4261 0.55414 0.97785 0.0
H234 H 0.35255 0.64406 0.91255 0.0
H235 H 0.32793 0.66303 0.99185 0.0
H236 H 0.32583 0.78946 0.31466 0.0
H237 H 0.34998 0.79551 0.3972 0.0
H238 H 0.40435 0.90803 0.36148 0.0
H239 H 0.38059 0.90163 0.27905 0.0
Nd240 Nd 0.54345 0.08453 0.38506 0.0
Nd241 Nd 0.46041 0.08896 0.43009 0.0
C242 C 0.606 0.08894 0.32765 0.0
C243 C 0.61528 0.10322 0.27876 0.0
C244 C 0.59444 0.13515 0.25851 0.0
C245 C 0.60493 0.14985 0.21329 0.0
C246 C 0.63632 0.13282 0.18712 0.0
C247 C 0.6563 0.10002 0.20687 0.0
C248 C 0.64595 0.08549 0.25237 0.0
C249 C 0.5232 0.02121 0.44288 0.0
C250 C 0.4626 0.07258 0.31851 0.0
C251 C 0.40022 0.08533 0.49066 0.0
C252 C 0.39668 0.10076 0.53977 0.0
C253 C 0.42016 0.13309 0.55418 0.0
C254 C 0.41778 0.14757 0.60088 0.0
C255 C 0.39183 0.13007 0.63423 0.0
C256 C 0.36875 0.09722 0.61994 0.0
C257 C 0.37121 0.08267 0.573 0.0
C258 C 0.48286 0.15682 0.38269 0.0
C259 C 0.54103 0.11147 0.49495 0.0
O260 O 0.59703 0.11612 0.35939 0.0
O261 O 0.58356 0.05726 0.33102 0.0
O262 O 0.55911 0.03449 0.43772 0.0
O263 O 0.50052 0.03831 0.41312 0.0
O264 O 0.4995 0.08574 0.32165 0.0
O265 O 0.44169 0.06399 0.35726 0.0
O266 O 0.4254 0.05634 0.48503 0.0
O267 O 0.40315 0.11214 0.45695 0.0
O268 O 0.44688 0.14304 0.38335 0.0
O269 O 0.50527 0.13578 0.4086 0.0
O270 O 0.50283 0.10231 0.49323 0.0
O271 O 0.56354 0.11142 0.45618 0.0
H272 H 0.57034 0.14905 0.2779 0.0
H273 H 0.58843 0.17467 0.19878 0.0
H274 H 0.68062 0.08631 0.18774 0.0
H275 H 0.66232 0.06074 0.26728 0.0
H276 H 0.44049 0.14716 0.5293 0.0
H277 H 0.4365 0.17239 0.61094 0.0
H278 H 0.34827 0.08328 0.64473 0.0
H279 H 0.35316 0.05744 0.56261 0.0
Nd280 Nd 0.15318 0.28782 0.63726 0.0
Nd281 Nd 0.14909 0.20405 0.6817 0.0
C282 C 0.14839 0.35064 0.58019 0.0
C283 C 0.13386 0.35994 0.53137 0.0
C284 C 0.10142 0.33945 0.51163 0.0
C285 C 0.08675 0.34982 0.46635 0.0
C286 C 0.10431 0.38072 0.43957 0.0
C287 C 0.13754 0.40039 0.45888 0.0
C288 C 0.15205 0.39018 0.50443 0.0
C289 C 0.21657 0.26769 0.69476 0.0
C290 C 0.16355 0.20745 0.5693 0.0
C291 C 0.15363 0.14256 0.74051 0.0
C292 C 0.14425 0.13694 0.79176 0.0
C293 C 0.15547 0.16513 0.82643 0.0
C294 C 0.14109 0.16227 0.87344 0.0
C295 C 0.11499 0.13142 0.88638 0.0
C296 C 0.10531 0.10238 0.85209 0.0
C297 C 0.11984 0.10511 0.80532 0.0
C298 C 0.08156 0.22631 0.63395 0.0
C299 C 0.12676 0.28401 0.74733 0.0
O300 O 0.12143 0.34142 0.61221 0.0
O301 O 0.18014 0.32842 0.58324 0.0
O302 O 0.2033 0.30357 0.68979 0.0
O303 O 0.19943 0.24501 0.66501 0.0
O304 O 0.15138 0.24456 0.57336 0.0
O305 O 0.17206 0.18583 0.60756 0.0
O306 O 0.18417 0.16489 0.72976 0.0
O307 O 0.12304 0.14944 0.71303 0.0
O308 O 0.09536 0.19037 0.63438 0.0
O309 O 0.10233 0.2487 0.66027 0.0
O310 O 0.1367 0.24602 0.74547 0.0
O311 O 0.12603 0.30666 0.70861 0.0
H312 H 0.08715 0.31568 0.53141 0.0
H313 H 0.06159 0.33352 0.45223 0.0
H314 H 0.15169 0.42435 0.43934 0.0
H315 H 0.17721 0.40627 0.5189 0.0
H316 H 0.17406 0.19019 0.81683 0.0
H317 H 0.14893 0.18516 0.89901 0.0
H318 H 0.08581 0.07789 0.86121 0.0
H319 H 0.11078 0.0831 0.7792 0.0
Nd320 Nd 0.84429 0.19693 0.6346 0.0
Nd321 Nd 0.84866 0.27948 0.68171 0.0
C322 C 0.84937 0.13453 0.57708 0.0
C323 C 0.86273 0.12366 0.52817 0.0
C324 C 0.88915 0.09186 0.52258 0.0
C325 C 0.90304 0.08121 0.47712 0.0
C326 C 0.89069 0.102 0.43597 0.0
C327 C 0.86357 0.13342 0.44148 0.0
C328 C 0.84981 0.14422 0.48712 0.0
C329 C 0.78153 0.21557 0.69393 0.0
C330 C 0.83151 0.279 0.57003 0.0
C331 C 0.84495 0.33841 0.74402 0.0
C332 C 0.85909 0.341 0.79385 0.0
C333 C 0.8909 0.31727 0.80905 0.0
C334 C 0.90486 0.3197 0.85603 0.0
C335 C 0.88728 0.34589 0.88888 0.0
C336 C 0.85467 0.36886 0.87397 0.0
C337 C 0.8407 0.36643 0.82673 0.0
C338 C 0.91608 0.25834 0.63305 0.0
C339 C 0.87201 0.19792 0.74419 0.0
O340 O 0.87713 0.14446 0.6077 0.0
O341 O 0.81725 0.15614 0.58126 0.0
O342 O 0.795 0.17989 0.68783 0.0
O343 O 0.79818 0.23892 0.66445 0.0
O344 O 0.84413 0.24187 0.57203 0.0
O345 O 0.82367 0.29939 0.60936 0.0
O346 O 0.81552 0.31393 0.7365 0.0
O347 O 0.87259 0.33557 0.71139 0.0
O348 O 0.90237 0.29427 0.6348 0.0
O349 O 0.89528 0.23539 0.65865 0.0
O350 O 0.86216 0.23592 0.74357 0.0
O351 O 0.87231 0.17623 0.70481 0.0
H352 H 0.89932 0.07534 0.55358 0.0
H353 H 0.92354 0.05662 0.47419 0.0
H354 H 0.8538 0.15036 0.41065 0.0
H355 H 0.82942 0.16887 0.49027 0.0
H356 H 0.90521 0.29697 0.78446 0.0
H357 H 0.92956 0.30111 0.86662 0.0
H358 H 0.84067 0.38947 0.89843 0.0
H359 H 0.81586 0.38467 0.81574 0.0
Nd360 Nd 0.65202 0.78555 0.1351 0.0
Nd361 Nd 0.64731 0.70256 0.18183 0.0
C362 C 0.64703 0.84753 0.07664 0.0
C363 C 0.63244 0.85611 1.02766 0.0
C364 C 0.6018 0.83346 1.00719 0.0
C365 C 0.58666 0.84327 0.96194 0.0
C366 C 0.60193 0.87582 0.93594 0.0
C367 C 0.63347 0.89768 0.95598 0.0
C368 C 0.64845 0.88799 1.00147 0.0
C369 C 0.71485 0.76631 0.19397 0.0
C370 C 0.66381 0.70388 0.06982 0.0
C371 C 0.65142 0.64187 0.24195 0.0
C372 C 0.6419 0.63646 0.29315 0.0
C373 C 0.6506 0.66599 0.3272 0.0
C374 C 0.6363 0.66267 0.37421 0.0
C375 C 0.61285 0.62992 0.38778 0.0
C376 C 0.60566 0.59973 0.35405 0.0
C377 C 0.62004 0.60299 0.30726 0.0
C378 C 0.5803 0.72415 0.1324 0.0
C379 C 0.62464 0.78364 0.24493 0.0
O380 O 0.62003 0.83854 0.1087 0.0
O381 O 0.67887 0.82548 0.08022 0.0
O382 O 0.70177 0.80216 0.18788 0.0
O383 O 0.69787 0.74315 0.16466 0.0
O384 O 0.65174 0.74113 0.07227 0.0
O385 O 0.67124 0.68291 0.10888 0.0
O386 O 0.68196 0.66423 0.23127 0.0
O387 O 0.62094 0.6485 0.21421 0.0
O388 O 0.59406 0.68821 0.13392 0.0
O389 O 0.60092 0.74691 0.15843 0.0
O390 O 0.6343 0.74557 0.24422 0.0
O391 O 0.62459 0.8057 0.20573 0.0
H392 H 0.58922 0.80847 1.02646 0.0
H393 H 0.56288 0.82532 0.94728 0.0
H394 H 0.64582 0.92296 0.9371 0.0
H395 H 0.67216 0.9058 1.01656 0.0
H396 H 0.66724 0.69227 0.31711 0.0
H397 H 0.64218 0.68649 0.39929 0.0
H398 H 0.58827 0.57382 0.36365 0.0
H399 H 0.61295 0.57993 0.28158 0.0
Nd400 Nd 0.65061 0.20232 0.88932 0.0
Nd401 Nd 0.6543 0.28542 0.93567 0.0
C402 C 0.65512 0.14318 0.82729 0.0
C403 C 0.63956 0.13952 0.7781 0.0
C404 C 0.60545 0.16059 0.76451 0.0
C405 C 0.59071 0.15775 0.71787 0.0
C406 C 0.60981 0.13387 0.68368 0.0
C407 C 0.64449 0.11342 0.69709 0.0
C408 C 0.65923 0.11623 0.74399 0.0
C409 C 0.58251 0.22358 0.93634 0.0
C410 C 0.62701 0.28339 0.82591 0.0
C411 C 0.64839 0.34783 0.99309 0.0
C412 C 0.63422 0.35873 0.04174 0.0
C413 C 0.60601 0.38907 0.04652 0.0
C414 C 0.59168 0.39994 0.09172 0.0
C415 C 0.60531 0.38084 0.13349 0.0
C416 C 0.63412 0.35086 0.12877 0.0
C417 C 0.64836 0.33985 0.0834 0.0
C418 C 0.71769 0.26636 0.87747 0.0
C419 C 0.6663 0.20396 1.00128 0.0
O420 O 0.68351 0.16914 0.8332 0.0
O421 O 0.62852 0.14484 0.8613 0.0
O422 O 0.59613 0.18761 0.93481 0.0
O423 O 0.60368 0.2466 0.91125 0.0
O424 O 0.63628 0.24523 0.82705 0.0
O425 O 0.62726 0.30562 0.86484 0.0
O426 O 0.62119 0.33804 0.96168 0.0
O427 O 0.68055 0.32618 0.98963 0.0
O428 O 0.70429 0.30211 0.88325 0.0
O429 O 0.70072 0.24326 0.90698 0.0
O430 O 0.6532 0.24084 0.99828 0.0
O431 O 0.67515 0.18329 0.96245 0.0
H432 H 0.59016 0.17936 0.78999 0.0
H433 H 0.5644 0.17446 0.70851 0.0
H434 H 0.65974 0.0946 0.67165 0.0
H435 H 0.68583 0.1001 0.75367 0.0
H436 H 0.59487 0.40436 1.01509 0.0
H437 H 0.56988 0.42343 0.09396 0.0
H438 H 0.64494 0.3352 0.16007 0.0
H439 H 0.67016 0.31638 0.08097 0.0
Nd440 Nd 0.8477 0.7793 0.38879 0.0
Nd441 Nd 0.84425 0.6956 0.43444 0.0
C442 C 0.84258 0.84058 0.32961 0.0
C443 C 0.85165 0.84663 0.27837 0.0
C444 C 0.84305 0.81735 0.24397 0.0
C445 C 0.85699 0.82131 0.19687 0.0
C446 C 0.87998 0.85446 0.18353 0.0
C447 C 0.88701 0.88441 0.21762 0.0
C448 C 0.873 0.8805 0.26452 0.0
C449 C 0.91532 0.75795 0.43695 0.0
C450 C 0.87079 0.69908 0.32437 0.0
C451 C 0.85046 0.63253 0.49093 0.0
C452 C 0.86422 0.62145 0.53972 0.0
C453 C 0.85035 0.64081 0.5811 0.0
C454 C 0.86428 0.62977 0.62664 0.0
C455 C 0.8925 0.59927 0.6318 0.0
C456 C 0.90586 0.5797 0.59031 0.0
C457 C 0.89183 0.59061 0.54492 0.0
C458 C 0.78096 0.71479 0.3761 0.0
C459 C 0.83218 0.77641 0.50112 0.0
O460 O 0.81234 0.81784 0.34032 0.0
O461 O 0.87333 0.83392 0.3569 0.0
O462 O 0.90132 0.7938 0.43597 0.0
O463 O 0.89465 0.73511 0.41107 0.0
O464 O 0.86062 0.73701 0.32563 0.0
O465 O 0.87156 0.67673 0.3633 0.0
O466 O 0.87788 0.64312 0.46016 0.0
O467 O 0.818 0.6537 0.48717 0.0
O468 O 0.79444 0.67904 0.3817 0.0
O469 O 0.79783 0.73777 0.40574 0.0
O470 O 0.84458 0.73931 0.49784 0.0
O471 O 0.82403 0.7977 0.46247 0.0
H472 H 0.82679 0.79078 0.25384 0.0
H473 H 0.85124 0.79766 0.17151 0.0
H474 H 0.90403 0.91062 0.20824 0.0
H475 H 0.88 0.90339 0.29046 0.0
H476 H 0.82902 0.66469 0.57831 0.0
H477 H 0.85371 0.64582 0.6577 0.0
H478 H 0.92721 0.55581 0.59289 0.0
H479 H 0.90277 0.57499 0.51369 0.0
Nd480 Nd 0.45955 0.58883 0.63909 0.0
Nd481 Nd 0.54264 0.58631 0.68496 0.0
C482 C 0.39989 0.5841 0.57779 0.0
C483 C 0.39673 0.59914 0.52841 0.0
C484 C 0.37052 0.58166 0.49558 0.0
C485 C 0.36795 0.59631 0.44862 0.0
C486 C 0.3916 0.62865 0.43395 0.0
C487 C 0.41839 0.64543 0.46684 0.0
C488 C 0.4209 0.63085 0.51354 0.0
C489 C 0.48033 0.65715 0.68608 0.0
C490 C 0.54004 0.61295 0.57489 0.0
C491 C 0.60569 0.5927 0.74137 0.0
C492 C 0.61691 0.60605 0.79018 0.0
C493 C 0.64845 0.63297 0.79554 0.0
C494 C 0.65945 0.64674 0.84096 0.0
C495 C 0.63925 0.63381 0.8823 0.0
C496 C 0.60806 0.60624 0.87699 0.0
C497 C 0.59694 0.59256 0.8314 0.0
C498 C 0.52393 0.52263 0.6269 0.0
C499 C 0.46163 0.57282 0.75109 0.0
O500 O 0.42523 0.55535 0.58431 0.0
O501 O 0.40233 0.61124 0.61106 0.0
O502 O 0.44458 0.64284 0.68501 0.0
O503 O 0.5034 0.63647 0.66071 0.0
O504 O 0.50219 0.60238 0.57621 0.0
O505 O 0.56211 0.6141 0.614 0.0
O506 O 0.59481 0.62036 0.71109 0.0
O507 O 0.58466 0.56007 0.73738 0.0
O508 O 0.5595 0.53678 0.63219 0.0
O509 O 0.50085 0.53917 0.6566 0.0
O510 O 0.49853 0.58614 0.74825 0.0
O511 O 0.44091 0.5641 0.71221 0.0
H512 H 0.35189 0.55695 0.50633 0.0
H513 H 0.34685 0.58293 0.42416 0.0
H514 H 0.43751 0.66987 0.45646 0.0
H515 H 0.44168 0.64454 0.53815 0.0
H516 H 0.66451 0.64359 0.76439 0.0
H517 H 0.68386 0.6676 0.8437 0.0
H518 H 0.59154 0.59602 0.90796 0.0
H519 H 0.57251 0.57178 0.82843 0.0
Nd520 Nd 0.03644 0.39395 0.14112 0.0
Nd521 Nd 0.95311 0.3985 0.18643 0.0
C522 C 0.09622 0.39751 0.07985 0.0
C523 C 0.09996 0.38178 1.0308 0.0
C524 C 0.07794 0.34825 1.01701 0.0
C525 C 0.08067 0.33347 0.97041 0.0
C526 C 0.10548 0.35191 0.93648 0.0
C527 C 0.12706 0.38593 0.95018 0.0
C528 C 0.12428 0.40074 0.997 0.0
C529 C 0.01402 0.32634 0.18886 0.0
C530 C 0.95575 0.37031 0.077 0.0
C531 C 0.89004 0.39357 0.24298 0.0
C532 C 0.87863 0.37991 0.29168 0.0
C533 C 0.84667 0.35344 0.29677 0.0
C534 C 0.83557 0.33927 0.34203 0.0
C535 C 0.8561 0.35133 0.3835 0.0
C536 C 0.88768 0.37851 0.37848 0.0
C537 C 0.89888 0.3926 0.33305 0.0
C538 C 0.97324 0.46128 0.12753 0.0
C539 C 0.03416 0.41027 0.25295 0.0
O540 O 0.07081 0.42633 0.08533 0.0
O541 O 0.0937 0.37097 0.11393 0.0
O542 O 0.05011 0.33981 0.18769 0.0
O543 O -0.0085 0.34742 0.16315 0.0
O544 O -0.00604 0.37948 0.07845 0.0
O545 O 0.93325 0.3709 0.11573 0.0
O546 O 0.89986 0.36596 0.2122 0.0
O547 O 0.91211 0.42555 0.23933 0.0
O548 O 0.93735 0.44807 0.13308 0.0
O549 O -0.00405 0.4445 0.15754 0.0
O550 O -0.0029 0.39754 0.2497 0.0
O551 O 0.05521 0.41874 0.21421 0.0
H552 H 0.05843 0.33348 0.04227 0.0
H553 H 0.06308 0.30771 0.96087 0.0
H554 H 0.14665 0.40065 0.925 0.0
H555 H 0.1412 0.42688 1.00686 0.0
H556 H 0.83037 0.34345 0.26553 0.0
H557 H 0.81085 0.31877 0.34454 0.0
H558 H 0.90445 0.38808 0.40953 0.0
H559 H 0.92359 0.41308 0.33032 0.0
Nd560 Nd 0.45304 0.39411 0.38649 0.0
Nd561 Nd 0.53578 0.39091 0.43253 0.0
C562 C 0.39094 0.38892 0.32845 0.0
C563 C 0.38225 0.37438 0.27957 0.0
C564 C 0.40456 0.34358 0.25922 0.0
C565 C 0.39479 0.32867 0.2139 0.0
C566 C 0.36264 0.34438 0.18776 0.0
C567 C 0.3411 0.37604 0.2077 0.0
C568 C 0.35075 0.39077 0.25327 0.0
C569 C 0.47198 0.45782 0.44426 0.0
C570 C 0.53427 0.40626 0.32056 0.0
C571 C 0.59539 0.39575 0.49384 0.0
C572 C 0.59836 0.38141 0.54351 0.0
C573 C 0.62443 0.39935 0.57613 0.0
C574 C 0.627 0.38519 0.62329 0.0
C575 C 0.60349 0.35286 0.6383 0.0
C576 C 0.5767 0.33574 0.60569 0.0
C577 C 0.57417 0.34987 0.55882 0.0
C578 C 0.51464 0.32272 0.38526 0.0
C579 C 0.45487 0.36754 0.49647 0.0
O580 O 0.39995 0.36191 0.36048 0.0
O581 O 0.41305 0.42082 0.33181 0.0
O582 O 0.43633 0.44394 0.43883 0.0
O583 O 0.49512 0.44102 0.41483 0.0
O584 O 0.4974 0.39298 0.32351 0.0
O585 O 0.55487 0.41529 0.35942 0.0
O586 O 0.57041 0.42471 0.4867 0.0
O587 O 0.59264 0.36815 0.46115 0.0
O588 O 0.55049 0.3368 0.38652 0.0
O589 O 0.49174 0.34347 0.41077 0.0
O590 O 0.49282 0.37778 0.49526 0.0
O591 O 0.43289 0.3665 0.45727 0.0
H592 H 0.42929 0.33073 0.2786 0.0
H593 H 0.41247 0.30477 0.19927 0.0
H594 H 0.31615 0.38871 0.18864 0.0
H595 H 0.33324 0.41464 0.26828 0.0
H596 H 0.64303 0.42398 0.56503 0.0
H597 H 0.64805 0.39881 0.64761 0.0
H598 H 0.55774 0.31127 0.61639 0.0
H599 H 0.55344 0.33588 0.53438 0.0
Nd600 Nd 0.04362 0.58882 0.8859 0.0
Nd601 Nd 0.96047 0.59108 0.93142 0.0
C602 C 0.10675 0.59543 0.82973 0.0
C603 C 0.11794 0.60856 0.78081 0.0
C604 C 0.14957 0.63532 0.77519 0.0
C605 C 0.16052 0.64893 0.72964 0.0
C606 C 0.14015 0.63598 0.68846 0.0
C607 C 0.10886 0.60855 0.69404 0.0
C608 C 0.0978 0.59505 0.73975 0.0
C609 C 0.02529 0.52513 0.94422 0.0
C610 C 0.96279 0.57494 0.81956 0.0
C611 C 0.90066 0.58622 0.99242 0.0
C612 C 0.89749 0.60105 0.04182 0.0
C613 C 0.92175 0.63261 0.0568 0.0
C614 C 0.91928 0.64699 0.10352 0.0
C615 C 0.89242 0.63017 0.13631 0.0
C616 C 0.86868 0.59795 0.12155 0.0
C617 C 0.87123 0.58349 0.07457 0.0
C618 C 0.98136 0.65954 0.88432 0.0
C619 C 0.04076 0.6153 0.99585 0.0
O620 O 0.09555 0.62317 0.8596 0.0
O621 O 0.08598 0.56264 0.83401 0.0
O622 O 0.06078 0.53943 0.93881 0.0
O623 O 0.002 0.54151 0.9145 0.0
O624 O -0.00037 0.58837 0.82244 0.0
O625 O 0.94204 0.56621 0.85841 0.0
O626 O 0.92591 0.55742 0.9859 0.0
O627 O 0.90324 0.61351 0.95925 0.0
O628 O 0.94565 0.64512 0.88506 0.0
O629 O 0.00421 0.63884 0.91003 0.0
O630 O 0.00298 0.60454 0.99444 0.0
O631 O 0.06286 0.61668 0.9568 0.0
H632 H 0.16575 0.64596 0.80622 0.0
H633 H 0.18501 0.66968 0.72668 0.0
H634 H 0.09221 0.59834 0.6632 0.0
H635 H 0.07329 0.57437 0.74295 0.0
H636 H 0.94257 0.64636 1.03225 0.0
H637 H 0.93847 0.67134 0.11398 0.0
H638 H 0.84753 0.58455 0.14595 0.0
H639 H 0.85254 0.55888 0.06372 0.0
C640 C 0.10016 0.13345 1.02167 0.0
C641 C 0.05946 0.12451 1.02555 0.0
H642 H 0.14977 0.14261 0.97454 0.0
C643 C 0.03716 0.1198 0.98331 0.0
H644 H 0.11825 0.1372 0.05344 0.0
C645 C 0.05521 0.12256 0.93845 0.0
C646 C 0.09604 0.13036 0.93448 0.0
H647 H 0.00577 0.11314 0.98471 0.0
H648 H 0.03711 0.11845 0.90672 0.0
C649 C 0.11824 0.13655 0.97652 0.0
C650 C 0.11155 0.77973 0.23722 0.0
C651 C 0.11691 0.80383 0.27782 0.0
H652 H 0.10323 0.77704 0.16138 0.0
C653 C 0.11644 0.84532 0.27213 0.0
H654 H 0.1117 0.7477 0.24021 0.0
C655 C 0.11145 0.86225 0.22661 0.0
C656 C 0.10655 0.83803 0.186 0.0
H657 H 0.12071 0.86472 0.30263 0.0
H658 H 0.11133 0.89429 0.22321 0.0
C659 C 0.10643 0.79659 0.19195 0.0
C660 C 0.43786 0.86556 0.43872 0.0
C661 C 0.39794 0.85406 0.43406 0.0
H662 H 0.48599 0.87864 0.48578 0.0
C663 C 0.37618 0.84498 0.47569 0.0
H664 H 0.45567 0.87207 0.40734 0.0
C665 C 0.39369 0.84863 0.52112 0.0
C666 C 0.43343 0.86099 0.52568 0.0
H667 H 0.34534 0.83607 0.47321 0.0
H668 H 0.37592 0.84237 0.55259 0.0
C669 C 0.45537 0.8689 0.48384 0.0
C670 C 0.38287 0.20466 0.73511 0.0
C671 C 0.37962 0.18008 0.77568 0.0
H672 H 0.38856 0.20825 0.65899 0.0
C673 C 0.38135 0.13869 0.76959 0.0
H674 H 0.38174 0.23664 0.73841 0.0
C675 C 0.38547 0.1223 0.72375 0.0
C676 C 0.38814 0.147 0.68318 0.0
H677 H 0.37873 0.1189 0.80007 0.0
H678 H 0.38665 0.09032 0.72008 0.0
C679 C 0.38704 0.18836 0.68949 0.0
C680 C 0.93819 0.8693 0.13068 0.0
C681 C 0.89845 0.85713 0.13519 0.0
H682 H 0.98625 0.88316 0.08379 0.0
C683 C 0.8769 0.84792 0.09345 0.0
H684 H 0.95585 0.87595 0.16213 0.0
C685 C 0.89445 0.85196 0.04809 0.0
C686 C 0.93403 0.86485 0.04369 0.0
H687 H 0.84619 0.83853 0.0958 0.0
H688 H 0.87686 0.84548 1.01655 0.0
C689 C 0.95575 0.87303 0.08562 0.0
C690 C 0.88907 0.13851 0.79527 0.0
C691 C 0.87954 0.17904 0.79136 0.0
H692 H 0.89886 0.08905 0.84259 0.0
C693 C 0.87432 0.20125 0.83353 0.0
H694 H 0.8932 0.12053 0.76352 0.0
C695 C 0.87727 0.18325 0.87837 0.0
C696 C 0.88564 0.14257 0.88239 0.0
H697 H 0.86691 0.23248 0.83211 0.0
H698 H 0.87274 0.20123 0.91006 0.0
C699 C 0.89232 0.12047 0.84046 0.0
C700 C 0.55146 0.12431 0.62923 0.0
C701 C 0.59259 0.1294 0.63485 0.0
H702 H 0.50317 0.11472 0.58122 0.0
C703 C 0.61676 0.12978 0.59374 0.0
H704 H 0.53203 0.12327 0.66015 0.0
C705 C 0.60008 0.12503 0.54803 0.0
C706 C 0.55893 0.11954 0.54258 0.0
H707 H 0.64853 0.13396 0.59689 0.0
H708 H 0.61951 0.12508 0.51712 0.0
C709 C 0.53489 0.11937 0.58379 0.0
C710 C 0.60542 0.79447 0.37779 0.0
C711 C 0.60555 0.83589 0.38377 0.0
H712 H 0.61067 0.74573 0.32953 0.0
C713 C 0.61047 0.86025 0.3432 0.0
H714 H 0.60221 0.77482 0.40834 0.0
C715 C 0.61547 0.84344 0.29767 0.0
C716 C 0.61594 0.80197 0.29198 0.0
H717 H 0.61036 0.89227 0.34663 0.0
H718 H 0.61979 0.86293 0.26719 0.0
C719 C 0.61054 0.77776 0.33254 0.0
C720 C 0.55422 0.61629 0.44037 0.0
C721 C 0.59414 0.62786 0.43599 0.0
H722 H 0.50593 0.60297 0.48711 0.0
C723 C 0.61573 0.63686 0.47777 0.0
H724 H 0.53656 0.60983 0.40886 0.0
C725 C 0.59805 0.63301 0.52307 0.0
C726 C 0.55833 0.62054 0.52736 0.0
H727 H 0.64656 0.6458 0.4755 0.0
H728 H 0.6157 0.63918 0.55466 0.0
C729 C 0.53654 0.61276 0.48537 0.0
C730 C 0.61527 0.27744 0.73784 0.0
C731 C 0.61839 0.30159 0.77872 0.0
H732 H 0.60854 0.27469 0.6618 0.0
C733 C 0.6158 0.34302 0.77328 0.0
H734 H 0.61746 0.24547 0.74052 0.0
C735 C 0.61085 0.35987 0.72773 0.0
C736 C 0.60804 0.33558 0.68693 0.0
H737 H 0.61838 0.36247 0.804 0.0
H738 H 0.6091 0.39186 0.72444 0.0
C739 C 0.61007 0.2942 0.69259 0.0
C740 C 0.96217 0.35861 0.98891 0.0
C741 C 0.93784 0.36139 1.02969 0.0
H742 H 0.96532 0.35192 0.91288 0.0
C743 C 0.89648 0.35812 1.02402 0.0
H744 H -0.00592 0.36136 0.99173 0.0
C745 C 0.87988 0.35287 0.97838 0.0
C746 C 0.90435 0.35045 0.93767 0.0
H747 H 0.87687 0.36038 0.05463 0.0
H748 H 0.84793 0.35063 0.97495 0.0
C749 C 0.94566 0.35311 0.94356 0.0
C750 C 0.88305 0.70539 0.23639 0.0
C751 C 0.87903 0.68105 0.27706 0.0
H752 H 0.8898 0.70848 0.16035 0.0
C753 C 0.88034 0.6396 0.27134 0.0
H754 H 0.88223 0.7374 0.23943 0.0
C755 C 0.88481 0.62292 0.22571 0.0
C756 C 0.88833 0.64738 0.18503 0.0
H757 H 0.8771 0.62001 0.30192 0.0
H758 H 0.88562 0.59091 0.22227 0.0
C759 C 0.88764 0.68878 0.19099 0.0
C760 C 0.39646 0.34846 0.54824 0.0
C761 C 0.43638 0.36027 0.54399 0.0
H762 H 0.3477 0.33646 0.59575 0.0
C763 C 0.45824 0.36774 0.58601 0.0
H764 H 0.37875 0.34256 0.51663 0.0
C765 C 0.44046 0.36451 0.631 0.0
C766 C 0.40036 0.35357 0.63535 0.0
H767 H 0.489 0.37703 0.58433 0.0
H768 H 0.45822 0.37066 0.66252 0.0
C769 C 0.37868 0.34492 0.59353 0.0
C770 C 0.3868 0.68736 0.37913 0.0
C771 C 0.38756 0.64595 0.38518 0.0
H772 H 0.38135 0.73603 0.33055 0.0
C773 C 0.38414 0.62154 0.34454 0.0
H774 H 0.38889 0.70702 0.40974 0.0
C775 C 0.3797 0.63826 0.29886 0.0
C776 C 0.37832 0.67971 0.29303 0.0
H777 H 0.385 0.58953 0.34803 0.0
H778 H 0.37655 0.61869 0.26832 0.0
C779 C 0.38223 0.70402 0.33367 0.0
C780 C 0.1164 0.63888 0.09305 0.0
C781 C 0.09483 0.62966 0.13477 0.0
H782 H 0.11636 0.64158 1.01618 0.0
C783 C 0.05492 0.61809 0.13034 0.0
H784 H 0.14723 0.64784 0.09537 0.0
C785 C 0.03723 0.61476 0.08533 0.0
C786 C 0.05901 0.62276 0.04339 0.0
H787 H 0.03727 0.61147 0.16183 0.0
H788 H 0.00663 0.60495 0.08354 0.0
C789 C 0.09872 0.63525 0.04774 0.0
C790 C 0.11682 0.2772 0.83584 0.0
C791 C 0.11874 0.30167 0.79502 0.0
H792 H 0.11184 0.27375 0.91207 0.0
C793 C 0.11539 0.34299 0.80091 0.0
H794 H 0.11929 0.24529 0.83277 0.0
C795 C 0.11092 0.35942 0.84672 0.0
C796 C 0.10952 0.33486 0.88754 0.0
H797 H 0.1169 0.36272 0.77028 0.0
H798 H 0.10843 0.39133 0.85017 0.0
C799 C 0.1123 0.29355 0.88143 0.0
C800 C 0.96599 0.2709 0.19976 0.0
C801 C 0.00536 0.28443 0.19914 0.0
H802 H 0.92728 0.22055 0.19744 0.0
C803 C 0.03649 0.25685 0.20201 0.0
H804 H 0.94155 0.29167 0.19792 0.0
C805 C 0.02842 0.21622 0.2007 0.0
C806 C 0.98913 0.20273 0.19762 0.0
H807 H 0.06716 0.26656 0.20185 0.0
H808 H 0.05291 0.19547 0.19967 0.0
C809 C 0.9579 0.23025 0.19955 0.0
C810 C 0.97087 0.71063 0.44968 0.0
C811 C 0.95719 0.74986 0.44786 0.0
H812 H 0.02132 0.6723 0.44943 0.0
C813 C 0.98463 0.78129 0.45041 0.0
H814 H 0.95022 0.68596 0.44809 0.0
C815 C 0.02531 0.77356 0.45013 0.0
C816 C 0.03899 0.73432 0.4484 0.0
H817 H 0.9748 0.81187 0.44927 0.0
H818 H 0.04599 0.79821 0.44889 0.0
C819 C 0.01152 0.70289 0.45052 0.0
C820 C 0.52713 0.7134 0.69789 0.0
C821 C 0.48803 0.69924 0.69608 0.0
H822 H 0.56506 0.76433 0.69711 0.0
C823 C 0.45638 0.72631 0.69779 0.0
H824 H 0.55194 0.69303 0.69692 0.0
C825 C 0.46381 0.76707 0.69682 0.0
C826 C 0.50294 0.78119 0.69523 0.0
H827 H 0.42589 0.71608 0.69662 0.0
H828 H 0.43902 0.78745 0.69509 0.0
C829 C 0.53455 0.75415 0.69804 0.0
C830 C 0.52699 0.27108 0.94838 0.0
C831 C 0.54057 0.23181 0.94654 0.0
H832 H 0.4766 0.30953 0.9479 0.0
C833 C 0.51303 0.20045 0.94852 0.0
H834 H 0.54772 0.29569 0.94718 0.0
C835 C 0.47239 0.20829 0.94787 0.0
C836 C 0.45882 0.24757 0.94637 0.0
H837 H 0.52276 0.16984 0.94734 0.0
H838 H 0.45167 0.18369 0.94628 0.0
C839 C 0.48634 0.27892 0.94885 0.0
C840 C 0.96473 0.7696 0.87441 0.0
C841 C 0.00385 0.78374 0.87578 0.0
H842 H 0.92684 0.71857 0.87457 0.0
C843 C 0.03546 0.75671 0.87282 0.0
H844 H 0.93994 0.78996 0.87628 0.0
C845 C 0.02807 0.71595 0.87285 0.0
C846 C 0.98899 0.70175 0.8747 0.0
H847 H 0.06597 0.7669 0.87357 0.0
H848 H 0.0529 0.6956 0.87362 0.0
C849 C 0.95732 0.72882 0.87332 0.0
C850 C 0.52476 0.77147 0.11921 0.0
C851 C 0.53842 0.73224 0.12157 0.0
H852 H 0.47429 0.80981 0.11927 0.0
C853 C 0.51095 0.70081 0.11979 0.0
H854 H 0.54546 0.79612 0.12019 0.0
C855 C 0.47029 0.70857 0.12033 0.0
C856 C 0.45663 0.74782 0.1215 0.0
H857 H 0.52074 0.67023 0.12136 0.0
H858 H 0.44963 0.68393 0.1222 0.0
C859 C 0.48409 0.77922 0.11862 0.0
C860 C 0.53034 0.21281 0.3721 0.0
C861 C 0.49111 0.19892 0.37304 0.0
H862 H 0.56861 0.26351 0.37389 0.0
C863 C 0.4597 0.22625 0.37076 0.0
H864 H 0.55498 0.19223 0.37349 0.0
C865 C 0.46741 0.26695 0.37203 0.0
C866 C 0.5066 0.2808 0.37449 0.0
H867 H 0.42912 0.21627 0.37121 0.0
H868 H 0.44274 0.28749 0.37329 0.0
C869 C 0.53805 0.25353 0.37228 0.0
C870 C 0.01227 0.20326 0.62027 0.0
C871 C 0.03974 0.23464 0.62317 0.0
H872 H 0.95093 0.1864 0.62154 0.0
C873 C 0.02615 0.27391 0.6217 0.0
H874 H 0.02204 0.17266 0.62112 0.0
C875 C 0.9855 0.2817 0.62085 0.0
C876 C 0.958 0.25028 0.62259 0.0
H877 H 0.04686 0.29852 0.62351 0.0
H878 H 0.97572 0.31228 0.62217 0.0
C879 C 0.97163 0.21104 0.62055 0.0
C880 C 0.03319 0.01427 0.03597 0.0
C881 C 0.00991 0.00969 0.07762 0.0
H882 H 0.03841 0.00399 0.96014 0.0
C883 C 0.97327 0.99016 0.07389 0.0
H884 H 0.06152 0.02947 0.03752 0.0
C885 C 0.95999 0.97589 1.0295 0.0
C886 C 0.98334 0.98027 0.98788 0.0
H887 H 0.95484 0.98597 0.10532 0.0
H888 H 0.93169 0.96063 1.02805 0.0
C889 C 0.0199 -0.0 0.99153 0.0
C890 C 0.25228 0.71691 0.32592 0.0
C891 C 0.23328 0.75375 0.32967 0.0
H892 H 0.28135 0.67515 0.28001 0.0
C893 C 0.22931 0.77724 0.28808 0.0
H894 H 0.256 0.6983 0.3573 0.0
C895 C 0.24356 0.76395 0.24368 0.0
C896 C 0.26262 0.72713 0.23993 0.0
H897 H 0.21451 0.80572 0.28961 0.0
H898 H 0.23982 0.78254 0.21229 0.0
C899 C 0.26655 0.70362 0.28152 0.0
C900 C 0.47306 0.9844 0.49293 0.0
C901 C 0.50962 0.00408 0.48921 0.0
H902 H 0.43118 0.95548 0.53906 0.0
C903 C 0.53255 0.00937 0.53104 0.0
H904 H 0.45483 0.97981 0.46141 0.0
C905 C 0.51893 -0.00422 0.57566 0.0
C906 C 0.48244 0.97597 0.57936 0.0
H907 H 0.56083 0.02467 0.5295 0.0
H908 H 0.53715 0.00038 0.60719 0.0
C909 C 0.45946 0.97079 0.53755 0.0
C910 C 0.2448 0.2637 0.82668 0.0
C911 C 0.26421 0.22706 0.83003 0.0
H912 H 0.21527 0.30557 0.7812 0.0
C913 C 0.26824 0.2039 0.78825 0.0
H914 H 0.24097 0.28201 0.85823 0.0
C915 C 0.25374 0.21739 0.74402 0.0
C916 C 0.23441 0.25408 0.74065 0.0
H917 H 0.2833 0.17555 0.7895 0.0
H918 H 0.25752 0.19906 0.71248 0.0
C919 C 0.23033 0.27721 0.78244 0.0
C920 C 0.73015 0.27719 0.78965 0.0
C921 C 0.73515 0.25357 0.831 0.0
H922 H 0.73977 0.28327 0.71376 0.0
C923 C 0.75511 0.21728 0.82663 0.0
H924 H 0.71471 0.3053 0.79164 0.0
C925 C 0.76912 0.20458 0.78183 0.0
C926 C 0.7641 0.22821 0.74048 0.0
H927 H 0.75958 0.19856 0.85777 0.0
H928 H 0.78456 0.17647 0.77979 0.0
C929 C 0.74421 0.26452 0.74489 0.0
C930 C 0.76669 0.70393 0.28876 0.0
C931 C 0.76296 0.7278 0.33 0.0
H932 H 0.75555 0.69784 0.21321 0.0
C933 C 0.7437 0.76448 0.32585 0.0
H934 H 0.78162 0.67554 0.29058 0.0
C935 C 0.72904 0.7773 0.28138 0.0
C936 C 0.73281 0.75344 0.24014 0.0
H937 H 0.74006 0.78331 0.35698 0.0
H938 H 0.71408 0.80568 0.27952 0.0
C939 C 0.752 0.71673 0.24431 0.0
C940 C 0.47462 0.48474 0.57668 0.0
C941 C 0.51093 0.50488 0.58065 0.0
H942 H 0.4335 0.45496 0.53038 0.0
C943 C 0.53425 0.5099 0.53909 0.0
H944 H 0.45614 0.48024 0.608 0.0
C945 C 0.52125 0.49569 0.4945 0.0
C946 C 0.48494 0.47558 0.49052 0.0
H947 H 0.56237 0.52549 0.54078 0.0
H948 H 0.53976 0.50017 0.46319 0.0
C949 C 0.46161 0.47055 0.53208 0.0
C950 C 0.03595 0.51231 1.03206 0.0
C951 C 0.01248 0.50734 0.99059 0.0
H952 H 0.04152 0.50282 0.10806 0.0
C953 C 0.97614 0.4873 0.99477 0.0
H954 H 0.0641 0.52781 1.0302 0.0
C955 C 0.96317 0.47327 0.03949 0.0
C956 C 0.98654 0.4784 0.081 0.0
H957 H 0.95755 0.48283 0.96354 0.0
H958 H 0.93498 0.45782 0.04136 0.0
C959 C 0.02297 0.49828 0.0768 0.0
C960 C 0.14565 0.19679 0.43581 0.0
C961 C 0.14508 0.15543 0.4295 0.0
H962 H 0.15287 0.24539 0.48399 0.0
C963 C 0.15464 0.13106 0.46895 0.0
H964 H 0.13936 0.2165 0.40606 0.0
C965 C 0.16264 0.14773 0.51417 0.0
C966 C 0.16145 0.18913 0.52075 0.0
H967 H 0.15446 0.09906 0.46532 0.0
H968 H 0.16822 0.12815 0.54423 0.0
C969 C 0.15376 0.21336 0.48063 0.0
C970 C 0.04456 0.88813 0.68648 0.0
C971 C 0.08596 0.8889 0.68074 0.0
H972 H -0.00475 0.89442 0.73374 0.0
C973 C 0.10958 0.89984 0.72034 0.0
H974 H 0.02536 0.88078 0.65661 0.0
C975 C 0.09218 0.90791 0.76514 0.0
C976 C 0.05078 0.90543 0.77116 0.0
H977 H 0.1416 0.90073 0.71716 0.0
H978 H 0.11123 0.91462 0.79535 0.0
C979 C 0.02726 0.89632 0.73086 0.0
C980 C 0.33956 0.76957 0.9795 0.0
C981 C 0.33259 0.79351 1.01995 0.0
H982 H 0.35292 0.76703 0.90464 0.0
C983 C 0.33132 0.83495 1.01377 0.0
H984 H 0.34047 0.73754 0.98257 0.0
C985 C 0.33867 0.85198 0.96857 0.0
C986 C 0.34765 0.82789 0.92879 0.0
H987 H 0.32624 0.8543 0.04411 0.0
H988 H 0.33888 0.88401 0.96519 0.0
C989 C 0.34705 0.78649 0.93469 0.0
C990 C 0.40235 0.07745 0.26501 0.0
C991 C 0.44363 0.07322 0.27037 0.0
H992 H 0.35392 0.08845 0.21667 0.0
C993 C 0.46759 0.07444 0.22909 0.0
H994 H 0.38309 0.07702 0.29609 0.0
C995 C 0.45098 0.081 0.18385 0.0
C996 C 0.40993 0.08687 0.17851 0.0
H997 H 0.49951 0.07142 0.23184 0.0
H998 H 0.47063 0.08301 0.15321 0.0
C999 C 0.3857 0.08446 0.21958 0.0
C1000 C 0.84047 0.77135 0.59002 0.0
C1001 C 0.83347 0.79519 0.54939 0.0
H1002 H 0.85399 0.76897 0.66486 0.0
C1003 C 0.83235 0.83666 0.55526 0.0
H1004 H 0.84127 0.73931 0.58719 0.0
C1005 C 0.83987 0.85378 0.60032 0.0
C1006 C 0.84888 0.82978 0.64027 0.0
H1007 H 0.82727 0.85593 0.52478 0.0
H1008 H 0.8402 0.88582 0.60344 0.0
C1009 C 0.84812 0.78837 0.63468 0.0
C1010 C 0.88384 0.09111 0.34655 0.0
C1011 C 0.90771 0.0922 0.388 0.0
H1012 H 0.88176 0.08468 0.26994 0.0
C1013 C 0.94862 0.08513 0.38321 0.0
H1014 H 0.85217 0.09608 0.34904 0.0
C1015 C 0.96547 0.07862 0.33813 0.0
C1016 C 0.9419 0.07862 0.2965 0.0
H1017 H 0.96798 0.08611 0.41419 0.0
H1018 H -0.00269 0.07465 0.3358 0.0
C1019 C 0.90072 0.08411 0.3013 0.0
C1020 C 0.65911 0.20862 0.09023 0.0
C1021 C 0.66499 0.18482 0.04941 0.0
H1022 H 0.64588 0.211 0.16512 0.0
C1023 C 0.66464 0.1433 0.055 0.0
H1024 H 0.65953 0.24069 0.0876 0.0
C1025 C 0.65658 0.12615 0.09999 0.0
C1026 C 0.64852 0.1502 0.1401 0.0
H1027 H 0.66882 0.12408 1.02433 0.0
H1028 H 0.655 0.09412 0.10291 0.0
C1029 C 0.65095 0.19159 0.1348 0.0
C1030 C 0.59043 0.90589 0.80431 0.0
C1031 C 0.54903 0.90358 0.79824 0.0
H1032 H 0.63978 0.89865 0.85243 0.0
C1033 C 0.52543 0.89478 0.83856 0.0
H1034 H 0.60954 0.91236 0.77407 0.0
C1035 C 0.54265 0.88669 0.88306 0.0
C1036 C 0.58406 0.88727 0.88885 0.0
H1037 H 0.49341 0.89301 0.83562 0.0
H1038 H 0.52341 0.87956 0.91297 0.0
C1039 C 0.60776 0.89793 0.84921 0.0
C1040 C 0.6564 0.69162 0.93522 0.0
C1041 C 0.64937 0.65068 0.93029 0.0
H1042 H 0.66696 0.74023 0.98276 0.0
C1043 C 0.6507 0.62665 0.97164 0.0
H1044 H 0.65523 0.71112 0.90435 0.0
C1045 C 0.65778 0.64342 1.01696 0.0
C1046 C 0.66317 0.68463 1.0219 0.0
H1047 H 0.6458 0.59494 0.96904 0.0
H1048 H 0.65733 0.62434 0.04824 0.0
C1049 C 0.66305 0.70835 0.98034 0.0
C1050 C 0.59495 0.40125 0.26776 0.0
C1051 C 0.5536 0.40521 0.27262 0.0
H1052 H 0.64381 0.39022 0.22012 0.0
C1053 C 0.52994 0.4033 0.2311 0.0
H1054 H 0.614 0.40217 0.29902 0.0
C1055 C 0.5469 0.39642 0.18616 0.0
C1056 C 0.58805 0.39092 0.18132 0.0
H1057 H 0.49797 0.40606 0.23344 0.0
H1058 H 0.52747 0.39395 0.15536 0.0
C1059 C 0.61197 0.39392 0.22262 0.0
C1060 C 0.84522 0.35738 0.47307 0.0
C1061 C 0.8459 0.33394 0.43127 0.0
H1062 H 0.8391 0.35868 0.54976 0.0
C1063 C 0.83813 0.29306 0.43557 0.0
H1064 H 0.85069 0.38903 0.47099 0.0
C1065 C 0.83145 0.2758 0.48046 0.0
C1066 C 0.83201 0.2989 0.52241 0.0
H1067 H 0.83876 0.27398 0.40436 0.0
H1068 H 0.82696 0.24399 0.48239 0.0
C1069 C 0.83809 0.34008 0.51814 0.0
C1070 C 0.9673 0.57629 0.73004 0.0
C1071 C 0.94358 0.57543 0.77152 0.0
H1072 H 0.97004 0.58465 0.65411 0.0
C1073 C 0.90231 0.58005 0.76644 0.0
H1074 H -0.00083 0.57294 0.73255 0.0
C1075 C 0.88549 0.58712 0.72111 0.0
C1076 C 0.9095 0.5892 0.67982 0.0
H1077 H 0.88321 0.57994 0.79767 0.0
H1078 H 0.85372 0.59141 0.71844 0.0
C1079 C 0.95052 0.58292 0.68489 0.0
C1080 C 0.35111 0.28554 0.13453 0.0
C1081 C 0.35135 0.32693 0.1405 0.0
H1082 H 0.34456 0.23668 0.08667 0.0
C1083 C 0.3418 0.35104 0.10084 0.0
H1084 H 0.35742 0.26603 0.16448 0.0
C1085 C 0.33418 0.33409 0.05571 0.0
C1086 C 0.33576 0.29268 0.04945 0.0
H1087 H 0.34173 0.38306 0.10424 0.0
H1088 H 0.32862 0.35349 1.02546 0.0
C1089 C 0.34337 0.26869 0.08979 0.0
C1090 C 0.38433 0.58533 0.8494 0.0
C1091 C 0.40834 0.5874 0.89071 0.0
H1092 H 0.38205 0.57807 0.77287 0.0
C1093 C 0.44935 0.581 0.88571 0.0
H1094 H 0.35258 0.58971 0.85201 0.0
C1095 C 0.4661 0.57428 0.84061 0.0
C1096 C 0.44239 0.57343 0.7991 0.0
H1097 H 0.46887 0.58272 0.9165 0.0
H1098 H 0.49798 0.57084 0.83816 0.0
C1099 C 0.40114 0.57817 0.80411 0.0
C1100 C 0.16386 0.71025 0.58988 0.0
C1101 C 0.16378 0.68644 0.54849 0.0
H1102 H 0.15629 0.71319 0.66588 0.0
C1103 C 0.15828 0.64525 0.5537 0.0
H1104 H 0.16787 0.7421 0.58724 0.0
C1105 C 0.15129 0.6286 0.59914 0.0
C1106 C 0.15017 0.65272 0.64034 0.0
H1107 H 0.15768 0.62612 0.52254 0.0
H1108 H 0.1463 0.59691 0.60198 0.0
C1109 C 0.15731 0.69363 0.63512 0.0
C1110 C 0.09453 0.40838 0.30704 0.0
C1111 C 0.05305 0.40891 0.30123 0.0
H1112 H 0.14341 0.39872 0.35524 0.0
C1113 C 0.02906 0.40325 0.342 0.0
H1114 H 0.11391 0.41237 0.27645 0.0
C1115 C 0.04583 0.39521 0.38674 0.0
C1116 C 0.08717 0.39267 0.3923 0.0
H1117 H -0.00297 0.40378 0.3392 0.0
H1118 H 0.02625 0.3904 0.41701 0.0
C1119 C 0.11142 0.40043 0.35218 0.0
loop_
_geom_bond_atom_site_label_1
_geom_bond_atom_site_label_2
_geom_bond_distance
_geom_bond_site_symmetry_2
_ccdc_geom_bond_type
Nd0 C2 2.836 1_554 S
Nd0 O20 2.500 . S
Nd0 O21 2.492 . S
Nd0 O22 2.487 . S
Nd0 O23 2.682 1_655 S
Nd0 O24 2.410 1_655 S
Nd0 O29 2.414 . S
Nd0 O31 2.424 . S
Nd1 C11 2.836 . S
Nd1 O23 2.414 . S
Nd1 O25 2.424 . S
Nd1 O26 2.500 . S
Nd1 O27 2.492 . S
Nd1 O28 2.487 . S
Nd1 O29 2.682 1_455 S
Nd1 O30 2.410 1_455 S
C2 Nd0 2.836 1_556 S
C2 C3 1.498 . S
C2 O20 1.258 1_556 S
C2 O21 1.239 1_556 S
C3 C2 1.498 . S
C3 C4 1.366 . S
C3 C8 1.407 . S
C4 C3 1.366 . S
C4 C5 1.392 . S
C4 H32 0.930 . S
C5 C4 1.392 . S
C5 C6 1.398 . S
C5 H33 0.929 . S
C6 C5 1.398 . S
C6 C7 1.352 . S
C7 C6 1.352 . S
C7 C8 1.384 . S
C7 H34 0.930 . S
C8 C3 1.407 . S
C8 C7 1.384 . S
C8 H35 0.929 . S
C9 O22 1.241 . S
C9 O23 1.273 1_655 S
C10 O24 1.251 . S
C10 O25 1.268 . S
C11 Nd1 2.836 . S
C11 C12 1.498 . S
C11 O26 1.258 . S
C11 O27 1.239 . S
C12 C11 1.498 . S
C12 C13 1.366 . S
C12 C17 1.407 . S
C13 C12 1.366 . S
C13 C14 1.392 . S
C13 H36 0.930 . S
C14 C13 1.392 . S
C14 C15 1.398 . S
C14 H37 0.929 . S
C15 C14 1.398 . S
C15 C16 1.352 . S
C16 C15 1.352 . S
C16 C17 1.384 . S
C16 H38 0.930 . S
C17 C12 1.407 . S
C17 C16 1.384 . S
C17 H39 0.929 . S
C18 O28 1.241 . S
C18 O29 1.273 1_455 S
C19 O30 1.251 . S
C19 O31 1.268 . S
O20 Nd0 2.500 . S
O20 C2 1.258 1_554 S
O21 Nd0 2.492 . S
O21 C2 1.239 1_554 S
O22 Nd0 2.487 . S
O22 C9 1.241 . S
O23 Nd0 2.682 1_455 S
O23 Nd1 2.414 . S
O23 C9 1.273 1_455 S
O24 Nd0 2.410 1_455 S
O24 C10 1.251 . S
O25 Nd1 2.424 . S
O25 C10 1.268 . S
O26 Nd1 2.500 . S
O26 C11 1.258 . S
O27 Nd1 2.492 . S
O27 C11 1.239 . S
O28 Nd1 2.487 . S
O28 C18 1.241 . S
O29 Nd0 2.414 . S
O29 Nd1 2.682 1_655 S
O29 C18 1.273 1_655 S
O30 Nd1 2.410 1_655 S
O30 C19 1.251 . S
O31 Nd0 2.424 . S
O31 C19 1.268 . S
H32 C4 0.930 . S
H33 C5 0.929 . S
H34 C7 0.930 . S
H35 C8 0.929 . S
H36 C13 0.930 . S
H37 C14 0.929 . S
H38 C16 0.930 . S
H39 C17 0.929 . S
Nd40 C42 2.836 . S
Nd40 O60 2.500 . S
Nd40 O61 2.492 . S
Nd40 O62 2.487 . S
Nd40 O63 2.682 . S
Nd40 O64 2.410 . S
Nd40 O69 2.414 . S
Nd40 O71 2.424 . S
Nd41 C51 2.836 . S
Nd41 O63 2.414 . S
Nd41 O65 2.424 . S
Nd41 O66 2.500 . S
Nd41 O67 2.492 . S
Nd41 O68 2.487 . S
Nd41 O69 2.682 . S
Nd41 O70 2.410 . S
C42 Nd40 2.836 . S
C42 C43 1.498 . S
C42 O60 1.258 . S
C42 O61 1.239 . S
C43 C42 1.498 . S
C43 C44 1.366 . S
C43 C48 1.407 . S
C44 C43 1.366 . S
C44 C45 1.392 . S
C44 H72 0.930 . S
C45 C44 1.392 . S
C45 C46 1.398 . S
C45 H73 0.929 . S
C46 C45 1.398 . S
C46 C47 1.352 . S
C47 C46 1.352 . S
C47 C48 1.384 . S
C47 H74 0.930 . S
C48 C43 1.407 . S
C48 C47 1.384 . S
C48 H75 0.929 . S
C49 O62 1.241 . S
C49 O63 1.273 . S
C50 O64 1.251 . S
C50 O65 1.268 . S
C51 Nd41 2.836 . S
C51 C52 1.498 . S
C51 O66 1.258 . S
C51 O67 1.239 . S
C52 C51 1.498 . S
C52 C53 1.366 . S
C52 C57 1.407 . S
C53 C52 1.366 . S
C53 C54 1.392 . S
C53 H76 0.930 . S
C54 C53 1.392 . S
C54 C55 1.398 . S
C54 H77 0.929 . S
C55 C54 1.398 . S
C55 C56 1.352 . S
C56 C55 1.352 . S
C56 C57 1.384 . S
C56 H78 0.930 . S
C57 C52 1.407 . S
C57 C56 1.384 . S
C57 H79 0.929 . S
C58 O68 1.241 . S
C58 O69 1.273 . S
C59 O70 1.251 . S
C59 O71 1.268 . S
O60 Nd40 2.500 . S
O60 C42 1.258 . S
O61 Nd40 2.492 . S
O61 C42 1.239 . S
O62 Nd40 2.487 . S
O62 C49 1.241 . S
O63 Nd40 2.682 . S
O63 Nd41 2.414 . S
O63 C49 1.273 . S
O64 Nd40 2.410 . S
O64 C50 1.251 . S
O65 Nd41 2.424 . S
O65 C50 1.268 . S
O66 Nd41 2.500 . S
O66 C51 1.258 . S
O67 Nd41 2.492 . S
O67 C51 1.239 . S
O68 Nd41 2.487 . S
O68 C58 1.241 . S
O69 Nd40 2.414 . S
O69 Nd41 2.682 . S
O69 C58 1.273 . S
O70 Nd41 2.410 . S
O70 C59 1.251 . S
O71 Nd40 2.424 . S
O71 C59 1.268 . S
H72 C44 0.930 . S
H73 C45 0.929 . S
H74 C47 0.930 . S
H75 C48 0.929 . S
H76 C53 0.930 . S
H77 C54 0.929 . S
H78 C56 0.930 . S
H79 C57 0.929 . S
Nd80 C82 2.836 . S
Nd80 O100 2.500 . S
Nd80 O101 2.492 . S
Nd80 O102 2.487 . S
Nd80 O103 2.682 . S
Nd80 O104 2.410 . S
Nd80 O109 2.414 . S
Nd80 O111 2.424 . S
Nd81 C91 2.836 . S
Nd81 O103 2.414 . S
Nd81 O105 2.424 . S
Nd81 O106 2.500 . S
Nd81 O107 2.492 . S
Nd81 O108 2.487 . S
Nd81 O109 2.682 . S
Nd81 O110 2.410 . S
C82 Nd80 2.836 . S
C82 C83 1.498 . S
C82 O100 1.258 . S
C82 O101 1.239 . S
C83 C82 1.498 . S
C83 C84 1.366 . S
C83 C88 1.407 . S
C84 C83 1.366 . S
C84 C85 1.392 . S
C84 H112 0.930 . S
C85 C84 1.392 . S
C85 C86 1.398 . S
C85 H113 0.929 . S
C86 C85 1.398 . S
C86 C87 1.352 . S
C87 C86 1.352 . S
C87 C88 1.384 . S
C87 H114 0.930 . S
C88 C83 1.407 . S
C88 C87 1.384 . S
C88 H115 0.929 . S
C89 O102 1.241 . S
C89 O103 1.273 . S
C90 O104 1.251 . S
C90 O105 1.268 . S
C91 Nd81 2.836 . S
C91 C92 1.498 . S
C91 O106 1.258 . S
C91 O107 1.239 . S
C92 C91 1.498 . S
C92 C93 1.366 . S
C92 C97 1.407 . S
C93 C92 1.366 . S
C93 C94 1.392 . S
C93 H116 0.930 . S
C94 C93 1.392 . S
C94 C95 1.398 . S
C94 H117 0.929 . S
C95 C94 1.398 . S
C95 C96 1.352 . S
C96 C95 1.352 . S
C96 C97 1.384 . S
C96 H118 0.930 . S
C97 C92 1.407 . S
C97 C96 1.384 . S
C97 H119 0.929 . S
C98 O108 1.241 . S
C98 O109 1.273 . S
C99 O110 1.251 . S
C99 O111 1.268 . S
O100 Nd80 2.500 . S
O100 C82 1.258 . S
O101 Nd80 2.492 . S
O101 C82 1.239 . S
O102 Nd80 2.487 . S
O102 C89 1.241 . S
O103 Nd80 2.682 . S
O103 Nd81 2.414 . S
O103 C89 1.273 . S
O104 Nd80 2.410 . S
O104 C90 1.251 . S
O105 Nd81 2.424 . S
O105 C90 1.268 . S
O106 Nd81 2.500 . S
O106 C91 1.258 . S
O107 Nd81 2.492 . S
O107 C91 1.239 . S
O108 Nd81 2.487 . S
O108 C98 1.241 . S
O109 Nd80 2.414 . S
O109 Nd81 2.682 . S
O109 C98 1.273 . S
O110 Nd81 2.410 . S
O110 C99 1.251 . S
O111 Nd80 2.424 . S
O111 C99 1.268 . S
H112 C84 0.930 . S
H113 C85 0.929 . S
H114 C87 0.930 . S
H115 C88 0.929 . S
H116 C93 0.930 . S
H117 C94 0.929 . S
H118 C96 0.930 . S
H119 C97 0.929 . S
Nd120 C122 2.836 . S
Nd120 O140 2.500 . S
Nd120 O141 2.492 . S
Nd120 O142 2.487 . S
Nd120 O143 2.682 . S
Nd120 O144 2.410 . S
Nd120 O149 2.414 . S
Nd120 O151 2.424 . S
Nd121 C131 2.836 . S
Nd121 O143 2.414 . S
Nd121 O145 2.424 . S
Nd121 O146 2.500 . S
Nd121 O147 2.492 . S
Nd121 O148 2.487 . S
Nd121 O149 2.682 . S
Nd121 O150 2.410 . S
C122 Nd120 2.836 . S
C122 C123 1.498 . S
C122 O140 1.258 . S
C122 O141 1.239 . S
C123 C122 1.498 . S
C123 C124 1.366 . S
C123 C128 1.407 . S
C124 C123 1.366 . S
C124 C125 1.392 . S
C124 H152 0.930 . S
C125 C124 1.392 . S
C125 C126 1.398 . S
C125 H153 0.929 . S
C126 C125 1.398 . S
C126 C127 1.352 . S
C127 C126 1.352 . S
C127 C128 1.384 . S
C127 H154 0.930 . S
C128 C123 1.407 . S
C128 C127 1.384 . S
C128 H155 0.929 . S
C129 O142 1.241 . S
C129 O143 1.273 . S
C130 O144 1.251 . S
C130 O145 1.268 . S
C131 Nd121 2.836 . S
C131 C132 1.498 1_556 S
C131 O146 1.258 . S
C131 O147 1.239 . S
C132 C131 1.498 1_554 S
C132 C133 1.366 . S
C132 C137 1.407 . S
C133 C132 1.366 . S
C133 C134 1.392 . S
C133 H156 0.930 . S
C134 C133 1.392 . S
C134 C135 1.398 . S
C134 H157 0.929 . S
C135 C134 1.398 . S
C135 C136 1.352 . S
C136 C135 1.352 . S
C136 C137 1.384 . S
C136 H158 0.930 . S
C137 C132 1.407 . S
C137 C136 1.384 . S
C137 H159 0.929 . S
C138 O148 1.241 . S
C138 O149 1.273 . S
C139 O150 1.251 . S
C139 O151 1.268 . S
O140 Nd120 2.500 . S
O140 C122 1.258 . S
O141 Nd120 2.492 . S
O141 C122 1.239 . S
O142 Nd120 2.487 . S
O142 C129 1.241 . S
O143 Nd120 2.682 . S
O143 Nd121 2.414 . S
O143 C129 1.273 . S
O144 Nd120 2.410 . S
O144 C130 1.251 . S
O145 Nd121 2.424 . S
O145 C130 1.268 . S
O146 Nd121 2.500 . S
O146 C131 1.258 . S
O147 Nd121 2.492 . S
O147 C131 1.239 . S
O148 Nd121 2.487 . S
O148 C138 1.241 . S
O149 Nd120 2.414 . S
O149 Nd121 2.682 . S
O149 C138 1.273 . S
O150 Nd121 2.410 . S
O150 C139 1.251 . S
O151 Nd120 2.424 . S
O151 C139 1.268 . S
H152 C124 0.930 . S
H153 C125 0.929 . S
H154 C127 0.930 . S
H155 C128 0.929 . S
H156 C133 0.930 . S
H157 C134 0.929 . S
H158 C136 0.930 . S
H159 C137 0.929 . S
Nd160 C162 2.836 . S
Nd160 O180 2.500 . S
Nd160 O181 2.492 . S
Nd160 O182 2.487 . S
Nd160 O183 2.682 1_655 S
Nd160 O184 2.410 1_655 S
Nd160 O189 2.414 1_655 S
Nd160 O191 2.424 . S
Nd161 C171 2.836 1_556 S
Nd161 O183 2.414 . S
Nd161 O185 2.424 . S
Nd161 O186 2.500 . S
Nd161 O187 2.492 . S
Nd161 O188 2.487 . S
Nd161 O189 2.682 . S
Nd161 O190 2.410 . S
C162 Nd160 2.836 . S
C162 C163 1.498 . S
C162 O180 1.258 . S
C162 O181 1.239 . S
C163 C162 1.498 . S
C163 C164 1.366 . S
C163 C168 1.407 . S
C164 C163 1.366 . S
C164 C165 1.392 . S
C164 H192 0.930 . S
C165 C164 1.392 . S
C165 C166 1.398 . S
C165 H193 0.929 . S
C166 C165 1.398 . S
C166 C167 1.352 . S
C167 C166 1.352 . S
C167 C168 1.384 . S
C167 H194 0.930 . S
C168 C163 1.407 . S
C168 C167 1.384 . S
C168 H195 0.929 . S
C169 O182 1.241 1_455 S
C169 O183 1.273 . S
C170 O184 1.251 . S
C170 O185 1.268 . S
C171 Nd161 2.836 1_554 S
C171 C172 1.498 . S
C171 O186 1.258 1_554 S
C171 O187 1.239 1_554 S
C172 C171 1.498 . S
C172 C173 1.366 . S
C172 C177 1.407 . S
C173 C172 1.366 . S
C173 C174 1.392 . S
C173 H196 0.930 . S
C174 C173 1.392 . S
C174 C175 1.398 . S
C174 H197 0.929 . S
C175 C174 1.398 . S
C175 C176 1.352 . S
C176 C175 1.352 . S
C176 C177 1.384 . S
C176 H198 0.930 . S
C177 C172 1.407 . S
C177 C176 1.384 . S
C177 H199 0.929 . S
C178 O188 1.241 . S
C178 O189 1.273 . S
C179 O190 1.251 1_655 S
C179 O191 1.268 . S
O180 Nd160 2.500 . S
O180 C162 1.258 . S
O181 Nd160 2.492 . S
O181 C162 1.239 . S
O182 Nd160 2.487 . S
O182 C169 1.241 1_655 S
O183 Nd160 2.682 1_455 S
O183 Nd161 2.414 . S
O183 C169 1.273 . S
O184 Nd160 2.410 1_455 S
O184 C170 1.251 . S
O185 Nd161 2.424 . S
O185 C170 1.268 . S
O186 Nd161 2.500 . S
O186 C171 1.258 1_556 S
O187 Nd161 2.492 . S
O187 C171 1.239 1_556 S
O188 Nd161 2.487 . S
O188 C178 1.241 . S
O189 Nd160 2.414 1_455 S
O189 Nd161 2.682 . S
O189 C178 1.273 . S
O190 Nd161 2.410 . S
O190 C179 1.251 1_455 S
O191 Nd160 2.424 . S
O191 C179 1.268 . S
H192 C164 0.930 . S
H193 C165 0.929 . S
H194 C167 0.930 . S
H195 C168 0.929 . S
H196 C173 0.930 . S
H197 C174 0.929 . S
H198 C176 0.930 . S
H199 C177 0.929 . S
Nd200 C202 2.836 . S
Nd200 O220 2.500 . S
Nd200 O221 2.492 . S
Nd200 O222 2.487 . S
Nd200 O223 2.682 . S
Nd200 O224 2.410 . S
Nd200 O229 2.414 . S
Nd200 O231 2.424 . S
Nd201 C211 2.836 . S
Nd201 O223 2.414 . S
Nd201 O225 2.424 . S
Nd201 O226 2.500 . S
Nd201 O227 2.492 . S
Nd201 O228 2.487 . S
Nd201 O229 2.682 . S
Nd201 O230 2.410 . S
C202 Nd200 2.836 . S
C202 C203 1.498 1_554 S
C202 O220 1.258 . S
C202 O221 1.239 . S
C203 C202 1.498 1_556 S
C203 C204 1.366 . S
C203 C208 1.407 . S
C204 C203 1.366 . S
C204 C205 1.392 . S
C204 H232 0.930 . S
C205 C204 1.392 . S
C205 C206 1.398 . S
C205 H233 0.929 . S
C206 C205 1.398 . S
C206 C207 1.352 . S
C207 C206 1.352 . S
C207 C208 1.384 . S
C207 H234 0.930 . S
C208 C203 1.407 . S
C208 C207 1.384 . S
C208 H235 0.929 . S
C209 O222 1.241 . S
C209 O223 1.273 . S
C210 O224 1.251 . S
C210 O225 1.268 . S
C211 Nd201 2.836 . S
C211 C212 1.498 . S
C211 O226 1.258 . S
C211 O227 1.239 . S
C212 C211 1.498 . S
C212 C213 1.366 . S
C212 C217 1.407 . S
C213 C212 1.366 . S
C213 C214 1.392 . S
C213 H236 0.930 . S
C214 C213 1.392 . S
C214 C215 1.398 . S
C214 H237 0.929 . S
C215 C214 1.398 . S
C215 C216 1.352 . S
C216 C215 1.352 . S
C216 C217 1.384 . S
C216 H238 0.930 . S
C217 C212 1.407 . S
C217 C216 1.384 . S
C217 H239 0.929 . S
C218 O228 1.241 . S
C218 O229 1.273 . S
C219 O230 1.251 . S
C219 O231 1.268 . S
O220 Nd200 2.500 . S
O220 C202 1.258 . S
O221 Nd200 2.492 . S
O221 C202 1.239 . S
O222 Nd200 2.487 . S
O222 C209 1.241 . S
O223 Nd200 2.682 . S
O223 Nd201 2.414 . S
O223 C209 1.273 . S
O224 Nd200 2.410 . S
O224 C210 1.251 . S
O225 Nd201 2.424 . S
O225 C210 1.268 . S
O226 Nd201 2.500 . S
O226 C211 1.258 . S
O227 Nd201 2.492 . S
O227 C211 1.239 . S
O228 Nd201 2.487 . S
O228 C218 1.241 . S
O229 Nd200 2.414 . S
O229 Nd201 2.682 . S
O229 C218 1.273 . S
O230 Nd201 2.410 . S
O230 C219 1.251 . S
O231 Nd200 2.424 . S
O231 C219 1.268 . S
H232 C204 0.930 . S
H233 C205 0.929 . S
H234 C207 0.930 . S
H235 C208 0.929 . S
H236 C213 0.930 . S
H237 C214 0.929 . S
H238 C216 0.930 . S
H239 C217 0.929 . S
Nd240 C242 2.836 . S
Nd240 O260 2.500 . S
Nd240 O261 2.492 . S
Nd240 O262 2.487 . S
Nd240 O263 2.682 . S
Nd240 O264 2.410 . S
Nd240 O269 2.414 . S
Nd240 O271 2.424 . S
Nd241 C251 2.836 . S
Nd241 O263 2.414 . S
Nd241 O265 2.424 . S
Nd241 O266 2.500 . S
Nd241 O267 2.492 . S
Nd241 O268 2.487 . S
Nd241 O269 2.682 . S
Nd241 O270 2.410 . S
C242 Nd240 2.836 . S
C242 C243 1.498 . S
C242 O260 1.258 . S
C242 O261 1.239 . S
C243 C242 1.498 . S
C243 C244 1.366 . S
C243 C248 1.407 . S
C244 C243 1.366 . S
C244 C245 1.392 . S
C244 H272 0.930 . S
C245 C244 1.392 . S
C245 C246 1.398 . S
C245 H273 0.929 . S
C246 C245 1.398 . S
C246 C247 1.352 . S
C247 C246 1.352 . S
C247 C248 1.384 . S
C247 H274 0.930 . S
C248 C243 1.407 . S
C248 C247 1.384 . S
C248 H275 0.929 . S
C249 O262 1.241 . S
C249 O263 1.273 . S
C250 O264 1.251 . S
C250 O265 1.268 . S
C251 Nd241 2.836 . S
C251 C252 1.498 . S
C251 O266 1.258 . S
C251 O267 1.239 . S
C252 C251 1.498 . S
C252 C253 1.366 . S
C252 C257 1.407 . S
C253 C252 1.366 . S
C253 C254 1.392 . S
C253 H276 0.930 . S
C254 C253 1.392 . S
C254 C255 1.398 . S
C254 H277 0.929 . S
C255 C254 1.398 . S
C255 C256 1.352 . S
C256 C255 1.352 . S
C256 C257 1.384 . S
C256 H278 0.930 . S
C257 C252 1.407 . S
C257 C256 1.384 . S
C257 H279 0.929 . S
C258 O268 1.241 . S
C258 O269 1.273 . S
C259 O270 1.251 . S
C259 O271 1.268 . S
O260 Nd240 2.500 . S
O260 C242 1.258 . S
O261 Nd240 2.492 . S
O261 C242 1.239 . S
O262 Nd240 2.487 . S
O262 C249 1.241 . S
O263 Nd240 2.682 . S
O263 Nd241 2.414 . S
O263 C249 1.273 . S
O264 Nd240 2.410 . S
O264 C250 1.251 . S
O265 Nd241 2.424 . S
O265 C250 1.268 . S
O266 Nd241 2.500 . S
O266 C251 1.258 . S
O267 Nd241 2.492 . S
O267 C251 1.239 . S
O268 Nd241 2.487 . S
O268 C258 1.241 . S
O269 Nd240 2.414 . S
O269 Nd241 2.682 . S
O269 C258 1.273 . S
O270 Nd241 2.410 . S
O270 C259 1.251 . S
O271 Nd240 2.424 . S
O271 C259 1.268 . S
H272 C244 0.930 . S
H273 C245 0.929 . S
H274 C247 0.930 . S
H275 C248 0.929 . S
H276 C253 0.930 . S
H277 C254 0.929 . S
H278 C256 0.930 . S
H279 C257 0.929 . S
Nd280 C282 2.836 . S
Nd280 O300 2.500 . S
Nd280 O301 2.492 . S
Nd280 O302 2.487 . S
Nd280 O303 2.682 . S
Nd280 O304 2.410 . S
Nd280 O309 2.414 . S
Nd280 O311 2.424 . S
Nd281 C291 2.836 . S
Nd281 O303 2.414 . S
Nd281 O305 2.424 . S
Nd281 O306 2.500 . S
Nd281 O307 2.492 . S
Nd281 O308 2.487 . S
Nd281 O309 2.682 . S
Nd281 O310 2.410 . S
C282 Nd280 2.836 . S
C282 C283 1.498 . S
C282 O300 1.258 . S
C282 O301 1.239 . S
C283 C282 1.498 . S
C283 C284 1.366 . S
C283 C288 1.407 . S
C284 C283 1.366 . S
C284 C285 1.392 . S
C284 H312 0.930 . S
C285 C284 1.392 . S
C285 C286 1.398 . S
C285 H313 0.929 . S
C286 C285 1.398 . S
C286 C287 1.352 . S
C287 C286 1.352 . S
C287 C288 1.384 . S
C287 H314 0.930 . S
C288 C283 1.407 . S
C288 C287 1.384 . S
C288 H315 0.929 . S
C289 O302 1.241 . S
C289 O303 1.273 . S
C290 O304 1.251 . S
C290 O305 1.268 . S
C291 Nd281 2.836 . S
C291 C292 1.498 . S
C291 O306 1.258 . S
C291 O307 1.239 . S
C292 C291 1.498 . S
C292 C293 1.366 . S
C292 C297 1.407 . S
C293 C292 1.366 . S
C293 C294 1.392 . S
C293 H316 0.930 . S
C294 C293 1.392 . S
C294 C295 1.398 . S
C294 H317 0.929 . S
C295 C294 1.398 . S
C295 C296 1.352 . S
C296 C295 1.352 . S
C296 C297 1.384 . S
C296 H318 0.930 . S
C297 C292 1.407 . S
C297 C296 1.384 . S
C297 H319 0.929 . S
C298 O308 1.241 . S
C298 O309 1.273 . S
C299 O310 1.251 . S
C299 O311 1.268 . S
O300 Nd280 2.500 . S
O300 C282 1.258 . S
O301 Nd280 2.492 . S
O301 C282 1.239 . S
O302 Nd280 2.487 . S
O302 C289 1.241 . S
O303 Nd280 2.682 . S
O303 Nd281 2.414 . S
O303 C289 1.273 . S
O304 Nd280 2.410 . S
O304 C290 1.251 . S
O305 Nd281 2.424 . S
O305 C290 1.268 . S
O306 Nd281 2.500 . S
O306 C291 1.258 . S
O307 Nd281 2.492 . S
O307 C291 1.239 . S
O308 Nd281 2.487 . S
O308 C298 1.241 . S
O309 Nd280 2.414 . S
O309 Nd281 2.682 . S
O309 C298 1.273 . S
O310 Nd281 2.410 . S
O310 C299 1.251 . S
O311 Nd280 2.424 . S
O311 C299 1.268 . S
H312 C284 0.930 . S
H313 C285 0.929 . S
H314 C287 0.930 . S
H315 C288 0.929 . S
H316 C293 0.930 . S
H317 C294 0.929 . S
H318 C296 0.930 . S
H319 C297 0.929 . S
Nd320 C322 2.836 . S
Nd320 O340 2.500 . S
Nd320 O341 2.492 . S
Nd320 O342 2.487 . S
Nd320 O343 2.682 . S
Nd320 O344 2.410 . S
Nd320 O349 2.414 . S
Nd320 O351 2.424 . S
Nd321 C331 2.836 . S
Nd321 O343 2.414 . S
Nd321 O345 2.424 . S
Nd321 O346 2.500 . S
Nd321 O347 2.492 . S
Nd321 O348 2.487 . S
Nd321 O349 2.682 . S
Nd321 O350 2.410 . S
C322 Nd320 2.836 . S
C322 C323 1.498 . S
C322 O340 1.258 . S
C322 O341 1.239 . S
C323 C322 1.498 . S
C323 C324 1.366 . S
C323 C328 1.407 . S
C324 C323 1.366 . S
C324 C325 1.392 . S
C324 H352 0.930 . S
C325 C324 1.392 . S
C325 C326 1.398 . S
C325 H353 0.929 . S
C326 C325 1.398 . S
C326 C327 1.352 . S
C327 C326 1.352 . S
C327 C328 1.384 . S
C327 H354 0.930 . S
C328 C323 1.407 . S
C328 C327 1.384 . S
C328 H355 0.929 . S
C329 O342 1.241 . S
C329 O343 1.273 . S
C330 O344 1.251 . S
C330 O345 1.268 . S
C331 Nd321 2.836 . S
C331 C332 1.498 . S
C331 O346 1.258 . S
C331 O347 1.239 . S
C332 C331 1.498 . S
C332 C333 1.366 . S
C332 C337 1.407 . S
C333 C332 1.366 . S
C333 C334 1.392 . S
C333 H356 0.930 . S
C334 C333 1.392 . S
C334 C335 1.398 . S
C334 H357 0.929 . S
C335 C334 1.398 . S
C335 C336 1.352 . S
C336 C335 1.352 . S
C336 C337 1.384 . S
C336 H358 0.930 . S
C337 C332 1.407 . S
C337 C336 1.384 . S
C337 H359 0.929 . S
C338 O348 1.241 . S
C338 O349 1.273 . S
C339 O350 1.251 . S
C339 O351 1.268 . S
O340 Nd320 2.500 . S
O340 C322 1.258 . S
O341 Nd320 2.492 . S
O341 C322 1.239 . S
O342 Nd320 2.487 . S
O342 C329 1.241 . S
O343 Nd320 2.682 . S
O343 Nd321 2.414 . S
O343 C329 1.273 . S
O344 Nd320 2.410 . S
O344 C330 1.251 . S
O345 Nd321 2.424 . S
O345 C330 1.268 . S
O346 Nd321 2.500 . S
O346 C331 1.258 . S
O347 Nd321 2.492 . S
O347 C331 1.239 . S
O348 Nd321 2.487 . S
O348 C338 1.241 . S
O349 Nd320 2.414 . S
O349 Nd321 2.682 . S
O349 C338 1.273 . S
O350 Nd321 2.410 . S
O350 C339 1.251 . S
O351 Nd320 2.424 . S
O351 C339 1.268 . S
H352 C324 0.930 . S
H353 C325 0.929 . S
H354 C327 0.930 . S
H355 C328 0.929 . S
H356 C333 0.930 . S
H357 C334 0.929 . S
H358 C336 0.930 . S
H359 C337 0.929 . S
Nd360 C362 2.836 . S
Nd360 O380 2.500 . S
Nd360 O381 2.492 . S
Nd360 O382 2.487 . S
Nd360 O383 2.682 . S
Nd360 O384 2.410 . S
Nd360 O389 2.414 . S
Nd360 O391 2.424 . S
Nd361 C371 2.836 . S
Nd361 O383 2.414 . S
Nd361 O385 2.424 . S
Nd361 O386 2.500 . S
Nd361 O387 2.492 . S
Nd361 O388 2.487 . S
Nd361 O389 2.682 . S
Nd361 O390 2.410 . S
C362 Nd360 2.836 . S
C362 C363 1.498 1_554 S
C362 O380 1.258 . S
C362 O381 1.239 . S
C363 C362 1.498 1_556 S
C363 C364 1.366 . S
C363 C368 1.407 . S
C364 C363 1.366 . S
C364 C365 1.392 . S
C364 H392 0.930 . S
C365 C364 1.392 . S
C365 C366 1.398 . S
C365 H393 0.929 . S
C366 C365 1.398 . S
C366 C367 1.352 . S
C367 C366 1.352 . S
C367 C368 1.384 . S
C367 H394 0.930 . S
C368 C363 1.407 . S
C368 C367 1.384 . S
C368 H395 0.929 . S
C369 O382 1.241 . S
C369 O383 1.273 . S
C370 O384 1.251 . S
C370 O385 1.268 . S
C371 Nd361 2.836 . S
C371 C372 1.498 . S
C371 O386 1.258 . S
C371 O387 1.239 . S
C372 C371 1.498 . S
C372 C373 1.366 . S
C372 C377 1.407 . S
C373 C372 1.366 . S
C373 C374 1.392 . S
C373 H396 0.930 . S
C374 C373 1.392 . S
C374 C375 1.398 . S
C374 H397 0.929 . S
C375 C374 1.398 . S
C375 C376 1.352 . S
C376 C375 1.352 . S
C376 C377 1.384 . S
C376 H398 0.930 . S
C377 C372 1.407 . S
C377 C376 1.384 . S
C377 H399 0.929 . S
C378 O388 1.241 . S
C378 O389 1.273 . S
C379 O390 1.251 . S
C379 O391 1.268 . S
O380 Nd360 2.500 . S
O380 C362 1.258 . S
O381 Nd360 2.492 . S
O381 C362 1.239 . S
O382 Nd360 2.487 . S
O382 C369 1.241 . S
O383 Nd360 2.682 . S
O383 Nd361 2.414 . S
O383 C369 1.273 . S
O384 Nd360 2.410 . S
O384 C370 1.251 . S
O385 Nd361 2.424 . S
O385 C370 1.268 . S
O386 Nd361 2.500 . S
O386 C371 1.258 . S
O387 Nd361 2.492 . S
O387 C371 1.239 . S
O388 Nd361 2.487 . S
O388 C378 1.241 . S
O389 Nd360 2.414 . S
O389 Nd361 2.682 . S
O389 C378 1.273 . S
O390 Nd361 2.410 . S
O390 C379 1.251 . S
O391 Nd360 2.424 . S
O391 C379 1.268 . S
H392 C364 0.930 . S
H393 C365 0.929 . S
H394 C367 0.930 . S
H395 C368 0.929 . S
H396 C373 0.930 . S
H397 C374 0.929 . S
H398 C376 0.930 . S
H399 C377 0.929 . S
Nd400 C402 2.836 . S
Nd400 O420 2.500 . S
Nd400 O421 2.492 . S
Nd400 O422 2.487 . S
Nd400 O423 2.682 . S
Nd400 O424 2.410 . S
Nd400 O429 2.414 . S
Nd400 O431 2.424 . S
Nd401 C411 2.836 . S
Nd401 O423 2.414 . S
Nd401 O425 2.424 . S
Nd401 O426 2.500 . S
Nd401 O427 2.492 . S
Nd401 O428 2.487 . S
Nd401 O429 2.682 . S
Nd401 O430 2.410 . S
C402 Nd400 2.836 . S
C402 C403 1.498 . S
C402 O420 1.258 . S
C402 O421 1.239 . S
C403 C402 1.498 . S
C403 C404 1.366 . S
C403 C408 1.407 . S
C404 C403 1.366 . S
C404 C405 1.392 . S
C404 H432 0.930 . S
C405 C404 1.392 . S
C405 C406 1.398 . S
C405 H433 0.929 . S
C406 C405 1.398 . S
C406 C407 1.352 . S
C407 C406 1.352 . S
C407 C408 1.384 . S
C407 H434 0.930 . S
C408 C403 1.407 . S
C408 C407 1.384 . S
C408 H435 0.929 . S
C409 O422 1.241 . S
C409 O423 1.273 . S
C410 O424 1.251 . S
C410 O425 1.268 . S
C411 Nd401 2.836 . S
C411 C412 1.498 1_556 S
C411 O426 1.258 . S
C411 O427 1.239 . S
C412 C411 1.498 1_554 S
C412 C413 1.366 . S
C412 C417 1.407 . S
C413 C412 1.366 . S
C413 C414 1.392 . S
C413 H436 0.930 . S
C414 C413 1.392 . S
C414 C415 1.398 . S
C414 H437 0.929 . S
C415 C414 1.398 . S
C415 C416 1.352 . S
C416 C415 1.352 . S
C416 C417 1.384 . S
C416 H438 0.930 . S
C417 C412 1.407 . S
C417 C416 1.384 . S
C417 H439 0.929 . S
C418 O428 1.241 . S
C418 O429 1.273 . S
C419 O430 1.251 . S
C419 O431 1.268 . S
O420 Nd400 2.500 . S
O420 C402 1.258 . S
O421 Nd400 2.492 . S
O421 C402 1.239 . S
O422 Nd400 2.487 . S
O422 C409 1.241 . S
O423 Nd400 2.682 . S
O423 Nd401 2.414 . S
O423 C409 1.273 . S
O424 Nd400 2.410 . S
O424 C410 1.251 . S
O425 Nd401 2.424 . S
O425 C410 1.268 . S
O426 Nd401 2.500 . S
O426 C411 1.258 . S
O427 Nd401 2.492 . S
O427 C411 1.239 . S
O428 Nd401 2.487 . S
O428 C418 1.241 . S
O429 Nd400 2.414 . S
O429 Nd401 2.682 . S
O429 C418 1.273 . S
O430 Nd401 2.410 . S
O430 C419 1.251 . S
O431 Nd400 2.424 . S
O431 C419 1.268 . S
H432 C404 0.930 . S
H433 C405 0.929 . S
H434 C407 0.930 . S
H435 C408 0.929 . S
H436 C413 0.930 . S
H437 C414 0.929 . S
H438 C416 0.930 . S
H439 C417 0.929 . S
Nd440 C442 2.836 . S
Nd440 O460 2.500 . S
Nd440 O461 2.492 . S
Nd440 O462 2.487 . S
Nd440 O463 2.682 . S
Nd440 O464 2.410 . S
Nd440 O469 2.414 . S
Nd440 O471 2.424 . S
Nd441 C451 2.836 . S
Nd441 O463 2.414 . S
Nd441 O465 2.424 . S
Nd441 O466 2.500 . S
Nd441 O467 2.492 . S
Nd441 O468 2.487 . S
Nd441 O469 2.682 . S
Nd441 O470 2.410 . S
C442 Nd440 2.836 . S
C442 C443 1.498 . S
C442 O460 1.258 . S
C442 O461 1.239 . S
C443 C442 1.498 . S
C443 C444 1.366 . S
C443 C448 1.407 . S
C444 C443 1.366 . S
C444 C445 1.392 . S
C444 H472 0.930 . S
C445 C444 1.392 . S
C445 C446 1.398 . S
C445 H473 0.929 . S
C446 C445 1.398 . S
C446 C447 1.352 . S
C447 C446 1.352 . S
C447 C448 1.384 . S
C447 H474 0.930 . S
C448 C443 1.407 . S
C448 C447 1.384 . S
C448 H475 0.929 . S
C449 O462 1.241 . S
C449 O463 1.273 . S
C450 O464 1.251 . S
C450 O465 1.268 . S
C451 Nd441 2.836 . S
C451 C452 1.498 . S
C451 O466 1.258 . S
C451 O467 1.239 . S
C452 C451 1.498 . S
C452 C453 1.366 . S
C452 C457 1.407 . S
C453 C452 1.366 . S
C453 C454 1.392 . S
C453 H476 0.930 . S
C454 C453 1.392 . S
C454 C455 1.398 . S
C454 H477 0.929 . S
C455 C454 1.398 . S
C455 C456 1.352 . S
C456 C455 1.352 . S
C456 C457 1.384 . S
C456 H478 0.930 . S
C457 C452 1.407 . S
C457 C456 1.384 . S
C457 H479 0.929 . S
C458 O468 1.241 . S
C458 O469 1.273 . S
C459 O470 1.251 . S
C459 O471 1.268 . S
O460 Nd440 2.500 . S
O460 C442 1.258 . S
O461 Nd440 2.492 . S
O461 C442 1.239 . S
O462 Nd440 2.487 . S
O462 C449 1.241 . S
O463 Nd440 2.682 . S
O463 Nd441 2.414 . S
O463 C449 1.273 . S
O464 Nd440 2.410 . S
O464 C450 1.251 . S
O465 Nd441 2.424 . S
O465 C450 1.268 . S
O466 Nd441 2.500 . S
O466 C451 1.258 . S
O467 Nd441 2.492 . S
O467 C451 1.239 . S
O468 Nd441 2.487 . S
O468 C458 1.241 . S
O469 Nd440 2.414 . S
O469 Nd441 2.682 . S
O469 C458 1.273 . S
O470 Nd441 2.410 . S
O470 C459 1.251 . S
O471 Nd440 2.424 . S
O471 C459 1.268 . S
H472 C444 0.930 . S
H473 C445 0.929 . S
H474 C447 0.930 . S
H475 C448 0.929 . S
H476 C453 0.930 . S
H477 C454 0.929 . S
H478 C456 0.930 . S
H479 C457 0.929 . S
Nd480 C482 2.836 . S
Nd480 O500 2.500 . S
Nd480 O501 2.492 . S
Nd480 O502 2.487 . S
Nd480 O503 2.682 . S
Nd480 O504 2.410 . S
Nd480 O509 2.414 . S
Nd480 O511 2.424 . S
Nd481 C491 2.836 . S
Nd481 O503 2.414 . S
Nd481 O505 2.424 . S
Nd481 O506 2.500 . S
Nd481 O507 2.492 . S
Nd481 O508 2.487 . S
Nd481 O509 2.682 . S
Nd481 O510 2.410 . S
C482 Nd480 2.836 . S
C482 C483 1.498 . S
C482 O500 1.258 . S
C482 O501 1.239 . S
C483 C482 1.498 . S
C483 C484 1.366 . S
C483 C488 1.407 . S
C484 C483 1.366 . S
C484 C485 1.392 . S
C484 H512 0.930 . S
C485 C484 1.392 . S
C485 C486 1.398 . S
C485 H513 0.929 . S
C486 C485 1.398 . S
C486 C487 1.352 . S
C487 C486 1.352 . S
C487 C488 1.384 . S
C487 H514 0.930 . S
C488 C483 1.407 . S
C488 C487 1.384 . S
C488 H515 0.929 . S
C489 O502 1.241 . S
C489 O503 1.273 . S
C490 O504 1.251 . S
C490 O505 1.268 . S
C491 Nd481 2.836 . S
C491 C492 1.498 . S
C491 O506 1.258 . S
C491 O507 1.239 . S
C492 C491 1.498 . S
C492 C493 1.366 . S
C492 C497 1.407 . S
C493 C492 1.366 . S
C493 C494 1.392 . S
C493 H516 0.930 . S
C494 C493 1.392 . S
C494 C495 1.398 . S
C494 H517 0.929 . S
C495 C494 1.398 . S
C495 C496 1.352 . S
C496 C495 1.352 . S
C496 C497 1.384 . S
C496 H518 0.930 . S
C497 C492 1.407 . S
C497 C496 1.384 . S
C497 H519 0.929 . S
C498 O508 1.241 . S
C498 O509 1.273 . S
C499 O510 1.251 . S
C499 O511 1.268 . S
O500 Nd480 2.500 . S
O500 C482 1.258 . S
O501 Nd480 2.492 . S
O501 C482 1.239 . S
O502 Nd480 2.487 . S
O502 C489 1.241 . S
O503 Nd480 2.682 . S
O503 Nd481 2.414 . S
O503 C489 1.273 . S
O504 Nd480 2.410 . S
O504 C490 1.251 . S
O505 Nd481 2.424 . S
O505 C490 1.268 . S
O506 Nd481 2.500 . S
O506 C491 1.258 . S
O507 Nd481 2.492 . S
O507 C491 1.239 . S
O508 Nd481 2.487 . S
O508 C498 1.241 . S
O509 Nd480 2.414 . S
O509 Nd481 2.682 . S
O509 C498 1.273 . S
O510 Nd481 2.410 . S
O510 C499 1.251 . S
O511 Nd480 2.424 . S
O511 C499 1.268 . S
H512 C484 0.930 . S
H513 C485 0.929 . S
H514 C487 0.930 . S
H515 C488 0.929 . S
H516 C493 0.930 . S
H517 C494 0.929 . S
H518 C496 0.930 . S
H519 C497 0.929 . S
Nd520 C522 2.836 1_554 S
Nd520 O540 2.500 . S
Nd520 O541 2.492 . S
Nd520 O542 2.487 . S
Nd520 O543 2.682 . S
Nd520 O544 2.410 . S
Nd520 O549 2.414 . S
Nd520 O551 2.424 . S
Nd521 C531 2.836 . S
Nd521 O543 2.414 1_655 S
Nd521 O545 2.424 . S
Nd521 O546 2.500 . S
Nd521 O547 2.492 . S
Nd521 O548 2.487 . S
Nd521 O549 2.682 1_655 S
Nd521 O550 2.410 1_655 S
C522 Nd520 2.836 1_556 S
C522 C523 1.498 . S
C522 O540 1.258 1_556 S
C522 O541 1.239 1_556 S
C523 C522 1.498 . S
C523 C524 1.366 . S
C523 C528 1.407 . S
C524 C523 1.366 . S
C524 C525 1.392 . S
C524 H552 0.930 . S
C525 C524 1.392 . S
C525 C526 1.398 . S
C525 H553 0.929 . S
C526 C525 1.398 . S
C526 C527 1.352 . S
C527 C526 1.352 . S
C527 C528 1.384 . S
C527 H554 0.930 . S
C528 C523 1.407 . S
C528 C527 1.384 . S
C528 H555 0.929 . S
C529 O542 1.241 . S
C529 O543 1.273 . S
C530 O544 1.251 1_655 S
C530 O545 1.268 . S
C531 Nd521 2.836 . S
C531 C532 1.498 . S
C531 O546 1.258 . S
C531 O547 1.239 . S
C532 C531 1.498 . S
C532 C533 1.366 . S
C532 C537 1.407 . S
C533 C532 1.366 . S
C533 C534 1.392 . S
C533 H556 0.930 . S
C534 C533 1.392 . S
C534 C535 1.398 . S
C534 H557 0.929 . S
C535 C534 1.398 . S
C535 C536 1.352 . S
C536 C535 1.352 . S
C536 C537 1.384 . S
C536 H558 0.930 . S
C537 C532 1.407 . S
C537 C536 1.384 . S
C537 H559 0.929 . S
C538 O548 1.241 1_455 S
C538 O549 1.273 . S
C539 O550 1.251 . S
C539 O551 1.268 . S
O540 Nd520 2.500 . S
O540 C522 1.258 1_554 S
O541 Nd520 2.492 . S
O541 C522 1.239 1_554 S
O542 Nd520 2.487 . S
O542 C529 1.241 . S
O543 Nd520 2.682 . S
O543 Nd521 2.414 1_455 S
O543 C529 1.273 . S
O544 Nd520 2.410 . S
O544 C530 1.251 1_455 S
O545 Nd521 2.424 . S
O545 C530 1.268 . S
O546 Nd521 2.500 . S
O546 C531 1.258 . S
O547 Nd521 2.492 . S
O547 C531 1.239 . S
O548 Nd521 2.487 . S
O548 C538 1.241 1_655 S
O549 Nd520 2.414 . S
O549 Nd521 2.682 1_455 S
O549 C538 1.273 . S
O550 Nd521 2.410 1_455 S
O550 C539 1.251 . S
O551 Nd520 2.424 . S
O551 C539 1.268 . S
H552 C524 0.930 . S
H553 C525 0.929 . S
H554 C527 0.930 . S
H555 C528 0.929 . S
H556 C533 0.930 . S
H557 C534 0.929 . S
H558 C536 0.930 . S
H559 C537 0.929 . S
Nd560 C562 2.836 . S
Nd560 O580 2.500 . S
Nd560 O581 2.492 . S
Nd560 O582 2.487 . S
Nd560 O583 2.682 . S
Nd560 O584 2.410 . S
Nd560 O589 2.414 . S
Nd560 O591 2.424 . S
Nd561 C571 2.836 . S
Nd561 O583 2.414 . S
Nd561 O585 2.424 . S
Nd561 O586 2.500 . S
Nd561 O587 2.492 . S
Nd561 O588 2.487 . S
Nd561 O589 2.682 . S
Nd561 O590 2.410 . S
C562 Nd560 2.836 . S
C562 C563 1.498 . S
C562 O580 1.258 . S
C562 O581 1.239 . S
C563 C562 1.498 . S
C563 C564 1.366 . S
C563 C568 1.407 . S
C564 C563 1.366 . S
C564 C565 1.392 . S
C564 H592 0.930 . S
C565 C564 1.392 . S
C565 C566 1.398 . S
C565 H593 0.929 . S
C566 C565 1.398 . S
C566 C567 1.352 . S
C567 C566 1.352 . S
C567 C568 1.384 . S
C567 H594 0.930 . S
C568 C563 1.407 . S
C568 C567 1.384 . S
C568 H595 0.929 . S
C569 O582 1.241 . S
C569 O583 1.273 . S
C570 O584 1.251 . S
C570 O585 1.268 . S
C571 Nd561 2.836 . S
C571 C572 1.498 . S
C571 O586 1.258 . S
C571 O587 1.239 . S
C572 C571 1.498 . S
C572 C573 1.366 . S
C572 C577 1.407 . S
C573 C572 1.366 . S
C573 C574 1.392 . S
C573 H596 0.930 . S
C574 C573 1.392 . S
C574 C575 1.398 . S
C574 H597 0.929 . S
C575 C574 1.398 . S
C575 C576 1.352 . S
C576 C575 1.352 . S
C576 C577 1.384 . S
C576 H598 0.930 . S
C577 C572 1.407 . S
C577 C576 1.384 . S
C577 H599 0.929 . S
C578 O588 1.241 . S
C578 O589 1.273 . S
C579 O590 1.251 . S
C579 O591 1.268 . S
O580 Nd560 2.500 . S
O580 C562 1.258 . S
O581 Nd560 2.492 . S
O581 C562 1.239 . S
O582 Nd560 2.487 . S
O582 C569 1.241 . S
O583 Nd560 2.682 . S
O583 Nd561 2.414 . S
O583 C569 1.273 . S
O584 Nd560 2.410 . S
O584 C570 1.251 . S
O585 Nd561 2.424 . S
O585 C570 1.268 . S
O586 Nd561 2.500 . S
O586 C571 1.258 . S
O587 Nd561 2.492 . S
O587 C571 1.239 . S
O588 Nd561 2.487 . S
O588 C578 1.241 . S
O589 Nd560 2.414 . S
O589 Nd561 2.682 . S
O589 C578 1.273 . S
O590 Nd561 2.410 . S
O590 C579 1.251 . S
O591 Nd560 2.424 . S
O591 C579 1.268 . S
H592 C564 0.930 . S
H593 C565 0.929 . S
H594 C567 0.930 . S
H595 C568 0.929 . S
H596 C573 0.930 . S
H597 C574 0.929 . S
H598 C576 0.930 . S
H599 C577 0.929 . S
Nd600 C602 2.836 . S
Nd600 O620 2.500 . S
Nd600 O621 2.492 . S
Nd600 O622 2.487 . S
Nd600 O623 2.682 1_455 S
Nd600 O624 2.410 1_455 S
Nd600 O629 2.414 . S
Nd600 O631 2.424 . S
Nd601 C611 2.836 1_556 S
Nd601 O623 2.414 . S
Nd601 O625 2.424 . S
Nd601 O626 2.500 . S
Nd601 O627 2.492 . S
Nd601 O628 2.487 . S
Nd601 O629 2.682 1_655 S
Nd601 O630 2.410 1_655 S
C602 Nd600 2.836 . S
C602 C603 1.498 . S
C602 O620 1.258 . S
C602 O621 1.239 . S
C603 C602 1.498 . S
C603 C604 1.366 . S
C603 C608 1.407 . S
C604 C603 1.366 . S
C604 C605 1.392 . S
C604 H632 0.930 . S
C605 C604 1.392 . S
C605 C606 1.398 . S
C605 H633 0.929 . S
C606 C605 1.398 . S
C606 C607 1.352 . S
C607 C606 1.352 . S
C607 C608 1.384 . S
C607 H634 0.930 . S
C608 C603 1.407 . S
C608 C607 1.384 . S
C608 H635 0.929 . S
C609 O622 1.241 . S
C609 O623 1.273 1_455 S
C610 O624 1.251 . S
C610 O625 1.268 . S
C611 Nd601 2.836 1_554 S
C611 C612 1.498 . S
C611 O626 1.258 1_554 S
C611 O627 1.239 1_554 S
C612 C611 1.498 . S
C612 C613 1.366 . S
C612 C617 1.407 . S
C613 C612 1.366 . S
C613 C614 1.392 . S
C613 H636 0.930 . S
C614 C613 1.392 . S
C614 C615 1.398 . S
C614 H637 0.929 . S
C615 C614 1.398 . S
C615 C616 1.352 . S
C616 C615 1.352 . S
C616 C617 1.384 . S
C616 H638 0.930 . S
C617 C612 1.407 . S
C617 C616 1.384 . S
C617 H639 0.929 . S
C618 O628 1.241 . S
C618 O629 1.273 1_655 S
C619 O630 1.251 . S
C619 O631 1.268 . S
O620 Nd600 2.500 . S
O620 C602 1.258 . S
O621 Nd600 2.492 . S
O621 C602 1.239 . S
O622 Nd600 2.487 . S
O622 C609 1.241 . S
O623 Nd600 2.682 1_655 S
O623 Nd601 2.414 . S
O623 C609 1.273 1_655 S
O624 Nd600 2.410 1_655 S
O624 C610 1.251 . S
O625 Nd601 2.424 . S
O625 C610 1.268 . S
O626 Nd601 2.500 . S
O626 C611 1.258 1_556 S
O627 Nd601 2.492 . S
O627 C611 1.239 1_556 S
O628 Nd601 2.487 . S
O628 C618 1.241 . S
O629 Nd600 2.414 . S
O629 Nd601 2.682 1_455 S
O629 C618 1.273 1_455 S
O630 Nd601 2.410 1_455 S
O630 C619 1.251 . S
O631 Nd600 2.424 . S
O631 C619 1.268 . S
H632 C604 0.930 . S
H633 C605 0.929 . S
H634 C607 0.930 . S
H635 C608 0.929 . S
H636 C613 0.930 . S
H637 C614 0.929 . S
H638 C616 0.930 . S
H639 C617 0.929 . S
C640 C641 1.387 . S
C640 H644 0.950 . S
C640 C649 1.390 . S
C641 C640 1.387 . S
C641 C643 1.387 . S
H642 C649 0.950 . S
C643 C641 1.387 . S
C643 C645 1.390 . S
C643 H647 0.950 . S
H644 C640 0.950 . S
C645 C643 1.390 . S
C645 C646 1.387 . S
C645 H648 0.950 . S
C646 C645 1.387 . S
C646 C649 1.387 . S
H647 C643 0.950 . S
H648 C645 0.950 . S
C649 C640 1.390 . S
C649 H642 0.950 . S
C649 C646 1.387 . S
C650 C651 1.387 . S
C650 H654 0.950 . S
C650 C659 1.390 . S
C651 C650 1.387 . S
C651 C653 1.387 . S
H652 C659 0.950 . S
C653 C651 1.387 . S
C653 C655 1.390 . S
C653 H657 0.950 . S
H654 C650 0.950 . S
C655 C653 1.390 . S
C655 C656 1.387 . S
C655 H658 0.950 . S
C656 C655 1.387 . S
C656 C659 1.387 . S
H657 C653 0.950 . S
H658 C655 0.950 . S
C659 C650 1.390 . S
C659 H652 0.950 . S
C659 C656 1.387 . S
C660 C661 1.387 . S
C660 H664 0.950 . S
C660 C669 1.390 . S
C661 C660 1.387 . S
C661 C663 1.387 . S
H662 C669 0.950 . S
C663 C661 1.387 . S
C663 C665 1.390 . S
C663 H667 0.950 . S
H664 C660 0.950 . S
C665 C663 1.390 . S
C665 C666 1.387 . S
C665 H668 0.950 . S
C666 C665 1.387 . S
C666 C669 1.387 . S
H667 C663 0.950 . S
H668 C665 0.950 . S
C669 C660 1.390 . S
C669 H662 0.950 . S
C669 C666 1.387 . S
C670 C671 1.387 . S
C670 H674 0.950 . S
C670 C679 1.390 . S
C671 C670 1.387 . S
C671 C673 1.387 . S
H672 C679 0.950 . S
C673 C671 1.387 . S
C673 C675 1.390 . S
C673 H677 0.950 . S
H674 C670 0.950 . S
C675 C673 1.390 . S
C675 C676 1.387 . S
C675 H678 0.950 . S
C676 C675 1.387 . S
C676 C679 1.387 . S
H677 C673 0.950 . S
H678 C675 0.950 . S
C679 C670 1.390 . S
C679 H672 0.950 . S
C679 C676 1.387 . S
C680 C681 1.387 . S
C680 H684 0.950 . S
C680 C689 1.390 . S
C681 C680 1.387 . S
C681 C683 1.387 . S
H682 C689 0.950 . S
C683 C681 1.387 . S
C683 C685 1.390 . S
C683 H687 0.950 . S
H684 C680 0.950 . S
C685 C683 1.390 . S
C685 C686 1.387 . S
C685 H688 0.950 . S
C686 C685 1.387 . S
C686 C689 1.387 . S
H687 C683 0.950 . S
H688 C685 0.950 . S
C689 C680 1.390 . S
C689 H682 0.950 . S
C689 C686 1.387 . S
C690 C691 1.387 . S
C690 H694 0.950 . S
C690 C699 1.390 . S
C691 C690 1.387 . S
C691 C693 1.387 . S
H692 C699 0.950 . S
C693 C691 1.387 . S
C693 C695 1.390 . S
C693 H697 0.950 . S
H694 C690 0.950 . S
C695 C693 1.390 . S
C695 C696 1.387 . S
C695 H698 0.950 . S
C696 C695 1.387 . S
C696 C699 1.387 . S
H697 C693 0.950 . S
H698 C695 0.950 . S
C699 C690 1.390 . S
C699 H692 0.950 . S
C699 C696 1.387 . S
C700 C701 1.387 . S
C700 H704 0.950 . S
C700 C709 1.390 . S
C701 C700 1.387 . S
C701 C703 1.387 . S
H702 C709 0.950 . S
C703 C701 1.387 . S
C703 C705 1.390 . S
C703 H707 0.950 . S
H704 C700 0.950 . S
C705 C703 1.390 . S
C705 C706 1.387 . S
C705 H708 0.950 . S
C706 C705 1.387 . S
C706 C709 1.387 . S
H707 C703 0.950 . S
H708 C705 0.950 . S
C709 C700 1.390 . S
C709 H702 0.950 . S
C709 C706 1.387 . S
C710 C711 1.387 . S
C710 H714 0.950 . S
C710 C719 1.390 . S
C711 C710 1.387 . S
C711 C713 1.387 . S
H712 C719 0.950 . S
C713 C711 1.387 . S
C713 C715 1.390 . S
C713 H717 0.950 . S
H714 C710 0.950 . S
C715 C713 1.390 . S
C715 C716 1.387 . S
C715 H718 0.950 . S
C716 C715 1.387 . S
C716 C719 1.387 . S
H717 C713 0.950 . S
H718 C715 0.950 . S
C719 C710 1.390 . S
C719 H712 0.950 . S
C719 C716 1.387 . S
C720 C721 1.387 . S
C720 H724 0.950 . S
C720 C729 1.390 . S
C721 C720 1.387 . S
C721 C723 1.387 . S
H722 C729 0.950 . S
C723 C721 1.387 . S
C723 C725 1.390 . S
C723 H727 0.950 . S
H724 C720 0.950 . S
C725 C723 1.390 . S
C725 C726 1.387 . S
C725 H728 0.950 . S
C726 C725 1.387 . S
C726 C729 1.387 . S
H727 C723 0.950 . S
H728 C725 0.950 . S
C729 C720 1.390 . S
C729 H722 0.950 . S
C729 C726 1.387 . S
C730 C731 1.387 . S
C730 H734 0.950 . S
C730 C739 1.390 . S
C731 C730 1.387 . S
C731 C733 1.387 . S
H732 C739 0.950 . S
C733 C731 1.387 . S
C733 C735 1.390 . S
C733 H737 0.950 . S
H734 C730 0.950 . S
C735 C733 1.390 . S
C735 C736 1.387 . S
C735 H738 0.950 . S
C736 C735 1.387 . S
C736 C739 1.387 . S
H737 C733 0.950 . S
H738 C735 0.950 . S
C739 C730 1.390 . S
C739 H732 0.950 . S
C739 C736 1.387 . S
C740 C741 1.387 . S
C740 H744 0.950 . S
C740 C749 1.390 . S
C741 C740 1.387 . S
C741 C743 1.387 . S
H742 C749 0.950 . S
C743 C741 1.387 . S
C743 C745 1.390 . S
C743 H747 0.950 . S
H744 C740 0.950 . S
C745 C743 1.390 . S
C745 C746 1.387 . S
C745 H748 0.950 . S
C746 C745 1.387 . S
C746 C749 1.387 . S
H747 C743 0.950 . S
H748 C745 0.950 . S
C749 C740 1.390 . S
C749 H742 0.950 . S
C749 C746 1.387 . S
C750 C751 1.387 . S
C750 H754 0.950 . S
C750 C759 1.390 . S
C751 C750 1.387 . S
C751 C753 1.387 . S
H752 C759 0.950 . S
C753 C751 1.387 . S
C753 C755 1.390 . S
C753 H757 0.950 . S
H754 C750 0.950 . S
C755 C753 1.390 . S
C755 C756 1.387 . S
C755 H758 0.950 . S
C756 C755 1.387 . S
C756 C759 1.387 . S
H757 C753 0.950 . S
H758 C755 0.950 . S
C759 C750 1.390 . S
C759 H752 0.950 . S
C759 C756 1.387 . S
C760 C761 1.387 . S
C760 H764 0.950 . S
C760 C769 1.390 . S
C761 C760 1.387 . S
C761 C763 1.387 . S
H762 C769 0.950 . S
C763 C761 1.387 . S
C763 C765 1.390 . S
C763 H767 0.950 . S
H764 C760 0.950 . S
C765 C763 1.390 . S
C765 C766 1.387 . S
C765 H768 0.950 . S
C766 C765 1.387 . S
C766 C769 1.387 . S
H767 C763 0.950 . S
H768 C765 0.950 . S
C769 C760 1.390 . S
C769 H762 0.950 . S
C769 C766 1.387 . S
C770 C771 1.387 . S
C770 H774 0.950 . S
C770 C779 1.390 . S
C771 C770 1.387 . S
C771 C773 1.387 . S
H772 C779 0.950 . S
C773 C771 1.387 . S
C773 C775 1.390 . S
C773 H777 0.950 . S
H774 C770 0.950 . S
C775 C773 1.390 . S
C775 C776 1.387 . S
C775 H778 0.950 . S
C776 C775 1.387 . S
C776 C779 1.387 . S
H777 C773 0.950 . S
H778 C775 0.950 . S
C779 C770 1.390 . S
C779 H772 0.950 . S
C779 C776 1.387 . S
C780 C781 1.387 . S
C780 H784 0.950 . S
C780 C789 1.390 . S
C781 C780 1.387 . S
C781 C783 1.387 . S
H782 C789 0.950 . S
C783 C781 1.387 . S
C783 C785 1.390 . S
C783 H787 0.950 . S
H784 C780 0.950 . S
C785 C783 1.390 . S
C785 C786 1.387 . S
C785 H788 0.950 . S
C786 C785 1.387 . S
C786 C789 1.387 . S
H787 C783 0.950 . S
H788 C785 0.950 . S
C789 C780 1.390 . S
C789 H782 0.950 . S
C789 C786 1.387 . S
C790 C791 1.387 . S
C790 H794 0.950 . S
C790 C799 1.390 . S
C791 C790 1.387 . S
C791 C793 1.387 . S
H792 C799 0.950 . S
C793 C791 1.387 . S
C793 C795 1.390 . S
C793 H797 0.950 . S
H794 C790 0.950 . S
C795 C793 1.390 . S
C795 C796 1.387 . S
C795 H798 0.950 . S
C796 C795 1.387 . S
C796 C799 1.387 . S
H797 C793 0.950 . S
H798 C795 0.950 . S
C799 C790 1.390 . S
C799 H792 0.950 . S
C799 C796 1.387 . S
C800 C801 1.387 . S
C800 H804 0.950 . S
C800 C809 1.390 . S
C801 C800 1.387 . S
C801 C803 1.387 . S
H802 C809 0.950 . S
C803 C801 1.387 . S
C803 C805 1.390 . S
C803 H807 0.950 . S
H804 C800 0.950 . S
C805 C803 1.390 . S
C805 C806 1.387 . S
C805 H808 0.950 . S
C806 C805 1.387 . S
C806 C809 1.387 . S
H807 C803 0.950 . S
H808 C805 0.950 . S
C809 C800 1.390 . S
C809 H802 0.950 . S
C809 C806 1.387 . S
C810 C811 1.387 . S
C810 H814 0.950 . S
C810 C819 1.390 1_655 S
C811 C810 1.387 . S
C811 C813 1.387 . S
H812 C819 0.950 . S
C813 C811 1.387 . S
C813 C815 1.390 1_655 S
C813 H817 0.950 . S
H814 C810 0.950 . S
C815 C813 1.390 1_455 S
C815 C816 1.387 . S
C815 H818 0.950 . S
C816 C815 1.387 . S
C816 C819 1.387 . S
H817 C813 0.950 . S
H818 C815 0.950 . S
C819 C810 1.390 1_455 S
C819 H812 0.950 . S
C819 C816 1.387 . S
C820 C821 1.387 . S
C820 H824 0.950 . S
C820 C829 1.390 . S
C821 C820 1.387 . S
C821 C823 1.387 . S
H822 C829 0.950 . S
C823 C821 1.387 . S
C823 C825 1.390 . S
C823 H827 0.950 . S
H824 C820 0.950 . S
C825 C823 1.390 . S
C825 C826 1.387 . S
C825 H828 0.950 . S
C826 C825 1.387 . S
C826 C829 1.387 . S
H827 C823 0.950 . S
H828 C825 0.950 . S
C829 C820 1.390 . S
C829 H822 0.950 . S
C829 C826 1.387 . S
C830 C831 1.387 . S
C830 H834 0.950 . S
C830 C839 1.390 . S
C831 C830 1.387 . S
C831 C833 1.387 . S
H832 C839 0.950 . S
C833 C831 1.387 . S
C833 C835 1.390 . S
C833 H837 0.950 . S
H834 C830 0.950 . S
C835 C833 1.390 . S
C835 C836 1.387 . S
C835 H838 0.950 . S
C836 C835 1.387 . S
C836 C839 1.387 . S
H837 C833 0.950 . S
H838 C835 0.950 . S
C839 C830 1.390 . S
C839 H832 0.950 . S
C839 C836 1.387 . S
C840 C841 1.387 . S
C840 H844 0.950 . S
C840 C849 1.390 . S
C841 C840 1.387 . S
C841 C843 1.387 . S
H842 C849 0.950 . S
C843 C841 1.387 . S
C843 C845 1.390 . S
C843 H847 0.950 . S
H844 C840 0.950 . S
C845 C843 1.390 . S
C845 C846 1.387 . S
C845 H848 0.950 . S
C846 C845 1.387 . S
C846 C849 1.387 . S
H847 C843 0.950 . S
H848 C845 0.950 . S
C849 C840 1.390 . S
C849 H842 0.950 . S
C849 C846 1.387 . S
C850 C851 1.387 . S
C850 H854 0.950 . S
C850 C859 1.390 . S
C851 C850 1.387 . S
C851 C853 1.387 . S
H852 C859 0.950 . S
C853 C851 1.387 . S
C853 C855 1.390 . S
C853 H857 0.950 . S
H854 C850 0.950 . S
C855 C853 1.390 . S
C855 C856 1.387 . S
C855 H858 0.950 . S
C856 C855 1.387 . S
C856 C859 1.387 . S
H857 C853 0.950 . S
H858 C855 0.950 . S
C859 C850 1.390 . S
C859 H852 0.950 . S
C859 C856 1.387 . S
C860 C861 1.387 . S
C860 H864 0.950 . S
C860 C869 1.390 . S
C861 C860 1.387 . S
C861 C863 1.387 . S
H862 C869 0.950 . S
C863 C861 1.387 . S
C863 C865 1.390 . S
C863 H867 0.950 . S
H864 C860 0.950 . S
C865 C863 1.390 . S
C865 C866 1.387 . S
C865 H868 0.950 . S
C866 C865 1.387 . S
C866 C869 1.387 . S
H867 C863 0.950 . S
H868 C865 0.950 . S
C869 C860 1.390 . S
C869 H862 0.950 . S
C869 C866 1.387 . S
C870 C871 1.387 . S
C870 H874 0.950 . S
C870 C879 1.390 1_455 S
C871 C870 1.387 . S
C871 C873 1.387 . S
H872 C879 0.950 . S
C873 C871 1.387 . S
C873 C875 1.390 1_455 S
C873 H877 0.950 . S
H874 C870 0.950 . S
C875 C873 1.390 1_655 S
C875 C876 1.387 . S
C875 H878 0.950 . S
C876 C875 1.387 . S
C876 C879 1.387 . S
H877 C873 0.950 . S
H878 C875 0.950 . S
C879 C870 1.390 1_655 S
C879 H872 0.950 . S
C879 C876 1.387 . S
C880 C881 1.387 . S
C880 H884 0.950 . S
C880 C889 1.390 1_554 S
C881 C880 1.387 . S
C881 C883 1.387 1_445 S
H882 C889 0.950 . S
C883 C881 1.387 1_665 S
C883 C885 1.390 1_554 S
C883 H887 0.950 . S
H884 C880 0.950 . S
C885 C883 1.390 1_556 S
C885 C886 1.387 1_655 S
C885 H888 0.950 . S
C886 C885 1.387 1_455 S
C886 C889 1.387 1_565 S
H887 C883 0.950 . S
H888 C885 0.950 . S
C889 C880 1.390 1_556 S
C889 H882 0.950 . S
C889 C886 1.387 1_545 S
C890 C891 1.387 . S
C890 H894 0.950 . S
C890 C899 1.390 . S
C891 C890 1.387 . S
C891 C893 1.387 . S
H892 C899 0.950 . S
C893 C891 1.387 . S
C893 C895 1.390 . S
C893 H897 0.950 . S
H894 C890 0.950 . S
C895 C893 1.390 . S
C895 C896 1.387 . S
C895 H898 0.950 . S
C896 C895 1.387 . S
C896 C899 1.387 . S
H897 C893 0.950 . S
H898 C895 0.950 . S
C899 C890 1.390 . S
C899 H892 0.950 . S
C899 C896 1.387 . S
C900 C901 1.387 1_565 S
C900 H904 0.950 . S
C900 C909 1.390 . S
C901 C900 1.387 1_545 S
C901 C903 1.387 . S
H902 C909 0.950 . S
C903 C901 1.387 . S
C903 C905 1.390 . S
C903 H907 0.950 . S
H904 C900 0.950 . S
C905 C903 1.390 . S
C905 C906 1.387 1_545 S
C905 H908 0.950 . S
C906 C905 1.387 1_565 S
C906 C909 1.387 . S
H907 C903 0.950 . S
H908 C905 0.950 . S
C909 C900 1.390 . S
C909 H902 0.950 . S
C909 C906 1.387 . S
C910 C911 1.387 . S
C910 H914 0.950 . S
C910 C919 1.390 . S
C911 C910 1.387 . S
C911 C913 1.387 . S
H912 C919 0.950 . S
C913 C911 1.387 . S
C913 C915 1.390 . S
C913 H917 0.950 . S
H914 C910 0.950 . S
C915 C913 1.390 . S
C915 C916 1.387 . S
C915 H918 0.950 . S
C916 C915 1.387 . S
C916 C919 1.387 . S
H917 C913 0.950 . S
H918 C915 0.950 . S
C919 C910 1.390 . S
C919 H912 0.950 . S
C919 C916 1.387 . S
C920 C921 1.387 . S
C920 H924 0.950 . S
C920 C929 1.390 . S
C921 C920 1.387 . S
C921 C923 1.387 . S
H922 C929 0.950 . S
C923 C921 1.387 . S
C923 C925 1.390 . S
C923 H927 0.950 . S
H924 C920 0.950 . S
C925 C923 1.390 . S
C925 C926 1.387 . S
C925 H928 0.950 . S
C926 C925 1.387 . S
C926 C929 1.387 . S
H927 C923 0.950 . S
H928 C925 0.950 . S
C929 C920 1.390 . S
C929 H922 0.950 . S
C929 C926 1.387 . S
C930 C931 1.387 . S
C930 H934 0.950 . S
C930 C939 1.390 . S
C931 C930 1.387 . S
C931 C933 1.387 . S
H932 C939 0.950 . S
C933 C931 1.387 . S
C933 C935 1.390 . S
C933 H937 0.950 . S
H934 C930 0.950 . S
C935 C933 1.390 . S
C935 C936 1.387 . S
C935 H938 0.950 . S
C936 C935 1.387 . S
C936 C939 1.387 . S
H937 C933 0.950 . S
H938 C935 0.950 . S
C939 C930 1.390 . S
C939 H932 0.950 . S
C939 C936 1.387 . S
C940 C941 1.387 . S
C940 H944 0.950 . S
C940 C949 1.390 . S
C941 C940 1.387 . S
C941 C943 1.387 . S
H942 C949 0.950 . S
C943 C941 1.387 . S
C943 C945 1.390 . S
C943 H947 0.950 . S
H944 C940 0.950 . S
C945 C943 1.390 . S
C945 C946 1.387 . S
C945 H948 0.950 . S
C946 C945 1.387 . S
C946 C949 1.387 . S
H947 C943 0.950 . S
H948 C945 0.950 . S
C949 C940 1.390 . S
C949 H942 0.950 . S
C949 C946 1.387 . S
C950 C951 1.387 . S
C950 H954 0.950 . S
C950 C959 1.390 1_556 S
C951 C950 1.387 . S
C951 C953 1.387 1_455 S
H952 C959 0.950 . S
C953 C951 1.387 1_655 S
C953 C955 1.390 1_556 S
C953 H957 0.950 . S
H954 C950 0.950 . S
C955 C953 1.390 1_554 S
C955 C956 1.387 1_655 S
C955 H958 0.950 . S
C956 C955 1.387 1_455 S
C956 C959 1.387 . S
H957 C953 0.950 . S
H958 C955 0.950 . S
C959 C950 1.390 1_554 S
C959 H952 0.950 . S
C959 C956 1.387 . S
C960 C961 1.387 . S
C960 H964 0.950 . S
C960 C969 1.390 . S
C961 C960 1.387 . S
C961 C963 1.387 . S
H962 C969 0.950 . S
C963 C961 1.387 . S
C963 C965 1.390 . S
C963 H967 0.950 . S
H964 C960 0.950 . S
C965 C963 1.390 . S
C965 C966 1.387 . S
C965 H968 0.950 . S
C966 C965 1.387 . S
C966 C969 1.387 . S
H967 C963 0.950 . S
H968 C965 0.950 . S
C969 C960 1.390 . S
C969 H962 0.950 . S
C969 C966 1.387 . S
C970 C971 1.387 . S
C970 H974 0.950 . S
C970 C979 1.390 . S
C971 C970 1.387 . S
C971 C973 1.387 . S
H972 C979 0.950 . S
C973 C971 1.387 . S
C973 C975 1.390 . S
C973 H977 0.950 . S
H974 C970 0.950 . S
C975 C973 1.390 . S
C975 C976 1.387 . S
C975 H978 0.950 . S
C976 C975 1.387 . S
C976 C979 1.387 . S
H977 C973 0.950 . S
H978 C975 0.950 . S
C979 C970 1.390 . S
C979 H972 0.950 . S
C979 C976 1.387 . S
C980 C981 1.387 . S
C980 H984 0.950 . S
C980 C989 1.390 . S
C981 C980 1.387 . S
C981 C983 1.387 1_556 S
H982 C989 0.950 . S
C983 C981 1.387 1_554 S
C983 C985 1.390 1_554 S
C983 H987 0.950 . S
H984 C980 0.950 . S
C985 C983 1.390 1_556 S
C985 C986 1.387 . S
C985 H988 0.950 . S
C986 C985 1.387 . S
C986 C989 1.387 . S
H987 C983 0.950 . S
H988 C985 0.950 . S
C989 C980 1.390 . S
C989 H982 0.950 . S
C989 C986 1.387 . S
C990 C991 1.387 . S
C990 H994 0.950 . S
C990 C999 1.390 . S
C991 C990 1.387 . S
C991 C993 1.387 . S
H992 C999 0.950 . S
C993 C991 1.387 . S
C993 C995 1.390 . S
C993 H997 0.950 . S
H994 C990 0.950 . S
C995 C993 1.390 . S
C995 C996 1.387 . S
C995 H998 0.950 . S
C996 C995 1.387 . S
C996 C999 1.387 . S
H997 C993 0.950 . S
H998 C995 0.950 . S
C999 C990 1.390 . S
C999 H992 0.950 . S
C999 C996 1.387 . S
C1000 C1001 1.387 . S
C1000 H1004 0.950 . S
C1000 C1009 1.390 . S
C1001 C1000 1.387 . S
C1001 C1003 1.387 . S
H1002 C1009 0.950 . S
C1003 C1001 1.387 . S
C1003 C1005 1.390 . S
C1003 H1007 0.950 . S
H1004 C1000 0.950 . S
C1005 C1003 1.390 . S
C1005 C1006 1.387 . S
C1005 H1008 0.950 . S
C1006 C1005 1.387 . S
C1006 C1009 1.387 . S
H1007 C1003 0.950 . S
H1008 C1005 0.950 . S
C1009 C1000 1.390 . S
C1009 H1002 0.950 . S
C1009 C1006 1.387 . S
C1010 C1011 1.387 . S
C1010 H1014 0.950 . S
C1010 C1019 1.390 . S
C1011 C1010 1.387 . S
C1011 C1013 1.387 . S
H1012 C1019 0.950 . S
C1013 C1011 1.387 . S
C1013 C1015 1.390 . S
C1013 H1017 0.950 . S
H1014 C1010 0.950 . S
C1015 C1013 1.390 . S
C1015 C1016 1.387 . S
C1015 H1018 0.950 . S
C1016 C1015 1.387 . S
C1016 C1019 1.387 . S
H1017 C1013 0.950 . S
H1018 C1015 0.950 . S
C1019 C1010 1.390 . S
C1019 H1012 0.950 . S
C1019 C1016 1.387 . S
C1020 C1021 1.387 . S
C1020 H1024 0.950 . S
C1020 C1029 1.390 . S
C1021 C1020 1.387 . S
C1021 C1023 1.387 1_554 S
H1022 C1029 0.950 . S
C1023 C1021 1.387 1_556 S
C1023 C1025 1.390 1_556 S
C1023 H1027 0.950 . S
H1024 C1020 0.950 . S
C1025 C1023 1.390 1_554 S
C1025 C1026 1.387 . S
C1025 H1028 0.950 . S
C1026 C1025 1.387 . S
C1026 C1029 1.387 . S
H1027 C1023 0.950 . S
H1028 C1025 0.950 . S
C1029 C1020 1.390 . S
C1029 H1022 0.950 . S
C1029 C1026 1.387 . S
C1030 C1031 1.387 . S
C1030 H1034 0.950 . S
C1030 C1039 1.390 . S
C1031 C1030 1.387 . S
C1031 C1033 1.387 . S
H1032 C1039 0.950 . S
C1033 C1031 1.387 . S
C1033 C1035 1.390 . S
C1033 H1037 0.950 . S
H1034 C1030 0.950 . S
C1035 C1033 1.390 . S
C1035 C1036 1.387 . S
C1035 H1038 0.950 . S
C1036 C1035 1.387 . S
C1036 C1039 1.387 . S
H1037 C1033 0.950 . S
H1038 C1035 0.950 . S
C1039 C1030 1.390 . S
C1039 H1032 0.950 . S
C1039 C1036 1.387 . S
C1040 C1041 1.387 . S
C1040 H1044 0.950 . S
C1040 C1049 1.390 . S
C1041 C1040 1.387 . S
C1041 C1043 1.387 . S
H1042 C1049 0.950 . S
C1043 C1041 1.387 . S
C1043 C1045 1.390 . S
C1043 H1047 0.950 . S
H1044 C1040 0.950 . S
C1045 C1043 1.390 . S
C1045 C1046 1.387 . S
C1045 H1048 0.950 1_556 S
C1046 C1045 1.387 . S
C1046 C1049 1.387 . S
H1047 C1043 0.950 . S
H1048 C1045 0.950 1_554 S
C1049 C1040 1.390 . S
C1049 H1042 0.950 . S
C1049 C1046 1.387 . S
C1050 C1051 1.387 . S
C1050 H1054 0.950 . S
C1050 C1059 1.390 . S
C1051 C1050 1.387 . S
C1051 C1053 1.387 . S
H1052 C1059 0.950 . S
C1053 C1051 1.387 . S
C1053 C1055 1.390 . S
C1053 H1057 0.950 . S
H1054 C1050 0.950 . S
C1055 C1053 1.390 . S
C1055 C1056 1.387 . S
C1055 H1058 0.950 . S
C1056 C1055 1.387 . S
C1056 C1059 1.387 . S
H1057 C1053 0.950 . S
H1058 C1055 0.950 . S
C1059 C1050 1.390 . S
C1059 H1052 0.950 . S
C1059 C1056 1.387 . S
C1060 C1061 1.387 . S
C1060 H1064 0.950 . S
C1060 C1069 1.390 . S
C1061 C1060 1.387 . S
C1061 C1063 1.387 . S
H1062 C1069 0.950 . S
C1063 C1061 1.387 . S
C1063 C1065 1.390 . S
C1063 H1067 0.950 . S
H1064 C1060 0.950 . S
C1065 C1063 1.390 . S
C1065 C1066 1.387 . S
C1065 H1068 0.950 . S
C1066 C1065 1.387 . S
C1066 C1069 1.387 . S
H1067 C1063 0.950 . S
H1068 C1065 0.950 . S
C1069 C1060 1.390 . S
C1069 H1062 0.950 . S
C1069 C1066 1.387 . S
C1070 C1071 1.387 . S
C1070 H1074 0.950 . S
C1070 C1079 1.390 . S
C1071 C1070 1.387 . S
C1071 C1073 1.387 . S
H1072 C1079 0.950 . S
C1073 C1071 1.387 . S
C1073 C1075 1.390 . S
C1073 H1077 0.950 . S
H1074 C1070 0.950 . S
C1075 C1073 1.390 . S
C1075 C1076 1.387 . S
C1075 H1078 0.950 . S
C1076 C1075 1.387 . S
C1076 C1079 1.387 . S
H1077 C1073 0.950 . S
H1078 C1075 0.950 . S
C1079 C1070 1.390 . S
C1079 H1072 0.950 . S
C1079 C1076 1.387 . S
C1080 C1081 1.387 . S
C1080 H1084 0.950 . S
C1080 C1089 1.390 . S
C1081 C1080 1.387 . S
C1081 C1083 1.387 . S
H1082 C1089 0.950 . S
C1083 C1081 1.387 . S
C1083 C1085 1.390 1_554 S
C1083 H1087 0.950 . S
H1084 C1080 0.950 . S
C1085 C1083 1.390 1_556 S
C1085 C1086 1.387 1_556 S
C1085 H1088 0.950 . S
C1086 C1085 1.387 1_554 S
C1086 C1089 1.387 . S
H1087 C1083 0.950 . S
H1088 C1085 0.950 . S
C1089 C1080 1.390 . S
C1089 H1082 0.950 . S
C1089 C1086 1.387 . S
C1090 C1091 1.387 . S
C1090 H1094 0.950 . S
C1090 C1099 1.390 . S
C1091 C1090 1.387 . S
C1091 C1093 1.387 . S
H1092 C1099 0.950 . S
C1093 C1091 1.387 . S
C1093 C1095 1.390 . S
C1093 H1097 0.950 . S
H1094 C1090 0.950 . S
C1095 C1093 1.390 . S
C1095 C1096 1.387 . S
C1095 H1098 0.950 . S
C1096 C1095 1.387 . S
C1096 C1099 1.387 . S
H1097 C1093 0.950 . S
H1098 C1095 0.950 . S
C1099 C1090 1.390 . S
C1099 H1092 0.950 . S
C1099 C1096 1.387 . S
C1100 C1101 1.387 . S
C1100 H1104 0.950 . S
C1100 C1109 1.390 . S
C1101 C1100 1.387 . S
C1101 C1103 1.387 . S
H1102 C1109 0.950 . S
C1103 C1101 1.387 . S
C1103 C1105 1.390 . S
C1103 H1107 0.950 . S
H1104 C1100 0.950 . S
C1105 C1103 1.390 . S
C1105 C1106 1.387 . S
C1105 H1108 0.950 . S
C1106 C1105 1.387 . S
C1106 C1109 1.387 . S
H1107 C1103 0.950 . S
H1108 C1105 0.950 . S
C1109 C1100 1.390 . S
C1109 H1102 0.950 . S
C1109 C1106 1.387 . S
C1110 C1111 1.387 . S
C1110 H1114 0.950 . S
C1110 C1119 1.390 . S
C1111 C1110 1.387 . S
C1111 C1113 1.387 . S
H1112 C1119 0.950 . S
C1113 C1111 1.387 . S
C1113 C1115 1.390 . S
C1113 H1117 0.950 . S
H1114 C1110 0.950 . S
C1115 C1113 1.390 . S
C1115 C1116 1.387 . S
C1115 H1118 0.950 . S
C1116 C1115 1.387 . S
C1116 C1119 1.387 . S
H1117 C1113 0.950 . S
H1118 C1115 0.950 . S
C1119 C1110 1.390 . S
C1119 H1112 0.950 . S
C1119 C1116 1.387 . S
C641 C10 1.196 1_556 S
C646 C295 1.137 . S
C651 C50 1.195 . S
C656 C175 1.136 . S
C661 C215 1.141 . S
C666 C90 1.198 . S
C671 C130 1.197 . S
C676 C255 1.141 . S
C681 C446 1.137 . S
C686 C179 1.195 1_554 S
C691 C339 1.197 . S
C696 C6 1.141 . S
C701 C406 1.137 . S
C706 C259 1.195 . S
C711 C86 1.136 . S
C716 C379 1.195 . S
C721 C375 1.141 . S
C726 C490 1.198 . S
C731 C410 1.195 . S
C736 C575 1.136 . S
C741 C530 1.198 1_556 S
C746 C335 1.141 . S
C751 C450 1.197 . S
C756 C615 1.141 . S
C761 C579 1.198 . S
C766 C126 1.141 . S
C771 C486 1.141 . S
C776 C219 1.197 . S
C781 C46 1.141 . S
C786 C619 1.198 1_554 S
C791 C299 1.195 . S
C796 C526 1.136 . S
C801 C529 0.755 . S
C806 C9 0.755 1_455 S
C811 C449 0.756 . S
C816 C49 0.756 . S
C821 C489 0.752 . S
C826 C89 0.752 . S
C831 C409 0.752 . S
C836 C129 0.752 . S
C841 C178 0.755 . S
C846 C618 0.755 1_455 S
C851 C378 0.756 . S
C856 C218 0.756 . S
C861 C258 0.752 . S
C866 C578 0.752 . S
C871 C298 0.756 . S
C876 C338 0.756 . S
C881 C18 1.919 . S
C886 C169 1.919 . S
C891 C58 1.922 . S
C896 C209 1.922 . S
C901 C249 1.919 . S
C906 C98 1.919 . S
C911 C138 1.922 . S
C916 C289 1.922 . S
C921 C418 1.919 . S
C926 C329 1.919 . S
C931 C458 1.918 . S
C936 C369 1.918 . S
C941 C498 1.921 . S
C946 C569 1.921 . S
C951 C609 1.922 . S
C956 C538 1.922 . S
C961 C15 1.973 . S
C966 C290 2.084 . S
C971 C55 1.972 . S
C976 C170 2.083 . S
C981 C210 2.084 1_556 S
C986 C95 1.972 . S
C991 C250 2.084 . S
C996 C135 1.972 . S
C1001 C459 2.084 . S
C1006 C166 1.971 . S
C1011 C326 1.969 . S
C1016 C19 2.082 . S
C1021 C419 2.084 1_554 S
C1026 C246 1.971 . S
C1031 C99 2.084 . S
C1036 C366 1.972 . S
C1041 C495 1.970 . S
C1046 C370 2.083 1_556 S
C1051 C570 2.084 . S
C1056 C415 1.972 . S
C1061 C535 1.972 . S
C1066 C330 2.085 . S
C1071 C610 2.084 . S
C1076 C455 1.972 . S
C1081 C566 1.971 . S
C1086 C139 2.084 1_554 S
C1091 C206 1.969 . S
C1096 C499 2.082 . S
C1101 C59 2.085 . S
C1106 C606 1.973 . S
C1111 C539 2.083 . S
C1116 C286 1.972 . S
