# Generated by pormake.
# Topology smm, (6)-cn, num edge types: 1
# Building blocks:
#     Node 0, Type 0, BuildingBlock: VOLQOD_clean_sbu_1, # of connection points: 6
#     Node 1, Type 0, BuildingBlock: VOLQOD_clean_sbu_1, # of connection points: 6
#     Node 2, Type 0, BuildingBlock: VOLQOD_clean_sbu_1, # of connection points: 6
#     Node 3, Type 0, BuildingBlock: VOLQOD_clean_sbu_1, # of connection points: 6
#     Node 4, Type 0, BuildingBlock: VOLQOD_clean_sbu_1, # of connection points: 6
#     Node 5, Type 0, BuildingBlock: VOLQOD_clean_sbu_1, # of connection points: 6
#     Node 6, Type 0, BuildingBlock: VOLQOD_clean_sbu_1, # of connection points: 6
#     Node 7, Type 0, BuildingBlock: VOLQOD_clean_sbu_1, # of connection points: 6
#     Node 8, Type 0, BuildingBlock: VOLQOD_clean_sbu_1, # of connection points: 6
#     Edge 9, Type (0, 0), BuildingBlock: CIFDUS_clean_linker_0, # of connection points: 2
#     Edge 10, Type (0, 0), BuildingBlock: CIFDUS_clean_linker_0, # of connection points: 2
#     Edge 11, Type (0, 0), BuildingBlock: CIFDUS_clean_linker_0, # of connection points: 2
#     Edge 12, Type (0, 0), BuildingBlock: CIFDUS_clean_linker_0, # of connection points: 2
#     Edge 13, Type (0, 0), BuildingBlock: CIFDUS_clean_linker_0, # of connection points: 2
#     Edge 14, Type (0, 0), BuildingBlock: CIFDUS_clean_linker_0, # of connection points: 2
#     Edge 15, Type (0, 0), BuildingBlock: CIFDUS_clean_linker_0, # of connection points: 2
#     Edge 16, Type (0, 0), BuildingBlock: CIFDUS_clean_linker_0, # of connection points: 2
#     Edge 17, Type (0, 0), BuildingBlock: CIFDUS_clean_linker_0, # of connection points: 2
#     Edge 18, Type (0, 0), BuildingBlock: CIFDUS_clean_linker_0, # of connection points: 2
#     Edge 19, Type (0, 0), BuildingBlock: CIFDUS_clean_linker_0, # of connection points: 2
#     Edge 20, Type (0, 0), BuildingBlock: CIFDUS_clean_linker_0, # of connection points: 2
#     Edge 21, Type (0, 0), BuildingBlock: CIFDUS_clean_linker_0, # of connection points: 2
#     Edge 22, Type (0, 0), BuildingBlock: CIFDUS_clean_linker_0, # of connection points: 2
#     Edge 23, Type (0, 0), BuildingBlock: CIFDUS_clean_linker_0, # of connection points: 2
#     Edge 24, Type (0, 0), BuildingBlock: CIFDUS_clean_linker_0, # of connection points: 2
#     Edge 25, Type (0, 0), BuildingBlock: CIFDUS_clean_linker_0, # of connection points: 2
#     Edge 26, Type (0, 0), BuildingBlock: CIFDUS_clean_linker_0, # of connection points: 2
#     Edge 27, Type (0, 0), BuildingBlock: CIFDUS_clean_linker_0, # of connection points: 2
#     Edge 28, Type (0, 0), BuildingBlock: CIFDUS_clean_linker_0, # of connection points: 2
#     Edge 29, Type (0, 0), BuildingBlock: CIFDUS_clean_linker_0, # of connection points: 2
#     Edge 30, Type (0, 0), BuildingBlock: CIFDUS_clean_linker_0, # of connection points: 2
#     Edge 31, Type (0, 0), BuildingBlock: CIFDUS_clean_linker_0, # of connection points: 2
#     Edge 32, Type (0, 0), BuildingBlock: CIFDUS_clean_linker_0, # of connection points: 2
#     Edge 33, Type (0, 0), BuildingBlock: CIFDUS_clean_linker_0, # of connection points: 2
#     Edge 34, Type (0, 0), BuildingBlock: CIFDUS_clean_linker_0, # of connection points: 2
#     Edge 35, Type (0, 0), BuildingBlock: CIFDUS_clean_linker_0, # of connection points: 2
# Relax obj value: 0.260
# Max RMSD: 0.218
# Mean RMSD: 0.217
data_MOF--net-smm--node1-VOLQOD_clean_sbu_1--edge1-CIFDUS_clean_linker_0
_symmetry_space_group_name_H-M    P1
_symmetry_Int_Tables_number       1
_symmetry_cell_setting            triclinic
loop_
_symmetry_equiv_pos_as_xyz
'x, y, z'
_cell_length_a     48.087458
_cell_length_b     48.165854
_cell_length_c     15.128489
_cell_angle_alpha  90.180808
_cell_angle_beta   89.515213
_cell_angle_gamma 120.19562
loop_
_atom_site_label
_atom_site_type_symbol
_atom_site_fract_x
_atom_site_fract_y
_atom_site_fract_z
_atom_type_partial_charge
O0 O 0.98096 0.17146 0.8748 0.0
Zn1 Zn 0.97351 0.16177 0.00512 0.0
O2 O 0.0138 0.17874 0.06957 0.0
Zn3 Zn 0.02093 0.21572 0.14022 0.0
Zn4 Zn 0.048 0.19106 0.98465 0.0
Zn5 Zn 0.0135 0.14608 0.14403 0.0
O6 O 0.02939 0.21008 0.26684 0.0
O7 O 0.01929 0.15958 0.26949 0.0
O8 O 0.9469 0.17997 0.05221 0.0
O9 O 0.98005 0.21752 0.14623 0.0
O10 O 0.05764 0.25736 0.08845 0.0
O11 O 0.07708 0.23763 0.9884 0.0
O12 O 0.07406 0.17006 0.00021 0.0
O13 O 0.94781 0.11383 0.01967 0.0
O14 O 0.04968 0.13802 0.11426 0.0
O15 O 0.97225 0.10449 0.1304 0.0
C16 C 0.00546 0.17752 0.82788 0.0
C17 C 0.02644 0.18575 0.30817 0.0
C18 C 0.07813 0.26133 0.02832 0.0
C19 C 0.9528 0.20179 0.10887 0.0
C20 C 0.07177 0.14931 0.05557 0.0
C21 C 0.94936 0.0949 0.07538 0.0
O22 O 0.0316 0.18273 0.86259 0.0
O23 O 0.82397 0.83592 0.16605 0.0
Zn24 Zn 0.82368 0.84412 0.03635 0.0
O25 O 0.84764 0.82815 0.97183 0.0
Zn26 Zn 0.81974 0.79071 0.90564 0.0
Zn27 Zn 0.87185 0.81727 0.05156 0.0
Zn28 Zn 0.874 0.85914 0.88548 0.0
O29 O 0.83592 0.79095 0.78157 0.0
O30 O 0.85851 0.84369 0.76399 0.0
O31 O 0.77895 0.82537 0.98713 0.0
O32 O 0.7791 0.79093 0.88928 0.0
O33 O 0.81 0.75198 0.97632 0.0
O34 O 0.85326 0.76939 0.06046 0.0
O35 O 0.91857 0.84001 0.01574 0.0
O36 O 0.84462 0.89176 0.02194 0.0
O37 O 0.91827 0.86613 0.89457 0.0
O38 O 0.87615 0.90133 0.90436 0.0
C39 C 0.84405 0.83215 0.21143 0.0
C40 C 0.84687 0.81563 0.7319 0.0
C41 C 0.82617 0.74695 0.03377 0.0
C42 C 0.76563 0.80517 0.92481 0.0
C43 C 0.93282 0.85791 0.94918 0.0
C44 C 0.86395 0.91083 0.96368 0.0
O45 O 0.8659 0.82825 0.17546 0.0
O46 O 0.23325 0.05017 0.72759 0.0
Zn47 Zn 0.23005 0.05931 0.85995 0.0
O48 O 0.20803 0.0184 0.92542 0.0
Zn49 Zn 0.23927 0.00895 0.97471 0.0
Zn50 Zn 0.18009 0.986 0.84648 0.0
Zn51 Zn 0.18318 0.0202 0.01993 0.0
O52 O 0.244 0.01653 0.10957 0.0
O53 O 0.20532 0.02802 0.13563 0.0
O54 O 0.27321 0.08381 0.92181 0.0
O55 O 0.27881 0.04163 0.91259 0.0
O56 O 0.22994 0.9646 0.9393 0.0
O57 O 0.18839 0.94994 0.85019 0.0
O58 O 0.13404 0.96767 0.88104 0.0
O59 O 0.20539 0.08337 0.87951 0.0
O60 O 0.13952 0.98065 0.02351 0.0
O61 O 0.17669 0.05649 -0.00237 0.0
C62 C 0.21393 0.0251 0.68359 0.0
C63 C 0.22889 0.02535 0.16183 0.0
C64 C 0.2086 0.94429 0.8873 0.0
C65 C 0.28905 0.06995 0.94086 0.0
C66 C 0.12223 0.96441 0.9586 0.0
C67 C 0.18557 0.07916 0.94203 0.0
O68 O 0.19066 0.00083 0.72141 0.0
O69 O 0.69336 0.5418 0.56473 0.0
Zn70 Zn 0.69842 0.54016 0.43114 0.0
O71 O 0.65629 0.51408 0.37716 0.0
Zn72 Zn 0.64141 0.53878 0.31361 0.0
Zn73 Zn 0.62556 0.48915 0.46715 0.0
Zn74 Zn 0.65837 0.48613 0.2915 0.0
O75 O 0.63235 0.5264 0.18397 0.0
O76 O 0.66103 0.50222 0.16888 0.0
O77 O 0.71992 0.58447 0.37441 0.0
O78 O 0.67805 0.58351 0.30892 0.0
O79 O 0.60374 0.53822 0.37493 0.0
O80 O 0.59395 0.50346 0.48329 0.0
O81 O 0.60087 0.44268 0.43674 0.0
O82 O 0.72599 0.51971 0.41083 0.0
O83 O 0.61965 0.4422 0.30243 0.0
O84 O 0.69676 0.48237 0.3118 0.0
C85 C 0.67136 0.52111 0.61546 0.0
C86 C 0.64655 0.51557 0.13544 0.0
C87 C 0.58785 0.52285 0.44329 0.0
C88 C 0.70767 0.59813 0.32987 0.0
C89 C 0.5999 0.42801 0.36574 0.0
C90 C 0.72157 0.49672 0.35996 0.0
O91 O 0.64581 0.49741 0.58519 0.0
O92 O 0.43361 0.16589 0.61583 0.0
Zn93 Zn 0.43498 0.1758 0.48507 0.0
O94 O 0.45774 0.15771 0.42173 0.0
Zn95 Zn 0.42553 0.11908 0.36559 0.0
Zn96 Zn 0.48349 0.14915 0.50098 0.0
Zn97 Zn 0.48421 0.1865 0.33315 0.0
O98 O 0.42291 0.12449 0.23217 0.0
O99 O 0.46536 0.17316 0.21514 0.0
O100 O 0.39149 0.15795 0.42582 0.0
O101 O 0.38437 0.10943 0.4241 0.0
O102 O 0.43331 0.08301 0.3908 0.0
O103 O 0.46799 0.10197 0.50207 0.0
O104 O 0.53026 0.17073 0.46127 0.0
O105 O 0.45897 0.22419 0.47054 0.0
O106 O 0.52683 0.18977 0.33103 0.0
O107 O 0.49092 0.22951 0.35713 0.0
C108 C 0.45525 0.16427 0.66016 0.0
C109 C 0.44147 0.14831 0.18312 0.0
C110 C 0.44956 0.07922 0.4507 0.0
C111 C 0.37415 0.1284 0.40574 0.0
C112 C 0.54272 0.18398 0.38732 0.0
C113 C 0.4802 0.24155 0.41322 0.0
O114 O 0.47775 0.16157 0.62334 0.0
O115 O 0.80314 0.28616 0.55039 0.0
Zn116 Zn 0.79798 0.27734 0.42022 0.0
O117 O 0.81342 0.31769 0.35696 0.0
Zn118 Zn 0.8497 0.32714 0.28398 0.0
Zn119 Zn 0.82548 0.35313 0.43739 0.0
Zn120 Zn 0.78154 0.31448 0.27738 0.0
O121 O 0.84621 0.34059 0.16126 0.0
O122 O 0.79303 0.31136 0.15241 0.0
O123 O 0.82195 0.25462 0.37933 0.0
O124 O 0.85255 0.28772 0.27189 0.0
O125 O 0.89016 0.35923 0.34258 0.0
O126 O 0.87321 0.37998 0.44652 0.0
O127 O 0.80753 0.38103 0.40103 0.0
O128 O 0.74997 0.24873 0.40428 0.0
O129 O 0.77794 0.35396 0.28565 0.0
O130 O 0.73926 0.27658 0.3073 0.0
C131 C 0.80629 0.30998 0.59535 0.0
C132 C 0.82058 0.32719 0.11592 0.0
C133 C 0.89576 0.37852 0.40646 0.0
C134 C 0.84179 0.26168 0.31513 0.0
C135 C 0.78924 0.37814 0.33702 0.0
C136 C 0.73007 0.25239 0.3578 0.0
O137 O 0.81185 0.33619 0.55949 0.0
O138 O 0.26918 0.80824 0.32409 0.0
Zn139 Zn 0.26308 0.79964 0.45753 0.0
O140 O 0.30386 0.81039 0.51322 0.0
Zn141 Zn 0.31831 0.84487 0.59632 0.0
Zn142 Zn 0.33557 0.82344 0.42155 0.0
Zn143 Zn 0.30183 0.77525 0.57719 0.0
O144 O 0.32418 0.83383 0.71981 0.0
O145 O 0.30057 0.78088 0.70772 0.0
O146 O 0.24279 0.82274 0.5207 0.0
O147 O 0.2825 0.85244 0.61355 0.0
O148 O 0.35627 0.88534 0.55173 0.0
O149 O 0.36168 0.87121 0.4156 0.0
O150 O 0.36647 0.80856 0.4454 0.0
O151 O 0.23244 0.75208 0.47338 0.0
O152 O 0.34229 0.77389 0.55554 0.0
O153 O 0.26114 0.73525 0.54813 0.0
C154 C 0.29013 0.80712 0.27394 0.0
C155 C 0.31234 0.80614 0.75456 0.0
C156 C 0.36929 0.8924 0.4753 0.0
C157 C 0.25438 0.84259 0.58467 0.0
C158 C 0.36597 0.78913 0.50269 0.0
C159 C 0.2354 0.72993 0.50997 0.0
O160 O 0.31519 0.80832 0.30503 0.0
O161 O 0.11985 0.48333 0.84951 0.0
Zn162 Zn 0.11847 0.48814 0.71701 0.0
O163 O 0.15018 0.48057 0.65686 0.0
Zn164 Zn 0.1312 0.43978 0.5949 0.0
Zn165 Zn 0.18032 0.48237 0.7428 0.0
Zn166 Zn 0.17176 0.51276 0.5685 0.0
O167 O 0.14372 0.44357 0.46465 0.0
O168 O 0.16014 0.49527 0.44761 0.0
O169 O 0.07492 0.45696 0.66889 0.0
O170 O 0.08402 0.42279 0.59191 0.0
O171 O 0.13947 0.40835 0.65969 0.0
O172 O 0.1768 0.43972 0.75626 0.0
O173 O 0.22541 0.516 0.71212 0.0
O174 O 0.12648 0.53294 0.69274 0.0
O175 O 0.21935 0.53388 0.58237 0.0
O176 O 0.16005 0.54638 0.57839 0.0
C177 C 0.1427 0.48587 0.89741 0.0
C178 C 0.15129 0.46777 0.41524 0.0
C179 C 0.15863 0.41231 0.72239 0.0
C180 C 0.06508 0.43211 0.62039 0.0
C181 C 0.23712 0.5338 0.6441 0.0
C182 C 0.14274 0.55213 0.63045 0.0
O183 O 0.16842 0.48889 0.86404 0.0
O184 O 0.5419 0.73167 0.47747 0.0
Zn185 Zn 0.54152 0.73729 0.60973 0.0
O186 O 0.51311 0.69651 0.66732 0.0
Zn187 Zn 0.53593 0.67873 0.72661 0.0
Zn188 Zn 0.48492 0.66732 0.57962 0.0
Zn189 Zn 0.48814 0.70244 0.75627 0.0
O190 O 0.52712 0.67353 0.85892 0.0
O191 O 0.50471 0.70379 0.87672 0.0
O192 O 0.58644 0.75508 0.65565 0.0
O193 O 0.58261 0.71079 0.71493 0.0
O194 O 0.52739 0.63733 0.66984 0.0
O195 O 0.49159 0.6302 0.5674 0.0
O196 O 0.43907 0.65044 0.61176 0.0
O197 O 0.52451 0.76746 0.6275 0.0
O198 O 0.44198 0.6671 0.75041 0.0
O199 O 0.48814 0.74274 0.73378 0.0
C200 C 0.52035 0.7106 0.42768 0.0
C201 C 0.51757 0.68859 0.90848 0.0
C202 C 0.50916 0.62136 0.60601 0.0
C203 C 0.599 0.74006 0.69111 0.0
C204 C 0.4257 0.65032 0.68482 0.0
C205 C 0.50297 0.76595 0.68006 0.0
O206 O 0.49546 0.68623 0.45894 0.0
H207 H 0.10749 0.27469 0.86933 0.0
H208 H 0.09838 0.32026 0.10548 0.0
H209 H 0.12918 0.37292 0.03365 0.0
H210 H 0.15151 0.4043 0.89743 0.0
H211 H 0.1522 0.35671 0.6562 0.0
H212 H 0.13222 0.30609 0.73702 0.0
C213 C 0.11269 0.29612 0.90615 0.0
C214 C 0.10055 0.2936 -0.00733 0.0
C215 C 0.12879 0.32577 0.86315 0.0
C216 C 0.10733 0.32162 0.03875 0.0
C217 C 0.12486 0.35162 -0.00235 0.0
C218 C 0.14818 0.38299 0.86331 0.0
C219 C 0.1536 0.38399 0.77153 0.0
C220 C 0.13474 0.35378 0.90897 0.0
C221 C 0.14839 0.35628 0.72699 0.0
C222 C 0.1368 0.32745 0.77305 0.0
H223 H 0.73912 0.77537 0.77166 0.0
H224 H 0.7233 0.82206 -0.00525 0.0
H225 H 0.67139 0.80999 0.9336 0.0
H226 H 0.62864 0.78182 0.82283 0.0
H227 H 0.64428 0.73309 0.60569 0.0
H228 H 0.69879 0.75093 0.65744 0.0
C229 C 0.72439 0.78295 0.80725 0.0
C230 C 0.73472 0.79904 0.88847 0.0
C231 C 0.69482 0.77589 0.7721 0.0
C232 C 0.71564 0.80929 0.93257 0.0
C233 C 0.68606 0.80248 0.89757 0.0
C234 C 0.64452 0.77606 0.78591 0.0
C235 C 0.63321 0.7568 0.71021 0.0
C236 C 0.67522 0.78534 0.81809 0.0
C237 C 0.65314 0.74843 0.66338 0.0
C238 C 0.684 0.75831 0.69342 0.0
H239 H 0.18319 0.9106 0.73716 0.0
H240 H 0.24004 0.91662 0.96395 0.0
H241 H 0.25449 0.88003 0.89234 0.0
H242 H 0.2583 0.85461 0.75755 0.0
H243 H 0.20651 0.8531 0.52435 0.0
H244 H 0.18208 0.87955 0.6072 0.0
C245 C 0.1981 0.90332 0.77206 0.0
C246 C 0.21097 0.91665 0.85533 0.0
C247 C 0.20755 0.88366 0.72876 0.0
C248 C 0.23018 0.90694 0.89956 0.0
C249 C 0.23854 0.88619 0.85848 0.0
C250 C 0.24144 0.85984 0.72485 0.0
C251 C 0.23481 0.85291 0.63448 0.0
C252 C 0.22861 0.87579 0.77168 0.0
C253 C 0.21217 0.85867 0.5936 0.0
C254 C 0.19841 0.87386 0.64085 0.0
H255 H 0.35093 0.07481 0.30666 0.0
H256 H 0.3487 0.16298 0.33189 0.0
H257 H 0.32286 0.15343 0.18716 0.0
H258 H 0.30434 0.12151 0.04928 0.0
H259 H 0.31394 0.03728 0.02241 0.0
H260 H 0.33429 0.04446 0.17156 0.0
C261 C 0.34447 0.09188 0.28162 0.0
C262 C 0.352 0.11972 0.33002 0.0
C263 C 0.33162 0.08732 0.19695 0.0
C264 C 0.34324 0.14136 0.29595 0.0
C265 C 0.32888 0.13613 0.21274 0.0
C266 C 0.31141 0.10506 0.07551 0.0
C267 C 0.30731 0.07875 0.02446 0.0
C268 C 0.32388 0.10965 0.16147 0.0
C269 C 0.31667 0.05771 0.05979 0.0
C270 C 0.32797 0.06151 0.1457 0.0
H271 H 0.8493 0.24364 0.15308 0.0
H272 H 0.8667 0.23629 0.42858 0.0
H273 H 0.90268 0.21588 0.3885 0.0
H274 H 0.93396 0.20651 0.27385 0.0
H275 H 0.91419 0.21124 -0.00132 0.0
H276 H 0.87426 0.22651 0.03938 0.0
C277 C 0.86034 0.23669 0.20417 0.0
C278 C 0.85563 0.24142 0.2934 0.0
C279 C 0.88096 0.22524 0.18052 0.0
C280 C 0.86984 0.23243 0.35949 0.0
C281 C 0.89069 0.22121 0.33652 0.0
C282 C 0.92067 0.21071 0.22316 0.0
C283 C 0.92724 0.20854 0.13358 0.0
C284 C 0.89727 0.21862 0.24719 0.0
C285 C 0.90955 0.21317 0.06799 0.0
C286 C 0.88679 0.22183 0.09123 0.0
H287 H 0.76561 0.71987 0.0898 0.0
H288 H 0.85001 0.71059 0.10446 0.0
H289 H 0.82163 0.66487 0.20659 0.0
H290 H 0.77168 0.62673 0.28778 0.0
H291 H 0.68938 0.64005 0.27707 0.0
H292 H 0.71857 0.68587 0.1792 0.0
C293 C 0.77765 0.70749 0.11418 0.0
C294 C 0.80934 0.71765 0.08764 0.0
C295 C 0.76182 0.68254 0.17505 0.0
C296 C 0.82524 0.70247 0.1226 0.0
C297 C 0.80915 0.67665 0.18147 0.0
C298 C 0.76049 0.64018 0.26568 0.0
C299 C 0.72832 0.62986 0.28904 0.0
C300 C 0.77736 0.66648 0.20824 0.0
C301 C 0.71403 0.64738 0.25953 0.0
C302 C 0.73058 0.67343 0.203 0.0
H303 H 0.02292 0.45412 0.62532 0.0
H304 H 0.03391 0.3751 0.53316 0.0
H305 H 0.98366 0.35334 0.45262 0.0
H306 H 0.93769 0.35739 0.40506 0.0
H307 H 0.92452 0.43448 0.50091 0.0
H308 H 0.97523 0.45693 0.58202 0.0
C309 C 0.01408 0.43187 0.58879 0.0
C310 C 0.0322 0.41634 0.58497 0.0
C311 C -0.01469 0.41962 0.54169 0.0
C312 C 0.02048 0.3876 0.53698 0.0
C313 C -0.00813 0.37524 0.49036 0.0
C314 C 0.9462 0.37944 0.4424 0.0
C315 C 0.9279 0.3947 0.44582 0.0
C316 C 0.97447 0.39137 0.491 0.0
C317 C 0.9386 0.42266 0.49659 0.0
C318 C 0.96735 0.43528 0.54343 0.0
H319 H 0.52569 0.5816 0.68645 0.0
H320 H 0.50149 0.60431 0.43311 0.0
H321 H 0.52041 0.57191 0.35864 0.0
H322 H 0.55203 0.54474 0.36464 0.0
H323 H 0.57444 0.52041 0.6183 0.0
H324 H 0.54757 0.54533 0.69339 0.0
C325 C 0.52388 0.57876 0.61518 0.0
C326 C 0.51288 0.5957 0.56525 0.0
C327 C 0.5348 0.56013 0.57267 0.0
C328 C 0.51004 0.59152 0.47302 0.0
C329 C 0.52108 0.57322 0.4302 0.0
C330 C 0.55037 0.54434 0.43624 0.0
C331 C 0.56566 0.53144 0.48586 0.0
C332 C 0.53479 0.5586 0.47916 0.0
C333 C 0.56294 0.53042 0.57861 0.0
C334 C 0.54775 0.54482 0.62175 0.0
H335 H 0.43238 0.03224 0.32981 0.0
H336 H 0.45475 0.05385 0.60597 0.0
H337 H 0.43528 -0.0028 0.63675 0.0
H338 H 0.4046 0.94106 0.58829 0.0
H339 H 0.38242 0.91966 0.3118 0.0
H340 H 0.40965 0.97689 0.27765 0.0
C341 C 0.43346 0.02456 0.39642 0.0
C342 C 0.44425 0.04684 0.46586 0.0
C343 C 0.42206 -0.00792 0.41361 0.0
C344 C 0.4463 0.03694 0.55159 0.0
C345 C 0.435 0.00458 0.5693 0.0
C346 C 0.40621 0.94899 0.52043 0.0
C347 C 0.39098 0.92634 0.45297 0.0
C348 C 0.42168 0.98184 0.50136 0.0
C349 C 0.39378 0.93674 0.36498 0.0
C350 C 0.40918 0.96942 0.34543 0.0
H351 H 0.15548 0.0839 0.08628 0.0
H352 H 0.18248 0.12005 0.81987 0.0
H353 H 0.15102 0.14724 0.83424 0.0
H354 H 0.11204 0.15628 0.91878 0.0
H355 H 0.08336 0.11638 0.18154 0.0
H356 H 0.11926 0.09458 0.17157 0.0
C357 C 0.15468 0.09778 0.03102 0.0
C358 C 0.17088 0.09955 0.9515 0.0
C359 C 0.13598 0.11229 0.03889 0.0
C360 C 0.17012 0.11825 0.88162 0.0
C361 C 0.15198 0.13357 0.8897 0.0
C362 C 0.11386 0.14303 0.9741 0.0
C363 C 0.09485 0.1377 0.05059 0.0
C364 C 0.13419 0.13006 0.96738 0.0
C365 C 0.09744 0.1205 0.12166 0.0
C366 C 0.11802 0.10813 0.11615 0.0
H367 H 0.87085 0.94523 0.11105 0.0
H368 H 0.88089 0.95309 0.82724 0.0
H369 H 0.90377 0.01128 0.83689 0.0
H370 H 0.92632 0.06013 0.92705 0.0
H371 H 0.92258 0.0526 0.21126 0.0
H372 H 0.89132 -0.00605 0.20098 0.0
C373 C 0.87754 0.95968 0.05135 0.0
C374 C 0.87431 0.94514 0.96863 0.0
C375 C 0.89189 -0.00689 0.05774 0.0
C376 C 0.88342 0.96398 0.89164 0.0
C377 C 0.89645 -0.00284 0.89715 0.0
C378 C 0.91797 0.04557 0.98654 0.0
C379 C 0.92642 0.06034 0.06971 0.0
C380 C 0.90156 0.01203 0.97996 0.0
C381 C 0.91619 0.04148 0.14662 0.0
C382 C 0.89848 0.00806 0.14071 0.0
H383 H 0.97764 0.87747 0.07711 0.0
H384 H 0.96541 0.87011 0.79426 0.0
H385 H 0.02365 0.90059 0.7725 0.0
H386 H 0.07725 0.93329 0.8334 0.0
H387 H 0.08979 0.94427 0.1162 0.0
H388 H 0.03208 0.90841 0.13862 0.0
C389 C -0.01213 0.88203 0.01092 0.0
C390 C 0.96757 0.87171 0.93734 0.0
C391 C 0.02126 0.90059 -0.00105 0.0
C392 C 0.98081 0.87804 0.85171 0.0
C393 C 0.01401 0.89551 0.83928 0.0
C394 C 0.06746 0.92769 0.90004 0.0
C395 C 0.0877 0.94163 0.97292 0.0
C396 C 0.03436 0.90762 0.91237 0.0
C397 C 0.07462 0.93409 0.05886 0.0
C398 C 0.04167 0.91352 0.07179 0.0
H399 H 0.72844 0.46162 0.23276 0.0
H400 H 0.76364 0.50244 0.49018 0.0
H401 H 0.79087 0.47115 0.50244 0.0
H402 H 0.79837 0.42698 0.44743 0.0
H403 H 0.76001 0.38493 0.19255 0.0
H404 H 0.74011 0.4219 0.17227 0.0
C405 C 0.74241 0.46402 0.29121 0.0
C406 C 0.7436 0.48382 0.3611 0.0
C407 C 0.75697 0.44536 0.29882 0.0
C408 C 0.76232 0.48724 0.43557 0.0
C409 C 0.77761 0.46914 0.44289 0.0
C410 C 0.78598 0.42617 0.38707 0.0
C411 C 0.78018 0.40283 0.32236 0.0
C412 C 0.7741 0.44726 0.3762 0.0
C413 C 0.76432 0.40226 0.24415 0.0
C414 C 0.753 0.42346 0.23225 0.0
H415 H 0.5555 0.38954 0.48838 0.0
H416 H 0.5895 0.38949 0.22287 0.0
H417 H 0.55192 0.3321 0.21128 0.0
H418 H 0.51325 0.28171 0.28006 0.0
H419 H 0.48045 0.28023 0.54744 0.0
H420 H 0.51326 0.33893 0.55382 0.0
C421 C 0.55457 0.37703 0.42775 0.0
C422 C 0.57564 0.3937 0.3571 0.0
C423 C 0.53313 0.34392 0.42174 0.0
C424 C 0.57386 0.3772 0.27867 0.0
C425 C 0.55233 0.34439 0.27183 0.0
C426 C 0.51302 0.29419 0.33967 0.0
C427 C 0.49494 0.27672 0.41373 0.0
C428 C 0.53244 0.3275 0.34357 0.0
C429 C 0.49431 0.29322 0.48969 0.0
C430 C 0.51323 0.32669 0.49355 0.0
H431 H 0.58662 0.17861 0.48961 0.0
H432 H 0.57436 0.21035 0.23331 0.0
H433 H 0.63041 0.22998 0.19746 0.0
H434 H 0.68384 0.24306 0.24304 0.0
H435 H 0.69812 0.21357 0.49949 0.0
H436 H 0.64021 0.18729 0.52987 0.0
C437 C 0.59618 0.1896 0.42575 0.0
C438 C 0.57636 0.19349 0.36511 0.0
C439 C 0.62876 0.20114 0.40523 0.0
C440 C 0.58906 0.20743 0.28207 0.0
C441 C 0.62116 0.21862 0.26111 0.0
C442 C 0.67425 0.23047 0.30515 0.0
C443 C 0.69517 0.23061 0.36935 0.0
C444 C 0.64134 0.2163 0.32289 0.0
C445 C 0.68241 0.21378 0.44891 0.0
C446 C 0.64937 0.19905 0.46666 0.0
H447 H 0.4934 0.78397 0.52053 0.0
H448 H 0.47639 0.78812 0.79937 0.0
H449 H 0.43168 0.79678 0.76683 0.0
H450 H 0.39197 0.79306 0.66051 0.0
H451 H 0.40763 0.78774 0.38158 0.0
H452 H 0.45814 0.78867 0.41248 0.0
C453 C 0.48082 0.78823 0.57399 0.0
C454 C 0.48781 0.78515 0.66217 0.0
C455 C 0.45407 0.79132 0.55477 0.0
C456 C 0.47126 0.79042 0.73103 0.0
C457 C 0.44538 0.79474 0.71246 0.0
C458 C 0.40643 0.79193 0.60666 0.0
C459 C 0.39583 0.78904 0.51933 0.0
C460 C 0.43548 0.79324 0.6249 0.0
C461 C 0.41518 0.78905 0.44947 0.0
C462 C 0.44407 0.78991 0.46711 0.0
H463 H 0.14564 0.58303 0.48045 0.0
H464 H 0.14802 0.59238 0.76416 0.0
H465 H 0.17321 0.65073 0.75001 0.0
H466 H 0.20542 0.69851 0.65735 0.0
H467 H 0.20466 0.68921 0.374 0.0
H468 H 0.16768 0.63112 0.38678 0.0
C469 C 0.15065 0.59786 0.53896 0.0
C470 C 0.14573 0.58385 0.62314 0.0
C471 C 0.16602 0.63124 0.53011 0.0
C472 C 0.15175 0.60286 0.6988 0.0
C473 C 0.16653 0.63619 0.69065 0.0
C474 C 0.19631 0.68371 0.59859 0.0
C475 C 0.2078 0.69743 0.51505 0.0
C476 C 0.17551 0.6506 0.60683 0.0
C477 C 0.19598 0.67869 0.43876 0.0
C478 C 0.17505 0.64563 0.44621 0.0
H479 H 0.38294 0.62598 0.55212 0.0
H480 H 0.38996 0.62839 0.83667 0.0
H481 H 0.33192 0.59166 0.84908 0.0
H482 H 0.27952 0.55837 0.7785 0.0
H483 H 0.27269 0.55802 0.49408 0.0
H484 H 0.33066 0.59447 0.48212 0.0
C485 C 0.37179 0.61847 0.61691 0.0
C486 C 0.39063 0.62963 0.69333 0.0
C487 C 0.33859 0.59768 0.62348 0.0
C488 C 0.37586 0.6201 0.77687 0.0
C489 C 0.34276 0.59904 0.78399 0.0
C490 C 0.2908 0.56617 0.71397 0.0
C491 C 0.27206 0.55543 0.63726 0.0
C492 C 0.32396 0.58753 0.70767 0.0
C493 C 0.28674 0.56604 0.55403 0.0
C494 C 0.31981 0.58683 0.54713 0.0
H495 H 0.04294 0.16943 0.71028 0.0
H496 H 0.96638 0.19129 0.72961 0.0
H497 H 0.9684 0.19897 0.56915 0.0
H498 H -0.00816 0.19883 0.42344 0.0
H499 H 0.06522 0.17267 0.40524 0.0
H500 H 0.06522 0.16801 0.56634 0.0
C501 C 0.02668 0.17589 0.67941 0.0
C502 C 0.00462 0.1799 0.73126 0.0
C503 C 0.0278 0.17992 0.5879 0.0
C504 C 0.98342 0.18787 0.69059 0.0
C505 C -0.01526 0.19249 0.59919 0.0
C506 C 0.00812 0.19266 0.45545 0.0
C507 C 0.02895 0.18667 0.40416 0.0
C508 C 0.00693 0.18868 0.54733 0.0
C509 C 0.04937 0.17774 0.44466 0.0
C510 C 0.0492 0.17489 0.53622 0.0
H511 H 0.83343 0.84985 0.61912 0.0
H512 H 0.85589 0.77383 0.62963 0.0
H513 H 0.85721 0.77237 0.46742 0.0
H514 H 0.85412 0.79462 0.32349 0.0
H515 H 0.82799 0.86813 0.31492 0.0
H516 H 0.82594 0.86881 0.4765 0.0
C517 C 0.83853 0.83291 0.58571 0.0
C518 C 0.845 0.81227 0.63537 0.0
C519 C 0.83872 0.83195 0.49341 0.0
C520 C 0.85091 0.78993 0.59211 0.0
C521 C 0.8518 0.78923 0.49973 0.0
C522 C 0.84802 0.81077 0.35734 0.0
C523 C 0.84167 0.83165 0.30821 0.0
C524 C 0.84616 0.81045 0.44985 0.0
C525 C 0.83307 0.85198 0.35194 0.0
C526 C 0.83194 0.85239 0.444 0.0
H527 H 0.24454 0.07216 0.55597 0.0
H528 H 0.19662 0.96961 0.59747 0.0
H529 H 0.20204 0.9611 0.44162 0.0
H530 H 0.21519 0.98179 0.2902 0.0
H531 H 0.25852 0.08326 0.24338 0.0
H532 H 0.26109 0.09336 0.40299 0.0
C533 C 0.23557 0.04806 0.53082 0.0
C534 C 0.21967 0.02161 0.58845 0.0
C535 C 0.2382 0.0431 0.43964 0.0
C536 C 0.20832 -0.00954 0.55463 0.0
C537 C 0.21157 0.98548 0.4653 0.0
C538 C 0.22606 0.00613 0.31544 0.0
C539 C 0.23739 0.03182 0.25591 0.0
C540 C 0.22579 0.01147 0.40681 0.0
C541 C 0.25043 0.06323 0.28864 0.0
C542 C 0.25147 0.06893 0.37979 0.0
H543 H 0.62462 0.51472 0.72593 0.0
H544 H 0.72331 0.53681 0.71989 0.0
H545 H 0.72441 0.5376 0.88221 0.0
H546 H 0.69593 0.52867 0.02485 0.0
H547 H 0.59841 0.51028 0.03011 0.0
H548 H 0.59809 0.51152 0.86817 0.0
C549 C 0.64641 0.51991 0.76043 0.0
C550 C 0.67374 0.52526 0.71192 0.0
C551 C 0.64693 0.52083 0.85296 0.0
C552 C 0.70206 0.53258 0.75645 0.0
C553 C 0.70259 0.53288 0.84892 0.0
C554 C 0.67468 0.52506 -0.0097 0.0
C555 C 0.64702 0.51888 0.03866 0.0
C556 C 0.67497 0.52648 0.8977 0.0
C557 C 0.61986 0.51494 -0.00614 0.0
C558 C 0.61968 0.51556 0.90154 0.0
H559 H 0.40612 0.1297 0.77623 0.0
H560 H 0.50581 0.20413 0.75883 0.0
H561 H 0.50956 0.20655 0.9196 0.0
H562 H 0.48578 0.186 0.06299 0.0
H563 H 0.38768 0.10864 0.0858 0.0
H564 H 0.38177 0.10853 0.92467 0.0
C565 C 0.42841 0.14665 0.80825 0.0
C566 C 0.45563 0.16692 0.75671 0.0
C567 C 0.43069 0.14709 0.90098 0.0
C568 C 0.48464 0.18843 0.79786 0.0
C569 C 0.4868 0.18975 0.88948 0.0
C570 C 0.46293 0.16918 0.03318 0.0
C571 C 0.437 0.14744 0.08637 0.0
C572 C 0.46016 0.16892 0.94141 0.0
C573 C 0.40785 0.12557 0.04615 0.0
C574 C 0.40455 0.12559 0.95416 0.0
H575 H 0.84367 0.35657 0.70925 0.0
H576 H 0.76604 0.25836 0.69594 0.0
H577 H 0.76317 0.25535 0.85766 0.0
H578 H 0.78267 0.28096 0.00181 0.0
H579 H 0.86336 0.3776 0.01513 0.0
H580 H 0.86535 0.38108 0.85347 0.0
C581 C 0.82609 0.3346 0.7421 0.0
C582 C 0.80482 0.30783 0.69185 0.0
C583 C 0.82525 0.33283 0.83437 0.0
C584 C 0.78255 0.2792 0.73412 0.0
C585 C 0.78089 0.27752 0.82616 0.0
C586 C 0.80061 0.30277 0.96905 0.0
C587 C 0.82262 0.32913 0.01934 0.0
C588 C 0.80208 0.30423 0.87677 0.0
C589 C 0.84621 0.35708 0.97701 0.0
C590 C 0.84728 0.35908 0.88497 0.0
H591 H 0.30887 0.77688 0.15975 0.0
H592 H 0.26581 0.83663 0.17183 0.0
H593 H 0.27007 0.84268 0.01041 0.0
H594 H 0.28903 0.83319 0.86704 0.0
H595 H 0.32877 0.77053 0.85598 0.0
H596 H 0.32337 0.76368 0.01673 0.0
C597 C 0.30008 0.79093 0.12682 0.0
C598 C 0.28725 0.80647 0.17708 0.0
C599 C 0.3026 0.79419 0.03482 0.0
C600 C 0.27557 0.82429 0.13408 0.0
C601 C 0.27833 0.82801 0.04212 0.0
C602 C 0.29666 0.81826 0.90037 0.0
C603 C 0.30993 0.8029 0.85103 0.0
C604 C 0.29241 0.81358 -0.00788 0.0
C605 C 0.3189 0.78282 0.89353 0.0
C606 C 0.31568 0.77882 0.98502 0.0
H607 H 0.15688 0.4503 0.00424 0.0
H608 H 0.12005 0.5155 0.00533 0.0
H609 H 0.11867 0.5147 0.16745 0.0
H610 H 0.1309 0.49778 0.30744 0.0
H611 H 0.16429 0.42979 0.30753 0.0
H612 H 0.16365 0.42882 0.14518 0.0
C613 C 0.14841 0.46417 0.04032 0.0
C614 C 0.13902 0.48334 -0.00607 0.0
C615 C 0.1471 0.46302 0.13288 0.0
C616 C 0.12745 0.50072 0.04035 0.0
C617 C 0.12677 0.50031 0.13265 0.0
C618 C 0.13794 0.48267 0.27178 0.0
C619 C 0.14821 0.46431 0.31862 0.0
C620 C 0.13702 0.48195 0.17938 0.0
C621 C 0.15651 0.44422 0.27237 0.0
C622 C 0.15625 0.44379 0.17988 0.0
H623 H 0.51245 0.66354 0.31721 0.0
H624 H 0.5384 0.76319 0.32426 0.0
H625 H 0.54096 0.76542 0.16216 0.0
H626 H 0.53251 0.73783 0.01939 0.0
H627 H 0.5103 0.63924 0.01255 0.0
H628 H 0.50995 0.63771 0.17454 0.0
C629 C 0.51883 0.68575 0.28289 0.0
C630 C 0.52477 0.71306 0.33145 0.0
C631 C 0.5209 0.68694 0.19047 0.0
C632 C 0.53366 0.74194 0.28743 0.0
C633 C 0.53502 0.74314 0.19514 0.0
C634 C 0.52783 0.71611 0.05361 0.0
C635 C 0.52098 0.68852 0.0049 0.0
C636 C 0.52819 0.71564 0.14613 0.0
C637 C 0.51556 0.66068 0.0492 0.0
C638 C 0.51521 0.65978 0.14151 0.0
loop_
_geom_bond_atom_site_label_1
_geom_bond_atom_site_label_2
_geom_bond_distance
_geom_bond_site_symmetry_2
_ccdc_geom_bond_type
O0 Zn1 1.953 . S
O0 C16 1.225 . S
Zn1 O0 1.953 . S
Zn1 O2 1.949 1_656 S
Zn1 O8 1.919 . S
Zn1 O13 1.924 . S
O2 Zn1 1.949 1_454 S
O2 Zn3 1.923 . S
O2 Zn4 1.950 1_554 S
O2 Zn5 1.945 . S
Zn3 O2 1.923 . S
Zn3 O6 1.933 . S
Zn3 O9 1.941 1_455 S
Zn3 O10 1.965 . S
Zn4 O2 1.950 1_556 S
Zn4 O11 1.938 . S
Zn4 O12 1.906 . S
Zn4 O22 1.953 . S
Zn5 O2 1.945 . S
Zn5 O7 1.932 . S
Zn5 O14 1.977 . S
Zn5 O15 1.910 1_455 S
O6 Zn3 1.933 . S
O6 C17 1.226 . S
O7 Zn5 1.932 . S
O7 C17 1.307 . S
O8 Zn1 1.919 . S
O8 C19 1.253 1_556 S
O9 Zn3 1.941 1_655 S
O9 C19 1.283 . S
O10 Zn3 1.965 . S
O10 C18 1.303 1_554 S
O11 Zn4 1.938 . S
O11 C18 1.247 . S
O12 Zn4 1.906 . S
O12 C20 1.304 1_556 S
O13 Zn1 1.924 . S
O13 C21 1.311 1_556 S
O14 Zn5 1.977 . S
O14 C20 1.272 . S
O15 Zn5 1.910 1_655 S
O15 C21 1.231 . S
C16 O0 1.225 . S
C16 O22 1.298 1_655 S
C17 O6 1.226 . S
C17 O7 1.307 . S
C18 O10 1.303 1_556 S
C18 O11 1.247 . S
C19 O8 1.253 1_554 S
C19 O9 1.283 . S
C20 O12 1.304 1_554 S
C20 O14 1.272 . S
C21 O13 1.311 1_554 S
C21 O15 1.231 . S
O22 Zn4 1.953 . S
O22 C16 1.298 1_455 S
O23 Zn24 1.953 . S
O23 C39 1.225 . S
Zn24 O23 1.953 . S
Zn24 O25 1.949 . S
Zn24 O31 1.919 . S
Zn24 O36 1.924 . S
O25 Zn24 1.949 . S
O25 Zn26 1.923 1_554 S
O25 Zn27 1.950 . S
O25 Zn28 1.945 1_554 S
Zn26 O25 1.923 1_556 S
Zn26 O29 1.933 . S
Zn26 O32 1.941 . S
Zn26 O33 1.965 . S
Zn27 O25 1.950 . S
Zn27 O34 1.938 . S
Zn27 O35 1.906 . S
Zn27 O45 1.953 . S
Zn28 O25 1.945 1_556 S
Zn28 O30 1.932 . S
Zn28 O37 1.977 . S
Zn28 O38 1.910 . S
O29 Zn26 1.933 . S
O29 C40 1.226 . S
O30 Zn28 1.932 . S
O30 C40 1.307 . S
O31 Zn24 1.919 . S
O31 C42 1.253 1_554 S
O32 Zn26 1.941 . S
O32 C42 1.283 . S
O33 Zn26 1.965 . S
O33 C41 1.303 1_556 S
O34 Zn27 1.938 . S
O34 C41 1.247 . S
O35 Zn27 1.906 . S
O35 C43 1.304 1_554 S
O36 Zn24 1.924 . S
O36 C44 1.311 . S
O37 Zn28 1.977 . S
O37 C43 1.272 . S
O38 Zn28 1.910 . S
O38 C44 1.231 1_556 S
C39 O23 1.225 . S
C39 O45 1.298 . S
C40 O29 1.226 . S
C40 O30 1.307 . S
C41 O33 1.303 1_554 S
C41 O34 1.247 . S
C42 O31 1.253 1_556 S
C42 O32 1.283 . S
C43 O35 1.304 1_556 S
C43 O37 1.272 . S
C44 O36 1.311 . S
C44 O38 1.231 1_554 S
O45 Zn27 1.953 . S
O45 C39 1.298 . S
O46 Zn47 1.953 . S
O46 C62 1.225 . S
Zn47 O46 1.953 . S
Zn47 O48 1.949 1_556 S
Zn47 O54 1.919 . S
Zn47 O59 1.924 . S
O48 Zn47 1.949 1_554 S
O48 Zn49 1.935 . S
O48 Zn50 1.950 1_544 S
O48 Zn51 1.945 . S
Zn49 O48 1.935 . S
Zn49 O52 1.934 1_545 S
Zn49 O55 1.947 . S
Zn49 O56 1.947 1_545 S
Zn50 O48 1.950 1_566 S
Zn50 O57 1.938 . S
Zn50 O58 1.906 . S
Zn50 O68 1.953 . S
Zn51 O48 1.945 . S
Zn51 O53 1.932 . S
Zn51 O60 1.977 1_545 S
Zn51 O61 1.910 . S
O52 Zn49 1.934 1_565 S
O52 C63 1.210 1_565 S
O53 Zn51 1.932 . S
O53 C63 1.326 . S
O54 Zn47 1.919 . S
O54 C65 1.253 1_556 S
O55 Zn49 1.947 . S
O55 C65 1.283 . S
O56 Zn49 1.947 1_565 S
O56 C64 1.303 1_554 S
O57 Zn50 1.938 . S
O57 C64 1.247 . S
O58 Zn50 1.906 . S
O58 C66 1.304 1_556 S
O59 Zn47 1.924 . S
O59 C67 1.311 1_556 S
O60 Zn51 1.977 1_565 S
O60 C66 1.272 . S
O61 Zn51 1.910 . S
O61 C67 1.231 . S
C62 O46 1.225 . S
C62 O68 1.298 1_545 S
C63 O52 1.210 1_545 S
C63 O53 1.326 . S
C64 O56 1.303 1_556 S
C64 O57 1.247 . S
C65 O54 1.253 1_554 S
C65 O55 1.283 . S
C66 O58 1.304 1_554 S
C66 O60 1.272 . S
C67 O59 1.311 1_554 S
C67 O61 1.231 . S
O68 Zn50 1.953 . S
O68 C62 1.298 1_565 S
O69 Zn70 1.953 . S
O69 C85 1.225 . S
Zn70 O69 1.953 . S
Zn70 O71 1.949 . S
Zn70 O77 1.919 . S
Zn70 O82 1.924 . S
O71 Zn70 1.949 . S
O71 Zn72 1.923 . S
O71 Zn73 1.950 . S
O71 Zn74 1.945 . S
Zn72 O71 1.923 . S
Zn72 O75 1.933 . S
Zn72 O78 1.941 . S
Zn72 O79 1.965 . S
Zn73 O71 1.950 . S
Zn73 O80 1.938 . S
Zn73 O81 1.906 . S
Zn73 O91 1.953 . S
Zn74 O71 1.945 . S
Zn74 O76 1.932 . S
Zn74 O83 1.977 . S
Zn74 O84 1.910 . S
O75 Zn72 1.933 . S
O75 C86 1.226 . S
O76 Zn74 1.932 . S
O76 C86 1.307 . S
O77 Zn70 1.919 . S
O77 C88 1.253 . S
O78 Zn72 1.941 . S
O78 C88 1.283 . S
O79 Zn72 1.965 . S
O79 C87 1.303 . S
O80 Zn73 1.938 . S
O80 C87 1.247 . S
O81 Zn73 1.906 . S
O81 C89 1.304 . S
O82 Zn70 1.924 . S
O82 C90 1.311 . S
O83 Zn74 1.977 . S
O83 C89 1.272 . S
O84 Zn74 1.910 . S
O84 C90 1.231 . S
C85 O69 1.225 . S
C85 O91 1.298 . S
C86 O75 1.226 . S
C86 O76 1.307 . S
C87 O79 1.303 . S
C87 O80 1.247 . S
C88 O77 1.253 . S
C88 O78 1.283 . S
C89 O81 1.304 . S
C89 O83 1.272 . S
C90 O82 1.311 . S
C90 O84 1.231 . S
O91 Zn73 1.953 . S
O91 C85 1.298 . S
O92 Zn93 1.953 . S
O92 C108 1.225 . S
Zn93 O92 1.953 . S
Zn93 O94 1.949 . S
Zn93 O100 1.919 . S
Zn93 O105 1.924 . S
O94 Zn93 1.949 . S
O94 Zn95 1.923 . S
O94 Zn96 1.950 . S
O94 Zn97 1.945 . S
Zn95 O94 1.923 . S
Zn95 O98 1.933 . S
Zn95 O101 1.941 . S
Zn95 O102 1.965 . S
Zn96 O94 1.950 . S
Zn96 O103 1.938 . S
Zn96 O104 1.906 . S
Zn96 O114 1.953 . S
Zn97 O94 1.945 . S
Zn97 O99 1.932 . S
Zn97 O106 1.977 . S
Zn97 O107 1.910 . S
O98 Zn95 1.933 . S
O98 C109 1.226 . S
O99 Zn97 1.932 . S
O99 C109 1.307 . S
O100 Zn93 1.919 . S
O100 C111 1.253 . S
O101 Zn95 1.941 . S
O101 C111 1.283 . S
O102 Zn95 1.965 . S
O102 C110 1.303 . S
O103 Zn96 1.938 . S
O103 C110 1.247 . S
O104 Zn96 1.906 . S
O104 C112 1.304 . S
O105 Zn93 1.924 . S
O105 C113 1.311 . S
O106 Zn97 1.977 . S
O106 C112 1.272 . S
O107 Zn97 1.910 . S
O107 C113 1.231 . S
C108 O92 1.225 . S
C108 O114 1.298 . S
C109 O98 1.226 . S
C109 O99 1.307 . S
C110 O102 1.303 . S
C110 O103 1.247 . S
C111 O100 1.253 . S
C111 O101 1.283 . S
C112 O104 1.304 . S
C112 O106 1.272 . S
C113 O105 1.311 . S
C113 O107 1.231 . S
O114 Zn96 1.953 . S
O114 C108 1.298 . S
O115 Zn116 1.953 . S
O115 C131 1.225 . S
Zn116 O115 1.953 . S
Zn116 O117 1.949 . S
Zn116 O123 1.919 . S
Zn116 O128 1.924 . S
O117 Zn116 1.949 . S
O117 Zn118 1.923 . S
O117 Zn119 1.950 . S
O117 Zn120 1.945 . S
Zn118 O117 1.923 . S
Zn118 O121 1.933 . S
Zn118 O124 1.941 . S
Zn118 O125 1.965 . S
Zn119 O117 1.950 . S
Zn119 O126 1.938 . S
Zn119 O127 1.906 . S
Zn119 O137 1.953 . S
Zn120 O117 1.945 . S
Zn120 O122 1.932 . S
Zn120 O129 1.977 . S
Zn120 O130 1.910 . S
O121 Zn118 1.933 . S
O121 C132 1.226 . S
O122 Zn120 1.932 . S
O122 C132 1.307 . S
O123 Zn116 1.919 . S
O123 C134 1.253 . S
O124 Zn118 1.941 . S
O124 C134 1.283 . S
O125 Zn118 1.965 . S
O125 C133 1.303 . S
O126 Zn119 1.938 . S
O126 C133 1.247 . S
O127 Zn119 1.906 . S
O127 C135 1.304 . S
O128 Zn116 1.924 . S
O128 C136 1.311 . S
O129 Zn120 1.977 . S
O129 C135 1.272 . S
O130 Zn120 1.910 . S
O130 C136 1.231 . S
C131 O115 1.225 . S
C131 O137 1.298 . S
C132 O121 1.226 . S
C132 O122 1.307 . S
C133 O125 1.303 . S
C133 O126 1.247 . S
C134 O123 1.253 . S
C134 O124 1.283 . S
C135 O127 1.304 . S
C135 O129 1.272 . S
C136 O128 1.311 . S
C136 O130 1.231 . S
O137 Zn119 1.953 . S
O137 C131 1.298 . S
O138 Zn139 1.953 . S
O138 C154 1.225 . S
Zn139 O138 1.953 . S
Zn139 O140 1.949 . S
Zn139 O146 1.919 . S
Zn139 O151 1.924 . S
O140 Zn139 1.949 . S
O140 Zn141 1.923 . S
O140 Zn142 1.950 . S
O140 Zn143 1.945 . S
Zn141 O140 1.923 . S
Zn141 O144 1.933 . S
Zn141 O147 1.941 . S
Zn141 O148 1.965 . S
Zn142 O140 1.950 . S
Zn142 O149 1.938 . S
Zn142 O150 1.906 . S
Zn142 O160 1.953 . S
Zn143 O140 1.945 . S
Zn143 O145 1.932 . S
Zn143 O152 1.977 . S
Zn143 O153 1.910 . S
O144 Zn141 1.933 . S
O144 C155 1.226 . S
O145 Zn143 1.932 . S
O145 C155 1.307 . S
O146 Zn139 1.919 . S
O146 C157 1.253 . S
O147 Zn141 1.941 . S
O147 C157 1.283 . S
O148 Zn141 1.965 . S
O148 C156 1.303 . S
O149 Zn142 1.938 . S
O149 C156 1.247 . S
O150 Zn142 1.906 . S
O150 C158 1.304 . S
O151 Zn139 1.924 . S
O151 C159 1.311 . S
O152 Zn143 1.977 . S
O152 C158 1.272 . S
O153 Zn143 1.910 . S
O153 C159 1.231 . S
C154 O138 1.225 . S
C154 O160 1.298 . S
C155 O144 1.226 . S
C155 O145 1.307 . S
C156 O148 1.303 . S
C156 O149 1.247 . S
C157 O146 1.253 . S
C157 O147 1.283 . S
C158 O150 1.304 . S
C158 O152 1.272 . S
C159 O151 1.311 . S
C159 O153 1.231 . S
O160 Zn142 1.953 . S
O160 C154 1.298 . S
O161 Zn162 1.953 . S
O161 C177 1.225 . S
Zn162 O161 1.953 . S
Zn162 O163 1.949 . S
Zn162 O169 1.919 . S
Zn162 O174 1.924 . S
O163 Zn162 1.949 . S
O163 Zn164 1.923 . S
O163 Zn165 1.950 . S
O163 Zn166 1.945 . S
Zn164 O163 1.923 . S
Zn164 O167 1.933 . S
Zn164 O170 1.941 . S
Zn164 O171 1.965 . S
Zn165 O163 1.950 . S
Zn165 O172 1.938 . S
Zn165 O173 1.906 . S
Zn165 O183 1.953 . S
Zn166 O163 1.945 . S
Zn166 O168 1.932 . S
Zn166 O175 1.977 . S
Zn166 O176 1.910 . S
O167 Zn164 1.933 . S
O167 C178 1.226 . S
O168 Zn166 1.932 . S
O168 C178 1.307 . S
O169 Zn162 1.919 . S
O169 C180 1.253 . S
O170 Zn164 1.941 . S
O170 C180 1.283 . S
O171 Zn164 1.965 . S
O171 C179 1.303 . S
O172 Zn165 1.938 . S
O172 C179 1.247 . S
O173 Zn165 1.906 . S
O173 C181 1.304 . S
O174 Zn162 1.924 . S
O174 C182 1.311 . S
O175 Zn166 1.977 . S
O175 C181 1.272 . S
O176 Zn166 1.910 . S
O176 C182 1.231 . S
C177 O161 1.225 . S
C177 O183 1.298 . S
C178 O167 1.226 . S
C178 O168 1.307 . S
C179 O171 1.303 . S
C179 O172 1.247 . S
C180 O169 1.253 . S
C180 O170 1.283 . S
C181 O173 1.304 . S
C181 O175 1.272 . S
C182 O174 1.311 . S
C182 O176 1.231 . S
O183 Zn165 1.953 . S
O183 C177 1.298 . S
O184 Zn185 1.953 . S
O184 C200 1.225 . S
Zn185 O184 1.953 . S
Zn185 O186 1.949 . S
Zn185 O192 1.919 . S
Zn185 O197 1.924 . S
O186 Zn185 1.949 . S
O186 Zn187 1.923 . S
O186 Zn188 1.950 . S
O186 Zn189 1.945 . S
Zn187 O186 1.923 . S
Zn187 O190 1.933 . S
Zn187 O193 1.941 . S
Zn187 O194 1.965 . S
Zn188 O186 1.950 . S
Zn188 O195 1.938 . S
Zn188 O196 1.906 . S
Zn188 O206 1.953 . S
Zn189 O186 1.945 . S
Zn189 O191 1.932 . S
Zn189 O198 1.977 . S
Zn189 O199 1.910 . S
O190 Zn187 1.933 . S
O190 C201 1.226 . S
O191 Zn189 1.932 . S
O191 C201 1.307 . S
O192 Zn185 1.919 . S
O192 C203 1.253 . S
O193 Zn187 1.941 . S
O193 C203 1.283 . S
O194 Zn187 1.965 . S
O194 C202 1.303 . S
O195 Zn188 1.938 . S
O195 C202 1.247 . S
O196 Zn188 1.906 . S
O196 C204 1.304 . S
O197 Zn185 1.924 . S
O197 C205 1.311 . S
O198 Zn189 1.977 . S
O198 C204 1.272 . S
O199 Zn189 1.910 . S
O199 C205 1.231 . S
C200 O184 1.225 . S
C200 O206 1.298 . S
C201 O190 1.226 . S
C201 O191 1.307 . S
C202 O194 1.303 . S
C202 O195 1.247 . S
C203 O192 1.253 . S
C203 O193 1.283 . S
C204 O196 1.304 . S
C204 O198 1.272 . S
C205 O197 1.311 . S
C205 O199 1.231 . S
O206 Zn188 1.953 . S
O206 C200 1.298 . S
H207 C213 0.930 . S
H208 C216 0.930 . S
H209 C217 0.930 . S
H210 C218 0.930 . S
H211 C221 0.930 . S
H212 C222 0.930 . S
C213 H207 0.930 . S
C213 C214 1.355 . S
C213 C215 1.415 . S
C214 C213 1.355 . S
C214 C216 1.419 . S
C215 C213 1.415 . S
C215 C220 1.425 . S
C215 C222 1.409 . S
C216 H208 0.930 . S
C216 C214 1.419 . S
C216 C217 1.362 . S
C217 H209 0.930 . S
C217 C216 1.362 . S
C217 C220 1.409 . S
C218 H210 0.930 . S
C218 C219 1.355 . S
C218 C220 1.415 . S
C219 C218 1.355 . S
C219 C221 1.419 . S
C220 C215 1.425 . S
C220 C217 1.409 . S
C220 C218 1.415 . S
C221 H211 0.930 . S
C221 C219 1.419 . S
C221 C222 1.362 . S
C222 H212 0.930 . S
C222 C215 1.409 . S
C222 C221 1.362 . S
H223 C229 0.930 . S
H224 C232 0.930 1_554 S
H225 C233 0.930 . S
H226 C234 0.930 . S
H227 C237 0.930 . S
H228 C238 0.930 . S
C229 H223 0.930 . S
C229 C230 1.355 . S
C229 C231 1.415 . S
C230 C229 1.355 . S
C230 C232 1.419 . S
C231 C229 1.415 . S
C231 C236 1.425 . S
C231 C238 1.409 . S
C232 H224 0.930 1_556 S
C232 C230 1.419 . S
C232 C233 1.362 . S
C233 H225 0.930 . S
C233 C232 1.362 . S
C233 C236 1.409 . S
C234 H226 0.930 . S
C234 C235 1.355 . S
C234 C236 1.415 . S
C235 C234 1.355 . S
C235 C237 1.419 . S
C236 C231 1.425 . S
C236 C233 1.409 . S
C236 C234 1.415 . S
C237 H227 0.930 . S
C237 C235 1.419 . S
C237 C238 1.362 . S
C238 H228 0.930 . S
C238 C231 1.409 . S
C238 C237 1.362 . S
H239 C245 0.930 . S
H240 C248 0.930 1_554 S
H241 C249 0.930 . S
H242 C250 0.930 . S
H243 C253 0.930 . S
H244 C254 0.930 . S
C245 H239 0.930 . S
C245 C246 1.355 . S
C245 C247 1.415 . S
C246 C245 1.355 . S
C246 C248 1.419 . S
C247 C245 1.415 . S
C247 C252 1.425 . S
C247 C254 1.409 . S
C248 H240 0.930 1_556 S
C248 C246 1.419 . S
C248 C249 1.362 . S
C249 H241 0.930 . S
C249 C248 1.362 . S
C249 C252 1.409 . S
C250 H242 0.930 . S
C250 C251 1.355 . S
C250 C252 1.415 . S
C251 C250 1.355 . S
C251 C253 1.419 . S
C252 C247 1.425 . S
C252 C249 1.409 . S
C252 C250 1.415 . S
C253 H243 0.930 . S
C253 C251 1.419 . S
C253 C254 1.362 . S
C254 H244 0.930 . S
C254 C247 1.409 . S
C254 C253 1.362 . S
H255 C261 0.930 . S
H256 C264 0.930 . S
H257 C265 0.930 . S
H258 C266 0.930 . S
H259 C269 0.930 . S
H260 C270 0.930 . S
C261 H255 0.930 . S
C261 C262 1.355 . S
C261 C263 1.415 . S
C262 C261 1.355 . S
C262 C264 1.419 . S
C263 C261 1.415 . S
C263 C268 1.425 . S
C263 C270 1.409 . S
C264 H256 0.930 . S
C264 C262 1.419 . S
C264 C265 1.362 . S
C265 H257 0.930 . S
C265 C264 1.362 . S
C265 C268 1.409 . S
C266 H258 0.930 . S
C266 C267 1.355 . S
C266 C268 1.415 . S
C267 C266 1.355 . S
C267 C269 1.419 . S
C268 C263 1.425 . S
C268 C265 1.409 . S
C268 C266 1.415 . S
C269 H259 0.930 . S
C269 C267 1.419 . S
C269 C270 1.362 . S
C270 H260 0.930 . S
C270 C263 1.409 . S
C270 C269 1.362 . S
H271 C277 0.930 . S
H272 C280 0.930 . S
H273 C281 0.930 . S
H274 C282 0.930 . S
H275 C285 0.930 1_556 S
H276 C286 0.930 . S
C277 H271 0.930 . S
C277 C278 1.355 . S
C277 C279 1.415 . S
C278 C277 1.355 . S
C278 C280 1.419 . S
C279 C277 1.415 . S
C279 C284 1.425 . S
C279 C286 1.409 . S
C280 H272 0.930 . S
C280 C278 1.419 . S
C280 C281 1.362 . S
C281 H273 0.930 . S
C281 C280 1.362 . S
C281 C284 1.409 . S
C282 H274 0.930 . S
C282 C283 1.355 . S
C282 C284 1.415 . S
C283 C282 1.355 . S
C283 C285 1.419 . S
C284 C279 1.425 . S
C284 C281 1.409 . S
C284 C282 1.415 . S
C285 H275 0.930 1_554 S
C285 C283 1.419 . S
C285 C286 1.362 . S
C286 H276 0.930 . S
C286 C279 1.409 . S
C286 C285 1.362 . S
H287 C293 0.930 . S
H288 C296 0.930 . S
H289 C297 0.930 . S
H290 C298 0.930 . S
H291 C301 0.930 . S
H292 C302 0.930 . S
C293 H287 0.930 . S
C293 C294 1.355 . S
C293 C295 1.415 . S
C294 C293 1.355 . S
C294 C296 1.419 . S
C295 C293 1.415 . S
C295 C300 1.425 . S
C295 C302 1.409 . S
C296 H288 0.930 . S
C296 C294 1.419 . S
C296 C297 1.362 . S
C297 H289 0.930 . S
C297 C296 1.362 . S
C297 C300 1.409 . S
C298 H290 0.930 . S
C298 C299 1.355 . S
C298 C300 1.415 . S
C299 C298 1.355 . S
C299 C301 1.419 . S
C300 C295 1.425 . S
C300 C297 1.409 . S
C300 C298 1.415 . S
C301 H291 0.930 . S
C301 C299 1.419 . S
C301 C302 1.362 . S
C302 H292 0.930 . S
C302 C295 1.409 . S
C302 C301 1.362 . S
H303 C309 0.930 . S
H304 C312 0.930 . S
H305 C313 0.930 . S
H306 C314 0.930 . S
H307 C317 0.930 . S
H308 C318 0.930 . S
C309 H303 0.930 . S
C309 C310 1.355 . S
C309 C311 1.415 . S
C310 C309 1.355 . S
C310 C312 1.419 . S
C311 C309 1.415 . S
C311 C316 1.425 . S
C311 C318 1.409 1_455 S
C312 H304 0.930 . S
C312 C310 1.419 . S
C312 C313 1.362 . S
C313 H305 0.930 . S
C313 C312 1.362 . S
C313 C316 1.409 . S
C314 H306 0.930 . S
C314 C315 1.355 . S
C314 C316 1.415 1_655 S
C315 C314 1.355 . S
C315 C317 1.419 . S
C316 C311 1.425 . S
C316 C313 1.409 . S
C316 C314 1.415 1_455 S
C317 H307 0.930 . S
C317 C315 1.419 . S
C317 C318 1.362 . S
C318 H308 0.930 . S
C318 C311 1.409 1_655 S
C318 C317 1.362 . S
H319 C325 0.930 . S
H320 C328 0.930 . S
H321 C329 0.930 . S
H322 C330 0.930 . S
H323 C333 0.930 . S
H324 C334 0.930 . S
C325 H319 0.930 . S
C325 C326 1.355 . S
C325 C327 1.415 . S
C326 C325 1.355 . S
C326 C328 1.419 . S
C327 C325 1.415 . S
C327 C332 1.425 . S
C327 C334 1.409 . S
C328 H320 0.930 . S
C328 C326 1.419 . S
C328 C329 1.362 . S
C329 H321 0.930 . S
C329 C328 1.362 . S
C329 C332 1.409 . S
C330 H322 0.930 . S
C330 C331 1.355 . S
C330 C332 1.415 . S
C331 C330 1.355 . S
C331 C333 1.419 . S
C332 C327 1.425 . S
C332 C329 1.409 . S
C332 C330 1.415 . S
C333 H323 0.930 . S
C333 C331 1.419 . S
C333 C334 1.362 . S
C334 H324 0.930 . S
C334 C327 1.409 . S
C334 C333 1.362 . S
H335 C341 0.930 . S
H336 C344 0.930 . S
H337 C345 0.930 . S
H338 C346 0.930 . S
H339 C349 0.930 . S
H340 C350 0.930 . S
C341 H335 0.930 . S
C341 C342 1.355 . S
C341 C343 1.415 . S
C342 C341 1.355 . S
C342 C344 1.419 . S
C343 C341 1.415 . S
C343 C348 1.425 . S
C343 C350 1.409 1_545 S
C344 H336 0.930 . S
C344 C342 1.419 . S
C344 C345 1.362 . S
C345 H337 0.930 . S
C345 C344 1.362 . S
C345 C348 1.409 . S
C346 H338 0.930 . S
C346 C347 1.355 . S
C346 C348 1.415 1_565 S
C347 C346 1.355 . S
C347 C349 1.419 . S
C348 C343 1.425 . S
C348 C345 1.409 . S
C348 C346 1.415 1_545 S
C349 H339 0.930 . S
C349 C347 1.419 . S
C349 C350 1.362 . S
C350 H340 0.930 . S
C350 C343 1.409 1_565 S
C350 C349 1.362 . S
H351 C357 0.930 . S
H352 C360 0.930 . S
H353 C361 0.930 . S
H354 C362 0.930 . S
H355 C365 0.930 . S
H356 C366 0.930 . S
C357 H351 0.930 . S
C357 C358 1.355 1_554 S
C357 C359 1.415 . S
C358 C357 1.355 1_556 S
C358 C360 1.419 . S
C359 C357 1.415 . S
C359 C364 1.425 1_554 S
C359 C366 1.409 . S
C360 H352 0.930 . S
C360 C358 1.419 . S
C360 C361 1.362 . S
C361 H353 0.930 . S
C361 C360 1.362 . S
C361 C364 1.409 . S
C362 H354 0.930 . S
C362 C363 1.355 1_556 S
C362 C364 1.415 . S
C363 C362 1.355 1_554 S
C363 C365 1.419 . S
C364 C359 1.425 1_556 S
C364 C361 1.409 . S
C364 C362 1.415 . S
C365 H355 0.930 . S
C365 C363 1.419 . S
C365 C366 1.362 . S
C366 H356 0.930 . S
C366 C359 1.409 . S
C366 C365 1.362 . S
H367 C373 0.930 . S
H368 C376 0.930 . S
H369 C377 0.930 . S
H370 C378 0.930 . S
H371 C381 0.930 . S
H372 C382 0.930 . S
C373 H367 0.930 . S
C373 C374 1.355 . S
C373 C375 1.415 1_565 S
C374 C373 1.355 . S
C374 C376 1.419 1_554 S
C375 C373 1.415 1_545 S
C375 C380 1.425 1_554 S
C375 C382 1.409 . S
C376 H368 0.930 . S
C376 C374 1.419 1_556 S
C376 C377 1.362 . S
C377 H369 0.930 . S
C377 C376 1.362 . S
C377 C380 1.409 1_565 S
C378 H370 0.930 . S
C378 C379 1.359 . S
C378 C380 1.415 . S
C379 C378 1.359 . S
C379 C381 1.414 1_556 S
C380 C375 1.425 1_556 S
C380 C377 1.409 1_545 S
C380 C378 1.415 . S
C381 H371 0.930 . S
C381 C379 1.414 1_554 S
C381 C382 1.362 . S
C382 H372 0.930 . S
C382 C375 1.409 . S
C382 C381 1.362 . S
H383 C389 0.930 . S
H384 C392 0.930 . S
H385 C393 0.930 1_455 S
H386 C394 0.930 . S
H387 C397 0.930 . S
H388 C398 0.930 . S
C389 H383 0.930 . S
C389 C390 1.355 1_554 S
C389 C391 1.415 1_655 S
C390 C389 1.355 1_556 S
C390 C392 1.419 . S
C391 C389 1.415 1_455 S
C391 C396 1.425 1_554 S
C391 C398 1.409 . S
C392 H384 0.930 . S
C392 C390 1.419 . S
C392 C393 1.362 . S
C393 H385 0.930 1_655 S
C393 C392 1.362 . S
C393 C396 1.409 1_655 S
C394 H386 0.930 . S
C394 C395 1.355 1_556 S
C394 C396 1.415 . S
C395 C394 1.355 1_554 S
C395 C397 1.419 . S
C396 C391 1.425 1_556 S
C396 C393 1.409 1_455 S
C396 C394 1.415 . S
C397 H387 0.930 . S
C397 C395 1.419 . S
C397 C398 1.362 . S
C398 H388 0.930 . S
C398 C391 1.409 . S
C398 C397 1.362 . S
H399 C405 0.930 . S
H400 C408 0.930 . S
H401 C409 0.930 . S
H402 C410 0.930 . S
H403 C413 0.930 . S
H404 C414 0.930 . S
C405 H399 0.930 . S
C405 C406 1.355 . S
C405 C407 1.415 . S
C406 C405 1.355 . S
C406 C408 1.419 . S
C407 C405 1.415 . S
C407 C412 1.425 . S
C407 C414 1.409 . S
C408 H400 0.930 . S
C408 C406 1.419 . S
C408 C409 1.362 . S
C409 H401 0.930 . S
C409 C408 1.362 . S
C409 C412 1.409 . S
C410 H402 0.930 . S
C410 C411 1.355 . S
C410 C412 1.415 . S
C411 C410 1.355 . S
C411 C413 1.419 . S
C412 C407 1.425 . S
C412 C409 1.409 . S
C412 C410 1.415 . S
C413 H403 0.930 . S
C413 C411 1.419 . S
C413 C414 1.362 . S
C414 H404 0.930 . S
C414 C407 1.409 . S
C414 C413 1.362 . S
H415 C421 0.930 . S
H416 C424 0.930 . S
H417 C425 0.930 . S
H418 C426 0.930 . S
H419 C429 0.930 . S
H420 C430 0.930 . S
C421 H415 0.930 . S
C421 C422 1.355 . S
C421 C423 1.415 . S
C422 C421 1.355 . S
C422 C424 1.419 . S
C423 C421 1.415 . S
C423 C428 1.425 . S
C423 C430 1.409 . S
C424 H416 0.930 . S
C424 C422 1.419 . S
C424 C425 1.362 . S
C425 H417 0.930 . S
C425 C424 1.362 . S
C425 C428 1.409 . S
C426 H418 0.930 . S
C426 C427 1.355 . S
C426 C428 1.415 . S
C427 C426 1.355 . S
C427 C429 1.419 . S
C428 C423 1.425 . S
C428 C425 1.409 . S
C428 C426 1.415 . S
C429 H419 0.930 . S
C429 C427 1.419 . S
C429 C430 1.362 . S
C430 H420 0.930 . S
C430 C423 1.409 . S
C430 C429 1.362 . S
H431 C437 0.930 . S
H432 C440 0.930 . S
H433 C441 0.930 . S
H434 C442 0.930 . S
H435 C445 0.930 . S
H436 C446 0.930 . S
C437 H431 0.930 . S
C437 C438 1.355 . S
C437 C439 1.415 . S
C438 C437 1.355 . S
C438 C440 1.419 . S
C439 C437 1.415 . S
C439 C444 1.425 . S
C439 C446 1.409 . S
C440 H432 0.930 . S
C440 C438 1.419 . S
C440 C441 1.362 . S
C441 H433 0.930 . S
C441 C440 1.362 . S
C441 C444 1.409 . S
C442 H434 0.930 . S
C442 C443 1.355 . S
C442 C444 1.415 . S
C443 C442 1.355 . S
C443 C445 1.419 . S
C444 C439 1.425 . S
C444 C441 1.409 . S
C444 C442 1.415 . S
C445 H435 0.930 . S
C445 C443 1.419 . S
C445 C446 1.362 . S
C446 H436 0.930 . S
C446 C439 1.409 . S
C446 C445 1.362 . S
H447 C453 0.930 . S
H448 C456 0.930 . S
H449 C457 0.930 . S
H450 C458 0.930 . S
H451 C461 0.930 . S
H452 C462 0.930 . S
C453 H447 0.930 . S
C453 C454 1.355 . S
C453 C455 1.415 . S
C454 C453 1.355 . S
C454 C456 1.419 . S
C455 C453 1.415 . S
C455 C460 1.425 . S
C455 C462 1.409 . S
C456 H448 0.930 . S
C456 C454 1.419 . S
C456 C457 1.362 . S
C457 H449 0.930 . S
C457 C456 1.362 . S
C457 C460 1.409 . S
C458 H450 0.930 . S
C458 C459 1.355 . S
C458 C460 1.415 . S
C459 C458 1.355 . S
C459 C461 1.419 . S
C460 C455 1.425 . S
C460 C457 1.409 . S
C460 C458 1.415 . S
C461 H451 0.930 . S
C461 C459 1.419 . S
C461 C462 1.362 . S
C462 H452 0.930 . S
C462 C455 1.409 . S
C462 C461 1.362 . S
H463 C469 0.930 . S
H464 C472 0.930 . S
H465 C473 0.930 . S
H466 C474 0.930 . S
H467 C477 0.930 . S
H468 C478 0.930 . S
C469 H463 0.930 . S
C469 C470 1.355 . S
C469 C471 1.415 . S
C470 C469 1.355 . S
C470 C472 1.419 . S
C471 C469 1.415 . S
C471 C476 1.425 . S
C471 C478 1.409 . S
C472 H464 0.930 . S
C472 C470 1.419 . S
C472 C473 1.362 . S
C473 H465 0.930 . S
C473 C472 1.362 . S
C473 C476 1.409 . S
C474 H466 0.930 . S
C474 C475 1.355 . S
C474 C476 1.415 . S
C475 C474 1.355 . S
C475 C477 1.419 . S
C476 C471 1.425 . S
C476 C473 1.409 . S
C476 C474 1.415 . S
C477 H467 0.930 . S
C477 C475 1.419 . S
C477 C478 1.362 . S
C478 H468 0.930 . S
C478 C471 1.409 . S
C478 C477 1.362 . S
H479 C485 0.930 . S
H480 C488 0.930 . S
H481 C489 0.930 . S
H482 C490 0.930 . S
H483 C493 0.930 . S
H484 C494 0.930 . S
C485 H479 0.930 . S
C485 C486 1.355 . S
C485 C487 1.415 . S
C486 C485 1.355 . S
C486 C488 1.419 . S
C487 C485 1.415 . S
C487 C492 1.425 . S
C487 C494 1.409 . S
C488 H480 0.930 . S
C488 C486 1.419 . S
C488 C489 1.362 . S
C489 H481 0.930 . S
C489 C488 1.362 . S
C489 C492 1.409 . S
C490 H482 0.930 . S
C490 C491 1.355 . S
C490 C492 1.415 . S
C491 C490 1.355 . S
C491 C493 1.419 . S
C492 C487 1.425 . S
C492 C489 1.409 . S
C492 C490 1.415 . S
C493 H483 0.930 . S
C493 C491 1.419 . S
C493 C494 1.362 . S
C494 H484 0.930 . S
C494 C487 1.409 . S
C494 C493 1.362 . S
H495 C501 0.930 . S
H496 C504 0.930 . S
H497 C505 0.930 . S
H498 C506 0.930 1_655 S
H499 C509 0.930 . S
H500 C510 0.930 . S
C501 H495 0.930 . S
C501 C502 1.355 1_455 S
C501 C503 1.415 . S
C502 C501 1.355 1_655 S
C502 C504 1.419 . S
C503 C501 1.415 . S
C503 C508 1.425 . S
C503 C510 1.409 . S
C504 H496 0.930 . S
C504 C502 1.419 . S
C504 C505 1.362 . S
C505 H497 0.930 . S
C505 C504 1.362 . S
C505 C508 1.409 1_655 S
C506 H498 0.930 1_455 S
C506 C507 1.355 . S
C506 C508 1.415 . S
C507 C506 1.355 . S
C507 C509 1.419 . S
C508 C503 1.425 . S
C508 C505 1.409 1_455 S
C508 C506 1.415 . S
C509 H499 0.930 . S
C509 C507 1.419 . S
C509 C510 1.362 . S
C510 H500 0.930 . S
C510 C503 1.409 . S
C510 C509 1.362 . S
H511 C517 0.930 . S
H512 C520 0.930 . S
H513 C521 0.930 . S
H514 C522 0.930 . S
H515 C525 0.930 . S
H516 C526 0.930 . S
C517 H511 0.930 . S
C517 C518 1.355 . S
C517 C519 1.415 . S
C518 C517 1.355 . S
C518 C520 1.419 . S
C519 C517 1.415 . S
C519 C524 1.425 . S
C519 C526 1.409 . S
C520 H512 0.930 . S
C520 C518 1.419 . S
C520 C521 1.362 . S
C521 H513 0.930 . S
C521 C520 1.362 . S
C521 C524 1.409 . S
C522 H514 0.930 . S
C522 C523 1.355 . S
C522 C524 1.415 . S
C523 C522 1.355 . S
C523 C525 1.419 . S
C524 C519 1.425 . S
C524 C521 1.409 . S
C524 C522 1.415 . S
C525 H515 0.930 . S
C525 C523 1.419 . S
C525 C526 1.362 . S
C526 H516 0.930 . S
C526 C519 1.409 . S
C526 C525 1.362 . S
H527 C533 0.930 . S
H528 C536 0.930 . S
H529 C537 0.930 . S
H530 C538 0.930 . S
H531 C541 0.930 . S
H532 C542 0.930 . S
C533 H527 0.930 . S
C533 C534 1.355 . S
C533 C535 1.415 . S
C534 C533 1.355 . S
C534 C536 1.419 1_545 S
C535 C533 1.415 . S
C535 C540 1.425 1_545 S
C535 C542 1.409 . S
C536 H528 0.930 . S
C536 C534 1.419 1_565 S
C536 C537 1.362 . S
C537 H529 0.930 . S
C537 C536 1.362 . S
C537 C540 1.409 . S
C538 H530 0.930 . S
C538 C539 1.355 1_565 S
C538 C540 1.415 . S
C539 C538 1.355 1_545 S
C539 C541 1.419 . S
C540 C535 1.425 1_565 S
C540 C537 1.409 . S
C540 C538 1.415 . S
C541 H531 0.930 . S
C541 C539 1.419 . S
C541 C542 1.362 . S
C542 H532 0.930 . S
C542 C535 1.409 . S
C542 C541 1.362 . S
H543 C549 0.930 . S
H544 C552 0.930 . S
H545 C553 0.930 . S
H546 C554 0.930 . S
H547 C557 0.930 1_554 S
H548 C558 0.930 . S
C549 H543 0.930 . S
C549 C550 1.355 . S
C549 C551 1.415 . S
C550 C549 1.355 . S
C550 C552 1.419 . S
C551 C549 1.415 . S
C551 C556 1.425 . S
C551 C558 1.409 . S
C552 H544 0.930 . S
C552 C550 1.419 . S
C552 C553 1.362 . S
C553 H545 0.930 . S
C553 C552 1.362 . S
C553 C556 1.409 . S
C554 H546 0.930 . S
C554 C555 1.355 1_556 S
C554 C556 1.415 . S
C555 C554 1.355 1_554 S
C555 C557 1.419 1_554 S
C556 C551 1.425 . S
C556 C553 1.409 . S
C556 C554 1.415 . S
C557 H547 0.930 1_556 S
C557 C555 1.419 1_556 S
C557 C558 1.362 . S
C558 H548 0.930 . S
C558 C551 1.409 . S
C558 C557 1.362 . S
H559 C565 0.930 . S
H560 C568 0.930 . S
H561 C569 0.930 . S
H562 C570 0.930 . S
H563 C573 0.930 1_554 S
H564 C574 0.930 . S
C565 H559 0.930 . S
C565 C566 1.355 . S
C565 C567 1.415 . S
C566 C565 1.355 . S
C566 C568 1.419 . S
C567 C565 1.415 . S
C567 C572 1.425 . S
C567 C574 1.409 . S
C568 H560 0.930 . S
C568 C566 1.419 . S
C568 C569 1.362 . S
C569 H561 0.930 . S
C569 C568 1.362 . S
C569 C572 1.409 . S
C570 H562 0.930 . S
C570 C571 1.355 . S
C570 C572 1.415 . S
C571 C570 1.355 . S
C571 C573 1.419 . S
C572 C567 1.425 . S
C572 C569 1.409 . S
C572 C570 1.415 . S
C573 H563 0.930 1_556 S
C573 C571 1.419 . S
C573 C574 1.362 . S
C574 H564 0.930 . S
C574 C567 1.409 . S
C574 C573 1.362 . S
H575 C581 0.930 . S
H576 C584 0.930 . S
H577 C585 0.930 . S
H578 C586 0.930 . S
H579 C589 0.930 . S
H580 C590 0.930 . S
C581 H575 0.930 . S
C581 C582 1.355 . S
C581 C583 1.415 . S
C582 C581 1.355 . S
C582 C584 1.419 . S
C583 C581 1.415 . S
C583 C588 1.425 . S
C583 C590 1.409 . S
C584 H576 0.930 . S
C584 C582 1.419 . S
C584 C585 1.362 . S
C585 H577 0.930 . S
C585 C584 1.362 . S
C585 C588 1.409 . S
C586 H578 0.930 . S
C586 C587 1.355 . S
C586 C588 1.415 . S
C587 C586 1.355 . S
C587 C589 1.419 . S
C588 C583 1.425 . S
C588 C585 1.409 . S
C588 C586 1.415 . S
C589 H579 0.930 . S
C589 C587 1.419 . S
C589 C590 1.362 . S
C590 H580 0.930 . S
C590 C583 1.409 . S
C590 C589 1.362 . S
H591 C597 0.930 . S
H592 C600 0.930 . S
H593 C601 0.930 . S
H594 C602 0.930 . S
H595 C605 0.930 . S
H596 C606 0.930 . S
C597 H591 0.930 . S
C597 C598 1.355 . S
C597 C599 1.415 . S
C598 C597 1.355 . S
C598 C600 1.419 . S
C599 C597 1.415 . S
C599 C604 1.425 . S
C599 C606 1.409 . S
C600 H592 0.930 . S
C600 C598 1.419 . S
C600 C601 1.362 . S
C601 H593 0.930 . S
C601 C600 1.362 . S
C601 C604 1.409 . S
C602 H594 0.930 . S
C602 C603 1.355 . S
C602 C604 1.415 . S
C603 C602 1.355 . S
C603 C605 1.419 . S
C604 C599 1.425 . S
C604 C601 1.409 . S
C604 C602 1.415 . S
C605 H595 0.930 . S
C605 C603 1.419 . S
C605 C606 1.362 . S
C606 H596 0.930 . S
C606 C599 1.409 . S
C606 C605 1.362 . S
H607 C613 0.930 . S
H608 C616 0.930 1_556 S
H609 C617 0.930 . S
H610 C618 0.930 . S
H611 C621 0.930 . S
H612 C622 0.930 . S
C613 H607 0.930 . S
C613 C614 1.355 . S
C613 C615 1.415 . S
C614 C613 1.355 . S
C614 C616 1.419 . S
C615 C613 1.415 . S
C615 C620 1.425 . S
C615 C622 1.409 . S
C616 H608 0.930 1_554 S
C616 C614 1.419 . S
C616 C617 1.362 . S
C617 H609 0.930 . S
C617 C616 1.362 . S
C617 C620 1.409 . S
C618 H610 0.930 . S
C618 C619 1.355 . S
C618 C620 1.415 . S
C619 C618 1.355 . S
C619 C621 1.419 . S
C620 C615 1.425 . S
C620 C617 1.409 . S
C620 C618 1.415 . S
C621 H611 0.930 . S
C621 C619 1.419 . S
C621 C622 1.362 . S
C622 H612 0.930 . S
C622 C615 1.409 . S
C622 C621 1.362 . S
H623 C629 0.930 . S
H624 C632 0.930 . S
H625 C633 0.930 . S
H626 C634 0.930 . S
H627 C637 0.930 1_556 S
H628 C638 0.930 . S
C629 H623 0.930 . S
C629 C630 1.355 . S
C629 C631 1.415 . S
C630 C629 1.355 . S
C630 C632 1.419 . S
C631 C629 1.415 . S
C631 C636 1.425 . S
C631 C638 1.409 . S
C632 H624 0.930 . S
C632 C630 1.419 . S
C632 C633 1.362 . S
C633 H625 0.930 . S
C633 C632 1.362 . S
C633 C636 1.409 . S
C634 H626 0.930 . S
C634 C635 1.355 . S
C634 C636 1.415 . S
C635 C634 1.355 . S
C635 C637 1.419 . S
C636 C631 1.425 . S
C636 C633 1.409 . S
C636 C634 1.415 . S
C637 H627 0.930 1_554 S
C637 C635 1.419 . S
C637 C638 1.362 . S
C638 H628 0.930 . S
C638 C631 1.409 . S
C638 C637 1.362 . S
C214 C18 1.253 . S
C219 C179 1.239 . S
C230 C42 1.220 . S
C235 C203 1.183 . S
C246 C64 1.238 . S
C251 C157 1.216 . S
C262 C111 1.219 . S
C267 C65 1.184 . S
C278 C134 1.190 . S
C283 C19 1.188 . S
C294 C41 1.218 . S
C299 C88 1.201 . S
C310 C180 1.213 . S
C315 C133 1.231 . S
C326 C202 1.245 . S
C331 C87 1.257 . S
C342 C110 1.255 . S
C347 C156 1.260 . S
C358 C67 1.087 1_556 S
C363 C20 1.123 . S
C374 C44 1.053 . S
C379 C21 1.059 1_556 S
C390 C43 1.125 . S
C395 C66 1.092 . S
C406 C90 1.131 . S
C411 C135 1.128 . S
C422 C89 1.133 . S
C427 C113 1.135 . S
C438 C112 1.042 . S
C443 C136 1.116 . S
C454 C205 1.085 . S
C459 C158 1.042 . S
C470 C182 1.137 . S
C475 C159 1.116 . S
C486 C204 1.127 . S
C491 C181 1.044 . S
C502 C16 1.399 . S
C507 C17 1.404 . S
C518 C40 1.410 . S
C523 C39 1.410 . S
C534 C62 1.381 . S
C539 C63 1.386 . S
C550 C85 1.382 . S
C555 C86 1.388 . S
C566 C108 1.403 . S
C571 C109 1.404 1_556 S
C582 C131 1.412 . S
C587 C132 1.412 1_556 S
C598 C154 1.404 . S
C603 C155 1.408 1_554 S
C614 C177 1.389 1_554 S
C619 C178 1.391 . S
C630 C200 1.376 . S
C635 C201 1.382 1_554 S
