# Generated by pormake.
# Topology vmf, (6)-cn, num edge types: 1
# Building blocks:
#     Node 0, Type 0, BuildingBlock: OJICUG_clean_sbu_0, # of connection points: 6
#     Node 1, Type 0, BuildingBlock: OJICUG_clean_sbu_0, # of connection points: 6
#     Node 2, Type 0, BuildingBlock: OJICUG_clean_sbu_0, # of connection points: 6
#     Node 3, Type 0, BuildingBlock: OJICUG_clean_sbu_0, # of connection points: 6
#     Node 4, Type 0, BuildingBlock: OJICUG_clean_sbu_0, # of connection points: 6
#     Node 5, Type 0, BuildingBlock: OJICUG_clean_sbu_0, # of connection points: 6
#     Node 6, Type 0, BuildingBlock: OJICUG_clean_sbu_0, # of connection points: 6
#     Node 7, Type 0, BuildingBlock: OJICUG_clean_sbu_0, # of connection points: 6
#     Edge 8, Type (0, 0), BuildingBlock: EYOCIG_clean_linker_4, # of connection points: 2
#     Edge 9, Type (0, 0), BuildingBlock: EYOCIG_clean_linker_4, # of connection points: 2
#     Edge 10, Type (0, 0), BuildingBlock: EYOCIG_clean_linker_4, # of connection points: 2
#     Edge 11, Type (0, 0), BuildingBlock: EYOCIG_clean_linker_4, # of connection points: 2
#     Edge 12, Type (0, 0), BuildingBlock: EYOCIG_clean_linker_4, # of connection points: 2
#     Edge 13, Type (0, 0), BuildingBlock: EYOCIG_clean_linker_4, # of connection points: 2
#     Edge 14, Type (0, 0), BuildingBlock: EYOCIG_clean_linker_4, # of connection points: 2
#     Edge 15, Type (0, 0), BuildingBlock: EYOCIG_clean_linker_4, # of connection points: 2
#     Edge 16, Type (0, 0), BuildingBlock: EYOCIG_clean_linker_4, # of connection points: 2
#     Edge 17, Type (0, 0), BuildingBlock: EYOCIG_clean_linker_4, # of connection points: 2
#     Edge 18, Type (0, 0), BuildingBlock: EYOCIG_clean_linker_4, # of connection points: 2
#     Edge 19, Type (0, 0), BuildingBlock: EYOCIG_clean_linker_4, # of connection points: 2
#     Edge 20, Type (0, 0), BuildingBlock: EYOCIG_clean_linker_4, # of connection points: 2
#     Edge 21, Type (0, 0), BuildingBlock: EYOCIG_clean_linker_4, # of connection points: 2
#     Edge 22, Type (0, 0), BuildingBlock: EYOCIG_clean_linker_4, # of connection points: 2
#     Edge 23, Type (0, 0), BuildingBlock: EYOCIG_clean_linker_4, # of connection points: 2
#     Edge 24, Type (0, 0), BuildingBlock: EYOCIG_clean_linker_4, # of connection points: 2
#     Edge 25, Type (0, 0), BuildingBlock: EYOCIG_clean_linker_4, # of connection points: 2
#     Edge 26, Type (0, 0), BuildingBlock: EYOCIG_clean_linker_4, # of connection points: 2
#     Edge 27, Type (0, 0), BuildingBlock: EYOCIG_clean_linker_4, # of connection points: 2
#     Edge 28, Type (0, 0), BuildingBlock: EYOCIG_clean_linker_4, # of connection points: 2
#     Edge 29, Type (0, 0), BuildingBlock: EYOCIG_clean_linker_4, # of connection points: 2
#     Edge 30, Type (0, 0), BuildingBlock: EYOCIG_clean_linker_4, # of connection points: 2
#     Edge 31, Type (0, 0), BuildingBlock: EYOCIG_clean_linker_4, # of connection points: 2
# Relax obj value: 0.306
# Max RMSD: 0.281
# Mean RMSD: 0.281
data_MOF--net-vmf--node1-OJICUG_clean_sbu_0--edge1-EYOCIG_clean_linker_4
_symmetry_space_group_name_H-M    P1
_symmetry_Int_Tables_number       1
_symmetry_cell_setting            triclinic
loop_
_symmetry_equiv_pos_as_xyz
'x, y, z'
_cell_length_a     23.860854
_cell_length_b     35.970781
_cell_length_c     24.338882
_cell_angle_alpha  89.993778
_cell_angle_beta   107.38422
_cell_angle_gamma 89.981211
loop_
_atom_site_label
_atom_site_type_symbol
_atom_site_fract_x
_atom_site_fract_y
_atom_site_fract_z
_atom_type_partial_charge
Sc0 Sc 0.22378 0.34149 0.18115 0.0
Sc1 Sc 0.22223 0.25382 0.24195 0.0
Sc2 Sc 0.1224 0.32218 0.25624 0.0
O3 O 0.18957 0.306 0.22723 0.0
C4 C 0.19323 0.39772 0.26944 0.0
C5 C 0.33776 0.30218 0.24673 0.0
C6 C 0.2088 0.27554 0.36211 0.0
C7 C 0.22146 0.26432 0.11629 0.0
C8 C 0.08676 0.35188 0.12496 0.0
C9 C 0.08768 0.23822 0.2334 0.0
O10 O 0.21599 0.38995 0.23003 0.0
O11 O 0.31059 0.27167 0.24627 0.0
O12 O 0.16511 0.29734 0.34093 0.0
O13 O 0.23596 0.2982 0.1252 0.0
O14 O 0.07388 0.34513 0.17144 0.0
O15 O 0.13978 0.22729 0.23955 0.0
O16 O 0.13871 0.35075 0.12141 0.0
O17 O 0.20536 0.24404 0.15153 0.0
O18 O 0.07322 0.27214 0.23093 0.0
O19 O 0.31181 0.33333 0.23604 0.0
O20 O 0.16152 0.3752 0.28707 0.0
O21 O 0.23929 0.26088 0.33289 0.0
Sc22 Sc 0.85891 0.32208 0.73063 0.0
Sc23 Sc 0.75926 0.25378 0.74538 0.0
Sc24 Sc 0.75765 0.34156 0.8058 0.0
O25 O 0.79184 0.30598 0.75981 0.0
C26 C 0.89469 0.35193 0.86181 0.0
C27 C 0.89378 0.23815 0.75381 0.0
C28 C 0.76015 0.26452 0.87104 0.0
C29 C 0.77246 0.27532 0.62503 0.0
C30 C 0.78803 0.39765 0.71724 0.0
C31 C 0.64368 0.30219 0.74049 0.0
O32 O 0.90752 0.34509 0.81533 0.0
O33 O 0.84173 0.22721 0.74786 0.0
O34 O 0.74559 0.29838 0.86198 0.0
O35 O 0.81609 0.29718 0.64604 0.0
O36 O 0.7653 0.38994 0.75669 0.0
O37 O 0.67089 0.27167 0.74104 0.0
O38 O 0.81975 0.3751 0.69967 0.0
O39 O 0.74211 0.26067 0.65438 0.0
O40 O 0.66958 0.33334 0.75104 0.0
O41 O 0.90816 0.27206 0.75602 0.0
O42 O 0.84276 0.35087 0.86541 0.0
O43 O 0.77623 0.24416 0.83586 0.0
Sc44 Sc 0.85881 0.65322 0.73011 0.0
Sc45 Sc 0.75901 0.72157 0.74448 0.0
Sc46 Sc 0.75747 0.63389 0.80525 0.0
O47 O 0.79167 0.66938 0.75916 0.0
C48 C 0.78798 0.57768 0.71691 0.0
C49 C 0.77237 0.69987 0.62428 0.0
C50 C 0.64349 0.67321 0.73974 0.0
C51 C 0.89355 0.73717 0.75298 0.0
C52 C 0.8945 0.62349 0.86138 0.0
C53 C 0.75984 0.71104 0.87015 0.0
O54 O 0.81969 0.60019 0.69928 0.0
O55 O 0.74192 0.71454 0.65353 0.0
O56 O 0.66943 0.64207 0.7504 0.0
O57 O 0.908 0.70325 0.75541 0.0
O58 O 0.84256 0.62462 0.86495 0.0
O59 O 0.77593 0.73134 0.83492 0.0
O60 O 0.90737 0.63026 0.8149 0.0
O61 O 0.84146 0.74811 0.74687 0.0
O62 O 0.74533 0.67717 0.86123 0.0
O63 O 0.81606 0.67806 0.64543 0.0
O64 O 0.76523 0.58544 0.75633 0.0
O65 O 0.67066 0.70372 0.74019 0.0
Sc66 Sc 0.22359 0.63386 0.18057 0.0
Sc67 Sc 0.22198 0.72161 0.24107 0.0
Sc68 Sc 0.1223 0.65331 0.25573 0.0
O69 O 0.18939 0.66942 0.22658 0.0
C70 C 0.08655 0.62348 0.12454 0.0
C71 C 0.22109 0.71093 0.1154 0.0
C72 C 0.08745 0.73725 0.23262 0.0
C73 C 0.33755 0.67322 0.2459 0.0
C74 C 0.19319 0.57775 0.2691 0.0
C75 C 0.20876 0.70004 0.36138 0.0
O76 O 0.13848 0.62456 0.12095 0.0
O77 O 0.205 0.73128 0.15059 0.0
O78 O 0.07305 0.70334 0.23034 0.0
O79 O 0.31165 0.64207 0.23534 0.0
O80 O 0.16147 0.6003 0.28667 0.0
O81 O 0.23914 0.71469 0.33205 0.0
O82 O 0.21592 0.58547 0.22965 0.0
O83 O 0.31035 0.70374 0.24537 0.0
O84 O 0.1651 0.67821 0.34033 0.0
O85 O 0.23564 0.67707 0.12443 0.0
O86 O 0.07371 0.63031 0.17102 0.0
O87 O 0.13952 0.74818 0.23863 0.0
Sc88 Sc 0.72346 0.84158 0.18049 0.0
Sc89 Sc 0.72193 0.75381 0.24095 0.0
Sc90 Sc 0.62222 0.82212 0.25567 0.0
O91 O 0.6893 0.80601 0.22649 0.0
C92 C 0.69308 0.89766 0.26906 0.0
C93 C 0.83746 0.80219 0.24581 0.0
C94 C 0.70871 0.77533 0.36129 0.0
C95 C 0.721 0.76454 0.11528 0.0
C96 C 0.58641 0.85199 0.12448 0.0
C97 C 0.58741 0.73819 0.23254 0.0
O98 O 0.7158 0.88996 0.2296 0.0
O99 O 0.81028 0.77168 0.24528 0.0
O100 O 0.66505 0.79719 0.34026 0.0
O101 O 0.73553 0.79841 0.12432 0.0
O102 O 0.57359 0.84515 0.17097 0.0
O103 O 0.63947 0.72725 0.2385 0.0
O104 O 0.63834 0.85092 0.12088 0.0
O105 O 0.70495 0.74419 0.15047 0.0
O106 O 0.573 0.7721 0.23029 0.0
O107 O 0.81153 0.83334 0.23524 0.0
O108 O 0.66136 0.87512 0.28662 0.0
O109 O 0.73908 0.76069 0.33194 0.0
Sc110 Sc 0.35873 0.82217 0.7301 0.0
Sc111 Sc 0.25902 0.75384 0.74457 0.0
Sc112 Sc 0.25736 0.84154 0.80519 0.0
O113 O 0.29161 0.80603 0.75917 0.0
C114 C 0.39437 0.85194 0.86133 0.0
C115 C 0.39357 0.73823 0.75308 0.0
C116 C 0.25982 0.76442 0.87022 0.0
C117 C 0.27235 0.7755 0.62434 0.0
C118 C 0.28784 0.89772 0.71681 0.0
C119 C 0.14343 0.8022 0.73971 0.0
O120 O 0.40725 0.84515 0.81486 0.0
O121 O 0.3415 0.72729 0.747 0.0
O122 O 0.24525 0.79829 0.86123 0.0
O123 O 0.31601 0.79732 0.64545 0.0
O124 O 0.26508 0.88998 0.75623 0.0
O125 O 0.17064 0.77169 0.74023 0.0
O126 O 0.31957 0.8752 0.69921 0.0
O127 O 0.24192 0.76084 0.6536 0.0
O128 O 0.16933 0.83335 0.75034 0.0
O129 O 0.40798 0.77214 0.75546 0.0
O130 O 0.34243 0.85082 0.86489 0.0
O131 O 0.27594 0.74411 0.83502 0.0
Sc132 Sc 0.35899 0.15328 0.73068 0.0
Sc133 Sc 0.25932 0.22159 0.74548 0.0
Sc134 Sc 0.25779 0.1338 0.80591 0.0
O135 O 0.29193 0.16938 0.7599 0.0
C136 C 0.28812 0.07774 0.71729 0.0
C137 C 0.27247 0.20007 0.62511 0.0
C138 C 0.14378 0.17321 0.74064 0.0
C139 C 0.39382 0.2372 0.75384 0.0
C140 C 0.39484 0.12338 0.86186 0.0
C141 C 0.26029 0.21082 0.87116 0.0
O142 O 0.31984 0.10028 0.69973 0.0
O143 O 0.24213 0.21473 0.65448 0.0
O144 O 0.1697 0.14205 0.7512 0.0
O145 O 0.40822 0.20329 0.75605 0.0
O146 O 0.34292 0.12445 0.86548 0.0
O147 O 0.27633 0.23119 0.83598 0.0
O148 O 0.40765 0.13024 0.81537 0.0
O149 O 0.34176 0.24814 0.74792 0.0
O150 O 0.24575 0.17696 0.86211 0.0
O151 O 0.31612 0.17821 0.64611 0.0
O152 O 0.26542 0.08543 0.75676 0.0
O153 O 0.17096 0.20372 0.74118 0.0
Sc154 Sc 0.72387 0.13389 0.18118 0.0
Sc155 Sc 0.72223 0.22156 0.24188 0.0
Sc156 Sc 0.62248 0.15322 0.25626 0.0
O157 O 0.68962 0.16938 0.22722 0.0
C158 C 0.58687 0.12348 0.12502 0.0
C159 C 0.72142 0.21103 0.11622 0.0
C160 C 0.58767 0.23717 0.23336 0.0
C161 C 0.83781 0.1732 0.24668 0.0
C162 C 0.69338 0.07767 0.26953 0.0
C163 C 0.70887 0.19986 0.36207 0.0
O164 O 0.63881 0.12461 0.12146 0.0
O165 O 0.70529 0.23133 0.15143 0.0
O166 O 0.57324 0.20326 0.23089 0.0
O167 O 0.8119 0.14206 0.23605 0.0
O168 O 0.66165 0.1002 0.28714 0.0
O169 O 0.73933 0.21452 0.33283 0.0
O170 O 0.71614 0.08543 0.23011 0.0
O171 O 0.8106 0.20371 0.24618 0.0
O172 O 0.66519 0.17807 0.34092 0.0
O173 O 0.73599 0.17716 0.12518 0.0
O174 O 0.57398 0.13025 0.17149 0.0
O175 O 0.63975 0.2481 0.23949 0.0
C176 C 0.50138 0.2803 0.24129 0.0
C177 C 0.544 0.26356 0.23774 0.0
C178 C 0.44757 0.2936 0.24685 0.0
C179 C 0.3979 0.30002 0.24674 0.0
C180 C 0.53389 0.29363 0.74043 0.0
C181 C 0.58355 0.30004 0.7405 0.0
C182 C 0.48009 0.28034 0.746 0.0
C183 C 0.43747 0.26361 0.74953 0.0
C184 C 0.47987 0.69509 0.7452 0.0
C185 C 0.43725 0.71183 0.74873 0.0
C186 C 0.53368 0.68179 0.73964 0.0
C187 C 0.58335 0.67537 0.73973 0.0
C188 C 0.44734 0.68177 0.24595 0.0
C189 C 0.39768 0.67536 0.24589 0.0
C190 C 0.50114 0.69505 0.24038 0.0
C191 C 0.54376 0.71178 0.23685 0.0
C192 C 0.00112 0.78038 0.24042 0.0
C193 C 0.04377 0.76365 0.23692 0.0
C194 C 0.94728 0.79365 0.24595 0.0
C195 C 0.89761 0.80005 0.24585 0.0
C196 C 0.97981 0.78031 0.74509 0.0
C197 C 0.93721 0.76356 0.74862 0.0
C198 C 0.03361 0.79362 0.73956 0.0
C199 C 0.08328 0.80005 0.73968 0.0
C200 C 0.98012 0.19501 0.74606 0.0
C201 C 0.93747 0.21173 0.74955 0.0
C202 C 0.03396 0.18174 0.74053 0.0
C203 C 0.08364 0.17535 0.74063 0.0
C204 C 0.00142 0.19508 0.24128 0.0
C205 C 0.04403 0.21183 0.23776 0.0
C206 C 0.94762 0.18178 0.24682 0.0
C207 C 0.89795 0.17535 0.24671 0.0
C208 C 0.97312 0.36127 0.96404 0.0
C209 C 0.9409 0.35703 0.91541 0.0
C210 C 0.0084 0.36126 0.02269 0.0
C211 C 0.04059 0.357 0.07133 0.0
C212 C 0.00814 0.61413 0.0223 0.0
C213 C 0.04035 0.61838 0.07093 0.0
C214 C 0.97288 0.61414 0.96365 0.0
C215 C 0.94068 0.61838 0.91501 0.0
C216 C 0.50799 0.86134 0.02225 0.0
C217 C 0.5402 0.85709 0.07088 0.0
C218 C 0.47272 0.86133 0.96359 0.0
C219 C 0.44054 0.85706 0.91495 0.0
C220 C 0.50853 0.11408 0.02275 0.0
C221 C 0.54071 0.11834 0.07139 0.0
C222 C 0.47328 0.11405 0.96409 0.0
C223 C 0.44106 0.11829 0.91546 0.0
C224 C 0.20319 0.50737 0.30051 0.0
C225 C 0.1969 0.53993 0.28856 0.0
C226 C 0.20318 0.46814 0.3006 0.0
C227 C 0.1969 0.43556 0.28878 0.0
C228 C 0.77802 0.50726 0.68573 0.0
C229 C 0.7843 0.53984 0.69756 0.0
C230 C 0.77802 0.46803 0.68581 0.0
C231 C 0.78431 0.43547 0.69776 0.0
C232 C 0.70319 0.96801 0.30057 0.0
C233 C 0.69685 0.93546 0.28858 0.0
C234 C 0.70327 0.00724 0.30067 0.0
C235 C 0.69702 0.03983 0.28885 0.0
C236 C 0.27794 0.96815 0.68565 0.0
C237 C 0.28419 0.93557 0.69747 0.0
C238 C 0.27801 0.00738 0.68576 0.0
C239 C 0.28435 0.03993 0.69776 0.0
C240 C 0.24822 0.22824 0.52027 0.0
C241 C 0.26181 0.21399 0.56741 0.0
C242 C 0.23287 0.24747 0.46699 0.0
C243 C 0.21933 0.26169 0.41983 0.0
C244 C 0.74827 0.24718 0.5202 0.0
C245 C 0.76184 0.26142 0.56733 0.0
C246 C 0.73293 0.22795 0.46693 0.0
C247 C 0.7194 0.21372 0.41978 0.0
C248 C 0.73291 0.74718 0.46613 0.0
C249 C 0.71933 0.76143 0.41899 0.0
C250 C 0.74826 0.72795 0.51941 0.0
C251 C 0.76182 0.71373 0.56657 0.0
C252 C 0.24826 0.7474 0.51949 0.0
C253 C 0.2618 0.76163 0.56663 0.0
C254 C 0.23292 0.72818 0.46621 0.0
C255 C 0.21936 0.71393 0.41908 0.0
C256 C 0.23518 0.24077 0.01991 0.0
C257 C 0.22722 0.24853 0.06481 0.0
C258 C 0.24676 0.23421 0.96771 0.0
C259 C 0.25463 0.22651 0.92275 0.0
C260 C 0.73502 0.23456 0.01977 0.0
C261 C 0.7271 0.22681 0.0647 0.0
C262 C 0.74658 0.24111 0.96757 0.0
C263 C 0.75447 0.24882 0.92261 0.0
C264 C 0.74617 0.73458 0.96657 0.0
C265 C 0.75411 0.72682 0.92165 0.0
C266 C 0.73459 0.74113 0.01876 0.0
C267 C 0.72669 0.74884 0.06371 0.0
C268 C 0.23465 0.73437 0.01888 0.0
C269 C 0.22676 0.72665 0.06384 0.0
C270 C 0.24621 0.74092 0.96668 0.0
C271 C 0.25413 0.74866 0.92175 0.0
loop_
_geom_bond_atom_site_label_1
_geom_bond_atom_site_label_2
_geom_bond_distance
_geom_bond_site_symmetry_2
_ccdc_geom_bond_type
Sc0 O3 2.025 . S
Sc0 O10 2.105 . S
Sc0 O13 2.105 . S
Sc0 O16 2.105 . S
Sc0 O19 2.105 . S
Sc1 O3 2.025 . S
Sc1 O11 2.105 . S
Sc1 O15 2.105 . S
Sc1 O17 2.105 . S
Sc1 O21 2.105 . S
Sc2 O3 2.025 . S
Sc2 O12 2.105 . S
Sc2 O14 2.105 . S
Sc2 O18 2.105 . S
Sc2 O20 2.105 . S
O3 Sc0 2.025 . S
O3 Sc1 2.025 . S
O3 Sc2 2.025 . S
C4 O10 1.268 . S
C4 O20 1.268 . S
C5 O11 1.268 . S
C5 O19 1.268 . S
C6 O12 1.268 . S
C6 O21 1.268 . S
C7 O13 1.268 . S
C7 O17 1.268 . S
C8 O14 1.268 . S
C8 O16 1.268 . S
C9 O15 1.268 . S
C9 O18 1.268 . S
O10 Sc0 2.105 . S
O10 C4 1.268 . S
O11 Sc1 2.105 . S
O11 C5 1.268 . S
O12 Sc2 2.105 . S
O12 C6 1.268 . S
O13 Sc0 2.105 . S
O13 C7 1.268 . S
O14 Sc2 2.105 . S
O14 C8 1.268 . S
O15 Sc1 2.105 . S
O15 C9 1.268 . S
O16 Sc0 2.105 . S
O16 C8 1.268 . S
O17 Sc1 2.105 . S
O17 C7 1.268 . S
O18 Sc2 2.105 . S
O18 C9 1.268 . S
O19 Sc0 2.105 . S
O19 C5 1.268 . S
O20 Sc2 2.105 . S
O20 C4 1.268 . S
O21 Sc1 2.105 . S
O21 C6 1.268 . S
Sc22 O25 2.025 . S
Sc22 O32 2.105 . S
Sc22 O35 2.105 . S
Sc22 O38 2.105 . S
Sc22 O41 2.105 . S
Sc23 O25 2.025 . S
Sc23 O33 2.105 . S
Sc23 O37 2.105 . S
Sc23 O39 2.105 . S
Sc23 O43 2.105 . S
Sc24 O25 2.025 . S
Sc24 O34 2.105 . S
Sc24 O36 2.105 . S
Sc24 O40 2.105 . S
Sc24 O42 2.105 . S
O25 Sc22 2.025 . S
O25 Sc23 2.025 . S
O25 Sc24 2.025 . S
C26 O32 1.268 . S
C26 O42 1.268 . S
C27 O33 1.268 . S
C27 O41 1.268 . S
C28 O34 1.268 . S
C28 O43 1.268 . S
C29 O35 1.268 . S
C29 O39 1.268 . S
C30 O36 1.268 . S
C30 O38 1.268 . S
C31 O37 1.268 . S
C31 O40 1.268 . S
O32 Sc22 2.105 . S
O32 C26 1.268 . S
O33 Sc23 2.105 . S
O33 C27 1.268 . S
O34 Sc24 2.105 . S
O34 C28 1.268 . S
O35 Sc22 2.105 . S
O35 C29 1.268 . S
O36 Sc24 2.105 . S
O36 C30 1.268 . S
O37 Sc23 2.105 . S
O37 C31 1.268 . S
O38 Sc22 2.105 . S
O38 C30 1.268 . S
O39 Sc23 2.105 . S
O39 C29 1.268 . S
O40 Sc24 2.105 . S
O40 C31 1.268 . S
O41 Sc22 2.105 . S
O41 C27 1.268 . S
O42 Sc24 2.105 . S
O42 C26 1.268 . S
O43 Sc23 2.105 . S
O43 C28 1.268 . S
Sc44 O47 2.025 . S
Sc44 O54 2.105 . S
Sc44 O57 2.105 . S
Sc44 O60 2.105 . S
Sc44 O63 2.105 . S
Sc45 O47 2.025 . S
Sc45 O55 2.105 . S
Sc45 O59 2.105 . S
Sc45 O61 2.105 . S
Sc45 O65 2.105 . S
Sc46 O47 2.025 . S
Sc46 O56 2.105 . S
Sc46 O58 2.105 . S
Sc46 O62 2.105 . S
Sc46 O64 2.105 . S
O47 Sc44 2.025 . S
O47 Sc45 2.025 . S
O47 Sc46 2.025 . S
C48 O54 1.268 . S
C48 O64 1.268 . S
C49 O55 1.268 . S
C49 O63 1.268 . S
C50 O56 1.268 . S
C50 O65 1.268 . S
C51 O57 1.268 . S
C51 O61 1.268 . S
C52 O58 1.268 . S
C52 O60 1.268 . S
C53 O59 1.268 . S
C53 O62 1.268 . S
O54 Sc44 2.105 . S
O54 C48 1.268 . S
O55 Sc45 2.105 . S
O55 C49 1.268 . S
O56 Sc46 2.105 . S
O56 C50 1.268 . S
O57 Sc44 2.105 . S
O57 C51 1.268 . S
O58 Sc46 2.105 . S
O58 C52 1.268 . S
O59 Sc45 2.105 . S
O59 C53 1.268 . S
O60 Sc44 2.105 . S
O60 C52 1.268 . S
O61 Sc45 2.105 . S
O61 C51 1.268 . S
O62 Sc46 2.105 . S
O62 C53 1.268 . S
O63 Sc44 2.105 . S
O63 C49 1.268 . S
O64 Sc46 2.105 . S
O64 C48 1.268 . S
O65 Sc45 2.105 . S
O65 C50 1.268 . S
Sc66 O69 2.025 . S
Sc66 O76 2.105 . S
Sc66 O79 2.105 . S
Sc66 O82 2.105 . S
Sc66 O85 2.105 . S
Sc67 O69 2.025 . S
Sc67 O77 2.105 . S
Sc67 O81 2.105 . S
Sc67 O83 2.105 . S
Sc67 O87 2.105 . S
Sc68 O69 2.025 . S
Sc68 O78 2.105 . S
Sc68 O80 2.105 . S
Sc68 O84 2.105 . S
Sc68 O86 2.105 . S
O69 Sc66 2.025 . S
O69 Sc67 2.025 . S
O69 Sc68 2.025 . S
C70 O76 1.268 . S
C70 O86 1.268 . S
C71 O77 1.268 . S
C71 O85 1.268 . S
C72 O78 1.268 . S
C72 O87 1.268 . S
C73 O79 1.268 . S
C73 O83 1.268 . S
C74 O80 1.268 . S
C74 O82 1.268 . S
C75 O81 1.268 . S
C75 O84 1.268 . S
O76 Sc66 2.105 . S
O76 C70 1.268 . S
O77 Sc67 2.105 . S
O77 C71 1.268 . S
O78 Sc68 2.105 . S
O78 C72 1.268 . S
O79 Sc66 2.105 . S
O79 C73 1.268 . S
O80 Sc68 2.105 . S
O80 C74 1.268 . S
O81 Sc67 2.105 . S
O81 C75 1.268 . S
O82 Sc66 2.105 . S
O82 C74 1.268 . S
O83 Sc67 2.105 . S
O83 C73 1.268 . S
O84 Sc68 2.105 . S
O84 C75 1.268 . S
O85 Sc66 2.105 . S
O85 C71 1.268 . S
O86 Sc68 2.105 . S
O86 C70 1.268 . S
O87 Sc67 2.105 . S
O87 C72 1.268 . S
Sc88 O91 2.025 . S
Sc88 O98 2.105 . S
Sc88 O101 2.105 . S
Sc88 O104 2.105 . S
Sc88 O107 2.105 . S
Sc89 O91 2.025 . S
Sc89 O99 2.105 . S
Sc89 O103 2.105 . S
Sc89 O105 2.105 . S
Sc89 O109 2.105 . S
Sc90 O91 2.025 . S
Sc90 O100 2.105 . S
Sc90 O102 2.105 . S
Sc90 O106 2.105 . S
Sc90 O108 2.105 . S
O91 Sc88 2.025 . S
O91 Sc89 2.025 . S
O91 Sc90 2.025 . S
C92 O98 1.268 . S
C92 O108 1.268 . S
C93 O99 1.268 . S
C93 O107 1.268 . S
C94 O100 1.268 . S
C94 O109 1.268 . S
C95 O101 1.268 . S
C95 O105 1.268 . S
C96 O102 1.268 . S
C96 O104 1.268 . S
C97 O103 1.268 . S
C97 O106 1.268 . S
O98 Sc88 2.105 . S
O98 C92 1.268 . S
O99 Sc89 2.105 . S
O99 C93 1.268 . S
O100 Sc90 2.105 . S
O100 C94 1.268 . S
O101 Sc88 2.105 . S
O101 C95 1.268 . S
O102 Sc90 2.105 . S
O102 C96 1.268 . S
O103 Sc89 2.105 . S
O103 C97 1.268 . S
O104 Sc88 2.105 . S
O104 C96 1.268 . S
O105 Sc89 2.105 . S
O105 C95 1.268 . S
O106 Sc90 2.105 . S
O106 C97 1.268 . S
O107 Sc88 2.105 . S
O107 C93 1.268 . S
O108 Sc90 2.105 . S
O108 C92 1.268 . S
O109 Sc89 2.105 . S
O109 C94 1.268 . S
Sc110 O113 2.025 . S
Sc110 O120 2.105 . S
Sc110 O123 2.105 . S
Sc110 O126 2.105 . S
Sc110 O129 2.105 . S
Sc111 O113 2.025 . S
Sc111 O121 2.105 . S
Sc111 O125 2.105 . S
Sc111 O127 2.105 . S
Sc111 O131 2.105 . S
Sc112 O113 2.025 . S
Sc112 O122 2.105 . S
Sc112 O124 2.105 . S
Sc112 O128 2.105 . S
Sc112 O130 2.105 . S
O113 Sc110 2.025 . S
O113 Sc111 2.025 . S
O113 Sc112 2.025 . S
C114 O120 1.268 . S
C114 O130 1.268 . S
C115 O121 1.268 . S
C115 O129 1.268 . S
C116 O122 1.268 . S
C116 O131 1.268 . S
C117 O123 1.268 . S
C117 O127 1.268 . S
C118 O124 1.268 . S
C118 O126 1.268 . S
C119 O125 1.268 . S
C119 O128 1.268 . S
O120 Sc110 2.105 . S
O120 C114 1.268 . S
O121 Sc111 2.105 . S
O121 C115 1.268 . S
O122 Sc112 2.105 . S
O122 C116 1.268 . S
O123 Sc110 2.105 . S
O123 C117 1.268 . S
O124 Sc112 2.105 . S
O124 C118 1.268 . S
O125 Sc111 2.105 . S
O125 C119 1.268 . S
O126 Sc110 2.105 . S
O126 C118 1.268 . S
O127 Sc111 2.105 . S
O127 C117 1.268 . S
O128 Sc112 2.105 . S
O128 C119 1.268 . S
O129 Sc110 2.105 . S
O129 C115 1.268 . S
O130 Sc112 2.105 . S
O130 C114 1.268 . S
O131 Sc111 2.105 . S
O131 C116 1.268 . S
Sc132 O135 2.025 . S
Sc132 O142 2.105 . S
Sc132 O145 2.105 . S
Sc132 O148 2.105 . S
Sc132 O151 2.105 . S
Sc133 O135 2.025 . S
Sc133 O143 2.105 . S
Sc133 O147 2.105 . S
Sc133 O149 2.105 . S
Sc133 O153 2.105 . S
Sc134 O135 2.025 . S
Sc134 O144 2.105 . S
Sc134 O146 2.105 . S
Sc134 O150 2.105 . S
Sc134 O152 2.105 . S
O135 Sc132 2.025 . S
O135 Sc133 2.025 . S
O135 Sc134 2.025 . S
C136 O142 1.268 . S
C136 O152 1.268 . S
C137 O143 1.268 . S
C137 O151 1.268 . S
C138 O144 1.268 . S
C138 O153 1.268 . S
C139 O145 1.268 . S
C139 O149 1.268 . S
C140 O146 1.268 . S
C140 O148 1.268 . S
C141 O147 1.268 . S
C141 O150 1.268 . S
O142 Sc132 2.105 . S
O142 C136 1.268 . S
O143 Sc133 2.105 . S
O143 C137 1.268 . S
O144 Sc134 2.105 . S
O144 C138 1.268 . S
O145 Sc132 2.105 . S
O145 C139 1.268 . S
O146 Sc134 2.105 . S
O146 C140 1.268 . S
O147 Sc133 2.105 . S
O147 C141 1.268 . S
O148 Sc132 2.105 . S
O148 C140 1.268 . S
O149 Sc133 2.105 . S
O149 C139 1.268 . S
O150 Sc134 2.105 . S
O150 C141 1.268 . S
O151 Sc132 2.105 . S
O151 C137 1.268 . S
O152 Sc134 2.105 . S
O152 C136 1.268 . S
O153 Sc133 2.105 . S
O153 C138 1.268 . S
Sc154 O157 2.025 . S
Sc154 O164 2.105 . S
Sc154 O167 2.105 . S
Sc154 O170 2.105 . S
Sc154 O173 2.105 . S
Sc155 O157 2.025 . S
Sc155 O165 2.105 . S
Sc155 O169 2.105 . S
Sc155 O171 2.105 . S
Sc155 O175 2.105 . S
Sc156 O157 2.025 . S
Sc156 O166 2.105 . S
Sc156 O168 2.105 . S
Sc156 O172 2.105 . S
Sc156 O174 2.105 . S
O157 Sc154 2.025 . S
O157 Sc155 2.025 . S
O157 Sc156 2.025 . S
C158 O164 1.268 . S
C158 O174 1.268 . S
C159 O165 1.268 . S
C159 O173 1.268 . S
C160 O166 1.268 . S
C160 O175 1.268 . S
C161 O167 1.268 . S
C161 O171 1.268 . S
C162 O168 1.268 . S
C162 O170 1.268 . S
C163 O169 1.268 . S
C163 O172 1.268 . S
O164 Sc154 2.105 . S
O164 C158 1.268 . S
O165 Sc155 2.105 . S
O165 C159 1.268 . S
O166 Sc156 2.105 . S
O166 C160 1.268 . S
O167 Sc154 2.105 . S
O167 C161 1.268 . S
O168 Sc156 2.105 . S
O168 C162 1.268 . S
O169 Sc155 2.105 . S
O169 C163 1.268 . S
O170 Sc154 2.105 . S
O170 C162 1.268 . S
O171 Sc155 2.105 . S
O171 C161 1.268 . S
O172 Sc156 2.105 . S
O172 C163 1.268 . S
O173 Sc154 2.105 . S
O173 C159 1.268 . S
O174 Sc156 2.105 . S
O174 C158 1.268 . S
O175 Sc155 2.105 . S
O175 C160 1.268 . S
C176 C177 1.170 . S
C176 C178 1.380 . S
C177 C176 1.170 . S
C178 C176 1.380 . S
C178 C179 1.170 . S
C179 C178 1.170 . S
C180 C181 1.170 . S
C180 C182 1.380 . S
C181 C180 1.170 . S
C182 C180 1.380 . S
C182 C183 1.170 . S
C183 C182 1.170 . S
C184 C185 1.170 . S
C184 C186 1.380 . S
C185 C184 1.170 . S
C186 C184 1.380 . S
C186 C187 1.170 . S
C187 C186 1.170 . S
C188 C189 1.170 . S
C188 C190 1.380 . S
C189 C188 1.170 . S
C190 C188 1.380 . S
C190 C191 1.170 . S
C191 C190 1.170 . S
C192 C193 1.170 . S
C192 C194 1.380 1_455 S
C193 C192 1.170 . S
C194 C192 1.380 1_655 S
C194 C195 1.170 . S
C195 C194 1.170 . S
C196 C197 1.170 . S
C196 C198 1.380 1_655 S
C197 C196 1.170 . S
C198 C196 1.380 1_455 S
C198 C199 1.170 . S
C199 C198 1.170 . S
C200 C201 1.170 . S
C200 C202 1.380 1_655 S
C201 C200 1.170 . S
C202 C200 1.380 1_455 S
C202 C203 1.170 . S
C203 C202 1.170 . S
C204 C205 1.170 . S
C204 C206 1.380 1_455 S
C205 C204 1.170 . S
C206 C204 1.380 1_655 S
C206 C207 1.170 . S
C207 C206 1.170 . S
C208 C209 1.170 . S
C208 C210 1.380 1_656 S
C209 C208 1.170 . S
C210 C208 1.380 1_454 S
C210 C211 1.170 . S
C211 C210 1.170 . S
C212 C213 1.170 . S
C212 C214 1.380 1_454 S
C213 C212 1.170 . S
C214 C212 1.380 1_656 S
C214 C215 1.170 . S
C215 C214 1.170 . S
C216 C217 1.170 . S
C216 C218 1.380 1_554 S
C217 C216 1.170 . S
C218 C216 1.380 1_556 S
C218 C219 1.170 . S
C219 C218 1.170 . S
C220 C221 1.170 . S
C220 C222 1.380 1_554 S
C221 C220 1.170 . S
C222 C220 1.380 1_556 S
C222 C223 1.170 . S
C223 C222 1.170 . S
C224 C225 1.170 . S
C224 C226 1.380 . S
C225 C224 1.170 . S
C226 C224 1.380 . S
C226 C227 1.170 . S
C227 C226 1.170 . S
C228 C229 1.170 . S
C228 C230 1.380 . S
C229 C228 1.170 . S
C230 C228 1.380 . S
C230 C231 1.170 . S
C231 C230 1.170 . S
C232 C233 1.170 . S
C232 C234 1.380 1_565 S
C233 C232 1.170 . S
C234 C232 1.380 1_545 S
C234 C235 1.170 . S
C235 C234 1.170 . S
C236 C237 1.170 . S
C236 C238 1.380 1_565 S
C237 C236 1.170 . S
C238 C236 1.380 1_545 S
C238 C239 1.170 . S
C239 C238 1.170 . S
C240 C241 1.170 . S
C240 C242 1.380 . S
C241 C240 1.170 . S
C242 C240 1.380 . S
C242 C243 1.170 . S
C243 C242 1.170 . S
C244 C245 1.170 . S
C244 C246 1.380 . S
C245 C244 1.170 . S
C246 C244 1.380 . S
C246 C247 1.170 . S
C247 C246 1.170 . S
C248 C249 1.170 . S
C248 C250 1.380 . S
C249 C248 1.170 . S
C250 C248 1.380 . S
C250 C251 1.170 . S
C251 C250 1.170 . S
C252 C253 1.170 . S
C252 C254 1.380 . S
C253 C252 1.170 . S
C254 C252 1.380 . S
C254 C255 1.170 . S
C255 C254 1.170 . S
C256 C257 1.170 . S
C256 C258 1.380 1_554 S
C257 C256 1.170 . S
C258 C256 1.380 1_556 S
C258 C259 1.170 . S
C259 C258 1.170 . S
C260 C261 1.170 . S
C260 C262 1.380 1_554 S
C261 C260 1.170 . S
C262 C260 1.380 1_556 S
C262 C263 1.170 . S
C263 C262 1.170 . S
C264 C265 1.170 . S
C264 C266 1.380 1_556 S
C265 C264 1.170 . S
C266 C264 1.380 1_554 S
C266 C267 1.170 . S
C267 C266 1.170 . S
C268 C269 1.170 . S
C268 C270 1.380 1_554 S
C269 C268 1.170 . S
C270 C268 1.380 1_556 S
C270 C271 1.170 . S
C271 C270 1.170 . S
C177 C160 1.348 . S
C179 C5 1.320 . S
C181 C31 1.310 . S
C183 C139 1.372 . S
C185 C115 1.373 . S
C187 C50 1.285 . S
C189 C73 1.296 . S
C191 C97 1.348 . S
C193 C72 1.362 . S
C195 C93 1.287 . S
C197 C51 1.339 . S
C199 C119 1.297 . S
C201 C27 1.370 . S
C203 C138 1.278 . S
C205 C9 1.343 . S
C207 C161 1.305 . S
C209 C26 1.850 . S
C211 C8 1.849 . S
C213 C70 1.849 . S
C215 C52 1.849 . S
C217 C96 1.855 . S
C219 C114 1.852 . S
C221 C158 1.854 . S
C223 C140 1.854 . S
C225 C74 1.456 . S
C227 C4 1.459 . S
C229 C48 1.463 . S
C231 C30 1.457 . S
C233 C92 1.481 . S
C235 C162 1.493 . S
C237 C118 1.475 . S
C239 C136 1.463 . S
C241 C137 1.772 . S
C243 C6 1.757 . S
C245 C29 1.762 . S
C247 C163 1.792 . S
C249 C94 1.780 . S
C251 C49 1.777 . S
C253 C117 1.793 . S
C255 C75 1.760 . S
C257 C7 1.030 . S
C259 C141 1.021 . S
C261 C159 1.053 . S
C263 C28 0.986 . S
C265 C53 0.971 . S
C267 C95 1.051 . S
C269 C71 1.054 . S
C271 C116 0.979 . S
