# Generated by pormake.
# Topology zfv, (5)-cn, num edge types: 1
# Building blocks:
#     Node 0, Type 0, BuildingBlock: XOMCOT_clean_sbu_1, # of connection points: 5
#     Node 1, Type 0, BuildingBlock: XOMCOT_clean_sbu_1, # of connection points: 5
#     Node 2, Type 0, BuildingBlock: XOMCOT_clean_sbu_1, # of connection points: 5
#     Node 3, Type 0, BuildingBlock: XOMCOT_clean_sbu_1, # of connection points: 5
#     Node 4, Type 0, BuildingBlock: XOMCOT_clean_sbu_1, # of connection points: 5
#     Node 5, Type 0, BuildingBlock: XOMCOT_clean_sbu_1, # of connection points: 5
#     Node 6, Type 0, BuildingBlock: XOMCOT_clean_sbu_1, # of connection points: 5
#     Node 7, Type 0, BuildingBlock: XOMCOT_clean_sbu_1, # of connection points: 5
#     Node 8, Type 0, BuildingBlock: XOMCOT_clean_sbu_1, # of connection points: 5
#     Node 9, Type 0, BuildingBlock: XOMCOT_clean_sbu_1, # of connection points: 5
#     Node 10, Type 0, BuildingBlock: XOMCOT_clean_sbu_1, # of connection points: 5
#     Node 11, Type 0, BuildingBlock: XOMCOT_clean_sbu_1, # of connection points: 5
#     Node 12, Type 0, BuildingBlock: XOMCOT_clean_sbu_1, # of connection points: 5
#     Node 13, Type 0, BuildingBlock: XOMCOT_clean_sbu_1, # of connection points: 5
#     Node 14, Type 0, BuildingBlock: XOMCOT_clean_sbu_1, # of connection points: 5
#     Node 15, Type 0, BuildingBlock: XOMCOT_clean_sbu_1, # of connection points: 5
#     Edge 16, Type (0, 0), BuildingBlock: KIFKEQ_clean_linker_1, # of connection points: 2
#     Edge 17, Type (0, 0), BuildingBlock: KIFKEQ_clean_linker_1, # of connection points: 2
#     Edge 18, Type (0, 0), BuildingBlock: KIFKEQ_clean_linker_1, # of connection points: 2
#     Edge 19, Type (0, 0), BuildingBlock: KIFKEQ_clean_linker_1, # of connection points: 2
#     Edge 20, Type (0, 0), BuildingBlock: KIFKEQ_clean_linker_1, # of connection points: 2
#     Edge 21, Type (0, 0), BuildingBlock: KIFKEQ_clean_linker_1, # of connection points: 2
#     Edge 22, Type (0, 0), BuildingBlock: KIFKEQ_clean_linker_1, # of connection points: 2
#     Edge 23, Type (0, 0), BuildingBlock: KIFKEQ_clean_linker_1, # of connection points: 2
#     Edge 24, Type (0, 0), BuildingBlock: KIFKEQ_clean_linker_1, # of connection points: 2
#     Edge 25, Type (0, 0), BuildingBlock: KIFKEQ_clean_linker_1, # of connection points: 2
#     Edge 26, Type (0, 0), BuildingBlock: KIFKEQ_clean_linker_1, # of connection points: 2
#     Edge 27, Type (0, 0), BuildingBlock: KIFKEQ_clean_linker_1, # of connection points: 2
#     Edge 28, Type (0, 0), BuildingBlock: KIFKEQ_clean_linker_1, # of connection points: 2
#     Edge 29, Type (0, 0), BuildingBlock: KIFKEQ_clean_linker_1, # of connection points: 2
#     Edge 30, Type (0, 0), BuildingBlock: KIFKEQ_clean_linker_1, # of connection points: 2
#     Edge 31, Type (0, 0), BuildingBlock: KIFKEQ_clean_linker_1, # of connection points: 2
#     Edge 32, Type (0, 0), BuildingBlock: KIFKEQ_clean_linker_1, # of connection points: 2
#     Edge 33, Type (0, 0), BuildingBlock: KIFKEQ_clean_linker_1, # of connection points: 2
#     Edge 34, Type (0, 0), BuildingBlock: KIFKEQ_clean_linker_1, # of connection points: 2
#     Edge 35, Type (0, 0), BuildingBlock: KIFKEQ_clean_linker_1, # of connection points: 2
#     Edge 36, Type (0, 0), BuildingBlock: KIFKEQ_clean_linker_1, # of connection points: 2
#     Edge 37, Type (0, 0), BuildingBlock: KIFKEQ_clean_linker_1, # of connection points: 2
#     Edge 38, Type (0, 0), BuildingBlock: KIFKEQ_clean_linker_1, # of connection points: 2
#     Edge 39, Type (0, 0), BuildingBlock: KIFKEQ_clean_linker_1, # of connection points: 2
#     Edge 40, Type (0, 0), BuildingBlock: KIFKEQ_clean_linker_1, # of connection points: 2
#     Edge 41, Type (0, 0), BuildingBlock: KIFKEQ_clean_linker_1, # of connection points: 2
#     Edge 42, Type (0, 0), BuildingBlock: KIFKEQ_clean_linker_1, # of connection points: 2
#     Edge 43, Type (0, 0), BuildingBlock: KIFKEQ_clean_linker_1, # of connection points: 2
#     Edge 44, Type (0, 0), BuildingBlock: KIFKEQ_clean_linker_1, # of connection points: 2
#     Edge 45, Type (0, 0), BuildingBlock: KIFKEQ_clean_linker_1, # of connection points: 2
#     Edge 46, Type (0, 0), BuildingBlock: KIFKEQ_clean_linker_1, # of connection points: 2
#     Edge 47, Type (0, 0), BuildingBlock: KIFKEQ_clean_linker_1, # of connection points: 2
#     Edge 48, Type (0, 0), BuildingBlock: KIFKEQ_clean_linker_1, # of connection points: 2
#     Edge 49, Type (0, 0), BuildingBlock: KIFKEQ_clean_linker_1, # of connection points: 2
#     Edge 50, Type (0, 0), BuildingBlock: KIFKEQ_clean_linker_1, # of connection points: 2
#     Edge 51, Type (0, 0), BuildingBlock: KIFKEQ_clean_linker_1, # of connection points: 2
#     Edge 52, Type (0, 0), BuildingBlock: KIFKEQ_clean_linker_1, # of connection points: 2
#     Edge 53, Type (0, 0), BuildingBlock: KIFKEQ_clean_linker_1, # of connection points: 2
#     Edge 54, Type (0, 0), BuildingBlock: KIFKEQ_clean_linker_1, # of connection points: 2
#     Edge 55, Type (0, 0), BuildingBlock: KIFKEQ_clean_linker_1, # of connection points: 2
# Relax obj value: 0.103
# Max RMSD: 0.112
# Mean RMSD: 0.112
data_MOF--net-zfv--node1-XOMCOT_clean_sbu_1--edge1-KIFKEQ_clean_linker_1
_symmetry_space_group_name_H-M    P1
_symmetry_Int_Tables_number       1
_symmetry_cell_setting            triclinic
loop_
_symmetry_equiv_pos_as_xyz
'x, y, z'
_cell_length_a     78.044309
_cell_length_b     77.896786
_cell_length_c     17.732316
_cell_angle_alpha  90.046438
_cell_angle_beta   89.967054
_cell_angle_gamma 90.010393
loop_
_atom_site_label
_atom_site_type_symbol
_atom_site_fract_x
_atom_site_fract_y
_atom_site_fract_z
_atom_type_partial_charge
C0 C 0.05639 0.5806 0.16882 0.0
C1 C 0.05514 0.57755 0.24498 0.0
N2 N 0.06938 0.58362 0.27885 0.0
N3 N 0.07132 0.58859 0.15422 0.0
C4 C 0.07914 0.58995 0.22215 0.0
H5 H 0.04675 0.57773 0.12686 0.0
Co6 Co 0.07718 0.59676 0.05833 0.0
C7 C 0.10215 0.6236 0.11806 0.0
O8 O 0.09149 0.63651 0.1118 0.0
N9 N 0.08308 0.60438 0.95997 0.0
C10 C 0.09152 0.61993 0.86131 0.0
C11 C 0.08984 0.61957 0.93842 0.0
C12 C 0.08066 0.59582 0.89422 0.0
N13 N 0.08574 0.60495 0.83324 0.0
O14 O 0.09076 0.57658 0.04416 0.0
H15 H 0.09287 0.6301 0.97532 0.0
H16 H 0.07511 0.58316 0.89084 0.0
O17 O 0.09773 0.60842 0.09847 0.0
C18 C 0.08241 0.56368 1.01971 0.0
O19 O 0.06611 0.5656 1.0031 0.0
N20 N 0.06223 0.61592 0.07255 0.0
C21 C 0.03633 0.64048 0.09293 0.0
C22 C 0.0476 0.63636 0.15165 0.0
C23 C 0.06018 0.62388 0.14083 0.0
C24 C 0.05098 0.6194 1.01554 0.0
C25 C 0.03816 0.6318 0.02406 0.0
H26 H 0.06844 0.62087 0.18767 0.0
H27 H 0.05149 0.61218 0.96357 0.0
H28 H 0.09122 0.59648 0.23055 0.0
H29 H 0.04435 0.57166 0.27323 0.0
H30 H 0.09609 0.6307 0.82845 0.0
H31 H 0.04675 0.64272 0.20586 0.0
H32 H 0.02939 0.63411 0.97787 0.0
C33 C 0.72976 0.75304 0.42485 0.0
C34 C 0.73286 0.75279 0.50124 0.0
N35 N 0.72655 0.76734 0.53178 0.0
N36 N 0.72148 0.76764 0.40698 0.0
C37 C 0.72002 0.77627 0.47298 0.0
H38 H 0.73257 0.74285 0.3853 0.0
Co39 Co 0.71272 0.7723 0.31094 0.0
C40 C 0.68539 0.79689 0.37063 0.0
O41 O 0.67301 0.78552 0.37097 0.0
N42 N 0.70439 0.77711 0.21264 0.0
C43 C 0.68763 0.78418 0.1159 0.0
C44 C 0.6887 0.7829 0.19296 0.0
C45 C 0.71256 0.77489 0.14581 0.0
N46 N 0.70265 0.77911 0.086 0.0
O47 O 0.73233 0.78646 0.29246 0.0
H48 H 0.67837 0.78562 0.23139 0.0
H49 H 0.72535 0.76976 0.14063 0.0
O50 O 0.70047 0.79287 0.3483 0.0
C51 C 0.7451 0.77815 0.26663 0.0
O52 O 0.74338 0.76165 0.25304 0.0
N53 N 0.69421 0.7567 0.32921 0.0
C54 C 0.67055 0.73011 0.35385 0.0
C55 C 0.67465 0.74174 0.4114 0.0
C56 C 0.68672 0.75464 0.39848 0.0
C57 C 0.69085 0.74501 0.27361 0.0
C58 C 0.6789 0.73185 0.28422 0.0
H59 H 0.68973 0.76318 0.44448 0.0
H60 H 0.69782 0.74544 0.22101 0.0
H61 H 0.71354 0.78847 0.47844 0.0
H62 H 0.73837 0.74219 0.53234 0.0
H63 H 0.67656 0.78851 0.08448 0.0
H64 H 0.66859 0.74094 0.46623 0.0
H65 H 0.67666 0.7228 0.23893 0.0
C66 C 0.56808 0.41294 0.67438 0.0
C67 C 0.56939 0.41594 0.75057 0.0
N68 N 0.55498 0.41025 0.78438 0.0
N69 N 0.55295 0.40535 0.65973 0.0
C70 C 0.54507 0.4042 0.72763 0.0
H71 H 0.57779 0.41558 0.63241 0.0
Co72 Co 0.54684 0.39745 0.56374 0.0
C73 C 0.52155 0.37092 0.62388 0.0
O74 O 0.53238 0.35809 0.6203 0.0
N75 N 0.54061 0.39012 0.46535 0.0
C76 C 0.53154 0.37488 0.36681 0.0
C77 C 0.53329 0.37518 0.4439 0.0
C78 C 0.54326 0.3986 0.39963 0.0
N79 N 0.53782 0.38964 0.33872 0.0
O80 O 0.53363 0.41801 0.55051 0.0
H81 H 0.52995 0.36476 0.4809 0.0
H82 H 0.54927 0.41105 0.39621 0.0
O83 O 0.52608 0.38603 0.6036 0.0
C84 C 0.54225 0.43064 0.52515 0.0
O85 O 0.55851 0.42836 0.50877 0.0
N86 N 0.5615 0.37786 0.57654 0.0
C87 C 0.58641 0.35215 0.59284 0.0
C88 C 0.57621 0.35713 0.65398 0.0
C89 C 0.56404 0.37011 0.64497 0.0
C90 C 0.57195 0.37363 0.51742 0.0
C91 C 0.58417 0.36058 0.52383 0.0
H92 H 0.55641 0.37356 0.69331 0.0
H93 H 0.57128 0.38066 0.46507 0.0
H94 H 0.53281 0.39801 0.73595 0.0
H95 H 0.58033 0.42153 0.77889 0.0
H96 H 0.52659 0.36426 0.33398 0.0
H97 H 0.57755 0.35101 0.70848 0.0
H98 H 0.5922 0.35754 0.47581 0.0
C99 C 0.89063 0.2512 0.03217 0.0
C100 C 0.88719 0.25083 0.10812 0.0
N101 N 0.89272 0.23574 0.13612 0.0
N102 N 0.89824 0.2364 1.01157 0.0
C103 C 0.89914 0.22709 0.07602 0.0
H104 H 0.88866 0.26202 0.99499 0.0
Co105 Co 0.90737 0.23292 0.91459 0.0
C106 C 0.93431 0.20733 0.96852 0.0
O107 O 0.94655 0.21871 0.97622 0.0
N108 N 0.91598 0.22933 0.81627 0.0
C109 C 0.9328 0.22306 0.71881 0.0
C110 C 0.93191 0.2244 0.7959 0.0
C111 C 0.90744 0.23093 0.75011 0.0
N112 N 0.9174 0.22718 0.68968 0.0
O113 O 0.88789 0.21897 0.88908 0.0
H114 H 0.9424 0.22218 0.83411 0.0
H115 H 0.89423 0.23502 0.74639 0.0
O116 O 0.91936 0.21186 0.94655 0.0
C117 C 0.87389 0.227 0.87839 0.0
O118 O 0.87361 0.24377 0.88564 0.0
N119 N 0.92599 0.24811 0.9386 0.0
C120 C 0.95126 0.27287 0.96942 0.0
C121 C 0.94572 0.26143 0.02535 0.0
C122 C 0.93302 0.24936 1.00916 0.0
C123 C 0.9304 0.25997 0.8852 0.0
C124 C 0.94325 0.27209 0.89864 0.0
H125 H 0.92927 0.2407 0.05353 0.0
H126 H 0.9239 0.26024 0.83148 0.0
H127 H 0.90532 0.2147 0.07973 0.0
H128 H 0.88217 0.2614 0.14105 0.0
H129 H 0.94397 0.21918 0.68689 0.0
H130 H 0.95099 0.26185 0.08178 0.0
H131 H 0.94686 0.28072 0.85351 0.0
C132 C 0.05797 0.41087 0.95147 0.0
C133 C 0.05568 0.41086 0.8746 0.0
N134 N 0.0709 0.40754 0.84182 0.0
N135 N 0.07451 0.40741 0.96693 0.0
C136 C 0.08213 0.4056 0.89909 0.0
H137 H 0.0482 0.41307 0.99365 0.0
Co138 Co 0.08322 0.40533 0.06314 0.0
C139 C 0.1119 0.38093 0.0551 0.0
O140 O 0.10589 0.37387 0.11704 0.0
N141 N 0.09205 0.40399 0.16234 0.0
C142 C 0.11039 0.40756 0.25741 0.0
C143 C 0.10832 0.40829 0.18068 0.0
C144 C 0.08437 0.40118 0.22967 0.0
N145 N 0.09527 0.40315 0.28814 0.0
O146 O 0.09427 0.42713 0.0512 0.0
H147 H 0.11804 0.41216 0.14061 0.0
H148 H 0.07099 0.3982 0.23678 0.0
O149 O 0.1039 0.39354 0.02486 0.0
C150 C 0.08795 0.43949 0.08907 0.0
O151 O 0.07514 0.43639 0.13525 0.0
N152 N 0.07092 0.3845 0.07246 0.0
C153 C 0.04655 0.35823 0.06292 0.0
C154 C 0.06169 0.35747 1.02069 0.0
C155 C 0.07357 0.37082 0.0253 0.0
C156 C 0.05604 0.38556 0.11262 0.0
C157 C 0.0439 0.37236 0.11038 0.0
H158 H 0.08414 0.37066 0.98617 0.0
H159 H 0.05288 0.39731 0.14185 0.0
H160 H 0.09554 0.40257 0.89172 0.0
H161 H 0.04377 0.41325 0.84514 0.0
H162 H 0.12189 0.4108 0.28838 0.0
H163 H 0.06398 0.34699 0.98173 0.0
H164 H 0.03201 0.37379 0.1413 0.0
C165 C 0.88389 0.75241 0.09859 0.0
C166 C 0.8807 0.75209 0.02222 0.0
N167 N 0.8875 0.76633 0.99127 0.0
N168 N 0.89268 0.76677 0.11582 0.0
C169 C 0.8944 0.77517 0.04945 0.0
H170 H 0.88065 0.74246 0.13866 0.0
Co171 Co 0.90119 0.7718 0.21199 0.0
C172 C 0.9288 0.79595 0.15265 0.0
O173 O 0.9411 0.78454 0.15658 0.0
N174 N 0.90914 0.77702 0.31059 0.0
C175 C 0.92439 0.78624 0.40889 0.0
C176 C 0.92402 0.78448 0.33182 0.0
C177 C 0.90085 0.77409 0.37659 0.0
N178 N 0.90979 0.77969 0.43705 0.0
O179 O 0.88149 0.78598 0.22849 0.0
H180 H 0.93424 0.78825 0.2947 0.0
H181 H 0.88846 0.76801 0.38066 0.0
O182 O 0.91354 0.79223 0.17356 0.0
C183 C 0.86862 0.77777 0.25401 0.0
O184 O 0.87023 0.76129 0.26821 0.0
N185 N 0.91985 0.75622 0.19574 0.0
C186 C 0.94431 0.73024 0.17426 0.0
C187 C 0.9398 0.74129 0.11526 0.0
C188 C 0.92737 0.75389 0.12666 0.0
C189 C 0.92356 0.74502 0.25277 0.0
C190 C 0.93592 0.73218 0.24371 0.0
H191 H 0.92427 0.76213 0.07984 0.0
H192 H 0.91664 0.74562 0.30544 0.0
H193 H 0.90127 0.78714 0.04311 0.0
H194 H 0.8747 0.74171 0.99132 0.0
H195 H 0.93478 0.79158 0.44181 0.0
H196 H 0.94591 0.74034 0.06058 0.0
H197 H 0.93851 0.72355 0.29016 0.0
C198 C 0.56674 0.57257 0.36214 0.0
C199 C 0.56735 0.5694 0.28577 0.0
N200 N 0.55274 0.57525 0.25455 0.0
N201 N 0.55183 0.5804 0.37911 0.0
C202 C 0.54343 0.58156 0.31258 0.0
H203 H 0.57681 0.56997 0.40244 0.0
Co204 Co 0.54612 0.58851 0.47524 0.0
C205 C 0.52082 0.61505 0.41638 0.0
O206 O 0.53147 0.62794 0.42402 0.0
N207 N 0.54028 0.59601 0.57394 0.0
C208 C 0.52979 0.61024 0.67282 0.0
C209 C 0.53154 0.61015 0.59578 0.0
C210 C 0.54393 0.58789 0.63964 0.0
N211 N 0.53758 0.59622 0.70044 0.0
O212 O 0.53301 0.56796 0.49055 0.0
H213 H 0.52681 0.62007 0.55922 0.0
H214 H 0.55106 0.57604 0.6432 0.0
O215 O 0.52519 0.59984 0.43581 0.0
C216 C 0.54176 0.55543 0.51597 0.0
O217 O 0.55808 0.55779 0.53079 0.0
N218 N 0.56064 0.60808 0.46019 0.0
C219 C 0.58479 0.63442 0.44065 0.0
C220 C 0.57426 0.62921 0.38101 0.0
C221 C 0.56258 0.61586 0.39142 0.0
C222 C 0.57146 0.61246 0.51773 0.0
C223 C 0.58342 0.62572 0.50956 0.0
H224 H 0.55469 0.61224 0.34415 0.0
H225 H 0.57118 0.60548 0.57029 0.0
H226 H 0.53104 0.58759 0.30607 0.0
H227 H 0.57811 0.56408 0.25508 0.0
H228 H 0.52354 0.62008 0.7061 0.0
H229 H 0.5752 0.63522 0.32609 0.0
H230 H 0.59151 0.6291 0.5569 0.0
C231 C 0.73025 0.2483 0.53066 0.0
C232 C 0.73469 0.24929 0.45582 0.0
N233 N 0.73869 0.23342 0.43178 0.0
N234 N 0.73115 0.23183 0.554 0.0
C235 C 0.73694 0.22315 0.49281 0.0
H236 H 0.72634 0.25896 0.56576 0.0
Co237 Co 0.72629 0.22532 0.6544 0.0
C238 C 0.70817 0.19554 0.569 0.0
O239 O 0.70896 0.20178 0.50042 0.0
N240 N 0.7219 0.21942 0.75488 0.0
C241 C 0.70951 0.20911 0.8583 0.0
C242 C 0.70785 0.21137 0.78179 0.0
C243 C 0.73173 0.22236 0.81643 0.0
N244 N 0.7245 0.21605 0.87994 0.0
O245 O 0.74761 0.21309 0.66025 0.0
H246 H 0.69688 0.20773 0.74822 0.0
H247 H 0.74393 0.22896 0.81469 0.0
O248 O 0.71431 0.20405 0.62455 0.0
C249 C 0.76127 0.22201 0.65656 0.0
O250 O 0.76011 0.23857 0.64352 0.0
N251 N 0.70584 0.23824 0.65178 0.0
C252 C 0.67858 0.26158 0.64745 0.0
C253 C 0.67937 0.24774 0.59677 0.0
C254 C 0.6931 0.23624 0.5998 0.0
C255 C 0.70525 0.25152 0.70185 0.0
C256 C 0.69167 0.2632 0.70128 0.0
H257 H 0.69381 0.22634 0.55782 0.0
H258 H 0.71562 0.25332 0.74151 0.0
H259 H 0.7397 0.20953 0.49257 0.0
H260 H 0.73422 0.26066 0.42082 0.0
H261 H 0.70019 0.2033 0.89567 0.0
H262 H 0.66984 0.24615 0.55296 0.0
H263 H 0.6916 0.27352 0.7422 0.0
C264 C 0.40106 0.24841 0.56312 0.0
C265 C 0.39723 0.2466 0.48809 0.0
N266 N 0.39064 0.26149 0.4627 0.0
N267 N 0.3974 0.26453 0.58573 0.0
C268 C 0.3903 0.27194 0.52399 0.0
H269 H 0.40662 0.23859 0.59857 0.0
Co270 Co 0.40146 0.27242 0.68533 0.0
C271 C 0.41686 0.30282 0.59474 0.0
O272 O 0.41547 0.29626 0.52688 0.0
N273 N 0.40525 0.27968 0.7854 0.0
C274 C 0.41865 0.28963 0.88691 0.0
C275 C 0.41962 0.28743 0.81027 0.0
C276 C 0.39576 0.27714 0.84851 0.0
N277 N 0.40362 0.28317 0.91147 0.0
O278 O 0.379 0.28236 0.68728 0.0
H279 H 0.43054 0.29054 0.77533 0.0
H280 H 0.38351 0.27067 0.84841 0.0
O281 O 0.41179 0.29427 0.6522 0.0
C282 C 0.36842 0.27033 0.70158 0.0
O283 O 0.37459 0.25484 0.71282 0.0
N284 N 0.42293 0.26135 0.68549 0.0
C285 C 0.45089 0.23895 0.68045 0.0
C286 C 0.44976 0.25289 0.6305 0.0
C287 C 0.43566 0.26395 0.63392 0.0
C288 C 0.42408 0.24823 0.73603 0.0
C289 C 0.43802 0.23703 0.73513 0.0
H290 H 0.43455 0.27383 0.59188 0.0
H291 H 0.41374 0.24602 0.77549 0.0
H292 H 0.38533 0.2849 0.52365 0.0
H293 H 0.39994 0.23536 0.45425 0.0
H294 H 0.42871 0.29486 0.92204 0.0
H295 H 0.45919 0.25475 0.58642 0.0
H296 H 0.43842 0.22667 0.77577 0.0
C297 C 0.23548 0.74829 0.1282 0.0
C298 C 0.23809 0.74978 0.0518 0.0
N299 N 0.23238 0.73537 1.01812 0.0
N300 N 0.22797 0.73309 0.14298 0.0
C301 C 0.22661 0.72528 0.07483 0.0
H302 H 0.23799 0.75807 0.1701 0.0
Co303 Co 0.21957 0.7276 0.23914 0.0
C304 C 0.1921 0.70327 0.17984 0.0
O305 O 0.17962 0.71444 0.18502 0.0
N306 N 0.21163 0.7221 0.33795 0.0
C307 C 0.19471 0.7159 0.43566 0.0
C308 C 0.19577 0.71688 0.35847 0.0
C309 C 0.22 0.72405 0.40459 0.0
N310 N 0.20996 0.72041 0.46471 0.0
O311 O 0.23939 0.71354 0.25431 0.0
H312 H 0.18522 0.71472 0.32073 0.0
H313 H 0.23291 0.72889 0.40964 0.0
O314 O 0.20739 0.70718 0.19966 0.0
C315 C 0.25225 0.72168 0.28026 0.0
O316 O 0.25054 0.73804 0.2967 0.0
N317 N 0.20078 0.74305 0.22399 0.0
C318 C 0.17548 0.76824 0.20487 0.0
C319 C 0.18009 0.75736 0.14534 0.0
C320 C 0.19296 0.74516 0.15551 0.0
C321 C 0.19717 0.7543 0.28106 0.0
C322 C 0.1844 0.76677 0.27318 0.0
H323 H 0.19615 0.73703 0.10836 0.0
H324 H 0.20433 0.75384 0.33314 0.0
H325 H 0.22021 0.71311 0.06609 0.0
H326 H 0.24313 0.76093 0.02288 0.0
H327 H 0.18346 0.7125 0.46807 0.0
H328 H 0.17395 0.7584 0.09075 0.0
H329 H 0.18151 0.77514 0.32031 0.0
C330 C 0.22211 0.24735 0.89897 0.0
C331 C 0.2242 0.24565 0.97563 0.0
N332 N 0.21869 0.26017 1.00929 0.0
N333 N 0.21539 0.26289 0.88385 0.0
C334 C 0.21358 0.27047 0.95215 0.0
H335 H 0.22471 0.2376 0.85706 0.0
Co336 Co 0.20817 0.26969 0.78786 0.0
C337 C 0.20095 0.30661 0.81117 0.0
O338 O 0.21099 0.31098 0.75486 0.0
N339 N 0.20087 0.27618 0.69076 0.0
C340 C 0.18499 0.28556 0.59516 0.0
C341 C 0.18605 0.28404 0.67234 0.0
C342 C 0.20848 0.27287 0.62371 0.0
N343 N 0.19913 0.27849 0.56442 0.0
O344 O 0.23018 0.28005 0.77073 0.0
H345 H 0.17639 0.28803 0.71244 0.0
H346 H 0.22057 0.26628 0.6182 0.0
O347 O 0.19917 0.29083 0.82859 0.0
C348 C 0.24089 0.26932 0.74395 0.0
O349 O 0.23574 0.2535 0.73168 0.0
N350 N 0.18723 0.25848 0.80427 0.0
C351 C 0.15899 0.23752 0.83277 0.0
C352 C 0.16228 0.25191 0.878 0.0
C353 C 0.17645 0.26228 0.86267 0.0
C354 C 0.18412 0.24466 0.75914 0.0
C355 C 0.16992 0.23411 0.7718 0.0
H356 H 0.17909 0.27292 0.8998 0.0
H357 H 0.193 0.24153 0.71432 0.0
H358 H 0.20775 0.28291 0.96034 0.0
H359 H 0.22905 0.2344 1.00424 0.0
H360 H 0.17432 0.29093 0.56421 0.0
H361 H 0.15412 0.25495 0.92564 0.0
H362 H 0.16795 0.22297 0.73625 0.0
C363 C 0.39237 0.74588 0.41926 0.0
C364 C 0.38934 0.74704 0.49546 0.0
N365 N 0.39576 0.73292 0.52915 0.0
N366 N 0.4007 0.73113 0.40446 0.0
C367 C 0.40229 0.72331 0.47231 0.0
H368 H 0.38925 0.75547 0.37739 0.0
Co369 Co 0.40886 0.72545 0.30844 0.0
C370 C 0.43629 0.70106 0.36775 0.0
O371 O 0.44883 0.71219 0.36273 0.0
N372 N 0.41653 0.71969 0.20993 0.0
C373 C 0.43233 0.71165 0.11134 0.0
C374 C 0.43191 0.71339 0.18842 0.0
C375 C 0.40792 0.72178 0.14418 0.0
N376 N 0.41721 0.71694 0.08327 0.0
O377 O 0.38892 0.71144 0.29461 0.0
H378 H 0.44251 0.71076 0.22535 0.0
H379 H 0.39513 0.72694 0.14069 0.0
O380 O 0.42104 0.70507 0.34793 0.0
C381 C 0.37606 0.71972 0.26952 0.0
O382 O 0.37789 0.73607 0.25312 0.0
N383 N 0.42767 0.74091 0.32208 0.0
C384 C 0.45157 0.76751 0.34067 0.0
C385 C 0.44783 0.75625 0.39996 0.0
C386 C 0.43564 0.74333 0.39007 0.0
C387 C 0.43075 0.7522 0.26467 0.0
C388 C 0.44279 0.76539 0.27234 0.0
H389 H 0.43281 0.73514 0.43747 0.0
H390 H 0.4235 0.75142 0.21291 0.0
H391 H 0.40909 0.71137 0.48054 0.0
H392 H 0.38321 0.75769 0.52386 0.0
H393 H 0.44322 0.70741 0.07848 0.0
H394 H 0.45392 0.75769 0.45448 0.0
H395 H 0.44506 0.77394 0.22527 0.0
C396 C 0.55819 0.08529 0.68289 0.0
C397 C 0.55765 0.08218 0.75925 0.0
N398 N 0.57267 0.08718 0.7898 0.0
N399 N 0.57343 0.09229 0.66504 0.0
C400 C 0.58213 0.09294 0.73099 0.0
H401 H 0.54782 0.08336 0.64332 0.0
Co402 Co 0.57892 0.10057 0.56898 0.0
C403 C 0.60509 0.12626 0.62956 0.0
O404 O 0.59434 0.13916 0.63179 0.0
N405 N 0.5846 0.10833 0.47067 0.0
C406 C 0.59341 0.12423 0.3738 0.0
C407 C 0.59202 0.12334 0.45087 0.0
C408 C 0.58156 0.10037 0.40395 0.0
N409 N 0.58679 0.10978 0.34405 0.0
O410 O 0.59162 0.07987 0.5516 0.0
H411 H 0.59578 0.13337 0.48922 0.0
H412 H 0.5751 0.08817 0.39896 0.0
O413 O 0.6002 0.11145 0.60661 0.0
C414 C 0.58257 0.06761 0.52567 0.0
O415 O 0.56628 0.07037 0.5115 0.0
N416 N 0.56471 0.12038 0.586 0.0
C417 C 0.54079 0.14684 0.60787 0.0
C418 C 0.55099 0.14103 0.6675 0.0
C419 C 0.56262 0.12768 0.65576 0.0
C420 C 0.55416 0.12536 0.52842 0.0
C421 C 0.54245 0.13879 0.53759 0.0
H422 H 0.57028 0.12364 0.70304 0.0
H423 H 0.55437 0.11869 0.47506 0.0
H424 H 0.59485 0.0983 0.73639 0.0
H425 H 0.54663 0.07759 0.79032 0.0
H426 H 0.59886 0.13479 0.34226 0.0
H427 H 0.55007 0.14681 0.72294 0.0
H428 H 0.53436 0.14244 0.49068 0.0
C429 C 0.06463 0.91825 0.18506 0.0
C430 C 0.06488 0.92146 0.2614 0.0
N431 N 0.05 0.91591 0.29118 0.0
N432 N 0.04964 0.91075 0.16656 0.0
C433 C 0.04087 0.90975 0.23232 0.0
H434 H 0.07504 0.92047 0.14605 0.0
Co435 Co 0.04448 0.90236 0.07006 0.0
C436 C 0.01747 0.87742 0.12808 0.0
O437 O 0.02775 0.86413 0.12793 0.0
N438 N 0.03917 0.89443 0.97138 0.0
C439 C 0.02941 0.87923 0.87381 0.0
C440 C 0.03124 0.87971 0.95085 0.0
C441 C 0.0423 0.90249 0.90501 0.0
N442 N 0.03638 0.89358 0.84501 0.0
O443 O 0.03256 0.9234 0.04963 0.0
H444 H 0.02722 0.86969 0.98858 0.0
H445 H 0.0487 0.91472 0.90024 0.0
O446 O 0.02273 0.89218 0.10629 0.0
C447 C 0.0431 0.93457 0.02517 0.0
O448 O 0.05925 0.93012 1.01712 0.0
N449 N 0.05815 0.88245 0.08944 0.0
C450 C 0.083 0.85709 0.11582 0.0
C451 C 0.07154 0.86202 0.1727 0.0
C452 C 0.05951 0.8749 0.15893 0.0
C453 C 0.06963 0.87815 0.0343 0.0
C454 C 0.0819 0.86536 0.0458 0.0
H455 H 0.05114 0.87857 0.20452 0.0
H456 H 0.06984 0.88508 0.9816 0.0
H457 H 0.02841 0.90381 0.23786 0.0
H458 H 0.07561 0.92647 0.2932 0.0
H459 H 0.0237 0.86894 0.84136 0.0
H460 H 0.07186 0.85603 0.22778 0.0
H461 H 0.09089 0.86246 1.00099 0.0
C462 C 0.55533 0.92624 0.34702 0.0
C463 C 0.55488 0.92945 0.27068 0.0
N464 N 0.56941 0.92332 0.23966 0.0
N465 N 0.57006 0.91811 0.36417 0.0
C466 C 0.57853 0.91681 0.29778 0.0
H467 H 0.54526 0.92901 0.38714 0.0
Co468 Co 0.57542 0.90981 0.46029 0.0
C469 C 0.60071 0.88321 0.40113 0.0
O470 O 0.58986 0.87042 0.4056 0.0
N471 N 0.58094 0.9021 0.55888 0.0
C472 C 0.59085 0.88734 0.65727 0.0
C473 C 0.58908 0.88757 0.58022 0.0
C474 C 0.57764 0.9103 0.62481 0.0
N475 N 0.58365 0.90165 0.68532 0.0
O476 O 0.5887 0.93021 0.47692 0.0
H477 H 0.59333 0.8775 0.54321 0.0
H478 H 0.57101 0.92243 0.62877 0.0
O479 O 0.59637 0.89835 0.42179 0.0
C480 C 0.58004 0.94281 0.50238 0.0
O481 O 0.56366 0.94064 0.51647 0.0
N482 N 0.56074 0.89039 0.44394 0.0
C483 C 0.53621 0.86443 0.42247 0.0
C484 C 0.54693 0.86963 0.36338 0.0
C485 C 0.55879 0.88279 0.37476 0.0
C486 C 0.5498 0.886 0.50105 0.0
C487 C 0.5377 0.8729 0.49199 0.0
H488 H 0.56683 0.88635 0.32792 0.0
H489 H 0.55005 0.8929 0.55386 0.0
H490 H 0.59078 0.9105 0.29138 0.0
H491 H 0.54426 0.93497 0.23985 0.0
H492 H 0.59668 0.87721 0.69026 0.0
H493 H 0.54635 0.86349 0.30865 0.0
H494 H 0.52927 0.86978 0.53854 0.0
C495 C 0.06506 0.09237 0.84917 0.0
C496 C 0.06809 0.08981 0.77388 0.0
N497 N 0.05316 0.08589 0.73996 0.0
N498 N 0.04821 0.09044 0.86363 0.0
C499 C 0.04143 0.08557 0.79645 0.0
H500 H 0.0745 0.09611 0.89066 0.0
Co501 Co 0.03975 0.0952 0.96138 0.0
C502 C 0.00821 0.10927 0.87077 0.0
O503 O 0.01415 0.10936 0.80155 0.0
N504 N 0.03206 0.09972 0.06029 0.0
C505 C 0.02162 0.11403 0.15866 0.0
C506 C 0.02312 0.11375 0.08157 0.0
C507 C 0.03591 0.09168 0.12596 0.0
N508 N 0.02974 0.1002 0.18684 0.0
O509 O 0.03055 0.07248 0.96681 0.0
H510 H 0.01881 0.12373 0.04375 0.0
H511 H 0.04398 0.08042 0.12947 0.0
O512 O 0.01767 0.10421 0.92531 0.0
C513 C 0.04236 0.06198 0.98475 0.0
O514 O 0.05777 0.06816 0.99741 0.0
N515 N 0.04993 0.11719 0.9574 0.0
C516 C 0.07055 0.1465 0.9456 0.0
C517 C 0.05769 0.14307 0.89224 0.0
C518 C 0.04752 0.1284 0.89924 0.0
C519 C 0.06209 0.12044 1.01067 0.0
C520 C 0.07232 0.13513 1.00659 0.0
H521 H 0.0386 0.12552 0.85491 0.0
H522 H 0.06434 0.11126 0.05529 0.0
H523 H 0.02811 0.08229 0.78847 0.0
H524 H 0.08033 0.09133 0.74589 0.0
H525 H 0.01551 0.124 0.19165 0.0
H526 H 0.05604 0.15111 0.84304 0.0
H527 H 0.08184 0.13725 0.04998 0.0
H528 H 0.06414 0.58158 0.7697 0.0
H529 H 0.10446 0.6176 0.71658 0.0
H530 H 0.0612 0.57475 0.63632 0.0
H531 H 0.10099 0.61134 0.58312 0.0
H532 H 0.10009 0.58642 0.35057 0.0
H533 H 0.10493 0.59013 0.48568 0.0
H534 H 0.05032 0.58818 0.52447 0.0
H535 H 0.04552 0.58442 0.39041 0.0
C536 C 0.07246 0.58798 0.72988 0.0
C537 C 0.08447 0.60026 0.7544 0.0
C538 C 0.07064 0.5842 0.65305 0.0
C539 C 0.08077 0.59258 0.59857 0.0
C540 C 0.09306 0.60452 0.62326 0.0
C541 C 0.09489 0.60829 0.70002 0.0
C542 C 0.08913 0.58678 0.38793 0.0
C543 C 0.07242 0.58506 0.35915 0.0
C544 C 0.0919 0.58893 0.4655 0.0
C545 C 0.07802 0.58944 0.51631 0.0
C546 C 0.06135 0.58752 0.4875 0.0
C547 C 0.05859 0.58535 0.41019 0.0
H548 H 0.73432 0.78052 0.02172 0.0
H549 H 0.68057 0.77495 0.96937 0.0
H550 H 0.74117 0.77902 0.88733 0.0
H551 H 0.68736 0.77345 0.83597 0.0
H552 H 0.70213 0.78708 0.59871 0.0
H553 H 0.69737 0.79102 0.73311 0.0
H554 H 0.74123 0.75908 0.78142 0.0
H555 H 0.74642 0.75569 0.64657 0.0
C556 C 0.72397 0.77887 0.98178 0.0
C557 C 0.70687 0.77796 1.00668 0.0
C558 C 0.7279 0.77803 0.90465 0.0
C559 C 0.71481 0.77627 0.85057 0.0
C560 C 0.69775 0.77522 0.87569 0.0
C561 C 0.69384 0.77606 0.95251 0.0
C562 C 0.711 0.78117 0.63768 0.0
C563 C 0.72464 0.77098 0.61138 0.0
C564 C 0.70812 0.78325 0.71504 0.0
C565 C 0.71878 0.7752 0.76833 0.0
C566 C 0.7328 0.76553 0.74213 0.0
C567 C 0.73567 0.76344 0.66468 0.0
H568 H 0.51869 0.3776 0.22213 0.0
H569 H 0.56022 0.41224 0.27511 0.0
H570 H 0.5224 0.38368 0.08865 0.0
H571 H 0.5634 0.41891 0.14174 0.0
H572 H 0.57878 0.40865 0.89585 0.0
H573 H 0.57384 0.40508 0.02993 0.0
H574 H 0.5192 0.40496 0.99121 0.0
H575 H 0.52419 0.40848 0.85609 0.0
C576 C 0.52857 0.38657 0.20553 0.0
C577 C 0.53926 0.39427 0.25987 0.0
C578 C 0.53055 0.39024 0.12877 0.0
C579 C 0.54325 0.40175 0.10405 0.0
C580 C 0.55364 0.4098 0.1585 0.0
C581 C 0.55168 0.40611 0.23532 0.0
C582 C 0.56569 0.40816 0.91566 0.0
C583 C 0.55189 0.40891 0.86467 0.0
C584 C 0.56284 0.4061 0.99297 0.0
C585 C 0.54611 0.40476 0.02179 0.0
C586 C 0.53227 0.40572 0.97101 0.0
C587 C 0.53513 0.40775 0.89344 0.0
H588 H 0.88562 0.22378 0.62754 0.0
H589 H 0.9389 0.23148 0.57094 0.0
H590 H 0.87839 0.22378 0.49331 0.0
H591 H 0.93174 0.2314 0.43791 0.0
H592 H 0.91731 0.2162 0.20255 0.0
H593 H 0.9222 0.21259 0.33741 0.0
H594 H 0.87732 0.24316 0.38514 0.0
H595 H 0.87212 0.24627 0.2502 0.0
C596 C 0.89578 0.22556 0.58675 0.0
C597 C 0.91288 0.22752 0.61049 0.0
C598 C 0.89164 0.22551 0.5097 0.0
C599 C 0.9045 0.22739 0.45454 0.0
C600 C 0.92154 0.22948 0.47849 0.0
C601 C 0.92566 0.22956 0.55517 0.0
C602 C 0.90825 0.22181 0.24165 0.0
C603 C 0.89438 0.23163 0.21533 0.0
C604 C 0.91118 0.21993 0.31916 0.0
C605 C 0.9003 0.22779 0.37237 0.0
C606 C 0.88594 0.23688 0.346 0.0
C607 C 0.88304 0.23879 0.26852 0.0
H608 H 0.11646 0.39315 0.40002 0.0
H609 H 0.06529 0.4115 0.35559 0.0
H610 H 0.11045 0.39318 0.535 0.0
H611 H 0.0593 0.4119 0.49043 0.0
H612 H 0.04914 0.39649 0.73351 0.0
H613 H 0.05489 0.39418 0.59879 0.0
H614 H 0.10624 0.41325 0.63537 0.0
H615 H 0.10052 0.41522 0.77017 0.0
C616 C 0.10394 0.39724 0.41927 0.0
C617 C 0.09136 0.40233 0.36735 0.0
C618 C 0.1005 0.39732 0.49655 0.0
C619 C 0.08442 0.40264 0.5237 0.0
C620 C 0.07174 0.40748 0.47152 0.0
C621 C 0.07515 0.40726 0.39418 0.0
C622 C 0.06162 0.40026 0.71261 0.0
C623 C 0.07437 0.40608 0.76236 0.0
C624 C 0.06492 0.39895 0.63541 0.0
C625 C 0.08103 0.40355 0.60611 0.0
C626 C 0.0938 0.40931 0.65607 0.0
C627 C 0.09052 0.41049 0.73334 0.0
H628 H 0.91741 0.80265 0.54612 0.0
H629 H 0.89145 0.75464 0.50594 0.0
H630 H 0.91068 0.80066 0.67989 0.0
H631 H 0.88515 0.75221 0.6404 0.0
H632 H 0.86524 0.75837 0.87956 0.0
H633 H 0.86933 0.76259 0.74424 0.0
H634 H 0.9188 0.78553 0.78799 0.0
H635 H 0.91436 0.78177 0.92264 0.0
C636 C 0.91035 0.79159 0.56615 0.0
C637 C 0.90505 0.77876 0.5156 0.0
C638 C 0.90652 0.79039 0.643 0.0
C639 C 0.89749 0.77618 0.67168 0.0
C640 C 0.89192 0.76347 0.62062 0.0
C641 C 0.89556 0.76481 0.54345 0.0
C642 C 0.87691 0.76442 0.85997 0.0
C643 C 0.88942 0.76982 0.9118 0.0
C644 C 0.87933 0.76676 0.78237 0.0
C645 C 0.89443 0.77438 0.75458 0.0
C646 C 0.90684 0.77994 0.80685 0.0
C647 C 0.90432 0.77778 0.88435 0.0
H648 H 0.56407 0.58003 0.76905 0.0
H649 H 0.51405 0.60165 0.80944 0.0
H650 H 0.56705 0.57393 0.90351 0.0
H651 H 0.51663 0.59512 0.94314 0.0
H652 H 0.53523 0.60077 0.18553 0.0
H653 H 0.53112 0.60476 0.05085 0.0
H654 H 0.55802 0.55723 1.00761 0.0
H655 H 0.56252 0.55359 0.14298 0.0
C656 C 0.5536 0.58321 0.80659 0.0
C657 C 0.5389 0.59146 0.77883 0.0
C658 C 0.55526 0.57968 0.88375 0.0
C659 C 0.54214 0.58414 0.93483 0.0
C660 C 0.5272 0.59187 0.90621 0.0
C661 C 0.52566 0.59558 0.82941 0.0
C662 C 0.54004 0.59104 0.14738 0.0
C663 C 0.54916 0.57683 0.175 0.0
C664 C 0.53768 0.5933 0.06986 0.0
C665 C 0.54421 0.58132 1.01773 0.0
C666 C 0.55305 0.5669 0.04566 0.0
C667 C 0.55556 0.56474 0.12329 0.0
H668 H 0.72363 0.20678 0.36091 0.0
H669 H 0.75789 0.24937 0.32647 0.0
H670 H 0.72259 0.20173 0.22587 0.0
H671 H 0.75804 0.24375 0.19103 0.0
H672 H 0.73576 0.24447 0.95119 0.0
H673 H 0.74176 0.24744 0.08556 0.0
H674 H 0.73371 0.19283 0.11438 0.0
H675 H 0.72647 0.19046 0.98104 0.0
C676 C 0.73144 0.21468 0.32431 0.0
C677 C 0.74082 0.22846 0.35403 0.0
C678 C 0.73092 0.2118 0.24641 0.0
C679 C 0.74012 0.2224 0.1961 0.0
C680 C 0.75036 0.23557 0.22693 0.0
C681 C 0.7505 0.2387 0.30474 0.0
C682 C 0.73553 0.23315 0.98657 0.0
C683 C 0.73059 0.21728 0.95631 0.0
C684 C 0.73905 0.23475 0.06378 0.0
C685 C 0.7381 0.2204 0.11229 0.0
C686 C 0.7341 0.20432 0.08022 0.0
C687 C 0.73013 0.20286 1.00354 0.0
H688 H 0.39048 0.29334 0.39865 0.0
H689 H 0.38414 0.23953 0.34691 0.0
H690 H 0.38995 0.3 0.2646 0.0
H691 H 0.38478 0.24599 0.21339 0.0
H692 H 0.37985 0.26127 0.97142 0.0
H693 H 0.37272 0.2576 0.10417 0.0
H694 H 0.40866 0.29767 0.16258 0.0
H695 H 0.41487 0.30208 0.03047 0.0
C696 C 0.38877 0.28292 0.35902 0.0
C697 C 0.38767 0.26583 0.38425 0.0
C698 C 0.38872 0.28672 0.28168 0.0
C699 C 0.38768 0.27353 0.22731 0.0
C700 C 0.38554 0.25657 0.25286 0.0
C701 C 0.38542 0.25281 0.33001 0.0
C702 C 0.38599 0.26954 1.01231 0.0
C703 C 0.39818 0.28181 0.98952 0.0
C704 C 0.38203 0.2673 0.08893 0.0
C705 C 0.39023 0.27718 0.145 0.0
C706 C 0.4019 0.28988 0.12171 0.0
C707 C 0.40572 0.29222 0.04535 0.0
H708 H 0.18917 0.7332 0.57242 0.0
H709 H 0.23964 0.71226 0.5358 0.0
H710 H 0.19539 0.73639 0.70683 0.0
H711 H 0.2458 0.71514 0.67155 0.0
H712 H 0.23619 0.7058 0.9387 0.0
H713 H 0.23175 0.70183 0.80216 0.0
H714 H 0.21826 0.75531 0.78139 0.0
H715 H 0.22296 0.75931 0.91644 0.0
C716 C 0.20156 0.72918 0.59334 0.0
C717 C 0.21392 0.72246 0.54372 0.0
C718 C 0.20514 0.73106 0.67015 0.0
C719 C 0.22105 0.72596 0.6996 0.0
C720 C 0.2334 0.71907 0.65031 0.0
C721 C 0.22994 0.71755 0.57282 0.0
C722 C 0.23236 0.71667 0.90462 0.0
C723 C 0.23003 0.73287 0.93807 0.0
C724 C 0.22992 0.71444 0.82669 0.0
C725 C 0.22468 0.72829 0.78131 0.0
C726 C 0.22228 0.74443 0.81499 0.0
C727 C 0.22507 0.74672 0.8922 0.0
H728 H 0.22031 0.25501 0.49895 0.0
H729 H 0.18671 0.29754 0.44819 0.0
H730 H 0.2262 0.25139 0.3653 0.0
H731 H 0.19203 0.2934 0.31411 0.0
H732 H 0.21732 0.29101 0.08127 0.0
H733 H 0.21344 0.29604 0.2161 0.0
H734 H 0.21179 0.24131 0.25416 0.0
H735 H 0.2157 0.2363 0.12018 0.0
C736 C 0.21422 0.26367 0.45958 0.0
C737 C 0.20296 0.27656 0.48495 0.0
C738 C 0.21745 0.26145 0.38255 0.0
C739 C 0.20952 0.27202 0.32859 0.0
C740 C 0.19849 0.2851 0.35393 0.0
C741 C 0.19526 0.28733 0.43101 0.0
C742 C 0.21609 0.28005 0.11834 0.0
C743 C 0.2169 0.26324 0.08943 0.0
C744 C 0.21384 0.28294 0.19576 0.0
C745 C 0.21234 0.26909 0.24628 0.0
C746 C 0.21323 0.2523 0.21734 0.0
C747 C 0.21549 0.24942 0.14014 0.0
H748 H 0.39923 0.7022 0.60055 0.0
H749 H 0.39604 0.7568 0.64084 0.0
H750 H 0.40301 0.69738 0.73563 0.0
H751 H 0.39985 0.75202 0.77486 0.0
H752 H 0.39335 0.73794 1.01975 0.0
H753 H 0.38653 0.74073 0.88637 0.0
H754 H 0.42409 0.70183 0.83318 0.0
H755 H 0.43035 0.6985 0.9667 0.0
C756 C 0.39935 0.71317 0.638 0.0
C757 C 0.39727 0.72988 0.60939 0.0
C758 C 0.40153 0.71041 0.71555 0.0
C759 C 0.4017 0.7243 0.76644 0.0
C760 C 0.39944 0.74097 0.73779 0.0
C761 C 0.39725 0.74372 0.66051 0.0
C762 C 0.39997 0.72977 0.97994 0.0
C763 C 0.41251 0.71807 1.00445 0.0
C764 C 0.39619 0.73151 0.90312 0.0
C765 C 0.40484 0.7216 0.84866 0.0
C766 C 0.41705 0.70959 0.87334 0.0
C767 C 0.42082 0.70784 0.9501 0.0
H768 H 0.55915 0.06847 0.90459 0.0
H769 H 0.59464 0.10961 0.85684 0.0
H770 H 0.563 0.07329 0.03943 0.0
H771 H 0.59901 0.11393 0.99122 0.0
H772 H 0.5848 0.13221 0.22755 0.0
H773 H 0.58259 0.1256 0.09416 0.0
H774 H 0.58274 0.0714 0.14536 0.0
H775 H 0.58495 0.07807 0.27978 0.0
C776 C 0.5679 0.07843 0.9227 0.0
C777 C 0.57646 0.08872 0.86941 0.0
C778 C 0.57024 0.08108 1.00017 0.0
C779 C 0.5812 0.09411 0.02641 0.0
C780 C 0.59024 0.10397 0.97313 0.0
C781 C 0.58791 0.10133 0.89576 0.0
C782 C 0.58457 0.11887 0.21064 0.0
C783 C 0.58518 0.10569 0.26476 0.0
C784 C 0.58332 0.11506 0.13383 0.0
C785 C 0.58265 0.09796 0.10867 0.0
C786 C 0.58309 0.08473 0.16271 0.0
C787 C 0.58434 0.08855 0.23985 0.0
H788 H 0.06189 0.91097 0.77505 0.0
H789 H 0.013 0.8867 0.73688 0.0
H790 H 0.06423 0.91731 0.64074 0.0
H791 H 0.01488 0.89354 0.60315 0.0
H792 H 0.03301 0.88984 0.35863 0.0
H793 H 0.02911 0.88532 0.49325 0.0
H794 H 0.05442 0.93365 0.5385 0.0
H795 H 0.05882 0.93771 0.40333 0.0
C796 C 0.05152 0.90724 0.73799 0.0
C797 C 0.03733 0.89822 0.76638 0.0
C798 C 0.05279 0.91093 0.66087 0.0
C799 C 0.03978 0.90589 0.61036 0.0
C800 C 0.02536 0.89729 0.63956 0.0
C801 C 0.02423 0.8934 0.71639 0.0
C802 C 0.03748 0.89961 0.39733 0.0
C803 C 0.0462 0.91415 0.37041 0.0
C804 C 0.03525 0.89705 0.4748 0.0
C805 C 0.04147 0.90909 0.52748 0.0
C806 C 0.04975 0.9239 0.50011 0.0
C807 C 0.05218 0.92632 0.4226 0.0
H808 H 0.56036 0.94522 0.12811 0.0
H809 H 0.58616 0.89724 0.17075 0.0
H810 H 0.56474 0.94136 0.99274 0.0
H811 H 0.5901 0.89302 0.03605 0.0
H812 H 0.60699 0.89526 0.79401 0.0
H813 H 0.60474 0.90192 0.92778 0.0
H814 H 0.55514 0.92501 0.88898 0.0
H815 H 0.55781 0.91879 0.75448 0.0
C816 C 0.56697 0.93385 0.10842 0.0
C817 C 0.57299 0.9216 0.16015 0.0
C818 C 0.5694 0.93156 0.03079 0.0
C819 C 0.57775 0.91684 1.00286 0.0
C820 C 0.58393 0.90469 0.05502 0.0
C821 C 0.58166 0.90709 0.13255 0.0
C822 C 0.59563 0.90177 0.81419 0.0
C823 C 0.58253 0.9064 0.76383 0.0
C824 C 0.59428 0.90555 0.89104 0.0
C825 C 0.57967 0.91387 0.91992 0.0
C826 C 0.5667 0.91881 0.86904 0.0
C827 C 0.56817 0.91521 0.79185 0.0
H828 H 0.03213 0.06915 0.25654 0.0
H829 H 0.03479 0.12373 0.29629 0.0
H830 H 0.03747 0.06395 0.3917 0.0
H831 H 0.04005 0.11861 0.42956 0.0
H832 H 0.07098 0.10341 0.63416 0.0
H833 H 0.06525 0.10517 0.50012 0.0
H834 H 0.02232 0.0708 0.52577 0.0
H835 H 0.02817 0.06885 0.66206 0.0
C836 C 0.03387 0.07999 0.29401 0.0
C837 C 0.03298 0.09684 0.26575 0.0
C838 C 0.03677 0.07703 0.37126 0.0
C839 C 0.03919 0.09088 0.42116 0.0
C840 C 0.03832 0.10767 0.39257 0.0
C841 C 0.03518 0.11061 0.31617 0.0
C842 C 0.0605 0.09591 0.61168 0.0
C843 C 0.0501 0.08588 0.65936 0.0
C844 C 0.05712 0.09707 0.5346 0.0
C845 C 0.0433 0.08819 0.50237 0.0
C846 C 0.03312 0.07773 0.54909 0.0
C847 C 0.03639 0.07671 0.62706 0.0
H848 H 0.07476 0.53804 0.92241 0.0
H849 H 0.10623 0.55002 0.11547 0.0
H850 H 0.08196 0.50772 0.9353 0.0
H851 H 0.11324 0.51947 0.12934 0.0
H852 H 0.08685 0.46542 0.19092 0.0
H853 H 0.09144 0.49592 0.16755 0.0
H854 H 0.1059 0.48464 0.93776 0.0
H855 H 0.10157 0.45391 0.96168 0.0
C856 C 0.08359 0.5342 0.96643 0.0
C857 C 0.08987 0.5463 1.01821 0.0
C858 C 0.0878 0.51687 0.97353 0.0
C859 C 0.0981 0.51124 0.03351 0.0
C860 C 0.10525 0.52349 0.08264 0.0
C861 C 0.10131 0.54094 0.07453 0.0
C862 C 0.09142 0.46941 0.13595 0.0
C863 C 0.09372 0.45736 0.07792 0.0
C864 C 0.09418 0.48686 0.12275 0.0
C865 C 0.099 0.49264 0.05082 0.0
C866 C 0.10219 0.4805 0.99374 0.0
C867 C 0.09976 0.46295 1.00745 0.0
H868 H 0.85204 0.79844 0.15351 0.0
H869 H 0.84668 0.77402 0.37043 0.0
H870 H 0.82124 0.8051 0.15371 0.0
H871 H 0.8162 0.78107 0.37185 0.0
H872 H 0.76185 0.7991 0.36558 0.0
H873 H 0.79268 0.80558 0.36471 0.0
H874 H 0.79747 0.78078 0.14795 0.0
H875 H 0.76694 0.77392 0.15003 0.0
C876 C 0.84441 0.79516 0.20248 0.0
C877 C 0.85161 0.78572 0.26194 0.0
C878 C 0.82683 0.79889 0.20248 0.0
C879 C 0.81637 0.79362 0.26286 0.0
C880 C 0.82397 0.78548 0.32506 0.0
C881 C 0.84138 0.78138 0.32414 0.0
C882 C 0.76943 0.79561 0.31673 0.0
C883 C 0.76214 0.78601 0.25792 0.0
C884 C 0.78703 0.79924 0.31634 0.0
C885 C 0.79743 0.79369 0.25622 0.0
C886 C 0.78975 0.7854 0.19454 0.0
C887 C 0.77231 0.7814 0.19585 0.0
H888 H 0.52135 0.53815 0.41633 0.0
H889 H 0.54688 0.53332 0.63092 0.0
H890 H 0.51554 0.50712 0.41652 0.0
H891 H 0.54066 0.50258 0.63236 0.0
H892 H 0.54678 0.45285 0.41006 0.0
H893 H 0.5403 0.48353 0.40931 0.0
H894 H 0.5161 0.47873 0.62717 0.0
H895 H 0.52215 0.44774 0.62669 0.0
C896 C 0.5251 0.53056 0.46476 0.0
C897 C 0.53457 0.53802 0.52359 0.0
C898 C 0.52185 0.51285 0.46475 0.0
C899 C 0.52762 0.50248 0.52455 0.0
C900 C 0.53588 0.51028 0.58604 0.0
C901 C 0.53951 0.52783 0.58508 0.0
C902 C 0.53955 0.45826 0.45656 0.0
C903 C 0.53493 0.44801 0.51836 0.0
C904 C 0.53578 0.47579 0.45599 0.0
C905 C 0.5277 0.48349 0.51817 0.0
C906 C 0.52226 0.47306 0.5784 0.0
C907 C 0.52565 0.45538 0.57802 0.0
H908 H 0.8426 0.22822 0.94238 0.0
H909 H 0.87008 0.20742 0.75215 0.0
H910 H 0.81542 0.2201 0.88409 0.0
H911 H 0.84273 0.19976 0.69203 0.0
H912 H 0.76828 0.19996 0.77191 0.0
H913 H 0.79659 0.19468 0.82768 0.0
H914 H 0.82022 0.22334 0.64724 0.0
H915 H 0.79201 0.22901 0.59311 0.0
C916 C 0.84278 0.22137 0.88915 0.0
C917 C 0.85832 0.21829 0.85185 0.0
C918 C 0.82725 0.21668 0.85587 0.0
C919 C 0.82698 0.20928 0.78362 0.0
C920 C 0.84262 0.20535 0.74799 0.0
C921 C 0.85822 0.20964 0.78238 0.0
C922 C 0.7796 0.20457 0.74287 0.0
C923 C 0.77805 0.2149 0.67839 0.0
C924 C 0.79575 0.20162 0.77489 0.0
C925 C 0.81056 0.2086 0.74169 0.0
C926 C 0.80905 0.21764 0.67352 0.0
C927 C 0.79292 0.22094 0.6427 0.0
H928 H 0.26135 0.2939 0.81077 0.0
H929 H 0.2609 0.25496 0.63739 0.0
H930 H 0.29258 0.29698 0.79493 0.0
H931 H 0.29163 0.25823 0.62078 0.0
H932 H 0.34424 0.24567 0.71261 0.0
H933 H 0.31347 0.24876 0.71622 0.0
H934 H 0.31849 0.30383 0.70062 0.0
H935 H 0.34996 0.30075 0.69704 0.0
C936 C 0.26784 0.28636 0.76806 0.0
C937 C 0.25882 0.27394 0.72637 0.0
C938 C 0.28565 0.28815 0.75888 0.0
C939 C 0.29454 0.2776 0.70762 0.0
C940 C 0.28518 0.26628 0.66182 0.0
C941 C 0.26758 0.2644 0.67138 0.0
C942 C 0.33894 0.25851 0.70987 0.0
C943 C 0.34962 0.27297 0.70411 0.0
C944 C 0.32123 0.26025 0.71153 0.0
C945 C 0.31355 0.27651 0.70765 0.0
C946 C 0.32411 0.29113 0.70347 0.0
C947 C 0.34205 0.28937 0.70112 0.0
H948 H 0.26783 0.70027 0.17921 0.0
H949 H 0.27544 0.72622 0.39156 0.0
H950 H 0.29854 0.69331 0.17459 0.0
H951 H 0.30585 0.7189 0.38816 0.0
H952 H 0.35324 0.72337 0.15641 0.0
H953 H 0.3226 0.71711 0.161 0.0
H954 H 0.32895 0.69406 0.38049 0.0
H955 H 0.35988 0.69993 0.37471 0.0
C956 C 0.27595 0.70387 0.22618 0.0
C957 C 0.26938 0.71381 0.28563 0.0
C958 C 0.29348 0.69996 0.22343 0.0
C959 C 0.30454 0.70556 0.28108 0.0
C960 C 0.2976 0.71425 0.34344 0.0
C961 C 0.28023 0.71851 0.34522 0.0
C962 C 0.34817 0.71638 0.20432 0.0
C963 C 0.35883 0.71209 0.26513 0.0
C964 C 0.33066 0.71273 0.20684 0.0
C965 C 0.32341 0.70512 0.27115 0.0
C966 C 0.33426 0.69988 0.33017 0.0
C967 C 0.35191 0.70315 0.32674 0.0
H968 H 0.60233 0.0494 0.62431 0.0
H969 H 0.57725 0.04622 0.40807 0.0
H970 H 0.6075 0.01826 0.62102 0.0
H971 H 0.58287 0.01538 0.40354 0.0
H972 H 0.57512 0.96453 0.6191 0.0
H973 H 0.582 0.99512 0.62368 0.0
H974 H 0.60728 0.99107 0.40788 0.0
H975 H 0.60084 0.96016 0.40458 0.0
C976 C 0.59855 0.04214 0.57489 0.0
C977 C 0.5894 0.0501 0.51644 0.0
C978 C 0.60143 0.02437 0.57313 0.0
C979 C 0.59561 0.01445 0.51192 0.0
C980 C 0.58767 0.02273 0.45092 0.0
C981 C 0.5844 0.04034 0.45364 0.0
C982 C 0.58266 0.97008 0.57391 0.0
C983 C 0.58749 0.96007 0.51159 0.0
C984 C 0.58666 0.98754 0.57667 0.0
C985 C 0.59518 0.99544 0.51616 0.0
C986 C 0.60078 0.98525 0.4554 0.0
C987 C 0.59717 0.96761 0.45363 0.0
H988 H 0.01791 0.95459 0.08997 0.0
H989 H 0.05733 0.9547 0.91908 0.0
H990 H 0.01474 0.9859 0.07536 0.0
H991 H 0.05406 0.98554 0.90412 0.0
H992 H 0.06652 0.0376 1.00613 0.0
H993 H 0.06309 0.00675 1.00872 0.0
H994 H 0.00859 0.01227 0.97577 0.0
H995 H 0.012 0.04375 0.97273 0.0
C996 C 0.02548 0.96121 0.04784 0.0
C997 C 0.03807 0.95234 1.00659 0.0
C998 C 0.02367 0.97907 0.03947 0.0
C999 C 0.03439 0.98813 0.98957 0.0
C1000 C 0.04585 0.97892 0.94391 0.0
C1001 C 0.04772 0.96126 0.95253 0.0
C1002 C 0.05374 0.03239 0.99949 0.0
C1003 C 0.03954 0.04319 0.98864 0.0
C1004 C 0.05181 0.01465 1.00068 0.0
C1005 C 0.03561 0.00712 0.99146 0.0
C1006 C 0.02122 0.0178 0.98279 0.0
C1007 C 0.02319 0.03575 0.98081 0.0
H1008 H 0.17911 0.69059 0.05038 0.0
H1009 H 0.19252 0.67665 0.27795 0.0
H1010 H 0.16176 0.66462 0.03899 0.0
H1011 H 0.17475 0.65077 0.26758 0.0
H1012 H 0.11353 0.64044 0.24109 0.0
H1013 H 0.14147 0.65408 0.25632 0.0
H1014 H 0.15857 0.63103 0.04794 0.0
H1015 H 0.13057 0.6169 0.03413 0.0
C1016 C 0.17898 0.68149 0.09659 0.0
C1017 C 0.18723 0.68541 0.16463 0.0
C1018 C 0.16905 0.66663 0.09021 0.0
C1019 C 0.16685 0.65573 0.15258 0.0
C1020 C 0.17629 0.65894 0.21865 0.0
C1021 C 0.18654 0.67365 0.22441 0.0
C1022 C 0.12353 0.63771 0.2004 0.0
C1023 C 0.12005 0.62761 0.1368 0.0
C1024 C 0.13953 0.64545 0.20912 0.0
C1025 C 0.15218 0.64361 0.15325 0.0
C1026 C 0.14906 0.63257 0.09197 0.0
C1027 C 0.13313 0.62444 0.08426 0.0
H1028 H 0.62747 0.88727 0.49727 0.0
H1029 H 0.61384 0.86775 0.27785 0.0
H1030 H 0.65431 0.87086 0.49293 0.0
H1031 H 0.64074 0.85179 0.27226 0.0
H1032 H 0.69013 0.82385 0.27544 0.0
H1033 H 0.67437 0.85114 0.2794 0.0
H1034 H 0.65339 0.83722 0.49621 0.0
H1035 H 0.66868 0.80991 0.49095 0.0
C1036 C 0.63067 0.8802 0.44652 0.0
C1037 C 0.61875 0.87878 0.38763 0.0
C1038 C 0.64593 0.87074 0.44423 0.0
C1039 C 0.64957 0.86003 0.38235 0.0
C1040 C 0.63839 0.86009 0.32023 0.0
C1041 C 0.623 0.8692 0.32334 0.0
C1042 C 0.68271 0.82702 0.3252 0.0
C1043 C 0.68059 0.81491 0.38307 0.0
C1044 C 0.67364 0.84255 0.32729 0.0
C1045 C 0.66267 0.84628 0.3881 0.0
C1046 C 0.66191 0.83481 0.44913 0.0
C1047 C 0.67061 0.81916 0.44613 0.0
H1048 H 0.50893 0.34713 0.71998 0.0
H1049 H 0.49337 0.38465 0.55481 0.0
H1050 H 0.48007 0.33519 0.72108 0.0
H1051 H 0.46434 0.37252 0.55504 0.0
H1052 H 0.42557 0.31889 0.72757 0.0
H1053 H 0.4484 0.33992 0.74595 0.0
H1054 H 0.45537 0.3432 0.50493 0.0
H1055 H 0.43291 0.32196 0.4864 0.0
C1056 C 0.49916 0.35313 0.68554 0.0
C1057 C 0.50335 0.36675 0.6372 0.0
C1058 C 0.4826 0.34635 0.68636 0.0
C1059 C 0.46996 0.35285 0.63779 0.0
C1060 C 0.47386 0.36722 0.59284 0.0
C1061 C 0.49041 0.37423 0.59311 0.0
C1062 C 0.43185 0.32417 0.67844 0.0
C1063 C 0.42779 0.31824 0.60566 0.0
C1064 C 0.44486 0.33631 0.68903 0.0
C1065 C 0.45381 0.34305 0.62694 0.0
C1066 C 0.44867 0.33831 0.55392 0.0
C1067 C 0.43583 0.32602 0.54339 0.0
H1068 H 0.99107 0.1115 1.00585 0.0
H1069 H 0.98854 0.12813 0.77371 0.0
H1070 H 0.96861 0.13201 0.03882 0.0
H1071 H 0.96586 0.14821 0.80642 0.0
H1072 H 0.92241 0.18149 0.87818 0.0
H1073 H 0.93602 0.15346 0.85869 0.0
H1074 H 0.97145 0.1644 0.03944 0.0
H1075 H 0.95802 0.19231 0.05816 0.0
C1076 C 0.98562 0.11936 0.96169 0.0
C1077 C 0.99209 0.11862 0.8877 0.0
C1078 C 0.97265 0.131 0.98054 0.0
C1079 C 0.96563 0.14187 0.92541 0.0
C1080 C 0.97095 0.13996 0.85015 0.0
C1081 C 0.98406 0.12849 0.8315 0.0
C1082 C 0.93271 0.17761 0.91536 0.0
C1083 C 0.93925 0.18905 0.96944 0.0
C1084 C 0.94057 0.16165 0.90384 0.0
C1085 C 0.95486 0.15679 0.9472 0.0
C1086 C 0.96038 0.16768 1.00554 0.0
C1087 C 0.95275 0.1837 1.0161 0.0
H1088 H 0.19537 0.34027 0.77121 0.0
H1089 H 0.18189 0.30225 0.93829 0.0
H1090 H 0.17567 0.36067 0.83087 0.0
H1091 H 0.16204 0.32216 0.99566 0.0
H1092 H 0.13716 0.36339 0.12508 0.0
H1093 H 0.16079 0.3478 0.068 0.0
H1094 H 0.14477 0.36509 0.84749 0.0
H1095 H 0.12131 0.38132 0.90563 0.0
C1096 C 0.18832 0.33629 0.82083 0.0
C1097 C 0.19016 0.31958 0.84973 0.0
C1098 C 0.17693 0.34793 0.8546 0.0
C1099 C 0.16727 0.34309 0.91815 0.0
C1100 C 0.16945 0.32648 0.94762 0.0
C1101 C 0.18076 0.31494 0.91411 0.0
C1102 C 0.13879 0.36403 0.06445 0.0
C1103 C 0.12727 0.37337 1.01966 0.0
C1104 C 0.1523 0.35503 0.03165 0.0
C1105 C 0.15449 0.35488 0.95298 0.0
C1106 C 0.14349 0.36498 0.9083 0.0
C1107 C 0.13003 0.37422 0.94146 0.0
H1108 H 0.0027 0.86284 0.24966 0.0
H1109 H 0.99159 0.88289 0.02854 0.0
H1110 H 0.97485 0.84861 0.25245 0.0
H1111 H 0.96374 0.86821 0.03013 0.0
H1112 H 0.94585 0.80816 0.03181 0.0
H1113 H 0.96235 0.83474 0.0268 0.0
H1114 H 0.9415 0.84986 0.24242 0.0
H1115 H 0.92456 0.8233 0.24611 0.0
C1116 C 0.99393 0.86479 0.20309 0.0
C1117 C -0.00086 0.87399 0.13918 0.0
C1118 C 0.97797 0.85668 0.20463 0.0
C1119 C 0.96716 0.85725 0.14133 0.0
C1120 C 0.97182 0.86762 0.07972 0.0
C1121 C 0.98767 0.87609 0.07898 0.0
C1122 C 0.94417 0.81758 0.07623 0.0
C1123 C 0.93392 0.81383 0.13903 0.0
C1124 C 0.95358 0.83281 0.07342 0.0
C1125 C 0.95326 0.84434 0.13441 0.0
C1126 C 0.94192 0.84121 0.19459 0.0
C1127 C 0.93217 0.8261 0.19651 0.0
H1128 H 0.49362 0.61163 0.51055 0.0
H1129 H 0.50831 0.62966 0.29008 0.0
H1130 H 0.46685 0.62805 0.502 0.0
H1131 H 0.48147 0.64562 0.2803 0.0
H1132 H 0.43195 0.67345 0.27597 0.0
H1133 H 0.44776 0.64625 0.28458 0.0
H1134 H 0.46778 0.66173 0.50111 0.0
H1135 H 0.45245 0.68896 0.49116 0.0
C1136 C 0.49067 0.61836 0.45871 0.0
C1137 C 0.50286 0.61935 0.40065 0.0
C1138 C 0.47544 0.62783 0.45401 0.0
C1139 C 0.47211 0.63813 0.39057 0.0
C1140 C 0.48357 0.63764 0.32943 0.0
C1141 C 0.49893 0.62852 0.33491 0.0
C1142 C 0.43916 0.67064 0.3267 0.0
C1143 C 0.44097 0.68314 0.38321 0.0
C1144 C 0.44826 0.65517 0.33143 0.0
C1145 C 0.45898 0.65189 0.39352 0.0
C1146 C 0.45945 0.66379 0.45312 0.0
C1147 C 0.45071 0.67938 0.44748 0.0
H1148 H 0.70199 0.17915 0.70378 0.0
H1149 H 0.68991 0.17686 0.46618 0.0
H1150 H 0.67991 0.15768 0.72918 0.0
H1151 H 0.66821 0.15522 0.49152 0.0
H1152 H 0.63202 0.11324 0.54898 0.0
H1153 H 0.66081 0.12572 0.54067 0.0
H1154 H 0.64793 0.16138 0.71851 0.0
H1155 H 0.6193 0.14904 0.72619 0.0
C1156 C 0.69478 0.17399 0.6569 0.0
C1157 C 0.69733 0.18021 0.58329 0.0
C1158 C 0.68223 0.16158 0.67145 0.0
C1159 C 0.67221 0.15489 0.61247 0.0
C1160 C 0.67578 0.16004 0.53818 0.0
C1161 C 0.68816 0.17257 0.52376 0.0
C1162 C 0.6356 0.12332 0.58805 0.0
C1163 C 0.62346 0.13026 0.63797 0.0
C1164 C 0.65201 0.13055 0.58288 0.0
C1165 C 0.65658 0.14463 0.6285 0.0
C1166 C 0.64488 0.15048 0.68299 0.0
C1167 C 0.62845 0.14346 0.68723 0.0
H1168 H 0.03346 0.3473 0.92912 0.0
H1169 H 0.02845 0.34048 0.1697 0.0
H1170 H 0.01025 0.32678 0.90824 0.0
H1171 H 0.00523 0.31974 0.14868 0.0
H1172 H 0.97965 0.26881 0.05955 0.0
H1173 H 0.00233 0.28953 0.08516 0.0
H1174 H 0.97774 0.32613 0.93844 0.0
H1175 H 0.95457 0.30583 0.91519 0.0
C1176 C 0.02749 0.34127 0.97748 0.0
C1177 C 0.03281 0.34537 0.05104 0.0
C1178 C 0.01412 0.32966 0.96554 0.0
C1179 C 0.00596 0.32171 0.02684 0.0
C1180 C 0.01139 0.32564 0.10045 0.0
C1181 C 0.02459 0.33751 0.11248 0.0
C1182 C 0.97883 0.28136 0.03367 0.0
C1183 C 0.96517 0.28556 0.98513 0.0
C1184 C 0.99191 0.29319 0.04821 0.0
C1185 C 0.99179 0.30939 1.01363 0.0
C1186 C 0.97822 0.31364 0.96517 0.0
C1187 C 0.965 0.30193 0.95153 0.0
H1188 H 0.53425 0.17441 0.51667 0.0
H1189 H 0.51864 0.15075 0.72592 0.0
H1190 H 0.51299 0.19711 0.53578 0.0
H1191 H 0.49761 0.17351 0.74543 0.0
H1192 H 0.4482 0.20415 0.69881 0.0
H1193 H 0.47033 0.18249 0.68327 0.0
H1194 H 0.50685 0.22189 0.62436 0.0
H1195 H 0.48477 0.2438 0.64191 0.0
C1196 C 0.52628 0.17407 0.56668 0.0
C1197 C 0.5281 0.1608 0.61975 0.0
C1198 C 0.51424 0.18714 0.57796 0.0
C1199 C 0.50364 0.18708 0.64209 0.0
C1200 C 0.50551 0.17383 0.6952 0.0
C1201 C 0.51765 0.16088 0.68432 0.0
C1202 C 0.46101 0.20832 0.68405 0.0
C1203 C 0.46468 0.22581 0.67236 0.0
C1204 C 0.47368 0.19585 0.67477 0.0
C1205 C 0.49033 0.20049 0.65278 0.0
C1206 C 0.49407 0.21792 0.64067 0.0
C1207 C 0.4814 0.23046 0.65066 0.0
H1208 H 0.66632 0.71063 0.48138 0.0
H1209 H 0.64634 0.71756 0.25624 0.0
H1210 H 0.64542 0.68801 0.50392 0.0
H1211 H 0.62598 0.69435 0.27755 0.0
H1212 H 0.5798 0.66496 0.3681 0.0
H1213 H 0.60041 0.68801 0.34787 0.0
H1214 H 0.63882 0.65896 0.46818 0.0
H1215 H 0.61811 0.636 0.48906 0.0
C1216 C 0.65746 0.70737 0.43667 0.0
C1217 C 0.65799 0.71601 0.36706 0.0
C1218 C 0.6456 0.69421 0.44929 0.0
C1219 C 0.63399 0.68932 0.39259 0.0
C1220 C 0.63458 0.69791 0.32286 0.0
C1221 C 0.64641 0.71109 0.31028 0.0
C1222 C 0.59267 0.66347 0.38993 0.0
C1223 C 0.59731 0.64863 0.43011 0.0
C1224 C 0.60451 0.67667 0.37818 0.0
C1225 C 0.62132 0.67534 0.4061 0.0
C1226 C 0.62592 0.66054 0.44679 0.0
C1227 C 0.61405 0.64736 0.45878 0.0
H1228 H 0.09433 0.83187 1.02016 0.0
H1229 H 0.10208 0.85241 0.244 0.0
H1230 H 0.11669 0.81067 0.0427 0.0
H1231 H 0.12387 0.83071 0.26777 0.0
H1232 H 0.17506 0.80178 0.2517 0.0
H1233 H 0.15267 0.82313 0.23106 0.0
H1234 H 0.12215 0.7851 0.11506 0.0
H1235 H 0.14459 0.76386 0.13511 0.0
C1236 C 0.10078 0.83186 0.07421 0.0
C1237 C 0.09637 0.84386 0.13022 0.0
C1238 C 0.11347 0.81957 0.08749 0.0
C1239 C 0.12207 0.81894 0.15716 0.0
C1240 C 0.11764 0.83092 0.21321 0.0
C1241 C 0.10497 0.84323 0.1999 0.0
C1242 C 0.1635 0.79796 0.22245 0.0
C1243 C 0.16164 0.78114 0.19481 0.0
C1244 C 0.15065 0.81019 0.21062 0.0
C1245 C 0.13562 0.80587 0.17111 0.0
C1246 C 0.13369 0.78898 0.14442 0.0
C1247 C 0.14654 0.77678 0.15603 0.0
H1248 H 0.94926 0.70994 0.04974 0.0
H1249 H 0.96922 0.71975 0.27292 0.0
H1250 H 0.97128 0.68823 0.02984 0.0
H1251 H 0.99117 0.69792 0.2531 0.0
H1252 H 0.01636 0.64529 0.21832 0.0
H1253 H 0.99408 0.66673 0.23812 0.0
H1254 H 0.00248 0.68623 1.01319 0.0
H1255 H 0.0249 0.66486 0.99344 0.0
C1256 C 0.95842 0.70757 0.09439 0.0
C1257 C 0.95749 0.71666 0.16287 0.0
C1258 C 0.97104 0.6951 0.08295 0.0
C1259 C 0.98301 0.69137 0.13978 0.0
C1260 C 0.982 0.70033 0.20852 0.0
C1261 C 0.9694 0.71284 0.21991 0.0
C1262 C 0.0136 0.65426 0.17329 0.0
C1263 C 0.02251 0.65339 0.10437 0.0
C1264 C 0.0008 0.66653 0.18466 0.0
C1265 C 0.99653 0.67821 0.12733 0.0
C1266 C 0.00531 0.67727 0.05817 0.0
C1267 C 0.01816 0.66502 0.04684 0.0
H1268 H 0.13458 0.22423 0.7387 0.0
H1269 H 0.15184 0.22354 0.96994 0.0
H1270 H 0.11229 0.2032 0.76985 0.0
H1271 H 0.1297 0.20244 1.00082 0.0
H1272 H 0.10478 0.1477 0.98158 0.0
H1273 H 0.12505 0.17079 0.95829 0.0
H1274 H 0.085 0.20107 0.85662 0.0
H1275 H 0.06431 0.17833 0.88317 0.0
C1276 C 0.13354 0.21963 0.79616 0.0
C1277 C 0.1449 0.22551 0.85194 0.0
C1278 C 0.12075 0.20771 0.81405 0.0
C1279 C 0.11931 0.20122 0.88771 0.0
C1280 C 0.13058 0.20721 0.94357 0.0
C1281 C 0.14316 0.21934 0.926 0.0
C1282 C 0.10007 0.1594 0.95606 0.0
C1283 C 0.08277 0.16106 0.93462 0.0
C1284 C 0.11178 0.1726 0.94226 0.0
C1285 C 0.10659 0.18767 0.90553 0.0
C1286 C 0.08935 0.18948 0.8844 0.0
C1287 C 0.07754 0.1764 0.89939 0.0
H1288 H 0.64462 0.25661 0.61174 0.0
H1289 H 0.681 0.29638 0.6694 0.0
H1290 H 0.62225 0.27829 0.59828 0.0
H1291 H 0.65851 0.31786 0.65802 0.0
H1292 H 0.60932 0.34838 0.70813 0.0
H1293 H 0.63118 0.32621 0.72302 0.0
H1294 H 0.61551 0.30327 0.51229 0.0
H1295 H 0.59349 0.32539 0.49773 0.0
C1296 C 0.6479 0.26994 0.62136 0.0
C1297 C 0.66468 0.27467 0.64186 0.0
C1298 C 0.63505 0.28235 0.61377 0.0
C1299 C 0.63862 0.29977 0.62721 0.0
C1300 C 0.65531 0.30451 0.64833 0.0
C1301 C 0.66819 0.29214 0.65519 0.0
C1302 C 0.61046 0.33853 0.66527 0.0
C1303 C 0.59967 0.33861 0.60179 0.0
C1304 C 0.62306 0.32593 0.6735 0.0
C1305 C 0.62506 0.31301 0.61882 0.0
C1306 C 0.61418 0.31299 0.55564 0.0
C1307 C 0.60169 0.32572 0.54698 0.0
H1308 H 0.51643 0.85814 0.29768 0.0
H1309 H 0.52707 0.83895 0.52135 0.0
H1310 H 0.49646 0.83463 0.277 0.0
H1311 H 0.50643 0.81587 0.50197 0.0
H1312 H 0.4827 0.76627 0.4114 0.0
H1313 H 0.50294 0.78969 0.43137 0.0
H1314 H 0.46879 0.82439 0.31519 0.0
H1315 H 0.44867 0.80092 0.29458 0.0
C1316 C 0.51452 0.84891 0.34253 0.0
C1317 C 0.52347 0.85042 0.41109 0.0
C1318 C 0.50288 0.83553 0.33098 0.0
C1319 C 0.49981 0.82332 0.38776 0.0
C1320 C 0.50863 0.82491 0.45661 0.0
C1321 C 0.52031 0.83828 0.46811 0.0
C1322 C 0.47949 0.77892 0.3904 0.0
C1323 C 0.46408 0.78172 0.35128 0.0
C1324 C 0.49108 0.79237 0.40203 0.0
C1325 C 0.4875 0.80897 0.37507 0.0
C1326 C 0.4721 0.81173 0.33572 0.0
C1327 C 0.46055 0.79827 0.32385 0.0
loop_
_geom_bond_atom_site_label_1
_geom_bond_atom_site_label_2
_geom_bond_distance
_geom_bond_site_symmetry_2
_ccdc_geom_bond_type
C0 C1 1.351 . S
C0 N3 1.368 . S
C0 H5 0.931 . S
C1 C0 1.351 . S
C1 N2 1.373 . S
C1 H29 0.930 . S
N2 C1 1.373 . S
N2 C4 1.340 . S
N3 C0 1.368 . S
N3 C4 1.321 . S
N3 Co6 2.135 . S
C4 N2 1.340 . S
C4 N3 1.321 . S
C4 H28 0.930 . S
H5 C0 0.931 . S
Co6 N3 2.135 . S
Co6 N9 2.121 1_554 S
Co6 O14 2.055 . S
Co6 O17 2.039 . S
Co6 N20 2.140 . S
C7 O8 1.227 . S
C7 O17 1.265 . S
O8 C7 1.227 . S
N9 Co6 2.121 1_556 S
N9 C11 1.375 . S
N9 C12 1.313 . S
C10 C11 1.338 . S
C10 N13 1.377 . S
C10 H30 0.930 . S
C11 N9 1.375 . S
C11 C10 1.338 . S
C11 H15 0.931 . S
C12 N9 1.313 . S
C12 N13 1.344 . S
C12 H16 0.930 . S
N13 C10 1.377 . S
N13 C12 1.344 . S
O14 Co6 2.055 . S
O14 C18 1.253 . S
H15 C11 0.931 . S
H16 C12 0.930 . S
O17 Co6 2.039 . S
O17 C7 1.265 . S
C18 O14 1.253 . S
C18 O19 1.227 . S
O19 C18 1.227 . S
N20 Co6 2.140 . S
N20 C23 1.346 . S
N20 C24 1.345 . S
C21 C22 1.387 . S
C21 C25 1.391 . S
C22 C21 1.387 . S
C22 C23 1.369 . S
C22 H31 0.929 . S
C23 N20 1.346 . S
C23 C22 1.369 . S
C23 H26 0.928 . S
C24 N20 1.345 . S
C24 C25 1.371 . S
C24 H27 0.931 . S
C25 C21 1.391 . S
C25 C24 1.371 . S
C25 H32 0.930 . S
H26 C23 0.928 . S
H27 C24 0.931 . S
H28 C4 0.930 . S
H29 C1 0.930 . S
H30 C10 0.930 . S
H31 C22 0.929 . S
H32 C25 0.930 . S
C33 C34 1.351 . S
C33 N36 1.368 . S
C33 H38 0.931 . S
C34 C33 1.351 . S
C34 N35 1.373 . S
C34 H62 0.930 . S
N35 C34 1.373 . S
N35 C37 1.340 . S
N36 C33 1.368 . S
N36 C37 1.321 . S
N36 Co39 2.135 . S
C37 N35 1.340 . S
C37 N36 1.321 . S
C37 H61 0.930 . S
H38 C33 0.931 . S
Co39 N36 2.135 . S
Co39 N42 2.121 . S
Co39 O47 2.055 . S
Co39 O50 2.039 . S
Co39 N53 2.140 . S
C40 O41 1.227 . S
C40 O50 1.265 . S
O41 C40 1.227 . S
N42 Co39 2.121 . S
N42 C44 1.375 . S
N42 C45 1.313 . S
C43 C44 1.338 . S
C43 N46 1.377 . S
C43 H63 0.930 . S
C44 N42 1.375 . S
C44 C43 1.338 . S
C44 H48 0.931 . S
C45 N42 1.313 . S
C45 N46 1.344 . S
C45 H49 0.930 . S
N46 C43 1.377 . S
N46 C45 1.344 . S
O47 Co39 2.055 . S
O47 C51 1.253 . S
H48 C44 0.931 . S
H49 C45 0.930 . S
O50 Co39 2.039 . S
O50 C40 1.265 . S
C51 O47 1.253 . S
C51 O52 1.227 . S
O52 C51 1.227 . S
N53 Co39 2.140 . S
N53 C56 1.346 . S
N53 C57 1.345 . S
C54 C55 1.387 . S
C54 C58 1.391 . S
C55 C54 1.387 . S
C55 C56 1.369 . S
C55 H64 0.929 . S
C56 N53 1.346 . S
C56 C55 1.369 . S
C56 H59 0.928 . S
C57 N53 1.345 . S
C57 C58 1.371 . S
C57 H60 0.931 . S
C58 C54 1.391 . S
C58 C57 1.371 . S
C58 H65 0.930 . S
H59 C56 0.928 . S
H60 C57 0.931 . S
H61 C37 0.930 . S
H62 C34 0.930 . S
H63 C43 0.930 . S
H64 C55 0.929 . S
H65 C58 0.930 . S
C66 C67 1.351 . S
C66 N69 1.368 . S
C66 H71 0.931 . S
C67 C66 1.351 . S
C67 N68 1.373 . S
C67 H95 0.930 . S
N68 C67 1.373 . S
N68 C70 1.340 . S
N69 C66 1.368 . S
N69 C70 1.321 . S
N69 Co72 2.135 . S
C70 N68 1.340 . S
C70 N69 1.321 . S
C70 H94 0.930 . S
H71 C66 0.931 . S
Co72 N69 2.135 . S
Co72 N75 2.121 . S
Co72 O80 2.055 . S
Co72 O83 2.039 . S
Co72 N86 2.140 . S
C73 O74 1.227 . S
C73 O83 1.265 . S
O74 C73 1.227 . S
N75 Co72 2.121 . S
N75 C77 1.375 . S
N75 C78 1.313 . S
C76 C77 1.338 . S
C76 N79 1.377 . S
C76 H96 0.930 . S
C77 N75 1.375 . S
C77 C76 1.338 . S
C77 H81 0.931 . S
C78 N75 1.313 . S
C78 N79 1.344 . S
C78 H82 0.930 . S
N79 C76 1.377 . S
N79 C78 1.344 . S
O80 Co72 2.055 . S
O80 C84 1.253 . S
H81 C77 0.931 . S
H82 C78 0.930 . S
O83 Co72 2.039 . S
O83 C73 1.265 . S
C84 O80 1.253 . S
C84 O85 1.227 . S
O85 C84 1.227 . S
N86 Co72 2.140 . S
N86 C89 1.346 . S
N86 C90 1.345 . S
C87 C88 1.387 . S
C87 C91 1.391 . S
C88 C87 1.387 . S
C88 C89 1.369 . S
C88 H97 0.929 . S
C89 N86 1.346 . S
C89 C88 1.369 . S
C89 H92 0.928 . S
C90 N86 1.345 . S
C90 C91 1.371 . S
C90 H93 0.931 . S
C91 C87 1.391 . S
C91 C90 1.371 . S
C91 H98 0.930 . S
H92 C89 0.928 . S
H93 C90 0.931 . S
H94 C70 0.930 . S
H95 C67 0.930 . S
H96 C76 0.930 . S
H97 C88 0.929 . S
H98 C91 0.930 . S
C99 C100 1.351 1_556 S
C99 N102 1.368 . S
C99 H104 0.931 . S
C100 C99 1.351 1_554 S
C100 N101 1.373 . S
C100 H128 0.930 . S
N101 C100 1.373 . S
N101 C103 1.340 . S
N102 C99 1.368 . S
N102 C103 1.321 1_556 S
N102 Co105 2.135 . S
C103 N101 1.340 . S
C103 N102 1.321 1_554 S
C103 H127 0.930 . S
H104 C99 0.931 . S
Co105 N102 2.135 . S
Co105 N108 2.121 . S
Co105 O113 2.055 . S
Co105 O116 2.039 . S
Co105 N119 2.140 . S
C106 O107 1.227 . S
C106 O116 1.265 . S
O107 C106 1.227 . S
N108 Co105 2.121 . S
N108 C110 1.375 . S
N108 C111 1.313 . S
C109 C110 1.338 . S
C109 N112 1.377 . S
C109 H129 0.930 . S
C110 N108 1.375 . S
C110 C109 1.338 . S
C110 H114 0.931 . S
C111 N108 1.313 . S
C111 N112 1.344 . S
C111 H115 0.930 . S
N112 C109 1.377 . S
N112 C111 1.344 . S
O113 Co105 2.055 . S
O113 C117 1.253 . S
H114 C110 0.931 . S
H115 C111 0.930 . S
O116 Co105 2.039 . S
O116 C106 1.265 . S
C117 O113 1.253 . S
C117 O118 1.227 . S
O118 C117 1.227 . S
N119 Co105 2.140 . S
N119 C122 1.346 . S
N119 C123 1.345 . S
C120 C121 1.387 . S
C120 C124 1.391 . S
C121 C120 1.387 . S
C121 C122 1.369 . S
C121 H130 0.929 . S
C122 N119 1.346 . S
C122 C121 1.369 . S
C122 H125 0.928 . S
C123 N119 1.345 . S
C123 C124 1.371 . S
C123 H126 0.931 . S
C124 C120 1.391 . S
C124 C123 1.371 . S
C124 H131 0.930 . S
H125 C122 0.928 . S
H126 C123 0.931 . S
H127 C103 0.930 . S
H128 C100 0.930 . S
H129 C109 0.930 . S
H130 C121 0.929 . S
H131 C124 0.930 . S
C132 C133 1.351 . S
C132 N135 1.368 . S
C132 H137 0.931 . S
C133 C132 1.351 . S
C133 N134 1.373 . S
C133 H161 0.930 . S
N134 C133 1.373 . S
N134 C136 1.340 . S
N135 C132 1.368 . S
N135 C136 1.321 . S
N135 Co138 2.135 . S
C136 N134 1.340 . S
C136 N135 1.321 . S
C136 H160 0.930 . S
H137 C132 0.931 . S
Co138 N135 2.135 . S
Co138 N141 2.121 1_556 S
Co138 O146 2.055 . S
Co138 O149 2.039 . S
Co138 N152 2.140 . S
C139 O140 1.227 . S
C139 O149 1.265 . S
O140 C139 1.227 . S
N141 Co138 2.121 1_554 S
N141 C143 1.375 . S
N141 C144 1.313 . S
C142 C143 1.338 . S
C142 N145 1.377 . S
C142 H162 0.930 . S
C143 N141 1.375 . S
C143 C142 1.338 . S
C143 H147 0.931 . S
C144 N141 1.313 . S
C144 N145 1.344 . S
C144 H148 0.930 . S
N145 C142 1.377 . S
N145 C144 1.344 . S
O146 Co138 2.055 . S
O146 C150 1.253 . S
H147 C143 0.931 . S
H148 C144 0.930 . S
O149 Co138 2.039 . S
O149 C139 1.265 . S
C150 O146 1.253 . S
C150 O151 1.227 . S
O151 C150 1.227 . S
N152 Co138 2.140 . S
N152 C155 1.346 . S
N152 C156 1.345 . S
C153 C154 1.387 . S
C153 C157 1.391 . S
C154 C153 1.387 . S
C154 C155 1.369 . S
C154 H163 0.929 . S
C155 N152 1.346 . S
C155 C154 1.369 . S
C155 H158 0.928 . S
C156 N152 1.345 . S
C156 C157 1.371 . S
C156 H159 0.931 . S
C157 C153 1.391 . S
C157 C156 1.371 . S
C157 H164 0.930 . S
H158 C155 0.928 . S
H159 C156 0.931 . S
H160 C136 0.930 . S
H161 C133 0.930 . S
H162 C142 0.930 . S
H163 C154 0.929 . S
H164 C157 0.930 . S
C165 C166 1.351 1_554 S
C165 N168 1.368 . S
C165 H170 0.931 . S
C166 C165 1.351 1_556 S
C166 N167 1.373 . S
C166 H194 0.930 . S
N167 C166 1.373 . S
N167 C169 1.340 . S
N168 C165 1.368 . S
N168 C169 1.321 1_554 S
N168 Co171 2.135 . S
C169 N167 1.340 . S
C169 N168 1.321 1_556 S
C169 H193 0.930 . S
H170 C165 0.931 . S
Co171 N168 2.135 . S
Co171 N174 2.121 . S
Co171 O179 2.055 . S
Co171 O182 2.039 . S
Co171 N185 2.140 . S
C172 O173 1.227 . S
C172 O182 1.265 . S
O173 C172 1.227 . S
N174 Co171 2.121 . S
N174 C176 1.375 . S
N174 C177 1.313 . S
C175 C176 1.338 . S
C175 N178 1.377 . S
C175 H195 0.930 . S
C176 N174 1.375 . S
C176 C175 1.338 . S
C176 H180 0.931 . S
C177 N174 1.313 . S
C177 N178 1.344 . S
C177 H181 0.930 . S
N178 C175 1.377 . S
N178 C177 1.344 . S
O179 Co171 2.055 . S
O179 C183 1.253 . S
H180 C176 0.931 . S
H181 C177 0.930 . S
O182 Co171 2.039 . S
O182 C172 1.265 . S
C183 O179 1.253 . S
C183 O184 1.227 . S
O184 C183 1.227 . S
N185 Co171 2.140 . S
N185 C188 1.346 . S
N185 C189 1.345 . S
C186 C187 1.387 . S
C186 C190 1.391 . S
C187 C186 1.387 . S
C187 C188 1.369 . S
C187 H196 0.929 . S
C188 N185 1.346 . S
C188 C187 1.369 . S
C188 H191 0.928 . S
C189 N185 1.345 . S
C189 C190 1.371 . S
C189 H192 0.931 . S
C190 C186 1.391 . S
C190 C189 1.371 . S
C190 H197 0.930 . S
H191 C188 0.928 . S
H192 C189 0.931 . S
H193 C169 0.930 . S
H194 C166 0.930 . S
H195 C175 0.930 . S
H196 C187 0.929 . S
H197 C190 0.930 . S
C198 C199 1.351 . S
C198 N201 1.368 . S
C198 H203 0.931 . S
C199 C198 1.351 . S
C199 N200 1.373 . S
C199 H227 0.930 . S
N200 C199 1.373 . S
N200 C202 1.340 . S
N201 C198 1.368 . S
N201 C202 1.321 . S
N201 Co204 2.135 . S
C202 N200 1.340 . S
C202 N201 1.321 . S
C202 H226 0.930 . S
H203 C198 0.931 . S
Co204 N201 2.135 . S
Co204 N207 2.121 . S
Co204 O212 2.055 . S
Co204 O215 2.039 . S
Co204 N218 2.140 . S
C205 O206 1.227 . S
C205 O215 1.265 . S
O206 C205 1.227 . S
N207 Co204 2.121 . S
N207 C209 1.375 . S
N207 C210 1.313 . S
C208 C209 1.338 . S
C208 N211 1.377 . S
C208 H228 0.930 . S
C209 N207 1.375 . S
C209 C208 1.338 . S
C209 H213 0.931 . S
C210 N207 1.313 . S
C210 N211 1.344 . S
C210 H214 0.930 . S
N211 C208 1.377 . S
N211 C210 1.344 . S
O212 Co204 2.055 . S
O212 C216 1.253 . S
H213 C209 0.931 . S
H214 C210 0.930 . S
O215 Co204 2.039 . S
O215 C205 1.265 . S
C216 O212 1.253 . S
C216 O217 1.227 . S
O217 C216 1.227 . S
N218 Co204 2.140 . S
N218 C221 1.346 . S
N218 C222 1.345 . S
C219 C220 1.387 . S
C219 C223 1.391 . S
C220 C219 1.387 . S
C220 C221 1.369 . S
C220 H229 0.929 . S
C221 N218 1.346 . S
C221 C220 1.369 . S
C221 H224 0.928 . S
C222 N218 1.345 . S
C222 C223 1.371 . S
C222 H225 0.931 . S
C223 C219 1.391 . S
C223 C222 1.371 . S
C223 H230 0.930 . S
H224 C221 0.928 . S
H225 C222 0.931 . S
H226 C202 0.930 . S
H227 C199 0.930 . S
H228 C208 0.930 . S
H229 C220 0.929 . S
H230 C223 0.930 . S
C231 C232 1.351 . S
C231 N234 1.368 . S
C231 H236 0.931 . S
C232 C231 1.351 . S
C232 N233 1.373 . S
C232 H260 0.930 . S
N233 C232 1.373 . S
N233 C235 1.340 . S
N234 C231 1.368 . S
N234 C235 1.321 . S
N234 Co237 2.135 . S
C235 N233 1.340 . S
C235 N234 1.321 . S
C235 H259 0.930 . S
H236 C231 0.931 . S
Co237 N234 2.135 . S
Co237 N240 2.121 . S
Co237 O245 2.055 . S
Co237 O248 2.039 . S
Co237 N251 2.140 . S
C238 O239 1.227 . S
C238 O248 1.265 . S
O239 C238 1.227 . S
N240 Co237 2.121 . S
N240 C242 1.375 . S
N240 C243 1.313 . S
C241 C242 1.338 . S
C241 N244 1.377 . S
C241 H261 0.930 . S
C242 N240 1.375 . S
C242 C241 1.338 . S
C242 H246 0.931 . S
C243 N240 1.313 . S
C243 N244 1.344 . S
C243 H247 0.930 . S
N244 C241 1.377 . S
N244 C243 1.344 . S
O245 Co237 2.055 . S
O245 C249 1.253 . S
H246 C242 0.931 . S
H247 C243 0.930 . S
O248 Co237 2.039 . S
O248 C238 1.265 . S
C249 O245 1.253 . S
C249 O250 1.227 . S
O250 C249 1.227 . S
N251 Co237 2.140 . S
N251 C254 1.346 . S
N251 C255 1.345 . S
C252 C253 1.387 . S
C252 C256 1.391 . S
C253 C252 1.387 . S
C253 C254 1.369 . S
C253 H262 0.929 . S
C254 N251 1.346 . S
C254 C253 1.369 . S
C254 H257 0.928 . S
C255 N251 1.345 . S
C255 C256 1.371 . S
C255 H258 0.931 . S
C256 C252 1.391 . S
C256 C255 1.371 . S
C256 H263 0.930 . S
H257 C254 0.928 . S
H258 C255 0.931 . S
H259 C235 0.930 . S
H260 C232 0.930 . S
H261 C241 0.930 . S
H262 C253 0.929 . S
H263 C256 0.930 . S
C264 C265 1.351 . S
C264 N267 1.368 . S
C264 H269 0.931 . S
C265 C264 1.351 . S
C265 N266 1.373 . S
C265 H293 0.930 . S
N266 C265 1.373 . S
N266 C268 1.340 . S
N267 C264 1.368 . S
N267 C268 1.321 . S
N267 Co270 2.135 . S
C268 N266 1.340 . S
C268 N267 1.321 . S
C268 H292 0.930 . S
H269 C264 0.931 . S
Co270 N267 2.135 . S
Co270 N273 2.121 . S
Co270 O278 2.055 . S
Co270 O281 2.039 . S
Co270 N284 2.140 . S
C271 O272 1.227 . S
C271 O281 1.265 . S
O272 C271 1.227 . S
N273 Co270 2.121 . S
N273 C275 1.375 . S
N273 C276 1.313 . S
C274 C275 1.338 . S
C274 N277 1.377 . S
C274 H294 0.930 . S
C275 N273 1.375 . S
C275 C274 1.338 . S
C275 H279 0.931 . S
C276 N273 1.313 . S
C276 N277 1.344 . S
C276 H280 0.930 . S
N277 C274 1.377 . S
N277 C276 1.344 . S
O278 Co270 2.055 . S
O278 C282 1.253 . S
H279 C275 0.931 . S
H280 C276 0.930 . S
O281 Co270 2.039 . S
O281 C271 1.265 . S
C282 O278 1.253 . S
C282 O283 1.227 . S
O283 C282 1.227 . S
N284 Co270 2.140 . S
N284 C287 1.346 . S
N284 C288 1.345 . S
C285 C286 1.387 . S
C285 C289 1.391 . S
C286 C285 1.387 . S
C286 C287 1.369 . S
C286 H295 0.929 . S
C287 N284 1.346 . S
C287 C286 1.369 . S
C287 H290 0.928 . S
C288 N284 1.345 . S
C288 C289 1.371 . S
C288 H291 0.931 . S
C289 C285 1.391 . S
C289 C288 1.371 . S
C289 H296 0.930 . S
H290 C287 0.928 . S
H291 C288 0.931 . S
H292 C268 0.930 . S
H293 C265 0.930 . S
H294 C274 0.930 . S
H295 C286 0.929 . S
H296 C289 0.930 . S
C297 C298 1.351 1_554 S
C297 N300 1.368 . S
C297 H302 0.931 . S
C298 C297 1.351 1_556 S
C298 N299 1.373 . S
C298 H326 0.930 . S
N299 C298 1.373 . S
N299 C301 1.340 . S
N300 C297 1.368 . S
N300 C301 1.321 1_554 S
N300 Co303 2.135 . S
C301 N299 1.340 . S
C301 N300 1.321 1_556 S
C301 H325 0.930 . S
H302 C297 0.931 . S
Co303 N300 2.135 . S
Co303 N306 2.121 . S
Co303 O311 2.055 . S
Co303 O314 2.039 . S
Co303 N317 2.140 . S
C304 O305 1.227 . S
C304 O314 1.265 . S
O305 C304 1.227 . S
N306 Co303 2.121 . S
N306 C308 1.375 . S
N306 C309 1.313 . S
C307 C308 1.338 . S
C307 N310 1.377 . S
C307 H327 0.930 . S
C308 N306 1.375 . S
C308 C307 1.338 . S
C308 H312 0.931 . S
C309 N306 1.313 . S
C309 N310 1.344 . S
C309 H313 0.930 . S
N310 C307 1.377 . S
N310 C309 1.344 . S
O311 Co303 2.055 . S
O311 C315 1.253 . S
H312 C308 0.931 . S
H313 C309 0.930 . S
O314 Co303 2.039 . S
O314 C304 1.265 . S
C315 O311 1.253 . S
C315 O316 1.227 . S
O316 C315 1.227 . S
N317 Co303 2.140 . S
N317 C320 1.346 . S
N317 C321 1.345 . S
C318 C319 1.387 . S
C318 C322 1.391 . S
C319 C318 1.387 . S
C319 C320 1.369 . S
C319 H328 0.929 . S
C320 N317 1.346 . S
C320 C319 1.369 . S
C320 H323 0.928 . S
C321 N317 1.345 . S
C321 C322 1.371 . S
C321 H324 0.931 . S
C322 C318 1.391 . S
C322 C321 1.371 . S
C322 H329 0.930 . S
H323 C320 0.928 . S
H324 C321 0.931 . S
H325 C301 0.930 . S
H326 C298 0.930 . S
H327 C307 0.930 . S
H328 C319 0.929 . S
H329 C322 0.930 . S
C330 C331 1.351 1_556 S
C330 N333 1.368 . S
C330 H335 0.931 . S
C331 C330 1.351 1_554 S
C331 N332 1.373 . S
C331 H359 0.930 . S
N332 C331 1.373 . S
N332 C334 1.340 . S
N333 C330 1.368 . S
N333 C334 1.321 1_556 S
N333 Co336 2.135 . S
C334 N332 1.340 . S
C334 N333 1.321 1_554 S
C334 H358 0.930 . S
H335 C330 0.931 . S
Co336 N333 2.135 . S
Co336 N339 2.121 . S
Co336 O344 2.055 . S
Co336 O347 2.039 . S
Co336 N350 2.140 . S
C337 O338 1.227 . S
C337 O347 1.265 . S
O338 C337 1.227 . S
N339 Co336 2.121 . S
N339 C341 1.375 . S
N339 C342 1.313 . S
C340 C341 1.338 . S
C340 N343 1.377 . S
C340 H360 0.930 . S
C341 N339 1.375 . S
C341 C340 1.338 . S
C341 H345 0.931 . S
C342 N339 1.313 . S
C342 N343 1.344 . S
C342 H346 0.930 . S
N343 C340 1.377 . S
N343 C342 1.344 . S
O344 Co336 2.055 . S
O344 C348 1.253 . S
H345 C341 0.931 . S
H346 C342 0.930 . S
O347 Co336 2.039 . S
O347 C337 1.265 . S
C348 O344 1.253 . S
C348 O349 1.227 . S
O349 C348 1.227 . S
N350 Co336 2.140 . S
N350 C353 1.346 . S
N350 C354 1.345 . S
C351 C352 1.387 . S
C351 C355 1.391 . S
C352 C351 1.387 . S
C352 C353 1.369 . S
C352 H361 0.929 . S
C353 N350 1.346 . S
C353 C352 1.369 . S
C353 H356 0.928 . S
C354 N350 1.345 . S
C354 C355 1.371 . S
C354 H357 0.931 . S
C355 C351 1.391 . S
C355 C354 1.371 . S
C355 H362 0.930 . S
H356 C353 0.928 . S
H357 C354 0.931 . S
H358 C334 0.930 . S
H359 C331 0.930 . S
H360 C340 0.930 . S
H361 C352 0.929 . S
H362 C355 0.930 . S
C363 C364 1.351 . S
C363 N366 1.368 . S
C363 H368 0.931 . S
C364 C363 1.351 . S
C364 N365 1.373 . S
C364 H392 0.930 . S
N365 C364 1.373 . S
N365 C367 1.340 . S
N366 C363 1.368 . S
N366 C367 1.321 . S
N366 Co369 2.135 . S
C367 N365 1.340 . S
C367 N366 1.321 . S
C367 H391 0.930 . S
H368 C363 0.931 . S
Co369 N366 2.135 . S
Co369 N372 2.121 . S
Co369 O377 2.055 . S
Co369 O380 2.039 . S
Co369 N383 2.140 . S
C370 O371 1.227 . S
C370 O380 1.265 . S
O371 C370 1.227 . S
N372 Co369 2.121 . S
N372 C374 1.375 . S
N372 C375 1.313 . S
C373 C374 1.338 . S
C373 N376 1.377 . S
C373 H393 0.930 . S
C374 N372 1.375 . S
C374 C373 1.338 . S
C374 H378 0.931 . S
C375 N372 1.313 . S
C375 N376 1.344 . S
C375 H379 0.930 . S
N376 C373 1.377 . S
N376 C375 1.344 . S
O377 Co369 2.055 . S
O377 C381 1.253 . S
H378 C374 0.931 . S
H379 C375 0.930 . S
O380 Co369 2.039 . S
O380 C370 1.265 . S
C381 O377 1.253 . S
C381 O382 1.227 . S
O382 C381 1.227 . S
N383 Co369 2.140 . S
N383 C386 1.346 . S
N383 C387 1.345 . S
C384 C385 1.387 . S
C384 C388 1.391 . S
C385 C384 1.387 . S
C385 C386 1.369 . S
C385 H394 0.929 . S
C386 N383 1.346 . S
C386 C385 1.369 . S
C386 H389 0.928 . S
C387 N383 1.345 . S
C387 C388 1.371 . S
C387 H390 0.931 . S
C388 C384 1.391 . S
C388 C387 1.371 . S
C388 H395 0.930 . S
H389 C386 0.928 . S
H390 C387 0.931 . S
H391 C367 0.930 . S
H392 C364 0.930 . S
H393 C373 0.930 . S
H394 C385 0.929 . S
H395 C388 0.930 . S
C396 C397 1.351 . S
C396 N399 1.368 . S
C396 H401 0.931 . S
C397 C396 1.351 . S
C397 N398 1.373 . S
C397 H425 0.930 . S
N398 C397 1.373 . S
N398 C400 1.340 . S
N399 C396 1.368 . S
N399 C400 1.321 . S
N399 Co402 2.135 . S
C400 N398 1.340 . S
C400 N399 1.321 . S
C400 H424 0.930 . S
H401 C396 0.931 . S
Co402 N399 2.135 . S
Co402 N405 2.121 . S
Co402 O410 2.055 . S
Co402 O413 2.039 . S
Co402 N416 2.140 . S
C403 O404 1.227 . S
C403 O413 1.265 . S
O404 C403 1.227 . S
N405 Co402 2.121 . S
N405 C407 1.375 . S
N405 C408 1.313 . S
C406 C407 1.338 . S
C406 N409 1.377 . S
C406 H426 0.930 . S
C407 N405 1.375 . S
C407 C406 1.338 . S
C407 H411 0.931 . S
C408 N405 1.313 . S
C408 N409 1.344 . S
C408 H412 0.930 . S
N409 C406 1.377 . S
N409 C408 1.344 . S
O410 Co402 2.055 . S
O410 C414 1.253 . S
H411 C407 0.931 . S
H412 C408 0.930 . S
O413 Co402 2.039 . S
O413 C403 1.265 . S
C414 O410 1.253 . S
C414 O415 1.227 . S
O415 C414 1.227 . S
N416 Co402 2.140 . S
N416 C419 1.346 . S
N416 C420 1.345 . S
C417 C418 1.387 . S
C417 C421 1.391 . S
C418 C417 1.387 . S
C418 C419 1.369 . S
C418 H427 0.929 . S
C419 N416 1.346 . S
C419 C418 1.369 . S
C419 H422 0.928 . S
C420 N416 1.345 . S
C420 C421 1.371 . S
C420 H423 0.931 . S
C421 C417 1.391 . S
C421 C420 1.371 . S
C421 H428 0.930 . S
H422 C419 0.928 . S
H423 C420 0.931 . S
H424 C400 0.930 . S
H425 C397 0.930 . S
H426 C406 0.930 . S
H427 C418 0.929 . S
H428 C421 0.930 . S
C429 C430 1.351 . S
C429 N432 1.368 . S
C429 H434 0.931 . S
C430 C429 1.351 . S
C430 N431 1.373 . S
C430 H458 0.930 . S
N431 C430 1.373 . S
N431 C433 1.340 . S
N432 C429 1.368 . S
N432 C433 1.321 . S
N432 Co435 2.135 . S
C433 N431 1.340 . S
C433 N432 1.321 . S
C433 H457 0.930 . S
H434 C429 0.931 . S
Co435 N432 2.135 . S
Co435 N438 2.121 1_554 S
Co435 O443 2.055 . S
Co435 O446 2.039 . S
Co435 N449 2.140 . S
C436 O437 1.227 . S
C436 O446 1.265 . S
O437 C436 1.227 . S
N438 Co435 2.121 1_556 S
N438 C440 1.375 . S
N438 C441 1.313 . S
C439 C440 1.338 . S
C439 N442 1.377 . S
C439 H459 0.930 . S
C440 N438 1.375 . S
C440 C439 1.338 . S
C440 H444 0.931 . S
C441 N438 1.313 . S
C441 N442 1.344 . S
C441 H445 0.930 . S
N442 C439 1.377 . S
N442 C441 1.344 . S
O443 Co435 2.055 . S
O443 C447 1.253 . S
H444 C440 0.931 . S
H445 C441 0.930 . S
O446 Co435 2.039 . S
O446 C436 1.265 . S
C447 O443 1.253 . S
C447 O448 1.227 . S
O448 C447 1.227 . S
N449 Co435 2.140 . S
N449 C452 1.346 . S
N449 C453 1.345 . S
C450 C451 1.387 . S
C450 C454 1.391 . S
C451 C450 1.387 . S
C451 C452 1.369 . S
C451 H460 0.929 . S
C452 N449 1.346 . S
C452 C451 1.369 . S
C452 H455 0.928 . S
C453 N449 1.345 . S
C453 C454 1.371 . S
C453 H456 0.931 . S
C454 C450 1.391 . S
C454 C453 1.371 . S
C454 H461 0.930 . S
H455 C452 0.928 . S
H456 C453 0.931 . S
H457 C433 0.930 . S
H458 C430 0.930 . S
H459 C439 0.930 . S
H460 C451 0.929 . S
H461 C454 0.930 . S
C462 C463 1.351 . S
C462 N465 1.368 . S
C462 H467 0.931 . S
C463 C462 1.351 . S
C463 N464 1.373 . S
C463 H491 0.930 . S
N464 C463 1.373 . S
N464 C466 1.340 . S
N465 C462 1.368 . S
N465 C466 1.321 . S
N465 Co468 2.135 . S
C466 N464 1.340 . S
C466 N465 1.321 . S
C466 H490 0.930 . S
H467 C462 0.931 . S
Co468 N465 2.135 . S
Co468 N471 2.121 . S
Co468 O476 2.055 . S
Co468 O479 2.039 . S
Co468 N482 2.140 . S
C469 O470 1.227 . S
C469 O479 1.265 . S
O470 C469 1.227 . S
N471 Co468 2.121 . S
N471 C473 1.375 . S
N471 C474 1.313 . S
C472 C473 1.338 . S
C472 N475 1.377 . S
C472 H492 0.930 . S
C473 N471 1.375 . S
C473 C472 1.338 . S
C473 H477 0.931 . S
C474 N471 1.313 . S
C474 N475 1.344 . S
C474 H478 0.930 . S
N475 C472 1.377 . S
N475 C474 1.344 . S
O476 Co468 2.055 . S
O476 C480 1.253 . S
H477 C473 0.931 . S
H478 C474 0.930 . S
O479 Co468 2.039 . S
O479 C469 1.265 . S
C480 O476 1.253 . S
C480 O481 1.227 . S
O481 C480 1.227 . S
N482 Co468 2.140 . S
N482 C485 1.346 . S
N482 C486 1.345 . S
C483 C484 1.387 . S
C483 C487 1.391 . S
C484 C483 1.387 . S
C484 C485 1.369 . S
C484 H493 0.929 . S
C485 N482 1.346 . S
C485 C484 1.369 . S
C485 H488 0.928 . S
C486 N482 1.345 . S
C486 C487 1.371 . S
C486 H489 0.931 . S
C487 C483 1.391 . S
C487 C486 1.371 . S
C487 H494 0.930 . S
H488 C485 0.928 . S
H489 C486 0.931 . S
H490 C466 0.930 . S
H491 C463 0.930 . S
H492 C472 0.930 . S
H493 C484 0.929 . S
H494 C487 0.930 . S
C495 C496 1.351 . S
C495 N498 1.368 . S
C495 H500 0.931 . S
C496 C495 1.351 . S
C496 N497 1.373 . S
C496 H524 0.930 . S
N497 C496 1.373 . S
N497 C499 1.340 . S
N498 C495 1.368 . S
N498 C499 1.321 . S
N498 Co501 2.135 . S
C499 N497 1.340 . S
C499 N498 1.321 . S
C499 H523 0.930 . S
H500 C495 0.931 . S
Co501 N498 2.135 . S
Co501 N504 2.121 1_556 S
Co501 O509 2.055 . S
Co501 O512 2.039 . S
Co501 N515 2.140 . S
C502 O503 1.227 . S
C502 O512 1.265 . S
O503 C502 1.227 . S
N504 Co501 2.121 1_554 S
N504 C506 1.375 . S
N504 C507 1.313 . S
C505 C506 1.338 . S
C505 N508 1.377 . S
C505 H525 0.930 . S
C506 N504 1.375 . S
C506 C505 1.338 . S
C506 H510 0.931 . S
C507 N504 1.313 . S
C507 N508 1.344 . S
C507 H511 0.930 . S
N508 C505 1.377 . S
N508 C507 1.344 . S
O509 Co501 2.055 . S
O509 C513 1.253 . S
H510 C506 0.931 . S
H511 C507 0.930 . S
O512 Co501 2.039 . S
O512 C502 1.265 . S
C513 O509 1.253 . S
C513 O514 1.227 . S
O514 C513 1.227 . S
N515 Co501 2.140 . S
N515 C518 1.346 . S
N515 C519 1.345 . S
C516 C517 1.387 . S
C516 C520 1.391 . S
C517 C516 1.387 . S
C517 C518 1.369 . S
C517 H526 0.929 . S
C518 N515 1.346 . S
C518 C517 1.369 . S
C518 H521 0.928 . S
C519 N515 1.345 . S
C519 C520 1.371 . S
C519 H522 0.931 . S
C520 C516 1.391 . S
C520 C519 1.371 . S
C520 H527 0.930 . S
H521 C518 0.928 . S
H522 C519 0.931 . S
H523 C499 0.930 . S
H524 C496 0.930 . S
H525 C505 0.930 . S
H526 C517 0.929 . S
H527 C520 0.930 . S
H528 C536 0.950 . S
H529 C541 0.950 . S
H530 C538 0.950 . S
H531 C540 0.950 . S
H532 C542 0.950 . S
H533 C544 0.950 . S
H534 C546 0.950 . S
H535 C547 0.950 . S
C536 H528 0.950 . S
C536 C537 1.386 . S
C536 C538 1.391 . S
C537 C536 1.386 . S
C537 C541 1.393 . S
C538 H530 0.950 . S
C538 C536 1.391 . S
C538 C539 1.400 . S
C539 C538 1.400 . S
C539 C540 1.398 . S
C539 C545 1.491 . S
C540 H531 0.950 . S
C540 C539 1.398 . S
C540 C541 1.391 . S
C541 H529 0.950 . S
C541 C537 1.393 . S
C541 C540 1.391 . S
C542 H532 0.950 . S
C542 C543 1.386 . S
C542 C544 1.391 . S
C543 C542 1.386 . S
C543 C547 1.393 . S
C544 H533 0.950 . S
C544 C542 1.391 . S
C544 C545 1.400 . S
C545 C539 1.491 . S
C545 C544 1.400 . S
C545 C546 1.398 . S
C546 H534 0.950 . S
C546 C545 1.398 . S
C546 C547 1.391 . S
C547 H535 0.950 . S
C547 C543 1.393 . S
C547 C546 1.391 . S
H548 C556 0.950 1_554 S
H549 C561 0.950 1_554 S
H550 C558 0.950 . S
H551 C560 0.950 . S
H552 C562 0.950 . S
H553 C564 0.950 . S
H554 C566 0.950 . S
H555 C567 0.950 . S
C556 H548 0.950 1_556 S
C556 C557 1.386 1_556 S
C556 C558 1.391 . S
C557 C556 1.386 1_554 S
C557 C561 1.393 1_554 S
C558 H550 0.950 . S
C558 C556 1.391 . S
C558 C559 1.400 . S
C559 C558 1.400 . S
C559 C560 1.398 . S
C559 C565 1.491 . S
C560 H551 0.950 . S
C560 C559 1.398 . S
C560 C561 1.391 . S
C561 H549 0.950 1_556 S
C561 C557 1.393 1_556 S
C561 C560 1.391 . S
C562 H552 0.950 . S
C562 C563 1.386 . S
C562 C564 1.391 . S
C563 C562 1.386 . S
C563 C567 1.393 . S
C564 H553 0.950 . S
C564 C562 1.391 . S
C564 C565 1.400 . S
C565 C559 1.491 . S
C565 C564 1.400 . S
C565 C566 1.398 . S
C566 H554 0.950 . S
C566 C565 1.398 . S
C566 C567 1.391 . S
C567 H555 0.950 . S
C567 C563 1.393 . S
C567 C566 1.391 . S
H568 C576 0.950 . S
H569 C581 0.950 . S
H570 C578 0.950 . S
H571 C580 0.950 . S
H572 C582 0.950 . S
H573 C584 0.950 . S
H574 C586 0.950 . S
H575 C587 0.950 . S
C576 H568 0.950 . S
C576 C577 1.386 . S
C576 C578 1.391 . S
C577 C576 1.386 . S
C577 C581 1.393 . S
C578 H570 0.950 . S
C578 C576 1.391 . S
C578 C579 1.400 . S
C579 C578 1.400 . S
C579 C580 1.398 . S
C579 C585 1.491 . S
C580 H571 0.950 . S
C580 C579 1.398 . S
C580 C581 1.391 . S
C581 H569 0.950 . S
C581 C577 1.393 . S
C581 C580 1.391 . S
C582 H572 0.950 . S
C582 C583 1.386 . S
C582 C584 1.391 1_556 S
C583 C582 1.386 . S
C583 C587 1.393 . S
C584 H573 0.950 . S
C584 C582 1.391 1_554 S
C584 C585 1.400 . S
C585 C579 1.491 . S
C585 C584 1.400 . S
C585 C586 1.398 . S
C586 H574 0.950 . S
C586 C585 1.398 . S
C586 C587 1.391 1_554 S
C587 H575 0.950 . S
C587 C583 1.393 . S
C587 C586 1.391 1_556 S
H588 C596 0.950 . S
H589 C601 0.950 . S
H590 C598 0.950 . S
H591 C600 0.950 . S
H592 C602 0.950 . S
H593 C604 0.950 . S
H594 C606 0.950 . S
H595 C607 0.950 . S
C596 H588 0.950 . S
C596 C597 1.386 . S
C596 C598 1.391 . S
C597 C596 1.386 . S
C597 C601 1.393 . S
C598 H590 0.950 . S
C598 C596 1.391 . S
C598 C599 1.400 . S
C599 C598 1.400 . S
C599 C600 1.398 . S
C599 C605 1.491 . S
C600 H591 0.950 . S
C600 C599 1.398 . S
C600 C601 1.391 . S
C601 H589 0.950 . S
C601 C597 1.393 . S
C601 C600 1.391 . S
C602 H592 0.950 . S
C602 C603 1.386 . S
C602 C604 1.391 . S
C603 C602 1.386 . S
C603 C607 1.393 . S
C604 H593 0.950 . S
C604 C602 1.391 . S
C604 C605 1.400 . S
C605 C599 1.491 . S
C605 C604 1.400 . S
C605 C606 1.398 . S
C606 H594 0.950 . S
C606 C605 1.398 . S
C606 C607 1.391 . S
C607 H595 0.950 . S
C607 C603 1.393 . S
C607 C606 1.391 . S
H608 C616 0.950 . S
H609 C621 0.950 . S
H610 C618 0.950 . S
H611 C620 0.950 . S
H612 C622 0.950 . S
H613 C624 0.950 . S
H614 C626 0.950 . S
H615 C627 0.950 . S
C616 H608 0.950 . S
C616 C617 1.386 . S
C616 C618 1.391 . S
C617 C616 1.386 . S
C617 C621 1.393 . S
C618 H610 0.950 . S
C618 C616 1.391 . S
C618 C619 1.400 . S
C619 C618 1.400 . S
C619 C620 1.398 . S
C619 C625 1.491 . S
C620 H611 0.950 . S
C620 C619 1.398 . S
C620 C621 1.391 . S
C621 H609 0.950 . S
C621 C617 1.393 . S
C621 C620 1.391 . S
C622 H612 0.950 . S
C622 C623 1.386 . S
C622 C624 1.391 . S
C623 C622 1.386 . S
C623 C627 1.393 . S
C624 H613 0.950 . S
C624 C622 1.391 . S
C624 C625 1.400 . S
C625 C619 1.491 . S
C625 C624 1.400 . S
C625 C626 1.398 . S
C626 H614 0.950 . S
C626 C625 1.398 . S
C626 C627 1.391 . S
C627 H615 0.950 . S
C627 C623 1.393 . S
C627 C626 1.391 . S
H628 C636 0.950 . S
H629 C641 0.950 . S
H630 C638 0.950 . S
H631 C640 0.950 . S
H632 C642 0.950 . S
H633 C644 0.950 . S
H634 C646 0.950 . S
H635 C647 0.950 . S
C636 H628 0.950 . S
C636 C637 1.386 . S
C636 C638 1.391 . S
C637 C636 1.386 . S
C637 C641 1.393 . S
C638 H630 0.950 . S
C638 C636 1.391 . S
C638 C639 1.400 . S
C639 C638 1.400 . S
C639 C640 1.398 . S
C639 C645 1.491 . S
C640 H631 0.950 . S
C640 C639 1.398 . S
C640 C641 1.391 . S
C641 H629 0.950 . S
C641 C637 1.393 . S
C641 C640 1.391 . S
C642 H632 0.950 . S
C642 C643 1.386 . S
C642 C644 1.391 . S
C643 C642 1.386 . S
C643 C647 1.393 . S
C644 H633 0.950 . S
C644 C642 1.391 . S
C644 C645 1.400 . S
C645 C639 1.491 . S
C645 C644 1.400 . S
C645 C646 1.398 . S
C646 H634 0.950 . S
C646 C645 1.398 . S
C646 C647 1.391 . S
C647 H635 0.950 . S
C647 C643 1.393 . S
C647 C646 1.391 . S
H648 C656 0.950 . S
H649 C661 0.950 . S
H650 C658 0.950 . S
H651 C660 0.950 . S
H652 C662 0.950 . S
H653 C664 0.950 . S
H654 C666 0.950 . S
H655 C667 0.950 . S
C656 H648 0.950 . S
C656 C657 1.386 . S
C656 C658 1.391 . S
C657 C656 1.386 . S
C657 C661 1.393 . S
C658 H650 0.950 . S
C658 C656 1.391 . S
C658 C659 1.400 . S
C659 C658 1.400 . S
C659 C660 1.398 . S
C659 C665 1.491 . S
C660 H651 0.950 . S
C660 C659 1.398 . S
C660 C661 1.391 . S
C661 H649 0.950 . S
C661 C657 1.393 . S
C661 C660 1.391 . S
C662 H652 0.950 . S
C662 C663 1.386 . S
C662 C664 1.391 1_554 S
C663 C662 1.386 . S
C663 C667 1.393 . S
C664 H653 0.950 . S
C664 C662 1.391 1_556 S
C664 C665 1.400 . S
C665 C659 1.491 . S
C665 C664 1.400 . S
C665 C666 1.398 . S
C666 H654 0.950 . S
C666 C665 1.398 . S
C666 C667 1.391 1_556 S
C667 H655 0.950 . S
C667 C663 1.393 . S
C667 C666 1.391 1_554 S
H668 C676 0.950 . S
H669 C681 0.950 . S
H670 C678 0.950 . S
H671 C680 0.950 . S
H672 C682 0.950 1_556 S
H673 C684 0.950 . S
H674 C686 0.950 . S
H675 C687 0.950 1_556 S
C676 H668 0.950 . S
C676 C677 1.386 . S
C676 C678 1.391 . S
C677 C676 1.386 . S
C677 C681 1.393 . S
C678 H670 0.950 . S
C678 C676 1.391 . S
C678 C679 1.400 . S
C679 C678 1.400 . S
C679 C680 1.398 . S
C679 C685 1.491 . S
C680 H671 0.950 . S
C680 C679 1.398 . S
C680 C681 1.391 . S
C681 H669 0.950 . S
C681 C677 1.393 . S
C681 C680 1.391 . S
C682 H672 0.950 1_554 S
C682 C683 1.386 1_554 S
C682 C684 1.391 . S
C683 C682 1.386 1_556 S
C683 C687 1.393 1_556 S
C684 H673 0.950 . S
C684 C682 1.391 . S
C684 C685 1.400 . S
C685 C679 1.491 . S
C685 C684 1.400 . S
C685 C686 1.398 . S
C686 H674 0.950 . S
C686 C685 1.398 . S
C686 C687 1.391 . S
C687 H675 0.950 1_554 S
C687 C683 1.393 1_554 S
C687 C686 1.391 . S
H688 C696 0.950 . S
H689 C701 0.950 . S
H690 C698 0.950 . S
H691 C700 0.950 . S
H692 C702 0.950 1_556 S
H693 C704 0.950 . S
H694 C706 0.950 . S
H695 C707 0.950 1_556 S
C696 H688 0.950 . S
C696 C697 1.386 . S
C696 C698 1.391 . S
C697 C696 1.386 . S
C697 C701 1.393 . S
C698 H690 0.950 . S
C698 C696 1.391 . S
C698 C699 1.400 . S
C699 C698 1.400 . S
C699 C700 1.398 . S
C699 C705 1.491 . S
C700 H691 0.950 . S
C700 C699 1.398 . S
C700 C701 1.391 . S
C701 H689 0.950 . S
C701 C697 1.393 . S
C701 C700 1.391 . S
C702 H692 0.950 1_554 S
C702 C703 1.386 1_554 S
C702 C704 1.391 . S
C703 C702 1.386 1_556 S
C703 C707 1.393 1_556 S
C704 H693 0.950 . S
C704 C702 1.391 . S
C704 C705 1.400 . S
C705 C699 1.491 . S
C705 C704 1.400 . S
C705 C706 1.398 . S
C706 H694 0.950 . S
C706 C705 1.398 . S
C706 C707 1.391 . S
C707 H695 0.950 1_554 S
C707 C703 1.393 1_554 S
C707 C706 1.391 . S
H708 C716 0.950 . S
H709 C721 0.950 . S
H710 C718 0.950 . S
H711 C720 0.950 . S
H712 C722 0.950 . S
H713 C724 0.950 . S
H714 C726 0.950 . S
H715 C727 0.950 . S
C716 H708 0.950 . S
C716 C717 1.386 . S
C716 C718 1.391 . S
C717 C716 1.386 . S
C717 C721 1.393 . S
C718 H710 0.950 . S
C718 C716 1.391 . S
C718 C719 1.400 . S
C719 C718 1.400 . S
C719 C720 1.398 . S
C719 C725 1.491 . S
C720 H711 0.950 . S
C720 C719 1.398 . S
C720 C721 1.391 . S
C721 H709 0.950 . S
C721 C717 1.393 . S
C721 C720 1.391 . S
C722 H712 0.950 . S
C722 C723 1.386 . S
C722 C724 1.391 . S
C723 C722 1.386 . S
C723 C727 1.393 . S
C724 H713 0.950 . S
C724 C722 1.391 . S
C724 C725 1.400 . S
C725 C719 1.491 . S
C725 C724 1.400 . S
C725 C726 1.398 . S
C726 H714 0.950 . S
C726 C725 1.398 . S
C726 C727 1.391 . S
C727 H715 0.950 . S
C727 C723 1.393 . S
C727 C726 1.391 . S
H728 C736 0.950 . S
H729 C741 0.950 . S
H730 C738 0.950 . S
H731 C740 0.950 . S
H732 C742 0.950 . S
H733 C744 0.950 . S
H734 C746 0.950 . S
H735 C747 0.950 . S
C736 H728 0.950 . S
C736 C737 1.386 . S
C736 C738 1.391 . S
C737 C736 1.386 . S
C737 C741 1.393 . S
C738 H730 0.950 . S
C738 C736 1.391 . S
C738 C739 1.400 . S
C739 C738 1.400 . S
C739 C740 1.398 . S
C739 C745 1.491 . S
C740 H731 0.950 . S
C740 C739 1.398 . S
C740 C741 1.391 . S
C741 H729 0.950 . S
C741 C737 1.393 . S
C741 C740 1.391 . S
C742 H732 0.950 . S
C742 C743 1.386 . S
C742 C744 1.391 . S
C743 C742 1.386 . S
C743 C747 1.393 . S
C744 H733 0.950 . S
C744 C742 1.391 . S
C744 C745 1.400 . S
C745 C739 1.491 . S
C745 C744 1.400 . S
C745 C746 1.398 . S
C746 H734 0.950 . S
C746 C745 1.398 . S
C746 C747 1.391 . S
C747 H735 0.950 . S
C747 C743 1.393 . S
C747 C746 1.391 . S
H748 C756 0.950 . S
H749 C761 0.950 . S
H750 C758 0.950 . S
H751 C760 0.950 . S
H752 C762 0.950 1_554 S
H753 C764 0.950 . S
H754 C766 0.950 . S
H755 C767 0.950 1_554 S
C756 H748 0.950 . S
C756 C757 1.386 . S
C756 C758 1.391 . S
C757 C756 1.386 . S
C757 C761 1.393 . S
C758 H750 0.950 . S
C758 C756 1.391 . S
C758 C759 1.400 . S
C759 C758 1.400 . S
C759 C760 1.398 . S
C759 C765 1.491 . S
C760 H751 0.950 . S
C760 C759 1.398 . S
C760 C761 1.391 . S
C761 H749 0.950 . S
C761 C757 1.393 . S
C761 C760 1.391 . S
C762 H752 0.950 1_556 S
C762 C763 1.386 1_556 S
C762 C764 1.391 . S
C763 C762 1.386 1_554 S
C763 C767 1.393 1_554 S
C764 H753 0.950 . S
C764 C762 1.391 . S
C764 C765 1.400 . S
C765 C759 1.491 . S
C765 C764 1.400 . S
C765 C766 1.398 . S
C766 H754 0.950 . S
C766 C765 1.398 . S
C766 C767 1.391 . S
C767 H755 0.950 1_556 S
C767 C763 1.393 1_556 S
C767 C766 1.391 . S
H768 C776 0.950 . S
H769 C781 0.950 . S
H770 C778 0.950 . S
H771 C780 0.950 . S
H772 C782 0.950 . S
H773 C784 0.950 . S
H774 C786 0.950 . S
H775 C787 0.950 . S
C776 H768 0.950 . S
C776 C777 1.386 . S
C776 C778 1.391 1_556 S
C777 C776 1.386 . S
C777 C781 1.393 . S
C778 H770 0.950 . S
C778 C776 1.391 1_554 S
C778 C779 1.400 . S
C779 C778 1.400 . S
C779 C780 1.398 . S
C779 C785 1.491 . S
C780 H771 0.950 . S
C780 C779 1.398 . S
C780 C781 1.391 1_554 S
C781 H769 0.950 . S
C781 C777 1.393 . S
C781 C780 1.391 1_556 S
C782 H772 0.950 . S
C782 C783 1.386 . S
C782 C784 1.391 . S
C783 C782 1.386 . S
C783 C787 1.393 . S
C784 H773 0.950 . S
C784 C782 1.391 . S
C784 C785 1.400 . S
C785 C779 1.491 . S
C785 C784 1.400 . S
C785 C786 1.398 . S
C786 H774 0.950 . S
C786 C785 1.398 . S
C786 C787 1.391 . S
C787 H775 0.950 . S
C787 C783 1.393 . S
C787 C786 1.391 . S
H788 C796 0.950 . S
H789 C801 0.950 . S
H790 C798 0.950 . S
H791 C800 0.950 . S
H792 C802 0.950 . S
H793 C804 0.950 . S
H794 C806 0.950 . S
H795 C807 0.950 . S
C796 H788 0.950 . S
C796 C797 1.386 . S
C796 C798 1.391 . S
C797 C796 1.386 . S
C797 C801 1.393 . S
C798 H790 0.950 . S
C798 C796 1.391 . S
C798 C799 1.400 . S
C799 C798 1.400 . S
C799 C800 1.398 . S
C799 C805 1.491 . S
C800 H791 0.950 . S
C800 C799 1.398 . S
C800 C801 1.391 . S
C801 H789 0.950 . S
C801 C797 1.393 . S
C801 C800 1.391 . S
C802 H792 0.950 . S
C802 C803 1.386 . S
C802 C804 1.391 . S
C803 C802 1.386 . S
C803 C807 1.393 . S
C804 H793 0.950 . S
C804 C802 1.391 . S
C804 C805 1.400 . S
C805 C799 1.491 . S
C805 C804 1.400 . S
C805 C806 1.398 . S
C806 H794 0.950 . S
C806 C805 1.398 . S
C806 C807 1.391 . S
C807 H795 0.950 . S
C807 C803 1.393 . S
C807 C806 1.391 . S
H808 C816 0.950 . S
H809 C821 0.950 . S
H810 C818 0.950 . S
H811 C820 0.950 . S
H812 C822 0.950 . S
H813 C824 0.950 . S
H814 C826 0.950 . S
H815 C827 0.950 . S
C816 H808 0.950 . S
C816 C817 1.386 . S
C816 C818 1.391 1_554 S
C817 C816 1.386 . S
C817 C821 1.393 . S
C818 H810 0.950 . S
C818 C816 1.391 1_556 S
C818 C819 1.400 . S
C819 C818 1.400 . S
C819 C820 1.398 . S
C819 C825 1.491 . S
C820 H811 0.950 . S
C820 C819 1.398 . S
C820 C821 1.391 1_556 S
C821 H809 0.950 . S
C821 C817 1.393 . S
C821 C820 1.391 1_554 S
C822 H812 0.950 . S
C822 C823 1.386 . S
C822 C824 1.391 . S
C823 C822 1.386 . S
C823 C827 1.393 . S
C824 H813 0.950 . S
C824 C822 1.391 . S
C824 C825 1.400 . S
C825 C819 1.491 . S
C825 C824 1.400 . S
C825 C826 1.398 . S
C826 H814 0.950 . S
C826 C825 1.398 . S
C826 C827 1.391 . S
C827 H815 0.950 . S
C827 C823 1.393 . S
C827 C826 1.391 . S
H828 C836 0.950 . S
H829 C841 0.950 . S
H830 C838 0.950 . S
H831 C840 0.950 . S
H832 C842 0.950 . S
H833 C844 0.950 . S
H834 C846 0.950 . S
H835 C847 0.950 . S
C836 H828 0.950 . S
C836 C837 1.386 . S
C836 C838 1.391 . S
C837 C836 1.386 . S
C837 C841 1.393 . S
C838 H830 0.950 . S
C838 C836 1.391 . S
C838 C839 1.400 . S
C839 C838 1.400 . S
C839 C840 1.398 . S
C839 C845 1.491 . S
C840 H831 0.950 . S
C840 C839 1.398 . S
C840 C841 1.391 . S
C841 H829 0.950 . S
C841 C837 1.393 . S
C841 C840 1.391 . S
C842 H832 0.950 . S
C842 C843 1.386 . S
C842 C844 1.391 . S
C843 C842 1.386 . S
C843 C847 1.393 . S
C844 H833 0.950 . S
C844 C842 1.391 . S
C844 C845 1.400 . S
C845 C839 1.491 . S
C845 C844 1.400 . S
C845 C846 1.398 . S
C846 H834 0.950 . S
C846 C845 1.398 . S
C846 C847 1.391 . S
C847 H835 0.950 . S
C847 C843 1.393 . S
C847 C846 1.391 . S
H848 C856 0.950 . S
H849 C861 0.950 . S
H850 C858 0.950 . S
H851 C860 0.950 . S
H852 C862 0.950 . S
H853 C864 0.950 . S
H854 C866 0.950 . S
H855 C867 0.950 . S
C856 H848 0.950 . S
C856 C857 1.386 1_556 S
C856 C858 1.391 . S
C857 C856 1.386 1_554 S
C857 C861 1.393 . S
C858 H850 0.950 . S
C858 C856 1.391 . S
C858 C859 1.400 1_556 S
C859 C858 1.400 1_554 S
C859 C860 1.398 . S
C859 C865 1.491 1_554 S
C860 H851 0.950 . S
C860 C859 1.398 . S
C860 C861 1.391 . S
C861 H849 0.950 . S
C861 C857 1.393 . S
C861 C860 1.391 . S
C862 H852 0.950 . S
C862 C863 1.386 1_554 S
C862 C864 1.391 . S
C863 C862 1.386 1_556 S
C863 C867 1.393 . S
C864 H853 0.950 . S
C864 C862 1.391 . S
C864 C865 1.400 1_554 S
C865 C859 1.491 1_556 S
C865 C864 1.400 1_556 S
C865 C866 1.398 . S
C866 H854 0.950 . S
C866 C865 1.398 . S
C866 C867 1.391 . S
C867 H855 0.950 . S
C867 C863 1.393 . S
C867 C866 1.391 . S
H868 C876 0.950 . S
H869 C881 0.950 . S
H870 C878 0.950 . S
H871 C880 0.950 . S
H872 C882 0.950 . S
H873 C884 0.950 . S
H874 C886 0.950 . S
H875 C887 0.950 . S
C876 H868 0.950 . S
C876 C877 1.386 . S
C876 C878 1.391 . S
C877 C876 1.386 . S
C877 C881 1.393 . S
C878 H870 0.950 . S
C878 C876 1.391 . S
C878 C879 1.400 . S
C879 C878 1.400 . S
C879 C880 1.398 . S
C879 C885 1.491 . S
C880 H871 0.950 . S
C880 C879 1.398 . S
C880 C881 1.391 . S
C881 H869 0.950 . S
C881 C877 1.393 . S
C881 C880 1.391 . S
C882 H872 0.950 . S
C882 C883 1.386 . S
C882 C884 1.391 . S
C883 C882 1.386 . S
C883 C887 1.393 . S
C884 H873 0.950 . S
C884 C882 1.391 . S
C884 C885 1.400 . S
C885 C879 1.491 . S
C885 C884 1.400 . S
C885 C886 1.398 . S
C886 H874 0.950 . S
C886 C885 1.398 . S
C886 C887 1.391 . S
C887 H875 0.950 . S
C887 C883 1.393 . S
C887 C886 1.391 . S
H888 C896 0.950 . S
H889 C901 0.950 . S
H890 C898 0.950 . S
H891 C900 0.950 . S
H892 C902 0.950 . S
H893 C904 0.950 . S
H894 C906 0.950 . S
H895 C907 0.950 . S
C896 H888 0.950 . S
C896 C897 1.386 . S
C896 C898 1.391 . S
C897 C896 1.386 . S
C897 C901 1.393 . S
C898 H890 0.950 . S
C898 C896 1.391 . S
C898 C899 1.400 . S
C899 C898 1.400 . S
C899 C900 1.398 . S
C899 C905 1.491 . S
C900 H891 0.950 . S
C900 C899 1.398 . S
C900 C901 1.391 . S
C901 H889 0.950 . S
C901 C897 1.393 . S
C901 C900 1.391 . S
C902 H892 0.950 . S
C902 C903 1.386 . S
C902 C904 1.391 . S
C903 C902 1.386 . S
C903 C907 1.393 . S
C904 H893 0.950 . S
C904 C902 1.391 . S
C904 C905 1.400 . S
C905 C899 1.491 . S
C905 C904 1.400 . S
C905 C906 1.398 . S
C906 H894 0.950 . S
C906 C905 1.398 . S
C906 C907 1.391 . S
C907 H895 0.950 . S
C907 C903 1.393 . S
C907 C906 1.391 . S
H908 C916 0.950 . S
H909 C921 0.950 . S
H910 C918 0.950 . S
H911 C920 0.950 . S
H912 C922 0.950 . S
H913 C924 0.950 . S
H914 C926 0.950 . S
H915 C927 0.950 . S
C916 H908 0.950 . S
C916 C917 1.386 . S
C916 C918 1.391 . S
C917 C916 1.386 . S
C917 C921 1.393 . S
C918 H910 0.950 . S
C918 C916 1.391 . S
C918 C919 1.400 . S
C919 C918 1.400 . S
C919 C920 1.398 . S
C919 C925 1.491 . S
C920 H911 0.950 . S
C920 C919 1.398 . S
C920 C921 1.391 . S
C921 H909 0.950 . S
C921 C917 1.393 . S
C921 C920 1.391 . S
C922 H912 0.950 . S
C922 C923 1.386 . S
C922 C924 1.391 . S
C923 C922 1.386 . S
C923 C927 1.393 . S
C924 H913 0.950 . S
C924 C922 1.391 . S
C924 C925 1.400 . S
C925 C919 1.491 . S
C925 C924 1.400 . S
C925 C926 1.398 . S
C926 H914 0.950 . S
C926 C925 1.398 . S
C926 C927 1.391 . S
C927 H915 0.950 . S
C927 C923 1.393 . S
C927 C926 1.391 . S
H928 C936 0.950 . S
H929 C941 0.950 . S
H930 C938 0.950 . S
H931 C940 0.950 . S
H932 C942 0.950 . S
H933 C944 0.950 . S
H934 C946 0.950 . S
H935 C947 0.950 . S
C936 H928 0.950 . S
C936 C937 1.386 . S
C936 C938 1.391 . S
C937 C936 1.386 . S
C937 C941 1.393 . S
C938 H930 0.950 . S
C938 C936 1.391 . S
C938 C939 1.400 . S
C939 C938 1.400 . S
C939 C940 1.398 . S
C939 C945 1.491 . S
C940 H931 0.950 . S
C940 C939 1.398 . S
C940 C941 1.391 . S
C941 H929 0.950 . S
C941 C937 1.393 . S
C941 C940 1.391 . S
C942 H932 0.950 . S
C942 C943 1.386 . S
C942 C944 1.391 . S
C943 C942 1.386 . S
C943 C947 1.393 . S
C944 H933 0.950 . S
C944 C942 1.391 . S
C944 C945 1.400 . S
C945 C939 1.491 . S
C945 C944 1.400 . S
C945 C946 1.398 . S
C946 H934 0.950 . S
C946 C945 1.398 . S
C946 C947 1.391 . S
C947 H935 0.950 . S
C947 C943 1.393 . S
C947 C946 1.391 . S
H948 C956 0.950 . S
H949 C961 0.950 . S
H950 C958 0.950 . S
H951 C960 0.950 . S
H952 C962 0.950 . S
H953 C964 0.950 . S
H954 C966 0.950 . S
H955 C967 0.950 . S
C956 H948 0.950 . S
C956 C957 1.386 . S
C956 C958 1.391 . S
C957 C956 1.386 . S
C957 C961 1.393 . S
C958 H950 0.950 . S
C958 C956 1.391 . S
C958 C959 1.400 . S
C959 C958 1.400 . S
C959 C960 1.398 . S
C959 C965 1.491 . S
C960 H951 0.950 . S
C960 C959 1.398 . S
C960 C961 1.391 . S
C961 H949 0.950 . S
C961 C957 1.393 . S
C961 C960 1.391 . S
C962 H952 0.950 . S
C962 C963 1.386 . S
C962 C964 1.391 . S
C963 C962 1.386 . S
C963 C967 1.393 . S
C964 H953 0.950 . S
C964 C962 1.391 . S
C964 C965 1.400 . S
C965 C959 1.491 . S
C965 C964 1.400 . S
C965 C966 1.398 . S
C966 H954 0.950 . S
C966 C965 1.398 . S
C966 C967 1.391 . S
C967 H955 0.950 . S
C967 C963 1.393 . S
C967 C966 1.391 . S
H968 C976 0.950 . S
H969 C981 0.950 . S
H970 C978 0.950 . S
H971 C980 0.950 . S
H972 C982 0.950 . S
H973 C984 0.950 . S
H974 C986 0.950 . S
H975 C987 0.950 . S
C976 H968 0.950 . S
C976 C977 1.386 . S
C976 C978 1.391 . S
C977 C976 1.386 . S
C977 C981 1.393 . S
C978 H970 0.950 . S
C978 C976 1.391 . S
C978 C979 1.400 . S
C979 C978 1.400 . S
C979 C980 1.398 . S
C979 C985 1.491 1_545 S
C980 H971 0.950 . S
C980 C979 1.398 . S
C980 C981 1.391 . S
C981 H969 0.950 . S
C981 C977 1.393 . S
C981 C980 1.391 . S
C982 H972 0.950 . S
C982 C983 1.386 . S
C982 C984 1.391 . S
C983 C982 1.386 . S
C983 C987 1.393 . S
C984 H973 0.950 . S
C984 C982 1.391 . S
C984 C985 1.400 . S
C985 C979 1.491 1_565 S
C985 C984 1.400 . S
C985 C986 1.398 . S
C986 H974 0.950 . S
C986 C985 1.398 . S
C986 C987 1.391 . S
C987 H975 0.950 . S
C987 C983 1.393 . S
C987 C986 1.391 . S
H988 C996 0.950 . S
H989 C1001 0.945 1_556 S
H990 C998 0.950 . S
H991 C1000 0.950 . S
H992 C1002 0.950 . S
H993 C1004 0.950 . S
H994 C1006 0.950 . S
H995 C1007 0.945 1_554 S
C996 H988 0.950 . S
C996 C997 1.386 . S
C996 C998 1.391 . S
C997 C996 1.386 . S
C997 C1001 1.400 . S
C998 H990 0.950 . S
C998 C996 1.391 . S
C998 C999 1.400 . S
C999 C998 1.400 . S
C999 C1000 1.398 1_554 S
C999 C1005 1.491 1_564 S
C1000 H991 0.950 . S
C1000 C999 1.398 1_556 S
C1000 C1001 1.388 1_556 S
C1001 H989 0.945 1_554 S
C1001 C997 1.400 . S
C1001 C1000 1.388 1_554 S
C1002 H992 0.950 . S
C1002 C1003 1.386 . S
C1002 C1004 1.391 . S
C1003 C1002 1.386 . S
C1003 C1007 1.400 . S
C1004 H993 0.950 . S
C1004 C1002 1.391 . S
C1004 C1005 1.400 . S
C1005 C999 1.491 1_546 S
C1005 C1004 1.400 . S
C1005 C1006 1.398 1_556 S
C1006 H994 0.950 . S
C1006 C1005 1.398 1_554 S
C1006 C1007 1.388 1_554 S
C1007 H995 0.945 1_556 S
C1007 C1003 1.400 . S
C1007 C1006 1.388 1_556 S
H1008 C1016 0.950 . S
H1009 C1021 0.950 . S
H1010 C1018 0.950 . S
H1011 C1020 0.950 . S
H1012 C1022 0.950 . S
H1013 C1024 0.950 . S
H1014 C1026 0.950 . S
H1015 C1027 0.950 . S
C1016 H1008 0.950 . S
C1016 C1017 1.386 . S
C1016 C1018 1.391 . S
C1017 C1016 1.386 . S
C1017 C1021 1.393 . S
C1018 H1010 0.950 . S
C1018 C1016 1.391 . S
C1018 C1019 1.400 . S
C1019 C1018 1.400 . S
C1019 C1020 1.398 . S
C1019 C1025 1.491 . S
C1020 H1011 0.950 . S
C1020 C1019 1.398 . S
C1020 C1021 1.391 . S
C1021 H1009 0.950 . S
C1021 C1017 1.393 . S
C1021 C1020 1.391 . S
C1022 H1012 0.950 . S
C1022 C1023 1.386 . S
C1022 C1024 1.391 . S
C1023 C1022 1.386 . S
C1023 C1027 1.393 . S
C1024 H1013 0.950 . S
C1024 C1022 1.391 . S
C1024 C1025 1.400 . S
C1025 C1019 1.491 . S
C1025 C1024 1.400 . S
C1025 C1026 1.398 . S
C1026 H1014 0.950 . S
C1026 C1025 1.398 . S
C1026 C1027 1.391 . S
C1027 H1015 0.950 . S
C1027 C1023 1.393 . S
C1027 C1026 1.391 . S
H1028 C1036 0.950 . S
H1029 C1041 0.950 . S
H1030 C1038 0.950 . S
H1031 C1040 0.950 . S
H1032 C1042 0.950 . S
H1033 C1044 0.950 . S
H1034 C1046 0.950 . S
H1035 C1047 0.950 . S
C1036 H1028 0.950 . S
C1036 C1037 1.386 . S
C1036 C1038 1.391 . S
C1037 C1036 1.386 . S
C1037 C1041 1.393 . S
C1038 H1030 0.950 . S
C1038 C1036 1.391 . S
C1038 C1039 1.400 . S
C1039 C1038 1.400 . S
C1039 C1040 1.398 . S
C1039 C1045 1.491 . S
C1040 H1031 0.950 . S
C1040 C1039 1.398 . S
C1040 C1041 1.391 . S
C1041 H1029 0.950 . S
C1041 C1037 1.393 . S
C1041 C1040 1.391 . S
C1042 H1032 0.950 . S
C1042 C1043 1.386 . S
C1042 C1044 1.391 . S
C1043 C1042 1.386 . S
C1043 C1047 1.393 . S
C1044 H1033 0.950 . S
C1044 C1042 1.391 . S
C1044 C1045 1.400 . S
C1045 C1039 1.491 . S
C1045 C1044 1.400 . S
C1045 C1046 1.398 . S
C1046 H1034 0.950 . S
C1046 C1045 1.398 . S
C1046 C1047 1.391 . S
C1047 H1035 0.950 . S
C1047 C1043 1.393 . S
C1047 C1046 1.391 . S
H1048 C1056 0.950 . S
H1049 C1061 0.950 . S
H1050 C1058 0.950 . S
H1051 C1060 0.950 . S
H1052 C1062 0.950 . S
H1053 C1064 0.950 . S
H1054 C1066 0.950 . S
H1055 C1067 0.950 . S
C1056 H1048 0.950 . S
C1056 C1057 1.386 . S
C1056 C1058 1.391 . S
C1057 C1056 1.386 . S
C1057 C1061 1.393 . S
C1058 H1050 0.950 . S
C1058 C1056 1.391 . S
C1058 C1059 1.400 . S
C1059 C1058 1.400 . S
C1059 C1060 1.398 . S
C1059 C1065 1.491 . S
C1060 H1051 0.950 . S
C1060 C1059 1.398 . S
C1060 C1061 1.391 . S
C1061 H1049 0.950 . S
C1061 C1057 1.393 . S
C1061 C1060 1.391 . S
C1062 H1052 0.950 . S
C1062 C1063 1.386 . S
C1062 C1064 1.391 . S
C1063 C1062 1.386 . S
C1063 C1067 1.393 . S
C1064 H1053 0.950 . S
C1064 C1062 1.391 . S
C1064 C1065 1.400 . S
C1065 C1059 1.491 . S
C1065 C1064 1.400 . S
C1065 C1066 1.398 . S
C1066 H1054 0.950 . S
C1066 C1065 1.398 . S
C1066 C1067 1.391 . S
C1067 H1055 0.950 . S
C1067 C1063 1.393 . S
C1067 C1066 1.391 . S
H1068 C1076 0.950 . S
H1069 C1081 0.950 . S
H1070 C1078 0.950 . S
H1071 C1080 0.950 . S
H1072 C1082 0.950 . S
H1073 C1084 0.950 . S
H1074 C1086 0.950 . S
H1075 C1087 0.950 . S
C1076 H1068 0.950 . S
C1076 C1077 1.386 1_655 S
C1076 C1078 1.391 . S
C1077 C1076 1.386 1_455 S
C1077 C1081 1.393 . S
C1078 H1070 0.950 . S
C1078 C1076 1.391 . S
C1078 C1079 1.400 . S
C1079 C1078 1.400 . S
C1079 C1080 1.398 . S
C1079 C1085 1.491 . S
C1080 H1071 0.950 . S
C1080 C1079 1.398 . S
C1080 C1081 1.391 1_655 S
C1081 H1069 0.950 . S
C1081 C1077 1.393 . S
C1081 C1080 1.391 1_455 S
C1082 H1072 0.950 . S
C1082 C1083 1.386 . S
C1082 C1084 1.391 . S
C1083 C1082 1.386 . S
C1083 C1087 1.393 . S
C1084 H1073 0.950 . S
C1084 C1082 1.391 . S
C1084 C1085 1.400 . S
C1085 C1079 1.491 . S
C1085 C1084 1.400 . S
C1085 C1086 1.398 . S
C1086 H1074 0.950 . S
C1086 C1085 1.398 . S
C1086 C1087 1.391 . S
C1087 H1075 0.950 . S
C1087 C1083 1.393 . S
C1087 C1086 1.391 . S
H1088 C1096 0.950 . S
H1089 C1101 0.950 . S
H1090 C1098 0.950 . S
H1091 C1100 0.950 . S
H1092 C1102 0.950 . S
H1093 C1104 0.950 . S
H1094 C1106 0.950 . S
H1095 C1107 0.950 . S
C1096 H1088 0.950 . S
C1096 C1097 1.386 . S
C1096 C1098 1.391 . S
C1097 C1096 1.386 . S
C1097 C1101 1.393 . S
C1098 H1090 0.950 . S
C1098 C1096 1.391 . S
C1098 C1099 1.400 . S
C1099 C1098 1.400 . S
C1099 C1100 1.398 . S
C1099 C1105 1.491 . S
C1100 H1091 0.950 . S
C1100 C1099 1.398 . S
C1100 C1101 1.391 . S
C1101 H1089 0.950 . S
C1101 C1097 1.393 . S
C1101 C1100 1.391 . S
C1102 H1092 0.950 . S
C1102 C1103 1.386 . S
C1102 C1104 1.391 . S
C1103 C1102 1.386 . S
C1103 C1107 1.393 . S
C1104 H1093 0.950 . S
C1104 C1102 1.391 . S
C1104 C1105 1.400 . S
C1105 C1099 1.491 . S
C1105 C1104 1.400 . S
C1105 C1106 1.398 . S
C1106 H1094 0.950 . S
C1106 C1105 1.398 . S
C1106 C1107 1.391 . S
C1107 H1095 0.950 . S
C1107 C1103 1.393 . S
C1107 C1106 1.391 . S
H1108 C1116 0.950 . S
H1109 C1121 0.950 . S
H1110 C1118 0.950 . S
H1111 C1120 0.950 . S
H1112 C1122 0.950 . S
H1113 C1124 0.950 . S
H1114 C1126 0.950 . S
H1115 C1127 0.950 . S
C1116 H1108 0.950 . S
C1116 C1117 1.386 1_655 S
C1116 C1118 1.391 . S
C1117 C1116 1.386 1_455 S
C1117 C1121 1.393 . S
C1118 H1110 0.950 . S
C1118 C1116 1.391 . S
C1118 C1119 1.400 . S
C1119 C1118 1.400 . S
C1119 C1120 1.398 . S
C1119 C1125 1.491 . S
C1120 H1111 0.950 . S
C1120 C1119 1.398 . S
C1120 C1121 1.391 1_655 S
C1121 H1109 0.950 . S
C1121 C1117 1.393 . S
C1121 C1120 1.391 1_455 S
C1122 H1112 0.950 . S
C1122 C1123 1.386 . S
C1122 C1124 1.391 . S
C1123 C1122 1.386 . S
C1123 C1127 1.393 . S
C1124 H1113 0.950 . S
C1124 C1122 1.391 . S
C1124 C1125 1.400 . S
C1125 C1119 1.491 . S
C1125 C1124 1.400 . S
C1125 C1126 1.398 . S
C1126 H1114 0.950 . S
C1126 C1125 1.398 . S
C1126 C1127 1.391 . S
C1127 H1115 0.950 . S
C1127 C1123 1.393 . S
C1127 C1126 1.391 . S
H1128 C1136 0.950 . S
H1129 C1141 0.950 . S
H1130 C1138 0.950 . S
H1131 C1140 0.950 . S
H1132 C1142 0.950 . S
H1133 C1144 0.950 . S
H1134 C1146 0.950 . S
H1135 C1147 0.950 . S
C1136 H1128 0.950 . S
C1136 C1137 1.386 . S
C1136 C1138 1.391 . S
C1137 C1136 1.386 . S
C1137 C1141 1.393 . S
C1138 H1130 0.950 . S
C1138 C1136 1.391 . S
C1138 C1139 1.400 . S
C1139 C1138 1.400 . S
C1139 C1140 1.398 . S
C1139 C1145 1.491 . S
C1140 H1131 0.950 . S
C1140 C1139 1.398 . S
C1140 C1141 1.391 . S
C1141 H1129 0.950 . S
C1141 C1137 1.393 . S
C1141 C1140 1.391 . S
C1142 H1132 0.950 . S
C1142 C1143 1.386 . S
C1142 C1144 1.391 . S
C1143 C1142 1.386 . S
C1143 C1147 1.393 . S
C1144 H1133 0.950 . S
C1144 C1142 1.391 . S
C1144 C1145 1.400 . S
C1145 C1139 1.491 . S
C1145 C1144 1.400 . S
C1145 C1146 1.398 . S
C1146 H1134 0.950 . S
C1146 C1145 1.398 . S
C1146 C1147 1.391 . S
C1147 H1135 0.950 . S
C1147 C1143 1.393 . S
C1147 C1146 1.391 . S
H1148 C1156 0.950 . S
H1149 C1161 0.950 . S
H1150 C1158 0.950 . S
H1151 C1160 0.950 . S
H1152 C1162 0.950 . S
H1153 C1164 0.950 . S
H1154 C1166 0.950 . S
H1155 C1167 0.950 . S
C1156 H1148 0.950 . S
C1156 C1157 1.386 . S
C1156 C1158 1.391 . S
C1157 C1156 1.386 . S
C1157 C1161 1.393 . S
C1158 H1150 0.950 . S
C1158 C1156 1.391 . S
C1158 C1159 1.400 . S
C1159 C1158 1.400 . S
C1159 C1160 1.398 . S
C1159 C1165 1.491 . S
C1160 H1151 0.950 . S
C1160 C1159 1.398 . S
C1160 C1161 1.391 . S
C1161 H1149 0.950 . S
C1161 C1157 1.393 . S
C1161 C1160 1.391 . S
C1162 H1152 0.950 . S
C1162 C1163 1.386 . S
C1162 C1164 1.391 . S
C1163 C1162 1.386 . S
C1163 C1167 1.393 . S
C1164 H1153 0.950 . S
C1164 C1162 1.391 . S
C1164 C1165 1.400 . S
C1165 C1159 1.491 . S
C1165 C1164 1.400 . S
C1165 C1166 1.398 . S
C1166 H1154 0.950 . S
C1166 C1165 1.398 . S
C1166 C1167 1.391 . S
C1167 H1155 0.950 . S
C1167 C1163 1.393 . S
C1167 C1166 1.391 . S
H1168 C1176 0.950 . S
H1169 C1181 0.950 . S
H1170 C1178 0.950 . S
H1171 C1180 0.950 . S
H1172 C1182 0.950 . S
H1173 C1184 0.950 . S
H1174 C1186 0.950 . S
H1175 C1187 0.950 . S
C1176 H1168 0.950 . S
C1176 C1177 1.386 1_655 S
C1176 C1178 1.391 . S
C1177 C1176 1.386 1_455 S
C1177 C1181 1.393 . S
C1178 H1170 0.950 . S
C1178 C1176 1.391 . S
C1178 C1179 1.400 . S
C1179 C1178 1.400 . S
C1179 C1180 1.398 1_655 S
C1179 C1185 1.491 . S
C1180 H1171 0.950 . S
C1180 C1179 1.398 1_455 S
C1180 C1181 1.391 . S
C1181 H1169 0.950 . S
C1181 C1177 1.393 . S
C1181 C1180 1.391 . S
C1182 H1172 0.950 . S
C1182 C1183 1.386 . S
C1182 C1184 1.391 . S
C1183 C1182 1.386 . S
C1183 C1187 1.393 . S
C1184 H1173 0.950 . S
C1184 C1182 1.391 . S
C1184 C1185 1.400 . S
C1185 C1179 1.491 . S
C1185 C1184 1.400 . S
C1185 C1186 1.398 . S
C1186 H1174 0.950 . S
C1186 C1185 1.398 . S
C1186 C1187 1.391 . S
C1187 H1175 0.950 . S
C1187 C1183 1.393 . S
C1187 C1186 1.391 . S
H1188 C1196 0.950 . S
H1189 C1201 0.950 . S
H1190 C1198 0.950 . S
H1191 C1200 0.950 . S
H1192 C1202 0.950 . S
H1193 C1204 0.950 . S
H1194 C1206 0.950 . S
H1195 C1207 0.950 . S
C1196 H1188 0.950 . S
C1196 C1197 1.386 . S
C1196 C1198 1.391 . S
C1197 C1196 1.386 . S
C1197 C1201 1.393 . S
C1198 H1190 0.950 . S
C1198 C1196 1.391 . S
C1198 C1199 1.400 . S
C1199 C1198 1.400 . S
C1199 C1200 1.398 . S
C1199 C1205 1.491 . S
C1200 H1191 0.950 . S
C1200 C1199 1.398 . S
C1200 C1201 1.391 . S
C1201 H1189 0.950 . S
C1201 C1197 1.393 . S
C1201 C1200 1.391 . S
C1202 H1192 0.950 . S
C1202 C1203 1.386 . S
C1202 C1204 1.391 . S
C1203 C1202 1.386 . S
C1203 C1207 1.393 . S
C1204 H1193 0.950 . S
C1204 C1202 1.391 . S
C1204 C1205 1.400 . S
C1205 C1199 1.491 . S
C1205 C1204 1.400 . S
C1205 C1206 1.398 . S
C1206 H1194 0.950 . S
C1206 C1205 1.398 . S
C1206 C1207 1.391 . S
C1207 H1195 0.950 . S
C1207 C1203 1.393 . S
C1207 C1206 1.391 . S
H1208 C1216 0.950 . S
H1209 C1221 0.950 . S
H1210 C1218 0.950 . S
H1211 C1220 0.950 . S
H1212 C1222 0.950 . S
H1213 C1224 0.950 . S
H1214 C1226 0.950 . S
H1215 C1227 0.950 . S
C1216 H1208 0.950 . S
C1216 C1217 1.386 . S
C1216 C1218 1.391 . S
C1217 C1216 1.386 . S
C1217 C1221 1.393 . S
C1218 H1210 0.950 . S
C1218 C1216 1.391 . S
C1218 C1219 1.400 . S
C1219 C1218 1.400 . S
C1219 C1220 1.398 . S
C1219 C1225 1.491 . S
C1220 H1211 0.950 . S
C1220 C1219 1.398 . S
C1220 C1221 1.391 . S
C1221 H1209 0.950 . S
C1221 C1217 1.393 . S
C1221 C1220 1.391 . S
C1222 H1212 0.950 . S
C1222 C1223 1.386 . S
C1222 C1224 1.391 . S
C1223 C1222 1.386 . S
C1223 C1227 1.393 . S
C1224 H1213 0.950 . S
C1224 C1222 1.391 . S
C1224 C1225 1.400 . S
C1225 C1219 1.491 . S
C1225 C1224 1.400 . S
C1225 C1226 1.398 . S
C1226 H1214 0.950 . S
C1226 C1225 1.398 . S
C1226 C1227 1.391 . S
C1227 H1215 0.950 . S
C1227 C1223 1.393 . S
C1227 C1226 1.391 . S
H1228 C1236 0.950 . S
H1229 C1241 0.950 . S
H1230 C1238 0.950 . S
H1231 C1240 0.950 . S
H1232 C1242 0.950 . S
H1233 C1244 0.950 . S
H1234 C1246 0.950 . S
H1235 C1247 0.950 . S
C1236 H1228 0.950 . S
C1236 C1237 1.386 . S
C1236 C1238 1.391 . S
C1237 C1236 1.386 . S
C1237 C1241 1.393 . S
C1238 H1230 0.950 . S
C1238 C1236 1.391 . S
C1238 C1239 1.400 . S
C1239 C1238 1.400 . S
C1239 C1240 1.398 . S
C1239 C1245 1.491 . S
C1240 H1231 0.950 . S
C1240 C1239 1.398 . S
C1240 C1241 1.391 . S
C1241 H1229 0.950 . S
C1241 C1237 1.393 . S
C1241 C1240 1.391 . S
C1242 H1232 0.950 . S
C1242 C1243 1.386 . S
C1242 C1244 1.391 . S
C1243 C1242 1.386 . S
C1243 C1247 1.393 . S
C1244 H1233 0.950 . S
C1244 C1242 1.391 . S
C1244 C1245 1.400 . S
C1245 C1239 1.491 . S
C1245 C1244 1.400 . S
C1245 C1246 1.398 . S
C1246 H1234 0.950 . S
C1246 C1245 1.398 . S
C1246 C1247 1.391 . S
C1247 H1235 0.950 . S
C1247 C1243 1.393 . S
C1247 C1246 1.391 . S
H1248 C1256 0.950 . S
H1249 C1261 0.950 . S
H1250 C1258 0.950 . S
H1251 C1260 0.950 . S
H1252 C1262 0.950 . S
H1253 C1264 0.950 . S
H1254 C1266 0.950 . S
H1255 C1267 0.949 . S
C1256 H1248 0.950 . S
C1256 C1257 1.386 . S
C1256 C1258 1.391 . S
C1257 C1256 1.386 . S
C1257 C1261 1.393 . S
C1258 H1250 0.950 . S
C1258 C1256 1.391 . S
C1258 C1259 1.400 . S
C1259 C1258 1.400 . S
C1259 C1260 1.398 . S
C1259 C1265 1.491 . S
C1260 H1251 0.950 . S
C1260 C1259 1.398 . S
C1260 C1261 1.391 . S
C1261 H1249 0.950 . S
C1261 C1257 1.393 . S
C1261 C1260 1.391 . S
C1262 H1252 0.950 . S
C1262 C1263 1.386 . S
C1262 C1264 1.391 . S
C1263 C1262 1.386 . S
C1263 C1267 1.412 . S
C1264 H1253 0.950 . S
C1264 C1262 1.391 . S
C1264 C1265 1.400 1_455 S
C1265 C1259 1.491 . S
C1265 C1264 1.400 1_655 S
C1265 C1266 1.398 . S
C1266 H1254 0.950 . S
C1266 C1265 1.398 . S
C1266 C1267 1.372 1_655 S
C1267 H1255 0.949 . S
C1267 C1263 1.412 . S
C1267 C1266 1.372 1_455 S
H1268 C1276 0.950 . S
H1269 C1281 0.950 . S
H1270 C1278 0.950 . S
H1271 C1280 0.950 . S
H1272 C1282 0.950 . S
H1273 C1284 0.950 . S
H1274 C1286 0.950 . S
H1275 C1287 0.950 . S
C1276 H1268 0.950 . S
C1276 C1277 1.386 . S
C1276 C1278 1.391 . S
C1277 C1276 1.386 . S
C1277 C1281 1.393 . S
C1278 H1270 0.950 . S
C1278 C1276 1.391 . S
C1278 C1279 1.400 . S
C1279 C1278 1.400 . S
C1279 C1280 1.398 . S
C1279 C1285 1.491 . S
C1280 H1271 0.950 . S
C1280 C1279 1.398 . S
C1280 C1281 1.391 . S
C1281 H1269 0.950 . S
C1281 C1277 1.393 . S
C1281 C1280 1.391 . S
C1282 H1272 0.950 . S
C1282 C1283 1.386 . S
C1282 C1284 1.391 . S
C1283 C1282 1.386 . S
C1283 C1287 1.393 . S
C1284 H1273 0.950 . S
C1284 C1282 1.391 . S
C1284 C1285 1.400 . S
C1285 C1279 1.491 . S
C1285 C1284 1.400 . S
C1285 C1286 1.398 . S
C1286 H1274 0.950 . S
C1286 C1285 1.398 . S
C1286 C1287 1.391 . S
C1287 H1275 0.950 . S
C1287 C1283 1.393 . S
C1287 C1286 1.391 . S
H1288 C1296 0.950 . S
H1289 C1301 0.950 . S
H1290 C1298 0.950 . S
H1291 C1300 0.950 . S
H1292 C1302 0.950 . S
H1293 C1304 0.950 . S
H1294 C1306 0.950 . S
H1295 C1307 0.950 . S
C1296 H1288 0.950 . S
C1296 C1297 1.386 . S
C1296 C1298 1.391 . S
C1297 C1296 1.386 . S
C1297 C1301 1.393 . S
C1298 H1290 0.950 . S
C1298 C1296 1.391 . S
C1298 C1299 1.400 . S
C1299 C1298 1.400 . S
C1299 C1300 1.398 . S
C1299 C1305 1.491 . S
C1300 H1291 0.950 . S
C1300 C1299 1.398 . S
C1300 C1301 1.391 . S
C1301 H1289 0.950 . S
C1301 C1297 1.393 . S
C1301 C1300 1.391 . S
C1302 H1292 0.950 . S
C1302 C1303 1.386 . S
C1302 C1304 1.391 . S
C1303 C1302 1.386 . S
C1303 C1307 1.393 . S
C1304 H1293 0.950 . S
C1304 C1302 1.391 . S
C1304 C1305 1.400 . S
C1305 C1299 1.491 . S
C1305 C1304 1.400 . S
C1305 C1306 1.398 . S
C1306 H1294 0.950 . S
C1306 C1305 1.398 . S
C1306 C1307 1.391 . S
C1307 H1295 0.950 . S
C1307 C1303 1.393 . S
C1307 C1306 1.391 . S
H1308 C1316 0.950 . S
H1309 C1321 0.950 . S
H1310 C1318 0.950 . S
H1311 C1320 0.950 . S
H1312 C1322 0.950 . S
H1313 C1324 0.950 . S
H1314 C1326 0.950 . S
H1315 C1327 0.950 . S
C1316 H1308 0.950 . S
C1316 C1317 1.386 . S
C1316 C1318 1.391 . S
C1317 C1316 1.386 . S
C1317 C1321 1.393 . S
C1318 H1310 0.950 . S
C1318 C1316 1.391 . S
C1318 C1319 1.400 . S
C1319 C1318 1.400 . S
C1319 C1320 1.398 . S
C1319 C1325 1.491 . S
C1320 H1311 0.950 . S
C1320 C1319 1.398 . S
C1320 C1321 1.391 . S
C1321 H1309 0.950 . S
C1321 C1317 1.393 . S
C1321 C1320 1.391 . S
C1322 H1312 0.950 . S
C1322 C1323 1.386 . S
C1322 C1324 1.391 . S
C1323 C1322 1.386 . S
C1323 C1327 1.393 . S
C1324 H1313 0.950 . S
C1324 C1322 1.391 . S
C1324 C1325 1.400 . S
C1325 C1319 1.491 . S
C1325 C1324 1.400 . S
C1325 C1326 1.398 . S
C1326 H1314 0.950 . S
C1326 C1325 1.398 . S
C1326 C1327 1.391 . S
C1327 H1315 0.950 . S
C1327 C1323 1.393 . S
C1327 C1326 1.391 . S
C537 N13 1.429 . S
C543 N2 1.426 . S
C557 N46 1.445 . S
C563 N35 1.443 . S
C577 N79 1.447 . S
C583 N68 1.445 . S
C597 N112 1.445 . S
C603 N101 1.443 . S
C617 N145 1.450 . S
C623 N134 1.448 . S
C637 N178 1.438 . S
C643 N167 1.436 . S
C657 N211 1.435 . S
C663 N200 1.432 . S
C677 N233 1.437 . S
C683 N244 1.439 . S
C697 N266 1.428 . S
C703 N277 1.431 . S
C717 N310 1.429 . S
C723 N299 1.426 . S
C737 N343 1.432 . S
C743 N332 1.429 . S
C757 N365 1.440 . S
C763 N376 1.443 . S
C777 N398 1.448 . S
C783 N409 1.450 . S
C797 N442 1.436 . S
C803 N431 1.433 . S
C817 N464 1.438 . S
C823 N475 1.441 . S
C837 N508 1.450 . S
C843 N497 1.448 . S
C857 C18 1.070 . S
C863 C150 1.071 . S
C877 C183 1.069 . S
C883 C51 1.068 . S
C897 C216 1.073 . S
C903 C84 1.074 . S
C917 C117 1.066 . S
C923 C249 1.066 . S
C937 C348 1.067 . S
C943 C282 1.066 . S
C957 C315 1.075 . S
C963 C381 1.075 . S
C977 C414 1.074 . S
C983 C480 1.073 . S
C997 C447 1.073 . S
C1003 C513 1.073 . S
C1017 C304 1.439 . S
C1023 C7 1.424 . S
C1037 C469 1.426 . S
C1043 C40 1.440 . S
C1057 C73 1.435 . S
C1063 C271 1.426 . S
C1077 C502 1.429 . S
C1083 C106 1.439 . S
C1097 C337 1.435 . S
C1103 C139 1.434 . S
C1117 C436 1.440 . S
C1123 C172 1.427 . S
C1137 C205 1.425 . S
C1143 C370 1.438 . S
C1157 C238 1.430 . S
C1163 C403 1.431 . S
C1177 C153 1.451 . S
C1183 C120 1.457 . S
C1197 C417 1.459 . S
C1203 C285 1.451 . S
C1217 C54 1.450 . S
C1223 C219 1.458 . S
C1237 C450 1.460 . S
C1243 C318 1.450 . S
C1257 C186 1.449 . S
C1263 C21 1.459 . S
C1277 C351 1.459 . S
C1283 C516 1.451 . S
C1297 C252 1.451 . S
C1303 C87 1.459 . S
C1317 C483 1.449 . S
C1323 C384 1.459 . S
