# Generated by pormake.
# Topology mok, (4)-cn, num edge types: 1
# Building blocks:
#     Node 0, Type 0, BuildingBlock: KUFVIS_clean_sbu_0, # of connection points: 4
#     Node 1, Type 0, BuildingBlock: KUFVIS_clean_sbu_0, # of connection points: 4
#     Node 2, Type 0, BuildingBlock: KUFVIS_clean_sbu_0, # of connection points: 4
#     Node 3, Type 0, BuildingBlock: KUFVIS_clean_sbu_0, # of connection points: 4
#     Node 4, Type 0, BuildingBlock: KUFVIS_clean_sbu_0, # of connection points: 4
#     Node 5, Type 0, BuildingBlock: KUFVIS_clean_sbu_0, # of connection points: 4
#     Node 6, Type 0, BuildingBlock: KUFVIS_clean_sbu_0, # of connection points: 4
#     Node 7, Type 0, BuildingBlock: KUFVIS_clean_sbu_0, # of connection points: 4
#     Edge 8, Type (0, 0), BuildingBlock: EZIPEK_clean_linker_0, # of connection points: 2
#     Edge 9, Type (0, 0), BuildingBlock: EZIPEK_clean_linker_0, # of connection points: 2
#     Edge 10, Type (0, 0), BuildingBlock: EZIPEK_clean_linker_0, # of connection points: 2
#     Edge 11, Type (0, 0), BuildingBlock: EZIPEK_clean_linker_0, # of connection points: 2
#     Edge 12, Type (0, 0), BuildingBlock: EZIPEK_clean_linker_0, # of connection points: 2
#     Edge 13, Type (0, 0), BuildingBlock: EZIPEK_clean_linker_0, # of connection points: 2
#     Edge 14, Type (0, 0), BuildingBlock: EZIPEK_clean_linker_0, # of connection points: 2
#     Edge 15, Type (0, 0), BuildingBlock: EZIPEK_clean_linker_0, # of connection points: 2
#     Edge 16, Type (0, 0), BuildingBlock: EZIPEK_clean_linker_0, # of connection points: 2
#     Edge 17, Type (0, 0), BuildingBlock: EZIPEK_clean_linker_0, # of connection points: 2
#     Edge 18, Type (0, 0), BuildingBlock: EZIPEK_clean_linker_0, # of connection points: 2
#     Edge 19, Type (0, 0), BuildingBlock: EZIPEK_clean_linker_0, # of connection points: 2
#     Edge 20, Type (0, 0), BuildingBlock: EZIPEK_clean_linker_0, # of connection points: 2
#     Edge 21, Type (0, 0), BuildingBlock: EZIPEK_clean_linker_0, # of connection points: 2
#     Edge 22, Type (0, 0), BuildingBlock: EZIPEK_clean_linker_0, # of connection points: 2
#     Edge 23, Type (0, 0), BuildingBlock: EZIPEK_clean_linker_0, # of connection points: 2
# Relax obj value: 0.031
# Max RMSD: 0.053
# Mean RMSD: 0.053
data_MOF--net-mok--node1-KUFVIS_clean_sbu_0--edge1-EZIPEK_clean_linker_0
_symmetry_space_group_name_H-M    P1
_symmetry_Int_Tables_number       1
_symmetry_cell_setting            triclinic
loop_
_symmetry_equiv_pos_as_xyz
'x, y, z'
_cell_length_a     41.946576
_cell_length_b     11.898086
_cell_length_c     18.938991
_cell_angle_alpha  89.363963
_cell_angle_beta   90.410018
_cell_angle_gamma 89.472094
loop_
_atom_site_label
_atom_site_type_symbol
_atom_site_fract_x
_atom_site_fract_y
_atom_site_fract_z
_atom_type_partial_charge
Mn0 Mn 0.6041 0.29264 1.00711 0.0
Mn1 Mn 0.53778 0.41961 0.01884 0.0
C2 C 0.58542 0.37916 0.8964 0.0
C3 C 0.66052 0.29734 0.01361 0.0
C4 C 0.54004 0.1683 0.04252 0.0
O5 O 0.60068 0.34478 0.11524 0.0
O6 O 0.56248 0.4742 0.09997 0.0
C7 C 0.5563 0.66338 0.99303 0.0
N8 N 0.53567 0.57684 0.98657 0.0
C9 C 0.49954 0.71615 0.90559 0.0
C10 C 0.52581 0.78563 0.90767 0.0
C11 C 0.55167 0.76542 0.95473 0.0
C12 C 0.50759 0.59463 0.95739 0.0
H13 H 0.57795 0.65163 0.0237 0.0
C14 C 0.58537 0.43316 0.13674 0.0
O15 O 0.64496 0.20515 0.0253 0.0
O16 O 0.64347 0.38603 1.00087 0.0
N17 N 0.5118 0.36382 0.94275 0.0
C18 C 0.51157 0.26089 0.88563 0.0
C19 C 0.48366 0.24779 0.81015 0.0
C20 C 0.45173 0.34728 0.78882 0.0
C21 C 0.44649 0.47427 0.83861 0.0
C22 C 0.48994 0.46945 0.94504 0.0
H23 H 0.53231 0.20803 0.88502 0.0
O24 O 0.60355 0.29026 0.89806 0.0
O25 O 0.57687 0.4062 0.96096 0.0
O26 O 0.56783 0.16163 0.01355 0.0
O27 O 0.5315 0.26541 0.06298 0.0
C28 C 0.44443 0.61616 0.80152 0.0
C29 C 0.47006 0.72874 0.83325 0.0
H30 H 0.52813 0.84846 0.86697 0.0
H31 H 0.57051 0.82689 0.95665 0.0
H32 H 0.4867 0.17624 0.77614 0.0
H33 H 0.43559 0.32937 0.74639 0.0
H34 H 0.43119 0.63218 0.75356 0.0
H35 H 0.47021 0.80481 0.80155 0.0
Mn36 Mn 0.3591 0.73787 0.03966 0.0
Mn37 Mn 0.41816 0.55891 0.04996 0.0
C38 C 0.37384 0.64263 0.93173 0.0
C39 C 0.30308 0.76183 0.04264 0.0
C40 C 0.43215 0.81568 0.05424 0.0
O41 O 0.35881 0.68811 0.14698 0.0
O42 O 0.40182 0.5782 0.14662 0.0
C43 C 0.37495 0.37685 0.09025 0.0
N44 N 0.39956 0.415 0.04992 0.0
C45 C 0.40894 0.23381 1.00493 0.0
C46 C 0.38479 0.19041 0.04792 0.0
C47 C 0.36718 0.26317 0.08992 0.0
C48 C 0.41505 0.34783 1.00509 0.0
H49 H 0.36059 0.43273 0.12075 0.0
C50 C 0.3771 0.61506 0.17751 0.0
O51 O 0.32195 0.84594 0.05422 0.0
O52 O 0.31654 0.66649 0.03103 0.0
N53 N 0.4357 0.52074 0.9623 0.0
C54 C 0.45378 0.6028 0.92221 0.0
C55 C 0.49426 0.55194 0.84035 0.0
C56 C 0.49749 0.43041 0.83328 0.0
C57 C 0.45925 0.32913 0.91037 0.0
C58 C 0.43587 0.39926 0.95831 0.0
H59 H 0.44586 0.68616 0.93726 0.0
O60 O 0.36012 0.74062 0.93106 0.0
O61 O 0.38053 0.61083 0.99702 0.0
O62 O 0.40189 0.84083 0.04912 0.0
O63 O 0.44086 0.71132 0.05443 0.0
C64 C 0.4518 0.20829 0.92279 0.0
C65 C 0.42686 0.16606 0.96294 0.0
H66 H 0.37931 0.10155 0.04828 0.0
H67 H 0.34785 0.23194 0.12198 0.0
H68 H 0.51232 0.59883 0.81088 0.0
H69 H 0.5164 0.40463 0.79682 0.0
H70 H 0.46405 0.13843 0.89997 0.0
H71 H 0.42155 0.07755 0.96209 0.0
Mn72 Mn 0.6172 0.80157 0.53439 0.0
Mn73 Mn 0.55626 0.6592 0.5063 0.0
C74 C 0.59764 0.69413 0.63588 0.0
C75 C 0.67197 0.8165 0.53573 0.0
C76 C 0.5464 0.9005 0.53093 0.0
O77 O 0.62118 0.76195 0.42527 0.0
O78 O 0.571 0.73194 0.41937 0.0
C79 C 0.59672 0.48105 0.4377 0.0
N80 N 0.57087 0.517 0.47431 0.0
C81 C 0.5405 0.35744 0.44298 0.0
C82 C 0.56574 0.3205 0.4003 0.0
C83 C 0.59455 0.38042 0.39984 0.0
C84 C 0.54526 0.45387 0.48186 0.0
H85 H 0.61834 0.52946 0.43657 0.0
C86 C 0.59762 0.72619 0.38958 0.0
O87 O 0.65421 0.90582 0.52714 0.0
O88 O 0.65809 0.72152 0.54508 0.0
N89 N 0.53554 0.58759 0.57849 0.0
C90 C 0.52303 0.64567 0.64691 0.0
C91 C 0.48938 0.61702 0.69048 0.0
C92 C 0.46389 0.50776 0.66035 0.0
C93 C 0.49142 0.42297 0.54527 0.0
C94 C 0.52468 0.49057 0.5313 0.0
H95 H 0.53524 0.71959 0.66499 0.0
O96 O 0.61231 0.78909 0.64248 0.0
O97 O 0.59338 0.67085 0.56864 0.0
O98 O 0.5766 0.92025 0.52365 0.0
O99 O 0.53761 0.80045 0.53497 0.0
C100 C 0.48686 0.33674 0.49351 0.0
C101 C 0.51098 0.30369 0.44622 0.0
H102 H 0.56351 0.24525 0.36902 0.0
H103 H 0.61447 0.35133 0.36874 0.0
H104 H 0.4731 0.56276 0.68257 0.0
H105 H 0.43761 0.48271 0.68125 0.0
H106 H 0.46569 0.29085 0.48881 0.0
H107 H 0.50639 0.23474 0.41091 0.0
Mn108 Mn 0.35438 0.22265 0.56687 0.0
Mn109 Mn 0.39937 0.39969 0.51987 0.0
C110 C 0.36726 0.34125 0.67104 0.0
C111 C 0.29954 0.20724 0.55569 0.0
C112 C 0.41848 0.14544 0.53546 0.0
O113 O 0.35837 0.22542 0.45096 0.0
O114 O 0.35924 0.39724 0.47019 0.0
C115 C 0.36386 0.61513 0.51119 0.0
N116 N 0.39111 0.55609 0.52775 0.0
C117 C 0.42263 0.72027 0.51425 0.0
C118 C 0.39502 0.78333 0.49821 0.0
C119 C 0.36542 0.73049 0.49707 0.0
C120 C 0.41973 0.60554 0.52654 0.0
H121 H 0.34096 0.57456 0.50824 0.0
C122 C 0.3561 0.32492 0.4253 0.0
O123 O 0.31749 0.11752 0.5573 0.0
O124 O 0.31332 0.30314 0.55889 0.0
N125 N 0.43682 0.41777 0.56832 0.0
C126 C 0.45286 0.32411 0.61629 0.0
C127 C 0.48855 0.32562 0.65597 0.0
C128 C 0.51238 0.4474 0.6487 0.0
C129 C 0.47974 0.59679 0.5672 0.0
C130 C 0.44527 0.53814 0.54461 0.0
H131 H 0.43849 0.25524 0.63241 0.0
O132 O 0.35148 0.24888 0.67478 0.0
O133 O 0.37854 0.35532 0.60717 0.0
O134 O 0.39516 0.1192 0.5754 0.0
O135 O 0.41515 0.23734 0.49917 0.0
C136 C 0.47789 0.71697 0.55565 0.0
C137 C 0.45184 0.77169 0.52389 0.0
H138 H 0.39619 0.87317 0.4885 0.0
H139 H 0.34396 0.77822 0.48478 0.0
H140 H 0.5042 0.38182 0.65784 0.0
H141 H 0.53766 0.46507 0.67683 0.0
H142 H 0.49127 0.77677 0.58463 0.0
H143 H 0.45276 0.86104 0.5177 0.0
Mn144 Mn 0.10883 0.74944 0.02231 0.0
Mn145 Mn 0.04707 0.88948 0.06519 0.0
C146 C 0.08663 0.8574 0.92356 0.0
C147 C 0.16505 0.74169 0.02657 0.0
C148 C 0.04353 0.64088 0.05402 0.0
O149 O 0.11017 0.76907 0.13406 0.0
O150 O 0.07758 0.91547 0.13904 0.0
C151 C 0.07228 0.12581 0.06446 0.0
N152 N 0.04801 0.05269 0.05311 0.0
C153 C 0.01588 0.22633 0.99816 0.0
C154 C 0.04323 0.28867 0.01016 0.0
C155 C 0.06977 0.24106 0.04571 0.0
C156 C 0.01942 0.09094 0.03615 0.0
H157 H 0.0949 0.09488 0.08481 0.0
C158 C 0.10026 0.85881 0.16466 0.0
O159 O 0.14822 0.65046 0.02864 0.0
O160 O 0.1495 0.83535 0.02052 0.0
N161 N 0.01435 0.86523 0.9976 0.0
C162 C 0.01013 0.77892 0.93014 0.0
C163 C -0.01843 0.79882 0.85711 0.0
C164 C 0.9527 0.92017 0.84905 0.0
C165 C 0.95332 0.03383 0.91076 0.0
C166 C -0.00383 0.98023 0.01366 0.0
H167 H 0.01752 0.81983 0.97626 0.0
O168 O 0.10487 0.76988 0.91584 0.0
O169 O 0.08137 0.87698 0.99148 0.0
O170 O 0.06989 0.63117 0.01999 0.0
O171 O 0.04051 0.72776 0.09186 0.0
C172 C 0.95678 0.18387 0.89063 0.0
C173 C -0.01281 0.26969 0.93059 0.0
H174 H 0.04551 0.3715 0.98767 0.0
H175 H 0.09046 0.29327 0.05373 0.0
H176 H 0.96511 0.85566 0.84667 0.0
H177 H 0.93011 0.92963 0.81479 0.0
H178 H 0.94044 0.22731 0.85532 0.0
H179 H -0.00668 0.34224 0.90008 0.0
Mn180 Mn 0.85673 0.28763 0.99905 0.0
Mn181 Mn 0.90078 0.10851 0.06048 0.0
C182 C 0.87247 0.16578 0.8965 0.0
C183 C 0.79991 0.30689 1.00482 0.0
C184 C 0.92089 0.36302 0.03442 0.0
O185 O 0.85908 0.30475 0.11494 0.0
O186 O 0.85871 0.1422 0.0889 0.0
C187 C 0.85724 0.91874 0.08395 0.0
N188 N 0.88597 0.9584 0.0594 0.0
C189 C 0.90245 0.77393 0.03354 0.0
C190 C 0.87342 0.73137 0.05745 0.0
C191 C 0.85073 0.80454 0.08354 0.0
C192 C 0.90905 0.88783 0.03852 0.0
H193 H 0.83877 0.97164 0.1051 0.0
C194 C 0.85608 0.2061 0.13803 0.0
O195 O 0.81838 0.39395 1.003 0.0
O196 O 0.81419 0.21104 1.00251 0.0
N197 N 0.94141 0.05383 0.03168 0.0
C198 C 0.96583 0.13237 1.00691 0.0
C199 C 0.00374 0.08443 0.91769 0.0
C200 C 0.00197 0.96643 0.89854 0.0
C201 C 0.9607 0.8665 0.96642 0.0
C202 C 0.93824 0.93434 0.0178 0.0
H203 H 0.96522 0.20797 0.0373 0.0
O204 O 0.85597 0.25734 0.89331 0.0
O205 O 0.88332 0.14582 0.96211 0.0
O206 O 0.89718 0.3879 0.99402 0.0
O207 O 0.91948 0.27 0.0704 0.0
C208 C 0.95053 0.74787 0.96985 0.0
C209 C 0.92374 0.70534 1.00193 0.0
H210 H 0.86813 0.64245 0.05485 0.0
H211 H 0.82816 0.77341 0.10256 0.0
H212 H 0.02289 0.12973 0.89049 0.0
H213 H 0.01935 0.94192 0.85841 0.0
H214 H 0.96139 0.68164 0.94235 0.0
H215 H 0.91773 0.61799 0.99581 0.0
Mn216 Mn 0.10807 0.25349 0.55099 0.0
Mn217 Mn 0.04536 0.11343 0.5335 0.0
C218 C 0.08864 0.16396 0.65989 0.0
C219 C 0.16325 0.24939 0.54552 0.0
C220 C 0.04232 0.3669 0.51772 0.0
O221 O 0.10666 0.21139 0.44068 0.0
O222 O 0.07025 0.08158 0.45175 0.0
C223 C 0.07264 0.87507 0.53564 0.0
N224 N 0.04996 0.95286 0.55178 0.0
C225 C 0.01636 0.78514 0.60734 0.0
C226 C 0.043 0.71816 0.59356 0.0
C227 C 0.06935 0.76049 0.55566 0.0
C228 C 0.0219 0.92051 0.57213 0.0
H229 H 0.09438 0.9015 0.51026 0.0
C230 C 0.0916 0.12656 0.4154 0.0
O231 O 0.14762 0.34326 0.53557 0.0
O232 O 0.14702 0.16032 0.55835 0.0
N233 N 0.0187 0.14383 0.61149 0.0
C234 C 0.01467 0.22897 0.67832 0.0
C235 C -0.01442 0.2154 0.74973 0.0
C236 C 0.9548 0.10086 0.75322 0.0
C237 C 0.95486 0.98929 0.68991 0.0
C238 C 0.00018 0.03532 0.59396 0.0
H239 H 0.03267 0.29087 0.68566 0.0
O240 O 0.10645 0.25239 0.66082 0.0
O241 O 0.08218 0.13699 0.59426 0.0
O242 O 0.07065 0.37977 0.54321 0.0
O243 O 0.0336 0.26887 0.5017 0.0
C244 C 0.95626 0.83714 0.70964 0.0
C245 C -0.01381 0.74459 0.67161 0.0
H246 H 0.04508 0.6355 0.61605 0.0
H247 H 0.08904 0.70376 0.5453 0.0
H248 H 0.96804 0.16291 0.7581 0.0
H249 H 0.93182 0.09452 0.78524 0.0
H250 H 0.93988 0.79684 0.74459 0.0
H251 H -0.01136 0.66365 0.69634 0.0
Mn252 Mn 0.86152 0.7871 0.51477 0.0
Mn253 Mn 0.92149 0.94991 0.48491 0.0
C254 C 0.88039 0.8816 0.62064 0.0
C255 C 0.80683 0.77056 0.51758 0.0
C256 C 0.93099 0.6942 0.486 0.0
O257 O 0.85695 0.82658 0.40607 0.0
O258 O 0.89861 0.93711 0.39646 0.0
C259 C 0.88168 0.14642 0.45158 0.0
N260 N 0.90625 0.09883 0.48982 0.0
C261 C 0.91334 0.26653 0.55208 0.0
C262 C 0.88883 0.31875 0.51278 0.0
C263 C 0.87286 0.25789 0.46185 0.0
C264 C 0.92193 0.15578 0.53929 0.0
H265 H 0.86783 0.09985 0.4151 0.0
C266 C 0.87352 0.89692 0.37079 0.0
O267 O 0.82462 0.68242 0.50674 0.0
O268 O 0.8206 0.86569 0.52621 0.0
N269 N 0.94709 0.97739 0.5637 0.0
C270 C 0.96774 0.88963 0.59509 0.0
C271 C 0.00457 0.92609 0.6891 0.0
C272 C 0.00415 0.04428 0.70944 0.0
C273 C 0.96509 0.15623 0.63776 0.0
C274 C 0.9445 0.09621 0.57975 0.0
H275 H 0.96323 0.81031 0.57173 0.0
O276 O 0.86597 0.7861 0.62147 0.0
O277 O 0.88582 0.9135 0.55357 0.0
O278 O 0.90184 0.67555 0.5043 0.0
O279 O 0.93968 0.79443 0.47162 0.0
C280 C 0.95442 0.27629 0.63923 0.0
C281 C 0.92822 0.32195 0.60465 0.0
H282 H 0.88183 0.40527 0.52207 0.0
H283 H 0.85343 0.29566 0.43176 0.0
H284 H 0.02135 0.8743 0.72024 0.0
H285 H 0.02068 0.06311 0.75282 0.0
H286 H 0.96413 0.3419 0.67112 0.0
H287 H 0.91906 0.40306 0.61931 0.0
C288 C 0.74823 0.25301 0.06482 0.0
C289 C 0.76418 0.31287 0.00988 0.0
C290 C 0.71199 0.35262 0.95384 0.0
C291 C 0.69618 0.30219 0.01234 0.0
N292 N 0.69957 0.22858 0.1312 0.0
N293 N 0.76046 0.43194 0.90595 0.0
C294 C 0.71439 0.25898 0.06991 0.0
C295 C 0.74577 0.36769 0.95612 0.0
N296 N 0.76518 0.1883 0.11201 0.0
N297 N 0.69507 0.37933 0.89385 0.0
H298 H 0.78511 0.43846 0.90188 0.0
H299 H 0.74808 0.48504 0.87107 0.0
H300 H 0.67072 0.3648 0.88827 0.0
H301 H 0.70561 0.40496 0.84682 0.0
H302 H 0.75456 0.13138 0.14659 0.0
H303 H 0.78992 0.18502 0.11354 0.0
H304 H 0.7119 0.20867 0.17769 0.0
H305 H 0.67496 0.23449 0.138 0.0
C306 C 0.219 0.73043 0.97007 0.0
C307 C 0.20055 0.7419 0.03206 0.0
C308 C 0.24947 0.77627 0.10144 0.0
C309 C 0.26765 0.77079 0.03869 0.0
N310 N 0.2698 0.75945 0.91197 0.0
N311 N 0.19724 0.78334 0.15603 0.0
C312 C 0.25237 0.75245 0.97262 0.0
C313 C 0.21555 0.76739 0.09753 0.0
N314 N 0.20462 0.69642 0.90899 0.0
N315 N 0.26479 0.78479 0.16511 0.0
H316 H 0.17282 0.76802 0.15656 0.0
H317 H 0.20582 0.81624 0.2031 0.0
H318 H 0.28939 0.79518 0.1696 0.0
H319 H 0.25359 0.77572 0.21365 0.0
H320 H 0.217 0.67461 0.86367 0.0
H321 H 0.1802 0.68143 0.90511 0.0
H322 H 0.25992 0.75754 0.86146 0.0
H323 H 0.2941 0.77728 0.91198 0.0
C324 C 0.75388 0.7842 0.45974 0.0
C325 C 0.77205 0.76673 0.52219 0.0
C326 C 0.72457 0.79224 0.59462 0.0
C327 C 0.70685 0.8177 0.53235 0.0
N328 N 0.70444 0.8523 0.40676 0.0
N329 N 0.77649 0.76268 0.64914 0.0
C330 C 0.7215 0.81832 0.46513 0.0
C331 C 0.75787 0.77278 0.58975 0.0
N332 N 0.76762 0.76622 0.39552 0.0
N333 N 0.70934 0.78484 0.65813 0.0
H334 H 0.80064 0.74099 0.64749 0.0
H335 H 0.76852 0.7803 0.69977 0.0
H336 H 0.68536 0.80644 0.66438 0.0
H337 H 0.71996 0.75288 0.70406 0.0
H338 H 0.75514 0.76779 0.34785 0.0
H339 H 0.79131 0.74021 0.39036 0.0
H340 H 0.7144 0.86468 0.35715 0.0
H341 H 0.68056 0.877 0.4089 0.0
C342 C 0.2156 0.28813 0.60256 0.0
C343 C 0.19829 0.24153 0.54565 0.0
C344 C 0.24765 0.16451 0.49615 0.0
C345 C 0.26452 0.20471 0.55548 0.0
N346 N 0.26405 0.2816 0.67273 0.0
N347 N 0.19652 0.11595 0.44612 0.0
C348 C 0.24833 0.26011 0.61087 0.0
C349 C 0.21391 0.17351 0.49487 0.0
N350 N 0.20079 0.35806 0.64914 0.0
N351 N 0.26385 0.12268 0.43967 0.0
H352 H 0.17181 0.12192 0.44232 0.0
H353 H 0.20636 0.05566 0.41306 0.0
H354 H 0.2886 0.11351 0.43902 0.0
H355 H 0.25299 0.10503 0.39147 0.0
H356 H 0.21303 0.40487 0.68654 0.0
H357 H 0.17643 0.37591 0.64753 0.0
H358 H 0.25289 0.31176 0.71773 0.0
H359 H 0.28777 0.25811 0.68162 0.0
C360 C 0.56538 0.54526 0.24087 0.0
C361 C 0.59199 0.49596 0.20632 0.0
C362 C 0.62623 0.6048 0.29015 0.0
C363 C 0.59894 0.66406 0.31757 0.0
N364 N 0.54458 0.71747 0.28857 0.0
N365 N 0.64913 0.4983 0.19275 0.0
C366 C 0.56924 0.6424 0.28338 0.0
C367 C 0.62288 0.53098 0.22963 0.0
N368 N 0.53592 0.49855 0.23415 0.0
N369 N 0.65535 0.61621 0.32156 0.0
H370 H 0.6479 0.44479 0.14974 0.0
H371 H 0.67174 0.531 0.20165 0.0
H372 H 0.66003 0.67415 0.36078 0.0
H373 H 0.6747 0.56402 0.31037 0.0
H374 H 0.51625 0.52744 0.26234 0.0
H375 H 0.53229 0.42318 0.20766 0.0
H376 H 0.52312 0.70795 0.26117 0.0
H377 H 0.54737 0.79614 0.31154 0.0
C378 C 0.39409 0.50915 0.2888 0.0
C379 C 0.36845 0.54963 0.24548 0.0
C380 C 0.33339 0.41882 0.31383 0.0
C381 C 0.36007 0.36898 0.34975 0.0
N382 N 0.4169 0.34989 0.3523 0.0
N383 N 0.31301 0.52365 0.21204 0.0
C384 C 0.39068 0.4093 0.33093 0.0
C385 C 0.33781 0.49938 0.25684 0.0
N386 N 0.42193 0.56763 0.29079 0.0
N387 N 0.30347 0.39112 0.33541 0.0
H388 H 0.3142 0.58227 0.17116 0.0
H389 H 0.29168 0.47947 0.2126 0.0
H390 H 0.29953 0.32851 0.37337 0.0
H391 H 0.283 0.43395 0.31839 0.0
H392 H 0.44051 0.54775 0.32575 0.0
H393 H 0.42476 0.64359 0.2635 0.0
H394 H 0.44006 0.37016 0.33746 0.0
H395 H 0.41446 0.27106 0.37549 0.0
C396 C 0.37174 0.61139 0.79333 0.0
C397 C 0.37251 0.56565 0.86415 0.0
C398 C 0.3717 0.37564 0.80764 0.0
C399 C 0.37046 0.42051 0.73701 0.0
N400 N 0.35388 0.58508 0.67206 0.0
N401 N 0.35332 0.4037 0.92732 0.0
C402 C 0.36634 0.53985 0.73252 0.0
C403 C 0.36702 0.44727 0.86828 0.0
N404 N 0.3771 0.72327 0.78249 0.0
N405 N 0.37732 0.26365 0.8181 0.0
H406 H 0.34534 0.45459 0.96809 0.0
H407 H 0.34585 0.32049 0.93082 0.0
H408 H 0.38357 0.20973 0.77738 0.0
H409 H 0.37917 0.22749 0.86825 0.0
H410 H 0.37928 0.75872 0.73219 0.0
H411 H 0.38401 0.77719 0.82256 0.0
H412 H 0.34754 0.66964 0.66658 0.0
H413 H 0.34528 0.53388 0.63216 0.0
C414 C 0.58693 0.4188 0.75859 0.0
C415 C 0.58698 0.46094 0.82948 0.0
C416 C 0.59157 0.65275 0.77281 0.0
C417 C 0.59358 0.61102 0.70193 0.0
N418 N 0.60474 0.4417 0.63674 0.0
N419 N 0.60782 0.61692 0.89437 0.0
C420 C 0.59505 0.49033 0.69787 0.0
C421 C 0.59435 0.57793 0.83397 0.0
N422 N 0.57822 0.31009 0.74782 0.0
N423 N 0.58688 0.76486 0.78318 0.0
H424 H 0.61322 0.56447 0.9373 0.0
H425 H 0.617 0.69785 0.89811 0.0
H426 H 0.5808 0.82082 0.74252 0.0
H427 H 0.58556 0.79977 0.83317 0.0
H428 H 0.57443 0.27742 0.69764 0.0
H429 H 0.57135 0.25665 0.78883 0.0
H430 H 0.60859 0.35544 0.63221 0.0
H431 H 0.61268 0.48802 0.59355 0.0
C432 C 0.08546 0.88395 0.28743 0.0
C433 C 0.10953 0.89846 0.2371 0.0
C434 C 0.12553 0.07149 0.30241 0.0
C435 C 0.09777 0.06387 0.34565 0.0
N436 N 0.04384 0.99009 0.34179 0.0
N437 N 0.15052 0.01805 0.19124 0.0
C438 C 0.07557 0.97735 0.32771 0.0
C439 C 0.12943 0.99505 0.2438 0.0
N440 N 0.06911 0.78551 0.29012 0.0
N441 N 0.14729 0.15353 0.31408 0.0
H442 H 0.15385 0.96377 0.14897 0.0
H443 H 0.16314 0.09284 0.18754 0.0
H444 H 0.14343 0.219 0.34898 0.0
H445 H 0.16955 0.15469 0.29003 0.0
H446 H 0.05168 0.76996 0.32799 0.0
H447 H 0.07538 0.71733 0.25863 0.0
H448 H 0.03414 0.06615 0.35881 0.0
H449 H 0.02683 0.93184 0.32601 0.0
C450 C 0.83595 0.03256 0.30249 0.0
C451 C 0.86292 0.95757 0.3032 0.0
C452 C 0.88914 0.08659 0.22 0.0
C453 C 0.86145 0.15479 0.21133 0.0
N454 N 0.80813 0.19382 0.24801 0.0
N455 N 0.91084 0.90091 0.24443 0.0
C456 C 0.83467 0.12738 0.25375 0.0
C457 C 0.88764 0.98005 0.25463 0.0
N458 N 0.81241 0.01702 0.35087 0.0
N459 N 0.91772 0.12811 0.19967 0.0
H460 H 0.9102 0.82233 0.26954 0.0
H461 H 0.92839 0.90962 0.20605 0.0
H462 H 0.93927 0.08507 0.20701 0.0
H463 H 0.91977 0.21311 0.18783 0.0
H464 H 0.79412 0.07475 0.35963 0.0
H465 H 0.81179 0.94695 0.38416 0.0
H466 H 0.78626 0.1741 0.27038 0.0
H467 H 0.8083 0.26884 0.21882 0.0
C468 C 0.87297 0.07488 0.69253 0.0
C469 C 0.87804 0.95547 0.69167 0.0
C470 C 0.87097 0.9711 0.82621 0.0
C471 C 0.87478 0.09077 0.8267 0.0
N472 N 0.87984 0.25274 0.74652 0.0
N473 N 0.88094 0.79118 0.76965 0.0
C474 C 0.87551 0.14052 0.75635 0.0
C475 C 0.87607 0.90437 0.76191 0.0
N476 N 0.86295 0.13065 0.63357 0.0
N477 N 0.86128 0.91957 0.88692 0.0
H478 H 0.88718 0.73838 0.72858 0.0
H479 H 0.88352 0.75146 0.81866 0.0
H480 H 0.8563 0.96444 0.93245 0.0
H481 H 0.85451 0.83565 0.88974 0.0
H482 H 0.85645 0.09035 0.58714 0.0
H483 H 0.85645 0.09035 0.58714 0.0
H484 H 0.8851 0.30856 0.78692 0.0
H485 H 0.8851 0.30856 0.78692 0.0
C486 C 0.08777 0.05949 0.86069 0.0
C487 C 0.0831 0.94051 0.85794 0.0
C488 C 0.08903 0.96685 0.72656 0.0
C489 C 0.08531 0.08643 0.72818 0.0
N490 N 0.07789 0.24337 0.80702 0.0
N491 N 0.07458 0.78657 0.77797 0.0
C492 C 0.08332 0.13131 0.79837 0.0
C493 C 0.08191 0.89676 0.78763 0.0
N494 N 0.10073 0.10393 0.91994 0.0
N495 N 0.1037 0.9194 0.6704 0.0
H496 H 0.06719 0.73424 0.81914 0.0
H497 H 0.07233 0.752 0.72787 0.0
H498 H 0.11337 0.96773 0.62976 0.0
H499 H 0.11022 0.83459 0.66988 0.0
H500 H 0.10767 0.18773 0.92268 0.0
H501 H 0.109 0.05313 0.96141 0.0
H502 H 0.07363 0.27787 0.85652 0.0
H503 H 0.07485 0.29931 0.7648 0.0
C504 C 0.47325 0.94681 0.98923 0.0
C505 C 0.45924 0.90928 0.0538 0.0
C506 C 0.49914 0.03776 0.1141 0.0
C507 C 0.51511 0.06678 0.04929 0.0
N508 N 0.51897 0.02556 0.92707 0.0
N509 N 0.46323 0.91293 0.18019 0.0
C510 C 0.50254 0.01315 0.98798 0.0
C511 C 0.47359 0.95339 0.11679 0.0
N512 N 0.45793 0.92079 0.92789 0.0
N513 N 0.50834 0.0911 0.17418 0.0
H514 H 0.44452 0.85598 0.18399 0.0
H515 H 0.47438 0.92967 0.22817 0.0
H516 H 0.52786 0.14475 0.1756 0.0
H517 H 0.49585 0.08637 0.22141 0.0
H518 H 0.46442 0.95101 0.87847 0.0
H519 H 0.43626 0.87852 0.92704 0.0
H520 H 0.50943 0.01457 0.87687 0.0
H521 H 0.54331 0.04242 0.92756 0.0
C522 C 0.5022 1.01045 0.59636 0.0
C523 C 0.51812 0.98762 0.53154 0.0
C524 C 0.46824 0.06004 0.46953 0.0
C525 C 0.45174 0.07986 0.53475 0.0
N526 N 0.45304 0.04403 0.661 0.0
N527 N 0.51445 0.98499 0.40546 0.0
C528 C 0.46886 0.04689 0.59824 0.0
C529 C 0.50055 0.01245 0.46806 0.0
N530 N 0.51939 0.99743 0.65748 0.0
N531 N 0.4521 0.08094 0.40792 0.0
H532 H 0.53806 0.95703 0.40263 0.0
H533 H 0.50291 0.98724 0.35671 0.0
H534 H 0.42746 0.09273 0.40659 0.0
H535 H 0.46267 0.08535 0.35848 0.0
H536 H 0.51136 0.02266 0.70673 0.0
H537 H 0.54321 0.97106 0.65767 0.0
H538 H 0.46236 1.00714 0.70685 0.0
H539 H 0.42941 0.06881 0.66671 0.0
C540 C -0.00294 0.52316 0.11094 0.0
C541 C 0.01433 0.55724 0.04915 0.0
C542 C 0.96753 0.48316 0.97902 0.0
C543 C 0.95164 0.43948 0.04017 0.0
N544 N 0.95228 0.42645 0.16675 0.0
N545 N 0.01719 0.54167 0.92266 0.0
C546 C 0.967 0.46169 0.10654 0.0
C547 C -0.00012 0.52825 0.98306 0.0
N548 N 0.00935 0.5507 0.17525 0.0
N549 N 0.952 0.4821 0.91504 0.0
H550 H 0.04068 0.56873 0.92255 0.0
H551 H 0.00944 0.51842 0.87266 0.0
H552 H 0.93024 0.44394 0.90612 0.0
H553 H 0.96022 0.52367 0.87015 0.0
H554 H -0.00358 0.54693 0.22167 0.0
H555 H 0.03243 0.58086 0.18192 0.0
H556 H 0.96337 0.42116 0.216 0.0
H557 H 0.92851 0.40186 0.16712 0.0
C558 C 0.00596 0.50238 0.44128 0.0
C559 C 0.01651 0.46272 0.50911 0.0
C560 C 0.96739 0.55608 0.55871 0.0
C561 C 0.9581 0.6028 0.49168 0.0
N562 N 0.97284 0.63133 0.37037 0.0
N563 N 0.00968 0.47383 0.63346 0.0
C564 C 0.97878 0.57898 0.4336 0.0
C565 C -0.00248 0.49536 0.56783 0.0
N566 N 0.02164 0.46493 0.38311 0.0
N567 N 0.94799 0.57425 0.61512 0.0
H568 H 0.03369 0.45303 0.64026 0.0
H569 H -0.00195 0.48745 0.68079 0.0
H570 H 0.92722 0.62261 0.61261 0.0
H571 H 0.95143 0.53742 0.66465 0.0
H572 H 0.01323 0.47768 0.33183 0.0
H573 H 0.04222 0.41516 0.38664 0.0
H574 H -0.01067 0.63341 0.32962 0.0
H575 H 0.95227 0.67909 0.36053 0.0
loop_
_geom_bond_atom_site_label_1
_geom_bond_atom_site_label_2
_geom_bond_distance
_geom_bond_site_symmetry_2
_ccdc_geom_bond_type
Mn0 O5 2.095 . S
Mn0 O15 2.162 . S
Mn0 O16 2.297 . S
Mn0 O24 2.385 1_554 S
Mn0 O25 2.209 1_554 S
Mn0 O26 2.094 . S
Mn1 O6 2.121 . S
Mn1 N8 2.257 1_554 S
Mn1 N17 2.282 1_554 S
Mn1 O25 2.215 1_554 S
Mn1 O27 2.117 . S
C2 O24 1.234 . S
C2 O25 1.283 . S
C3 O15 1.281 . S
C3 O16 1.236 . S
C4 O26 1.240 . S
C4 O27 1.264 . S
O5 Mn0 2.095 . S
O5 C14 1.250 . S
O6 Mn1 2.121 . S
O6 C14 1.258 . S
C7 N8 1.326 1_554 S
C7 C11 1.460 1_554 S
C7 H13 0.929 . S
N8 Mn1 2.257 1_556 S
N8 C7 1.326 1_556 S
N8 C12 1.362 . S
C9 C10 1.258 . S
C9 C12 1.431 . S
C9 C29 1.449 . S
C10 C9 1.258 . S
C10 C11 1.477 . S
C10 H30 0.931 . S
C11 C7 1.460 1_556 S
C11 C10 1.477 . S
C11 H31 0.930 1_556 S
C12 N8 1.362 . S
C12 C9 1.431 . S
C12 C22 1.476 . S
H13 C7 0.929 . S
C14 O5 1.250 . S
C14 O6 1.258 . S
O15 Mn0 2.162 . S
O15 C3 1.281 . S
O16 Mn0 2.297 . S
O16 C3 1.236 . S
N17 Mn1 2.282 1_556 S
N17 C18 1.328 . S
N17 C22 1.318 . S
C18 N17 1.328 . S
C18 C19 1.457 . S
C18 H23 0.929 . S
C19 C18 1.457 . S
C19 C20 1.291 . S
C19 H32 0.931 . S
C20 C19 1.291 . S
C20 C21 1.373 . S
C20 H33 0.929 . S
C21 C20 1.373 . S
C21 C22 1.396 . S
C21 C28 1.403 . S
C22 C12 1.476 . S
C22 N17 1.318 . S
C22 C21 1.396 . S
H23 C18 0.929 . S
O24 Mn0 2.385 1_556 S
O24 C2 1.234 . S
O25 Mn0 2.209 1_556 S
O25 Mn1 2.215 1_556 S
O25 C2 1.283 . S
O26 Mn0 2.094 . S
O26 C4 1.240 . S
O27 Mn1 2.117 . S
O27 C4 1.264 . S
C28 C21 1.403 . S
C28 C29 1.399 . S
C28 H34 0.929 . S
C29 C9 1.449 . S
C29 C28 1.399 . S
C29 H35 0.930 . S
H30 C10 0.931 . S
H31 C11 0.930 1_554 S
H32 C19 0.931 . S
H33 C20 0.929 . S
H34 C28 0.929 . S
H35 C29 0.930 . S
Mn36 O41 2.095 . S
Mn36 O51 2.162 . S
Mn36 O52 2.297 . S
Mn36 O60 2.385 1_554 S
Mn36 O61 2.209 1_554 S
Mn36 O62 2.094 . S
Mn37 O42 2.121 . S
Mn37 N44 2.257 1_554 S
Mn37 N53 2.282 1_554 S
Mn37 O61 2.215 1_554 S
Mn37 O63 2.117 . S
C38 O60 1.234 . S
C38 O61 1.283 . S
C39 O51 1.281 . S
C39 O52 1.236 . S
C40 O62 1.240 . S
C40 O63 1.264 . S
O41 Mn36 2.095 . S
O41 C50 1.250 . S
O42 Mn37 2.121 . S
O42 C50 1.258 . S
C43 N44 1.326 1_554 S
C43 C47 1.460 1_554 S
C43 H49 0.929 . S
N44 Mn37 2.257 1_556 S
N44 C43 1.326 1_556 S
N44 C48 1.362 . S
C45 C46 1.258 . S
C45 C48 1.431 . S
C45 C65 1.449 . S
C46 C45 1.258 . S
C46 C47 1.477 . S
C46 H66 0.931 . S
C47 C43 1.460 1_556 S
C47 C46 1.477 . S
C47 H67 0.930 1_556 S
C48 N44 1.362 . S
C48 C45 1.431 . S
C48 C58 1.476 . S
H49 C43 0.929 . S
C50 O41 1.250 . S
C50 O42 1.258 . S
O51 Mn36 2.162 . S
O51 C39 1.281 . S
O52 Mn36 2.297 . S
O52 C39 1.236 . S
N53 Mn37 2.282 1_556 S
N53 C54 1.328 . S
N53 C58 1.318 . S
C54 N53 1.328 . S
C54 C55 1.457 . S
C54 H59 0.929 . S
C55 C54 1.457 . S
C55 C56 1.291 . S
C55 H68 0.931 . S
C56 C55 1.291 . S
C56 C57 1.373 . S
C56 H69 0.929 . S
C57 C56 1.373 . S
C57 C58 1.396 . S
C57 C64 1.403 . S
C58 C48 1.476 . S
C58 N53 1.318 . S
C58 C57 1.396 . S
H59 C54 0.929 . S
O60 Mn36 2.385 1_556 S
O60 C38 1.234 . S
O61 Mn36 2.209 1_556 S
O61 Mn37 2.215 1_556 S
O61 C38 1.283 . S
O62 Mn36 2.094 . S
O62 C40 1.240 . S
O63 Mn37 2.117 . S
O63 C40 1.264 . S
C64 C57 1.403 . S
C64 C65 1.399 . S
C64 H70 0.929 . S
C65 C45 1.449 . S
C65 C64 1.399 . S
C65 H71 0.930 . S
H66 C46 0.931 . S
H67 C47 0.930 1_554 S
H68 C55 0.931 . S
H69 C56 0.929 . S
H70 C64 0.929 . S
H71 C65 0.930 . S
Mn72 O77 2.095 . S
Mn72 O87 2.162 . S
Mn72 O88 2.297 . S
Mn72 O96 2.385 . S
Mn72 O97 2.209 . S
Mn72 O98 2.094 . S
Mn73 O78 2.121 . S
Mn73 N80 2.257 . S
Mn73 N89 2.282 . S
Mn73 O97 2.215 . S
Mn73 O99 2.117 . S
C74 O96 1.234 . S
C74 O97 1.283 . S
C75 O87 1.281 . S
C75 O88 1.236 . S
C76 O98 1.240 . S
C76 O99 1.264 . S
O77 Mn72 2.095 . S
O77 C86 1.250 . S
O78 Mn73 2.121 . S
O78 C86 1.258 . S
C79 N80 1.326 . S
C79 C83 1.460 . S
C79 H85 0.929 . S
N80 Mn73 2.257 . S
N80 C79 1.326 . S
N80 C84 1.362 . S
C81 C82 1.258 . S
C81 C84 1.431 . S
C81 C101 1.449 . S
C82 C81 1.258 . S
C82 C83 1.477 . S
C82 H102 0.931 . S
C83 C79 1.460 . S
C83 C82 1.477 . S
C83 H103 0.930 . S
C84 N80 1.362 . S
C84 C81 1.431 . S
C84 C94 1.476 . S
H85 C79 0.929 . S
C86 O77 1.250 . S
C86 O78 1.258 . S
O87 Mn72 2.162 . S
O87 C75 1.281 . S
O88 Mn72 2.297 . S
O88 C75 1.236 . S
N89 Mn73 2.282 . S
N89 C90 1.328 . S
N89 C94 1.318 . S
C90 N89 1.328 . S
C90 C91 1.457 . S
C90 H95 0.929 . S
C91 C90 1.457 . S
C91 C92 1.291 . S
C91 H104 0.931 . S
C92 C91 1.291 . S
C92 C93 1.373 . S
C92 H105 0.929 . S
C93 C92 1.373 . S
C93 C94 1.396 . S
C93 C100 1.403 . S
C94 C84 1.476 . S
C94 N89 1.318 . S
C94 C93 1.396 . S
H95 C90 0.929 . S
O96 Mn72 2.385 . S
O96 C74 1.234 . S
O97 Mn72 2.209 . S
O97 Mn73 2.215 . S
O97 C74 1.283 . S
O98 Mn72 2.094 . S
O98 C76 1.240 . S
O99 Mn73 2.117 . S
O99 C76 1.264 . S
C100 C93 1.403 . S
C100 C101 1.399 . S
C100 H106 0.929 . S
C101 C81 1.449 . S
C101 C100 1.399 . S
C101 H107 0.930 . S
H102 C82 0.931 . S
H103 C83 0.930 . S
H104 C91 0.931 . S
H105 C92 0.929 . S
H106 C100 0.929 . S
H107 C101 0.930 . S
Mn108 O113 2.095 . S
Mn108 O123 2.162 . S
Mn108 O124 2.297 . S
Mn108 O132 2.385 . S
Mn108 O133 2.209 . S
Mn108 O134 2.094 . S
Mn109 O114 2.121 . S
Mn109 N116 2.257 . S
Mn109 N125 2.282 . S
Mn109 O133 2.215 . S
Mn109 O135 2.117 . S
C110 O132 1.234 . S
C110 O133 1.283 . S
C111 O123 1.281 . S
C111 O124 1.236 . S
C112 O134 1.240 . S
C112 O135 1.264 . S
O113 Mn108 2.095 . S
O113 C122 1.250 . S
O114 Mn109 2.121 . S
O114 C122 1.258 . S
C115 N116 1.326 . S
C115 C119 1.460 . S
C115 H121 0.929 . S
N116 Mn109 2.257 . S
N116 C115 1.326 . S
N116 C120 1.362 . S
C117 C118 1.258 . S
C117 C120 1.431 . S
C117 C137 1.449 . S
C118 C117 1.258 . S
C118 C119 1.477 . S
C118 H138 0.931 . S
C119 C115 1.460 . S
C119 C118 1.477 . S
C119 H139 0.930 . S
C120 N116 1.362 . S
C120 C117 1.431 . S
C120 C130 1.476 . S
H121 C115 0.929 . S
C122 O113 1.250 . S
C122 O114 1.258 . S
O123 Mn108 2.162 . S
O123 C111 1.281 . S
O124 Mn108 2.297 . S
O124 C111 1.236 . S
N125 Mn109 2.282 . S
N125 C126 1.328 . S
N125 C130 1.318 . S
C126 N125 1.328 . S
C126 C127 1.457 . S
C126 H131 0.929 . S
C127 C126 1.457 . S
C127 C128 1.291 . S
C127 H140 0.931 . S
C128 C127 1.291 . S
C128 C129 1.373 . S
C128 H141 0.929 . S
C129 C128 1.373 . S
C129 C130 1.396 . S
C129 C136 1.403 . S
C130 C120 1.476 . S
C130 N125 1.318 . S
C130 C129 1.396 . S
H131 C126 0.929 . S
O132 Mn108 2.385 . S
O132 C110 1.234 . S
O133 Mn108 2.209 . S
O133 Mn109 2.215 . S
O133 C110 1.283 . S
O134 Mn108 2.094 . S
O134 C112 1.240 . S
O135 Mn109 2.117 . S
O135 C112 1.264 . S
C136 C129 1.403 . S
C136 C137 1.399 . S
C136 H142 0.929 . S
C137 C117 1.449 . S
C137 C136 1.399 . S
C137 H143 0.930 . S
H138 C118 0.931 . S
H139 C119 0.930 . S
H140 C127 0.931 . S
H141 C128 0.929 . S
H142 C136 0.929 . S
H143 C137 0.930 . S
Mn144 O149 2.095 . S
Mn144 O159 2.162 . S
Mn144 O160 2.297 . S
Mn144 O168 2.385 1_554 S
Mn144 O169 2.209 1_554 S
Mn144 O170 2.094 . S
Mn145 O150 2.121 . S
Mn145 N152 2.257 1_564 S
Mn145 N161 2.282 1_554 S
Mn145 O169 2.215 1_554 S
Mn145 O171 2.117 . S
C146 O168 1.234 . S
C146 O169 1.283 . S
C147 O159 1.281 . S
C147 O160 1.236 . S
C148 O170 1.240 . S
C148 O171 1.264 . S
O149 Mn144 2.095 . S
O149 C158 1.250 . S
O150 Mn145 2.121 . S
O150 C158 1.258 . S
C151 N152 1.326 1_554 S
C151 C155 1.460 1_554 S
C151 H157 0.929 . S
N152 Mn145 2.257 1_546 S
N152 C151 1.326 1_556 S
N152 C156 1.362 . S
C153 C154 1.258 . S
C153 C156 1.431 . S
C153 C173 1.449 1_455 S
C154 C153 1.258 . S
C154 C155 1.477 . S
C154 H174 0.931 . S
C155 C151 1.460 1_556 S
C155 C154 1.477 . S
C155 H175 0.930 1_556 S
C156 N152 1.362 . S
C156 C153 1.431 . S
C156 C166 1.476 . S
H157 C151 0.929 . S
C158 O149 1.250 . S
C158 O150 1.258 . S
O159 Mn144 2.162 . S
O159 C147 1.281 . S
O160 Mn144 2.297 . S
O160 C147 1.236 . S
N161 Mn145 2.282 1_556 S
N161 C162 1.328 . S
N161 C166 1.318 1_565 S
C162 N161 1.328 . S
C162 C163 1.457 1_455 S
C162 H167 0.929 . S
C163 C162 1.457 1_655 S
C163 C164 1.291 . S
C163 H176 0.931 . S
C164 C163 1.291 . S
C164 C165 1.373 1_565 S
C164 H177 0.929 . S
C165 C164 1.373 1_545 S
C165 C166 1.396 1_655 S
C165 C172 1.403 . S
C166 C156 1.476 . S
C166 N161 1.318 1_545 S
C166 C165 1.396 1_455 S
H167 C162 0.929 . S
O168 Mn144 2.385 1_556 S
O168 C146 1.234 . S
O169 Mn144 2.209 1_556 S
O169 Mn145 2.215 1_556 S
O169 C146 1.283 . S
O170 Mn144 2.094 . S
O170 C148 1.240 . S
O171 Mn145 2.117 . S
O171 C148 1.264 . S
C172 C165 1.403 . S
C172 C173 1.399 . S
C172 H178 0.929 . S
C173 C153 1.449 1_655 S
C173 C172 1.399 . S
C173 H179 0.930 . S
H174 C154 0.931 . S
H175 C155 0.930 1_554 S
H176 C163 0.931 . S
H177 C164 0.929 . S
H178 C172 0.929 . S
H179 C173 0.930 . S
Mn180 O185 2.095 . S
Mn180 O195 2.162 . S
Mn180 O196 2.297 . S
Mn180 O204 2.385 1_554 S
Mn180 O205 2.209 1_554 S
Mn180 O206 2.094 . S
Mn181 O186 2.121 . S
Mn181 N188 2.257 1_544 S
Mn181 N197 2.282 1_554 S
Mn181 O205 2.215 1_554 S
Mn181 O207 2.117 . S
C182 O204 1.234 . S
C182 O205 1.283 . S
C183 O195 1.281 . S
C183 O196 1.236 . S
C184 O206 1.240 . S
C184 O207 1.264 . S
O185 Mn180 2.095 . S
O185 C194 1.250 . S
O186 Mn181 2.121 . S
O186 C194 1.258 . S
C187 N188 1.326 1_554 S
C187 C191 1.460 1_554 S
C187 H193 0.929 . S
N188 Mn181 2.257 1_566 S
N188 C187 1.326 1_556 S
N188 C192 1.362 . S
C189 C190 1.258 . S
C189 C192 1.431 . S
C189 C209 1.449 1_655 S
C190 C189 1.258 . S
C190 C191 1.477 . S
C190 H210 0.931 . S
C191 C187 1.460 1_556 S
C191 C190 1.477 . S
C191 H211 0.930 1_556 S
C192 N188 1.362 . S
C192 C189 1.431 . S
C192 C202 1.476 . S
H193 C187 0.929 . S
C194 O185 1.250 . S
C194 O186 1.258 . S
O195 Mn180 2.162 . S
O195 C183 1.281 . S
O196 Mn180 2.297 . S
O196 C183 1.236 . S
N197 Mn181 2.282 1_556 S
N197 C198 1.328 . S
N197 C202 1.318 1_545 S
C198 N197 1.328 . S
C198 C199 1.457 1_655 S
C198 H203 0.929 . S
C199 C198 1.457 1_455 S
C199 C200 1.291 . S
C199 H212 0.931 . S
C200 C199 1.291 . S
C200 C201 1.373 1_545 S
C200 H213 0.929 . S
C201 C200 1.373 1_565 S
C201 C202 1.396 1_455 S
C201 C208 1.403 . S
C202 C192 1.476 . S
C202 N197 1.318 1_565 S
C202 C201 1.396 1_655 S
H203 C198 0.929 . S
O204 Mn180 2.385 1_556 S
O204 C182 1.234 . S
O205 Mn180 2.209 1_556 S
O205 Mn181 2.215 1_556 S
O205 C182 1.283 . S
O206 Mn180 2.094 . S
O206 C184 1.240 . S
O207 Mn181 2.117 . S
O207 C184 1.264 . S
C208 C201 1.403 . S
C208 C209 1.399 . S
C208 H214 0.929 . S
C209 C189 1.449 1_455 S
C209 C208 1.399 . S
C209 H215 0.930 . S
H210 C190 0.931 . S
H211 C191 0.930 1_554 S
H212 C199 0.931 . S
H213 C200 0.929 . S
H214 C208 0.929 . S
H215 C209 0.930 . S
Mn216 O221 2.095 . S
Mn216 O231 2.162 . S
Mn216 O232 2.297 . S
Mn216 O240 2.385 . S
Mn216 O241 2.209 . S
Mn216 O242 2.094 . S
Mn217 O222 2.121 . S
Mn217 N224 2.257 1_545 S
Mn217 N233 2.282 . S
Mn217 O241 2.215 . S
Mn217 O243 2.117 . S
C218 O240 1.234 . S
C218 O241 1.283 . S
C219 O231 1.281 . S
C219 O232 1.236 . S
C220 O242 1.240 . S
C220 O243 1.264 . S
O221 Mn216 2.095 . S
O221 C230 1.250 . S
O222 Mn217 2.121 . S
O222 C230 1.258 . S
C223 N224 1.326 . S
C223 C227 1.460 . S
C223 H229 0.929 . S
N224 Mn217 2.257 1_565 S
N224 C223 1.326 . S
N224 C228 1.362 . S
C225 C226 1.258 . S
C225 C228 1.431 . S
C225 C245 1.449 1_455 S
C226 C225 1.258 . S
C226 C227 1.477 . S
C226 H246 0.931 . S
C227 C223 1.460 . S
C227 C226 1.477 . S
C227 H247 0.930 . S
C228 N224 1.362 . S
C228 C225 1.431 . S
C228 C238 1.476 . S
H229 C223 0.929 . S
C230 O221 1.250 . S
C230 O222 1.258 . S
O231 Mn216 2.162 . S
O231 C219 1.281 . S
O232 Mn216 2.297 . S
O232 C219 1.236 . S
N233 Mn217 2.282 . S
N233 C234 1.328 . S
N233 C238 1.318 1_545 S
C234 N233 1.328 . S
C234 C235 1.457 1_455 S
C234 H239 0.929 . S
C235 C234 1.457 1_655 S
C235 C236 1.291 . S
C235 H248 0.931 . S
C236 C235 1.291 . S
C236 C237 1.373 1_545 S
C236 H249 0.929 . S
C237 C236 1.373 1_565 S
C237 C238 1.396 1_655 S
C237 C244 1.403 . S
C238 C228 1.476 . S
C238 N233 1.318 1_565 S
C238 C237 1.396 1_455 S
H239 C234 0.929 . S
O240 Mn216 2.385 . S
O240 C218 1.234 . S
O241 Mn216 2.209 . S
O241 Mn217 2.215 . S
O241 C218 1.283 . S
O242 Mn216 2.094 . S
O242 C220 1.240 . S
O243 Mn217 2.117 . S
O243 C220 1.264 . S
C244 C237 1.403 . S
C244 C245 1.399 . S
C244 H250 0.929 . S
C245 C225 1.449 1_655 S
C245 C244 1.399 . S
C245 H251 0.930 . S
H246 C226 0.931 . S
H247 C227 0.930 . S
H248 C235 0.931 . S
H249 C236 0.929 . S
H250 C244 0.929 . S
H251 C245 0.930 . S
Mn252 O257 2.095 . S
Mn252 O267 2.162 . S
Mn252 O268 2.297 . S
Mn252 O276 2.385 . S
Mn252 O277 2.209 . S
Mn252 O278 2.094 . S
Mn253 O258 2.121 . S
Mn253 N260 2.257 1_565 S
Mn253 N269 2.282 . S
Mn253 O277 2.215 . S
Mn253 O279 2.117 . S
C254 O276 1.234 . S
C254 O277 1.283 . S
C255 O267 1.281 . S
C255 O268 1.236 . S
C256 O278 1.240 . S
C256 O279 1.264 . S
O257 Mn252 2.095 . S
O257 C266 1.250 . S
O258 Mn253 2.121 . S
O258 C266 1.258 . S
C259 N260 1.326 . S
C259 C263 1.460 . S
C259 H265 0.929 . S
N260 Mn253 2.257 1_545 S
N260 C259 1.326 . S
N260 C264 1.362 . S
C261 C262 1.258 . S
C261 C264 1.431 . S
C261 C281 1.449 1_655 S
C262 C261 1.258 . S
C262 C263 1.477 . S
C262 H282 0.931 . S
C263 C259 1.460 . S
C263 C262 1.477 . S
C263 H283 0.930 . S
C264 N260 1.362 . S
C264 C261 1.431 . S
C264 C274 1.476 . S
H265 C259 0.929 . S
C266 O257 1.250 . S
C266 O258 1.258 . S
O267 Mn252 2.162 . S
O267 C255 1.281 . S
O268 Mn252 2.297 . S
O268 C255 1.236 . S
N269 Mn253 2.282 . S
N269 C270 1.328 . S
N269 C274 1.318 1_565 S
C270 N269 1.328 . S
C270 C271 1.457 1_655 S
C270 H275 0.929 . S
C271 C270 1.457 1_455 S
C271 C272 1.291 . S
C271 H284 0.931 . S
C272 C271 1.291 . S
C272 C273 1.373 1_565 S
C272 H285 0.929 . S
C273 C272 1.373 1_545 S
C273 C274 1.396 1_455 S
C273 C280 1.403 . S
C274 C264 1.476 . S
C274 N269 1.318 1_545 S
C274 C273 1.396 1_655 S
H275 C270 0.929 . S
O276 Mn252 2.385 . S
O276 C254 1.234 . S
O277 Mn252 2.209 . S
O277 Mn253 2.215 . S
O277 C254 1.283 . S
O278 Mn252 2.094 . S
O278 C256 1.240 . S
O279 Mn253 2.117 . S
O279 C256 1.264 . S
C280 C273 1.403 . S
C280 C281 1.399 . S
C280 H286 0.929 . S
C281 C261 1.449 1_455 S
C281 C280 1.399 . S
C281 H287 0.930 . S
H282 C262 0.931 . S
H283 C263 0.930 . S
H284 C271 0.931 . S
H285 C272 0.929 . S
H286 C280 0.929 . S
H287 C281 0.930 . S
C288 C289 1.363 . S
C288 C294 1.379 . S
C288 N296 1.356 . S
C289 C288 1.363 . S
C289 C295 1.363 1_554 S
C290 C291 1.363 1_556 S
C290 C295 1.379 . S
C290 N297 1.356 . S
C291 C290 1.363 1_554 S
C291 C294 1.363 . S
N292 C294 1.356 . S
N292 H304 0.984 . S
N292 H305 0.985 . S
N293 C295 1.356 . S
N293 H298 0.984 . S
N293 H299 0.985 . S
C294 C288 1.379 . S
C294 C291 1.363 . S
C294 N292 1.356 . S
C295 C289 1.363 1_556 S
C295 C290 1.379 . S
C295 N293 1.356 . S
N296 C288 1.356 . S
N296 H302 0.984 . S
N296 H303 0.984 . S
N297 C290 1.356 . S
N297 H300 0.984 . S
N297 H301 0.985 . S
H298 N293 0.984 . S
H299 N293 0.985 . S
H300 N297 0.984 . S
H301 N297 0.985 . S
H302 N296 0.984 . S
H303 N296 0.984 . S
H304 N292 0.984 . S
H305 N292 0.985 . S
C306 C307 1.363 1_556 S
C306 C312 1.379 . S
C306 N314 1.356 . S
C307 C306 1.363 1_554 S
C307 C313 1.363 . S
C308 C309 1.363 . S
C308 C313 1.379 . S
C308 N315 1.356 . S
C309 C308 1.363 . S
C309 C312 1.363 1_554 S
N310 C312 1.356 . S
N310 H322 0.984 . S
N310 H323 0.985 . S
N311 C313 1.356 . S
N311 H316 0.984 . S
N311 H317 0.985 . S
C312 C306 1.379 . S
C312 C309 1.363 1_556 S
C312 N310 1.356 . S
C313 C307 1.363 . S
C313 C308 1.379 . S
C313 N311 1.356 . S
N314 C306 1.356 . S
N314 H320 0.984 . S
N314 H321 0.984 . S
N315 C308 1.356 . S
N315 H318 0.984 . S
N315 H319 0.985 . S
H316 N311 0.984 . S
H317 N311 0.985 . S
H318 N315 0.984 . S
H319 N315 0.985 . S
H320 N314 0.984 . S
H321 N314 0.984 . S
H322 N310 0.984 . S
H323 N310 0.985 . S
C324 C325 1.363 . S
C324 C330 1.379 . S
C324 N332 1.356 . S
C325 C324 1.363 . S
C325 C331 1.363 . S
C326 C327 1.363 . S
C326 C331 1.379 . S
C326 N333 1.356 . S
C327 C326 1.363 . S
C327 C330 1.363 . S
N328 C330 1.356 . S
N328 H340 0.984 . S
N328 H341 0.985 . S
N329 C331 1.356 . S
N329 H334 0.984 . S
N329 H335 0.985 . S
C330 C324 1.379 . S
C330 C327 1.363 . S
C330 N328 1.356 . S
C331 C325 1.363 . S
C331 C326 1.379 . S
C331 N329 1.356 . S
N332 C324 1.356 . S
N332 H338 0.984 . S
N332 H339 0.984 . S
N333 C326 1.356 . S
N333 H336 0.984 . S
N333 H337 0.985 . S
H334 N329 0.984 . S
H335 N329 0.985 . S
H336 N333 0.984 . S
H337 N333 0.985 . S
H338 N332 0.984 . S
H339 N332 0.984 . S
H340 N328 0.984 . S
H341 N328 0.985 . S
C342 C343 1.363 . S
C342 C348 1.379 . S
C342 N350 1.356 . S
C343 C342 1.363 . S
C343 C349 1.363 . S
C344 C345 1.363 . S
C344 C349 1.379 . S
C344 N351 1.356 . S
C345 C344 1.363 . S
C345 C348 1.363 . S
N346 C348 1.356 . S
N346 H358 0.984 . S
N346 H359 0.985 . S
N347 C349 1.356 . S
N347 H352 0.984 . S
N347 H353 0.985 . S
C348 C342 1.379 . S
C348 C345 1.363 . S
C348 N346 1.356 . S
C349 C343 1.363 . S
C349 C344 1.379 . S
C349 N347 1.356 . S
N350 C342 1.356 . S
N350 H356 0.984 . S
N350 H357 0.984 . S
N351 C344 1.356 . S
N351 H354 0.984 . S
N351 H355 0.985 . S
H352 N347 0.984 . S
H353 N347 0.985 . S
H354 N351 0.984 . S
H355 N351 0.985 . S
H356 N350 0.984 . S
H357 N350 0.984 . S
H358 N346 0.984 . S
H359 N346 0.985 . S
C360 C361 1.363 . S
C360 C366 1.379 . S
C360 N368 1.356 . S
C361 C360 1.363 . S
C361 C367 1.363 . S
C362 C363 1.363 . S
C362 C367 1.379 . S
C362 N369 1.356 . S
C363 C362 1.363 . S
C363 C366 1.363 . S
N364 C366 1.356 . S
N364 H376 0.984 . S
N364 H377 0.985 . S
N365 C367 1.356 . S
N365 H370 0.984 . S
N365 H371 0.985 . S
C366 C360 1.379 . S
C366 C363 1.363 . S
C366 N364 1.356 . S
C367 C361 1.363 . S
C367 C362 1.379 . S
C367 N365 1.356 . S
N368 C360 1.356 . S
N368 H374 0.984 . S
N368 H375 0.984 . S
N369 C362 1.356 . S
N369 H372 0.984 . S
N369 H373 0.985 . S
H370 N365 0.984 . S
H371 N365 0.985 . S
H372 N369 0.984 . S
H373 N369 0.985 . S
H374 N368 0.984 . S
H375 N368 0.984 . S
H376 N364 0.984 . S
H377 N364 0.985 . S
C378 C379 1.363 . S
C378 C384 1.379 . S
C378 N386 1.356 . S
C379 C378 1.363 . S
C379 C385 1.363 . S
C380 C381 1.363 . S
C380 C385 1.379 . S
C380 N387 1.356 . S
C381 C380 1.363 . S
C381 C384 1.363 . S
N382 C384 1.356 . S
N382 H394 0.984 . S
N382 H395 0.985 . S
N383 C385 1.356 . S
N383 H388 0.984 . S
N383 H389 0.985 . S
C384 C378 1.379 . S
C384 C381 1.363 . S
C384 N382 1.356 . S
C385 C379 1.363 . S
C385 C380 1.379 . S
C385 N383 1.356 . S
N386 C378 1.356 . S
N386 H392 0.984 . S
N386 H393 0.984 . S
N387 C380 1.356 . S
N387 H390 0.984 . S
N387 H391 0.985 . S
H388 N383 0.984 . S
H389 N383 0.985 . S
H390 N387 0.984 . S
H391 N387 0.985 . S
H392 N386 0.984 . S
H393 N386 0.984 . S
H394 N382 0.984 . S
H395 N382 0.985 . S
C396 C397 1.363 . S
C396 C402 1.379 . S
C396 N404 1.356 . S
C397 C396 1.363 . S
C397 C403 1.363 . S
C398 C399 1.363 . S
C398 C403 1.379 . S
C398 N405 1.356 . S
C399 C398 1.363 . S
C399 C402 1.363 . S
N400 C402 1.356 . S
N400 H412 0.984 . S
N400 H413 0.985 . S
N401 C403 1.356 . S
N401 H406 0.984 . S
N401 H407 0.985 . S
C402 C396 1.379 . S
C402 C399 1.363 . S
C402 N400 1.356 . S
C403 C397 1.363 . S
C403 C398 1.379 . S
C403 N401 1.356 . S
N404 C396 1.356 . S
N404 H410 0.984 . S
N404 H411 0.984 . S
N405 C398 1.356 . S
N405 H408 0.984 . S
N405 H409 0.985 . S
H406 N401 0.984 . S
H407 N401 0.985 . S
H408 N405 0.984 . S
H409 N405 0.985 . S
H410 N404 0.984 . S
H411 N404 0.984 . S
H412 N400 0.984 . S
H413 N400 0.985 . S
C414 C415 1.363 . S
C414 C420 1.379 . S
C414 N422 1.356 . S
C415 C414 1.363 . S
C415 C421 1.363 . S
C416 C417 1.363 . S
C416 C421 1.379 . S
C416 N423 1.356 . S
C417 C416 1.363 . S
C417 C420 1.363 . S
N418 C420 1.356 . S
N418 H430 0.984 . S
N418 H431 0.985 . S
N419 C421 1.356 . S
N419 H424 0.984 . S
N419 H425 0.985 . S
C420 C414 1.379 . S
C420 C417 1.363 . S
C420 N418 1.356 . S
C421 C415 1.363 . S
C421 C416 1.379 . S
C421 N419 1.356 . S
N422 C414 1.356 . S
N422 H428 0.984 . S
N422 H429 0.984 . S
N423 C416 1.356 . S
N423 H426 0.984 . S
N423 H427 0.985 . S
H424 N419 0.984 . S
H425 N419 0.985 . S
H426 N423 0.984 . S
H427 N423 0.985 . S
H428 N422 0.984 . S
H429 N422 0.984 . S
H430 N418 0.984 . S
H431 N418 0.985 . S
C432 C433 1.363 . S
C432 C438 1.379 . S
C432 N440 1.356 . S
C433 C432 1.363 . S
C433 C439 1.363 1_565 S
C434 C435 1.363 . S
C434 C439 1.379 . S
C434 N441 1.356 . S
C435 C434 1.363 . S
C435 C438 1.363 1_545 S
N436 C438 1.356 . S
N436 H448 0.984 . S
N436 H449 0.985 . S
N437 C439 1.356 . S
N437 H442 0.984 . S
N437 H443 0.985 . S
C438 C432 1.379 . S
C438 C435 1.363 1_565 S
C438 N436 1.356 . S
C439 C433 1.363 1_545 S
C439 C434 1.379 . S
C439 N437 1.356 . S
N440 C432 1.356 . S
N440 H446 0.984 . S
N440 H447 0.984 . S
N441 C434 1.356 . S
N441 H444 0.984 . S
N441 H445 0.985 . S
H442 N437 0.984 . S
H443 N437 0.985 . S
H444 N441 0.984 . S
H445 N441 0.985 . S
H446 N440 0.984 . S
H447 N440 0.984 . S
H448 N436 0.984 . S
H449 N436 0.985 . S
C450 C451 1.363 1_545 S
C450 C456 1.379 . S
C450 N458 1.356 . S
C451 C450 1.363 1_565 S
C451 C457 1.363 . S
C452 C453 1.363 1_565 S
C452 C457 1.379 . S
C452 N459 1.356 . S
C453 C452 1.363 1_545 S
C453 C456 1.363 . S
N454 C456 1.356 . S
N454 H466 0.984 . S
N454 H467 0.985 . S
N455 C457 1.356 . S
N455 H460 0.984 . S
N455 H461 0.985 . S
C456 C450 1.379 . S
C456 C453 1.363 . S
C456 N454 1.356 . S
C457 C451 1.363 . S
C457 C452 1.379 . S
C457 N455 1.356 . S
N458 C450 1.356 . S
N458 H464 0.984 . S
N458 H465 0.984 . S
N459 C452 1.356 . S
N459 H462 0.984 . S
N459 H463 0.985 . S
H460 N455 0.984 . S
H461 N455 0.985 . S
H462 N459 0.984 . S
H463 N459 0.985 . S
H464 N458 0.984 . S
H465 N458 0.984 . S
H466 N454 0.984 . S
H467 N454 0.985 . S
C468 C469 1.363 . S
C468 C474 1.379 1_565 S
C468 N476 1.356 . S
C469 C468 1.363 . S
C469 C475 1.363 . S
C470 C471 1.363 . S
C470 C475 1.379 1_545 S
C470 N477 1.356 . S
C471 C470 1.363 . S
C471 C474 1.363 . S
N472 C474 1.356 . S
N472 H484 0.984 . S
N472 H485 0.985 . S
N473 C475 1.356 . S
N473 H478 0.984 . S
N473 H479 0.985 . S
C474 C468 1.379 1_545 S
C474 C471 1.363 . S
C474 N472 1.356 . S
C475 C469 1.363 . S
C475 C470 1.379 1_565 S
C475 N473 1.356 . S
N476 C468 1.356 . S
N476 H482 0.984 1_565 S
N476 H483 0.984 . S
N477 C470 1.356 . S
N477 H480 0.984 . S
N477 H481 0.985 1_545 S
H478 N473 0.984 . S
H479 N473 0.985 . S
H480 N477 0.984 . S
H481 N477 0.985 1_565 S
H482 N476 0.984 1_545 S
H483 N476 0.984 . S
H484 N472 0.984 . S
H485 N472 0.985 . S
C486 C487 1.363 1_545 S
C486 C492 1.379 . S
C486 N494 1.356 . S
C487 C486 1.363 1_565 S
C487 C493 1.363 . S
C488 C489 1.363 1_565 S
C488 C493 1.379 . S
C488 N495 1.356 . S
C489 C488 1.363 1_545 S
C489 C492 1.363 . S
N490 C492 1.356 . S
N490 H502 0.984 . S
N490 H503 0.985 . S
N491 C493 1.356 . S
N491 H496 0.984 . S
N491 H497 0.985 . S
C492 C486 1.379 . S
C492 C489 1.363 . S
C492 N490 1.356 . S
C493 C487 1.363 . S
C493 C488 1.379 . S
C493 N491 1.356 . S
N494 C486 1.356 . S
N494 H500 0.984 . S
N494 H501 0.984 . S
N495 C488 1.356 . S
N495 H498 0.984 . S
N495 H499 0.985 . S
H496 N491 0.984 . S
H497 N491 0.985 . S
H498 N495 0.984 . S
H499 N495 0.985 . S
H500 N494 0.984 . S
H501 N494 0.984 . S
H502 N490 0.984 . S
H503 N490 0.985 . S
C504 C505 1.363 1_556 S
C504 C510 1.379 1_565 S
C504 N512 1.356 . S
C505 C504 1.363 1_554 S
C505 C511 1.363 . S
C506 C507 1.363 . S
C506 C511 1.379 1_545 S
C506 N513 1.356 . S
C507 C506 1.363 . S
C507 C510 1.363 1_554 S
N508 C510 1.356 . S
N508 H520 0.984 1_545 S
N508 H521 0.985 . S
N509 C511 1.356 . S
N509 H514 0.984 . S
N509 H515 0.985 1_565 S
C510 C504 1.379 1_545 S
C510 C507 1.363 1_556 S
C510 N508 1.356 . S
C511 C505 1.363 . S
C511 C506 1.379 1_565 S
C511 N509 1.356 . S
N512 C504 1.356 . S
N512 H518 0.984 . S
N512 H519 0.984 . S
N513 C506 1.356 . S
N513 H516 0.984 . S
N513 H517 0.985 . S
H514 N509 0.984 . S
H515 N509 0.985 1_545 S
H516 N513 0.984 . S
H517 N513 0.985 . S
H518 N512 0.984 . S
H519 N512 0.984 . S
H520 N508 0.984 1_565 S
H521 N508 0.985 . S
C522 C523 1.363 . S
C522 C528 1.379 1_565 S
C522 N530 1.356 . S
C523 C522 1.363 . S
C523 C529 1.363 . S
C524 C525 1.363 . S
C524 C529 1.379 1_545 S
C524 N531 1.356 . S
C525 C524 1.363 . S
C525 C528 1.363 . S
N526 C528 1.356 . S
N526 H538 0.984 1_545 S
N526 H539 0.985 . S
N527 C529 1.356 . S
N527 H532 0.984 . S
N527 H533 0.985 1_565 S
C528 C522 1.379 1_545 S
C528 C525 1.363 . S
C528 N526 1.356 . S
C529 C523 1.363 . S
C529 C524 1.379 1_565 S
C529 N527 1.356 . S
N530 C522 1.356 . S
N530 H536 0.984 . S
N530 H537 0.984 . S
N531 C524 1.356 . S
N531 H534 0.984 . S
N531 H535 0.985 . S
H532 N527 0.984 . S
H533 N527 0.985 1_545 S
H534 N531 0.984 . S
H535 N531 0.985 . S
H536 N530 0.984 . S
H537 N530 0.984 . S
H538 N526 0.984 1_565 S
H539 N526 0.985 . S
C540 C541 1.363 . S
C540 C546 1.378 . S
C540 N548 1.356 . S
C541 C540 1.363 . S
C541 C547 1.364 1_454 S
C542 C543 1.363 1_556 S
C542 C547 1.378 . S
C542 N549 1.356 . S
C543 C542 1.363 1_554 S
C543 C546 1.364 1_655 S
N544 C546 1.357 1_655 S
N544 H556 0.984 1_655 S
N544 H557 0.985 . S
N545 C547 1.357 1_455 S
N545 H550 0.984 . S
N545 H551 0.985 1_455 S
C546 C540 1.378 . S
C546 C543 1.364 1_455 S
C546 N544 1.357 1_455 S
C547 C541 1.364 1_656 S
C547 C542 1.378 . S
C547 N545 1.357 1_655 S
N548 C540 1.356 . S
N548 H554 0.984 . S
N548 H555 0.984 . S
N549 C542 1.356 . S
N549 H552 0.984 . S
N549 H553 0.985 . S
H550 N545 0.984 . S
H551 N545 0.985 1_655 S
H552 N549 0.984 . S
H553 N549 0.985 . S
H554 N548 0.984 . S
H555 N548 0.984 . S
H556 N544 0.984 1_455 S
H557 N544 0.985 . S
C558 C559 1.363 . S
C558 C564 1.378 . S
C558 N566 1.356 . S
C559 C558 1.363 . S
C559 C565 1.364 1_455 S
C560 C561 1.363 . S
C560 C565 1.378 . S
C560 N567 1.356 . S
C561 C560 1.363 . S
C561 C564 1.364 1_655 S
N562 C564 1.357 1_655 S
N562 H574 0.984 1_655 S
N562 H575 0.985 . S
N563 C565 1.357 1_455 S
N563 H568 0.984 . S
N563 H569 0.985 1_455 S
C564 C558 1.378 . S
C564 C561 1.364 1_455 S
C564 N562 1.357 1_455 S
C565 C559 1.364 1_655 S
C565 C560 1.378 . S
C565 N563 1.357 1_655 S
N566 C558 1.356 . S
N566 H572 0.984 . S
N566 H573 0.984 . S
N567 C560 1.356 . S
N567 H570 0.984 . S
N567 H571 0.985 . S
H568 N563 0.984 . S
H569 N563 0.985 1_655 S
H570 N567 0.984 . S
H571 N567 0.985 . S
H572 N566 0.984 . S
H573 N566 0.984 . S
H574 N562 0.984 1_455 S
H575 N562 0.985 . S
C289 C183 1.508 . S
C291 C3 1.508 . S
C307 C147 1.508 . S
C309 C39 1.508 . S
C325 C255 1.508 . S
C327 C75 1.508 . S
C343 C219 1.508 . S
C345 C111 1.508 . S
C361 C14 1.417 . S
C363 C86 1.417 . S
C379 C50 1.417 . S
C381 C122 1.417 . S
C397 C38 1.391 . S
C399 C110 1.391 . S
C415 C2 1.391 . S
C417 C74 1.391 . S
C433 C158 1.417 . S
C435 C230 1.417 . S
C451 C266 1.417 . S
C453 C194 1.417 . S
C469 C254 1.391 . S
C471 C182 1.391 . S
C487 C146 1.391 . S
C489 C218 1.391 . S
C505 C40 1.506 . S
C507 C4 1.506 . S
C523 C76 1.507 . S
C525 C112 1.507 . S
C541 C148 1.506 . S
C543 C184 1.506 . S
C559 C220 1.507 . S
C561 C256 1.507 . S
