# Generated by pormake.
# Topology wiu, (6)-cn, num edge types: 1
# Building blocks:
#     Node 0, Type 0, BuildingBlock: MIFKUJ_clean_sbu_0, # of connection points: 6
#     Node 1, Type 0, BuildingBlock: MIFKUJ_clean_sbu_0, # of connection points: 6
#     Node 2, Type 0, BuildingBlock: MIFKUJ_clean_sbu_0, # of connection points: 6
#     Node 3, Type 0, BuildingBlock: MIFKUJ_clean_sbu_0, # of connection points: 6
#     Node 4, Type 0, BuildingBlock: MIFKUJ_clean_sbu_0, # of connection points: 6
#     Node 5, Type 0, BuildingBlock: MIFKUJ_clean_sbu_0, # of connection points: 6
#     Node 6, Type 0, BuildingBlock: MIFKUJ_clean_sbu_0, # of connection points: 6
#     Node 7, Type 0, BuildingBlock: MIFKUJ_clean_sbu_0, # of connection points: 6
#     Node 8, Type 0, BuildingBlock: MIFKUJ_clean_sbu_0, # of connection points: 6
#     Node 9, Type 0, BuildingBlock: MIFKUJ_clean_sbu_0, # of connection points: 6
#     Node 10, Type 0, BuildingBlock: MIFKUJ_clean_sbu_0, # of connection points: 6
#     Node 11, Type 0, BuildingBlock: MIFKUJ_clean_sbu_0, # of connection points: 6
#     Node 12, Type 0, BuildingBlock: MIFKUJ_clean_sbu_0, # of connection points: 6
#     Node 13, Type 0, BuildingBlock: MIFKUJ_clean_sbu_0, # of connection points: 6
#     Node 14, Type 0, BuildingBlock: MIFKUJ_clean_sbu_0, # of connection points: 6
#     Node 15, Type 0, BuildingBlock: MIFKUJ_clean_sbu_0, # of connection points: 6
#     Edge 16, Type (0, 0), BuildingBlock: XIVTED_clean_linker_0, # of connection points: 2
#     Edge 17, Type (0, 0), BuildingBlock: XIVTED_clean_linker_0, # of connection points: 2
#     Edge 18, Type (0, 0), BuildingBlock: XIVTED_clean_linker_0, # of connection points: 2
#     Edge 19, Type (0, 0), BuildingBlock: XIVTED_clean_linker_0, # of connection points: 2
#     Edge 20, Type (0, 0), BuildingBlock: XIVTED_clean_linker_0, # of connection points: 2
#     Edge 21, Type (0, 0), BuildingBlock: XIVTED_clean_linker_0, # of connection points: 2
#     Edge 22, Type (0, 0), BuildingBlock: XIVTED_clean_linker_0, # of connection points: 2
#     Edge 23, Type (0, 0), BuildingBlock: XIVTED_clean_linker_0, # of connection points: 2
#     Edge 24, Type (0, 0), BuildingBlock: XIVTED_clean_linker_0, # of connection points: 2
#     Edge 25, Type (0, 0), BuildingBlock: XIVTED_clean_linker_0, # of connection points: 2
#     Edge 26, Type (0, 0), BuildingBlock: XIVTED_clean_linker_0, # of connection points: 2
#     Edge 27, Type (0, 0), BuildingBlock: XIVTED_clean_linker_0, # of connection points: 2
#     Edge 28, Type (0, 0), BuildingBlock: XIVTED_clean_linker_0, # of connection points: 2
#     Edge 29, Type (0, 0), BuildingBlock: XIVTED_clean_linker_0, # of connection points: 2
#     Edge 30, Type (0, 0), BuildingBlock: XIVTED_clean_linker_0, # of connection points: 2
#     Edge 31, Type (0, 0), BuildingBlock: XIVTED_clean_linker_0, # of connection points: 2
#     Edge 32, Type (0, 0), BuildingBlock: XIVTED_clean_linker_0, # of connection points: 2
#     Edge 33, Type (0, 0), BuildingBlock: XIVTED_clean_linker_0, # of connection points: 2
#     Edge 34, Type (0, 0), BuildingBlock: XIVTED_clean_linker_0, # of connection points: 2
#     Edge 35, Type (0, 0), BuildingBlock: XIVTED_clean_linker_0, # of connection points: 2
#     Edge 36, Type (0, 0), BuildingBlock: XIVTED_clean_linker_0, # of connection points: 2
#     Edge 37, Type (0, 0), BuildingBlock: XIVTED_clean_linker_0, # of connection points: 2
#     Edge 38, Type (0, 0), BuildingBlock: XIVTED_clean_linker_0, # of connection points: 2
#     Edge 39, Type (0, 0), BuildingBlock: XIVTED_clean_linker_0, # of connection points: 2
#     Edge 40, Type (0, 0), BuildingBlock: XIVTED_clean_linker_0, # of connection points: 2
#     Edge 41, Type (0, 0), BuildingBlock: XIVTED_clean_linker_0, # of connection points: 2
#     Edge 42, Type (0, 0), BuildingBlock: XIVTED_clean_linker_0, # of connection points: 2
#     Edge 43, Type (0, 0), BuildingBlock: XIVTED_clean_linker_0, # of connection points: 2
#     Edge 44, Type (0, 0), BuildingBlock: XIVTED_clean_linker_0, # of connection points: 2
#     Edge 45, Type (0, 0), BuildingBlock: XIVTED_clean_linker_0, # of connection points: 2
#     Edge 46, Type (0, 0), BuildingBlock: XIVTED_clean_linker_0, # of connection points: 2
#     Edge 47, Type (0, 0), BuildingBlock: XIVTED_clean_linker_0, # of connection points: 2
#     Edge 48, Type (0, 0), BuildingBlock: XIVTED_clean_linker_0, # of connection points: 2
#     Edge 49, Type (0, 0), BuildingBlock: XIVTED_clean_linker_0, # of connection points: 2
#     Edge 50, Type (0, 0), BuildingBlock: XIVTED_clean_linker_0, # of connection points: 2
#     Edge 51, Type (0, 0), BuildingBlock: XIVTED_clean_linker_0, # of connection points: 2
#     Edge 52, Type (0, 0), BuildingBlock: XIVTED_clean_linker_0, # of connection points: 2
#     Edge 53, Type (0, 0), BuildingBlock: XIVTED_clean_linker_0, # of connection points: 2
#     Edge 54, Type (0, 0), BuildingBlock: XIVTED_clean_linker_0, # of connection points: 2
#     Edge 55, Type (0, 0), BuildingBlock: XIVTED_clean_linker_0, # of connection points: 2
#     Edge 56, Type (0, 0), BuildingBlock: XIVTED_clean_linker_0, # of connection points: 2
#     Edge 57, Type (0, 0), BuildingBlock: XIVTED_clean_linker_0, # of connection points: 2
#     Edge 58, Type (0, 0), BuildingBlock: XIVTED_clean_linker_0, # of connection points: 2
#     Edge 59, Type (0, 0), BuildingBlock: XIVTED_clean_linker_0, # of connection points: 2
#     Edge 60, Type (0, 0), BuildingBlock: XIVTED_clean_linker_0, # of connection points: 2
#     Edge 61, Type (0, 0), BuildingBlock: XIVTED_clean_linker_0, # of connection points: 2
#     Edge 62, Type (0, 0), BuildingBlock: XIVTED_clean_linker_0, # of connection points: 2
#     Edge 63, Type (0, 0), BuildingBlock: XIVTED_clean_linker_0, # of connection points: 2
# Relax obj value: 0.181
# Max RMSD: 0.244
# Mean RMSD: 0.244
data_MOF--net-wiu--node1-MIFKUJ_clean_sbu_0--edge1-XIVTED_clean_linker_0
_symmetry_space_group_name_H-M    P1
_symmetry_Int_Tables_number       1
_symmetry_cell_setting            triclinic
loop_
_symmetry_equiv_pos_as_xyz
'x, y, z'
_cell_length_a     30.870232
_cell_length_b     30.798539
_cell_length_c     68.771484
_cell_angle_alpha  89.979788
_cell_angle_beta   90.199725
_cell_angle_gamma 90.131471
loop_
_atom_site_label
_atom_site_type_symbol
_atom_site_fract_x
_atom_site_fract_y
_atom_site_fract_z
_atom_type_partial_charge
Zn0 Zn 0.3048 0.09817 0.04248 0.0
Zn1 Zn 0.28622 0.15935 0.09475 0.0
C2 C 0.25307 0.11095 0.01092 0.0
O3 O 0.24746 0.07028 0.01605 0.0
C4 C 0.33589 0.13601 0.13026 0.0
O5 O 0.36284 0.16752 0.12582 0.0
O6 O 0.34275 0.05668 0.0294 0.0
O7 O 0.34432 0.12673 0.06322 0.0
O8 O 0.337 0.18513 0.08103 0.0
C9 C 0.3746 0.07557 0.02146 0.0
O10 O 0.37777 0.11806 0.02254 0.0
O11 O 0.27901 0.13473 0.02072 0.0
C12 C 0.22219 0.2119 0.11464 0.0
O13 O 0.22081 0.1803 0.12745 0.0
O14 O 0.24516 0.20791 0.09948 0.0
O15 O 0.2675 0.11448 0.07638 0.0
O16 O 0.25515 0.0657 0.05475 0.0
O17 O 0.30305 0.1289 0.11951 0.0
C18 C 0.35455 0.16602 0.06667 0.0
C19 C 0.24404 0.08371 0.07043 0.0
Zn20 Zn 0.64186 0.55294 0.29945 0.0
Zn21 Zn 0.57465 0.53645 0.34881 0.0
C22 C 0.63789 0.50368 0.26727 0.0
O23 O 0.6779 0.50306 0.27384 0.0
C24 C 0.59288 0.58764 0.38484 0.0
O25 O 0.55756 0.60989 0.38111 0.0
O26 O 0.68378 0.59267 0.28759 0.0
O27 O 0.6088 0.59436 0.31816 0.0
O28 O 0.54759 0.585 0.33371 0.0
C29 C 0.66382 0.6204 0.27731 0.0
O30 O 0.62145 0.61789 0.2757 0.0
O31 O 0.60985 0.52601 0.27643 0.0
C32 C 0.53418 0.46554 0.36832 0.0
O33 O 0.56776 0.46879 0.38002 0.0
O34 O 0.53141 0.49042 0.35368 0.0
O35 O 0.62053 0.51794 0.3317 0.0
O36 O 0.67288 0.50236 0.31272 0.0
O37 O 0.60389 0.55695 0.37354 0.0
C38 C 0.56901 0.60407 0.32039 0.0
C39 C 0.65004 0.49195 0.32714 0.0
Zn40 Zn 0.17774 0.87734 0.54632 0.0
Zn41 Zn 0.19634 0.83066 0.6042 0.0
C42 C 0.2164 0.89149 0.51189 0.0
O43 O 0.20908 0.92931 0.52007 0.0
C44 C 0.15657 0.84445 0.64195 0.0
O45 O 0.14845 0.80263 0.64082 0.0
O46 O 0.13021 0.91634 0.53849 0.0
O47 O 0.14978 0.83124 0.5643 0.0
O48 O 0.14662 0.79748 0.59273 0.0
C49 C 0.10381 0.89933 0.52656 0.0
O50 O 0.10922 0.85876 0.52121 0.0
O51 O 0.20503 0.85725 0.52098 0.0
C52 C 0.26617 0.78294 0.62359 0.0
O53 O 0.2617 0.8107 0.63795 0.0
O54 O 0.2433 0.78725 0.60837 0.0
O55 O 0.21037 0.87176 0.58352 0.0
O56 O 0.22475 0.91283 0.55922 0.0
O57 O 0.17747 0.86281 0.62833 0.0
C58 C 0.13258 0.80281 0.57543 0.0
C59 C 0.23459 0.90021 0.57611 0.0
Zn60 Zn 0.86438 0.43433 0.79068 0.0
Zn61 Zn 0.90149 0.45684 0.8493 0.0
C62 C 0.86039 0.47109 0.75518 0.0
O63 O 0.82031 0.46384 0.76067 0.0
C64 C 0.88307 0.41514 0.88581 0.0
O65 O 0.92299 0.40121 0.88375 0.0
O66 O 0.82505 0.38868 0.78074 0.0
O67 O 0.90674 0.40377 0.80985 0.0
O68 O 0.93329 0.40544 0.83997 0.0
C69 C 0.81526 0.35359 0.78926 0.0
O70 O 0.8307 0.34551 0.80671 0.0
O71 O 0.89127 0.46087 0.76662 0.0
C72 C 0.94952 0.52349 0.86975 0.0
O73 O 0.91973 0.51828 0.88315 0.0
O74 O 0.9463 0.50263 0.85392 0.0
O75 O 0.86473 0.46802 0.827 0.0
O76 O 0.82741 0.4826 0.80163 0.0
O77 O 0.86708 0.44037 0.87303 0.0
C78 C 0.93158 0.38837 0.82309 0.0
C79 C 0.8377 0.49245 0.81881 0.0
Zn80 Zn 0.6987 0.83016 0.8894 0.0
Zn81 Zn 0.68748 0.87766 0.94709 0.0
C82 C 0.65282 0.84534 0.85312 0.0
O83 O 0.64657 0.80313 0.85335 0.0
C84 C 0.7304 0.88704 0.98059 0.0
O85 O 0.72488 0.92595 0.97313 0.0
O86 O 0.74377 0.78812 0.88156 0.0
O87 O 0.72016 0.87167 0.90918 0.0
O88 O 0.73529 0.91147 0.93408 0.0
C89 C 0.75987 0.78753 0.86464 0.0
O90 O 0.75016 0.8186 0.8523 0.0
O91 O 0.67432 0.86313 0.86676 0.0
C92 C 0.61166 0.89858 0.96492 0.0
O93 O 0.61531 0.85717 0.96921 0.0
O94 O 0.64056 0.91673 0.9547 0.0
O95 O 0.66168 0.83327 0.92864 0.0
O96 O 0.65083 0.79583 0.90202 0.0
O97 O 0.7143 0.85454 0.97171 0.0
C98 C 0.745 0.89912 0.91712 0.0
C99 C 0.64046 0.80444 0.91946 0.0
Zn100 Zn 0.4047 0.44814 0.63812 0.0
Zn101 Zn 0.35481 0.43379 0.69413 0.0
C102 C 0.36717 0.39394 0.60742 0.0
O103 O 0.36346 0.36409 0.62097 0.0
C104 C 0.3413 0.47386 0.72867 0.0
O105 O 0.30296 0.46801 0.72071 0.0
O106 O 0.4439 0.49917 0.63678 0.0
O107 O 0.35789 0.45594 0.6565 0.0
O108 O 0.32383 0.48322 0.68056 0.0
C109 C 0.44266 0.52588 0.62278 0.0
O110 O 0.41117 0.52285 0.60995 0.0
O111 O 0.38324 0.43078 0.6117 0.0
C112 C 0.33035 0.36241 0.71426 0.0
O113 O 0.36861 0.3716 0.72158 0.0
O114 O 0.31466 0.38594 0.70087 0.0
O115 O 0.40329 0.40484 0.67822 0.0
O116 O 0.43922 0.40092 0.65043 0.0
O117 O 0.37452 0.46071 0.71951 0.0
C118 C 0.33758 0.48767 0.66344 0.0
C119 C 0.43298 0.38798 0.66781 0.0
Zn120 Zn 0.78199 0.13583 0.38649 0.0
Zn121 Zn 0.79746 0.10052 0.44582 0.0
C122 C 0.82416 0.1172 0.35067 0.0
O123 O 0.84064 0.15594 0.35381 0.0
C124 C 0.75377 0.10127 0.47911 0.0
O125 O 0.75457 0.06108 0.47272 0.0
O126 O 0.74356 0.18627 0.38228 0.0
O127 O 0.76722 0.10103 0.40868 0.0
O128 O 0.74432 0.07055 0.43448 0.0
C129 C 0.71227 0.1929 0.3707 0.0
O130 O 0.69833 0.16151 0.35936 0.0
O131 O 0.79662 0.10184 0.36256 0.0
C132 C 0.87212 0.07436 0.46323 0.0
O133 O 0.87512 0.1169 0.46362 0.0
O134 O 0.83898 0.05685 0.45558 0.0
O135 O 0.8339 0.13934 0.42734 0.0
O136 O 0.83527 0.16221 0.39656 0.0
O137 O 0.77426 0.13036 0.46973 0.0
C138 C 0.73711 0.08129 0.41713 0.0
C139 C 0.85122 0.16147 0.41367 0.0
Zn140 Zn 0.06732 0.54168 0.14353 0.0
Zn141 Zn 0.13244 0.56353 0.19447 0.0
C142 C 0.10945 0.59631 0.11284 0.0
O143 O 0.11564 0.62652 0.12604 0.0
C144 C 0.12353 0.51225 0.22668 0.0
O145 O 0.16382 0.5071 0.22112 0.0
O146 O 0.02567 0.49347 0.13941 0.0
O147 O 0.11455 0.52572 0.16095 0.0
O148 O 0.16542 0.51371 0.18157 0.0
C149 C 0.02959 0.46831 0.12492 0.0
O150 O 0.06362 0.47211 0.11361 0.0
O151 O 0.09045 0.56113 0.11748 0.0
C152 C 0.15486 0.63377 0.21615 0.0
O153 O 0.11233 0.63475 0.21642 0.0
O154 O 0.17386 0.60367 0.20698 0.0
O155 O 0.09767 0.60112 0.17471 0.0
O156 O 0.03777 0.58894 0.15833 0.0
O157 O 0.09877 0.53712 0.2169 0.0
C158 C 0.14537 0.50203 0.16642 0.0
C159 C 0.05719 0.60777 0.17239 0.0
Zn160 Zn 0.79553 0.59678 0.54351 0.0
Zn161 Zn 0.77992 0.65414 0.59667 0.0
C162 C 0.75883 0.60245 0.50797 0.0
O163 O 0.75986 0.56116 0.51273 0.0
C164 C 0.83296 0.63424 0.63145 0.0
O165 O 0.85175 0.67204 0.62869 0.0
O166 O 0.83612 0.55315 0.53286 0.0
O167 O 0.8343 0.62788 0.56404 0.0
O168 O 0.8267 0.68549 0.58223 0.0
C169 C 0.86576 0.57217 0.52333 0.0
O170 O 0.86511 0.61472 0.52188 0.0
O171 O 0.77361 0.63042 0.51996 0.0
C172 C 0.7167 0.69584 0.62049 0.0
O173 O 0.72596 0.6643 0.63267 0.0
O174 O 0.73437 0.6964 0.60388 0.0
O175 O 0.75993 0.61197 0.57762 0.0
O176 O 0.741 0.56881 0.55469 0.0
O177 O 0.80323 0.62177 0.61987 0.0
C178 C 0.84394 0.66735 0.56754 0.0
C179 C 0.73197 0.58655 0.57073 0.0
Zn180 Zn 0.13695 0.05319 0.79551 0.0
Zn181 Zn 0.08809 0.03229 0.85033 0.0
C182 C 0.12332 0.01128 0.76185 0.0
O183 O 0.16525 0.01074 0.76508 0.0
C184 C 0.10025 0.07827 0.88663 0.0
O185 O 0.05823 0.08391 0.88492 0.0
O186 O 0.17799 0.09375 0.78272 0.0
O187 O 0.10817 0.08988 0.81731 0.0
O188 O 0.05416 0.07889 0.83714 0.0
C189 C 0.16178 0.13094 0.77964 0.0
O190 O 0.12171 0.13883 0.78485 0.0
O191 O 0.0986 0.03029 0.77392 0.0
C192 C 0.04382 0.96992 0.87418 0.0
O193 O 0.07357 0.98028 0.88708 0.0
O194 O 0.04615 0.98561 0.85717 0.0
O195 O 0.12832 0.01596 0.82991 0.0
O196 O 0.16856 -0.00051 0.80574 0.0
O197 O 0.12014 0.05691 0.8736 0.0
C198 C 0.06907 0.0975 0.82204 0.0
C199 C 0.15357 0.98921 0.82218 0.0
Zn200 Zn 0.68469 0.37723 0.04372 0.0
Zn201 Zn 0.70087 0.34542 0.10295 0.0
C202 C 0.7161 0.37928 0.00666 0.0
O203 O 0.70813 0.42001 0.01094 0.0
C204 C 0.64548 0.38624 0.13294 0.0
O205 O 0.61247 0.37806 0.1214 0.0
O206 O 0.63863 0.41872 0.03564 0.0
O207 O 0.65487 0.33364 0.06269 0.0
O208 O 0.65251 0.30895 0.09309 0.0
C209 C 0.61111 0.40242 0.02399 0.0
O210 O 0.61536 0.36178 0.01857 0.0
O211 O 0.70812 0.34994 0.01918 0.0
C212 C 0.762 0.29797 0.1254 0.0
O213 O 0.75011 0.32586 0.13877 0.0
O214 O 0.74889 0.3032 0.10805 0.0
O215 O 0.71066 0.38264 0.08062 0.0
O216 O 0.73662 0.4097 0.05452 0.0
O217 O 0.68365 0.37693 0.12745 0.0
C218 C 0.63891 0.30815 0.07554 0.0
C219 C 0.74197 0.40088 0.07226 0.0
Zn220 Zn 0.36427 0.94024 0.29115 0.0
Zn221 Zn 0.39864 0.95765 0.34973 0.0
C222 C 0.35529 0.96911 0.25404 0.0
O223 O 0.31582 0.96427 0.26079 0.0
C224 C 0.36584 0.90549 0.38261 0.0
O225 O 0.3858 0.87254 0.37451 0.0
O226 O 0.31845 0.89608 0.28518 0.0
O227 O 0.40979 0.9097 0.30924 0.0
O228 O 0.43457 0.90903 0.33972 0.0
C229 C 0.32211 0.85645 0.28991 0.0
O230 O 0.35452 0.84419 0.30099 0.0
O231 O 0.38724 0.95964 0.265 0.0
C232 C 0.44115 0.02934 0.3688 0.0
O233 O 0.41122 0.02375 0.38211 0.0
O234 O 0.43973 0.00673 0.35342 0.0
O235 O 0.36074 0.96727 0.32786 0.0
O236 O 0.33626 -0.00497 0.30166 0.0
O237 O 0.36693 0.94255 0.37444 0.0
C238 C 0.43561 0.89481 0.32228 0.0
C239 C 0.34435 -0.00036 0.3195 0.0
Zn240 Zn 0.20445 0.34104 0.3864 0.0
Zn241 Zn 0.18126 0.38318 0.44448 0.0
C242 C 0.16288 0.35511 0.34957 0.0
O243 O 0.15133 0.3145 0.35238 0.0
C244 C 0.22597 0.38702 0.47791 0.0
O245 O 0.22162 0.42701 0.47154 0.0
O246 O 0.25007 0.29554 0.38249 0.0
O247 O 0.21408 0.37945 0.40812 0.0
O248 O 0.23193 0.41676 0.43302 0.0
C249 C 0.27248 0.29302 0.3671 0.0
O250 O 0.26873 0.32354 0.35385 0.0
O251 O 0.18717 0.37362 0.36206 0.0
C252 C 0.10879 0.40466 0.46489 0.0
O253 O 0.1137 0.36317 0.46876 0.0
O254 O 0.13573 0.42333 0.45377 0.0
O255 O 0.14951 0.34014 0.42602 0.0
O256 O 0.15296 0.31092 0.39636 0.0
O257 O 0.20775 0.35632 0.46854 0.0
C258 C 0.24155 0.40335 0.41631 0.0
C259 C 0.13459 0.31477 0.41286 0.0
Zn260 Zn 0.9085 0.9541 0.1408 0.0
Zn261 Zn 0.84563 0.92924 0.19081 0.0
C262 C 0.87177 0.89317 0.11099 0.0
O263 O 0.87125 0.86179 0.12392 0.0
C264 C 0.85213 0.96776 0.22574 0.0
O265 O 0.81061 0.96324 0.222 0.0
O266 O 0.94927 0.00223 0.13547 0.0
O267 O 0.8597 0.97261 0.1573 0.0
O268 O 0.81113 0.97921 0.17953 0.0
C269 C 0.95046 0.01824 0.11851 0.0
O270 O 0.92034 0.00761 0.10584 0.0
O271 O 0.88547 0.93066 0.11568 0.0
C272 C 0.82641 0.86022 0.21394 0.0
O273 O 0.86784 0.86611 0.2175 0.0
O274 O 0.80724 0.88488 0.20193 0.0
O275 O 0.88014 0.89794 0.17003 0.0
O276 O 0.94135 0.90848 0.15547 0.0
O277 O 0.87956 0.95524 0.21319 0.0
C278 C 0.8285 -0.00608 0.16422 0.0
C279 C 0.92048 0.89046 0.16913 0.0
Zn280 Zn 0.28937 0.65581 0.89201 0.0
Zn281 Zn 0.29981 0.60792 0.94977 0.0
C282 C 0.34019 0.62127 0.8587 0.0
O283 O 0.37498 0.63854 0.8666 0.0
C284 C 0.25454 0.60059 0.98309 0.0
O285 O 0.25668 0.56169 0.97531 0.0
O286 O 0.24358 0.69952 0.88713 0.0
O287 O 0.27182 0.61507 0.91217 0.0
O288 O 0.24909 0.57793 0.93641 0.0
C289 C 0.21891 0.697 0.87239 0.0
O290 O 0.22161 0.66313 0.86086 0.0
O291 O 0.30384 0.62473 0.86719 0.0
C292 C 0.37553 0.58352 0.96689 0.0
O293 O 0.3747 0.62567 0.96981 0.0
O294 O 0.34438 0.56565 0.95784 0.0
O295 O 0.33121 0.65179 0.93194 0.0
O296 O 0.34033 0.68642 0.90405 0.0
O297 O 0.27391 0.63183 0.9746 0.0
C298 C 0.24247 0.59178 0.91939 0.0
C299 C 0.35193 0.67915 0.92157 0.0
Zn300 Zn 0.58241 0.03614 0.64023 0.0
Zn301 Zn 0.63387 0.05157 0.69686 0.0
C302 C 0.62436 0.08959 0.61034 0.0
O303 O 0.62308 0.12145 0.62301 0.0
C304 C 0.63054 0.0204 0.73445 0.0
O305 O 0.67061 0.03433 0.733 0.0
O306 O 0.53621 0.99199 0.63575 0.0
O307 O 0.62499 0.01761 0.66014 0.0
O308 O 0.66616 0.00177 0.68448 0.0
C309 C 0.53298 0.97344 0.61934 0.0
O310 O 0.56328 0.97968 0.60627 0.0
O311 O 0.61063 0.05212 0.61507 0.0
C312 C 0.65691 0.13255 0.71107 0.0
O313 O 0.61482 0.13704 0.7094 0.0
O314 O 0.67452 0.09723 0.70601 0.0
O315 O 0.59107 0.07924 0.67795 0.0
O316 O 0.55364 0.0891 0.65117 0.0
O317 O 0.60485 0.02483 0.72013 0.0
C318 C 0.6517 0.99178 0.66782 0.0
C319 C 0.56397 0.10136 0.6682 0.0
H320 H 0.37971 0.23853 0.04725 0.0
H321 H 0.60755 0.23988 0.09652 0.0
H322 H 0.42876 0.12617 0.07741 0.0
H323 H 0.58415 0.31363 0.04422 0.0
H324 H 0.54099 0.19915 0.09047 0.0
H325 H 0.45368 0.268 0.04579 0.0
C326 C 0.40635 0.21976 0.05314 0.0
C327 C 0.39872 0.17998 0.06232 0.0
C328 C 0.55092 0.22368 0.0801 0.0
C329 C 0.48226 0.21371 0.06139 0.0
C330 C 0.58876 0.24711 0.08358 0.0
C331 C 0.60142 0.28029 0.0708 0.0
C332 C 0.52519 0.23398 0.0639 0.0
C333 C 0.57577 0.28823 0.05432 0.0
C334 C 0.44834 0.23646 0.05234 0.0
C335 C 0.43379 0.15682 0.07002 0.0
N336 N 0.53844 0.26567 0.05146 0.0
N337 N 0.47409 0.17444 0.06972 0.0
H338 H 0.61044 0.67739 0.33164 0.0
H339 H 0.43587 0.84293 0.28953 0.0
H340 H 0.49753 0.63214 0.30059 0.0
H341 H 0.49751 0.8587 0.34559 0.0
H342 H 0.47295 0.77293 0.28587 0.0
H343 H 0.58355 0.752 0.32896 0.0
C344 C 0.58048 0.68343 0.32385 0.0
C345 C 0.55601 0.64895 0.31629 0.0
C346 C 0.47844 0.79214 0.29885 0.0
C347 C 0.52548 0.73369 0.31307 0.0
C348 C 0.45737 0.83199 0.30098 0.0
C349 C 0.46268 0.85627 0.31813 0.0
C350 C 0.50592 0.77729 0.31369 0.0
C351 C 0.49186 0.84089 0.33225 0.0
C352 C 0.56513 0.7258 0.32242 0.0
C353 C 0.51711 0.65813 0.30659 0.0
N354 N 0.51226 0.80235 0.32974 0.0
N355 N 0.50291 0.69983 0.30523 0.0
H356 H 0.06762 0.83122 0.55157 0.0
H357 H 0.91931 0.62199 0.56937 0.0
H358 H 0.10703 0.72188 0.58648 0.0
H359 H 0.86751 0.74828 0.55569 0.0
H360 H -0.0073 0.65209 0.56753 0.0
H361 H -0.00137 0.79465 0.54482 0.0
C362 C 0.06225 0.799 0.55732 0.0
C363 C 0.09319 0.77926 0.56936 0.0
C364 C 0.96531 0.67298 0.56452 0.0
C365 C 0.01428 0.73776 0.56211 0.0
C366 C 0.92353 0.65578 0.56539 0.0
C367 C 0.88757 0.68283 0.56258 0.0
C368 C 0.97103 0.71733 0.56054 0.0
C369 C 0.8946 0.72653 0.5579 0.0
C370 C 0.02271 0.77842 0.55369 0.0
C371 C 0.08397 0.73814 0.57709 0.0
N372 N 0.93562 0.74254 0.55706 0.0
N373 N 0.04527 0.71875 0.57338 0.0
H374 H 0.09519 0.16795 0.84161 0.0
H375 H 0.92489 0.33044 0.79257 0.0
H376 H 0.00748 0.12661 0.79637 0.0
H377 H -0.00676 0.35355 0.84653 0.0
H378 H 0.96196 0.26007 0.78984 0.0
H379 H 0.0656 0.2411 0.83952 0.0
C380 C 0.06994 0.17472 0.83105 0.0
C381 C 0.05352 0.14178 0.81915 0.0
C382 C 0.96886 0.28086 0.80217 0.0
C383 C 0.01913 0.22497 0.81673 0.0
C384 C 0.94795 0.321 0.80369 0.0
C385 C 0.9559 0.34785 0.81983 0.0
C386 C -0.00201 0.26797 0.8168 0.0
C387 C 0.98591 0.33398 0.83386 0.0
C388 C 0.05291 0.2163 0.82989 0.0
C389 C 0.02069 0.15157 0.80577 0.0
N390 N 0.00566 0.29506 0.83203 0.0
N391 N 0.00427 0.19254 0.80493 0.0
H392 H 0.57167 0.84798 0.93413 0.0
H393 H 0.42166 0.63644 0.9362 0.0
H394 H 0.61788 0.71935 0.92121 0.0
H395 H 0.37511 0.76421 0.92162 0.0
H396 H 0.49391 0.66717 0.94224 0.0
H397 H 0.49991 0.81757 0.94124 0.0
C398 C 0.56702 0.81315 0.93353 0.0
C399 C 0.60052 0.78588 0.92739 0.0
C400 C 0.46758 0.68857 0.93819 0.0
C401 C 0.51894 0.7512 0.93498 0.0
C402 C 0.42642 0.67118 0.93493 0.0
C403 C 0.39268 0.69808 0.9286 0.0
C404 C 0.47466 0.73311 0.93519 0.0
C405 C 0.40054 0.74261 0.92653 0.0
C406 C 0.52609 0.79592 0.93734 0.0
C407 C 0.59268 0.74121 0.92603 0.0
N408 N 0.44087 0.75882 0.92976 0.0
N409 N 0.55253 0.72517 0.92971 0.0
H410 H 0.61043 0.17554 0.66909 0.0
H411 H 0.40293 0.32207 0.69074 0.0
H412 H 0.48414 0.12293 0.68154 0.0
H413 H 0.51604 0.36607 0.65976 0.0
H414 H 0.43891 0.25235 0.69673 0.0
H415 H 0.58251 0.24878 0.67501 0.0
C416 C 0.57703 0.17959 0.67353 0.0
C417 C 0.54938 0.14373 0.67499 0.0
C418 C 0.45612 0.27766 0.68898 0.0
C419 C 0.51714 0.2267 0.68141 0.0
C420 C 0.4358 0.31747 0.68571 0.0
C421 C 0.45664 0.34957 0.67469 0.0
C422 C 0.49759 0.27039 0.68132 0.0
C423 C 0.49885 0.34187 0.66818 0.0
C424 C 0.56109 0.22118 0.67682 0.0
C425 C 0.50626 0.15015 0.68043 0.0
N426 N 0.51788 0.30292 0.67149 0.0
N427 N 0.49125 0.19106 0.68334 0.0
H428 H 0.07795 0.29757 0.38421 0.0
H429 H 0.88653 0.19836 0.44692 0.0
H430 H 0.09337 0.28737 0.44648 0.0
H431 H 0.91273 0.17077 0.38655 0.0
H432 H 0.95645 0.23767 0.44892 0.0
H433 H 0.0089 0.26142 0.38651 0.0
C434 C 0.06692 0.28722 0.39843 0.0
C435 C 0.09189 0.29437 0.41513 0.0
C436 C 0.94669 0.22258 0.43537 0.0
C437 C 0.0124 0.2523 0.41787 0.0
C438 C 0.90712 0.20018 0.43423 0.0
C439 C 0.89371 0.18207 0.41645 0.0
C440 C 0.97218 0.22656 0.41858 0.0
C441 C 0.92126 0.18516 0.40041 0.0
C442 C 0.02735 0.26656 0.39974 0.0
C443 C 0.07511 0.28179 0.43325 0.0
N444 N 0.95891 0.20712 0.40186 0.0
N445 N 0.03623 0.26074 0.43418 0.0
H446 H 0.09827 0.68282 0.18364 0.0
H447 H 0.87807 0.8172 0.18153 0.0
H448 H 0.97151 0.62514 0.17726 0.0
H449 H 0.00542 0.874 0.17654 0.0
H450 H 0.91143 0.74735 0.18939 0.0
H451 H 0.06424 0.75272 0.19035 0.0
C452 C 0.06326 0.6846 0.18414 0.0
C453 C 0.03761 0.64819 0.17979 0.0
C454 C 0.93205 0.77531 0.18697 0.0
C455 C -0.00149 0.72828 0.18702 0.0
C456 C 0.91302 0.81528 0.18265 0.0
C457 C 0.93912 0.85128 0.1782 0.0
C458 C 0.9774 0.77144 0.18679 0.0
C459 C 0.98421 0.84685 0.17966 0.0
C460 C 0.04384 0.72461 0.18784 0.0
C461 C -0.00759 0.65258 0.18036 0.0
N462 N 0.00195 0.80751 0.18358 0.0
N463 N 0.97427 0.69202 0.18366 0.0
H464 H 0.45148 0.10489 0.00723 0.0
H465 H 0.5358 0.86817 0.9799 0.0
H466 H 0.37462 0.98854 0.01421 0.0
H467 H 0.60475 0.98648 0.9663 0.0
H468 H 0.47628 0.9115 0.99281 0.0
H469 H 0.50849 0.06162 0.99245 0.0
C470 C 0.44651 0.07027 0.00552 0.0
C471 C 0.40841 0.05016 0.01192 0.0
C472 C 0.5044 0.92793 0.98695 0.0
C473 C 0.47331 0.00059 0.99511 0.0
C474 C 0.53835 0.90326 0.97966 0.0
C475 C 0.57514 0.92391 0.97217 0.0
C476 C 0.50766 0.97341 0.98683 0.0
C477 C 0.57683 0.96936 0.97195 0.0
C478 C 0.47904 0.04559 -0.0029 0.0
C479 C 0.40365 0.00522 0.0095 0.0
N480 N 0.54358 0.99265 0.9793 0.0
N481 N 0.43588 0.98184 0.0013 0.0
H482 H 0.63383 0.67483 0.24922 0.0
H483 H 0.85385 0.81067 0.24433 0.0
H484 H 0.74682 0.64646 0.28418 0.0
H485 H 0.74481 0.83155 0.20592 0.0
H486 H 0.81375 0.75253 0.26028 0.0
H487 H 0.67304 0.7346 0.23407 0.0
C488 C 0.66692 0.68125 0.2537 0.0
C489 C 0.68732 0.65576 0.26787 0.0
C490 C 0.79866 0.76978 0.24833 0.0
C491 C 0.73209 0.72391 0.25077 0.0
C492 C 0.82151 0.80289 0.23923 0.0
C493 C 0.80257 0.82564 0.22377 0.0
C494 C 0.75677 0.75942 0.24182 0.0
C495 C 0.76051 0.81471 0.21782 0.0
C496 C 0.68925 0.7153 0.24505 0.0
C497 C 0.73014 0.66524 0.27316 0.0
N498 N 0.73898 0.78217 0.22685 0.0
N499 N 0.75118 0.69874 0.2646 0.0
H500 H 0.09988 0.98738 0.52399 0.0
H501 H 0.86989 0.9873 0.47067 0.0
H502 H 0.02959 0.8704 0.50944 0.0
H503 H 0.95129 0.10094 0.47618 0.0
H504 H 0.92609 0.94423 0.48656 0.0
H505 H 0.04323 0.03023 0.50835 0.0
C506 C 0.07229 0.9708 0.51762 0.0
C507 C 0.06919 0.92543 0.51794 0.0
C508 C 0.93169 0.97855 0.4842 0.0
C509 C 0.00456 0.97398 0.50009 0.0
C510 C 0.8997 0.0031 0.47513 0.0
C511 C 0.90604 0.04768 0.47217 0.0
C512 C 0.97015 -0.00118 0.49031 0.0
C513 C 0.94505 0.06666 0.4783 0.0
C514 C 0.04014 -0.0048 0.50862 0.0
C515 C 0.03316 0.90539 0.50934 0.0
N516 N 0.9757 0.04208 0.48712 0.0
N517 N 0.00206 0.92988 0.50078 0.0
H518 H 0.79758 0.26948 0.79974 0.0
H519 H 0.65075 0.21993 0.70716 0.0
H520 H 0.77539 0.36374 0.75423 0.0
H521 H 0.71888 0.11951 0.73841 0.0
H522 H 0.68909 0.2748 0.72656 0.0
H523 H 0.75951 0.215 0.78007 0.0
C524 C 0.78453 0.27875 0.78571 0.0
C525 C 0.78978 0.32103 0.77856 0.0
C526 C 0.69572 0.24074 0.72909 0.0
C527 C 0.74669 0.25929 0.75614 0.0
C528 C 0.67397 0.20965 0.71807 0.0
C529 C 0.6821 0.16558 0.72127 0.0
C530 C 0.72464 0.22732 0.7437 0.0
C531 C 0.71232 0.15342 0.73547 0.0
C532 C 0.76315 0.24767 0.77446 0.0
C533 C 0.7722 0.33143 0.76028 0.0
N534 N 0.73226 0.18423 0.74639 0.0
N535 N 0.75141 0.30073 0.74969 0.0
H536 H 0.29515 0.29166 0.69662 0.0
H537 H 0.15893 0.21707 0.78714 0.0
H538 H 0.30753 0.35684 0.75183 0.0
H539 H 0.22113 0.12175 0.75078 0.0
H540 H 0.20004 0.27439 0.77066 0.0
H541 H 0.25382 0.23327 0.71271 0.0
C542 C 0.28874 0.29362 0.71207 0.0
C543 C 0.30439 0.32844 0.7231 0.0
C544 C 0.20458 0.24087 0.76635 0.0
C545 C 0.25741 0.26346 0.74119 0.0
C546 C 0.18123 0.20838 0.77565 0.0
C547 C 0.18708 0.16499 0.77025 0.0
C548 C 0.2328 0.22974 0.75126 0.0
C549 C 0.21626 0.155 0.75537 0.0
C550 C 0.26563 0.2605 0.72119 0.0
C551 C 0.2959 0.33005 0.74303 0.0
N552 N 0.23789 0.18738 0.74616 0.0
N553 N 0.27246 0.29805 0.75149 0.0
H554 H 0.24953 0.87035 0.26795 0.0
H555 H 0.23709 0.62671 0.2302 0.0
H556 H 0.33274 0.76854 0.28967 0.0
H557 H 0.12922 0.7152 0.22597 0.0
H558 H 0.27719 0.68129 0.24884 0.0
H559 H 0.20857 0.81613 0.24956 0.0
C560 C 0.25886 0.83655 0.26903 0.0
C561 C 0.29441 0.82382 0.28042 0.0
C562 C 0.24473 0.68868 0.24384 0.0
C563 C 0.24826 0.76206 0.25925 0.0
C564 C 0.22202 0.65775 0.23313 0.0
C565 C 0.17986 0.66661 0.22672 0.0
C566 C 0.22526 0.72882 0.24784 0.0
C567 C 0.16157 0.70712 0.23089 0.0
C568 C 0.23555 0.80571 0.25851 0.0
C569 C 0.30534 0.77969 0.28118 0.0
N570 N 0.18452 0.73693 0.24116 0.0
N571 N 0.28249 0.75035 0.2706 0.0
H572 H 0.0514 0.37624 0.4921 0.0
H573 H 0.92459 0.60151 0.49703 0.0
H574 H 0.08418 0.48818 0.45722 0.0
H575 H 0.88643 0.48685 0.52889 0.0
H576 H 0.98378 0.56072 0.48253 0.0
H577 H 0.99152 0.41674 0.5062 0.0
C578 C 0.04591 0.40932 0.48737 0.0
C579 C 0.07269 0.42891 0.47346 0.0
C580 C 0.96246 0.54445 0.49268 0.0
C581 C 0.00427 0.47534 0.48948 0.0
C582 C 0.92871 0.56771 0.50098 0.0
C583 C 0.90072 0.54745 0.51419 0.0
C584 C 0.96835 0.50073 0.49774 0.0
C585 C 0.90728 0.5036 0.51871 0.0
C586 C 0.01173 0.43241 0.49542 0.0
C587 C 0.06431 0.4719 0.46794 0.0
N588 N 0.94061 0.48168 0.51053 0.0
N589 N 0.03073 0.49371 0.47597 0.0
H590 H 0.53698 0.37393 0.00678 0.0
H591 H 0.45308 0.61238 0.98098 0.0
H592 H 0.60583 0.49091 0.02265 0.0
H593 H 0.37954 0.49538 0.9701 0.0
H594 H 0.51118 0.56842 0.99491 0.0
H595 H 0.47996 0.4181 0.99228 0.0
C596 C 0.54006 0.40897 0.00717 0.0
C597 C 0.57605 0.42891 0.01587 0.0
C598 C 0.48229 0.5524 0.98951 0.0
C599 C 0.51126 0.47958 -0.00078 0.0
C600 C 0.44916 0.57743 0.98157 0.0
C601 C 0.41142 0.5574 0.97455 0.0
C602 C 0.47745 0.50712 0.99044 0.0
C603 C 0.40815 0.51207 0.97538 0.0
C604 C 0.50753 0.43416 -0.00108 0.0
C605 C 0.5784 0.47435 0.01616 0.0
N606 N 0.44073 0.48842 0.98328 0.0
N607 N 0.54643 0.49825 0.00785 0.0
H608 H 0.15196 0.23177 0.13716 0.0
H609 H 0.22492 0.47097 0.15682 0.0
H610 H 0.25547 0.2898 0.10397 0.0
H611 H 0.08877 0.44018 0.15477 0.0
H612 H 0.24073 0.40022 0.14192 0.0
H613 H 0.13044 0.30475 0.14804 0.0
C614 C 0.16977 0.25986 0.13204 0.0
C615 C 0.20535 0.255 0.11965 0.0
C616 C 0.20737 0.40935 0.14452 0.0
C617 C 0.18201 0.3374 0.13237 0.0
C618 C 0.19845 0.4494 0.153 0.0
C619 C 0.15552 0.46133 0.15651 0.0
C620 C 0.17314 0.38082 0.14019 0.0
C621 C 0.12216 0.43232 0.15166 0.0
C622 C 0.15751 0.30124 0.13819 0.0
C623 C 0.22758 0.29226 0.11341 0.0
N624 N 0.13165 0.39296 0.14392 0.0
N625 N 0.21599 0.33192 0.12011 0.0
H626 H 0.466 0.44151 0.34547 0.0
H627 H 0.31389 0.42414 0.43678 0.0
H628 H 0.51413 0.43464 0.4044 0.0
H629 H 0.26932 0.3927 0.37893 0.0
H630 H 0.38795 0.42684 0.42482 0.0
H631 H 0.39482 0.41846 0.35687 0.0
C632 C 0.46177 0.43421 0.36076 0.0
C633 C 0.49558 0.44091 0.37412 0.0
C634 C 0.36207 0.419 0.41474 0.0
C635 C 0.41438 0.41544 0.38724 0.0
C636 C 0.31974 0.41807 0.42149 0.0
C637 C 0.28559 0.40833 0.40874 0.0
C638 C 0.37023 0.41077 0.39503 0.0
C639 C 0.29492 0.40014 0.38918 0.0
C640 C 0.42115 0.42115 0.36725 0.0
C641 C 0.48872 0.4304 0.39367 0.0
N642 N 0.33649 0.40185 0.38284 0.0
N643 N 0.44852 0.41904 0.39974 0.0
H644 H 0.27319 0.71446 0.59845 0.0
H645 H 0.36313 0.56069 0.68182 0.0
H646 H 0.31563 0.75899 0.65494 0.0
H647 H 0.31892 0.51327 0.62623 0.0
H648 H 0.35952 0.63482 0.66953 0.0
H649 H 0.30285 0.64291 0.60566 0.0
C650 C 0.28944 0.70946 0.61226 0.0
C651 C 0.29115 0.74256 0.62631 0.0
C652 C 0.35095 0.60835 0.65989 0.0
C653 C 0.32499 0.6606 0.63462 0.0
C654 C 0.3529 0.5661 0.66692 0.0
C655 C 0.34053 0.53129 0.65505 0.0
C656 C 0.33553 0.6159 0.64097 0.0
C657 C 0.3283 0.53959 0.6358 0.0
C658 C 0.30632 0.66851 0.61635 0.0
C659 C 0.31296 0.73428 0.64381 0.0
N660 N 0.32534 0.58131 0.62941 0.0
N661 N 0.3285 0.69393 0.64757 0.0
H662 H 0.02254 0.52995 0.8473 0.0
H663 H 0.16652 0.59235 0.93851 0.0
H664 H 0.97052 0.56721 0.90305 0.0
H665 H 0.22001 0.5849 0.88078 0.0
H666 H 0.09405 0.58643 0.92488 0.0
H667 H 0.09412 0.55449 0.85797 0.0
C668 C 0.02595 0.54405 0.86165 0.0
C669 C 0.99059 0.54585 0.87446 0.0
C670 C 0.12144 0.58632 0.91508 0.0
C671 C 0.07242 0.57354 0.88673 0.0
C672 C 0.16286 0.5893 0.92289 0.0
C673 C 0.19908 0.58862 0.91071 0.0
C674 C 0.11608 0.5817 0.89493 0.0
C675 C 0.19266 0.58549 0.89058 0.0
C676 C 0.06688 0.55798 0.86772 0.0
C677 C -0.00309 0.56463 0.8928 0.0
N678 N 0.15178 0.58153 0.88327 0.0
N679 N 0.03715 0.57718 0.89847 0.0
H680 H 0.85528 0.52446 0.85522 0.0
H681 H 0.76852 0.75994 0.82722 0.0
H682 H 0.7888 0.55484 0.80161 0.0
H683 H 0.79453 0.72248 0.88664 0.0
H684 H 0.78736 0.68678 0.81673 0.0
H685 H 0.84097 0.59835 0.86673 0.0
C686 C 0.83746 0.54654 0.84596 0.0
C687 C 0.82384 0.53385 0.82734 0.0
C688 C 0.78928 0.69471 0.83206 0.0
C689 C 0.80784 0.61794 0.84021 0.0
C690 C 0.77909 0.73659 0.83801 0.0
C691 C 0.77969 0.74706 0.85782 0.0
C692 C 0.8005 0.66333 0.846 0.0
C693 C 0.79335 0.71547 0.87121 0.0
C694 C 0.82938 0.58861 0.8525 0.0
C695 C 0.80029 0.56342 0.816 0.0
N696 N 0.80303 0.6748 0.86507 0.0
N697 N 0.79339 0.60425 0.82255 0.0
H698 H 0.51598 0.53449 0.64498 0.0
H699 H 0.65593 0.57337 0.55193 0.0
H700 H 0.46019 0.57235 0.58985 0.0
H701 H 0.71042 0.59228 0.60913 0.0
H702 H 0.58365 0.5713 0.56614 0.0
H703 H 0.58709 0.55719 0.63328 0.0
C704 C 0.51845 0.5486 0.63059 0.0
C705 C 0.48227 0.55053 0.61816 0.0
C706 C 0.61135 0.57616 0.5756 0.0
C707 C 0.56344 0.57583 0.6047 0.0
C708 C 0.65257 0.5767 0.56753 0.0
C709 C 0.6889 0.58259 0.57946 0.0
C710 C 0.60657 0.58058 0.59579 0.0
C711 C 0.68294 0.58762 0.59953 0.0
C712 C 0.55909 0.56146 0.62393 0.0
C713 C 0.48731 0.56952 0.59979 0.0
N714 N 0.64242 0.58595 0.60717 0.0
N715 N 0.52739 0.58058 0.59344 0.0
H716 H 0.75127 0.26616 0.38425 0.0
H717 H 0.58794 0.43431 0.33705 0.0
H718 H 0.64078 0.22258 0.35072 0.0
H719 H 0.72593 0.45529 0.33872 0.0
H720 H 0.59868 0.36139 0.35071 0.0
H721 H 0.73306 0.34092 0.37637 0.0
C722 C 0.72274 0.27225 0.37546 0.0
C723 C 0.6977 0.23799 0.36791 0.0
C724 C 0.62642 0.38231 0.34835 0.0
C725 C 0.67678 0.3236 0.35909 0.0
C726 C 0.62032 0.4239 0.34087 0.0
C727 C 0.6561 0.45071 0.33725 0.0
C728 C 0.66855 0.36809 0.3524 0.0
C729 C 0.69764 0.43545 0.34155 0.0
C730 C 0.7126 0.31495 0.37094 0.0
C731 C 0.66113 0.24804 0.35664 0.0
N732 N 0.70278 0.39503 0.34903 0.0
N733 N 0.65172 0.29018 0.3525 0.0
H734 H 0.76341 0.39768 0.11087 0.0
H735 H 0.01529 0.43074 0.08945 0.0
H736 H 0.81902 0.40841 0.05358 0.0
H737 H 0.95773 0.44808 0.14605 0.0
H738 H 0.9458 0.40417 0.07722 0.0
H739 H 0.83642 0.40039 0.12489 0.0
C740 C 0.79099 0.40032 0.10127 0.0
C741 C 0.78529 0.40306 0.0811 0.0
C742 C 0.9486 0.41316 0.09239 0.0
C743 C 0.86847 0.40606 0.09688 0.0
C744 C 0.98832 0.42802 0.09942 0.0
C745 C 0.99189 0.44255 0.11867 0.0
C746 C 0.91245 0.41287 0.10474 0.0
C747 C 0.95603 0.43801 0.13099 0.0
C748 C 0.83256 0.40183 0.10924 0.0
C749 C 0.82199 0.40672 0.06925 0.0
N750 N 0.91752 0.42417 0.12374 0.0
N751 N 0.86204 0.40824 0.07733 0.0
H752 H 0.69999 0.71914 0.658 0.0
H753 H 0.63083 0.96169 0.63147 0.0
H754 H 0.68545 0.76304 0.59869 0.0
H755 H 0.69044 0.9234 0.68569 0.0
H756 H 0.63797 0.88676 0.61976 0.0
H757 H 0.67993 0.79143 0.66927 0.0
C758 C 0.69167 0.7437 0.64735 0.0
C759 C 0.69512 0.73541 0.62739 0.0
C760 C 0.64948 0.89497 0.6342 0.0
C761 C 0.67279 0.81806 0.64015 0.0
C762 C 0.64557 0.93759 0.64083 0.0
C763 C 0.66 0.94861 0.65955 0.0
C764 C 0.66745 0.86337 0.64651 0.0
C765 C 0.67901 0.91634 0.67113 0.0
C766 C 0.68067 0.78504 0.65378 0.0
C767 C 0.68382 0.7684 0.61423 0.0
N768 N 0.68195 0.8751 0.66445 0.0
N769 N 0.67356 0.80856 0.62084 0.0
H770 H 0.77862 0.87661 0.88155 0.0
H771 H 0.01374 0.96148 0.9112 0.0
H772 H 0.80719 0.94952 0.93367 0.0
H773 H 0.97935 0.93606 0.85134 0.0
H774 H 0.93977 0.94395 0.92072 0.0
H775 H 0.85334 0.88897 0.87059 0.0
C776 C 0.80043 0.89549 0.89056 0.0
C777 C 0.78693 0.91158 0.90863 0.0
C778 C 0.94853 0.94184 0.90552 0.0
C779 C 0.87193 0.92503 0.89646 0.0
C780 C 0.99089 0.9513 0.9001 0.0
C781 C 0.00253 0.95057 0.88044 0.0
C782 C 0.91778 0.93115 0.8912 0.0
C783 C 0.97148 0.93736 0.86666 0.0
C784 C 0.84295 0.90238 0.88436 0.0
C785 C 0.81627 0.93618 0.91971 0.0
N786 N 0.93029 0.92836 0.87229 0.0
N787 N 0.85749 0.94174 0.91354 0.0
H788 H 0.86 0.03433 0.13174 0.0
H789 H 0.75469 0.26019 0.16087 0.0
H790 H 0.769 0.05049 0.17864 0.0
H791 H 0.80403 0.23746 0.10311 0.0
H792 H 0.76915 0.18478 0.16906 0.0
H793 H 0.84654 0.10949 0.12169 0.0
C794 C 0.83689 0.05353 0.13977 0.0
C795 C 0.816 0.03641 0.15618 0.0
C796 C 0.77719 0.19632 0.15464 0.0
C797 C 0.80091 0.12207 0.14498 0.0
C798 C 0.76951 0.23956 0.15003 0.0
C799 C 0.77826 0.25505 0.13129 0.0
C800 C 0.79439 0.16846 0.14052 0.0
C801 C 0.79679 0.22662 0.11772 0.0
C802 C 0.82928 0.09633 0.13405 0.0
C803 C 0.78608 0.06248 0.166 0.0
N804 N 0.80432 0.1845 0.12261 0.0
N805 N 0.77977 0.10416 0.16037 0.0
H806 H 0.66237 0.07399 0.4373 0.0
H807 H 0.51185 0.04191 0.34552 0.0
H808 H 0.71188 0.08386 0.37887 0.0
H809 H 0.46364 0.06759 0.40325 0.0
H810 H 0.5845 0.062 0.35642 0.0
H811 H 0.58902 0.07319 0.42444 0.0
C812 C 0.65773 0.07579 0.4217 0.0
C813 C 0.6931 0.07883 0.40906 0.0
C814 C 0.55786 0.06405 0.36658 0.0
C815 C 0.60906 0.07827 0.39422 0.0
C816 C 0.51633 0.05271 0.36038 0.0
C817 C 0.48182 0.05208 0.37365 0.0
C818 C 0.5648 0.07448 0.38619 0.0
C819 C 0.48939 0.06688 0.39262 0.0
C820 C 0.61578 0.07586 0.41437 0.0
C821 C 0.68528 0.08161 0.38903 0.0
N822 N 0.53027 0.07672 0.39842 0.0
N823 N 0.64392 0.08088 0.38215 0.0
H824 H 0.32055 0.27458 0.33486 0.0
H825 H 0.33535 0.02033 0.35811 0.0
H826 H 0.2771 0.21854 0.38897 0.0
H827 H 0.34944 0.07747 0.30121 0.0
H828 H 0.32841 0.09362 0.37199 0.0
H829 H 0.34741 0.20357 0.32499 0.0
C830 C 0.31719 0.24749 0.34479 0.0
C831 C 0.29579 0.25237 0.3626 0.0
C832 C 0.33344 0.08999 0.3565 0.0
C833 C 0.32604 0.17078 0.35129 0.0
C834 C 0.3375 0.0483 0.34862 0.0
C835 C 0.34266 0.04299 0.32852 0.0
C836 C 0.33491 0.12634 0.34413 0.0
C837 C 0.34497 0.08013 0.31678 0.0
C838 C 0.3324 0.20688 0.33912 0.0
C839 C 0.29289 0.21614 0.37498 0.0
N840 N 0.34097 0.12014 0.32475 0.0
N841 N 0.30729 0.17668 0.36898 0.0
H842 H 0.00917 0.0668 0.13876 0.0
H843 H 0.1947 0.0122 0.06333 0.0
H844 H 0.98665 0.00497 0.08331 0.0
H845 H 0.2039 0.12482 0.10035 0.0
H846 H 0.12268 -0.00246 0.07629 0.0
H847 H 0.08452 0.08088 0.1291 0.0
C848 C 0.01995 0.05704 0.12444 0.0
C849 C 0.9919 0.03519 0.11169 0.0
C850 C 0.14064 0.02537 0.08163 0.0
C851 C 0.07738 0.04917 0.10108 0.0
C852 C 0.18173 0.03357 0.07437 0.0
C853 C 0.20473 0.07025 0.08063 0.0
C854 C 0.12265 0.05407 0.09518 0.0
C855 C 0.18688 0.09647 0.09516 0.0
C856 C 0.06276 0.06469 0.11905 0.0
C857 C 0.00716 0.02257 0.09341 0.0
N858 N 0.14645 0.08817 0.10188 0.0
N859 N 0.04918 0.02923 0.08874 0.0
H860 H 0.14146 0.96411 0.85977 0.0
H861 H 0.18603 0.71458 0.83632 0.0
H862 H 0.17873 0.91594 0.80335 0.0
H863 H 0.19997 0.76885 0.89391 0.0
H864 H 0.16365 0.78581 0.82436 0.0
H865 H 0.1466 0.89014 0.87274 0.0
C866 C 0.15082 0.93793 0.85017 0.0
C867 C 0.16002 0.94593 0.83054 0.0
C868 C 0.17107 0.78186 0.83966 0.0
C869 C 0.16504 0.86179 0.84506 0.0
C870 C 0.18345 0.74121 0.84653 0.0
C871 C 0.1957 0.73615 0.86604 0.0
C872 C 0.17065 0.81734 0.85245 0.0
C873 C 0.1915 0.77166 0.87867 0.0
C874 C 0.15359 0.89589 0.85753 0.0
C875 C 0.17195 0.91111 0.81863 0.0
N876 N 0.17978 0.81103 0.8716 0.0
N877 N 0.17399 0.87041 0.82608 0.0
H878 H 0.50248 0.96137 0.5826 0.0
H879 H 0.26812 0.87754 0.61179 0.0
H880 H 0.46774 0.94436 0.64291 0.0
H881 H 0.29566 0.95268 0.56028 0.0
H882 H 0.34258 0.89098 0.62319 0.0
H883 H 0.42837 0.94354 0.57328 0.0
C884 C 0.47948 0.953 0.59387 0.0
C885 C 0.49107 0.95464 0.61356 0.0
C886 C 0.33195 0.90467 0.60948 0.0
C887 C 0.40626 0.93471 0.603 0.0
C888 C 0.28965 0.89707 0.603 0.0
C889 C 0.27604 0.91338 0.58495 0.0
C890 C 0.36052 0.92825 0.59764 0.0
C891 C 0.30489 0.93905 0.57419 0.0
C892 C 0.43709 0.94334 0.58855 0.0
C893 C 0.45985 0.94375 0.62756 0.0
N894 N 0.34592 0.94525 0.5806 0.0
N895 N 0.41861 0.93433 0.62201 0.0
H896 H 0.16693 0.11943 0.0058 0.0
H897 H 0.188 0.08479 0.89239 0.0
H898 H 0.28865 0.13147 0.9759 0.0
H899 H 0.06567 0.10771 0.92074 0.0
H900 H 0.22562 0.10628 0.92228 0.0
H901 H 0.12898 0.12157 0.97455 0.0
C902 C 0.18547 0.12417 0.99261 0.0
C903 C 0.23076 0.1261 0.99332 0.0
C904 C 0.19056 0.1071 0.92189 0.0
C905 C 0.18796 0.12626 0.95747 0.0
C906 C 0.16905 0.09459 0.90486 0.0
C907 C 0.12359 0.09406 0.90411 0.0
C908 C 0.16645 0.11855 0.9384 0.0
C909 C 0.10074 0.10747 0.92066 0.0
C910 C 0.1639 0.12496 0.97476 0.0
C911 C 0.25358 0.13084 0.97588 0.0
N912 N 0.12238 0.11862 0.93718 0.0
N913 N 0.23196 0.12998 0.95858 0.0
H914 H 0.57244 0.42389 0.14862 0.0
H915 H 0.67768 0.43151 0.25464 0.0
H916 H 0.7027 0.38426 0.16306 0.0
H917 H 0.57736 0.52207 0.23854 0.0
H918 H 0.67388 0.39966 0.22238 0.0
H919 H 0.56287 0.44856 0.18245 0.0
C920 C 0.59894 0.42038 0.15885 0.0
C921 C 0.63855 0.40227 0.15297 0.0
C922 C 0.65237 0.42625 0.22589 0.0
C923 C 0.62743 0.42933 0.19148 0.0
C924 C 0.65436 0.44436 0.24434 0.0
C925 C 0.62827 0.47991 0.24914 0.0
C926 C 0.62423 0.44386 0.21195 0.0
C927 C 0.59812 0.49474 0.23533 0.0
C928 C 0.59341 0.43442 0.17808 0.0
C929 C 0.67174 0.39831 0.16682 0.0
N930 N 0.59728 0.47696 0.21714 0.0
N931 N 0.66533 0.41152 0.18538 0.0
H932 H 0.23 0.96018 0.48821 0.0
H933 H 0.35271 0.83082 0.40403 0.0
H934 H 0.24987 0.8216 0.4913 0.0
H935 H 0.32773 0.96871 0.40425 0.0
H936 H 0.31552 0.82472 0.43549 0.0
H937 H 0.26561 0.96171 0.45705 0.0
C938 C 0.2419 0.92986 0.48233 0.0
C939 C 0.237 0.89067 0.49249 0.0
C940 C 0.3182 0.8562 0.42857 0.0
C941 C 0.27837 0.89226 0.45635 0.0
C942 C 0.3394 0.85975 0.41065 0.0
C943 C 0.34325 0.90035 0.40144 0.0
C944 C 0.30092 0.89355 0.4373 0.0
C945 C 0.32546 0.9367 0.41068 0.0
C946 C 0.26232 0.93079 0.46441 0.0
C947 C 0.25292 0.85251 0.48393 0.0
N948 N 0.30522 0.93238 0.42803 0.0
N949 N 0.27311 0.85424 0.46631 0.0
H950 H 0.80274 0.55326 0.63977 0.0
H951 H 0.91834 0.53459 0.74389 0.0
H952 H 0.88946 0.65222 0.6616 0.0
H953 H 0.81705 0.45038 0.7226 0.0
H954 H 0.91833 0.57249 0.71224 0.0
H955 H 0.81765 0.50967 0.66838 0.0
C956 C 0.82513 0.56582 0.65056 0.0
C957 C 0.8445 0.60673 0.64834 0.0
C958 C 0.89666 0.54526 0.71446 0.0
C959 C 0.8617 0.5567 0.68144 0.0
C960 C 0.89695 0.5235 0.7324 0.0
C961 C 0.86755 0.48955 0.73574 0.0
C962 C 0.8671 0.53236 0.69992 0.0
C963 C 0.84001 0.47664 0.7206 0.0
C964 C 0.83369 0.54081 0.66695 0.0
C965 C 0.87357 0.62097 0.6628 0.0
N966 N 0.84035 0.49812 0.70343 0.0
N967 N 0.88106 0.59611 0.67886 0.0
H968 H 0.83159 0.82076 0.09523 0.0
H969 H 0.78688 0.94545 0.99522 0.0
H970 H 0.87429 0.95064 0.08112 0.0
H971 H 0.73245 0.81886 0.00679 0.0
H972 H 0.82553 0.94246 0.02579 0.0
H973 H 0.80089 0.81432 0.06224 0.0
C974 C 0.83474 0.84773 0.08523 0.0
C975 C 0.85519 0.88646 0.09103 0.0
C976 C 0.80528 0.91512 0.02177 0.0
C977 C 0.82047 0.87926 0.05355 0.0
C978 C 0.78306 0.91686 0.00425 0.0
C979 C 0.75593 0.8826 -0.0014 0.0
C980 C 0.80018 0.87901 0.034 0.0
C981 C 0.75293 0.84606 0.01074 0.0
C982 C 0.81722 0.84403 0.06646 0.0
C983 C 0.85857 0.92027 0.07746 0.0
N984 N 0.7745 0.84536 0.02807 0.0
N985 N 0.84127 0.9159 0.05949 0.0
H986 H 0.27259 0.58995 0.83746 0.0
H987 H 0.41449 0.49838 0.7493 0.0
H988 H 0.41197 0.60216 0.83641 0.0
H989 H 0.27475 0.49759 0.7519 0.0
H990 H 0.41633 0.53451 0.78124 0.0
H991 H 0.27475 0.55416 0.80615 0.0
C992 C 0.3038 0.58499 0.83067 0.0
C993 C 0.34218 0.59904 0.83965 0.0
C994 C 0.38538 0.52633 0.77474 0.0
C995 C 0.34492 0.55774 0.80346 0.0
C996 C 0.38431 0.5057 0.75657 0.0
C997 C 0.34441 0.49501 0.74791 0.0
C998 C 0.34627 0.53601 0.78422 0.0
C999 C 0.30629 0.50526 0.75792 0.0
C1000 C 0.30501 0.56453 0.81269 0.0
C1001 C 0.38159 0.59181 0.83 0.0
N1002 N 0.30823 0.52507 0.77546 0.0
N1003 N 0.38199 0.57155 0.81238 0.0
H1004 H 0.61231 0.03683 0.57921 0.0
H1005 H 0.76822 0.16356 0.50736 0.0
H1006 H 0.66964 0.15954 0.59563 0.0
H1007 H 0.68179 0.05972 0.49066 0.0
H1008 H 0.7315 0.16721 0.53914 0.0
H1009 H 0.63757 0.04749 0.5463 0.0
C1010 C 0.63031 0.06612 0.57589 0.0
C1011 C 0.63928 0.09712 0.59025 0.0
C1012 C 0.72026 0.1442 0.52834 0.0
C1013 C 0.66855 0.10971 0.5523 0.0
C1014 C 0.74105 0.14224 0.51026 0.0
C1015 C 0.72849 0.11066 0.49666 0.0
C1016 C 0.68701 0.11435 0.53257 0.0
C1017 C 0.69313 0.08384 0.50096 0.0
C1018 C 0.64453 0.0724 0.55698 0.0
C1019 C 0.6623 0.13471 0.58497 0.0
N1020 N 0.674 0.086 0.51857 0.0
N1021 N 0.67666 0.1398 0.56639 0.0
H1022 H 0.12272 0.3219 0.31727 0.0
H1023 H 0.11335 0.55054 0.26192 0.0
H1024 H 0.16759 0.44253 0.34223 0.0
H1025 H 0.10821 0.4269 0.2328 0.0
H1026 H 0.11418 0.51268 0.29339 0.0
H1027 H 0.10007 0.36132 0.28808 0.0
C1028 C 0.1276 0.35671 0.31667 0.0
C1029 C 0.14763 0.37887 0.33212 0.0
C1030 C 0.11172 0.49387 0.28013 0.0
C1031 C 0.12124 0.42422 0.29884 0.0
C1032 C 0.1106 0.51546 0.26224 0.0
C1033 C 0.11004 0.49161 0.2449 0.0
C1034 C 0.11234 0.44823 0.28055 0.0
C1035 C 0.10801 0.44626 0.24594 0.0
C1036 C 0.11459 0.37918 0.30001 0.0
C1037 C 0.15282 0.42405 0.33056 0.0
N1038 N 0.10952 0.42595 0.26348 0.0
N1039 N 0.13985 0.44521 0.31419 0.0
H1040 H 0.57607 0.64427 0.41495 0.0
H1041 H 0.7867 0.57009 0.47407 0.0
H1042 H 0.6721 0.55414 0.39402 0.0
H1043 H 0.6924 0.65765 0.49808 0.0
H1044 H 0.74968 0.57347 0.44277 0.0
H1045 H 0.62121 0.65738 0.44386 0.0
C1046 C 0.60669 0.62745 0.41635 0.0
C1047 C 0.62009 0.59774 0.40209 0.0
C1048 C 0.73725 0.59261 0.45471 0.0
C1049 C 0.67192 0.61285 0.435 0.0
C1050 C 0.75865 0.59095 0.47253 0.0
C1051 C 0.74265 0.61386 0.48852 0.0
C1052 C 0.6988 0.61662 0.45293 0.0
C1053 C 0.70596 0.64001 0.48594 0.0
C1054 C 0.63245 0.63503 0.43284 0.0
C1055 C 0.66014 0.57701 0.40466 0.0
N1056 N 0.68475 0.64019 0.46849 0.0
N1057 N 0.68441 0.58484 0.42078 0.0
H1058 H 0.15345 0.93288 0.6457 0.0
H1059 H 0.10351 0.92608 0.75873 0.0
H1060 H 0.12487 0.81435 0.67664 0.0
H1061 H 0.11207 0.04456 0.72576 0.0
H1062 H 0.10179 0.88466 0.72833 0.0
H1063 H 0.13118 0.97448 0.67417 0.0
C1064 C 0.14241 0.91558 0.65848 0.0
C1065 C 0.14152 0.87002 0.65886 0.0
C1066 C 0.10271 0.91978 0.72766 0.0
C1067 C 0.11594 0.91753 0.69158 0.0
C1068 C 0.1031 0.94337 0.745 0.0
C1069 C 0.10703 0.98864 0.74459 0.0
C1070 C 0.10734 0.94174 0.70986 0.0
C1071 C 0.10814 0.00966 0.72655 0.0
C1072 C 0.12941 0.93938 0.67471 0.0
C1073 C 0.12634 0.84941 0.67574 0.0
N1074 N 0.10892 0.98599 0.70987 0.0
N1075 N 0.11463 0.87329 0.6915 0.0
H1076 H 0.90927 0.36876 0.91786 0.0
H1077 H 0.68319 0.40074 0.97172 0.0
H1078 H 0.7971 0.43003 0.89226 0.0
H1079 H 0.79269 0.33864 -0.00116 0.0
H1080 H 0.72165 0.40098 0.94078 0.0
H1081 H 0.8655 0.34897 0.94618 0.0
C1082 C 0.87541 0.37785 0.91813 0.0
C1083 C 0.85693 0.40152 0.90275 0.0
C1084 C 0.73721 0.38662 0.95336 0.0
C1085 C 0.80667 0.37868 0.935 0.0
C1086 C 0.71508 0.38621 0.97095 0.0
C1087 C 0.73489 0.36946 0.98764 0.0
C1088 C 0.77999 0.37128 0.9526 0.0
C1089 C 0.77631 0.35135 0.98611 0.0
C1090 C 0.85043 0.36641 0.93428 0.0
C1091 C 0.81288 0.41222 0.90385 0.0
N1092 N 0.79793 0.35339 0.9689 0.0
N1093 N 0.78939 0.40091 0.91971 0.0
H1094 H 0.42045 0.02209 0.24017 0.0
H1095 H 0.29107 0.06346 0.14069 0.0
H1096 H 0.30133 0.9586 0.22352 0.0
H1097 H 0.39799 0.14455 0.15898 0.0
H1098 H 0.30175 0.01844 0.16926 0.0
H1099 H 0.42037 0.06065 0.20873 0.0
C1100 C 0.39487 0.01564 0.22974 0.0
C1101 C 0.36073 0.98738 0.23439 0.0
C1102 C 0.32302 0.04601 0.16709 0.0
C1103 C 0.36023 0.03114 0.19877 0.0
C1104 C 0.31687 0.07187 0.15074 0.0
C1105 C 0.34342 0.10815 0.14749 0.0
C1106 C 0.35586 0.05639 0.18049 0.0
C1107 C 0.37663 0.11701 0.16097 0.0
C1108 C 0.39461 0.03784 0.21193 0.0
C1109 C 0.32806 0.98042 0.22055 0.0
N1110 N 0.38178 0.09142 0.17698 0.0
N1111 N 0.32856 0.00222 0.20345 0.0
H1112 H 0.32114 0.32372 0.59333 0.0
H1113 H 0.2954 0.43402 0.48878 0.0
H1114 H 0.3781 0.44574 0.57579 0.0
H1115 H 0.21893 0.3232 0.50599 0.0
H1116 H 0.33571 0.42929 0.51902 0.0
H1117 H 0.29209 0.31472 0.56023 0.0
C1118 C 0.32779 0.34842 0.58252 0.0
C1119 C 0.35165 0.38582 0.58739 0.0
C1120 C 0.31031 0.40575 0.51627 0.0
C1121 C 0.3189 0.37556 0.54969 0.0
C1122 C 0.28726 0.40845 0.49897 0.0
C1123 C 0.25336 0.37941 0.4951 0.0
C1124 C 0.29905 0.37415 0.53006 0.0
C1125 C 0.24476 0.34634 0.50858 0.0
C1126 C 0.31121 0.34323 0.56368 0.0
C1127 C 0.35953 0.41661 0.57281 0.0
N1128 N 0.2671 0.34495 0.52571 0.0
N1129 N 0.34306 0.41085 0.55472 0.0
H1130 H 0.80677 0.032 0.34311 0.0
H1131 H 0.90092 0.03916 0.23524 0.0
H1132 H 0.87321 0.14368 0.31959 0.0
H1133 H 0.82949 0.93222 0.2598 0.0
H1134 H 0.90384 0.07328 0.26762 0.0
H1135 H 0.8264 0.99077 0.31431 0.0
C1136 C 0.82555 0.04787 0.33187 0.0
C1137 C 0.83773 0.09155 0.33361 0.0
C1138 C 0.88844 0.04186 0.26599 0.0
C1139 C 0.86035 0.04446 0.30044 0.0
C1140 C 0.8872 0.0223 0.24761 0.0
C1141 C 0.86489 0.98307 0.24507 0.0
C1142 C 0.86716 0.02177 0.28169 0.0
C1143 C 0.84687 0.96264 0.26131 0.0
C1144 C 0.83697 0.02423 0.31543 0.0
C1145 C 0.86273 0.11017 0.31873 0.0
N1146 N 0.84803 0.9824 0.27889 0.0
N1147 N 0.8728 0.08666 0.30262 0.0
H1148 H 0.09939 0.5407 0.08235 0.0
H1149 H 0.25728 0.66808 0.00971 0.0
H1150 H 0.15811 0.66351 0.09758 0.0
H1151 H 0.19408 0.54591 -0.0025 0.0
H1152 H 0.21808 0.67146 0.04086 0.0
H1153 H 0.1306 0.5463 0.05016 0.0
C1154 C 0.11873 0.56906 0.07891 0.0
C1155 C 0.12638 0.60151 0.09281 0.0
C1156 C 0.21271 0.64414 0.03124 0.0
C1157 C 0.16272 0.60813 0.05566 0.0
C1158 C 0.23496 0.64227 0.01349 0.0
C1159 C 0.22938 0.60637 0.00115 0.0
C1160 C 0.18468 0.61 0.03647 0.0
C1161 C 0.20002 0.57386 0.00668 0.0
C1162 C 0.13662 0.57227 0.06043 0.0
C1163 C 0.15157 0.6376 0.08735 0.0
N1164 N 0.17904 0.5764 0.02389 0.0
N1165 N 0.16915 0.63982 0.06921 0.0
H1166 H 0.64767 0.93344 0.85128 0.0
H1167 H 0.59398 0.93979 0.73757 0.0
H1168 H 0.62332 0.81791 0.81739 0.0
H1169 H 0.64079 0.04819 0.77125 0.0
H1170 H 0.58888 0.89657 0.76761 0.0
H1171 H 0.62934 0.9776 0.82313 0.0
C1172 C 0.63823 0.91733 0.83791 0.0
C1173 C 0.63768 0.87193 0.83659 0.0
C1174 C 0.59929 0.93012 0.76845 0.0
C1175 C 0.6169 0.92244 0.80415 0.0
C1176 C 0.60179 0.95479 0.7514 0.0
C1177 C 0.61773 -0.0026 0.75216 0.0
C1178 C 0.61245 0.94866 0.78621 0.0
C1179 C 0.62841 0.01534 0.7702 0.0
C1180 C 0.62768 0.9426 0.82183 0.0
C1181 C 0.62449 0.85286 0.81898 0.0
N1182 N 0.62577 0.99083 0.78651 0.0
N1183 N 0.61513 0.87825 0.80332 0.0
loop_
_geom_bond_atom_site_label_1
_geom_bond_atom_site_label_2
_geom_bond_distance
_geom_bond_site_symmetry_2
_ccdc_geom_bond_type
Zn0 O6 1.969 . S
Zn0 O7 1.965 . S
Zn0 O11 2.024 . S
Zn0 O16 1.969 . S
Zn1 O8 1.969 . S
Zn1 O14 1.969 . S
Zn1 O15 1.965 . S
Zn1 O17 2.024 . S
C2 O3 1.229 . S
C2 O11 1.058 . S
O3 C2 1.229 . S
C4 O5 1.229 . S
C4 O17 1.058 . S
O5 C4 1.229 . S
O6 Zn0 1.969 . S
O6 C9 1.267 . S
O7 Zn0 1.965 . S
O7 C18 1.260 . S
O8 Zn1 1.969 . S
O8 C18 1.258 . S
C9 O6 1.267 . S
C9 O10 1.228 . S
O10 C9 1.228 . S
O11 Zn0 2.024 . S
O11 C2 1.058 . S
C12 O13 1.228 . S
C12 O14 1.267 . S
O13 C12 1.228 . S
O14 Zn1 1.969 . S
O14 C12 1.267 . S
O15 Zn1 1.965 . S
O15 C19 1.260 . S
O16 Zn0 1.969 . S
O16 C19 1.258 . S
O17 Zn1 2.024 . S
O17 C4 1.058 . S
C18 O7 1.260 . S
C18 O8 1.258 . S
C19 O15 1.260 . S
C19 O16 1.258 . S
Zn20 O26 1.969 . S
Zn20 O27 1.965 . S
Zn20 O31 2.024 . S
Zn20 O36 1.969 . S
Zn21 O28 1.969 . S
Zn21 O34 1.969 . S
Zn21 O35 1.965 . S
Zn21 O37 2.024 . S
C22 O23 1.229 . S
C22 O31 1.058 . S
O23 C22 1.229 . S
C24 O25 1.229 . S
C24 O37 1.058 . S
O25 C24 1.229 . S
O26 Zn20 1.969 . S
O26 C29 1.267 . S
O27 Zn20 1.965 . S
O27 C38 1.260 . S
O28 Zn21 1.969 . S
O28 C38 1.258 . S
C29 O26 1.267 . S
C29 O30 1.228 . S
O30 C29 1.228 . S
O31 Zn20 2.024 . S
O31 C22 1.058 . S
C32 O33 1.228 . S
C32 O34 1.267 . S
O33 C32 1.228 . S
O34 Zn21 1.969 . S
O34 C32 1.267 . S
O35 Zn21 1.965 . S
O35 C39 1.260 . S
O36 Zn20 1.969 . S
O36 C39 1.258 . S
O37 Zn21 2.024 . S
O37 C24 1.058 . S
C38 O27 1.260 . S
C38 O28 1.258 . S
C39 O35 1.260 . S
C39 O36 1.258 . S
Zn40 O46 1.969 . S
Zn40 O47 1.965 . S
Zn40 O51 2.024 . S
Zn40 O56 1.969 . S
Zn41 O48 1.969 . S
Zn41 O54 1.969 . S
Zn41 O55 1.965 . S
Zn41 O57 2.024 . S
C42 O43 1.229 . S
C42 O51 1.058 . S
O43 C42 1.229 . S
C44 O45 1.229 . S
C44 O57 1.058 . S
O45 C44 1.229 . S
O46 Zn40 1.969 . S
O46 C49 1.267 . S
O47 Zn40 1.965 . S
O47 C58 1.260 . S
O48 Zn41 1.969 . S
O48 C58 1.258 . S
C49 O46 1.267 . S
C49 O50 1.228 . S
O50 C49 1.228 . S
O51 Zn40 2.024 . S
O51 C42 1.058 . S
C52 O53 1.228 . S
C52 O54 1.267 . S
O53 C52 1.228 . S
O54 Zn41 1.969 . S
O54 C52 1.267 . S
O55 Zn41 1.965 . S
O55 C59 1.260 . S
O56 Zn40 1.969 . S
O56 C59 1.258 . S
O57 Zn41 2.024 . S
O57 C44 1.058 . S
C58 O47 1.260 . S
C58 O48 1.258 . S
C59 O55 1.260 . S
C59 O56 1.258 . S
Zn60 O66 1.969 . S
Zn60 O67 1.965 . S
Zn60 O71 2.024 . S
Zn60 O76 1.969 . S
Zn61 O68 1.969 . S
Zn61 O74 1.969 . S
Zn61 O75 1.965 . S
Zn61 O77 2.024 . S
C62 O63 1.229 . S
C62 O71 1.058 . S
O63 C62 1.229 . S
C64 O65 1.229 . S
C64 O77 1.058 . S
O65 C64 1.229 . S
O66 Zn60 1.969 . S
O66 C69 1.267 . S
O67 Zn60 1.965 . S
O67 C78 1.260 . S
O68 Zn61 1.969 . S
O68 C78 1.258 . S
C69 O66 1.267 . S
C69 O70 1.228 . S
O70 C69 1.228 . S
O71 Zn60 2.024 . S
O71 C62 1.058 . S
C72 O73 1.228 . S
C72 O74 1.267 . S
O73 C72 1.228 . S
O74 Zn61 1.969 . S
O74 C72 1.267 . S
O75 Zn61 1.965 . S
O75 C79 1.260 . S
O76 Zn60 1.969 . S
O76 C79 1.258 . S
O77 Zn61 2.024 . S
O77 C64 1.058 . S
C78 O67 1.260 . S
C78 O68 1.258 . S
C79 O75 1.260 . S
C79 O76 1.258 . S
Zn80 O86 1.969 . S
Zn80 O87 1.965 . S
Zn80 O91 2.024 . S
Zn80 O96 1.969 . S
Zn81 O88 1.969 . S
Zn81 O94 1.969 . S
Zn81 O95 1.965 . S
Zn81 O97 2.024 . S
C82 O83 1.229 . S
C82 O91 1.058 . S
O83 C82 1.229 . S
C84 O85 1.229 . S
C84 O97 1.058 . S
O85 C84 1.229 . S
O86 Zn80 1.969 . S
O86 C89 1.267 . S
O87 Zn80 1.965 . S
O87 C98 1.260 . S
O88 Zn81 1.969 . S
O88 C98 1.258 . S
C89 O86 1.267 . S
C89 O90 1.228 . S
O90 C89 1.228 . S
O91 Zn80 2.024 . S
O91 C82 1.058 . S
C92 O93 1.228 . S
C92 O94 1.267 . S
O93 C92 1.228 . S
O94 Zn81 1.969 . S
O94 C92 1.267 . S
O95 Zn81 1.965 . S
O95 C99 1.260 . S
O96 Zn80 1.969 . S
O96 C99 1.258 . S
O97 Zn81 2.024 . S
O97 C84 1.058 . S
C98 O87 1.260 . S
C98 O88 1.258 . S
C99 O95 1.260 . S
C99 O96 1.258 . S
Zn100 O106 1.969 . S
Zn100 O107 1.965 . S
Zn100 O111 2.024 . S
Zn100 O116 1.969 . S
Zn101 O108 1.969 . S
Zn101 O114 1.969 . S
Zn101 O115 1.965 . S
Zn101 O117 2.024 . S
C102 O103 1.229 . S
C102 O111 1.058 . S
O103 C102 1.229 . S
C104 O105 1.229 . S
C104 O117 1.058 . S
O105 C104 1.229 . S
O106 Zn100 1.969 . S
O106 C109 1.267 . S
O107 Zn100 1.965 . S
O107 C118 1.260 . S
O108 Zn101 1.969 . S
O108 C118 1.258 . S
C109 O106 1.267 . S
C109 O110 1.228 . S
O110 C109 1.228 . S
O111 Zn100 2.024 . S
O111 C102 1.058 . S
C112 O113 1.228 . S
C112 O114 1.267 . S
O113 C112 1.228 . S
O114 Zn101 1.969 . S
O114 C112 1.267 . S
O115 Zn101 1.965 . S
O115 C119 1.260 . S
O116 Zn100 1.969 . S
O116 C119 1.258 . S
O117 Zn101 2.024 . S
O117 C104 1.058 . S
C118 O107 1.260 . S
C118 O108 1.258 . S
C119 O115 1.260 . S
C119 O116 1.258 . S
Zn120 O126 1.969 . S
Zn120 O127 1.965 . S
Zn120 O131 2.024 . S
Zn120 O136 1.969 . S
Zn121 O128 1.969 . S
Zn121 O134 1.969 . S
Zn121 O135 1.965 . S
Zn121 O137 2.024 . S
C122 O123 1.229 . S
C122 O131 1.058 . S
O123 C122 1.229 . S
C124 O125 1.229 . S
C124 O137 1.058 . S
O125 C124 1.229 . S
O126 Zn120 1.969 . S
O126 C129 1.267 . S
O127 Zn120 1.965 . S
O127 C138 1.260 . S
O128 Zn121 1.969 . S
O128 C138 1.258 . S
C129 O126 1.267 . S
C129 O130 1.228 . S
O130 C129 1.228 . S
O131 Zn120 2.024 . S
O131 C122 1.058 . S
C132 O133 1.228 . S
C132 O134 1.267 . S
O133 C132 1.228 . S
O134 Zn121 1.969 . S
O134 C132 1.267 . S
O135 Zn121 1.965 . S
O135 C139 1.260 . S
O136 Zn120 1.969 . S
O136 C139 1.258 . S
O137 Zn121 2.024 . S
O137 C124 1.058 . S
C138 O127 1.260 . S
C138 O128 1.258 . S
C139 O135 1.260 . S
C139 O136 1.258 . S
Zn140 O146 1.969 . S
Zn140 O147 1.965 . S
Zn140 O151 2.024 . S
Zn140 O156 1.969 . S
Zn141 O148 1.969 . S
Zn141 O154 1.969 . S
Zn141 O155 1.965 . S
Zn141 O157 2.024 . S
C142 O143 1.229 . S
C142 O151 1.058 . S
O143 C142 1.229 . S
C144 O145 1.229 . S
C144 O157 1.058 . S
O145 C144 1.229 . S
O146 Zn140 1.969 . S
O146 C149 1.267 . S
O147 Zn140 1.965 . S
O147 C158 1.260 . S
O148 Zn141 1.969 . S
O148 C158 1.258 . S
C149 O146 1.267 . S
C149 O150 1.228 . S
O150 C149 1.228 . S
O151 Zn140 2.024 . S
O151 C142 1.058 . S
C152 O153 1.228 . S
C152 O154 1.267 . S
O153 C152 1.228 . S
O154 Zn141 1.969 . S
O154 C152 1.267 . S
O155 Zn141 1.965 . S
O155 C159 1.260 . S
O156 Zn140 1.969 . S
O156 C159 1.258 . S
O157 Zn141 2.024 . S
O157 C144 1.058 . S
C158 O147 1.260 . S
C158 O148 1.258 . S
C159 O155 1.260 . S
C159 O156 1.258 . S
Zn160 O166 1.969 . S
Zn160 O167 1.965 . S
Zn160 O171 2.024 . S
Zn160 O176 1.969 . S
Zn161 O168 1.969 . S
Zn161 O174 1.969 . S
Zn161 O175 1.965 . S
Zn161 O177 2.024 . S
C162 O163 1.229 . S
C162 O171 1.058 . S
O163 C162 1.229 . S
C164 O165 1.229 . S
C164 O177 1.058 . S
O165 C164 1.229 . S
O166 Zn160 1.969 . S
O166 C169 1.267 . S
O167 Zn160 1.965 . S
O167 C178 1.260 . S
O168 Zn161 1.969 . S
O168 C178 1.258 . S
C169 O166 1.267 . S
C169 O170 1.228 . S
O170 C169 1.228 . S
O171 Zn160 2.024 . S
O171 C162 1.058 . S
C172 O173 1.228 . S
C172 O174 1.267 . S
O173 C172 1.228 . S
O174 Zn161 1.969 . S
O174 C172 1.267 . S
O175 Zn161 1.965 . S
O175 C179 1.260 . S
O176 Zn160 1.969 . S
O176 C179 1.258 . S
O177 Zn161 2.024 . S
O177 C164 1.058 . S
C178 O167 1.260 . S
C178 O168 1.258 . S
C179 O175 1.260 . S
C179 O176 1.258 . S
Zn180 O186 1.969 . S
Zn180 O187 1.965 . S
Zn180 O191 2.024 . S
Zn180 O196 1.969 . S
Zn181 O188 1.969 . S
Zn181 O194 1.969 . S
Zn181 O195 1.965 . S
Zn181 O197 2.024 . S
C182 O183 1.229 . S
C182 O191 1.058 . S
O183 C182 1.229 . S
C184 O185 1.229 . S
C184 O197 1.058 . S
O185 C184 1.229 . S
O186 Zn180 1.969 . S
O186 C189 1.267 . S
O187 Zn180 1.965 . S
O187 C198 1.260 . S
O188 Zn181 1.969 . S
O188 C198 1.258 . S
C189 O186 1.267 . S
C189 O190 1.228 . S
O190 C189 1.228 . S
O191 Zn180 2.024 . S
O191 C182 1.058 . S
C192 O193 1.228 . S
C192 O194 1.267 1_565 S
O193 C192 1.228 . S
O194 Zn181 1.969 . S
O194 C192 1.267 1_545 S
O195 Zn181 1.965 . S
O195 C199 1.260 . S
O196 Zn180 1.969 . S
O196 C199 1.258 . S
O197 Zn181 2.024 . S
O197 C184 1.058 . S
C198 O187 1.260 . S
C198 O188 1.258 . S
C199 O195 1.260 . S
C199 O196 1.258 . S
Zn200 O206 1.969 . S
Zn200 O207 1.965 . S
Zn200 O211 2.024 . S
Zn200 O216 1.969 . S
Zn201 O208 1.969 . S
Zn201 O214 1.969 . S
Zn201 O215 1.965 . S
Zn201 O217 2.024 . S
C202 O203 1.229 . S
C202 O211 1.058 . S
O203 C202 1.229 . S
C204 O205 1.229 . S
C204 O217 1.058 . S
O205 C204 1.229 . S
O206 Zn200 1.969 . S
O206 C209 1.267 . S
O207 Zn200 1.965 . S
O207 C218 1.260 . S
O208 Zn201 1.969 . S
O208 C218 1.258 . S
C209 O206 1.267 . S
C209 O210 1.228 . S
O210 C209 1.228 . S
O211 Zn200 2.024 . S
O211 C202 1.058 . S
C212 O213 1.228 . S
C212 O214 1.267 . S
O213 C212 1.228 . S
O214 Zn201 1.969 . S
O214 C212 1.267 . S
O215 Zn201 1.965 . S
O215 C219 1.260 . S
O216 Zn200 1.969 . S
O216 C219 1.258 . S
O217 Zn201 2.024 . S
O217 C204 1.058 . S
C218 O207 1.260 . S
C218 O208 1.258 . S
C219 O215 1.260 . S
C219 O216 1.258 . S
Zn220 O226 1.969 . S
Zn220 O227 1.965 . S
Zn220 O231 2.024 . S
Zn220 O236 1.969 . S
Zn221 O228 1.969 . S
Zn221 O234 1.969 . S
Zn221 O235 1.965 . S
Zn221 O237 2.024 . S
C222 O223 1.229 . S
C222 O231 1.058 . S
O223 C222 1.229 . S
C224 O225 1.229 . S
C224 O237 1.058 . S
O225 C224 1.229 . S
O226 Zn220 1.969 . S
O226 C229 1.267 . S
O227 Zn220 1.965 . S
O227 C238 1.260 . S
O228 Zn221 1.969 . S
O228 C238 1.258 . S
C229 O226 1.267 . S
C229 O230 1.228 . S
O230 C229 1.228 . S
O231 Zn220 2.024 . S
O231 C222 1.058 . S
C232 O233 1.228 . S
C232 O234 1.267 1_545 S
O233 C232 1.228 . S
O234 Zn221 1.969 . S
O234 C232 1.267 1_565 S
O235 Zn221 1.965 . S
O235 C239 1.260 . S
O236 Zn220 1.969 . S
O236 C239 1.258 . S
O237 Zn221 2.024 . S
O237 C224 1.058 . S
C238 O227 1.260 . S
C238 O228 1.258 . S
C239 O235 1.260 . S
C239 O236 1.258 . S
Zn240 O246 1.969 . S
Zn240 O247 1.965 . S
Zn240 O251 2.024 . S
Zn240 O256 1.969 . S
Zn241 O248 1.969 . S
Zn241 O254 1.969 . S
Zn241 O255 1.965 . S
Zn241 O257 2.024 . S
C242 O243 1.229 . S
C242 O251 1.058 . S
O243 C242 1.229 . S
C244 O245 1.229 . S
C244 O257 1.058 . S
O245 C244 1.229 . S
O246 Zn240 1.969 . S
O246 C249 1.267 . S
O247 Zn240 1.965 . S
O247 C258 1.260 . S
O248 Zn241 1.969 . S
O248 C258 1.258 . S
C249 O246 1.267 . S
C249 O250 1.228 . S
O250 C249 1.228 . S
O251 Zn240 2.024 . S
O251 C242 1.058 . S
C252 O253 1.228 . S
C252 O254 1.267 . S
O253 C252 1.228 . S
O254 Zn241 1.969 . S
O254 C252 1.267 . S
O255 Zn241 1.965 . S
O255 C259 1.260 . S
O256 Zn240 1.969 . S
O256 C259 1.258 . S
O257 Zn241 2.024 . S
O257 C244 1.058 . S
C258 O247 1.260 . S
C258 O248 1.258 . S
C259 O255 1.260 . S
C259 O256 1.258 . S
Zn260 O266 1.969 . S
Zn260 O267 1.965 . S
Zn260 O271 2.024 . S
Zn260 O276 1.969 . S
Zn261 O268 1.969 . S
Zn261 O274 1.969 . S
Zn261 O275 1.965 . S
Zn261 O277 2.024 . S
C262 O263 1.229 . S
C262 O271 1.058 . S
O263 C262 1.229 . S
C264 O265 1.229 . S
C264 O277 1.058 . S
O265 C264 1.229 . S
O266 Zn260 1.969 . S
O266 C269 1.267 1_565 S
O267 Zn260 1.965 . S
O267 C278 1.260 . S
O268 Zn261 1.969 . S
O268 C278 1.258 . S
C269 O266 1.267 1_545 S
C269 O270 1.228 . S
O270 C269 1.228 . S
O271 Zn260 2.024 . S
O271 C262 1.058 . S
C272 O273 1.228 . S
C272 O274 1.267 . S
O273 C272 1.228 . S
O274 Zn261 1.969 . S
O274 C272 1.267 . S
O275 Zn261 1.965 . S
O275 C279 1.260 . S
O276 Zn260 1.969 . S
O276 C279 1.258 . S
O277 Zn261 2.024 . S
O277 C264 1.058 . S
C278 O267 1.260 . S
C278 O268 1.258 . S
C279 O275 1.260 . S
C279 O276 1.258 . S
Zn280 O286 1.969 . S
Zn280 O287 1.965 . S
Zn280 O291 2.024 . S
Zn280 O296 1.969 . S
Zn281 O288 1.969 . S
Zn281 O294 1.969 . S
Zn281 O295 1.965 . S
Zn281 O297 2.024 . S
C282 O283 1.229 . S
C282 O291 1.058 . S
O283 C282 1.229 . S
C284 O285 1.229 . S
C284 O297 1.058 . S
O285 C284 1.229 . S
O286 Zn280 1.969 . S
O286 C289 1.267 . S
O287 Zn280 1.965 . S
O287 C298 1.260 . S
O288 Zn281 1.969 . S
O288 C298 1.258 . S
C289 O286 1.267 . S
C289 O290 1.228 . S
O290 C289 1.228 . S
O291 Zn280 2.024 . S
O291 C282 1.058 . S
C292 O293 1.228 . S
C292 O294 1.267 . S
O293 C292 1.228 . S
O294 Zn281 1.969 . S
O294 C292 1.267 . S
O295 Zn281 1.965 . S
O295 C299 1.260 . S
O296 Zn280 1.969 . S
O296 C299 1.258 . S
O297 Zn281 2.024 . S
O297 C284 1.058 . S
C298 O287 1.260 . S
C298 O288 1.258 . S
C299 O295 1.260 . S
C299 O296 1.258 . S
Zn300 O306 1.969 . S
Zn300 O307 1.965 . S
Zn300 O311 2.024 . S
Zn300 O316 1.969 . S
Zn301 O308 1.969 . S
Zn301 O314 1.969 . S
Zn301 O315 1.965 . S
Zn301 O317 2.024 . S
C302 O303 1.229 . S
C302 O311 1.058 . S
O303 C302 1.229 . S
C304 O305 1.229 . S
C304 O317 1.058 . S
O305 C304 1.229 . S
O306 Zn300 1.969 . S
O306 C309 1.267 1_545 S
O307 Zn300 1.965 . S
O307 C318 1.260 . S
O308 Zn301 1.969 . S
O308 C318 1.258 . S
C309 O306 1.267 1_565 S
C309 O310 1.228 . S
O310 C309 1.228 . S
O311 Zn300 2.024 . S
O311 C302 1.058 . S
C312 O313 1.228 . S
C312 O314 1.267 . S
O313 C312 1.228 . S
O314 Zn301 1.969 . S
O314 C312 1.267 . S
O315 Zn301 1.965 . S
O315 C319 1.260 . S
O316 Zn300 1.969 . S
O316 C319 1.258 . S
O317 Zn301 2.024 . S
O317 C304 1.058 . S
C318 O307 1.260 . S
C318 O308 1.258 . S
C319 O315 1.260 . S
C319 O316 1.258 . S
H320 C326 0.930 . S
H321 C330 0.930 . S
H322 C335 0.929 . S
H323 C333 0.929 . S
H324 C328 0.929 . S
H325 C334 0.929 . S
C326 H320 0.930 . S
C326 C327 1.367 . S
C326 C334 1.378 . S
C327 C326 1.367 . S
C327 C335 1.433 . S
C328 H324 0.929 . S
C328 C330 1.378 . S
C328 C332 1.350 . S
C329 C332 1.463 . S
C329 C334 1.350 . S
C329 N337 1.427 . S
C330 H321 0.930 . S
C330 C328 1.378 . S
C330 C331 1.367 . S
C331 C330 1.367 . S
C331 C333 1.433 . S
C332 C328 1.350 . S
C332 C329 1.463 . S
C332 N336 1.427 . S
C333 H323 0.929 . S
C333 C331 1.433 . S
C333 N336 1.384 . S
C334 H325 0.929 . S
C334 C326 1.378 . S
C334 C329 1.350 . S
C335 H322 0.929 . S
C335 C327 1.433 . S
C335 N337 1.384 . S
N336 C332 1.427 . S
N336 C333 1.384 . S
N337 C329 1.427 . S
N337 C335 1.384 . S
H338 C344 0.930 . S
H339 C348 0.930 . S
H340 C353 0.929 . S
H341 C351 0.929 . S
H342 C346 0.929 . S
H343 C352 0.929 . S
C344 H338 0.930 . S
C344 C345 1.367 . S
C344 C352 1.378 . S
C345 C344 1.367 . S
C345 C353 1.433 . S
C346 H342 0.929 . S
C346 C348 1.378 . S
C346 C350 1.350 . S
C347 C350 1.463 . S
C347 C352 1.350 . S
C347 N355 1.427 . S
C348 H339 0.930 . S
C348 C346 1.378 . S
C348 C349 1.367 . S
C349 C348 1.367 . S
C349 C351 1.433 . S
C350 C346 1.350 . S
C350 C347 1.463 . S
C350 N354 1.427 . S
C351 H341 0.929 . S
C351 C349 1.433 . S
C351 N354 1.384 . S
C352 H343 0.929 . S
C352 C344 1.378 . S
C352 C347 1.350 . S
C353 H340 0.929 . S
C353 C345 1.433 . S
C353 N355 1.384 . S
N354 C350 1.427 . S
N354 C351 1.384 . S
N355 C347 1.427 . S
N355 C353 1.384 . S
H356 C362 0.930 . S
H357 C366 0.930 . S
H358 C371 0.929 . S
H359 C369 0.929 . S
H360 C364 0.929 . S
H361 C370 0.929 . S
C362 H356 0.930 . S
C362 C363 1.367 . S
C362 C370 1.378 . S
C363 C362 1.367 . S
C363 C371 1.433 . S
C364 H360 0.929 . S
C364 C366 1.378 . S
C364 C368 1.350 . S
C365 C368 1.463 1_455 S
C365 C370 1.350 . S
C365 N373 1.427 . S
C366 H357 0.930 . S
C366 C364 1.378 . S
C366 C367 1.367 . S
C367 C366 1.367 . S
C367 C369 1.433 . S
C368 C364 1.350 . S
C368 C365 1.463 1_655 S
C368 N372 1.427 . S
C369 H359 0.929 . S
C369 C367 1.433 . S
C369 N372 1.384 . S
C370 H361 0.929 . S
C370 C362 1.378 . S
C370 C365 1.350 . S
C371 H358 0.929 . S
C371 C363 1.433 . S
C371 N373 1.384 . S
N372 C368 1.427 . S
N372 C369 1.384 . S
N373 C365 1.427 . S
N373 C371 1.384 . S
H374 C380 0.930 . S
H375 C384 0.930 . S
H376 C389 0.929 . S
H377 C387 0.929 . S
H378 C382 0.929 . S
H379 C388 0.929 . S
C380 H374 0.930 . S
C380 C381 1.367 . S
C380 C388 1.378 . S
C381 C380 1.367 . S
C381 C389 1.433 . S
C382 H378 0.929 . S
C382 C384 1.378 . S
C382 C386 1.350 . S
C383 C386 1.463 1_455 S
C383 C388 1.350 . S
C383 N391 1.427 . S
C384 H375 0.930 . S
C384 C382 1.378 . S
C384 C385 1.367 . S
C385 C384 1.367 . S
C385 C387 1.433 . S
C386 C382 1.350 . S
C386 C383 1.463 1_655 S
C386 N390 1.427 . S
C387 H377 0.929 . S
C387 C385 1.433 . S
C387 N390 1.384 . S
C388 H379 0.929 . S
C388 C380 1.378 . S
C388 C383 1.350 . S
C389 H376 0.929 . S
C389 C381 1.433 . S
C389 N391 1.384 . S
N390 C386 1.427 . S
N390 C387 1.384 . S
N391 C383 1.427 . S
N391 C389 1.384 . S
H392 C398 0.930 . S
H393 C402 0.930 . S
H394 C407 0.929 . S
H395 C405 0.929 . S
H396 C400 0.929 . S
H397 C406 0.929 . S
C398 H392 0.930 . S
C398 C399 1.367 . S
C398 C406 1.378 . S
C399 C398 1.367 . S
C399 C407 1.433 . S
C400 H396 0.929 . S
C400 C402 1.378 . S
C400 C404 1.350 . S
C401 C404 1.463 . S
C401 C406 1.350 . S
C401 N409 1.427 . S
C402 H393 0.930 . S
C402 C400 1.378 . S
C402 C403 1.367 . S
C403 C402 1.367 . S
C403 C405 1.433 . S
C404 C400 1.350 . S
C404 C401 1.463 . S
C404 N408 1.427 . S
C405 H395 0.929 . S
C405 C403 1.433 . S
C405 N408 1.384 . S
C406 H397 0.929 . S
C406 C398 1.378 . S
C406 C401 1.350 . S
C407 H394 0.929 . S
C407 C399 1.433 . S
C407 N409 1.384 . S
N408 C404 1.427 . S
N408 C405 1.384 . S
N409 C401 1.427 . S
N409 C407 1.384 . S
H410 C416 0.930 . S
H411 C420 0.930 . S
H412 C425 0.929 . S
H413 C423 0.929 . S
H414 C418 0.929 . S
H415 C424 0.929 . S
C416 H410 0.930 . S
C416 C417 1.367 . S
C416 C424 1.378 . S
C417 C416 1.367 . S
C417 C425 1.433 . S
C418 H414 0.929 . S
C418 C420 1.378 . S
C418 C422 1.350 . S
C419 C422 1.463 . S
C419 C424 1.350 . S
C419 N427 1.427 . S
C420 H411 0.930 . S
C420 C418 1.378 . S
C420 C421 1.367 . S
C421 C420 1.367 . S
C421 C423 1.433 . S
C422 C418 1.350 . S
C422 C419 1.463 . S
C422 N426 1.427 . S
C423 H413 0.929 . S
C423 C421 1.433 . S
C423 N426 1.384 . S
C424 H415 0.929 . S
C424 C416 1.378 . S
C424 C419 1.350 . S
C425 H412 0.929 . S
C425 C417 1.433 . S
C425 N427 1.384 . S
N426 C422 1.427 . S
N426 C423 1.384 . S
N427 C419 1.427 . S
N427 C425 1.384 . S
H428 C434 0.930 . S
H429 C438 0.930 . S
H430 C443 0.929 . S
H431 C441 0.929 . S
H432 C436 0.929 . S
H433 C442 0.929 . S
C434 H428 0.930 . S
C434 C435 1.367 . S
C434 C442 1.378 . S
C435 C434 1.367 . S
C435 C443 1.433 . S
C436 H432 0.929 . S
C436 C438 1.378 . S
C436 C440 1.350 . S
C437 C440 1.463 1_455 S
C437 C442 1.350 . S
C437 N445 1.427 . S
C438 H429 0.930 . S
C438 C436 1.378 . S
C438 C439 1.367 . S
C439 C438 1.367 . S
C439 C441 1.433 . S
C440 C436 1.350 . S
C440 C437 1.463 1_655 S
C440 N444 1.427 . S
C441 H431 0.929 . S
C441 C439 1.433 . S
C441 N444 1.384 . S
C442 H433 0.929 . S
C442 C434 1.378 . S
C442 C437 1.350 . S
C443 H430 0.929 . S
C443 C435 1.433 . S
C443 N445 1.384 . S
N444 C440 1.427 . S
N444 C441 1.384 . S
N445 C437 1.427 . S
N445 C443 1.384 . S
H446 C452 0.930 . S
H447 C456 0.930 . S
H448 C461 0.929 1_655 S
H449 C459 0.929 1_455 S
H450 C454 0.929 . S
H451 C460 0.929 . S
C452 H446 0.930 . S
C452 C453 1.367 . S
C452 C460 1.378 . S
C453 C452 1.367 . S
C453 C461 1.433 . S
C454 H450 0.929 . S
C454 C456 1.378 . S
C454 C458 1.350 . S
C455 C458 1.463 1_455 S
C455 C460 1.350 . S
C455 N463 1.427 1_455 S
C456 H447 0.930 . S
C456 C454 1.378 . S
C456 C457 1.367 . S
C457 C456 1.367 . S
C457 C459 1.433 . S
C458 C454 1.350 . S
C458 C455 1.463 1_655 S
C458 N462 1.427 1_655 S
C459 H449 0.929 1_655 S
C459 C457 1.433 . S
C459 N462 1.384 1_655 S
C460 H451 0.929 . S
C460 C452 1.378 . S
C460 C455 1.350 . S
C461 H448 0.929 1_455 S
C461 C453 1.433 . S
C461 N463 1.384 1_455 S
N462 C458 1.427 1_455 S
N462 C459 1.384 1_455 S
N463 C455 1.427 1_655 S
N463 C461 1.384 1_655 S
H464 C470 0.930 . S
H465 C474 0.930 . S
H466 C479 0.929 . S
H467 C477 0.929 . S
H468 C472 0.929 . S
H469 C478 0.929 . S
C470 H464 0.930 . S
C470 C471 1.367 . S
C470 C478 1.378 . S
C471 C470 1.367 . S
C471 C479 1.433 1_545 S
C472 H468 0.929 . S
C472 C474 1.378 . S
C472 C476 1.350 . S
C473 C476 1.463 1_544 S
C473 C478 1.350 . S
C473 N481 1.427 1_545 S
C474 H465 0.930 . S
C474 C472 1.378 . S
C474 C475 1.367 . S
C475 C474 1.367 . S
C475 C477 1.433 1_565 S
C476 C472 1.350 . S
C476 C473 1.463 1_566 S
C476 N480 1.427 1_565 S
C477 H467 0.929 . S
C477 C475 1.433 1_545 S
C477 N480 1.384 . S
C478 H469 0.929 . S
C478 C470 1.378 . S
C478 C473 1.350 . S
C479 H466 0.929 . S
C479 C471 1.433 1_565 S
C479 N481 1.384 . S
N480 C476 1.427 1_545 S
N480 C477 1.384 . S
N481 C473 1.427 1_565 S
N481 C479 1.384 . S
H482 C488 0.930 . S
H483 C492 0.930 . S
H484 C497 0.929 . S
H485 C495 0.929 . S
H486 C490 0.929 . S
H487 C496 0.929 . S
C488 H482 0.930 . S
C488 C489 1.367 . S
C488 C496 1.378 . S
C489 C488 1.367 . S
C489 C497 1.433 . S
C490 H486 0.929 . S
C490 C492 1.378 . S
C490 C494 1.350 . S
C491 C494 1.463 . S
C491 C496 1.350 . S
C491 N499 1.427 . S
C492 H483 0.930 . S
C492 C490 1.378 . S
C492 C493 1.367 . S
C493 C492 1.367 . S
C493 C495 1.433 . S
C494 C490 1.350 . S
C494 C491 1.463 . S
C494 N498 1.427 . S
C495 H485 0.929 . S
C495 C493 1.433 . S
C495 N498 1.384 . S
C496 H487 0.929 . S
C496 C488 1.378 . S
C496 C491 1.350 . S
C497 H484 0.929 . S
C497 C489 1.433 . S
C497 N499 1.384 . S
N498 C494 1.427 . S
N498 C495 1.384 . S
N499 C491 1.427 . S
N499 C497 1.384 . S
H500 C506 0.930 . S
H501 C510 0.930 . S
H502 C515 0.929 . S
H503 C513 0.929 . S
H504 C508 0.929 . S
H505 C514 0.929 . S
C506 H500 0.930 . S
C506 C507 1.367 1_545 S
C506 C514 1.378 . S
C507 C506 1.367 1_565 S
C507 C515 1.433 . S
C508 H504 0.929 . S
C508 C510 1.378 . S
C508 C512 1.350 1_565 S
C509 C512 1.463 1_465 S
C509 C514 1.350 1_565 S
C509 N517 1.427 . S
C510 H501 0.930 . S
C510 C508 1.378 . S
C510 C511 1.367 1_565 S
C511 C510 1.367 1_545 S
C511 C513 1.433 . S
C512 C508 1.350 1_545 S
C512 C509 1.463 1_645 S
C512 N516 1.427 . S
C513 H503 0.929 . S
C513 C511 1.433 . S
C513 N516 1.384 . S
C514 H505 0.929 . S
C514 C506 1.378 . S
C514 C509 1.350 1_545 S
C515 H502 0.929 . S
C515 C507 1.433 . S
C515 N517 1.384 . S
N516 C512 1.427 . S
N516 C513 1.384 . S
N517 C509 1.427 . S
N517 C515 1.384 . S
H518 C524 0.930 . S
H519 C528 0.930 . S
H520 C533 0.929 . S
H521 C531 0.929 . S
H522 C526 0.929 . S
H523 C532 0.929 . S
C524 H518 0.930 . S
C524 C525 1.367 . S
C524 C532 1.378 . S
C525 C524 1.367 . S
C525 C533 1.433 . S
C526 H522 0.929 . S
C526 C528 1.378 . S
C526 C530 1.350 . S
C527 C530 1.463 . S
C527 C532 1.350 . S
C527 N535 1.427 . S
C528 H519 0.930 . S
C528 C526 1.378 . S
C528 C529 1.367 . S
C529 C528 1.367 . S
C529 C531 1.433 . S
C530 C526 1.350 . S
C530 C527 1.463 . S
C530 N534 1.427 . S
C531 H521 0.929 . S
C531 C529 1.433 . S
C531 N534 1.384 . S
C532 H523 0.929 . S
C532 C524 1.378 . S
C532 C527 1.350 . S
C533 H520 0.929 . S
C533 C525 1.433 . S
C533 N535 1.384 . S
N534 C530 1.427 . S
N534 C531 1.384 . S
N535 C527 1.427 . S
N535 C533 1.384 . S
H536 C542 0.930 . S
H537 C546 0.930 . S
H538 C551 0.929 . S
H539 C549 0.929 . S
H540 C544 0.929 . S
H541 C550 0.929 . S
C542 H536 0.930 . S
C542 C543 1.367 . S
C542 C550 1.378 . S
C543 C542 1.367 . S
C543 C551 1.433 . S
C544 H540 0.929 . S
C544 C546 1.378 . S
C544 C548 1.350 . S
C545 C548 1.463 . S
C545 C550 1.350 . S
C545 N553 1.427 . S
C546 H537 0.930 . S
C546 C544 1.378 . S
C546 C547 1.367 . S
C547 C546 1.367 . S
C547 C549 1.433 . S
C548 C544 1.350 . S
C548 C545 1.463 . S
C548 N552 1.427 . S
C549 H539 0.929 . S
C549 C547 1.433 . S
C549 N552 1.384 . S
C550 H541 0.929 . S
C550 C542 1.378 . S
C550 C545 1.350 . S
C551 H538 0.929 . S
C551 C543 1.433 . S
C551 N553 1.384 . S
N552 C548 1.427 . S
N552 C549 1.384 . S
N553 C545 1.427 . S
N553 C551 1.384 . S
H554 C560 0.930 . S
H555 C564 0.930 . S
H556 C569 0.929 . S
H557 C567 0.929 . S
H558 C562 0.929 . S
H559 C568 0.929 . S
C560 H554 0.930 . S
C560 C561 1.367 . S
C560 C568 1.378 . S
C561 C560 1.367 . S
C561 C569 1.433 . S
C562 H558 0.929 . S
C562 C564 1.378 . S
C562 C566 1.350 . S
C563 C566 1.463 . S
C563 C568 1.350 . S
C563 N571 1.427 . S
C564 H555 0.930 . S
C564 C562 1.378 . S
C564 C565 1.367 . S
C565 C564 1.367 . S
C565 C567 1.433 . S
C566 C562 1.350 . S
C566 C563 1.463 . S
C566 N570 1.427 . S
C567 H557 0.929 . S
C567 C565 1.433 . S
C567 N570 1.384 . S
C568 H559 0.929 . S
C568 C560 1.378 . S
C568 C563 1.350 . S
C569 H556 0.929 . S
C569 C561 1.433 . S
C569 N571 1.384 . S
N570 C566 1.427 . S
N570 C567 1.384 . S
N571 C563 1.427 . S
N571 C569 1.384 . S
H572 C578 0.930 . S
H573 C582 0.930 . S
H574 C587 0.929 . S
H575 C585 0.929 . S
H576 C580 0.929 . S
H577 C586 0.929 . S
C578 H572 0.930 . S
C578 C579 1.367 . S
C578 C586 1.378 . S
C579 C578 1.367 . S
C579 C587 1.433 . S
C580 H576 0.929 . S
C580 C582 1.378 . S
C580 C584 1.350 . S
C581 C584 1.463 1_455 S
C581 C586 1.350 . S
C581 N589 1.427 . S
C582 H573 0.930 . S
C582 C580 1.378 . S
C582 C583 1.367 . S
C583 C582 1.367 . S
C583 C585 1.433 . S
C584 C580 1.350 . S
C584 C581 1.463 1_655 S
C584 N588 1.427 . S
C585 H575 0.929 . S
C585 C583 1.433 . S
C585 N588 1.384 . S
C586 H577 0.929 . S
C586 C578 1.378 . S
C586 C581 1.350 . S
C587 H574 0.929 . S
C587 C579 1.433 . S
C587 N589 1.384 . S
N588 C584 1.427 . S
N588 C585 1.384 . S
N589 C581 1.427 . S
N589 C587 1.384 . S
H590 C596 0.930 . S
H591 C600 0.930 . S
H592 C605 0.929 . S
H593 C603 0.929 . S
H594 C598 0.929 . S
H595 C604 0.929 . S
C596 H590 0.930 . S
C596 C597 1.367 . S
C596 C604 1.378 . S
C597 C596 1.367 . S
C597 C605 1.433 . S
C598 H594 0.929 . S
C598 C600 1.378 . S
C598 C602 1.350 . S
C599 C602 1.463 1_554 S
C599 C604 1.350 . S
C599 N607 1.427 . S
C600 H591 0.930 . S
C600 C598 1.378 . S
C600 C601 1.367 . S
C601 C600 1.367 . S
C601 C603 1.433 . S
C602 C598 1.350 . S
C602 C599 1.463 1_556 S
C602 N606 1.427 . S
C603 H593 0.929 . S
C603 C601 1.433 . S
C603 N606 1.384 . S
C604 H595 0.929 . S
C604 C596 1.378 . S
C604 C599 1.350 . S
C605 H592 0.929 . S
C605 C597 1.433 . S
C605 N607 1.384 . S
N606 C602 1.427 . S
N606 C603 1.384 . S
N607 C599 1.427 . S
N607 C605 1.384 . S
H608 C614 0.930 . S
H609 C618 0.930 . S
H610 C623 0.929 . S
H611 C621 0.929 . S
H612 C616 0.929 . S
H613 C622 0.929 . S
C614 H608 0.930 . S
C614 C615 1.367 . S
C614 C622 1.378 . S
C615 C614 1.367 . S
C615 C623 1.433 . S
C616 H612 0.929 . S
C616 C618 1.378 . S
C616 C620 1.350 . S
C617 C620 1.463 . S
C617 C622 1.350 . S
C617 N625 1.427 . S
C618 H609 0.930 . S
C618 C616 1.378 . S
C618 C619 1.367 . S
C619 C618 1.367 . S
C619 C621 1.433 . S
C620 C616 1.350 . S
C620 C617 1.463 . S
C620 N624 1.427 . S
C621 H611 0.929 . S
C621 C619 1.433 . S
C621 N624 1.384 . S
C622 H613 0.929 . S
C622 C614 1.378 . S
C622 C617 1.350 . S
C623 H610 0.929 . S
C623 C615 1.433 . S
C623 N625 1.384 . S
N624 C620 1.427 . S
N624 C621 1.384 . S
N625 C617 1.427 . S
N625 C623 1.384 . S
H626 C632 0.930 . S
H627 C636 0.930 . S
H628 C641 0.929 . S
H629 C639 0.929 . S
H630 C634 0.929 . S
H631 C640 0.929 . S
C632 H626 0.930 . S
C632 C633 1.367 . S
C632 C640 1.378 . S
C633 C632 1.367 . S
C633 C641 1.433 . S
C634 H630 0.929 . S
C634 C636 1.378 . S
C634 C638 1.350 . S
C635 C638 1.463 . S
C635 C640 1.350 . S
C635 N643 1.427 . S
C636 H627 0.930 . S
C636 C634 1.378 . S
C636 C637 1.367 . S
C637 C636 1.367 . S
C637 C639 1.433 . S
C638 C634 1.350 . S
C638 C635 1.463 . S
C638 N642 1.427 . S
C639 H629 0.929 . S
C639 C637 1.433 . S
C639 N642 1.384 . S
C640 H631 0.929 . S
C640 C632 1.378 . S
C640 C635 1.350 . S
C641 H628 0.929 . S
C641 C633 1.433 . S
C641 N643 1.384 . S
N642 C638 1.427 . S
N642 C639 1.384 . S
N643 C635 1.427 . S
N643 C641 1.384 . S
H644 C650 0.930 . S
H645 C654 0.930 . S
H646 C659 0.929 . S
H647 C657 0.929 . S
H648 C652 0.929 . S
H649 C658 0.929 . S
C650 H644 0.930 . S
C650 C651 1.367 . S
C650 C658 1.378 . S
C651 C650 1.367 . S
C651 C659 1.433 . S
C652 H648 0.929 . S
C652 C654 1.378 . S
C652 C656 1.350 . S
C653 C656 1.463 . S
C653 C658 1.350 . S
C653 N661 1.427 . S
C654 H645 0.930 . S
C654 C652 1.378 . S
C654 C655 1.367 . S
C655 C654 1.367 . S
C655 C657 1.433 . S
C656 C652 1.350 . S
C656 C653 1.463 . S
C656 N660 1.427 . S
C657 H647 0.929 . S
C657 C655 1.433 . S
C657 N660 1.384 . S
C658 H649 0.929 . S
C658 C650 1.378 . S
C658 C653 1.350 . S
C659 H646 0.929 . S
C659 C651 1.433 . S
C659 N661 1.384 . S
N660 C656 1.427 . S
N660 C657 1.384 . S
N661 C653 1.427 . S
N661 C659 1.384 . S
H662 C668 0.930 . S
H663 C672 0.930 . S
H664 C677 0.929 1_655 S
H665 C675 0.929 . S
H666 C670 0.929 . S
H667 C676 0.929 . S
C668 H662 0.930 . S
C668 C669 1.367 . S
C668 C676 1.378 . S
C669 C668 1.367 . S
C669 C677 1.433 . S
C670 H666 0.929 . S
C670 C672 1.378 . S
C670 C674 1.350 . S
C671 C674 1.463 . S
C671 C676 1.350 . S
C671 N679 1.427 . S
C672 H663 0.930 . S
C672 C670 1.378 . S
C672 C673 1.367 . S
C673 C672 1.367 . S
C673 C675 1.433 . S
C674 C670 1.350 . S
C674 C671 1.463 . S
C674 N678 1.427 . S
C675 H665 0.929 . S
C675 C673 1.433 . S
C675 N678 1.384 . S
C676 H667 0.929 . S
C676 C668 1.378 . S
C676 C671 1.350 . S
C677 H664 0.929 1_455 S
C677 C669 1.433 . S
C677 N679 1.384 . S
N678 C674 1.427 . S
N678 C675 1.384 . S
N679 C671 1.427 . S
N679 C677 1.384 . S
H680 C686 0.930 . S
H681 C690 0.930 . S
H682 C695 0.929 . S
H683 C693 0.929 . S
H684 C688 0.929 . S
H685 C694 0.929 . S
C686 H680 0.930 . S
C686 C687 1.367 . S
C686 C694 1.378 . S
C687 C686 1.367 . S
C687 C695 1.433 . S
C688 H684 0.929 . S
C688 C690 1.378 . S
C688 C692 1.350 . S
C689 C692 1.463 . S
C689 C694 1.350 . S
C689 N697 1.427 . S
C690 H681 0.930 . S
C690 C688 1.378 . S
C690 C691 1.367 . S
C691 C690 1.367 . S
C691 C693 1.433 . S
C692 C688 1.350 . S
C692 C689 1.463 . S
C692 N696 1.427 . S
C693 H683 0.929 . S
C693 C691 1.433 . S
C693 N696 1.384 . S
C694 H685 0.929 . S
C694 C686 1.378 . S
C694 C689 1.350 . S
C695 H682 0.929 . S
C695 C687 1.433 . S
C695 N697 1.384 . S
N696 C692 1.427 . S
N696 C693 1.384 . S
N697 C689 1.427 . S
N697 C695 1.384 . S
H698 C704 0.930 . S
H699 C708 0.930 . S
H700 C713 0.929 . S
H701 C711 0.929 . S
H702 C706 0.929 . S
H703 C712 0.929 . S
C704 H698 0.930 . S
C704 C705 1.367 . S
C704 C712 1.378 . S
C705 C704 1.367 . S
C705 C713 1.433 . S
C706 H702 0.929 . S
C706 C708 1.378 . S
C706 C710 1.350 . S
C707 C710 1.463 . S
C707 C712 1.350 . S
C707 N715 1.427 . S
C708 H699 0.930 . S
C708 C706 1.378 . S
C708 C709 1.367 . S
C709 C708 1.367 . S
C709 C711 1.433 . S
C710 C706 1.350 . S
C710 C707 1.463 . S
C710 N714 1.427 . S
C711 H701 0.929 . S
C711 C709 1.433 . S
C711 N714 1.384 . S
C712 H703 0.929 . S
C712 C704 1.378 . S
C712 C707 1.350 . S
C713 H700 0.929 . S
C713 C705 1.433 . S
C713 N715 1.384 . S
N714 C710 1.427 . S
N714 C711 1.384 . S
N715 C707 1.427 . S
N715 C713 1.384 . S
H716 C722 0.930 . S
H717 C726 0.930 . S
H718 C731 0.929 . S
H719 C729 0.929 . S
H720 C724 0.929 . S
H721 C730 0.929 . S
C722 H716 0.930 . S
C722 C723 1.367 . S
C722 C730 1.378 . S
C723 C722 1.367 . S
C723 C731 1.433 . S
C724 H720 0.929 . S
C724 C726 1.378 . S
C724 C728 1.350 . S
C725 C728 1.463 . S
C725 C730 1.350 . S
C725 N733 1.427 . S
C726 H717 0.930 . S
C726 C724 1.378 . S
C726 C727 1.367 . S
C727 C726 1.367 . S
C727 C729 1.433 . S
C728 C724 1.350 . S
C728 C725 1.463 . S
C728 N732 1.427 . S
C729 H719 0.929 . S
C729 C727 1.433 . S
C729 N732 1.384 . S
C730 H721 0.929 . S
C730 C722 1.378 . S
C730 C725 1.350 . S
C731 H718 0.929 . S
C731 C723 1.433 . S
C731 N733 1.384 . S
N732 C728 1.427 . S
N732 C729 1.384 . S
N733 C725 1.427 . S
N733 C731 1.384 . S
H734 C740 0.930 . S
H735 C744 0.930 . S
H736 C749 0.929 . S
H737 C747 0.929 . S
H738 C742 0.929 . S
H739 C748 0.929 . S
C740 H734 0.930 . S
C740 C741 1.367 . S
C740 C748 1.378 . S
C741 C740 1.367 . S
C741 C749 1.433 . S
C742 H738 0.929 . S
C742 C744 1.378 . S
C742 C746 1.350 . S
C743 C746 1.463 . S
C743 C748 1.350 . S
C743 N751 1.427 . S
C744 H735 0.930 . S
C744 C742 1.378 . S
C744 C745 1.367 . S
C745 C744 1.367 . S
C745 C747 1.433 . S
C746 C742 1.350 . S
C746 C743 1.463 . S
C746 N750 1.427 . S
C747 H737 0.929 . S
C747 C745 1.433 . S
C747 N750 1.384 . S
C748 H739 0.929 . S
C748 C740 1.378 . S
C748 C743 1.350 . S
C749 H736 0.929 . S
C749 C741 1.433 . S
C749 N751 1.384 . S
N750 C746 1.427 . S
N750 C747 1.384 . S
N751 C743 1.427 . S
N751 C749 1.384 . S
H752 C758 0.930 . S
H753 C762 0.930 . S
H754 C767 0.929 . S
H755 C765 0.929 . S
H756 C760 0.929 . S
H757 C766 0.929 . S
C758 H752 0.930 . S
C758 C759 1.367 . S
C758 C766 1.378 . S
C759 C758 1.367 . S
C759 C767 1.433 . S
C760 H756 0.929 . S
C760 C762 1.378 . S
C760 C764 1.350 . S
C761 C764 1.463 . S
C761 C766 1.350 . S
C761 N769 1.427 . S
C762 H753 0.930 . S
C762 C760 1.378 . S
C762 C763 1.367 . S
C763 C762 1.367 . S
C763 C765 1.433 . S
C764 C760 1.350 . S
C764 C761 1.463 . S
C764 N768 1.427 . S
C765 H755 0.929 . S
C765 C763 1.433 . S
C765 N768 1.384 . S
C766 H757 0.929 . S
C766 C758 1.378 . S
C766 C761 1.350 . S
C767 H754 0.929 . S
C767 C759 1.433 . S
C767 N769 1.384 . S
N768 C764 1.427 . S
N768 C765 1.384 . S
N769 C761 1.427 . S
N769 C767 1.384 . S
H770 C776 0.930 . S
H771 C780 0.930 1_545 S
H772 C785 0.929 . S
H773 C783 0.929 . S
H774 C778 0.929 . S
H775 C784 0.929 . S
C776 H770 0.930 . S
C776 C777 1.367 . S
C776 C784 1.378 . S
C777 C776 1.367 . S
C777 C785 1.433 . S
C778 H774 0.929 . S
C778 C780 1.378 . S
C778 C782 1.350 . S
C779 C782 1.463 . S
C779 C784 1.350 . S
C779 N787 1.427 . S
C780 H771 0.930 1_565 S
C780 C778 1.378 . S
C780 C781 1.367 . S
C781 C780 1.367 . S
C781 C783 1.433 . S
C782 C778 1.350 . S
C782 C779 1.463 . S
C782 N786 1.427 . S
C783 H773 0.929 . S
C783 C781 1.433 . S
C783 N786 1.384 . S
C784 H775 0.929 . S
C784 C776 1.378 . S
C784 C779 1.350 . S
C785 H772 0.929 . S
C785 C777 1.433 . S
C785 N787 1.384 . S
N786 C782 1.427 . S
N786 C783 1.384 . S
N787 C779 1.427 . S
N787 C785 1.384 . S
H788 C794 0.930 . S
H789 C798 0.930 . S
H790 C803 0.929 . S
H791 C801 0.929 . S
H792 C796 0.929 . S
H793 C802 0.929 . S
C794 H788 0.930 . S
C794 C795 1.367 . S
C794 C802 1.378 . S
C795 C794 1.367 . S
C795 C803 1.433 . S
C796 H792 0.929 . S
C796 C798 1.378 . S
C796 C800 1.350 . S
C797 C800 1.463 . S
C797 C802 1.350 . S
C797 N805 1.427 . S
C798 H789 0.930 . S
C798 C796 1.378 . S
C798 C799 1.367 . S
C799 C798 1.367 . S
C799 C801 1.433 . S
C800 C796 1.350 . S
C800 C797 1.463 . S
C800 N804 1.427 . S
C801 H791 0.929 . S
C801 C799 1.433 . S
C801 N804 1.384 . S
C802 H793 0.929 . S
C802 C794 1.378 . S
C802 C797 1.350 . S
C803 H790 0.929 . S
C803 C795 1.433 . S
C803 N805 1.384 . S
N804 C800 1.427 . S
N804 C801 1.384 . S
N805 C797 1.427 . S
N805 C803 1.384 . S
H806 C812 0.930 . S
H807 C816 0.930 . S
H808 C821 0.929 . S
H809 C819 0.929 . S
H810 C814 0.929 . S
H811 C820 0.929 . S
C812 H806 0.930 . S
C812 C813 1.367 . S
C812 C820 1.378 . S
C813 C812 1.367 . S
C813 C821 1.433 . S
C814 H810 0.929 . S
C814 C816 1.378 . S
C814 C818 1.350 . S
C815 C818 1.463 . S
C815 C820 1.350 . S
C815 N823 1.427 . S
C816 H807 0.930 . S
C816 C814 1.378 . S
C816 C817 1.367 . S
C817 C816 1.367 . S
C817 C819 1.433 . S
C818 C814 1.350 . S
C818 C815 1.463 . S
C818 N822 1.427 . S
C819 H809 0.929 . S
C819 C817 1.433 . S
C819 N822 1.384 . S
C820 H811 0.929 . S
C820 C812 1.378 . S
C820 C815 1.350 . S
C821 H808 0.929 . S
C821 C813 1.433 . S
C821 N823 1.384 . S
N822 C818 1.427 . S
N822 C819 1.384 . S
N823 C815 1.427 . S
N823 C821 1.384 . S
H824 C830 0.930 . S
H825 C834 0.930 . S
H826 C839 0.929 . S
H827 C837 0.929 . S
H828 C832 0.929 . S
H829 C838 0.929 . S
C830 H824 0.930 . S
C830 C831 1.367 . S
C830 C838 1.378 . S
C831 C830 1.367 . S
C831 C839 1.433 . S
C832 H828 0.929 . S
C832 C834 1.378 . S
C832 C836 1.350 . S
C833 C836 1.463 . S
C833 C838 1.350 . S
C833 N841 1.427 . S
C834 H825 0.930 . S
C834 C832 1.378 . S
C834 C835 1.367 . S
C835 C834 1.367 . S
C835 C837 1.433 . S
C836 C832 1.350 . S
C836 C833 1.463 . S
C836 N840 1.427 . S
C837 H827 0.929 . S
C837 C835 1.433 . S
C837 N840 1.384 . S
C838 H829 0.929 . S
C838 C830 1.378 . S
C838 C833 1.350 . S
C839 H826 0.929 . S
C839 C831 1.433 . S
C839 N841 1.384 . S
N840 C836 1.427 . S
N840 C837 1.384 . S
N841 C833 1.427 . S
N841 C839 1.384 . S
H842 C848 0.930 . S
H843 C852 0.930 . S
H844 C857 0.929 . S
H845 C855 0.929 . S
H846 C850 0.929 . S
H847 C856 0.929 . S
C848 H842 0.930 . S
C848 C849 1.367 . S
C848 C856 1.378 . S
C849 C848 1.367 . S
C849 C857 1.433 1_545 S
C850 H846 0.929 . S
C850 C852 1.378 . S
C850 C854 1.350 . S
C851 C854 1.463 . S
C851 C856 1.350 . S
C851 N859 1.427 . S
C852 H843 0.930 . S
C852 C850 1.378 . S
C852 C853 1.367 . S
C853 C852 1.367 . S
C853 C855 1.433 . S
C854 C850 1.350 . S
C854 C851 1.463 . S
C854 N858 1.427 . S
C855 H845 0.929 . S
C855 C853 1.433 . S
C855 N858 1.384 . S
C856 H847 0.929 . S
C856 C848 1.378 . S
C856 C851 1.350 . S
C857 H844 0.929 . S
C857 C849 1.433 1_565 S
C857 N859 1.384 1_565 S
N858 C854 1.427 . S
N858 C855 1.384 . S
N859 C851 1.427 . S
N859 C857 1.384 1_545 S
H860 C866 0.930 . S
H861 C870 0.930 . S
H862 C875 0.929 . S
H863 C873 0.929 . S
H864 C868 0.929 . S
H865 C874 0.929 . S
C866 H860 0.930 . S
C866 C867 1.367 . S
C866 C874 1.378 . S
C867 C866 1.367 . S
C867 C875 1.433 . S
C868 H864 0.929 . S
C868 C870 1.378 . S
C868 C872 1.350 . S
C869 C872 1.463 . S
C869 C874 1.350 . S
C869 N877 1.427 . S
C870 H861 0.930 . S
C870 C868 1.378 . S
C870 C871 1.367 . S
C871 C870 1.367 . S
C871 C873 1.433 . S
C872 C868 1.350 . S
C872 C869 1.463 . S
C872 N876 1.427 . S
C873 H863 0.929 . S
C873 C871 1.433 . S
C873 N876 1.384 . S
C874 H865 0.929 . S
C874 C866 1.378 . S
C874 C869 1.350 . S
C875 H862 0.929 . S
C875 C867 1.433 . S
C875 N877 1.384 . S
N876 C872 1.427 . S
N876 C873 1.384 . S
N877 C869 1.427 . S
N877 C875 1.384 . S
H878 C884 0.930 1_545 S
H879 C888 0.930 . S
H880 C893 0.929 . S
H881 C891 0.929 . S
H882 C886 0.929 . S
H883 C892 0.929 . S
C884 H878 0.930 1_565 S
C884 C885 1.367 . S
C884 C892 1.378 . S
C885 C884 1.367 . S
C885 C893 1.433 . S
C886 H882 0.929 . S
C886 C888 1.378 . S
C886 C890 1.350 . S
C887 C890 1.463 . S
C887 C892 1.350 . S
C887 N895 1.427 . S
C888 H879 0.930 . S
C888 C886 1.378 . S
C888 C889 1.367 . S
C889 C888 1.367 . S
C889 C891 1.433 . S
C890 C886 1.350 . S
C890 C887 1.463 . S
C890 N894 1.427 . S
C891 H881 0.929 . S
C891 C889 1.433 . S
C891 N894 1.384 . S
C892 H883 0.929 . S
C892 C884 1.378 . S
C892 C887 1.350 . S
C893 H880 0.929 . S
C893 C885 1.433 . S
C893 N895 1.384 . S
N894 C890 1.427 . S
N894 C891 1.384 . S
N895 C887 1.427 . S
N895 C893 1.384 . S
H896 C902 0.895 1_554 S
H897 C906 0.930 . S
H898 C911 0.929 . S
H899 C909 0.929 . S
H900 C904 0.929 . S
H901 C910 0.929 . S
C902 H896 0.895 1_556 S
C902 C903 1.370 . S
C902 C910 1.411 . S
C903 C902 1.370 . S
C903 C911 1.433 . S
C904 H900 0.929 . S
C904 C906 1.378 . S
C904 C908 1.350 . S
C905 C908 1.463 . S
C905 C910 1.350 . S
C905 N913 1.427 . S
C906 H897 0.930 . S
C906 C904 1.378 . S
C906 C907 1.367 . S
C907 C906 1.367 . S
C907 C909 1.433 . S
C908 C904 1.350 . S
C908 C905 1.463 . S
C908 N912 1.427 . S
C909 H899 0.929 . S
C909 C907 1.433 . S
C909 N912 1.384 . S
C910 H901 0.929 . S
C910 C902 1.411 . S
C910 C905 1.350 . S
C911 H898 0.929 . S
C911 C903 1.433 . S
C911 N913 1.384 . S
N912 C908 1.427 . S
N912 C909 1.384 . S
N913 C905 1.427 . S
N913 C911 1.384 . S
H914 C920 0.930 . S
H915 C924 0.930 . S
H916 C929 0.929 . S
H917 C927 0.929 . S
H918 C922 0.929 . S
H919 C928 0.929 . S
C920 H914 0.930 . S
C920 C921 1.367 . S
C920 C928 1.378 . S
C921 C920 1.367 . S
C921 C929 1.433 . S
C922 H918 0.929 . S
C922 C924 1.378 . S
C922 C926 1.350 . S
C923 C926 1.463 . S
C923 C928 1.350 . S
C923 N931 1.427 . S
C924 H915 0.930 . S
C924 C922 1.378 . S
C924 C925 1.367 . S
C925 C924 1.367 . S
C925 C927 1.433 . S
C926 C922 1.350 . S
C926 C923 1.463 . S
C926 N930 1.427 . S
C927 H917 0.929 . S
C927 C925 1.433 . S
C927 N930 1.384 . S
C928 H919 0.929 . S
C928 C920 1.378 . S
C928 C923 1.350 . S
C929 H916 0.929 . S
C929 C921 1.433 . S
C929 N931 1.384 . S
N930 C926 1.427 . S
N930 C927 1.384 . S
N931 C923 1.427 . S
N931 C929 1.384 . S
H932 C938 0.930 . S
H933 C942 0.930 . S
H934 C947 0.929 . S
H935 C945 0.929 . S
H936 C940 0.929 . S
H937 C946 0.929 . S
C938 H932 0.930 . S
C938 C939 1.367 . S
C938 C946 1.378 . S
C939 C938 1.367 . S
C939 C947 1.433 . S
C940 H936 0.929 . S
C940 C942 1.378 . S
C940 C944 1.350 . S
C941 C944 1.463 . S
C941 C946 1.350 . S
C941 N949 1.427 . S
C942 H933 0.930 . S
C942 C940 1.378 . S
C942 C943 1.367 . S
C943 C942 1.367 . S
C943 C945 1.433 . S
C944 C940 1.350 . S
C944 C941 1.463 . S
C944 N948 1.427 . S
C945 H935 0.929 . S
C945 C943 1.433 . S
C945 N948 1.384 . S
C946 H937 0.929 . S
C946 C938 1.378 . S
C946 C941 1.350 . S
C947 H934 0.929 . S
C947 C939 1.433 . S
C947 N949 1.384 . S
N948 C944 1.427 . S
N948 C945 1.384 . S
N949 C941 1.427 . S
N949 C947 1.384 . S
H950 C956 0.930 . S
H951 C960 0.930 . S
H952 C965 0.929 . S
H953 C963 0.929 . S
H954 C958 0.929 . S
H955 C964 0.929 . S
C956 H950 0.930 . S
C956 C957 1.367 . S
C956 C964 1.378 . S
C957 C956 1.367 . S
C957 C965 1.433 . S
C958 H954 0.929 . S
C958 C960 1.378 . S
C958 C962 1.350 . S
C959 C962 1.463 . S
C959 C964 1.350 . S
C959 N967 1.427 . S
C960 H951 0.930 . S
C960 C958 1.378 . S
C960 C961 1.367 . S
C961 C960 1.367 . S
C961 C963 1.433 . S
C962 C958 1.350 . S
C962 C959 1.463 . S
C962 N966 1.427 . S
C963 H953 0.929 . S
C963 C961 1.433 . S
C963 N966 1.384 . S
C964 H955 0.929 . S
C964 C956 1.378 . S
C964 C959 1.350 . S
C965 H952 0.929 . S
C965 C957 1.433 . S
C965 N967 1.384 . S
N966 C962 1.427 . S
N966 C963 1.384 . S
N967 C959 1.427 . S
N967 C965 1.384 . S
H968 C974 0.930 . S
H969 C978 0.930 1_556 S
H970 C983 0.929 . S
H971 C981 0.929 . S
H972 C976 0.929 . S
H973 C982 0.929 . S
C974 H968 0.930 . S
C974 C975 1.367 . S
C974 C982 1.378 . S
C975 C974 1.367 . S
C975 C983 1.433 . S
C976 H972 0.929 . S
C976 C978 1.378 . S
C976 C980 1.350 . S
C977 C980 1.463 . S
C977 C982 1.350 . S
C977 N985 1.427 . S
C978 H969 0.930 1_554 S
C978 C976 1.378 . S
C978 C979 1.367 . S
C979 C978 1.367 . S
C979 C981 1.433 . S
C980 C976 1.350 . S
C980 C977 1.463 . S
C980 N984 1.427 . S
C981 H971 0.929 . S
C981 C979 1.433 . S
C981 N984 1.384 . S
C982 H973 0.929 . S
C982 C974 1.378 . S
C982 C977 1.350 . S
C983 H970 0.929 . S
C983 C975 1.433 . S
C983 N985 1.384 . S
N984 C980 1.427 . S
N984 C981 1.384 . S
N985 C977 1.427 . S
N985 C983 1.384 . S
H986 C992 0.930 . S
H987 C996 0.930 . S
H988 C1001 0.929 . S
H989 C999 0.929 . S
H990 C994 0.929 . S
H991 C1000 0.929 . S
C992 H986 0.930 . S
C992 C993 1.367 . S
C992 C1000 1.378 . S
C993 C992 1.367 . S
C993 C1001 1.433 . S
C994 H990 0.929 . S
C994 C996 1.378 . S
C994 C998 1.350 . S
C995 C998 1.463 . S
C995 C1000 1.350 . S
C995 N1003 1.427 . S
C996 H987 0.930 . S
C996 C994 1.378 . S
C996 C997 1.367 . S
C997 C996 1.367 . S
C997 C999 1.433 . S
C998 C994 1.350 . S
C998 C995 1.463 . S
C998 N1002 1.427 . S
C999 H989 0.929 . S
C999 C997 1.433 . S
C999 N1002 1.384 . S
C1000 H991 0.929 . S
C1000 C992 1.378 . S
C1000 C995 1.350 . S
C1001 H988 0.929 . S
C1001 C993 1.433 . S
C1001 N1003 1.384 . S
N1002 C998 1.427 . S
N1002 C999 1.384 . S
N1003 C995 1.427 . S
N1003 C1001 1.384 . S
H1004 C1010 0.930 . S
H1005 C1014 0.930 . S
H1006 C1019 0.929 . S
H1007 C1017 0.929 . S
H1008 C1012 0.929 . S
H1009 C1018 0.929 . S
C1010 H1004 0.930 . S
C1010 C1011 1.367 . S
C1010 C1018 1.378 . S
C1011 C1010 1.367 . S
C1011 C1019 1.433 . S
C1012 H1008 0.929 . S
C1012 C1014 1.378 . S
C1012 C1016 1.350 . S
C1013 C1016 1.463 . S
C1013 C1018 1.350 . S
C1013 N1021 1.427 . S
C1014 H1005 0.930 . S
C1014 C1012 1.378 . S
C1014 C1015 1.367 . S
C1015 C1014 1.367 . S
C1015 C1017 1.433 . S
C1016 C1012 1.350 . S
C1016 C1013 1.463 . S
C1016 N1020 1.427 . S
C1017 H1007 0.929 . S
C1017 C1015 1.433 . S
C1017 N1020 1.384 . S
C1018 H1009 0.929 . S
C1018 C1010 1.378 . S
C1018 C1013 1.350 . S
C1019 H1006 0.929 . S
C1019 C1011 1.433 . S
C1019 N1021 1.384 . S
N1020 C1016 1.427 . S
N1020 C1017 1.384 . S
N1021 C1013 1.427 . S
N1021 C1019 1.384 . S
H1022 C1028 0.930 . S
H1023 C1032 0.930 . S
H1024 C1037 0.929 . S
H1025 C1035 0.929 . S
H1026 C1030 0.929 . S
H1027 C1036 0.929 . S
C1028 H1022 0.930 . S
C1028 C1029 1.367 . S
C1028 C1036 1.378 . S
C1029 C1028 1.367 . S
C1029 C1037 1.433 . S
C1030 H1026 0.929 . S
C1030 C1032 1.378 . S
C1030 C1034 1.350 . S
C1031 C1034 1.463 . S
C1031 C1036 1.350 . S
C1031 N1039 1.427 . S
C1032 H1023 0.930 . S
C1032 C1030 1.378 . S
C1032 C1033 1.367 . S
C1033 C1032 1.367 . S
C1033 C1035 1.433 . S
C1034 C1030 1.350 . S
C1034 C1031 1.463 . S
C1034 N1038 1.427 . S
C1035 H1025 0.929 . S
C1035 C1033 1.433 . S
C1035 N1038 1.384 . S
C1036 H1027 0.929 . S
C1036 C1028 1.378 . S
C1036 C1031 1.350 . S
C1037 H1024 0.929 . S
C1037 C1029 1.433 . S
C1037 N1039 1.384 . S
N1038 C1034 1.427 . S
N1038 C1035 1.384 . S
N1039 C1031 1.427 . S
N1039 C1037 1.384 . S
H1040 C1046 0.930 . S
H1041 C1050 0.930 . S
H1042 C1055 0.929 . S
H1043 C1053 0.929 . S
H1044 C1048 0.929 . S
H1045 C1054 0.929 . S
C1046 H1040 0.930 . S
C1046 C1047 1.367 . S
C1046 C1054 1.378 . S
C1047 C1046 1.367 . S
C1047 C1055 1.433 . S
C1048 H1044 0.929 . S
C1048 C1050 1.378 . S
C1048 C1052 1.350 . S
C1049 C1052 1.463 . S
C1049 C1054 1.350 . S
C1049 N1057 1.427 . S
C1050 H1041 0.930 . S
C1050 C1048 1.378 . S
C1050 C1051 1.367 . S
C1051 C1050 1.367 . S
C1051 C1053 1.433 . S
C1052 C1048 1.350 . S
C1052 C1049 1.463 . S
C1052 N1056 1.427 . S
C1053 H1043 0.929 . S
C1053 C1051 1.433 . S
C1053 N1056 1.384 . S
C1054 H1045 0.929 . S
C1054 C1046 1.378 . S
C1054 C1049 1.350 . S
C1055 H1042 0.929 . S
C1055 C1047 1.433 . S
C1055 N1057 1.384 . S
N1056 C1052 1.427 . S
N1056 C1053 1.384 . S
N1057 C1049 1.427 . S
N1057 C1055 1.384 . S
H1058 C1064 0.930 . S
H1059 C1068 0.930 . S
H1060 C1073 0.929 . S
H1061 C1071 0.929 . S
H1062 C1066 0.929 . S
H1063 C1072 0.929 . S
C1064 H1058 0.930 . S
C1064 C1065 1.367 . S
C1064 C1072 1.378 . S
C1065 C1064 1.367 . S
C1065 C1073 1.433 . S
C1066 H1062 0.929 . S
C1066 C1068 1.378 . S
C1066 C1070 1.350 . S
C1067 C1070 1.463 . S
C1067 C1072 1.350 . S
C1067 N1075 1.427 . S
C1068 H1059 0.930 . S
C1068 C1066 1.378 . S
C1068 C1069 1.367 1_565 S
C1069 C1068 1.367 1_545 S
C1069 C1071 1.433 . S
C1070 C1066 1.350 . S
C1070 C1067 1.463 . S
C1070 N1074 1.427 . S
C1071 H1061 0.929 . S
C1071 C1069 1.433 . S
C1071 N1074 1.384 1_545 S
C1072 H1063 0.929 . S
C1072 C1064 1.378 . S
C1072 C1067 1.350 . S
C1073 H1060 0.929 . S
C1073 C1065 1.433 . S
C1073 N1075 1.384 . S
N1074 C1070 1.427 . S
N1074 C1071 1.384 1_565 S
N1075 C1067 1.427 . S
N1075 C1073 1.384 . S
H1076 C1082 0.930 . S
H1077 C1086 0.930 . S
H1078 C1091 0.929 . S
H1079 C1089 0.929 1_554 S
H1080 C1084 0.929 . S
H1081 C1090 0.929 . S
C1082 H1076 0.930 . S
C1082 C1083 1.367 . S
C1082 C1090 1.378 . S
C1083 C1082 1.367 . S
C1083 C1091 1.433 . S
C1084 H1080 0.929 . S
C1084 C1086 1.378 . S
C1084 C1088 1.350 . S
C1085 C1088 1.463 . S
C1085 C1090 1.350 . S
C1085 N1093 1.427 . S
C1086 H1077 0.930 . S
C1086 C1084 1.378 . S
C1086 C1087 1.367 . S
C1087 C1086 1.367 . S
C1087 C1089 1.433 . S
C1088 C1084 1.350 . S
C1088 C1085 1.463 . S
C1088 N1092 1.427 . S
C1089 H1079 0.929 1_556 S
C1089 C1087 1.433 . S
C1089 N1092 1.384 . S
C1090 H1081 0.929 . S
C1090 C1082 1.378 . S
C1090 C1085 1.350 . S
C1091 H1078 0.929 . S
C1091 C1083 1.433 . S
C1091 N1093 1.384 . S
N1092 C1088 1.427 . S
N1092 C1089 1.384 . S
N1093 C1085 1.427 . S
N1093 C1091 1.384 . S
H1094 C1100 0.930 . S
H1095 C1104 0.930 . S
H1096 C1109 0.929 . S
H1097 C1107 0.929 . S
H1098 C1102 0.929 . S
H1099 C1108 0.929 . S
C1100 H1094 0.930 . S
C1100 C1101 1.367 1_545 S
C1100 C1108 1.378 . S
C1101 C1100 1.367 1_565 S
C1101 C1109 1.433 . S
C1102 H1098 0.929 . S
C1102 C1104 1.378 . S
C1102 C1106 1.350 . S
C1103 C1106 1.463 . S
C1103 C1108 1.350 . S
C1103 N1111 1.427 . S
C1104 H1095 0.930 . S
C1104 C1102 1.378 . S
C1104 C1105 1.367 . S
C1105 C1104 1.367 . S
C1105 C1107 1.433 . S
C1106 C1102 1.350 . S
C1106 C1103 1.463 . S
C1106 N1110 1.427 . S
C1107 H1097 0.929 . S
C1107 C1105 1.433 . S
C1107 N1110 1.384 . S
C1108 H1099 0.929 . S
C1108 C1100 1.378 . S
C1108 C1103 1.350 . S
C1109 H1096 0.929 . S
C1109 C1101 1.433 . S
C1109 N1111 1.384 1_565 S
N1110 C1106 1.427 . S
N1110 C1107 1.384 . S
N1111 C1103 1.427 . S
N1111 C1109 1.384 1_545 S
H1112 C1118 0.930 . S
H1113 C1122 0.930 . S
H1114 C1127 0.929 . S
H1115 C1125 0.929 . S
H1116 C1120 0.929 . S
H1117 C1126 0.929 . S
C1118 H1112 0.930 . S
C1118 C1119 1.367 . S
C1118 C1126 1.378 . S
C1119 C1118 1.367 . S
C1119 C1127 1.433 . S
C1120 H1116 0.929 . S
C1120 C1122 1.378 . S
C1120 C1124 1.350 . S
C1121 C1124 1.463 . S
C1121 C1126 1.350 . S
C1121 N1129 1.427 . S
C1122 H1113 0.930 . S
C1122 C1120 1.378 . S
C1122 C1123 1.367 . S
C1123 C1122 1.367 . S
C1123 C1125 1.433 . S
C1124 C1120 1.350 . S
C1124 C1121 1.463 . S
C1124 N1128 1.427 . S
C1125 H1115 0.929 . S
C1125 C1123 1.433 . S
C1125 N1128 1.384 . S
C1126 H1117 0.929 . S
C1126 C1118 1.378 . S
C1126 C1121 1.350 . S
C1127 H1114 0.929 . S
C1127 C1119 1.433 . S
C1127 N1129 1.384 . S
N1128 C1124 1.427 . S
N1128 C1125 1.384 . S
N1129 C1121 1.427 . S
N1129 C1127 1.384 . S
H1130 C1136 0.930 . S
H1131 C1140 0.930 . S
H1132 C1145 0.929 . S
H1133 C1143 0.929 . S
H1134 C1138 0.929 . S
H1135 C1144 0.929 . S
C1136 H1130 0.930 . S
C1136 C1137 1.367 . S
C1136 C1144 1.378 . S
C1137 C1136 1.367 . S
C1137 C1145 1.433 . S
C1138 H1134 0.929 . S
C1138 C1140 1.378 . S
C1138 C1142 1.350 . S
C1139 C1142 1.463 . S
C1139 C1144 1.350 . S
C1139 N1147 1.427 . S
C1140 H1131 0.930 . S
C1140 C1138 1.378 . S
C1140 C1141 1.367 1_545 S
C1141 C1140 1.367 1_565 S
C1141 C1143 1.433 . S
C1142 C1138 1.350 . S
C1142 C1139 1.463 . S
C1142 N1146 1.427 . S
C1143 H1133 0.929 . S
C1143 C1141 1.433 . S
C1143 N1146 1.384 1_565 S
C1144 H1135 0.929 . S
C1144 C1136 1.378 . S
C1144 C1139 1.350 . S
C1145 H1132 0.929 . S
C1145 C1137 1.433 . S
C1145 N1147 1.384 . S
N1146 C1142 1.427 . S
N1146 C1143 1.384 1_545 S
N1147 C1139 1.427 . S
N1147 C1145 1.384 . S
H1148 C1154 0.930 . S
H1149 C1158 0.930 . S
H1150 C1163 0.929 . S
H1151 C1161 0.929 1_556 S
H1152 C1156 0.929 . S
H1153 C1162 0.929 . S
C1154 H1148 0.930 . S
C1154 C1155 1.367 . S
C1154 C1162 1.378 . S
C1155 C1154 1.367 . S
C1155 C1163 1.433 . S
C1156 H1152 0.929 . S
C1156 C1158 1.378 . S
C1156 C1160 1.350 . S
C1157 C1160 1.463 . S
C1157 C1162 1.350 . S
C1157 N1165 1.427 . S
C1158 H1149 0.930 . S
C1158 C1156 1.378 . S
C1158 C1159 1.367 . S
C1159 C1158 1.367 . S
C1159 C1161 1.433 . S
C1160 C1156 1.350 . S
C1160 C1157 1.463 . S
C1160 N1164 1.427 . S
C1161 H1151 0.929 1_554 S
C1161 C1159 1.433 . S
C1161 N1164 1.384 . S
C1162 H1153 0.929 . S
C1162 C1154 1.378 . S
C1162 C1157 1.350 . S
C1163 H1150 0.929 . S
C1163 C1155 1.433 . S
C1163 N1165 1.384 . S
N1164 C1160 1.427 . S
N1164 C1161 1.384 . S
N1165 C1157 1.427 . S
N1165 C1163 1.384 . S
H1166 C1172 0.930 . S
H1167 C1176 0.930 . S
H1168 C1181 0.929 . S
H1169 C1179 0.929 . S
H1170 C1174 0.929 . S
H1171 C1180 0.929 . S
C1172 H1166 0.930 . S
C1172 C1173 1.367 . S
C1172 C1180 1.378 . S
C1173 C1172 1.367 . S
C1173 C1181 1.433 . S
C1174 H1170 0.929 . S
C1174 C1176 1.378 . S
C1174 C1178 1.350 . S
C1175 C1178 1.463 . S
C1175 C1180 1.350 . S
C1175 N1183 1.427 . S
C1176 H1167 0.930 . S
C1176 C1174 1.378 . S
C1176 C1177 1.367 1_565 S
C1177 C1176 1.367 1_545 S
C1177 C1179 1.433 . S
C1178 C1174 1.350 . S
C1178 C1175 1.463 . S
C1178 N1182 1.430 . S
C1179 H1169 0.929 . S
C1179 C1177 1.433 . S
C1179 N1182 1.382 1_545 S
C1180 H1171 0.929 . S
C1180 C1172 1.378 . S
C1180 C1175 1.350 . S
C1181 H1168 0.929 . S
C1181 C1173 1.433 . S
C1181 N1183 1.384 . S
N1182 C1178 1.430 . S
N1182 C1179 1.382 1_565 S
N1183 C1175 1.427 . S
N1183 C1181 1.384 . S
C327 C18 1.134 . S
C331 C218 1.117 . S
C345 C38 1.116 . S
C349 C238 1.133 . S
C363 C58 1.133 . S
C367 C178 1.117 . S
C381 C198 1.116 . S
C385 C78 1.134 . S
C399 C99 1.124 . S
C403 C299 1.123 . S
C417 C319 1.119 . S
C421 C119 1.129 . S
C435 C259 1.116 . S
C439 C139 1.134 . S
C453 C159 1.128 . S
C457 C279 1.119 . S
C471 C9 1.484 . S
C475 C92 1.484 . S
C489 C29 1.484 . S
C493 C272 1.484 . S
C507 C49 1.497 . S
C511 C132 1.497 . S
C525 C69 1.498 . S
C529 C312 1.498 . S
C543 C112 1.496 . S
C547 C189 1.496 . S
C561 C229 1.493 . S
C565 C152 1.493 . S
C579 C252 1.483 . S
C583 C169 1.483 . S
C597 C209 1.485 . S
C601 C292 1.485 . S
C615 C12 1.136 . S
C619 C158 1.137 . S
C633 C32 1.136 . S
C637 C258 1.130 . S
C651 C52 1.135 . S
C655 C118 1.129 . S
C669 C72 1.135 1_455 S
C673 C298 1.129 . S
C687 C79 1.134 . S
C691 C89 1.129 . S
C705 C109 1.135 . S
C709 C179 1.129 . S
C723 C129 1.132 . S
C727 C39 1.129 . S
C741 C219 1.137 . S
C745 C149 1.130 1_655 S
C759 C172 1.129 . S
C763 C318 1.135 1_565 S
C777 C98 1.134 . S
C781 C192 1.129 1_655 S
C795 C278 1.133 1_545 S
C799 C212 1.129 . S
C813 C138 1.129 . S
C817 C232 1.136 . S
C831 C249 1.131 . S
C835 C239 1.137 1_545 S
C849 C269 1.138 1_455 S
C853 C19 1.136 . S
C867 C199 1.136 1_565 S
C871 C289 1.130 . S
C885 C309 1.129 . S
C889 C59 1.133 . S
C903 C2 1.982 1_556 S
C907 C184 2.138 . S
C921 C204 2.139 . S
C925 C22 1.977 . S
C939 C42 1.976 . S
C943 C224 2.138 . S
C957 C164 2.135 . S
C961 C62 1.991 . S
C975 C262 2.139 . S
C979 C84 1.977 1_554 S
C993 C282 2.134 . S
C997 C104 1.992 . S
C1011 C302 2.133 . S
C1015 C124 1.992 . S
C1029 C242 2.135 . S
C1033 C144 1.984 . S
C1047 C24 2.137 . S
C1051 C162 1.979 . S
C1065 C44 2.138 . S
C1069 C182 1.981 . S
C1083 C64 2.135 . S
C1087 C202 1.982 1_556 S
C1101 C222 1.991 . S
C1105 C4 2.135 . S
C1119 C102 2.139 . S
C1123 C244 1.977 . S
C1137 C122 2.136 . S
C1141 C264 1.989 . S
C1155 C142 2.133 . S
C1159 C284 1.991 1_554 S
C1173 C82 2.138 . S
C1177 C304 1.983 . S
