# Generated by pormake.
# Topology ukj, (4)-cn, num edge types: 1
# Building blocks:
#     Node 0, Type 0, BuildingBlock: KUFVIS_clean_sbu_0, # of connection points: 4
#     Node 1, Type 0, BuildingBlock: KUFVIS_clean_sbu_0, # of connection points: 4
#     Node 2, Type 0, BuildingBlock: KUFVIS_clean_sbu_0, # of connection points: 4
#     Node 3, Type 0, BuildingBlock: KUFVIS_clean_sbu_0, # of connection points: 4
#     Node 4, Type 0, BuildingBlock: KUFVIS_clean_sbu_0, # of connection points: 4
#     Node 5, Type 0, BuildingBlock: KUFVIS_clean_sbu_0, # of connection points: 4
#     Node 6, Type 0, BuildingBlock: KUFVIS_clean_sbu_0, # of connection points: 4
#     Node 7, Type 0, BuildingBlock: KUFVIS_clean_sbu_0, # of connection points: 4
#     Node 8, Type 0, BuildingBlock: KUFVIS_clean_sbu_0, # of connection points: 4
#     Node 9, Type 0, BuildingBlock: KUFVIS_clean_sbu_0, # of connection points: 4
#     Node 10, Type 0, BuildingBlock: KUFVIS_clean_sbu_0, # of connection points: 4
#     Node 11, Type 0, BuildingBlock: KUFVIS_clean_sbu_0, # of connection points: 4
#     Node 12, Type 0, BuildingBlock: KUFVIS_clean_sbu_0, # of connection points: 4
#     Node 13, Type 0, BuildingBlock: KUFVIS_clean_sbu_0, # of connection points: 4
#     Node 14, Type 0, BuildingBlock: KUFVIS_clean_sbu_0, # of connection points: 4
#     Node 15, Type 0, BuildingBlock: KUFVIS_clean_sbu_0, # of connection points: 4
#     Node 16, Type 0, BuildingBlock: KUFVIS_clean_sbu_0, # of connection points: 4
#     Node 17, Type 0, BuildingBlock: KUFVIS_clean_sbu_0, # of connection points: 4
#     Node 18, Type 0, BuildingBlock: KUFVIS_clean_sbu_0, # of connection points: 4
#     Node 19, Type 0, BuildingBlock: KUFVIS_clean_sbu_0, # of connection points: 4
#     Node 20, Type 0, BuildingBlock: KUFVIS_clean_sbu_0, # of connection points: 4
#     Node 21, Type 0, BuildingBlock: KUFVIS_clean_sbu_0, # of connection points: 4
#     Node 22, Type 0, BuildingBlock: KUFVIS_clean_sbu_0, # of connection points: 4
#     Node 23, Type 0, BuildingBlock: KUFVIS_clean_sbu_0, # of connection points: 4
#     Node 24, Type 0, BuildingBlock: KUFVIS_clean_sbu_0, # of connection points: 4
#     Node 25, Type 0, BuildingBlock: KUFVIS_clean_sbu_0, # of connection points: 4
#     Node 26, Type 0, BuildingBlock: KUFVIS_clean_sbu_0, # of connection points: 4
#     Node 27, Type 0, BuildingBlock: KUFVIS_clean_sbu_0, # of connection points: 4
#     Node 28, Type 0, BuildingBlock: KUFVIS_clean_sbu_0, # of connection points: 4
#     Node 29, Type 0, BuildingBlock: KUFVIS_clean_sbu_0, # of connection points: 4
#     Node 30, Type 0, BuildingBlock: KUFVIS_clean_sbu_0, # of connection points: 4
#     Node 31, Type 0, BuildingBlock: KUFVIS_clean_sbu_0, # of connection points: 4
#     Edge 32, Type (0, 0), BuildingBlock: AJUNOK_clean_linker_0, # of connection points: 2
#     Edge 33, Type (0, 0), BuildingBlock: AJUNOK_clean_linker_0, # of connection points: 2
#     Edge 34, Type (0, 0), BuildingBlock: AJUNOK_clean_linker_0, # of connection points: 2
#     Edge 35, Type (0, 0), BuildingBlock: AJUNOK_clean_linker_0, # of connection points: 2
#     Edge 36, Type (0, 0), BuildingBlock: AJUNOK_clean_linker_0, # of connection points: 2
#     Edge 37, Type (0, 0), BuildingBlock: AJUNOK_clean_linker_0, # of connection points: 2
#     Edge 38, Type (0, 0), BuildingBlock: AJUNOK_clean_linker_0, # of connection points: 2
#     Edge 39, Type (0, 0), BuildingBlock: AJUNOK_clean_linker_0, # of connection points: 2
#     Edge 40, Type (0, 0), BuildingBlock: AJUNOK_clean_linker_0, # of connection points: 2
#     Edge 41, Type (0, 0), BuildingBlock: AJUNOK_clean_linker_0, # of connection points: 2
#     Edge 42, Type (0, 0), BuildingBlock: AJUNOK_clean_linker_0, # of connection points: 2
#     Edge 43, Type (0, 0), BuildingBlock: AJUNOK_clean_linker_0, # of connection points: 2
#     Edge 44, Type (0, 0), BuildingBlock: AJUNOK_clean_linker_0, # of connection points: 2
#     Edge 45, Type (0, 0), BuildingBlock: AJUNOK_clean_linker_0, # of connection points: 2
#     Edge 46, Type (0, 0), BuildingBlock: AJUNOK_clean_linker_0, # of connection points: 2
#     Edge 47, Type (0, 0), BuildingBlock: AJUNOK_clean_linker_0, # of connection points: 2
#     Edge 48, Type (0, 0), BuildingBlock: AJUNOK_clean_linker_0, # of connection points: 2
#     Edge 49, Type (0, 0), BuildingBlock: AJUNOK_clean_linker_0, # of connection points: 2
#     Edge 50, Type (0, 0), BuildingBlock: AJUNOK_clean_linker_0, # of connection points: 2
#     Edge 51, Type (0, 0), BuildingBlock: AJUNOK_clean_linker_0, # of connection points: 2
#     Edge 52, Type (0, 0), BuildingBlock: AJUNOK_clean_linker_0, # of connection points: 2
#     Edge 53, Type (0, 0), BuildingBlock: AJUNOK_clean_linker_0, # of connection points: 2
#     Edge 54, Type (0, 0), BuildingBlock: AJUNOK_clean_linker_0, # of connection points: 2
#     Edge 55, Type (0, 0), BuildingBlock: AJUNOK_clean_linker_0, # of connection points: 2
#     Edge 56, Type (0, 0), BuildingBlock: AJUNOK_clean_linker_0, # of connection points: 2
#     Edge 57, Type (0, 0), BuildingBlock: AJUNOK_clean_linker_0, # of connection points: 2
#     Edge 58, Type (0, 0), BuildingBlock: AJUNOK_clean_linker_0, # of connection points: 2
#     Edge 59, Type (0, 0), BuildingBlock: AJUNOK_clean_linker_0, # of connection points: 2
#     Edge 60, Type (0, 0), BuildingBlock: AJUNOK_clean_linker_0, # of connection points: 2
#     Edge 61, Type (0, 0), BuildingBlock: AJUNOK_clean_linker_0, # of connection points: 2
#     Edge 62, Type (0, 0), BuildingBlock: AJUNOK_clean_linker_0, # of connection points: 2
#     Edge 63, Type (0, 0), BuildingBlock: AJUNOK_clean_linker_0, # of connection points: 2
#     Edge 64, Type (0, 0), BuildingBlock: AJUNOK_clean_linker_0, # of connection points: 2
#     Edge 65, Type (0, 0), BuildingBlock: AJUNOK_clean_linker_0, # of connection points: 2
#     Edge 66, Type (0, 0), BuildingBlock: AJUNOK_clean_linker_0, # of connection points: 2
#     Edge 67, Type (0, 0), BuildingBlock: AJUNOK_clean_linker_0, # of connection points: 2
#     Edge 68, Type (0, 0), BuildingBlock: AJUNOK_clean_linker_0, # of connection points: 2
#     Edge 69, Type (0, 0), BuildingBlock: AJUNOK_clean_linker_0, # of connection points: 2
#     Edge 70, Type (0, 0), BuildingBlock: AJUNOK_clean_linker_0, # of connection points: 2
#     Edge 71, Type (0, 0), BuildingBlock: AJUNOK_clean_linker_0, # of connection points: 2
#     Edge 72, Type (0, 0), BuildingBlock: AJUNOK_clean_linker_0, # of connection points: 2
#     Edge 73, Type (0, 0), BuildingBlock: AJUNOK_clean_linker_0, # of connection points: 2
#     Edge 74, Type (0, 0), BuildingBlock: AJUNOK_clean_linker_0, # of connection points: 2
#     Edge 75, Type (0, 0), BuildingBlock: AJUNOK_clean_linker_0, # of connection points: 2
#     Edge 76, Type (0, 0), BuildingBlock: AJUNOK_clean_linker_0, # of connection points: 2
#     Edge 77, Type (0, 0), BuildingBlock: AJUNOK_clean_linker_0, # of connection points: 2
#     Edge 78, Type (0, 0), BuildingBlock: AJUNOK_clean_linker_0, # of connection points: 2
#     Edge 79, Type (0, 0), BuildingBlock: AJUNOK_clean_linker_0, # of connection points: 2
#     Edge 80, Type (0, 0), BuildingBlock: AJUNOK_clean_linker_0, # of connection points: 2
#     Edge 81, Type (0, 0), BuildingBlock: AJUNOK_clean_linker_0, # of connection points: 2
#     Edge 82, Type (0, 0), BuildingBlock: AJUNOK_clean_linker_0, # of connection points: 2
#     Edge 83, Type (0, 0), BuildingBlock: AJUNOK_clean_linker_0, # of connection points: 2
#     Edge 84, Type (0, 0), BuildingBlock: AJUNOK_clean_linker_0, # of connection points: 2
#     Edge 85, Type (0, 0), BuildingBlock: AJUNOK_clean_linker_0, # of connection points: 2
#     Edge 86, Type (0, 0), BuildingBlock: AJUNOK_clean_linker_0, # of connection points: 2
#     Edge 87, Type (0, 0), BuildingBlock: AJUNOK_clean_linker_0, # of connection points: 2
#     Edge 88, Type (0, 0), BuildingBlock: AJUNOK_clean_linker_0, # of connection points: 2
#     Edge 89, Type (0, 0), BuildingBlock: AJUNOK_clean_linker_0, # of connection points: 2
#     Edge 90, Type (0, 0), BuildingBlock: AJUNOK_clean_linker_0, # of connection points: 2
#     Edge 91, Type (0, 0), BuildingBlock: AJUNOK_clean_linker_0, # of connection points: 2
#     Edge 92, Type (0, 0), BuildingBlock: AJUNOK_clean_linker_0, # of connection points: 2
#     Edge 93, Type (0, 0), BuildingBlock: AJUNOK_clean_linker_0, # of connection points: 2
#     Edge 94, Type (0, 0), BuildingBlock: AJUNOK_clean_linker_0, # of connection points: 2
#     Edge 95, Type (0, 0), BuildingBlock: AJUNOK_clean_linker_0, # of connection points: 2
# Relax obj value: 0.111
# Max RMSD: 0.210
# Mean RMSD: 0.210
data_MOF--net-ukj--node1-KUFVIS_clean_sbu_0--edge1-AJUNOK_clean_linker_0
_symmetry_space_group_name_H-M    P1
_symmetry_Int_Tables_number       1
_symmetry_cell_setting            triclinic
loop_
_symmetry_equiv_pos_as_xyz
'x, y, z'
_cell_length_a     21.287884
_cell_length_b     47.55749
_cell_length_c     42.085684
_cell_angle_alpha  89.96044
_cell_angle_beta   89.975919
_cell_angle_gamma 90.014331
loop_
_atom_site_label
_atom_site_type_symbol
_atom_site_fract_x
_atom_site_fract_y
_atom_site_fract_z
_atom_type_partial_charge
Mn0 Mn 0.15137 0.33953 0.27483 0.0
Mn1 Mn 0.23184 0.29322 0.22951 0.0
C2 C 0.25831 0.34375 0.27207 0.0
C3 C 0.10484 0.34958 0.32377 0.0
C4 C 0.17224 0.34561 0.20241 0.0
O5 O 0.08702 0.3098 0.26694 0.0
O6 O 0.14264 0.28155 0.23545 0.0
C7 C 0.22489 0.24536 0.27454 0.0
N8 N 0.25904 0.26231 0.25495 0.0
C9 C 0.347 0.23067 0.25652 0.0
C10 C 0.31288 0.21281 0.27667 0.0
C11 C 0.2518 0.22038 0.28604 0.0
C12 C 0.3184 0.25566 0.24664 0.0
H13 H 0.17721 0.25066 0.28092 0.0
C14 C 0.09228 0.28781 0.25034 0.0
O15 O 0.0872 0.36266 0.2981 0.0
O16 O 0.14835 0.33082 0.32073 0.0
N17 N 0.3191 0.29887 0.22066 0.0
C18 C 0.34803 0.31974 0.20405 0.0
C19 C 0.4105 0.31608 0.19401 0.0
C20 C 0.44213 0.29086 0.20063 0.0
C21 C 0.41162 0.2698 0.21805 0.0
C22 C 0.35001 0.27489 0.22806 0.0
H23 H 0.32395 0.33919 0.19936 0.0
O24 O 0.22294 0.36417 0.28171 0.0
O25 O 0.23047 0.31969 0.26587 0.0
O26 O 0.14405 0.35362 0.2279 0.0
O27 O 0.20689 0.32377 0.20102 0.0
C28 C 0.43988 0.24396 0.22594 0.0
C29 C 0.40794 0.22454 0.24552 0.0
H30 H 0.33308 0.19327 0.28509 0.0
H31 H 0.22507 0.20671 0.30154 0.0
H32 H 0.43422 0.33239 0.18083 0.0
H33 H 0.49005 0.28804 0.19255 0.0
H34 H 0.48666 0.23906 0.21753 0.0
H35 H 0.43078 0.20508 0.25217 0.0
Mn36 Mn 0.10214 0.89399 0.2783 0.0
Mn37 Mn 0.01053 0.94112 0.23956 0.0
C38 C -0.00525 0.88759 0.28164 0.0
C39 C 0.15827 0.88475 0.32521 0.0
C40 C 0.06945 0.89055 0.20703 0.0
O41 O 0.1635 0.92443 0.26726 0.0
O42 O 0.09782 0.95498 0.24493 0.0
C43 C 0.01367 0.98524 0.28914 0.0
N44 N 0.9807 0.96914 0.26823 0.0
C45 C 0.88759 -0.00312 0.27582 0.0
C46 C 0.92048 0.0139 0.29735 0.0
C47 C 0.98365 0.00785 0.3043 0.0
C48 C 0.91962 0.97432 0.26201 0.0
H49 H 0.06268 0.98104 0.29385 0.0
C50 C 0.15214 0.94806 0.25489 0.0
O51 O 0.17207 0.87177 0.29888 0.0
O52 O 0.11336 0.90292 0.32387 0.0
N53 N 0.92399 0.93396 0.23085 0.0
C54 C 0.89792 0.91428 0.21148 0.0
C55 C 0.8345 0.91681 0.20262 0.0
C56 C 0.79862 0.93955 0.21375 0.0
C57 C 0.82639 0.95951 0.23383 0.0
C58 C 0.88982 0.95602 0.24158 0.0
H59 H 0.92539 0.89679 0.20327 0.0
O60 O 0.03468 0.86822 0.28887 0.0
O61 O 0.01893 0.91221 0.27379 0.0
O62 O 0.09956 0.88033 0.23097 0.0
O63 O 0.03758 0.91325 0.20833 0.0
C64 C 0.7938 0.98277 0.24641 0.0
C65 C 0.82443 0.00146 0.26738 0.0
H66 H 0.89768 0.03158 0.30877 0.0
H67 H 0.00936 0.02086 0.32091 0.0
H68 H 0.8134 0.90148 0.18696 0.0
H69 H 0.74975 0.94138 0.2069 0.0
H70 H 0.74512 0.98641 0.24026 0.0
H71 H 0.79901 0.01926 0.27695 0.0
Mn72 Mn 0.10413 0.88146 1.00482 0.0
Mn73 Mn 0.18732 0.92566 0.05192 0.0
C74 C 0.20957 0.87214 1.0116 0.0
C75 C 0.06634 0.87211 0.95367 0.0
C76 C 0.10907 0.87751 0.07773 0.0
O77 O 0.04544 0.91434 1.0092 0.0
O78 O 0.10413 0.94191 0.04008 0.0
C79 C 0.20671 0.96983 1.0032 0.0
N80 N 0.23018 0.95278 0.02633 0.0
C81 C 0.33222 0.97428 0.02235 0.0
C82 C 0.30905 0.99226 0.99867 0.0
C83 C 0.2461 0.98992 0.98895 0.0
C84 C 0.29071 0.95475 0.03572 0.0
H85 H 0.15829 0.96814 0.99578 0.0
C86 C 0.05394 0.93698 0.02439 0.0
O87 O 0.04041 0.86051 0.97843 0.0
O88 O 0.11228 0.88921 0.95879 0.0
N89 N 0.26892 0.91554 0.067 0.0
C90 C 0.28437 0.896 0.08924 0.0
C91 C 0.34578 0.89521 0.10135 0.0
C92 C 0.39074 0.91462 0.09062 0.0
C93 C 0.37334 0.93516 0.06839 0.0
C94 C 0.31094 0.93536 0.05784 0.0
H95 H 0.24968 0.88157 0.09813 0.0
O96 O 0.17021 0.85333 1.00198 0.0
O97 O 0.18626 0.89744 1.01676 0.0
O98 O 0.08512 0.86906 0.05138 0.0
O99 O 0.14643 0.89839 0.08008 0.0
C100 C 0.41558 0.95516 0.05594 0.0
C101 C 0.39513 0.97458 0.03278 0.0
H102 H 0.33932 0.00773 0.98757 0.0
H103 H 0.22796 0.00362 0.97057 0.0
H104 H 0.3581 0.87986 0.1192 0.0
H105 H 0.43828 0.91366 0.09972 0.0
H106 H 0.46416 0.9555 0.06361 0.0
H107 H 0.42834 0.98942 0.02282 0.0
Mn108 Mn 0.10754 0.3527 1.00364 0.0
Mn109 Mn 0.00938 0.3138 0.04947 0.0
C110 C 0.00499 0.36722 1.00697 0.0
C111 C 0.15498 0.35761 0.95401 0.0
C112 C 0.09742 0.35796 0.0761 0.0
O113 O 0.15665 0.31762 1.01107 0.0
O114 O 0.0884 0.29262 0.03974 0.0
C115 C 0.98136 0.26966 1.0019 0.0
N116 N 0.96117 0.28865 0.02384 0.0
C117 C 0.85464 0.27217 0.01948 0.0
C118 C 0.8743 0.25227 0.99698 0.0
C119 C 0.93789 0.25112 0.98804 0.0
C120 C 0.90011 0.29002 0.03249 0.0
H121 H 0.03031 0.26858 0.99522 0.0
C122 C 0.14121 0.29542 0.02559 0.0
O123 O 0.18002 0.36905 0.97908 0.0
O124 O 0.10342 0.34373 0.95793 0.0
N125 N 0.93016 0.32891 0.06246 0.0
C126 C 0.91837 0.35031 0.08305 0.0
C127 C 0.85688 0.35462 0.09417 0.0
C128 C 0.80803 0.33701 0.08388 0.0
C129 C 0.82133 0.31485 0.06299 0.0
C130 C 0.8838 0.31108 0.05346 0.0
H131 H 0.95584 0.36366 0.09122 0.0
O132 O 0.04952 0.38377 0.99769 0.0
O133 O 0.02131 0.34109 1.0137 0.0
O134 O 0.12413 0.36528 0.05002 0.0
O135 O 0.05531 0.33895 0.07806 0.0
C136 C 0.77499 0.29657 0.05094 0.0
C137 C 0.79159 0.27532 0.02908 0.0
H138 H 0.84091 0.23796 0.98623 0.0
H139 H 0.95338 0.2359 0.97061 0.0
H140 H 0.8472 0.37134 0.11089 0.0
H141 H 0.76057 0.34064 0.0922 0.0
H142 H 0.72629 0.29894 0.05792 0.0
H143 H 0.75538 0.26177 0.0195 0.0
Mn144 Mn 0.85707 0.62931 0.75749 0.0
Mn145 Mn 0.77405 0.674 0.80373 0.0
C146 C 0.75066 0.62259 0.76206 0.0
C147 C 0.90017 0.61977 0.70769 0.0
C148 C 0.84584 0.62458 0.83018 0.0
O149 O 0.91729 0.66108 0.76299 0.0
O150 O 0.86031 0.68857 0.79498 0.0
C151 C 0.76689 0.7219 0.75885 0.0
N152 N 0.73806 0.70346 0.77888 0.0
C153 C 0.64237 0.73032 0.77786 0.0
C154 C 0.67095 0.74963 0.75723 0.0
C155 C 0.7333 0.74523 0.74741 0.0
C156 C 0.67771 0.70714 0.78785 0.0
H157 H 0.81536 0.71904 0.752 0.0
C158 C 0.91025 0.68321 0.7792 0.0
O159 O 0.92212 0.60757 0.73306 0.0
O160 O 0.85411 0.63713 0.71144 0.0
N161 N 0.68952 0.6648 0.81497 0.0
C162 C 0.66859 0.64402 0.83452 0.0
C163 C 0.6063 0.64467 0.84557 0.0
C164 C 0.56643 0.66684 0.83674 0.0
C165 C 0.5895 0.68842 0.81728 0.0
C166 C 0.65185 0.68656 0.8069 0.0
H167 H 0.69984 0.62757 0.84216 0.0
O168 O 0.78813 0.60259 0.75331 0.0
O169 O 0.77632 0.64726 0.76754 0.0
O170 O 0.87232 0.61672 0.80427 0.0
O171 O 0.80778 0.64514 0.83197 0.0
C172 C 0.5536 0.71204 0.80839 0.0
C173 C 0.58011 0.73302 0.78877 0.0
H174 H 0.6454 0.76782 0.74867 0.0
H175 H 0.75572 0.76004 0.73151 0.0
H176 H 0.58949 0.62862 0.86167 0.0
H177 H 0.51862 0.66736 0.84556 0.0
H178 H 0.50551 0.71426 0.81644 0.0
H179 H 0.55208 0.75106 0.78204 0.0
Mn180 Mn 0.85264 0.10221 0.76253 0.0
Mn181 Mn 0.9475 0.06057 0.80711 0.0
C182 C 0.95464 0.11717 0.7703 0.0
C183 C 0.81064 0.11017 0.71184 0.0
C184 C 0.85116 0.10029 0.83534 0.0
O185 O 0.80533 0.06609 0.76465 0.0
O186 O 0.87248 0.03906 0.79181 0.0
C187 C -0.01175 0.02119 0.7567 0.0
N188 N 0.00251 0.03863 0.7813 0.0
C189 C 0.11106 0.02459 0.78019 0.0
C190 C 0.09754 0.00629 0.75496 0.0
C191 C 0.03592 0.0047 0.74307 0.0
C192 C 0.06157 0.04031 0.79294 0.0
H193 H 0.9408 0.0198 0.74773 0.0
C194 C 0.82121 0.04274 0.77648 0.0
O195 O 0.78205 0.11945 0.73708 0.0
O196 O 0.86305 0.09706 0.71614 0.0
N197 N 0.02246 0.07627 0.82485 0.0
C198 C 0.02868 0.09672 0.84725 0.0
C199 C 0.08782 0.10168 0.86099 0.0
C200 C 0.14 0.08579 0.85137 0.0
C201 C 0.1324 0.06468 0.8285 0.0
C202 C 0.07204 0.06009 0.81635 0.0
H203 H -0.01134 0.1088 0.85485 0.0
O204 O 0.91017 0.13413 0.76187 0.0
O205 O 0.93832 0.09059 0.77403 0.0
O206 O 0.82841 0.11048 0.80954 0.0
O207 O 0.89437 0.08182 0.83631 0.0
C208 C 0.18255 0.04835 0.81684 0.0
C209 C 0.1719 0.02839 0.79267 0.0
H210 H 0.13421 0.99366 0.74427 0.0
H211 H 0.02519 0.99074 0.72352 0.0
H212 H 0.09324 0.11749 0.87924 0.0
H213 H 0.18566 0.09001 0.86169 0.0
H214 H 0.22973 0.05137 0.82586 0.0
H215 H 0.21111 0.01645 0.78352 0.0
Mn216 Mn 0.83052 0.08516 0.03687 0.0
Mn217 Mn 0.72546 0.03927 1.00632 0.0
C218 C 0.72666 0.09717 0.03692 0.0
C219 C 0.88797 0.09629 0.08262 0.0
C220 C 0.7979 0.08109 0.9654 0.0
O221 O 0.88238 0.05016 0.03046 0.0
O222 O 0.80855 0.02082 1.01258 0.0
C223 C 0.72069 0.00478 0.06493 0.0
N224 N 0.69074 0.02073 0.04271 0.0
C225 C 0.59249 0.01657 0.07068 0.0
C226 C 0.62225 -2e-05 0.09374 0.0
C227 C 0.68667 0.99411 0.09087 0.0
C228 C 0.62905 0.027 0.04563 0.0
H229 H 0.77029 0.00032 0.06299 0.0
C230 C 0.86491 0.02606 0.02113 0.0
O231 O 0.90592 0.10551 0.0549 0.0
O232 O 0.8384 0.08074 0.0833 0.0
N233 N 0.64158 0.05198 0.99852 0.0
C234 C 0.61753 0.06149 0.97047 0.0
C235 C 0.55262 0.06622 0.96768 0.0
C236 C 0.51275 0.06006 0.99334 0.0
C237 C 0.53776 0.04769 0.0208 0.0
C238 C 0.60278 0.04314 0.02193 0.0
H239 H 0.64788 0.06585 0.95057 0.0
O240 O 0.76902 0.11586 0.04303 0.0
O241 O 0.74598 0.07132 0.03344 0.0
O242 O 0.83017 0.09245 0.98802 0.0
O243 O 0.75951 0.06045 0.96958 0.0
C244 C 0.50031 0.03814 0.0462 0.0
C245 C 0.52774 0.02273 0.07126 0.0
H246 H 0.59604 0.99149 0.11363 0.0
H247 H 0.71001 0.98137 0.1086 0.0
H248 H 0.53345 0.07469 0.94586 0.0
H249 H 0.46273 0.06378 0.99117 0.0
H250 H 0.45005 0.04174 0.04621 0.0
H251 H 0.49828 0.01499 0.09035 0.0
Mn252 Mn 0.87483 0.64429 0.03044 0.0
Mn253 Mn 0.95958 0.6925 0.98935 0.0
C254 C 0.98237 0.63878 0.03003 0.0
C255 C 0.82409 0.63421 0.07829 0.0
C256 C 0.89592 0.64193 0.95838 0.0
O257 O 0.81186 0.67456 0.02191 0.0
O258 O 0.87415 0.70658 0.99966 0.0
C259 C 0.96682 0.7361 0.03955 0.0
N260 N -0.00471 0.72012 1.01689 0.0
C261 C 0.09015 0.74741 0.02037 0.0
C262 C 0.06182 0.76433 0.0436 0.0
C263 C 8e-05 0.75845 0.05347 0.0
C264 C 0.05502 0.72521 1.00776 0.0
H265 H 0.91887 0.73203 0.04662 0.0
C266 C 0.82177 0.6991 1.01167 0.0
O267 O 0.80804 0.62136 0.05224 0.0
O268 O 0.86866 0.65256 0.07633 0.0
N269 N 0.04412 0.68504 0.97673 0.0
C270 C 0.06653 0.66507 0.95665 0.0
C271 C 0.12796 0.66749 0.94476 0.0
C272 C 0.16624 0.69003 0.95421 0.0
C273 C 0.14266 0.71004 0.97552 0.0
C274 C 0.08059 0.70693 0.98591 0.0
H275 H 0.03781 0.6474 0.95023 0.0
O276 O 0.94437 0.61893 0.03837 0.0
O277 O 0.95631 0.66324 0.02337 0.0
O278 O 0.87126 0.63101 0.98339 0.0
O279 O 0.92651 0.66507 0.95859 0.0
C280 C 0.1782 0.7329 0.98692 0.0
C281 C 0.15185 0.75164 1.00925 0.0
H282 H 0.08714 0.78174 0.05416 0.0
H283 H 0.97792 0.77136 0.07143 0.0
H284 H 0.14555 0.65223 0.92804 0.0
H285 H 0.21376 0.69163 0.94515 0.0
H286 H 0.22606 0.73607 0.97893 0.0
H287 H 0.17956 0.7691 1.01794 0.0
Mn288 Mn 0.1398 0.82883 0.77506 0.0
Mn289 Mn 0.22788 0.78294 0.73263 0.0
C290 C 0.24477 0.83858 0.76798 0.0
C291 C 0.0955 0.84097 0.8241 0.0
C292 C 0.14458 0.8266 0.70179 0.0
O293 O 0.08561 0.79474 0.77402 0.0
O294 O 0.1457 0.76578 0.74521 0.0
C295 C 0.24847 0.73977 0.78235 0.0
N296 N 0.27177 0.75749 0.75979 0.0
C297 C 0.37263 0.73476 0.76134 0.0
C298 C 0.34973 0.71617 0.78449 0.0
C299 C 0.28756 0.71891 0.79531 0.0
C300 C 0.33183 0.75541 0.74973 0.0
H301 H 0.20018 0.74128 0.79005 0.0
C302 C 0.09622 0.77112 0.76143 0.0
O303 O 0.07138 0.85011 0.79765 0.0
O304 O 0.14513 0.8254 0.82195 0.0
N305 N 0.30932 0.79467 0.71871 0.0
C306 C 0.32553 0.8157 0.69834 0.0
C307 C 0.38773 0.81748 0.6873 0.0
C308 C 0.43219 0.79735 0.69679 0.0
C309 C 0.41424 0.77572 0.7175 0.0
C310 C 0.35194 0.77529 0.72813 0.0
H311 H 0.29119 0.83085 0.69063 0.0
O312 O 0.2044 0.85794 0.77529 0.0
O313 O 0.22295 0.8128 0.76562 0.0
O314 O 0.12015 0.83663 0.72726 0.0
O315 O 0.18596 0.80729 0.7016 0.0
C316 C 0.4556 0.7545 0.72795 0.0
C317 C 0.43449 0.73383 0.74953 0.0
H318 H 0.3796 0.6999 0.79432 0.0
H319 H 0.26955 0.70468 0.81322 0.0
H320 H 0.40133 0.83393 0.671 0.0
H321 H 0.47991 0.79869 0.68796 0.0
H322 H 0.50378 0.75395 0.71967 0.0
H323 H 0.46634 0.71745 0.75715 0.0
Mn324 Mn 0.09917 0.38887 0.77488 0.0
Mn325 Mn 0.01202 0.43397 0.73047 0.0
C326 C -0.00751 0.38122 0.77344 0.0
C327 C 0.14824 0.38053 0.82341 0.0
C328 C 0.08702 0.38524 0.70285 0.0
O329 O 0.1581 0.42086 0.76695 0.0
O330 O 0.09374 0.45121 0.74289 0.0
C331 C -0.00958 0.47918 0.77769 0.0
N332 N 0.96788 0.46114 0.75531 0.0
C333 C 0.86778 0.48462 0.7545 0.0
C334 C 0.88993 0.50356 0.77744 0.0
C335 C 0.95135 0.50066 0.78929 0.0
C336 C 0.90868 0.46356 0.74404 0.0
H337 H 0.03806 0.47736 0.7863 0.0
C338 C 0.14587 0.44507 0.75621 0.0
O339 O 0.16752 0.368 0.79773 0.0
O340 O 0.1012 0.39756 0.82075 0.0
N341 N 0.9309 0.4227 0.71579 0.0
C342 C 0.91529 0.40137 0.69584 0.0
C343 C 0.85444 0.40018 0.68299 0.0
C344 C 0.81033 0.42107 0.69068 0.0
C345 C 0.82767 0.44307 0.71103 0.0
C346 C 0.88914 0.44326 0.72281 0.0
H347 H 0.94939 0.38566 0.68964 0.0
O348 O 0.03189 0.36187 0.78175 0.0
O349 O 0.01663 0.40594 0.76608 0.0
O350 O 0.10946 0.37522 0.72867 0.0
O351 O 0.05354 0.40742 0.7015 0.0
C352 C 0.78638 0.46475 0.72024 0.0
C353 C 0.8066 0.4856 0.7418 0.0
H354 H 0.86003 0.52023 0.78633 0.0
H355 H 0.96874 0.51516 0.80704 0.0
H356 H 0.84177 0.38338 0.6669 0.0
H357 H 0.76338 0.42 0.68083 0.0
H358 H 0.73878 0.46541 0.71117 0.0
H359 H 0.77455 0.50217 0.74869 0.0
Mn360 Mn 0.14262 0.39283 0.50237 0.0
Mn361 Mn 0.21856 0.44125 0.54661 0.0
C362 C 0.24952 0.38951 0.50678 0.0
C363 C 0.09935 0.38103 0.45327 0.0
C364 C 0.15954 0.38949 0.57528 0.0
O365 O 0.0771 0.4224 0.50758 0.0
O366 O 0.12894 0.4515 0.5397 0.0
C367 C 0.21013 0.48782 0.49987 0.0
N368 N 0.24459 0.47188 0.52034 0.0
C369 C 0.32986 0.50503 0.51914 0.0
C370 C 0.29531 0.52191 0.49814 0.0
C371 C 0.2355 0.51305 0.48811 0.0
C372 C 0.30291 0.47972 0.5292 0.0
H373 H 0.16332 0.48156 0.49299 0.0
C374 C 0.08001 0.44451 0.52405 0.0
O375 O 0.08064 0.36846 0.47908 0.0
O376 O 0.14259 0.3999 0.45616 0.0
N377 N 0.30565 0.4371 0.55625 0.0
C378 C 0.33513 0.417 0.57364 0.0
C379 C 0.39682 0.4217 0.58412 0.0
C380 C 0.42709 0.44723 0.57724 0.0
C381 C 0.39587 0.46757 0.55907 0.0
C382 C 0.33513 0.46137 0.54856 0.0
H383 H 0.31192 0.39744 0.57876 0.0
O384 O 0.21529 0.36839 0.49805 0.0
O385 O 0.22048 0.4136 0.51136 0.0
O386 O 0.13224 0.38066 0.5499 0.0
O387 O 0.1946 0.41123 0.57606 0.0
C388 C 0.42241 0.49377 0.55099 0.0
C389 C 0.38966 0.51241 0.5308 0.0
H390 H 0.31424 0.54165 0.48953 0.0
H391 H 0.20849 0.52594 0.47191 0.0
H392 H 0.42059 0.4059 0.59791 0.0
H393 H 0.47441 0.45088 0.58574 0.0
H394 H 0.46843 0.49961 0.55974 0.0
H395 H 0.41121 0.53219 0.52412 0.0
Mn396 Mn 0.10655 0.83865 0.49796 0.0
Mn397 Mn -0.00162 0.7918 0.52275 0.0
C398 C 0.0059 0.85351 0.50452 0.0
C399 C 0.16075 0.85323 0.45241 0.0
C400 C 0.08001 0.82488 0.56888 0.0
O401 O 0.1528 0.80215 0.49553 0.0
O402 O 0.07932 0.7726 0.51306 0.0
C403 C -0.00987 0.76621 0.45868 0.0
N404 N 0.96172 0.7793 0.48365 0.0
C405 C 0.86332 0.78121 0.45554 0.0
C406 C 0.89151 0.76765 0.42963 0.0
C407 C 0.95525 0.76018 0.4312 0.0
C408 C 0.90084 0.78725 0.48202 0.0
H409 H 0.03918 0.76052 0.45959 0.0
C410 C 0.13443 0.77771 0.5026 0.0
O411 O 0.18387 0.85835 0.4805 0.0
O412 O 0.10714 0.84081 0.45127 0.0
N413 N 0.91576 0.80478 0.53303 0.0
C414 C 0.89234 0.80942 0.56269 0.0
C415 C 0.82775 0.81443 0.5667 0.0
C416 C 0.78745 0.81345 0.54036 0.0
C417 C 0.81145 0.80541 0.51074 0.0
C418 C 0.87617 0.80029 0.50841 0.0
H419 H 0.92298 0.80936 0.58308 0.0
O420 O 0.05045 0.87164 0.50044 0.0
O421 O 0.02088 0.82701 0.50165 0.0
O422 O 0.11304 0.83774 0.54746 0.0
O423 O 0.03586 0.80713 0.56243 0.0
C424 C 0.77303 0.80023 0.48413 0.0
C425 C 0.79912 0.78841 0.45639 0.0
H426 H 0.86458 0.76267 0.40854 0.0
H427 H 0.97742 0.74976 0.41128 0.0
H428 H 0.80907 0.81894 0.59008 0.0
H429 H 0.73769 0.81732 0.54353 0.0
H430 H 0.72301 0.80437 0.48512 0.0
H431 H 0.76896 0.78403 0.43627 0.0
Mn432 Mn 0.84682 0.14668 0.25682 0.0
Mn433 Mn 0.76169 0.19658 0.29441 0.0
C434 C 0.73993 0.14043 0.26084 0.0
C435 C 0.89376 0.13313 0.20889 0.0
C436 C 0.83256 0.15077 0.32954 0.0
O437 O 0.90727 0.17871 0.25967 0.0
O438 O 0.84672 0.21108 0.28287 0.0
C439 C 0.75129 0.238 0.24215 0.0
N440 N 0.72377 0.22194 0.26507 0.0
C441 C 0.62681 0.24741 0.26046 0.0
C442 C 0.65397 0.26434 0.23687 0.0
C443 C 0.71631 0.25938 0.2274 0.0
C444 C 0.6635 0.22609 0.2738 0.0
H445 H 0.7998 0.2348 0.23554 0.0
C446 C 0.89796 0.20344 0.26957 0.0
O447 O 0.91339 0.12287 0.23579 0.0
O448 O 0.84734 0.15056 0.21004 0.0
N449 N 0.67783 0.18751 0.30705 0.0
C450 C 0.65681 0.16746 0.32759 0.0
C451 C 0.59371 0.16789 0.33743 0.0
C452 C 0.55336 0.18919 0.32658 0.0
C453 C 0.57616 0.20958 0.30548 0.0
C454 C 0.63899 0.20775 0.29598 0.0
H455 H 0.68778 0.15113 0.33598 0.0
O456 O 0.77744 0.11979 0.25432 0.0
O457 O 0.76571 0.16542 0.26332 0.0
O458 O 0.8575 0.1384 0.30544 0.0
O459 O 0.79724 0.17228 0.32715 0.0
C460 C 0.53906 0.23164 0.2934 0.0
C461 C 0.56466 0.2507 0.27113 0.0
H462 H 0.62728 0.28104 0.22571 0.0
H463 H 0.73765 0.27232 0.2092 0.0
H464 H 0.57621 0.15216 0.35368 0.0
H465 H 0.50491 0.18957 0.33446 0.0
H466 H 0.49066 0.23392 0.30085 0.0
H467 H 0.536 0.26754 0.26182 0.0
Mn468 Mn 0.86814 0.59683 0.25719 0.0
Mn469 Mn 0.96385 0.5558 0.30162 0.0
C470 C 0.97207 0.60891 0.2616 0.0
C471 C 0.82177 0.60493 0.20777 0.0
C472 C 0.87939 0.60033 0.32984 0.0
O473 O 0.81676 0.56179 0.26271 0.0
O474 O 0.88313 0.53617 0.29205 0.0
C475 C 0.98635 0.51016 0.25517 0.0
N476 N 0.00904 0.52999 0.2755 0.0
C477 C 0.11336 0.51084 0.27212 0.0
C478 C 0.09117 0.49016 0.2512 0.0
C479 C 0.02749 0.49002 0.24242 0.0
C480 C 0.07046 0.53072 0.28348 0.0
H481 H 0.9371 0.50947 0.24908 0.0
C482 C 0.83117 0.53932 0.27719 0.0
O483 O 0.79741 0.61549 0.2335 0.0
O484 O 0.87183 0.58984 0.21097 0.0
N485 N 0.04445 0.57034 0.31316 0.0
C486 C 0.05823 0.59118 0.33419 0.0
C487 C 0.12011 0.59427 0.34519 0.0
C488 C 0.16743 0.5762 0.3342 0.0
C489 C 0.15201 0.55457 0.31305 0.0
C490 C 0.08933 0.55221 0.30327 0.0
H491 H 0.02192 0.60481 0.34315 0.0
O492 O 0.93014 0.62712 0.25303 0.0
O493 O 0.9526 0.58311 0.26657 0.0
O494 O 0.85177 0.608 0.30416 0.0
O495 O 0.92119 0.58123 0.331 0.0
C496 C 0.19586 0.53455 0.30229 0.0
C497 C 0.1764 0.51261 0.28203 0.0
H498 H 0.12265 0.47441 0.24161 0.0
H499 H 0.00997 0.47414 0.22629 0.0
H500 H 0.13105 0.60992 0.36293 0.0
H501 H 0.21503 0.57865 0.34288 0.0
H502 H 0.2445 0.53563 0.30975 0.0
H503 H 0.21017 0.49709 0.27444 0.0
Mn504 Mn 0.83743 0.5841 0.53041 0.0
Mn505 Mn 0.74639 0.53815 0.49011 0.0
C506 C 0.73048 0.59176 0.53202 0.0
C507 C 0.89081 0.59263 0.57789 0.0
C508 C 0.81279 0.58742 0.45834 0.0
O509 O 0.8969 0.55268 0.52134 0.0
O510 O 0.83189 0.5229 0.49743 0.0
C511 C 0.74191 0.49367 0.53949 0.0
N512 N 0.71219 0.51036 0.51791 0.0
C513 C 0.61689 0.48358 0.52249 0.0
C514 C 0.64634 0.46597 0.54471 0.0
C515 C 0.709 0.47121 0.55347 0.0
C516 C 0.65174 0.50581 0.50979 0.0
H517 H 0.79054 0.49725 0.54562 0.0
C518 C 0.88527 0.52904 0.50913 0.0
O519 O 0.90743 0.6054 0.55183 0.0
O520 O 0.84402 0.57546 0.57614 0.0
N521 N 0.66149 0.54668 0.48 0.0
C522 C 0.63778 0.56801 0.46233 0.0
C523 C 0.57534 0.56661 0.4518 0.0
C524 C 0.53744 0.54364 0.46038 0.0
C525 C 0.5623 0.5225 0.47991 0.0
C526 C 0.62518 0.52476 0.48901 0.0
H527 H 0.66609 0.58614 0.45756 0.0
O528 O 0.77107 0.61094 0.53904 0.0
O529 O 0.75373 0.56685 0.52463 0.0
O530 O 0.84106 0.59712 0.48304 0.0
O531 O 0.77804 0.56554 0.45894 0.0
C532 C 0.52709 0.49952 0.49112 0.0
C533 C 0.55431 0.48008 0.51248 0.0
H534 H 0.62124 0.44848 0.5553 0.0
H535 H 0.7321 0.45774 0.57059 0.0
H536 H 0.5566 0.58315 0.43715 0.0
H537 H 0.48902 0.54282 0.45252 0.0
H538 H 0.47868 0.49708 0.48394 0.0
H539 H 0.52649 0.46284 0.52161 0.0
Mn540 Mn 0.86673 0.14607 0.53445 0.0
Mn541 Mn 0.97647 0.18814 0.50088 0.0
C542 C 0.96752 0.13018 0.53048 0.0
C543 C 0.81338 0.1359 0.58172 0.0
C544 C 0.89113 0.1501 0.46209 0.0
O545 O 0.82209 0.18323 0.53167 0.0
O546 O 0.89727 0.20915 0.50896 0.0
C547 C -0.00876 0.22194 0.55955 0.0
N548 N 0.01696 0.20544 0.5365 0.0
C549 C 0.11835 0.2073 0.56174 0.0
C550 C 0.09295 0.22438 0.58564 0.0
C551 C 0.02906 0.23166 0.58458 0.0
C552 C 0.078 0.19767 0.53781 0.0
H553 H 0.94214 0.22757 0.55899 0.0
C554 C 0.84226 0.2063 0.5206 0.0
O555 O 0.78983 0.12836 0.55446 0.0
O556 O 0.86641 0.14894 0.58122 0.0
N557 N 0.05766 0.17321 0.49111 0.0
C558 C 0.07779 0.16418 0.46211 0.0
C559 C 0.14174 0.15828 0.45727 0.0
C560 C 0.18505 0.16329 0.48177 0.0
C561 C 0.16433 0.17561 0.51015 0.0
C562 C 0.09989 0.18106 0.51343 0.0
H563 H 0.04524 0.16195 0.44275 0.0
O564 O 0.92242 0.11287 0.53689 0.0
O565 O 0.95306 0.15676 0.52863 0.0
O566 O 0.85789 0.14081 0.48553 0.0
O567 O 0.93604 0.1681 0.46483 0.0
C568 C 0.2056 0.18449 0.53431 0.0
C569 C 0.18247 0.20005 0.5603 0.0
H570 H 0.12218 0.23225 0.60474 0.0
H571 H 0.00906 0.24481 0.60295 0.0
H572 H 0.15767 0.15021 0.43461 0.0
H573 H 0.2344 0.15887 0.47795 0.0
H574 H 0.2555 0.18026 0.53263 0.0
H575 H 0.21476 0.20723 0.57845 0.0
Mn576 Mn 0.61911 0.35753 0.77906 0.0
Mn577 Mn 0.70192 0.30687 0.74126 0.0
C578 C 0.7265 0.35923 0.78155 0.0
C579 C 0.56617 0.36968 0.8257 0.0
C580 C 0.6516 0.35887 0.70779 0.0
O581 O 0.55273 0.32911 0.76889 0.0
O582 O 0.61259 0.29603 0.74673 0.0
C583 C 0.69114 0.26244 0.79038 0.0
N584 N 0.72689 0.27795 0.77004 0.0
C585 C 0.81508 0.24697 0.77685 0.0
C586 C 0.77933 0.2306 0.79788 0.0
C587 C 0.71729 0.23858 0.80498 0.0
C588 C 0.78707 0.27096 0.76384 0.0
H589 H 0.6428 0.26802 0.79504 0.0
C590 C 0.55993 0.30485 0.75723 0.0
O591 O 0.5545 0.38288 0.79923 0.0
O592 O 0.60704 0.34969 0.82464 0.0
N593 N 0.78966 0.31199 0.73371 0.0
C594 C 0.81918 0.33118 0.71494 0.0
C595 C 0.88212 0.32675 0.7062 0.0
C596 C 0.91393 0.30264 0.71671 0.0
C597 C 0.88262 0.28324 0.73612 0.0
C598 C 0.82018 0.28886 0.74425 0.0
H599 H 0.79474 0.34966 0.70692 0.0
O600 O 0.69208 0.38067 0.78888 0.0
O601 O 0.697 0.33575 0.77488 0.0
O602 O 0.62326 0.3704 0.73149 0.0
O603 O 0.67992 0.33529 0.70963 0.0
C604 C 0.91064 0.25838 0.74743 0.0
C605 C 0.87719 0.24037 0.76805 0.0
H606 H 0.79901 0.21191 0.80873 0.0
H607 H 0.68934 0.22606 0.82115 0.0
H608 H 0.90578 0.34141 0.69073 0.0
H609 H 0.96231 0.29922 0.70971 0.0
H610 H 0.95815 0.25315 0.74058 0.0
H611 H 0.8997 0.22156 0.77706 0.0
Mn612 Mn 0.60491 0.89305 0.78038 0.0
Mn613 Mn 0.51634 0.93398 0.73201 0.0
C614 C 0.50406 0.87797 0.76878 0.0
C615 C 0.63953 0.88333 0.83202 0.0
C616 C 0.61483 0.8942 0.70742 0.0
O617 O 0.65249 0.92935 0.78088 0.0
O618 O 0.59216 0.95427 0.74782 0.0
C619 C 0.47599 0.97496 0.78084 0.0
N620 N 0.46178 0.95734 0.75641 0.0
C621 C 0.35486 0.97363 0.75499 0.0
C622 C 0.3683 0.99209 0.78007 0.0
C623 C 0.42906 0.99264 0.79316 0.0
C624 C 0.40353 0.95658 0.7437 0.0
H625 H 0.52286 0.97561 0.79065 0.0
C626 C 0.64062 0.95156 0.76549 0.0
O627 O 0.67173 0.87503 0.80749 0.0
O628 O 0.58811 0.89689 0.82652 0.0
N629 N 0.44146 0.91948 0.7131 0.0
C630 C 0.4351 0.89894 0.69078 0.0
C631 C 0.37673 0.89515 0.67578 0.0
C632 C 0.32568 0.9124 0.6839 0.0
C633 C 0.33348 0.93352 0.70673 0.0
C634 C 0.39303 0.93683 0.72026 0.0
H635 H 0.47448 0.88589 0.68417 0.0
O636 O 0.5478 0.86101 0.77809 0.0
O637 O 0.5204 0.90463 0.76605 0.0
O638 O 0.63633 0.88568 0.73423 0.0
O639 O 0.56932 0.9113 0.70444 0.0
C640 C 0.28424 0.9511 0.71695 0.0
C641 C 0.29489 0.97108 0.74111 0.0
H642 H 0.33224 0.00573 0.78967 0.0
H643 H 0.43975 0.00677 0.81257 0.0
H644 H 0.37119 0.87928 0.65763 0.0
H645 H 0.28066 0.90931 0.6725 0.0
H646 H 0.2377 0.9491 0.7068 0.0
H647 H 0.25637 0.98408 0.74906 0.0
Mn648 Mn 0.65149 0.90464 0.50824 0.0
Mn649 Mn 0.74644 0.95568 0.536 0.0
C650 C 0.75627 0.89647 0.50999 0.0
C651 C 0.5958 0.8892 0.46376 0.0
C652 C 0.68583 0.9125 0.57942 0.0
O653 O 0.59366 0.93761 0.51153 0.0
O654 O 0.65778 0.96913 0.53347 0.0
C655 C 0.73041 0.98969 0.47744 0.0
N656 N 0.7686 0.97541 0.49785 0.0
C657 C 0.85849 0.9839 0.46443 0.0
C658 C 0.82006 -0.00137 0.44312 0.0
C659 C 0.75571 0.00151 0.44966 0.0
C660 C 0.83038 0.97206 0.49142 0.0
H661 H 0.68087 0.99202 0.48218 0.0
C662 C 0.60389 0.96164 0.52322 0.0
O663 O 0.57955 0.88084 0.4921 0.0
O664 O 0.64349 0.90578 0.46167 0.0
N665 N 0.83465 0.9483 0.53966 0.0
C666 C 0.86712 0.94256 0.56676 0.0
C667 C 0.93303 0.94103 0.56592 0.0
C668 C 0.96514 0.94728 0.53769 0.0
C669 C 0.93125 0.95702 0.51138 0.0
C670 C 0.86555 0.95795 0.51375 0.0
H671 H 0.84265 0.93887 0.58872 0.0
O672 O 0.71757 0.87596 0.50517 0.0
O673 O 0.73279 0.92188 0.51043 0.0
O674 O 0.65245 0.90074 0.55745 0.0
O675 O 0.72407 0.93314 0.57433 0.0
C676 C 0.96036 0.96791 0.48395 0.0
C677 C 0.9239 0.98116 0.46034 0.0
H678 H 0.83955 0.00808 0.42186 0.0
H679 H 0.72572 0.0129 0.43337 0.0
H680 H 0.95898 0.93537 0.5871 0.0
H681 H 0.01598 0.94635 0.53718 0.0
H682 H 0.01098 0.96723 0.48138 0.0
H683 H 0.94694 0.9901 0.43972 0.0
Mn684 Mn 0.62307 0.35614 0.50612 0.0
Mn685 Mn 0.53819 0.31436 0.55538 0.0
C686 C 0.51663 0.36517 0.51043 0.0
C687 C 0.66693 0.36106 0.45553 0.0
C688 C 0.61485 0.36447 0.57825 0.0
O689 O 0.68221 0.32409 0.51469 0.0
O690 O 0.62053 0.29716 0.54475 0.0
C691 C 0.51876 0.26733 0.51021 0.0
N692 N 0.49528 0.28587 0.53181 0.0
C693 C 0.39405 0.26336 0.53085 0.0
C694 C 0.41723 0.24385 0.50878 0.0
C695 C 0.47975 0.24598 0.49825 0.0
C696 C 0.4351 0.2842 0.5418 0.0
H697 H 0.56698 0.26873 0.50236 0.0
C698 C 0.6717 0.3016 0.52981 0.0
O699 O 0.68947 0.37502 0.47954 0.0
O700 O 0.61951 0.3448 0.46096 0.0
N701 N 0.45672 0.32548 0.56938 0.0
C702 C 0.44142 0.34639 0.5899 0.0
C703 C 0.38061 0.34756 0.60255 0.0
C704 C 0.33585 0.3272 0.59405 0.0
C705 C 0.353 0.3054 0.57343 0.0
C706 C 0.41491 0.30495 0.56222 0.0
H707 H 0.47587 0.36159 0.59711 0.0
O708 O 0.55583 0.38342 0.49923 0.0
O709 O 0.54063 0.34056 0.51827 0.0
O710 O 0.63826 0.37207 0.55148 0.0
O711 O 0.57929 0.34306 0.58184 0.0
C712 C 0.31122 0.28415 0.56348 0.0
C713 C 0.33167 0.2632 0.54211 0.0
H714 H 0.38733 0.22733 0.49957 0.0
H715 H 0.49791 0.23108 0.48113 0.0
H716 H 0.36899 0.36394 0.61918 0.0
H717 H 0.28876 0.32835 0.60372 0.0
H718 H 0.26309 0.28391 0.57185 0.0
H719 H 0.29891 0.24719 0.5343 0.0
Mn720 Mn 0.33893 0.65257 0.25528 0.0
Mn721 Mn 0.25245 0.69571 0.3021 0.0
C722 C 0.23238 0.64426 0.25744 0.0
C723 C 0.38682 0.64558 0.20593 0.0
C724 C 0.32182 0.64476 0.32753 0.0
O725 O 0.39901 0.68374 0.26398 0.0
O726 O 0.33833 0.71076 0.29422 0.0
C727 C 0.24617 0.74313 0.25647 0.0
N728 N 0.21712 0.72532 0.27715 0.0
C729 C 0.1221 0.75261 0.27556 0.0
C730 C 0.151 0.77136 0.25437 0.0
C731 C 0.21312 0.76641 0.24451 0.0
C732 C 0.15695 0.72947 0.2861 0.0
H733 H 0.29442 0.73977 0.24948 0.0
C734 C 0.38986 0.70583 0.27982 0.0
O735 O 0.40647 0.63227 0.23106 0.0
O736 O 0.34017 0.66265 0.20963 0.0
N737 N 0.16773 0.68738 0.31381 0.0
C738 C 0.14566 0.66655 0.33291 0.0
C739 C 0.08356 0.66782 0.34423 0.0
C740 C 0.04504 0.69067 0.33607 0.0
C741 C 0.06888 0.71204 0.31656 0.0
C742 C 0.13108 0.70965 0.30609 0.0
H743 H 0.17541 0.6492 0.33915 0.0
O744 O 0.27257 0.62587 0.2477 0.0
O745 O 0.2555 0.66916 0.26512 0.0
O746 O 0.34879 0.63742 0.30149 0.0
O747 O 0.28561 0.66606 0.32989 0.0
C748 C 0.03356 0.7357 0.30723 0.0
C749 C 0.06024 0.75601 0.28679 0.0
H750 H 0.1259 0.78954 0.24544 0.0
H751 H 0.23575 0.78076 0.22813 0.0
H752 H 0.06548 0.6515 0.3596 0.0
H753 H -0.00272 0.69158 0.3449 0.0
H754 H 0.98566 0.73838 0.31541 0.0
H755 H 0.03272 0.77412 0.27977 0.0
Mn756 Mn 0.37188 0.09676 0.25859 0.0
Mn757 Mn 0.4576 0.05339 0.30558 0.0
C758 C 0.476 0.10882 0.26698 0.0
C759 C 0.33233 0.10517 0.20758 0.0
C760 C 0.36432 0.0962 0.33097 0.0
O761 O 0.3194 0.06193 0.26078 0.0
O762 O 0.38315 0.03332 0.2878 0.0
C763 C 0.49971 0.01124 0.25849 0.0
N764 N 0.51301 0.02941 0.28254 0.0
C765 C 0.61599 0.00959 0.28947 0.0
C766 C 0.60333 0.99046 0.26493 0.0
C767 C 0.5452 0.99151 0.24913 0.0
C768 C 0.56903 0.02882 0.29762 0.0
H769 H 0.45435 0.01151 0.24698 0.0
C770 C 0.33328 0.03798 0.27174 0.0
O771 O 0.30459 0.11548 0.23253 0.0
O772 O 0.38284 0.09066 0.21235 0.0
N773 N 0.53167 0.06757 0.32562 0.0
C774 C 0.53812 0.08906 0.34668 0.0
C775 C 0.59519 0.09235 0.36306 0.0
C776 C 0.64473 0.0734 0.35778 0.0
C777 C 0.63682 0.05129 0.33613 0.0
C778 C 0.5789 0.04901 0.32065 0.0
H779 H 0.49979 0.1033 0.35112 0.0
O780 O 0.43418 0.12687 0.2579 0.0
O781 O 0.45567 0.08287 0.2714 0.0
O782 O 0.34632 0.10708 0.30469 0.0
O783 O 0.40359 0.07614 0.33295 0.0
C784 C 0.6841 0.03149 0.32915 0.0
C785 C 0.67334 0.01045 0.30613 0.0
H786 H 0.63792 0.97497 0.2579 0.0
H787 H 0.53513 0.97686 0.23014 0.0
H788 H 0.60077 0.10918 0.38011 0.0
H789 H 0.68862 0.07605 0.37045 0.0
H790 H 0.72902 0.03234 0.3412 0.0
H791 H 0.70958 0.99512 0.30127 0.0
Mn792 Mn 0.3293 0.09338 0.53291 0.0
Mn793 Mn 0.24938 0.03797 0.50292 0.0
C794 C 0.22238 0.09527 0.5309 0.0
C795 C 0.37519 0.11218 0.57868 0.0
C796 C 0.30518 0.08411 0.46121 0.0
O797 O 0.39638 0.06371 0.52993 0.0
O798 O 0.33899 0.02828 0.51059 0.0
C799 C 0.25858 0.00471 0.56231 0.0
N800 N 0.22268 0.0172 0.53953 0.0
C801 C 0.12753 0.00428 0.56684 0.0
C802 C 0.16353 0.99119 0.59049 0.0
C803 C 0.22935 0.99145 0.58823 0.0
C804 C 0.15931 0.01753 0.54182 0.0
H805 H 0.30923 0.00494 0.56085 0.0
C806 C 0.39086 0.03852 0.5206 0.0
O807 O 0.39139 0.12138 0.55069 0.0
O808 O 0.33454 0.09212 0.57968 0.0
N809 N 0.16159 0.04225 0.49414 0.0
C810 C 0.13443 0.04892 0.46578 0.0
C811 C 0.06872 0.04806 0.46274 0.0
C812 C 0.0318 0.03873 0.4883 0.0
C813 C 0.06121 0.02899 0.51599 0.0
C814 C 0.12693 0.03046 0.51756 0.0
H815 H 0.16265 0.05557 0.44595 0.0
O816 O 0.25489 0.11778 0.53582 0.0
O817 O 0.2532 0.07165 0.52935 0.0
O818 O 0.33078 0.09844 0.4838 0.0
O819 O 0.27449 0.06107 0.4657 0.0
C820 C 0.02818 0.01646 0.54131 0.0
C821 C 0.06132 0.00427 0.56684 0.0
H822 H 0.14114 0.98073 0.61037 0.0
H823 H 0.25748 0.98142 0.6064 0.0
H824 H 0.04666 0.05446 0.44072 0.0
H825 H 0.98117 0.03795 0.48588 0.0
H826 H 0.97734 0.01534 0.54093 0.0
H827 H 0.03545 0.99422 0.58589 0.0
Mn828 Mn 0.36423 0.63424 0.52722 0.0
Mn829 Mn 0.46018 0.67624 0.48457 0.0
C830 C 0.46947 0.62434 0.52655 0.0
C831 C 0.31469 0.62518 0.57569 0.0
C832 C 0.3871 0.62902 0.45483 0.0
O833 O 0.30935 0.6677 0.51969 0.0
O834 O 0.37336 0.69186 0.4877 0.0
C835 C 0.45982 0.72384 0.53001 0.0
N836 N 0.49202 0.70515 0.5117 0.0
C837 C 0.58943 0.72948 0.52104 0.0
C838 C 0.55729 0.74903 0.53993 0.0
C839 C 0.49228 0.74605 0.54466 0.0
C840 C 0.55471 0.70751 0.50754 0.0
H841 H 0.40966 0.72201 0.53318 0.0
C842 C 0.32061 0.68844 0.50172 0.0
O843 O 0.29372 0.61394 0.54955 0.0
O844 O 0.36252 0.6417 0.57332 0.0
N845 N 0.54624 0.66606 0.47849 0.0
C846 C 0.57022 0.64551 0.45961 0.0
C847 C 0.63465 0.64541 0.45248 0.0
C848 C 0.67399 0.66634 0.46495 0.0
C849 C 0.64819 0.68764 0.48386 0.0
C850 C 0.58343 0.68686 0.48977 0.0
H851 H 0.53995 0.62983 0.44954 0.0
O852 O 0.42812 0.6054 0.53361 0.0
O853 O 0.44838 0.64974 0.52041 0.0
O854 O 0.35443 0.62271 0.47957 0.0
O855 O 0.43056 0.6475 0.45481 0.0
C856 C 0.68392 0.70992 0.49658 0.0
C857 C 0.6546 0.73079 0.51523 0.0
H858 H 0.58207 0.76634 0.55101 0.0
H859 H 0.46712 0.76104 0.55921 0.0
H860 H 0.65367 0.62979 0.4366 0.0
H861 H 0.72366 0.66616 0.45933 0.0
H862 H 0.73402 0.71114 0.49226 0.0
H863 H 0.68264 0.74766 0.52512 0.0
Mn864 Mn 0.62496 0.84998 0.28531 0.0
Mn865 Mn 0.70976 0.80594 0.23904 0.0
C866 C 0.73071 0.85817 0.28025 0.0
C867 C 0.58227 0.85773 0.33586 0.0
C868 C 0.63171 0.85384 0.21242 0.0
O869 O 0.56695 0.81753 0.27962 0.0
O870 O 0.62692 0.7888 0.25053 0.0
C871 C 0.72912 0.75892 0.28417 0.0
N872 N 0.75291 0.77814 0.2634 0.0
C873 C 0.85262 0.75439 0.26197 0.0
C874 C 0.82927 0.7343 0.28333 0.0
C875 C 0.76747 0.73677 0.29476 0.0
C876 C 0.81271 0.77633 0.25285 0.0
H877 H 0.68101 0.76024 0.2922 0.0
C878 C 0.57664 0.79425 0.26607 0.0
O879 O 0.55901 0.87026 0.31098 0.0
O880 O 0.62971 0.84136 0.3312 0.0
N881 N 0.79139 0.81792 0.22581 0.0
C882 C 0.8074 0.83965 0.2064 0.0
C883 C 0.86862 0.84111 0.19402 0.0
C884 C 0.91273 0.82026 0.20175 0.0
C885 C 0.89497 0.79791 0.22155 0.0
C886 C 0.83334 0.79759 0.23316 0.0
H887 H 0.77332 0.85539 0.20007 0.0
O888 O 0.69229 0.87758 0.28964 0.0
O889 O 0.70639 0.83326 0.27463 0.0
O890 O 0.60825 0.8629 0.23863 0.0
O891 O 0.66895 0.83297 0.21074 0.0
C892 C 0.93547 0.77559 0.22963 0.0
C893 C 0.91409 0.75372 0.24959 0.0
H894 H 0.85851 0.71703 0.29128 0.0
H895 H 0.74909 0.72135 0.31126 0.0
H896 H 0.88135 0.85782 0.17783 0.0
H897 H 0.95975 0.82139 0.19197 0.0
H898 H 0.98311 0.77501 0.22059 0.0
H899 H 0.94538 0.73656 0.25543 0.0
Mn900 Mn 0.62692 0.38501 0.2719 0.0
Mn901 Mn 0.5379 0.42781 0.22591 0.0
C902 C 0.52246 0.37302 0.26542 0.0
C903 C 0.66834 0.37791 0.32265 0.0
C904 C 0.62691 0.38347 0.19939 0.0
O905 O 0.68024 0.4196 0.26761 0.0
O906 O 0.61417 0.44781 0.24156 0.0
C907 C 0.50072 0.47029 0.27387 0.0
N908 N 0.48506 0.45215 0.25014 0.0
C909 C 0.3801 0.47073 0.24737 0.0
C910 C 0.39505 0.48974 0.27169 0.0
C911 C 0.45549 0.48935 0.28518 0.0
C912 C 0.42693 0.45218 0.23724 0.0
H913 H 0.54752 0.47039 0.28379 0.0
C914 C 0.66549 0.44341 0.25651 0.0
O915 O 0.69493 0.36659 0.29791 0.0
O916 O 0.61844 0.39272 0.31781 0.0
N917 N 0.46173 0.41365 0.20811 0.0
C918 C 0.45367 0.39264 0.18665 0.0
C919 C 0.39528 0.38936 0.17165 0.0
C920 C 0.34561 0.40768 0.17892 0.0
C921 C 0.35507 0.42931 0.20098 0.0
C922 C 0.41465 0.43185 0.21472 0.0
H923 H 0.49183 0.37884 0.18077 0.0
O924 O 0.56418 0.35509 0.27485 0.0
O925 O 0.54289 0.39878 0.26019 0.0
O926 O 0.64808 0.37337 0.22553 0.0
O927 O 0.58875 0.40407 0.19785 0.0
C928 C 0.30781 0.44845 0.20991 0.0
C929 C 0.32045 0.46922 0.23297 0.0
H930 H 0.36036 0.50452 0.2804 0.0
H931 H 0.46736 0.5039 0.304 0.0
H932 H 0.38898 0.37294 0.15423 0.0
H933 H 0.30056 0.40506 0.16736 0.0
H934 H 0.26145 0.44726 0.19939 0.0
H935 H 0.28392 0.48385 0.23945 0.0
Mn936 Mn 0.63983 0.40945 1.00019 0.0
Mn937 Mn 0.72887 0.45613 0.04086 0.0
C938 C 0.74687 0.40438 0.9976 0.0
C939 C 0.58302 0.40145 0.95346 0.0
C940 C 0.66915 0.40439 0.07135 0.0
O941 O 0.57796 0.43895 1.01297 0.0
O942 O 0.64274 0.47089 0.03354 0.0
C943 C 0.73215 0.50242 0.99372 0.0
N944 N 0.76256 0.48477 1.01404 0.0
C945 C 0.85675 0.5126 1.0115 0.0
C946 C 0.82655 0.53114 0.99054 0.0
C947 C 0.76421 0.52581 0.9813 0.0
C948 C 0.82299 0.48923 0.02231 0.0
H949 H 0.68352 0.49893 0.98751 0.0
C950 C 0.58887 0.46335 0.02339 0.0
O951 O 0.5704 0.38751 0.97932 0.0
O952 O 0.62743 0.41991 0.95514 0.0
N953 N 0.81434 0.44718 0.05027 0.0
C954 C 0.83804 0.42608 0.06851 0.0
C955 C 0.90085 0.42744 0.07869 0.0
C956 C 0.93828 0.45063 0.07041 0.0
C957 C 0.91283 0.47213 0.05163 0.0
C958 C 0.85034 0.46941 0.04179 0.0
H959 H 0.80904 0.40847 0.07512 0.0
O960 O 0.70883 0.38486 0.9882 0.0
O961 O 0.72127 0.42842 1.0059 0.0
O962 O 0.6427 0.39383 0.04661 0.0
O963 O 0.69824 0.42787 0.07102 0.0
C964 C 0.94678 0.49623 0.0424 0.0
C965 C 0.91877 0.51645 0.02233 0.0
H966 H 0.85077 0.54948 0.98137 0.0
H967 H 0.74051 0.54003 0.9652 0.0
H968 H 0.92015 0.41106 0.09352 0.0
H969 H 0.98646 0.45171 0.07859 0.0
H970 H -0.00535 0.4993 0.05041 0.0
H971 H 0.94532 0.53486 1.01532 0.0
Mn972 Mn 0.58251 0.84056 1.01134 0.0
Mn973 Mn 0.49889 0.79417 0.05524 0.0
C974 C 0.47535 0.84545 1.01335 0.0
C975 C 0.62888 0.85191 0.96245 0.0
C976 C 0.56206 0.84515 0.0841 0.0
O977 O 0.64482 0.80961 1.018 0.0
O978 O 0.58711 0.78158 0.04896 0.0
C979 C 0.50266 0.74642 1.00988 0.0
N980 N 0.46965 0.76379 0.02945 0.0
C981 C 0.37863 0.73386 0.02675 0.0
C982 C 0.41168 0.71557 1.00668 0.0
C983 C 0.47377 0.72205 0.99794 0.0
C984 C 0.40958 0.75804 0.03744 0.0
H985 H 0.55091 0.7509 1.00379 0.0
C986 C 0.63765 0.78727 0.03393 0.0
O987 O 0.64746 0.86394 0.98857 0.0
O988 O 0.58492 0.83332 0.96498 0.0
N989 N 0.41224 0.80099 0.06374 0.0
C990 C 0.3849 0.82252 0.07974 0.0
C991 C 0.32169 0.82029 0.08881 0.0
C992 C 0.28734 0.7959 0.08157 0.0
C993 C 0.3163 0.77415 0.06459 0.0
C994 C 0.3792 0.77772 0.05586 0.0
H995 H 0.411 0.84136 0.08477 0.0
O996 O 0.51198 0.86603 1.00544 0.0
O997 O 0.50226 0.82111 0.01921 0.0
O998 O 0.59101 0.85328 0.05886 0.0
O999 O 0.52552 0.8239 0.08468 0.0
C1000 C 0.28516 0.74924 0.05561 0.0
C1001 C 0.31616 0.72917 0.03651 0.0
H1002 H 0.38977 0.6966 0.99771 0.0
H1003 H 0.4996 0.70805 0.98244 0.0
H1004 H 0.29981 0.8372 0.10164 0.0
H1005 H 0.23861 0.79426 0.08874 0.0
H1006 H 0.23704 0.74553 0.06283 0.0
H1007 H 0.29127 0.7104 0.02914 0.0
Mn1008 Mn 0.31905 0.1638 0.75498 0.0
Mn1009 Mn 0.23514 0.20797 0.80165 0.0
C1010 C 0.21383 0.15508 0.76203 0.0
C1011 C 0.36138 0.15381 0.70475 0.0
C1012 C 0.3124 0.16034 0.82831 0.0
O1013 O 0.3764 0.1968 0.75878 0.0
O1014 O 0.31928 0.22375 0.79117 0.0
C1015 C 0.22186 0.25453 0.75537 0.0
N1016 N 0.19573 0.23636 0.77664 0.0
C1017 C 0.09984 0.26292 0.778 0.0
C1018 C 0.12564 0.28205 0.75623 0.0
C1019 C 0.1867 0.27763 0.74456 0.0
C1020 C 0.13654 0.23998 0.78731 0.0
H1021 H 0.26946 0.25167 0.74712 0.0
C1022 C 0.36825 0.21918 0.77443 0.0
O1023 O 0.38512 0.14284 0.73039 0.0
O1024 O 0.31357 0.17027 0.70841 0.0
N1025 N 0.15202 0.19796 0.81467 0.0
C1026 C 0.13242 0.17651 0.83372 0.0
C1027 C 0.07066 0.17673 0.84561 0.0
C1028 C 0.03048 0.19929 0.83861 0.0
C1029 C 0.05201 0.2213 0.81936 0.0
C1030 C 0.11333 0.21964 0.80753 0.0
H1031 H 0.16369 0.15946 0.83969 0.0
O1032 O 0.25241 0.13582 0.7524 0.0
O1033 O 0.23719 0.18041 0.7662 0.0
O1034 O 0.33761 0.15225 0.80209 0.0
O1035 O 0.27262 0.18025 0.83005 0.0
C1036 C 0.01515 0.2449 0.81148 0.0
C1037 C 0.03922 0.26572 0.7909 0.0
H1038 H 0.09894 0.30011 0.74823 0.0
H1039 H 0.20702 0.29228 0.72776 0.0
H1040 H 0.05412 0.15995 0.86071 0.0
H1041 H 0.98323 0.1995 0.84818 0.0
H1042 H 0.96805 0.24709 0.82088 0.0
H1043 H 0.01039 0.28358 0.78461 0.0
Mn1044 Mn 0.37788 0.58891 0.75384 0.0
Mn1045 Mn 0.46418 0.54342 0.79795 0.0
C1046 C 0.48532 0.59565 0.75493 0.0
C1047 C 0.32743 0.59672 0.70525 0.0
C1048 C 0.39867 0.59459 0.82601 0.0
O1049 O 0.31596 0.55825 0.7632 0.0
O1050 O 0.37837 0.52898 0.78968 0.0
C1051 C 0.46928 0.49778 0.75004 0.0
N1052 N 0.49872 0.51464 0.77153 0.0
C1053 C 0.59377 0.48753 0.76791 0.0
C1054 C 0.56448 0.46973 0.74585 0.0
C1055 C 0.50213 0.47506 0.73664 0.0
C1056 C 0.55901 0.51008 0.77998 0.0
H1057 H 0.42093 0.50147 0.74346 0.0
C1058 C 0.32593 0.53506 0.77689 0.0
O1059 O 0.31026 0.61024 0.73069 0.0
O1060 O 0.37333 0.57915 0.7082 0.0
N1061 N 0.54911 0.55125 0.80941 0.0
C1062 C 0.57183 0.5716 0.8289 0.0
C1063 C 0.6336 0.56956 0.84033 0.0
C1064 C 0.67181 0.5469 0.8312 0.0
C1065 C 0.64773 0.52635 0.81071 0.0
C1066 C 0.58536 0.52914 0.8007 0.0
H1067 H 0.54305 0.58924 0.83528 0.0
O1068 O 0.44663 0.61477 0.74535 0.0
O1069 O 0.46021 0.57114 0.76234 0.0
O1070 O 0.37222 0.60361 0.80048 0.0
O1071 O 0.43196 0.57224 0.82714 0.0
C1072 C 0.68301 0.5032 0.79984 0.0
C1073 C 0.65604 0.48381 0.77842 0.0
H1074 H 0.58947 0.45202 0.73573 0.0
H1075 H 0.47922 0.46147 0.7196 0.0
H1076 H 0.65139 0.58521 0.85649 0.0
H1077 H 0.71958 0.54555 0.83993 0.0
H1078 H 0.73115 0.50029 0.80751 0.0
H1079 H 0.68366 0.46618 0.77006 0.0
Mn1080 Mn 0.35382 0.60664 0.026 0.0
Mn1081 Mn 0.26893 0.56246 0.97998 0.0
C1082 C 0.24762 0.61372 0.02167 0.0
C1083 C 0.39646 0.61699 0.07566 0.0
C1084 C 0.34214 0.61145 0.95336 0.0
O1085 O 0.4127 0.57417 0.02101 0.0
O1086 O 0.35453 0.54747 0.98872 0.0
C1087 C 0.2607 0.51432 0.02458 0.0
N1088 N 0.23239 0.53295 1.00459 0.0
C1089 C 0.13704 0.50581 1.00428 0.0
C1090 C 0.16517 0.48625 0.02477 0.0
C1091 C 0.22703 0.49073 0.03528 0.0
C1092 C 0.17237 0.52926 0.99511 0.0
H1093 H 0.30885 0.51722 0.03192 0.0
C1094 C 0.40429 0.55201 1.00491 0.0
O1095 O 0.41909 0.62854 0.05006 0.0
O1096 O 0.35048 0.59953 0.07221 0.0
N1097 N 0.18452 0.57206 0.96897 0.0
C1098 C 0.16372 0.59326 0.95001 0.0
C1099 C 0.10178 0.59264 0.93848 0.0
C1100 C 0.06208 0.5701 0.94631 0.0
C1101 C 0.08489 0.54822 0.96538 0.0
C1102 C 0.14683 0.55009 0.97634 0.0
H1103 H 0.19481 0.61005 0.94328 0.0
O1104 O 0.28554 0.63377 0.02979 0.0
O1105 O 0.27265 0.58895 1.01631 0.0
O1106 O 0.36959 0.61883 0.97915 0.0
O1107 O 0.30299 0.5913 0.95168 0.0
C1108 C 0.04926 0.52422 0.97321 0.0
C1109 C 0.07535 0.50302 0.99262 0.0
H1110 H 0.13961 0.46784 0.03271 0.0
H1111 H 0.2491 0.47575 0.0511 0.0
H1112 H 0.08513 0.60898 0.92274 0.0
H1113 H 0.0146 0.56958 0.93707 0.0
H1114 H 0.00177 0.52184 0.96437 0.0
H1115 H 0.04758 0.48467 0.99851 0.0
Mn1116 Mn 0.36997 0.14701 0.03001 0.0
Mn1117 Mn 0.46413 0.19587 0.99665 0.0
C1118 C 0.4749 0.13747 0.02475 0.0
C1119 C 0.32305 0.13276 0.07753 0.0
C1120 C 0.38826 0.15415 0.95756 0.0
O1121 O 0.31413 0.18102 0.02921 0.0
O1122 O 0.3793 0.21156 1.00602 0.0
C1123 C 0.47091 0.23001 0.0555 0.0
N1124 N 0.50038 0.21505 0.03225 0.0
C1125 C 0.60102 0.22211 0.0571 0.0
C1126 C 0.57172 0.23766 0.0812 0.0
C1127 C 0.50635 0.24157 0.08042 0.0
C1128 C 0.5631 0.21064 0.03319 0.0
H1129 H 0.42067 0.23306 0.05516 0.0
C1130 C 0.32631 0.20525 1.01845 0.0
O1131 O 0.30031 0.12438 0.05041 0.0
O1132 O 0.37181 0.14876 0.07675 0.0
N1133 N 0.54868 0.18594 0.98609 0.0
C1134 C 0.57075 0.17802 0.95706 0.0
C1135 C 0.63568 0.17474 0.95237 0.0
C1136 C 0.67757 0.1816 0.97693 0.0
C1137 C 0.65415 0.19306 1.00524 0.0
C1138 C 0.58882 0.19555 1.0085 0.0
H1139 H 0.53888 0.1743 0.93775 0.0
O1140 O 0.43518 0.11752 0.03045 0.0
O1141 O 0.45235 0.16295 0.02391 0.0
O1142 O 0.35948 0.14251 0.98114 0.0
O1143 O 0.4285 0.17425 0.9604 0.0
C1144 C 0.69313 0.20372 0.02944 0.0
C1145 C 0.66653 0.21807 0.05549 0.0
H1146 H 0.59898 0.24689 0.10026 0.0
H1147 H 0.48337 0.25355 0.09893 0.0
H1148 H 0.65339 0.16737 0.92974 0.0
H1149 H 0.72767 0.17935 0.97318 0.0
H1150 H 0.74375 0.20183 0.02773 0.0
H1151 H 0.69704 0.2267 0.07363 0.0
C1152 C 0.09917 0.36913 0.16403 0.0
C1153 C 0.1599 0.35962 0.1714 0.0
C1154 C 0.08065 0.37276 0.13224 0.0
C1155 C 0.12252 0.36749 0.10692 0.0
H1156 H 0.06391 0.37082 0.1825 0.0
H1157 H 0.03172 0.37714 0.12743 0.0
S1158 S 0.29002 0.34831 0.11367 0.0
N1159 N 0.26443 0.34963 0.15064 0.0
N1160 N 0.22941 0.35712 0.09144 0.0
C1161 C 0.18528 0.36197 0.11416 0.0
C1162 C 0.20398 0.35776 0.14632 0.0
C1163 C 0.0313 0.87924 0.12015 0.0
C1164 C 0.08614 0.86683 0.10851 0.0
C1165 C 0.02407 0.88444 0.15264 0.0
C1166 C 0.07094 0.87704 0.17501 0.0
H1167 H -0.00232 0.88845 0.10383 0.0
H1168 H 0.98381 0.89679 0.15954 0.0
S1169 S 0.21378 0.83566 0.15709 0.0
N1170 N 0.181 0.84117 0.12201 0.0
N1171 N 0.1672 0.85072 0.18346 0.0
C1172 C 0.12132 0.8607 0.1641 0.0
C1173 C 0.12886 0.8556 0.13074 0.0
C1174 C 0.926 0.62682 0.87127 0.0
C1175 C 0.86917 0.61502 0.8613 0.0
C1176 C 0.93567 0.63368 0.90319 0.0
C1177 C 0.89004 0.62802 0.92677 0.0
H1178 H 0.9595 0.63446 0.85387 0.0
H1179 H 0.9772 0.6457 0.90862 0.0
S1180 S 0.74013 0.59031 0.91354 0.0
N1181 N 0.77132 0.59324 0.87772 0.0
N1182 N 0.7909 0.60483 0.93828 0.0
C1183 C 0.83695 0.61248 0.91766 0.0
C1184 C 0.82636 0.60617 0.88481 0.0
C1185 C 0.76557 0.08046 0.90797 0.0
C1186 C 0.8039 0.09197 0.93212 0.0
C1187 C 0.77433 0.0873 0.87589 0.0
C1188 C 0.82199 0.1058 0.86641 0.0
H1189 H 0.73073 0.06462 0.91341 0.0
H1190 H 0.74795 0.0757 0.85818 0.0
S1191 S 0.92777 0.14593 0.91959 0.0
N1192 N 0.88565 0.12628 0.94401 0.0
N1193 N 0.90222 0.13866 0.88346 0.0
C1194 C 0.85661 0.11958 0.89019 0.0
C1195 C 0.84768 0.11275 0.92306 0.0
C1196 C 0.06454 0.82211 0.65936 0.0
C1197 C 0.12045 0.83451 0.67005 0.0
C1198 C 0.05094 0.82012 0.62676 0.0
C1199 C 0.09277 0.83042 0.60336 0.0
H1200 H 0.03331 0.81194 0.67616 0.0
H1201 H 0.00839 0.80925 0.61998 0.0
S1202 S 0.24248 0.86783 0.61967 0.0
N1203 N 0.21526 0.85951 0.65521 0.0
N1204 N 0.19007 0.85604 0.59403 0.0
C1205 C 0.14686 0.84466 0.61403 0.0
C1206 C 0.16064 0.84656 0.64728 0.0
C1207 C 0.08258 0.37112 0.61513 0.0
C1208 C 0.14514 0.37697 0.60684 0.0
C1209 C 0.06424 0.37004 0.64722 0.0
C1210 C 0.10807 0.37416 0.67193 0.0
H1211 H 0.04654 0.37048 0.59698 0.0
H1212 H 0.01475 0.36828 0.65252 0.0
S1213 S 0.27875 0.38484 0.66309 0.0
N1214 N 0.25193 0.3829 0.62635 0.0
N1215 N 0.21716 0.38004 0.68617 0.0
C1216 C 0.17149 0.37623 0.664 0.0
C1217 C 0.1901 0.3779 0.63153 0.0
C1218 C 0.79861 0.14723 0.38612 0.0
C1219 C 0.84501 0.14174 0.36285 0.0
C1220 C 0.81257 0.14726 0.41863 0.0
C1221 C 0.87365 0.14194 0.42928 0.0
H1222 H 0.75187 0.15363 0.37922 0.0
H1223 H 0.77651 0.15376 0.43526 0.0
S1224 S 0.00855 0.11958 0.37943 0.0
N1225 N 0.95206 0.12613 0.35352 0.0
N1226 N 0.978 0.12556 0.4149 0.0
C1227 C 0.91882 0.13334 0.40678 0.0
C1228 C 0.90454 0.13326 0.37349 0.0
C1229 C 0.89879 0.61491 0.38583 0.0
C1230 C 0.85565 0.60927 0.36117 0.0
C1231 C 0.88268 0.61073 0.41793 0.0
C1232 C 0.82334 0.6001 0.42631 0.0
H1233 H 0.94695 0.6202 0.38019 0.0
H1234 H 0.91879 0.61321 0.43583 0.0
S1235 S 0.69056 0.58689 0.3705 0.0
N1236 N 0.7488 0.59716 0.34742 0.0
N1237 N 0.71884 0.58791 0.40693 0.0
C1238 C 0.77811 0.59728 0.40183 0.0
C1239 C 0.7941 0.60238 0.36944 0.0
C1240 C 0.69207 0.36646 0.621 0.0
C1241 C 0.63648 0.37726 0.60825 0.0
C1242 C 0.69926 0.36353 0.65385 0.0
C1243 C 0.65141 0.37155 0.67537 0.0
H1244 H 0.72654 0.3567 0.60556 0.0
H1245 H 0.74012 0.35219 0.66194 0.0
S1246 S 0.50653 0.41003 0.65382 0.0
N1247 N 0.54019 0.40281 0.61935 0.0
N1248 N 0.55349 0.39713 0.68146 0.0
C1249 C 0.60027 0.38658 0.66306 0.0
C1250 C 0.59291 0.38948 0.62936 0.0
C1251 C 0.61367 0.87717 0.65208 0.0
C1252 C 0.64812 0.88864 0.67745 0.0
C1253 C 0.62869 0.88356 0.6204 0.0
C1254 C 0.67811 0.90217 0.61282 0.0
H1255 H 0.57134 0.86522 0.65683 0.0
H1256 H 0.59841 0.87535 0.60194 0.0
S1257 S 0.7877 0.93465 0.67114 0.0
N1258 N 0.73773 0.91666 0.6932 0.0
N1259 N 0.76617 0.92912 0.634 0.0
C1260 C 0.71623 0.91174 0.63811 0.0
C1261 C 0.70131 0.90478 0.67031 0.0
C1262 C 0.28897 0.6296 0.38198 0.0
C1263 C 0.33511 0.62979 0.35782 0.0
C1264 C 0.30451 0.6245 0.41384 0.0
C1265 C 0.36701 0.61979 0.42278 0.0
H1266 H 0.24134 0.63584 0.37688 0.0
H1267 H 0.26872 0.62774 0.43179 0.0
S1268 S 0.50239 0.61068 0.36808 0.0
N1269 N 0.44337 0.61906 0.34445 0.0
N1270 N 0.47274 0.60969 0.40432 0.0
C1271 C 0.41174 0.61598 0.39841 0.0
C1272 C 0.39581 0.62095 0.36588 0.0
C1273 C 0.27393 0.08142 0.40377 0.0
C1274 C 0.31157 0.09387 0.42755 0.0
C1275 C 0.28493 0.08624 0.37142 0.0
C1276 C 0.33428 0.10358 0.36133 0.0
H1277 H 0.23804 0.06631 0.40986 0.0
H1278 H 0.25883 0.07396 0.35421 0.0
S1279 S 0.43984 0.14528 0.41302 0.0
N1280 N 0.39494 0.1277 0.43817 0.0
N1281 N 0.41572 0.13634 0.37712 0.0
C1282 C 0.36832 0.11836 0.38453 0.0
C1283 C 0.35701 0.11361 0.41768 0.0
C1284 C 0.6541 0.86801 0.15643 0.0
C1285 C 0.60984 0.86437 0.18115 0.0
C1286 C 0.63708 0.86519 0.12426 0.0
C1287 C 0.57523 0.85826 0.11568 0.0
H1288 H 0.70336 0.87048 0.16202 0.0
H1289 H 0.67377 0.86556 0.10641 0.0
S1290 S 0.43949 0.8524 0.17108 0.0
N1291 N 0.50019 0.85824 0.19453 0.0
N1292 N 0.46779 0.85276 0.13456 0.0
C1293 C 0.52943 0.85803 0.14006 0.0
C1294 C 0.54677 0.86124 0.17268 0.0
C1295 C 0.71207 0.39826 0.12622 0.0
C1296 C 0.66791 0.38993 0.1029 0.0
C1297 C 0.70526 0.39087 0.15819 0.0
C1298 C 0.65348 0.37521 0.16844 0.0
H1299 H 0.74972 0.41264 0.12048 0.0
H1300 H 0.7361 0.40066 0.17544 0.0
S1301 S 0.53501 0.34103 0.11665 0.0
N1302 N 0.57828 0.35979 0.09182 0.0
N1303 N 0.56576 0.34587 0.15229 0.0
C1304 C 0.61425 0.36328 0.14507 0.0
C1305 C 0.6212 0.37073 0.11221 0.0
C1306 C 0.28733 0.14813 0.88446 0.0
C1307 C 0.33185 0.14862 0.85954 0.0
C1308 C 0.30577 0.14707 0.91642 0.0
C1309 C 0.36952 0.14647 0.92472 0.0
H1310 H 0.23789 0.15089 0.87942 0.0
H1311 H 0.27013 0.14921 0.93465 0.0
S1312 S 0.50358 0.13942 0.86889 0.0
N1313 N 0.44175 0.14302 0.8455 0.0
N1314 N 0.47631 0.14004 0.90564 0.0
C1315 C 0.41395 0.14328 0.90014 0.0
C1316 C 0.39515 0.14446 0.86749 0.0
C1317 C 0.43643 0.60592 0.88082 0.0
C1318 C 0.3903 0.60938 0.85696 0.0
C1319 C 0.4242 0.61214 0.91271 0.0
C1320 C 0.36476 0.62143 0.92219 0.0
H1321 H 0.48065 0.59592 0.87563 0.0
H1322 H 0.45859 0.60596 0.93038 0.0
S1323 S 0.23339 0.64128 0.86883 0.0
N1324 N 0.28741 0.62854 0.84458 0.0
N1325 N 0.26396 0.6397 0.90487 0.0
C1326 C 0.32134 0.62874 0.8983 0.0
C1327 C 0.3341 0.62276 0.86558 0.0
C1328 C 0.94357 0.25131 0.27798 0.0
C1329 C 0.94735 0.22477 0.26346 0.0
C1330 C -0.01087 0.27191 0.27241 0.0
C1331 C 0.04054 0.26693 0.25202 0.0
H1332 H 0.90555 0.25618 0.29418 0.0
H1333 H 0.98455 0.29168 0.28494 0.0
S1334 S 0.06916 0.20178 0.20553 0.0
N1335 N 0.0045 0.19525 0.22585 0.0
N1336 N 0.09014 0.23397 0.21555 0.0
C1337 C 0.04376 0.24081 0.23639 0.0
C1338 C -0.00266 0.21975 0.24212 0.0
C1339 C 0.2508 0.96749 0.27828 0.0
C1340 C 0.20195 0.96974 0.25584 0.0
C1341 C 0.29374 0.9894 0.28287 0.0
C1342 C 0.28958 0.01442 0.2652 0.0
H1343 H 0.25461 0.9491 0.29337 0.0
H1344 H 0.32934 0.98694 0.30105 0.0
S1345 S 0.17562 0.02919 0.20029 0.0
N1346 N 0.15555 -0.00218 0.21365 0.0
N1347 N 0.2364 0.03895 0.22195 0.0
C1348 C 0.24283 0.01636 0.24152 0.0
C1349 C 0.19903 0.99405 0.23693 0.0
C1350 C 0.01475 0.9852 0.03801 0.0
C1351 C 0.00433 0.95905 0.02325 0.0
C1352 C 0.96968 0.00661 0.03697 0.0
C1353 C 0.9119 0.0029 0.02121 0.0
H1354 H 0.05828 0.98935 0.05047 0.0
H1355 H 0.98033 0.02621 0.04891 0.0
S1356 S 0.86103 0.93857 0.97825 0.0
N1357 N 0.93146 0.93076 0.99202 0.0
N1358 N 0.84694 0.97102 0.99013 0.0
C1359 C 0.90066 0.97688 1.00629 0.0
C1360 C 0.94673 0.95501 1.00727 0.0
C1361 C 0.28581 0.25283 1.00427 0.0
C1362 C 0.27752 0.22745 0.02084 0.0
C1363 C 0.24157 0.27441 1.00617 0.0
C1364 C 0.18679 0.27175 0.0248 0.0
H1365 H 0.32682 0.25616 0.98949 0.0
H1366 H 0.25071 0.29336 0.99263 0.0
S1367 S 0.14303 0.20972 0.07367 0.0
N1368 N 0.2105 0.20093 0.05709 0.0
N1369 N 0.12712 0.24166 0.06058 0.0
C1370 C 0.17772 0.2465 0.04164 0.0
C1371 C 0.22303 0.22436 0.03968 0.0
C1372 C 0.00416 0.7035 0.752 0.0
C1373 C 0.95994 0.70487 0.77693 0.0
C1374 C 0.04834 0.72485 0.74727 0.0
C1375 C 0.05 0.74847 0.7672 0.0
H1376 H 0.00382 0.68612 0.73536 0.0
H1377 H 0.08057 0.72304 0.72744 0.0
S1378 S 0.94943 0.76073 0.8382 0.0
N1379 N 0.92387 0.73077 0.82328 0.0
N1380 N 0.00701 0.77091 0.8146 0.0
C1381 C 0.00754 0.74968 0.79295 0.0
C1382 C 0.96253 0.7279 0.79776 0.0
C1383 C 0.731 0.97542 0.79236 0.0
C1384 C 0.68628 0.97499 0.76764 0.0
C1385 C 0.77556 -0.003 0.7947 0.0
C1386 C 0.77693 0.01904 0.77249 0.0
H1387 H 0.73136 0.95908 0.81031 0.0
H1388 H 0.80821 -0.00329 0.81444 0.0
S1389 S 0.6741 0.02651 0.70159 0.0
N1390 N 0.64898 -0.00231 0.71935 0.0
N1391 N 0.73231 0.03825 0.7238 0.0
C1392 C 0.73343 0.01856 0.74724 0.0
C1393 C 0.68818 -0.00341 0.74483 0.0
C1394 C 0.73735 0.76923 1.01008 0.0
C1395 C 0.68641 0.76513 0.03098 0.0
C1396 C 0.77982 0.74761 1.00344 0.0
C1397 C 0.77327 0.72088 1.01733 0.0
H1398 H 0.74406 0.78917 0.99811 0.0
H1399 H 0.81807 0.75195 0.98717 0.0
S1400 S 0.65033 0.69949 0.07542 0.0
N1401 N 0.63355 0.73247 0.06674 0.0
N1402 N 0.71325 0.69182 0.05426 0.0
C1403 C 0.7232 0.71654 0.03878 0.0
C1404 C 0.68003 0.73866 0.04567 0.0
C1405 C 0.23006 0.51521 0.75098 0.0
C1406 C 0.27763 0.51278 0.77411 0.0
C1407 C 0.18808 0.49317 0.74512 0.0
C1408 C 0.19209 0.46776 0.76205 0.0
H1409 H 0.22602 0.53403 0.73659 0.0
H1410 H 0.15271 0.496 0.7269 0.0
S1411 S 0.3043 0.45166 0.82736 0.0
N1412 N 0.32358 0.4836 0.81552 0.0
N1413 N 0.24488 0.44217 0.80463 0.0
C1414 C 0.23839 0.46531 0.78589 0.0
C1415 C 0.281 0.4878 0.79191 0.0
C1416 C -0.00903 0.51318 0.52729 0.0
C1417 C 0.93406 0.50696 0.51173 0.0
C1418 C 0.03657 0.49258 0.53225 0.0
C1419 C 0.02757 0.46483 0.52174 0.0
H1420 H 0.00067 0.53418 0.53596 0.0
H1421 H 0.07983 0.49876 0.54387 0.0
S1422 S 0.88598 0.4371 0.48058 0.0
N1423 N 0.87058 0.47069 0.48643 0.0
N1424 N 0.95649 0.43188 0.49574 0.0
C1425 C 0.97057 0.45811 0.50645 0.0
C1426 C 0.92392 0.47917 0.50139 0.0
C1427 C 0.2146 0.70755 0.51557 0.0
C1428 C 0.27156 0.71045 0.49876 0.0
C1429 C 0.16969 0.729 0.51585 0.0
C1430 C 0.1799 0.75432 0.49944 0.0
H1431 H 0.20496 0.68881 0.52939 0.0
H1432 H 0.12756 0.72598 0.52989 0.0
S1433 S 0.31774 0.77144 0.44867 0.0
N1434 N 0.33312 0.73989 0.463 0.0
N1435 N 0.24883 0.78021 0.46361 0.0
C1436 C 0.23532 0.75707 0.48134 0.0
C1437 C 0.28103 0.73516 0.48095 0.0
C1438 C 0.73745 0.51636 0.2524 0.0
C1439 C 0.7879 0.51496 0.27405 0.0
C1440 C 0.69858 0.49317 0.24681 0.0
C1441 C 0.70833 0.46747 0.26257 0.0
H1442 H 0.72828 0.53542 0.23907 0.0
H1443 H 0.66086 0.49544 0.22972 0.0
S1444 S 0.83109 0.45311 0.32338 0.0
N1445 N 0.84359 0.48598 0.31252 0.0
N1446 N 0.77051 0.4424 0.30216 0.0
C1447 C 0.75782 0.46586 0.28483 0.0
C1448 C 0.79747 0.48956 0.29054 0.0
C1449 C 0.71067 0.2545 0.54729 0.0
C1450 C 0.71855 0.27853 0.52817 0.0
C1451 C 0.75085 0.23137 0.54459 0.0
C1452 C 0.80084 0.23125 0.52271 0.0
H1453 H 0.67269 0.25331 0.56438 0.0
H1454 H 0.74258 0.21345 0.55995 0.0
S1455 S 0.84186 0.28868 0.46657 0.0
N1456 N 0.78041 0.30066 0.48626 0.0
N1457 N 0.85602 0.25716 0.48136 0.0
C1458 C 0.80991 0.25522 0.50362 0.0
C1459 C 0.76882 0.27883 0.5063 0.0
C1460 C 0.47109 0.23612 0.75354 0.0
C1461 C 0.41581 0.24169 0.77081 0.0
C1462 C 0.51583 0.257 0.74813 0.0
C1463 C 0.50753 0.28446 0.75977 0.0
H1464 H 0.48035 0.21535 0.74407 0.0
H1465 H 0.5579 0.25128 0.73517 0.0
S1466 S 0.36979 0.31048 0.8056 0.0
N1467 N 0.35429 0.27702 0.79888 0.0
N1468 N 0.43861 0.31639 0.78882 0.0
C1469 C 0.45189 0.29057 0.77666 0.0
C1470 C 0.40618 0.26917 0.78224 0.0
C1471 C 0.44408 0.9935 0.50657 0.0
C1472 C 0.44658 0.01981 0.52173 0.0
C1473 C 0.49499 0.97504 0.50741 0.0
C1474 C 0.55095 0.98194 0.52348 0.0
H1475 H 0.40246 0.987 0.49373 0.0
H1476 H 0.4902 0.95518 0.49506 0.0
S1477 S 0.5815 0.048 0.56791 0.0
N1478 N 0.50955 0.05175 0.55394 0.0
N1479 N 0.60553 0.01692 0.55543 0.0
C1480 C 0.5543 0.00817 0.53888 0.0
C1481 C 0.50216 0.0271 0.53802 0.0
C1482 C 0.53154 0.74738 0.25189 0.0
C1483 C 0.52878 0.77193 0.27034 0.0
C1484 C 0.48749 0.72585 0.25585 0.0
C1485 C 0.4388 0.72793 0.27848 0.0
H1486 H 0.56762 0.74479 0.23397 0.0
H1487 H 0.49113 0.70767 0.24047 0.0
S1488 S 0.41345 0.78693 0.33473 0.0
N1489 N 0.47516 0.79641 0.31356 0.0
N1490 N 0.39242 0.75593 0.32075 0.0
C1491 C 0.43626 0.75208 0.29764 0.0
C1492 C 0.48113 0.77406 0.29363 0.0
C1493 C 0.54876 0.51209 0.03212 0.0
C1494 C 0.53929 0.48498 0.01973 0.0
C1495 C 0.5058 0.53372 0.02642 0.0
C1496 C 0.45148 0.52925 1.00797 0.0
H1497 H 0.59002 0.51682 0.0462 0.0
H1498 H 0.51533 0.5541 0.03683 0.0
S1499 S 0.40496 0.46212 0.96936 0.0
N1500 N 0.47143 0.45486 0.98771 0.0
N1501 N 0.39096 0.49555 0.97694 0.0
C1502 C 0.44147 0.50225 0.99522 0.0
C1503 C 0.48509 0.48012 1.0012 0.0
C1504 C 0.08176 0.34432 0.41231 0.0
C1505 C 0.07897 0.3727 0.42119 0.0
C1506 C 0.08431 0.33671 0.38013 0.0
C1507 C 0.08282 0.3572 0.35592 0.0
H1508 H 0.08816 0.32815 0.43017 0.0
H1509 H 0.09185 0.31479 0.37423 0.0
S1510 S 0.06338 0.43395 0.36719 0.0
N1511 N 0.06621 0.42104 0.40362 0.0
N1512 N 0.06914 0.40664 0.34312 0.0
C1513 C 0.0728 0.38533 0.36455 0.0
C1514 C 0.07146 0.39312 0.39729 0.0
C1515 C 0.1848 0.89775 0.38093 0.0
C1516 C 0.18485 0.8773 0.35664 0.0
C1517 C 0.18755 0.89007 0.41315 0.0
C1518 C 0.18978 0.86167 0.42206 0.0
H1519 H 0.17686 0.91966 0.37512 0.0
H1520 H 0.1804 0.90617 0.43101 0.0
S1521 S 0.2018 0.80044 0.36784 0.0
N1522 N 0.19701 0.82783 0.34381 0.0
N1523 N 0.20045 0.81336 0.40427 0.0
C1524 C 0.19702 0.84135 0.39802 0.0
C1525 C 0.19511 0.84917 0.36524 0.0
C1526 C 0.07023 0.82791 0.88 0.0
C1527 C 0.07038 0.84836 0.85577 0.0
C1528 C 0.06068 0.83536 0.91193 0.0
C1529 C 0.05263 0.86361 0.92069 0.0
H1530 H 0.08096 0.80619 0.87443 0.0
H1531 H 0.06549 0.81928 0.93003 0.0
S1532 S 0.04261 0.92466 0.86611 0.0
N1533 N 0.05495 0.89754 0.8424 0.0
N1534 N 0.03975 0.91174 0.90255 0.0
C1535 C 0.04834 0.88394 0.89651 0.0
C1536 C 0.05646 0.87626 0.86394 0.0
C1537 C 0.17857 0.396 0.87757 0.0
C1538 C 0.17301 0.3741 0.85525 0.0
C1539 C 0.18174 0.39032 0.91025 0.0
C1540 C 0.17773 0.36259 0.92148 0.0
H1541 H 0.17562 0.41771 0.86987 0.0
H1542 H 0.18043 0.40777 0.92677 0.0
S1543 S 0.17209 0.29779 0.87258 0.0
N1544 N 0.17231 0.32367 0.84637 0.0
N1545 N 0.17574 0.31294 0.90786 0.0
C1546 C 0.17813 0.34048 0.89928 0.0
C1547 C 0.17647 0.34626 0.86603 0.0
C1548 C 0.92041 0.63401 0.65186 0.0
C1549 C 0.92072 0.61275 0.6752 0.0
C1550 C 0.91933 0.62738 0.61939 0.0
C1551 C 0.91701 0.59927 0.6094 0.0
H1552 H 0.91612 0.65587 0.65879 0.0
H1553 H 0.91355 0.64426 0.60233 0.0
S1554 S 0.9269 0.53602 0.66079 0.0
N1555 N 0.92753 0.56268 0.68594 0.0
N1556 N 0.92355 0.55012 0.62492 0.0
C1557 C 0.92353 0.57793 0.63235 0.0
C1558 C 0.92595 0.5847 0.66535 0.0
C1559 C 0.77869 0.14298 0.66852 0.0
C1560 C 0.78848 0.11532 0.67907 0.0
C1561 C 0.7788 0.14931 0.63587 0.0
C1562 C 0.7868 0.1281 0.61285 0.0
H1563 H 0.77746 0.16012 0.68545 0.0
H1564 H 0.77804 0.17119 0.62868 0.0
S1565 S 0.80413 0.05191 0.62841 0.0
N1566 N 0.79961 0.06625 0.66409 0.0
N1567 N 0.79723 0.07812 0.60286 0.0
C1568 C 0.78969 0.1001 0.62312 0.0
C1569 C 0.79126 0.09372 0.65627 0.0
C1570 C 0.91803 0.09506 0.1703 0.0
C1571 C 0.91711 0.12384 0.17756 0.0
C1572 C 0.91654 0.08597 0.13857 0.0
C1573 C 0.91543 0.10534 0.11318 0.0
H1574 H 0.91299 0.0796 0.18905 0.0
H1575 H 0.91055 0.06372 0.13394 0.0
S1576 S 0.92584 0.1828 0.12 0.0
N1577 N 0.92458 0.17153 0.15715 0.0
N1578 N 0.9234 0.15434 0.09754 0.0
C1579 C 0.92256 0.13398 0.1202 0.0
C1580 C 0.92285 0.14327 0.15247 0.0
C1581 C 0.80278 0.59803 0.1194 0.0
C1582 C 0.80015 0.6263 0.10991 0.0
C1583 C 0.80324 0.59088 0.15175 0.0
C1584 C 0.79944 0.61169 0.17549 0.0
H1585 H 0.81115 0.58167 0.10201 0.0
H1586 H 0.81142 0.56914 0.15826 0.0
S1587 S 0.77999 0.68819 0.16245 0.0
N1588 N 0.78553 0.67482 0.12633 0.0
N1589 N 0.78417 0.66121 0.18712 0.0
C1590 C 0.78939 0.63963 0.16615 0.0
C1591 C 0.79039 0.64699 0.13326 0.0
C1592 C 0.55814 0.41507 0.89771 0.0
C1593 C 0.55523 0.39476 0.92212 0.0
C1594 C 0.55213 0.40743 0.86564 0.0
C1595 C 0.5439 0.37917 0.85707 0.0
H1596 H 0.57034 0.43664 0.90321 0.0
H1597 H 0.56108 0.42317 0.84757 0.0
S1598 S 0.51934 0.31908 0.91184 0.0
N1599 N 0.53222 0.34613 0.93557 0.0
N1600 N 0.52218 0.33169 0.87529 0.0
C1601 C 0.53323 0.35933 0.88129 0.0
C1602 C 0.53854 0.36715 0.91392 0.0
C1603 C 0.65505 0.83999 0.90635 0.0
C1604 C 0.65053 0.86045 0.93046 0.0
C1605 C 0.65864 0.84765 0.87416 0.0
C1606 C 0.65615 0.87601 0.86504 0.0
H1607 H 0.65203 0.81786 0.91231 0.0
H1608 H 0.65781 0.83126 0.85629 0.0
S1609 S 0.65108 0.93766 0.91883 0.0
N1610 N 0.65042 0.91028 0.94302 0.0
N1611 N 0.65449 0.92466 0.88247 0.0
C1612 C 0.65589 0.89667 0.88892 0.0
C1613 C 0.65391 0.88889 0.92171 0.0
C1614 C 0.55372 0.89934 0.41022 0.0
C1615 C 0.56661 0.87934 0.43407 0.0
C1616 C 0.55075 0.89162 0.37806 0.0
C1617 C 0.56213 0.86375 0.36878 0.0
H1618 H 0.55158 0.92149 0.41619 0.0
H1619 H 0.54626 0.90802 0.36031 0.0
S1620 S 0.58717 0.8028 0.42245 0.0
N1621 N 0.58176 0.83006 0.44663 0.0
N1622 N 0.57733 0.81544 0.3862 0.0
C1623 C 0.56839 0.84315 0.39266 0.0
C1624 C 0.57032 0.85098 0.4254 0.0
C1625 C 0.69106 0.39224 0.40968 0.0
C1626 C 0.68863 0.36503 0.42255 0.0
C1627 C 0.69068 0.3963 0.37663 0.0
C1628 C 0.68963 0.3733 0.35556 0.0
H1629 H 0.68708 0.41042 0.42505 0.0
H1630 H 0.68677 0.41755 0.36752 0.0
S1631 S 0.69369 0.298 0.37766 0.0
N1632 N 0.69246 0.31483 0.41199 0.0
N1633 N 0.69393 0.32258 0.34988 0.0
C1634 C 0.69396 0.34611 0.36818 0.0
C1635 C 0.69285 0.34194 0.40177 0.0
C1636 C 0.41687 0.61129 0.16405 0.0
C1637 C 0.40983 0.63939 0.17361 0.0
C1638 C 0.41877 0.60425 0.1317 0.0
C1639 C 0.41561 0.62511 0.10801 0.0
H1640 H 0.41479 0.5945 0.18143 0.0
H1641 H 0.4183 0.58221 0.12515 0.0
S1642 S 0.40795 0.70203 0.12097 0.0
N1643 N 0.40723 0.6884 0.15712 0.0
N1644 N 0.41314 0.67509 0.09634 0.0
C1645 C 0.41547 0.6534 0.11735 0.0
C1646 C 0.41191 0.66056 0.15023 0.0
C1647 C 0.32165 0.08971 0.1513 0.0
C1648 C 0.31047 0.11029 0.17472 0.0
C1649 C 0.3163 0.09602 0.11883 0.0
C1650 C 0.30046 0.12323 0.10876 0.0
H1651 H 0.33863 0.06908 0.15807 0.0
H1652 H 0.33091 0.08038 0.10163 0.0
S1653 S 0.25919 0.18362 0.16037 0.0
N1654 N 0.27573 0.15798 0.18553 0.0
N1655 N 0.26778 0.17011 0.12446 0.0
C1656 C 0.28407 0.14327 0.13189 0.0
C1657 C 0.28843 0.13672 0.16495 0.0
C1658 C 0.40299 0.11837 0.66633 0.0
C1659 C 0.38267 0.14596 0.6724 0.0
C1660 C 0.4075 0.10826 0.63508 0.0
C1661 C 0.39363 0.12559 0.60886 0.0
H1662 H 0.4101 0.10379 0.68578 0.0
H1663 H 0.41738 0.08613 0.63148 0.0
S1664 S 0.34924 0.2008 0.61186 0.0
N1665 N 0.35625 0.19147 0.64952 0.0
N1666 N 0.36631 0.17248 0.59085 0.0
C1667 C 0.37974 0.15396 0.6145 0.0
C1668 C 0.37377 0.16414 0.64631 0.0
C1669 C 0.29357 0.63088 0.66378 0.0
C1670 C 0.30212 0.60285 0.6733 0.0
C1671 C 0.29005 0.6379 0.63143 0.0
C1672 C 0.29323 0.61706 0.6077 0.0
H1673 H 0.29603 0.6477 0.6811 0.0
H1674 H 0.29007 0.65993 0.62484 0.0
S1675 S 0.30362 0.54021 0.62074 0.0
N1676 N 0.30513 0.55385 0.65684 0.0
N1677 N 0.29672 0.56711 0.59612 0.0
C1678 C 0.29432 0.58879 0.61711 0.0
C1679 C 0.29932 0.58166 0.64998 0.0
C1680 C 0.34527 0.37741 0.26516 0.0
C1681 C 0.32606 0.34945 0.27016 0.0
C1682 C 0.40849 0.38482 0.26624 0.0
C1683 C 0.45545 0.36456 0.2676 0.0
H1684 H 0.31112 0.39407 0.26201 0.0
H1685 H 0.42068 0.40654 0.26792 0.0
S1686 S 0.42909 0.2919 0.29759 0.0
N1687 N 0.35781 0.30431 0.2913 0.0
N1688 N 0.47796 0.31672 0.28563 0.0
C1689 C 0.43692 0.33692 0.27614 0.0
C1690 C 0.37186 0.32983 0.2787 0.0
C1691 C 0.81733 0.89305 0.28054 0.0
C1692 C 0.7983 0.86466 0.28184 0.0
C1693 C 0.88044 0.90055 0.28412 0.0
C1694 C 0.92724 0.88014 0.28435 0.0
H1695 H 0.78309 0.90974 0.27795 0.0
H1696 H 0.89269 0.92224 0.28747 0.0
S1697 S 0.89865 0.80662 0.31084 0.0
N1698 N 0.82814 0.81906 0.30253 0.0
N1699 N 0.94825 0.83181 0.3011 0.0
C1700 C 0.90814 0.85218 0.29098 0.0
C1701 C 0.84322 0.84485 0.29099 0.0
C1702 C 0.32292 0.88553 1.01118 0.0
C1703 C 0.2772 0.86467 1.01057 0.0
C1704 C 0.38636 0.87882 1.01427 0.0
C1705 C 0.40724 0.8508 1.01195 0.0
H1706 H 0.30961 0.90702 1.0077 0.0
H1707 H 0.41942 0.89596 1.01704 0.0
S1708 S 0.30945 0.79152 0.98398 0.0
N1709 N 0.25854 0.81609 0.99409 0.0
N1710 N 0.37952 0.80484 0.99151 0.0
C1711 C 0.36323 0.83047 1.00303 0.0
C1712 C 0.29775 0.83696 1.00375 0.0
C1713 C 0.89007 0.35879 1.0035 0.0
C1714 C 0.93984 0.37764 1.00357 0.0
C1715 C 0.82822 0.36814 1.00399 0.0
C1716 C 0.81361 0.39675 0.99954 0.0
H1717 H 0.89915 0.33672 1.00154 0.0
H1718 H 0.79153 0.35248 1.00636 0.0
S1719 S 0.92689 0.45098 0.97345 0.0
N1720 N 0.97093 0.42477 0.98628 0.0
N1721 N 0.85342 0.44077 0.97869 0.0
C1722 C 0.86268 0.41497 0.99166 0.0
C1723 C 0.92626 0.40587 0.99508 0.0
C1724 C 0.6621 0.58879 0.76044 0.0
C1725 C 0.68271 0.61696 0.75971 0.0
C1726 C 0.59897 0.58195 0.75565 0.0
C1727 C 0.55314 0.60281 0.75473 0.0
H1728 H 0.69524 0.5717 0.76342 0.0
H1729 H 0.58598 0.56036 0.75198 0.0
S1730 S 0.58658 0.67667 0.73124 0.0
N1731 N 0.65605 0.66329 0.73993 0.0
N1732 N 0.53527 0.65175 0.73952 0.0
C1733 C 0.5739 0.63072 0.74939 0.0
C1734 C 0.63919 0.63739 0.75047 0.0
C1735 C 0.07044 0.10913 0.768 0.0
C1736 C 0.02023 0.1278 0.7681 0.0
C1737 C 0.13242 0.11853 0.76882 0.0
C1738 C 0.14703 0.14715 0.76461 0.0
H1739 H 0.06166 0.0872 0.76508 0.0
H1740 H 0.16924 0.1029 0.77082 0.0
S1741 S 0.03337 0.20145 0.73925 0.0
N1742 N -0.01068 0.17512 0.75173 0.0
N1743 N 0.10678 0.19126 0.74437 0.0
C1744 C 0.09764 0.16536 0.75709 0.0
C1745 C 0.03396 0.15617 0.76035 0.0
C1746 C 0.57794 0.12528 1.00131 0.0
C1747 C 0.54135 0.13084 0.02816 0.0
C1748 C 0.63947 0.11544 1.00441 0.0
C1749 C 0.66191 0.10646 0.03397 0.0
H1750 H 0.55824 0.12762 0.97782 0.0
H1751 H 0.66843 0.11335 0.98336 0.0
S1752 S 0.58229 0.11415 0.11158 0.0
N1753 N 0.53188 0.12706 0.08553 0.0
N1754 N 0.64423 0.10404 0.09085 0.0
C1755 C 0.62525 0.11103 0.06105 0.0
C1756 C 0.56494 0.12358 0.05818 0.0
C1757 C 0.15861 0.64718 0.02483 0.0
C1758 C 0.17993 0.61913 0.02504 0.0
C1759 C 0.09533 0.65351 0.0299 0.0
C1760 C 0.05034 0.63229 0.03063 0.0
H1761 H 0.19121 0.66449 0.0219 0.0
H1762 H 0.08155 0.67493 0.03389 0.0
S1763 S 0.08644 0.55851 0.05342 0.0
N1764 N 0.15528 0.57244 0.0445 0.0
N1765 N 0.03424 0.58316 0.04567 0.0
C1766 C 0.07201 0.60451 0.0358 0.0
C1767 C 0.13737 0.59832 0.03436 0.0
C1768 C 0.38765 0.88537 0.76631 0.0
C1769 C 0.43836 0.86709 0.76896 0.0
C1770 C 0.3263 0.87546 0.76299 0.0
C1771 C 0.31179 0.84685 0.76763 0.0
H1772 H 0.39513 0.90743 0.76902 0.0
H1773 H 0.28949 0.89075 0.75885 0.0
S1774 S 0.42266 0.79448 0.80066 0.0
N1775 N 0.46774 0.82064 0.78874 0.0
N1776 N 0.35007 0.80392 0.79184 0.0
C1777 C 0.36042 0.82932 0.77811 0.0
C1778 C 0.42417 0.83888 0.77722 0.0
C1779 C 0.81697 0.39075 0.77445 0.0
C1780 C 0.79455 0.36355 0.78108 0.0
C1781 C 0.88091 0.39665 0.77538 0.0
C1782 C 0.92493 0.37529 0.77819 0.0
H1783 H 0.7849 0.40794 0.76969 0.0
H1784 H 0.89611 0.41803 0.77535 0.0
S1785 S 0.88956 0.30626 0.81577 0.0
N1786 N 0.81999 0.31963 0.80725 0.0
N1787 N 0.94153 0.32886 0.80175 0.0
C1788 C 0.90316 0.34899 0.78959 0.0
C1789 C 0.83744 0.34363 0.79215 0.0
C1790 C 0.33984 0.35723 0.51242 0.0
C1791 C 0.31786 0.38488 0.5079 0.0
C1792 C 0.40373 0.35096 0.51058 0.0
C1793 C 0.44869 0.37212 0.50885 0.0
H1794 H 0.30732 0.33996 0.51582 0.0
H1795 H 0.41802 0.32941 0.50889 0.0
S1796 S 0.41431 0.4441 0.47902 0.0
N1797 N 0.34457 0.43046 0.48631 0.0
N1798 N 0.4659 0.42025 0.4904 0.0
C1799 C 0.42721 0.39936 0.50051 0.0
C1800 C 0.36149 0.40528 0.49883 0.0
C1801 C 0.91004 0.87119 0.47929 0.0
C1802 C 0.94209 0.86399 0.5072 0.0
C1803 C 0.85141 0.88424 0.48072 0.0
C1804 C 0.82279 0.88975 0.51007 0.0
H1805 H 0.93069 0.86689 0.45626 0.0
H1806 H 0.8271 0.88897 0.45873 0.0
S1807 S 0.88868 0.87526 0.58987 0.0
N1808 N 0.94534 0.86651 0.56484 0.0
N1809 N 0.82837 0.88481 0.56754 0.0
C1810 C 0.85382 0.88193 0.53811 0.0
C1811 C 0.91582 0.87097 0.53666 0.0
C1812 C 0.59129 0.09827 0.2697 0.0
C1813 C 0.54318 0.11749 0.26452 0.0
C1814 C 0.65405 0.10662 0.27106 0.0
C1815 C 0.67219 0.13404 0.26248 0.0
H1816 H 0.58064 0.07644 0.27043 0.0
H1817 H 0.68891 0.0909 0.27712 0.0
S1818 S 0.5681 0.1861 0.22394 0.0
N1819 N 0.51979 0.16236 0.23881 0.0
N1820 N 0.63944 0.17561 0.23369 0.0
C1821 C 0.62589 0.15181 0.25014 0.0
C1822 C 0.56103 0.14416 0.25239 0.0
C1823 C 0.05446 0.64582 0.26436 0.0
C1824 C 0.0383 0.61739 0.25975 0.0
C1825 C 0.11645 0.65501 0.26034 0.0
C1826 C 0.16518 0.63582 0.25598 0.0
H1827 H 0.01868 0.66126 0.26988 0.0
H1828 H 0.12601 0.67712 0.25943 0.0
S1829 S 0.14078 0.5644 0.22185 0.0
N1830 N 0.07026 0.5745 0.23342 0.0
N1831 N 0.18876 0.58974 0.23296 0.0
C1832 C 0.14799 0.60825 0.24645 0.0
C1833 C 0.08406 0.59955 0.24726 0.0
C1834 C 0.61537 0.57963 0.53345 0.0
C1835 C 0.66321 0.5995 0.53538 0.0
C1836 C 0.55309 0.58803 0.52881 0.0
C1837 C 0.53591 0.61662 0.53065 0.0
H1838 H 0.62621 0.5577 0.5358 0.0
H1839 H 0.5181 0.57192 0.52455 0.0
S1840 S 0.63599 0.6718 0.56607 0.0
N1841 N 0.68518 0.64648 0.55621 0.0
N1842 N 0.56584 0.66082 0.55485 0.0
C1843 C 0.58074 0.63539 0.54228 0.0
C1844 C 0.64508 0.62724 0.54359 0.0
C1845 C 0.06021 0.11139 0.50251 0.0
C1846 C 0.0314 0.11966 0.5308 0.0
C1847 C 0.12293 0.10288 0.50259 0.0
C1848 C 0.15453 0.09788 0.53117 0.0
H1849 H 0.0355 0.11325 0.48012 0.0
H1850 H 0.1476 0.10124 0.4802 0.0
S1851 S 0.09512 0.11242 0.61213 0.0
N1852 N 0.0368 0.12154 0.58837 0.0
N1853 N 0.15182 0.10081 0.58874 0.0
C1854 C 0.12405 0.10386 0.55987 0.0
C1855 C 0.06237 0.11517 0.55967 0.0
loop_
_geom_bond_atom_site_label_1
_geom_bond_atom_site_label_2
_geom_bond_distance
_geom_bond_site_symmetry_2
_ccdc_geom_bond_type
Mn0 O5 2.095 . S
Mn0 O15 2.162 . S
Mn0 O16 2.297 . S
Mn0 O24 2.385 . S
Mn0 O25 2.209 . S
Mn0 O26 2.094 . S
Mn1 O6 2.121 . S
Mn1 N8 2.257 . S
Mn1 N17 2.282 . S
Mn1 O25 2.215 . S
Mn1 O27 2.117 . S
C2 O24 1.234 . S
C2 O25 1.283 . S
C3 O15 1.281 . S
C3 O16 1.236 . S
C4 O26 1.240 . S
C4 O27 1.264 . S
O5 Mn0 2.095 . S
O5 C14 1.250 . S
O6 Mn1 2.121 . S
O6 C14 1.258 . S
C7 N8 1.326 . S
C7 C11 1.460 . S
C7 H13 0.929 . S
N8 Mn1 2.257 . S
N8 C7 1.326 . S
N8 C12 1.362 . S
C9 C10 1.258 . S
C9 C12 1.431 . S
C9 C29 1.449 . S
C10 C9 1.258 . S
C10 C11 1.477 . S
C10 H30 0.931 . S
C11 C7 1.460 . S
C11 C10 1.477 . S
C11 H31 0.930 . S
C12 N8 1.362 . S
C12 C9 1.431 . S
C12 C22 1.476 . S
H13 C7 0.929 . S
C14 O5 1.250 . S
C14 O6 1.258 . S
O15 Mn0 2.162 . S
O15 C3 1.281 . S
O16 Mn0 2.297 . S
O16 C3 1.236 . S
N17 Mn1 2.282 . S
N17 C18 1.328 . S
N17 C22 1.318 . S
C18 N17 1.328 . S
C18 C19 1.457 . S
C18 H23 0.929 . S
C19 C18 1.457 . S
C19 C20 1.291 . S
C19 H32 0.931 . S
C20 C19 1.291 . S
C20 C21 1.373 . S
C20 H33 0.929 . S
C21 C20 1.373 . S
C21 C22 1.396 . S
C21 C28 1.403 . S
C22 C12 1.476 . S
C22 N17 1.318 . S
C22 C21 1.396 . S
H23 C18 0.929 . S
O24 Mn0 2.385 . S
O24 C2 1.234 . S
O25 Mn0 2.209 . S
O25 Mn1 2.215 . S
O25 C2 1.283 . S
O26 Mn0 2.094 . S
O26 C4 1.240 . S
O27 Mn1 2.117 . S
O27 C4 1.264 . S
C28 C21 1.403 . S
C28 C29 1.399 . S
C28 H34 0.929 . S
C29 C9 1.449 . S
C29 C28 1.399 . S
C29 H35 0.930 . S
H30 C10 0.931 . S
H31 C11 0.930 . S
H32 C19 0.931 . S
H33 C20 0.929 . S
H34 C28 0.929 . S
H35 C29 0.930 . S
Mn36 O41 2.095 . S
Mn36 O51 2.162 . S
Mn36 O52 2.297 . S
Mn36 O60 2.385 . S
Mn36 O61 2.209 . S
Mn36 O62 2.094 . S
Mn37 O42 2.121 . S
Mn37 N44 2.257 1_455 S
Mn37 N53 2.282 1_455 S
Mn37 O61 2.215 . S
Mn37 O63 2.117 . S
C38 O60 1.234 . S
C38 O61 1.283 . S
C39 O51 1.281 . S
C39 O52 1.236 . S
C40 O62 1.240 . S
C40 O63 1.264 . S
O41 Mn36 2.095 . S
O41 C50 1.250 . S
O42 Mn37 2.121 . S
O42 C50 1.258 . S
C43 N44 1.326 . S
C43 C47 1.460 1_565 S
C43 H49 0.929 1_655 S
N44 Mn37 2.257 1_655 S
N44 C43 1.326 . S
N44 C48 1.362 . S
C45 C46 1.258 . S
C45 C48 1.431 . S
C45 C65 1.449 . S
C46 C45 1.258 . S
C46 C47 1.477 1_565 S
C46 H66 0.931 1_565 S
C47 C43 1.460 1_545 S
C47 C46 1.477 1_545 S
C47 H67 0.930 . S
C48 N44 1.362 . S
C48 C45 1.431 . S
C48 C58 1.476 . S
H49 C43 0.929 1_455 S
C50 O41 1.250 . S
C50 O42 1.258 . S
O51 Mn36 2.162 . S
O51 C39 1.281 . S
O52 Mn36 2.297 . S
O52 C39 1.236 . S
N53 Mn37 2.282 1_655 S
N53 C54 1.328 . S
N53 C58 1.318 . S
C54 N53 1.328 . S
C54 C55 1.457 . S
C54 H59 0.929 1_655 S
C55 C54 1.457 . S
C55 C56 1.291 . S
C55 H68 0.931 . S
C56 C55 1.291 . S
C56 C57 1.373 . S
C56 H69 0.929 . S
C57 C56 1.373 . S
C57 C58 1.396 . S
C57 C64 1.403 . S
C58 C48 1.476 . S
C58 N53 1.318 . S
C58 C57 1.396 . S
H59 C54 0.929 1_455 S
O60 Mn36 2.385 . S
O60 C38 1.234 . S
O61 Mn36 2.209 . S
O61 Mn37 2.215 . S
O61 C38 1.283 . S
O62 Mn36 2.094 . S
O62 C40 1.240 . S
O63 Mn37 2.117 . S
O63 C40 1.264 . S
C64 C57 1.403 . S
C64 C65 1.399 . S
C64 H70 0.929 . S
C65 C45 1.449 . S
C65 C64 1.399 . S
C65 H71 0.930 . S
H66 C46 0.931 1_545 S
H67 C47 0.930 . S
H68 C55 0.931 . S
H69 C56 0.929 . S
H70 C64 0.929 . S
H71 C65 0.930 . S
Mn72 O77 2.095 1_556 S
Mn72 O87 2.162 . S
Mn72 O88 2.297 . S
Mn72 O96 2.385 . S
Mn72 O97 2.209 1_556 S
Mn72 O98 2.094 1_556 S
Mn73 O78 2.121 . S
Mn73 N80 2.257 . S
Mn73 N89 2.282 . S
Mn73 O97 2.215 . S
Mn73 O99 2.117 . S
C74 O96 1.236 . S
C74 O97 1.280 1_556 S
C75 O87 1.281 . S
C75 O88 1.236 . S
C76 O98 1.240 . S
C76 O99 1.264 . S
O77 Mn72 2.095 1_554 S
O77 C86 1.250 . S
O78 Mn73 2.121 . S
O78 C86 1.258 . S
C79 N80 1.326 . S
C79 C83 1.460 1_565 S
C79 H85 0.929 . S
N80 Mn73 2.257 . S
N80 C79 1.326 . S
N80 C84 1.362 . S
C81 C82 1.258 . S
C81 C84 1.431 . S
C81 C101 1.449 . S
C82 C81 1.258 . S
C82 C83 1.477 1_565 S
C82 H102 0.931 1_565 S
C83 C79 1.460 1_545 S
C83 C82 1.477 1_545 S
C83 H103 0.930 . S
C84 N80 1.362 . S
C84 C81 1.431 . S
C84 C94 1.476 . S
H85 C79 0.929 . S
C86 O77 1.250 . S
C86 O78 1.258 . S
O87 Mn72 2.162 . S
O87 C75 1.281 . S
O88 Mn72 2.297 . S
O88 C75 1.236 . S
N89 Mn73 2.282 . S
N89 C90 1.328 . S
N89 C94 1.318 . S
C90 N89 1.328 . S
C90 C91 1.457 . S
C90 H95 0.929 . S
C91 C90 1.457 . S
C91 C92 1.291 . S
C91 H104 0.931 . S
C92 C91 1.291 . S
C92 C93 1.373 . S
C92 H105 0.929 . S
C93 C92 1.373 . S
C93 C94 1.396 . S
C93 C100 1.403 . S
C94 C84 1.476 . S
C94 N89 1.318 . S
C94 C93 1.396 . S
H95 C90 0.929 . S
O96 Mn72 2.385 . S
O96 C74 1.236 . S
O97 Mn72 2.209 1_554 S
O97 Mn73 2.215 . S
O97 C74 1.280 1_554 S
O98 Mn72 2.094 1_554 S
O98 C76 1.240 . S
O99 Mn73 2.117 . S
O99 C76 1.264 . S
C100 C93 1.403 . S
C100 C101 1.399 . S
C100 H106 0.929 . S
C101 C81 1.449 . S
C101 C100 1.399 . S
C101 H107 0.930 . S
H102 C82 0.931 1_545 S
H103 C83 0.930 . S
H104 C91 0.931 . S
H105 C92 0.929 . S
H106 C100 0.929 . S
H107 C101 0.930 . S
Mn108 O113 2.095 1_556 S
Mn108 O123 2.162 . S
Mn108 O124 2.297 . S
Mn108 O132 2.385 . S
Mn108 O133 2.209 1_556 S
Mn108 O134 2.094 1_556 S
Mn109 O114 2.121 . S
Mn109 N116 2.257 1_455 S
Mn109 N125 2.282 1_455 S
Mn109 O133 2.215 . S
Mn109 O135 2.117 . S
C110 O132 1.236 . S
C110 O133 1.280 1_556 S
C111 O123 1.281 . S
C111 O124 1.236 . S
C112 O134 1.240 . S
C112 O135 1.264 . S
O113 Mn108 2.095 1_554 S
O113 C122 1.250 . S
O114 Mn109 2.121 . S
O114 C122 1.258 . S
C115 N116 1.326 . S
C115 C119 1.460 . S
C115 H121 0.929 1_655 S
N116 Mn109 2.257 1_655 S
N116 C115 1.326 . S
N116 C120 1.362 . S
C117 C118 1.258 . S
C117 C120 1.431 . S
C117 C137 1.449 . S
C118 C117 1.258 . S
C118 C119 1.477 . S
C118 H138 0.931 . S
C119 C115 1.460 . S
C119 C118 1.477 . S
C119 H139 0.930 . S
C120 N116 1.362 . S
C120 C117 1.431 . S
C120 C130 1.476 . S
H121 C115 0.929 1_455 S
C122 O113 1.250 . S
C122 O114 1.258 . S
O123 Mn108 2.162 . S
O123 C111 1.281 . S
O124 Mn108 2.297 . S
O124 C111 1.236 . S
N125 Mn109 2.282 1_655 S
N125 C126 1.328 . S
N125 C130 1.318 . S
C126 N125 1.328 . S
C126 C127 1.457 . S
C126 H131 0.929 1_655 S
C127 C126 1.457 . S
C127 C128 1.291 . S
C127 H140 0.931 . S
C128 C127 1.291 . S
C128 C129 1.373 . S
C128 H141 0.929 . S
C129 C128 1.373 . S
C129 C130 1.396 . S
C129 C136 1.403 . S
C130 C120 1.476 . S
C130 N125 1.318 . S
C130 C129 1.396 . S
H131 C126 0.929 1_455 S
O132 Mn108 2.385 . S
O132 C110 1.236 . S
O133 Mn108 2.209 1_554 S
O133 Mn109 2.215 . S
O133 C110 1.280 1_554 S
O134 Mn108 2.094 1_554 S
O134 C112 1.240 . S
O135 Mn109 2.117 . S
O135 C112 1.264 . S
C136 C129 1.403 . S
C136 C137 1.399 . S
C136 H142 0.929 . S
C137 C117 1.449 . S
C137 C136 1.399 . S
C137 H143 0.930 . S
H138 C118 0.931 . S
H139 C119 0.930 . S
H140 C127 0.931 . S
H141 C128 0.929 . S
H142 C136 0.929 . S
H143 C137 0.930 . S
Mn144 O149 2.095 . S
Mn144 O159 2.162 . S
Mn144 O160 2.297 . S
Mn144 O168 2.385 . S
Mn144 O169 2.209 . S
Mn144 O170 2.094 . S
Mn145 O150 2.121 . S
Mn145 N152 2.257 . S
Mn145 N161 2.282 . S
Mn145 O169 2.215 . S
Mn145 O171 2.117 . S
C146 O168 1.234 . S
C146 O169 1.283 . S
C147 O159 1.281 . S
C147 O160 1.236 . S
C148 O170 1.240 . S
C148 O171 1.264 . S
O149 Mn144 2.095 . S
O149 C158 1.250 . S
O150 Mn145 2.121 . S
O150 C158 1.258 . S
C151 N152 1.326 . S
C151 C155 1.460 . S
C151 H157 0.929 . S
N152 Mn145 2.257 . S
N152 C151 1.326 . S
N152 C156 1.362 . S
C153 C154 1.258 . S
C153 C156 1.431 . S
C153 C173 1.449 . S
C154 C153 1.258 . S
C154 C155 1.477 . S
C154 H174 0.931 . S
C155 C151 1.460 . S
C155 C154 1.477 . S
C155 H175 0.930 . S
C156 N152 1.362 . S
C156 C153 1.431 . S
C156 C166 1.476 . S
H157 C151 0.929 . S
C158 O149 1.250 . S
C158 O150 1.258 . S
O159 Mn144 2.162 . S
O159 C147 1.281 . S
O160 Mn144 2.297 . S
O160 C147 1.236 . S
N161 Mn145 2.282 . S
N161 C162 1.328 . S
N161 C166 1.318 . S
C162 N161 1.328 . S
C162 C163 1.457 . S
C162 H167 0.929 . S
C163 C162 1.457 . S
C163 C164 1.291 . S
C163 H176 0.931 . S
C164 C163 1.291 . S
C164 C165 1.373 . S
C164 H177 0.929 . S
C165 C164 1.373 . S
C165 C166 1.396 . S
C165 C172 1.403 . S
C166 C156 1.476 . S
C166 N161 1.318 . S
C166 C165 1.396 . S
H167 C162 0.929 . S
O168 Mn144 2.385 . S
O168 C146 1.234 . S
O169 Mn144 2.209 . S
O169 Mn145 2.215 . S
O169 C146 1.283 . S
O170 Mn144 2.094 . S
O170 C148 1.240 . S
O171 Mn145 2.117 . S
O171 C148 1.264 . S
C172 C165 1.403 . S
C172 C173 1.399 . S
C172 H178 0.929 . S
C173 C153 1.449 . S
C173 C172 1.399 . S
C173 H179 0.930 . S
H174 C154 0.931 . S
H175 C155 0.930 . S
H176 C163 0.931 . S
H177 C164 0.929 . S
H178 C172 0.929 . S
H179 C173 0.930 . S
Mn180 O185 2.095 . S
Mn180 O195 2.162 . S
Mn180 O196 2.297 . S
Mn180 O204 2.385 . S
Mn180 O205 2.209 . S
Mn180 O206 2.094 . S
Mn181 O186 2.121 . S
Mn181 N188 2.257 1_655 S
Mn181 N197 2.282 1_655 S
Mn181 O205 2.215 . S
Mn181 O207 2.117 . S
C182 O204 1.234 . S
C182 O205 1.283 . S
C183 O195 1.281 . S
C183 O196 1.236 . S
C184 O206 1.240 . S
C184 O207 1.264 . S
O185 Mn180 2.095 . S
O185 C194 1.250 . S
O186 Mn181 2.121 . S
O186 C194 1.258 . S
C187 N188 1.326 . S
C187 C191 1.460 1_545 S
C187 H193 0.929 1_455 S
N188 Mn181 2.257 1_455 S
N188 C187 1.326 . S
N188 C192 1.362 . S
C189 C190 1.258 . S
C189 C192 1.431 . S
C189 C209 1.449 . S
C190 C189 1.258 . S
C190 C191 1.477 1_545 S
C190 H210 0.931 1_545 S
C191 C187 1.460 1_565 S
C191 C190 1.477 1_565 S
C191 H211 0.930 . S
C192 N188 1.362 . S
C192 C189 1.431 . S
C192 C202 1.476 . S
H193 C187 0.929 1_655 S
C194 O185 1.250 . S
C194 O186 1.258 . S
O195 Mn180 2.162 . S
O195 C183 1.281 . S
O196 Mn180 2.297 . S
O196 C183 1.236 . S
N197 Mn181 2.282 1_455 S
N197 C198 1.328 . S
N197 C202 1.318 . S
C198 N197 1.328 . S
C198 C199 1.457 . S
C198 H203 0.929 1_455 S
C199 C198 1.457 . S
C199 C200 1.291 . S
C199 H212 0.931 . S
C200 C199 1.291 . S
C200 C201 1.373 . S
C200 H213 0.929 . S
C201 C200 1.373 . S
C201 C202 1.396 . S
C201 C208 1.403 . S
C202 C192 1.476 . S
C202 N197 1.318 . S
C202 C201 1.396 . S
H203 C198 0.929 1_655 S
O204 Mn180 2.385 . S
O204 C182 1.234 . S
O205 Mn180 2.209 . S
O205 Mn181 2.215 . S
O205 C182 1.283 . S
O206 Mn180 2.094 . S
O206 C184 1.240 . S
O207 Mn181 2.117 . S
O207 C184 1.264 . S
C208 C201 1.403 . S
C208 C209 1.399 . S
C208 H214 0.929 . S
C209 C189 1.449 . S
C209 C208 1.399 . S
C209 H215 0.930 . S
H210 C190 0.931 1_565 S
H211 C191 0.930 . S
H212 C199 0.931 . S
H213 C200 0.929 . S
H214 C208 0.929 . S
H215 C209 0.930 . S
Mn216 O221 2.095 1_554 S
Mn216 O231 2.162 . S
Mn216 O232 2.297 . S
Mn216 O240 2.385 . S
Mn216 O241 2.209 1_554 S
Mn216 O242 2.094 1_554 S
Mn217 O222 2.121 . S
Mn217 N224 2.257 . S
Mn217 N233 2.282 . S
Mn217 O241 2.215 . S
Mn217 O243 2.117 . S
C218 O240 1.236 . S
C218 O241 1.280 1_554 S
C219 O231 1.281 . S
C219 O232 1.236 . S
C220 O242 1.240 . S
C220 O243 1.264 . S
O221 Mn216 2.095 1_556 S
O221 C230 1.250 . S
O222 Mn217 2.121 . S
O222 C230 1.258 . S
C223 N224 1.326 . S
C223 C227 1.460 1_545 S
C223 H229 0.929 . S
N224 Mn217 2.257 . S
N224 C223 1.326 . S
N224 C228 1.362 . S
C225 C226 1.258 . S
C225 C228 1.431 . S
C225 C245 1.449 . S
C226 C225 1.258 . S
C226 C227 1.477 1_545 S
C226 H246 0.931 1_545 S
C227 C223 1.460 1_565 S
C227 C226 1.477 1_565 S
C227 H247 0.930 . S
C228 N224 1.362 . S
C228 C225 1.431 . S
C228 C238 1.476 . S
H229 C223 0.929 . S
C230 O221 1.250 . S
C230 O222 1.258 . S
O231 Mn216 2.162 . S
O231 C219 1.281 . S
O232 Mn216 2.297 . S
O232 C219 1.236 . S
N233 Mn217 2.282 . S
N233 C234 1.328 . S
N233 C238 1.318 . S
C234 N233 1.328 . S
C234 C235 1.457 . S
C234 H239 0.929 . S
C235 C234 1.457 . S
C235 C236 1.291 . S
C235 H248 0.931 . S
C236 C235 1.291 . S
C236 C237 1.373 . S
C236 H249 0.929 . S
C237 C236 1.373 . S
C237 C238 1.396 . S
C237 C244 1.403 . S
C238 C228 1.476 . S
C238 N233 1.318 . S
C238 C237 1.396 . S
H239 C234 0.929 . S
O240 Mn216 2.385 . S
O240 C218 1.236 . S
O241 Mn216 2.209 1_556 S
O241 Mn217 2.215 . S
O241 C218 1.280 1_556 S
O242 Mn216 2.094 1_556 S
O242 C220 1.240 . S
O243 Mn217 2.117 . S
O243 C220 1.264 . S
C244 C237 1.403 . S
C244 C245 1.399 . S
C244 H250 0.929 . S
C245 C225 1.449 . S
C245 C244 1.399 . S
C245 H251 0.930 . S
H246 C226 0.931 1_565 S
H247 C227 0.930 . S
H248 C235 0.931 . S
H249 C236 0.929 . S
H250 C244 0.929 . S
H251 C245 0.930 . S
Mn252 O257 2.095 1_554 S
Mn252 O267 2.162 . S
Mn252 O268 2.297 . S
Mn252 O276 2.385 . S
Mn252 O277 2.209 1_554 S
Mn252 O278 2.094 1_554 S
Mn253 O258 2.121 . S
Mn253 N260 2.257 1_655 S
Mn253 N269 2.282 1_655 S
Mn253 O277 2.215 . S
Mn253 O279 2.117 . S
C254 O276 1.236 . S
C254 O277 1.280 1_554 S
C255 O267 1.281 . S
C255 O268 1.236 . S
C256 O278 1.240 . S
C256 O279 1.264 . S
O257 Mn252 2.095 1_556 S
O257 C266 1.250 . S
O258 Mn253 2.121 . S
O258 C266 1.258 . S
C259 N260 1.326 . S
C259 C263 1.460 . S
C259 H265 0.929 1_455 S
N260 Mn253 2.257 1_455 S
N260 C259 1.326 . S
N260 C264 1.362 . S
C261 C262 1.258 . S
C261 C264 1.431 . S
C261 C281 1.449 . S
C262 C261 1.258 . S
C262 C263 1.477 . S
C262 H282 0.931 . S
C263 C259 1.460 . S
C263 C262 1.477 . S
C263 H283 0.930 . S
C264 N260 1.362 . S
C264 C261 1.431 . S
C264 C274 1.476 . S
H265 C259 0.929 1_655 S
C266 O257 1.250 . S
C266 O258 1.258 . S
O267 Mn252 2.162 . S
O267 C255 1.281 . S
O268 Mn252 2.297 . S
O268 C255 1.236 . S
N269 Mn253 2.282 1_455 S
N269 C270 1.328 . S
N269 C274 1.318 . S
C270 N269 1.328 . S
C270 C271 1.457 . S
C270 H275 0.929 1_455 S
C271 C270 1.457 . S
C271 C272 1.291 . S
C271 H284 0.931 . S
C272 C271 1.291 . S
C272 C273 1.373 . S
C272 H285 0.929 . S
C273 C272 1.373 . S
C273 C274 1.396 . S
C273 C280 1.403 . S
C274 C264 1.476 . S
C274 N269 1.318 . S
C274 C273 1.396 . S
H275 C270 0.929 1_655 S
O276 Mn252 2.385 . S
O276 C254 1.236 . S
O277 Mn252 2.209 1_556 S
O277 Mn253 2.215 . S
O277 C254 1.280 1_556 S
O278 Mn252 2.094 1_556 S
O278 C256 1.240 . S
O279 Mn253 2.117 . S
O279 C256 1.264 . S
C280 C273 1.403 . S
C280 C281 1.399 . S
C280 H286 0.929 . S
C281 C261 1.449 . S
C281 C280 1.399 . S
C281 H287 0.930 . S
H282 C262 0.931 . S
H283 C263 0.930 . S
H284 C271 0.931 . S
H285 C272 0.929 . S
H286 C280 0.929 . S
H287 C281 0.930 . S
Mn288 O293 2.095 . S
Mn288 O303 2.162 . S
Mn288 O304 2.297 . S
Mn288 O312 2.385 . S
Mn288 O313 2.209 . S
Mn288 O314 2.094 . S
Mn289 O294 2.121 . S
Mn289 N296 2.257 . S
Mn289 N305 2.282 . S
Mn289 O313 2.215 . S
Mn289 O315 2.117 . S
C290 O312 1.234 . S
C290 O313 1.283 . S
C291 O303 1.281 . S
C291 O304 1.236 . S
C292 O314 1.240 . S
C292 O315 1.264 . S
O293 Mn288 2.095 . S
O293 C302 1.250 . S
O294 Mn289 2.121 . S
O294 C302 1.258 . S
C295 N296 1.326 . S
C295 C299 1.460 . S
C295 H301 0.929 . S
N296 Mn289 2.257 . S
N296 C295 1.326 . S
N296 C300 1.362 . S
C297 C298 1.258 . S
C297 C300 1.431 . S
C297 C317 1.449 . S
C298 C297 1.258 . S
C298 C299 1.477 . S
C298 H318 0.931 . S
C299 C295 1.460 . S
C299 C298 1.477 . S
C299 H319 0.930 . S
C300 N296 1.362 . S
C300 C297 1.431 . S
C300 C310 1.476 . S
H301 C295 0.929 . S
C302 O293 1.250 . S
C302 O294 1.258 . S
O303 Mn288 2.162 . S
O303 C291 1.281 . S
O304 Mn288 2.297 . S
O304 C291 1.236 . S
N305 Mn289 2.282 . S
N305 C306 1.328 . S
N305 C310 1.318 . S
C306 N305 1.328 . S
C306 C307 1.457 . S
C306 H311 0.929 . S
C307 C306 1.457 . S
C307 C308 1.291 . S
C307 H320 0.931 . S
C308 C307 1.291 . S
C308 C309 1.373 . S
C308 H321 0.929 . S
C309 C308 1.373 . S
C309 C310 1.396 . S
C309 C316 1.403 . S
C310 C300 1.476 . S
C310 N305 1.318 . S
C310 C309 1.396 . S
H311 C306 0.929 . S
O312 Mn288 2.385 . S
O312 C290 1.234 . S
O313 Mn288 2.209 . S
O313 Mn289 2.215 . S
O313 C290 1.283 . S
O314 Mn288 2.094 . S
O314 C292 1.240 . S
O315 Mn289 2.117 . S
O315 C292 1.264 . S
C316 C309 1.403 . S
C316 C317 1.399 . S
C316 H322 0.929 . S
C317 C297 1.449 . S
C317 C316 1.399 . S
C317 H323 0.930 . S
H318 C298 0.931 . S
H319 C299 0.930 . S
H320 C307 0.931 . S
H321 C308 0.929 . S
H322 C316 0.929 . S
H323 C317 0.930 . S
Mn324 O329 2.095 . S
Mn324 O339 2.162 . S
Mn324 O340 2.297 . S
Mn324 O348 2.385 . S
Mn324 O349 2.209 . S
Mn324 O350 2.094 . S
Mn325 O330 2.121 . S
Mn325 N332 2.257 1_455 S
Mn325 N341 2.282 1_455 S
Mn325 O349 2.215 . S
Mn325 O351 2.117 . S
C326 O348 1.234 . S
C326 O349 1.283 . S
C327 O339 1.281 . S
C327 O340 1.236 . S
C328 O350 1.240 . S
C328 O351 1.264 . S
O329 Mn324 2.095 . S
O329 C338 1.250 . S
O330 Mn325 2.121 . S
O330 C338 1.258 . S
C331 N332 1.326 . S
C331 C335 1.460 . S
C331 H337 0.929 1_655 S
N332 Mn325 2.257 1_655 S
N332 C331 1.326 . S
N332 C336 1.362 . S
C333 C334 1.258 . S
C333 C336 1.431 . S
C333 C353 1.449 . S
C334 C333 1.258 . S
C334 C335 1.477 . S
C334 H354 0.931 . S
C335 C331 1.460 . S
C335 C334 1.477 . S
C335 H355 0.930 . S
C336 N332 1.362 . S
C336 C333 1.431 . S
C336 C346 1.476 . S
H337 C331 0.929 1_455 S
C338 O329 1.250 . S
C338 O330 1.258 . S
O339 Mn324 2.162 . S
O339 C327 1.281 . S
O340 Mn324 2.297 . S
O340 C327 1.236 . S
N341 Mn325 2.282 1_655 S
N341 C342 1.328 . S
N341 C346 1.318 . S
C342 N341 1.328 . S
C342 C343 1.457 . S
C342 H347 0.929 1_655 S
C343 C342 1.457 . S
C343 C344 1.291 . S
C343 H356 0.931 . S
C344 C343 1.291 . S
C344 C345 1.373 . S
C344 H357 0.929 . S
C345 C344 1.373 . S
C345 C346 1.396 . S
C345 C352 1.403 . S
C346 C336 1.476 . S
C346 N341 1.318 . S
C346 C345 1.396 . S
H347 C342 0.929 1_455 S
O348 Mn324 2.385 . S
O348 C326 1.234 . S
O349 Mn324 2.209 . S
O349 Mn325 2.215 . S
O349 C326 1.283 . S
O350 Mn324 2.094 . S
O350 C328 1.240 . S
O351 Mn325 2.117 . S
O351 C328 1.264 . S
C352 C345 1.403 . S
C352 C353 1.399 . S
C352 H358 0.929 . S
C353 C333 1.449 . S
C353 C352 1.399 . S
C353 H359 0.930 . S
H354 C334 0.931 . S
H355 C335 0.930 . S
H356 C343 0.931 . S
H357 C344 0.929 . S
H358 C352 0.929 . S
H359 C353 0.930 . S
Mn360 O365 2.095 . S
Mn360 O375 2.162 . S
Mn360 O376 2.297 . S
Mn360 O384 2.385 . S
Mn360 O385 2.209 . S
Mn360 O386 2.094 . S
Mn361 O366 2.121 . S
Mn361 N368 2.257 . S
Mn361 N377 2.282 . S
Mn361 O385 2.215 . S
Mn361 O387 2.117 . S
C362 O384 1.234 . S
C362 O385 1.283 . S
C363 O375 1.281 . S
C363 O376 1.236 . S
C364 O386 1.240 . S
C364 O387 1.264 . S
O365 Mn360 2.095 . S
O365 C374 1.250 . S
O366 Mn361 2.121 . S
O366 C374 1.258 . S
C367 N368 1.326 . S
C367 C371 1.460 . S
C367 H373 0.929 . S
N368 Mn361 2.257 . S
N368 C367 1.326 . S
N368 C372 1.362 . S
C369 C370 1.258 . S
C369 C372 1.431 . S
C369 C389 1.449 . S
C370 C369 1.258 . S
C370 C371 1.477 . S
C370 H390 0.931 . S
C371 C367 1.460 . S
C371 C370 1.477 . S
C371 H391 0.930 . S
C372 N368 1.362 . S
C372 C369 1.431 . S
C372 C382 1.476 . S
H373 C367 0.929 . S
C374 O365 1.250 . S
C374 O366 1.258 . S
O375 Mn360 2.162 . S
O375 C363 1.281 . S
O376 Mn360 2.297 . S
O376 C363 1.236 . S
N377 Mn361 2.282 . S
N377 C378 1.328 . S
N377 C382 1.318 . S
C378 N377 1.328 . S
C378 C379 1.457 . S
C378 H383 0.929 . S
C379 C378 1.457 . S
C379 C380 1.291 . S
C379 H392 0.931 . S
C380 C379 1.291 . S
C380 C381 1.373 . S
C380 H393 0.929 . S
C381 C380 1.373 . S
C381 C382 1.396 . S
C381 C388 1.403 . S
C382 C372 1.476 . S
C382 N377 1.318 . S
C382 C381 1.396 . S
H383 C378 0.929 . S
O384 Mn360 2.385 . S
O384 C362 1.234 . S
O385 Mn360 2.209 . S
O385 Mn361 2.215 . S
O385 C362 1.283 . S
O386 Mn360 2.094 . S
O386 C364 1.240 . S
O387 Mn361 2.117 . S
O387 C364 1.264 . S
C388 C381 1.403 . S
C388 C389 1.399 . S
C388 H394 0.929 . S
C389 C369 1.449 . S
C389 C388 1.399 . S
C389 H395 0.930 . S
H390 C370 0.931 . S
H391 C371 0.930 . S
H392 C379 0.931 . S
H393 C380 0.929 . S
H394 C388 0.929 . S
H395 C389 0.930 . S
Mn396 O401 2.095 . S
Mn396 O411 2.162 . S
Mn396 O412 2.297 . S
Mn396 O420 2.385 . S
Mn396 O421 2.209 . S
Mn396 O422 2.094 . S
Mn397 O402 2.121 . S
Mn397 N404 2.257 1_455 S
Mn397 N413 2.282 1_455 S
Mn397 O421 2.215 . S
Mn397 O423 2.117 . S
C398 O420 1.234 . S
C398 O421 1.283 . S
C399 O411 1.281 . S
C399 O412 1.236 . S
C400 O422 1.240 . S
C400 O423 1.264 . S
O401 Mn396 2.095 . S
O401 C410 1.250 . S
O402 Mn397 2.121 . S
O402 C410 1.258 . S
C403 N404 1.326 . S
C403 C407 1.460 . S
C403 H409 0.929 1_655 S
N404 Mn397 2.257 1_655 S
N404 C403 1.326 . S
N404 C408 1.362 . S
C405 C406 1.258 . S
C405 C408 1.431 . S
C405 C425 1.449 . S
C406 C405 1.258 . S
C406 C407 1.477 . S
C406 H426 0.931 . S
C407 C403 1.460 . S
C407 C406 1.477 . S
C407 H427 0.930 . S
C408 N404 1.362 . S
C408 C405 1.431 . S
C408 C418 1.476 . S
H409 C403 0.929 1_455 S
C410 O401 1.250 . S
C410 O402 1.258 . S
O411 Mn396 2.162 . S
O411 C399 1.281 . S
O412 Mn396 2.297 . S
O412 C399 1.236 . S
N413 Mn397 2.282 1_655 S
N413 C414 1.328 . S
N413 C418 1.318 . S
C414 N413 1.328 . S
C414 C415 1.457 . S
C414 H419 0.929 1_655 S
C415 C414 1.457 . S
C415 C416 1.291 . S
C415 H428 0.931 . S
C416 C415 1.291 . S
C416 C417 1.373 . S
C416 H429 0.929 . S
C417 C416 1.373 . S
C417 C418 1.396 . S
C417 C424 1.403 . S
C418 C408 1.476 . S
C418 N413 1.318 . S
C418 C417 1.396 . S
H419 C414 0.929 1_455 S
O420 Mn396 2.385 . S
O420 C398 1.234 . S
O421 Mn396 2.209 . S
O421 Mn397 2.215 . S
O421 C398 1.283 . S
O422 Mn396 2.094 . S
O422 C400 1.240 . S
O423 Mn397 2.117 . S
O423 C400 1.264 . S
C424 C417 1.403 . S
C424 C425 1.399 . S
C424 H430 0.929 . S
C425 C405 1.449 . S
C425 C424 1.399 . S
C425 H431 0.930 . S
H426 C406 0.931 . S
H427 C407 0.930 . S
H428 C415 0.931 . S
H429 C416 0.929 . S
H430 C424 0.929 . S
H431 C425 0.930 . S
Mn432 O437 2.095 . S
Mn432 O447 2.162 . S
Mn432 O448 2.297 . S
Mn432 O456 2.385 . S
Mn432 O457 2.209 . S
Mn432 O458 2.094 . S
Mn433 O438 2.121 . S
Mn433 N440 2.257 . S
Mn433 N449 2.282 . S
Mn433 O457 2.215 . S
Mn433 O459 2.117 . S
C434 O456 1.234 . S
C434 O457 1.283 . S
C435 O447 1.281 . S
C435 O448 1.236 . S
C436 O458 1.240 . S
C436 O459 1.264 . S
O437 Mn432 2.095 . S
O437 C446 1.250 . S
O438 Mn433 2.121 . S
O438 C446 1.258 . S
C439 N440 1.326 . S
C439 C443 1.460 . S
C439 H445 0.929 . S
N440 Mn433 2.257 . S
N440 C439 1.326 . S
N440 C444 1.362 . S
C441 C442 1.258 . S
C441 C444 1.431 . S
C441 C461 1.449 . S
C442 C441 1.258 . S
C442 C443 1.477 . S
C442 H462 0.931 . S
C443 C439 1.460 . S
C443 C442 1.477 . S
C443 H463 0.930 . S
C444 N440 1.362 . S
C444 C441 1.431 . S
C444 C454 1.476 . S
H445 C439 0.929 . S
C446 O437 1.250 . S
C446 O438 1.258 . S
O447 Mn432 2.162 . S
O447 C435 1.281 . S
O448 Mn432 2.297 . S
O448 C435 1.236 . S
N449 Mn433 2.282 . S
N449 C450 1.328 . S
N449 C454 1.318 . S
C450 N449 1.328 . S
C450 C451 1.457 . S
C450 H455 0.929 . S
C451 C450 1.457 . S
C451 C452 1.291 . S
C451 H464 0.931 . S
C452 C451 1.291 . S
C452 C453 1.373 . S
C452 H465 0.929 . S
C453 C452 1.373 . S
C453 C454 1.396 . S
C453 C460 1.403 . S
C454 C444 1.476 . S
C454 N449 1.318 . S
C454 C453 1.396 . S
H455 C450 0.929 . S
O456 Mn432 2.385 . S
O456 C434 1.234 . S
O457 Mn432 2.209 . S
O457 Mn433 2.215 . S
O457 C434 1.283 . S
O458 Mn432 2.094 . S
O458 C436 1.240 . S
O459 Mn433 2.117 . S
O459 C436 1.264 . S
C460 C453 1.403 . S
C460 C461 1.399 . S
C460 H466 0.929 . S
C461 C441 1.449 . S
C461 C460 1.399 . S
C461 H467 0.930 . S
H462 C442 0.931 . S
H463 C443 0.930 . S
H464 C451 0.931 . S
H465 C452 0.929 . S
H466 C460 0.929 . S
H467 C461 0.930 . S
Mn468 O473 2.095 . S
Mn468 O483 2.162 . S
Mn468 O484 2.297 . S
Mn468 O492 2.385 . S
Mn468 O493 2.209 . S
Mn468 O494 2.094 . S
Mn469 O474 2.121 . S
Mn469 N476 2.257 1_655 S
Mn469 N485 2.282 1_655 S
Mn469 O493 2.215 . S
Mn469 O495 2.117 . S
C470 O492 1.234 . S
C470 O493 1.283 . S
C471 O483 1.281 . S
C471 O484 1.236 . S
C472 O494 1.240 . S
C472 O495 1.264 . S
O473 Mn468 2.095 . S
O473 C482 1.250 . S
O474 Mn469 2.121 . S
O474 C482 1.258 . S
C475 N476 1.326 . S
C475 C479 1.460 . S
C475 H481 0.929 1_455 S
N476 Mn469 2.257 1_455 S
N476 C475 1.326 . S
N476 C480 1.362 . S
C477 C478 1.258 . S
C477 C480 1.431 . S
C477 C497 1.449 . S
C478 C477 1.258 . S
C478 C479 1.477 . S
C478 H498 0.931 . S
C479 C475 1.460 . S
C479 C478 1.477 . S
C479 H499 0.930 . S
C480 N476 1.362 . S
C480 C477 1.431 . S
C480 C490 1.476 . S
H481 C475 0.929 1_655 S
C482 O473 1.250 . S
C482 O474 1.258 . S
O483 Mn468 2.162 . S
O483 C471 1.281 . S
O484 Mn468 2.297 . S
O484 C471 1.236 . S
N485 Mn469 2.282 1_455 S
N485 C486 1.328 . S
N485 C490 1.318 . S
C486 N485 1.328 . S
C486 C487 1.457 . S
C486 H491 0.929 1_455 S
C487 C486 1.457 . S
C487 C488 1.291 . S
C487 H500 0.931 . S
C488 C487 1.291 . S
C488 C489 1.373 . S
C488 H501 0.929 . S
C489 C488 1.373 . S
C489 C490 1.396 . S
C489 C496 1.403 . S
C490 C480 1.476 . S
C490 N485 1.318 . S
C490 C489 1.396 . S
H491 C486 0.929 1_655 S
O492 Mn468 2.385 . S
O492 C470 1.234 . S
O493 Mn468 2.209 . S
O493 Mn469 2.215 . S
O493 C470 1.283 . S
O494 Mn468 2.094 . S
O494 C472 1.240 . S
O495 Mn469 2.117 . S
O495 C472 1.264 . S
C496 C489 1.403 . S
C496 C497 1.399 . S
C496 H502 0.929 . S
C497 C477 1.449 . S
C497 C496 1.399 . S
C497 H503 0.930 . S
H498 C478 0.931 . S
H499 C479 0.930 . S
H500 C487 0.931 . S
H501 C488 0.929 . S
H502 C496 0.929 . S
H503 C497 0.930 . S
Mn504 O509 2.095 . S
Mn504 O519 2.162 . S
Mn504 O520 2.297 . S
Mn504 O528 2.385 . S
Mn504 O529 2.209 . S
Mn504 O530 2.094 . S
Mn505 O510 2.121 . S
Mn505 N512 2.257 . S
Mn505 N521 2.282 . S
Mn505 O529 2.215 . S
Mn505 O531 2.117 . S
C506 O528 1.234 . S
C506 O529 1.283 . S
C507 O519 1.281 . S
C507 O520 1.236 . S
C508 O530 1.240 . S
C508 O531 1.264 . S
O509 Mn504 2.095 . S
O509 C518 1.250 . S
O510 Mn505 2.121 . S
O510 C518 1.258 . S
C511 N512 1.326 . S
C511 C515 1.460 . S
C511 H517 0.929 . S
N512 Mn505 2.257 . S
N512 C511 1.326 . S
N512 C516 1.362 . S
C513 C514 1.258 . S
C513 C516 1.431 . S
C513 C533 1.449 . S
C514 C513 1.258 . S
C514 C515 1.477 . S
C514 H534 0.931 . S
C515 C511 1.460 . S
C515 C514 1.477 . S
C515 H535 0.930 . S
C516 N512 1.362 . S
C516 C513 1.431 . S
C516 C526 1.476 . S
H517 C511 0.929 . S
C518 O509 1.250 . S
C518 O510 1.258 . S
O519 Mn504 2.162 . S
O519 C507 1.281 . S
O520 Mn504 2.297 . S
O520 C507 1.236 . S
N521 Mn505 2.282 . S
N521 C522 1.328 . S
N521 C526 1.318 . S
C522 N521 1.328 . S
C522 C523 1.457 . S
C522 H527 0.929 . S
C523 C522 1.457 . S
C523 C524 1.291 . S
C523 H536 0.931 . S
C524 C523 1.291 . S
C524 C525 1.373 . S
C524 H537 0.929 . S
C525 C524 1.373 . S
C525 C526 1.396 . S
C525 C532 1.403 . S
C526 C516 1.476 . S
C526 N521 1.318 . S
C526 C525 1.396 . S
H527 C522 0.929 . S
O528 Mn504 2.385 . S
O528 C506 1.234 . S
O529 Mn504 2.209 . S
O529 Mn505 2.215 . S
O529 C506 1.283 . S
O530 Mn504 2.094 . S
O530 C508 1.240 . S
O531 Mn505 2.117 . S
O531 C508 1.264 . S
C532 C525 1.403 . S
C532 C533 1.399 . S
C532 H538 0.929 . S
C533 C513 1.449 . S
C533 C532 1.399 . S
C533 H539 0.930 . S
H534 C514 0.931 . S
H535 C515 0.930 . S
H536 C523 0.931 . S
H537 C524 0.929 . S
H538 C532 0.929 . S
H539 C533 0.930 . S
Mn540 O545 2.095 . S
Mn540 O555 2.162 . S
Mn540 O556 2.297 . S
Mn540 O564 2.385 . S
Mn540 O565 2.209 . S
Mn540 O566 2.094 . S
Mn541 O546 2.121 . S
Mn541 N548 2.257 1_655 S
Mn541 N557 2.282 1_655 S
Mn541 O565 2.215 . S
Mn541 O567 2.117 . S
C542 O564 1.234 . S
C542 O565 1.283 . S
C543 O555 1.281 . S
C543 O556 1.236 . S
C544 O566 1.240 . S
C544 O567 1.264 . S
O545 Mn540 2.095 . S
O545 C554 1.250 . S
O546 Mn541 2.121 . S
O546 C554 1.258 . S
C547 N548 1.326 . S
C547 C551 1.460 . S
C547 H553 0.929 1_455 S
N548 Mn541 2.257 1_455 S
N548 C547 1.326 . S
N548 C552 1.362 . S
C549 C550 1.258 . S
C549 C552 1.431 . S
C549 C569 1.449 . S
C550 C549 1.258 . S
C550 C551 1.477 . S
C550 H570 0.931 . S
C551 C547 1.460 . S
C551 C550 1.477 . S
C551 H571 0.930 . S
C552 N548 1.362 . S
C552 C549 1.431 . S
C552 C562 1.476 . S
H553 C547 0.929 1_655 S
C554 O545 1.250 . S
C554 O546 1.258 . S
O555 Mn540 2.162 . S
O555 C543 1.281 . S
O556 Mn540 2.297 . S
O556 C543 1.236 . S
N557 Mn541 2.282 1_455 S
N557 C558 1.328 . S
N557 C562 1.318 . S
C558 N557 1.328 . S
C558 C559 1.457 . S
C558 H563 0.929 1_455 S
C559 C558 1.457 . S
C559 C560 1.291 . S
C559 H572 0.931 . S
C560 C559 1.291 . S
C560 C561 1.373 . S
C560 H573 0.929 . S
C561 C560 1.373 . S
C561 C562 1.396 . S
C561 C568 1.403 . S
C562 C552 1.476 . S
C562 N557 1.318 . S
C562 C561 1.396 . S
H563 C558 0.929 1_655 S
O564 Mn540 2.385 . S
O564 C542 1.234 . S
O565 Mn540 2.209 . S
O565 Mn541 2.215 . S
O565 C542 1.283 . S
O566 Mn540 2.094 . S
O566 C544 1.240 . S
O567 Mn541 2.117 . S
O567 C544 1.264 . S
C568 C561 1.403 . S
C568 C569 1.399 . S
C568 H574 0.929 . S
C569 C549 1.449 . S
C569 C568 1.399 . S
C569 H575 0.930 . S
H570 C550 0.931 . S
H571 C551 0.930 . S
H572 C559 0.931 . S
H573 C560 0.929 . S
H574 C568 0.929 . S
H575 C569 0.930 . S
Mn576 O581 2.095 . S
Mn576 O591 2.162 . S
Mn576 O592 2.297 . S
Mn576 O600 2.385 . S
Mn576 O601 2.209 . S
Mn576 O602 2.094 . S
Mn577 O582 2.121 . S
Mn577 N584 2.257 . S
Mn577 N593 2.282 . S
Mn577 O601 2.215 . S
Mn577 O603 2.117 . S
C578 O600 1.234 . S
C578 O601 1.283 . S
C579 O591 1.281 . S
C579 O592 1.236 . S
C580 O602 1.240 . S
C580 O603 1.264 . S
O581 Mn576 2.095 . S
O581 C590 1.250 . S
O582 Mn577 2.121 . S
O582 C590 1.258 . S
C583 N584 1.326 . S
C583 C587 1.460 . S
C583 H589 0.929 . S
N584 Mn577 2.257 . S
N584 C583 1.326 . S
N584 C588 1.362 . S
C585 C586 1.258 . S
C585 C588 1.431 . S
C585 C605 1.449 . S
C586 C585 1.258 . S
C586 C587 1.477 . S
C586 H606 0.931 . S
C587 C583 1.460 . S
C587 C586 1.477 . S
C587 H607 0.930 . S
C588 N584 1.362 . S
C588 C585 1.431 . S
C588 C598 1.476 . S
H589 C583 0.929 . S
C590 O581 1.250 . S
C590 O582 1.258 . S
O591 Mn576 2.162 . S
O591 C579 1.281 . S
O592 Mn576 2.297 . S
O592 C579 1.236 . S
N593 Mn577 2.282 . S
N593 C594 1.328 . S
N593 C598 1.318 . S
C594 N593 1.328 . S
C594 C595 1.457 . S
C594 H599 0.929 . S
C595 C594 1.457 . S
C595 C596 1.291 . S
C595 H608 0.931 . S
C596 C595 1.291 . S
C596 C597 1.373 . S
C596 H609 0.929 . S
C597 C596 1.373 . S
C597 C598 1.396 . S
C597 C604 1.403 . S
C598 C588 1.476 . S
C598 N593 1.318 . S
C598 C597 1.396 . S
H599 C594 0.929 . S
O600 Mn576 2.385 . S
O600 C578 1.234 . S
O601 Mn576 2.209 . S
O601 Mn577 2.215 . S
O601 C578 1.283 . S
O602 Mn576 2.094 . S
O602 C580 1.240 . S
O603 Mn577 2.117 . S
O603 C580 1.264 . S
C604 C597 1.403 . S
C604 C605 1.399 . S
C604 H610 0.929 . S
C605 C585 1.449 . S
C605 C604 1.399 . S
C605 H611 0.930 . S
H606 C586 0.931 . S
H607 C587 0.930 . S
H608 C595 0.931 . S
H609 C596 0.929 . S
H610 C604 0.929 . S
H611 C605 0.930 . S
Mn612 O617 2.095 . S
Mn612 O627 2.162 . S
Mn612 O628 2.297 . S
Mn612 O636 2.385 . S
Mn612 O637 2.209 . S
Mn612 O638 2.094 . S
Mn613 O618 2.121 . S
Mn613 N620 2.257 . S
Mn613 N629 2.282 . S
Mn613 O637 2.215 . S
Mn613 O639 2.117 . S
C614 O636 1.234 . S
C614 O637 1.283 . S
C615 O627 1.281 . S
C615 O628 1.236 . S
C616 O638 1.240 . S
C616 O639 1.264 . S
O617 Mn612 2.095 . S
O617 C626 1.250 . S
O618 Mn613 2.121 . S
O618 C626 1.258 . S
C619 N620 1.326 . S
C619 C623 1.460 1_565 S
C619 H625 0.929 . S
N620 Mn613 2.257 . S
N620 C619 1.326 . S
N620 C624 1.362 . S
C621 C622 1.258 . S
C621 C624 1.431 . S
C621 C641 1.449 . S
C622 C621 1.258 . S
C622 C623 1.477 1_565 S
C622 H642 0.931 1_565 S
C623 C619 1.460 1_545 S
C623 C622 1.477 1_545 S
C623 H643 0.930 . S
C624 N620 1.362 . S
C624 C621 1.431 . S
C624 C634 1.476 . S
H625 C619 0.929 . S
C626 O617 1.250 . S
C626 O618 1.258 . S
O627 Mn612 2.162 . S
O627 C615 1.281 . S
O628 Mn612 2.297 . S
O628 C615 1.236 . S
N629 Mn613 2.282 . S
N629 C630 1.328 . S
N629 C634 1.318 . S
C630 N629 1.328 . S
C630 C631 1.457 . S
C630 H635 0.929 . S
C631 C630 1.457 . S
C631 C632 1.291 . S
C631 H644 0.931 . S
C632 C631 1.291 . S
C632 C633 1.373 . S
C632 H645 0.929 . S
C633 C632 1.373 . S
C633 C634 1.396 . S
C633 C640 1.403 . S
C634 C624 1.476 . S
C634 N629 1.318 . S
C634 C633 1.396 . S
H635 C630 0.929 . S
O636 Mn612 2.385 . S
O636 C614 1.234 . S
O637 Mn612 2.209 . S
O637 Mn613 2.215 . S
O637 C614 1.283 . S
O638 Mn612 2.094 . S
O638 C616 1.240 . S
O639 Mn613 2.117 . S
O639 C616 1.264 . S
C640 C633 1.403 . S
C640 C641 1.399 . S
C640 H646 0.929 . S
C641 C621 1.449 . S
C641 C640 1.399 . S
C641 H647 0.930 . S
H642 C622 0.931 1_545 S
H643 C623 0.930 . S
H644 C631 0.931 . S
H645 C632 0.929 . S
H646 C640 0.929 . S
H647 C641 0.930 . S
Mn648 O653 2.095 . S
Mn648 O663 2.162 . S
Mn648 O664 2.297 . S
Mn648 O672 2.385 . S
Mn648 O673 2.209 . S
Mn648 O674 2.094 . S
Mn649 O654 2.121 . S
Mn649 N656 2.257 . S
Mn649 N665 2.282 . S
Mn649 O673 2.215 . S
Mn649 O675 2.117 . S
C650 O672 1.234 . S
C650 O673 1.283 . S
C651 O663 1.281 . S
C651 O664 1.236 . S
C652 O674 1.240 . S
C652 O675 1.264 . S
O653 Mn648 2.095 . S
O653 C662 1.250 . S
O654 Mn649 2.121 . S
O654 C662 1.258 . S
C655 N656 1.326 . S
C655 C659 1.460 1_565 S
C655 H661 0.929 . S
N656 Mn649 2.257 . S
N656 C655 1.326 . S
N656 C660 1.362 . S
C657 C658 1.258 . S
C657 C660 1.431 . S
C657 C677 1.449 . S
C658 C657 1.258 . S
C658 C659 1.477 1_565 S
C658 H678 0.931 1_565 S
C659 C655 1.460 1_545 S
C659 C658 1.477 1_545 S
C659 H679 0.930 . S
C660 N656 1.362 . S
C660 C657 1.431 . S
C660 C670 1.476 . S
H661 C655 0.929 . S
C662 O653 1.250 . S
C662 O654 1.258 . S
O663 Mn648 2.162 . S
O663 C651 1.281 . S
O664 Mn648 2.297 . S
O664 C651 1.236 . S
N665 Mn649 2.282 . S
N665 C666 1.328 . S
N665 C670 1.318 . S
C666 N665 1.328 . S
C666 C667 1.457 . S
C666 H671 0.929 . S
C667 C666 1.457 . S
C667 C668 1.291 . S
C667 H680 0.931 . S
C668 C667 1.291 . S
C668 C669 1.373 . S
C668 H681 0.929 . S
C669 C668 1.373 . S
C669 C670 1.396 . S
C669 C676 1.403 . S
C670 C660 1.476 . S
C670 N665 1.318 . S
C670 C669 1.396 . S
H671 C666 0.929 . S
O672 Mn648 2.385 . S
O672 C650 1.234 . S
O673 Mn648 2.209 . S
O673 Mn649 2.215 . S
O673 C650 1.283 . S
O674 Mn648 2.094 . S
O674 C652 1.240 . S
O675 Mn649 2.117 . S
O675 C652 1.264 . S
C676 C669 1.403 . S
C676 C677 1.399 . S
C676 H682 0.929 . S
C677 C657 1.449 . S
C677 C676 1.399 . S
C677 H683 0.930 . S
H678 C658 0.931 1_545 S
H679 C659 0.930 . S
H680 C667 0.931 . S
H681 C668 0.929 . S
H682 C676 0.929 . S
H683 C677 0.930 . S
Mn684 O689 2.095 . S
Mn684 O699 2.162 . S
Mn684 O700 2.297 . S
Mn684 O708 2.385 . S
Mn684 O709 2.209 . S
Mn684 O710 2.094 . S
Mn685 O690 2.121 . S
Mn685 N692 2.257 . S
Mn685 N701 2.282 . S
Mn685 O709 2.215 . S
Mn685 O711 2.117 . S
C686 O708 1.234 . S
C686 O709 1.283 . S
C687 O699 1.281 . S
C687 O700 1.236 . S
C688 O710 1.240 . S
C688 O711 1.264 . S
O689 Mn684 2.095 . S
O689 C698 1.250 . S
O690 Mn685 2.121 . S
O690 C698 1.258 . S
C691 N692 1.326 . S
C691 C695 1.460 . S
C691 H697 0.929 . S
N692 Mn685 2.257 . S
N692 C691 1.326 . S
N692 C696 1.362 . S
C693 C694 1.258 . S
C693 C696 1.431 . S
C693 C713 1.449 . S
C694 C693 1.258 . S
C694 C695 1.477 . S
C694 H714 0.931 . S
C695 C691 1.460 . S
C695 C694 1.477 . S
C695 H715 0.930 . S
C696 N692 1.362 . S
C696 C693 1.431 . S
C696 C706 1.476 . S
H697 C691 0.929 . S
C698 O689 1.250 . S
C698 O690 1.258 . S
O699 Mn684 2.162 . S
O699 C687 1.281 . S
O700 Mn684 2.297 . S
O700 C687 1.236 . S
N701 Mn685 2.282 . S
N701 C702 1.328 . S
N701 C706 1.318 . S
C702 N701 1.328 . S
C702 C703 1.457 . S
C702 H707 0.929 . S
C703 C702 1.457 . S
C703 C704 1.291 . S
C703 H716 0.931 . S
C704 C703 1.291 . S
C704 C705 1.373 . S
C704 H717 0.929 . S
C705 C704 1.373 . S
C705 C706 1.396 . S
C705 C712 1.403 . S
C706 C696 1.476 . S
C706 N701 1.318 . S
C706 C705 1.396 . S
H707 C702 0.929 . S
O708 Mn684 2.385 . S
O708 C686 1.234 . S
O709 Mn684 2.209 . S
O709 Mn685 2.215 . S
O709 C686 1.283 . S
O710 Mn684 2.094 . S
O710 C688 1.240 . S
O711 Mn685 2.117 . S
O711 C688 1.264 . S
C712 C705 1.403 . S
C712 C713 1.399 . S
C712 H718 0.929 . S
C713 C693 1.449 . S
C713 C712 1.399 . S
C713 H719 0.930 . S
H714 C694 0.931 . S
H715 C695 0.930 . S
H716 C703 0.931 . S
H717 C704 0.929 . S
H718 C712 0.929 . S
H719 C713 0.930 . S
Mn720 O725 2.095 . S
Mn720 O735 2.162 . S
Mn720 O736 2.297 . S
Mn720 O744 2.385 . S
Mn720 O745 2.209 . S
Mn720 O746 2.094 . S
Mn721 O726 2.121 . S
Mn721 N728 2.257 . S
Mn721 N737 2.282 . S
Mn721 O745 2.215 . S
Mn721 O747 2.117 . S
C722 O744 1.234 . S
C722 O745 1.283 . S
C723 O735 1.281 . S
C723 O736 1.236 . S
C724 O746 1.240 . S
C724 O747 1.264 . S
O725 Mn720 2.095 . S
O725 C734 1.250 . S
O726 Mn721 2.121 . S
O726 C734 1.258 . S
C727 N728 1.326 . S
C727 C731 1.460 . S
C727 H733 0.929 . S
N728 Mn721 2.257 . S
N728 C727 1.326 . S
N728 C732 1.362 . S
C729 C730 1.258 . S
C729 C732 1.431 . S
C729 C749 1.449 . S
C730 C729 1.258 . S
C730 C731 1.477 . S
C730 H750 0.931 . S
C731 C727 1.460 . S
C731 C730 1.477 . S
C731 H751 0.930 . S
C732 N728 1.362 . S
C732 C729 1.431 . S
C732 C742 1.476 . S
H733 C727 0.929 . S
C734 O725 1.250 . S
C734 O726 1.258 . S
O735 Mn720 2.162 . S
O735 C723 1.281 . S
O736 Mn720 2.297 . S
O736 C723 1.236 . S
N737 Mn721 2.282 . S
N737 C738 1.328 . S
N737 C742 1.318 . S
C738 N737 1.328 . S
C738 C739 1.457 . S
C738 H743 0.929 . S
C739 C738 1.457 . S
C739 C740 1.291 . S
C739 H752 0.931 . S
C740 C739 1.291 . S
C740 C741 1.373 . S
C740 H753 0.929 . S
C741 C740 1.373 . S
C741 C742 1.396 . S
C741 C748 1.403 . S
C742 C732 1.476 . S
C742 N737 1.318 . S
C742 C741 1.396 . S
H743 C738 0.929 . S
O744 Mn720 2.385 . S
O744 C722 1.234 . S
O745 Mn720 2.209 . S
O745 Mn721 2.215 . S
O745 C722 1.283 . S
O746 Mn720 2.094 . S
O746 C724 1.240 . S
O747 Mn721 2.117 . S
O747 C724 1.264 . S
C748 C741 1.403 . S
C748 C749 1.399 . S
C748 H754 0.929 . S
C749 C729 1.449 . S
C749 C748 1.399 . S
C749 H755 0.930 . S
H750 C730 0.931 . S
H751 C731 0.930 . S
H752 C739 0.931 . S
H753 C740 0.929 . S
H754 C748 0.929 . S
H755 C749 0.930 . S
Mn756 O761 2.095 . S
Mn756 O771 2.162 . S
Mn756 O772 2.297 . S
Mn756 O780 2.385 . S
Mn756 O781 2.209 . S
Mn756 O782 2.094 . S
Mn757 O762 2.121 . S
Mn757 N764 2.257 . S
Mn757 N773 2.282 . S
Mn757 O781 2.215 . S
Mn757 O783 2.117 . S
C758 O780 1.234 . S
C758 O781 1.283 . S
C759 O771 1.281 . S
C759 O772 1.236 . S
C760 O782 1.240 . S
C760 O783 1.264 . S
O761 Mn756 2.095 . S
O761 C770 1.250 . S
O762 Mn757 2.121 . S
O762 C770 1.258 . S
C763 N764 1.326 . S
C763 C767 1.460 1_545 S
C763 H769 0.929 . S
N764 Mn757 2.257 . S
N764 C763 1.326 . S
N764 C768 1.362 . S
C765 C766 1.258 . S
C765 C768 1.431 . S
C765 C785 1.449 . S
C766 C765 1.258 . S
C766 C767 1.477 1_545 S
C766 H786 0.931 1_545 S
C767 C763 1.460 1_565 S
C767 C766 1.477 1_565 S
C767 H787 0.930 . S
C768 N764 1.362 . S
C768 C765 1.431 . S
C768 C778 1.476 . S
H769 C763 0.929 . S
C770 O761 1.250 . S
C770 O762 1.258 . S
O771 Mn756 2.162 . S
O771 C759 1.281 . S
O772 Mn756 2.297 . S
O772 C759 1.236 . S
N773 Mn757 2.282 . S
N773 C774 1.328 . S
N773 C778 1.318 . S
C774 N773 1.328 . S
C774 C775 1.457 . S
C774 H779 0.929 . S
C775 C774 1.457 . S
C775 C776 1.291 . S
C775 H788 0.931 . S
C776 C775 1.291 . S
C776 C777 1.373 . S
C776 H789 0.929 . S
C777 C776 1.373 . S
C777 C778 1.396 . S
C777 C784 1.403 . S
C778 C768 1.476 . S
C778 N773 1.318 . S
C778 C777 1.396 . S
H779 C774 0.929 . S
O780 Mn756 2.385 . S
O780 C758 1.234 . S
O781 Mn756 2.209 . S
O781 Mn757 2.215 . S
O781 C758 1.283 . S
O782 Mn756 2.094 . S
O782 C760 1.240 . S
O783 Mn757 2.117 . S
O783 C760 1.264 . S
C784 C777 1.403 . S
C784 C785 1.399 . S
C784 H790 0.929 . S
C785 C765 1.449 . S
C785 C784 1.399 . S
C785 H791 0.930 . S
H786 C766 0.931 1_565 S
H787 C767 0.930 . S
H788 C775 0.931 . S
H789 C776 0.929 . S
H790 C784 0.929 . S
H791 C785 0.930 . S
Mn792 O797 2.095 . S
Mn792 O807 2.162 . S
Mn792 O808 2.297 . S
Mn792 O816 2.385 . S
Mn792 O817 2.209 . S
Mn792 O818 2.094 . S
Mn793 O798 2.121 . S
Mn793 N800 2.257 . S
Mn793 N809 2.282 . S
Mn793 O817 2.215 . S
Mn793 O819 2.117 . S
C794 O816 1.234 . S
C794 O817 1.283 . S
C795 O807 1.281 . S
C795 O808 1.236 . S
C796 O818 1.240 . S
C796 O819 1.264 . S
O797 Mn792 2.095 . S
O797 C806 1.250 . S
O798 Mn793 2.121 . S
O798 C806 1.258 . S
C799 N800 1.326 . S
C799 C803 1.460 1_545 S
C799 H805 0.929 . S
N800 Mn793 2.257 . S
N800 C799 1.326 . S
N800 C804 1.362 . S
C801 C802 1.258 . S
C801 C804 1.431 . S
C801 C821 1.449 . S
C802 C801 1.258 . S
C802 C803 1.477 1_545 S
C802 H822 0.931 1_545 S
C803 C799 1.460 1_565 S
C803 C802 1.477 1_565 S
C803 H823 0.930 . S
C804 N800 1.362 . S
C804 C801 1.431 . S
C804 C814 1.476 . S
H805 C799 0.929 . S
C806 O797 1.250 . S
C806 O798 1.258 . S
O807 Mn792 2.162 . S
O807 C795 1.281 . S
O808 Mn792 2.297 . S
O808 C795 1.236 . S
N809 Mn793 2.282 . S
N809 C810 1.328 . S
N809 C814 1.318 . S
C810 N809 1.328 . S
C810 C811 1.457 . S
C810 H815 0.929 . S
C811 C810 1.457 . S
C811 C812 1.291 . S
C811 H824 0.931 . S
C812 C811 1.291 . S
C812 C813 1.373 . S
C812 H825 0.929 . S
C813 C812 1.373 . S
C813 C814 1.396 . S
C813 C820 1.403 . S
C814 C804 1.476 . S
C814 N809 1.318 . S
C814 C813 1.396 . S
H815 C810 0.929 . S
O816 Mn792 2.385 . S
O816 C794 1.234 . S
O817 Mn792 2.209 . S
O817 Mn793 2.215 . S
O817 C794 1.283 . S
O818 Mn792 2.094 . S
O818 C796 1.240 . S
O819 Mn793 2.117 . S
O819 C796 1.264 . S
C820 C813 1.403 . S
C820 C821 1.399 . S
C820 H826 0.929 . S
C821 C801 1.449 . S
C821 C820 1.399 . S
C821 H827 0.930 . S
H822 C802 0.931 1_565 S
H823 C803 0.930 . S
H824 C811 0.931 . S
H825 C812 0.929 . S
H826 C820 0.929 . S
H827 C821 0.930 . S
Mn828 O833 2.095 . S
Mn828 O843 2.162 . S
Mn828 O844 2.297 . S
Mn828 O852 2.385 . S
Mn828 O853 2.209 . S
Mn828 O854 2.094 . S
Mn829 O834 2.121 . S
Mn829 N836 2.257 . S
Mn829 N845 2.282 . S
Mn829 O853 2.215 . S
Mn829 O855 2.117 . S
C830 O852 1.234 . S
C830 O853 1.283 . S
C831 O843 1.281 . S
C831 O844 1.236 . S
C832 O854 1.240 . S
C832 O855 1.264 . S
O833 Mn828 2.095 . S
O833 C842 1.250 . S
O834 Mn829 2.121 . S
O834 C842 1.258 . S
C835 N836 1.326 . S
C835 C839 1.460 . S
C835 H841 0.929 . S
N836 Mn829 2.257 . S
N836 C835 1.326 . S
N836 C840 1.362 . S
C837 C838 1.258 . S
C837 C840 1.431 . S
C837 C857 1.449 . S
C838 C837 1.258 . S
C838 C839 1.477 . S
C838 H858 0.931 . S
C839 C835 1.460 . S
C839 C838 1.477 . S
C839 H859 0.930 . S
C840 N836 1.362 . S
C840 C837 1.431 . S
C840 C850 1.476 . S
H841 C835 0.929 . S
C842 O833 1.250 . S
C842 O834 1.258 . S
O843 Mn828 2.162 . S
O843 C831 1.281 . S
O844 Mn828 2.297 . S
O844 C831 1.236 . S
N845 Mn829 2.282 . S
N845 C846 1.328 . S
N845 C850 1.318 . S
C846 N845 1.328 . S
C846 C847 1.457 . S
C846 H851 0.929 . S
C847 C846 1.457 . S
C847 C848 1.291 . S
C847 H860 0.931 . S
C848 C847 1.291 . S
C848 C849 1.373 . S
C848 H861 0.929 . S
C849 C848 1.373 . S
C849 C850 1.396 . S
C849 C856 1.403 . S
C850 C840 1.476 . S
C850 N845 1.318 . S
C850 C849 1.396 . S
H851 C846 0.929 . S
O852 Mn828 2.385 . S
O852 C830 1.234 . S
O853 Mn828 2.209 . S
O853 Mn829 2.215 . S
O853 C830 1.283 . S
O854 Mn828 2.094 . S
O854 C832 1.240 . S
O855 Mn829 2.117 . S
O855 C832 1.264 . S
C856 C849 1.403 . S
C856 C857 1.399 . S
C856 H862 0.929 . S
C857 C837 1.449 . S
C857 C856 1.399 . S
C857 H863 0.930 . S
H858 C838 0.931 . S
H859 C839 0.930 . S
H860 C847 0.931 . S
H861 C848 0.929 . S
H862 C856 0.929 . S
H863 C857 0.930 . S
Mn864 O869 2.095 . S
Mn864 O879 2.162 . S
Mn864 O880 2.297 . S
Mn864 O888 2.385 . S
Mn864 O889 2.209 . S
Mn864 O890 2.094 . S
Mn865 O870 2.121 . S
Mn865 N872 2.257 . S
Mn865 N881 2.282 . S
Mn865 O889 2.215 . S
Mn865 O891 2.117 . S
C866 O888 1.234 . S
C866 O889 1.283 . S
C867 O879 1.281 . S
C867 O880 1.236 . S
C868 O890 1.240 . S
C868 O891 1.264 . S
O869 Mn864 2.095 . S
O869 C878 1.250 . S
O870 Mn865 2.121 . S
O870 C878 1.258 . S
C871 N872 1.326 . S
C871 C875 1.460 . S
C871 H877 0.929 . S
N872 Mn865 2.257 . S
N872 C871 1.326 . S
N872 C876 1.362 . S
C873 C874 1.258 . S
C873 C876 1.431 . S
C873 C893 1.449 . S
C874 C873 1.258 . S
C874 C875 1.477 . S
C874 H894 0.931 . S
C875 C871 1.460 . S
C875 C874 1.477 . S
C875 H895 0.930 . S
C876 N872 1.362 . S
C876 C873 1.431 . S
C876 C886 1.476 . S
H877 C871 0.929 . S
C878 O869 1.250 . S
C878 O870 1.258 . S
O879 Mn864 2.162 . S
O879 C867 1.281 . S
O880 Mn864 2.297 . S
O880 C867 1.236 . S
N881 Mn865 2.282 . S
N881 C882 1.328 . S
N881 C886 1.318 . S
C882 N881 1.328 . S
C882 C883 1.457 . S
C882 H887 0.929 . S
C883 C882 1.457 . S
C883 C884 1.291 . S
C883 H896 0.931 . S
C884 C883 1.291 . S
C884 C885 1.373 . S
C884 H897 0.929 . S
C885 C884 1.373 . S
C885 C886 1.396 . S
C885 C892 1.403 . S
C886 C876 1.476 . S
C886 N881 1.318 . S
C886 C885 1.396 . S
H887 C882 0.929 . S
O888 Mn864 2.385 . S
O888 C866 1.234 . S
O889 Mn864 2.209 . S
O889 Mn865 2.215 . S
O889 C866 1.283 . S
O890 Mn864 2.094 . S
O890 C868 1.240 . S
O891 Mn865 2.117 . S
O891 C868 1.264 . S
C892 C885 1.403 . S
C892 C893 1.399 . S
C892 H898 0.929 . S
C893 C873 1.449 . S
C893 C892 1.399 . S
C893 H899 0.930 . S
H894 C874 0.931 . S
H895 C875 0.930 . S
H896 C883 0.931 . S
H897 C884 0.929 . S
H898 C892 0.929 . S
H899 C893 0.930 . S
Mn900 O905 2.095 . S
Mn900 O915 2.162 . S
Mn900 O916 2.297 . S
Mn900 O924 2.385 . S
Mn900 O925 2.209 . S
Mn900 O926 2.094 . S
Mn901 O906 2.121 . S
Mn901 N908 2.257 . S
Mn901 N917 2.282 . S
Mn901 O925 2.215 . S
Mn901 O927 2.117 . S
C902 O924 1.234 . S
C902 O925 1.283 . S
C903 O915 1.281 . S
C903 O916 1.236 . S
C904 O926 1.240 . S
C904 O927 1.264 . S
O905 Mn900 2.095 . S
O905 C914 1.250 . S
O906 Mn901 2.121 . S
O906 C914 1.258 . S
C907 N908 1.326 . S
C907 C911 1.460 . S
C907 H913 0.929 . S
N908 Mn901 2.257 . S
N908 C907 1.326 . S
N908 C912 1.362 . S
C909 C910 1.258 . S
C909 C912 1.431 . S
C909 C929 1.449 . S
C910 C909 1.258 . S
C910 C911 1.477 . S
C910 H930 0.931 . S
C911 C907 1.460 . S
C911 C910 1.477 . S
C911 H931 0.930 . S
C912 N908 1.362 . S
C912 C909 1.431 . S
C912 C922 1.476 . S
H913 C907 0.929 . S
C914 O905 1.250 . S
C914 O906 1.258 . S
O915 Mn900 2.162 . S
O915 C903 1.281 . S
O916 Mn900 2.297 . S
O916 C903 1.236 . S
N917 Mn901 2.282 . S
N917 C918 1.328 . S
N917 C922 1.318 . S
C918 N917 1.328 . S
C918 C919 1.457 . S
C918 H923 0.929 . S
C919 C918 1.457 . S
C919 C920 1.291 . S
C919 H932 0.931 . S
C920 C919 1.291 . S
C920 C921 1.373 . S
C920 H933 0.929 . S
C921 C920 1.373 . S
C921 C922 1.396 . S
C921 C928 1.403 . S
C922 C912 1.476 . S
C922 N917 1.318 . S
C922 C921 1.396 . S
H923 C918 0.929 . S
O924 Mn900 2.385 . S
O924 C902 1.234 . S
O925 Mn900 2.209 . S
O925 Mn901 2.215 . S
O925 C902 1.283 . S
O926 Mn900 2.094 . S
O926 C904 1.240 . S
O927 Mn901 2.117 . S
O927 C904 1.264 . S
C928 C921 1.403 . S
C928 C929 1.399 . S
C928 H934 0.929 . S
C929 C909 1.449 . S
C929 C928 1.399 . S
C929 H935 0.930 . S
H930 C910 0.931 . S
H931 C911 0.930 . S
H932 C919 0.931 . S
H933 C920 0.929 . S
H934 C928 0.929 . S
H935 C929 0.930 . S
Mn936 O941 2.095 1_556 S
Mn936 O951 2.162 . S
Mn936 O952 2.297 . S
Mn936 O960 2.385 . S
Mn936 O961 2.209 1_556 S
Mn936 O962 2.094 1_556 S
Mn937 O942 2.121 . S
Mn937 N944 2.257 . S
Mn937 N953 2.282 . S
Mn937 O961 2.215 . S
Mn937 O963 2.117 . S
C938 O960 1.236 . S
C938 O961 1.280 1_556 S
C939 O951 1.281 . S
C939 O952 1.236 . S
C940 O962 1.240 . S
C940 O963 1.264 . S
O941 Mn936 2.095 1_554 S
O941 C950 1.250 . S
O942 Mn937 2.121 . S
O942 C950 1.258 . S
C943 N944 1.326 . S
C943 C947 1.460 . S
C943 H949 0.929 . S
N944 Mn937 2.257 . S
N944 C943 1.326 . S
N944 C948 1.362 . S
C945 C946 1.258 . S
C945 C948 1.431 . S
C945 C965 1.449 . S
C946 C945 1.258 . S
C946 C947 1.477 . S
C946 H966 0.931 . S
C947 C943 1.460 . S
C947 C946 1.477 . S
C947 H967 0.930 . S
C948 N944 1.362 . S
C948 C945 1.431 . S
C948 C958 1.476 . S
H949 C943 0.929 . S
C950 O941 1.250 . S
C950 O942 1.258 . S
O951 Mn936 2.162 . S
O951 C939 1.281 . S
O952 Mn936 2.297 . S
O952 C939 1.236 . S
N953 Mn937 2.282 . S
N953 C954 1.328 . S
N953 C958 1.318 . S
C954 N953 1.328 . S
C954 C955 1.457 . S
C954 H959 0.929 . S
C955 C954 1.457 . S
C955 C956 1.291 . S
C955 H968 0.931 . S
C956 C955 1.291 . S
C956 C957 1.373 . S
C956 H969 0.929 . S
C957 C956 1.373 . S
C957 C958 1.396 . S
C957 C964 1.403 . S
C958 C948 1.476 . S
C958 N953 1.318 . S
C958 C957 1.396 . S
H959 C954 0.929 . S
O960 Mn936 2.385 . S
O960 C938 1.236 . S
O961 Mn936 2.209 1_554 S
O961 Mn937 2.215 . S
O961 C938 1.280 1_554 S
O962 Mn936 2.094 1_554 S
O962 C940 1.240 . S
O963 Mn937 2.117 . S
O963 C940 1.264 . S
C964 C957 1.403 . S
C964 C965 1.399 . S
C964 H970 0.929 . S
C965 C945 1.449 . S
C965 C964 1.399 . S
C965 H971 0.930 . S
H966 C946 0.931 . S
H967 C947 0.930 . S
H968 C955 0.931 . S
H969 C956 0.929 . S
H970 C964 0.929 . S
H971 C965 0.930 . S
Mn972 O977 2.095 1_556 S
Mn972 O987 2.162 . S
Mn972 O988 2.297 . S
Mn972 O996 2.385 . S
Mn972 O997 2.209 1_556 S
Mn972 O998 2.094 1_556 S
Mn973 O978 2.121 . S
Mn973 N980 2.257 . S
Mn973 N989 2.282 . S
Mn973 O997 2.215 . S
Mn973 O999 2.117 . S
C974 O996 1.236 . S
C974 O997 1.280 1_556 S
C975 O987 1.281 . S
C975 O988 1.236 . S
C976 O998 1.240 . S
C976 O999 1.264 . S
O977 Mn972 2.095 1_554 S
O977 C986 1.250 . S
O978 Mn973 2.121 . S
O978 C986 1.258 . S
C979 N980 1.326 . S
C979 C983 1.460 . S
C979 H985 0.929 . S
N980 Mn973 2.257 . S
N980 C979 1.326 . S
N980 C984 1.362 . S
C981 C982 1.258 . S
C981 C984 1.431 . S
C981 C1001 1.449 . S
C982 C981 1.258 . S
C982 C983 1.477 . S
C982 H1002 0.931 . S
C983 C979 1.460 . S
C983 C982 1.477 . S
C983 H1003 0.930 . S
C984 N980 1.362 . S
C984 C981 1.431 . S
C984 C994 1.476 . S
H985 C979 0.929 . S
C986 O977 1.250 . S
C986 O978 1.258 . S
O987 Mn972 2.162 . S
O987 C975 1.281 . S
O988 Mn972 2.297 . S
O988 C975 1.236 . S
N989 Mn973 2.282 . S
N989 C990 1.328 . S
N989 C994 1.318 . S
C990 N989 1.328 . S
C990 C991 1.457 . S
C990 H995 0.929 . S
C991 C990 1.457 . S
C991 C992 1.291 . S
C991 H1004 0.931 . S
C992 C991 1.291 . S
C992 C993 1.373 . S
C992 H1005 0.929 . S
C993 C992 1.373 . S
C993 C994 1.396 . S
C993 C1000 1.403 . S
C994 C984 1.476 . S
C994 N989 1.318 . S
C994 C993 1.396 . S
H995 C990 0.929 . S
O996 Mn972 2.385 . S
O996 C974 1.236 . S
O997 Mn972 2.209 1_554 S
O997 Mn973 2.215 . S
O997 C974 1.280 1_554 S
O998 Mn972 2.094 1_554 S
O998 C976 1.240 . S
O999 Mn973 2.117 . S
O999 C976 1.264 . S
C1000 C993 1.403 . S
C1000 C1001 1.399 . S
C1000 H1006 0.929 . S
C1001 C981 1.449 . S
C1001 C1000 1.399 . S
C1001 H1007 0.930 . S
H1002 C982 0.931 . S
H1003 C983 0.930 . S
H1004 C991 0.931 . S
H1005 C992 0.929 . S
H1006 C1000 0.929 . S
H1007 C1001 0.930 . S
Mn1008 O1013 2.095 . S
Mn1008 O1023 2.162 . S
Mn1008 O1024 2.297 . S
Mn1008 O1032 2.385 . S
Mn1008 O1033 2.209 . S
Mn1008 O1034 2.094 . S
Mn1009 O1014 2.121 . S
Mn1009 N1016 2.257 . S
Mn1009 N1025 2.282 . S
Mn1009 O1033 2.215 . S
Mn1009 O1035 2.117 . S
C1010 O1032 1.234 . S
C1010 O1033 1.283 . S
C1011 O1023 1.281 . S
C1011 O1024 1.236 . S
C1012 O1034 1.240 . S
C1012 O1035 1.264 . S
O1013 Mn1008 2.095 . S
O1013 C1022 1.250 . S
O1014 Mn1009 2.121 . S
O1014 C1022 1.258 . S
C1015 N1016 1.326 . S
C1015 C1019 1.460 . S
C1015 H1021 0.929 . S
N1016 Mn1009 2.257 . S
N1016 C1015 1.326 . S
N1016 C1020 1.362 . S
C1017 C1018 1.258 . S
C1017 C1020 1.431 . S
C1017 C1037 1.449 . S
C1018 C1017 1.258 . S
C1018 C1019 1.477 . S
C1018 H1038 0.931 . S
C1019 C1015 1.460 . S
C1019 C1018 1.477 . S
C1019 H1039 0.930 . S
C1020 N1016 1.362 . S
C1020 C1017 1.431 . S
C1020 C1030 1.476 . S
H1021 C1015 0.929 . S
C1022 O1013 1.250 . S
C1022 O1014 1.258 . S
O1023 Mn1008 2.162 . S
O1023 C1011 1.281 . S
O1024 Mn1008 2.297 . S
O1024 C1011 1.236 . S
N1025 Mn1009 2.282 . S
N1025 C1026 1.328 . S
N1025 C1030 1.318 . S
C1026 N1025 1.328 . S
C1026 C1027 1.457 . S
C1026 H1031 0.929 . S
C1027 C1026 1.457 . S
C1027 C1028 1.291 . S
C1027 H1040 0.931 . S
C1028 C1027 1.291 . S
C1028 C1029 1.373 . S
C1028 H1041 0.929 . S
C1029 C1028 1.373 . S
C1029 C1030 1.396 . S
C1029 C1036 1.403 . S
C1030 C1020 1.476 . S
C1030 N1025 1.318 . S
C1030 C1029 1.396 . S
H1031 C1026 0.929 . S
O1032 Mn1008 2.385 . S
O1032 C1010 1.234 . S
O1033 Mn1008 2.209 . S
O1033 Mn1009 2.215 . S
O1033 C1010 1.283 . S
O1034 Mn1008 2.094 . S
O1034 C1012 1.240 . S
O1035 Mn1009 2.117 . S
O1035 C1012 1.264 . S
C1036 C1029 1.403 . S
C1036 C1037 1.399 . S
C1036 H1042 0.929 . S
C1037 C1017 1.449 . S
C1037 C1036 1.399 . S
C1037 H1043 0.930 . S
H1038 C1018 0.931 . S
H1039 C1019 0.930 . S
H1040 C1027 0.931 . S
H1041 C1028 0.929 . S
H1042 C1036 0.929 . S
H1043 C1037 0.930 . S
Mn1044 O1049 2.095 . S
Mn1044 O1059 2.162 . S
Mn1044 O1060 2.297 . S
Mn1044 O1068 2.385 . S
Mn1044 O1069 2.209 . S
Mn1044 O1070 2.094 . S
Mn1045 O1050 2.121 . S
Mn1045 N1052 2.257 . S
Mn1045 N1061 2.282 . S
Mn1045 O1069 2.215 . S
Mn1045 O1071 2.117 . S
C1046 O1068 1.234 . S
C1046 O1069 1.283 . S
C1047 O1059 1.281 . S
C1047 O1060 1.236 . S
C1048 O1070 1.240 . S
C1048 O1071 1.264 . S
O1049 Mn1044 2.095 . S
O1049 C1058 1.250 . S
O1050 Mn1045 2.121 . S
O1050 C1058 1.258 . S
C1051 N1052 1.326 . S
C1051 C1055 1.460 . S
C1051 H1057 0.929 . S
N1052 Mn1045 2.257 . S
N1052 C1051 1.326 . S
N1052 C1056 1.362 . S
C1053 C1054 1.258 . S
C1053 C1056 1.431 . S
C1053 C1073 1.449 . S
C1054 C1053 1.258 . S
C1054 C1055 1.477 . S
C1054 H1074 0.931 . S
C1055 C1051 1.460 . S
C1055 C1054 1.477 . S
C1055 H1075 0.930 . S
C1056 N1052 1.362 . S
C1056 C1053 1.431 . S
C1056 C1066 1.476 . S
H1057 C1051 0.929 . S
C1058 O1049 1.250 . S
C1058 O1050 1.258 . S
O1059 Mn1044 2.162 . S
O1059 C1047 1.281 . S
O1060 Mn1044 2.297 . S
O1060 C1047 1.236 . S
N1061 Mn1045 2.282 . S
N1061 C1062 1.328 . S
N1061 C1066 1.318 . S
C1062 N1061 1.328 . S
C1062 C1063 1.457 . S
C1062 H1067 0.929 . S
C1063 C1062 1.457 . S
C1063 C1064 1.291 . S
C1063 H1076 0.931 . S
C1064 C1063 1.291 . S
C1064 C1065 1.373 . S
C1064 H1077 0.929 . S
C1065 C1064 1.373 . S
C1065 C1066 1.396 . S
C1065 C1072 1.403 . S
C1066 C1056 1.476 . S
C1066 N1061 1.318 . S
C1066 C1065 1.396 . S
H1067 C1062 0.929 . S
O1068 Mn1044 2.385 . S
O1068 C1046 1.234 . S
O1069 Mn1044 2.209 . S
O1069 Mn1045 2.215 . S
O1069 C1046 1.283 . S
O1070 Mn1044 2.094 . S
O1070 C1048 1.240 . S
O1071 Mn1045 2.117 . S
O1071 C1048 1.264 . S
C1072 C1065 1.403 . S
C1072 C1073 1.399 . S
C1072 H1078 0.929 . S
C1073 C1053 1.449 . S
C1073 C1072 1.399 . S
C1073 H1079 0.930 . S
H1074 C1054 0.931 . S
H1075 C1055 0.930 . S
H1076 C1063 0.931 . S
H1077 C1064 0.929 . S
H1078 C1072 0.929 . S
H1079 C1073 0.930 . S
Mn1080 O1085 2.095 1_554 S
Mn1080 O1095 2.162 . S
Mn1080 O1096 2.297 . S
Mn1080 O1104 2.385 . S
Mn1080 O1105 2.209 1_554 S
Mn1080 O1106 2.094 1_554 S
Mn1081 O1086 2.121 . S
Mn1081 N1088 2.257 . S
Mn1081 N1097 2.282 . S
Mn1081 O1105 2.215 . S
Mn1081 O1107 2.117 . S
C1082 O1104 1.236 . S
C1082 O1105 1.280 1_554 S
C1083 O1095 1.281 . S
C1083 O1096 1.236 . S
C1084 O1106 1.240 . S
C1084 O1107 1.264 . S
O1085 Mn1080 2.095 1_556 S
O1085 C1094 1.250 . S
O1086 Mn1081 2.121 . S
O1086 C1094 1.258 . S
C1087 N1088 1.326 . S
C1087 C1091 1.460 . S
C1087 H1093 0.929 . S
N1088 Mn1081 2.257 . S
N1088 C1087 1.326 . S
N1088 C1092 1.362 . S
C1089 C1090 1.258 . S
C1089 C1092 1.431 . S
C1089 C1109 1.449 . S
C1090 C1089 1.258 . S
C1090 C1091 1.477 . S
C1090 H1110 0.931 . S
C1091 C1087 1.460 . S
C1091 C1090 1.477 . S
C1091 H1111 0.930 . S
C1092 N1088 1.362 . S
C1092 C1089 1.431 . S
C1092 C1102 1.476 . S
H1093 C1087 0.929 . S
C1094 O1085 1.250 . S
C1094 O1086 1.258 . S
O1095 Mn1080 2.162 . S
O1095 C1083 1.281 . S
O1096 Mn1080 2.297 . S
O1096 C1083 1.236 . S
N1097 Mn1081 2.282 . S
N1097 C1098 1.328 . S
N1097 C1102 1.318 . S
C1098 N1097 1.328 . S
C1098 C1099 1.457 . S
C1098 H1103 0.929 . S
C1099 C1098 1.457 . S
C1099 C1100 1.291 . S
C1099 H1112 0.931 . S
C1100 C1099 1.291 . S
C1100 C1101 1.373 . S
C1100 H1113 0.929 . S
C1101 C1100 1.373 . S
C1101 C1102 1.396 . S
C1101 C1108 1.403 . S
C1102 C1092 1.476 . S
C1102 N1097 1.318 . S
C1102 C1101 1.396 . S
H1103 C1098 0.929 . S
O1104 Mn1080 2.385 . S
O1104 C1082 1.236 . S
O1105 Mn1080 2.209 1_556 S
O1105 Mn1081 2.215 . S
O1105 C1082 1.280 1_556 S
O1106 Mn1080 2.094 1_556 S
O1106 C1084 1.240 . S
O1107 Mn1081 2.117 . S
O1107 C1084 1.264 . S
C1108 C1101 1.403 . S
C1108 C1109 1.399 . S
C1108 H1114 0.929 . S
C1109 C1089 1.449 . S
C1109 C1108 1.399 . S
C1109 H1115 0.930 . S
H1110 C1090 0.931 . S
H1111 C1091 0.930 . S
H1112 C1099 0.931 . S
H1113 C1100 0.929 . S
H1114 C1108 0.929 . S
H1115 C1109 0.930 . S
Mn1116 O1121 2.095 1_554 S
Mn1116 O1131 2.162 . S
Mn1116 O1132 2.297 . S
Mn1116 O1140 2.385 . S
Mn1116 O1141 2.209 1_554 S
Mn1116 O1142 2.094 1_554 S
Mn1117 O1122 2.121 . S
Mn1117 N1124 2.257 . S
Mn1117 N1133 2.282 . S
Mn1117 O1141 2.215 . S
Mn1117 O1143 2.117 . S
C1118 O1140 1.236 . S
C1118 O1141 1.280 1_554 S
C1119 O1131 1.281 . S
C1119 O1132 1.236 . S
C1120 O1142 1.240 . S
C1120 O1143 1.264 . S
O1121 Mn1116 2.095 1_556 S
O1121 C1130 1.250 . S
O1122 Mn1117 2.121 . S
O1122 C1130 1.258 . S
C1123 N1124 1.326 . S
C1123 C1127 1.460 . S
C1123 H1129 0.929 . S
N1124 Mn1117 2.257 . S
N1124 C1123 1.326 . S
N1124 C1128 1.362 . S
C1125 C1126 1.258 . S
C1125 C1128 1.431 . S
C1125 C1145 1.449 . S
C1126 C1125 1.258 . S
C1126 C1127 1.477 . S
C1126 H1146 0.931 . S
C1127 C1123 1.460 . S
C1127 C1126 1.477 . S
C1127 H1147 0.930 . S
C1128 N1124 1.362 . S
C1128 C1125 1.431 . S
C1128 C1138 1.476 . S
H1129 C1123 0.929 . S
C1130 O1121 1.250 . S
C1130 O1122 1.258 . S
O1131 Mn1116 2.162 . S
O1131 C1119 1.281 . S
O1132 Mn1116 2.297 . S
O1132 C1119 1.236 . S
N1133 Mn1117 2.282 . S
N1133 C1134 1.328 . S
N1133 C1138 1.318 . S
C1134 N1133 1.328 . S
C1134 C1135 1.457 . S
C1134 H1139 0.929 . S
C1135 C1134 1.457 . S
C1135 C1136 1.291 . S
C1135 H1148 0.931 . S
C1136 C1135 1.291 . S
C1136 C1137 1.373 . S
C1136 H1149 0.929 . S
C1137 C1136 1.373 . S
C1137 C1138 1.396 . S
C1137 C1144 1.403 . S
C1138 C1128 1.476 . S
C1138 N1133 1.318 . S
C1138 C1137 1.396 . S
H1139 C1134 0.929 . S
O1140 Mn1116 2.385 . S
O1140 C1118 1.236 . S
O1141 Mn1116 2.209 1_556 S
O1141 Mn1117 2.215 . S
O1141 C1118 1.280 1_556 S
O1142 Mn1116 2.094 1_556 S
O1142 C1120 1.240 . S
O1143 Mn1117 2.117 . S
O1143 C1120 1.264 . S
C1144 C1137 1.403 . S
C1144 C1145 1.399 . S
C1144 H1150 0.929 . S
C1145 C1125 1.449 . S
C1145 C1144 1.399 . S
C1145 H1151 0.930 . S
H1146 C1126 0.931 . S
H1147 C1127 0.930 . S
H1148 C1135 0.931 . S
H1149 C1136 0.929 . S
H1150 C1144 0.929 . S
H1151 C1145 0.930 . S
C1152 C1153 1.369 . S
C1152 C1154 1.419 . S
C1152 H1156 0.930 . S
C1153 C1152 1.369 . S
C1153 C1162 1.429 . S
C1154 C1152 1.419 . S
C1154 C1155 1.363 . S
C1154 H1157 0.929 . S
C1155 C1154 1.363 . S
C1155 C1161 1.428 . S
H1156 C1152 0.930 . S
H1157 C1154 0.929 . S
S1158 N1159 1.613 . S
S1158 N1160 1.610 . S
N1159 S1158 1.613 . S
N1159 C1162 1.350 . S
N1160 S1158 1.610 . S
N1160 C1161 1.351 . S
C1161 C1155 1.428 . S
C1161 N1160 1.351 . S
C1161 C1162 1.434 . S
C1162 C1153 1.429 . S
C1162 N1159 1.350 . S
C1162 C1161 1.434 . S
C1163 C1164 1.369 . S
C1163 C1165 1.419 . S
C1163 H1167 0.930 . S
C1164 C1163 1.369 . S
C1164 C1173 1.429 . S
C1165 C1163 1.419 . S
C1165 C1166 1.363 . S
C1165 H1168 0.929 . S
C1166 C1165 1.363 . S
C1166 C1172 1.428 . S
H1167 C1163 0.930 . S
H1168 C1165 0.929 . S
S1169 N1170 1.613 . S
S1169 N1171 1.610 . S
N1170 S1169 1.613 . S
N1170 C1173 1.350 . S
N1171 S1169 1.610 . S
N1171 C1172 1.351 . S
C1172 C1166 1.428 . S
C1172 N1171 1.351 . S
C1172 C1173 1.434 . S
C1173 C1164 1.429 . S
C1173 N1170 1.350 . S
C1173 C1172 1.434 . S
C1174 C1175 1.369 . S
C1174 C1176 1.419 . S
C1174 H1178 0.930 . S
C1175 C1174 1.369 . S
C1175 C1184 1.429 . S
C1176 C1174 1.419 . S
C1176 C1177 1.363 . S
C1176 H1179 0.929 . S
C1177 C1176 1.363 . S
C1177 C1183 1.428 . S
H1178 C1174 0.930 . S
H1179 C1176 0.929 . S
S1180 N1181 1.613 . S
S1180 N1182 1.610 . S
N1181 S1180 1.613 . S
N1181 C1184 1.350 . S
N1182 S1180 1.610 . S
N1182 C1183 1.351 . S
C1183 C1177 1.428 . S
C1183 N1182 1.351 . S
C1183 C1184 1.434 . S
C1184 C1175 1.429 . S
C1184 N1181 1.350 . S
C1184 C1183 1.434 . S
C1185 C1186 1.369 . S
C1185 C1187 1.419 . S
C1185 H1189 0.930 . S
C1186 C1185 1.369 . S
C1186 C1195 1.429 . S
C1187 C1185 1.419 . S
C1187 C1188 1.363 . S
C1187 H1190 0.929 . S
C1188 C1187 1.363 . S
C1188 C1194 1.428 . S
H1189 C1185 0.930 . S
H1190 C1187 0.929 . S
S1191 N1192 1.613 . S
S1191 N1193 1.610 . S
N1192 S1191 1.613 . S
N1192 C1195 1.350 . S
N1193 S1191 1.610 . S
N1193 C1194 1.351 . S
C1194 C1188 1.428 . S
C1194 N1193 1.351 . S
C1194 C1195 1.434 . S
C1195 C1186 1.429 . S
C1195 N1192 1.350 . S
C1195 C1194 1.434 . S
C1196 C1197 1.369 . S
C1196 C1198 1.419 . S
C1196 H1200 0.930 . S
C1197 C1196 1.369 . S
C1197 C1206 1.429 . S
C1198 C1196 1.419 . S
C1198 C1199 1.363 . S
C1198 H1201 0.929 . S
C1199 C1198 1.363 . S
C1199 C1205 1.428 . S
H1200 C1196 0.930 . S
H1201 C1198 0.929 . S
S1202 N1203 1.613 . S
S1202 N1204 1.610 . S
N1203 S1202 1.613 . S
N1203 C1206 1.350 . S
N1204 S1202 1.610 . S
N1204 C1205 1.351 . S
C1205 C1199 1.428 . S
C1205 N1204 1.351 . S
C1205 C1206 1.434 . S
C1206 C1197 1.429 . S
C1206 N1203 1.350 . S
C1206 C1205 1.434 . S
C1207 C1208 1.369 . S
C1207 C1209 1.419 . S
C1207 H1211 0.930 . S
C1208 C1207 1.369 . S
C1208 C1217 1.429 . S
C1209 C1207 1.419 . S
C1209 C1210 1.363 . S
C1209 H1212 0.929 . S
C1210 C1209 1.363 . S
C1210 C1216 1.428 . S
H1211 C1207 0.930 . S
H1212 C1209 0.929 . S
S1213 N1214 1.613 . S
S1213 N1215 1.610 . S
N1214 S1213 1.613 . S
N1214 C1217 1.350 . S
N1215 S1213 1.610 . S
N1215 C1216 1.351 . S
C1216 C1210 1.428 . S
C1216 N1215 1.351 . S
C1216 C1217 1.434 . S
C1217 C1208 1.429 . S
C1217 N1214 1.350 . S
C1217 C1216 1.434 . S
C1218 C1219 1.369 . S
C1218 C1220 1.419 . S
C1218 H1222 0.930 . S
C1219 C1218 1.369 . S
C1219 C1228 1.429 . S
C1220 C1218 1.419 . S
C1220 C1221 1.363 . S
C1220 H1223 0.929 . S
C1221 C1220 1.363 . S
C1221 C1227 1.428 . S
H1222 C1218 0.930 . S
H1223 C1220 0.929 . S
S1224 N1225 1.613 . S
S1224 N1226 1.610 1_455 S
N1225 S1224 1.613 . S
N1225 C1228 1.350 1_455 S
N1226 S1224 1.610 1_655 S
N1226 C1227 1.351 . S
C1227 C1221 1.428 . S
C1227 N1226 1.351 . S
C1227 C1228 1.434 . S
C1228 C1219 1.429 . S
C1228 N1225 1.350 1_655 S
C1228 C1227 1.434 . S
C1229 C1230 1.369 . S
C1229 C1231 1.419 . S
C1229 H1233 0.930 . S
C1230 C1229 1.369 . S
C1230 C1239 1.429 . S
C1231 C1229 1.419 . S
C1231 C1232 1.363 . S
C1231 H1234 0.929 . S
C1232 C1231 1.363 . S
C1232 C1238 1.428 . S
H1233 C1229 0.930 . S
H1234 C1231 0.929 . S
S1235 N1236 1.613 . S
S1235 N1237 1.610 . S
N1236 S1235 1.613 . S
N1236 C1239 1.350 . S
N1237 S1235 1.610 . S
N1237 C1238 1.351 . S
C1238 C1232 1.428 . S
C1238 N1237 1.351 . S
C1238 C1239 1.434 . S
C1239 C1230 1.429 . S
C1239 N1236 1.350 . S
C1239 C1238 1.434 . S
C1240 C1241 1.369 . S
C1240 C1242 1.419 . S
C1240 H1244 0.930 . S
C1241 C1240 1.369 . S
C1241 C1250 1.429 . S
C1242 C1240 1.419 . S
C1242 C1243 1.363 . S
C1242 H1245 0.929 . S
C1243 C1242 1.363 . S
C1243 C1249 1.428 . S
H1244 C1240 0.930 . S
H1245 C1242 0.929 . S
S1246 N1247 1.613 . S
S1246 N1248 1.610 . S
N1247 S1246 1.613 . S
N1247 C1250 1.350 . S
N1248 S1246 1.610 . S
N1248 C1249 1.351 . S
C1249 C1243 1.428 . S
C1249 N1248 1.351 . S
C1249 C1250 1.434 . S
C1250 C1241 1.429 . S
C1250 N1247 1.350 . S
C1250 C1249 1.434 . S
C1251 C1252 1.369 . S
C1251 C1253 1.419 . S
C1251 H1255 0.930 . S
C1252 C1251 1.369 . S
C1252 C1261 1.429 . S
C1253 C1251 1.419 . S
C1253 C1254 1.363 . S
C1253 H1256 0.929 . S
C1254 C1253 1.363 . S
C1254 C1260 1.428 . S
H1255 C1251 0.930 . S
H1256 C1253 0.929 . S
S1257 N1258 1.613 . S
S1257 N1259 1.610 . S
N1258 S1257 1.613 . S
N1258 C1261 1.350 . S
N1259 S1257 1.610 . S
N1259 C1260 1.351 . S
C1260 C1254 1.428 . S
C1260 N1259 1.351 . S
C1260 C1261 1.434 . S
C1261 C1252 1.429 . S
C1261 N1258 1.350 . S
C1261 C1260 1.434 . S
C1262 C1263 1.369 . S
C1262 C1264 1.419 . S
C1262 H1266 0.930 . S
C1263 C1262 1.369 . S
C1263 C1272 1.429 . S
C1264 C1262 1.419 . S
C1264 C1265 1.363 . S
C1264 H1267 0.929 . S
C1265 C1264 1.363 . S
C1265 C1271 1.428 . S
H1266 C1262 0.930 . S
H1267 C1264 0.929 . S
S1268 N1269 1.613 . S
S1268 N1270 1.610 . S
N1269 S1268 1.613 . S
N1269 C1272 1.350 . S
N1270 S1268 1.610 . S
N1270 C1271 1.351 . S
C1271 C1265 1.428 . S
C1271 N1270 1.351 . S
C1271 C1272 1.434 . S
C1272 C1263 1.429 . S
C1272 N1269 1.350 . S
C1272 C1271 1.434 . S
C1273 C1274 1.369 . S
C1273 C1275 1.419 . S
C1273 H1277 0.930 . S
C1274 C1273 1.369 . S
C1274 C1283 1.429 . S
C1275 C1273 1.419 . S
C1275 C1276 1.363 . S
C1275 H1278 0.929 . S
C1276 C1275 1.363 . S
C1276 C1282 1.428 . S
H1277 C1273 0.930 . S
H1278 C1275 0.929 . S
S1279 N1280 1.613 . S
S1279 N1281 1.610 . S
N1280 S1279 1.613 . S
N1280 C1283 1.350 . S
N1281 S1279 1.610 . S
N1281 C1282 1.351 . S
C1282 C1276 1.428 . S
C1282 N1281 1.351 . S
C1282 C1283 1.434 . S
C1283 C1274 1.429 . S
C1283 N1280 1.350 . S
C1283 C1282 1.434 . S
C1284 C1285 1.369 . S
C1284 C1286 1.419 . S
C1284 H1288 0.930 . S
C1285 C1284 1.369 . S
C1285 C1294 1.429 . S
C1286 C1284 1.419 . S
C1286 C1287 1.363 . S
C1286 H1289 0.929 . S
C1287 C1286 1.363 . S
C1287 C1293 1.428 . S
H1288 C1284 0.930 . S
H1289 C1286 0.929 . S
S1290 N1291 1.613 . S
S1290 N1292 1.610 . S
N1291 S1290 1.613 . S
N1291 C1294 1.350 . S
N1292 S1290 1.610 . S
N1292 C1293 1.351 . S
C1293 C1287 1.428 . S
C1293 N1292 1.351 . S
C1293 C1294 1.434 . S
C1294 C1285 1.429 . S
C1294 N1291 1.350 . S
C1294 C1293 1.434 . S
C1295 C1296 1.369 . S
C1295 C1297 1.419 . S
C1295 H1299 0.930 . S
C1296 C1295 1.369 . S
C1296 C1305 1.429 . S
C1297 C1295 1.419 . S
C1297 C1298 1.363 . S
C1297 H1300 0.929 . S
C1298 C1297 1.363 . S
C1298 C1304 1.428 . S
H1299 C1295 0.930 . S
H1300 C1297 0.929 . S
S1301 N1302 1.613 . S
S1301 N1303 1.610 . S
N1302 S1301 1.613 . S
N1302 C1305 1.350 . S
N1303 S1301 1.610 . S
N1303 C1304 1.351 . S
C1304 C1298 1.428 . S
C1304 N1303 1.351 . S
C1304 C1305 1.434 . S
C1305 C1296 1.429 . S
C1305 N1302 1.350 . S
C1305 C1304 1.434 . S
C1306 C1307 1.369 . S
C1306 C1308 1.419 . S
C1306 H1310 0.930 . S
C1307 C1306 1.369 . S
C1307 C1316 1.429 . S
C1308 C1306 1.419 . S
C1308 C1309 1.363 . S
C1308 H1311 0.929 . S
C1309 C1308 1.363 . S
C1309 C1315 1.428 . S
H1310 C1306 0.930 . S
H1311 C1308 0.929 . S
S1312 N1313 1.613 . S
S1312 N1314 1.610 . S
N1313 S1312 1.613 . S
N1313 C1316 1.350 . S
N1314 S1312 1.610 . S
N1314 C1315 1.351 . S
C1315 C1309 1.428 . S
C1315 N1314 1.351 . S
C1315 C1316 1.434 . S
C1316 C1307 1.429 . S
C1316 N1313 1.350 . S
C1316 C1315 1.434 . S
C1317 C1318 1.369 . S
C1317 C1319 1.419 . S
C1317 H1321 0.930 . S
C1318 C1317 1.369 . S
C1318 C1327 1.429 . S
C1319 C1317 1.419 . S
C1319 C1320 1.363 . S
C1319 H1322 0.929 . S
C1320 C1319 1.363 . S
C1320 C1326 1.428 . S
H1321 C1317 0.930 . S
H1322 C1319 0.929 . S
S1323 N1324 1.613 . S
S1323 N1325 1.610 . S
N1324 S1323 1.613 . S
N1324 C1327 1.350 . S
N1325 S1323 1.610 . S
N1325 C1326 1.351 . S
C1326 C1320 1.428 . S
C1326 N1325 1.351 . S
C1326 C1327 1.434 . S
C1327 C1318 1.429 . S
C1327 N1324 1.350 . S
C1327 C1326 1.434 . S
C1328 C1329 1.369 1_455 S
C1328 C1330 1.419 . S
C1328 H1332 0.930 . S
C1329 C1328 1.369 1_655 S
C1329 C1338 1.429 . S
C1330 C1328 1.419 . S
C1330 C1331 1.363 . S
C1330 H1333 0.929 . S
C1331 C1330 1.363 . S
C1331 C1337 1.428 1_455 S
H1332 C1328 0.930 . S
H1333 C1330 0.929 . S
S1334 N1335 1.613 . S
S1334 N1336 1.610 . S
N1335 S1334 1.613 . S
N1335 C1338 1.350 . S
N1336 S1334 1.610 . S
N1336 C1337 1.351 . S
C1337 C1331 1.428 1_655 S
C1337 N1336 1.351 . S
C1337 C1338 1.434 . S
C1338 C1329 1.429 . S
C1338 N1335 1.350 . S
C1338 C1337 1.434 . S
C1339 C1340 1.369 . S
C1339 C1341 1.419 1_565 S
C1339 H1343 0.930 . S
C1340 C1339 1.369 . S
C1340 C1349 1.429 . S
C1341 C1339 1.419 1_545 S
C1341 C1342 1.363 . S
C1341 H1344 0.929 . S
C1342 C1341 1.363 . S
C1342 C1348 1.428 . S
H1343 C1339 0.930 . S
H1344 C1341 0.929 . S
S1345 N1346 1.613 . S
S1345 N1347 1.610 1_565 S
N1346 S1345 1.613 . S
N1346 C1349 1.350 . S
N1347 S1345 1.610 1_545 S
N1347 C1348 1.351 . S
C1348 C1342 1.428 . S
C1348 N1347 1.351 . S
C1348 C1349 1.434 1_545 S
C1349 C1340 1.429 . S
C1349 N1346 1.350 . S
C1349 C1348 1.434 1_565 S
C1350 C1351 1.369 1_554 S
C1350 C1352 1.419 1_465 S
C1350 H1354 0.930 . S
C1351 C1350 1.369 1_556 S
C1351 C1360 1.429 . S
C1352 C1350 1.419 1_645 S
C1352 C1353 1.363 . S
C1352 H1355 0.929 . S
C1353 C1352 1.363 . S
C1353 C1359 1.428 1_554 S
H1354 C1350 0.930 . S
H1355 C1352 0.929 . S
S1356 N1357 1.605 1_645 S
S1356 N1358 1.618 . S
N1357 S1356 1.605 1_465 S
N1357 C1360 1.350 . S
N1358 S1356 1.618 . S
N1358 C1359 1.351 . S
C1359 C1353 1.428 1_556 S
C1359 N1358 1.351 . S
C1359 C1360 1.434 1_645 S
C1360 C1351 1.429 . S
C1360 N1357 1.350 . S
C1360 C1359 1.434 1_465 S
C1361 C1362 1.369 . S
C1361 C1363 1.419 . S
C1361 H1365 0.930 . S
C1362 C1361 1.369 . S
C1362 C1371 1.429 1_554 S
C1363 C1361 1.419 . S
C1363 C1364 1.363 1_554 S
C1363 H1366 0.929 . S
C1364 C1363 1.363 1_556 S
C1364 C1370 1.428 . S
H1365 C1361 0.930 . S
H1366 C1363 0.929 . S
S1367 N1368 1.613 . S
S1367 N1369 1.610 . S
N1368 S1367 1.613 . S
N1368 C1371 1.350 . S
N1369 S1367 1.610 . S
N1369 C1370 1.351 . S
C1370 C1364 1.428 . S
C1370 N1369 1.351 . S
C1370 C1371 1.434 . S
C1371 C1362 1.429 1_556 S
C1371 N1368 1.350 . S
C1371 C1370 1.434 . S
C1372 C1373 1.369 1_455 S
C1372 C1374 1.419 . S
C1372 H1376 0.930 . S
C1373 C1372 1.369 1_655 S
C1373 C1382 1.429 . S
C1374 C1372 1.419 . S
C1374 C1375 1.363 . S
C1374 H1377 0.929 . S
C1375 C1374 1.363 . S
C1375 C1381 1.428 1_455 S
H1376 C1372 0.930 . S
H1377 C1374 0.929 . S
S1378 N1379 1.613 . S
S1378 N1380 1.610 . S
N1379 S1378 1.613 . S
N1379 C1382 1.350 . S
N1380 S1378 1.610 . S
N1380 C1381 1.351 . S
C1381 C1375 1.428 1_655 S
C1381 N1380 1.351 . S
C1381 C1382 1.434 . S
C1382 C1373 1.429 . S
C1382 N1379 1.350 . S
C1382 C1381 1.434 . S
C1383 C1384 1.369 . S
C1383 C1385 1.404 1_565 S
C1383 H1387 0.930 . S
C1384 C1383 1.369 . S
C1384 C1393 1.407 1_565 S
C1385 C1383 1.404 1_545 S
C1385 C1386 1.378 . S
C1385 H1388 0.928 1_545 S
C1386 C1385 1.378 . S
C1386 C1392 1.428 . S
H1387 C1383 0.930 . S
H1388 C1385 0.928 1_565 S
S1389 N1390 1.613 . S
S1389 N1391 1.610 . S
N1390 S1389 1.613 . S
N1390 C1393 1.353 . S
N1391 S1389 1.610 . S
N1391 C1392 1.351 . S
C1392 C1386 1.428 . S
C1392 N1391 1.351 . S
C1392 C1393 1.455 . S
C1393 C1384 1.407 1_545 S
C1393 N1390 1.353 . S
C1393 C1392 1.455 . S
C1394 C1395 1.369 . S
C1394 C1396 1.419 . S
C1394 H1398 0.930 . S
C1395 C1394 1.369 . S
C1395 C1404 1.429 1_556 S
C1396 C1394 1.419 . S
C1396 C1397 1.363 1_556 S
C1396 H1399 0.929 . S
C1397 C1396 1.363 1_554 S
C1397 C1403 1.428 . S
H1398 C1394 0.930 . S
H1399 C1396 0.929 . S
S1400 N1401 1.613 . S
S1400 N1402 1.610 . S
N1401 S1400 1.613 . S
N1401 C1404 1.350 . S
N1402 S1400 1.610 . S
N1402 C1403 1.351 . S
C1403 C1397 1.428 . S
C1403 N1402 1.351 . S
C1403 C1404 1.434 . S
C1404 C1395 1.429 1_554 S
C1404 N1401 1.350 . S
C1404 C1403 1.434 . S
C1405 C1406 1.369 . S
C1405 C1407 1.419 . S
C1405 H1409 0.930 . S
C1406 C1405 1.369 . S
C1406 C1415 1.429 . S
C1407 C1405 1.419 . S
C1407 C1408 1.363 . S
C1407 H1410 0.929 . S
C1408 C1407 1.363 . S
C1408 C1414 1.428 . S
H1409 C1405 0.930 . S
H1410 C1407 0.929 . S
S1411 N1412 1.613 . S
S1411 N1413 1.610 . S
N1412 S1411 1.613 . S
N1412 C1415 1.350 . S
N1413 S1411 1.610 . S
N1413 C1414 1.351 . S
C1414 C1408 1.428 . S
C1414 N1413 1.351 . S
C1414 C1415 1.434 . S
C1415 C1406 1.429 . S
C1415 N1412 1.350 . S
C1415 C1414 1.434 . S
C1416 C1417 1.369 1_455 S
C1416 C1418 1.419 . S
C1416 H1420 0.930 . S
C1417 C1416 1.369 1_655 S
C1417 C1426 1.429 . S
C1418 C1416 1.419 . S
C1418 C1419 1.363 . S
C1418 H1421 0.929 . S
C1419 C1418 1.363 . S
C1419 C1425 1.428 1_455 S
H1420 C1416 0.930 . S
H1421 C1418 0.929 . S
S1422 N1423 1.613 . S
S1422 N1424 1.610 . S
N1423 S1422 1.613 . S
N1423 C1426 1.350 . S
N1424 S1422 1.610 . S
N1424 C1425 1.351 . S
C1425 C1419 1.428 1_655 S
C1425 N1424 1.351 . S
C1425 C1426 1.434 . S
C1426 C1417 1.429 . S
C1426 N1423 1.350 . S
C1426 C1425 1.434 . S
C1427 C1428 1.369 . S
C1427 C1429 1.419 . S
C1427 H1431 0.930 . S
C1428 C1427 1.369 . S
C1428 C1437 1.429 . S
C1429 C1427 1.419 . S
C1429 C1430 1.363 . S
C1429 H1432 0.929 . S
C1430 C1429 1.363 . S
C1430 C1436 1.428 . S
H1431 C1427 0.930 . S
H1432 C1429 0.929 . S
S1433 N1434 1.613 . S
S1433 N1435 1.610 . S
N1434 S1433 1.613 . S
N1434 C1437 1.350 . S
N1435 S1433 1.610 . S
N1435 C1436 1.351 . S
C1436 C1430 1.428 . S
C1436 N1435 1.351 . S
C1436 C1437 1.434 . S
C1437 C1428 1.429 . S
C1437 N1434 1.350 . S
C1437 C1436 1.434 . S
C1438 C1439 1.369 . S
C1438 C1440 1.419 . S
C1438 H1442 0.930 . S
C1439 C1438 1.369 . S
C1439 C1448 1.429 . S
C1440 C1438 1.419 . S
C1440 C1441 1.363 . S
C1440 H1443 0.929 . S
C1441 C1440 1.363 . S
C1441 C1447 1.428 . S
H1442 C1438 0.930 . S
H1443 C1440 0.929 . S
S1444 N1445 1.613 . S
S1444 N1446 1.610 . S
N1445 S1444 1.613 . S
N1445 C1448 1.350 . S
N1446 S1444 1.610 . S
N1446 C1447 1.351 . S
C1447 C1441 1.428 . S
C1447 N1446 1.351 . S
C1447 C1448 1.434 . S
C1448 C1439 1.429 . S
C1448 N1445 1.350 . S
C1448 C1447 1.434 . S
C1449 C1450 1.369 . S
C1449 C1451 1.419 . S
C1449 H1453 0.930 . S
C1450 C1449 1.369 . S
C1450 C1459 1.429 . S
C1451 C1449 1.419 . S
C1451 C1452 1.363 . S
C1451 H1454 0.929 . S
C1452 C1451 1.363 . S
C1452 C1458 1.428 . S
H1453 C1449 0.930 . S
H1454 C1451 0.929 . S
S1455 N1456 1.613 . S
S1455 N1457 1.610 . S
N1456 S1455 1.613 . S
N1456 C1459 1.350 . S
N1457 S1455 1.610 . S
N1457 C1458 1.351 . S
C1458 C1452 1.428 . S
C1458 N1457 1.351 . S
C1458 C1459 1.434 . S
C1459 C1450 1.429 . S
C1459 N1456 1.350 . S
C1459 C1458 1.434 . S
C1460 C1461 1.369 . S
C1460 C1462 1.419 . S
C1460 H1464 0.930 . S
C1461 C1460 1.369 . S
C1461 C1470 1.429 . S
C1462 C1460 1.419 . S
C1462 C1463 1.363 . S
C1462 H1465 0.929 . S
C1463 C1462 1.363 . S
C1463 C1469 1.428 . S
H1464 C1460 0.930 . S
H1465 C1462 0.929 . S
S1466 N1467 1.613 . S
S1466 N1468 1.610 . S
N1467 S1466 1.613 . S
N1467 C1470 1.350 . S
N1468 S1466 1.610 . S
N1468 C1469 1.351 . S
C1469 C1463 1.428 . S
C1469 N1468 1.351 . S
C1469 C1470 1.434 . S
C1470 C1461 1.429 . S
C1470 N1467 1.350 . S
C1470 C1469 1.434 . S
C1471 C1472 1.369 . S
C1471 C1473 1.419 1_545 S
C1471 H1475 0.930 . S
C1472 C1471 1.369 . S
C1472 C1481 1.429 . S
C1473 C1471 1.419 1_565 S
C1473 C1474 1.363 . S
C1473 H1476 0.929 . S
C1474 C1473 1.363 . S
C1474 C1480 1.428 . S
H1475 C1471 0.930 . S
H1476 C1473 0.929 . S
S1477 N1478 1.613 1_565 S
S1477 N1479 1.610 . S
N1478 S1477 1.613 1_545 S
N1478 C1481 1.350 . S
N1479 S1477 1.610 . S
N1479 C1480 1.351 . S
C1480 C1474 1.428 . S
C1480 N1479 1.351 . S
C1480 C1481 1.434 1_565 S
C1481 C1472 1.429 . S
C1481 N1478 1.350 . S
C1481 C1480 1.434 1_545 S
C1482 C1483 1.369 . S
C1482 C1484 1.419 . S
C1482 H1486 0.930 . S
C1483 C1482 1.369 . S
C1483 C1492 1.429 . S
C1484 C1482 1.419 . S
C1484 C1485 1.363 . S
C1484 H1487 0.929 . S
C1485 C1484 1.363 . S
C1485 C1491 1.428 . S
H1486 C1482 0.930 . S
H1487 C1484 0.929 . S
S1488 N1489 1.613 . S
S1488 N1490 1.610 . S
N1489 S1488 1.613 . S
N1489 C1492 1.350 . S
N1490 S1488 1.610 . S
N1490 C1491 1.351 . S
C1491 C1485 1.428 . S
C1491 N1490 1.351 . S
C1491 C1492 1.434 . S
C1492 C1483 1.429 . S
C1492 N1489 1.350 . S
C1492 C1491 1.434 . S
C1493 C1494 1.369 . S
C1493 C1495 1.419 . S
C1493 H1497 0.930 . S
C1494 C1493 1.369 . S
C1494 C1503 1.429 1_556 S
C1495 C1493 1.419 . S
C1495 C1496 1.363 1_556 S
C1495 H1498 0.929 . S
C1496 C1495 1.363 1_554 S
C1496 C1502 1.428 . S
H1497 C1493 0.930 . S
H1498 C1495 0.929 . S
S1499 N1500 1.613 . S
S1499 N1501 1.610 . S
N1500 S1499 1.613 . S
N1500 C1503 1.350 . S
N1501 S1499 1.610 . S
N1501 C1502 1.351 . S
C1502 C1496 1.428 . S
C1502 N1501 1.351 . S
C1502 C1503 1.434 . S
C1503 C1494 1.429 1_554 S
C1503 N1500 1.350 . S
C1503 C1502 1.434 . S
C1504 C1505 1.369 . S
C1504 C1506 1.419 . S
C1504 H1508 0.930 1_455 S
C1505 C1504 1.369 . S
C1505 C1514 1.429 . S
C1506 C1504 1.419 . S
C1506 C1507 1.363 . S
C1506 H1509 0.929 1_455 S
C1507 C1506 1.363 . S
C1507 C1513 1.428 . S
H1508 C1504 0.930 1_655 S
H1509 C1506 0.929 1_655 S
S1510 N1511 1.613 . S
S1510 N1512 1.610 . S
N1511 S1510 1.613 . S
N1511 C1514 1.350 . S
N1512 S1510 1.610 . S
N1512 C1513 1.351 . S
C1513 C1507 1.428 . S
C1513 N1512 1.351 . S
C1513 C1514 1.434 . S
C1514 C1505 1.429 . S
C1514 N1511 1.350 . S
C1514 C1513 1.434 . S
C1515 C1516 1.369 . S
C1515 C1517 1.419 . S
C1515 H1519 0.930 . S
C1516 C1515 1.369 . S
C1516 C1525 1.429 . S
C1517 C1515 1.419 . S
C1517 C1518 1.363 . S
C1517 H1520 0.929 . S
C1518 C1517 1.363 . S
C1518 C1524 1.428 . S
H1519 C1515 0.930 . S
H1520 C1517 0.929 . S
S1521 N1522 1.613 . S
S1521 N1523 1.610 . S
N1522 S1521 1.613 . S
N1522 C1525 1.350 . S
N1523 S1521 1.610 . S
N1523 C1524 1.351 . S
C1524 C1518 1.428 . S
C1524 N1523 1.351 . S
C1524 C1525 1.434 . S
C1525 C1516 1.429 . S
C1525 N1522 1.350 . S
C1525 C1524 1.434 . S
C1526 C1527 1.369 . S
C1526 C1528 1.419 . S
C1526 H1530 0.930 . S
C1527 C1526 1.369 . S
C1527 C1536 1.429 . S
C1528 C1526 1.419 . S
C1528 C1529 1.363 . S
C1528 H1531 0.929 . S
C1529 C1528 1.363 . S
C1529 C1535 1.428 . S
H1530 C1526 0.930 . S
H1531 C1528 0.929 . S
S1532 N1533 1.613 . S
S1532 N1534 1.610 . S
N1533 S1532 1.613 . S
N1533 C1536 1.350 . S
N1534 S1532 1.610 . S
N1534 C1535 1.351 . S
C1535 C1529 1.428 . S
C1535 N1534 1.351 . S
C1535 C1536 1.434 . S
C1536 C1527 1.429 . S
C1536 N1533 1.350 . S
C1536 C1535 1.434 . S
C1537 C1538 1.369 . S
C1537 C1539 1.419 . S
C1537 H1541 0.930 . S
C1538 C1537 1.369 . S
C1538 C1547 1.429 . S
C1539 C1537 1.419 . S
C1539 C1540 1.363 . S
C1539 H1542 0.929 . S
C1540 C1539 1.363 . S
C1540 C1546 1.428 . S
H1541 C1537 0.930 . S
H1542 C1539 0.929 . S
S1543 N1544 1.613 . S
S1543 N1545 1.610 . S
N1544 S1543 1.613 . S
N1544 C1547 1.350 . S
N1545 S1543 1.610 . S
N1545 C1546 1.351 . S
C1546 C1540 1.428 . S
C1546 N1545 1.351 . S
C1546 C1547 1.434 . S
C1547 C1538 1.429 . S
C1547 N1544 1.350 . S
C1547 C1546 1.434 . S
C1548 C1549 1.369 . S
C1548 C1550 1.419 . S
C1548 H1552 0.930 . S
C1549 C1548 1.369 . S
C1549 C1558 1.429 . S
C1550 C1548 1.419 . S
C1550 C1551 1.363 . S
C1550 H1553 0.929 . S
C1551 C1550 1.363 . S
C1551 C1557 1.428 . S
H1552 C1548 0.930 . S
H1553 C1550 0.929 . S
S1554 N1555 1.613 . S
S1554 N1556 1.610 . S
N1555 S1554 1.613 . S
N1555 C1558 1.350 . S
N1556 S1554 1.610 . S
N1556 C1557 1.351 . S
C1557 C1551 1.428 . S
C1557 N1556 1.351 . S
C1557 C1558 1.434 . S
C1558 C1549 1.429 . S
C1558 N1555 1.350 . S
C1558 C1557 1.434 . S
C1559 C1560 1.369 . S
C1559 C1561 1.419 . S
C1559 H1563 0.930 . S
C1560 C1559 1.369 . S
C1560 C1569 1.429 . S
C1561 C1559 1.419 . S
C1561 C1562 1.363 . S
C1561 H1564 0.929 . S
C1562 C1561 1.363 . S
C1562 C1568 1.428 . S
H1563 C1559 0.930 . S
H1564 C1561 0.929 . S
S1565 N1566 1.613 . S
S1565 N1567 1.610 . S
N1566 S1565 1.613 . S
N1566 C1569 1.350 . S
N1567 S1565 1.610 . S
N1567 C1568 1.351 . S
C1568 C1562 1.428 . S
C1568 N1567 1.351 . S
C1568 C1569 1.434 . S
C1569 C1560 1.429 . S
C1569 N1566 1.350 . S
C1569 C1568 1.434 . S
C1570 C1571 1.369 . S
C1570 C1572 1.419 . S
C1570 H1574 0.930 . S
C1571 C1570 1.369 . S
C1571 C1580 1.429 . S
C1572 C1570 1.419 . S
C1572 C1573 1.363 . S
C1572 H1575 0.929 . S
C1573 C1572 1.363 . S
C1573 C1579 1.428 . S
H1574 C1570 0.930 . S
H1575 C1572 0.929 . S
S1576 N1577 1.613 . S
S1576 N1578 1.610 . S
N1577 S1576 1.613 . S
N1577 C1580 1.350 . S
N1578 S1576 1.610 . S
N1578 C1579 1.351 . S
C1579 C1573 1.428 . S
C1579 N1578 1.351 . S
C1579 C1580 1.434 . S
C1580 C1571 1.429 . S
C1580 N1577 1.350 . S
C1580 C1579 1.434 . S
C1581 C1582 1.369 . S
C1581 C1583 1.419 . S
C1581 H1585 0.930 . S
C1582 C1581 1.369 . S
C1582 C1591 1.429 . S
C1583 C1581 1.419 . S
C1583 C1584 1.363 . S
C1583 H1586 0.929 . S
C1584 C1583 1.363 . S
C1584 C1590 1.428 . S
H1585 C1581 0.930 . S
H1586 C1583 0.929 . S
S1587 N1588 1.613 . S
S1587 N1589 1.610 . S
N1588 S1587 1.613 . S
N1588 C1591 1.350 . S
N1589 S1587 1.610 . S
N1589 C1590 1.351 . S
C1590 C1584 1.428 . S
C1590 N1589 1.351 . S
C1590 C1591 1.434 . S
C1591 C1582 1.429 . S
C1591 N1588 1.350 . S
C1591 C1590 1.434 . S
C1592 C1593 1.369 . S
C1592 C1594 1.419 . S
C1592 H1596 0.930 . S
C1593 C1592 1.369 . S
C1593 C1602 1.429 . S
C1594 C1592 1.419 . S
C1594 C1595 1.363 . S
C1594 H1597 0.929 . S
C1595 C1594 1.363 . S
C1595 C1601 1.428 . S
H1596 C1592 0.930 . S
H1597 C1594 0.929 . S
S1598 N1599 1.613 . S
S1598 N1600 1.610 . S
N1599 S1598 1.613 . S
N1599 C1602 1.350 . S
N1600 S1598 1.610 . S
N1600 C1601 1.351 . S
C1601 C1595 1.428 . S
C1601 N1600 1.351 . S
C1601 C1602 1.434 . S
C1602 C1593 1.429 . S
C1602 N1599 1.350 . S
C1602 C1601 1.434 . S
C1603 C1604 1.369 . S
C1603 C1605 1.419 . S
C1603 H1607 0.930 . S
C1604 C1603 1.369 . S
C1604 C1613 1.429 . S
C1605 C1603 1.419 . S
C1605 C1606 1.363 . S
C1605 H1608 0.929 . S
C1606 C1605 1.363 . S
C1606 C1612 1.428 . S
H1607 C1603 0.930 . S
H1608 C1605 0.929 . S
S1609 N1610 1.613 . S
S1609 N1611 1.610 . S
N1610 S1609 1.613 . S
N1610 C1613 1.350 . S
N1611 S1609 1.610 . S
N1611 C1612 1.351 . S
C1612 C1606 1.428 . S
C1612 N1611 1.351 . S
C1612 C1613 1.434 . S
C1613 C1604 1.429 . S
C1613 N1610 1.350 . S
C1613 C1612 1.434 . S
C1614 C1615 1.369 . S
C1614 C1616 1.419 . S
C1614 H1618 0.930 . S
C1615 C1614 1.369 . S
C1615 C1624 1.429 . S
C1616 C1614 1.419 . S
C1616 C1617 1.363 . S
C1616 H1619 0.929 . S
C1617 C1616 1.363 . S
C1617 C1623 1.428 . S
H1618 C1614 0.930 . S
H1619 C1616 0.929 . S
S1620 N1621 1.613 . S
S1620 N1622 1.610 . S
N1621 S1620 1.613 . S
N1621 C1624 1.350 . S
N1622 S1620 1.610 . S
N1622 C1623 1.351 . S
C1623 C1617 1.428 . S
C1623 N1622 1.351 . S
C1623 C1624 1.434 . S
C1624 C1615 1.429 . S
C1624 N1621 1.350 . S
C1624 C1623 1.434 . S
C1625 C1626 1.369 . S
C1625 C1627 1.419 . S
C1625 H1629 0.930 . S
C1626 C1625 1.369 . S
C1626 C1635 1.429 . S
C1627 C1625 1.419 . S
C1627 C1628 1.363 . S
C1627 H1630 0.929 . S
C1628 C1627 1.363 . S
C1628 C1634 1.428 . S
H1629 C1625 0.930 . S
H1630 C1627 0.929 . S
S1631 N1632 1.613 . S
S1631 N1633 1.610 . S
N1632 S1631 1.613 . S
N1632 C1635 1.350 . S
N1633 S1631 1.610 . S
N1633 C1634 1.351 . S
C1634 C1628 1.428 . S
C1634 N1633 1.351 . S
C1634 C1635 1.434 . S
C1635 C1626 1.429 . S
C1635 N1632 1.350 . S
C1635 C1634 1.434 . S
C1636 C1637 1.369 . S
C1636 C1638 1.419 . S
C1636 H1640 0.930 . S
C1637 C1636 1.369 . S
C1637 C1646 1.429 . S
C1638 C1636 1.419 . S
C1638 C1639 1.363 . S
C1638 H1641 0.929 . S
C1639 C1638 1.363 . S
C1639 C1645 1.428 . S
H1640 C1636 0.930 . S
H1641 C1638 0.929 . S
S1642 N1643 1.613 . S
S1642 N1644 1.610 . S
N1643 S1642 1.613 . S
N1643 C1646 1.350 . S
N1644 S1642 1.610 . S
N1644 C1645 1.351 . S
C1645 C1639 1.428 . S
C1645 N1644 1.351 . S
C1645 C1646 1.434 . S
C1646 C1637 1.429 . S
C1646 N1643 1.350 . S
C1646 C1645 1.434 . S
C1647 C1648 1.369 . S
C1647 C1649 1.419 . S
C1647 H1651 0.930 . S
C1648 C1647 1.369 . S
C1648 C1657 1.429 . S
C1649 C1647 1.419 . S
C1649 C1650 1.363 . S
C1649 H1652 0.929 . S
C1650 C1649 1.363 . S
C1650 C1656 1.428 . S
H1651 C1647 0.930 . S
H1652 C1649 0.929 . S
S1653 N1654 1.613 . S
S1653 N1655 1.610 . S
N1654 S1653 1.613 . S
N1654 C1657 1.350 . S
N1655 S1653 1.610 . S
N1655 C1656 1.351 . S
C1656 C1650 1.428 . S
C1656 N1655 1.351 . S
C1656 C1657 1.434 . S
C1657 C1648 1.429 . S
C1657 N1654 1.350 . S
C1657 C1656 1.434 . S
C1658 C1659 1.369 . S
C1658 C1660 1.419 . S
C1658 H1662 0.930 . S
C1659 C1658 1.369 . S
C1659 C1668 1.429 . S
C1660 C1658 1.419 . S
C1660 C1661 1.363 . S
C1660 H1663 0.929 . S
C1661 C1660 1.363 . S
C1661 C1667 1.428 . S
H1662 C1658 0.930 . S
H1663 C1660 0.929 . S
S1664 N1665 1.613 . S
S1664 N1666 1.610 . S
N1665 S1664 1.613 . S
N1665 C1668 1.350 . S
N1666 S1664 1.610 . S
N1666 C1667 1.351 . S
C1667 C1661 1.428 . S
C1667 N1666 1.351 . S
C1667 C1668 1.434 . S
C1668 C1659 1.429 . S
C1668 N1665 1.350 . S
C1668 C1667 1.434 . S
C1669 C1670 1.369 . S
C1669 C1671 1.419 . S
C1669 H1673 0.930 . S
C1670 C1669 1.369 . S
C1670 C1679 1.429 . S
C1671 C1669 1.419 . S
C1671 C1672 1.363 . S
C1671 H1674 0.929 . S
C1672 C1671 1.363 . S
C1672 C1678 1.428 . S
H1673 C1669 0.930 . S
H1674 C1671 0.929 . S
S1675 N1676 1.613 . S
S1675 N1677 1.610 . S
N1676 S1675 1.613 . S
N1676 C1679 1.350 . S
N1677 S1675 1.610 . S
N1677 C1678 1.351 . S
C1678 C1672 1.428 . S
C1678 N1677 1.351 . S
C1678 C1679 1.434 . S
C1679 C1670 1.429 . S
C1679 N1676 1.350 . S
C1679 C1678 1.434 . S
C1680 C1681 1.369 . S
C1680 C1682 1.419 . S
C1680 H1684 0.930 . S
C1681 C1680 1.369 . S
C1681 C1690 1.429 . S
C1682 C1680 1.419 . S
C1682 C1683 1.363 . S
C1682 H1685 0.929 . S
C1683 C1682 1.363 . S
C1683 C1689 1.428 . S
H1684 C1680 0.930 . S
H1685 C1682 0.929 . S
S1686 N1687 1.613 . S
S1686 N1688 1.610 . S
N1687 S1686 1.613 . S
N1687 C1690 1.350 . S
N1688 S1686 1.610 . S
N1688 C1689 1.351 . S
C1689 C1683 1.428 . S
C1689 N1688 1.351 . S
C1689 C1690 1.434 . S
C1690 C1681 1.429 . S
C1690 N1687 1.350 . S
C1690 C1689 1.434 . S
C1691 C1692 1.369 . S
C1691 C1693 1.419 . S
C1691 H1695 0.930 . S
C1692 C1691 1.369 . S
C1692 C1701 1.429 . S
C1693 C1691 1.419 . S
C1693 C1694 1.363 . S
C1693 H1696 0.929 . S
C1694 C1693 1.363 . S
C1694 C1700 1.428 . S
H1695 C1691 0.930 . S
H1696 C1693 0.929 . S
S1697 N1698 1.613 . S
S1697 N1699 1.610 . S
N1698 S1697 1.613 . S
N1698 C1701 1.350 . S
N1699 S1697 1.610 . S
N1699 C1700 1.351 . S
C1700 C1694 1.428 . S
C1700 N1699 1.351 . S
C1700 C1701 1.434 . S
C1701 C1692 1.429 . S
C1701 N1698 1.350 . S
C1701 C1700 1.434 . S
C1702 C1703 1.369 . S
C1702 C1704 1.419 . S
C1702 H1706 0.930 . S
C1703 C1702 1.369 . S
C1703 C1712 1.429 1_556 S
C1704 C1702 1.419 . S
C1704 C1705 1.363 . S
C1704 H1707 0.929 . S
C1705 C1704 1.363 . S
C1705 C1711 1.428 1_556 S
H1706 C1702 0.930 . S
H1707 C1704 0.929 . S
S1708 N1709 1.613 . S
S1708 N1710 1.610 . S
N1709 S1708 1.613 . S
N1709 C1712 1.350 . S
N1710 S1708 1.610 . S
N1710 C1711 1.351 . S
C1711 C1705 1.428 1_554 S
C1711 N1710 1.351 . S
C1711 C1712 1.434 . S
C1712 C1703 1.429 1_554 S
C1712 N1709 1.350 . S
C1712 C1711 1.434 . S
C1713 C1714 1.369 1_554 S
C1713 C1715 1.419 . S
C1713 H1717 0.930 . S
C1714 C1713 1.369 1_556 S
C1714 C1723 1.429 . S
C1715 C1713 1.419 . S
C1715 C1716 1.363 1_554 S
C1715 H1718 0.929 . S
C1716 C1715 1.363 1_556 S
C1716 C1722 1.428 . S
H1717 C1713 0.930 . S
H1718 C1715 0.929 . S
S1719 N1720 1.613 . S
S1719 N1721 1.610 . S
N1720 S1719 1.613 . S
N1720 C1723 1.350 . S
N1721 S1719 1.610 . S
N1721 C1722 1.351 . S
C1722 C1716 1.428 . S
C1722 N1721 1.351 . S
C1722 C1723 1.434 . S
C1723 C1714 1.429 . S
C1723 N1720 1.350 . S
C1723 C1722 1.434 . S
C1724 C1725 1.369 . S
C1724 C1726 1.419 . S
C1724 H1728 0.930 . S
C1725 C1724 1.369 . S
C1725 C1734 1.429 . S
C1726 C1724 1.419 . S
C1726 C1727 1.363 . S
C1726 H1729 0.929 . S
C1727 C1726 1.363 . S
C1727 C1733 1.428 . S
H1728 C1724 0.930 . S
H1729 C1726 0.929 . S
S1730 N1731 1.613 . S
S1730 N1732 1.610 . S
N1731 S1730 1.613 . S
N1731 C1734 1.350 . S
N1732 S1730 1.610 . S
N1732 C1733 1.351 . S
C1733 C1727 1.428 . S
C1733 N1732 1.351 . S
C1733 C1734 1.434 . S
C1734 C1725 1.429 . S
C1734 N1731 1.350 . S
C1734 C1733 1.434 . S
C1735 C1736 1.369 . S
C1735 C1737 1.419 . S
C1735 H1739 0.930 . S
C1736 C1735 1.369 . S
C1736 C1745 1.429 . S
C1737 C1735 1.419 . S
C1737 C1738 1.363 . S
C1737 H1740 0.929 . S
C1738 C1737 1.363 . S
C1738 C1744 1.428 . S
H1739 C1735 0.930 . S
H1740 C1737 0.929 . S
S1741 N1742 1.613 . S
S1741 N1743 1.610 . S
N1742 S1741 1.613 . S
N1742 C1745 1.350 . S
N1743 S1741 1.610 . S
N1743 C1744 1.351 . S
C1744 C1738 1.428 . S
C1744 N1743 1.351 . S
C1744 C1745 1.434 . S
C1745 C1736 1.429 . S
C1745 N1742 1.350 . S
C1745 C1744 1.434 . S
C1746 C1747 1.369 1_556 S
C1746 C1748 1.419 . S
C1746 H1750 0.930 . S
C1747 C1746 1.369 1_554 S
C1747 C1756 1.429 . S
C1748 C1746 1.419 . S
C1748 C1749 1.363 1_556 S
C1748 H1751 0.929 . S
C1749 C1748 1.363 1_554 S
C1749 C1755 1.428 . S
H1750 C1746 0.930 . S
H1751 C1748 0.929 . S
S1752 N1753 1.613 . S
S1752 N1754 1.610 . S
N1753 S1752 1.613 . S
N1753 C1756 1.350 . S
N1754 S1752 1.610 . S
N1754 C1755 1.351 . S
C1755 C1749 1.428 . S
C1755 N1754 1.351 . S
C1755 C1756 1.434 . S
C1756 C1747 1.429 . S
C1756 N1753 1.350 . S
C1756 C1755 1.434 . S
C1757 C1758 1.399 . S
C1757 C1759 1.419 . S
C1757 H1761 0.930 . S
C1758 C1757 1.399 . S
C1758 C1767 1.398 1_554 S
C1759 C1757 1.419 . S
C1759 C1760 1.363 . S
C1759 H1762 0.929 . S
C1760 C1759 1.363 . S
C1760 C1766 1.428 1_554 S
H1761 C1757 0.930 . S
H1762 C1759 0.929 . S
S1763 N1764 1.613 . S
S1763 N1765 1.610 . S
N1764 S1763 1.613 . S
N1764 C1767 1.350 . S
N1765 S1763 1.610 . S
N1765 C1766 1.351 . S
C1766 C1760 1.428 1_556 S
C1766 N1765 1.351 . S
C1766 C1767 1.434 . S
C1767 C1758 1.398 1_556 S
C1767 N1764 1.350 . S
C1767 C1766 1.434 . S
C1768 C1769 1.369 . S
C1768 C1770 1.419 . S
C1768 H1772 0.930 . S
C1769 C1768 1.369 . S
C1769 C1778 1.429 . S
C1770 C1768 1.419 . S
C1770 C1771 1.363 . S
C1770 H1773 0.929 . S
C1771 C1770 1.363 . S
C1771 C1777 1.428 . S
H1772 C1768 0.930 . S
H1773 C1770 0.929 . S
S1774 N1775 1.613 . S
S1774 N1776 1.610 . S
N1775 S1774 1.613 . S
N1775 C1778 1.350 . S
N1776 S1774 1.610 . S
N1776 C1777 1.351 . S
C1777 C1771 1.428 . S
C1777 N1776 1.351 . S
C1777 C1778 1.434 . S
C1778 C1769 1.429 . S
C1778 N1775 1.350 . S
C1778 C1777 1.434 . S
C1779 C1780 1.369 . S
C1779 C1781 1.419 . S
C1779 H1783 0.930 . S
C1780 C1779 1.369 . S
C1780 C1789 1.429 . S
C1781 C1779 1.419 . S
C1781 C1782 1.363 . S
C1781 H1784 0.929 . S
C1782 C1781 1.363 . S
C1782 C1788 1.428 . S
H1783 C1779 0.930 . S
H1784 C1781 0.929 . S
S1785 N1786 1.613 . S
S1785 N1787 1.610 . S
N1786 S1785 1.613 . S
N1786 C1789 1.350 . S
N1787 S1785 1.610 . S
N1787 C1788 1.351 . S
C1788 C1782 1.428 . S
C1788 N1787 1.351 . S
C1788 C1789 1.434 . S
C1789 C1780 1.429 . S
C1789 N1786 1.350 . S
C1789 C1788 1.434 . S
C1790 C1791 1.369 . S
C1790 C1792 1.419 . S
C1790 H1794 0.930 . S
C1791 C1790 1.369 . S
C1791 C1800 1.429 . S
C1792 C1790 1.419 . S
C1792 C1793 1.363 . S
C1792 H1795 0.929 . S
C1793 C1792 1.363 . S
C1793 C1799 1.428 . S
H1794 C1790 0.930 . S
H1795 C1792 0.929 . S
S1796 N1797 1.613 . S
S1796 N1798 1.610 . S
N1797 S1796 1.613 . S
N1797 C1800 1.350 . S
N1798 S1796 1.610 . S
N1798 C1799 1.351 . S
C1799 C1793 1.428 . S
C1799 N1798 1.351 . S
C1799 C1800 1.434 . S
C1800 C1791 1.429 . S
C1800 N1797 1.350 . S
C1800 C1799 1.434 . S
C1801 C1802 1.369 . S
C1801 C1803 1.419 . S
C1801 H1805 0.930 . S
C1802 C1801 1.369 . S
C1802 C1811 1.429 . S
C1803 C1801 1.419 . S
C1803 C1804 1.363 . S
C1803 H1806 0.929 . S
C1804 C1803 1.363 . S
C1804 C1810 1.428 . S
H1805 C1801 0.930 . S
H1806 C1803 0.929 . S
S1807 N1808 1.613 . S
S1807 N1809 1.610 . S
N1808 S1807 1.613 . S
N1808 C1811 1.350 . S
N1809 S1807 1.610 . S
N1809 C1810 1.351 . S
C1810 C1804 1.428 . S
C1810 N1809 1.351 . S
C1810 C1811 1.434 . S
C1811 C1802 1.429 . S
C1811 N1808 1.350 . S
C1811 C1810 1.434 . S
C1812 C1813 1.369 . S
C1812 C1814 1.419 . S
C1812 H1816 0.930 . S
C1813 C1812 1.369 . S
C1813 C1822 1.429 . S
C1814 C1812 1.419 . S
C1814 C1815 1.363 . S
C1814 H1817 0.929 . S
C1815 C1814 1.363 . S
C1815 C1821 1.428 . S
H1816 C1812 0.930 . S
H1817 C1814 0.929 . S
S1818 N1819 1.613 . S
S1818 N1820 1.610 . S
N1819 S1818 1.613 . S
N1819 C1822 1.350 . S
N1820 S1818 1.610 . S
N1820 C1821 1.351 . S
C1821 C1815 1.428 . S
C1821 N1820 1.351 . S
C1821 C1822 1.434 . S
C1822 C1813 1.429 . S
C1822 N1819 1.350 . S
C1822 C1821 1.434 . S
C1823 C1824 1.369 . S
C1823 C1825 1.419 . S
C1823 H1827 0.930 . S
C1824 C1823 1.369 . S
C1824 C1833 1.429 . S
C1825 C1823 1.419 . S
C1825 C1826 1.363 . S
C1825 H1828 0.929 . S
C1826 C1825 1.363 . S
C1826 C1832 1.428 . S
H1827 C1823 0.930 . S
H1828 C1825 0.929 . S
S1829 N1830 1.613 . S
S1829 N1831 1.610 . S
N1830 S1829 1.613 . S
N1830 C1833 1.350 . S
N1831 S1829 1.610 . S
N1831 C1832 1.351 . S
C1832 C1826 1.428 . S
C1832 N1831 1.351 . S
C1832 C1833 1.434 . S
C1833 C1824 1.429 . S
C1833 N1830 1.350 . S
C1833 C1832 1.434 . S
C1834 C1835 1.369 . S
C1834 C1836 1.419 . S
C1834 H1838 0.930 . S
C1835 C1834 1.369 . S
C1835 C1844 1.429 . S
C1836 C1834 1.419 . S
C1836 C1837 1.363 . S
C1836 H1839 0.929 . S
C1837 C1836 1.363 . S
C1837 C1843 1.428 . S
H1838 C1834 0.930 . S
H1839 C1836 0.929 . S
S1840 N1841 1.613 . S
S1840 N1842 1.610 . S
N1841 S1840 1.613 . S
N1841 C1844 1.350 . S
N1842 S1840 1.610 . S
N1842 C1843 1.351 . S
C1843 C1837 1.428 . S
C1843 N1842 1.351 . S
C1843 C1844 1.434 . S
C1844 C1835 1.429 . S
C1844 N1841 1.350 . S
C1844 C1843 1.434 . S
C1845 C1846 1.369 . S
C1845 C1847 1.419 . S
C1845 H1849 0.930 . S
C1846 C1845 1.369 . S
C1846 C1855 1.429 . S
C1847 C1845 1.419 . S
C1847 C1848 1.363 . S
C1847 H1850 0.929 . S
C1848 C1847 1.363 . S
C1848 C1854 1.428 . S
H1849 C1845 0.930 . S
H1850 C1847 0.929 . S
S1851 N1852 1.613 . S
S1851 N1853 1.610 . S
N1852 S1851 1.613 . S
N1852 C1855 1.350 . S
N1853 S1851 1.610 . S
N1853 C1854 1.351 . S
C1854 C1848 1.428 . S
C1854 N1853 1.351 . S
C1854 C1855 1.434 . S
C1855 C1846 1.429 . S
C1855 N1852 1.350 . S
C1855 C1854 1.434 . S
C1153 C4 1.354 . S
C1155 C112 1.365 . S
C1164 C76 1.358 . S
C1166 C40 1.371 . S
C1175 C148 1.355 . S
C1177 C256 1.371 . S
C1186 C220 1.360 . S
C1188 C184 1.361 . S
C1197 C292 1.359 . S
C1199 C400 1.357 . S
C1208 C364 1.357 . S
C1210 C328 1.358 . S
C1219 C436 1.361 . S
C1221 C544 1.350 . S
C1230 C472 1.359 . S
C1232 C508 1.348 . S
C1241 C688 1.355 . S
C1243 C580 1.359 . S
C1252 C616 1.359 . S
C1254 C652 1.349 . S
C1263 C724 1.359 . S
C1265 C832 1.356 . S
C1274 C796 1.349 . S
C1276 C760 1.360 . S
C1285 C868 1.356 . S
C1287 C976 1.363 . S
C1296 C940 1.368 . S
C1298 C904 1.365 . S
C1307 C1012 1.367 . S
C1309 C1120 1.365 . S
C1318 C1048 1.368 . S
C1320 C1084 1.364 . S
C1329 C446 1.468 . S
C1331 C14 1.460 . S
C1340 C50 1.460 . S
C1342 C770 1.466 . S
C1351 C86 1.462 1_556 S
C1353 C230 1.452 1_554 S
C1362 C1130 1.456 1_554 S
C1364 C122 1.457 1_556 S
C1373 C158 1.459 . S
C1375 C302 1.467 . S
C1384 C626 1.460 . S
C1386 C194 1.466 . S
C1395 C986 1.453 1_556 S
C1397 C266 1.459 1_554 S
C1406 C1058 1.462 . S
C1408 C338 1.465 . S
C1417 C518 1.456 . S
C1419 C374 1.461 . S
C1428 C842 1.454 . S
C1430 C410 1.462 . S
C1439 C482 1.459 . S
C1441 C914 1.467 . S
C1450 C698 1.463 . S
C1452 C554 1.455 . S
C1461 C1022 1.467 . S
C1463 C590 1.461 . S
C1472 C806 1.464 . S
C1474 C662 1.455 . S
C1483 C878 1.466 . S
C1485 C734 1.461 . S
C1494 C950 1.458 1_556 S
C1496 C1094 1.455 1_554 S
C1505 C363 1.548 . S
C1507 C3 1.553 . S
C1516 C39 1.556 . S
C1518 C399 1.548 . S
C1527 C291 1.548 . S
C1529 C75 1.536 . S
C1538 C327 1.546 . S
C1540 C111 1.536 . S
C1549 C147 1.557 . S
C1551 C507 1.549 . S
C1560 C183 1.546 . S
C1562 C543 1.555 . S
C1571 C435 1.538 . S
C1573 C219 1.543 . S
C1582 C255 1.539 . S
C1584 C471 1.543 . S
C1593 C939 1.549 . S
C1595 C579 1.537 . S
C1604 C975 1.549 . S
C1606 C615 1.535 . S
C1615 C651 1.556 . S
C1617 C867 1.547 . S
C1626 C687 1.547 . S
C1628 C903 1.554 . S
C1637 C723 1.539 . S
C1639 C1083 1.544 . S
C1648 C759 1.548 . S
C1650 C1119 1.536 . S
C1659 C1011 1.547 . S
C1661 C795 1.556 . S
C1670 C1047 1.552 . S
C1672 C831 1.553 . S
C1681 C2 1.392 . S
C1683 C902 1.386 . S
C1692 C866 1.390 . S
C1694 C38 1.388 1_655 S
C1703 C74 1.383 . S
C1705 C974 1.386 . S
C1714 C110 1.382 1_655 S
C1716 C938 1.388 . S
C1725 C146 1.392 . S
C1727 C1046 1.386 . S
C1736 C182 1.385 1_455 S
C1738 C1010 1.391 . S
C1747 C1118 1.385 . S
C1749 C218 1.387 . S
C1758 C1082 1.384 . S
C1760 C254 1.385 1_455 S
C1769 C614 1.386 . S
C1771 C290 1.390 . S
C1780 C578 1.390 . S
C1782 C326 1.387 1_655 S
C1791 C362 1.388 . S
C1793 C686 1.382 . S
C1802 C398 1.386 1_655 S
C1804 C650 1.383 . S
C1813 C758 1.385 . S
C1815 C434 1.391 . S
C1824 C470 1.391 1_455 S
C1826 C722 1.386 . S
C1835 C506 1.382 . S
C1837 C830 1.387 . S
C1846 C542 1.386 1_455 S
C1848 C794 1.385 . S
