# Generated by pormake.
# Topology kag, (6)-cn, num edge types: 1
# Building blocks:
#     Node 0, Type 0, BuildingBlock: BETGAK_clean_sbu_0, # of connection points: 6
#     Node 1, Type 0, BuildingBlock: BETGAK_clean_sbu_0, # of connection points: 6
#     Node 2, Type 0, BuildingBlock: BETGAK_clean_sbu_0, # of connection points: 6
#     Edge 3, Type (0, 0), BuildingBlock: XIVTED_clean_linker_0, # of connection points: 2
#     Edge 4, Type (0, 0), BuildingBlock: XIVTED_clean_linker_0, # of connection points: 2
#     Edge 5, Type (0, 0), BuildingBlock: XIVTED_clean_linker_0, # of connection points: 2
#     Edge 6, Type (0, 0), BuildingBlock: XIVTED_clean_linker_0, # of connection points: 2
#     Edge 7, Type (0, 0), BuildingBlock: XIVTED_clean_linker_0, # of connection points: 2
#     Edge 8, Type (0, 0), BuildingBlock: XIVTED_clean_linker_0, # of connection points: 2
#     Edge 9, Type (0, 0), BuildingBlock: XIVTED_clean_linker_0, # of connection points: 2
#     Edge 10, Type (0, 0), BuildingBlock: XIVTED_clean_linker_0, # of connection points: 2
#     Edge 11, Type (0, 0), BuildingBlock: XIVTED_clean_linker_0, # of connection points: 2
# Relax obj value: 0.078
# Max RMSD: 0.194
# Mean RMSD: 0.103
data_MOF--net-kag--node1-BETGAK_clean_sbu_0--edge1-XIVTED_clean_linker_0
_symmetry_space_group_name_H-M    P1
_symmetry_Int_Tables_number       1
_symmetry_cell_setting            triclinic
loop_
_symmetry_equiv_pos_as_xyz
'x, y, z'
_cell_length_a     31.556884
_cell_length_b     42.416294
_cell_length_c     14.785374
_cell_angle_alpha  95.05969
_cell_angle_beta   91.583153
_cell_angle_gamma 96.757
loop_
_atom_site_label
_atom_site_type_symbol
_atom_site_fract_x
_atom_site_fract_y
_atom_site_fract_z
_atom_type_partial_charge
La0 La 1.05755 0.48186 0.01231 0.0
La1 La 0.06646 0.55048 1.00504 0.0
C2 C 1.03794 0.42535 0.05222 0.0
C3 C 1.00196 0.3993 0.03996 0.0
C4 C 0.99505 0.37968 0.95784 0.0
C5 C 0.96395 0.35312 0.95014 0.0
C6 C 0.93904 0.34542 0.02439 0.0
C7 C 0.94524 0.36556 0.10574 0.0
C8 C 0.97643 0.39209 0.11351 0.0
C9 C 0.06553 0.49954 0.84463 0.0
C10 C 0.97298 0.51694 0.9983 0.0
C11 C 0.08595 0.60708 0.96565 0.0
C12 C 0.12209 0.63302 0.97657 0.0
C13 C 0.12874 0.65337 0.0574 0.0
C14 C 0.15988 0.67989 0.06373 0.0
C15 C 0.18507 0.68685 0.98932 0.0
C16 C 0.17914 0.666 0.9093 0.0
C17 C 0.14792 0.6395 0.90291 0.0
C18 C 1.05828 0.53259 0.1726 0.0
C19 C 0.15101 0.51542 0.01889 0.0
O20 O 1.05847 0.4328 0.98006 0.0
O21 O 1.03253 0.45064 0.106 0.0
O22 O 0.0811 0.47545 0.87479 0.0
O23 O 1.04398 0.51183 0.90631 0.0
O24 O 0.99017 0.49153 0.02094 0.0
O25 O 0.99762 0.54218 0.97538 0.0
O26 O 0.06627 0.59954 0.03875 0.0
O27 O 0.0906 0.58184 0.91094 0.0
O28 O 1.04251 0.55659 0.1424 0.0
O29 O 0.08006 0.52053 0.11098 0.0
O30 O 0.13381 0.54078 0.99591 0.0
O31 O 0.12638 0.49024 0.04222 0.0
H32 H 1.01444 0.38428 0.90003 0.0
H33 H 0.96057 0.33797 0.88685 0.0
H34 H 0.92627 0.36067 0.16393 0.0
H35 H 0.98121 0.40657 0.1779 0.0
H36 H 0.10909 0.64938 0.11518 0.0
H37 H 0.16304 0.69561 0.12598 0.0
H38 H 0.19832 0.67033 0.85104 0.0
H39 H 0.14335 0.62447 0.83942 0.0
La40 La 0.60808 0.02049 0.99904 0.0
La41 La 0.51608 1.01176 0.01554 0.0
C42 C 0.68223 0.04093 0.95447 0.0
C43 C 0.70696 0.07285 0.96375 0.0
C44 C 0.69996 0.09549 0.0353 0.0
C45 C 0.72305 0.12589 0.04271 0.0
C46 C 0.75333 0.13436 0.9783 0.0
C47 C 0.75983 0.11172 0.9061 0.0
C48 C 0.73688 0.08122 0.89905 0.0
C49 C 0.5842 1.01358 0.16781 0.0
C50 C 0.55672 0.08179 0.02689 0.0
C51 C 0.44185 0.99134 0.05968 0.0
C52 C 0.4173 0.95936 0.0517 0.0
C53 C 0.42386 0.93656 0.98022 0.0
C54 C 0.40094 0.9061 0.97416 0.0
C55 C 0.37129 0.89774 0.0399 0.0
C56 C 0.36523 0.92055 0.11199 0.0
C57 C 0.38798 0.95109 0.11767 0.0
C58 C 0.54022 0.01879 0.84687 0.0
C59 C 0.56742 0.95047 0.98803 0.0
O60 O 0.67403 0.02794 0.02999 0.0
O61 O 0.64871 0.03749 0.89898 0.0
O62 O 0.61679 1.00232 0.13145 0.0
O63 O 0.56721 0.02949 0.11117 0.0
O64 O 0.59124 0.06951 0.99863 0.0
O65 O 0.52306 0.06314 0.05032 0.0
O66 O 0.45023 1.00387 0.98354 0.0
O67 O 0.47518 0.99525 0.11578 0.0
O68 O 0.5077 0.03016 0.88324 0.0
O69 O 0.55692 1.00272 0.90348 0.0
O70 O 0.53297 0.96278 0.0166 0.0
O71 O 0.601 0.9691 0.96416 0.0
H72 H 0.6765 0.08972 0.0853 0.0
H73 H 0.71682 0.14292 0.09829 0.0
H74 H 0.78316 0.11741 0.85581 0.0
H75 H 0.74249 0.06416 0.843 0.0
H76 H 0.44686 0.94223 0.92924 0.0
H77 H 0.40683 0.88895 0.91861 0.0
H78 H 0.34239 0.91494 0.16329 0.0
H79 H 0.38271 0.96827 0.17369 0.0
La80 La 0.56851 0.55135 0.01306 0.0
La81 La 0.55546 0.48098 1.00381 0.0
C82 C 0.56883 0.61006 0.99642 0.0
C83 C 0.56844 0.64486 0.98947 0.0
C84 C 0.5536 0.66412 0.06125 0.0
C85 C 0.55378 0.69699 0.05652 0.0
C86 C 0.56897 0.71167 0.97996 0.0
C87 C 0.58394 0.69237 0.90809 0.0
C88 C 0.58353 0.65936 0.91267 0.0
C89 C 0.57724 0.52808 0.17285 0.0
C90 C 0.47308 0.51469 0.00821 0.0
C91 C 0.55511 0.42224 0.02002 0.0
C92 C 0.55545 0.38742 0.02669 0.0
C93 C 0.56971 0.36813 0.95425 0.0
C94 C 0.56955 0.33526 0.9588 0.0
C95 C 0.55496 0.3206 0.03584 0.0
C96 C 0.54055 0.33992 0.10836 0.0
C97 C 0.54094 0.37294 0.10396 0.0
C98 C 0.5467 0.50444 0.84413 0.0
C99 C 0.6509 0.51764 0.0089 0.0
O100 O 0.55956 0.597 0.07129 0.0
O101 O 0.57758 0.58978 0.92948 0.0
O102 O 0.6004 0.55263 0.14668 0.0
O103 O 0.54961 0.51768 0.11039 0.0
O104 O 0.49839 0.54044 0.98963 0.0
O105 O 0.48925 0.48847 0.02658 0.0
O106 O 0.56414 0.43534 0.94511 0.0
O107 O 0.54659 0.44249 0.08724 0.0
O108 O 0.52347 0.47991 0.87023 0.0
O109 O 0.5744 0.51462 0.9066 0.0
O110 O 0.62558 0.49187 0.02727 0.0
O111 O 0.63475 0.54388 0.99063 0.0
H112 H 0.5419 0.65382 0.12164 0.0
H113 H 0.54258 0.711 0.11381 0.0
H114 H 0.5955 0.7027 0.84769 0.0
H115 H 0.59525 0.64522 0.85625 0.0
H116 H 0.58094 0.37842 0.8935 0.0
H117 H 0.58029 0.32123 0.90103 0.0
H118 H 0.52946 0.3296 0.16914 0.0
H119 H 0.52968 0.38709 0.1609 0.0
H120 H 1.0239 0.54333 0.75931 0.0
H121 H 0.10017 0.48892 0.25794 0.0
H122 H 0.10481 0.46932 0.70532 0.0
H123 H 1.01882 0.56265 0.31187 0.0
H124 H 0.10221 0.48121 0.42104 0.0
H125 H 1.02189 0.55104 0.59622 0.0
C126 C 1.0413 0.52875 0.71329 0.0
C127 C 0.06446 0.50559 0.74639 0.0
C128 C 0.08387 0.49908 0.39725 0.0
C129 C 0.06231 0.51419 0.55882 0.0
C130 C 0.08269 0.50344 0.30395 0.0
C131 C 1.05939 0.52653 0.27083 0.0
C132 C 0.06158 0.51792 0.4584 0.0
C133 C 1.03731 0.54462 0.33404 0.0
C134 C 1.04012 0.53311 0.61999 0.0
C135 C 0.08643 0.48742 0.68316 0.0
N136 N 1.03899 0.53999 0.42419 0.0
N137 N 0.08477 0.49205 0.593 0.0
H138 H 0.52497 0.04403 0.26615 0.0
H139 H 0.59931 0.98816 0.74852 0.0
H140 H 0.62529 0.98466 0.29693 0.0
H141 H 0.49931 0.04781 0.71777 0.0
H142 H 0.60956 0.98667 0.5838 0.0
H143 H 0.51473 0.0455 0.43084 0.0
C144 C 0.54476 0.03124 0.3074 0.0
C145 C 0.57609 1.01424 0.26727 0.0
C146 C 0.58537 1.00012 0.61303 0.0
C147 C 0.56468 0.01586 0.45673 0.0
C148 C 0.57958 1.001 0.70727 0.0
C149 C 0.54835 0.01809 0.74741 0.0
C150 C 0.55976 0.01644 0.55795 0.0
C151 C 0.52374 0.03427 0.69011 0.0
C152 C 0.53898 0.03212 0.40163 0.0
C153 C 0.60079 0.99814 0.32458 0.0
N154 N 0.5299 0.03301 0.59889 0.0
N155 N 0.59463 0.99937 0.4158 0.0
H156 H 0.60736 0.54429 0.76441 0.0
H157 H 0.51677 0.48811 0.25265 0.0
H158 H 0.49532 0.47667 0.70016 0.0
H159 H 0.62855 0.55601 0.3168 0.0
H160 H 0.50877 0.48308 0.41587 0.0
H161 H 0.61541 0.54934 0.60118 0.0
C162 C 0.58429 0.53069 0.71608 0.0
C163 C 0.55065 0.51 0.74625 0.0
C164 C 0.53514 0.49902 0.3943 0.0
C165 C 0.55981 0.51539 0.5587 0.0
C166 C 0.5398 0.50178 0.30096 0.0
C167 C 0.57336 0.52254 0.27075 0.0
C168 C 0.56423 0.51715 0.45832 0.0
C169 C 0.60215 0.53973 0.33677 0.0
C170 C 0.58897 0.53345 0.62274 0.0
C171 C 0.52179 0.49289 0.68022 0.0
N172 N 0.59689 0.53674 0.42698 0.0
N173 N 0.52708 0.49588 0.59003 0.0
H174 H 0.19813 0.46747 0.06009 0.0
H175 H 0.42669 0.56383 0.97245 0.0
H176 H 0.21311 0.56324 0.97883 0.0
H177 H 0.41045 0.46711 0.04618 0.0
H178 H 0.34915 0.56441 0.97598 0.0
H179 H 0.27565 0.46736 0.05751 0.0
C180 C 0.21761 0.48857 0.04193 0.0
C181 C 0.19862 0.51542 0.01975 0.0
C182 C 0.3625 0.54304 0.99133 0.0
C183 C 0.28827 0.5154 0.0164 0.0
C184 C 0.40695 0.54266 0.98929 0.0
C185 C 0.42559 0.51535 0.00893 0.0
C186 C 0.33602 0.51593 0.01335 0.0
C187 C 0.3979 0.48874 0.03039 0.0
C188 C 0.26207 0.48845 0.04033 0.0
C189 C 0.226 0.54195 0.99657 0.0
N190 N 0.35482 0.48972 0.03204 0.0
N191 N 0.26918 0.54125 0.9955 0.0
H192 H 0.79107 0.16788 0.13237 0.0
H193 H 0.88611 0.31871 0.87944 0.0
H194 H 0.7729 0.17409 0.84449 0.0
H195 H 0.92201 0.30393 0.15505 0.0
H196 H 0.83929 0.26821 0.8686 0.0
H197 H 0.8335 0.22026 0.14529 0.0
C198 C 0.79574 0.18037 0.07195 0.0
C199 C 0.77846 0.16651 0.98716 0.0
C200 C 0.85734 0.27609 0.93151 0.0
C201 C 0.82728 0.22652 1.00137 0.0
C202 C 0.88424 0.3049 0.9377 0.0
C203 C 0.90831 0.31569 0.01823 0.0
C204 C 0.85426 0.25787 1.00643 0.0
C205 C 0.90378 0.29693 0.09196 0.0
C206 C 0.82019 0.21021 0.07928 0.0
C207 C 0.78604 0.18368 0.911 0.0
N208 N 0.87744 0.26897 0.08418 0.0
N209 N 0.80983 0.21277 0.91991 0.0
H210 H 0.50386 0.90569 0.03426 0.0
H211 H 0.63038 0.7547 0.91355 0.0
H212 H 0.63074 0.91432 0.93018 0.0
H213 H 0.50774 0.74932 0.03692 0.0
H214 H 0.63021 0.81246 0.91159 0.0
H215 H 0.50403 0.84814 0.02866 0.0
C216 C 0.53182 0.89555 0.00992 0.0
C217 C 0.5674 0.91514 0.98269 0.0
C218 C 0.60334 0.79862 0.93902 0.0
C219 C 0.56778 0.84858 0.97634 0.0
C220 C 0.60326 0.76554 0.93966 0.0
C221 C 0.56908 0.74689 0.97578 0.0
C222 C 0.56885 0.81332 0.97424 0.0
C223 C 0.53513 0.76257 0.00963 0.0
C224 C 0.53189 0.86252 1.00691 0.0
C225 C 0.6026 0.90029 0.95195 0.0
N226 N 0.5359 0.79469 0.00797 0.0
N227 N 0.60191 0.86797 0.94968 0.0
H228 H 0.92587 0.56497 0.95777 0.0
H229 H 0.69727 0.46844 0.04416 0.0
H230 H 0.91085 0.46902 0.03764 0.0
H231 H 0.71356 0.5653 0.97153 0.0
H232 H 0.77482 0.46786 0.04064 0.0
H233 H 0.84836 0.56507 0.96036 0.0
C234 C 0.90638 0.54384 0.97563 0.0
C235 C 0.92537 0.51693 0.99742 0.0
C236 C 0.76147 0.48926 0.02553 0.0
C237 C 0.83571 0.51694 1.00077 0.0
C238 C 0.71702 0.48964 0.02757 0.0
C239 C 0.6984 0.51698 0.00823 0.0
C240 C 0.78796 0.51641 1.00383 0.0
C241 C 0.7261 0.54363 0.98709 0.0
C242 C 0.86193 0.54395 0.97723 0.0
C243 C 0.89798 0.49035 0.02021 0.0
N244 N 0.76918 0.54265 0.98543 0.0
N245 N 0.85479 0.49105 0.0213 0.0
H246 H 0.20229 0.72704 0.85555 0.0
H247 H 0.35338 0.85847 0.17542 0.0
H248 H 0.23754 0.71493 0.13349 0.0
H249 H 0.33237 0.86362 0.88781 0.0
H250 H 0.3105 0.80617 0.16227 0.0
H251 H 0.24986 0.77699 0.86622 0.0
C252 C 0.22039 0.73461 0.91857 0.0
C253 C 0.21575 0.71658 0.99376 0.0
C254 C 0.31539 0.81868 0.10196 0.0
C255 C 0.26988 0.77437 1.00693 0.0
C256 C 0.33966 0.84863 0.10953 0.0
C257 C 0.34638 0.86552 0.03265 0.0
C258 C 0.29733 0.80558 0.01699 0.0
C259 C 0.32835 0.85136 0.94874 0.0
C260 C 0.24739 0.76333 0.92477 0.0
C261 C 0.23951 0.72816 0.07414 0.0
N262 N 0.30449 0.82234 0.94327 0.0
N263 N 0.26537 0.75633 0.07868 0.0
H264 H 0.4941 0.2776 0.10413 0.0
H265 H 0.62014 0.12659 0.98014 0.0
H266 H 0.61577 0.28291 0.97666 0.0
H267 H 0.49353 0.11793 0.08557 0.0
H268 H 0.61993 0.18415 0.98592 0.0
H269 H 0.49435 0.21984 0.10587 0.0
C270 C 0.52102 0.26674 0.07706 0.0
C271 C 0.55491 0.28538 0.03986 0.0
C272 C 0.59214 0.16976 0.00793 0.0
C273 C 0.55522 0.21894 0.04117 0.0
C274 C 0.59223 0.13673 1.00482 0.0
C275 C 0.55674 0.11712 0.03236 0.0
C276 C 0.55632 0.18369 0.03895 0.0
C277 C 0.5216 0.13196 0.06353 0.0
C278 C 0.52099 0.23367 0.07758 0.0
C279 C 0.5886 0.26967 1.00482 0.0
N280 N 0.52227 0.16428 0.06592 0.0
N281 N 0.58788 0.23756 1.00641 0.0
loop_
_geom_bond_atom_site_label_1
_geom_bond_atom_site_label_2
_geom_bond_distance
_geom_bond_site_symmetry_2
_ccdc_geom_bond_type
La0 C2 2.928 . S
La0 O20 2.521 . S
La0 O21 2.628 1_556 S
La0 O22 2.554 . S
La0 O23 2.757 1_655 S
La0 O24 2.470 . S
La0 O29 2.482 1_556 S
La0 O31 2.503 1_655 S
La1 C11 2.928 . S
La1 O23 2.482 1_554 S
La1 O25 2.503 1_455 S
La1 O26 2.521 . S
La1 O27 2.628 1_554 S
La1 O28 2.554 . S
La1 O29 2.757 1_455 S
La1 O30 2.470 . S
C2 La0 2.928 . S
C2 C3 1.503 . S
C2 O20 1.261 . S
C2 O21 1.243 1_556 S
C3 C2 1.503 . S
C3 C4 1.394 . S
C3 C8 1.373 1_556 S
C4 C3 1.394 . S
C4 C5 1.380 . S
C4 H32 0.930 . S
C5 C4 1.380 . S
C5 C6 1.376 . S
C5 H33 0.930 . S
C6 C5 1.376 . S
C6 C7 1.370 1_556 S
C7 C6 1.370 1_554 S
C7 C8 1.396 . S
C7 H34 0.929 . S
C8 C3 1.373 1_554 S
C8 C7 1.396 . S
C8 H35 0.929 . S
C9 O22 1.240 1_455 S
C9 O23 1.289 . S
C10 O24 1.258 . S
C10 O25 1.256 1_556 S
C11 La1 2.928 . S
C11 C12 1.503 . S
C11 O26 1.261 . S
C11 O27 1.243 1_554 S
C12 C11 1.503 . S
C12 C13 1.394 . S
C12 C17 1.373 1_554 S
C13 C12 1.394 . S
C13 C14 1.380 . S
C13 H36 0.930 . S
C14 C13 1.380 . S
C14 C15 1.376 . S
C14 H37 0.930 . S
C15 C14 1.376 . S
C15 C16 1.370 1_554 S
C16 C15 1.370 1_556 S
C16 C17 1.396 . S
C16 H38 0.929 . S
C17 C12 1.373 1_556 S
C17 C16 1.396 . S
C17 H39 0.929 . S
C18 O28 1.240 . S
C18 O29 1.289 1_455 S
C19 O30 1.258 . S
C19 O31 1.256 1_554 S
O20 La0 2.521 . S
O20 C2 1.261 . S
O21 La0 2.628 1_554 S
O21 C2 1.243 1_554 S
O22 La0 2.554 . S
O22 C9 1.240 1_655 S
O23 La0 2.757 1_455 S
O23 La1 2.482 1_556 S
O23 C9 1.289 . S
O24 La0 2.470 . S
O24 C10 1.258 . S
O25 La1 2.503 1_655 S
O25 C10 1.256 1_554 S
O26 La1 2.521 . S
O26 C11 1.261 . S
O27 La1 2.628 1_556 S
O27 C11 1.243 1_556 S
O28 La1 2.554 . S
O28 C18 1.240 . S
O29 La0 2.482 1_554 S
O29 La1 2.757 1_655 S
O29 C18 1.289 1_655 S
O30 La1 2.470 . S
O30 C19 1.258 . S
O31 La0 2.503 1_455 S
O31 C19 1.256 1_556 S
H32 C4 0.930 . S
H33 C5 0.930 . S
H34 C7 0.929 . S
H35 C8 0.929 . S
H36 C13 0.930 . S
H37 C14 0.930 . S
H38 C16 0.929 . S
H39 C17 0.929 . S
La40 C42 2.926 1_554 S
La40 O60 2.521 . S
La40 O61 2.628 1_554 S
La40 O62 2.554 . S
La40 O63 2.757 1_545 S
La40 O64 2.470 . S
La40 O69 2.482 1_554 S
La40 O71 2.503 1_544 S
La41 C51 2.928 1_556 S
La41 O63 2.482 1_556 S
La41 O65 2.503 1_566 S
La41 O66 2.521 . S
La41 O67 2.628 1_556 S
La41 O68 2.554 . S
La41 O69 2.757 1_565 S
La41 O70 2.470 . S
C42 La40 2.926 1_556 S
C42 C43 1.504 . S
C42 O60 1.252 1_556 S
C42 O61 1.251 . S
C43 C42 1.504 . S
C43 C44 1.394 1_556 S
C43 C48 1.373 . S
C44 C43 1.394 1_554 S
C44 C45 1.380 . S
C44 H72 0.930 . S
C45 C44 1.380 . S
C45 C46 1.376 1_554 S
C45 H73 0.930 . S
C46 C45 1.376 1_556 S
C46 C47 1.370 . S
C47 C46 1.370 . S
C47 C48 1.396 . S
C47 H74 0.929 . S
C48 C43 1.373 . S
C48 C47 1.396 . S
C48 H75 0.929 . S
C49 O62 1.240 . S
C49 O63 1.289 1_545 S
C50 O64 1.258 . S
C50 O65 1.256 . S
C51 La41 2.928 1_554 S
C51 C52 1.503 . S
C51 O66 1.261 1_554 S
C51 O67 1.243 . S
C52 C51 1.503 . S
C52 C53 1.394 1_554 S
C52 C57 1.373 . S
C53 C52 1.394 1_556 S
C53 C54 1.380 . S
C53 H76 0.930 . S
C54 C53 1.380 . S
C54 C55 1.376 1_556 S
C54 H77 0.930 . S
C55 C54 1.376 1_554 S
C55 C56 1.370 . S
C56 C55 1.370 . S
C56 C57 1.396 . S
C56 H78 0.929 . S
C57 C52 1.373 . S
C57 C56 1.396 . S
C57 H79 0.929 . S
C58 O68 1.240 . S
C58 O69 1.289 1_565 S
C59 O70 1.258 . S
C59 O71 1.256 . S
O60 La40 2.521 . S
O60 C42 1.252 1_554 S
O61 La40 2.628 1_556 S
O61 C42 1.251 . S
O62 La40 2.554 . S
O62 C49 1.240 . S
O63 La40 2.757 1_565 S
O63 La41 2.482 1_554 S
O63 C49 1.289 1_565 S
O64 La40 2.470 . S
O64 C50 1.258 . S
O65 La41 2.503 1_544 S
O65 C50 1.256 . S
O66 La41 2.521 . S
O66 C51 1.261 1_556 S
O67 La41 2.628 1_554 S
O67 C51 1.243 . S
O68 La41 2.554 . S
O68 C58 1.240 . S
O69 La40 2.482 1_556 S
O69 La41 2.757 1_545 S
O69 C58 1.289 1_545 S
O70 La41 2.470 . S
O70 C59 1.258 . S
O71 La40 2.503 1_566 S
O71 C59 1.256 . S
H72 C44 0.930 . S
H73 C45 0.930 . S
H74 C47 0.929 . S
H75 C48 0.929 . S
H76 C53 0.930 . S
H77 C54 0.930 . S
H78 C56 0.929 . S
H79 C57 0.929 . S
La80 C82 2.928 . S
La80 O100 2.521 . S
La80 O101 2.628 1_554 S
La80 O102 2.554 . S
La80 O103 2.757 . S
La80 O104 2.470 . S
La80 O109 2.482 1_554 S
La80 O111 2.503 . S
La81 C91 2.928 . S
La81 O103 2.482 1_556 S
La81 O105 2.503 . S
La81 O106 2.521 . S
La81 O107 2.628 1_556 S
La81 O108 2.554 . S
La81 O109 2.757 . S
La81 O110 2.470 . S
C82 La80 2.928 . S
C82 C83 1.503 . S
C82 O100 1.261 . S
C82 O101 1.243 1_554 S
C83 C82 1.503 . S
C83 C84 1.394 . S
C83 C88 1.373 1_554 S
C84 C83 1.394 . S
C84 C85 1.380 . S
C84 H112 0.930 . S
C85 C84 1.380 . S
C85 C86 1.381 . S
C85 H113 0.930 . S
C86 C85 1.381 . S
C86 C87 1.366 1_554 S
C87 C86 1.366 1_556 S
C87 C88 1.396 . S
C87 H114 0.929 . S
C88 C83 1.373 1_556 S
C88 C87 1.396 . S
C88 H115 0.929 . S
C89 O102 1.240 . S
C89 O103 1.289 . S
C90 O104 1.258 . S
C90 O105 1.256 1_554 S
C91 La81 2.928 . S
C91 C92 1.503 . S
C91 O106 1.261 . S
C91 O107 1.243 1_556 S
C92 C91 1.503 . S
C92 C93 1.394 . S
C92 C97 1.373 1_556 S
C93 C92 1.394 . S
C93 C94 1.380 . S
C93 H116 0.930 . S
C94 C93 1.380 . S
C94 C95 1.375 . S
C94 H117 0.930 . S
C95 C94 1.375 . S
C95 C96 1.371 1_556 S
C96 C95 1.371 1_554 S
C96 C97 1.396 . S
C96 H118 0.929 . S
C97 C92 1.373 1_554 S
C97 C96 1.396 . S
C97 H119 0.929 . S
C98 O108 1.240 . S
C98 O109 1.289 . S
C99 O110 1.258 . S
C99 O111 1.256 1_556 S
O100 La80 2.521 . S
O100 C82 1.261 . S
O101 La80 2.628 1_556 S
O101 C82 1.243 1_556 S
O102 La80 2.554 . S
O102 C89 1.240 . S
O103 La80 2.757 . S
O103 La81 2.482 1_554 S
O103 C89 1.289 . S
O104 La80 2.470 . S
O104 C90 1.258 . S
O105 La81 2.503 . S
O105 C90 1.256 1_556 S
O106 La81 2.521 . S
O106 C91 1.261 . S
O107 La81 2.628 1_554 S
O107 C91 1.243 1_554 S
O108 La81 2.554 . S
O108 C98 1.240 . S
O109 La80 2.482 1_556 S
O109 La81 2.757 . S
O109 C98 1.289 . S
O110 La81 2.470 . S
O110 C99 1.258 . S
O111 La80 2.503 . S
O111 C99 1.256 1_554 S
H112 C84 0.930 . S
H113 C85 0.930 . S
H114 C87 0.929 . S
H115 C88 0.929 . S
H116 C93 0.930 . S
H117 C94 0.930 . S
H118 C96 0.929 . S
H119 C97 0.929 . S
H120 C126 0.930 . S
H121 C130 0.930 . S
H122 C135 0.929 . S
H123 C133 0.929 . S
H124 C128 0.929 . S
H125 C134 0.929 . S
C126 H120 0.930 . S
C126 C127 1.367 1_655 S
C126 C134 1.378 . S
C127 C126 1.367 1_455 S
C127 C135 1.433 . S
C128 H124 0.929 . S
C128 C130 1.378 . S
C128 C132 1.350 . S
C129 C132 1.463 . S
C129 C134 1.350 1_455 S
C129 N137 1.427 . S
C130 H121 0.930 . S
C130 C128 1.378 . S
C130 C131 1.367 . S
C131 C130 1.367 . S
C131 C133 1.433 1_455 S
C132 C128 1.350 . S
C132 C129 1.463 . S
C132 N136 1.427 1_455 S
C133 H123 0.929 . S
C133 C131 1.433 1_655 S
C133 N136 1.384 . S
C134 H125 0.929 . S
C134 C126 1.378 . S
C134 C129 1.350 1_655 S
C135 H122 0.929 . S
C135 C127 1.433 . S
C135 N137 1.384 . S
N136 C132 1.427 1_655 S
N136 C133 1.384 . S
N137 C129 1.427 . S
N137 C135 1.384 . S
H138 C144 0.930 . S
H139 C148 0.930 . S
H140 C153 0.929 . S
H141 C151 0.929 . S
H142 C146 0.929 . S
H143 C152 0.929 . S
C144 H138 0.930 . S
C144 C145 1.367 . S
C144 C152 1.378 . S
C145 C144 1.367 . S
C145 C153 1.433 1_545 S
C146 H142 0.929 . S
C146 C148 1.378 . S
C146 C150 1.370 . S
C147 C150 1.459 1_545 S
C147 C152 1.350 . S
C147 N155 1.427 1_545 S
C148 H139 0.930 . S
C148 C146 1.378 . S
C148 C149 1.386 . S
C149 C148 1.386 . S
C149 C151 1.412 1_565 S
C150 C146 1.370 . S
C150 C147 1.459 1_565 S
C150 N154 1.409 1_565 S
C151 H141 0.929 . S
C151 C149 1.412 1_545 S
C151 N154 1.384 . S
C152 H143 0.929 . S
C152 C144 1.378 . S
C152 C147 1.350 . S
C153 H140 0.929 . S
C153 C145 1.433 1_565 S
C153 N155 1.384 . S
N154 C150 1.409 1_545 S
N154 C151 1.384 . S
N155 C147 1.427 1_565 S
N155 C153 1.384 . S
H156 C162 0.930 . S
H157 C166 0.930 . S
H158 C171 0.929 . S
H159 C169 0.929 . S
H160 C164 0.929 . S
H161 C170 0.929 . S
C162 H156 0.930 . S
C162 C163 1.367 . S
C162 C170 1.378 . S
C163 C162 1.367 . S
C163 C171 1.433 . S
C164 H160 0.929 . S
C164 C166 1.378 . S
C164 C168 1.350 . S
C165 C168 1.463 . S
C165 C170 1.350 . S
C165 N173 1.427 . S
C166 H157 0.930 . S
C166 C164 1.378 . S
C166 C167 1.367 . S
C167 C166 1.367 . S
C167 C169 1.433 . S
C168 C164 1.350 . S
C168 C165 1.463 . S
C168 N172 1.427 . S
C169 H159 0.929 . S
C169 C167 1.433 . S
C169 N172 1.384 . S
C170 H161 0.929 . S
C170 C162 1.378 . S
C170 C165 1.350 . S
C171 H158 0.929 . S
C171 C163 1.433 . S
C171 N173 1.384 . S
N172 C168 1.427 . S
N172 C169 1.384 . S
N173 C165 1.427 . S
N173 C171 1.384 . S
H174 C180 0.930 . S
H175 C184 0.930 . S
H176 C189 0.929 . S
H177 C187 0.929 . S
H178 C182 0.929 . S
H179 C188 0.929 . S
C180 H174 0.930 . S
C180 C181 1.367 1_554 S
C180 C188 1.378 . S
C181 C180 1.367 1_556 S
C181 C189 1.433 . S
C182 H178 0.929 . S
C182 C184 1.378 . S
C182 C186 1.350 . S
C183 C186 1.463 . S
C183 C188 1.350 1_556 S
C183 N191 1.427 . S
C184 H175 0.930 . S
C184 C182 1.378 . S
C184 C185 1.367 . S
C185 C184 1.367 . S
C185 C187 1.433 1_556 S
C186 C182 1.350 . S
C186 C183 1.463 . S
C186 N190 1.427 1_556 S
C187 H177 0.929 . S
C187 C185 1.433 1_554 S
C187 N190 1.384 . S
C188 H179 0.929 . S
C188 C180 1.378 . S
C188 C183 1.350 1_554 S
C189 H176 0.929 . S
C189 C181 1.433 . S
C189 N191 1.384 . S
N190 C186 1.427 1_554 S
N190 C187 1.384 . S
N191 C183 1.427 . S
N191 C189 1.384 . S
H192 C198 0.930 . S
H193 C202 0.930 . S
H194 C207 0.929 . S
H195 C205 0.929 . S
H196 C200 0.929 . S
H197 C206 0.929 . S
C198 H192 0.930 . S
C198 C199 1.367 1_554 S
C198 C206 1.378 . S
C199 C198 1.367 1_556 S
C199 C207 1.433 . S
C200 H196 0.929 . S
C200 C202 1.378 . S
C200 C204 1.350 . S
C201 C204 1.463 . S
C201 C206 1.350 1_556 S
C201 N209 1.427 . S
C202 H193 0.930 . S
C202 C200 1.378 . S
C202 C203 1.367 . S
C203 C202 1.367 . S
C203 C205 1.433 1_556 S
C204 C200 1.350 . S
C204 C201 1.463 . S
C204 N208 1.427 1_556 S
C205 H195 0.929 . S
C205 C203 1.433 1_554 S
C205 N208 1.384 . S
C206 H197 0.929 . S
C206 C198 1.378 . S
C206 C201 1.350 1_554 S
C207 H194 0.929 . S
C207 C199 1.433 . S
C207 N209 1.384 . S
N208 C204 1.427 1_554 S
N208 C205 1.384 . S
N209 C201 1.427 . S
N209 C207 1.384 . S
H210 C216 0.930 . S
H211 C220 0.930 . S
H212 C225 0.929 . S
H213 C223 0.929 . S
H214 C218 0.929 . S
H215 C224 0.929 . S
C216 H210 0.930 . S
C216 C217 1.367 1_554 S
C216 C224 1.378 . S
C217 C216 1.367 1_556 S
C217 C225 1.433 . S
C218 H214 0.929 . S
C218 C220 1.378 . S
C218 C222 1.350 . S
C219 C222 1.462 . S
C219 C224 1.347 1_556 S
C219 N227 1.431 . S
C220 H211 0.930 . S
C220 C218 1.378 . S
C220 C221 1.367 . S
C221 C220 1.367 . S
C221 C223 1.433 1_556 S
C222 C218 1.350 . S
C222 C219 1.462 . S
C222 N226 1.427 1_556 S
C223 H213 0.929 . S
C223 C221 1.433 1_554 S
C223 N226 1.384 . S
C224 H215 0.929 . S
C224 C216 1.378 . S
C224 C219 1.347 1_554 S
C225 H212 0.929 . S
C225 C217 1.433 . S
C225 N227 1.384 . S
N226 C222 1.427 1_554 S
N226 C223 1.384 . S
N227 C219 1.431 . S
N227 C225 1.384 . S
H228 C234 0.930 . S
H229 C238 0.930 . S
H230 C243 0.929 . S
H231 C241 0.929 . S
H232 C236 0.929 . S
H233 C242 0.929 . S
C234 H228 0.930 . S
C234 C235 1.367 . S
C234 C242 1.378 . S
C235 C234 1.367 . S
C235 C243 1.433 1_554 S
C236 H232 0.929 . S
C236 C238 1.378 . S
C236 C240 1.350 1_556 S
C237 C240 1.463 . S
C237 C242 1.350 . S
C237 N245 1.427 1_554 S
C238 H229 0.930 . S
C238 C236 1.378 . S
C238 C239 1.367 1_556 S
C239 C238 1.367 1_554 S
C239 C241 1.433 . S
C240 C236 1.350 1_554 S
C240 C237 1.463 . S
C240 N244 1.427 . S
C241 H231 0.929 . S
C241 C239 1.433 . S
C241 N244 1.384 . S
C242 H233 0.929 . S
C242 C234 1.378 . S
C242 C237 1.350 . S
C243 H230 0.929 . S
C243 C235 1.433 1_556 S
C243 N245 1.384 . S
N244 C240 1.427 . S
N244 C241 1.384 . S
N245 C237 1.427 1_556 S
N245 C243 1.384 . S
H246 C252 0.930 . S
H247 C256 0.930 . S
H248 C261 0.929 . S
H249 C259 0.929 . S
H250 C254 0.929 . S
H251 C260 0.929 . S
C252 H246 0.930 . S
C252 C253 1.358 1_556 S
C252 C260 1.378 . S
C253 C252 1.358 1_554 S
C253 C261 1.441 . S
C254 H250 0.929 . S
C254 C256 1.378 . S
C254 C258 1.350 . S
C255 C258 1.463 . S
C255 C260 1.350 1_554 S
C255 N263 1.427 . S
C256 H247 0.930 . S
C256 C254 1.378 . S
C256 C257 1.367 . S
C257 C256 1.367 . S
C257 C259 1.433 1_554 S
C258 C254 1.350 . S
C258 C255 1.463 . S
C258 N262 1.427 1_554 S
C259 H249 0.929 . S
C259 C257 1.433 1_556 S
C259 N262 1.384 . S
C260 H251 0.929 . S
C260 C252 1.378 . S
C260 C255 1.350 1_556 S
C261 H248 0.929 . S
C261 C253 1.441 . S
C261 N263 1.384 . S
N262 C258 1.427 1_556 S
N262 C259 1.384 . S
N263 C255 1.427 . S
N263 C261 1.384 . S
H264 C270 0.930 . S
H265 C274 0.930 . S
H266 C279 0.929 . S
H267 C277 0.929 . S
H268 C272 0.929 . S
H269 C278 0.929 . S
C270 H264 0.930 . S
C270 C271 1.367 . S
C270 C278 1.378 . S
C271 C270 1.367 . S
C271 C279 1.433 1_554 S
C272 H268 0.929 . S
C272 C274 1.378 . S
C272 C276 1.350 . S
C273 C276 1.463 1_554 S
C273 C278 1.350 . S
C273 N281 1.427 1_554 S
C274 H265 0.930 . S
C274 C272 1.378 . S
C274 C275 1.367 1_556 S
C275 C274 1.367 1_554 S
C275 C277 1.433 . S
C276 C272 1.350 . S
C276 C273 1.463 1_556 S
C276 N280 1.427 1_556 S
C277 H267 0.929 . S
C277 C275 1.433 . S
C277 N280 1.384 . S
C278 H269 0.929 . S
C278 C270 1.378 . S
C278 C273 1.350 . S
C279 H266 0.929 . S
C279 C271 1.433 1_556 S
C279 N281 1.384 . S
N280 C276 1.427 1_554 S
N280 C277 1.384 . S
N281 C273 1.427 1_556 S
N281 C279 1.384 . S
C127 C9 1.446 . S
C131 C18 1.446 . S
C145 C49 1.448 . S
C149 C58 1.450 . S
C163 C98 1.458 . S
C167 C89 1.458 . S
C181 C19 2.612 1_556 S
C185 C90 2.566 1_556 S
C199 C46 0.868 . S
C203 C6 0.868 . S
C217 C59 2.028 . S
C221 C86 1.978 1_556 S
C235 C10 2.616 1_554 S
C239 C99 2.560 1_554 S
C253 C15 0.863 . S
C257 C55 0.862 . S
C271 C95 1.983 1_554 S
C275 C50 2.031 . S
