# Generated by pormake.
# Topology sra, (4)-cn, num edge types: 1
# Building blocks:
#     Node 0, Type 0, BuildingBlock: KUFVIS_clean_sbu_0, # of connection points: 4
#     Node 1, Type 0, BuildingBlock: KUFVIS_clean_sbu_0, # of connection points: 4
#     Node 2, Type 0, BuildingBlock: KUFVIS_clean_sbu_0, # of connection points: 4
#     Node 3, Type 0, BuildingBlock: KUFVIS_clean_sbu_0, # of connection points: 4
#     Node 4, Type 0, BuildingBlock: KUFVIS_clean_sbu_0, # of connection points: 4
#     Node 5, Type 0, BuildingBlock: KUFVIS_clean_sbu_0, # of connection points: 4
#     Node 6, Type 0, BuildingBlock: KUFVIS_clean_sbu_0, # of connection points: 4
#     Node 7, Type 0, BuildingBlock: KUFVIS_clean_sbu_0, # of connection points: 4
#     Edge 8, Type (0, 0), BuildingBlock: MIFKUJ_clean_linker_0, # of connection points: 2
#     Edge 9, Type (0, 0), BuildingBlock: MIFKUJ_clean_linker_0, # of connection points: 2
#     Edge 10, Type (0, 0), BuildingBlock: MIFKUJ_clean_linker_0, # of connection points: 2
#     Edge 11, Type (0, 0), BuildingBlock: MIFKUJ_clean_linker_0, # of connection points: 2
#     Edge 12, Type (0, 0), BuildingBlock: MIFKUJ_clean_linker_0, # of connection points: 2
#     Edge 13, Type (0, 0), BuildingBlock: MIFKUJ_clean_linker_0, # of connection points: 2
#     Edge 14, Type (0, 0), BuildingBlock: MIFKUJ_clean_linker_0, # of connection points: 2
#     Edge 15, Type (0, 0), BuildingBlock: MIFKUJ_clean_linker_0, # of connection points: 2
#     Edge 16, Type (0, 0), BuildingBlock: MIFKUJ_clean_linker_0, # of connection points: 2
#     Edge 17, Type (0, 0), BuildingBlock: MIFKUJ_clean_linker_0, # of connection points: 2
#     Edge 18, Type (0, 0), BuildingBlock: MIFKUJ_clean_linker_0, # of connection points: 2
#     Edge 19, Type (0, 0), BuildingBlock: MIFKUJ_clean_linker_0, # of connection points: 2
#     Edge 20, Type (0, 0), BuildingBlock: MIFKUJ_clean_linker_0, # of connection points: 2
#     Edge 21, Type (0, 0), BuildingBlock: MIFKUJ_clean_linker_0, # of connection points: 2
#     Edge 22, Type (0, 0), BuildingBlock: MIFKUJ_clean_linker_0, # of connection points: 2
#     Edge 23, Type (0, 0), BuildingBlock: MIFKUJ_clean_linker_0, # of connection points: 2
# Relax obj value: 0.055
# Max RMSD: 0.085
# Mean RMSD: 0.085
data_MOF--net-sra--node1-KUFVIS_clean_sbu_0--edge1-MIFKUJ_clean_linker_0
_symmetry_space_group_name_H-M    P1
_symmetry_Int_Tables_number       1
_symmetry_cell_setting            triclinic
loop_
_symmetry_equiv_pos_as_xyz
'x, y, z'
_cell_length_a     34.580161
_cell_length_b     68.014999
_cell_length_c     43.01722
_cell_angle_alpha  89.992611
_cell_angle_beta   89.996636
_cell_angle_gamma 90.0162
loop_
_atom_site_label
_atom_site_type_symbol
_atom_site_fract_x
_atom_site_fract_y
_atom_site_fract_z
_atom_type_partial_charge
Mn0 Mn 0.0051 0.11016 0.15252 0.0
Mn1 Mn 0.00803 0.06939 0.19731 0.0
C2 C 0.94832 0.09753 0.17286 0.0
C3 C 0.00917 0.14432 0.14785 0.0
C4 C 0.01477 0.06837 0.12696 0.0
O5 O 0.06182 0.10841 0.16465 0.0
O6 O 0.0599 0.08194 0.19606 0.0
C7 C 0.02318 0.08813 0.25823 0.0
N8 N 0.00122 0.07611 0.24007 0.0
C9 C 0.95966 0.06804 0.28307 0.0
C10 C 0.98196 0.08023 0.30231 0.0
C11 C 0.01377 0.09037 0.2898 0.0
C12 C 0.97049 0.06634 0.25183 0.0
H13 H 0.04765 0.09593 0.2487 0.0
C14 C 0.07784 0.09627 0.1832 0.0
O15 O 0.0157 0.13287 0.12426 0.0
O16 O 0.00073 0.13591 0.17403 0.0
N17 N 0.9599 0.05576 0.20108 0.0
C18 C 0.93985 0.0457 0.17893 0.0
C19 C 0.90694 0.0349 0.18753 0.0
C20 C 0.89513 0.03452 0.21877 0.0
C21 C 0.91582 0.04525 0.24103 0.0
C22 C 0.94874 0.05546 0.2312 0.0
H23 H 0.94911 0.04577 0.15496 0.0
O24 O 0.9478 0.10888 0.14861 0.0
O25 O 0.98228 0.09391 0.18468 0.0
O26 O 0.01104 0.08683 0.1224 0.0
O27 O 0.01465 0.06061 0.15398 0.0
C28 C 0.90489 0.04634 0.27254 0.0
C29 C 0.92668 0.05781 0.29352 0.0
H30 H 0.9747 0.08207 0.32663 0.0
H31 H 0.031 0.09988 0.30445 0.0
H32 H 0.89094 0.02675 0.17018 0.0
H33 H 0.87016 0.02592 0.22548 0.0
H34 H 0.87945 0.03864 0.28078 0.0
H35 H 0.91762 0.05881 0.31757 0.0
Mn36 Mn 0.01832 0.38962 0.15297 0.0
Mn37 Mn 0.02614 0.43055 0.19672 0.0
C38 C 0.07836 0.39985 0.17068 0.0
C39 C 0.00861 0.35569 0.14956 0.0
C40 C 0.01092 0.43115 0.12709 0.0
O41 O 0.96301 0.39438 0.168 0.0
O42 O 0.97359 0.41932 0.2016 0.0
C43 C 0.01947 0.41367 0.25995 0.0
N44 N 0.0396 0.42439 0.23867 0.0
C45 C 0.08894 0.43211 0.27617 0.0
C46 C 0.06863 0.42125 0.29856 0.0
C47 C 0.03384 0.4119 0.29035 0.0
C48 C 0.07332 0.43325 0.24621 0.0
H49 H 0.99267 0.40652 0.25374 0.0
C50 C 0.95175 0.40624 0.18924 0.0
O51 O 0.00198 0.36717 0.12602 0.0
O52 O 0.01988 0.36399 0.17514 0.0
N53 N 0.07615 0.44251 0.19419 0.0
C54 C 0.09368 0.4511 0.16926 0.0
C55 C 0.12971 0.4603 0.17314 0.0
C56 C 0.14709 0.46079 0.20265 0.0
C57 C 0.12838 0.45195 0.22797 0.0
C58 C 0.09267 0.44286 0.22265 0.0
H59 H 0.08033 0.45093 0.14659 0.0
O60 O 0.07583 0.38825 0.14682 0.0
O61 O 0.04585 0.40506 0.18318 0.0
O62 O 0.01419 0.4127 0.12241 0.0
O63 O 0.01308 0.4389 0.15405 0.0
C64 C 0.1439 0.45165 0.25823 0.0
C65 C 0.12431 0.44165 0.28229 0.0
H66 H 0.07961 0.41986 0.32204 0.0
H67 H 0.0181 0.40341 0.30746 0.0
H68 H 0.14395 0.46709 0.15347 0.0
H69 H 0.17487 0.46792 0.20557 0.0
H70 H 0.1713 0.45873 0.26313 0.0
H71 H 0.13702 0.44114 0.3053 0.0
Mn72 Mn 0.00159 0.88846 0.84867 0.0
Mn73 Mn 0.99127 0.92827 0.8025 0.0
C74 C 0.94068 0.89834 0.83293 0.0
C75 C 0.01182 0.85464 0.85348 0.0
C76 C 0.00803 0.93098 0.87171 0.0
O77 O 0.05591 0.89264 0.83158 0.0
O78 O 0.04476 0.91785 0.79873 0.0
C79 C -0.00126 0.90854 0.74145 0.0
N80 N 0.9781 0.92002 0.76138 0.0
C81 C 0.92702 0.92404 0.72391 0.0
C82 C 0.94784 0.91236 0.70291 0.0
C83 C 0.9838 0.90453 0.71176 0.0
C84 C 0.94332 0.92748 0.7532 0.0
H85 H 0.02636 0.90248 0.74819 0.0
C86 C 0.06693 0.90484 0.81083 0.0
O87 O 0.01953 0.86657 0.87625 0.0
O88 O -0.00118 0.86241 0.82804 0.0
N89 N 0.94083 0.93982 0.8036 0.0
C90 C 0.92382 0.95023 0.82697 0.0
C91 C 0.88768 0.95907 0.82192 0.0
C92 C 0.86954 0.95725 0.79286 0.0
C93 C 0.88756 0.94646 0.76916 0.0
C94 C 0.92378 0.93816 0.77545 0.0
H95 H 0.93774 0.95183 0.84928 0.0
O96 O 0.9447 0.88725 0.85725 0.0
O97 O 0.9723 0.90316 0.81857 0.0
O98 O 0.00739 0.91252 0.87737 0.0
O99 O 0.00357 0.93816 0.84449 0.0
C100 C 0.87094 0.94353 0.73961 0.0
C101 C 0.89054 0.93221 0.71708 0.0
H102 H 0.93641 0.90922 0.68 0.0
H103 H -5e-05 0.89543 0.69573 0.0
H104 H 0.87391 0.96733 0.84034 0.0
H105 H 0.84178 0.9642 0.78904 0.0
H106 H 0.84292 0.94973 0.73407 0.0
H107 H 0.87722 0.92983 0.6946 0.0
Mn108 Mn 0.03118 0.60943 0.84669 0.0
Mn109 Mn 0.02848 0.56942 0.80034 0.0
C110 C 0.08788 0.59711 0.82539 0.0
C111 C 0.02653 0.6435 0.8526 0.0
C112 C 0.02194 0.56731 0.87071 0.0
O113 O 0.97413 0.60751 0.83505 0.0
O114 O 0.97684 0.58197 0.80187 0.0
C115 C 0.01354 0.58918 0.74017 0.0
N116 N 0.03556 0.57696 0.75795 0.0
C117 C 0.0776 0.56984 0.71486 0.0
C118 C 0.05525 0.58224 0.69602 0.0
C119 C 0.02318 0.59202 0.70878 0.0
C120 C 0.06663 0.56761 0.74599 0.0
H121 H 0.98884 0.5967 0.74988 0.0
C122 C 0.95849 0.59586 0.81547 0.0
O123 O 0.02058 0.63167 0.87584 0.0
O124 O 0.03486 0.63551 0.82607 0.0
N125 N 0.07669 0.55598 0.79624 0.0
C126 C 0.09667 0.54562 0.81807 0.0
C127 C 0.13003 0.53529 0.80928 0.0
C128 C 0.1422 0.53559 0.77815 0.0
C129 C 0.1214 0.54649 0.75615 0.0
C130 C 0.08828 0.5564 0.76623 0.0
H131 H 0.08713 0.54517 0.84195 0.0
O132 O 0.08888 0.60825 0.84988 0.0
O133 O 0.05377 0.5937 0.81392 0.0
O134 O 0.02586 0.58569 0.87593 0.0
O135 O 0.02167 0.55995 0.84339 0.0
C136 C 0.13227 0.54798 0.72467 0.0
C137 C 0.11059 0.55978 0.7041 0.0
H138 H 0.06262 0.58448 0.6718 0.0
H139 H 0.00589 0.60169 0.69443 0.0
H140 H 0.14612 0.52695 0.82636 0.0
H141 H 0.16742 0.52733 0.77138 0.0
H142 H 0.15735 0.54022 0.71604 0.0
H143 H 0.11964 0.56107 0.68007 0.0
Mn144 Mn 0.51073 0.61981 0.65449 0.0
Mn145 Mn 0.49622 0.58043 0.70067 0.0
C146 C 0.44854 0.61046 0.6678 0.0
C147 C 0.52182 0.65356 0.64983 0.0
C148 C 0.5189 0.57737 0.63248 0.0
O149 O 0.5638 0.61521 0.67398 0.0
O150 O 0.5486 0.59129 0.70822 0.0
C151 C 0.49663 0.60021 0.76199 0.0
N152 N 0.47852 0.58858 0.74073 0.0
C153 C 0.42431 0.58366 0.77495 0.0
C154 C 0.44252 0.59547 0.79731 0.0
C155 C 0.47875 0.60385 0.79073 0.0
C156 C 0.44344 0.58064 0.74666 0.0
H157 H 0.52446 0.60669 0.75701 0.0
C158 C 0.57222 0.60386 0.69669 0.0
O159 O 0.53095 0.64151 0.62756 0.0
O160 O 0.50726 0.64592 0.67482 0.0
N161 N 0.4462 0.5687 0.69601 0.0
C162 C 0.43159 0.55857 0.67132 0.0
C163 C 0.39517 0.54957 0.67386 0.0
C164 C 0.37434 0.5509 0.70181 0.0
C165 C 0.38999 0.56136 0.72693 0.0
C166 C 0.42645 0.56999 0.72306 0.0
H167 H 0.44761 0.55729 0.64989 0.0
O168 O 0.45437 0.62143 0.64358 0.0
O169 O 0.4791 0.60546 0.68333 0.0
O170 O 0.51758 0.59572 0.62629 0.0
O171 O 0.51327 0.57043 0.65973 0.0
C172 C 0.37079 0.56366 0.7556 0.0
C173 C 0.38775 0.57496 0.77948 0.0
H174 H 0.42883 0.59831 0.81951 0.0
H175 H 0.49289 0.61307 0.8078 0.0
H176 H 0.38328 0.54153 0.65436 0.0
H177 H 0.34631 0.54388 0.70369 0.0
H178 H 0.34275 0.55698 0.75944 0.0
H179 H 0.37235 0.57694 0.80118 0.0
Mn180 Mn 0.52262 0.89853 0.65484 0.0
Mn181 Mn 0.5177 0.93861 0.70092 0.0
C182 C 0.57844 0.9114 0.67658 0.0
C183 C 0.5196 0.86444 0.64882 0.0
C184 C 0.51346 0.94075 0.63061 0.0
O185 O 0.46553 0.89971 0.66608 0.0
O186 O 0.46581 0.92624 0.69744 0.0
C187 C 0.49968 0.91851 0.76026 0.0
N188 N 0.5227 0.93076 0.74338 0.0
C189 C 0.56364 0.93686 0.78756 0.0
C190 C 0.54023 0.92442 0.80549 0.0
C191 C 0.50818 0.91515 0.79174 0.0
C192 C 0.55369 0.93967 0.75633 0.0
H193 H 0.47506 0.91134 0.74978 0.0
C194 C 0.44858 0.91188 0.68405 0.0
O195 O 0.51347 0.8762 0.62554 0.0
O196 O 0.52715 0.87249 0.67545 0.0
N197 N 0.56574 0.95197 0.70677 0.0
C198 C 0.58673 0.9625 0.68576 0.0
C199 C 0.62011 0.97242 0.69561 0.0
C200 C 0.63133 0.97149 0.72693 0.0
C201 C 0.6095 0.96044 0.74807 0.0
C202 C 0.5763 0.95103 0.73698 0.0
H203 H 0.57809 0.96331 0.66168 0.0
O204 O 0.58014 0.90035 0.65202 0.0
O205 O 0.54405 0.91445 0.68789 0.0
O206 O 0.51664 0.9223 0.62557 0.0
O207 O 0.51323 0.94823 0.65784 0.0
C208 C 0.61956 0.95824 0.77962 0.0
C209 C 0.59676 0.94637 0.79932 0.0
H210 H 0.54675 0.92174 0.82975 0.0
H211 H 0.49008 0.90545 0.80538 0.0
H212 H 0.63705 0.98085 0.67917 0.0
H213 H 0.65665 0.97936 0.73449 0.0
H214 H 0.64496 0.96543 0.78893 0.0
H215 H 0.60512 0.94454 0.82341 0.0
Mn216 Mn 0.50027 0.39911 0.35061 0.0
Mn217 Mn 0.49324 0.4406 0.30786 0.0
C218 C 0.44003 0.41011 0.33461 0.0
C219 C 0.50792 0.36501 0.35316 0.0
C220 C 0.50855 0.44056 0.37748 0.0
O221 O 0.55514 0.4029 0.33446 0.0
O222 O 0.54598 0.42938 0.30388 0.0
C223 C 0.50231 0.42382 0.24474 0.0
N224 N 0.48161 0.43471 0.26545 0.0
C225 C 0.43392 0.4426 0.22668 0.0
C226 C 0.45486 0.43158 0.20487 0.0
C227 C 0.48913 0.4221 0.21398 0.0
C228 C 0.44857 0.44386 0.25696 0.0
H229 H 0.52862 0.41647 0.25165 0.0
C230 C 0.56712 0.4155 0.31469 0.0
O231 O 0.51662 0.37617 0.37666 0.0
O232 O 0.49583 0.3737 0.32818 0.0
N233 N 0.44346 0.4528 0.30903 0.0
C234 C 0.42518 0.46154 0.33344 0.0
C235 C 0.39009 0.47142 0.32841 0.0
C236 C 0.37428 0.47223 0.29836 0.0
C237 C 0.39322 0.46281 0.27373 0.0
C238 C 0.4284 0.45348 0.28004 0.0
H239 H 0.43745 0.46114 0.35651 0.0
O240 O 0.44338 0.39856 0.35849 0.0
O241 O 0.47221 0.4151 0.32104 0.0
O242 O 0.50708 0.42197 0.38144 0.0
O243 O 0.50464 0.44869 0.35093 0.0
C244 C 0.37839 0.46218 0.24324 0.0
C245 C 0.39864 0.45199 0.21976 0.0
H246 H 0.44468 0.43012 0.18117 0.0
H247 H 0.50533 0.41347 0.19733 0.0
H248 H 0.37543 0.47854 0.34757 0.0
H249 H 0.34757 0.48012 0.29439 0.0
H250 H 0.35115 0.46921 0.23771 0.0
H251 H 0.38661 0.4513 0.19653 0.0
Mn252 Mn 0.52566 0.11909 0.34854 0.0
Mn253 Mn 0.52952 0.0782 0.30405 0.0
C254 C 0.58456 0.10707 0.33176 0.0
C255 C 0.52058 0.15315 0.35323 0.0
C256 C 0.51639 0.07702 0.37363 0.0
O257 O 0.47046 0.11678 0.33244 0.0
O258 O 0.47657 0.08947 0.30316 0.0
C259 C 0.51689 0.09686 0.24269 0.0
N260 N 0.53879 0.08541 0.26177 0.0
C261 C 0.58396 0.07858 0.22062 0.0
C262 C 0.56178 0.09022 0.20047 0.0
C263 C 0.5282 0.09947 0.21161 0.0
C264 C 0.57134 0.07659 0.25139 0.0
H265 H 0.49096 0.10393 0.25111 0.0
C266 C 0.45671 0.10376 0.31417 0.0
O267 O 0.51093 0.14161 0.37601 0.0
O268 O 0.5322 0.14493 0.32771 0.0
N269 N 0.57912 0.06579 0.30233 0.0
C270 C 0.59866 0.05621 0.3253 0.0
C271 C 0.63377 0.04682 0.31832 0.0
C272 C 0.64806 0.04709 0.28774 0.0
C273 C 0.62721 0.05686 0.26444 0.0
C274 C 0.59259 0.0661 0.27284 0.0
H275 H 0.5876 0.05582 0.34877 0.0
O276 O 0.58264 0.11826 0.35616 0.0
O277 O 0.55197 0.10316 0.31805 0.0
O278 O 0.51732 0.0956 0.37809 0.0
O279 O 0.52063 0.06913 0.34693 0.0
C280 C 0.63961 0.05797 0.23328 0.0
C281 C 0.61823 0.06899 0.21146 0.0
H282 H 0.57038 0.09225 0.17647 0.0
H283 H 0.51101 0.10854 0.19623 0.0
H284 H 0.64971 0.03933 0.33643 0.0
H285 H 0.67516 0.03984 0.28244 0.0
H286 H 0.66584 0.05062 0.22593 0.0
H287 H 0.62854 0.07009 0.18775 0.0
H288 H -0.0013 0.33338 0.09708 0.0
H289 H -0.00089 0.29745 0.09324 0.0
H290 H 0.01182 0.29321 0.19281 0.0
H291 H 0.01249 0.329 0.19666 0.0
H292 H 0.06064 0.26949 0.16601 0.0
H293 H 0.92486 0.28298 0.15406 0.0
H294 H 0.86735 0.2984 0.13053 0.0
H295 H 0.8946 0.27182 0.04268 0.0
H296 H 0.9526 0.25644 0.06561 0.0
H297 H 0.00761 0.171 0.19501 0.0
H298 H 0.00847 0.20681 0.19118 0.0
H299 H 0.0142 0.20275 0.09125 0.0
H300 H 0.01356 0.1667 0.09489 0.0
H301 H 0.95894 0.23031 0.11329 0.0
H302 H 0.09281 0.21488 0.12766 0.0
H303 H 0.14854 0.19888 0.15291 0.0
H304 H 0.12292 0.22891 0.23825 0.0
H305 H 0.06664 0.24487 0.21364 0.0
C306 C 0.00121 0.32477 0.11816 0.0
C307 C 0.00557 0.33403 0.14718 0.0
C308 C 0.00135 0.30422 0.11595 0.0
C309 C 0.00527 0.29256 0.14277 0.0
C310 C 0.00892 0.30184 0.17177 0.0
C311 C 0.00914 0.32233 0.17396 0.0
C312 C 0.00685 0.27072 0.14077 0.0
C313 C 0.03814 0.26095 0.15475 0.0
C314 C 0.97814 0.25952 0.12529 0.0
C315 C 0.94331 0.26875 0.11147 0.0
C316 C 0.91877 0.28056 0.12966 0.0
C317 C 0.88605 0.28926 0.11644 0.0
C318 C 0.8774 0.28614 0.0851 0.0
C319 C 0.90139 0.27426 0.06694 0.0
C320 C 0.93417 0.26553 0.08004 0.0
C321 C 0.00917 0.17768 0.17219 0.0
C322 C 0.01063 0.16602 0.14524 0.0
C323 C 0.00974 0.19816 0.17006 0.0
C324 C 0.01163 0.20743 0.14095 0.0
C325 C 0.01277 0.19586 0.11394 0.0
C326 C 0.01258 0.1753 0.11606 0.0
C327 C 0.01224 0.22921 0.13906 0.0
C328 C 0.9815 0.23892 0.12432 0.0
C329 C 0.04126 0.24039 0.15405 0.0
C330 C 0.07531 0.23095 0.16886 0.0
C331 C 0.09888 0.21796 0.15188 0.0
C332 C 0.1306 0.20892 0.16606 0.0
C333 C 0.13922 0.21285 0.19718 0.0
C334 C 0.11619 0.22587 0.21415 0.0
C335 C 0.0844 0.23494 0.20008 0.0
H336 H 0.16378 0.20582 0.20812 0.0
H337 H 0.85205 0.29289 0.07491 0.0
H338 H 0.02359 0.8328 0.90634 0.0
H339 H 0.02579 0.79686 0.91061 0.0
H340 H 0.01262 0.79196 0.81114 0.0
H341 H 0.00925 0.82765 0.80691 0.0
H342 H 0.96593 0.7675 0.83803 0.0
H343 H 0.10074 0.78377 0.85015 0.0
H344 H 0.15687 0.8003 0.874 0.0
H345 H 0.13132 0.77287 0.96155 0.0
H346 H 0.07471 0.75637 0.9383 0.0
H347 H 0.02735 0.67084 0.80637 0.0
H348 H 0.02409 0.70656 0.81136 0.0
H349 H 0.01781 0.70107 0.9111 0.0
H350 H 0.02085 0.66511 0.90629 0.0
H351 H 0.07097 0.73028 0.89001 0.0
H352 H 0.93858 0.71184 0.87505 0.0
H353 H 0.88439 0.69481 0.84928 0.0
H354 H 0.90756 0.72626 0.76474 0.0
H355 H 0.96229 0.74326 0.78987 0.0
C356 C 0.02148 0.82403 0.8854 0.0
C357 C 0.01617 0.83305 0.8563 0.0
C358 C 0.02285 0.80348 0.88784 0.0
C359 C 0.01956 0.79164 0.86116 0.0
C360 C 0.015 0.80073 0.83209 0.0
C361 C 0.01322 0.82117 0.82969 0.0
C362 C 0.01961 0.76978 0.86326 0.0
C363 C 0.98915 0.75941 0.84916 0.0
C364 C 0.04923 0.75912 0.87858 0.0
C365 C 0.08324 0.76902 0.89258 0.0
C366 C 0.10691 0.78139 0.87455 0.0
C367 C 0.13884 0.79073 0.88795 0.0
C368 C 0.14758 0.78769 0.9193 0.0
C369 C 0.12446 0.77525 0.93729 0.0
C370 C 0.09247 0.76589 0.92401 0.0
C371 C 0.02523 0.67719 0.8294 0.0
C372 C 0.02422 0.66514 0.85594 0.0
C373 C 0.0233 0.69761 0.8322 0.0
C374 C 0.02046 0.70645 0.86158 0.0
C375 C 0.01995 0.69452 0.88821 0.0
C376 C 0.02151 0.674 0.88541 0.0
C377 C 0.01786 0.72817 0.86413 0.0
C378 C 0.04768 0.73846 0.87915 0.0
C379 C 0.98786 0.73879 0.84941 0.0
C380 C 0.95474 0.72871 0.83429 0.0
C381 C 0.93231 0.71502 0.8509 0.0
C382 C 0.90146 0.70539 0.83641 0.0
C383 C 0.89259 0.70942 0.80538 0.0
C384 C 0.91449 0.72313 0.78878 0.0
C385 C 0.9454 0.73279 0.80314 0.0
H386 H 0.8687 0.70195 0.7942 0.0
H387 H 0.17232 0.79492 0.92963 0.0
H388 H 0.51277 0.681 0.69519 0.0
H389 H 0.51271 0.71664 0.68974 0.0
H390 H 0.53791 0.71094 0.59195 0.0
H391 H 0.53876 0.67498 0.59739 0.0
H392 H 0.57792 0.74109 0.61708 0.0
H393 H 0.44678 0.72092 0.61499 0.0
H394 H 0.38824 0.70323 0.63198 0.0
H395 H 0.38958 0.73463 0.71854 0.0
H396 H 0.44851 0.75233 0.70227 0.0
H397 H 0.522 0.84277 0.59507 0.0
H398 H 0.5226 0.80677 0.59029 0.0
H399 H 0.51503 0.80141 0.68998 0.0
H400 H 0.51498 0.8372 0.69498 0.0
H401 H 0.46282 0.77684 0.65652 0.0
H402 H 0.59869 0.79495 0.65774 0.0
H403 H 0.65619 0.81255 0.63833 0.0
H404 H 0.64302 0.78498 0.54915 0.0
H405 H 0.58507 0.76742 0.56793 0.0
C406 C 0.51861 0.68727 0.67253 0.0
C407 C 0.52546 0.67515 0.64665 0.0
C408 C 0.51837 0.70769 0.66942 0.0
C409 C 0.52444 0.71647 0.6403 0.0
C410 C 0.53289 0.70447 0.6146 0.0
C411 C 0.53336 0.68394 0.61774 0.0
C412 C 0.52102 0.73816 0.63696 0.0
C413 C 0.55247 0.74888 0.62517 0.0
C414 C 0.48783 0.74837 0.64757 0.0
C415 C 0.45226 0.73785 0.65748 0.0
C416 C 0.43477 0.72396 0.63775 0.0
C417 C 0.40149 0.71394 0.64723 0.0
C418 C 0.38525 0.71779 0.67633 0.0
C419 C 0.40222 0.73167 0.69601 0.0
C420 C 0.43554 0.74172 0.68665 0.0
C421 C 0.52033 0.8339 0.61593 0.0
C422 C 0.51853 0.8428 0.64541 0.0
C423 C 0.5208 0.81337 0.61317 0.0
C424 C 0.519 0.80146 0.63981 0.0
C425 C 0.51643 0.81034 0.66916 0.0
C426 C 0.51652 0.83079 0.67196 0.0
C427 C 0.52006 0.77972 0.63744 0.0
C428 C 0.48805 0.769 0.6481 0.0
C429 C 0.55245 0.76955 0.62537 0.0
C430 C 0.58728 0.78008 0.61411 0.0
C431 C 0.60783 0.79279 0.6339 0.0
C432 C 0.64055 0.80273 0.62303 0.0
C433 C 0.65317 0.79994 0.59249 0.0
C434 C 0.63316 0.78716 0.57278 0.0
C435 C 0.60039 0.77721 0.58353 0.0
H436 H 0.67852 0.80763 0.58413 0.0
H437 H 0.35945 0.71004 0.68357 0.0
H438 H 0.4734 0.33883 0.31442 0.0
H439 H 0.47439 0.30308 0.31731 0.0
H440 H 0.54909 0.30613 0.3976 0.0
H441 H 0.54655 0.34214 0.39563 0.0
H442 H 0.52559 0.2778 0.30993 0.0
H443 H 0.53807 0.26591 0.44345 0.0
H444 H 0.51719 0.28197 0.49207 0.0
H445 H 0.42311 0.30959 0.44375 0.0
H446 H 0.44311 0.2935 0.39497 0.0
H447 H 0.57293 0.17885 0.33023 0.0
H448 H 0.57211 0.21466 0.33372 0.0
H449 H 0.46458 0.212 0.38466 0.0
H450 H 0.46726 0.17594 0.38331 0.0
H451 H 0.50189 0.24014 0.4068 0.0
H452 H 0.47226 0.22286 0.30192 0.0
H453 H 0.48139 0.2066 0.2512 0.0
H454 H 0.58864 0.23739 0.2384 0.0
H455 H 0.58038 0.25366 0.28923 0.0
C456 C 0.49001 0.33191 0.33276 0.0
C457 C 0.50988 0.3433 0.35483 0.0
C458 C 0.49061 0.31142 0.33436 0.0
C459 C 0.51154 0.30177 0.35783 0.0
C460 C 0.53201 0.31314 0.37966 0.0
C461 C 0.53079 0.33373 0.3784 0.0
C462 C 0.51234 0.27984 0.35877 0.0
C463 C 0.52037 0.26961 0.33116 0.0
C464 C 0.50471 0.269 0.38623 0.0
C465 C 0.49239 0.27868 0.41549 0.0
C466 C 0.51288 0.27537 0.44323 0.0
C467 C 0.5012 0.28448 0.47081 0.0
C468 C 0.46893 0.29685 0.47097 0.0
C469 C 0.44819 0.30008 0.44357 0.0
C470 C 0.45972 0.29099 0.41594 0.0
C471 C 0.54925 0.18595 0.3423 0.0
C472 C 0.51993 0.17473 0.35622 0.0
C473 C 0.54861 0.20644 0.34412 0.0
C474 C 0.51764 0.21621 0.35861 0.0
C475 C 0.48874 0.20492 0.3732 0.0
C476 C 0.49013 0.18433 0.37234 0.0
C477 C 0.51513 0.23813 0.35793 0.0
C478 C 0.50702 0.24835 0.38558 0.0
C479 C 0.5209 0.249 0.33017 0.0
C480 C 0.52585 0.23934 0.29949 0.0
C481 C 0.49789 0.22608 0.28835 0.0
C482 C 0.5029 0.21687 0.25958 0.0
C483 C 0.53562 0.22092 0.24162 0.0
C484 C 0.56334 0.23425 0.25235 0.0
C485 C 0.55849 0.24348 0.28112 0.0
H486 H 0.53946 0.21377 0.21936 0.0
H487 H 0.45995 0.30389 0.49235 0.0
H488 H 0.41398 0.13727 0.30558 0.0
H489 H 0.35013 0.13976 0.28107 0.0
H490 H 0.34449 0.07646 0.27477 0.0
H491 H 0.40859 0.07401 0.29794 0.0
H492 H 0.32591 0.09114 0.22195 0.0
H493 H 0.28972 0.10533 0.32828 0.0
H494 H 0.29204 0.1235 0.37786 0.0
H495 H 0.25979 0.17668 0.33072 0.0
H496 H 0.25773 0.15886 0.28077 0.0
H497 H 0.12829 0.06892 0.20527 0.0
H498 H 0.19393 0.07426 0.22428 0.0
H499 H 0.18551 0.13582 0.20126 0.0
H500 H 0.11955 0.13056 0.18174 0.0
H501 H 0.21262 0.12724 0.26363 0.0
H502 H 0.2412 0.11074 0.15806 0.0
H503 H 0.2366 0.09122 0.10991 0.0
H504 H 0.28152 0.04072 0.15769 0.0
H505 H 0.28586 0.05986 0.20626 0.0
C506 C 0.39875 0.12392 0.29937 0.0
C507 C 0.41624 0.10545 0.30355 0.0
C508 C 0.36227 0.12534 0.28538 0.0
C509 C 0.34239 0.10829 0.27604 0.0
C510 C 0.35934 0.08985 0.28144 0.0
C511 C 0.39592 0.08844 0.29483 0.0
C512 C 0.30483 0.10937 0.25931 0.0
C513 C 0.30111 0.09892 0.23128 0.0
C514 C 0.27274 0.1201 0.27076 0.0
C515 C 0.27404 0.13082 0.30075 0.0
C516 C 0.28345 0.12093 0.32845 0.0
C517 C 0.28465 0.13116 0.35663 0.0
C518 C 0.2762 0.15124 0.35742 0.0
C519 C 0.26641 0.16113 0.33005 0.0
C520 C 0.2652 0.15097 0.30181 0.0
C521 C 0.14047 0.08357 0.20393 0.0
C522 C 0.11877 0.09931 0.19194 0.0
C523 C 0.178 0.08658 0.21476 0.0
C524 C 0.1945 0.10541 0.2141 0.0
C525 C 0.17318 0.12118 0.2019 0.0
C526 C 0.13569 0.11812 0.19059 0.0
C527 C 0.23366 0.10843 0.22712 0.0
C528 C 0.23768 0.1197 0.25424 0.0
C529 C 0.26597 0.09826 0.2151 0.0
C530 C 0.26362 0.08672 0.18587 0.0
C531 C 0.24982 0.09543 0.15837 0.0
C532 C 0.24731 0.08444 0.13098 0.0
C533 C 0.2587 0.06474 0.13075 0.0
C534 C 0.2727 0.05599 0.1579 0.0
C535 C 0.27525 0.06691 0.18536 0.0
H536 H 0.25673 0.05625 0.10953 0.0
H537 H 0.27714 0.15913 0.37926 0.0
H538 H 0.59703 0.43415 0.26402 0.0
H539 H 0.66057 0.43007 0.24094 0.0
H540 H 0.69125 0.38867 0.31285 0.0
H541 H 0.62672 0.39217 0.33572 0.0
H542 H 0.72794 0.43849 0.26065 0.0
H543 H 0.75794 0.35593 0.28456 0.0
H544 H 0.72149 0.32496 0.29056 0.0
H545 H 0.62928 0.34831 0.23484 0.0
H546 H 0.66539 0.37929 0.22814 0.0
H547 H 0.92414 0.42101 0.24362 0.0
H548 H 0.85837 0.42 0.26327 0.0
H549 H 0.82217 0.38743 0.18231 0.0
H550 H 0.88887 0.38788 0.1626 0.0
H551 H 0.78645 0.37397 0.23446 0.0
H552 H 0.8058 0.43622 0.18573 0.0
H553 H 0.83965 0.46734 0.17455 0.0
H554 H 0.82685 0.48499 0.26984 0.0
H555 H 0.7934 0.45383 0.28168 0.0
C556 C 0.61718 0.42417 0.27509 0.0
C557 C 0.6067 0.41351 0.30184 0.0
C558 C 0.6536 0.42185 0.26178 0.0
C559 C 0.68065 0.40895 0.27494 0.0
C560 C 0.67061 0.39844 0.30191 0.0
C561 C 0.63382 0.40057 0.31511 0.0
C562 C 0.71961 0.40708 0.26071 0.0
C563 C 0.74062 0.42436 0.25494 0.0
C564 C 0.73597 0.38868 0.25262 0.0
C565 C 0.71423 0.37 0.25614 0.0
C566 C 0.72996 0.35442 0.27349 0.0
C567 C 0.70934 0.33687 0.27703 0.0
C568 C 0.67304 0.3347 0.26318 0.0
C569 C 0.65734 0.35004 0.24566 0.0
C570 C 0.67785 0.36761 0.24201 0.0
C571 C 0.90236 0.41357 0.22988 0.0
C572 C 0.91171 0.40477 0.20124 0.0
C573 C 0.8647 0.41301 0.24122 0.0
C574 C 0.83523 0.40399 0.22398 0.0
C575 C 0.84451 0.39455 0.1959 0.0
C576 C 0.88254 0.39489 0.18462 0.0
C577 C 0.79467 0.40535 0.23492 0.0
C578 C 0.77352 0.38805 0.24013 0.0
C579 C 0.77758 0.42376 0.24171 0.0
C580 C 0.79734 0.44263 0.23463 0.0
C581 C 0.81041 0.44668 0.20434 0.0
C582 C 0.8295 0.46434 0.19788 0.0
C583 C 0.83546 0.47812 0.22148 0.0
C584 C 0.82224 0.4743 0.25158 0.0
C585 C 0.80317 0.45665 0.25817 0.0
H586 H 0.85026 0.49178 0.21644 0.0
H587 H 0.65711 0.32111 0.26598 0.0
H588 H 0.1147 0.87268 0.80924 0.0
H589 H 0.17865 0.87041 0.78501 0.0
H590 H 0.17365 0.93216 0.76206 0.0
H591 H 0.10935 0.93427 0.78497 0.0
H592 H 0.19779 0.91352 0.7144 0.0
H593 H 0.2313 0.91203 0.82323 0.0
H594 H 0.22948 0.89953 0.87704 0.0
H595 H 0.27094 0.84338 0.84587 0.0
H596 H 0.27258 0.8555 0.7918 0.0
H597 H 0.39558 0.93978 0.69929 0.0
H598 H 0.3292 0.93469 0.71713 0.0
H599 H 0.34234 0.8721 0.70534 0.0
H600 H 0.40883 0.8771 0.68671 0.0
H601 H 0.31376 0.88627 0.76681 0.0
H602 H 0.28698 0.89084 0.65772 0.0
H603 H 0.29107 0.9055 0.60541 0.0
H604 H 0.2389 0.95859 0.6394 0.0
H605 H 0.23502 0.94435 0.69205 0.0
C606 C 0.12749 0.8858 0.7993 0.0
C607 C 0.10701 0.90365 0.79898 0.0
C608 C 0.16407 0.88449 0.78548 0.0
C609 C 0.1812 0.90114 0.77181 0.0
C610 C 0.16103 0.91906 0.77221 0.0
C611 C 0.1243 0.92028 0.78544 0.0
C612 C 0.21959 0.90003 0.75628 0.0
C613 C 0.22314 0.90768 0.72605 0.0
C614 C 0.2526 0.8919 0.77097 0.0
C615 C 0.25161 0.8846 0.80344 0.0
C616 C 0.23973 0.89697 0.82783 0.0
C617 C 0.23879 0.88997 0.85837 0.0
C618 C 0.24996 0.87065 0.86485 0.0
C619 C 0.26222 0.85833 0.84081 0.0
C620 C 0.26318 0.86526 0.81022 0.0
C621 C 0.38419 0.92494 0.70008 0.0
C622 C 0.40732 0.90883 0.69156 0.0
C623 C 0.3463 0.92207 0.71025 0.0
C624 C 0.33101 0.90303 0.71254 0.0
C625 C 0.35374 0.8869 0.70366 0.0
C626 C 0.39152 0.88979 0.69286 0.0
C627 C 0.2918 0.90022 0.72553 0.0
C628 C 0.28816 0.89183 0.75517 0.0
C629 C 0.25882 0.90797 0.71057 0.0
C630 C 0.26099 0.91657 0.6789 0.0
C631 C 0.27669 0.9057 0.65411 0.0
C632 C 0.2789 0.91392 0.62438 0.0
C633 C 0.26533 0.93298 0.61909 0.0
C634 C 0.24943 0.94384 0.64353 0.0
C635 C 0.24717 0.93568 0.67331 0.0
H636 H 0.26706 0.93932 0.59606 0.0
H637 H 0.24922 0.86526 0.88852 0.0
H638 H 0.59346 0.59006 0.75359 0.0
H639 H 0.65636 0.59214 0.77848 0.0
H640 H 0.70175 0.62293 0.69869 0.0
H641 H 0.63803 0.62148 0.67384 0.0
H642 H 0.71999 0.57627 0.76318 0.0
H643 H 0.77777 0.65205 0.72045 0.0
H644 H 0.75228 0.68489 0.70734 0.0
H645 H 0.65391 0.67491 0.76619 0.0
H646 H 0.67908 0.64215 0.78003 0.0
H647 H 0.9198 0.57808 0.76808 0.0
H648 H 0.85291 0.58243 0.7527 0.0
H649 H 0.83634 0.6244 0.82665 0.0
H650 H 0.9043 0.62044 0.84211 0.0
H651 H 0.8009 0.63622 0.77296 0.0
H652 H 0.80244 0.57874 0.8358 0.0
H653 H 0.82591 0.54651 0.85403 0.0
H654 H 0.79996 0.52113 0.76506 0.0
H655 H 0.77685 0.55328 0.74613 0.0
C656 C 0.61669 0.59737 0.74126 0.0
C657 C 0.61072 0.60551 0.71157 0.0
C658 C 0.65271 0.59855 0.75561 0.0
C659 C 0.68382 0.60776 0.7406 0.0
C660 C 0.67802 0.61604 0.711 0.0
C661 C 0.64167 0.61509 0.69672 0.0
C662 C 0.72268 0.60756 0.75531 0.0
C663 C 0.73751 0.58943 0.7654 0.0
C664 C 0.74533 0.62477 0.75895 0.0
C665 C 0.73016 0.64455 0.75102 0.0
C666 C 0.75078 0.6569 0.73069 0.0
C667 C 0.73637 0.6755 0.72312 0.0
C668 C 0.70144 0.68196 0.73584 0.0
C669 C 0.6809 0.66986 0.75626 0.0
C670 C 0.6952 0.65126 0.76394 0.0
C671 C 0.90213 0.58822 0.78131 0.0
C672 C 0.91743 0.59872 0.80667 0.0
C673 C 0.86377 0.59068 0.77239 0.0
C674 C 0.83949 0.60347 0.78884 0.0
C675 C 0.85464 0.61438 0.81375 0.0
C676 C 0.89337 0.61202 0.82264 0.0
C677 C 0.79817 0.60491 0.78 0.0
C678 C 0.78302 0.62318 0.77096 0.0
C679 C 0.77465 0.58793 0.77812 0.0
C680 C 0.78811 0.56847 0.78949 0.0
C681 C 0.80194 0.56632 0.82006 0.0
C682 C 0.81516 0.54806 0.83053 0.0
C683 C 0.81448 0.53179 0.8107 0.0
C684 C 0.80047 0.53374 0.78039 0.0
C685 C 0.78725 0.55198 0.76979 0.0
H686 H 0.82475 0.51767 0.81885 0.0
H687 H 0.69032 0.69636 0.72993 0.0
H688 H 0.59117 0.90487 0.73782 0.0
H689 H 0.65254 0.90738 0.76588 0.0
H690 H 0.70923 0.92572 0.68149 0.0
H691 H 0.64715 0.92462 0.65392 0.0
H692 H 0.71847 0.88316 0.73778 0.0
H693 H 0.75023 0.95062 0.699 0.0
H694 H 0.74368 0.98639 0.69165 0.0
H695 H 0.71837 0.99341 0.78875 0.0
H696 H 0.72357 0.95753 0.79635 0.0
H697 H 0.91972 0.88683 0.77537 0.0
H698 H 0.85622 0.89034 0.75069 0.0
H699 H 0.81194 0.91752 0.83405 0.0
H700 H 0.87568 0.91385 0.85887 0.0
H701 H 0.79577 0.93849 0.77956 0.0
H702 H 0.78476 0.8725 0.81785 0.0
H703 H 0.8054 0.83811 0.82504 0.0
H704 H 0.80128 0.82888 0.72635 0.0
H705 H 0.78115 0.86332 0.71853 0.0
C706 C 0.61632 0.91051 0.72574 0.0
C707 C 0.61417 0.91546 0.69413 0.0
C708 C 0.65141 0.91178 0.74169 0.0
C709 C 0.68525 0.91746 0.72609 0.0
C710 C 0.68325 0.92229 0.6944 0.0
C711 C 0.64791 0.92139 0.67857 0.0
C712 C 0.72303 0.91468 0.74162 0.0
C713 C 0.73571 0.8953 0.74653 0.0
C714 C 0.74522 0.93044 0.75344 0.0
C715 C 0.73563 0.95132 0.74794 0.0
C716 C 0.74165 0.95968 0.71848 0.0
C717 C 0.7388 0.98002 0.71437 0.0
C718 C 0.73061 0.99219 0.73971 0.0
C719 C 0.72468 0.98399 0.76912 0.0
C720 C 0.72722 0.96364 0.77327 0.0
C721 C 0.89635 0.89359 0.78831 0.0
C722 C 0.90248 0.90061 0.81856 0.0
C723 C 0.86011 0.8954 0.77436 0.0
C724 C 0.82942 0.90414 0.7906 0.0
C725 C 0.83534 0.91076 0.82117 0.0
C726 C 0.87155 0.9087 0.83527 0.0
C727 C 0.7917 0.90712 0.77508 0.0
C728 C 0.77879 0.9264 0.77054 0.0
C729 C 0.76992 0.89131 0.76293 0.0
C730 C 0.78176 0.87055 0.7676 0.0
C731 C 0.78855 0.86319 0.79766 0.0
C732 C 0.8001 0.84367 0.80185 0.0
C733 C 0.80473 0.83133 0.77616 0.0
C734 C 0.79772 0.83846 0.74623 0.0
C735 C 0.78619 0.85798 0.74191 0.0
H736 H 0.81368 0.81622 0.77945 0.0
H737 H 0.72874 0.00794 0.73654 0.0
H738 H 0.3833 0.59577 0.64079 0.0
H739 H 0.31895 0.59282 0.66489 0.0
H740 H 0.36296 0.61966 0.74866 0.0
H741 H 0.42676 0.62267 0.72459 0.0
H742 H 0.30187 0.5718 0.71726 0.0
H743 H 0.29 0.64516 0.78434 0.0
H744 H 0.31063 0.6797 0.779 0.0
H745 H 0.31371 0.67347 0.67971 0.0
H746 H 0.29247 0.63898 0.6844 0.0
H747 H 0.15751 0.5851 0.84813 0.0
H748 H 0.21937 0.58439 0.8201 0.0
H749 H 0.1609 0.60093 0.73558 0.0
H750 H 0.09992 0.60331 0.76408 0.0
H751 H 0.22755 0.62616 0.76519 0.0
H752 H 0.23336 0.55147 0.70344 0.0
H753 H 0.23018 0.5156 0.71177 0.0
H754 H 0.25479 0.52378 0.80874 0.0
H755 H 0.2591 0.55956 0.80072 0.0
C756 C 0.37888 0.60111 0.66425 0.0
C757 C 0.40978 0.60893 0.6813 0.0
C758 C 0.34233 0.59946 0.67794 0.0
C759 C 0.33619 0.60616 0.70846 0.0
C760 C 0.36691 0.61466 0.72496 0.0
C761 C 0.40336 0.61615 0.71138 0.0
C762 C 0.29856 0.60304 0.72404 0.0
C763 C 0.2855 0.58369 0.72762 0.0
C764 C 0.27773 0.61858 0.73802 0.0
C765 C 0.2899 0.63942 0.73477 0.0
C766 C 0.29486 0.65118 0.76135 0.0
C767 C 0.3067 0.67075 0.75844 0.0
C768 C 0.31355 0.67876 0.72905 0.0
C769 C 0.30849 0.66723 0.70248 0.0
C770 C 0.29659 0.64765 0.70525 0.0
C771 C 0.15788 0.58804 0.82338 0.0
C772 C 0.12375 0.5934 0.80787 0.0
C773 C 0.19308 0.58734 0.8073 0.0
C774 C 0.19445 0.59171 0.77542 0.0
C775 C 0.16023 0.59683 0.75991 0.0
C776 C 0.12536 0.59802 0.77612 0.0
C777 C 0.23178 0.59477 0.75941 0.0
C778 C 0.24428 0.61424 0.75519 0.0
C779 C 0.25315 0.57926 0.74593 0.0
C780 C 0.24474 0.55827 0.75176 0.0
C781 C 0.23727 0.54561 0.72665 0.0
C782 C 0.23585 0.52527 0.73122 0.0
C783 C 0.2422 0.5174 0.76079 0.0
C784 C 0.24957 0.52988 0.78589 0.0
C785 C 0.25111 0.55023 0.7814 0.0
H786 H 0.24128 0.50165 0.76426 0.0
H787 H 0.32268 0.69391 0.72689 0.0
H788 H 0.65229 0.09512 0.35813 0.0
H789 H 0.7154 0.09166 0.33218 0.0
H790 H 0.66388 0.1097 0.2454 0.0
H791 H 0.60146 0.11375 0.27144 0.0
H792 H 0.71065 0.07552 0.24135 0.0
H793 H 0.71445 0.14149 0.28177 0.0
H794 H 0.71051 0.16657 0.32303 0.0
H795 H 0.80458 0.139 0.37145 0.0
H796 H 0.80869 0.11356 0.33068 0.0
H797 H 0.87735 0.09055 0.14817 0.0
H798 H 0.81555 0.09068 0.17534 0.0
H799 H 0.8757 0.09615 0.26306 0.0
H800 H 0.93625 0.09999 0.23499 0.0
H801 H 0.82279 0.11734 0.26832 0.0
H802 H 0.81711 0.04976 0.22902 0.0
H803 H 0.81716 0.02336 0.18927 0.0
H804 H 0.72495 0.0522 0.14064 0.0
H805 H 0.7243 0.0786 0.17995 0.0
C806 C 0.65463 0.09821 0.3335 0.0
C807 C 0.62198 0.10394 0.31639 0.0
C808 C 0.69051 0.09629 0.31877 0.0
C809 C 0.69411 0.10033 0.28687 0.0
C810 C 0.66155 0.10633 0.26995 0.0
C811 C 0.62593 0.10845 0.28473 0.0
C812 C 0.7318 0.09844 0.27093 0.0
C813 C 0.73529 0.08461 0.24708 0.0
C814 C 0.76393 0.11016 0.27893 0.0
C815 C 0.76157 0.12549 0.30337 0.0
C816 C 0.73405 0.14066 0.30137 0.0
C817 C 0.73184 0.15497 0.32463 0.0
C818 C 0.7572 0.15435 0.3499 0.0
C819 C 0.78491 0.13945 0.3519 0.0
C820 C 0.7872 0.12509 0.32871 0.0
C821 C 0.87719 0.09148 0.17331 0.0
C822 C 0.91189 0.09396 0.18975 0.0
C823 C 0.84176 0.09121 0.18901 0.0
C824 C 0.84036 0.09259 0.22168 0.0
C825 C 0.8754 0.09482 0.23797 0.0
C826 C 0.91043 0.09632 0.22206 0.0
C827 C 0.80269 0.09369 0.23874 0.0
C828 C 0.79882 0.10769 0.26274 0.0
C829 C 0.77016 0.08189 0.23104 0.0
C830 C 0.77121 0.06625 0.20709 0.0
C831 C 0.79727 0.05052 0.2096 0.0
C832 C 0.79729 0.03556 0.18726 0.0
C833 C 0.77139 0.03622 0.16236 0.0
C834 C 0.74515 0.05175 0.15985 0.0
C835 C 0.74488 0.06667 0.18217 0.0
H836 H 0.77149 0.02464 0.14511 0.0
H837 H 0.75546 0.16544 0.36788 0.0
H838 H 0.1485 0.41131 0.14778 0.0
H839 H 0.20993 0.41314 0.17657 0.0
H840 H 0.15187 0.39316 0.25959 0.0
H841 H 0.09097 0.39122 0.23089 0.0
H842 H 0.1979 0.42402 0.27147 0.0
H843 H 0.20767 0.36226 0.21947 0.0
H844 H 0.20718 0.33973 0.17457 0.0
H845 H 0.3023 0.37113 0.13387 0.0
H846 H 0.30299 0.39403 0.17834 0.0
H847 H 0.36874 0.41235 0.36149 0.0
H848 H 0.30624 0.40978 0.33552 0.0
H849 H 0.36421 0.40969 0.24639 0.0
H850 H 0.42583 0.40769 0.27299 0.0
H851 H 0.31458 0.38731 0.23936 0.0
H852 H 0.30036 0.45245 0.28803 0.0
H853 H 0.2969 0.47626 0.33161 0.0
H854 H 0.20899 0.44141 0.37532 0.0
H855 H 0.21195 0.4175 0.33228 0.0
C856 C 0.1491 0.40741 0.17219 0.0
C857 C 0.1151 0.40172 0.1875 0.0
C858 C 0.18404 0.40836 0.18855 0.0
C859 C 0.18541 0.40324 0.22021 0.0
C860 C 0.15142 0.39728 0.23527 0.0
C861 C 0.11667 0.39631 0.21894 0.0
C862 C 0.2221 0.40425 0.23791 0.0
C863 C 0.22361 0.41623 0.26432 0.0
C864 C 0.25543 0.39378 0.2288 0.0
C865 C 0.25511 0.37998 0.20209 0.0
C866 C 0.22826 0.36447 0.20082 0.0
C867 C 0.22799 0.35161 0.17547 0.0
C868 C 0.25462 0.35403 0.15134 0.0
C869 C 0.28165 0.36929 0.15255 0.0
C870 C 0.28201 0.3822 0.17784 0.0
C871 C 0.36783 0.412 0.33633 0.0
C872 C 0.4022 0.41176 0.31902 0.0
C873 C 0.33194 0.41088 0.32133 0.0
C874 C 0.32967 0.41045 0.2886 0.0
C875 C 0.36439 0.41023 0.27155 0.0
C876 C 0.39999 0.40992 0.28667 0.0
C877 C 0.29185 0.4087 0.27188 0.0
C878 C 0.28963 0.396 0.24599 0.0
C879 C 0.25793 0.41893 0.28109 0.0
C880 C 0.25692 0.43308 0.30725 0.0
C881 C 0.28069 0.44982 0.30717 0.0
C882 C 0.27874 0.46332 0.33167 0.0
C883 C 0.25303 0.46025 0.35625 0.0
C884 C 0.22903 0.44373 0.35634 0.0
C885 C 0.23079 0.43023 0.33191 0.0
H886 H 0.25158 0.47072 0.37515 0.0
H887 H 0.25437 0.34406 0.13174 0.0
H888 H 0.00844 0.07722 0.06464 0.0
H889 H 0.01054 0.05429 0.02076 0.0
H890 H 0.03015 0.00612 0.08401 0.0
H891 H 0.02853 0.02878 0.12778 0.0
H892 H 0.07557 1.00276 0.03367 0.0
H893 H 0.94123 0.01451 0.05437 0.0
H894 H 0.88274 0.03465 0.06208 0.0
H895 H 0.89343 0.05745 0.96939 0.0
H896 H 0.95238 0.03765 0.96129 0.0
H897 H 0.02159 0.92303 0.93363 0.0
H898 H 0.02596 0.94667 0.97648 0.0
H899 H 0.00874 0.99443 0.91203 0.0
H900 H 0.00417 0.97112 0.86929 0.0
H901 H 0.96294 0.99822 0.96261 0.0
H902 H 0.09714 0.98543 0.94191 0.0
H903 H 0.15506 0.96477 0.93483 0.0
H904 H 0.14375 0.9432 0.02821 0.0
H905 H 0.0854 0.96353 0.0357 0.0
C906 C 0.01348 0.06178 0.06921 0.0
C907 C 0.01811 0.0549 0.09985 0.0
C908 C 0.01452 0.04867 0.0441 0.0
C909 C 0.0201 0.02844 0.04912 0.0
C910 C 0.0258 0.02164 0.07954 0.0
C911 C 0.0247 0.03468 0.10459 0.0
C912 C 0.01905 0.01419 0.0229 0.0
C913 C 0.05078 1.00163 0.01831 0.0
C914 C 0.98695 0.01289 0.00258 0.0
C915 C 0.95147 0.02477 0.00735 0.0
C916 C 0.9313 0.02394 0.03572 0.0
C917 C 0.89803 0.03527 0.04015 0.0
C918 C 0.88444 0.04736 0.01627 0.0
C919 C 0.90404 0.04811 0.98789 0.0
C920 C 0.93737 0.03683 0.98336 0.0
C921 C 0.01895 0.93856 0.92853 0.0
C922 C 0.01257 0.94509 0.8979 0.0
C923 C 0.02156 0.95207 0.95305 0.0
C924 C 0.01785 0.97234 0.94744 0.0
C925 C 0.01164 0.97887 0.91694 0.0
C926 C 0.0092 0.96545 0.89247 0.0
C927 C 0.01952 0.98682 0.9733 0.0
C928 C 0.98781 0.99939 0.97788 0.0
C929 C 0.05155 0.98806 0.99369 0.0
C930 C 0.08666 0.97585 0.98925 0.0
C931 C 0.1068 0.97615 0.96085 0.0
C932 C 0.13975 0.96453 0.95678 0.0
C933 C 0.15301 0.95264 0.98102 0.0
C934 C 0.13341 0.95239 0.00943 0.0
C935 C 0.10041 0.96397 0.01361 0.0
H936 H 0.17854 0.94366 0.97783 0.0
H937 H 0.85867 0.05612 0.01974 0.0
H938 H 0.01981 0.52711 0.8691 0.0
H939 H 0.01485 0.50437 0.91259 0.0
H940 H 0.0107 0.55315 0.97655 0.0
H941 H 0.01633 0.57618 0.93301 0.0
H942 H 0.05837 0.52504 0.99744 0.0
H943 H 0.92898 0.52709 0.95833 0.0
H944 H 0.87806 0.52533 0.9183 0.0
H945 H 0.90834 0.46531 0.89924 0.0
H946 H 0.95986 0.4668 0.93886 0.0
H947 H -0.00044 0.47091 0.12829 0.0
H948 H 0.99769 0.49358 0.08455 0.0
H949 H 0.01068 0.44512 0.02081 0.0
H950 H 0.01226 0.42209 0.06465 0.0
H951 H 0.95749 0.47312 1.00018 0.0
H952 H 0.0875 0.47159 0.03965 0.0
H953 H 0.13655 0.47345 0.08115 0.0
H954 H 0.1036 0.53308 0.10037 0.0
H955 H 0.05379 0.53146 0.05937 0.0
C956 C 0.01767 0.53311 0.89236 0.0
C957 C 0.01826 0.55357 0.89744 0.0
C958 C 0.0147 0.52002 0.91725 0.0
C959 C 0.01183 0.52702 0.94784 0.0
C960 C 0.01275 0.5474 0.95312 0.0
C961 C 0.01587 0.56056 0.92818 0.0
C962 C 0.00849 0.51299 0.97425 0.0
C963 C 0.03595 0.51389 0.99824 0.0
C964 C 0.97974 0.49813 0.97501 0.0
C965 C 0.94852 0.49711 0.95138 0.0
C966 C 0.92496 0.51355 0.94546 0.0
C967 C 0.89597 0.5126 0.92286 0.0
C968 C 0.89003 0.49523 0.90619 0.0
C969 C 0.913 0.47876 0.91215 0.0
C970 C 0.94208 0.47964 0.9347 0.0
C971 C 0.00173 0.46494 0.10502 0.0
C972 C 0.00644 0.44461 0.10009 0.0
C973 C 0.00071 0.47799 0.08 0.0
C974 C 0.00465 0.47108 0.04946 0.0
C975 C 0.00772 0.45076 0.04424 0.0
C976 C 0.00871 0.43762 0.06934 0.0
C977 C 0.00733 0.48523 0.02324 0.0
C978 C 0.97983 0.48431 0.99932 0.0
C979 C 0.03594 0.50013 0.02258 0.0
C980 C 0.06668 0.50135 0.04661 0.0
C981 C 0.09056 0.48507 0.05284 0.0
C982 C 0.1185 0.48608 0.07628 0.0
C983 C 0.12313 0.50336 0.09343 0.0
C984 C 0.09995 0.5197 0.08708 0.0
C985 C 0.07186 0.51875 0.06373 0.0
H986 H 0.14473 0.50409 0.1116 0.0
H987 H 0.86758 0.49453 0.88869 0.0
H988 H 0.51479 0.48063 0.37768 0.0
H989 H 0.52127 0.50248 0.4221 0.0
H990 H 0.52084 0.45263 0.48403 0.0
H991 H 0.51388 0.43043 0.43945 0.0
H992 H 0.47371 0.48186 0.50486 0.0
H993 H 0.60437 0.47703 0.46946 0.0
H994 H 0.65738 0.47783 0.43115 0.0
H995 H 0.63336 0.53858 0.41203 0.0
H996 H 0.57982 0.53806 0.44993 0.0
H997 H 0.52633 0.53738 0.63671 0.0
H998 H 0.52976 0.5136 0.59446 0.0
H999 H 0.52744 0.56075 0.52749 0.0
H1000 H 0.52446 0.58482 0.56973 0.0
H1001 H 0.57842 0.53167 0.5108 0.0
H1002 H 0.44627 0.53609 0.54463 0.0
H1003 H 0.39427 0.53563 0.58385 0.0
H1004 H 0.4213 0.47563 0.60602 0.0
H1005 H 0.47402 0.47586 0.56734 0.0
C1006 C 0.51627 0.47418 0.40067 0.0
C1007 C 0.51395 0.45367 0.40485 0.0
C1008 C 0.52014 0.48677 0.42611 0.0
C1009 C 0.52203 0.47922 0.45641 0.0
C1010 C 0.51957 0.45878 0.46083 0.0
C1011 C 0.51574 0.44611 0.43529 0.0
C1012 C 0.52567 0.49283 0.48334 0.0
C1013 C 0.49699 0.49251 0.50644 0.0
C1014 C 0.55555 0.50705 0.48506 0.0
C1015 C 0.58787 0.50745 0.46236 0.0
C1016 C 0.6102 0.49052 0.45692 0.0
C1017 C 0.64038 0.49093 0.43531 0.0
C1018 C 0.64868 0.50823 0.41912 0.0
C1019 C 0.62688 0.52518 0.42457 0.0
C1020 C 0.59664 0.52484 0.44614 0.0
C1021 C 0.52692 0.5428 0.61305 0.0
C1022 C 0.52479 0.5631 0.60671 0.0
C1023 C 0.52877 0.52912 0.58888 0.0
C1024 C 0.52821 0.53537 0.5578 0.0
C1025 C 0.52777 0.5556 0.55132 0.0
C1026 C 0.52599 0.56935 0.57553 0.0
C1027 C 0.52639 0.52074 0.53216 0.0
C1028 C 0.55532 0.52091 0.50929 0.0
C1029 C 0.49673 0.50639 0.53062 0.0
C1030 C 0.46435 0.50605 0.55329 0.0
C1031 C 0.44128 0.52283 0.55799 0.0
C1032 C 0.41168 0.52261 0.58013 0.0
C1033 C 0.40455 0.50563 0.59746 0.0
C1034 C 0.42691 0.48879 0.5926 0.0
C1035 C 0.45665 0.48895 0.57057 0.0
H1036 H 0.38165 0.5055 0.61462 0.0
H1037 H 0.67205 0.50852 0.40239 0.0
H1038 H 0.49945 0.93208 0.56911 0.0
H1039 H 0.49631 0.95508 0.5254 0.0
H1040 H 0.52008 1.00335 0.58762 0.0
H1041 H 0.5219 0.98068 0.63134 0.0
H1042 H 0.46673 0.01402 0.54896 0.0
H1043 H 0.59062 0.98227 0.53838 0.0
H1044 H 0.63502 0.95408 0.53319 0.0
H1045 H 0.57809 0.93669 0.44885 0.0
H1046 H 0.53302 0.96464 0.45375 0.0
H1047 H 0.52381 0.08552 0.43592 0.0
H1048 H 0.52029 0.06247 0.47956 0.0
H1049 H 0.49392 0.01525 0.41605 0.0
H1050 H 0.49832 0.03796 0.37245 0.0
H1051 H 0.54725 1.00382 0.45496 0.0
H1052 H 0.42442 0.03653 0.46512 0.0
H1053 H 0.38093 0.06507 0.47053 0.0
H1054 H 0.437 0.0811 0.55591 0.0
H1055 H 0.48116 0.0528 0.5508 0.0
C1056 C 0.50395 0.94759 0.57348 0.0
C1057 C 0.51104 0.95447 0.60379 0.0
C1058 C 0.50232 0.96074 0.54843 0.0
C1059 C 0.5085 0.98098 0.55308 0.0
C1060 C 0.51516 0.98785 0.58336 0.0
C1061 C 0.5163 0.9748 0.60839 0.0
C1062 C 0.50825 0.99509 0.52659 0.0
C1063 C 0.48467 0.01188 0.52855 0.0
C1064 C 0.53104 0.99219 0.49963 0.0
C1065 C 0.55821 0.97543 0.49661 0.0
C1066 C 0.5874 0.97235 0.51885 0.0
C1067 C 0.61271 0.95643 0.51594 0.0
C1068 C 0.60931 0.94357 0.49076 0.0
C1069 C 0.58066 0.94664 0.46837 0.0
C1070 C 0.55524 0.96252 0.47119 0.0
C1071 C 0.51688 0.07027 0.43128 0.0
C1072 C 0.51143 0.06363 0.40062 0.0
C1073 C 0.51477 0.0571 0.45629 0.0
C1074 C 0.50656 0.0371 0.45117 0.0
C1075 C 0.50043 0.03056 0.42064 0.0
C1076 C 0.50288 0.04363 0.39569 0.0
C1077 C 0.50575 0.02275 0.47731 0.0
C1078 C 0.52919 0.00593 0.47531 0.0
C1079 C 0.48296 0.02568 0.50426 0.0
C1080 C 0.45632 0.04265 0.50742 0.0
C1081 C 0.42765 0.04623 0.48493 0.0
C1082 C 0.40285 0.06234 0.48796 0.0
C1083 C 0.40626 0.07491 0.51351 0.0
C1084 C 0.43442 0.07136 0.53612 0.0
C1085 C 0.45931 0.05528 0.53318 0.0
H1086 H 0.38704 0.08738 0.51582 0.0
H1087 H 0.62893 0.93126 0.48855 0.0
loop_
_geom_bond_atom_site_label_1
_geom_bond_atom_site_label_2
_geom_bond_distance
_geom_bond_site_symmetry_2
_ccdc_geom_bond_type
Mn0 O5 2.095 . S
Mn0 O15 2.162 . S
Mn0 O16 2.297 . S
Mn0 O24 2.385 1_455 S
Mn0 O25 2.209 1_455 S
Mn0 O26 2.094 . S
Mn1 O6 2.121 . S
Mn1 N8 2.257 1_455 S
Mn1 N17 2.282 1_455 S
Mn1 O25 2.215 1_455 S
Mn1 O27 2.117 . S
C2 O24 1.234 . S
C2 O25 1.283 . S
C3 O15 1.281 . S
C3 O16 1.236 . S
C4 O26 1.240 . S
C4 O27 1.264 . S
O5 Mn0 2.095 . S
O5 C14 1.250 . S
O6 Mn1 2.121 . S
O6 C14 1.258 . S
C7 N8 1.326 1_455 S
C7 C11 1.460 . S
C7 H13 0.929 . S
N8 Mn1 2.257 1_655 S
N8 C7 1.326 1_655 S
N8 C12 1.362 . S
C9 C10 1.258 . S
C9 C12 1.431 . S
C9 C29 1.449 . S
C10 C9 1.258 . S
C10 C11 1.477 1_655 S
C10 H30 0.931 . S
C11 C7 1.460 . S
C11 C10 1.477 1_455 S
C11 H31 0.930 . S
C12 N8 1.362 . S
C12 C9 1.431 . S
C12 C22 1.476 . S
H13 C7 0.929 . S
C14 O5 1.250 . S
C14 O6 1.258 . S
O15 Mn0 2.162 . S
O15 C3 1.281 . S
O16 Mn0 2.297 . S
O16 C3 1.236 . S
N17 Mn1 2.282 1_655 S
N17 C18 1.328 . S
N17 C22 1.318 . S
C18 N17 1.328 . S
C18 C19 1.457 . S
C18 H23 0.929 . S
C19 C18 1.457 . S
C19 C20 1.291 . S
C19 H32 0.931 . S
C20 C19 1.291 . S
C20 C21 1.373 . S
C20 H33 0.929 . S
C21 C20 1.373 . S
C21 C22 1.396 . S
C21 C28 1.403 . S
C22 C12 1.476 . S
C22 N17 1.318 . S
C22 C21 1.396 . S
H23 C18 0.929 . S
O24 Mn0 2.385 1_655 S
O24 C2 1.234 . S
O25 Mn0 2.209 1_655 S
O25 Mn1 2.215 1_655 S
O25 C2 1.283 . S
O26 Mn0 2.094 . S
O26 C4 1.240 . S
O27 Mn1 2.117 . S
O27 C4 1.264 . S
C28 C21 1.403 . S
C28 C29 1.399 . S
C28 H34 0.929 . S
C29 C9 1.449 . S
C29 C28 1.399 . S
C29 H35 0.930 . S
H30 C10 0.931 . S
H31 C11 0.930 . S
H32 C19 0.931 . S
H33 C20 0.929 . S
H34 C28 0.929 . S
H35 C29 0.930 . S
Mn36 O41 2.095 1_455 S
Mn36 O51 2.162 . S
Mn36 O52 2.297 . S
Mn36 O60 2.385 . S
Mn36 O61 2.209 . S
Mn36 O62 2.094 . S
Mn37 O42 2.121 1_455 S
Mn37 N44 2.257 . S
Mn37 N53 2.282 . S
Mn37 O61 2.215 . S
Mn37 O63 2.117 . S
C38 O60 1.234 . S
C38 O61 1.283 . S
C39 O51 1.281 . S
C39 O52 1.236 . S
C40 O62 1.240 . S
C40 O63 1.264 . S
O41 Mn36 2.095 1_655 S
O41 C50 1.250 . S
O42 Mn37 2.121 1_655 S
O42 C50 1.258 . S
C43 N44 1.326 . S
C43 C47 1.460 . S
C43 H49 0.929 1_455 S
N44 Mn37 2.257 . S
N44 C43 1.326 . S
N44 C48 1.362 . S
C45 C46 1.258 . S
C45 C48 1.431 . S
C45 C65 1.449 . S
C46 C45 1.258 . S
C46 C47 1.477 . S
C46 H66 0.931 . S
C47 C43 1.460 . S
C47 C46 1.477 . S
C47 H67 0.930 . S
C48 N44 1.362 . S
C48 C45 1.431 . S
C48 C58 1.476 . S
H49 C43 0.929 1_655 S
C50 O41 1.250 . S
C50 O42 1.258 . S
O51 Mn36 2.162 . S
O51 C39 1.281 . S
O52 Mn36 2.297 . S
O52 C39 1.236 . S
N53 Mn37 2.282 . S
N53 C54 1.328 . S
N53 C58 1.318 . S
C54 N53 1.328 . S
C54 C55 1.457 . S
C54 H59 0.929 . S
C55 C54 1.457 . S
C55 C56 1.291 . S
C55 H68 0.931 . S
C56 C55 1.291 . S
C56 C57 1.373 . S
C56 H69 0.929 . S
C57 C56 1.373 . S
C57 C58 1.396 . S
C57 C64 1.403 . S
C58 C48 1.476 . S
C58 N53 1.318 . S
C58 C57 1.396 . S
H59 C54 0.929 . S
O60 Mn36 2.385 . S
O60 C38 1.234 . S
O61 Mn36 2.209 . S
O61 Mn37 2.215 . S
O61 C38 1.283 . S
O62 Mn36 2.094 . S
O62 C40 1.240 . S
O63 Mn37 2.117 . S
O63 C40 1.264 . S
C64 C57 1.403 . S
C64 C65 1.399 . S
C64 H70 0.929 . S
C65 C45 1.449 . S
C65 C64 1.399 . S
C65 H71 0.930 . S
H66 C46 0.931 . S
H67 C47 0.930 . S
H68 C55 0.931 . S
H69 C56 0.929 . S
H70 C64 0.929 . S
H71 C65 0.930 . S
Mn72 O77 2.095 . S
Mn72 O87 2.162 . S
Mn72 O88 2.297 . S
Mn72 O96 2.385 1_455 S
Mn72 O97 2.209 1_455 S
Mn72 O98 2.094 . S
Mn73 O78 2.121 . S
Mn73 N80 2.257 1_455 S
Mn73 N89 2.282 1_455 S
Mn73 O97 2.215 1_455 S
Mn73 O99 2.117 . S
C74 O96 1.234 . S
C74 O97 1.283 . S
C75 O87 1.281 . S
C75 O88 1.236 . S
C76 O98 1.240 . S
C76 O99 1.264 . S
O77 Mn72 2.095 . S
O77 C86 1.250 . S
O78 Mn73 2.121 . S
O78 C86 1.258 . S
C79 N80 1.326 1_455 S
C79 C83 1.460 . S
C79 H85 0.929 . S
N80 Mn73 2.257 1_655 S
N80 C79 1.326 1_655 S
N80 C84 1.362 . S
C81 C82 1.258 . S
C81 C84 1.431 . S
C81 C101 1.449 . S
C82 C81 1.258 . S
C82 C83 1.477 1_655 S
C82 H102 0.931 . S
C83 C79 1.460 . S
C83 C82 1.477 1_455 S
C83 H103 0.930 . S
C84 N80 1.362 . S
C84 C81 1.431 . S
C84 C94 1.476 . S
H85 C79 0.929 . S
C86 O77 1.250 . S
C86 O78 1.258 . S
O87 Mn72 2.162 . S
O87 C75 1.281 . S
O88 Mn72 2.297 . S
O88 C75 1.236 . S
N89 Mn73 2.282 1_655 S
N89 C90 1.328 . S
N89 C94 1.318 . S
C90 N89 1.328 . S
C90 C91 1.457 . S
C90 H95 0.929 . S
C91 C90 1.457 . S
C91 C92 1.291 . S
C91 H104 0.931 . S
C92 C91 1.291 . S
C92 C93 1.373 . S
C92 H105 0.929 . S
C93 C92 1.373 . S
C93 C94 1.396 . S
C93 C100 1.403 . S
C94 C84 1.476 . S
C94 N89 1.318 . S
C94 C93 1.396 . S
H95 C90 0.929 . S
O96 Mn72 2.385 1_655 S
O96 C74 1.234 . S
O97 Mn72 2.209 1_655 S
O97 Mn73 2.215 1_655 S
O97 C74 1.283 . S
O98 Mn72 2.094 . S
O98 C76 1.240 . S
O99 Mn73 2.117 . S
O99 C76 1.264 . S
C100 C93 1.403 . S
C100 C101 1.399 . S
C100 H106 0.929 . S
C101 C81 1.449 . S
C101 C100 1.399 . S
C101 H107 0.930 . S
H102 C82 0.931 . S
H103 C83 0.930 . S
H104 C91 0.931 . S
H105 C92 0.929 . S
H106 C100 0.929 . S
H107 C101 0.930 . S
Mn108 O113 2.095 1_455 S
Mn108 O123 2.162 . S
Mn108 O124 2.297 . S
Mn108 O132 2.385 . S
Mn108 O133 2.209 . S
Mn108 O134 2.094 . S
Mn109 O114 2.121 1_455 S
Mn109 N116 2.257 . S
Mn109 N125 2.282 . S
Mn109 O133 2.215 . S
Mn109 O135 2.117 . S
C110 O132 1.234 . S
C110 O133 1.283 . S
C111 O123 1.281 . S
C111 O124 1.236 . S
C112 O134 1.240 . S
C112 O135 1.264 . S
O113 Mn108 2.095 1_655 S
O113 C122 1.250 . S
O114 Mn109 2.121 1_655 S
O114 C122 1.258 . S
C115 N116 1.326 . S
C115 C119 1.460 . S
C115 H121 0.929 1_455 S
N116 Mn109 2.257 . S
N116 C115 1.326 . S
N116 C120 1.362 . S
C117 C118 1.258 . S
C117 C120 1.431 . S
C117 C137 1.449 . S
C118 C117 1.258 . S
C118 C119 1.477 . S
C118 H138 0.931 . S
C119 C115 1.460 . S
C119 C118 1.477 . S
C119 H139 0.930 . S
C120 N116 1.362 . S
C120 C117 1.431 . S
C120 C130 1.476 . S
H121 C115 0.929 1_655 S
C122 O113 1.250 . S
C122 O114 1.258 . S
O123 Mn108 2.162 . S
O123 C111 1.281 . S
O124 Mn108 2.297 . S
O124 C111 1.236 . S
N125 Mn109 2.282 . S
N125 C126 1.328 . S
N125 C130 1.318 . S
C126 N125 1.328 . S
C126 C127 1.457 . S
C126 H131 0.929 . S
C127 C126 1.457 . S
C127 C128 1.291 . S
C127 H140 0.931 . S
C128 C127 1.291 . S
C128 C129 1.373 . S
C128 H141 0.929 . S
C129 C128 1.373 . S
C129 C130 1.396 . S
C129 C136 1.403 . S
C130 C120 1.476 . S
C130 N125 1.318 . S
C130 C129 1.396 . S
H131 C126 0.929 . S
O132 Mn108 2.385 . S
O132 C110 1.234 . S
O133 Mn108 2.209 . S
O133 Mn109 2.215 . S
O133 C110 1.283 . S
O134 Mn108 2.094 . S
O134 C112 1.240 . S
O135 Mn109 2.117 . S
O135 C112 1.264 . S
C136 C129 1.403 . S
C136 C137 1.399 . S
C136 H142 0.929 . S
C137 C117 1.449 . S
C137 C136 1.399 . S
C137 H143 0.930 . S
H138 C118 0.931 . S
H139 C119 0.930 . S
H140 C127 0.931 . S
H141 C128 0.929 . S
H142 C136 0.929 . S
H143 C137 0.930 . S
Mn144 O149 2.095 . S
Mn144 O159 2.162 . S
Mn144 O160 2.297 . S
Mn144 O168 2.385 . S
Mn144 O169 2.209 . S
Mn144 O170 2.094 . S
Mn145 O150 2.121 . S
Mn145 N152 2.257 . S
Mn145 N161 2.282 . S
Mn145 O169 2.215 . S
Mn145 O171 2.117 . S
C146 O168 1.234 . S
C146 O169 1.283 . S
C147 O159 1.281 . S
C147 O160 1.236 . S
C148 O170 1.240 . S
C148 O171 1.264 . S
O149 Mn144 2.095 . S
O149 C158 1.250 . S
O150 Mn145 2.121 . S
O150 C158 1.258 . S
C151 N152 1.326 . S
C151 C155 1.460 . S
C151 H157 0.929 . S
N152 Mn145 2.257 . S
N152 C151 1.326 . S
N152 C156 1.362 . S
C153 C154 1.258 . S
C153 C156 1.431 . S
C153 C173 1.449 . S
C154 C153 1.258 . S
C154 C155 1.477 . S
C154 H174 0.931 . S
C155 C151 1.460 . S
C155 C154 1.477 . S
C155 H175 0.930 . S
C156 N152 1.362 . S
C156 C153 1.431 . S
C156 C166 1.476 . S
H157 C151 0.929 . S
C158 O149 1.250 . S
C158 O150 1.258 . S
O159 Mn144 2.162 . S
O159 C147 1.281 . S
O160 Mn144 2.297 . S
O160 C147 1.236 . S
N161 Mn145 2.282 . S
N161 C162 1.328 . S
N161 C166 1.318 . S
C162 N161 1.328 . S
C162 C163 1.457 . S
C162 H167 0.929 . S
C163 C162 1.457 . S
C163 C164 1.291 . S
C163 H176 0.931 . S
C164 C163 1.291 . S
C164 C165 1.373 . S
C164 H177 0.929 . S
C165 C164 1.373 . S
C165 C166 1.396 . S
C165 C172 1.403 . S
C166 C156 1.476 . S
C166 N161 1.318 . S
C166 C165 1.396 . S
H167 C162 0.929 . S
O168 Mn144 2.385 . S
O168 C146 1.234 . S
O169 Mn144 2.209 . S
O169 Mn145 2.215 . S
O169 C146 1.283 . S
O170 Mn144 2.094 . S
O170 C148 1.240 . S
O171 Mn145 2.117 . S
O171 C148 1.264 . S
C172 C165 1.403 . S
C172 C173 1.399 . S
C172 H178 0.929 . S
C173 C153 1.449 . S
C173 C172 1.399 . S
C173 H179 0.930 . S
H174 C154 0.931 . S
H175 C155 0.930 . S
H176 C163 0.931 . S
H177 C164 0.929 . S
H178 C172 0.929 . S
H179 C173 0.930 . S
Mn180 O185 2.095 . S
Mn180 O195 2.162 . S
Mn180 O196 2.297 . S
Mn180 O204 2.385 . S
Mn180 O205 2.209 . S
Mn180 O206 2.094 . S
Mn181 O186 2.121 . S
Mn181 N188 2.257 . S
Mn181 N197 2.282 . S
Mn181 O205 2.215 . S
Mn181 O207 2.117 . S
C182 O204 1.234 . S
C182 O205 1.283 . S
C183 O195 1.281 . S
C183 O196 1.236 . S
C184 O206 1.240 . S
C184 O207 1.264 . S
O185 Mn180 2.095 . S
O185 C194 1.250 . S
O186 Mn181 2.121 . S
O186 C194 1.258 . S
C187 N188 1.326 . S
C187 C191 1.460 . S
C187 H193 0.929 . S
N188 Mn181 2.257 . S
N188 C187 1.326 . S
N188 C192 1.362 . S
C189 C190 1.258 . S
C189 C192 1.431 . S
C189 C209 1.449 . S
C190 C189 1.258 . S
C190 C191 1.477 . S
C190 H210 0.931 . S
C191 C187 1.460 . S
C191 C190 1.477 . S
C191 H211 0.930 . S
C192 N188 1.362 . S
C192 C189 1.431 . S
C192 C202 1.476 . S
H193 C187 0.929 . S
C194 O185 1.250 . S
C194 O186 1.258 . S
O195 Mn180 2.162 . S
O195 C183 1.281 . S
O196 Mn180 2.297 . S
O196 C183 1.236 . S
N197 Mn181 2.282 . S
N197 C198 1.328 . S
N197 C202 1.318 . S
C198 N197 1.328 . S
C198 C199 1.457 . S
C198 H203 0.929 . S
C199 C198 1.457 . S
C199 C200 1.291 . S
C199 H212 0.931 . S
C200 C199 1.291 . S
C200 C201 1.373 . S
C200 H213 0.929 . S
C201 C200 1.373 . S
C201 C202 1.396 . S
C201 C208 1.403 . S
C202 C192 1.476 . S
C202 N197 1.318 . S
C202 C201 1.396 . S
H203 C198 0.929 . S
O204 Mn180 2.385 . S
O204 C182 1.234 . S
O205 Mn180 2.209 . S
O205 Mn181 2.215 . S
O205 C182 1.283 . S
O206 Mn180 2.094 . S
O206 C184 1.240 . S
O207 Mn181 2.117 . S
O207 C184 1.264 . S
C208 C201 1.403 . S
C208 C209 1.399 . S
C208 H214 0.929 . S
C209 C189 1.449 . S
C209 C208 1.399 . S
C209 H215 0.930 . S
H210 C190 0.931 . S
H211 C191 0.930 . S
H212 C199 0.931 . S
H213 C200 0.929 . S
H214 C208 0.929 . S
H215 C209 0.930 . S
Mn216 O221 2.095 . S
Mn216 O231 2.162 . S
Mn216 O232 2.297 . S
Mn216 O240 2.385 . S
Mn216 O241 2.209 . S
Mn216 O242 2.094 . S
Mn217 O222 2.121 . S
Mn217 N224 2.257 . S
Mn217 N233 2.282 . S
Mn217 O241 2.215 . S
Mn217 O243 2.117 . S
C218 O240 1.234 . S
C218 O241 1.283 . S
C219 O231 1.281 . S
C219 O232 1.236 . S
C220 O242 1.240 . S
C220 O243 1.264 . S
O221 Mn216 2.095 . S
O221 C230 1.250 . S
O222 Mn217 2.121 . S
O222 C230 1.258 . S
C223 N224 1.326 . S
C223 C227 1.460 . S
C223 H229 0.929 . S
N224 Mn217 2.257 . S
N224 C223 1.326 . S
N224 C228 1.362 . S
C225 C226 1.258 . S
C225 C228 1.431 . S
C225 C245 1.449 . S
C226 C225 1.258 . S
C226 C227 1.477 . S
C226 H246 0.931 . S
C227 C223 1.460 . S
C227 C226 1.477 . S
C227 H247 0.930 . S
C228 N224 1.362 . S
C228 C225 1.431 . S
C228 C238 1.476 . S
H229 C223 0.929 . S
C230 O221 1.250 . S
C230 O222 1.258 . S
O231 Mn216 2.162 . S
O231 C219 1.281 . S
O232 Mn216 2.297 . S
O232 C219 1.236 . S
N233 Mn217 2.282 . S
N233 C234 1.328 . S
N233 C238 1.318 . S
C234 N233 1.328 . S
C234 C235 1.457 . S
C234 H239 0.929 . S
C235 C234 1.457 . S
C235 C236 1.291 . S
C235 H248 0.931 . S
C236 C235 1.291 . S
C236 C237 1.373 . S
C236 H249 0.929 . S
C237 C236 1.373 . S
C237 C238 1.396 . S
C237 C244 1.403 . S
C238 C228 1.476 . S
C238 N233 1.318 . S
C238 C237 1.396 . S
H239 C234 0.929 . S
O240 Mn216 2.385 . S
O240 C218 1.234 . S
O241 Mn216 2.209 . S
O241 Mn217 2.215 . S
O241 C218 1.283 . S
O242 Mn216 2.094 . S
O242 C220 1.240 . S
O243 Mn217 2.117 . S
O243 C220 1.264 . S
C244 C237 1.403 . S
C244 C245 1.399 . S
C244 H250 0.929 . S
C245 C225 1.449 . S
C245 C244 1.399 . S
C245 H251 0.930 . S
H246 C226 0.931 . S
H247 C227 0.930 . S
H248 C235 0.931 . S
H249 C236 0.929 . S
H250 C244 0.929 . S
H251 C245 0.930 . S
Mn252 O257 2.095 . S
Mn252 O267 2.162 . S
Mn252 O268 2.297 . S
Mn252 O276 2.385 . S
Mn252 O277 2.209 . S
Mn252 O278 2.094 . S
Mn253 O258 2.121 . S
Mn253 N260 2.257 . S
Mn253 N269 2.282 . S
Mn253 O277 2.215 . S
Mn253 O279 2.117 . S
C254 O276 1.234 . S
C254 O277 1.283 . S
C255 O267 1.281 . S
C255 O268 1.236 . S
C256 O278 1.240 . S
C256 O279 1.264 . S
O257 Mn252 2.095 . S
O257 C266 1.250 . S
O258 Mn253 2.121 . S
O258 C266 1.258 . S
C259 N260 1.326 . S
C259 C263 1.460 . S
C259 H265 0.929 . S
N260 Mn253 2.257 . S
N260 C259 1.326 . S
N260 C264 1.362 . S
C261 C262 1.258 . S
C261 C264 1.431 . S
C261 C281 1.449 . S
C262 C261 1.258 . S
C262 C263 1.477 . S
C262 H282 0.931 . S
C263 C259 1.460 . S
C263 C262 1.477 . S
C263 H283 0.930 . S
C264 N260 1.362 . S
C264 C261 1.431 . S
C264 C274 1.476 . S
H265 C259 0.929 . S
C266 O257 1.250 . S
C266 O258 1.258 . S
O267 Mn252 2.162 . S
O267 C255 1.281 . S
O268 Mn252 2.297 . S
O268 C255 1.236 . S
N269 Mn253 2.282 . S
N269 C270 1.328 . S
N269 C274 1.318 . S
C270 N269 1.328 . S
C270 C271 1.457 . S
C270 H275 0.929 . S
C271 C270 1.457 . S
C271 C272 1.291 . S
C271 H284 0.931 . S
C272 C271 1.291 . S
C272 C273 1.373 . S
C272 H285 0.929 . S
C273 C272 1.373 . S
C273 C274 1.396 . S
C273 C280 1.403 . S
C274 C264 1.476 . S
C274 N269 1.318 . S
C274 C273 1.396 . S
H275 C270 0.929 . S
O276 Mn252 2.385 . S
O276 C254 1.234 . S
O277 Mn252 2.209 . S
O277 Mn253 2.215 . S
O277 C254 1.283 . S
O278 Mn252 2.094 . S
O278 C256 1.240 . S
O279 Mn253 2.117 . S
O279 C256 1.264 . S
C280 C273 1.403 . S
C280 C281 1.399 . S
C280 H286 0.929 . S
C281 C261 1.449 . S
C281 C280 1.399 . S
C281 H287 0.930 . S
H282 C262 0.931 . S
H283 C263 0.930 . S
H284 C271 0.931 . S
H285 C272 0.929 . S
H286 C280 0.929 . S
H287 C281 0.930 . S
H288 C306 0.951 1_655 S
H289 C308 0.951 1_655 S
H290 C310 0.950 . S
H291 C311 0.950 . S
H292 C313 0.950 . S
H293 C316 0.950 . S
H294 C317 0.950 . S
H295 C319 0.950 . S
H296 C320 0.950 . S
H297 C321 0.951 . S
H298 C323 0.951 . S
H299 C325 0.950 1_655 S
H300 C326 0.950 1_655 S
H301 C328 0.950 . S
H302 C331 0.950 . S
H303 C332 0.950 . S
H304 C334 0.950 . S
H305 C335 0.950 . S
C306 H288 0.951 1_455 S
C306 C307 1.366 . S
C306 C308 1.388 . S
C307 C306 1.366 . S
C307 C311 1.385 . S
C308 H289 0.951 1_455 S
C308 C306 1.388 . S
C308 C309 1.366 . S
C309 C308 1.366 . S
C309 C310 1.414 . S
C309 C312 1.499 . S
C310 H290 0.950 . S
C310 C309 1.414 . S
C310 C311 1.374 . S
C311 H291 0.950 . S
C311 C307 1.385 . S
C311 C310 1.374 . S
C312 C309 1.499 . S
C312 C313 1.373 . S
C312 C314 1.389 1_455 S
C313 H292 0.950 . S
C313 C312 1.373 . S
C313 C329 1.377 . S
C314 C312 1.389 1_655 S
C314 C315 1.524 . S
C314 C328 1.377 . S
C315 C314 1.524 . S
C315 C316 1.397 . S
C315 C320 1.363 . S
C316 H293 0.950 . S
C316 C315 1.397 . S
C316 C317 1.334 . S
C317 H294 0.950 . S
C317 C316 1.334 . S
C317 C318 1.287 . S
C318 C317 1.287 . S
C318 C319 1.524 . S
C318 H337 0.913 . S
C319 H295 0.950 . S
C319 C318 1.524 . S
C319 C320 1.415 . S
C320 H296 0.950 . S
C320 C315 1.363 . S
C320 C319 1.415 . S
C321 H297 0.951 . S
C321 C322 1.366 . S
C321 C323 1.388 . S
C322 C321 1.366 . S
C322 C326 1.385 . S
C323 H298 0.951 . S
C323 C321 1.388 . S
C323 C324 1.366 . S
C324 C323 1.366 . S
C324 C325 1.414 . S
C324 C327 1.499 . S
C325 H299 0.950 1_455 S
C325 C324 1.414 . S
C325 C326 1.374 . S
C326 H300 0.950 1_455 S
C326 C322 1.385 . S
C326 C325 1.374 . S
C327 C324 1.499 . S
C327 C328 1.373 1_455 S
C327 C329 1.389 . S
C328 H301 0.950 . S
C328 C314 1.377 . S
C328 C327 1.373 1_655 S
C329 C313 1.377 . S
C329 C327 1.389 . S
C329 C330 1.524 . S
C330 C329 1.524 . S
C330 C331 1.397 . S
C330 C335 1.363 . S
C331 H302 0.950 . S
C331 C330 1.397 . S
C331 C332 1.334 . S
C332 H303 0.950 . S
C332 C331 1.334 . S
C332 C333 1.287 . S
C333 C332 1.287 . S
C333 C334 1.524 . S
C333 H336 0.999 . S
C334 H304 0.950 . S
C334 C333 1.524 . S
C334 C335 1.415 . S
C335 H305 0.950 . S
C335 C330 1.363 . S
C335 C334 1.415 . S
H336 C333 0.999 . S
H337 C318 0.913 . S
H338 C356 0.950 1_655 S
H339 C358 0.951 . S
H340 C360 0.950 . S
H341 C361 0.950 . S
H342 C363 0.950 . S
H343 C366 0.950 . S
H344 C367 0.950 . S
H345 C369 0.950 . S
H346 C370 0.950 . S
H347 C371 0.951 . S
H348 C373 0.951 . S
H349 C375 0.950 . S
H350 C376 0.950 . S
H351 C378 0.950 . S
H352 C381 0.950 . S
H353 C382 0.950 . S
H354 C384 0.950 . S
H355 C385 0.950 . S
C356 H338 0.950 1_455 S
C356 C357 1.366 . S
C356 C358 1.388 . S
C357 C356 1.366 . S
C357 C361 1.385 . S
C358 H339 0.951 . S
C358 C356 1.388 . S
C358 C359 1.366 . S
C359 C358 1.366 . S
C359 C360 1.414 . S
C359 C362 1.499 . S
C360 H340 0.950 . S
C360 C359 1.414 . S
C360 C361 1.374 . S
C361 H341 0.950 . S
C361 C357 1.385 . S
C361 C360 1.374 . S
C362 C359 1.499 . S
C362 C363 1.373 1_455 S
C362 C364 1.389 . S
C363 H342 0.950 . S
C363 C362 1.373 1_655 S
C363 C379 1.377 . S
C364 C362 1.389 . S
C364 C365 1.524 . S
C364 C378 1.377 . S
C365 C364 1.524 . S
C365 C366 1.397 . S
C365 C370 1.363 . S
C366 H343 0.950 . S
C366 C365 1.397 . S
C366 C367 1.334 . S
C367 H344 0.950 . S
C367 C366 1.334 . S
C367 C368 1.287 . S
C368 C367 1.287 . S
C368 C369 1.524 . S
C368 H387 0.913 . S
C369 H345 0.950 . S
C369 C368 1.524 . S
C369 C370 1.415 . S
C370 H346 0.950 . S
C370 C365 1.363 . S
C370 C369 1.415 . S
C371 H347 0.951 . S
C371 C372 1.366 . S
C371 C373 1.388 . S
C372 C371 1.366 . S
C372 C376 1.385 . S
C373 H348 0.951 . S
C373 C371 1.388 . S
C373 C374 1.366 . S
C374 C373 1.366 . S
C374 C375 1.414 . S
C374 C377 1.499 . S
C375 H349 0.950 . S
C375 C374 1.414 . S
C375 C376 1.374 . S
C376 H350 0.950 . S
C376 C372 1.385 . S
C376 C375 1.374 . S
C377 C374 1.499 . S
C377 C378 1.373 . S
C377 C379 1.389 1_455 S
C378 H351 0.950 . S
C378 C364 1.377 . S
C378 C377 1.373 . S
C379 C363 1.377 . S
C379 C377 1.389 1_655 S
C379 C380 1.524 . S
C380 C379 1.524 . S
C380 C381 1.397 . S
C380 C385 1.363 . S
C381 H352 0.950 . S
C381 C380 1.397 . S
C381 C382 1.334 . S
C382 H353 0.950 . S
C382 C381 1.334 . S
C382 C383 1.287 . S
C383 C382 1.287 . S
C383 C384 1.524 . S
C383 H386 0.999 . S
C384 H354 0.950 . S
C384 C383 1.524 . S
C384 C385 1.415 . S
C385 H355 0.950 . S
C385 C380 1.363 . S
C385 C384 1.415 . S
H386 C383 0.999 . S
H387 C368 0.913 . S
H388 C406 0.951 . S
H389 C408 0.951 . S
H390 C410 0.950 . S
H391 C411 0.950 . S
H392 C413 0.950 . S
H393 C416 0.950 . S
H394 C417 0.950 . S
H395 C419 0.950 . S
H396 C420 0.950 . S
H397 C421 0.951 . S
H398 C423 0.951 . S
H399 C425 0.950 . S
H400 C426 0.950 . S
H401 C428 0.950 . S
H402 C431 0.950 . S
H403 C432 0.950 . S
H404 C434 0.950 . S
H405 C435 0.950 . S
C406 H388 0.951 . S
C406 C407 1.366 . S
C406 C408 1.388 . S
C407 C406 1.366 . S
C407 C411 1.385 . S
C408 H389 0.951 . S
C408 C406 1.388 . S
C408 C409 1.366 . S
C409 C408 1.366 . S
C409 C410 1.414 . S
C409 C412 1.499 . S
C410 H390 0.950 . S
C410 C409 1.414 . S
C410 C411 1.374 . S
C411 H391 0.950 . S
C411 C407 1.385 . S
C411 C410 1.374 . S
C412 C409 1.499 . S
C412 C413 1.373 . S
C412 C414 1.389 . S
C413 H392 0.950 . S
C413 C412 1.373 . S
C413 C429 1.377 . S
C414 C412 1.389 . S
C414 C415 1.524 . S
C414 C428 1.377 . S
C415 C414 1.524 . S
C415 C416 1.397 . S
C415 C420 1.363 . S
C416 H393 0.950 . S
C416 C415 1.397 . S
C416 C417 1.334 . S
C417 H394 0.950 . S
C417 C416 1.334 . S
C417 C418 1.287 . S
C418 C417 1.287 . S
C418 C419 1.524 . S
C418 H437 0.913 . S
C419 H395 0.950 . S
C419 C418 1.524 . S
C419 C420 1.415 . S
C420 H396 0.950 . S
C420 C415 1.363 . S
C420 C419 1.415 . S
C421 H397 0.951 . S
C421 C422 1.366 . S
C421 C423 1.388 . S
C422 C421 1.366 . S
C422 C426 1.385 . S
C423 H398 0.951 . S
C423 C421 1.388 . S
C423 C424 1.366 . S
C424 C423 1.366 . S
C424 C425 1.414 . S
C424 C427 1.499 . S
C425 H399 0.950 . S
C425 C424 1.414 . S
C425 C426 1.374 . S
C426 H400 0.950 . S
C426 C422 1.385 . S
C426 C425 1.374 . S
C427 C424 1.499 . S
C427 C428 1.373 . S
C427 C429 1.389 . S
C428 H401 0.950 . S
C428 C414 1.377 . S
C428 C427 1.373 . S
C429 C413 1.377 . S
C429 C427 1.389 . S
C429 C430 1.524 . S
C430 C429 1.524 . S
C430 C431 1.397 . S
C430 C435 1.363 . S
C431 H402 0.950 . S
C431 C430 1.397 . S
C431 C432 1.334 . S
C432 H403 0.950 . S
C432 C431 1.334 . S
C432 C433 1.287 . S
C433 C432 1.287 . S
C433 C434 1.524 . S
C433 H436 0.999 . S
C434 H404 0.950 . S
C434 C433 1.524 . S
C434 C435 1.415 . S
C435 H405 0.950 . S
C435 C430 1.363 . S
C435 C434 1.415 . S
H436 C433 0.999 . S
H437 C418 0.913 . S
H438 C456 0.951 . S
H439 C458 0.951 . S
H440 C460 0.950 . S
H441 C461 0.950 . S
H442 C463 0.950 . S
H443 C466 0.950 . S
H444 C467 0.950 . S
H445 C469 0.950 . S
H446 C470 0.950 . S
H447 C471 0.951 . S
H448 C473 0.951 . S
H449 C475 0.950 . S
H450 C476 0.950 . S
H451 C478 0.950 . S
H452 C481 0.950 . S
H453 C482 0.950 . S
H454 C484 0.950 . S
H455 C485 0.950 . S
C456 H438 0.951 . S
C456 C457 1.366 . S
C456 C458 1.388 . S
C457 C456 1.366 . S
C457 C461 1.385 . S
C458 H439 0.951 . S
C458 C456 1.388 . S
C458 C459 1.366 . S
C459 C458 1.366 . S
C459 C460 1.414 . S
C459 C462 1.499 . S
C460 H440 0.950 . S
C460 C459 1.414 . S
C460 C461 1.374 . S
C461 H441 0.950 . S
C461 C457 1.385 . S
C461 C460 1.374 . S
C462 C459 1.499 . S
C462 C463 1.373 . S
C462 C464 1.389 . S
C463 H442 0.950 . S
C463 C462 1.373 . S
C463 C479 1.377 . S
C464 C462 1.389 . S
C464 C465 1.524 . S
C464 C478 1.377 . S
C465 C464 1.524 . S
C465 C466 1.397 . S
C465 C470 1.363 . S
C466 H443 0.950 . S
C466 C465 1.397 . S
C466 C467 1.334 . S
C467 H444 0.950 . S
C467 C466 1.334 . S
C467 C468 1.287 . S
C468 C467 1.287 . S
C468 C469 1.524 . S
C468 H487 0.913 . S
C469 H445 0.950 . S
C469 C468 1.524 . S
C469 C470 1.415 . S
C470 H446 0.950 . S
C470 C465 1.363 . S
C470 C469 1.415 . S
C471 H447 0.951 . S
C471 C472 1.366 . S
C471 C473 1.388 . S
C472 C471 1.366 . S
C472 C476 1.385 . S
C473 H448 0.951 . S
C473 C471 1.388 . S
C473 C474 1.366 . S
C474 C473 1.366 . S
C474 C475 1.414 . S
C474 C477 1.499 . S
C475 H449 0.950 . S
C475 C474 1.414 . S
C475 C476 1.374 . S
C476 H450 0.950 . S
C476 C472 1.385 . S
C476 C475 1.374 . S
C477 C474 1.499 . S
C477 C478 1.373 . S
C477 C479 1.389 . S
C478 H451 0.950 . S
C478 C464 1.377 . S
C478 C477 1.373 . S
C479 C463 1.377 . S
C479 C477 1.389 . S
C479 C480 1.524 . S
C480 C479 1.524 . S
C480 C481 1.397 . S
C480 C485 1.363 . S
C481 H452 0.950 . S
C481 C480 1.397 . S
C481 C482 1.334 . S
C482 H453 0.950 . S
C482 C481 1.334 . S
C482 C483 1.287 . S
C483 C482 1.287 . S
C483 C484 1.524 . S
C483 H486 0.999 . S
C484 H454 0.950 . S
C484 C483 1.524 . S
C484 C485 1.415 . S
C485 H455 0.950 . S
C485 C480 1.363 . S
C485 C484 1.415 . S
H486 C483 0.999 . S
H487 C468 0.913 . S
H488 C506 0.951 . S
H489 C508 0.951 . S
H490 C510 0.950 . S
H491 C511 0.950 . S
H492 C513 0.950 . S
H493 C516 0.950 . S
H494 C517 0.950 . S
H495 C519 0.950 . S
H496 C520 0.950 . S
H497 C521 0.951 . S
H498 C523 0.951 . S
H499 C525 0.950 . S
H500 C526 0.950 . S
H501 C528 0.950 . S
H502 C531 0.950 . S
H503 C532 0.950 . S
H504 C534 0.950 . S
H505 C535 0.950 . S
C506 H488 0.951 . S
C506 C507 1.366 . S
C506 C508 1.388 . S
C507 C506 1.366 . S
C507 C511 1.385 . S
C508 H489 0.951 . S
C508 C506 1.388 . S
C508 C509 1.366 . S
C509 C508 1.366 . S
C509 C510 1.414 . S
C509 C512 1.499 . S
C510 H490 0.950 . S
C510 C509 1.414 . S
C510 C511 1.374 . S
C511 H491 0.950 . S
C511 C507 1.385 . S
C511 C510 1.374 . S
C512 C509 1.499 . S
C512 C513 1.373 . S
C512 C514 1.389 . S
C513 H492 0.950 . S
C513 C512 1.373 . S
C513 C529 1.377 . S
C514 C512 1.389 . S
C514 C515 1.524 . S
C514 C528 1.377 . S
C515 C514 1.524 . S
C515 C516 1.397 . S
C515 C520 1.363 . S
C516 H493 0.950 . S
C516 C515 1.397 . S
C516 C517 1.334 . S
C517 H494 0.950 . S
C517 C516 1.334 . S
C517 C518 1.287 . S
C518 C517 1.287 . S
C518 C519 1.524 . S
C518 H537 0.913 . S
C519 H495 0.950 . S
C519 C518 1.524 . S
C519 C520 1.415 . S
C520 H496 0.950 . S
C520 C515 1.363 . S
C520 C519 1.415 . S
C521 H497 0.951 . S
C521 C522 1.366 . S
C521 C523 1.388 . S
C522 C521 1.366 . S
C522 C526 1.385 . S
C523 H498 0.951 . S
C523 C521 1.388 . S
C523 C524 1.366 . S
C524 C523 1.366 . S
C524 C525 1.414 . S
C524 C527 1.499 . S
C525 H499 0.950 . S
C525 C524 1.414 . S
C525 C526 1.374 . S
C526 H500 0.950 . S
C526 C522 1.385 . S
C526 C525 1.374 . S
C527 C524 1.499 . S
C527 C528 1.373 . S
C527 C529 1.389 . S
C528 H501 0.950 . S
C528 C514 1.377 . S
C528 C527 1.373 . S
C529 C513 1.377 . S
C529 C527 1.389 . S
C529 C530 1.524 . S
C530 C529 1.524 . S
C530 C531 1.397 . S
C530 C535 1.363 . S
C531 H502 0.950 . S
C531 C530 1.397 . S
C531 C532 1.334 . S
C532 H503 0.950 . S
C532 C531 1.334 . S
C532 C533 1.287 . S
C533 C532 1.287 . S
C533 C534 1.524 . S
C533 H536 0.999 . S
C534 H504 0.950 . S
C534 C533 1.524 . S
C534 C535 1.415 . S
C535 H505 0.950 . S
C535 C530 1.363 . S
C535 C534 1.415 . S
H536 C533 0.999 . S
H537 C518 0.913 . S
H538 C556 0.951 . S
H539 C558 0.951 . S
H540 C560 0.950 . S
H541 C561 0.950 . S
H542 C563 0.950 . S
H543 C566 0.950 . S
H544 C567 0.950 . S
H545 C569 0.950 . S
H546 C570 0.950 . S
H547 C571 0.951 . S
H548 C573 0.951 . S
H549 C575 0.950 . S
H550 C576 0.950 . S
H551 C578 0.950 . S
H552 C581 0.950 . S
H553 C582 0.950 . S
H554 C584 0.950 . S
H555 C585 0.950 . S
C556 H538 0.951 . S
C556 C557 1.366 . S
C556 C558 1.388 . S
C557 C556 1.366 . S
C557 C561 1.385 . S
C558 H539 0.951 . S
C558 C556 1.388 . S
C558 C559 1.366 . S
C559 C558 1.366 . S
C559 C560 1.414 . S
C559 C562 1.499 . S
C560 H540 0.950 . S
C560 C559 1.414 . S
C560 C561 1.374 . S
C561 H541 0.950 . S
C561 C557 1.385 . S
C561 C560 1.374 . S
C562 C559 1.499 . S
C562 C563 1.373 . S
C562 C564 1.389 . S
C563 H542 0.950 . S
C563 C562 1.373 . S
C563 C579 1.377 . S
C564 C562 1.389 . S
C564 C565 1.524 . S
C564 C578 1.377 . S
C565 C564 1.524 . S
C565 C566 1.397 . S
C565 C570 1.363 . S
C566 H543 0.950 . S
C566 C565 1.397 . S
C566 C567 1.334 . S
C567 H544 0.950 . S
C567 C566 1.334 . S
C567 C568 1.287 . S
C568 C567 1.287 . S
C568 C569 1.524 . S
C568 H587 0.913 . S
C569 H545 0.950 . S
C569 C568 1.524 . S
C569 C570 1.415 . S
C570 H546 0.950 . S
C570 C565 1.363 . S
C570 C569 1.415 . S
C571 H547 0.951 . S
C571 C572 1.366 . S
C571 C573 1.388 . S
C572 C571 1.366 . S
C572 C576 1.385 . S
C573 H548 0.951 . S
C573 C571 1.388 . S
C573 C574 1.366 . S
C574 C573 1.366 . S
C574 C575 1.414 . S
C574 C577 1.499 . S
C575 H549 0.950 . S
C575 C574 1.414 . S
C575 C576 1.374 . S
C576 H550 0.950 . S
C576 C572 1.385 . S
C576 C575 1.374 . S
C577 C574 1.499 . S
C577 C578 1.373 . S
C577 C579 1.389 . S
C578 H551 0.950 . S
C578 C564 1.377 . S
C578 C577 1.373 . S
C579 C563 1.377 . S
C579 C577 1.389 . S
C579 C580 1.524 . S
C580 C579 1.524 . S
C580 C581 1.397 . S
C580 C585 1.363 . S
C581 H552 0.950 . S
C581 C580 1.397 . S
C581 C582 1.334 . S
C582 H553 0.950 . S
C582 C581 1.334 . S
C582 C583 1.287 . S
C583 C582 1.287 . S
C583 C584 1.524 . S
C583 H586 0.999 . S
C584 H554 0.950 . S
C584 C583 1.524 . S
C584 C585 1.415 . S
C585 H555 0.950 . S
C585 C580 1.363 . S
C585 C584 1.415 . S
H586 C583 0.999 . S
H587 C568 0.913 . S
H588 C606 0.951 . S
H589 C608 0.951 . S
H590 C610 0.950 . S
H591 C611 0.950 . S
H592 C613 0.950 . S
H593 C616 0.950 . S
H594 C617 0.950 . S
H595 C619 0.950 . S
H596 C620 0.950 . S
H597 C621 0.951 . S
H598 C623 0.951 . S
H599 C625 0.950 . S
H600 C626 0.950 . S
H601 C628 0.950 . S
H602 C631 0.950 . S
H603 C632 0.950 . S
H604 C634 0.950 . S
H605 C635 0.950 . S
C606 H588 0.951 . S
C606 C607 1.366 . S
C606 C608 1.388 . S
C607 C606 1.366 . S
C607 C611 1.385 . S
C608 H589 0.951 . S
C608 C606 1.388 . S
C608 C609 1.366 . S
C609 C608 1.366 . S
C609 C610 1.414 . S
C609 C612 1.499 . S
C610 H590 0.950 . S
C610 C609 1.414 . S
C610 C611 1.374 . S
C611 H591 0.950 . S
C611 C607 1.385 . S
C611 C610 1.374 . S
C612 C609 1.499 . S
C612 C613 1.373 . S
C612 C614 1.389 . S
C613 H592 0.950 . S
C613 C612 1.373 . S
C613 C629 1.377 . S
C614 C612 1.389 . S
C614 C615 1.524 . S
C614 C628 1.377 . S
C615 C614 1.524 . S
C615 C616 1.397 . S
C615 C620 1.363 . S
C616 H593 0.950 . S
C616 C615 1.397 . S
C616 C617 1.334 . S
C617 H594 0.950 . S
C617 C616 1.334 . S
C617 C618 1.287 . S
C618 C617 1.287 . S
C618 C619 1.524 . S
C618 H637 0.913 . S
C619 H595 0.950 . S
C619 C618 1.524 . S
C619 C620 1.415 . S
C620 H596 0.950 . S
C620 C615 1.363 . S
C620 C619 1.415 . S
C621 H597 0.951 . S
C621 C622 1.366 . S
C621 C623 1.388 . S
C622 C621 1.366 . S
C622 C626 1.385 . S
C623 H598 0.951 . S
C623 C621 1.388 . S
C623 C624 1.366 . S
C624 C623 1.366 . S
C624 C625 1.414 . S
C624 C627 1.499 . S
C625 H599 0.950 . S
C625 C624 1.414 . S
C625 C626 1.374 . S
C626 H600 0.950 . S
C626 C622 1.385 . S
C626 C625 1.374 . S
C627 C624 1.499 . S
C627 C628 1.373 . S
C627 C629 1.389 . S
C628 H601 0.950 . S
C628 C614 1.377 . S
C628 C627 1.373 . S
C629 C613 1.377 . S
C629 C627 1.389 . S
C629 C630 1.524 . S
C630 C629 1.524 . S
C630 C631 1.397 . S
C630 C635 1.363 . S
C631 H602 0.950 . S
C631 C630 1.397 . S
C631 C632 1.334 . S
C632 H603 0.950 . S
C632 C631 1.334 . S
C632 C633 1.287 . S
C633 C632 1.287 . S
C633 C634 1.524 . S
C633 H636 0.999 . S
C634 H604 0.950 . S
C634 C633 1.524 . S
C634 C635 1.415 . S
C635 H605 0.950 . S
C635 C630 1.363 . S
C635 C634 1.415 . S
H636 C633 0.999 . S
H637 C618 0.913 . S
H638 C656 0.951 . S
H639 C658 0.951 . S
H640 C660 0.950 . S
H641 C661 0.950 . S
H642 C663 0.950 . S
H643 C666 0.950 . S
H644 C667 0.950 . S
H645 C669 0.950 . S
H646 C670 0.950 . S
H647 C671 0.951 . S
H648 C673 0.951 . S
H649 C675 0.950 . S
H650 C676 0.950 . S
H651 C678 0.950 . S
H652 C681 0.950 . S
H653 C682 0.950 . S
H654 C684 0.950 . S
H655 C685 0.950 . S
C656 H638 0.951 . S
C656 C657 1.366 . S
C656 C658 1.388 . S
C657 C656 1.366 . S
C657 C661 1.385 . S
C658 H639 0.951 . S
C658 C656 1.388 . S
C658 C659 1.366 . S
C659 C658 1.366 . S
C659 C660 1.414 . S
C659 C662 1.499 . S
C660 H640 0.950 . S
C660 C659 1.414 . S
C660 C661 1.374 . S
C661 H641 0.950 . S
C661 C657 1.385 . S
C661 C660 1.374 . S
C662 C659 1.499 . S
C662 C663 1.373 . S
C662 C664 1.389 . S
C663 H642 0.950 . S
C663 C662 1.373 . S
C663 C679 1.377 . S
C664 C662 1.389 . S
C664 C665 1.524 . S
C664 C678 1.377 . S
C665 C664 1.524 . S
C665 C666 1.397 . S
C665 C670 1.363 . S
C666 H643 0.950 . S
C666 C665 1.397 . S
C666 C667 1.334 . S
C667 H644 0.950 . S
C667 C666 1.334 . S
C667 C668 1.287 . S
C668 C667 1.287 . S
C668 C669 1.524 . S
C668 H687 0.913 . S
C669 H645 0.950 . S
C669 C668 1.524 . S
C669 C670 1.415 . S
C670 H646 0.950 . S
C670 C665 1.363 . S
C670 C669 1.415 . S
C671 H647 0.951 . S
C671 C672 1.366 . S
C671 C673 1.388 . S
C672 C671 1.366 . S
C672 C676 1.385 . S
C673 H648 0.951 . S
C673 C671 1.388 . S
C673 C674 1.366 . S
C674 C673 1.366 . S
C674 C675 1.414 . S
C674 C677 1.499 . S
C675 H649 0.950 . S
C675 C674 1.414 . S
C675 C676 1.374 . S
C676 H650 0.950 . S
C676 C672 1.385 . S
C676 C675 1.374 . S
C677 C674 1.499 . S
C677 C678 1.373 . S
C677 C679 1.389 . S
C678 H651 0.950 . S
C678 C664 1.377 . S
C678 C677 1.373 . S
C679 C663 1.377 . S
C679 C677 1.389 . S
C679 C680 1.524 . S
C680 C679 1.524 . S
C680 C681 1.397 . S
C680 C685 1.363 . S
C681 H652 0.950 . S
C681 C680 1.397 . S
C681 C682 1.334 . S
C682 H653 0.950 . S
C682 C681 1.334 . S
C682 C683 1.287 . S
C683 C682 1.287 . S
C683 C684 1.524 . S
C683 H686 0.999 . S
C684 H654 0.950 . S
C684 C683 1.524 . S
C684 C685 1.415 . S
C685 H655 0.950 . S
C685 C680 1.363 . S
C685 C684 1.415 . S
H686 C683 0.999 . S
H687 C668 0.913 . S
H688 C706 0.951 . S
H689 C708 0.951 . S
H690 C710 0.950 . S
H691 C711 0.950 . S
H692 C713 0.950 . S
H693 C716 0.950 . S
H694 C717 0.950 . S
H695 C719 0.950 . S
H696 C720 0.950 . S
H697 C721 0.951 . S
H698 C723 0.951 . S
H699 C725 0.950 . S
H700 C726 0.950 . S
H701 C728 0.950 . S
H702 C731 0.950 . S
H703 C732 0.950 . S
H704 C734 0.950 . S
H705 C735 0.950 . S
C706 H688 0.951 . S
C706 C707 1.366 . S
C706 C708 1.388 . S
C707 C706 1.366 . S
C707 C711 1.385 . S
C708 H689 0.951 . S
C708 C706 1.388 . S
C708 C709 1.366 . S
C709 C708 1.366 . S
C709 C710 1.414 . S
C709 C712 1.499 . S
C710 H690 0.950 . S
C710 C709 1.414 . S
C710 C711 1.374 . S
C711 H691 0.950 . S
C711 C707 1.385 . S
C711 C710 1.374 . S
C712 C709 1.499 . S
C712 C713 1.373 . S
C712 C714 1.389 . S
C713 H692 0.950 . S
C713 C712 1.373 . S
C713 C729 1.377 . S
C714 C712 1.389 . S
C714 C715 1.524 . S
C714 C728 1.377 . S
C715 C714 1.524 . S
C715 C716 1.397 . S
C715 C720 1.363 . S
C716 H693 0.950 . S
C716 C715 1.397 . S
C716 C717 1.334 . S
C717 H694 0.950 . S
C717 C716 1.334 . S
C717 C718 1.287 . S
C718 C717 1.287 . S
C718 C719 1.524 . S
C718 H737 0.913 . S
C719 H695 0.950 . S
C719 C718 1.524 . S
C719 C720 1.415 . S
C720 H696 0.950 . S
C720 C715 1.363 . S
C720 C719 1.415 . S
C721 H697 0.951 . S
C721 C722 1.366 . S
C721 C723 1.388 . S
C722 C721 1.366 . S
C722 C726 1.385 . S
C723 H698 0.951 . S
C723 C721 1.388 . S
C723 C724 1.366 . S
C724 C723 1.366 . S
C724 C725 1.414 . S
C724 C727 1.499 . S
C725 H699 0.950 . S
C725 C724 1.414 . S
C725 C726 1.374 . S
C726 H700 0.950 . S
C726 C722 1.385 . S
C726 C725 1.374 . S
C727 C724 1.499 . S
C727 C728 1.373 . S
C727 C729 1.389 . S
C728 H701 0.950 . S
C728 C714 1.377 . S
C728 C727 1.373 . S
C729 C713 1.377 . S
C729 C727 1.389 . S
C729 C730 1.524 . S
C730 C729 1.524 . S
C730 C731 1.397 . S
C730 C735 1.363 . S
C731 H702 0.950 . S
C731 C730 1.397 . S
C731 C732 1.334 . S
C732 H703 0.950 . S
C732 C731 1.334 . S
C732 C733 1.287 . S
C733 C732 1.287 . S
C733 C734 1.524 . S
C733 H736 0.999 . S
C734 H704 0.950 . S
C734 C733 1.524 . S
C734 C735 1.415 . S
C735 H705 0.950 . S
C735 C730 1.363 . S
C735 C734 1.415 . S
H736 C733 0.999 . S
H737 C718 0.913 . S
H738 C756 0.951 . S
H739 C758 0.951 . S
H740 C760 0.950 . S
H741 C761 0.950 . S
H742 C763 0.950 . S
H743 C766 0.950 . S
H744 C767 0.950 . S
H745 C769 0.950 . S
H746 C770 0.950 . S
H747 C771 0.951 . S
H748 C773 0.951 . S
H749 C775 0.950 . S
H750 C776 0.950 . S
H751 C778 0.950 . S
H752 C781 0.950 . S
H753 C782 0.950 . S
H754 C784 0.950 . S
H755 C785 0.950 . S
C756 H738 0.951 . S
C756 C757 1.366 . S
C756 C758 1.388 . S
C757 C756 1.366 . S
C757 C761 1.385 . S
C758 H739 0.951 . S
C758 C756 1.388 . S
C758 C759 1.366 . S
C759 C758 1.366 . S
C759 C760 1.414 . S
C759 C762 1.499 . S
C760 H740 0.950 . S
C760 C759 1.414 . S
C760 C761 1.374 . S
C761 H741 0.950 . S
C761 C757 1.385 . S
C761 C760 1.374 . S
C762 C759 1.499 . S
C762 C763 1.373 . S
C762 C764 1.389 . S
C763 H742 0.950 . S
C763 C762 1.373 . S
C763 C779 1.377 . S
C764 C762 1.389 . S
C764 C765 1.524 . S
C764 C778 1.377 . S
C765 C764 1.524 . S
C765 C766 1.397 . S
C765 C770 1.363 . S
C766 H743 0.950 . S
C766 C765 1.397 . S
C766 C767 1.334 . S
C767 H744 0.950 . S
C767 C766 1.334 . S
C767 C768 1.287 . S
C768 C767 1.287 . S
C768 C769 1.524 . S
C768 H787 0.913 . S
C769 H745 0.950 . S
C769 C768 1.524 . S
C769 C770 1.415 . S
C770 H746 0.950 . S
C770 C765 1.363 . S
C770 C769 1.415 . S
C771 H747 0.951 . S
C771 C772 1.366 . S
C771 C773 1.388 . S
C772 C771 1.366 . S
C772 C776 1.385 . S
C773 H748 0.951 . S
C773 C771 1.388 . S
C773 C774 1.366 . S
C774 C773 1.366 . S
C774 C775 1.414 . S
C774 C777 1.499 . S
C775 H749 0.950 . S
C775 C774 1.414 . S
C775 C776 1.374 . S
C776 H750 0.950 . S
C776 C772 1.385 . S
C776 C775 1.374 . S
C777 C774 1.499 . S
C777 C778 1.373 . S
C777 C779 1.389 . S
C778 H751 0.950 . S
C778 C764 1.377 . S
C778 C777 1.373 . S
C779 C763 1.377 . S
C779 C777 1.389 . S
C779 C780 1.524 . S
C780 C779 1.524 . S
C780 C781 1.397 . S
C780 C785 1.363 . S
C781 H752 0.950 . S
C781 C780 1.397 . S
C781 C782 1.334 . S
C782 H753 0.950 . S
C782 C781 1.334 . S
C782 C783 1.287 . S
C783 C782 1.287 . S
C783 C784 1.524 . S
C783 H786 0.999 . S
C784 H754 0.950 . S
C784 C783 1.524 . S
C784 C785 1.415 . S
C785 H755 0.950 . S
C785 C780 1.363 . S
C785 C784 1.415 . S
H786 C783 0.999 . S
H787 C768 0.913 . S
H788 C806 0.951 . S
H789 C808 0.951 . S
H790 C810 0.950 . S
H791 C811 0.950 . S
H792 C813 0.950 . S
H793 C816 0.950 . S
H794 C817 0.950 . S
H795 C819 0.950 . S
H796 C820 0.950 . S
H797 C821 0.951 . S
H798 C823 0.951 . S
H799 C825 0.950 . S
H800 C826 0.950 . S
H801 C828 0.950 . S
H802 C831 0.950 . S
H803 C832 0.950 . S
H804 C834 0.950 . S
H805 C835 0.950 . S
C806 H788 0.951 . S
C806 C807 1.366 . S
C806 C808 1.388 . S
C807 C806 1.366 . S
C807 C811 1.385 . S
C808 H789 0.951 . S
C808 C806 1.388 . S
C808 C809 1.366 . S
C809 C808 1.366 . S
C809 C810 1.414 . S
C809 C812 1.499 . S
C810 H790 0.950 . S
C810 C809 1.414 . S
C810 C811 1.374 . S
C811 H791 0.950 . S
C811 C807 1.385 . S
C811 C810 1.374 . S
C812 C809 1.499 . S
C812 C813 1.373 . S
C812 C814 1.389 . S
C813 H792 0.950 . S
C813 C812 1.373 . S
C813 C829 1.377 . S
C814 C812 1.389 . S
C814 C815 1.524 . S
C814 C828 1.377 . S
C815 C814 1.524 . S
C815 C816 1.397 . S
C815 C820 1.363 . S
C816 H793 0.950 . S
C816 C815 1.397 . S
C816 C817 1.334 . S
C817 H794 0.950 . S
C817 C816 1.334 . S
C817 C818 1.287 . S
C818 C817 1.287 . S
C818 C819 1.524 . S
C818 H837 0.913 . S
C819 H795 0.950 . S
C819 C818 1.524 . S
C819 C820 1.415 . S
C820 H796 0.950 . S
C820 C815 1.363 . S
C820 C819 1.415 . S
C821 H797 0.951 . S
C821 C822 1.366 . S
C821 C823 1.388 . S
C822 C821 1.366 . S
C822 C826 1.385 . S
C823 H798 0.951 . S
C823 C821 1.388 . S
C823 C824 1.366 . S
C824 C823 1.366 . S
C824 C825 1.414 . S
C824 C827 1.499 . S
C825 H799 0.950 . S
C825 C824 1.414 . S
C825 C826 1.374 . S
C826 H800 0.950 . S
C826 C822 1.385 . S
C826 C825 1.374 . S
C827 C824 1.499 . S
C827 C828 1.373 . S
C827 C829 1.389 . S
C828 H801 0.950 . S
C828 C814 1.377 . S
C828 C827 1.373 . S
C829 C813 1.377 . S
C829 C827 1.389 . S
C829 C830 1.524 . S
C830 C829 1.524 . S
C830 C831 1.397 . S
C830 C835 1.363 . S
C831 H802 0.950 . S
C831 C830 1.397 . S
C831 C832 1.334 . S
C832 H803 0.950 . S
C832 C831 1.334 . S
C832 C833 1.287 . S
C833 C832 1.287 . S
C833 C834 1.524 . S
C833 H836 0.999 . S
C834 H804 0.950 . S
C834 C833 1.524 . S
C834 C835 1.415 . S
C835 H805 0.950 . S
C835 C830 1.363 . S
C835 C834 1.415 . S
H836 C833 0.999 . S
H837 C818 0.913 . S
H838 C856 0.951 . S
H839 C858 0.951 . S
H840 C860 0.950 . S
H841 C861 0.950 . S
H842 C863 0.950 . S
H843 C866 0.950 . S
H844 C867 0.950 . S
H845 C869 0.950 . S
H846 C870 0.950 . S
H847 C871 0.951 . S
H848 C873 0.951 . S
H849 C875 0.950 . S
H850 C876 0.950 . S
H851 C878 0.950 . S
H852 C881 0.950 . S
H853 C882 0.950 . S
H854 C884 0.950 . S
H855 C885 0.950 . S
C856 H838 0.951 . S
C856 C857 1.366 . S
C856 C858 1.388 . S
C857 C856 1.366 . S
C857 C861 1.385 . S
C858 H839 0.951 . S
C858 C856 1.388 . S
C858 C859 1.366 . S
C859 C858 1.366 . S
C859 C860 1.414 . S
C859 C862 1.499 . S
C860 H840 0.950 . S
C860 C859 1.414 . S
C860 C861 1.374 . S
C861 H841 0.950 . S
C861 C857 1.385 . S
C861 C860 1.374 . S
C862 C859 1.499 . S
C862 C863 1.373 . S
C862 C864 1.389 . S
C863 H842 0.950 . S
C863 C862 1.373 . S
C863 C879 1.377 . S
C864 C862 1.389 . S
C864 C865 1.524 . S
C864 C878 1.377 . S
C865 C864 1.524 . S
C865 C866 1.397 . S
C865 C870 1.363 . S
C866 H843 0.950 . S
C866 C865 1.397 . S
C866 C867 1.334 . S
C867 H844 0.950 . S
C867 C866 1.334 . S
C867 C868 1.287 . S
C868 C867 1.287 . S
C868 C869 1.524 . S
C868 H887 0.913 . S
C869 H845 0.950 . S
C869 C868 1.524 . S
C869 C870 1.415 . S
C870 H846 0.950 . S
C870 C865 1.363 . S
C870 C869 1.415 . S
C871 H847 0.951 . S
C871 C872 1.366 . S
C871 C873 1.388 . S
C872 C871 1.366 . S
C872 C876 1.385 . S
C873 H848 0.951 . S
C873 C871 1.388 . S
C873 C874 1.366 . S
C874 C873 1.366 . S
C874 C875 1.414 . S
C874 C877 1.499 . S
C875 H849 0.950 . S
C875 C874 1.414 . S
C875 C876 1.374 . S
C876 H850 0.950 . S
C876 C872 1.385 . S
C876 C875 1.374 . S
C877 C874 1.499 . S
C877 C878 1.373 . S
C877 C879 1.389 . S
C878 H851 0.950 . S
C878 C864 1.377 . S
C878 C877 1.373 . S
C879 C863 1.377 . S
C879 C877 1.389 . S
C879 C880 1.524 . S
C880 C879 1.524 . S
C880 C881 1.397 . S
C880 C885 1.363 . S
C881 H852 0.950 . S
C881 C880 1.397 . S
C881 C882 1.334 . S
C882 H853 0.950 . S
C882 C881 1.334 . S
C882 C883 1.287 . S
C883 C882 1.287 . S
C883 C884 1.524 . S
C883 H886 0.999 . S
C884 H854 0.950 . S
C884 C883 1.524 . S
C884 C885 1.415 . S
C885 H855 0.950 . S
C885 C880 1.363 . S
C885 C884 1.415 . S
H886 C883 0.999 . S
H887 C868 0.913 . S
H888 C906 0.951 . S
H889 C908 0.951 . S
H890 C910 0.950 . S
H891 C911 0.950 . S
H892 C913 0.950 . S
H893 C916 0.950 . S
H894 C917 0.950 . S
H895 C919 0.950 1_556 S
H896 C920 0.950 . S
H897 C921 0.951 . S
H898 C923 0.951 . S
H899 C925 0.950 . S
H900 C926 0.950 . S
H901 C928 0.950 . S
H902 C931 0.950 . S
H903 C932 0.950 . S
H904 C934 0.950 1_554 S
H905 C935 0.950 . S
C906 H888 0.951 . S
C906 C907 1.366 1_655 S
C906 C908 1.388 . S
C907 C906 1.366 1_455 S
C907 C911 1.385 . S
C908 H889 0.951 . S
C908 C906 1.388 . S
C908 C909 1.366 1_655 S
C909 C908 1.366 1_455 S
C909 C910 1.414 . S
C909 C912 1.499 . S
C910 H890 0.950 . S
C910 C909 1.414 . S
C910 C911 1.374 . S
C911 H891 0.950 . S
C911 C907 1.385 . S
C911 C910 1.374 . S
C912 C909 1.499 . S
C912 C913 1.373 . S
C912 C914 1.389 1_455 S
C913 H892 0.950 . S
C913 C912 1.373 . S
C913 C929 1.377 1_544 S
C914 C912 1.389 1_655 S
C914 C915 1.524 . S
C914 C928 1.377 1_544 S
C915 C914 1.524 . S
C915 C916 1.397 . S
C915 C920 1.363 1_554 S
C916 H893 0.950 . S
C916 C915 1.397 . S
C916 C917 1.334 . S
C917 H894 0.950 . S
C917 C916 1.334 . S
C917 C918 1.287 . S
C918 C917 1.287 . S
C918 C919 1.524 . S
C918 H937 0.913 . S
C919 H895 0.950 1_554 S
C919 C918 1.524 . S
C919 C920 1.415 1_554 S
C920 H896 0.950 . S
C920 C915 1.363 1_556 S
C920 C919 1.415 1_556 S
C921 H897 0.951 . S
C921 C922 1.366 . S
C921 C923 1.388 . S
C922 C921 1.366 . S
C922 C926 1.385 1_455 S
C923 H898 0.951 . S
C923 C921 1.388 . S
C923 C924 1.366 . S
C924 C923 1.366 . S
C924 C925 1.414 1_455 S
C924 C927 1.499 . S
C925 H899 0.950 . S
C925 C924 1.414 1_655 S
C925 C926 1.374 . S
C926 H900 0.950 . S
C926 C922 1.385 1_655 S
C926 C925 1.374 . S
C927 C924 1.499 . S
C927 C928 1.373 1_455 S
C927 C929 1.389 . S
C928 H901 0.950 . S
C928 C914 1.377 1_566 S
C928 C927 1.373 1_655 S
C929 C913 1.377 1_566 S
C929 C927 1.389 . S
C929 C930 1.524 . S
C930 C929 1.524 . S
C930 C931 1.397 . S
C930 C935 1.363 1_556 S
C931 H902 0.950 . S
C931 C930 1.397 . S
C931 C932 1.334 . S
C932 H903 0.950 . S
C932 C931 1.334 . S
C932 C933 1.287 . S
C933 C932 1.287 . S
C933 C934 1.524 . S
C933 H936 0.999 . S
C934 H904 0.950 1_556 S
C934 C933 1.524 . S
C934 C935 1.415 1_556 S
C935 H905 0.950 . S
C935 C930 1.363 1_554 S
C935 C934 1.415 1_554 S
H936 C933 0.999 . S
H937 C918 0.913 . S
H938 C956 0.951 . S
H939 C958 0.951 . S
H940 C960 0.950 1_655 S
H941 C961 0.950 1_655 S
H942 C963 0.950 . S
H943 C966 0.950 . S
H944 C967 0.950 . S
H945 C969 0.950 . S
H946 C970 0.957 . S
H947 C971 0.951 1_655 S
H948 C973 0.951 1_655 S
H949 C975 0.950 . S
H950 C976 0.950 . S
H951 C978 0.950 . S
H952 C981 0.950 . S
H953 C982 0.950 . S
H954 C984 0.950 . S
H955 C985 0.950 . S
C956 H938 0.951 . S
C956 C957 1.366 . S
C956 C958 1.388 . S
C957 C956 1.366 . S
C957 C961 1.385 . S
C958 H939 0.951 . S
C958 C956 1.388 . S
C958 C959 1.366 . S
C959 C958 1.366 . S
C959 C960 1.414 . S
C959 C962 1.499 . S
C960 H940 0.950 1_455 S
C960 C959 1.414 . S
C960 C961 1.374 . S
C961 H941 0.950 1_455 S
C961 C957 1.385 . S
C961 C960 1.374 . S
C962 C959 1.499 . S
C962 C963 1.373 1_556 S
C962 C964 1.389 1_455 S
C963 H942 0.950 . S
C963 C962 1.373 1_554 S
C963 C979 1.377 . S
C964 C962 1.389 1_655 S
C964 C965 1.524 . S
C964 C978 1.377 . S
C965 C964 1.524 . S
C965 C966 1.397 . S
C965 C970 1.363 . S
C966 H943 0.950 . S
C966 C965 1.397 . S
C966 C967 1.334 . S
C967 H944 0.950 . S
C967 C966 1.334 . S
C967 C968 1.287 . S
C968 C967 1.287 . S
C968 C969 1.524 . S
C968 H987 0.913 . S
C969 H945 0.950 . S
C969 C968 1.524 . S
C969 C970 1.415 . S
C970 H946 0.957 . S
C970 C965 1.363 . S
C970 C969 1.415 . S
C971 H947 0.951 1_455 S
C971 C972 1.366 . S
C971 C973 1.388 . S
C972 C971 1.366 . S
C972 C976 1.385 . S
C973 H948 0.951 1_455 S
C973 C971 1.388 . S
C973 C974 1.366 . S
C974 C973 1.366 . S
C974 C975 1.414 . S
C974 C977 1.499 . S
C975 H949 0.950 . S
C975 C974 1.414 . S
C975 C976 1.374 . S
C976 H950 0.950 . S
C976 C972 1.385 . S
C976 C975 1.374 . S
C977 C974 1.499 . S
C977 C978 1.373 1_454 S
C977 C979 1.389 . S
C978 H951 0.950 . S
C978 C964 1.377 . S
C978 C977 1.373 1_656 S
C979 C963 1.377 . S
C979 C977 1.389 . S
C979 C980 1.524 . S
C980 C979 1.524 . S
C980 C981 1.397 . S
C980 C985 1.363 . S
C981 H952 0.950 . S
C981 C980 1.397 . S
C981 C982 1.334 . S
C982 H953 0.950 . S
C982 C981 1.334 . S
C982 C983 1.287 . S
C983 C982 1.287 . S
C983 C984 1.524 . S
C983 H986 0.999 . S
C984 H954 0.950 . S
C984 C983 1.524 . S
C984 C985 1.415 . S
C985 H955 0.950 . S
C985 C980 1.363 . S
C985 C984 1.415 . S
H986 C983 0.999 . S
H987 C968 0.913 . S
H988 C1006 0.951 . S
H989 C1008 0.951 . S
H990 C1010 0.950 . S
H991 C1011 0.950 . S
H992 C1013 0.950 . S
H993 C1016 0.950 . S
H994 C1017 0.950 . S
H995 C1019 0.950 . S
H996 C1020 0.950 . S
H997 C1021 0.951 . S
H998 C1023 0.951 . S
H999 C1025 0.950 . S
H1000 C1026 0.950 . S
H1001 C1028 0.950 . S
H1002 C1031 0.950 . S
H1003 C1032 0.950 . S
H1004 C1034 0.950 . S
H1005 C1035 0.950 . S
C1006 H988 0.951 . S
C1006 C1007 1.366 . S
C1006 C1008 1.388 . S
C1007 C1006 1.366 . S
C1007 C1011 1.385 . S
C1008 H989 0.951 . S
C1008 C1006 1.388 . S
C1008 C1009 1.366 . S
C1009 C1008 1.366 . S
C1009 C1010 1.414 . S
C1009 C1012 1.499 . S
C1010 H990 0.950 . S
C1010 C1009 1.414 . S
C1010 C1011 1.374 . S
C1011 H991 0.950 . S
C1011 C1007 1.385 . S
C1011 C1010 1.374 . S
C1012 C1009 1.499 . S
C1012 C1013 1.373 . S
C1012 C1014 1.389 . S
C1013 H992 0.950 . S
C1013 C1012 1.373 . S
C1013 C1029 1.377 . S
C1014 C1012 1.389 . S
C1014 C1015 1.524 . S
C1014 C1028 1.377 . S
C1015 C1014 1.524 . S
C1015 C1016 1.397 . S
C1015 C1020 1.363 . S
C1016 H993 0.950 . S
C1016 C1015 1.397 . S
C1016 C1017 1.334 . S
C1017 H994 0.950 . S
C1017 C1016 1.334 . S
C1017 C1018 1.287 . S
C1018 C1017 1.287 . S
C1018 C1019 1.524 . S
C1018 H1037 0.913 . S
C1019 H995 0.950 . S
C1019 C1018 1.524 . S
C1019 C1020 1.415 . S
C1020 H996 0.950 . S
C1020 C1015 1.363 . S
C1020 C1019 1.415 . S
C1021 H997 0.951 . S
C1021 C1022 1.366 . S
C1021 C1023 1.388 . S
C1022 C1021 1.366 . S
C1022 C1026 1.385 . S
C1023 H998 0.951 . S
C1023 C1021 1.388 . S
C1023 C1024 1.366 . S
C1024 C1023 1.366 . S
C1024 C1025 1.414 . S
C1024 C1027 1.499 . S
C1025 H999 0.950 . S
C1025 C1024 1.414 . S
C1025 C1026 1.374 . S
C1026 H1000 0.950 . S
C1026 C1022 1.385 . S
C1026 C1025 1.374 . S
C1027 C1024 1.499 . S
C1027 C1028 1.373 . S
C1027 C1029 1.389 . S
C1028 H1001 0.950 . S
C1028 C1014 1.377 . S
C1028 C1027 1.373 . S
C1029 C1013 1.377 . S
C1029 C1027 1.389 . S
C1029 C1030 1.524 . S
C1030 C1029 1.524 . S
C1030 C1031 1.397 . S
C1030 C1035 1.363 . S
C1031 H1002 0.950 . S
C1031 C1030 1.397 . S
C1031 C1032 1.334 . S
C1032 H1003 0.950 . S
C1032 C1031 1.334 . S
C1032 C1033 1.287 . S
C1033 C1032 1.287 . S
C1033 C1034 1.524 . S
C1033 H1036 0.999 . S
C1034 H1004 0.950 . S
C1034 C1033 1.524 . S
C1034 C1035 1.415 . S
C1035 H1005 0.950 . S
C1035 C1030 1.363 . S
C1035 C1034 1.415 . S
H1036 C1033 0.999 . S
H1037 C1018 0.913 . S
H1038 C1056 0.951 . S
H1039 C1058 0.951 . S
H1040 C1060 0.950 . S
H1041 C1061 0.950 . S
H1042 C1063 0.950 . S
H1043 C1066 0.950 . S
H1044 C1067 0.950 . S
H1045 C1069 0.950 . S
H1046 C1070 0.950 . S
H1047 C1071 0.951 . S
H1048 C1073 0.951 . S
H1049 C1075 0.950 . S
H1050 C1076 0.950 . S
H1051 C1078 0.950 . S
H1052 C1081 0.950 . S
H1053 C1082 0.950 . S
H1054 C1084 0.950 . S
H1055 C1085 0.950 . S
C1056 H1038 0.951 . S
C1056 C1057 1.366 . S
C1056 C1058 1.388 . S
C1057 C1056 1.366 . S
C1057 C1061 1.385 . S
C1058 H1039 0.951 . S
C1058 C1056 1.388 . S
C1058 C1059 1.366 . S
C1059 C1058 1.366 . S
C1059 C1060 1.414 . S
C1059 C1062 1.499 . S
C1060 H1040 0.950 . S
C1060 C1059 1.414 . S
C1060 C1061 1.374 . S
C1061 H1041 0.950 . S
C1061 C1057 1.385 . S
C1061 C1060 1.374 . S
C1062 C1059 1.499 . S
C1062 C1063 1.373 1_565 S
C1062 C1064 1.389 . S
C1063 H1042 0.950 . S
C1063 C1062 1.373 1_545 S
C1063 C1079 1.377 . S
C1064 C1062 1.389 . S
C1064 C1065 1.524 . S
C1064 C1078 1.377 . S
C1065 C1064 1.524 . S
C1065 C1066 1.397 . S
C1065 C1070 1.363 . S
C1066 H1043 0.950 . S
C1066 C1065 1.397 . S
C1066 C1067 1.334 . S
C1067 H1044 0.950 . S
C1067 C1066 1.334 . S
C1067 C1068 1.287 . S
C1068 C1067 1.287 . S
C1068 C1069 1.524 . S
C1068 H1087 0.913 . S
C1069 H1045 0.950 . S
C1069 C1068 1.524 . S
C1069 C1070 1.415 . S
C1070 H1046 0.950 . S
C1070 C1065 1.363 . S
C1070 C1069 1.415 . S
C1071 H1047 0.951 . S
C1071 C1072 1.366 . S
C1071 C1073 1.388 . S
C1072 C1071 1.366 . S
C1072 C1076 1.385 . S
C1073 H1048 0.951 . S
C1073 C1071 1.388 . S
C1073 C1074 1.366 . S
C1074 C1073 1.366 . S
C1074 C1075 1.414 . S
C1074 C1077 1.499 . S
C1075 H1049 0.950 . S
C1075 C1074 1.414 . S
C1075 C1076 1.374 . S
C1076 H1050 0.950 . S
C1076 C1072 1.385 . S
C1076 C1075 1.374 . S
C1077 C1074 1.499 . S
C1077 C1078 1.373 1_545 S
C1077 C1079 1.389 . S
C1078 H1051 0.950 . S
C1078 C1064 1.377 . S
C1078 C1077 1.373 1_565 S
C1079 C1063 1.377 . S
C1079 C1077 1.389 . S
C1079 C1080 1.524 . S
C1080 C1079 1.524 . S
C1080 C1081 1.397 . S
C1080 C1085 1.363 . S
C1081 H1052 0.950 . S
C1081 C1080 1.397 . S
C1081 C1082 1.334 . S
C1082 H1053 0.950 . S
C1082 C1081 1.334 . S
C1082 C1083 1.287 . S
C1083 C1082 1.287 . S
C1083 C1084 1.524 . S
C1083 H1086 0.999 . S
C1084 H1054 0.950 . S
C1084 C1083 1.524 . S
C1084 C1085 1.415 . S
C1085 H1055 0.950 . S
C1085 C1080 1.363 . S
C1085 C1084 1.415 . S
H1086 C1083 0.999 . S
H1087 C1068 0.913 . S
C307 C39 1.405 . S
C322 C3 1.405 . S
C357 C75 1.405 . S
C372 C111 1.405 . S
C407 C147 1.405 . S
C422 C183 1.405 . S
C457 C219 1.405 . S
C472 C255 1.405 . S
C507 C266 1.271 . S
C522 C14 1.272 . S
C557 C230 1.271 . S
C572 C50 1.272 . S
C607 C86 1.272 . S
C622 C194 1.272 . S
C657 C158 1.271 . S
C672 C122 1.272 . S
C707 C182 1.442 . S
C722 C74 1.443 . S
C757 C146 1.443 . S
C772 C110 1.442 . S
C807 C254 1.443 . S
C822 C2 1.443 . S
C857 C38 1.443 . S
C872 C218 1.443 . S
C907 C4 1.264 . S
C922 C76 1.264 . S
C957 C112 1.264 . S
C972 C40 1.264 . S
C1007 C220 1.264 . S
C1022 C148 1.264 . S
C1057 C184 1.264 . S
C1072 C256 1.264 . S
