# Generated by pormake.
# Topology uoc, (4)-cn, num edge types: 1
# Building blocks:
#     Node 0, Type 0, BuildingBlock: ESEHIV_clean_sbu_0, # of connection points: 4
#     Node 1, Type 0, BuildingBlock: ESEHIV_clean_sbu_0, # of connection points: 4
#     Node 2, Type 0, BuildingBlock: ESEHIV_clean_sbu_0, # of connection points: 4
#     Node 3, Type 0, BuildingBlock: ESEHIV_clean_sbu_0, # of connection points: 4
#     Node 4, Type 0, BuildingBlock: ESEHIV_clean_sbu_0, # of connection points: 4
#     Node 5, Type 0, BuildingBlock: ESEHIV_clean_sbu_0, # of connection points: 4
#     Node 6, Type 0, BuildingBlock: ESEHIV_clean_sbu_0, # of connection points: 4
#     Node 7, Type 0, BuildingBlock: ESEHIV_clean_sbu_0, # of connection points: 4
#     Edge 8, Type (0, 0), BuildingBlock: OJICUG_clean_linker_0, # of connection points: 2
#     Edge 9, Type (0, 0), BuildingBlock: OJICUG_clean_linker_0, # of connection points: 2
#     Edge 10, Type (0, 0), BuildingBlock: OJICUG_clean_linker_0, # of connection points: 2
#     Edge 11, Type (0, 0), BuildingBlock: OJICUG_clean_linker_0, # of connection points: 2
#     Edge 12, Type (0, 0), BuildingBlock: OJICUG_clean_linker_0, # of connection points: 2
#     Edge 13, Type (0, 0), BuildingBlock: OJICUG_clean_linker_0, # of connection points: 2
#     Edge 14, Type (0, 0), BuildingBlock: OJICUG_clean_linker_0, # of connection points: 2
#     Edge 15, Type (0, 0), BuildingBlock: OJICUG_clean_linker_0, # of connection points: 2
#     Edge 16, Type (0, 0), BuildingBlock: OJICUG_clean_linker_0, # of connection points: 2
#     Edge 17, Type (0, 0), BuildingBlock: OJICUG_clean_linker_0, # of connection points: 2
#     Edge 18, Type (0, 0), BuildingBlock: OJICUG_clean_linker_0, # of connection points: 2
#     Edge 19, Type (0, 0), BuildingBlock: OJICUG_clean_linker_0, # of connection points: 2
#     Edge 20, Type (0, 0), BuildingBlock: OJICUG_clean_linker_0, # of connection points: 2
#     Edge 21, Type (0, 0), BuildingBlock: OJICUG_clean_linker_0, # of connection points: 2
#     Edge 22, Type (0, 0), BuildingBlock: OJICUG_clean_linker_0, # of connection points: 2
#     Edge 23, Type (0, 0), BuildingBlock: OJICUG_clean_linker_0, # of connection points: 2
# Relax obj value: 0.063
# Max RMSD: 0.277
# Mean RMSD: 0.277
data_MOF--net-uoc--node1-ESEHIV_clean_sbu_0--edge1-OJICUG_clean_linker_0
_symmetry_space_group_name_H-M    P1
_symmetry_Int_Tables_number       1
_symmetry_cell_setting            triclinic
loop_
_symmetry_equiv_pos_as_xyz
'x, y, z'
_cell_length_a     25.80193
_cell_length_b     25.862018
_cell_length_c     34.509979
_cell_angle_alpha  90.144999
_cell_angle_beta   89.926479
_cell_angle_gamma 90.933024
loop_
_atom_site_label
_atom_site_type_symbol
_atom_site_fract_x
_atom_site_fract_y
_atom_site_fract_z
_atom_type_partial_charge
Cu0 Cu 0.07127 0.25735 0.19375 0.0
N1 N 0.02755 0.20078 0.20301 0.0
N2 N 1.00092 0.11915 0.21149 0.0
C3 C 0.03617 0.15079 0.19445 0.0
C4 C 0.96891 0.15025 0.23137 0.0
C5 C 0.98532 0.20067 0.22592 0.0
O6 O 0.11127 0.24524 0.1471 0.0
C7 C 0.15121 0.29781 0.24346 0.0
O8 O 0.16923 0.32153 0.2125 0.0
H9 H 0.06955 0.13761 0.17842 0.0
H10 H 0.96942 0.2347 0.23945 0.0
N11 N 0.0316 0.31585 0.18561 0.0
N12 N 0.00785 0.39854 0.18317 0.0
C13 C 0.04401 0.36497 0.19526 0.0
C14 C 0.98607 0.31815 0.16688 0.0
C15 C 0.97125 0.36906 0.16536 0.0
C16 C 0.14935 0.21484 0.14462 0.0
O17 O 0.16573 0.19139 0.17592 0.0
H18 H 0.07897 0.37575 0.21071 0.0
H19 H 0.96567 0.28518 0.15454 0.0
O20 O 0.112 0.26775 0.24037 0.0
H21 H 0.93729 0.13724 0.24975 0.0
H22 H 0.93694 0.38324 0.15117 0.0
Cu23 Cu 0.75642 0.56752 0.45501 0.0
N24 N 0.6989 0.5251 0.4451 0.0
N25 N 0.61647 0.50016 0.43692 0.0
C26 C 0.64915 0.5337 0.45482 0.0
C27 C 0.64664 0.46927 0.41529 0.0
C28 C 0.69754 0.48461 0.42056 0.0
O29 O 0.74387 0.60819 0.50124 0.0
C30 C 0.79913 0.6469 0.40619 0.0
O31 O 0.82284 0.66397 0.43749 0.0
H32 H 0.63684 0.56599 0.47239 0.0
H33 H 0.73103 0.4693 0.40584 0.0
N34 N 0.81393 0.52707 0.46516 0.0
N35 N 0.89622 0.50319 0.47127 0.0
C36 C 0.86307 0.53449 0.45276 0.0
C37 C 0.81616 0.48966 0.49209 0.0
C38 C 0.86696 0.47501 0.49607 0.0
C39 C 0.71366 0.64639 0.5036 0.0
O40 O 0.69018 0.66268 0.47226 0.0
H41 H 0.87481 0.56448 0.4326 0.0
H42 H 0.78346 0.47605 0.50909 0.0
O43 O 0.76879 0.60787 0.40858 0.0
H44 H 0.63264 0.4392 0.39589 0.0
H45 H 0.88163 0.44724 0.51659 0.0
Cu46 Cu 0.44553 0.25487 0.69227 0.0
N47 N 0.48952 0.31126 0.70144 0.0
N48 N 0.51626 0.39287 0.71002 0.0
C49 C 0.48083 0.36124 0.69314 0.0
C50 C 0.54845 0.36176 0.72955 0.0
C51 C 0.53197 0.31135 0.72404 0.0
O52 O 0.40583 0.26698 0.6456 0.0
C53 C 0.36424 0.21656 0.74167 0.0
O54 O 0.34609 0.19296 0.71065 0.0
H55 H 0.44727 0.37442 0.67744 0.0
H56 H 0.54798 0.27731 0.73734 0.0
N57 N 0.48486 0.19604 0.68436 0.0
N58 N 0.50856 0.11328 0.6826 0.0
C59 C 0.47247 0.14717 0.69453 0.0
C60 C 0.53027 0.19326 0.66543 0.0
C61 C 0.54506 0.14233 0.66432 0.0
C62 C 0.36711 0.29661 0.64369 0.0
O63 O 0.35026 0.31897 0.67542 0.0
H64 H 0.43758 0.13681 0.71027 0.0
H65 H 0.55065 0.22593 0.6527 0.0
O66 O 0.40431 0.24549 0.73879 0.0
H67 H 0.58026 0.37477 0.74775 0.0
H68 H 0.57929 0.12781 0.65011 0.0
Cu69 Cu 0.75749 0.9416 0.95613 0.0
N70 N 0.81367 0.98568 0.94664 0.0
N71 N 0.89511 0.01323 0.93799 0.0
C72 C 0.86386 0.97769 0.95502 0.0
C73 C 0.86355 0.04479 0.91829 0.0
C74 C 0.81323 0.02781 0.92385 0.0
O75 O 0.76998 0.90227 1.00284 0.0
C76 C 0.71845 0.86049 0.90685 0.0
O77 O 0.69479 0.84261 0.93791 0.0
H78 H 0.87748 0.94457 0.97093 0.0
H79 H 0.7789 0.04328 0.91051 0.0
N80 N 0.69877 0.98099 0.96432 0.0
N81 N 0.61608 1.00533 0.96627 0.0
C82 C 0.64967 0.9691 0.95412 0.0
C83 C 0.69643 0.02619 0.98348 0.0
C84 C 0.64553 0.04137 0.9847 0.0
C85 C 0.80055 0.86437 1.00518 0.0
O86 O 0.82394 0.84788 0.97376 0.0
H87 H 0.63894 0.93451 0.93821 0.0
H88 H 0.7294 0.04616 0.99626 0.0
O89 O 0.74767 0.90033 0.90968 0.0
H90 H 0.87621 0.0765 0.89998 0.0
H91 H 0.63131 0.07555 0.99909 0.0
Cu92 Cu 0.57052 0.75353 0.70604 0.0
N93 N 0.52991 0.69491 0.71588 0.0
N94 N 0.50636 0.61189 0.72079 0.0
C95 C 0.53623 0.6468 0.70177 0.0
C96 C 0.48023 0.63891 0.74772 0.0
C97 C 0.49468 0.69022 0.74448 0.0
O98 O 0.60933 0.74358 0.65852 0.0
C99 C 0.65209 0.79455 0.75441 0.0
O100 O 0.66936 0.81843 0.7233 0.0
H101 H 0.56479 0.63697 0.68008 0.0
H102 H 0.48276 0.72151 0.76316 0.0
N103 N 0.52813 0.81044 0.69957 0.0
N104 N 0.50293 0.89243 0.69417 0.0
C105 C 0.54266 0.86057 0.70179 0.0
C106 C 0.47756 0.81029 0.6903 0.0
C107 C 0.46185 0.86077 0.68699 0.0
C108 C 0.64784 0.71381 0.65555 0.0
O109 O 0.66497 0.69036 0.68663 0.0
H110 H 0.58165 0.87324 0.70884 0.0
H111 H 0.45401 0.77584 0.68567 0.0
O112 O 0.61265 0.76469 0.75184 0.0
H113 H 0.45432 0.62234 0.76922 0.0
H114 H 0.42347 0.873 0.67887 0.0
Cu115 Cu 0.25623 0.07036 0.94258 0.0
N116 N 0.19764 0.0298 0.93245 0.0
N117 N 0.11466 1.00564 0.92738 0.0
C118 C 0.14936 0.03573 0.94648 0.0
C119 C 0.14198 0.97978 0.90048 0.0
C120 C 0.19327 0.99461 0.90381 0.0
O121 O 0.24598 0.10938 0.98995 0.0
C122 C 0.298 0.15126 0.89416 0.0
O123 O 0.32199 0.1685 0.92528 0.0
H124 H 0.13928 0.0641 0.96823 0.0
H125 H 0.22479 0.98289 0.88523 0.0
N126 N 0.31293 0.0278 0.94945 0.0
N127 N 0.3948 1.0019 0.95496 0.0
C128 C 0.36329 0.04173 0.94701 0.0
C129 C 0.31228 0.97752 0.95922 0.0
C130 C 0.36271 0.96138 0.9626 0.0
C131 C 0.21605 0.14775 0.99278 0.0
O132 O 0.19248 0.16456 0.96163 0.0
H133 H 0.37637 0.08036 0.93954 0.0
H134 H 0.27754 0.95447 0.96411 0.0
O135 O 0.26785 0.11209 0.89674 0.0
H136 H 0.12561 0.95373 0.87896 0.0
H137 H 0.37462 0.92311 0.97106 0.0
Cu138 Cu 0.94614 0.75838 0.20631 0.0
N139 N 0.98669 0.81706 0.2163 0.0
N140 N 0.01038 0.90006 0.22142 0.0
C141 C 0.98034 0.8652 0.20243 0.0
C142 C 0.03667 0.87298 0.24807 0.0
C143 C 0.02214 0.82169 0.24471 0.0
O144 O 0.90675 0.76847 0.1592 0.0
C145 C 0.86517 0.71641 0.25459 0.0
O146 O 0.84772 0.69326 0.22317 0.0
H147 H 0.95168 0.87506 0.18091 0.0
H148 H 0.0342 0.79035 0.26315 0.0
N149 N 0.98852 0.70158 0.19904 0.0
N150 N 0.01366 0.61959 0.19325 0.0
C151 C 0.9741 0.65146 0.20145 0.0
C152 C 0.03888 0.70172 0.18905 0.0
C153 C 0.05456 0.65122 0.1855 0.0
C154 C 0.86827 0.7983 0.15662 0.0
O155 O 0.85155 0.8219 0.18788 0.0
H156 H 0.9353 0.63878 0.20912 0.0
H157 H 0.0623 0.73616 0.18414 0.0
O158 O 0.90447 0.74647 0.25228 0.0
H159 H 0.0628 0.88949 0.26947 0.0
H160 H 0.09278 0.63894 0.17688 0.0
Cu161 Cu 0.25504 0.44567 0.44643 0.0
N162 N 0.31345 0.48703 0.43701 0.0
N163 N 0.39651 0.51116 0.43136 0.0
C164 C 0.3622 0.47976 0.44967 0.0
C165 C 0.36842 0.53931 0.40643 0.0
C166 C 0.31712 0.52451 0.41014 0.0
O167 O 0.26695 0.4039 0.49202 0.0
C168 C 0.21264 0.3668 0.39644 0.0
O169 O 0.18935 0.34844 0.42749 0.0
H170 H 0.37283 0.44966 0.46974 0.0
H171 H 0.28508 0.53788 0.39286 0.0
N172 N 0.19841 0.48716 0.45721 0.0
N173 N 0.11672 0.51178 0.46588 0.0
C174 C 0.14836 0.47852 0.44763 0.0
C175 C 0.19832 0.52734 0.48205 0.0
C176 C 0.1479 0.54247 0.48761 0.0
C177 C 0.29773 0.36611 0.49359 0.0
O178 O 0.32154 0.35116 0.46191 0.0
H179 H 0.13507 0.4465 0.42978 0.0
H180 H 0.23234 0.54269 0.49663 0.0
O181 O 0.24221 0.40636 0.39943 0.0
H182 H 0.38422 0.56698 0.38591 0.0
H183 H 0.13489 0.5724 0.50717 0.0
C184 C 0.20899 0.16399 0.10201 0.0
C185 C 0.17081 0.20178 0.10595 0.0
H186 H 0.25353 0.11756 1.06328 0.0
C187 C 0.15078 0.22462 1.07227 0.0
H188 H 0.22541 0.14574 0.12729 0.0
C189 C 0.16686 0.20843 1.03553 0.0
C190 C 0.20337 0.16905 1.03156 0.0
H191 H 0.12151 0.25406 1.0742 0.0
H192 H 0.14951 0.22582 1.01025 0.0
C193 C 0.2251 0.14782 1.06524 0.0
C194 C 0.78884 0.64806 0.33386 0.0
C195 C 0.81173 0.66894 0.36758 0.0
H196 H 0.78738 0.64682 0.27181 0.0
C197 C 0.84911 0.7087 0.36373 0.0
H198 H 0.75969 0.61755 0.33573 0.0
C199 C 0.86491 0.72553 0.32701 0.0
C200 C 0.84373 0.70298 0.29327 0.0
H201 H 0.86734 0.72583 0.38904 0.0
H202 H 0.89492 0.7552 0.32514 0.0
C203 C 0.80466 0.66488 0.29714 0.0
C204 C 0.36616 0.28916 0.57113 0.0
C205 C 0.34519 0.31001 0.60534 0.0
H206 H 0.36747 0.29016 0.50907 0.0
C207 C 0.30542 0.34624 0.60232 0.0
H208 H 0.39668 0.26095 0.57235 0.0
C209 C 0.28862 0.36292 0.56597 0.0
C210 C 0.31124 0.3438 0.53178 0.0
H211 H 0.28822 0.36291 0.62802 0.0
H212 H 0.25893 0.392 0.56477 0.0
C213 C 0.34939 0.30588 0.53477 0.0
C214 C 0.66914 0.79908 0.86355 0.0
C215 C 0.70627 0.83897 0.86795 0.0
H216 H 0.62326 0.75345 0.82435 0.0
C217 C 0.72888 0.86085 0.83451 0.0
H218 H 0.6511 0.78121 0.88863 0.0
C219 C 0.71289 0.84497 0.79756 0.0
C220 C 0.67391 0.80685 0.79319 0.0
H221 H 0.75784 0.89149 0.8368 0.0
H222 H 0.72987 0.86383 0.77249 0.0
C223 C 0.65315 0.7832 0.82661 0.0
C224 C 0.2246 0.36638 0.32424 0.0
C225 C 0.20101 0.34506 0.35751 0.0
H226 H 0.22782 0.36797 0.26224 0.0
C227 C 0.16414 0.30496 0.35289 0.0
H228 H 0.25342 0.39713 0.32671 0.0
C229 C 0.14953 0.28818 0.31584 0.0
C230 C 0.17146 0.3111 0.28254 0.0
H231 H 0.1454 0.2875 0.37784 0.0
H232 H 0.11987 0.25824 0.31335 0.0
C233 C 0.21001 0.34959 0.2872 0.0
C234 C 0.64712 0.72242 0.58305 0.0
C235 C 0.66884 0.70104 0.61669 0.0
H236 H 0.64434 0.72225 0.52101 0.0
C237 C 0.70838 0.66471 0.61263 0.0
H238 H 0.61672 0.75069 0.58509 0.0
C239 C 0.72423 0.64846 0.57585 0.0
C240 C 0.7009 0.66811 0.54223 0.0
H241 H 0.72614 0.64763 0.63786 0.0
H242 H 0.75381 0.61933 0.57387 0.0
C243 C 0.66296 0.70613 0.54625 0.0
C244 C 0.36485 0.22717 0.814 0.0
C245 C 0.3427 0.20466 0.78059 0.0
H246 H 0.36797 0.22832 0.87603 0.0
C247 C 0.30248 0.1679 0.78502 0.0
H248 H 0.39576 0.25584 0.81169 0.0
C249 C 0.28653 0.15216 0.82197 0.0
C250 C 0.31044 0.17282 0.85537 0.0
H251 H 0.28439 0.14995 0.75996 0.0
H252 H 0.25651 0.12255 0.82426 0.0
C253 C 0.3489 0.21143 0.85097 0.0
C254 C 0.8679 0.78901 0.08416 0.0
C255 C 0.84679 0.81086 0.11796 0.0
H256 H 0.86975 0.78846 1.02211 0.0
C257 C 0.80739 0.84737 0.11423 0.0
H258 H 0.89817 0.76059 0.08595 0.0
C259 C 0.79107 0.86331 0.07757 0.0
C260 C 0.81379 0.84314 1.04377 0.0
H261 H 0.7901 0.86481 0.1396 0.0
H262 H 0.76161 0.89257 0.07581 0.0
C263 C 0.85159 0.80498 1.04749 0.0
C264 C 0.00954 0.03391 0.18002 0.0
C265 C 1.00264 0.06377 0.21362 0.0
H266 H 0.01617 0.95729 0.15625 0.0
C267 C 0.99844 0.03901 0.24965 0.0
H268 H 0.01285 0.05243 0.152 0.0
C269 C 1.00177 0.98531 0.25216 0.0
C270 C 0.00803 0.95533 0.21859 0.0
H271 H 0.99355 0.0614 0.27592 0.0
H272 H 0.9987 0.967 0.28027 0.0
C273 C 0.01134 0.9799 0.18242 0.0
C274 C 0.03218 0.5063 0.43248 0.0
C275 C 0.06105 0.50973 0.46689 0.0
H276 H 0.95608 0.50284 0.40701 0.0
C277 C 0.03492 0.51081 0.50257 0.0
H278 H 0.05172 0.50551 0.40471 0.0
C279 C 0.98086 0.50789 0.50392 0.0
C280 C 0.95186 0.50523 0.46957 0.0
H281 H 0.05649 0.51306 0.52944 0.0
H282 H 0.96153 0.50855 0.53178 0.0
C283 C 0.97786 0.50494 0.43379 0.0
C284 C 0.50712 0.47804 0.67893 0.0
C285 C 0.51454 0.44824 0.71237 0.0
H286 H 0.49994 0.55461 0.65549 0.0
C287 C 0.51913 0.47303 0.74844 0.0
H288 H 0.5035 0.45949 0.65088 0.0
C289 C 0.51566 0.52672 0.75117 0.0
C290 C 0.50886 0.55664 0.71776 0.0
H291 H 0.5244 0.45068 0.77459 0.0
H292 H 0.51903 0.54506 0.77931 0.0
C293 C 0.50518 0.53204 0.68154 0.0
C294 C 0.53298 0.95787 0.95586 0.0
C295 C 0.56037 1.00462 0.96211 0.0
H296 H 0.45929 0.92037 0.94816 0.0
C297 C 0.53226 0.0506 0.96499 0.0
H298 H 0.55306 0.92158 0.95382 0.0
C299 C 0.47821 0.04977 0.96233 0.0
C300 C 0.45076 1.00295 0.95658 0.0
H301 H 0.55192 0.08742 0.96927 0.0
H302 H 0.45806 0.08587 0.96551 0.0
C303 C 0.47892 0.95706 0.9531 0.0
C304 C 0.05777 0.53519 0.19499 0.0
C305 C 0.01206 0.56373 0.19171 0.0
H306 H 0.09254 0.46084 0.19446 0.0
C307 C 0.96481 0.53672 0.18638 0.0
H308 H 0.09478 0.55446 0.19959 0.0
C309 C 0.9634 0.48275 0.18402 0.0
C310 C 0.00918 0.45424 0.18681 0.0
H311 H 0.92882 0.55716 0.18333 0.0
H312 H 0.92627 0.46345 0.18009 0.0
C313 C 0.05637 0.48121 0.19253 0.0
C314 C 0.47785 0.50889 0.46887 0.0
C315 C 0.45203 0.50868 0.43308 0.0
H316 H 0.55152 0.50755 0.49801 0.0
C317 C 0.48102 0.50526 0.39876 0.0
H318 H 0.45606 0.5115 0.49562 0.0
C319 C 0.53491 0.50155 0.40015 0.0
C320 C 0.56091 0.50256 0.43585 0.0
H321 H 0.46178 0.5046 0.37089 0.0
H322 H 0.5565 0.49879 0.37332 0.0
C323 C 0.53206 0.50673 0.47022 0.0
C324 C 0.46021 0.03081 0.69316 0.0
C325 C 0.5073 0.05767 0.68679 0.0
H326 H 0.42192 0.95771 0.70106 0.0
C327 C 0.55306 0.02912 0.68383 0.0
H328 H 0.42406 0.0512 0.69527 0.0
C329 C 0.5517 0.9752 0.68655 0.0
C330 C 0.50454 0.94828 0.69244 0.0
H331 H 0.59015 0.04833 0.67944 0.0
H332 H 0.58766 0.95473 0.6833 0.0
C333 C 0.45887 0.97688 0.696 0.0
C334 C 0.98057 1.00527 0.96917 0.0
C335 C 0.95061 0.01215 0.93569 0.0
H336 H 0.05741 0.99903 0.99266 0.0
C337 C 0.97538 0.01679 0.89962 0.0
H338 H 0.96203 1.00162 0.99722 0.0
C339 C 0.02921 0.01388 0.89693 0.0
C340 C 0.05928 0.0076 0.93038 0.0
H341 H 0.95289 0.02165 0.87345 0.0
H342 H 0.04755 0.01728 0.86879 0.0
C343 C 0.0347 1.00388 0.9666 0.0
loop_
_geom_bond_atom_site_label_1
_geom_bond_atom_site_label_2
_geom_bond_distance
_geom_bond_site_symmetry_2
_ccdc_geom_bond_type
Cu0 N1 1.999 . S
Cu0 O6 1.974 . S
Cu0 N11 1.985 . S
Cu0 O20 1.959 . S
N1 Cu0 1.999 . S
N1 C3 1.263 . S
N1 C5 1.389 . S
N2 C3 1.358 . S
N2 C4 1.400 . S
C3 N1 1.263 . S
C3 N2 1.358 . S
C3 H9 0.930 . S
C4 N2 1.400 . S
C4 C5 1.351 . S
C4 H21 0.930 . S
C5 N1 1.389 . S
C5 C4 1.351 . S
C5 H10 0.930 . S
O6 Cu0 1.974 . S
O6 C16 1.282 . S
C7 O8 1.261 . S
C7 O20 1.251 . S
O8 C7 1.261 . S
H9 C3 0.930 . S
H10 C5 0.930 . S
N11 Cu0 1.985 . S
N11 C13 1.335 . S
N11 C14 1.390 . S
N12 C13 1.345 . S
N12 C15 1.336 . S
C13 N11 1.335 . S
C13 N12 1.345 . S
C13 H18 0.930 . S
C14 N11 1.390 . S
C14 C15 1.346 . S
C14 H19 0.930 . S
C15 N12 1.336 . S
C15 C14 1.346 . S
C15 H22 0.929 . S
C16 O6 1.282 . S
C16 O17 1.216 . S
O17 C16 1.216 . S
H18 C13 0.930 . S
H19 C14 0.930 . S
O20 Cu0 1.959 . S
O20 C7 1.251 . S
H21 C4 0.930 . S
H22 C15 0.929 . S
Cu23 N24 1.999 . S
Cu23 O29 1.974 . S
Cu23 N34 1.985 . S
Cu23 O43 1.959 . S
N24 Cu23 1.999 . S
N24 C26 1.263 . S
N24 C28 1.389 . S
N25 C26 1.358 . S
N25 C27 1.400 . S
C26 N24 1.263 . S
C26 N25 1.358 . S
C26 H32 0.930 . S
C27 N25 1.400 . S
C27 C28 1.351 . S
C27 H44 0.930 . S
C28 N24 1.389 . S
C28 C27 1.351 . S
C28 H33 0.930 . S
O29 Cu23 1.974 . S
O29 C39 1.282 . S
C30 O31 1.261 . S
C30 O43 1.251 . S
O31 C30 1.261 . S
H32 C26 0.930 . S
H33 C28 0.930 . S
N34 Cu23 1.985 . S
N34 C36 1.335 . S
N34 C37 1.390 . S
N35 C36 1.345 . S
N35 C38 1.336 . S
C36 N34 1.335 . S
C36 N35 1.345 . S
C36 H41 0.930 . S
C37 N34 1.390 . S
C37 C38 1.346 . S
C37 H42 0.930 . S
C38 N35 1.336 . S
C38 C37 1.346 . S
C38 H45 0.929 . S
C39 O29 1.282 . S
C39 O40 1.216 . S
O40 C39 1.216 . S
H41 C36 0.930 . S
H42 C37 0.930 . S
O43 Cu23 1.959 . S
O43 C30 1.251 . S
H44 C27 0.930 . S
H45 C38 0.929 . S
Cu46 N47 1.999 . S
Cu46 O52 1.974 . S
Cu46 N57 1.985 . S
Cu46 O66 1.959 . S
N47 Cu46 1.999 . S
N47 C49 1.263 . S
N47 C51 1.389 . S
N48 C49 1.358 . S
N48 C50 1.400 . S
C49 N47 1.263 . S
C49 N48 1.358 . S
C49 H55 0.930 . S
C50 N48 1.400 . S
C50 C51 1.351 . S
C50 H67 0.930 . S
C51 N47 1.389 . S
C51 C50 1.351 . S
C51 H56 0.930 . S
O52 Cu46 1.974 . S
O52 C62 1.282 . S
C53 O54 1.261 . S
C53 O66 1.251 . S
O54 C53 1.261 . S
H55 C49 0.930 . S
H56 C51 0.930 . S
N57 Cu46 1.985 . S
N57 C59 1.335 . S
N57 C60 1.390 . S
N58 C59 1.345 . S
N58 C61 1.336 . S
C59 N57 1.335 . S
C59 N58 1.345 . S
C59 H64 0.930 . S
C60 N57 1.390 . S
C60 C61 1.346 . S
C60 H65 0.930 . S
C61 N58 1.336 . S
C61 C60 1.346 . S
C61 H68 0.929 . S
C62 O52 1.282 . S
C62 O63 1.216 . S
O63 C62 1.216 . S
H64 C59 0.930 . S
H65 C60 0.930 . S
O66 Cu46 1.959 . S
O66 C53 1.251 . S
H67 C50 0.930 . S
H68 C61 0.929 . S
Cu69 N70 1.999 . S
Cu69 O75 1.974 . S
Cu69 N80 1.985 . S
Cu69 O89 1.959 . S
N70 Cu69 1.999 . S
N70 C72 1.263 . S
N70 C74 1.389 . S
N71 C72 1.358 . S
N71 C73 1.400 . S
C72 N70 1.263 . S
C72 N71 1.358 . S
C72 H78 0.930 . S
C73 N71 1.400 . S
C73 C74 1.351 . S
C73 H90 0.930 . S
C74 N70 1.389 . S
C74 C73 1.351 . S
C74 H79 0.930 . S
O75 Cu69 1.974 . S
O75 C85 1.282 . S
C76 O77 1.261 . S
C76 O89 1.251 . S
O77 C76 1.261 . S
H78 C72 0.930 . S
H79 C74 0.930 . S
N80 Cu69 1.985 . S
N80 C82 1.335 . S
N80 C83 1.390 . S
N81 C82 1.345 . S
N81 C84 1.336 . S
C82 N80 1.335 . S
C82 N81 1.345 . S
C82 H87 0.930 . S
C83 N80 1.390 . S
C83 C84 1.346 . S
C83 H88 0.930 . S
C84 N81 1.336 . S
C84 C83 1.346 . S
C84 H91 0.929 . S
C85 O75 1.282 . S
C85 O86 1.216 . S
O86 C85 1.216 . S
H87 C82 0.930 . S
H88 C83 0.930 . S
O89 Cu69 1.959 . S
O89 C76 1.251 . S
H90 C73 0.930 . S
H91 C84 0.929 . S
Cu92 N93 1.999 . S
Cu92 O98 1.974 . S
Cu92 N103 1.985 . S
Cu92 O112 1.959 . S
N93 Cu92 1.999 . S
N93 C95 1.263 . S
N93 C97 1.389 . S
N94 C95 1.358 . S
N94 C96 1.400 . S
C95 N93 1.263 . S
C95 N94 1.358 . S
C95 H101 0.930 . S
C96 N94 1.400 . S
C96 C97 1.351 . S
C96 H113 0.930 . S
C97 N93 1.389 . S
C97 C96 1.351 . S
C97 H102 0.930 . S
O98 Cu92 1.974 . S
O98 C108 1.282 . S
C99 O100 1.261 . S
C99 O112 1.251 . S
O100 C99 1.261 . S
H101 C95 0.930 . S
H102 C97 0.930 . S
N103 Cu92 1.985 . S
N103 C105 1.335 . S
N103 C106 1.390 . S
N104 C105 1.345 . S
N104 C107 1.336 . S
C105 N103 1.335 . S
C105 N104 1.345 . S
C105 H110 0.930 . S
C106 N103 1.390 . S
C106 C107 1.346 . S
C106 H111 0.930 . S
C107 N104 1.336 . S
C107 C106 1.346 . S
C107 H114 0.929 . S
C108 O98 1.282 . S
C108 O109 1.216 . S
O109 C108 1.216 . S
H110 C105 0.930 . S
H111 C106 0.930 . S
O112 Cu92 1.959 . S
O112 C99 1.251 . S
H113 C96 0.930 . S
H114 C107 0.929 . S
Cu115 N116 1.999 . S
Cu115 O121 1.974 . S
Cu115 N126 1.985 . S
Cu115 O135 1.959 . S
N116 Cu115 1.999 . S
N116 C118 1.263 . S
N116 C120 1.389 . S
N117 C118 1.358 . S
N117 C119 1.400 . S
C118 N116 1.263 . S
C118 N117 1.358 . S
C118 H124 0.930 . S
C119 N117 1.400 . S
C119 C120 1.351 . S
C119 H136 0.930 . S
C120 N116 1.389 . S
C120 C119 1.351 . S
C120 H125 0.930 . S
O121 Cu115 1.974 . S
O121 C131 1.282 . S
C122 O123 1.261 . S
C122 O135 1.251 . S
O123 C122 1.261 . S
H124 C118 0.930 . S
H125 C120 0.930 . S
N126 Cu115 1.985 . S
N126 C128 1.335 . S
N126 C129 1.390 . S
N127 C128 1.345 . S
N127 C130 1.336 . S
C128 N126 1.335 . S
C128 N127 1.345 . S
C128 H133 0.930 . S
C129 N126 1.390 . S
C129 C130 1.346 . S
C129 H134 0.930 . S
C130 N127 1.336 . S
C130 C129 1.346 . S
C130 H137 0.929 . S
C131 O121 1.282 . S
C131 O132 1.216 . S
O132 C131 1.216 . S
H133 C128 0.930 . S
H134 C129 0.930 . S
O135 Cu115 1.959 . S
O135 C122 1.251 . S
H136 C119 0.930 . S
H137 C130 0.929 . S
Cu138 N139 1.999 . S
Cu138 O144 1.974 . S
Cu138 N149 1.985 . S
Cu138 O158 1.959 . S
N139 Cu138 1.999 . S
N139 C141 1.263 . S
N139 C143 1.389 . S
N140 C141 1.358 . S
N140 C142 1.400 . S
C141 N139 1.263 . S
C141 N140 1.358 . S
C141 H147 0.930 . S
C142 N140 1.400 . S
C142 C143 1.351 . S
C142 H159 0.930 . S
C143 N139 1.389 . S
C143 C142 1.351 . S
C143 H148 0.930 . S
O144 Cu138 1.974 . S
O144 C154 1.282 . S
C145 O146 1.261 . S
C145 O158 1.251 . S
O146 C145 1.261 . S
H147 C141 0.930 . S
H148 C143 0.930 . S
N149 Cu138 1.985 . S
N149 C151 1.335 . S
N149 C152 1.390 . S
N150 C151 1.345 . S
N150 C153 1.336 . S
C151 N149 1.335 . S
C151 N150 1.345 . S
C151 H156 0.930 . S
C152 N149 1.390 . S
C152 C153 1.346 . S
C152 H157 0.930 . S
C153 N150 1.336 . S
C153 C152 1.346 . S
C153 H160 0.929 . S
C154 O144 1.282 . S
C154 O155 1.216 . S
O155 C154 1.216 . S
H156 C151 0.930 . S
H157 C152 0.930 . S
O158 Cu138 1.959 . S
O158 C145 1.251 . S
H159 C142 0.930 . S
H160 C153 0.929 . S
Cu161 N162 1.999 . S
Cu161 O167 1.974 . S
Cu161 N172 1.985 . S
Cu161 O181 1.959 . S
N162 Cu161 1.999 . S
N162 C164 1.263 . S
N162 C166 1.389 . S
N163 C164 1.358 . S
N163 C165 1.400 . S
C164 N162 1.263 . S
C164 N163 1.358 . S
C164 H170 0.930 . S
C165 N163 1.400 . S
C165 C166 1.351 . S
C165 H182 0.930 . S
C166 N162 1.389 . S
C166 C165 1.351 . S
C166 H171 0.930 . S
O167 Cu161 1.974 . S
O167 C177 1.282 . S
C168 O169 1.261 . S
C168 O181 1.251 . S
O169 C168 1.261 . S
H170 C164 0.930 . S
H171 C166 0.930 . S
N172 Cu161 1.985 . S
N172 C174 1.335 . S
N172 C175 1.390 . S
N173 C174 1.345 . S
N173 C176 1.336 . S
C174 N172 1.335 . S
C174 N173 1.345 . S
C174 H179 0.930 . S
C175 N172 1.390 . S
C175 C176 1.346 . S
C175 H180 0.930 . S
C176 N173 1.336 . S
C176 C175 1.346 . S
C176 H183 0.929 . S
C177 O167 1.282 . S
C177 O178 1.216 . S
O178 C177 1.216 . S
H179 C174 0.930 . S
H180 C175 0.930 . S
O181 Cu161 1.959 . S
O181 C168 1.251 . S
H182 C165 0.930 . S
H183 C176 0.929 . S
C184 C185 1.387 . S
C184 H188 0.950 . S
C184 C193 1.381 1_554 S
C185 C184 1.387 . S
C185 C187 1.397 . S
H186 C193 0.950 . S
C187 C185 1.397 . S
C187 C189 1.381 1_554 S
C187 H191 0.950 . S
H188 C184 0.950 . S
C189 C187 1.381 1_556 S
C189 C190 1.387 . S
C189 H192 0.950 . S
C190 C189 1.387 . S
C190 C193 1.397 . S
H191 C187 0.950 . S
H192 C189 0.950 . S
C193 C184 1.381 1_556 S
C193 H186 0.950 . S
C193 C190 1.397 . S
C194 C195 1.387 . S
C194 H198 0.950 . S
C194 C203 1.390 . S
C195 C194 1.387 . S
C195 C197 1.387 . S
H196 C203 0.950 . S
C197 C195 1.387 . S
C197 C199 1.390 . S
C197 H201 0.950 . S
H198 C194 0.950 . S
C199 C197 1.390 . S
C199 C200 1.387 . S
C199 H202 0.950 . S
C200 C199 1.387 . S
C200 C203 1.387 . S
H201 C197 0.950 . S
H202 C199 0.950 . S
C203 C194 1.390 . S
C203 H196 0.950 . S
C203 C200 1.387 . S
C204 C205 1.387 . S
C204 H208 0.950 . S
C204 C213 1.390 . S
C205 C204 1.387 . S
C205 C207 1.387 . S
H206 C213 0.950 . S
C207 C205 1.387 . S
C207 C209 1.390 . S
C207 H211 0.950 . S
H208 C204 0.950 . S
C209 C207 1.390 . S
C209 C210 1.387 . S
C209 H212 0.950 . S
C210 C209 1.387 . S
C210 C213 1.387 . S
H211 C207 0.950 . S
H212 C209 0.950 . S
C213 C204 1.390 . S
C213 H206 0.950 . S
C213 C210 1.387 . S
C214 C215 1.387 . S
C214 H218 0.950 . S
C214 C223 1.390 . S
C215 C214 1.387 . S
C215 C217 1.387 . S
H216 C223 0.950 . S
C217 C215 1.387 . S
C217 C219 1.390 . S
C217 H221 0.950 . S
H218 C214 0.950 . S
C219 C217 1.390 . S
C219 C220 1.387 . S
C219 H222 0.950 . S
C220 C219 1.387 . S
C220 C223 1.387 . S
H221 C217 0.950 . S
H222 C219 0.950 . S
C223 C214 1.390 . S
C223 H216 0.950 . S
C223 C220 1.387 . S
C224 C225 1.387 . S
C224 H228 0.950 . S
C224 C233 1.390 . S
C225 C224 1.387 . S
C225 C227 1.387 . S
H226 C233 0.950 . S
C227 C225 1.387 . S
C227 C229 1.390 . S
C227 H231 0.950 . S
H228 C224 0.950 . S
C229 C227 1.390 . S
C229 C230 1.387 . S
C229 H232 0.950 . S
C230 C229 1.387 . S
C230 C233 1.387 . S
H231 C227 0.950 . S
H232 C229 0.950 . S
C233 C224 1.390 . S
C233 H226 0.950 . S
C233 C230 1.387 . S
C234 C235 1.387 . S
C234 H238 0.950 . S
C234 C243 1.390 . S
C235 C234 1.387 . S
C235 C237 1.387 . S
H236 C243 0.950 . S
C237 C235 1.387 . S
C237 C239 1.390 . S
C237 H241 0.950 . S
H238 C234 0.950 . S
C239 C237 1.390 . S
C239 C240 1.387 . S
C239 H242 0.950 . S
C240 C239 1.387 . S
C240 C243 1.387 . S
H241 C237 0.950 . S
H242 C239 0.950 . S
C243 C234 1.390 . S
C243 H236 0.950 . S
C243 C240 1.387 . S
C244 C245 1.387 . S
C244 H248 0.950 . S
C244 C253 1.390 . S
C245 C244 1.387 . S
C245 C247 1.387 . S
H246 C253 0.950 . S
C247 C245 1.387 . S
C247 C249 1.390 . S
C247 H251 0.950 . S
H248 C244 0.950 . S
C249 C247 1.390 . S
C249 C250 1.387 . S
C249 H252 0.950 . S
C250 C249 1.387 . S
C250 C253 1.387 . S
H251 C247 0.950 . S
H252 C249 0.950 . S
C253 C244 1.390 . S
C253 H246 0.950 . S
C253 C250 1.387 . S
C254 C255 1.404 . S
C254 H258 0.951 . S
C254 C263 1.373 1_554 S
C255 C254 1.404 . S
C255 C257 1.387 . S
H256 C263 0.950 . S
C257 C255 1.387 . S
C257 C259 1.373 1_554 S
C257 H261 0.950 . S
H258 C254 0.951 . S
C259 C257 1.373 1_556 S
C259 C260 1.404 . S
C259 H262 0.951 . S
C260 C259 1.404 . S
C260 C263 1.387 . S
H261 C257 0.950 . S
H262 C259 0.951 . S
C263 C254 1.373 1_556 S
C263 H256 0.950 . S
C263 C260 1.387 . S
C264 C265 1.387 . S
C264 H268 0.950 . S
C264 C273 1.390 1_445 S
C265 C264 1.387 . S
C265 C267 1.387 . S
H266 C273 0.950 . S
C267 C265 1.387 . S
C267 C269 1.390 1_445 S
C267 H271 0.950 . S
H268 C264 0.950 . S
C269 C267 1.390 1_665 S
C269 C270 1.387 . S
C269 H272 0.950 . S
C270 C269 1.387 . S
C270 C273 1.387 . S
H271 C267 0.950 . S
H272 C269 0.950 . S
C273 C264 1.390 1_665 S
C273 H266 0.950 . S
C273 C270 1.387 . S
C274 C275 1.387 . S
C274 H278 0.950 . S
C274 C283 1.390 1_455 S
C275 C274 1.387 . S
C275 C277 1.387 . S
H276 C283 0.950 . S
C277 C275 1.387 . S
C277 C279 1.390 1_455 S
C277 H281 0.950 . S
H278 C274 0.950 . S
C279 C277 1.390 1_655 S
C279 C280 1.387 . S
C279 H282 0.950 . S
C280 C279 1.387 . S
C280 C283 1.387 . S
H281 C277 0.950 . S
H282 C279 0.950 . S
C283 C274 1.390 1_655 S
C283 H276 0.950 . S
C283 C280 1.387 . S
C284 C285 1.387 . S
C284 H288 0.950 . S
C284 C293 1.390 . S
C285 C284 1.387 . S
C285 C287 1.387 . S
H286 C293 0.950 . S
C287 C285 1.387 . S
C287 C289 1.390 . S
C287 H291 0.950 . S
H288 C284 0.950 . S
C289 C287 1.390 . S
C289 C290 1.387 . S
C289 H292 0.950 . S
C290 C289 1.387 . S
C290 C293 1.387 . S
H291 C287 0.950 . S
H292 C289 0.950 . S
C293 C284 1.390 . S
C293 H286 0.950 . S
C293 C290 1.387 . S
C294 C295 1.387 . S
C294 H298 0.950 . S
C294 C303 1.390 1_565 S
C295 C294 1.387 . S
C295 C297 1.387 . S
H296 C303 0.950 . S
C297 C295 1.387 . S
C297 C299 1.390 1_565 S
C297 H301 0.950 . S
H298 C294 0.950 . S
C299 C297 1.390 1_545 S
C299 C300 1.387 . S
C299 H302 0.950 . S
C300 C299 1.387 . S
C300 C303 1.387 . S
H301 C297 0.950 . S
H302 C299 0.950 . S
C303 C294 1.390 1_545 S
C303 H296 0.950 . S
C303 C300 1.387 . S
C304 C305 1.387 . S
C304 H308 0.950 . S
C304 C313 1.390 1_655 S
C305 C304 1.387 . S
C305 C307 1.387 . S
H306 C313 0.950 . S
C307 C305 1.387 . S
C307 C309 1.390 1_655 S
C307 H311 0.950 . S
H308 C304 0.950 . S
C309 C307 1.390 1_455 S
C309 C310 1.387 . S
C309 H312 0.950 . S
C310 C309 1.387 . S
C310 C313 1.387 . S
H311 C307 0.950 . S
H312 C309 0.950 . S
C313 C304 1.390 1_455 S
C313 H306 0.950 . S
C313 C310 1.387 . S
C314 C315 1.387 . S
C314 H318 0.950 . S
C314 C323 1.390 . S
C315 C314 1.387 . S
C315 C317 1.387 . S
H316 C323 0.950 . S
C317 C315 1.387 . S
C317 C319 1.390 . S
C317 H321 0.950 . S
H318 C314 0.950 . S
C319 C317 1.390 . S
C319 C320 1.387 . S
C319 H322 0.950 . S
C320 C319 1.387 . S
C320 C323 1.387 . S
H321 C317 0.950 . S
H322 C319 0.950 . S
C323 C314 1.390 . S
C323 H316 0.950 . S
C323 C320 1.387 . S
C324 C325 1.387 . S
C324 H328 0.950 . S
C324 C333 1.390 1_545 S
C325 C324 1.387 . S
C325 C327 1.387 . S
H326 C333 0.950 . S
C327 C325 1.387 . S
C327 C329 1.390 1_545 S
C327 H331 0.950 . S
H328 C324 0.950 . S
C329 C327 1.390 1_565 S
C329 C330 1.387 . S
C329 H332 0.950 . S
C330 C329 1.387 . S
C330 C333 1.387 . S
H331 C327 0.950 . S
H332 C329 0.950 . S
C333 C324 1.390 1_565 S
C333 H326 0.950 . S
C333 C330 1.387 . S
C334 C335 1.387 . S
C334 H338 0.950 . S
C334 C343 1.390 1_665 S
C335 C334 1.387 . S
C335 C337 1.387 . S
H336 C343 0.950 . S
C337 C335 1.387 . S
C337 C339 1.390 1_665 S
C337 H341 0.950 . S
H338 C334 0.950 . S
C339 C337 1.390 1_445 S
C339 C340 1.387 . S
C339 H342 0.950 . S
C340 C339 1.387 . S
C340 C343 1.387 . S
H341 C337 0.950 . S
H342 C339 0.950 . S
C343 C334 1.390 1_445 S
C343 H336 0.950 . S
C343 C340 1.387 . S
C185 C16 1.823 . S
C190 C131 1.824 . S
C195 C30 1.883 . S
C200 C145 1.882 . S
C205 C62 1.825 . S
C210 C177 1.823 . S
C215 C76 1.883 . S
C220 C99 1.884 . S
C225 C168 1.883 . S
C230 C7 1.882 . S
C235 C108 1.826 . S
C240 C39 1.825 . S
C245 C53 1.884 . S
C250 C122 1.883 . S
C255 C154 1.827 . S
C260 C85 1.825 . S
C265 N2 1.730 . S
C270 N140 1.730 . S
C275 N173 1.926 . S
C280 N35 1.926 . S
C285 N48 1.730 . S
C290 N94 1.730 . S
C295 N81 1.926 . S
C300 N127 1.926 . S
C305 N150 1.926 . S
C310 N12 1.926 . S
C315 N163 1.730 . S
C320 N25 1.730 . S
C325 N58 1.926 . S
C330 N104 1.926 . S
C335 N71 1.730 . S
C340 N117 1.730 . S
