# Generated by pormake.
# Topology skb, (5)-cn, num edge types: 1
# Building blocks:
#     Node 0, Type 0, BuildingBlock: XOMCOT_clean_sbu_1, # of connection points: 5
#     Node 1, Type 0, BuildingBlock: XOMCOT_clean_sbu_1, # of connection points: 5
#     Node 2, Type 0, BuildingBlock: XOMCOT_clean_sbu_1, # of connection points: 5
#     Node 3, Type 0, BuildingBlock: XOMCOT_clean_sbu_1, # of connection points: 5
#     Node 4, Type 0, BuildingBlock: XOMCOT_clean_sbu_1, # of connection points: 5
#     Node 5, Type 0, BuildingBlock: XOMCOT_clean_sbu_1, # of connection points: 5
#     Node 6, Type 0, BuildingBlock: XOMCOT_clean_sbu_1, # of connection points: 5
#     Node 7, Type 0, BuildingBlock: XOMCOT_clean_sbu_1, # of connection points: 5
#     Node 8, Type 0, BuildingBlock: XOMCOT_clean_sbu_1, # of connection points: 5
#     Node 9, Type 0, BuildingBlock: XOMCOT_clean_sbu_1, # of connection points: 5
#     Node 10, Type 0, BuildingBlock: XOMCOT_clean_sbu_1, # of connection points: 5
#     Node 11, Type 0, BuildingBlock: XOMCOT_clean_sbu_1, # of connection points: 5
#     Node 12, Type 0, BuildingBlock: XOMCOT_clean_sbu_1, # of connection points: 5
#     Node 13, Type 0, BuildingBlock: XOMCOT_clean_sbu_1, # of connection points: 5
#     Node 14, Type 0, BuildingBlock: XOMCOT_clean_sbu_1, # of connection points: 5
#     Node 15, Type 0, BuildingBlock: XOMCOT_clean_sbu_1, # of connection points: 5
#     Edge 16, Type (0, 0), BuildingBlock: UVAHIK_clean_linker_0, # of connection points: 2
#     Edge 17, Type (0, 0), BuildingBlock: UVAHIK_clean_linker_0, # of connection points: 2
#     Edge 18, Type (0, 0), BuildingBlock: UVAHIK_clean_linker_0, # of connection points: 2
#     Edge 19, Type (0, 0), BuildingBlock: UVAHIK_clean_linker_0, # of connection points: 2
#     Edge 20, Type (0, 0), BuildingBlock: UVAHIK_clean_linker_0, # of connection points: 2
#     Edge 21, Type (0, 0), BuildingBlock: UVAHIK_clean_linker_0, # of connection points: 2
#     Edge 22, Type (0, 0), BuildingBlock: UVAHIK_clean_linker_0, # of connection points: 2
#     Edge 23, Type (0, 0), BuildingBlock: UVAHIK_clean_linker_0, # of connection points: 2
#     Edge 24, Type (0, 0), BuildingBlock: UVAHIK_clean_linker_0, # of connection points: 2
#     Edge 25, Type (0, 0), BuildingBlock: UVAHIK_clean_linker_0, # of connection points: 2
#     Edge 26, Type (0, 0), BuildingBlock: UVAHIK_clean_linker_0, # of connection points: 2
#     Edge 27, Type (0, 0), BuildingBlock: UVAHIK_clean_linker_0, # of connection points: 2
#     Edge 28, Type (0, 0), BuildingBlock: UVAHIK_clean_linker_0, # of connection points: 2
#     Edge 29, Type (0, 0), BuildingBlock: UVAHIK_clean_linker_0, # of connection points: 2
#     Edge 30, Type (0, 0), BuildingBlock: UVAHIK_clean_linker_0, # of connection points: 2
#     Edge 31, Type (0, 0), BuildingBlock: UVAHIK_clean_linker_0, # of connection points: 2
#     Edge 32, Type (0, 0), BuildingBlock: UVAHIK_clean_linker_0, # of connection points: 2
#     Edge 33, Type (0, 0), BuildingBlock: UVAHIK_clean_linker_0, # of connection points: 2
#     Edge 34, Type (0, 0), BuildingBlock: UVAHIK_clean_linker_0, # of connection points: 2
#     Edge 35, Type (0, 0), BuildingBlock: UVAHIK_clean_linker_0, # of connection points: 2
#     Edge 36, Type (0, 0), BuildingBlock: UVAHIK_clean_linker_0, # of connection points: 2
#     Edge 37, Type (0, 0), BuildingBlock: UVAHIK_clean_linker_0, # of connection points: 2
#     Edge 38, Type (0, 0), BuildingBlock: UVAHIK_clean_linker_0, # of connection points: 2
#     Edge 39, Type (0, 0), BuildingBlock: UVAHIK_clean_linker_0, # of connection points: 2
#     Edge 40, Type (0, 0), BuildingBlock: UVAHIK_clean_linker_0, # of connection points: 2
#     Edge 41, Type (0, 0), BuildingBlock: UVAHIK_clean_linker_0, # of connection points: 2
#     Edge 42, Type (0, 0), BuildingBlock: UVAHIK_clean_linker_0, # of connection points: 2
#     Edge 43, Type (0, 0), BuildingBlock: UVAHIK_clean_linker_0, # of connection points: 2
#     Edge 44, Type (0, 0), BuildingBlock: UVAHIK_clean_linker_0, # of connection points: 2
#     Edge 45, Type (0, 0), BuildingBlock: UVAHIK_clean_linker_0, # of connection points: 2
#     Edge 46, Type (0, 0), BuildingBlock: UVAHIK_clean_linker_0, # of connection points: 2
#     Edge 47, Type (0, 0), BuildingBlock: UVAHIK_clean_linker_0, # of connection points: 2
#     Edge 48, Type (0, 0), BuildingBlock: UVAHIK_clean_linker_0, # of connection points: 2
#     Edge 49, Type (0, 0), BuildingBlock: UVAHIK_clean_linker_0, # of connection points: 2
#     Edge 50, Type (0, 0), BuildingBlock: UVAHIK_clean_linker_0, # of connection points: 2
#     Edge 51, Type (0, 0), BuildingBlock: UVAHIK_clean_linker_0, # of connection points: 2
#     Edge 52, Type (0, 0), BuildingBlock: UVAHIK_clean_linker_0, # of connection points: 2
#     Edge 53, Type (0, 0), BuildingBlock: UVAHIK_clean_linker_0, # of connection points: 2
#     Edge 54, Type (0, 0), BuildingBlock: UVAHIK_clean_linker_0, # of connection points: 2
#     Edge 55, Type (0, 0), BuildingBlock: UVAHIK_clean_linker_0, # of connection points: 2
# Relax obj value: 0.063
# Max RMSD: 0.111
# Mean RMSD: 0.111
data_MOF--net-skb--node1-XOMCOT_clean_sbu_1--edge1-UVAHIK_clean_linker_0
_symmetry_space_group_name_H-M    P1
_symmetry_Int_Tables_number       1
_symmetry_cell_setting            triclinic
loop_
_symmetry_equiv_pos_as_xyz
'x, y, z'
_cell_length_a     61.241125
_cell_length_b     35.659779
_cell_length_c     86.015306
_cell_angle_alpha  90.026561
_cell_angle_beta   89.998421
_cell_angle_gamma 89.997132
loop_
_atom_site_label
_atom_site_type_symbol
_atom_site_fract_x
_atom_site_fract_y
_atom_site_fract_z
_atom_type_partial_charge
C0 C 0.18777 0.10193 0.11799 0.0
C1 C 0.18887 0.10527 0.10212 0.0
N2 N 0.19107 0.07076 0.0959 0.0
N3 N 0.18948 0.06555 0.12196 0.0
C4 C 0.19154 0.0471 0.10825 0.0
H5 H 0.18549 0.12464 0.12616 0.0
Co6 Co 0.18693 0.05009 0.1426 0.0
C7 C 0.19573 0.96893 0.14308 0.0
O8 O 0.17892 0.96585 0.15245 0.0
N9 N 0.1843 0.03546 0.16421 0.0
C10 C 0.17117 0.02052 0.18762 0.0
C11 C 0.16607 0.02643 0.17231 0.0
C12 C 0.20036 0.0342 0.17515 0.0
N13 N 0.19274 0.02583 0.18954 0.0
O14 O 0.21447 0.07379 0.14677 0.0
H15 H 0.14986 0.02342 0.16761 0.0
H16 H 0.21729 0.04042 0.17272 0.0
O17 O 0.20109 1.00131 0.1378 0.0
C18 C 0.21079 0.10475 0.15378 0.0
O19 O 0.19085 0.11189 0.15857 0.0
N20 N 0.15882 0.03293 0.13797 0.0
C21 C 0.11461 0.02346 0.13174 0.0
C22 C 0.12995 0.99801 0.1258 0.0
C23 C 0.1522 1.00357 0.12887 0.0
C24 C 0.1442 0.05955 0.14251 0.0
C25 C 0.12199 0.05489 0.13991 0.0
H26 H 0.16392 0.98475 0.1237 0.0
H27 H 0.14991 0.08417 0.14864 0.0
H28 H 0.19263 0.0169 0.10733 0.0
H29 H 0.18804 0.13133 0.09571 0.0
H30 H 0.15972 0.01267 0.19663 0.0
H31 H 0.12479 0.97406 0.11898 0.0
H32 H 0.11066 0.07582 0.1442 0.0
C33 C 0.81173 0.97119 0.11961 0.0
C34 C 0.811 0.96662 0.10378 0.0
N35 N 0.80703 1.00022 0.09715 0.0
N36 N 0.80807 0.00741 0.12315 0.0
C37 C 0.80517 0.02451 0.10923 0.0
H38 H 0.81504 0.94948 0.12806 0.0
Co39 Co 0.80938 0.02474 0.14364 0.0
C40 C 0.80243 0.10641 0.1416 0.0
O41 O 0.81986 0.11035 0.1503 0.0
N42 N 0.81072 0.04163 0.16513 0.0
C43 C 0.82271 0.0617 0.18824 0.0
C44 C 0.82808 0.05571 0.17298 0.0
C45 C 0.79483 0.04001 0.17621 0.0
N46 N 0.80182 0.0514 0.19041 0.0
O47 O 0.78138 1.00211 0.14714 0.0
H48 H 0.84383 0.06229 0.16809 0.0
H49 H 0.77853 0.02971 0.17405 0.0
O50 O 0.79605 0.07349 0.13764 0.0
C51 C 0.78501 0.97099 0.15404 0.0
O52 O 0.80483 0.96409 0.15913 0.0
N53 N 0.83802 0.04028 0.13972 0.0
C54 C 0.88269 0.04523 0.134 0.0
C55 C 0.86806 0.06923 0.12633 0.0
C56 C 0.84558 0.06592 0.12919 0.0
C57 C 0.85198 0.01511 0.14628 0.0
C58 C 0.87434 0.01765 0.14392 0.0
H59 H 0.83438 0.08319 0.12266 0.0
H60 H 0.84559 0.99298 0.15357 0.0
H61 H 0.8025 0.05434 0.10796 0.0
H62 H 0.81326 0.94039 0.09767 0.0
H63 H 0.83349 0.07308 0.19701 0.0
H64 H 0.8739 0.09006 0.11817 0.0
H65 H 0.885 0.99758 0.14955 0.0
C66 C 0.18774 0.96256 0.90972 0.0
C67 C 0.18956 0.95948 0.92558 0.0
N68 N 0.19313 0.9939 0.93154 0.0
N69 N 0.19027 0.99869 0.90556 0.0
C70 C 0.19345 0.01728 0.91912 0.0
H71 H 0.18454 0.93989 0.90169 0.0
Co72 Co 0.18852 0.0138 0.88484 0.0
C73 C 0.19461 0.09554 0.88465 0.0
O74 O 0.17782 0.09668 0.87519 0.0
N75 N 0.1869 0.02825 0.86316 0.0
C76 C 0.17552 0.04523 0.83948 0.0
C77 C 0.16919 0.03698 0.85439 0.0
C78 C 0.20382 0.03135 0.85297 0.0
N79 N 0.19727 0.04145 0.83855 0.0
O80 O 0.21674 0.99181 0.88154 0.0
H81 H 0.15256 0.03856 0.8584 0.0
H82 H 0.22073 0.02666 0.85604 0.0
O83 O 0.20115 0.06378 0.88993 0.0
C84 C 0.21359 0.96052 0.87463 0.0
O85 O 0.19391 0.95281 0.86946 0.0
N86 N 0.15977 0.02889 0.88864 0.0
C87 C 0.11516 0.03396 0.89446 0.0
C88 C 0.12965 0.05984 0.90114 0.0
C89 C 0.15212 0.05646 0.89827 0.0
C90 C 0.146 1.0019 0.88323 0.0
C91 C 0.12364 1.00441 0.88562 0.0
H92 H 0.16322 0.07528 0.90411 0.0
H93 H 0.15253 0.97845 0.87675 0.0
H94 H 0.19594 0.04726 0.91988 0.0
H95 H 0.18782 0.93391 0.93224 0.0
H96 H 0.16487 0.05296 0.82996 0.0
H97 H 0.1237 0.08226 0.90851 0.0
H98 H 0.11307 0.98297 0.88081 0.0
C99 C 0.80955 0.10746 0.91144 0.0
C100 C 0.80686 0.10909 0.92725 0.0
N101 N 0.80396 0.07397 0.93264 0.0
N102 N 0.80817 0.07155 0.90669 0.0
C103 C 0.80492 0.05158 0.9199 0.0
H104 H 0.81265 0.13102 0.90384 0.0
Co105 Co 0.81165 0.05889 0.88578 0.0
C106 C 0.80169 0.97848 0.88256 0.0
O107 O 0.81813 0.97697 0.87278 0.0
N108 N 0.8152 0.04751 0.86397 0.0
C109 C 0.82903 0.03857 0.84025 0.0
C110 C 0.83385 0.04326 0.85569 0.0
C111 C 0.79922 0.04479 0.85302 0.0
N112 N 0.80724 0.03989 0.83848 0.0
O113 O 0.78459 0.08413 0.88143 0.0
H114 H 0.85019 0.04328 0.86028 0.0
H115 H 0.78201 0.04757 0.85561 0.0
O116 O 0.79689 0.00983 0.88907 0.0
C117 C 0.78902 0.11549 0.87498 0.0
O118 O 0.80933 0.12235 0.87094 0.0
N119 N 0.83928 0.03993 0.89069 0.0
C120 C 0.88298 0.02675 0.89743 0.0
C121 C 0.86701 1.00079 0.90195 0.0
C122 C 0.84501 0.00821 0.89865 0.0
C123 C 0.85447 0.06688 0.88774 0.0
C124 C 0.87649 0.06046 0.89057 0.0
H125 H 0.8328 0.98882 0.90276 0.0
H126 H 0.84943 0.09313 0.88257 0.0
H127 H 0.80334 0.02137 0.9202 0.0
H128 H 0.80763 0.13419 0.93432 0.0
H129 H 0.84081 0.03444 0.83103 0.0
H130 H 0.87152 0.97502 0.90778 0.0
H131 H 0.88837 0.08163 0.88739 0.0
C132 C 0.18724 0.61069 0.61557 0.0
C133 C 0.1897 0.61198 0.59973 0.0
N134 N 0.19294 0.57682 0.59447 0.0
N135 N 0.18906 0.57497 0.62046 0.0
C136 C 0.19239 0.55476 0.60731 0.0
H137 H 0.18402 0.63436 0.62309 0.0
Co138 Co 0.18604 0.56289 0.64144 0.0
C139 C 0.19613 0.48263 0.64496 0.0
O140 O 0.17992 0.48143 0.65495 0.0
N141 N 0.18301 0.55221 0.66332 0.0
C142 C 0.16997 0.54571 0.68739 0.0
C143 C 0.16462 0.5499 0.67201 0.0
C144 C 0.19936 0.54879 0.67394 0.0
N145 N 0.19183 0.54533 0.68868 0.0
O146 O 0.21317 0.58819 0.64539 0.0
H147 H 0.14812 0.55135 0.66778 0.0
H148 H 0.21652 0.55024 0.67099 0.0
O149 O 0.20074 0.51377 0.63822 0.0
C150 C 0.20888 0.61976 0.65172 0.0
O151 O 0.18864 0.62691 0.65584 0.0
N152 N 0.15831 0.54372 0.63692 0.0
C153 C 0.11458 0.5304 0.63032 0.0
C154 C 0.13051 0.50431 0.62588 0.0
C155 C 0.15253 0.51181 0.62909 0.0
C156 C 0.14311 0.57069 0.63985 0.0
C157 C 0.12108 0.56419 0.6371 0.0
H158 H 0.16472 0.49238 0.62497 0.0
H159 H 0.14818 0.5971 0.64487 0.0
H160 H 0.19434 0.5246 0.60714 0.0
H161 H 0.18856 0.63687 0.59258 0.0
H162 H 0.15853 0.54332 0.69693 0.0
H163 H 0.12597 0.47846 0.62011 0.0
H164 H 0.10919 0.5854 0.64023 0.0
C165 C 0.80803 0.46347 0.61868 0.0
C166 C 0.80723 0.46079 0.60279 0.0
N167 N 0.80577 0.49564 0.59679 0.0
N168 N 0.80686 0.49976 0.62288 0.0
C169 C 0.80545 0.51887 0.60929 0.0
H170 H 0.80972 0.44034 0.6267 0.0
Co171 Co 0.80922 0.51388 0.64369 0.0
C172 C 0.8014 0.59529 0.64528 0.0
O173 O 0.81756 0.59669 0.6553 0.0
N174 N 0.81164 0.52685 0.66543 0.0
C175 C 0.82449 0.53639 0.6894 0.0
C176 C 0.82994 0.53144 0.67408 0.0
C177 C 0.79521 0.52993 0.67601 0.0
N178 N 0.80264 0.53507 0.69069 0.0
O179 O 0.78121 0.49125 0.64736 0.0
H180 H 0.84647 0.53131 0.66983 0.0
H181 H 0.77811 0.52691 0.67313 0.0
O182 O 0.79604 0.56366 0.63925 0.0
C183 C 0.78432 0.45992 0.65423 0.0
O184 O 0.80407 0.45176 0.65912 0.0
N185 N 0.83769 0.52989 0.63954 0.0
C186 C 0.88221 0.53634 0.63365 0.0
C187 C 0.86769 0.5641 0.62846 0.0
C188 C 0.84526 0.56007 0.63135 0.0
C189 C 0.85146 0.50136 0.64336 0.0
C190 C 0.87378 0.50438 0.64091 0.0
H191 H 0.83416 0.58065 0.62666 0.0
H192 H 0.84497 0.47634 0.64875 0.0
H193 H 0.80494 0.54915 0.60857 0.0
H194 H 0.80773 0.43497 0.59619 0.0
H195 H 0.83584 0.54041 0.6989 0.0
H196 H 0.87362 0.58855 0.6223 0.0
H197 H 0.88438 0.48168 0.64454 0.0
C198 C 0.18857 0.46275 0.40858 0.0
C199 C 0.18982 0.45951 0.42445 0.0
N200 N 0.19176 0.49411 0.43063 0.0
N201 N 0.18992 0.49916 0.40458 0.0
C202 C 0.19193 0.51773 0.41826 0.0
H203 H 0.18634 0.43996 0.40044 0.0
Co204 Co 0.18664 0.51457 0.38396 0.0
C205 C 0.19462 0.59612 0.38343 0.0
O206 O 0.17735 0.59874 0.37446 0.0
N207 N 0.18324 0.52913 0.36245 0.0
C208 C 0.16928 0.54336 0.33921 0.0
C209 C 0.16466 0.53729 0.35461 0.0
C210 C 0.19898 0.53101 0.3513 0.0
N211 N 0.19087 0.53898 0.337 0.0
O212 O 0.21429 0.49148 0.37938 0.0
H213 H 0.14854 0.53933 0.35954 0.0
H214 H 0.21604 0.52546 0.35353 0.0
O215 O 0.20048 0.56384 0.38856 0.0
C216 C 0.2106 0.46039 0.37245 0.0
O217 O 0.19057 0.45296 0.36791 0.0
N218 N 0.15843 0.53068 0.38903 0.0
C219 C 0.11494 0.53325 0.39871 0.0
C220 C 0.12969 0.5615 0.40315 0.0
C221 C 0.15161 0.55927 0.39846 0.0
C222 C 0.14439 0.5027 0.38502 0.0
C223 C 0.12258 0.50382 0.3894 0.0
H224 H 0.16307 0.57941 0.40304 0.0
H225 H 0.15034 0.47906 0.37838 0.0
H226 H 0.19265 0.54796 0.41917 0.0
H227 H 0.18919 0.4335 0.4309 0.0
H228 H 0.15746 0.55057 0.33036 0.0
H229 H 0.12459 0.58412 0.41073 0.0
H230 H 0.11186 0.48147 0.38561 0.0
C231 C 0.80998 0.60212 0.41062 0.0
C232 C 0.80748 0.60553 0.42642 0.0
N233 N 0.80397 0.57117 0.43244 0.0
N234 N 0.80792 0.56584 0.40654 0.0
C235 C 0.80434 0.5475 0.4201 0.0
H236 H 0.81351 0.62465 0.4026 0.0
Co237 Co 0.81134 0.55003 0.386 0.0
C238 C 0.80313 0.46854 0.38591 0.0
O239 O 0.82088 0.46526 0.37747 0.0
N240 N 0.81481 0.5349 0.36453 0.0
C241 C 0.82861 0.51862 0.34146 0.0
C242 C 0.83319 0.52466 0.35687 0.0
C243 C 0.79921 0.53421 0.35327 0.0
N244 N 0.80723 0.52505 0.33907 0.0
O245 O 0.78391 0.57357 0.38126 0.0
H246 H 0.84912 0.52092 0.36195 0.0
H247 H 0.78231 0.54132 0.35533 0.0
O248 O 0.79709 0.50112 0.3906 0.0
C249 C 0.78794 0.60469 0.37446 0.0
O250 O 0.8081 0.61183 0.37016 0.0
N251 N 0.83938 0.53345 0.39125 0.0
C252 C 0.88296 0.52891 0.40067 0.0
C253 C 0.86754 0.50251 0.40588 0.0
C254 C 0.84564 0.50572 0.40128 0.0
C255 C 0.85398 0.56002 0.38666 0.0
C256 C 0.87584 0.55778 0.39085 0.0
H257 H 0.83376 0.48698 0.40631 0.0
H258 H 0.84849 0.58324 0.37959 0.0
H259 H 0.80222 0.51745 0.42093 0.0
H260 H 0.80888 0.63126 0.43303 0.0
H261 H 0.84029 0.50994 0.33274 0.0
H262 H 0.87217 0.48049 0.4139 0.0
H263 H 0.88702 0.57873 0.38643 0.0
C264 C 0.67282 0.07962 0.62054 0.0
C265 C 0.67364 0.0869 0.60488 0.0
N266 N 0.68625 0.06068 0.598 0.0
N267 N 0.68479 0.04888 0.62368 0.0
C268 C 0.69287 0.03794 0.60973 0.0
H269 H 0.6637 0.09532 0.62912 0.0
Co270 Co 0.6872 0.0293 0.64384 0.0
C271 C 0.69443 0.94813 0.63628 0.0
O272 O 0.67541 0.93974 0.64231 0.0
N273 N 0.68996 0.00997 0.66483 0.0
C274 C 0.68411 0.97861 0.68697 0.0
C275 C 0.67794 0.98278 0.67175 0.0
C276 C 0.7036 0.02145 0.67641 0.0
N277 N 0.70021 1.00312 0.69 0.0
O278 O 0.71492 0.05375 0.64541 0.0
H279 H 0.66467 0.96757 0.66646 0.0
H280 H 0.71549 0.04355 0.67516 0.0
O281 O 0.701 0.98232 0.63592 0.0
C282 C 0.71027 0.08622 0.65075 0.0
O283 O 0.69026 0.09266 0.65557 0.0
N284 N 0.65833 0.0115 0.64207 0.0
C285 C 0.61326 1.0049 0.6384 0.0
C286 C 0.62746 0.99083 0.62704 0.0
C287 C 0.65002 0.99468 0.62903 0.0
C288 C 0.64455 0.02662 0.65284 0.0
C289 C 0.62203 0.02258 0.6515 0.0
H290 H 0.66079 0.98545 0.61984 0.0
H291 H 0.65106 0.04309 0.66233 0.0
H292 H 0.70328 0.01371 0.6082 0.0
H293 H 0.66501 0.10922 0.59898 0.0
H294 H 0.67706 0.9591 0.69518 0.0
H295 H 0.62117 0.9779 0.61656 0.0
H296 H 0.6115 0.03508 0.6602 0.0
C297 C 0.32228 0.99639 0.61939 0.0
C298 C 0.32186 0.98831 0.60375 0.0
N299 N 0.30938 0.01413 0.59652 0.0
N300 N 0.31023 0.02731 0.62211 0.0
C301 C 0.30237 0.03726 0.60798 0.0
H302 H 0.33123 0.98121 0.62822 0.0
Co303 Co 0.30644 0.04926 0.64181 0.0
C304 C 0.30158 0.12812 0.62867 0.0
O305 O 0.32236 0.13563 0.63046 0.0
N306 N 0.30173 0.071 0.66187 0.0
C307 C 0.29981 0.11245 0.68126 0.0
C308 C 0.30606 0.10676 0.66611 0.0
C309 C 0.29308 0.05545 0.67492 0.0
N310 N 0.29162 0.08016 0.68682 0.0
O311 O 0.27823 0.02634 0.64249 0.0
H312 H 0.31372 0.12752 0.65885 0.0
H313 H 0.28758 0.02675 0.67574 0.0
O314 O 0.29396 0.09586 0.6325 0.0
C315 C 0.28195 0.99369 0.64798 0.0
O316 O 0.30173 0.98579 0.65292 0.0
N317 N 0.33608 0.06618 0.64146 0.0
C318 C 0.38193 0.06661 0.64076 0.0
C319 C 0.36976 0.07447 0.62735 0.0
C320 C 0.34698 0.07385 0.62791 0.0
C321 C 0.3478 0.05922 0.65467 0.0
C322 C 0.37056 0.06036 0.65467 0.0
H323 H 0.33816 0.07796 0.61717 0.0
H324 H 0.33976 0.05005 0.66517 0.0
H325 H 0.29185 0.0612 0.60612 0.0
H326 H 0.3307 0.96582 0.59812 0.0
H327 H 0.30152 0.13826 0.68778 0.0
H328 H 0.37764 0.07871 0.61622 0.0
H329 H 0.37913 0.05444 0.66541 0.0
C330 C 0.68602 0.98002 0.4105 0.0
C331 C 0.68827 0.97616 0.42628 0.0
N332 N 0.69344 0.00985 0.43239 0.0
N333 N 0.6898 0.0159 0.40648 0.0
C334 C 0.69421 0.03359 0.42008 0.0
H335 H 0.68146 0.95812 0.40242 0.0
Co336 Co 0.68701 0.03164 0.38588 0.0
C337 C 0.69356 0.11358 0.38633 0.0
O338 O 0.67576 0.11622 0.37791 0.0
N339 N 0.6841 0.04666 0.36431 0.0
C340 C 0.67058 0.06311 0.34118 0.0
C341 C 0.66594 0.05782 0.35661 0.0
C342 C 0.69967 0.04603 0.35301 0.0
N343 N 0.69179 0.05526 0.33878 0.0
O344 O 0.71497 0.00944 0.38171 0.0
H345 H 0.65009 0.06262 0.36171 0.0
H346 H 0.71641 0.03788 0.35505 0.0
O347 O 0.70024 0.08121 0.39079 0.0
C348 C 0.71131 0.97779 0.37522 0.0
O349 O 0.69127 0.96978 0.37091 0.0
N350 N 0.65848 0.04663 0.39057 0.0
C351 C 0.61475 0.0469 0.39965 0.0
C352 C 0.62919 0.07448 0.40518 0.0
C353 C 0.65127 0.07325 0.40081 0.0
C354 C 0.64468 0.01935 0.38545 0.0
C355 C 0.62277 0.01933 0.38958 0.0
H356 H 0.66258 0.09244 0.40624 0.0
H357 H 0.65092 0.99698 0.37822 0.0
H358 H 0.69771 0.06326 0.42094 0.0
H359 H 0.68558 0.95062 0.43279 0.0
H360 H 0.65905 0.07223 0.33243 0.0
H361 H 0.62369 0.09557 0.41335 0.0
H362 H 0.61224 0.99747 0.38506 0.0
C363 C 0.3149 0.08531 0.4083 0.0
C364 C 0.3129 0.0906 0.42404 0.0
N365 N 0.30582 0.05838 0.4305 0.0
N366 N 0.30904 0.04999 0.40468 0.0
C367 C 0.30362 0.03408 0.41847 0.0
H368 H 0.32063 0.1058 0.39998 0.0
Co369 Co 0.31044 0.03241 0.38425 0.0
C370 C 0.30398 0.95044 0.3871 0.0
O371 O 0.32231 0.94606 0.37943 0.0
N372 N 0.31183 0.01525 0.36283 0.0
C373 C 0.32348 0.99312 0.33996 0.0
C374 C 0.32864 0.99848 0.35531 0.0
C375 C 0.29647 0.01914 0.35148 0.0
N376 N 0.30327 0.0065 0.33742 0.0
O377 O 0.28244 0.05493 0.38073 0.0
H378 H 0.34392 0.99 0.36048 0.0
H379 H 0.28069 0.03186 0.35334 0.0
O380 O 0.29709 0.98357 0.39026 0.0
C381 C 0.28634 0.08674 0.37446 0.0
O382 O 0.30635 0.09415 0.3699 0.0
N383 N 0.33918 0.01716 0.38826 0.0
C384 C 0.38329 0.01729 0.39655 0.0
C385 C 0.36844 0.99329 0.40405 0.0
C386 C 0.34628 0.99422 0.39995 0.0
C387 C 0.35338 0.04099 0.38111 0.0
C388 C 0.37548 0.04087 0.38477 0.0
H389 H 0.33478 0.97807 0.40671 0.0
H390 H 0.34732 0.06097 0.3727 0.0
H391 H 0.29833 1.00529 0.41969 0.0
H392 H 0.31701 0.11597 0.43029 0.0
H393 H 0.33395 0.98014 0.33137 0.0
H394 H 0.37367 0.97544 0.41352 0.0
H395 H 0.38626 0.05981 0.37862 0.0
C396 C 0.68366 0.59409 0.12 0.0
C397 C 0.6855 0.59869 0.10421 0.0
N398 N 0.69208 0.56596 0.0979 0.0
N399 N 0.68909 0.55869 0.12379 0.0
C400 C 0.6941 0.54204 0.11007 0.0
H401 H 0.6784 0.61515 0.12824 0.0
Co402 Co 0.68806 0.54206 0.14433 0.0
C403 C 0.69486 0.46019 0.14249 0.0
O404 O 0.67739 0.45636 0.15115 0.0
N405 N 0.68703 0.52593 0.16591 0.0
C406 C 0.67548 0.50603 0.18915 0.0
C407 C 0.66996 0.51117 0.17387 0.0
C408 C 0.70289 0.52886 0.17695 0.0
N409 N 0.69617 0.51756 0.19122 0.0
O410 O 0.71612 0.56458 0.14745 0.0
H411 H 0.65432 0.5036 0.16904 0.0
H412 H 0.71899 0.53998 0.17472 0.0
O413 O 0.7012 0.4931 0.13849 0.0
C414 C 0.71256 0.59635 0.15385 0.0
O415 O 0.69274 0.60395 0.15877 0.0
N416 N 0.65935 0.52657 0.14073 0.0
C417 C 0.61462 0.52188 0.13516 0.0
C418 C 0.62919 0.49808 0.1273 0.0
C419 C 0.6517 0.50129 0.13008 0.0
C420 C 0.64547 0.55149 0.14752 0.0
C421 C 0.62309 0.5491 0.14522 0.0
H422 H 0.66288 0.48435 0.12337 0.0
H423 H 0.65193 0.57343 0.15488 0.0
H424 H 0.69907 0.51304 0.10901 0.0
H425 H 0.6817 0.62402 0.09784 0.0
H426 H 0.66495 0.49437 0.19801 0.0
H427 H 0.62328 0.47756 0.11902 0.0
H428 H 0.61253 0.56913 0.15098 0.0
C429 C 0.31599 0.48222 0.11738 0.0
C430 C 0.31427 0.47795 0.10156 0.0
N431 N 0.30658 0.51016 0.09545 0.0
N432 N 0.30937 0.51689 0.12139 0.0
C433 C 0.30375 0.53341 0.10777 0.0
H434 H 0.32204 0.46149 0.12548 0.0
Co435 Co 0.3101 0.53335 0.14201 0.0
C436 C 0.30277 0.61508 0.1399 0.0
O437 O 0.3205 0.61965 0.14824 0.0
N438 N 0.31078 0.54935 0.16366 0.0
C439 C 0.32173 0.57058 0.18686 0.0
C440 C 0.32727 0.56612 0.17154 0.0
C441 C 0.2952 0.5445 0.1748 0.0
N442 N 0.30159 0.5566 0.18905 0.0
O443 O 0.28228 0.50995 0.14501 0.0
H444 H 0.34255 0.57545 0.16665 0.0
H445 H 0.27956 0.53153 0.17267 0.0
O446 O 0.29643 0.58195 0.13624 0.0
C447 C 0.28642 0.47796 0.15101 0.0
O448 O 0.30648 0.47071 0.1555 0.0
N449 N 0.33868 0.54992 0.13851 0.0
C450 C 0.38326 0.55774 0.13299 0.0
C451 C 0.36812 0.57936 0.12465 0.0
C452 C 0.34574 0.5746 0.12742 0.0
C453 C 0.35319 0.52684 0.14576 0.0
C454 C 0.37552 0.53095 0.14352 0.0
H455 H 0.33417 0.58998 0.12042 0.0
H456 H 0.34728 0.50514 0.15347 0.0
H457 H 0.29783 0.56191 0.10689 0.0
H458 H 0.31896 0.45328 0.09503 0.0
H459 H 0.33186 0.58349 0.19566 0.0
H460 H 0.37353 0.5995 0.11605 0.0
H461 H 0.38664 0.51265 0.14971 0.0
C462 C 0.67564 0.49301 0.90991 0.0
C463 C 0.67657 0.48596 0.9256 0.0
N464 N 0.68906 0.5125 0.93238 0.0
N465 N 0.6874 0.52396 0.90668 0.0
C466 C 0.69557 0.53506 0.92058 0.0
H467 H 0.66649 0.47716 0.90139 0.0
Co468 Co 0.68988 0.54446 0.88664 0.0
C469 C 0.69523 0.62503 0.89747 0.0
O470 O 0.6747 0.63291 0.8947 0.0
N471 N 0.69302 0.56472 0.86608 0.0
C472 C 0.69016 0.60193 0.84531 0.0
C473 C 0.68508 0.5977 0.86075 0.0
C474 C 0.70306 0.54964 0.85344 0.0
N475 N 0.70149 0.57166 0.84066 0.0
O476 O 0.71814 0.52183 0.88531 0.0
H477 H 0.67543 0.61718 0.8674 0.0
H478 H 0.71102 0.52266 0.85337 0.0
O479 O 0.70269 0.5919 0.89496 0.0
C480 C 0.71437 0.48868 0.88036 0.0
O481 O 0.69444 0.48005 0.87596 0.0
N482 N 0.6604 0.56093 0.8879 0.0
C483 C 0.61495 0.56543 0.89016 0.0
C484 C 0.62814 0.57491 0.90284 0.0
C485 C 0.65081 0.57216 0.90153 0.0
C486 C 0.64756 0.55081 0.8756 0.0
C487 C 0.62489 0.55386 0.87633 0.0
H488 H 0.66062 0.57826 0.91165 0.0
H489 H 0.65475 0.53832 0.86536 0.0
H490 H 0.70584 0.55948 0.92203 0.0
H491 H 0.668 0.46372 0.9316 0.0
H492 H 0.68583 0.62561 0.83807 0.0
H493 H 0.62097 0.58341 0.91381 0.0
H494 H 0.61516 0.54498 0.86647 0.0
C495 C 0.32234 0.58124 0.90722 0.0
C496 C 0.32182 0.58856 0.92291 0.0
N497 N 0.30953 0.56212 0.92992 0.0
N498 N 0.31051 0.55022 0.90423 0.0
C499 C 0.30276 0.53929 0.91827 0.0
H500 H 0.33115 0.5971 0.89854 0.0
Co501 Co 0.307 0.52991 0.88421 0.0
C502 C 0.30273 0.44925 0.89514 0.0
O503 O 0.32324 0.44207 0.89199 0.0
N504 N 0.30274 0.50979 0.86368 0.0
C505 C 0.30449 0.47254 0.84285 0.0
C506 C 0.31005 0.4765 0.85822 0.0
C507 C 0.29258 0.52535 0.85119 0.0
N508 N 0.29349 0.50332 0.83837 0.0
O509 O 0.27863 0.5524 0.88371 0.0
H510 H 0.31963 0.45663 0.86469 0.0
H511 H 0.28507 0.55272 0.85124 0.0
O512 O 0.29489 0.48221 0.89281 0.0
C513 C 0.28253 0.58545 0.87868 0.0
O514 O 0.30234 0.5934 0.87382 0.0
N515 N 0.33664 0.51388 0.88452 0.0
C516 C 0.38241 0.51344 0.88562 0.0
C517 C 0.37003 0.5027 0.8986 0.0
C518 C 0.34725 0.50345 0.89786 0.0
C519 C 0.34855 0.52423 0.87181 0.0
C520 C 0.37129 0.52309 0.87195 0.0
H521 H 0.33815 0.49709 0.9083 0.0
H522 H 0.34057 0.53573 0.86168 0.0
H523 H 0.29244 0.51501 0.91994 0.0
H524 H 0.3304 0.61106 0.92874 0.0
H525 H 0.30832 0.44874 0.83553 0.0
H526 H 0.37776 0.49589 0.90956 0.0
H527 H 0.38002 0.53144 0.86157 0.0
C528 C 0.19336 0.03011 0.21831 0.0
C529 C 0.20452 0.02489 0.20416 0.0
C530 C 0.2044 0.02876 0.23252 0.0
C531 C 0.25541 0.99446 0.251 0.0
H532 H 0.23778 0.06105 0.2844 0.0
C533 C 0.30393 0.00647 0.30854 0.0
C534 C 0.29209 0.00873 0.32257 0.0
C535 C 0.29335 0.00862 0.29416 0.0
C536 C 0.24275 0.04196 0.27526 0.0
H537 H 0.23638 0.01445 0.19406 0.0
H538 H 0.25579 0.01288 0.21889 0.0
H539 H 0.21991 0.06543 0.25915 0.0
H540 H 0.25953 0.01503 0.33217 0.0
H541 H 0.24113 0.01912 0.30705 0.0
H542 H 0.27838 0.97123 0.26714 0.0
C543 C 0.23832 0.01745 0.21895 0.0
C544 C 0.2325 0.04445 0.26074 0.0
C545 C 0.22721 0.01874 0.20466 0.0
C546 C 0.2693 0.01353 0.32171 0.0
C547 C 0.25871 0.01588 0.30727 0.0
C548 C 0.26573 0.99209 0.26551 0.0
C549 C 0.22703 0.0224 0.23309 0.0
C550 C 0.23859 0.02061 0.24841 0.0
C551 C 0.27062 0.01332 0.29329 0.0
C552 C 0.25949 0.01572 0.27786 0.0
H553 H 0.17599 0.03556 0.2185 0.0
H554 H 0.19504 0.03222 0.2431 0.0
H555 H 0.26033 0.97521 0.24192 0.0
H556 H 0.3215 1.00365 0.30857 0.0
H557 H 0.30311 0.00725 0.28367 0.0
C558 C 0.76725 0.05079 0.20575 0.0
C559 C 0.79022 0.05078 0.20512 0.0
C560 C 0.7563 0.05055 0.2201 0.0
C561 C 0.76495 0.02991 0.26228 0.0
H562 H 0.71273 0.08979 0.26782 0.0
C563 C 0.72595 0.05621 0.32299 0.0
C564 C 0.70301 0.05462 0.32391 0.0
C565 C 0.73657 0.05541 0.30853 0.0
C566 C 0.7272 0.07264 0.26645 0.0
H567 H 0.81949 0.04946 0.21939 0.0
H568 H 0.80061 0.05025 0.24407 0.0
H569 H 0.73074 0.08832 0.24254 0.0
H570 H 0.67348 0.04983 0.31002 0.0
H571 H 0.69189 0.04893 0.28509 0.0
H572 H 0.7615 0.01455 0.28625 0.0
C573 C 0.79094 0.05001 0.23353 0.0
C574 C 0.7375 0.07169 0.2519 0.0
C575 C 0.80184 0.05016 0.21926 0.0
C576 C 0.69109 0.05203 0.30993 0.0
C577 C 0.70168 0.05143 0.29553 0.0
C578 C 0.75471 0.031 0.27684 0.0
C579 C 0.76802 0.0502 0.23421 0.0
C580 C 0.75658 0.05038 0.2496 0.0
C581 C 0.72455 0.05316 0.2946 0.0
C582 C 0.73569 0.05239 0.27913 0.0
H583 H 0.7577 0.05142 0.19517 0.0
H584 H 0.73862 0.0503 0.22012 0.0
H585 H 0.77936 0.0126 0.26095 0.0
H586 H 0.73574 0.05855 0.33341 0.0
H587 H 0.75422 0.05716 0.30825 0.0
C588 C 0.28571 0.03974 0.70995 0.0
C589 C 0.28294 0.07415 0.70224 0.0
C590 C 0.27828 0.03502 0.72528 0.0
C591 C 0.26003 0.09105 0.7599 0.0
H592 H 0.23708 0.9958 0.77419 0.0
C593 C 0.20549 0.0753 0.81427 0.0
C594 C 0.21023 0.04609 0.82469 0.0
C595 C 0.21658 0.07821 0.80011 0.0
C596 C 0.24368 0.02246 0.77041 0.0
H597 H 0.26931 0.12992 0.7043 0.0
H598 H 0.25571 0.12153 0.73059 0.0
H599 H 0.25127 1.00128 0.74774 0.0
H600 H 0.23035 0.9971 0.82852 0.0
H601 H 0.24957 1.00166 0.80345 0.0
H602 H 0.25152 0.11248 0.7824 0.0
C603 C 0.26438 0.09849 0.7252 0.0
C604 C 0.25189 0.02565 0.75523 0.0
C605 C 0.27207 0.10332 0.71003 0.0
C606 C 0.22656 0.02007 0.82075 0.0
C607 C 0.23738 0.02251 0.80638 0.0
C608 C 0.25153 0.08797 0.77495 0.0
C609 C 0.26764 0.06448 0.7332 0.0
C610 C 0.25993 0.06017 0.74966 0.0
C611 C 0.2324 0.05154 0.79588 0.0
C612 C 0.24305 0.05378 0.78033 0.0
H613 H 0.29417 0.01685 0.70429 0.0
H614 H 0.28134 0.00852 0.73102 0.0
H615 H 0.26662 0.11784 0.75632 0.0
H616 H 0.19301 0.09573 0.81705 0.0
H617 H 0.21229 0.10074 0.79224 0.0
C618 C 0.69975 1.00001 0.71881 0.0
C619 C 0.71063 0.00933 0.70491 0.0
C620 C 0.70984 1.00495 0.73326 0.0
C621 C 0.76426 0.01453 0.75163 0.0
H622 H 0.73087 0.0486 0.78726 0.0
C623 C 0.80586 0.04959 0.80999 0.0
C624 C 0.79552 0.03844 0.82386 0.0
C625 C 0.7951 0.04707 0.7957 0.0
C626 C 0.74039 0.03864 0.77748 0.0
H627 H 0.74077 0.03167 0.69551 0.0
H628 H 0.75831 0.0408 0.72076 0.0
H629 H 0.7132 0.04331 0.76192 0.0
H630 H 0.76544 0.01647 0.83346 0.0
H631 H 0.74657 0.01192 0.80841 0.0
H632 H 0.7914 0.00971 0.76716 0.0
C633 C 0.74199 0.02918 0.72042 0.0
C634 C 0.73026 0.03564 0.76291 0.0
C635 C 0.73184 0.02431 0.70592 0.0
C636 C 0.77386 0.02547 0.82305 0.0
C637 C 0.76305 0.0229 0.80867 0.0
C638 C 0.77437 0.01752 0.76618 0.0
C639 C 0.73114 0.0194 0.7343 0.0
C640 C 0.74205 0.02352 0.74977 0.0
C641 C 0.77364 0.03332 0.79477 0.0
C642 C 0.76261 0.02967 0.77932 0.0
H643 H 0.6833 0.989 0.71859 0.0
H644 H 0.70102 0.99674 0.74363 0.0
H645 H 0.77378 1.00444 0.74188 0.0
H646 H 0.8223 0.06065 0.81014 0.0
H647 H 0.80363 0.05626 0.78534 0.0
C648 C 0.22485 0.52727 0.70377 0.0
C649 C 0.20411 0.54408 0.70305 0.0
C650 C 0.23608 0.5247 0.71798 0.0
C651 C 0.23825 0.5655 0.75779 0.0
H652 H 0.26493 0.47084 0.76907 0.0
C653 C 0.2663 0.53327 0.82089 0.0
C654 C 0.28498 0.5109 0.82299 0.0
C655 C 0.25754 0.5389 0.80599 0.0
C656 C 0.25788 0.49772 0.76607 0.0
H657 H 0.17937 0.57274 0.71663 0.0
H658 H 0.19872 0.56812 0.74123 0.0
H659 H 0.24847 0.47817 0.74346 0.0
H660 H 0.30961 0.47838 0.81091 0.0
H661 H 0.29465 0.48857 0.78507 0.0
H662 H 0.24763 0.58515 0.78035 0.0
C663 C 0.20639 0.55684 0.73089 0.0
C664 C 0.24842 0.50188 0.75133 0.0
C665 C 0.19515 0.55909 0.71678 0.0
C666 C 0.29495 0.49511 0.80978 0.0
C667 C 0.28631 0.50092 0.79492 0.0
C668 C 0.24782 0.56143 0.77249 0.0
C669 C 0.22692 0.53935 0.73174 0.0
C670 C 0.23828 0.53571 0.74705 0.0
C671 C 0.26732 0.52253 0.79279 0.0
C672 C 0.25763 0.52736 0.77691 0.0
H673 H 0.23217 0.51537 0.69343 0.0
H674 H 0.25195 0.51132 0.71819 0.0
H675 H 0.23087 0.59215 0.75481 0.0
H676 H 0.2581 0.54557 0.8308 0.0
H677 H 0.24276 0.55533 0.8049 0.0
C678 C 0.76922 0.55106 0.70572 0.0
C679 C 0.79037 0.5358 0.70506 0.0
C680 C 0.75793 0.55302 0.71993 0.0
C681 C 0.75663 0.5124 0.75971 0.0
H682 H 0.72832 0.60558 0.77114 0.0
C683 C 0.72887 0.54315 0.82293 0.0
C684 C 0.70986 0.56457 0.82521 0.0
C685 C 0.73747 0.53797 0.80797 0.0
C686 C 0.73582 0.57909 0.76809 0.0
H687 H 0.8158 0.50925 0.7187 0.0
H688 H 0.79632 0.51276 0.74328 0.0
H689 H 0.74472 0.59914 0.74545 0.0
H690 H 0.6845 0.59591 0.81337 0.0
H691 H 0.69919 0.58646 0.78739 0.0
H692 H 0.74776 0.49224 0.78229 0.0
C693 C 0.78839 0.52332 0.73291 0.0
C694 C 0.74525 0.57544 0.75332 0.0
C695 C 0.79969 0.52171 0.71882 0.0
C696 C 0.6994 0.57989 0.8121 0.0
C697 C 0.70789 0.57452 0.79716 0.0
C698 C 0.74709 0.51594 0.77444 0.0
C699 C 0.76744 0.53925 0.73371 0.0
C700 C 0.756 0.5422 0.749 0.0
C701 C 0.72719 0.55383 0.79486 0.0
C702 C 0.73672 0.54948 0.77892 0.0
H703 H 0.76162 0.56221 0.69535 0.0
H704 H 0.74174 0.56523 0.72012 0.0
H705 H 0.7645 0.48619 0.75669 0.0
H706 H 0.73745 0.53125 0.83276 0.0
H707 H 0.75251 0.52229 0.80675 0.0
C708 C 0.26728 0.54945 0.20439 0.0
C709 C 0.29011 0.55369 0.20377 0.0
C710 C 0.2564 0.54706 0.21874 0.0
C711 C 0.2662 0.52795 0.26092 0.0
H712 H 0.2104 0.5775 0.26632 0.0
C713 C 0.22503 0.54606 0.32149 0.0
C714 C 0.20231 0.54026 0.32223 0.0
C715 C 0.23585 0.54732 0.3071 0.0
C716 C 0.22589 0.5632 0.26499 0.0
H717 H 0.31929 0.55767 0.21804 0.0
H718 H 0.30046 0.55475 0.24273 0.0
H719 H 0.22857 0.57969 0.24112 0.0
H720 H 0.17346 0.53002 0.30813 0.0
H721 H 0.19216 0.53266 0.28334 0.0
H722 H 0.26357 0.51181 0.28486 0.0
C723 C 0.29087 0.55281 0.23218 0.0
C724 C 0.2363 0.56436 0.25049 0.0
C725 C 0.30171 0.55509 0.21791 0.0
C726 C 0.19083 0.53547 0.30817 0.0
C727 C 0.20159 0.53691 0.29384 0.0
C728 C 0.25583 0.52696 0.27545 0.0
C729 C 0.26806 0.54878 0.23285 0.0
C730 C 0.25664 0.54679 0.24823 0.0
C731 C 0.22423 0.54296 0.29308 0.0
C732 C 0.23552 0.54454 0.27768 0.0
H733 H 0.25772 0.54841 0.19382 0.0
H734 H 0.23884 0.54354 0.21874 0.0
H735 H 0.28164 0.5135 0.25962 0.0
H736 H 0.23445 0.55016 0.33199 0.0
H737 H 0.25329 0.55236 0.30694 0.0
C738 C 0.7308 0.52054 0.20641 0.0
C739 C 0.70783 0.51929 0.20588 0.0
C740 C 0.74184 0.52188 0.22072 0.0
C741 C 0.73313 0.54357 0.26279 0.0
H742 H 0.78643 0.48664 0.26844 0.0
C743 C 0.77303 0.52142 0.32343 0.0
C744 C 0.79593 0.52444 0.32425 0.0
C745 C 0.7623 0.5211 0.30901 0.0
C746 C 0.77166 0.50297 0.26702 0.0
H747 H 0.67865 0.51949 0.22024 0.0
H748 H 0.69771 0.5206 0.24486 0.0
H749 H 0.76819 0.48621 0.24323 0.0
H750 H 0.82525 0.53051 0.31023 0.0
H751 H 0.80666 0.52946 0.28536 0.0
H752 H 0.73651 0.55999 0.28664 0.0
C753 C 0.70728 0.521 0.23428 0.0
C754 C 0.76122 0.50283 0.25253 0.0
C755 C 0.6963 0.51976 0.22005 0.0
C756 C 0.8077 0.52726 0.31021 0.0
C757 C 0.79701 0.52674 0.29585 0.0
C758 C 0.74351 0.54355 0.2773 0.0
C759 C 0.73021 0.52208 0.23486 0.0
C760 C 0.74176 0.52305 0.2502 0.0
C761 C 0.77418 0.52363 0.29503 0.0
C762 C 0.76291 0.52325 0.27962 0.0
H763 H 0.74029 0.52006 0.19581 0.0
H764 H 0.7595 0.5231 0.22067 0.0
H765 H 0.71841 0.56006 0.26141 0.0
H766 H 0.76336 0.51883 0.33389 0.0
H767 H 0.74469 0.51829 0.3088 0.0
C768 C 0.23463 0.14996 0.13972 0.0
C769 C 0.22641 0.13608 0.15383 0.0
C770 C 0.24267 0.18674 0.13884 0.0
C771 C 0.26108 0.26817 0.16212 0.0
H772 H 0.23232 0.32803 0.13052 0.0
C773 C 0.26673 0.4278 0.16485 0.0
C774 C 0.27093 0.44657 0.15086 0.0
C775 C 0.2595 0.39063 0.16477 0.0
C776 C 0.2407 0.31176 0.13931 0.0
H777 H 0.22143 0.14835 0.1782 0.0
H778 H 0.23634 0.21169 0.17687 0.0
H779 H 0.22736 0.26005 0.1308 0.0
H780 H 0.2701 0.44211 0.1258 0.0
H781 H 0.25771 0.37699 0.12553 0.0
H782 H 0.27467 0.31938 0.17058 0.0
C783 C 0.23646 0.19459 0.16646 0.0
C784 C 0.23792 0.27274 0.13943 0.0
C785 C 0.22806 0.15824 0.16726 0.0
C786 C 0.26633 0.42851 0.13674 0.0
C787 C 0.25943 0.39101 0.13663 0.0
C788 C 0.26403 0.30703 0.16193 0.0
C789 C 0.24295 0.20984 0.15212 0.0
C790 C 0.24788 0.25059 0.15095 0.0
C791 C 0.25692 0.37106 0.15066 0.0
C792 C 0.25362 0.32952 0.15067 0.0
H793 H 0.23306 0.13369 0.12914 0.0
H794 H 0.24774 0.19767 0.12766 0.0
H795 H 0.26911 0.25182 0.17106 0.0
H796 H 0.27054 0.44101 0.17587 0.0
H797 H 0.25709 0.37665 0.1758 0.0
C798 C 0.73439 0.64303 0.13913 0.0
C799 C 0.72827 0.62748 0.15347 0.0
C800 C 0.74205 0.68006 0.13836 0.0
C801 C 0.76266 0.75975 0.16189 0.0
H802 H 0.73017 0.82178 0.13294 0.0
C803 C 0.76659 0.91886 0.16752 0.0
C804 C 0.76963 0.93933 0.15378 0.0
C805 C 0.7597 0.88155 0.16697 0.0
C806 C 0.73956 0.80489 0.14098 0.0
H807 H 0.72643 0.63718 0.17824 0.0
H808 H 0.74069 0.70097 0.17705 0.0
H809 H 0.7258 0.75365 0.13233 0.0
H810 H 0.76671 0.93781 0.12873 0.0
H811 H 0.75485 0.87238 0.12765 0.0
H812 H 0.77658 0.81054 0.17051 0.0
C813 C 0.73956 0.68494 0.16638 0.0
C814 C 0.73713 0.7658 0.14058 0.0
C815 C 0.73156 0.6483 0.1671 0.0
C816 C 0.76396 0.92285 0.13952 0.0
C817 C 0.75738 0.88519 0.13892 0.0
C818 C 0.76521 0.79869 0.16222 0.0
C819 C 0.74398 0.70183 0.15195 0.0
C820 C 0.74845 0.74283 0.15117 0.0
C821 C 0.75621 0.86355 0.15261 0.0
C822 C 0.75342 0.82192 0.15196 0.0
H823 H 0.7314 0.62786 0.12842 0.0
H824 H 0.7455 0.69223 0.12709 0.0
H825 H 0.77177 0.74283 0.17008 0.0
H826 H 0.77115 0.93086 0.17863 0.0
H827 H 0.7583 0.86622 0.17778 0.0
C828 C 0.23151 0.90674 0.86191 0.0
C829 C 0.2293 0.92934 0.87517 0.0
C830 C 0.23929 0.87006 0.86315 0.0
C831 C 0.23879 0.79302 0.8912 0.0
H832 H 0.27283 0.74206 0.85964 0.0
C833 C 0.2646 0.63553 0.8939 0.0
C834 C 0.26698 0.61665 0.87968 0.0
C835 C 0.25839 0.67338 0.89419 0.0
C836 C 0.26299 0.75571 0.86844 0.0
H837 H 0.23452 0.93225 0.90002 0.0
H838 H 0.24843 0.86793 0.90224 0.0
H839 H 0.26934 0.80999 0.85883 0.0
H840 H 0.26338 0.62129 0.85477 0.0
H841 H 0.25139 0.68654 0.85523 0.0
H842 H 0.23226 0.73853 0.9007 0.0
C843 C 0.2441 0.87861 0.89087 0.0
C844 C 0.26117 0.79476 0.86804 0.0
C845 C 0.23656 0.91564 0.88957 0.0
C846 C 0.26119 0.63507 0.86589 0.0
C847 C 0.25481 0.67268 0.86616 0.0
C848 C 0.24059 0.75383 0.89159 0.0
C849 C 0.24473 0.85496 0.87775 0.0
C850 C 0.24882 0.81392 0.87928 0.0
C851 C 0.25452 0.6929 0.88022 0.0
C852 C 0.25244 0.73462 0.88006 0.0
H853 H 0.22559 0.91647 0.85074 0.0
H854 H 0.2394 0.85268 0.85283 0.0
H855 H 0.22887 0.80683 0.89991 0.0
H856 H 0.2697 0.62223 0.90463 0.0
H857 H 0.25839 0.68802 0.90522 0.0
C858 C 0.73612 0.44026 0.867 0.0
C859 C 0.73042 0.45819 0.88093 0.0
C860 C 0.74418 0.40358 0.86713 0.0
C861 C 0.73791 0.31799 0.88991 0.0
H862 H 0.78233 0.27879 0.86227 0.0
C863 C 0.76573 0.16156 0.88899 0.0
C864 C 0.77382 0.14742 0.87489 0.0
C865 C 0.75882 0.199 0.89003 0.0
C866 C 0.76959 0.2891 0.86987 0.0
H867 H 0.72915 0.45265 0.90594 0.0
H868 H 0.74347 0.38839 0.90627 0.0
H869 H 0.77692 0.34623 0.8642 0.0
H870 H 0.7793 0.15977 0.8506 0.0
H871 H 0.76596 0.22404 0.8521 0.0
H872 H 0.73023 0.26082 0.89534 0.0
C873 C 0.74188 0.40278 0.89524 0.0
C874 C 0.76667 0.32787 0.87108 0.0
C875 C 0.73411 0.43974 0.89509 0.0
C876 C 0.77292 0.17 0.86157 0.0
C877 C 0.76571 0.20707 0.86253 0.0
C878 C 0.74072 0.2791 0.88862 0.0
C879 C 0.74621 0.38383 0.88121 0.0
C880 C 0.7507 0.3428 0.88102 0.0
C881 C 0.75973 0.22273 0.87694 0.0
C882 C 0.75644 0.2641 0.87844 0.0
H883 H 0.73276 0.45357 0.85593 0.0
H884 H 0.74718 0.38974 0.85613 0.0
H885 H 0.72522 0.3286 0.8975 0.0
H886 H 0.76674 0.14493 0.89951 0.0
H887 H 0.75434 0.20997 0.90133 0.0
C888 C 0.79864 0.90883 0.88056 0.0
C889 C 0.79086 0.94266 0.88695 0.0
C890 C 0.78931 0.87453 0.88459 0.0
C891 C 0.73892 0.83156 0.89896 0.0
H892 H 0.77603 0.74444 0.90474 0.0
C893 C 0.70101 0.68695 0.91005 0.0
C894 C 0.70968 0.6568 0.90154 0.0
C895 C 0.71227 0.72089 0.91117 0.0
C896 C 0.76541 0.76838 0.90306 0.0
H897 H 0.76698 0.96668 0.90264 0.0
H898 H 0.75033 0.90623 0.9096 0.0
H899 H 0.79246 0.80624 0.90128 0.0
H900 H 0.73749 0.63782 0.88817 0.0
H901 H 0.7572 0.69745 0.88987 0.0
H902 H 0.71189 0.7938 0.90022 0.0
C903 C 0.7638 0.9066 0.90144 0.0
C904 C 0.77483 0.80387 0.90112 0.0
C905 C 0.77332 0.9412 0.89748 0.0
C906 C 0.73055 0.66047 0.89496 0.0
C907 C 0.74178 0.69474 0.89591 0.0
C908 C 0.7295 0.79608 0.90084 0.0
C909 C 0.7718 0.87283 0.89508 0.0
C910 C 0.76171 0.83583 0.8988 0.0
C911 C 0.7324 0.72583 0.90359 0.0
C912 C 0.74261 0.76388 0.90272 0.0
H913 H 0.81209 0.90863 0.87238 0.0
H914 H 0.79562 0.84927 0.87922 0.0
H915 H 0.72834 0.85544 0.897 0.0
H916 H 0.685 0.6848 0.91535 0.0
H917 H 0.70481 0.7437 0.91756 0.0
C918 C 0.29832 0.3841 0.90511 0.0
C919 C 0.2886 0.41697 0.89929 0.0
C920 C 0.2864 0.35087 0.90639 0.0
C921 C 0.23945 0.3042 0.88819 0.0
H922 H 0.24969 0.22818 0.91962 0.0
C923 C 0.19279 0.1651 0.88684 0.0
C924 C 0.20448 0.13175 0.88952 0.0
C925 C 0.20204 0.19998 0.89 0.0
C926 C 0.24681 0.24899 0.91069 0.0
H927 H 0.2583 0.44127 0.89113 0.0
H928 H 0.23723 0.38307 0.89352 0.0
H929 H 0.26634 0.29019 0.92238 0.0
H930 H 0.23487 0.10902 0.89827 0.0
H931 H 0.25138 0.17056 0.90364 0.0
H932 H 0.2203 0.26309 0.87634 0.0
C933 C 0.25427 0.38298 0.89689 0.0
C934 C 0.25628 0.28462 0.91229 0.0
C935 C 0.26624 0.41645 0.89568 0.0
C936 C 0.22548 0.13418 0.89605 0.0
C937 C 0.23487 0.16943 0.89915 0.0
C938 C 0.23002 0.26871 0.8866 0.0
C939 C 0.26439 0.34949 0.90183 0.0
C940 C 0.25282 0.31265 0.901 0.0
C941 C 0.22337 0.20279 0.89585 0.0
C942 C 0.23359 0.24055 0.89779 0.0
H943 H 0.3155 0.38357 0.90809 0.0
H944 H 0.29484 0.32577 0.91013 0.0
H945 H 0.23682 0.32463 0.87907 0.0
H946 H 0.17641 0.16442 0.8821 0.0
H947 H 0.19245 0.22489 0.88771 0.0
C948 C 0.72861 0.42579 0.13334 0.0
C949 C 0.7064 0.42566 0.13741 0.0
C950 C 0.73959 0.39187 0.13044 0.0
C951 C 0.73079 0.29023 0.12197 0.0
H952 H 0.78518 0.27678 0.14422 0.0
C953 C 0.76856 0.14337 0.13491 0.0
C954 C 0.79137 0.14094 0.13616 0.0
C955 C 0.75848 0.17828 0.13236 0.0
C956 C 0.77023 0.28005 0.13765 0.0
H957 H 0.67803 0.39006 0.14072 0.0
H958 H 0.69697 0.33159 0.13562 0.0
H959 H 0.76776 0.33797 0.14399 0.0
H960 H 0.82157 0.17234 0.13448 0.0
H961 H 0.80425 0.23234 0.12943 0.0
H962 H 0.73314 0.23211 0.11577 0.0
C963 C 0.70603 0.35758 0.13468 0.0
C964 C 0.76023 0.31533 0.13753 0.0
C965 C 0.6952 0.39121 0.13774 0.0
C966 C 0.80391 0.17344 0.13381 0.0
C967 C 0.79394 0.20798 0.13105 0.0
C968 C 0.74087 0.25492 0.122 0.0
C969 C 0.72846 0.35729 0.13131 0.0
C970 C 0.74023 0.32079 0.12988 0.0
C971 C 0.77107 0.21126 0.13083 0.0
C972 C 0.76065 0.2492 0.12999 0.0
H973 H 0.73768 0.45186 0.133 0.0
H974 H 0.75686 0.39263 0.12774 0.0
H975 H 0.71546 0.29356 0.11583 0.0
H976 H 0.75851 0.11878 0.13675 0.0
H977 H 0.74082 0.17961 0.13232 0.0
C978 C 0.22849 0.93406 0.13248 0.0
C979 C 0.20695 0.93402 0.13811 0.0
C980 C 0.23921 0.90004 0.1293 0.0
C981 C 0.22963 0.79809 0.12244 0.0
H982 H 0.28665 0.78559 0.14117 0.0
C983 C 0.26846 0.65182 0.13444 0.0
C984 C 0.29132 0.6492 0.13448 0.0
C985 C 0.25825 0.68666 0.13205 0.0
C986 C 0.27093 0.78857 0.13555 0.0
H987 H 0.17944 0.89834 0.144 0.0
H988 H 0.19792 0.83974 0.13839 0.0
H989 H 0.26928 0.84683 0.14152 0.0
H990 H 0.32137 0.68 0.13081 0.0
H991 H 0.30375 0.73988 0.12596 0.0
H992 H 0.23116 0.73969 0.11661 0.0
C993 C 0.20665 0.86574 0.13645 0.0
C994 C 0.26096 0.82387 0.13578 0.0
C995 C 0.19611 0.89947 0.13981 0.0
C996 C 0.30369 0.68131 0.13106 0.0
C997 C 0.29357 0.71578 0.12842 0.0
C998 C 0.23968 0.76277 0.1221 0.0
C999 C 0.22844 0.86545 0.13141 0.0
C1000 C 0.24004 0.82898 0.12946 0.0
C1001 C 0.27075 0.71936 0.12945 0.0
C1002 C 0.26038 0.75737 0.12884 0.0
H1003 H 0.23726 0.96021 0.13104 0.0
H1004 H 0.25599 0.90075 0.12533 0.0
H1005 H 0.21356 0.80116 0.11733 0.0
H1006 H 0.25857 0.62751 0.13716 0.0
H1007 H 0.24065 0.68822 0.133 0.0
C1008 C 0.22504 0.67446 0.665 0.0
C1009 C 0.2243 0.65137 0.65181 0.0
C1010 C 0.23318 0.71094 0.664 0.0
C1011 C 0.2362 0.78713 0.63587 0.0
H1012 H 0.26894 0.83736 0.66831 0.0
C1013 C 0.26407 0.94327 0.63293 0.0
C1014 C 0.26636 0.96256 0.64705 0.0
C1015 C 0.25739 0.90566 0.6328 0.0
C1016 C 0.25944 0.82396 0.65926 0.0
H1017 H 0.23232 0.64744 0.62737 0.0
H1018 H 0.24671 0.71156 0.62555 0.0
H1019 H 0.26419 0.76967 0.66934 0.0
H1020 H 0.2622 0.95896 0.67195 0.0
H1021 H 0.24925 0.89426 0.67175 0.0
H1022 H 0.2311 0.84158 0.62593 0.0
C1023 C 0.24105 0.70132 0.6367 0.0
C1024 C 0.25693 0.78504 0.65978 0.0
C1025 C 0.2332 0.66446 0.63779 0.0
C1026 C 0.26009 0.94485 0.66089 0.0
C1027 C 0.25317 0.90751 0.66077 0.0
C1028 C 0.23861 0.82621 0.63538 0.0
C1029 C 0.2404 0.72536 0.64969 0.0
C1030 C 0.24511 0.76616 0.64819 0.0
C1031 C 0.25288 0.8868 0.64683 0.0
C1032 C 0.25003 0.84521 0.64719 0.0
H1033 H 0.21786 0.66518 0.67586 0.0
H1034 H 0.23229 0.72871 0.6742 0.0
H1035 H 0.2267 0.77349 0.62687 0.0
H1036 H 0.26952 0.95602 0.62217 0.0
H1037 H 0.25745 0.89068 0.62185 0.0
C1038 C 0.76612 0.40685 0.66729 0.0
C1039 C 0.7683 0.42919 0.65396 0.0
C1040 C 0.75763 0.3706 0.66625 0.0
C1041 C 0.7565 0.29305 0.6387 0.0
H1042 H 0.72049 0.24521 0.66996 0.0
C1043 C 0.72891 0.13659 0.63606 0.0
C1044 C 0.72532 0.11823 0.65025 0.0
C1045 C 0.7354 0.17432 0.63584 0.0
C1046 C 0.73089 0.25793 0.66126 0.0
H1047 H 0.76239 0.43205 0.62919 0.0
H1048 H 0.74744 0.36833 0.62729 0.0
H1049 H 0.72559 0.31287 0.6706 0.0
H1050 H 0.7269 0.12361 0.67525 0.0
H1051 H 0.73949 0.18851 0.67496 0.0
H1052 H 0.76222 0.23797 0.62955 0.0
C1053 C 0.75223 0.37899 0.63858 0.0
C1054 C 0.7336 0.29684 0.66155 0.0
C1055 C 0.76041 0.41566 0.6397 0.0
C1056 C 0.72999 0.13705 0.66416 0.0
C1057 C 0.73673 0.17448 0.66397 0.0
C1058 C 0.7539 0.25399 0.63845 0.0
C1059 C 0.75152 0.35562 0.65177 0.0
C1060 C 0.74662 0.31486 0.65038 0.0
C1061 C 0.7384 0.19422 0.64984 0.0
C1062 C 0.7413 0.23583 0.64987 0.0
H1063 H 0.7725 0.41645 0.67835 0.0
H1064 H 0.75745 0.35334 0.67661 0.0
H1065 H 0.76692 0.30602 0.63006 0.0
H1066 H 0.72472 0.12295 0.6252 0.0
H1067 H 0.73643 0.18852 0.62475 0.0
C1068 C 0.22788 0.40713 0.3588 0.0
C1069 C 0.22629 0.42912 0.37229 0.0
C1070 C 0.23617 0.37067 0.3595 0.0
C1071 C 0.23765 0.29194 0.38635 0.0
H1072 H 0.27427 0.24572 0.35502 0.0
C1073 C 0.26603 0.136 0.38874 0.0
C1074 C 0.27077 0.1181 0.37461 0.0
C1075 C 0.25913 0.17352 0.38891 0.0
C1076 C 0.26366 0.25792 0.36373 0.0
H1077 H 0.23294 0.43099 0.39698 0.0
H1078 H 0.24744 0.36687 0.39828 0.0
H1079 H 0.26864 0.31325 0.35467 0.0
H1080 H 0.2706 0.12402 0.34962 0.0
H1081 H 0.2571 0.18835 0.34976 0.0
H1082 H 0.23215 0.23654 0.39518 0.0
C1083 C 0.2424 0.37802 0.38713 0.0
C1084 C 0.26067 0.2968 0.3636 0.0
C1085 C 0.23447 0.4149 0.38635 0.0
C1086 C 0.26668 0.13708 0.36065 0.0
C1087 C 0.25944 0.17426 0.36078 0.0
C1088 C 0.24047 0.25291 0.38639 0.0
C1089 C 0.24262 0.3551 0.37379 0.0
C1090 C 0.24752 0.31427 0.37484 0.0
C1091 C 0.25672 0.19368 0.37492 0.0
C1092 C 0.25335 0.23527 0.37497 0.0
H1093 H 0.22125 0.41722 0.3479 0.0
H1094 H 0.236 0.35375 0.34904 0.0
H1095 H 0.22713 0.30452 0.39503 0.0
H1096 H 0.26969 0.12227 0.39967 0.0
H1097 H 0.2573 0.18738 0.40003 0.0
C1098 C 0.76429 0.65091 0.38811 0.0
C1099 C 0.77236 0.63609 0.37412 0.0
C1100 C 0.75642 0.68784 0.38867 0.0
C1101 C 0.73778 0.76798 0.36483 0.0
H1102 H 0.7671 0.8296 0.39559 0.0
C1103 C 0.73073 0.92747 0.36121 0.0
C1104 C 0.72715 0.94683 0.37517 0.0
C1105 C 0.73822 0.89044 0.36137 0.0
C1106 C 0.75855 0.81286 0.38703 0.0
H1107 H 0.77734 0.64698 0.34964 0.0
H1108 H 0.76263 0.71057 0.35041 0.0
H1109 H 0.77223 0.76166 0.3958 0.0
H1110 H 0.7295 0.94354 0.40021 0.0
H1111 H 0.74224 0.87868 0.40061 0.0
H1112 H 0.72375 0.8186 0.35616 0.0
C1113 C 0.76251 0.69406 0.36098 0.0
C1114 C 0.76144 0.77386 0.3872 0.0
C1115 C 0.77077 0.65755 0.36049 0.0
C1116 C 0.73271 0.92951 0.38927 0.0
C1117 C 0.73983 0.89212 0.38946 0.0
C1118 C 0.73467 0.80683 0.36477 0.0
C1119 C 0.75614 0.71019 0.37518 0.0
C1120 C 0.75127 0.75104 0.37599 0.0
C1121 C 0.74169 0.87152 0.37553 0.0
C1122 C 0.74525 0.82998 0.37572 0.0
H1123 H 0.76585 0.63523 0.39884 0.0
H1124 H 0.75145 0.69946 0.39975 0.0
H1125 H 0.7296 0.75111 0.35612 0.0
H1126 H 0.72621 0.94008 0.35021 0.0
H1127 H 0.74015 0.87606 0.35037 0.0
C1128 C 0.76886 0.43378 0.39382 0.0
C1129 C 0.79124 0.43373 0.39023 0.0
C1130 C 0.75768 0.39977 0.39615 0.0
C1131 C 0.76586 0.29811 0.4045 0.0
H1132 H 0.71245 0.28483 0.38106 0.0
C1133 C 0.7275 0.15101 0.39264 0.0
C1134 C 0.70474 0.14888 0.39086 0.0
C1135 C 0.73776 0.18597 0.39471 0.0
C1136 C 0.7271 0.28803 0.38797 0.0
H1137 H 0.81963 0.39807 0.3871 0.0
H1138 H 0.80035 0.33944 0.39131 0.0
H1139 H 0.7301 0.34585 0.38152 0.0
H1140 H 0.67479 0.18126 0.391 0.0
H1141 H 0.69235 0.24134 0.39525 0.0
H1142 H 0.76292 0.24024 0.41093 0.0
C1143 C 0.79131 0.36546 0.39227 0.0
C1144 C 0.73725 0.32321 0.3882 0.0
C1145 C 0.80234 0.39918 0.38973 0.0
C1146 C 0.69241 0.18199 0.39208 0.0
C1147 C 0.70254 0.21663 0.39439 0.0
C1148 C 0.7556 0.26293 0.4044 0.0
C1149 C 0.76877 0.36515 0.39522 0.0
C1150 C 0.7569 0.32864 0.39631 0.0
C1151 C 0.72542 0.21943 0.39526 0.0
C1152 C 0.73614 0.25723 0.396 0.0
H1153 H 0.75985 0.4599 0.39427 0.0
H1154 H 0.74032 0.40051 0.39852 0.0
H1155 H 0.7809 0.3014 0.41098 0.0
H1156 H 0.73742 0.12597 0.39167 0.0
H1157 H 0.75541 0.18684 0.39525 0.0
C1158 C 0.19529 0.66589 0.3859 0.0
C1159 C 0.20603 0.63133 0.38792 0.0
C1160 C 0.20595 0.69975 0.3889 0.0
C1161 C 0.26051 0.74158 0.3896 0.0
H1162 H 0.2307 0.82639 0.40827 0.0
C1163 C 0.30413 0.88351 0.39525 0.0
C1164 C 0.29211 0.91613 0.39197 0.0
C1165 C 0.29368 0.84911 0.39743 0.0
C1166 C 0.23922 0.80316 0.4029 0.0
H1167 H 0.23636 0.60539 0.39511 0.0
H1168 H 0.25525 0.665 0.40021 0.0
H1169 H 0.21281 0.7652 0.40744 0.0
H1170 H 0.25957 0.93857 0.389 0.0
H1171 H 0.24111 0.87807 0.39239 0.0
H1172 H 0.28655 0.77942 0.38449 0.0
C1173 C 0.23847 0.66564 0.39627 0.0
C1174 C 0.22899 0.76797 0.40249 0.0
C1175 C 0.22764 0.6315 0.39343 0.0
C1176 C 0.26923 0.91393 0.39163 0.0
C1177 C 0.2587 0.87917 0.39358 0.0
C1178 C 0.27066 0.77676 0.38989 0.0
C1179 C 0.22777 0.70021 0.39389 0.0
C1180 C 0.23942 0.73679 0.39569 0.0
C1181 C 0.27086 0.84605 0.3961 0.0
C1182 C 0.26015 0.80821 0.39645 0.0
H1183 H 0.1786 0.66694 0.38177 0.0
H1184 H 0.19725 0.7257 0.38677 0.0
H1185 H 0.26888 0.71842 0.38403 0.0
H1186 H 0.3218 0.8844 0.39578 0.0
H1187 H 0.30363 0.8247 0.39985 0.0
C1188 C 0.80057 0.66532 0.6451 0.0
C1189 C 0.79102 0.63117 0.64047 0.0
C1190 C 0.79097 0.69959 0.64128 0.0
C1191 C 0.73813 0.74218 0.63203 0.0
H1192 H 0.77348 0.82882 0.62146 0.0
C1193 C 0.6978 0.88575 0.62376 0.0
C1194 C 0.70808 0.91654 0.63084 0.0
C1195 C 0.70889 0.85189 0.62172 0.0
C1196 C 0.76337 0.80502 0.6245 0.0
H1197 H 0.76395 0.60653 0.62789 0.0
H1198 H 0.74689 0.66686 0.6213 0.0
H1199 H 0.79054 0.76716 0.62376 0.0
H1200 H 0.73838 0.93674 0.64066 0.0
H1201 H 0.75784 0.87715 0.63741 0.0
H1202 H 0.7111 0.7799 0.63332 0.0
C1203 C 0.76191 0.66682 0.62795 0.0
C1204 C 0.77314 0.7696 0.62578 0.0
C1205 C 0.77169 0.63227 0.63167 0.0
C1206 C 0.73017 0.91356 0.63499 0.0
C1207 C 0.74126 0.87931 0.63315 0.0
C1208 C 0.72838 0.77756 0.63083 0.0
C1209 C 0.77143 0.70091 0.63278 0.0
C1210 C 0.7607 0.7378 0.62978 0.0
C1211 C 0.73047 0.84761 0.627 0.0
C1212 C 0.74088 0.80961 0.62721 0.0
H1213 H 0.81551 0.66575 0.65184 0.0
H1214 H 0.79861 0.72512 0.64541 0.0
H1215 H 0.7281 0.7185 0.63538 0.0
H1216 H 0.68079 0.88738 0.62037 0.0
H1217 H 0.70021 0.8286 0.61651 0.0
C1218 C 0.19957 0.41312 0.64746 0.0
C1219 C 0.20688 0.4467 0.64061 0.0
C1220 C 0.20875 0.3787 0.64341 0.0
C1221 C 0.25825 0.33517 0.62771 0.0
H1222 H 0.22077 0.24799 0.6235 0.0
C1223 C 0.29523 0.1899 0.61604 0.0
C1224 C 0.28703 0.16005 0.62495 0.0
C1225 C 0.28402 0.22395 0.61517 0.0
C1226 C 0.2315 0.27194 0.62474 0.0
H1227 H 0.22981 0.47016 0.62408 0.0
H1228 H 0.24619 0.40951 0.61707 0.0
H1229 H 0.2046 0.3099 0.62721 0.0
H1230 H 0.26005 0.14178 0.63933 0.0
H1231 H 0.24046 0.20151 0.63802 0.0
H1232 H 0.28516 0.2973 0.62575 0.0
C1233 C 0.23321 0.41017 0.62562 0.0
C1234 C 0.22223 0.3075 0.62683 0.0
C1235 C 0.22384 0.44488 0.62961 0.0
C1236 C 0.26664 0.16415 0.63222 0.0
C1237 C 0.25546 0.1985 0.63148 0.0
C1238 C 0.26753 0.29961 0.62569 0.0
C1239 C 0.22563 0.37663 0.63242 0.0
C1240 C 0.23549 0.33949 0.62859 0.0
C1241 C 0.2644 0.22927 0.62337 0.0
C1242 C 0.2543 0.26739 0.62437 0.0
H1243 H 0.18659 0.41321 0.65602 0.0
H1244 H 0.20279 0.35363 0.64912 0.0
H1245 H 0.26894 0.35908 0.62923 0.0
H1246 H 0.31086 0.18745 0.61022 0.0
H1247 H 0.29113 0.24653 0.60845 0.0
C1248 C 0.92057 0.04576 0.14444 0.0
C1249 C 0.90657 0.04725 0.13153 0.0
C1250 C 0.94298 0.04145 0.14242 0.0
C1251 C 0.98858 0.0492 0.11488 0.0
H1252 H 0.01493 0.97694 0.14291 0.0
C1253 C 0.08152 0.01464 0.11489 0.0
C1254 C 0.09089 0.01786 0.12974 0.0
C1255 C 0.05875 0.01405 0.1132 0.0
C1256 C 0.00781 0.99713 0.13498 0.0
H1257 H 0.90508 0.04747 0.10637 0.0
H1258 H 0.94463 0.04 0.10279 0.0
H1259 H 0.97561 0.98679 0.14348 0.0
H1260 H 0.08418 0.02141 0.15441 0.0
H1261 H 0.04464 0.01985 0.15152 0.0
H1262 H 0.02106 0.05999 0.10665 0.0
C1263 C 0.93814 0.04215 0.11447 0.0
C1264 C 0.98532 1.00292 0.13535 0.0
C1265 C 0.91557 0.04656 0.11651 0.0
C1266 C 0.07729 0.01894 0.14285 0.0
C1267 C 0.05468 0.01786 0.14118 0.0
C1268 C 0.01119 0.04335 0.1145 0.0
C1269 C 0.95195 0.03839 0.12744 0.0
C1270 C 0.97553 0.02981 0.12565 0.0
C1271 C 0.04515 0.016 0.12635 0.0
C1272 C 0.02106 0.01801 0.12487 0.0
H1273 H 0.91406 0.04681 0.15615 0.0
H1274 H 0.95327 0.03973 0.15264 0.0
H1275 H 0.98146 0.07006 0.10726 0.0
H1276 H 0.09175 0.01404 0.10463 0.0
H1277 H 0.05179 0.01245 0.10164 0.0
C1278 C 0.08216 0.03878 0.91172 0.0
C1279 C 0.09126 0.03638 0.89676 0.0
C1280 C 0.05953 0.03541 0.91379 0.0
C1281 C 0.01149 0.9957 0.89369 0.0
H1282 H 0.97728 0.05832 0.92135 0.0
C1283 C 0.91992 0.01878 0.88618 0.0
C1284 C 0.90646 0.01913 0.89935 0.0
C1285 C 0.94249 0.01599 0.88775 0.0
C1286 C 0.98671 0.04018 0.9138 0.0
H1287 H 0.08398 0.03127 0.87221 0.0
H1288 H 0.04468 0.02626 0.87573 0.0
H1289 H 0.01704 0.06566 0.92046 0.0
H1290 H 0.90569 0.01634 0.92448 0.0
H1291 H 0.94563 0.01196 0.92731 0.0
H1292 H 0.98121 0.97116 0.88662 0.0
C1293 C 0.0549 0.02947 0.88592 0.0
C1294 C 0.00943 0.04443 0.91326 0.0
C1295 C 0.07737 0.03262 0.88389 0.0
C1296 C 0.91585 0.01578 0.91417 0.0
C1297 C 0.93859 0.01357 0.91578 0.0
C1298 C 0.98888 0.99161 0.89417 0.0
C1299 C 0.04575 0.02971 0.90091 0.0
C1300 C 0.02198 0.02294 0.90286 0.0
C1301 C 0.9521 0.014 0.90255 0.0
C1302 C 0.9762 0.01445 0.90392 0.0
H1303 H 0.09258 0.04147 0.92183 0.0
H1304 H 0.05295 0.03577 0.92547 0.0
H1305 H 0.02075 0.97796 0.88587 0.0
H1306 H 0.91296 0.02153 0.87465 0.0
H1307 H 0.9525 0.01684 0.87736 0.0
C1308 C 0.91985 0.53309 0.64434 0.0
C1309 C 0.9061 0.53955 0.63158 0.0
C1310 C 0.94236 0.53058 0.64233 0.0
C1311 C 0.98806 0.55134 0.61576 0.0
H1312 H 0.0163 0.47333 0.63994 0.0
C1313 C 0.08152 0.52251 0.61353 0.0
C1314 C 0.09111 0.52289 0.62835 0.0
C1315 C 0.05876 0.52076 0.61201 0.0
C1316 C 0.00863 0.49514 0.63308 0.0
H1317 H 0.90502 0.5501 0.60681 0.0
H1318 H 0.94471 0.54543 0.60319 0.0
H1319 H 0.97676 0.47989 0.64088 0.0
H1320 H 0.08498 0.52072 0.65309 0.0
H1321 H 0.04535 0.51674 0.6505 0.0
H1322 H 0.0202 0.56668 0.60813 0.0
C1323 C 0.93801 0.54251 0.61478 0.0
C1324 C 0.98601 0.4991 0.63369 0.0
C1325 C 0.91535 0.54528 0.61683 0.0
C1326 C 0.07784 0.52011 0.64157 0.0
C1327 C 0.05523 0.51779 0.64006 0.0
C1328 C 0.01078 0.54721 0.61509 0.0
C1329 C 0.95168 0.53412 0.62747 0.0
C1330 C 0.9755 0.52793 0.6254 0.0
C1331 C 0.04542 0.51876 0.6253 0.0
C1332 C 0.0213 0.51969 0.62408 0.0
H1333 H 0.9131 0.52908 0.65587 0.0
H1334 H 0.95246 0.52525 0.65243 0.0
H1335 H 0.98046 0.57383 0.60926 0.0
H1336 H 0.09156 0.52505 0.60322 0.0
H1337 H 0.05158 0.52144 0.60051 0.0
C1338 C 0.91804 0.56047 0.40819 0.0
C1339 C 0.90631 0.5272 0.40544 0.0
C1340 C 0.94053 0.55961 0.41075 0.0
C1341 C 0.98833 0.49916 0.40293 0.0
H1342 H 0.01877 0.57494 0.42699 0.0
C1343 C 0.08161 0.49944 0.40813 0.0
C1344 C 0.09177 0.53332 0.4039 0.0
C1345 C 0.05923 0.49811 0.41104 0.0
C1346 C 0.01045 0.55367 0.42023 0.0
H1347 H 0.90891 0.46664 0.40428 0.0
H1348 H 0.94806 0.46492 0.40943 0.0
H1349 H 0.97892 0.57187 0.42784 0.0
H1350 H 0.08658 0.59285 0.4004 0.0
H1351 H 0.04729 0.59059 0.40576 0.0
H1352 H 0.01987 0.48089 0.39542 0.0
C1353 C 0.93995 0.49189 0.40906 0.0
C1354 C 0.98762 0.55191 0.42065 0.0
C1355 C 0.91743 0.4928 0.40632 0.0
C1356 C 0.07924 0.56635 0.40365 0.0
C1357 C 0.05678 0.56505 0.4067 0.0
C1358 C 0.0111 0.50061 0.40269 0.0
C1359 C 0.95191 0.52538 0.41089 0.0
C1360 C 0.97623 0.525 0.4118 0.0
C1361 C 0.04649 0.53069 0.40999 0.0
C1362 C 0.02238 0.52816 0.41116 0.0
H1363 H 0.90994 0.58746 0.40801 0.0
H1364 H 0.94906 0.58603 0.41199 0.0
H1365 H 0.98024 0.47857 0.39569 0.0
H1366 H 0.0909 0.47364 0.40886 0.0
H1367 H 0.05178 0.47139 0.41384 0.0
C1368 C 0.41896 0.08191 0.6295 0.0
C1369 C 0.40604 0.06109 0.63992 0.0
C1370 C 0.44129 0.07443 0.62794 0.0
C1371 C 0.48268 1.00057 0.63675 0.0
H1372 H 0.52395 0.08108 0.62942 0.0
C1373 C 0.57559 0.99087 0.64783 0.0
C1374 C 0.58937 1.00467 0.63612 0.0
C1375 C 0.55298 0.995 0.64661 0.0
C1376 C 0.51254 0.0583 0.63129 0.0
H1377 H 0.40684 0.01595 0.65689 0.0
H1378 H 0.44564 1.00478 0.65492 0.0
H1379 H 0.48506 0.09525 0.63117 0.0
H1380 H 0.59053 0.03305 0.61388 0.0
H1381 H 0.55083 0.04099 0.61188 0.0
H1382 H 0.51046 0.96402 0.6376 0.0
C1383 C 0.43849 0.02615 0.64757 0.0
C1384 C 0.49025 0.06634 0.63225 0.0
C1385 C 0.41618 0.0332 0.64896 0.0
C1386 C 0.58017 0.02183 0.62297 0.0
C1387 C 0.55756 0.02663 0.62189 0.0
C1388 C 0.505 0.99268 0.63606 0.0
C1389 C 0.45132 0.04624 0.63689 0.0
C1390 C 0.47501 0.03762 0.63516 0.0
C1391 C 0.54382 0.01367 0.6338 0.0
C1392 C 0.52012 0.0215 0.63342 0.0
H1393 H 0.41184 0.10389 0.62246 0.0
H1394 H 0.45056 0.09033 0.61949 0.0
H1395 H 0.47146 0.97753 0.63859 0.0
H1396 H 0.58238 0.97768 0.6581 0.0
H1397 H 0.54272 0.98499 0.65599 0.0
C1398 C 0.4187 0.98684 0.40446 0.0
C1399 C 0.40662 0.01942 0.40127 0.0
C1400 C 0.44111 0.9891 0.40759 0.0
C1401 C 0.48589 0.05647 0.41727 0.0
H1402 H 0.52209 0.98326 0.39618 0.0
C1403 C 0.57812 0.07721 0.40379 0.0
C1404 C 0.59156 0.04535 0.40457 0.0
C1405 C 0.55557 0.07399 0.40624 0.0
C1406 C 0.51224 1.00363 0.40236 0.0
H1407 H 0.40831 0.08013 0.3999 0.0
H1408 H 0.44726 0.08396 0.40479 0.0
H1409 H 0.48262 0.97681 0.39541 0.0
H1410 H 0.59231 0.9859 0.40983 0.0
H1411 H 0.55315 0.98035 0.41415 0.0
H1412 H 0.51571 0.08391 0.42375 0.0
C1413 C 0.43956 0.05663 0.40502 0.0
C1414 C 0.48956 0.99986 0.40195 0.0
C1415 C 0.41722 0.05437 0.40196 0.0
C1416 C 0.58227 0.01079 0.40882 0.0
C1417 C 0.55984 0.00759 0.41127 0.0
C1418 C 0.50863 0.06036 0.4176 0.0
C1419 C 0.45189 0.02401 0.4076 0.0
C1420 C 0.47606 0.02642 0.40926 0.0
C1421 C 0.54614 0.03887 0.40954 0.0
C1422 C 0.52204 0.03411 0.41004 0.0
H1423 H 0.41102 0.9595 0.40405 0.0
H1424 H 0.45005 0.96344 0.40977 0.0
H1425 H 0.476 0.07716 0.42322 0.0
H1426 H 0.58486 0.10415 0.40051 0.0
H1427 H 0.54541 0.0986 0.40478 0.0
C1428 C 0.58176 0.52043 0.1176 0.0
C1429 C 0.5907 0.52034 0.13266 0.0
C1430 C 0.55925 0.52559 0.11546 0.0
C1431 C 0.51315 0.56993 0.13536 0.0
H1432 H 0.47565 0.51045 0.1087 0.0
C1433 C 0.42086 0.56402 0.14367 0.0
C1434 C 0.40709 0.5617 0.13067 0.0
C1435 C 0.44345 0.56316 0.14188 0.0
C1436 C 0.486 0.52778 0.11596 0.0
H1437 H 0.58305 0.52242 0.15724 0.0
H1438 H 0.54399 0.53126 0.15354 0.0
H1439 H 0.51499 0.49783 0.10934 0.0
H1440 H 0.40605 0.55775 0.10555 0.0
H1441 H 0.4459 0.55634 0.10237 0.0
H1442 H 0.48437 0.59951 0.1422 0.0
C1443 C 0.55431 0.5283 0.14338 0.0
C1444 C 0.50847 0.52044 0.11636 0.0
C1445 C 0.57664 0.52307 0.1455 0.0
C1446 C 0.41636 0.55984 0.11575 0.0
C1447 C 0.4391 0.55866 0.11395 0.0
C1448 C 0.49082 0.57734 0.13491 0.0
C1449 C 0.54547 0.53083 0.12836 0.0
C1450 C 0.52212 0.54075 0.12643 0.0
C1451 C 0.45286 0.55983 0.12704 0.0
C1452 C 0.47689 0.55565 0.12557 0.0
H1453 H 0.59226 0.51855 0.1075 0.0
H1454 H 0.55281 0.52729 0.10376 0.0
H1455 H 0.52339 0.58665 0.14294 0.0
H1456 H 0.4141 0.56561 0.1553 0.0
H1457 H 0.45355 0.56366 0.15222 0.0
C1458 C 0.41923 0.49411 0.8961 0.0
C1459 C 0.40655 0.51801 0.88674 0.0
C1460 C 0.44171 0.49997 0.89771 0.0
C1461 C 0.48446 0.573 0.89141 0.0
H1462 H 0.52406 0.48849 0.89442 0.0
C1463 C 0.57754 0.58109 0.88049 0.0
C1464 C 0.59094 0.56406 0.89169 0.0
C1465 C 0.55487 0.57711 0.88126 0.0
C1466 C 0.51313 0.51232 0.89374 0.0
H1467 H 0.40784 0.56719 0.87183 0.0
H1468 H 0.44686 0.5758 0.87383 0.0
H1469 H 0.48483 0.47733 0.89271 0.0
H1470 H 0.59135 0.52969 0.91245 0.0
H1471 H 0.55161 0.52211 0.91361 0.0
H1472 H 0.51301 0.60777 0.89175 0.0
C1473 C 0.43945 0.55309 0.8803 0.0
C1474 C 0.49064 0.506 0.89282 0.0
C1475 C 0.41701 0.5476 0.87889 0.0
C1476 C 0.58131 0.5434 0.90378 0.0
C1477 C 0.55867 0.53883 0.90438 0.0
C1478 C 0.50695 0.57924 0.89206 0.0
C1479 C 0.4521 0.52965 0.88986 0.0
C1480 C 0.47601 0.53626 0.89151 0.0
C1481 C 0.54529 0.55542 0.89306 0.0
C1482 C 0.52146 0.54896 0.89314 0.0
H1483 H 0.41182 0.47083 0.90222 0.0
H1484 H 0.45085 0.48153 0.90529 0.0
H1485 H 0.47372 0.59708 0.89082 0.0
H1486 H 0.58464 0.59711 0.87106 0.0
H1487 H 0.54487 0.58998 0.87234 0.0
C1488 C 0.18818 0.03779 0.9537 0.0
C1489 C 0.19525 1.00303 0.94786 0.0
C1490 C 0.18877 0.04519 0.96973 0.0
C1491 C 0.19128 0.99613 1.00796 0.0
H1492 H 0.20461 0.0953 0.02376 0.0
C1493 C 0.20111 0.02814 0.07407 0.0
C1494 C 0.19175 0.06178 0.07946 0.0
C1495 C 0.20221 0.02039 0.05807 0.0
C1496 C 0.20068 0.06748 0.01954 0.0
H1497 H 0.20953 0.9496 0.95424 0.0
H1498 H 0.21087 0.96258 0.98199 0.0
H1499 H 0.2056 0.08373 0.99583 0.0
H1500 H 0.1754 0.11278 0.07204 0.0
H1501 H 0.17751 0.09946 0.04445 0.0
H1502 H 0.18641 0.97993 0.03172 0.0
C1503 C 0.20424 0.9838 0.97432 0.0
C1504 C 0.2012 0.06086 1.00349 0.0
C1505 C 0.20354 0.97637 0.95837 0.0
C1506 C 0.18324 0.08705 0.06843 0.0
C1507 C 0.18443 0.0794 0.05252 0.0
C1508 C 0.19084 1.00273 0.02402 0.0
C1509 C 0.19658 0.01809 0.98029 0.0
C1510 C 0.1964 0.02513 0.99745 0.0
C1511 C 0.19405 0.04613 0.04709 0.0
C1512 C 0.19538 0.03856 0.03003 0.0
H1513 H 0.18151 0.05878 0.94596 0.0
H1514 H 0.18252 0.07179 0.97386 0.0
H1515 H 0.18713 0.96839 1.00379 0.0
H1516 H 0.20795 0.00812 0.08216 0.0
H1517 H 0.20986 0.99456 0.05429 0.0
C1518 C 0.79143 0.08853 0.95927 0.0
C1519 C 0.80147 0.06363 0.94879 0.0
C1520 C 0.79076 0.08072 0.97518 0.0
C1521 C 0.79792 1.00474 1.00446 0.0
H1522 H 0.80785 0.08829 0.03248 0.0
C1523 C 0.81584 0.98347 0.06985 0.0
C1524 C 0.80601 0.00802 0.08062 0.0
C1525 C 0.8145 0.99013 0.05386 0.0
C1526 C 0.80477 0.0647 0.02485 0.0
H1527 H 0.81817 0.01035 0.94684 0.0
H1528 H 0.81724 0.99666 0.97474 0.0
H1529 H 0.80685 0.09908 1.00453 0.0
H1530 H 0.78715 0.05922 0.08274 0.0
H1531 H 0.78496 0.07103 0.05478 0.0
H1532 H 0.79613 0.97033 0.02483 0.0
C1533 C 0.80963 0.02218 0.9706 0.0
C1534 C 0.80418 0.07087 1.00877 0.0
C1535 C 0.81018 0.02995 0.95459 0.0
C1536 C 0.79507 0.03984 0.07487 0.0
C1537 C 0.7938 0.0466 0.05881 0.0
C1538 C 0.79859 0.99856 0.02054 0.0
C1539 C 0.80023 0.04781 0.98115 0.0
C1540 C 0.80074 0.04099 0.99832 0.0
C1541 C 0.8034 0.02166 0.04809 0.0
C1542 C 0.80208 0.02845 0.03096 0.0
H1543 H 0.78417 0.11436 0.95515 0.0
H1544 H 0.78285 0.10067 0.98282 0.0
H1545 H 0.7949 0.98112 0.99684 0.0
H1546 H 0.82487 0.95916 0.07372 0.0
H1547 H 0.8225 0.97076 0.04601 0.0
C1548 C 0.20467 0.59134 0.56765 0.0
C1549 C 0.19543 0.5661 0.57835 0.0
C1550 C 0.20538 0.58292 0.55178 0.0
C1551 C 0.20057 0.50513 0.52316 0.0
H1552 H 0.18751 0.58603 0.49449 0.0
C1553 C 0.18355 0.47818 0.45807 0.0
C1554 C 0.19231 0.50321 0.44705 0.0
C1555 C 0.18457 0.48599 0.47398 0.0
C1556 C 0.19147 0.56321 0.5023 0.0
H1557 H 0.18022 0.51161 0.58074 0.0
H1558 H 0.18132 0.4968 0.55294 0.0
H1559 H 0.18827 0.59832 0.52234 0.0
H1560 H 0.20882 0.55655 0.44434 0.0
H1561 H 0.21055 0.57034 0.47218 0.0
H1562 H 0.20356 0.46996 0.50308 0.0
C1563 C 0.18822 0.52311 0.55687 0.0
C1564 C 0.19192 0.57023 0.51832 0.0
C1565 C 0.18758 0.53153 0.57282 0.0
C1566 C 0.20178 0.53674 0.45243 0.0
C1567 C 0.20277 0.54462 0.46842 0.0
C1568 C 0.20008 0.49809 0.50713 0.0
C1569 C 0.19682 0.549 0.5461 0.0
C1570 C 0.19646 0.5413 0.529 0.0
C1571 C 0.19431 0.51916 0.47941 0.0
C1572 C 0.19545 0.527 0.49647 0.0
H1573 H 0.21129 0.61788 0.57153 0.0
H1574 H 0.21265 0.60315 0.54395 0.0
H1575 H 0.20445 0.48227 0.53097 0.0
H1576 H 0.17562 0.45253 0.45444 0.0
H1577 H 0.17742 0.46614 0.48203 0.0
C1578 C 0.79311 0.58895 0.45915 0.0
C1579 C 0.80173 0.56229 0.44876 0.0
C1580 C 0.7924 0.58187 0.47514 0.0
C1581 C 0.796 0.50555 0.50454 0.0
H1582 H 0.81028 0.58721 0.53257 0.0
C1583 C 0.81425 0.48013 0.56938 0.0
C1584 C 0.80547 0.50511 0.58042 0.0
C1585 C 0.81312 0.48789 0.55348 0.0
C1586 C 0.80599 0.56421 0.52493 0.0
H1587 H 0.81605 0.50691 0.44711 0.0
H1588 H 0.81498 0.49451 0.47504 0.0
H1589 H 0.80937 0.59832 0.5046 0.0
H1590 H 0.78903 0.5585 0.5832 0.0
H1591 H 0.78718 0.57227 0.55532 0.0
H1592 H 0.7929 0.47135 0.52488 0.0
C1593 C 0.80849 0.52082 0.4708 0.0
C1594 C 0.80545 0.57056 0.50886 0.0
C1595 C 0.80911 0.52788 0.45476 0.0
C1596 C 0.79604 0.5387 0.57507 0.0
C1597 C 0.79497 0.54656 0.55908 0.0
C1598 C 0.79662 0.49919 0.5206 0.0
C1599 C 0.80036 0.54794 0.48124 0.0
C1600 C 0.80054 0.54127 0.49842 0.0
C1601 C 0.80327 0.52097 0.54808 0.0
C1602 C 0.80176 0.52836 0.53101 0.0
H1603 H 0.78691 0.61546 0.45492 0.0
H1604 H 0.78555 0.60308 0.48272 0.0
H1605 H 0.79175 0.48246 0.49694 0.0
H1606 H 0.82218 0.45447 0.57298 0.0
H1607 H 0.82019 0.46798 0.54541 0.0
C1608 C 0.6885 0.08863 0.57164 0.0
C1609 C 0.69044 0.05721 0.58147 0.0
C1610 C 0.69086 0.08513 0.55553 0.0
C1611 C 0.71275 0.02365 0.52446 0.0
H1612 H 0.67032 0.07484 0.49859 0.0
C1613 C 0.70226 0.98941 0.45919 0.0
C1614 C 0.69626 0.01805 0.44877 0.0
C1615 C 0.70333 0.99607 0.47519 0.0
C1616 C 0.68257 0.06085 0.50557 0.0
H1617 H 0.69699 0.99747 0.58184 0.0
H1618 H 0.70132 0.99141 0.5537 0.0
H1619 H 0.66895 0.0823 0.52672 0.0
H1620 H 0.68731 0.07671 0.44719 0.0
H1621 H 0.68968 0.08869 0.47513 0.0
H1622 H 0.7264 1.00221 0.50334 0.0
C1623 C 0.69801 0.01886 0.55855 0.0
C1624 C 0.68173 0.06504 0.52176 0.0
C1625 C 0.69555 0.02234 0.57471 0.0
C1626 C 0.69206 0.054 0.45481 0.0
C1627 C 0.69316 0.06073 0.47089 0.0
C1628 C 0.71367 0.01961 0.50826 0.0
C1629 C 0.69536 0.05014 0.54872 0.0
C1630 C 0.69671 0.04629 0.53144 0.0
C1631 C 0.69855 0.03169 0.48134 0.0
C1632 C 0.69846 0.03787 0.49857 0.0
H1633 H 0.68509 0.11611 0.57638 0.0
H1634 H 0.68917 0.10996 0.54839 0.0
H1635 H 0.72475 0.00926 0.53152 0.0
H1636 H 0.70599 0.96152 0.45501 0.0
H1637 H 0.70731 0.97284 0.48278 0.0
C1638 C 0.30577 0.01602 0.45348 0.0
C1639 C 0.30261 0.05177 0.44694 0.0
C1640 C 0.30458 0.01081 0.46965 0.0
C1641 C 0.30983 0.06449 0.50641 0.0
H1642 H 0.28413 0.97646 0.52545 0.0
C1643 C 0.30093 0.05237 0.57313 0.0
C1644 C 0.30581 0.01748 0.57992 0.0
C1645 C 0.29896 0.05594 0.55696 0.0
C1646 C 0.29156 1.00108 0.52033 0.0
H1647 H 0.29435 0.10948 0.45228 0.0
H1648 H 0.29222 0.10047 0.48024 0.0
H1649 H 0.28367 0.98316 0.49717 0.0
H1650 H 0.31153 0.95868 0.57488 0.0
H1651 H 0.30858 0.96504 0.5468 0.0
H1652 H 0.31797 0.08231 0.52944 0.0
C1653 C 0.2962 0.07659 0.47299 0.0
C1654 C 0.2913 1.0049 0.50409 0.0
C1655 C 0.2974 0.08176 0.45691 0.0
C1656 C 0.30808 0.98611 0.5701 0.0
C1657 C 0.30612 0.98967 0.55395 0.0
C1658 C 0.31013 0.06066 0.5226 0.0
C1659 C 0.30017 0.04124 0.47963 0.0
C1660 C 0.30039 0.03672 0.49692 0.0
C1661 C 0.3018 0.02473 0.54712 0.0
C1662 C 0.30099 0.02894 0.52982 0.0
H1663 H 0.30995 0.99237 0.44618 0.0
H1664 H 0.30785 0.98322 0.47436 0.0
H1665 H 0.31739 0.08903 0.50132 0.0
H1666 H 0.29919 0.07722 0.58024 0.0
H1667 H 0.29529 0.0833 0.55217 0.0
C1668 C 0.70057 0.58819 0.07133 0.0
C1669 C 0.69525 0.55867 0.0815 0.0
C1670 C 0.7019 0.58228 0.0553 0.0
C1671 C 0.70734 0.50922 0.02483 0.0
H1672 H 0.6806 0.58493 0.99867 0.0
C1673 C 0.69101 0.48622 0.95905 0.0
C1674 C 0.69291 0.51701 0.94889 0.0
C1675 C 0.69302 0.49087 0.97515 0.0
C1676 C 0.68847 0.56376 1.00574 0.0
H1677 H 0.68783 0.49932 0.08267 0.0
H1678 H 0.69021 0.48889 0.05458 0.0
H1679 H 0.68089 0.59317 0.02673 0.0
H1680 H 0.69904 0.57685 0.94791 0.0
H1681 H 0.70307 0.58483 0.97591 0.0
H1682 H 0.71487 0.47976 1.00377 0.0
C1683 C 0.69344 0.51669 0.05909 0.0
C1684 C 0.68859 0.56845 0.02189 0.0
C1685 C 0.69209 0.52264 0.07521 0.0
C1686 C 0.69757 0.55243 0.95529 0.0
C1687 C 0.69961 0.55708 0.97142 0.0
C1688 C 0.70728 0.50455 1.00863 0.0
C1689 C 0.69799 0.54663 0.04891 0.0
C1690 C 0.69802 0.54128 0.03167 0.0
C1691 C 0.69705 0.52645 0.9816 0.0
C1692 C 0.69781 0.53175 0.99885 0.0
H1693 H 0.70364 0.6161 0.07576 0.0
H1694 H 0.70596 0.60581 0.04788 0.0
H1695 H 0.71496 0.48793 0.03198 0.0
H1696 H 0.68776 0.45841 0.95459 0.0
H1697 H 0.69078 0.46663 0.98256 0.0
C1698 C 0.30707 0.58989 0.95629 0.0
C1699 C 0.30576 0.55838 0.94647 0.0
C1700 C 0.30499 0.58619 0.97242 0.0
C1701 C 0.28565 0.52191 1.00356 0.0
H1702 H 0.32584 0.57848 0.02933 0.0
C1703 C 0.29918 0.4883 0.06863 0.0
C1704 C 0.30329 0.51783 0.07909 0.0
C1705 C 0.29759 0.49489 0.05264 0.0
C1706 C 0.31424 0.5629 0.02237 0.0
H1707 H 0.30081 0.49821 0.94608 0.0
H1708 H 0.29716 0.49169 0.97422 0.0
H1709 H 0.32659 0.58636 1.00122 0.0
H1710 H 0.30839 0.57782 0.0808 0.0
H1711 H 0.30525 0.58952 0.05287 0.0
H1712 H 0.27342 0.49822 0.02472 0.0
C1713 C 0.29961 0.51942 0.9694 0.0
C1714 C 0.31469 0.56739 1.00619 0.0
C1715 C 0.30169 0.52314 0.95323 0.0
C1716 C 0.30513 0.55442 0.07312 0.0
C1717 C 0.30357 0.56105 0.05707 0.0
C1718 C 0.28518 0.51746 0.01975 0.0
C1719 C 0.30152 0.55085 0.97924 0.0
C1720 C 0.30051 0.54677 0.99654 0.0
C1721 C 0.30001 0.53127 0.04658 0.0
C1722 C 0.29959 0.53766 0.02939 0.0
H1723 H 0.30973 0.61758 0.95152 0.0
H1724 H 0.30609 0.61114 0.97956 0.0
H1725 H 0.27424 0.50602 0.99655 0.0
H1726 H 0.29734 0.45983 0.07277 0.0
H1727 H 0.29505 0.47117 0.04499 0.0
loop_
_geom_bond_atom_site_label_1
_geom_bond_atom_site_label_2
_geom_bond_distance
_geom_bond_site_symmetry_2
_ccdc_geom_bond_type
C0 C1 1.351 . S
C0 N3 1.368 . S
C0 H5 0.931 . S
C1 C0 1.351 . S
C1 N2 1.373 . S
C1 H29 0.930 . S
N2 C1 1.373 . S
N2 C4 1.340 . S
N3 C0 1.368 . S
N3 C4 1.321 . S
N3 Co6 2.135 . S
C4 N2 1.340 . S
C4 N3 1.321 . S
C4 H28 0.930 . S
H5 C0 0.931 . S
Co6 N3 2.135 . S
Co6 N9 2.121 . S
Co6 O14 2.055 . S
Co6 O17 2.039 1_545 S
Co6 N20 2.140 . S
C7 O8 1.227 . S
C7 O17 1.265 . S
O8 C7 1.227 . S
N9 Co6 2.121 . S
N9 C11 1.375 . S
N9 C12 1.313 . S
C10 C11 1.338 . S
C10 N13 1.377 . S
C10 H30 0.930 1_545 S
C11 N9 1.375 . S
C11 C10 1.338 . S
C11 H15 0.931 1_545 S
C12 N9 1.313 . S
C12 N13 1.344 . S
C12 H16 0.930 . S
N13 C10 1.377 . S
N13 C12 1.344 . S
O14 Co6 2.055 . S
O14 C18 1.253 . S
H15 C11 0.931 1_565 S
H16 C12 0.930 . S
O17 Co6 2.039 1_565 S
O17 C7 1.265 . S
C18 O14 1.253 . S
C18 O19 1.227 . S
O19 C18 1.227 . S
N20 Co6 2.140 . S
N20 C23 1.346 . S
N20 C24 1.345 . S
C21 C22 1.387 . S
C21 C25 1.391 . S
C22 C21 1.387 . S
C22 C23 1.369 . S
C22 H31 0.929 . S
C23 N20 1.346 . S
C23 C22 1.369 . S
C23 H26 0.928 . S
C24 N20 1.345 . S
C24 C25 1.371 . S
C24 H27 0.931 . S
C25 C21 1.391 . S
C25 C24 1.371 . S
C25 H32 0.930 . S
H26 C23 0.928 . S
H27 C24 0.931 . S
H28 C4 0.930 . S
H29 C1 0.930 . S
H30 C10 0.930 1_565 S
H31 C22 0.929 . S
H32 C25 0.930 . S
C33 C34 1.351 . S
C33 N36 1.368 1_565 S
C33 H38 0.931 . S
C34 C33 1.351 . S
C34 N35 1.373 1_565 S
C34 H62 0.930 . S
N35 C34 1.373 1_545 S
N35 C37 1.340 . S
N36 C33 1.368 1_545 S
N36 C37 1.321 . S
N36 Co39 2.135 . S
C37 N35 1.340 . S
C37 N36 1.321 . S
C37 H61 0.930 . S
H38 C33 0.931 . S
Co39 N36 2.135 . S
Co39 N42 2.121 . S
Co39 O47 2.055 1_545 S
Co39 O50 2.039 . S
Co39 N53 2.140 . S
C40 O41 1.227 . S
C40 O50 1.265 . S
O41 C40 1.227 . S
N42 Co39 2.121 . S
N42 C44 1.375 . S
N42 C45 1.313 . S
C43 C44 1.338 . S
C43 N46 1.377 . S
C43 H63 0.930 . S
C44 N42 1.375 . S
C44 C43 1.338 . S
C44 H48 0.931 . S
C45 N42 1.313 . S
C45 N46 1.344 . S
C45 H49 0.930 1_545 S
N46 C43 1.377 . S
N46 C45 1.344 . S
O47 Co39 2.055 1_565 S
O47 C51 1.253 . S
H48 C44 0.931 . S
H49 C45 0.930 1_565 S
O50 Co39 2.039 . S
O50 C40 1.265 . S
C51 O47 1.253 . S
C51 O52 1.227 . S
O52 C51 1.227 . S
N53 Co39 2.140 . S
N53 C56 1.346 . S
N53 C57 1.345 . S
C54 C55 1.387 . S
C54 C58 1.391 . S
C55 C54 1.387 . S
C55 C56 1.369 . S
C55 H64 0.929 . S
C56 N53 1.346 . S
C56 C55 1.369 . S
C56 H59 0.928 . S
C57 N53 1.345 . S
C57 C58 1.371 . S
C57 H60 0.931 1_545 S
C58 C54 1.391 . S
C58 C57 1.371 . S
C58 H65 0.930 1_545 S
H59 C56 0.928 . S
H60 C57 0.931 1_565 S
H61 C37 0.930 . S
H62 C34 0.930 . S
H63 C43 0.930 . S
H64 C55 0.929 . S
H65 C58 0.930 1_565 S
C66 C67 1.351 . S
C66 N69 1.368 1_565 S
C66 H71 0.931 . S
C67 C66 1.351 . S
C67 N68 1.373 1_565 S
C67 H95 0.930 . S
N68 C67 1.373 1_545 S
N68 C70 1.340 . S
N69 C66 1.368 1_545 S
N69 C70 1.321 . S
N69 Co72 2.135 . S
C70 N68 1.340 . S
C70 N69 1.321 . S
C70 H94 0.930 . S
H71 C66 0.931 . S
Co72 N69 2.135 . S
Co72 N75 2.121 . S
Co72 O80 2.055 1_545 S
Co72 O83 2.039 . S
Co72 N86 2.140 . S
C73 O74 1.227 . S
C73 O83 1.265 . S
O74 C73 1.227 . S
N75 Co72 2.121 . S
N75 C77 1.375 . S
N75 C78 1.313 . S
C76 C77 1.338 . S
C76 N79 1.377 . S
C76 H96 0.930 . S
C77 N75 1.375 . S
C77 C76 1.338 . S
C77 H81 0.931 . S
C78 N75 1.313 . S
C78 N79 1.344 . S
C78 H82 0.930 1_545 S
N79 C76 1.377 . S
N79 C78 1.344 . S
O80 Co72 2.055 1_565 S
O80 C84 1.253 . S
H81 C77 0.931 . S
H82 C78 0.930 1_565 S
O83 Co72 2.039 . S
O83 C73 1.265 . S
C84 O80 1.253 . S
C84 O85 1.227 . S
O85 C84 1.227 . S
N86 Co72 2.140 . S
N86 C89 1.346 . S
N86 C90 1.345 . S
C87 C88 1.387 . S
C87 C91 1.391 . S
C88 C87 1.387 . S
C88 C89 1.369 . S
C88 H97 0.929 . S
C89 N86 1.346 . S
C89 C88 1.369 . S
C89 H92 0.928 . S
C90 N86 1.345 . S
C90 C91 1.371 . S
C90 H93 0.931 1_545 S
C91 C87 1.391 . S
C91 C90 1.371 . S
C91 H98 0.930 1_545 S
H92 C89 0.928 . S
H93 C90 0.931 1_565 S
H94 C70 0.930 . S
H95 C67 0.930 . S
H96 C76 0.930 . S
H97 C88 0.929 . S
H98 C91 0.930 1_565 S
C99 C100 1.351 . S
C99 N102 1.368 . S
C99 H104 0.931 . S
C100 C99 1.351 . S
C100 N101 1.373 . S
C100 H128 0.930 . S
N101 C100 1.373 . S
N101 C103 1.340 . S
N102 C99 1.368 . S
N102 C103 1.321 . S
N102 Co105 2.135 . S
C103 N101 1.340 . S
C103 N102 1.321 . S
C103 H127 0.930 . S
H104 C99 0.931 . S
Co105 N102 2.135 . S
Co105 N108 2.121 . S
Co105 O113 2.055 . S
Co105 O116 2.039 1_545 S
Co105 N119 2.140 . S
C106 O107 1.227 . S
C106 O116 1.265 . S
O107 C106 1.227 . S
N108 Co105 2.121 . S
N108 C110 1.375 . S
N108 C111 1.313 . S
C109 C110 1.338 . S
C109 N112 1.377 . S
C109 H129 0.930 1_545 S
C110 N108 1.375 . S
C110 C109 1.338 . S
C110 H114 0.931 1_545 S
C111 N108 1.313 . S
C111 N112 1.344 . S
C111 H115 0.930 . S
N112 C109 1.377 . S
N112 C111 1.344 . S
O113 Co105 2.055 . S
O113 C117 1.253 . S
H114 C110 0.931 1_565 S
H115 C111 0.930 . S
O116 Co105 2.039 1_565 S
O116 C106 1.265 . S
C117 O113 1.253 . S
C117 O118 1.227 . S
O118 C117 1.227 . S
N119 Co105 2.140 . S
N119 C122 1.346 . S
N119 C123 1.345 . S
C120 C121 1.387 . S
C120 C124 1.391 . S
C121 C120 1.387 . S
C121 C122 1.369 . S
C121 H130 0.929 . S
C122 N119 1.346 . S
C122 C121 1.369 . S
C122 H125 0.928 . S
C123 N119 1.345 . S
C123 C124 1.371 . S
C123 H126 0.931 . S
C124 C120 1.391 . S
C124 C123 1.371 . S
C124 H131 0.930 . S
H125 C122 0.928 . S
H126 C123 0.931 . S
H127 C103 0.930 . S
H128 C100 0.930 . S
H129 C109 0.930 1_565 S
H130 C121 0.929 . S
H131 C124 0.930 . S
C132 C133 1.351 . S
C132 N135 1.368 . S
C132 H137 0.931 . S
C133 C132 1.351 . S
C133 N134 1.373 . S
C133 H161 0.930 . S
N134 C133 1.373 . S
N134 C136 1.340 . S
N135 C132 1.368 . S
N135 C136 1.321 . S
N135 Co138 2.135 . S
C136 N134 1.340 . S
C136 N135 1.321 . S
C136 H160 0.930 . S
H137 C132 0.931 . S
Co138 N135 2.135 . S
Co138 N141 2.121 . S
Co138 O146 2.055 . S
Co138 O149 2.039 . S
Co138 N152 2.140 . S
C139 O140 1.227 . S
C139 O149 1.265 . S
O140 C139 1.227 . S
N141 Co138 2.121 . S
N141 C143 1.375 . S
N141 C144 1.313 . S
C142 C143 1.338 . S
C142 N145 1.377 . S
C142 H162 0.930 . S
C143 N141 1.375 . S
C143 C142 1.338 . S
C143 H147 0.931 . S
C144 N141 1.313 . S
C144 N145 1.344 . S
C144 H148 0.930 . S
N145 C142 1.377 . S
N145 C144 1.344 . S
O146 Co138 2.055 . S
O146 C150 1.253 . S
H147 C143 0.931 . S
H148 C144 0.930 . S
O149 Co138 2.039 . S
O149 C139 1.265 . S
C150 O146 1.253 . S
C150 O151 1.227 . S
O151 C150 1.227 . S
N152 Co138 2.140 . S
N152 C155 1.346 . S
N152 C156 1.345 . S
C153 C154 1.387 . S
C153 C157 1.391 . S
C154 C153 1.387 . S
C154 C155 1.369 . S
C154 H163 0.929 . S
C155 N152 1.346 . S
C155 C154 1.369 . S
C155 H158 0.928 . S
C156 N152 1.345 . S
C156 C157 1.371 . S
C156 H159 0.931 . S
C157 C153 1.391 . S
C157 C156 1.371 . S
C157 H164 0.930 . S
H158 C155 0.928 . S
H159 C156 0.931 . S
H160 C136 0.930 . S
H161 C133 0.930 . S
H162 C142 0.930 . S
H163 C154 0.929 . S
H164 C157 0.930 . S
C165 C166 1.351 . S
C165 N168 1.368 . S
C165 H170 0.931 . S
C166 C165 1.351 . S
C166 N167 1.373 . S
C166 H194 0.930 . S
N167 C166 1.373 . S
N167 C169 1.340 . S
N168 C165 1.368 . S
N168 C169 1.321 . S
N168 Co171 2.135 . S
C169 N167 1.340 . S
C169 N168 1.321 . S
C169 H193 0.930 . S
H170 C165 0.931 . S
Co171 N168 2.135 . S
Co171 N174 2.121 . S
Co171 O179 2.055 . S
Co171 O182 2.039 . S
Co171 N185 2.140 . S
C172 O173 1.227 . S
C172 O182 1.265 . S
O173 C172 1.227 . S
N174 Co171 2.121 . S
N174 C176 1.375 . S
N174 C177 1.313 . S
C175 C176 1.338 . S
C175 N178 1.377 . S
C175 H195 0.930 . S
C176 N174 1.375 . S
C176 C175 1.338 . S
C176 H180 0.931 . S
C177 N174 1.313 . S
C177 N178 1.344 . S
C177 H181 0.930 . S
N178 C175 1.377 . S
N178 C177 1.344 . S
O179 Co171 2.055 . S
O179 C183 1.253 . S
H180 C176 0.931 . S
H181 C177 0.930 . S
O182 Co171 2.039 . S
O182 C172 1.265 . S
C183 O179 1.253 . S
C183 O184 1.227 . S
O184 C183 1.227 . S
N185 Co171 2.140 . S
N185 C188 1.346 . S
N185 C189 1.345 . S
C186 C187 1.387 . S
C186 C190 1.391 . S
C187 C186 1.387 . S
C187 C188 1.369 . S
C187 H196 0.929 . S
C188 N185 1.346 . S
C188 C187 1.369 . S
C188 H191 0.928 . S
C189 N185 1.345 . S
C189 C190 1.371 . S
C189 H192 0.931 . S
C190 C186 1.391 . S
C190 C189 1.371 . S
C190 H197 0.930 . S
H191 C188 0.928 . S
H192 C189 0.931 . S
H193 C169 0.930 . S
H194 C166 0.930 . S
H195 C175 0.930 . S
H196 C187 0.929 . S
H197 C190 0.930 . S
C198 C199 1.351 . S
C198 N201 1.368 . S
C198 H203 0.931 . S
C199 C198 1.351 . S
C199 N200 1.373 . S
C199 H227 0.930 . S
N200 C199 1.373 . S
N200 C202 1.340 . S
N201 C198 1.368 . S
N201 C202 1.321 . S
N201 Co204 2.135 . S
C202 N200 1.340 . S
C202 N201 1.321 . S
C202 H226 0.930 . S
H203 C198 0.931 . S
Co204 N201 2.135 . S
Co204 N207 2.121 . S
Co204 O212 2.055 . S
Co204 O215 2.039 . S
Co204 N218 2.140 . S
C205 O206 1.227 . S
C205 O215 1.265 . S
O206 C205 1.227 . S
N207 Co204 2.121 . S
N207 C209 1.375 . S
N207 C210 1.313 . S
C208 C209 1.338 . S
C208 N211 1.377 . S
C208 H228 0.930 . S
C209 N207 1.375 . S
C209 C208 1.338 . S
C209 H213 0.931 . S
C210 N207 1.313 . S
C210 N211 1.344 . S
C210 H214 0.930 . S
N211 C208 1.377 . S
N211 C210 1.344 . S
O212 Co204 2.055 . S
O212 C216 1.253 . S
H213 C209 0.931 . S
H214 C210 0.930 . S
O215 Co204 2.039 . S
O215 C205 1.265 . S
C216 O212 1.253 . S
C216 O217 1.227 . S
O217 C216 1.227 . S
N218 Co204 2.140 . S
N218 C221 1.346 . S
N218 C222 1.345 . S
C219 C220 1.387 . S
C219 C223 1.391 . S
C220 C219 1.387 . S
C220 C221 1.369 . S
C220 H229 0.929 . S
C221 N218 1.346 . S
C221 C220 1.369 . S
C221 H224 0.928 . S
C222 N218 1.345 . S
C222 C223 1.371 . S
C222 H225 0.931 . S
C223 C219 1.391 . S
C223 C222 1.371 . S
C223 H230 0.930 . S
H224 C221 0.928 . S
H225 C222 0.931 . S
H226 C202 0.930 . S
H227 C199 0.930 . S
H228 C208 0.930 . S
H229 C220 0.929 . S
H230 C223 0.930 . S
C231 C232 1.351 . S
C231 N234 1.368 . S
C231 H236 0.931 . S
C232 C231 1.351 . S
C232 N233 1.373 . S
C232 H260 0.930 . S
N233 C232 1.373 . S
N233 C235 1.340 . S
N234 C231 1.368 . S
N234 C235 1.321 . S
N234 Co237 2.135 . S
C235 N233 1.340 . S
C235 N234 1.321 . S
C235 H259 0.930 . S
H236 C231 0.931 . S
Co237 N234 2.135 . S
Co237 N240 2.121 . S
Co237 O245 2.055 . S
Co237 O248 2.039 . S
Co237 N251 2.140 . S
C238 O239 1.227 . S
C238 O248 1.265 . S
O239 C238 1.227 . S
N240 Co237 2.121 . S
N240 C242 1.375 . S
N240 C243 1.313 . S
C241 C242 1.338 . S
C241 N244 1.377 . S
C241 H261 0.930 . S
C242 N240 1.375 . S
C242 C241 1.338 . S
C242 H246 0.931 . S
C243 N240 1.313 . S
C243 N244 1.344 . S
C243 H247 0.930 . S
N244 C241 1.377 . S
N244 C243 1.344 . S
O245 Co237 2.055 . S
O245 C249 1.253 . S
H246 C242 0.931 . S
H247 C243 0.930 . S
O248 Co237 2.039 . S
O248 C238 1.265 . S
C249 O245 1.253 . S
C249 O250 1.227 . S
O250 C249 1.227 . S
N251 Co237 2.140 . S
N251 C254 1.346 . S
N251 C255 1.345 . S
C252 C253 1.387 . S
C252 C256 1.391 . S
C253 C252 1.387 . S
C253 C254 1.369 . S
C253 H262 0.929 . S
C254 N251 1.346 . S
C254 C253 1.369 . S
C254 H257 0.928 . S
C255 N251 1.345 . S
C255 C256 1.371 . S
C255 H258 0.931 . S
C256 C252 1.391 . S
C256 C255 1.371 . S
C256 H263 0.930 . S
H257 C254 0.928 . S
H258 C255 0.931 . S
H259 C235 0.930 . S
H260 C232 0.930 . S
H261 C241 0.930 . S
H262 C253 0.929 . S
H263 C256 0.930 . S
C264 C265 1.351 . S
C264 N267 1.368 . S
C264 H269 0.931 . S
C265 C264 1.351 . S
C265 N266 1.373 . S
C265 H293 0.930 . S
N266 C265 1.373 . S
N266 C268 1.340 . S
N267 C264 1.368 . S
N267 C268 1.321 . S
N267 Co270 2.135 . S
C268 N266 1.340 . S
C268 N267 1.321 . S
C268 H292 0.930 . S
H269 C264 0.931 . S
Co270 N267 2.135 . S
Co270 N273 2.121 . S
Co270 O278 2.055 . S
Co270 O281 2.039 1_545 S
Co270 N284 2.140 . S
C271 O272 1.227 . S
C271 O281 1.265 . S
O272 C271 1.227 . S
N273 Co270 2.121 . S
N273 C275 1.375 . S
N273 C276 1.313 . S
C274 C275 1.338 . S
C274 N277 1.377 . S
C274 H294 0.930 1_545 S
C275 N273 1.375 . S
C275 C274 1.338 . S
C275 H279 0.931 1_545 S
C276 N273 1.313 . S
C276 N277 1.344 . S
C276 H280 0.930 . S
N277 C274 1.377 . S
N277 C276 1.344 . S
O278 Co270 2.055 . S
O278 C282 1.253 . S
H279 C275 0.931 1_565 S
H280 C276 0.930 . S
O281 Co270 2.039 1_565 S
O281 C271 1.265 . S
C282 O278 1.253 . S
C282 O283 1.227 . S
O283 C282 1.227 . S
N284 Co270 2.140 . S
N284 C287 1.346 . S
N284 C288 1.345 . S
C285 C286 1.387 . S
C285 C289 1.391 . S
C286 C285 1.387 . S
C286 C287 1.369 . S
C286 H295 0.929 . S
C287 N284 1.346 . S
C287 C286 1.369 . S
C287 H290 0.928 . S
C288 N284 1.345 . S
C288 C289 1.371 . S
C288 H291 0.931 . S
C289 C285 1.391 . S
C289 C288 1.371 . S
C289 H296 0.930 . S
H290 C287 0.928 . S
H291 C288 0.931 . S
H292 C268 0.930 . S
H293 C265 0.930 . S
H294 C274 0.930 1_565 S
H295 C286 0.929 . S
H296 C289 0.930 . S
C297 C298 1.351 . S
C297 N300 1.368 1_565 S
C297 H302 0.931 . S
C298 C297 1.351 . S
C298 N299 1.373 1_565 S
C298 H326 0.930 . S
N299 C298 1.373 1_545 S
N299 C301 1.340 . S
N300 C297 1.368 1_545 S
N300 C301 1.321 . S
N300 Co303 2.135 . S
C301 N299 1.340 . S
C301 N300 1.321 . S
C301 H325 0.930 . S
H302 C297 0.931 . S
Co303 N300 2.135 . S
Co303 N306 2.121 . S
Co303 O311 2.055 1_545 S
Co303 O314 2.039 . S
Co303 N317 2.140 . S
C304 O305 1.227 . S
C304 O314 1.265 . S
O305 C304 1.227 . S
N306 Co303 2.121 . S
N306 C308 1.375 . S
N306 C309 1.313 . S
C307 C308 1.338 . S
C307 N310 1.377 . S
C307 H327 0.930 . S
C308 N306 1.375 . S
C308 C307 1.338 . S
C308 H312 0.931 . S
C309 N306 1.313 . S
C309 N310 1.344 . S
C309 H313 0.930 1_545 S
N310 C307 1.377 . S
N310 C309 1.344 . S
O311 Co303 2.055 1_565 S
O311 C315 1.253 . S
H312 C308 0.931 . S
H313 C309 0.930 1_565 S
O314 Co303 2.039 . S
O314 C304 1.265 . S
C315 O311 1.253 . S
C315 O316 1.227 . S
O316 C315 1.227 . S
N317 Co303 2.140 . S
N317 C320 1.346 . S
N317 C321 1.345 . S
C318 C319 1.387 . S
C318 C322 1.391 . S
C319 C318 1.387 . S
C319 C320 1.369 . S
C319 H328 0.929 . S
C320 N317 1.346 . S
C320 C319 1.369 . S
C320 H323 0.928 . S
C321 N317 1.345 . S
C321 C322 1.371 . S
C321 H324 0.931 1_545 S
C322 C318 1.391 . S
C322 C321 1.371 . S
C322 H329 0.930 1_545 S
H323 C320 0.928 . S
H324 C321 0.931 1_565 S
H325 C301 0.930 . S
H326 C298 0.930 . S
H327 C307 0.930 . S
H328 C319 0.929 . S
H329 C322 0.930 1_565 S
C330 C331 1.351 . S
C330 N333 1.368 1_565 S
C330 H335 0.931 . S
C331 C330 1.351 . S
C331 N332 1.373 1_565 S
C331 H359 0.930 . S
N332 C331 1.373 1_545 S
N332 C334 1.340 . S
N333 C330 1.368 1_545 S
N333 C334 1.321 . S
N333 Co336 2.135 . S
C334 N332 1.340 . S
C334 N333 1.321 . S
C334 H358 0.930 . S
H335 C330 0.931 . S
Co336 N333 2.135 . S
Co336 N339 2.121 . S
Co336 O344 2.055 1_545 S
Co336 O347 2.039 . S
Co336 N350 2.140 . S
C337 O338 1.227 . S
C337 O347 1.265 . S
O338 C337 1.227 . S
N339 Co336 2.121 . S
N339 C341 1.375 . S
N339 C342 1.313 . S
C340 C341 1.338 . S
C340 N343 1.377 . S
C340 H360 0.930 . S
C341 N339 1.375 . S
C341 C340 1.338 . S
C341 H345 0.931 . S
C342 N339 1.313 . S
C342 N343 1.344 . S
C342 H346 0.930 1_545 S
N343 C340 1.377 . S
N343 C342 1.344 . S
O344 Co336 2.055 1_565 S
O344 C348 1.253 . S
H345 C341 0.931 . S
H346 C342 0.930 1_565 S
O347 Co336 2.039 . S
O347 C337 1.265 . S
C348 O344 1.253 . S
C348 O349 1.227 . S
O349 C348 1.227 . S
N350 Co336 2.140 . S
N350 C353 1.346 . S
N350 C354 1.345 . S
C351 C352 1.387 . S
C351 C355 1.391 . S
C352 C351 1.387 . S
C352 C353 1.369 . S
C352 H361 0.929 . S
C353 N350 1.346 . S
C353 C352 1.369 . S
C353 H356 0.928 . S
C354 N350 1.345 . S
C354 C355 1.371 . S
C354 H357 0.931 1_545 S
C355 C351 1.391 . S
C355 C354 1.371 . S
C355 H362 0.930 1_545 S
H356 C353 0.928 . S
H357 C354 0.931 1_565 S
H358 C334 0.930 . S
H359 C331 0.930 . S
H360 C340 0.930 . S
H361 C352 0.929 . S
H362 C355 0.930 1_565 S
C363 C364 1.351 . S
C363 N366 1.368 . S
C363 H368 0.931 . S
C364 C363 1.351 . S
C364 N365 1.373 . S
C364 H392 0.930 . S
N365 C364 1.373 . S
N365 C367 1.340 . S
N366 C363 1.368 . S
N366 C367 1.321 . S
N366 Co369 2.135 . S
C367 N365 1.340 . S
C367 N366 1.321 . S
C367 H391 0.930 . S
H368 C363 0.931 . S
Co369 N366 2.135 . S
Co369 N372 2.121 . S
Co369 O377 2.055 . S
Co369 O380 2.039 1_545 S
Co369 N383 2.140 . S
C370 O371 1.227 . S
C370 O380 1.265 . S
O371 C370 1.227 . S
N372 Co369 2.121 . S
N372 C374 1.375 . S
N372 C375 1.313 . S
C373 C374 1.338 . S
C373 N376 1.377 . S
C373 H393 0.930 1_545 S
C374 N372 1.375 . S
C374 C373 1.338 . S
C374 H378 0.931 1_545 S
C375 N372 1.313 . S
C375 N376 1.344 . S
C375 H379 0.930 . S
N376 C373 1.377 . S
N376 C375 1.344 . S
O377 Co369 2.055 . S
O377 C381 1.253 . S
H378 C374 0.931 1_565 S
H379 C375 0.930 . S
O380 Co369 2.039 1_565 S
O380 C370 1.265 . S
C381 O377 1.253 . S
C381 O382 1.227 . S
O382 C381 1.227 . S
N383 Co369 2.140 . S
N383 C386 1.346 . S
N383 C387 1.345 . S
C384 C385 1.387 . S
C384 C388 1.391 . S
C385 C384 1.387 . S
C385 C386 1.369 . S
C385 H394 0.929 . S
C386 N383 1.346 . S
C386 C385 1.369 . S
C386 H389 0.928 . S
C387 N383 1.345 . S
C387 C388 1.371 . S
C387 H390 0.931 . S
C388 C384 1.391 . S
C388 C387 1.371 . S
C388 H395 0.930 . S
H389 C386 0.928 . S
H390 C387 0.931 . S
H391 C367 0.930 . S
H392 C364 0.930 . S
H393 C373 0.930 1_565 S
H394 C385 0.929 . S
H395 C388 0.930 . S
C396 C397 1.351 . S
C396 N399 1.368 . S
C396 H401 0.931 . S
C397 C396 1.351 . S
C397 N398 1.373 . S
C397 H425 0.930 . S
N398 C397 1.373 . S
N398 C400 1.340 . S
N399 C396 1.368 . S
N399 C400 1.321 . S
N399 Co402 2.135 . S
C400 N398 1.340 . S
C400 N399 1.321 . S
C400 H424 0.930 . S
H401 C396 0.931 . S
Co402 N399 2.135 . S
Co402 N405 2.121 . S
Co402 O410 2.055 . S
Co402 O413 2.039 . S
Co402 N416 2.140 . S
C403 O404 1.227 . S
C403 O413 1.265 . S
O404 C403 1.227 . S
N405 Co402 2.121 . S
N405 C407 1.375 . S
N405 C408 1.313 . S
C406 C407 1.338 . S
C406 N409 1.377 . S
C406 H426 0.930 . S
C407 N405 1.375 . S
C407 C406 1.338 . S
C407 H411 0.931 . S
C408 N405 1.313 . S
C408 N409 1.344 . S
C408 H412 0.930 . S
N409 C406 1.377 . S
N409 C408 1.344 . S
O410 Co402 2.055 . S
O410 C414 1.253 . S
H411 C407 0.931 . S
H412 C408 0.930 . S
O413 Co402 2.039 . S
O413 C403 1.265 . S
C414 O410 1.253 . S
C414 O415 1.227 . S
O415 C414 1.227 . S
N416 Co402 2.140 . S
N416 C419 1.346 . S
N416 C420 1.345 . S
C417 C418 1.387 . S
C417 C421 1.391 . S
C418 C417 1.387 . S
C418 C419 1.369 . S
C418 H427 0.929 . S
C419 N416 1.346 . S
C419 C418 1.369 . S
C419 H422 0.928 . S
C420 N416 1.345 . S
C420 C421 1.371 . S
C420 H423 0.931 . S
C421 C417 1.391 . S
C421 C420 1.371 . S
C421 H428 0.930 . S
H422 C419 0.928 . S
H423 C420 0.931 . S
H424 C400 0.930 . S
H425 C397 0.930 . S
H426 C406 0.930 . S
H427 C418 0.929 . S
H428 C421 0.930 . S
C429 C430 1.351 . S
C429 N432 1.368 . S
C429 H434 0.931 . S
C430 C429 1.351 . S
C430 N431 1.373 . S
C430 H458 0.930 . S
N431 C430 1.373 . S
N431 C433 1.340 . S
N432 C429 1.368 . S
N432 C433 1.321 . S
N432 Co435 2.135 . S
C433 N431 1.340 . S
C433 N432 1.321 . S
C433 H457 0.930 . S
H434 C429 0.931 . S
Co435 N432 2.135 . S
Co435 N438 2.121 . S
Co435 O443 2.055 . S
Co435 O446 2.039 . S
Co435 N449 2.140 . S
C436 O437 1.227 . S
C436 O446 1.265 . S
O437 C436 1.227 . S
N438 Co435 2.121 . S
N438 C440 1.375 . S
N438 C441 1.313 . S
C439 C440 1.338 . S
C439 N442 1.377 . S
C439 H459 0.930 . S
C440 N438 1.375 . S
C440 C439 1.338 . S
C440 H444 0.931 . S
C441 N438 1.313 . S
C441 N442 1.344 . S
C441 H445 0.930 . S
N442 C439 1.377 . S
N442 C441 1.344 . S
O443 Co435 2.055 . S
O443 C447 1.253 . S
H444 C440 0.931 . S
H445 C441 0.930 . S
O446 Co435 2.039 . S
O446 C436 1.265 . S
C447 O443 1.253 . S
C447 O448 1.227 . S
O448 C447 1.227 . S
N449 Co435 2.140 . S
N449 C452 1.346 . S
N449 C453 1.345 . S
C450 C451 1.387 . S
C450 C454 1.391 . S
C451 C450 1.387 . S
C451 C452 1.369 . S
C451 H460 0.929 . S
C452 N449 1.346 . S
C452 C451 1.369 . S
C452 H455 0.928 . S
C453 N449 1.345 . S
C453 C454 1.371 . S
C453 H456 0.931 . S
C454 C450 1.391 . S
C454 C453 1.371 . S
C454 H461 0.930 . S
H455 C452 0.928 . S
H456 C453 0.931 . S
H457 C433 0.930 . S
H458 C430 0.930 . S
H459 C439 0.930 . S
H460 C451 0.929 . S
H461 C454 0.930 . S
C462 C463 1.351 . S
C462 N465 1.368 . S
C462 H467 0.931 . S
C463 C462 1.351 . S
C463 N464 1.373 . S
C463 H491 0.930 . S
N464 C463 1.373 . S
N464 C466 1.340 . S
N465 C462 1.368 . S
N465 C466 1.321 . S
N465 Co468 2.135 . S
C466 N464 1.340 . S
C466 N465 1.321 . S
C466 H490 0.930 . S
H467 C462 0.931 . S
Co468 N465 2.135 . S
Co468 N471 2.121 . S
Co468 O476 2.055 . S
Co468 O479 2.039 . S
Co468 N482 2.140 . S
C469 O470 1.227 . S
C469 O479 1.265 . S
O470 C469 1.227 . S
N471 Co468 2.121 . S
N471 C473 1.375 . S
N471 C474 1.313 . S
C472 C473 1.338 . S
C472 N475 1.377 . S
C472 H492 0.930 . S
C473 N471 1.375 . S
C473 C472 1.338 . S
C473 H477 0.931 . S
C474 N471 1.313 . S
C474 N475 1.344 . S
C474 H478 0.930 . S
N475 C472 1.377 . S
N475 C474 1.344 . S
O476 Co468 2.055 . S
O476 C480 1.253 . S
H477 C473 0.931 . S
H478 C474 0.930 . S
O479 Co468 2.039 . S
O479 C469 1.265 . S
C480 O476 1.253 . S
C480 O481 1.227 . S
O481 C480 1.227 . S
N482 Co468 2.140 . S
N482 C485 1.346 . S
N482 C486 1.345 . S
C483 C484 1.387 . S
C483 C487 1.391 . S
C484 C483 1.387 . S
C484 C485 1.369 . S
C484 H493 0.929 . S
C485 N482 1.346 . S
C485 C484 1.369 . S
C485 H488 0.928 . S
C486 N482 1.345 . S
C486 C487 1.371 . S
C486 H489 0.931 . S
C487 C483 1.391 . S
C487 C486 1.371 . S
C487 H494 0.930 . S
H488 C485 0.928 . S
H489 C486 0.931 . S
H490 C466 0.930 . S
H491 C463 0.930 . S
H492 C472 0.930 . S
H493 C484 0.929 . S
H494 C487 0.930 . S
C495 C496 1.351 . S
C495 N498 1.368 . S
C495 H500 0.931 . S
C496 C495 1.351 . S
C496 N497 1.373 . S
C496 H524 0.930 . S
N497 C496 1.373 . S
N497 C499 1.340 . S
N498 C495 1.368 . S
N498 C499 1.321 . S
N498 Co501 2.135 . S
C499 N497 1.340 . S
C499 N498 1.321 . S
C499 H523 0.930 . S
H500 C495 0.931 . S
Co501 N498 2.135 . S
Co501 N504 2.121 . S
Co501 O509 2.055 . S
Co501 O512 2.039 . S
Co501 N515 2.140 . S
C502 O503 1.227 . S
C502 O512 1.265 . S
O503 C502 1.227 . S
N504 Co501 2.121 . S
N504 C506 1.375 . S
N504 C507 1.313 . S
C505 C506 1.338 . S
C505 N508 1.377 . S
C505 H525 0.930 . S
C506 N504 1.375 . S
C506 C505 1.338 . S
C506 H510 0.931 . S
C507 N504 1.313 . S
C507 N508 1.344 . S
C507 H511 0.930 . S
N508 C505 1.377 . S
N508 C507 1.344 . S
O509 Co501 2.055 . S
O509 C513 1.253 . S
H510 C506 0.931 . S
H511 C507 0.930 . S
O512 Co501 2.039 . S
O512 C502 1.265 . S
C513 O509 1.253 . S
C513 O514 1.227 . S
O514 C513 1.227 . S
N515 Co501 2.140 . S
N515 C518 1.346 . S
N515 C519 1.345 . S
C516 C517 1.387 . S
C516 C520 1.391 . S
C517 C516 1.387 . S
C517 C518 1.369 . S
C517 H526 0.929 . S
C518 N515 1.346 . S
C518 C517 1.369 . S
C518 H521 0.928 . S
C519 N515 1.345 . S
C519 C520 1.371 . S
C519 H522 0.931 . S
C520 C516 1.391 . S
C520 C519 1.371 . S
C520 H527 0.930 . S
H521 C518 0.928 . S
H522 C519 0.931 . S
H523 C499 0.930 . S
H524 C496 0.930 . S
H525 C505 0.930 . S
H526 C517 0.929 . S
H527 C520 0.930 . S
C528 C529 1.349 . S
C528 C530 1.327 . S
C528 H553 0.950 . S
C529 C528 1.349 . S
C529 C545 1.349 . S
C530 C528 1.327 . S
C530 C549 1.429 . S
C530 H554 0.950 . S
C531 C548 1.574 . S
C531 C550 1.368 . S
C531 H555 0.949 . S
H532 C536 0.949 . S
C533 C534 1.349 . S
C533 C535 1.327 . S
C533 H556 0.950 . S
C534 C533 1.349 . S
C534 C546 1.349 . S
C535 C533 1.327 . S
C535 C551 1.429 . S
C535 H557 0.950 . S
C536 H532 0.949 . S
C536 C544 1.574 . S
C536 C552 1.368 . S
H537 C545 0.950 . S
H538 C543 0.950 . S
H539 C544 0.949 . S
H540 C546 0.950 . S
H541 C547 0.950 . S
H542 C548 0.949 . S
C543 H538 0.950 . S
C543 C545 1.327 . S
C543 C549 1.429 . S
C544 C536 1.574 . S
C544 H539 0.949 . S
C544 C550 1.368 . S
C545 C529 1.349 . S
C545 H537 0.950 . S
C545 C543 1.327 . S
C546 C534 1.349 . S
C546 H540 0.950 . S
C546 C547 1.327 . S
C547 H541 0.950 . S
C547 C546 1.327 . S
C547 C551 1.429 . S
C548 C531 1.574 . S
C548 H542 0.949 . S
C548 C552 1.368 . S
C549 C530 1.429 . S
C549 C543 1.429 . S
C549 C550 1.523 . S
C550 C531 1.368 . S
C550 C544 1.368 . S
C550 C549 1.523 . S
C551 C535 1.429 . S
C551 C547 1.429 . S
C551 C552 1.523 . S
C552 C536 1.368 . S
C552 C548 1.368 . S
C552 C551 1.523 . S
H553 C528 0.950 . S
H554 C530 0.950 . S
H555 C531 0.949 . S
H556 C533 0.950 . S
H557 C535 0.950 . S
C558 C559 1.349 . S
C558 C560 1.327 . S
C558 H583 0.950 . S
C559 C558 1.349 . S
C559 C575 1.349 1_545 S
C560 C558 1.327 . S
C560 C579 1.429 . S
C560 H584 0.950 . S
C561 C578 1.574 . S
C561 C580 1.368 1_565 S
C561 H585 0.949 . S
H562 C566 0.949 . S
C563 C564 1.349 1_565 S
C563 C565 1.327 . S
C563 H586 0.950 . S
C564 C563 1.349 1_545 S
C564 C576 1.349 . S
C565 C563 1.327 . S
C565 C581 1.429 1_565 S
C565 H587 0.950 . S
C566 H562 0.949 . S
C566 C574 1.574 . S
C566 C582 1.368 . S
H567 C575 0.950 . S
H568 C573 0.950 . S
H569 C574 0.949 . S
H570 C576 0.950 . S
H571 C577 0.950 . S
H572 C578 0.949 . S
C573 H568 0.950 . S
C573 C575 1.327 . S
C573 C579 1.429 1_565 S
C574 C566 1.574 . S
C574 H569 0.949 . S
C574 C580 1.368 . S
C575 C559 1.349 1_565 S
C575 H567 0.950 . S
C575 C573 1.327 . S
C576 C564 1.349 . S
C576 H570 0.950 . S
C576 C577 1.327 . S
C577 H571 0.950 . S
C577 C576 1.327 . S
C577 C581 1.429 . S
C578 C561 1.574 . S
C578 H572 0.949 . S
C578 C582 1.368 1_565 S
C579 C560 1.429 . S
C579 C573 1.429 1_545 S
C579 C580 1.523 . S
C580 C561 1.368 1_545 S
C580 C574 1.368 . S
C580 C579 1.523 . S
C581 C565 1.429 1_545 S
C581 C577 1.429 . S
C581 C582 1.523 . S
C582 C566 1.368 . S
C582 C578 1.368 1_545 S
C582 C581 1.523 . S
H583 C558 0.950 . S
H584 C560 0.950 . S
H585 C561 0.949 . S
H586 C563 0.950 . S
H587 C565 0.950 . S
C588 C589 1.349 1_565 S
C588 C590 1.327 . S
C588 H613 0.950 . S
C589 C588 1.349 1_545 S
C589 C605 1.349 . S
C590 C588 1.327 . S
C590 C609 1.429 1_565 S
C590 H614 0.950 . S
C591 C608 1.574 . S
C591 C610 1.368 . S
C591 H615 0.949 . S
H592 C596 0.949 . S
C593 C594 1.349 . S
C593 C595 1.327 . S
C593 H616 0.950 . S
C594 C593 1.349 . S
C594 C606 1.349 1_545 S
C595 C593 1.327 . S
C595 C611 1.429 . S
C595 H617 0.950 . S
C596 H592 0.949 . S
C596 C604 1.574 . S
C596 C612 1.368 1_565 S
H597 C605 0.950 . S
H598 C603 0.950 . S
H599 C604 0.949 . S
H600 C606 0.950 . S
H601 C607 0.950 . S
H602 C608 0.949 . S
C603 H598 0.950 . S
C603 C605 1.327 . S
C603 C609 1.429 . S
C604 C596 1.574 . S
C604 H599 0.949 . S
C604 C610 1.368 1_565 S
C605 C589 1.349 . S
C605 H597 0.950 . S
C605 C603 1.327 . S
C606 C594 1.349 1_565 S
C606 H600 0.950 . S
C606 C607 1.327 . S
C607 H601 0.950 . S
C607 C606 1.327 . S
C607 C611 1.429 1_565 S
C608 C591 1.574 . S
C608 H602 0.949 . S
C608 C612 1.368 . S
C609 C590 1.429 1_545 S
C609 C603 1.429 . S
C609 C610 1.523 . S
C610 C591 1.368 . S
C610 C604 1.368 1_545 S
C610 C609 1.523 . S
C611 C595 1.429 . S
C611 C607 1.429 1_545 S
C611 C612 1.523 . S
C612 C596 1.368 1_545 S
C612 C608 1.368 . S
C612 C611 1.523 . S
H613 C588 0.950 . S
H614 C590 0.950 . S
H615 C591 0.949 . S
H616 C593 0.950 . S
H617 C595 0.950 . S
C618 C619 1.349 . S
C618 C620 1.327 . S
C618 H643 0.950 . S
C619 C618 1.349 . S
C619 C635 1.349 . S
C620 C618 1.327 . S
C620 C639 1.429 . S
C620 H644 0.950 . S
C621 C638 1.574 . S
C621 C640 1.368 . S
C621 H645 0.949 . S
H622 C626 0.949 . S
C623 C624 1.349 . S
C623 C625 1.327 . S
C623 H646 0.950 . S
C624 C623 1.349 . S
C624 C636 1.349 . S
C625 C623 1.327 . S
C625 C641 1.429 . S
C625 H647 0.950 . S
C626 H622 0.949 . S
C626 C634 1.574 . S
C626 C642 1.368 . S
H627 C635 0.950 . S
H628 C633 0.950 . S
H629 C634 0.949 . S
H630 C636 0.950 . S
H631 C637 0.950 . S
H632 C638 0.949 . S
C633 H628 0.950 . S
C633 C635 1.327 . S
C633 C639 1.429 . S
C634 C626 1.574 . S
C634 H629 0.949 . S
C634 C640 1.368 . S
C635 C619 1.349 . S
C635 H627 0.950 . S
C635 C633 1.327 . S
C636 C624 1.349 . S
C636 H630 0.950 . S
C636 C637 1.327 . S
C637 H631 0.950 . S
C637 C636 1.327 . S
C637 C641 1.429 . S
C638 C621 1.574 . S
C638 H632 0.949 . S
C638 C642 1.368 . S
C639 C620 1.429 . S
C639 C633 1.429 . S
C639 C640 1.523 . S
C640 C621 1.368 . S
C640 C634 1.368 . S
C640 C639 1.523 . S
C641 C625 1.429 . S
C641 C637 1.429 . S
C641 C642 1.523 . S
C642 C626 1.368 . S
C642 C638 1.368 . S
C642 C641 1.523 . S
H643 C618 0.950 . S
H644 C620 0.950 . S
H645 C621 0.949 . S
H646 C623 0.950 . S
H647 C625 0.950 . S
C648 C649 1.349 . S
C648 C650 1.327 . S
C648 H673 0.950 . S
C649 C648 1.349 . S
C649 C665 1.349 . S
C650 C648 1.327 . S
C650 C669 1.429 . S
C650 H674 0.950 . S
C651 C668 1.574 . S
C651 C670 1.368 . S
C651 H675 0.949 . S
H652 C656 0.949 . S
C653 C654 1.349 . S
C653 C655 1.327 . S
C653 H676 0.950 . S
C654 C653 1.349 . S
C654 C666 1.349 . S
C655 C653 1.327 . S
C655 C671 1.429 . S
C655 H677 0.950 . S
C656 H652 0.949 . S
C656 C664 1.574 . S
C656 C672 1.368 . S
H657 C665 0.950 . S
H658 C663 0.950 . S
H659 C664 0.949 . S
H660 C666 0.950 . S
H661 C667 0.950 . S
H662 C668 0.949 . S
C663 H658 0.950 . S
C663 C665 1.327 . S
C663 C669 1.429 . S
C664 C656 1.574 . S
C664 H659 0.949 . S
C664 C670 1.368 . S
C665 C649 1.349 . S
C665 H657 0.950 . S
C665 C663 1.327 . S
C666 C654 1.349 . S
C666 H660 0.950 . S
C666 C667 1.327 . S
C667 H661 0.950 . S
C667 C666 1.327 . S
C667 C671 1.429 . S
C668 C651 1.574 . S
C668 H662 0.949 . S
C668 C672 1.368 . S
C669 C650 1.429 . S
C669 C663 1.429 . S
C669 C670 1.523 . S
C670 C651 1.368 . S
C670 C664 1.368 . S
C670 C669 1.523 . S
C671 C655 1.429 . S
C671 C667 1.429 . S
C671 C672 1.523 . S
C672 C656 1.368 . S
C672 C668 1.368 . S
C672 C671 1.523 . S
H673 C648 0.950 . S
H674 C650 0.950 . S
H675 C651 0.949 . S
H676 C653 0.950 . S
H677 C655 0.950 . S
C678 C679 1.349 . S
C678 C680 1.327 . S
C678 H703 0.950 . S
C679 C678 1.349 . S
C679 C695 1.349 . S
C680 C678 1.327 . S
C680 C699 1.429 . S
C680 H704 0.950 . S
C681 C698 1.574 . S
C681 C700 1.368 . S
C681 H705 0.949 . S
H682 C686 0.949 . S
C683 C684 1.349 . S
C683 C685 1.327 . S
C683 H706 0.950 . S
C684 C683 1.349 . S
C684 C696 1.349 . S
C685 C683 1.327 . S
C685 C701 1.429 . S
C685 H707 0.950 . S
C686 H682 0.949 . S
C686 C694 1.574 . S
C686 C702 1.368 . S
H687 C695 0.950 . S
H688 C693 0.950 . S
H689 C694 0.949 . S
H690 C696 0.950 . S
H691 C697 0.950 . S
H692 C698 0.949 . S
C693 H688 0.950 . S
C693 C695 1.327 . S
C693 C699 1.429 . S
C694 C686 1.574 . S
C694 H689 0.949 . S
C694 C700 1.368 . S
C695 C679 1.349 . S
C695 H687 0.950 . S
C695 C693 1.327 . S
C696 C684 1.349 . S
C696 H690 0.950 . S
C696 C697 1.327 . S
C697 H691 0.950 . S
C697 C696 1.327 . S
C697 C701 1.429 . S
C698 C681 1.574 . S
C698 H692 0.949 . S
C698 C702 1.368 . S
C699 C680 1.429 . S
C699 C693 1.429 . S
C699 C700 1.523 . S
C700 C681 1.368 . S
C700 C694 1.368 . S
C700 C699 1.523 . S
C701 C685 1.429 . S
C701 C697 1.429 . S
C701 C702 1.523 . S
C702 C686 1.368 . S
C702 C698 1.368 . S
C702 C701 1.523 . S
H703 C678 0.950 . S
H704 C680 0.950 . S
H705 C681 0.949 . S
H706 C683 0.950 . S
H707 C685 0.950 . S
C708 C709 1.349 . S
C708 C710 1.327 . S
C708 H733 0.950 . S
C709 C708 1.349 . S
C709 C725 1.349 . S
C710 C708 1.327 . S
C710 C729 1.429 . S
C710 H734 0.950 . S
C711 C728 1.574 . S
C711 C730 1.368 . S
C711 H735 0.949 . S
H712 C716 0.949 . S
C713 C714 1.349 . S
C713 C715 1.327 . S
C713 H736 0.950 . S
C714 C713 1.349 . S
C714 C726 1.349 . S
C715 C713 1.327 . S
C715 C731 1.429 . S
C715 H737 0.950 . S
C716 H712 0.949 . S
C716 C724 1.574 . S
C716 C732 1.368 . S
H717 C725 0.950 . S
H718 C723 0.950 . S
H719 C724 0.949 . S
H720 C726 0.950 . S
H721 C727 0.950 . S
H722 C728 0.949 . S
C723 H718 0.950 . S
C723 C725 1.327 . S
C723 C729 1.429 . S
C724 C716 1.574 . S
C724 H719 0.949 . S
C724 C730 1.368 . S
C725 C709 1.349 . S
C725 H717 0.950 . S
C725 C723 1.327 . S
C726 C714 1.349 . S
C726 H720 0.950 . S
C726 C727 1.327 . S
C727 H721 0.950 . S
C727 C726 1.327 . S
C727 C731 1.429 . S
C728 C711 1.574 . S
C728 H722 0.949 . S
C728 C732 1.368 . S
C729 C710 1.429 . S
C729 C723 1.429 . S
C729 C730 1.523 . S
C730 C711 1.368 . S
C730 C724 1.368 . S
C730 C729 1.523 . S
C731 C715 1.429 . S
C731 C727 1.429 . S
C731 C732 1.523 . S
C732 C716 1.368 . S
C732 C728 1.368 . S
C732 C731 1.523 . S
H733 C708 0.950 . S
H734 C710 0.950 . S
H735 C711 0.949 . S
H736 C713 0.950 . S
H737 C715 0.950 . S
C738 C739 1.349 . S
C738 C740 1.327 . S
C738 H763 0.950 . S
C739 C738 1.349 . S
C739 C755 1.349 . S
C740 C738 1.327 . S
C740 C759 1.429 . S
C740 H764 0.950 . S
C741 C758 1.574 . S
C741 C760 1.368 . S
C741 H765 0.949 . S
H742 C746 0.949 . S
C743 C744 1.349 . S
C743 C745 1.327 . S
C743 H766 0.950 . S
C744 C743 1.349 . S
C744 C756 1.349 . S
C745 C743 1.327 . S
C745 C761 1.429 . S
C745 H767 0.950 . S
C746 H742 0.949 . S
C746 C754 1.574 . S
C746 C762 1.368 . S
H747 C755 0.950 . S
H748 C753 0.950 . S
H749 C754 0.949 . S
H750 C756 0.950 . S
H751 C757 0.950 . S
H752 C758 0.949 . S
C753 H748 0.950 . S
C753 C755 1.327 . S
C753 C759 1.429 . S
C754 C746 1.574 . S
C754 H749 0.949 . S
C754 C760 1.368 . S
C755 C739 1.349 . S
C755 H747 0.950 . S
C755 C753 1.327 . S
C756 C744 1.349 . S
C756 H750 0.950 . S
C756 C757 1.327 . S
C757 H751 0.950 . S
C757 C756 1.327 . S
C757 C761 1.429 . S
C758 C741 1.574 . S
C758 H752 0.949 . S
C758 C762 1.368 . S
C759 C740 1.429 . S
C759 C753 1.429 . S
C759 C760 1.523 . S
C760 C741 1.368 . S
C760 C754 1.368 . S
C760 C759 1.523 . S
C761 C745 1.429 . S
C761 C757 1.429 . S
C761 C762 1.523 . S
C762 C746 1.368 . S
C762 C758 1.368 . S
C762 C761 1.523 . S
H763 C738 0.950 . S
H764 C740 0.950 . S
H765 C741 0.949 . S
H766 C743 0.950 . S
H767 C745 0.950 . S
C768 C769 1.349 . S
C768 C770 1.327 . S
C768 H793 0.950 . S
C769 C768 1.349 . S
C769 C785 1.349 . S
C770 C768 1.327 . S
C770 C789 1.429 . S
C770 H794 0.950 . S
C771 C788 1.574 . S
C771 C790 1.368 . S
C771 H795 0.949 . S
H772 C776 0.949 . S
C773 C774 1.349 . S
C773 C775 1.327 . S
C773 H796 0.950 . S
C774 C773 1.349 . S
C774 C786 1.349 . S
C775 C773 1.327 . S
C775 C791 1.429 . S
C775 H797 0.950 . S
C776 H772 0.949 . S
C776 C784 1.574 . S
C776 C792 1.368 . S
H777 C785 0.950 . S
H778 C783 0.950 . S
H779 C784 0.949 . S
H780 C786 0.950 . S
H781 C787 0.950 . S
H782 C788 0.949 . S
C783 H778 0.950 . S
C783 C785 1.327 . S
C783 C789 1.429 . S
C784 C776 1.574 . S
C784 H779 0.949 . S
C784 C790 1.368 . S
C785 C769 1.349 . S
C785 H777 0.950 . S
C785 C783 1.327 . S
C786 C774 1.349 . S
C786 H780 0.950 . S
C786 C787 1.327 . S
C787 H781 0.950 . S
C787 C786 1.327 . S
C787 C791 1.429 . S
C788 C771 1.574 . S
C788 H782 0.949 . S
C788 C792 1.368 . S
C789 C770 1.429 . S
C789 C783 1.429 . S
C789 C790 1.523 . S
C790 C771 1.368 . S
C790 C784 1.368 . S
C790 C789 1.523 . S
C791 C775 1.429 . S
C791 C787 1.429 . S
C791 C792 1.523 . S
C792 C776 1.368 . S
C792 C788 1.368 . S
C792 C791 1.523 . S
H793 C768 0.950 . S
H794 C770 0.950 . S
H795 C771 0.949 . S
H796 C773 0.950 . S
H797 C775 0.950 . S
C798 C799 1.349 . S
C798 C800 1.327 . S
C798 H823 0.950 . S
C799 C798 1.349 . S
C799 C815 1.349 . S
C800 C798 1.327 . S
C800 C819 1.429 . S
C800 H824 0.950 . S
C801 C818 1.574 . S
C801 C820 1.368 . S
C801 H825 0.949 . S
H802 C806 0.949 . S
C803 C804 1.349 . S
C803 C805 1.327 . S
C803 H826 0.950 . S
C804 C803 1.349 . S
C804 C816 1.349 . S
C805 C803 1.327 . S
C805 C821 1.429 . S
C805 H827 0.950 . S
C806 H802 0.949 . S
C806 C814 1.574 . S
C806 C822 1.368 . S
H807 C815 0.950 . S
H808 C813 0.950 . S
H809 C814 0.949 . S
H810 C816 0.950 . S
H811 C817 0.950 . S
H812 C818 0.949 . S
C813 H808 0.950 . S
C813 C815 1.327 . S
C813 C819 1.429 . S
C814 C806 1.574 . S
C814 H809 0.949 . S
C814 C820 1.368 . S
C815 C799 1.349 . S
C815 H807 0.950 . S
C815 C813 1.327 . S
C816 C804 1.349 . S
C816 H810 0.950 . S
C816 C817 1.327 . S
C817 H811 0.950 . S
C817 C816 1.327 . S
C817 C821 1.429 . S
C818 C801 1.574 . S
C818 H812 0.949 . S
C818 C822 1.368 . S
C819 C800 1.429 . S
C819 C813 1.429 . S
C819 C820 1.523 . S
C820 C801 1.368 . S
C820 C814 1.368 . S
C820 C819 1.523 . S
C821 C805 1.429 . S
C821 C817 1.429 . S
C821 C822 1.523 . S
C822 C806 1.368 . S
C822 C818 1.368 . S
C822 C821 1.523 . S
H823 C798 0.950 . S
H824 C800 0.950 . S
H825 C801 0.949 . S
H826 C803 0.950 . S
H827 C805 0.950 . S
C828 C829 1.349 . S
C828 C830 1.327 . S
C828 H853 0.950 . S
C829 C828 1.349 . S
C829 C845 1.349 . S
C830 C828 1.327 . S
C830 C849 1.429 . S
C830 H854 0.950 . S
C831 C848 1.574 . S
C831 C850 1.368 . S
C831 H855 0.949 . S
H832 C836 0.949 . S
C833 C834 1.349 . S
C833 C835 1.327 . S
C833 H856 0.950 . S
C834 C833 1.349 . S
C834 C846 1.349 . S
C835 C833 1.327 . S
C835 C851 1.429 . S
C835 H857 0.950 . S
C836 H832 0.949 . S
C836 C844 1.574 . S
C836 C852 1.368 . S
H837 C845 0.950 . S
H838 C843 0.950 . S
H839 C844 0.949 . S
H840 C846 0.950 . S
H841 C847 0.950 . S
H842 C848 0.949 . S
C843 H838 0.950 . S
C843 C845 1.327 . S
C843 C849 1.429 . S
C844 C836 1.574 . S
C844 H839 0.949 . S
C844 C850 1.368 . S
C845 C829 1.349 . S
C845 H837 0.950 . S
C845 C843 1.327 . S
C846 C834 1.349 . S
C846 H840 0.950 . S
C846 C847 1.327 . S
C847 H841 0.950 . S
C847 C846 1.327 . S
C847 C851 1.429 . S
C848 C831 1.574 . S
C848 H842 0.949 . S
C848 C852 1.368 . S
C849 C830 1.429 . S
C849 C843 1.429 . S
C849 C850 1.523 . S
C850 C831 1.368 . S
C850 C844 1.368 . S
C850 C849 1.523 . S
C851 C835 1.429 . S
C851 C847 1.429 . S
C851 C852 1.523 . S
C852 C836 1.368 . S
C852 C848 1.368 . S
C852 C851 1.523 . S
H853 C828 0.950 . S
H854 C830 0.950 . S
H855 C831 0.949 . S
H856 C833 0.950 . S
H857 C835 0.950 . S
C858 C859 1.349 . S
C858 C860 1.327 . S
C858 H883 0.950 . S
C859 C858 1.349 . S
C859 C875 1.349 . S
C860 C858 1.327 . S
C860 C879 1.429 . S
C860 H884 0.950 . S
C861 C878 1.574 . S
C861 C880 1.368 . S
C861 H885 0.949 . S
H862 C866 0.949 . S
C863 C864 1.349 . S
C863 C865 1.327 . S
C863 H886 0.950 . S
C864 C863 1.349 . S
C864 C876 1.349 . S
C865 C863 1.327 . S
C865 C881 1.429 . S
C865 H887 0.950 . S
C866 H862 0.949 . S
C866 C874 1.574 . S
C866 C882 1.368 . S
H867 C875 0.950 . S
H868 C873 0.950 . S
H869 C874 0.949 . S
H870 C876 0.950 . S
H871 C877 0.950 . S
H872 C878 0.949 . S
C873 H868 0.950 . S
C873 C875 1.327 . S
C873 C879 1.429 . S
C874 C866 1.574 . S
C874 H869 0.949 . S
C874 C880 1.368 . S
C875 C859 1.349 . S
C875 H867 0.950 . S
C875 C873 1.327 . S
C876 C864 1.349 . S
C876 H870 0.950 . S
C876 C877 1.327 . S
C877 H871 0.950 . S
C877 C876 1.327 . S
C877 C881 1.429 . S
C878 C861 1.574 . S
C878 H872 0.949 . S
C878 C882 1.368 . S
C879 C860 1.429 . S
C879 C873 1.429 . S
C879 C880 1.523 . S
C880 C861 1.368 . S
C880 C874 1.368 . S
C880 C879 1.523 . S
C881 C865 1.429 . S
C881 C877 1.429 . S
C881 C882 1.523 . S
C882 C866 1.368 . S
C882 C878 1.368 . S
C882 C881 1.523 . S
H883 C858 0.950 . S
H884 C860 0.950 . S
H885 C861 0.949 . S
H886 C863 0.950 . S
H887 C865 0.950 . S
C888 C889 1.349 . S
C888 C890 1.327 . S
C888 H913 0.950 . S
C889 C888 1.349 . S
C889 C905 1.349 . S
C890 C888 1.327 . S
C890 C909 1.429 . S
C890 H914 0.950 . S
C891 C908 1.574 . S
C891 C910 1.368 . S
C891 H915 0.949 . S
H892 C896 0.949 . S
C893 C894 1.349 . S
C893 C895 1.327 . S
C893 H916 0.950 . S
C894 C893 1.349 . S
C894 C906 1.349 . S
C895 C893 1.327 . S
C895 C911 1.429 . S
C895 H917 0.950 . S
C896 H892 0.949 . S
C896 C904 1.574 . S
C896 C912 1.368 . S
H897 C905 0.950 . S
H898 C903 0.950 . S
H899 C904 0.949 . S
H900 C906 0.950 . S
H901 C907 0.950 . S
H902 C908 0.949 . S
C903 H898 0.950 . S
C903 C905 1.327 . S
C903 C909 1.429 . S
C904 C896 1.574 . S
C904 H899 0.949 . S
C904 C910 1.368 . S
C905 C889 1.349 . S
C905 H897 0.950 . S
C905 C903 1.327 . S
C906 C894 1.349 . S
C906 H900 0.950 . S
C906 C907 1.327 . S
C907 H901 0.950 . S
C907 C906 1.327 . S
C907 C911 1.429 . S
C908 C891 1.574 . S
C908 H902 0.949 . S
C908 C912 1.368 . S
C909 C890 1.429 . S
C909 C903 1.429 . S
C909 C910 1.523 . S
C910 C891 1.368 . S
C910 C904 1.368 . S
C910 C909 1.523 . S
C911 C895 1.429 . S
C911 C907 1.429 . S
C911 C912 1.523 . S
C912 C896 1.368 . S
C912 C908 1.368 . S
C912 C911 1.523 . S
H913 C888 0.950 . S
H914 C890 0.950 . S
H915 C891 0.949 . S
H916 C893 0.950 . S
H917 C895 0.950 . S
C918 C919 1.349 . S
C918 C920 1.327 . S
C918 H943 0.950 . S
C919 C918 1.349 . S
C919 C935 1.349 . S
C920 C918 1.327 . S
C920 C939 1.429 . S
C920 H944 0.950 . S
C921 C938 1.574 . S
C921 C940 1.368 . S
C921 H945 0.949 . S
H922 C926 0.949 . S
C923 C924 1.349 . S
C923 C925 1.327 . S
C923 H946 0.950 . S
C924 C923 1.349 . S
C924 C936 1.349 . S
C925 C923 1.327 . S
C925 C941 1.429 . S
C925 H947 0.950 . S
C926 H922 0.949 . S
C926 C934 1.574 . S
C926 C942 1.368 . S
H927 C935 0.950 . S
H928 C933 0.950 . S
H929 C934 0.949 . S
H930 C936 0.950 . S
H931 C937 0.950 . S
H932 C938 0.949 . S
C933 H928 0.950 . S
C933 C935 1.327 . S
C933 C939 1.429 . S
C934 C926 1.574 . S
C934 H929 0.949 . S
C934 C940 1.368 . S
C935 C919 1.349 . S
C935 H927 0.950 . S
C935 C933 1.327 . S
C936 C924 1.349 . S
C936 H930 0.950 . S
C936 C937 1.327 . S
C937 H931 0.950 . S
C937 C936 1.327 . S
C937 C941 1.429 . S
C938 C921 1.574 . S
C938 H932 0.949 . S
C938 C942 1.368 . S
C939 C920 1.429 . S
C939 C933 1.429 . S
C939 C940 1.523 . S
C940 C921 1.368 . S
C940 C934 1.368 . S
C940 C939 1.523 . S
C941 C925 1.429 . S
C941 C937 1.429 . S
C941 C942 1.523 . S
C942 C926 1.368 . S
C942 C938 1.368 . S
C942 C941 1.523 . S
H943 C918 0.950 . S
H944 C920 0.950 . S
H945 C921 0.949 . S
H946 C923 0.950 . S
H947 C925 0.950 . S
C948 C949 1.349 . S
C948 C950 1.327 . S
C948 H973 0.950 . S
C949 C948 1.349 . S
C949 C965 1.349 . S
C950 C948 1.327 . S
C950 C969 1.429 . S
C950 H974 0.950 . S
C951 C968 1.574 . S
C951 C970 1.368 . S
C951 H975 0.949 . S
H952 C956 0.949 . S
C953 C954 1.349 . S
C953 C955 1.327 . S
C953 H976 0.950 . S
C954 C953 1.349 . S
C954 C966 1.349 . S
C955 C953 1.327 . S
C955 C971 1.429 . S
C955 H977 0.950 . S
C956 H952 0.949 . S
C956 C964 1.574 . S
C956 C972 1.368 . S
H957 C965 0.950 . S
H958 C963 0.950 . S
H959 C964 0.949 . S
H960 C966 0.950 . S
H961 C967 0.950 . S
H962 C968 0.949 . S
C963 H958 0.950 . S
C963 C965 1.327 . S
C963 C969 1.429 . S
C964 C956 1.574 . S
C964 H959 0.949 . S
C964 C970 1.368 . S
C965 C949 1.349 . S
C965 H957 0.950 . S
C965 C963 1.327 . S
C966 C954 1.349 . S
C966 H960 0.950 . S
C966 C967 1.327 . S
C967 H961 0.950 . S
C967 C966 1.327 . S
C967 C971 1.429 . S
C968 C951 1.574 . S
C968 H962 0.949 . S
C968 C972 1.368 . S
C969 C950 1.429 . S
C969 C963 1.429 . S
C969 C970 1.523 . S
C970 C951 1.368 . S
C970 C964 1.368 . S
C970 C969 1.523 . S
C971 C955 1.429 . S
C971 C967 1.429 . S
C971 C972 1.523 . S
C972 C956 1.368 . S
C972 C968 1.368 . S
C972 C971 1.523 . S
H973 C948 0.950 . S
H974 C950 0.950 . S
H975 C951 0.949 . S
H976 C953 0.950 . S
H977 C955 0.950 . S
C978 C979 1.349 . S
C978 C980 1.327 . S
C978 H1003 0.950 . S
C979 C978 1.349 . S
C979 C995 1.349 . S
C980 C978 1.327 . S
C980 C999 1.429 . S
C980 H1004 0.950 . S
C981 C998 1.574 . S
C981 C1000 1.368 . S
C981 H1005 0.949 . S
H982 C986 0.949 . S
C983 C984 1.349 . S
C983 C985 1.327 . S
C983 H1006 0.950 . S
C984 C983 1.349 . S
C984 C996 1.349 . S
C985 C983 1.327 . S
C985 C1001 1.429 . S
C985 H1007 0.950 . S
C986 H982 0.949 . S
C986 C994 1.574 . S
C986 C1002 1.368 . S
H987 C995 0.950 . S
H988 C993 0.950 . S
H989 C994 0.949 . S
H990 C996 0.950 . S
H991 C997 0.950 . S
H992 C998 0.949 . S
C993 H988 0.950 . S
C993 C995 1.327 . S
C993 C999 1.429 . S
C994 C986 1.574 . S
C994 H989 0.949 . S
C994 C1000 1.368 . S
C995 C979 1.349 . S
C995 H987 0.950 . S
C995 C993 1.327 . S
C996 C984 1.349 . S
C996 H990 0.950 . S
C996 C997 1.327 . S
C997 H991 0.950 . S
C997 C996 1.327 . S
C997 C1001 1.429 . S
C998 C981 1.574 . S
C998 H992 0.949 . S
C998 C1002 1.368 . S
C999 C980 1.429 . S
C999 C993 1.429 . S
C999 C1000 1.523 . S
C1000 C981 1.368 . S
C1000 C994 1.368 . S
C1000 C999 1.523 . S
C1001 C985 1.429 . S
C1001 C997 1.429 . S
C1001 C1002 1.523 . S
C1002 C986 1.368 . S
C1002 C998 1.368 . S
C1002 C1001 1.523 . S
H1003 C978 0.950 . S
H1004 C980 0.950 . S
H1005 C981 0.949 . S
H1006 C983 0.950 . S
H1007 C985 0.950 . S
C1008 C1009 1.349 . S
C1008 C1010 1.327 . S
C1008 H1033 0.950 . S
C1009 C1008 1.349 . S
C1009 C1025 1.349 . S
C1010 C1008 1.327 . S
C1010 C1029 1.429 . S
C1010 H1034 0.950 . S
C1011 C1028 1.574 . S
C1011 C1030 1.368 . S
C1011 H1035 0.949 . S
H1012 C1016 0.949 . S
C1013 C1014 1.349 . S
C1013 C1015 1.327 . S
C1013 H1036 0.950 . S
C1014 C1013 1.349 . S
C1014 C1026 1.349 . S
C1015 C1013 1.327 . S
C1015 C1031 1.429 . S
C1015 H1037 0.950 . S
C1016 H1012 0.949 . S
C1016 C1024 1.574 . S
C1016 C1032 1.368 . S
H1017 C1025 0.950 . S
H1018 C1023 0.950 . S
H1019 C1024 0.949 . S
H1020 C1026 0.950 . S
H1021 C1027 0.950 . S
H1022 C1028 0.949 . S
C1023 H1018 0.950 . S
C1023 C1025 1.327 . S
C1023 C1029 1.429 . S
C1024 C1016 1.574 . S
C1024 H1019 0.949 . S
C1024 C1030 1.368 . S
C1025 C1009 1.349 . S
C1025 H1017 0.950 . S
C1025 C1023 1.327 . S
C1026 C1014 1.349 . S
C1026 H1020 0.950 . S
C1026 C1027 1.327 . S
C1027 H1021 0.950 . S
C1027 C1026 1.327 . S
C1027 C1031 1.429 . S
C1028 C1011 1.574 . S
C1028 H1022 0.949 . S
C1028 C1032 1.368 . S
C1029 C1010 1.429 . S
C1029 C1023 1.429 . S
C1029 C1030 1.523 . S
C1030 C1011 1.368 . S
C1030 C1024 1.368 . S
C1030 C1029 1.523 . S
C1031 C1015 1.429 . S
C1031 C1027 1.429 . S
C1031 C1032 1.523 . S
C1032 C1016 1.368 . S
C1032 C1028 1.368 . S
C1032 C1031 1.523 . S
H1033 C1008 0.950 . S
H1034 C1010 0.950 . S
H1035 C1011 0.949 . S
H1036 C1013 0.950 . S
H1037 C1015 0.950 . S
C1038 C1039 1.349 . S
C1038 C1040 1.327 . S
C1038 H1063 0.950 . S
C1039 C1038 1.349 . S
C1039 C1055 1.349 . S
C1040 C1038 1.327 . S
C1040 C1059 1.429 . S
C1040 H1064 0.950 . S
C1041 C1058 1.574 . S
C1041 C1060 1.368 . S
C1041 H1065 0.949 . S
H1042 C1046 0.949 . S
C1043 C1044 1.349 . S
C1043 C1045 1.327 . S
C1043 H1066 0.950 . S
C1044 C1043 1.349 . S
C1044 C1056 1.349 . S
C1045 C1043 1.327 . S
C1045 C1061 1.429 . S
C1045 H1067 0.950 . S
C1046 H1042 0.949 . S
C1046 C1054 1.574 . S
C1046 C1062 1.368 . S
H1047 C1055 0.950 . S
H1048 C1053 0.950 . S
H1049 C1054 0.949 . S
H1050 C1056 0.950 . S
H1051 C1057 0.950 . S
H1052 C1058 0.949 . S
C1053 H1048 0.950 . S
C1053 C1055 1.327 . S
C1053 C1059 1.429 . S
C1054 C1046 1.574 . S
C1054 H1049 0.949 . S
C1054 C1060 1.368 . S
C1055 C1039 1.349 . S
C1055 H1047 0.950 . S
C1055 C1053 1.327 . S
C1056 C1044 1.349 . S
C1056 H1050 0.950 . S
C1056 C1057 1.327 . S
C1057 H1051 0.950 . S
C1057 C1056 1.327 . S
C1057 C1061 1.429 . S
C1058 C1041 1.574 . S
C1058 H1052 0.949 . S
C1058 C1062 1.368 . S
C1059 C1040 1.429 . S
C1059 C1053 1.429 . S
C1059 C1060 1.523 . S
C1060 C1041 1.368 . S
C1060 C1054 1.368 . S
C1060 C1059 1.523 . S
C1061 C1045 1.429 . S
C1061 C1057 1.429 . S
C1061 C1062 1.523 . S
C1062 C1046 1.368 . S
C1062 C1058 1.368 . S
C1062 C1061 1.523 . S
H1063 C1038 0.950 . S
H1064 C1040 0.950 . S
H1065 C1041 0.949 . S
H1066 C1043 0.950 . S
H1067 C1045 0.950 . S
C1068 C1069 1.349 . S
C1068 C1070 1.327 . S
C1068 H1093 0.950 . S
C1069 C1068 1.349 . S
C1069 C1085 1.349 . S
C1070 C1068 1.327 . S
C1070 C1089 1.429 . S
C1070 H1094 0.950 . S
C1071 C1088 1.574 . S
C1071 C1090 1.368 . S
C1071 H1095 0.949 . S
H1072 C1076 0.949 . S
C1073 C1074 1.349 . S
C1073 C1075 1.327 . S
C1073 H1096 0.950 . S
C1074 C1073 1.349 . S
C1074 C1086 1.349 . S
C1075 C1073 1.327 . S
C1075 C1091 1.429 . S
C1075 H1097 0.950 . S
C1076 H1072 0.949 . S
C1076 C1084 1.574 . S
C1076 C1092 1.368 . S
H1077 C1085 0.950 . S
H1078 C1083 0.950 . S
H1079 C1084 0.949 . S
H1080 C1086 0.950 . S
H1081 C1087 0.950 . S
H1082 C1088 0.949 . S
C1083 H1078 0.950 . S
C1083 C1085 1.327 . S
C1083 C1089 1.429 . S
C1084 C1076 1.574 . S
C1084 H1079 0.949 . S
C1084 C1090 1.368 . S
C1085 C1069 1.349 . S
C1085 H1077 0.950 . S
C1085 C1083 1.327 . S
C1086 C1074 1.349 . S
C1086 H1080 0.950 . S
C1086 C1087 1.327 . S
C1087 H1081 0.950 . S
C1087 C1086 1.327 . S
C1087 C1091 1.429 . S
C1088 C1071 1.574 . S
C1088 H1082 0.949 . S
C1088 C1092 1.368 . S
C1089 C1070 1.429 . S
C1089 C1083 1.429 . S
C1089 C1090 1.523 . S
C1090 C1071 1.368 . S
C1090 C1084 1.368 . S
C1090 C1089 1.523 . S
C1091 C1075 1.429 . S
C1091 C1087 1.429 . S
C1091 C1092 1.523 . S
C1092 C1076 1.368 . S
C1092 C1088 1.368 . S
C1092 C1091 1.523 . S
H1093 C1068 0.950 . S
H1094 C1070 0.950 . S
H1095 C1071 0.949 . S
H1096 C1073 0.950 . S
H1097 C1075 0.950 . S
C1098 C1099 1.349 . S
C1098 C1100 1.327 . S
C1098 H1123 0.950 . S
C1099 C1098 1.349 . S
C1099 C1115 1.349 . S
C1100 C1098 1.327 . S
C1100 C1119 1.429 . S
C1100 H1124 0.950 . S
C1101 C1118 1.574 . S
C1101 C1120 1.368 . S
C1101 H1125 0.949 . S
H1102 C1106 0.949 . S
C1103 C1104 1.349 . S
C1103 C1105 1.327 . S
C1103 H1126 0.950 . S
C1104 C1103 1.349 . S
C1104 C1116 1.349 . S
C1105 C1103 1.327 . S
C1105 C1121 1.429 . S
C1105 H1127 0.950 . S
C1106 H1102 0.949 . S
C1106 C1114 1.574 . S
C1106 C1122 1.368 . S
H1107 C1115 0.950 . S
H1108 C1113 0.950 . S
H1109 C1114 0.949 . S
H1110 C1116 0.950 . S
H1111 C1117 0.950 . S
H1112 C1118 0.949 . S
C1113 H1108 0.950 . S
C1113 C1115 1.327 . S
C1113 C1119 1.429 . S
C1114 C1106 1.574 . S
C1114 H1109 0.949 . S
C1114 C1120 1.368 . S
C1115 C1099 1.349 . S
C1115 H1107 0.950 . S
C1115 C1113 1.327 . S
C1116 C1104 1.349 . S
C1116 H1110 0.950 . S
C1116 C1117 1.327 . S
C1117 H1111 0.950 . S
C1117 C1116 1.327 . S
C1117 C1121 1.429 . S
C1118 C1101 1.574 . S
C1118 H1112 0.949 . S
C1118 C1122 1.368 . S
C1119 C1100 1.429 . S
C1119 C1113 1.429 . S
C1119 C1120 1.523 . S
C1120 C1101 1.368 . S
C1120 C1114 1.368 . S
C1120 C1119 1.523 . S
C1121 C1105 1.429 . S
C1121 C1117 1.429 . S
C1121 C1122 1.523 . S
C1122 C1106 1.368 . S
C1122 C1118 1.368 . S
C1122 C1121 1.523 . S
H1123 C1098 0.950 . S
H1124 C1100 0.950 . S
H1125 C1101 0.949 . S
H1126 C1103 0.950 . S
H1127 C1105 0.950 . S
C1128 C1129 1.349 . S
C1128 C1130 1.327 . S
C1128 H1153 0.950 . S
C1129 C1128 1.349 . S
C1129 C1145 1.349 . S
C1130 C1128 1.327 . S
C1130 C1149 1.429 . S
C1130 H1154 0.950 . S
C1131 C1148 1.574 . S
C1131 C1150 1.368 . S
C1131 H1155 0.949 . S
H1132 C1136 0.949 . S
C1133 C1134 1.349 . S
C1133 C1135 1.327 . S
C1133 H1156 0.950 . S
C1134 C1133 1.349 . S
C1134 C1146 1.349 . S
C1135 C1133 1.327 . S
C1135 C1151 1.429 . S
C1135 H1157 0.950 . S
C1136 H1132 0.949 . S
C1136 C1144 1.574 . S
C1136 C1152 1.368 . S
H1137 C1145 0.950 . S
H1138 C1143 0.950 . S
H1139 C1144 0.949 . S
H1140 C1146 0.950 . S
H1141 C1147 0.950 . S
H1142 C1148 0.949 . S
C1143 H1138 0.950 . S
C1143 C1145 1.327 . S
C1143 C1149 1.429 . S
C1144 C1136 1.574 . S
C1144 H1139 0.949 . S
C1144 C1150 1.368 . S
C1145 C1129 1.349 . S
C1145 H1137 0.950 . S
C1145 C1143 1.327 . S
C1146 C1134 1.349 . S
C1146 H1140 0.950 . S
C1146 C1147 1.327 . S
C1147 H1141 0.950 . S
C1147 C1146 1.327 . S
C1147 C1151 1.429 . S
C1148 C1131 1.574 . S
C1148 H1142 0.949 . S
C1148 C1152 1.368 . S
C1149 C1130 1.429 . S
C1149 C1143 1.429 . S
C1149 C1150 1.523 . S
C1150 C1131 1.368 . S
C1150 C1144 1.368 . S
C1150 C1149 1.523 . S
C1151 C1135 1.429 . S
C1151 C1147 1.429 . S
C1151 C1152 1.523 . S
C1152 C1136 1.368 . S
C1152 C1148 1.368 . S
C1152 C1151 1.523 . S
H1153 C1128 0.950 . S
H1154 C1130 0.950 . S
H1155 C1131 0.949 . S
H1156 C1133 0.950 . S
H1157 C1135 0.950 . S
C1158 C1159 1.349 . S
C1158 C1160 1.327 . S
C1158 H1183 0.950 . S
C1159 C1158 1.349 . S
C1159 C1175 1.349 . S
C1160 C1158 1.327 . S
C1160 C1179 1.429 . S
C1160 H1184 0.950 . S
C1161 C1178 1.574 . S
C1161 C1180 1.368 . S
C1161 H1185 0.949 . S
H1162 C1166 0.949 . S
C1163 C1164 1.349 . S
C1163 C1165 1.327 . S
C1163 H1186 0.950 . S
C1164 C1163 1.349 . S
C1164 C1176 1.349 . S
C1165 C1163 1.327 . S
C1165 C1181 1.429 . S
C1165 H1187 0.950 . S
C1166 H1162 0.949 . S
C1166 C1174 1.574 . S
C1166 C1182 1.368 . S
H1167 C1175 0.950 . S
H1168 C1173 0.950 . S
H1169 C1174 0.949 . S
H1170 C1176 0.950 . S
H1171 C1177 0.950 . S
H1172 C1178 0.949 . S
C1173 H1168 0.950 . S
C1173 C1175 1.327 . S
C1173 C1179 1.429 . S
C1174 C1166 1.574 . S
C1174 H1169 0.949 . S
C1174 C1180 1.368 . S
C1175 C1159 1.349 . S
C1175 H1167 0.950 . S
C1175 C1173 1.327 . S
C1176 C1164 1.349 . S
C1176 H1170 0.950 . S
C1176 C1177 1.327 . S
C1177 H1171 0.950 . S
C1177 C1176 1.327 . S
C1177 C1181 1.429 . S
C1178 C1161 1.574 . S
C1178 H1172 0.949 . S
C1178 C1182 1.368 . S
C1179 C1160 1.429 . S
C1179 C1173 1.429 . S
C1179 C1180 1.523 . S
C1180 C1161 1.368 . S
C1180 C1174 1.368 . S
C1180 C1179 1.523 . S
C1181 C1165 1.429 . S
C1181 C1177 1.429 . S
C1181 C1182 1.523 . S
C1182 C1166 1.368 . S
C1182 C1178 1.368 . S
C1182 C1181 1.523 . S
H1183 C1158 0.950 . S
H1184 C1160 0.950 . S
H1185 C1161 0.949 . S
H1186 C1163 0.950 . S
H1187 C1165 0.950 . S
C1188 C1189 1.349 . S
C1188 C1190 1.327 . S
C1188 H1213 0.950 . S
C1189 C1188 1.349 . S
C1189 C1205 1.349 . S
C1190 C1188 1.327 . S
C1190 C1209 1.429 . S
C1190 H1214 0.950 . S
C1191 C1208 1.574 . S
C1191 C1210 1.368 . S
C1191 H1215 0.949 . S
H1192 C1196 0.949 . S
C1193 C1194 1.349 . S
C1193 C1195 1.327 . S
C1193 H1216 0.950 . S
C1194 C1193 1.349 . S
C1194 C1206 1.349 . S
C1195 C1193 1.327 . S
C1195 C1211 1.429 . S
C1195 H1217 0.950 . S
C1196 H1192 0.949 . S
C1196 C1204 1.574 . S
C1196 C1212 1.368 . S
H1197 C1205 0.950 . S
H1198 C1203 0.950 . S
H1199 C1204 0.949 . S
H1200 C1206 0.950 . S
H1201 C1207 0.950 . S
H1202 C1208 0.949 . S
C1203 H1198 0.950 . S
C1203 C1205 1.327 . S
C1203 C1209 1.429 . S
C1204 C1196 1.574 . S
C1204 H1199 0.949 . S
C1204 C1210 1.368 . S
C1205 C1189 1.349 . S
C1205 H1197 0.950 . S
C1205 C1203 1.327 . S
C1206 C1194 1.349 . S
C1206 H1200 0.950 . S
C1206 C1207 1.327 . S
C1207 H1201 0.950 . S
C1207 C1206 1.327 . S
C1207 C1211 1.429 . S
C1208 C1191 1.574 . S
C1208 H1202 0.949 . S
C1208 C1212 1.368 . S
C1209 C1190 1.429 . S
C1209 C1203 1.429 . S
C1209 C1210 1.523 . S
C1210 C1191 1.368 . S
C1210 C1204 1.368 . S
C1210 C1209 1.523 . S
C1211 C1195 1.429 . S
C1211 C1207 1.429 . S
C1211 C1212 1.523 . S
C1212 C1196 1.368 . S
C1212 C1208 1.368 . S
C1212 C1211 1.523 . S
H1213 C1188 0.950 . S
H1214 C1190 0.950 . S
H1215 C1191 0.949 . S
H1216 C1193 0.950 . S
H1217 C1195 0.950 . S
C1218 C1219 1.349 . S
C1218 C1220 1.327 . S
C1218 H1243 0.950 . S
C1219 C1218 1.349 . S
C1219 C1235 1.349 . S
C1220 C1218 1.327 . S
C1220 C1239 1.429 . S
C1220 H1244 0.950 . S
C1221 C1238 1.574 . S
C1221 C1240 1.368 . S
C1221 H1245 0.949 . S
H1222 C1226 0.949 . S
C1223 C1224 1.349 . S
C1223 C1225 1.327 . S
C1223 H1246 0.950 . S
C1224 C1223 1.349 . S
C1224 C1236 1.349 . S
C1225 C1223 1.327 . S
C1225 C1241 1.429 . S
C1225 H1247 0.950 . S
C1226 H1222 0.949 . S
C1226 C1234 1.574 . S
C1226 C1242 1.368 . S
H1227 C1235 0.950 . S
H1228 C1233 0.950 . S
H1229 C1234 0.949 . S
H1230 C1236 0.950 . S
H1231 C1237 0.950 . S
H1232 C1238 0.949 . S
C1233 H1228 0.950 . S
C1233 C1235 1.327 . S
C1233 C1239 1.429 . S
C1234 C1226 1.574 . S
C1234 H1229 0.949 . S
C1234 C1240 1.368 . S
C1235 C1219 1.349 . S
C1235 H1227 0.950 . S
C1235 C1233 1.327 . S
C1236 C1224 1.349 . S
C1236 H1230 0.950 . S
C1236 C1237 1.327 . S
C1237 H1231 0.950 . S
C1237 C1236 1.327 . S
C1237 C1241 1.429 . S
C1238 C1221 1.574 . S
C1238 H1232 0.949 . S
C1238 C1242 1.368 . S
C1239 C1220 1.429 . S
C1239 C1233 1.429 . S
C1239 C1240 1.523 . S
C1240 C1221 1.368 . S
C1240 C1234 1.368 . S
C1240 C1239 1.523 . S
C1241 C1225 1.429 . S
C1241 C1237 1.429 . S
C1241 C1242 1.523 . S
C1242 C1226 1.368 . S
C1242 C1238 1.368 . S
C1242 C1241 1.523 . S
H1243 C1218 0.950 . S
H1244 C1220 0.950 . S
H1245 C1221 0.949 . S
H1246 C1223 0.950 . S
H1247 C1225 0.950 . S
C1248 C1249 1.349 . S
C1248 C1250 1.327 . S
C1248 H1273 0.950 1_545 S
C1249 C1248 1.349 . S
C1249 C1265 1.349 . S
C1250 C1248 1.327 . S
C1250 C1269 1.429 . S
C1250 H1274 0.950 1_545 S
C1251 C1268 1.574 1_655 S
C1251 C1270 1.368 . S
C1251 H1275 0.949 . S
H1252 C1256 0.949 1_565 S
C1253 C1254 1.349 . S
C1253 C1255 1.327 . S
C1253 H1276 0.950 . S
C1254 C1253 1.349 . S
C1254 C1266 1.349 . S
C1255 C1253 1.327 . S
C1255 C1271 1.429 . S
C1255 H1277 0.950 . S
C1256 H1252 0.949 1_545 S
C1256 C1264 1.574 1_455 S
C1256 C1272 1.368 . S
H1257 C1265 0.950 . S
H1258 C1263 0.950 . S
H1259 C1264 0.949 1_565 S
H1260 C1266 0.950 . S
H1261 C1267 0.961 . S
H1262 C1268 0.949 . S
C1263 H1258 0.950 . S
C1263 C1265 1.327 . S
C1263 C1269 1.429 . S
C1264 C1256 1.574 1_655 S
C1264 H1259 0.949 1_545 S
C1264 C1270 1.368 . S
C1265 C1249 1.349 . S
C1265 H1257 0.950 . S
C1265 C1263 1.327 . S
C1266 C1254 1.349 . S
C1266 H1260 0.950 . S
C1266 C1267 1.327 . S
C1267 H1261 0.961 . S
C1267 C1266 1.327 . S
C1267 C1271 1.429 . S
C1268 C1251 1.574 1_455 S
C1268 H1262 0.949 . S
C1268 C1272 1.368 . S
C1269 C1250 1.429 . S
C1269 C1263 1.429 . S
C1269 C1270 1.523 . S
C1270 C1251 1.368 . S
C1270 C1264 1.368 . S
C1270 C1269 1.523 . S
C1271 C1255 1.429 . S
C1271 C1267 1.429 . S
C1271 C1272 1.523 . S
C1272 C1256 1.368 . S
C1272 C1268 1.368 . S
C1272 C1271 1.523 . S
H1273 C1248 0.950 1_565 S
H1274 C1250 0.950 1_565 S
H1275 C1251 0.949 . S
H1276 C1253 0.950 . S
H1277 C1255 0.950 . S
C1278 C1279 1.349 . S
C1278 C1280 1.327 . S
C1278 H1303 0.950 . S
C1279 C1278 1.349 . S
C1279 C1295 1.349 . S
C1280 C1278 1.327 . S
C1280 C1299 1.429 . S
C1280 H1304 0.950 . S
C1281 C1298 1.574 1_455 S
C1281 C1300 1.368 . S
C1281 H1305 0.949 1_545 S
H1282 C1286 0.949 . S
C1283 C1284 1.349 . S
C1283 C1285 1.327 . S
C1283 H1306 0.950 . S
C1284 C1283 1.349 . S
C1284 C1296 1.349 . S
C1285 C1283 1.327 . S
C1285 C1301 1.429 . S
C1285 H1307 0.960 . S
C1286 H1282 0.949 . S
C1286 C1294 1.574 1_655 S
C1286 C1302 1.368 . S
H1287 C1295 0.950 1_565 S
H1288 C1293 0.950 1_565 S
H1289 C1294 0.949 . S
H1290 C1296 0.950 . S
H1291 C1297 0.950 . S
H1292 C1298 0.949 1_565 S
C1293 H1288 0.950 1_545 S
C1293 C1295 1.327 . S
C1293 C1299 1.429 . S
C1294 C1286 1.574 1_455 S
C1294 H1289 0.949 . S
C1294 C1300 1.368 . S
C1295 C1279 1.349 . S
C1295 H1287 0.950 1_545 S
C1295 C1293 1.327 . S
C1296 C1284 1.349 . S
C1296 H1290 0.950 . S
C1296 C1297 1.327 . S
C1297 H1291 0.950 . S
C1297 C1296 1.327 . S
C1297 C1301 1.429 . S
C1298 C1281 1.574 1_655 S
C1298 H1292 0.949 1_545 S
C1298 C1302 1.368 . S
C1299 C1280 1.429 . S
C1299 C1293 1.429 . S
C1299 C1300 1.523 . S
C1300 C1281 1.368 . S
C1300 C1294 1.368 . S
C1300 C1299 1.523 . S
C1301 C1285 1.429 . S
C1301 C1297 1.429 . S
C1301 C1302 1.523 . S
C1302 C1286 1.368 . S
C1302 C1298 1.368 . S
C1302 C1301 1.523 . S
H1303 C1278 0.950 . S
H1304 C1280 0.950 . S
H1305 C1281 0.949 1_565 S
H1306 C1283 0.950 . S
H1307 C1285 0.960 . S
C1308 C1309 1.349 . S
C1308 C1310 1.327 . S
C1308 H1333 0.950 . S
C1309 C1308 1.349 . S
C1309 C1325 1.349 . S
C1310 C1308 1.327 . S
C1310 C1329 1.429 . S
C1310 H1334 0.950 . S
C1311 C1328 1.574 1_655 S
C1311 C1330 1.368 . S
C1311 H1335 0.949 . S
H1312 C1316 0.949 . S
C1313 C1314 1.349 . S
C1313 C1315 1.327 . S
C1313 H1336 0.950 . S
C1314 C1313 1.349 . S
C1314 C1326 1.349 . S
C1315 C1313 1.327 . S
C1315 C1331 1.429 . S
C1315 H1337 0.950 . S
C1316 H1312 0.949 . S
C1316 C1324 1.574 1_455 S
C1316 C1332 1.368 . S
H1317 C1325 0.950 . S
H1318 C1323 0.950 . S
H1319 C1324 0.949 . S
H1320 C1326 0.950 . S
H1321 C1327 0.950 . S
H1322 C1328 0.949 . S
C1323 H1318 0.950 . S
C1323 C1325 1.327 . S
C1323 C1329 1.429 . S
C1324 C1316 1.574 1_655 S
C1324 H1319 0.949 . S
C1324 C1330 1.368 . S
C1325 C1309 1.349 . S
C1325 H1317 0.950 . S
C1325 C1323 1.327 . S
C1326 C1314 1.349 . S
C1326 H1320 0.950 . S
C1326 C1327 1.327 . S
C1327 H1321 0.950 . S
C1327 C1326 1.327 . S
C1327 C1331 1.429 . S
C1328 C1311 1.574 1_455 S
C1328 H1322 0.949 . S
C1328 C1332 1.368 . S
C1329 C1310 1.429 . S
C1329 C1323 1.429 . S
C1329 C1330 1.523 . S
C1330 C1311 1.368 . S
C1330 C1324 1.368 . S
C1330 C1329 1.523 . S
C1331 C1315 1.429 . S
C1331 C1327 1.429 . S
C1331 C1332 1.523 . S
C1332 C1316 1.368 . S
C1332 C1328 1.368 . S
C1332 C1331 1.523 . S
H1333 C1308 0.950 . S
H1334 C1310 0.950 . S
H1335 C1311 0.949 . S
H1336 C1313 0.950 . S
H1337 C1315 0.950 . S
C1338 C1339 1.349 . S
C1338 C1340 1.327 . S
C1338 H1363 0.950 . S
C1339 C1338 1.349 . S
C1339 C1355 1.349 . S
C1340 C1338 1.327 . S
C1340 C1359 1.429 . S
C1340 H1364 0.950 . S
C1341 C1358 1.574 1_655 S
C1341 C1360 1.368 . S
C1341 H1365 0.949 . S
H1342 C1346 0.949 . S
C1343 C1344 1.349 . S
C1343 C1345 1.327 . S
C1343 H1366 0.950 . S
C1344 C1343 1.349 . S
C1344 C1356 1.349 . S
C1345 C1343 1.327 . S
C1345 C1361 1.429 . S
C1345 H1367 0.950 . S
C1346 H1342 0.949 . S
C1346 C1354 1.574 1_455 S
C1346 C1362 1.368 . S
H1347 C1355 0.950 . S
H1348 C1353 0.950 . S
H1349 C1354 0.949 . S
H1350 C1356 0.950 . S
H1351 C1357 0.950 . S
H1352 C1358 0.949 . S
C1353 H1348 0.950 . S
C1353 C1355 1.327 . S
C1353 C1359 1.429 . S
C1354 C1346 1.574 1_655 S
C1354 H1349 0.949 . S
C1354 C1360 1.368 . S
C1355 C1339 1.349 . S
C1355 H1347 0.950 . S
C1355 C1353 1.327 . S
C1356 C1344 1.349 . S
C1356 H1350 0.950 . S
C1356 C1357 1.327 . S
C1357 H1351 0.950 . S
C1357 C1356 1.327 . S
C1357 C1361 1.429 . S
C1358 C1341 1.574 1_455 S
C1358 H1352 0.949 . S
C1358 C1362 1.368 . S
C1359 C1340 1.429 . S
C1359 C1353 1.429 . S
C1359 C1360 1.523 . S
C1360 C1341 1.368 . S
C1360 C1354 1.368 . S
C1360 C1359 1.523 . S
C1361 C1345 1.429 . S
C1361 C1357 1.429 . S
C1361 C1362 1.523 . S
C1362 C1346 1.368 . S
C1362 C1358 1.368 . S
C1362 C1361 1.523 . S
H1363 C1338 0.950 . S
H1364 C1340 0.950 . S
H1365 C1341 0.949 . S
H1366 C1343 0.950 . S
H1367 C1345 0.950 . S
C1368 C1369 1.349 . S
C1368 C1370 1.327 . S
C1368 H1393 0.950 . S
C1369 C1368 1.349 . S
C1369 C1385 1.349 . S
C1370 C1368 1.327 . S
C1370 C1389 1.429 . S
C1370 H1394 0.950 . S
C1371 C1388 1.574 . S
C1371 C1390 1.368 . S
C1371 H1395 0.949 1_545 S
H1372 C1376 0.949 . S
C1373 C1374 1.349 . S
C1373 C1375 1.327 . S
C1373 H1396 0.950 . S
C1374 C1373 1.349 . S
C1374 C1386 1.349 . S
C1375 C1373 1.327 . S
C1375 C1391 1.429 . S
C1375 H1397 0.961 . S
C1376 H1372 0.949 . S
C1376 C1384 1.574 . S
C1376 C1392 1.368 . S
H1377 C1385 0.950 1_565 S
H1378 C1383 0.950 1_565 S
H1379 C1384 0.949 . S
H1380 C1386 0.950 . S
H1381 C1387 0.950 . S
H1382 C1388 0.949 1_565 S
C1383 H1378 0.950 1_545 S
C1383 C1385 1.327 . S
C1383 C1389 1.429 . S
C1384 C1376 1.574 . S
C1384 H1379 0.949 . S
C1384 C1390 1.368 . S
C1385 C1369 1.349 . S
C1385 H1377 0.950 1_545 S
C1385 C1383 1.327 . S
C1386 C1374 1.349 . S
C1386 H1380 0.950 . S
C1386 C1387 1.327 . S
C1387 H1381 0.950 . S
C1387 C1386 1.327 . S
C1387 C1391 1.429 . S
C1388 C1371 1.574 . S
C1388 H1382 0.949 1_545 S
C1388 C1392 1.368 . S
C1389 C1370 1.429 . S
C1389 C1383 1.429 . S
C1389 C1390 1.523 . S
C1390 C1371 1.368 . S
C1390 C1384 1.368 . S
C1390 C1389 1.523 . S
C1391 C1375 1.429 . S
C1391 C1387 1.429 . S
C1391 C1392 1.523 . S
C1392 C1376 1.368 . S
C1392 C1388 1.368 . S
C1392 C1391 1.523 . S
H1393 C1368 0.950 . S
H1394 C1370 0.950 . S
H1395 C1371 0.949 1_565 S
H1396 C1373 0.950 . S
H1397 C1375 0.961 . S
C1398 C1399 1.349 . S
C1398 C1400 1.327 . S
C1398 H1423 0.950 . S
C1399 C1398 1.349 . S
C1399 C1415 1.349 . S
C1400 C1398 1.327 . S
C1400 C1419 1.429 . S
C1400 H1424 0.961 . S
C1401 C1418 1.574 . S
C1401 C1420 1.368 . S
C1401 H1425 0.949 . S
H1402 C1406 0.949 1_565 S
C1403 C1404 1.349 . S
C1403 C1405 1.327 . S
C1403 H1426 0.950 . S
C1404 C1403 1.349 . S
C1404 C1416 1.349 . S
C1405 C1403 1.327 . S
C1405 C1421 1.429 . S
C1405 H1427 0.950 . S
C1406 H1402 0.949 1_545 S
C1406 C1414 1.574 . S
C1406 C1422 1.368 . S
H1407 C1415 0.950 . S
H1408 C1413 0.950 . S
H1409 C1414 0.949 1_565 S
H1410 C1416 0.950 1_565 S
H1411 C1417 0.950 1_565 S
H1412 C1418 0.949 . S
C1413 H1408 0.950 . S
C1413 C1415 1.327 . S
C1413 C1419 1.429 . S
C1414 C1406 1.574 . S
C1414 H1409 0.949 1_545 S
C1414 C1420 1.368 . S
C1415 C1399 1.349 . S
C1415 H1407 0.950 . S
C1415 C1413 1.327 . S
C1416 C1404 1.349 . S
C1416 H1410 0.950 1_545 S
C1416 C1417 1.327 . S
C1417 H1411 0.950 1_545 S
C1417 C1416 1.327 . S
C1417 C1421 1.429 . S
C1418 C1401 1.574 . S
C1418 H1412 0.949 . S
C1418 C1422 1.368 . S
C1419 C1400 1.429 . S
C1419 C1413 1.429 . S
C1419 C1420 1.523 . S
C1420 C1401 1.368 . S
C1420 C1414 1.368 . S
C1420 C1419 1.523 . S
C1421 C1405 1.429 . S
C1421 C1417 1.429 . S
C1421 C1422 1.523 . S
C1422 C1406 1.368 . S
C1422 C1418 1.368 . S
C1422 C1421 1.523 . S
H1423 C1398 0.950 . S
H1424 C1400 0.961 . S
H1425 C1401 0.949 . S
H1426 C1403 0.950 . S
H1427 C1405 0.950 . S
C1428 C1429 1.349 . S
C1428 C1430 1.327 . S
C1428 H1453 0.950 . S
C1429 C1428 1.349 . S
C1429 C1445 1.349 . S
C1430 C1428 1.327 . S
C1430 C1449 1.429 . S
C1430 H1454 0.950 . S
C1431 C1448 1.574 . S
C1431 C1450 1.368 . S
C1431 H1455 0.949 . S
H1432 C1436 0.949 . S
C1433 C1434 1.349 . S
C1433 C1435 1.327 . S
C1433 H1456 0.950 . S
C1434 C1433 1.349 . S
C1434 C1446 1.349 . S
C1435 C1433 1.327 . S
C1435 C1451 1.429 . S
C1435 H1457 0.950 . S
C1436 H1432 0.949 . S
C1436 C1444 1.574 . S
C1436 C1452 1.368 . S
H1437 C1445 0.950 . S
H1438 C1443 0.950 . S
H1439 C1444 0.949 . S
H1440 C1446 0.950 . S
H1441 C1447 0.950 . S
H1442 C1448 0.949 . S
C1443 H1438 0.950 . S
C1443 C1445 1.327 . S
C1443 C1449 1.429 . S
C1444 C1436 1.574 . S
C1444 H1439 0.949 . S
C1444 C1450 1.368 . S
C1445 C1429 1.349 . S
C1445 H1437 0.950 . S
C1445 C1443 1.327 . S
C1446 C1434 1.349 . S
C1446 H1440 0.950 . S
C1446 C1447 1.327 . S
C1447 H1441 0.950 . S
C1447 C1446 1.327 . S
C1447 C1451 1.429 . S
C1448 C1431 1.574 . S
C1448 H1442 0.949 . S
C1448 C1452 1.368 . S
C1449 C1430 1.429 . S
C1449 C1443 1.429 . S
C1449 C1450 1.523 . S
C1450 C1431 1.368 . S
C1450 C1444 1.368 . S
C1450 C1449 1.523 . S
C1451 C1435 1.429 . S
C1451 C1447 1.429 . S
C1451 C1452 1.523 . S
C1452 C1436 1.368 . S
C1452 C1448 1.368 . S
C1452 C1451 1.523 . S
H1453 C1428 0.950 . S
H1454 C1430 0.950 . S
H1455 C1431 0.949 . S
H1456 C1433 0.950 . S
H1457 C1435 0.950 . S
C1458 C1459 1.349 . S
C1458 C1460 1.327 . S
C1458 H1483 0.950 . S
C1459 C1458 1.349 . S
C1459 C1475 1.349 . S
C1460 C1458 1.327 . S
C1460 C1479 1.429 . S
C1460 H1484 0.950 . S
C1461 C1478 1.574 . S
C1461 C1480 1.368 . S
C1461 H1485 0.949 . S
H1462 C1466 0.949 . S
C1463 C1464 1.349 . S
C1463 C1465 1.327 . S
C1463 H1486 0.950 . S
C1464 C1463 1.349 . S
C1464 C1476 1.349 . S
C1465 C1463 1.327 . S
C1465 C1481 1.429 . S
C1465 H1487 0.950 . S
C1466 H1462 0.949 . S
C1466 C1474 1.574 . S
C1466 C1482 1.368 . S
H1467 C1475 0.950 . S
H1468 C1473 0.950 . S
H1469 C1474 0.949 . S
H1470 C1476 0.950 . S
H1471 C1477 0.950 . S
H1472 C1478 0.949 . S
C1473 H1468 0.950 . S
C1473 C1475 1.327 . S
C1473 C1479 1.429 . S
C1474 C1466 1.574 . S
C1474 H1469 0.949 . S
C1474 C1480 1.368 . S
C1475 C1459 1.349 . S
C1475 H1467 0.950 . S
C1475 C1473 1.327 . S
C1476 C1464 1.349 . S
C1476 H1470 0.950 . S
C1476 C1477 1.327 . S
C1477 H1471 0.950 . S
C1477 C1476 1.327 . S
C1477 C1481 1.429 . S
C1478 C1461 1.574 . S
C1478 H1472 0.949 . S
C1478 C1482 1.368 . S
C1479 C1460 1.429 . S
C1479 C1473 1.429 . S
C1479 C1480 1.523 . S
C1480 C1461 1.368 . S
C1480 C1474 1.368 . S
C1480 C1479 1.523 . S
C1481 C1465 1.429 . S
C1481 C1477 1.429 . S
C1481 C1482 1.523 . S
C1482 C1466 1.368 . S
C1482 C1478 1.368 . S
C1482 C1481 1.523 . S
H1483 C1458 0.950 . S
H1484 C1460 0.950 . S
H1485 C1461 0.949 . S
H1486 C1463 0.950 . S
H1487 C1465 0.950 . S
C1488 C1489 1.349 . S
C1488 C1490 1.327 . S
C1488 H1513 0.950 . S
C1489 C1488 1.349 . S
C1489 C1505 1.349 . S
C1490 C1488 1.327 . S
C1490 C1509 1.429 . S
C1490 H1514 0.950 . S
C1491 C1508 1.574 1_556 S
C1491 C1510 1.368 . S
C1491 H1515 0.949 1_545 S
H1492 C1496 0.949 . S
C1493 C1494 1.349 . S
C1493 C1495 1.327 . S
C1493 H1516 0.950 1_545 S
C1494 C1493 1.349 . S
C1494 C1506 1.349 . S
C1495 C1493 1.327 . S
C1495 C1511 1.429 . S
C1495 H1517 0.950 1_545 S
C1496 H1492 0.949 . S
C1496 C1504 1.574 1_554 S
C1496 C1512 1.368 . S
H1497 C1505 0.950 1_565 S
H1498 C1503 0.950 1_565 S
H1499 C1504 0.949 . S
H1500 C1506 0.950 . S
H1501 C1507 0.950 . S
H1502 C1508 0.949 1_565 S
C1503 H1498 0.950 1_545 S
C1503 C1505 1.327 . S
C1503 C1509 1.429 . S
C1504 C1496 1.574 1_556 S
C1504 H1499 0.949 . S
C1504 C1510 1.368 . S
C1505 C1489 1.349 . S
C1505 H1497 0.950 1_545 S
C1505 C1503 1.327 . S
C1506 C1494 1.349 . S
C1506 H1500 0.950 . S
C1506 C1507 1.327 . S
C1507 H1501 0.950 . S
C1507 C1506 1.327 . S
C1507 C1511 1.429 . S
C1508 C1491 1.574 1_554 S
C1508 H1502 0.949 1_545 S
C1508 C1512 1.368 . S
C1509 C1490 1.429 . S
C1509 C1503 1.429 . S
C1509 C1510 1.523 . S
C1510 C1491 1.368 . S
C1510 C1504 1.368 . S
C1510 C1509 1.523 . S
C1511 C1495 1.429 . S
C1511 C1507 1.429 . S
C1511 C1512 1.523 . S
C1512 C1496 1.368 . S
C1512 C1508 1.368 . S
C1512 C1511 1.523 . S
H1513 C1488 0.950 . S
H1514 C1490 0.950 . S
H1515 C1491 0.949 1_565 S
H1516 C1493 0.950 1_565 S
H1517 C1495 0.950 1_565 S
C1518 C1519 1.349 . S
C1518 C1520 1.327 . S
C1518 H1543 0.950 . S
C1519 C1518 1.349 . S
C1519 C1535 1.349 . S
C1520 C1518 1.327 . S
C1520 C1539 1.429 . S
C1520 H1544 0.950 . S
C1521 C1538 1.574 1_556 S
C1521 C1540 1.368 . S
C1521 H1545 0.949 1_545 S
H1522 C1526 0.949 . S
C1523 C1524 1.349 . S
C1523 C1525 1.327 . S
C1523 H1546 0.950 1_545 S
C1524 C1523 1.349 . S
C1524 C1536 1.349 . S
C1525 C1523 1.327 . S
C1525 C1541 1.429 . S
C1525 H1547 0.950 1_545 S
C1526 H1522 0.949 . S
C1526 C1534 1.574 1_554 S
C1526 C1542 1.368 . S
H1527 C1535 0.950 1_565 S
H1528 C1533 0.950 1_565 S
H1529 C1534 0.949 . S
H1530 C1536 0.950 . S
H1531 C1537 0.950 . S
H1532 C1538 0.949 1_565 S
C1533 H1528 0.950 1_545 S
C1533 C1535 1.327 . S
C1533 C1539 1.429 . S
C1534 C1526 1.574 1_556 S
C1534 H1529 0.949 . S
C1534 C1540 1.368 . S
C1535 C1519 1.349 . S
C1535 H1527 0.950 1_545 S
C1535 C1533 1.327 . S
C1536 C1524 1.349 . S
C1536 H1530 0.950 . S
C1536 C1537 1.327 . S
C1537 H1531 0.950 . S
C1537 C1536 1.327 . S
C1537 C1541 1.429 . S
C1538 C1521 1.574 1_554 S
C1538 H1532 0.949 1_545 S
C1538 C1542 1.368 . S
C1539 C1520 1.429 . S
C1539 C1533 1.429 . S
C1539 C1540 1.523 . S
C1540 C1521 1.368 . S
C1540 C1534 1.368 . S
C1540 C1539 1.523 . S
C1541 C1525 1.429 . S
C1541 C1537 1.429 . S
C1541 C1542 1.523 . S
C1542 C1526 1.368 . S
C1542 C1538 1.368 . S
C1542 C1541 1.523 . S
H1543 C1518 0.950 . S
H1544 C1520 0.950 . S
H1545 C1521 0.949 1_565 S
H1546 C1523 0.950 1_565 S
H1547 C1525 0.950 1_565 S
C1548 C1549 1.349 . S
C1548 C1550 1.327 . S
C1548 H1573 0.950 . S
C1549 C1548 1.349 . S
C1549 C1565 1.349 . S
C1550 C1548 1.327 . S
C1550 C1569 1.429 . S
C1550 H1574 0.950 . S
C1551 C1568 1.574 . S
C1551 C1570 1.368 . S
C1551 H1575 0.949 . S
H1552 C1556 0.949 . S
C1553 C1554 1.349 . S
C1553 C1555 1.327 . S
C1553 H1576 0.950 . S
C1554 C1553 1.349 . S
C1554 C1566 1.349 . S
C1555 C1553 1.327 . S
C1555 C1571 1.429 . S
C1555 H1577 0.950 . S
C1556 H1552 0.949 . S
C1556 C1564 1.574 . S
C1556 C1572 1.368 . S
H1557 C1565 0.950 . S
H1558 C1563 0.950 . S
H1559 C1564 0.949 . S
H1560 C1566 0.950 . S
H1561 C1567 0.950 . S
H1562 C1568 0.949 . S
C1563 H1558 0.950 . S
C1563 C1565 1.327 . S
C1563 C1569 1.429 . S
C1564 C1556 1.574 . S
C1564 H1559 0.949 . S
C1564 C1570 1.368 . S
C1565 C1549 1.349 . S
C1565 H1557 0.950 . S
C1565 C1563 1.327 . S
C1566 C1554 1.349 . S
C1566 H1560 0.950 . S
C1566 C1567 1.327 . S
C1567 H1561 0.950 . S
C1567 C1566 1.327 . S
C1567 C1571 1.429 . S
C1568 C1551 1.574 . S
C1568 H1562 0.949 . S
C1568 C1572 1.368 . S
C1569 C1550 1.429 . S
C1569 C1563 1.429 . S
C1569 C1570 1.523 . S
C1570 C1551 1.368 . S
C1570 C1564 1.368 . S
C1570 C1569 1.523 . S
C1571 C1555 1.429 . S
C1571 C1567 1.429 . S
C1571 C1572 1.523 . S
C1572 C1556 1.368 . S
C1572 C1568 1.368 . S
C1572 C1571 1.523 . S
H1573 C1548 0.950 . S
H1574 C1550 0.950 . S
H1575 C1551 0.949 . S
H1576 C1553 0.950 . S
H1577 C1555 0.950 . S
C1578 C1579 1.349 . S
C1578 C1580 1.327 . S
C1578 H1603 0.950 . S
C1579 C1578 1.349 . S
C1579 C1595 1.349 . S
C1580 C1578 1.327 . S
C1580 C1599 1.429 . S
C1580 H1604 0.950 . S
C1581 C1598 1.574 . S
C1581 C1600 1.368 . S
C1581 H1605 0.949 . S
H1582 C1586 0.949 . S
C1583 C1584 1.349 . S
C1583 C1585 1.327 . S
C1583 H1606 0.950 . S
C1584 C1583 1.349 . S
C1584 C1596 1.349 . S
C1585 C1583 1.327 . S
C1585 C1601 1.429 . S
C1585 H1607 0.950 . S
C1586 H1582 0.949 . S
C1586 C1594 1.574 . S
C1586 C1602 1.368 . S
H1587 C1595 0.950 . S
H1588 C1593 0.950 . S
H1589 C1594 0.949 . S
H1590 C1596 0.950 . S
H1591 C1597 0.950 . S
H1592 C1598 0.949 . S
C1593 H1588 0.950 . S
C1593 C1595 1.327 . S
C1593 C1599 1.429 . S
C1594 C1586 1.574 . S
C1594 H1589 0.949 . S
C1594 C1600 1.368 . S
C1595 C1579 1.349 . S
C1595 H1587 0.950 . S
C1595 C1593 1.327 . S
C1596 C1584 1.349 . S
C1596 H1590 0.950 . S
C1596 C1597 1.327 . S
C1597 H1591 0.950 . S
C1597 C1596 1.327 . S
C1597 C1601 1.429 . S
C1598 C1581 1.574 . S
C1598 H1592 0.949 . S
C1598 C1602 1.368 . S
C1599 C1580 1.429 . S
C1599 C1593 1.429 . S
C1599 C1600 1.523 . S
C1600 C1581 1.368 . S
C1600 C1594 1.368 . S
C1600 C1599 1.523 . S
C1601 C1585 1.429 . S
C1601 C1597 1.429 . S
C1601 C1602 1.523 . S
C1602 C1586 1.368 . S
C1602 C1598 1.368 . S
C1602 C1601 1.523 . S
H1603 C1578 0.950 . S
H1604 C1580 0.950 . S
H1605 C1581 0.949 . S
H1606 C1583 0.950 . S
H1607 C1585 0.950 . S
C1608 C1609 1.349 . S
C1608 C1610 1.327 . S
C1608 H1633 0.950 . S
C1609 C1608 1.349 . S
C1609 C1625 1.349 . S
C1610 C1608 1.327 . S
C1610 C1629 1.429 . S
C1610 H1634 0.950 . S
C1611 C1628 1.574 . S
C1611 C1630 1.368 . S
C1611 H1635 0.949 1_545 S
H1612 C1616 0.949 . S
C1613 C1614 1.349 . S
C1613 C1615 1.327 . S
C1613 H1636 0.950 1_545 S
C1614 C1613 1.349 . S
C1614 C1626 1.349 . S
C1615 C1613 1.327 . S
C1615 C1631 1.429 . S
C1615 H1637 0.950 1_545 S
C1616 H1612 0.949 . S
C1616 C1624 1.574 . S
C1616 C1632 1.368 . S
H1617 C1625 0.950 1_565 S
H1618 C1623 0.950 1_565 S
H1619 C1624 0.949 . S
H1620 C1626 0.950 . S
H1621 C1627 0.950 . S
H1622 C1628 0.949 1_565 S
C1623 H1618 0.950 1_545 S
C1623 C1625 1.327 . S
C1623 C1629 1.429 . S
C1624 C1616 1.574 . S
C1624 H1619 0.949 . S
C1624 C1630 1.368 . S
C1625 C1609 1.349 . S
C1625 H1617 0.950 1_545 S
C1625 C1623 1.327 . S
C1626 C1614 1.349 . S
C1626 H1620 0.950 . S
C1626 C1627 1.327 . S
C1627 H1621 0.950 . S
C1627 C1626 1.327 . S
C1627 C1631 1.429 . S
C1628 C1611 1.574 . S
C1628 H1622 0.949 1_545 S
C1628 C1632 1.368 . S
C1629 C1610 1.429 . S
C1629 C1623 1.429 . S
C1629 C1630 1.523 . S
C1630 C1611 1.368 . S
C1630 C1624 1.368 . S
C1630 C1629 1.523 . S
C1631 C1615 1.429 . S
C1631 C1627 1.429 . S
C1631 C1632 1.523 . S
C1632 C1616 1.368 . S
C1632 C1628 1.368 . S
C1632 C1631 1.523 . S
H1633 C1608 0.950 . S
H1634 C1610 0.950 . S
H1635 C1611 0.949 1_565 S
H1636 C1613 0.950 1_565 S
H1637 C1615 0.950 1_565 S
C1638 C1639 1.349 . S
C1638 C1640 1.327 . S
C1638 H1663 0.950 1_545 S
C1639 C1638 1.349 . S
C1639 C1655 1.349 . S
C1640 C1638 1.327 . S
C1640 C1659 1.429 . S
C1640 H1664 0.950 1_545 S
C1641 C1658 1.574 . S
C1641 C1660 1.368 . S
C1641 H1665 0.949 . S
H1642 C1646 0.949 1_565 S
C1643 C1644 1.349 . S
C1643 C1645 1.327 . S
C1643 H1666 0.950 . S
C1644 C1643 1.349 . S
C1644 C1656 1.349 . S
C1645 C1643 1.327 . S
C1645 C1661 1.429 . S
C1645 H1667 0.950 . S
C1646 H1642 0.949 1_545 S
C1646 C1654 1.574 . S
C1646 C1662 1.368 . S
H1647 C1655 0.950 . S
H1648 C1653 0.950 . S
H1649 C1654 0.949 1_565 S
H1650 C1656 0.950 1_565 S
H1651 C1657 0.950 1_565 S
H1652 C1658 0.949 . S
C1653 H1648 0.950 . S
C1653 C1655 1.327 . S
C1653 C1659 1.429 . S
C1654 C1646 1.574 . S
C1654 H1649 0.949 1_545 S
C1654 C1660 1.368 . S
C1655 C1639 1.349 . S
C1655 H1647 0.950 . S
C1655 C1653 1.327 . S
C1656 C1644 1.349 . S
C1656 H1650 0.950 1_545 S
C1656 C1657 1.327 . S
C1657 H1651 0.950 1_545 S
C1657 C1656 1.327 . S
C1657 C1661 1.429 . S
C1658 C1641 1.574 . S
C1658 H1652 0.949 . S
C1658 C1662 1.368 . S
C1659 C1640 1.429 . S
C1659 C1653 1.429 . S
C1659 C1660 1.523 . S
C1660 C1641 1.368 . S
C1660 C1654 1.368 . S
C1660 C1659 1.523 . S
C1661 C1645 1.429 . S
C1661 C1657 1.429 . S
C1661 C1662 1.523 . S
C1662 C1646 1.368 . S
C1662 C1658 1.368 . S
C1662 C1661 1.523 . S
H1663 C1638 0.950 1_565 S
H1664 C1640 0.950 1_565 S
H1665 C1641 0.949 . S
H1666 C1643 0.950 . S
H1667 C1645 0.950 . S
C1668 C1669 1.349 . S
C1668 C1670 1.327 . S
C1668 H1693 0.950 . S
C1669 C1668 1.349 . S
C1669 C1685 1.349 . S
C1670 C1668 1.327 . S
C1670 C1689 1.429 . S
C1670 H1694 0.950 . S
C1671 C1688 1.574 1_554 S
C1671 C1690 1.368 . S
C1671 H1695 0.949 . S
H1672 C1676 0.949 . S
C1673 C1674 1.349 . S
C1673 C1675 1.327 . S
C1673 H1696 0.950 . S
C1674 C1673 1.349 . S
C1674 C1686 1.349 . S
C1675 C1673 1.327 . S
C1675 C1691 1.429 . S
C1675 H1697 0.950 . S
C1676 H1672 0.949 . S
C1676 C1684 1.574 1_556 S
C1676 C1692 1.368 . S
H1677 C1685 0.950 . S
H1678 C1683 0.950 . S
H1679 C1684 0.949 . S
H1680 C1686 0.950 . S
H1681 C1687 0.950 . S
H1682 C1688 0.949 . S
C1683 H1678 0.950 . S
C1683 C1685 1.327 . S
C1683 C1689 1.429 . S
C1684 C1676 1.574 1_554 S
C1684 H1679 0.949 . S
C1684 C1690 1.368 . S
C1685 C1669 1.349 . S
C1685 H1677 0.950 . S
C1685 C1683 1.327 . S
C1686 C1674 1.349 . S
C1686 H1680 0.950 . S
C1686 C1687 1.327 . S
C1687 H1681 0.950 . S
C1687 C1686 1.327 . S
C1687 C1691 1.429 . S
C1688 C1671 1.574 1_556 S
C1688 H1682 0.949 . S
C1688 C1692 1.368 . S
C1689 C1670 1.429 . S
C1689 C1683 1.429 . S
C1689 C1690 1.523 . S
C1690 C1671 1.368 . S
C1690 C1684 1.368 . S
C1690 C1689 1.523 . S
C1691 C1675 1.429 . S
C1691 C1687 1.429 . S
C1691 C1692 1.523 . S
C1692 C1676 1.368 . S
C1692 C1688 1.368 . S
C1692 C1691 1.523 . S
H1693 C1668 0.950 . S
H1694 C1670 0.950 . S
H1695 C1671 0.949 . S
H1696 C1673 0.950 . S
H1697 C1675 0.950 . S
C1698 C1699 1.349 . S
C1698 C1700 1.327 . S
C1698 H1723 0.950 . S
C1699 C1698 1.349 . S
C1699 C1715 1.349 . S
C1700 C1698 1.327 . S
C1700 C1719 1.429 . S
C1700 H1724 0.950 . S
C1701 C1718 1.574 1_556 S
C1701 C1720 1.368 . S
C1701 H1725 0.949 . S
H1702 C1706 0.949 . S
C1703 C1704 1.349 . S
C1703 C1705 1.327 . S
C1703 H1726 0.950 . S
C1704 C1703 1.349 . S
C1704 C1716 1.349 . S
C1705 C1703 1.327 . S
C1705 C1721 1.429 . S
C1705 H1727 0.950 . S
C1706 H1702 0.949 . S
C1706 C1714 1.574 1_554 S
C1706 C1722 1.368 . S
H1707 C1715 0.950 . S
H1708 C1713 0.950 . S
H1709 C1714 0.949 . S
H1710 C1716 0.950 . S
H1711 C1717 0.950 . S
H1712 C1718 0.949 . S
C1713 H1708 0.950 . S
C1713 C1715 1.327 . S
C1713 C1719 1.429 . S
C1714 C1706 1.574 1_556 S
C1714 H1709 0.949 . S
C1714 C1720 1.368 . S
C1715 C1699 1.349 . S
C1715 H1707 0.950 . S
C1715 C1713 1.327 . S
C1716 C1704 1.349 . S
C1716 H1710 0.950 . S
C1716 C1717 1.327 . S
C1717 H1711 0.950 . S
C1717 C1716 1.327 . S
C1717 C1721 1.429 . S
C1718 C1701 1.574 1_554 S
C1718 H1712 0.949 . S
C1718 C1722 1.368 . S
C1719 C1700 1.429 . S
C1719 C1713 1.429 . S
C1719 C1720 1.523 . S
C1720 C1701 1.368 . S
C1720 C1714 1.368 . S
C1720 C1719 1.523 . S
C1721 C1705 1.429 . S
C1721 C1717 1.429 . S
C1721 C1722 1.523 . S
C1722 C1706 1.368 . S
C1722 C1718 1.368 . S
C1722 C1721 1.523 . S
H1723 C1698 0.950 . S
H1724 C1700 0.950 . S
H1725 C1701 0.949 . S
H1726 C1703 0.950 . S
H1727 C1705 0.950 . S
C529 N13 1.572 . S
C534 N376 1.572 . S
C559 N46 1.572 . S
C564 N343 1.572 . S
C589 N310 1.572 . S
C594 N79 1.572 . S
C619 N277 1.572 . S
C624 N112 1.572 . S
C649 N145 1.572 . S
C654 N508 1.572 . S
C679 N178 1.572 . S
C684 N475 1.572 . S
C709 N442 1.572 . S
C714 N211 1.572 . S
C739 N409 1.572 . S
C744 N244 1.572 . S
C769 C18 0.904 . S
C774 C447 0.904 . S
C799 C414 0.904 . S
C804 C51 0.904 . S
C829 C84 0.904 . S
C834 C513 0.904 . S
C859 C480 0.904 . S
C864 C117 0.904 . S
C889 C106 1.645 . S
C894 C469 1.645 . S
C919 C502 1.645 . S
C924 C73 1.645 . S
C949 C403 1.645 . S
C954 C40 1.645 . S
C979 C7 1.645 . S
C984 C436 1.645 . S
C1009 C150 0.904 . S
C1014 C315 0.904 . S
C1039 C183 0.904 . S
C1044 C282 0.904 . S
C1069 C216 0.904 . S
C1074 C381 0.904 . S
C1099 C249 0.904 . S
C1104 C348 0.904 . S
C1129 C238 1.645 . S
C1134 C337 1.645 . S
C1159 C205 1.645 . S
C1164 C370 1.645 . S
C1189 C172 1.645 . S
C1194 C271 1.645 . S
C1219 C139 1.645 . S
C1224 C304 1.645 . S
C1249 C54 1.487 . S
C1254 C21 1.487 . S
C1279 C87 1.487 . S
C1284 C120 1.487 . S
C1309 C186 1.487 . S
C1314 C153 1.487 . S
C1339 C252 1.487 . S
C1344 C219 1.487 . S
C1369 C318 1.487 . S
C1374 C285 1.487 . S
C1399 C384 1.487 . S
C1404 C351 1.487 . S
C1429 C417 1.487 . S
C1434 C450 1.487 . S
C1459 C516 1.487 . S
C1464 C483 1.487 . S
C1489 N68 1.501 . S
C1494 N2 1.501 . S
C1519 N101 1.501 . S
C1524 N35 1.501 . S
C1549 N134 1.501 . S
C1554 N200 1.501 . S
C1579 N233 1.501 . S
C1584 N167 1.501 . S
C1609 N266 1.501 . S
C1614 N332 1.501 . S
C1639 N365 1.501 . S
C1644 N299 1.501 . S
C1669 N398 1.501 . S
C1674 N464 1.501 . S
C1699 N497 1.501 . S
C1704 N431 1.501 . S
