# Generated by pormake.
# Topology wkj, (6)-cn, num edge types: 1
# Building blocks:
#     Node 0, Type 0, BuildingBlock: KUMJIN_clean_sbu_1, # of connection points: 6
#     Node 1, Type 0, BuildingBlock: KUMJIN_clean_sbu_1, # of connection points: 6
#     Node 2, Type 0, BuildingBlock: KUMJIN_clean_sbu_1, # of connection points: 6
#     Node 3, Type 0, BuildingBlock: KUMJIN_clean_sbu_1, # of connection points: 6
#     Node 4, Type 0, BuildingBlock: KUMJIN_clean_sbu_1, # of connection points: 6
#     Node 5, Type 0, BuildingBlock: KUMJIN_clean_sbu_1, # of connection points: 6
#     Node 6, Type 0, BuildingBlock: KUMJIN_clean_sbu_1, # of connection points: 6
#     Node 7, Type 0, BuildingBlock: KUMJIN_clean_sbu_1, # of connection points: 6
#     Node 8, Type 0, BuildingBlock: KUMJIN_clean_sbu_1, # of connection points: 6
#     Node 9, Type 0, BuildingBlock: KUMJIN_clean_sbu_1, # of connection points: 6
#     Node 10, Type 0, BuildingBlock: KUMJIN_clean_sbu_1, # of connection points: 6
#     Node 11, Type 0, BuildingBlock: KUMJIN_clean_sbu_1, # of connection points: 6
#     Edge 12, Type (0, 0), BuildingBlock: ZUJKAS_clean_linker_0, # of connection points: 2
#     Edge 13, Type (0, 0), BuildingBlock: ZUJKAS_clean_linker_0, # of connection points: 2
#     Edge 14, Type (0, 0), BuildingBlock: ZUJKAS_clean_linker_0, # of connection points: 2
#     Edge 15, Type (0, 0), BuildingBlock: ZUJKAS_clean_linker_0, # of connection points: 2
#     Edge 16, Type (0, 0), BuildingBlock: ZUJKAS_clean_linker_0, # of connection points: 2
#     Edge 17, Type (0, 0), BuildingBlock: ZUJKAS_clean_linker_0, # of connection points: 2
#     Edge 18, Type (0, 0), BuildingBlock: ZUJKAS_clean_linker_0, # of connection points: 2
#     Edge 19, Type (0, 0), BuildingBlock: ZUJKAS_clean_linker_0, # of connection points: 2
#     Edge 20, Type (0, 0), BuildingBlock: ZUJKAS_clean_linker_0, # of connection points: 2
#     Edge 21, Type (0, 0), BuildingBlock: ZUJKAS_clean_linker_0, # of connection points: 2
#     Edge 22, Type (0, 0), BuildingBlock: ZUJKAS_clean_linker_0, # of connection points: 2
#     Edge 23, Type (0, 0), BuildingBlock: ZUJKAS_clean_linker_0, # of connection points: 2
#     Edge 24, Type (0, 0), BuildingBlock: ZUJKAS_clean_linker_0, # of connection points: 2
#     Edge 25, Type (0, 0), BuildingBlock: ZUJKAS_clean_linker_0, # of connection points: 2
#     Edge 26, Type (0, 0), BuildingBlock: ZUJKAS_clean_linker_0, # of connection points: 2
#     Edge 27, Type (0, 0), BuildingBlock: ZUJKAS_clean_linker_0, # of connection points: 2
#     Edge 28, Type (0, 0), BuildingBlock: ZUJKAS_clean_linker_0, # of connection points: 2
#     Edge 29, Type (0, 0), BuildingBlock: ZUJKAS_clean_linker_0, # of connection points: 2
#     Edge 30, Type (0, 0), BuildingBlock: ZUJKAS_clean_linker_0, # of connection points: 2
#     Edge 31, Type (0, 0), BuildingBlock: ZUJKAS_clean_linker_0, # of connection points: 2
#     Edge 32, Type (0, 0), BuildingBlock: ZUJKAS_clean_linker_0, # of connection points: 2
#     Edge 33, Type (0, 0), BuildingBlock: ZUJKAS_clean_linker_0, # of connection points: 2
#     Edge 34, Type (0, 0), BuildingBlock: ZUJKAS_clean_linker_0, # of connection points: 2
#     Edge 35, Type (0, 0), BuildingBlock: ZUJKAS_clean_linker_0, # of connection points: 2
#     Edge 36, Type (0, 0), BuildingBlock: ZUJKAS_clean_linker_0, # of connection points: 2
#     Edge 37, Type (0, 0), BuildingBlock: ZUJKAS_clean_linker_0, # of connection points: 2
#     Edge 38, Type (0, 0), BuildingBlock: ZUJKAS_clean_linker_0, # of connection points: 2
#     Edge 39, Type (0, 0), BuildingBlock: ZUJKAS_clean_linker_0, # of connection points: 2
#     Edge 40, Type (0, 0), BuildingBlock: ZUJKAS_clean_linker_0, # of connection points: 2
#     Edge 41, Type (0, 0), BuildingBlock: ZUJKAS_clean_linker_0, # of connection points: 2
#     Edge 42, Type (0, 0), BuildingBlock: ZUJKAS_clean_linker_0, # of connection points: 2
#     Edge 43, Type (0, 0), BuildingBlock: ZUJKAS_clean_linker_0, # of connection points: 2
#     Edge 44, Type (0, 0), BuildingBlock: ZUJKAS_clean_linker_0, # of connection points: 2
#     Edge 45, Type (0, 0), BuildingBlock: ZUJKAS_clean_linker_0, # of connection points: 2
#     Edge 46, Type (0, 0), BuildingBlock: ZUJKAS_clean_linker_0, # of connection points: 2
#     Edge 47, Type (0, 0), BuildingBlock: ZUJKAS_clean_linker_0, # of connection points: 2
# Relax obj value: 0.522
# Max RMSD: 0.203
# Mean RMSD: 0.203
data_MOF--net-wkj--node1-KUMJIN_clean_sbu_1--edge1-ZUJKAS_clean_linker_0
_symmetry_space_group_name_H-M    P1
_symmetry_Int_Tables_number       1
_symmetry_cell_setting            triclinic
loop_
_symmetry_equiv_pos_as_xyz
'x, y, z'
_cell_length_a     65.04318
_cell_length_b     64.943121
_cell_length_c     37.616697
_cell_angle_alpha  90.227024
_cell_angle_beta   90.087576
_cell_angle_gamma 120.0027
loop_
_atom_site_label
_atom_site_type_symbol
_atom_site_fract_x
_atom_site_fract_y
_atom_site_fract_z
_atom_type_partial_charge
Eu0 Eu 0.53566 0.10706 0.30019 0.0
C1 C 0.42056 0.05635 0.2866 0.0
N2 N 0.43965 0.07758 0.27808 0.0
C3 C 0.4206 0.07861 0.22404 0.0
C4 C 0.40095 0.04489 0.26336 0.0
C5 C 0.43961 0.08928 0.24803 0.0
C6 C 0.40135 0.05613 0.23146 0.0
C7 C 0.39971 0.02587 0.33076 0.0
C8 C 0.41997 0.04702 0.3198 0.0
C9 C 0.38065 0.01361 0.30696 0.0
C10 C 0.38127 0.02312 0.27332 0.0
Eu11 Eu 0.47155 0.09409 0.319 0.0
N12 N 0.43841 0.05965 0.3424 0.0
C13 C 0.3988 0.01822 0.36576 0.0
C14 C 0.43691 0.05311 0.37719 0.0
C15 C 0.41733 0.03213 0.38924 0.0
H16 H 0.45455 0.1066 0.24223 0.0
H17 H 0.41646 0.02683 0.4167 0.0
H18 H 0.53378 0.05917 0.26275 0.0
H19 H 0.60438 0.17359 0.38684 0.0
H20 H 0.45089 0.06407 0.3957 0.0
H21 H 0.38354 0.00209 0.37524 0.0
H22 H 0.57108 0.15794 0.3435 0.0
H23 H 0.42085 0.08768 0.19984 0.0
H24 H 0.36504 0.9972 0.31476 0.0
H25 H 0.36613 0.01389 0.25568 0.0
H26 H 0.55154 0.03367 0.27207 0.0
H27 H 0.38661 0.04792 0.2129 0.0
H28 H 0.6207 0.14821 0.40619 0.0
N29 N 0.55278 0.08261 0.30543 0.0
C30 C 0.56982 0.08889 0.33071 0.0
C31 C 0.55675 0.04908 0.28888 0.0
C32 C 0.58052 0.07496 0.3369 0.0
C33 C 0.54672 0.06355 0.28366 0.0
C34 C 0.5734 0.05457 0.31605 0.0
N35 N 0.56824 0.12396 0.33993 0.0
C36 C 0.57821 0.14686 0.352 0.0
C37 C 0.59693 0.11848 0.37272 0.0
C38 C 0.5779 0.11032 0.34841 0.0
C39 C 0.60609 0.14128 0.38738 0.0
C40 C 0.59696 0.15569 0.37647 0.0
H41 H 0.58117 0.04336 0.32 0.0
H42 H 0.60684 0.07174 0.36803 0.0
H43 H 0.62115 0.10983 0.39953 0.0
O44 O 0.54162 0.1277 0.25166 0.0
O45 O 0.53289 0.1126 0.36054 0.0
O46 O 0.49357 0.10098 0.37336 0.0
O47 O 0.56864 0.1202 0.27065 0.0
O48 O 0.52868 0.13845 0.30772 0.0
O49 O 0.49465 0.12103 0.2771 0.0
O50 O 0.44436 0.1026 0.33501 0.0
O51 O 0.47255 0.07602 0.2646 0.0
O52 O 0.50977 0.07969 0.25782 0.0
O53 O 0.48124 0.12981 0.33742 0.0
O54 O 0.48174 0.07124 0.34961 0.0
O55 O 0.50724 0.06884 0.31103 0.0
C56 C 0.51612 0.1086 0.38405 0.0
C57 C 0.58165 0.15913 0.24951 0.0
C58 C 0.59259 0.19989 0.23316 0.0
C59 C 0.61539 0.20782 0.24754 0.0
C60 C 0.60455 0.16762 0.26353 0.0
C61 C 0.62113 0.19183 0.26293 0.0
C62 C 0.57565 0.17544 0.23532 0.0
C63 C 0.51362 0.14079 0.287 0.0
C64 C 0.5639 0.13342 0.25008 0.0
C65 C 0.59857 0.08233 0.36262 0.0
C66 C 0.60673 0.10403 0.38055 0.0
C67 C 0.48747 0.07127 0.24653 0.0
C68 C 0.45634 0.13156 0.3805 0.0
C69 C 0.44626 0.12269 0.44315 0.0
C70 C 0.45279 0.14662 0.44897 0.0
C71 C 0.46274 0.15531 0.38674 0.0
C72 C 0.44808 0.11535 0.40868 0.0
C73 C 0.46092 0.16277 0.42086 0.0
C74 C 0.49496 0.06223 0.34064 0.0
C75 C 0.4596 0.1242 0.345 0.0
H76 H 0.62926 0.22623 0.24575 0.0
H77 H 0.6097 0.15559 0.275 0.0
H78 H 0.63877 0.19818 0.27363 0.0
H79 H 0.55778 0.16889 0.22554 0.0
H80 H 0.45192 0.15295 0.47529 0.0
H81 H 0.46935 0.1681 0.36529 0.0
H82 H 0.4429 0.09698 0.40364 0.0
H83 H 0.466 0.18117 0.42561 0.0
Eu84 Eu 0.42528 0.53882 0.62189 0.0
C85 C 0.34441 0.43257 0.58481 0.0
N86 N 0.34501 0.45128 0.60251 0.0
C87 C 0.30898 0.44363 0.57331 0.0
C88 C 0.32659 0.41959 0.55914 0.0
C89 C 0.32665 0.45568 0.5989 0.0
C90 C 0.3092 0.42581 0.55286 0.0
C91 C 0.36034 0.40604 0.5754 0.0
C92 C 0.36101 0.42558 0.59314 0.0
C93 C 0.34293 0.39359 0.5494 0.0
C94 C 0.32616 0.40035 0.54128 0.0
Eu95 Eu 0.37551 0.46928 0.64581 0.0
N96 N 0.37816 0.43815 0.6179 0.0
C97 C 0.37739 0.39968 0.584 0.0
C98 C 0.39519 0.43241 0.62571 0.0
C99 C 0.39494 0.413 0.60912 0.0
H100 H 0.32469 0.46758 0.61662 0.0
H101 H 0.40843 0.40847 0.61546 0.0
H102 H 0.48434 0.55956 0.61462 0.0
H103 H 0.37747 0.57065 0.70489 0.0
H104 H 0.40914 0.44289 0.64435 0.0
H105 H 0.37739 0.38478 0.57096 0.0
H106 H 0.38136 0.54571 0.65914 0.0
H107 H 0.2948 0.44763 0.57012 0.0
H108 H 0.34223 0.37861 0.53546 0.0
H109 H 0.31265 0.39032 0.52144 0.0
H110 H 0.5214 0.58986 0.6436 0.0
H111 H 0.29526 0.41626 0.53341 0.0
H112 H 0.41306 0.60109 0.73684 0.0
N113 N 0.46205 0.5671 0.64692 0.0
C114 C 0.46082 0.58143 0.6724 0.0
C115 C 0.50449 0.58756 0.65208 0.0
C116 C 0.48163 0.59902 0.68945 0.0
C117 C 0.48348 0.57037 0.63587 0.0
C118 C 0.50356 0.60181 0.67917 0.0
N119 N 0.41867 0.5613 0.66536 0.0
C120 C 0.39698 0.55876 0.6728 0.0
C121 C 0.43723 0.59333 0.70806 0.0
C122 C 0.43874 0.57872 0.68153 0.0
C123 C 0.41491 0.59019 0.71663 0.0
C124 C 0.39475 0.57298 0.69873 0.0
H125 H 0.5199 0.61512 0.69167 0.0
H126 H 0.49583 0.62685 0.72951 0.0
H127 H 0.45704 0.62181 0.74586 0.0
O128 O 0.42214 0.56801 0.59987 0.0
O129 O 0.41895 0.5314 0.68364 0.0
O130 O 0.39299 0.4917 0.69863 0.0
O131 O 0.44908 0.56086 0.57959 0.0
O132 O 0.38651 0.52086 0.59944 0.0
O133 O 0.36184 0.49529 0.64195 0.0
O134 O 0.36817 0.43987 0.68138 0.0
O135 O 0.39596 0.47245 0.59118 0.0
O136 O 0.4245 0.5121 0.57809 0.0
O137 O 0.34339 0.4529 0.67796 0.0
O138 O 0.41305 0.49583 0.64261 0.0
O139 O 0.44846 0.52388 0.64128 0.0
C140 C 0.40813 0.51442 0.70806 0.0
C141 C 0.43147 0.57604 0.53999 0.0
C142 C 0.41866 0.59699 0.50027 0.0
C143 C 0.41389 0.57973 0.47384 0.0
C144 C 0.42629 0.55879 0.51356 0.0
C145 C 0.41777 0.56081 0.48049 0.0
C146 C 0.42783 0.59522 0.53314 0.0
C147 C 0.36593 0.51061 0.61644 0.0
C148 C 0.4384 0.57322 0.57595 0.0
C149 C 0.48002 0.61338 0.71604 0.0
C150 C 0.45793 0.61053 0.72532 0.0
C151 C 0.41316 0.48877 0.56998 0.0
C152 C 0.35013 0.44199 0.73496 0.0
C153 C 0.36849 0.44269 0.79186 0.0
C154 C 0.3546 0.45086 0.80855 0.0
C155 C 0.33604 0.44979 0.75216 0.0
C156 C 0.36563 0.43764 0.75533 0.0
C157 C 0.33818 0.45401 0.78881 0.0
C158 C 0.43461 0.50274 0.65303 0.0
C159 C 0.34996 0.4399 0.69579 0.0
H160 H 0.40722 0.58091 0.44796 0.0
H161 H 0.42842 0.5436 0.51867 0.0
H162 H 0.41387 0.54753 0.4601 0.0
H163 H 0.43132 0.60825 0.55384 0.0
H164 H 0.35633 0.45463 0.83682 0.0
H165 H 0.32369 0.45303 0.73724 0.0
H166 H 0.37605 0.431 0.7425 0.0
H167 H 0.32743 0.46021 0.80182 0.0
Eu168 Eu 0.88311 0.42285 0.95666 0.0
C169 C 0.88511 0.33231 0.92069 0.0
N170 N 0.8767 0.33764 0.95031 0.0
C171 C 0.84177 0.29895 0.94825 0.0
C172 C 0.87132 0.31064 0.90228 0.0
C173 C 0.85637 0.32044 0.96592 0.0
C174 C 0.84895 0.29433 0.91569 0.0
C175 C 0.91884 0.34096 0.88325 0.0
C176 C 0.90861 0.3472 0.9113 0.0
C177 C 0.90461 0.32038 0.86309 0.0
C178 C 0.88086 0.30526 0.87254 0.0
Eu179 Eu 0.90222 0.37565 0.97626 0.0
N180 N 0.92201 0.36682 0.9315 0.0
C181 C 0.94329 0.35506 0.87731 0.0
C182 C 0.94607 0.37978 0.92737 0.0
C183 C 0.95703 0.37433 0.89986 0.0
H184 H 0.85115 0.32339 0.99185 0.0
H185 H 0.97601 0.385 0.89599 0.0
H186 H 0.84588 0.40734 1.02945 0.0
H187 H 0.85965 0.40831 0.81569 0.0
H188 H 0.9566 0.39475 0.94474 0.0
H189 H 0.95183 0.35084 0.85606 0.0
H190 H 0.88649 0.42205 0.86747 0.0
H191 H 0.82514 0.28586 0.95998 0.0
H192 H 0.91205 0.31548 0.84108 0.0
H193 H 0.87039 0.28887 0.85777 0.0
H194 H 0.80365 0.38778 1.04163 0.0
H195 H 0.83778 0.27752 0.90231 0.0
H196 H 0.81627 0.38862 0.82434 0.0
N197 N 0.84211 0.40356 0.97302 0.0
C198 C 0.82635 0.3964 0.94541 0.0
C199 C 0.80977 0.38991 1.01443 0.0
C200 C 0.80166 0.38526 0.95155 0.0
C201 C 0.83403 0.40086 1.00721 0.0
C202 C 0.79349 0.38199 0.98652 0.0
N203 N 0.8586 0.40937 0.90541 0.0
C204 C 0.86761 0.41303 0.87178 0.0
C205 C 0.81885 0.39149 0.88175 0.0
C206 C 0.8348 0.39947 0.91073 0.0
C207 C 0.82795 0.39448 0.84728 0.0
C208 C 0.85244 0.40549 0.84229 0.0
H209 H 0.77469 0.3735 0.99226 0.0
H210 H 0.76682 0.36894 0.92701 0.0
H211 H 0.78189 0.37437 0.86629 0.0
O212 O 0.87616 0.44954 0.97967 0.0
O213 O 0.88456 0.4181 1.01804 0.0
O214 O 0.89224 0.38756 1.03052 0.0
O215 O 0.89262 0.45603 0.92837 0.0
O216 O 0.8639 0.38436 0.93421 0.0
O217 O 0.86338 0.36507 0.9831 0.0
O218 O 0.93038 0.38226 1.01371 0.0
O219 O 0.9132 0.39349 0.91816 0.0
O220 O 0.91378 0.42962 0.91756 0.0
O221 O 0.90397 0.34623 1.00137 0.0
O222 O 0.93024 0.41364 0.96998 0.0
O223 O 0.91546 0.43556 0.99284 0.0
C224 C 0.88711 0.40418 1.04155 0.0
C225 C 0.86498 0.46932 0.93983 0.0
C226 C 0.83074 0.46028 0.90238 0.0
C227 C 0.82566 0.47473 0.92425 0.0
C228 C 0.8598 0.48388 0.96123 0.0
C229 C 0.84034 0.4867 0.95327 0.0
C230 C 0.85071 0.45809 0.91011 0.0
C231 C 0.85203 0.366 0.9551 0.0
C232 C 0.88269 0.46303 0.95191 0.0
C233 C 0.78581 0.37751 0.92273 0.0
C234 C 0.79439 0.38062 0.88802 0.0
C235 C 0.9197 0.4146 0.9026 0.0
C236 C 0.91675 0.35562 1.06103 0.0
C237 C 0.93218 0.36612 0.12134 0.0
C238 C 0.90917 0.35154 0.13465 0.0
C239 C 0.8938 0.34109 0.07463 0.0
C240 C 0.93576 0.36799 0.08448 0.0
C241 C 0.89011 0.33904 0.11132 0.0
C242 C 0.93221 0.42995 0.992 0.0
C243 C 0.92102 0.36015 1.02279 0.0
H244 H 0.81058 0.47701 0.91867 0.0
H245 H 0.8704 0.49249 0.98467 0.0
H246 H 0.83637 0.49784 0.97003 0.0
H247 H 0.85472 0.44698 0.89355 0.0
H248 H 0.90597 0.34958 0.16301 0.0
H249 H 0.87867 0.33169 1.05703 0.0
H250 H 0.95333 0.37964 0.07388 0.0
H251 H 0.87242 0.32789 0.12169 0.0
Eu252 Eu 0.4601 0.87992 0.29429 0.0
C253 C 0.57029 0.91724 0.25956 0.0
N254 N 0.55269 0.89725 0.27529 0.0
C255 C 0.5662 0.87341 0.24581 0.0
C256 C 0.58591 0.91569 0.23509 0.0
C257 C 0.55115 0.87574 0.2699 0.0
C258 C 0.5835 0.89341 0.22809 0.0
C259 C 0.58996 0.96005 0.25 0.0
C260 C 0.57266 0.93944 0.26745 0.0
C261 C 0.60547 0.95839 0.2258 0.0
C262 C 0.6035 0.93633 0.21846 0.0
Eu263 Eu 0.53019 0.90449 0.31743 0.0
N264 N 0.55706 0.94066 0.29033 0.0
C265 C 0.59072 0.98167 0.25654 0.0
C266 C 0.55722 0.9615 0.29593 0.0
C267 C 0.57414 0.98234 0.27933 0.0
H268 H 0.53898 0.86041 0.28485 0.0
H269 H 0.57428 0.99887 0.28391 0.0
H270 H 0.43513 0.91485 0.28946 0.0
H271 H 0.43478 0.80046 0.37474 0.0
H272 H 0.54412 0.96206 0.31266 0.0
H273 H 0.6037 0.99784 0.24351 0.0
H274 H 0.45852 0.83116 0.33108 0.0
H275 H 0.56471 0.85623 0.24139 0.0
H276 H 0.61891 0.97406 0.21227 0.0
H277 H 0.6156 0.93539 0.19962 0.0
H278 H 0.40244 0.91758 0.31804 0.0
H279 H 0.59519 0.89152 0.20953 0.0
H280 H 0.40157 0.80121 0.40531 0.0
N281 N 0.4297 0.88492 0.3198 0.0
C282 C 0.41589 0.86813 0.34402 0.0
C283 C 0.40614 0.90371 0.32574 0.0
C284 C 0.39691 0.86902 0.36072 0.0
C285 C 0.42472 0.90218 0.30981 0.0
C286 C 0.39228 0.88716 0.35146 0.0
N287 N 0.43945 0.84964 0.33675 0.0
C288 C 0.44422 0.83185 0.34398 0.0
C289 C 0.40664 0.83263 0.37781 0.0
C290 C 0.42063 0.84993 0.35238 0.0
C291 C 0.41193 0.81478 0.38594 0.0
C292 C 0.4307 0.81433 0.36882 0.0
H293 H 0.37787 0.8884 0.36374 0.0
H294 H 0.36853 0.85232 0.39918 0.0
H295 H 0.37708 0.82061 0.41419 0.0
O296 O 0.43251 0.84706 0.27049 0.0
O297 O 0.46763 0.88147 0.35603 0.0
O298 O 0.50783 0.89808 0.37036 0.0
O299 O 0.43697 0.88074 0.25283 0.0
O300 O 0.47946 0.86042 0.27189 0.0
O301 O 0.50789 0.86439 0.3122 0.0
O302 O 0.55988 0.92926 0.3507 0.0
O303 O 0.52459 0.91519 0.25916 0.0
O304 O 0.48556 0.90763 0.25142 0.0
O305 O 0.54864 0.89165 0.35123 0.0
O306 O 0.50236 0.91367 0.31505 0.0
O307 O 0.47218 0.91749 0.31471 0.0
C308 C 0.48504 0.88903 0.3802 0.0
C309 C 0.42081 0.84855 0.21236 0.0
C310 C 0.39224 0.82271 0.16777 0.0
C311 C 0.41101 0.83034 0.14318 0.0
C312 C 0.43929 0.85573 0.18781 0.0
C313 C 0.43434 0.84656 0.1533 0.0
C314 C 0.3975 0.83187 0.20255 0.0
C315 C 0.49199 0.85195 0.28767 0.0
C316 C 0.42536 0.85771 0.24871 0.0
C317 C 0.38309 0.85181 0.38604 0.0
C318 C 0.38793 0.83371 0.39455 0.0
C319 C 0.50821 0.91758 0.24048 0.0
C320 C 0.56129 0.9127 0.40611 0.0
C321 C 0.56576 0.93434 0.46166 0.0
C322 C 0.5595 0.91341 0.48069 0.0
C323 C 0.55524 0.89207 0.4257 0.0
C324 C 0.56685 0.93377 0.42435 0.0
C325 C 0.55437 0.89249 0.46276 0.0
C326 C 0.49364 0.9266 0.32635 0.0
C327 C 0.56145 0.91233 0.36679 0.0
H328 H 0.40769 0.82435 0.11579 0.0
H329 H 0.45742 0.86841 0.19532 0.0
H330 H 0.44855 0.8523 0.13416 0.0
H331 H 0.38351 0.82616 0.22212 0.0
H332 H 0.55898 0.91324 0.50945 0.0
H333 H 0.55106 0.87559 0.41243 0.0
H334 H 0.57168 0.94969 0.40926 0.0
H335 H 0.54968 0.87652 0.47767 0.0
Eu336 Eu 0.57365 0.45442 0.62508 0.0
C337 C 0.63373 0.57033 0.61263 0.0
N338 N 0.63666 0.55166 0.60412 0.0
C339 C 0.6563 0.57085 0.5501 0.0
C340 C 0.64132 0.58981 0.58947 0.0
C341 C 0.64854 0.55199 0.57403 0.0
C342 C 0.65238 0.5897 0.55761 0.0
C343 C 0.62249 0.59032 0.65637 0.0
C344 C 0.62449 0.57057 0.64559 0.0
C345 C 0.62891 0.60927 0.63274 0.0
C346 C 0.63833 0.60902 0.59935 0.0
Eu347 Eu 0.62195 0.51976 0.64469 0.0
N348 N 0.61894 0.5522 0.66798 0.0
C349 C 0.61484 0.59079 0.69096 0.0
C350 C 0.61273 0.5532 0.70236 0.0
C351 C 0.61025 0.57228 0.71421 0.0
H352 H 0.65149 0.53739 0.56812 0.0
H353 H 0.60495 0.57275 0.74132 0.0
H354 H 0.52592 0.45254 0.58806 0.0
H355 H 0.57694 0.38955 0.71368 0.0
H356 H 0.60946 0.53918 0.72072 0.0
H357 H 0.61309 0.60564 0.70028 0.0
H358 H 0.59274 0.42257 0.67026 0.0
H359 H 0.66525 0.57082 0.52588 0.0
H360 H 0.62729 0.6245 0.64042 0.0
H361 H 0.64383 0.62405 0.58178 0.0
H362 H 0.48255 0.43252 0.59795 0.0
H363 H 0.65847 0.60433 0.5391 0.0
H364 H 0.53494 0.37063 0.7325 0.0
N365 N 0.53206 0.43511 0.63099 0.0
C366 C 0.52231 0.41821 0.65651 0.0
C367 C 0.49355 0.42843 0.61474 0.0
C368 C 0.49769 0.40629 0.66305 0.0
C369 C 0.51808 0.43973 0.60921 0.0
C370 C 0.48336 0.41197 0.64224 0.0
N371 N 0.56017 0.42258 0.66577 0.0
C372 C 0.57439 0.41432 0.6785 0.0
C373 C 0.52698 0.39271 0.69873 0.0
C374 C 0.53677 0.41157 0.67421 0.0
C375 C 0.54179 0.38507 0.71356 0.0
C376 C 0.56551 0.3957 0.70299 0.0
H377 H 0.46437 0.40324 0.64646 0.0
H378 H 0.46924 0.37932 0.69479 0.0
H379 H 0.4949 0.3674 0.72602 0.0
O380 O 0.5887 0.44843 0.57671 0.0
O381 O 0.58174 0.45824 0.68606 0.0
O382 O 0.60695 0.4982 0.69926 0.0
O383 O 0.55442 0.42105 0.5956 0.0
O384 O 0.61266 0.46345 0.63146 0.0
O385 O 0.62763 0.49789 0.60231 0.0
O386 O 0.6574 0.54769 0.66053 0.0
O387 O 0.60265 0.51777 0.59025 0.0
O388 O 0.57092 0.47941 0.5822 0.0
O389 O 0.64823 0.51098 0.66462 0.0
O390 O 0.58821 0.50799 0.67404 0.0
O391 O 0.56166 0.48136 0.63474 0.0
C392 C 0.59321 0.47546 0.70997 0.0
C393 C 0.58009 0.40864 0.57114 0.0
C394 C 0.60311 0.39412 0.53947 0.0
C395 C 0.59693 0.37645 0.5653 0.0
C396 C 0.57341 0.39031 0.59607 0.0
C397 C 0.5821 0.37458 0.5934 0.0
C398 C 0.59497 0.41045 0.54303 0.0
C399 C 0.62967 0.47951 0.61137 0.0
C400 C 0.57205 0.4262 0.57418 0.0
C401 C 0.48808 0.38848 0.68906 0.0
C402 C 0.50269 0.38167 0.70683 0.0
C403 C 0.5837 0.50203 0.57145 0.0
C404 C 0.67398 0.53728 0.70759 0.0
C405 C 0.66975 0.54305 0.77061 0.0
C406 C 0.69236 0.5459 0.77689 0.0
C407 C 0.69649 0.5402 0.71404 0.0
C408 C 0.66063 0.53832 0.73587 0.0
C409 C 0.70558 0.54438 0.74869 0.0
C410 C 0.5663 0.49377 0.66429 0.0
C411 C 0.66407 0.53293 0.67157 0.0
H412 H 0.60284 0.36359 0.56305 0.0
H413 H 0.56141 0.388 0.61752 0.0
H414 H 0.57698 0.36062 0.61284 0.0
H415 H 0.60006 0.42449 0.52366 0.0
H416 H 0.70004 0.54981 0.80332 0.0
H417 H 0.70696 0.53927 0.69239 0.0
H418 H 0.64307 0.53548 0.73064 0.0
H419 H 0.72302 0.54673 0.75366 0.0
Eu420 Eu 0.11965 0.57513 0.95642 0.0
C421 C 0.06924 0.63216 0.92454 0.0
N422 N 0.09086 0.63387 0.92905 0.0
C423 C 0.10591 0.65897 0.87799 0.0
C424 C 0.065 0.64322 0.89549 0.0
C425 C 0.1093 0.64759 0.90699 0.0
C426 C 0.08365 0.65668 0.87209 0.0
C427 C 0.02815 0.61536 0.94302 0.0
C428 C 0.05099 0.61839 0.94818 0.0
C429 C 0.02393 0.6264 0.91412 0.0
C430 C 0.04229 0.64031 0.8905 0.0
Eu431 Eu 0.09488 0.61576 0.98077 0.0
N432 N 0.05547 0.60784 0.976 0.0
C433 C 0.01017 0.60129 0.96706 0.0
C434 C 0.03809 0.5943 0.99976 0.0
C435 C 0.01519 0.59075 0.99555 0.0
H436 H 0.12659 0.64977 0.91166 0.0
H437 H 0.00145 0.58005 1.01445 0.0
H438 H 0.07988 0.517 0.94803 0.0
H439 H 0.20253 0.61987 1.03237 0.0
H440 H 0.04198 0.58665 1.02244 0.0
H441 H 0.9924 0.59854 0.96396 0.0
H442 H 0.1713 0.61744 0.99213 0.0
H443 H 0.1205 0.6696 0.86027 0.0
H444 H 0.00649 0.62426 0.90977 0.0
H445 H 0.0387 0.64864 0.86829 0.0
H446 H 0.07208 0.4789 0.97442 0.0
H447 H 0.08108 0.66545 0.84948 0.0
H448 H 0.19813 0.58333 1.0598 0.0
N449 N 0.1107 0.53787 0.97933 0.0
C450 C 0.12678 0.53804 1.00268 0.0
C451 C 0.08744 0.49541 0.98276 0.0
C452 C 0.1235 0.51667 1.01744 0.0
C453 C 0.09167 0.51698 0.9683 0.0
C454 C 0.10331 0.49526 1.00765 0.0
N455 N 0.14911 0.58011 0.99801 0.0
C456 C 0.16913 0.60149 1.00435 0.0
C457 C 0.16427 0.56018 1.03445 0.0
C458 C 0.14686 0.55961 1.01141 0.0
C459 C 0.18438 0.58216 1.0422 0.0
C460 C 0.18688 0.60286 1.02692 0.0
H461 H 0.10007 0.4785 1.01862 0.0
H462 H 0.13828 0.50103 1.05267 0.0
H463 H 0.17402 0.53905 1.06734 0.0
O464 O 0.15254 0.58627 0.9283 0.0
O465 O 0.12193 0.58233 1.01876 0.0
O466 O 0.09897 0.59903 1.03384 0.0
O467 O 0.12257 0.55127 0.91785 0.0
O468 O 0.13783 0.61267 0.93216 0.0
O469 O 0.13518 0.63231 0.97899 0.0
O470 O 0.08339 0.63546 1.01441 0.0
O471 O 0.0817 0.59819 0.92363 0.0
O472 O 0.09043 0.56819 0.9141 0.0
O473 O 0.11985 0.65232 0.99693 0.0
O474 O 0.07427 0.57956 1.00461 0.0
O475 O 0.07975 0.55512 0.96618 0.0
C476 C 0.11199 0.58928 1.04362 0.0
C477 C 0.14993 0.57153 0.87075 0.0
C478 C 0.1789 0.59598 0.82574 0.0
C479 C 0.16133 0.58413 0.7994 0.0
C480 C 0.13277 0.55987 0.84411 0.0
C481 C 0.13859 0.56604 0.80856 0.0
C482 C 0.17306 0.58897 0.86126 0.0
C483 C 0.14706 0.6322 0.95122 0.0
C484 C 0.14412 0.56712 0.90877 0.0
C485 C 0.14055 0.51727 1.04103 0.0
C486 C 0.16094 0.53893 1.04933 0.0
C487 C 0.0794 0.57987 0.90412 0.0
C488 C 0.1131 0.65745 1.05719 0.0
C489 C 0.10347 0.64657 0.1196 0.0
C490 C 0.12786 0.65789 0.12761 0.0
C491 C 0.13739 0.66903 1.06582 0.0
C492 C 0.0964 0.64724 0.08453 0.0
C493 C 0.14466 0.66938 0.10091 0.0
C494 C 0.06905 0.5583 0.99357 0.0
C495 C 0.105 0.65285 1.01972 0.0
H496 H 0.1648 0.58929 0.77176 0.0
H497 H 0.11482 0.54634 0.85071 0.0
H498 H 0.12524 0.55724 0.78809 0.0
H499 H 0.18636 0.59754 0.88191 0.0
H500 H 0.13397 0.65758 0.15427 0.0
H501 H 0.15075 0.67714 1.04534 0.0
H502 H 0.07768 0.63915 0.07819 0.0
H503 H 0.1634 0.678 0.10725 0.0
Eu504 Eu 0.88067 0.451 0.51996 0.0
C505 C 0.86651 0.53713 0.49102 0.0
N506 N 0.87805 0.52966 0.46911 0.0
C507 C 0.86409 0.54098 0.418 0.0
C508 C 0.85278 0.54648 0.47693 0.0
C509 C 0.8773 0.53166 0.43312 0.0
C510 C 0.85172 0.54839 0.43999 0.0
C511 C 0.8549 0.54124 0.55064 0.0
C512 C 0.86788 0.53477 0.52755 0.0
C513 C 0.84153 0.55091 0.53671 0.0
C514 C 0.84049 0.55353 0.49998 0.0
Eu515 Eu 0.90224 0.51685 0.49591 0.0
N516 N 0.88082 0.52507 0.54033 0.0
C517 C 0.85521 0.53729 0.58704 0.0
C518 C 0.88032 0.52045 0.57588 0.0
C519 C 0.86776 0.52663 0.59962 0.0
H520 H 0.88738 0.52659 0.41603 0.0
H521 H 0.86753 0.52285 0.62767 0.0
H522 H 0.86364 0.41263 0.4507 0.0
H523 H 0.83041 0.44011 0.64117 0.0
H524 H 0.88877 0.51138 0.58661 0.0
H525 H 0.84534 0.54186 0.60555 0.0
H526 H 0.86637 0.45466 0.60476 0.0
H527 H 0.86361 0.54265 0.38943 0.0
H528 H 0.8317 0.55619 0.55412 0.0
H529 H 0.82991 0.56082 0.48965 0.0
H530 H 0.82633 0.38268 0.42173 0.0
H531 H 0.84145 0.55559 0.4282 0.0
H532 H 0.79064 0.41345 0.61429 0.0
N533 N 0.84617 0.4203 0.49201 0.0
C534 C 0.82532 0.41321 0.50902 0.0
C535 C 0.82574 0.3914 0.44597 0.0
C536 C 0.8036 0.39563 0.49411 0.0
C537 C 0.8468 0.40864 0.46208 0.0
C538 C 0.80399 0.38525 0.46163 0.0
N539 N 0.84728 0.43757 0.55754 0.0
C540 C 0.84916 0.44324 0.59292 0.0
C541 C 0.80487 0.41307 0.56285 0.0
C542 C 0.8259 0.42185 0.54298 0.0
C543 C 0.80649 0.42017 0.59831 0.0
C544 C 0.82878 0.43498 0.61358 0.0
H545 H 0.78771 0.37167 0.44934 0.0
H546 H 0.76553 0.37482 0.50168 0.0
H547 H 0.76664 0.39008 0.56201 0.0
O548 O 0.873 0.41443 0.52706 0.0
O549 O 0.87996 0.45593 0.45704 0.0
O550 O 0.89499 0.49568 0.44181 0.0
O551 O 0.90538 0.44325 0.54843 0.0
O552 O 0.86135 0.47121 0.53713 0.0
O553 O 0.86274 0.49032 0.48745 0.0
O554 O 0.92898 0.539 0.45763 0.0
O555 O 0.9205 0.51561 0.55026 0.0
O556 O 0.90447 0.47598 0.56717 0.0
O557 O 0.92347 0.55541 0.50377 0.0
O558 O 0.92476 0.50042 0.5064 0.0
O559 O 0.91083 0.46554 0.48035 0.0
C560 C 0.88558 0.47282 0.43217 0.0
C561 C 0.8862 0.40843 0.58246 0.0
C562 C 0.86211 0.39588 0.63617 0.0
C563 C 0.88027 0.39417 0.65376 0.0
C564 C 0.9041 0.40648 0.60025 0.0
C565 C 0.90091 0.3989 0.63558 0.0
C566 C 0.86474 0.4018 0.60004 0.0
C567 C 0.85025 0.47777 0.51451 0.0
C568 C 0.89116 0.42032 0.54769 0.0
C569 C 0.78239 0.38809 0.51289 0.0
C570 C 0.78303 0.39675 0.54725 0.0
C571 C 0.91888 0.49923 0.5738 0.0
C572 C 0.9324 0.57625 0.44906 0.0
C573 C 0.93788 0.59217 0.38921 0.0
C574 C 0.92691 0.60522 0.39914 0.0
C575 C 0.92127 0.58924 0.45883 0.0
C576 C 0.94104 0.57828 0.41454 0.0
C577 C 0.91869 0.60375 0.43392 0.0
C578 C 0.9278 0.48758 0.48291 0.0
C579 C 0.93353 0.55888 0.47281 0.0
H580 H 0.87869 0.3897 0.68171 0.0
H581 H 0.92077 0.4115 0.58718 0.0
H582 H 0.91489 0.3977 0.64935 0.0
H583 H 0.85066 0.40279 0.58638 0.0
H584 H 0.92449 0.61625 0.38001 0.0
H585 H 0.91421 0.58786 0.48532 0.0
H586 H 0.95002 0.56861 0.40719 0.0
H587 H 0.91 0.61361 0.44145 0.0
Eu588 Eu 0.42729 0.88211 0.85626 0.0
C589 C 0.32603 0.86235 0.81891 0.0
N590 N 0.34559 0.87498 0.7986 0.0
C591 C 0.32292 0.85707 0.7457 0.0
C592 C 0.30417 0.84569 0.80321 0.0
C593 C 0.34423 0.87312 0.76244 0.0
C594 C 0.30285 0.8431 0.76619 0.0
C595 C 0.30789 0.85229 0.87715 0.0
C596 C 0.32794 0.86587 0.85547 0.0
C597 C 0.28626 0.83539 0.86168 0.0
C598 C 0.28438 0.83216 0.8248 0.0
Eu599 Eu 0.38107 0.90208 0.8277 0.0
N600 N 0.34934 0.88209 0.86985 0.0
C601 C 0.31009 0.85597 0.91385 0.0
C602 C 0.35117 0.88593 0.90587 0.0
C603 C 0.33175 0.873 0.92817 0.0
H604 H 0.35949 0.88425 0.74634 0.0
H605 H 0.33352 0.87625 0.95656 0.0
H606 H 0.47434 0.89758 0.8055 0.0
H607 H 0.37158 0.79322 0.91562 0.0
H608 H 0.3672 0.89889 0.91846 0.0
H609 H 0.29515 0.84589 0.93133 0.0
H610 H 0.39253 0.83675 0.91508 0.0
H611 H 0.32197 0.85554 0.717 0.0
H612 H 0.27083 0.82475 0.87802 0.0
H613 H 0.26753 0.81915 0.81324 0.0
H614 H 0.48947 0.8787 0.76354 0.0
H615 H 0.28637 0.83057 0.75317 0.0
H616 H 0.37691 0.77106 0.86634 0.0
N617 N 0.44336 0.86507 0.81818 0.0
C618 C 0.43141 0.84107 0.81503 0.0
C619 C 0.47302 0.86793 0.77761 0.0
C620 C 0.43915 0.82955 0.79118 0.0
C621 C 0.46449 0.87854 0.80133 0.0
C622 C 0.45993 0.84339 0.77175 0.0
N623 N 0.40819 0.83982 0.86401 0.0
C624 C 0.39491 0.82759 0.8929 0.0
C625 C 0.40187 0.80292 0.83834 0.0
C626 C 0.41306 0.82799 0.83847 0.0
C627 C 0.38594 0.7903 0.86557 0.0
C628 C 0.38297 0.80274 0.89349 0.0
H629 H 0.46653 0.8352 0.75331 0.0
H630 H 0.43211 0.79546 0.77037 0.0
H631 H 0.39935 0.77209 0.81162 0.0
O632 O 0.45124 0.87313 0.88418 0.0
O633 O 0.42381 0.88278 0.79318 0.0
O634 O 0.39719 0.89517 0.77582 0.0
O635 O 0.4581 0.90913 0.88587 0.0
O636 O 0.38821 0.86354 0.87569 0.0
O637 O 0.37015 0.86285 0.82467 0.0
O638 O 0.38532 0.92655 0.78549 0.0
O639 O 0.39941 0.92023 0.88301 0.0
O640 O 0.42125 0.90298 0.90296 0.0
O641 O 0.36481 0.92445 0.8318 0.0
O642 O 0.41947 0.92441 0.8419 0.0
O643 O 0.44392 0.91379 0.81929 0.0
C644 C 0.41239 0.88762 0.76751 0.0
C645 C 0.46083 0.89238 0.93913 0.0
C646 C 0.43416 0.87953 0.98996 0.0
C647 C 0.45376 0.89201 1.01275 0.0
C648 C 0.48032 0.90515 0.96176 0.0
C649 C 0.47676 0.90474 0.9986 0.0
C650 C 0.43809 0.87945 0.95356 0.0
C651 C 0.36997 0.85197 0.85392 0.0
C652 C 0.46268 0.89363 0.90024 0.0
C653 C 0.42672 0.80463 0.78897 0.0
C654 C 0.40804 0.79132 0.81245 0.0
C655 C 0.41244 0.91745 0.90854 0.0
C656 C 0.35436 0.93443 0.77651 0.0
C657 C 0.3474 0.95115 0.72313 0.0
C658 C 0.32279 0.93686 0.7282 0.0
C659 C 0.32976 0.91998 0.78116 0.0
C660 C 0.36298 0.94993 0.74762 0.0
C661 C 0.31407 0.92131 0.75707 0.0
C662 C 0.4366 0.92913 0.81999 0.0
C663 C 0.37173 0.93345 0.80028 0.0
H664 H 0.45128 0.89229 1.04117 0.0
H665 H 0.49805 0.91556 0.95103 0.0
H666 H 0.49179 0.91462 1.01618 0.0
H667 H 0.42316 0.86972 0.93597 0.0
H668 H 0.31037 0.93746 0.70961 0.0
H669 H 0.3227 0.90767 0.80314 0.0
H670 H 0.382 0.96117 0.74428 0.0
H671 H 0.29511 0.91016 0.76066 0.0
Eu672 Eu 0.54279 0.42287 0.18463 0.0
C673 C 0.43601 0.35913 0.21882 0.0
N674 N 0.45627 0.35812 0.21381 0.0
C675 C 0.4481 0.33421 0.26593 0.0
C676 C 0.42148 0.34832 0.24863 0.0
C677 C 0.46211 0.34537 0.23621 0.0
C678 C 0.42778 0.33578 0.27227 0.0
C679 C 0.41038 0.37461 0.20089 0.0
C680 C 0.43052 0.37221 0.19508 0.0
C681 C 0.39584 0.36368 0.23045 0.0
C682 C 0.40135 0.35057 0.25419 0.0
Eu683 Eu 0.47701 0.37566 0.16091 0.0
N684 N 0.44499 0.38287 0.16673 0.0
C685 C 0.40547 0.38803 0.17691 0.0
C686 C 0.44007 0.39569 0.14296 0.0
C687 C 0.42035 0.39857 0.14782 0.0
H688 H 0.47744 0.34366 0.23122 0.0
H689 H 0.41649 0.40872 0.12892 0.0
H690 H 0.55489 0.47911 0.17346 0.0
H691 H 0.58535 0.37632 0.12587 0.0
H692 H 0.4509 0.40323 0.11964 0.0
H693 H 0.39018 0.39028 0.18051 0.0
H694 H 0.55625 0.38026 0.16241 0.0
H695 H 0.45293 0.3243 0.28384 0.0
H696 H 0.38032 0.36534 0.23528 0.0
H697 H 0.39001 0.34237 0.27696 0.0
H698 H 0.58187 0.51438 0.13797 0.0
H699 H 0.41705 0.3272 0.29545 0.0
H700 H 0.61506 0.41058 0.09125 0.0
N701 N 0.56783 0.45752 0.15205 0.0
C702 C 0.58467 0.45663 0.13175 0.0
C703 C 0.58271 0.49819 0.13571 0.0
C704 C 0.601 0.47659 0.11202 0.0
C705 C 0.56708 0.47807 0.1551 0.0
C706 C 0.59965 0.49742 0.11391 0.0
N707 N 0.56849 0.41612 0.14794 0.0
C708 C 0.56869 0.39522 0.14711 0.0
C709 C 0.60235 0.43402 0.10881 0.0
C710 C 0.58534 0.43553 0.13014 0.0
C711 C 0.60223 0.41243 0.10725 0.0
C712 C 0.5854 0.393 0.12659 0.0
H713 H 0.61179 0.51307 0.09901 0.0
H714 H 0.63071 0.49028 0.07567 0.0
H715 H 0.63194 0.45309 0.07294 0.0
O716 O 0.5679 0.42126 0.22175 0.0
O717 O 0.53867 0.41544 0.12321 0.0
O718 O 0.49942 0.39002 0.10735 0.0
O719 O 0.56698 0.45389 0.21644 0.0
O720 O 0.52918 0.38537 0.209 0.0
O721 O 0.502 0.36112 0.16808 0.0
O722 O 0.44487 0.35485 0.1295 0.0
O723 O 0.48064 0.39504 0.21642 0.0
O724 O 0.51859 0.42611 0.22736 0.0
O725 O 0.46567 0.33897 0.14525 0.0
O726 O 0.48998 0.40958 0.13247 0.0
O727 O 0.51815 0.43744 0.16999 0.0
C728 C 0.52235 0.40395 0.09822 0.0
C729 C 0.60479 0.4573 0.22539 0.0
C730 C 0.64311 0.46095 0.23945 0.0
C731 C 0.6547 0.48275 0.22165 0.0
C732 C 0.61673 0.47935 0.20789 0.0
C733 C 0.64148 0.49175 0.20559 0.0
C734 C 0.61819 0.44816 0.24086 0.0
C735 C 0.5164 0.36411 0.19436 0.0
C736 C 0.5786 0.44398 0.22884 0.0
C737 C 0.61803 0.47513 0.09097 0.0
C738 C 0.61875 0.45394 0.08944 0.0
C739 C 0.49586 0.41349 0.23654 0.0
C740 C 0.44999 0.33097 0.08705 0.0
C741 C 0.45493 0.34196 1.02418 0.0
C742 C 0.45738 0.3221 1.0164 0.0
C743 C 0.45237 0.3112 0.07874 0.0
C744 C 0.45075 0.34587 1.05953 0.0
C745 C 0.45589 0.30674 1.04353 0.0
C746 C 0.50447 0.43168 0.14141 0.0
C747 C 0.44888 0.33734 0.12444 0.0
H748 H 0.67391 0.493 0.22094 0.0
H749 H 0.60709 0.48724 0.19636 0.0
H750 H 0.65046 0.50869 0.19209 0.0
H751 H 0.60929 0.43158 0.25541 0.0
H752 H 0.46087 0.31863 0.98955 0.0
H753 H 0.45196 0.2995 0.09954 0.0
H754 H 0.44833 0.36081 1.06575 0.0
H755 H 0.45793 0.29157 1.03732 0.0
Eu756 Eu 0.11602 0.54295 0.51688 0.0
C757 C 0.05933 0.4262 0.52825 0.0
N758 N 0.08056 0.44508 0.53755 0.0
C759 C 0.08065 0.42577 0.5917 0.0
C760 C 0.04748 0.40646 0.55094 0.0
C761 C 0.09175 0.44486 0.56817 0.0
C762 C 0.05827 0.4066 0.58325 0.0
C763 C 0.02862 0.4063 0.48367 0.0
C764 C 0.05009 0.42614 0.49512 0.0
C765 C 0.01622 0.38696 0.50668 0.0
C766 C 0.02564 0.38704 0.54026 0.0
Eu767 Eu 0.09775 0.47737 0.49775 0.0
N768 N 0.06273 0.44495 0.47339 0.0
C769 C 0.02057 0.40623 0.44912 0.0
C770 C 0.05541 0.44453 0.43918 0.0
C771 C 0.03417 0.42533 0.42667 0.0
H772 H 0.10904 0.45968 0.57475 0.0
H773 H 0.02835 0.42527 0.39968 0.0
H774 H 0.07083 0.54276 0.56133 0.0
H775 H 0.17765 0.61175 0.42633 0.0
H776 H 0.06582 0.45906 0.42139 0.0
H777 H 0.00419 0.39131 0.43929 0.0
H778 H 0.16448 0.5788 0.46958 0.0
H779 H 0.08934 0.42585 0.6163 0.0
H780 H 0.99961 0.37163 0.49845 0.0
H781 H 0.01616 0.37178 0.55742 0.0
H782 H 0.04474 0.55996 0.55549 0.0
H783 H 0.04974 0.39179 0.60144 0.0
H784 H 0.15043 0.62637 0.40925 0.0
N785 N 0.09108 0.55985 0.51526 0.0
C786 C 0.09546 0.57593 0.48922 0.0
C787 C 0.05884 0.56448 0.5365 0.0
C788 C 0.08097 0.58621 0.48486 0.0
C789 C 0.07369 0.55475 0.53971 0.0
C790 C 0.06216 0.57988 0.50848 0.0
N791 N 0.13021 0.57479 0.476 0.0
C792 C 0.15265 0.58529 0.46224 0.0
C793 C 0.12233 0.60226 0.44432 0.0
C794 C 0.11573 0.58371 0.46897 0.0
C795 C 0.14465 0.61201 0.42818 0.0
C796 C 0.1601 0.60387 0.43785 0.0
H797 H 0.05063 0.58738 0.50604 0.0
H798 H 0.07517 0.61099 0.454 0.0
H799 H 0.11158 0.62523 0.41867 0.0
O800 O 0.13318 0.54913 0.56933 0.0
O801 O 0.12202 0.53837 0.45651 0.0
O802 O 0.10326 0.49804 0.44333 0.0
O803 O 0.13867 0.57875 0.53653 0.0
O804 O 0.14503 0.53294 0.51032 0.0
O805 O 0.12539 0.49906 0.54049 0.0
O806 O 0.10669 0.45031 0.4825 0.0
O807 O 0.07996 0.47925 0.55126 0.0
O808 O 0.08996 0.51847 0.56194 0.0
O809 O 0.13292 0.48738 0.47724 0.0
O810 O 0.07593 0.4899 0.46862 0.0
O811 O 0.07689 0.51693 0.50792 0.0
C812 C 0.11426 0.52083 0.43261 0.0
C813 C 0.14246 0.58589 0.59716 0.0
C814 C 0.1639 0.62191 0.63278 0.0
C815 C 0.14236 0.61729 0.64832 0.0
C816 C 0.12107 0.58127 0.61291 0.0
C817 C 0.12108 0.59696 0.63852 0.0
C818 C 0.16371 0.60606 0.60723 0.0
C819 C 0.14591 0.51738 0.53158 0.0
C820 C 0.1431 0.5722 0.56672 0.0
C821 C 0.08634 0.60322 0.45818 0.0
C822 C 0.10705 0.6113 0.43801 0.0
C823 C 0.07847 0.49549 0.57133 0.0
C824 C 0.13324 0.46149 0.43477 0.0
C825 C 0.12164 0.45386 0.37251 0.0
C826 C 0.14308 0.45451 0.36467 0.0
C827 C 0.15453 0.462 0.42695 0.0
C828 C 0.11723 0.45789 0.4075 0.0
C829 C 0.15947 0.45864 0.39187 0.0
C830 C 0.06864 0.50446 0.47863 0.0
C831 C 0.12776 0.46564 0.47087 0.0
H832 H 0.14207 0.62906 0.66852 0.0
H833 H 0.10445 0.56592 0.60494 0.0
H834 H 0.10456 0.59342 0.65067 0.0
H835 H 0.18015 0.60975 0.59445 0.0
H836 H 0.14692 0.45135 0.33786 0.0
H837 H 0.16729 0.46511 0.44781 0.0
H838 H 0.10119 0.45821 0.41369 0.0
H839 H 0.17591 0.45901 0.3858 0.0
Eu840 Eu 0.57155 0.11291 0.85671 0.0
C841 C 0.63309 0.05665 0.85974 0.0
N842 N 0.63552 0.07767 0.87063 0.0
C843 C 0.65606 0.07687 0.92314 0.0
C844 C 0.6415 0.04446 0.88075 0.0
C845 C 0.64755 0.08834 0.90121 0.0
C846 C 0.65275 0.05467 0.91308 0.0
C847 C 0.62187 0.02702 0.81323 0.0
C848 C 0.62343 0.0481 0.82652 0.0
C849 C 0.62925 0.0142 0.83462 0.0
C850 C 0.63905 0.02291 0.86834 0.0
Eu851 Eu 0.6194 0.09539 0.83358 0.0
N852 N 0.6169 0.06117 0.80637 0.0
C853 C 0.61361 0.01985 0.77846 0.0
C854 C 0.60985 0.05481 0.7719 0.0
C855 C 0.60784 0.03398 0.75757 0.0
H856 H 0.65009 0.10548 0.90905 0.0
H857 H 0.60195 0.02891 0.73038 0.0
H858 H 0.52244 0.06664 0.88842 0.0
H859 H 0.58009 0.18466 0.77167 0.0
H860 H 0.60554 0.06568 0.75538 0.0
H861 H 0.61218 0.00379 0.76723 0.0
H862 H 0.59374 0.16463 0.81366 0.0
H863 H 0.66515 0.08514 0.94774 0.0
H864 H 0.62801 0.99787 0.825 0.0
H865 H 0.64521 0.01316 0.88421 0.0
H866 H 0.47903 0.0455 0.87721 0.0
H867 H 0.65945 0.04587 0.93002 0.0
H868 H 0.53816 0.16428 0.75177 0.0
N869 N 0.5301 0.09195 0.84766 0.0
C870 C 0.52135 0.1007 0.8229 0.0
C871 C 0.49074 0.06093 0.86163 0.0
C872 C 0.49677 0.0895 0.81595 0.0
C873 C 0.51525 0.07284 0.86784 0.0
C874 C 0.48149 0.06909 0.8352 0.0
N875 N 0.56019 0.13293 0.81564 0.0
C876 C 0.57549 0.1556 0.80467 0.0
C877 C 0.52818 0.1328 0.78317 0.0
C878 C 0.53683 0.12197 0.8066 0.0
C879 C 0.54411 0.15537 0.76985 0.0
C880 C 0.5678 0.16695 0.78104 0.0
H881 H 0.4625 0.05994 0.8306 0.0
H882 H 0.46938 0.0911 0.78526 0.0
H883 H 0.4969 0.12904 0.75652 0.0
O884 O 0.58756 0.14157 0.89665 0.0
O885 O 0.57693 0.11533 0.7951 0.0
O886 O 0.60279 0.10157 0.78075 0.0
O887 O 0.54948 0.11968 0.89299 0.0
O888 O 0.61077 0.14221 0.85157 0.0
O889 O 0.62621 0.12217 0.87802 0.0
O890 O 0.6551 0.10502 0.81613 0.0
O891 O 0.6013 0.07768 0.88806 0.0
O892 O 0.57166 0.0868 0.90032 0.0
O893 O 0.6436 0.13091 0.81323 0.0
O894 O 0.58443 0.07264 0.80691 0.0
O895 O 0.55981 0.07381 0.84851 0.0
C896 C 0.58838 0.1099 0.77083 0.0
C897 C 0.56473 0.1604 0.90599 0.0
C898 C 0.57409 0.19872 0.93231 0.0
C899 C 0.55861 0.20026 0.90763 0.0
C900 C 0.54908 0.16229 0.88221 0.0
C901 C 0.54642 0.18227 0.88263 0.0
C902 C 0.57751 0.17887 0.9305 0.0
C903 C 0.62796 0.14273 0.87077 0.0
C904 C 0.56715 0.13893 0.90629 0.0
C905 C 0.48819 0.09955 0.79118 0.0
C906 C 0.50386 0.12115 0.7748 0.0
C907 C 0.58378 0.07579 0.90893 0.0
C908 C 0.66986 0.13268 0.76959 0.0
C909 C 0.6656 0.12402 0.70604 0.0
C910 C 0.68736 0.14497 0.70027 0.0
C911 C 0.69152 0.15346 0.76358 0.0
C912 C 0.65691 0.11828 0.74086 0.0
C913 C 0.70019 0.1596 0.72895 0.0
C914 C 0.56299 0.06526 0.81861 0.0
C915 C 0.66031 0.1262 0.80561 0.0
H916 H 0.55503 0.21483 0.90846 0.0
H917 H 0.53851 0.14818 0.86364 0.0
H918 H 0.53425 0.18346 0.86421 0.0
H919 H 0.58966 0.17741 0.94864 0.0
H920 H 0.69471 0.14979 0.6738 0.0
H921 H 0.70164 0.1649 0.78557 0.0
H922 H 0.63998 0.10258 0.74578 0.0
H923 H 0.71697 0.17564 0.72434 0.0
Eu924 Eu 0.45747 0.56828 0.18194 0.0
C925 C 0.56751 0.63812 0.21874 0.0
N926 N 0.55013 0.6417 0.20492 0.0
C927 C 0.56452 0.67761 0.23888 0.0
C928 C 0.58359 0.65397 0.24431 0.0
C929 C 0.54888 0.66141 0.21377 0.0
C930 C 0.58186 0.67383 0.25435 0.0
C931 C 0.58549 0.61315 0.2244 0.0
C932 C 0.5687 0.61796 0.20844 0.0
C933 C 0.60164 0.62914 0.24949 0.0
C934 C 0.60075 0.64949 0.25931 0.0
Eu935 Eu 0.52689 0.61441 0.1603 0.0
N936 N 0.55253 0.60235 0.1846 0.0
C937 C 0.58513 0.59203 0.21547 0.0
C938 C 0.55159 0.58139 0.17675 0.0
C939 C 0.56798 0.576 0.19181 0.0
H940 H 0.53632 0.66512 0.20098 0.0
H941 H 0.56727 0.5594 0.18534 0.0
H942 H 0.43366 0.50858 0.18496 0.0
H943 H 0.42725 0.62172 0.10999 0.0
H944 H 0.53816 0.56867 0.15925 0.0
H945 H 0.59769 0.58768 0.22727 0.0
H946 H 0.45292 0.61504 0.1504 0.0
H947 H 0.56336 0.69316 0.24599 0.0
H948 H 0.6147 0.62575 0.26186 0.0
H949 H 0.61323 0.66152 0.27895 0.0
H950 H 0.40053 0.47294 0.15693 0.0
H951 H 0.59393 0.68643 0.27385 0.0
H952 H 0.39371 0.58767 0.07961 0.0
N953 N 0.42674 0.53283 0.15672 0.0
C954 C 0.41196 0.5356 0.13406 0.0
C955 C 0.40365 0.49044 0.15009 0.0
C956 C 0.39272 0.51564 0.11772 0.0
C957 C 0.42244 0.51066 0.16576 0.0
C958 C 0.38884 0.49294 0.12577 0.0
N959 N 0.43464 0.57757 0.14304 0.0
C960 C 0.43853 0.60001 0.13751 0.0
C961 C 0.40065 0.56154 0.10383 0.0
C962 C 0.41581 0.55842 0.12733 0.0
C963 C 0.40496 0.58458 0.09749 0.0
C964 C 0.4239 0.60385 0.11453 0.0
H965 H 0.37425 0.47721 0.11373 0.0
H966 H 0.36301 0.50369 0.08131 0.0
H967 H 0.37 0.5438 1.06906 0.0
O968 O 0.42843 0.56972 0.20793 0.0
O969 O 0.46387 0.5758 0.12037 0.0
O970 O 0.5041 0.59989 0.10686 0.0
O971 O 0.43816 0.54414 0.22563 0.0
O972 O 0.47522 0.60752 0.20382 0.0
O973 O 0.50516 0.63254 0.16586 0.0
O974 O 0.5572 0.6214 0.12741 0.0
O975 O 0.52061 0.6008 0.22006 0.0
O976 O 0.48398 0.56567 0.2226 0.0
O977 O 0.5454 0.64735 0.1303 0.0
O978 O 0.49962 0.57716 0.15958 0.0
O979 O 0.46906 0.54365 0.15591 0.0
C980 C 0.48129 0.58633 0.09649 0.0
C981 C 0.42285 0.55987 0.26878 0.0
C982 C 0.4136 0.58278 0.31103 0.0
C983 C 0.41862 0.57167 0.33915 0.0
C984 C 0.4275 0.54884 0.29726 0.0
C985 C 0.42537 0.55475 0.33222 0.0
C986 C 0.41558 0.57657 0.27593 0.0
C987 C 0.48899 0.62895 0.1897 0.0
C988 C 0.42511 0.55382 0.23165 0.0
C989 C 0.37779 0.51883 0.09417 0.0
C990 C 0.38174 0.54168 0.08725 0.0
C991 C 0.50569 0.58014 0.23606 0.0
C992 C 0.55963 0.64237 0.07464 0.0
C993 C 0.56654 0.62919 1.01713 0.0
C994 C 0.56122 0.64527 1.00017 0.0
C995 C 0.55444 0.6583 1.05713 0.0
C996 C 0.5657 0.628 1.05446 0.0
C997 C 0.55517 0.65964 1.0201 0.0
C998 C 0.49071 0.55621 0.14534 0.0
C999 C 0.5588 0.64063 0.11382 0.0
H1000 H 0.41779 0.57636 0.36655 0.0
H1001 H 0.43285 0.53573 0.29257 0.0
H1002 H 0.42919 0.54636 0.35405 0.0
H1003 H 0.4114 0.58474 0.25414 0.0
H1004 H 0.5622 0.6472 0.97156 0.0
H1005 H 0.54984 0.66974 0.07199 0.0
H1006 H 0.56957 0.61569 1.06805 0.0
H1007 H 0.55123 0.67201 1.00678 0.0
H1008 H 0.54997 0.1868 0.30413 0.0
H1009 H 0.5526 0.22513 0.29029 0.0
H1010 H 0.48607 0.18809 0.23387 0.0
H1011 H 0.48319 0.15011 0.24813 0.0
H1012 H 0.5553 0.25043 0.23216 0.0
H1013 H 0.47024 0.22767 0.29586 0.0
H1014 H 0.48363 0.20935 0.3008 0.0
H1015 H 0.46621 0.20656 0.26186 0.0
C1016 C 0.53578 0.18676 0.28898 0.0
C1017 C 0.51614 0.16489 0.27789 0.0
C1018 C 0.53733 0.20889 0.28088 0.0
C1019 C 0.51921 0.21009 0.2617 0.0
C1020 C 0.50004 0.18823 0.24973 0.0
H1021 H 0.48775 0.31702 0.17567 0.0
H1022 H 0.49009 0.28206 0.19264 0.0
C1023 C 0.49849 0.16623 0.25776 0.0
C1024 C 0.52011 0.23378 0.25416 0.0
H1025 H 0.48685 0.26166 0.25821 0.0
C1026 C 0.54036 0.25285 0.23832 0.0
C1027 C 0.50087 0.23768 0.26198 0.0
C1028 C 0.47913 0.21934 0.2814 0.0
C1029 C 0.54152 0.27475 0.22926 0.0
C1030 C 0.52198 0.27831 0.23621 0.0
C1031 C 0.50192 0.25938 0.25244 0.0
C1032 C 0.52138 0.30083 0.22565 0.0
C1033 C 0.56346 0.29369 0.2111 0.0
C1034 C 0.53796 0.32383 0.2385 0.0
C1035 C 0.53651 0.34429 0.22895 0.0
C1036 C 0.51851 0.34261 0.20593 0.0
C1037 C 0.50202 0.31955 0.19326 0.0
C1038 C 0.50331 0.29923 0.20308 0.0
H1039 H 0.57491 0.28673 0.20119 0.0
H1040 H 0.5586 0.30133 0.18842 0.0
H1041 H 0.574 0.30827 0.23028 0.0
H1042 H 0.55192 0.326 0.25648 0.0
H1043 H 0.54961 0.36146 0.2395 0.0
H1044 H 0.33372 0.51358 0.65992 0.0
H1045 H 0.29872 0.51636 0.64466 0.0
H1046 H 0.31475 0.51732 0.53337 0.0
H1047 H 0.35105 0.51629 0.54904 0.0
H1048 H 0.29565 0.54238 0.53757 0.0
H1049 H 0.23592 0.46597 0.6198 0.0
H1050 H 0.25803 0.48857 0.64771 0.0
H1051 H 0.26657 0.47441 0.61395 0.0
C1052 C 0.33001 0.51463 0.63211 0.0
C1053 C 0.34557 0.5147 0.60588 0.0
C1054 C 0.30947 0.51579 0.62322 0.0
C1055 C 0.30277 0.51604 0.58752 0.0
C1056 C 0.31878 0.51688 0.56119 0.0
H1057 H 0.153 0.4795 0.54583 0.0
H1058 H 0.19011 0.47947 0.55623 0.0
C1059 C 0.33981 0.51637 0.57019 0.0
C1060 C 0.27949 0.51568 0.57801 0.0
H1061 H 0.22047 0.4906 0.60069 0.0
C1062 C 0.27924 0.53084 0.55135 0.0
C1063 C 0.25729 0.50034 0.59467 0.0
C1064 C 0.25438 0.48123 0.62027 0.0
C1065 C 0.25831 0.53146 0.5417 0.0
C1066 C 0.23651 0.51736 0.56023 0.0
C1067 C 0.23673 0.50191 0.58642 0.0
C1068 C 0.21329 0.51765 0.55251 0.0
C1069 C 0.25989 0.54666 0.51046 0.0
C1070 C 0.21274 0.53894 0.5468 0.0
C1071 C 0.19124 0.53884 0.53952 0.0
C1072 C 0.1691 0.51756 0.53904 0.0
C1073 C 0.16946 0.49636 0.54587 0.0
C1074 C 0.191 0.49637 0.55204 0.0
H1075 H 0.27414 0.54899 0.49184 0.0
H1076 H 0.24292 0.53879 0.49541 0.0
H1077 H 0.26439 0.56459 0.52016 0.0
H1078 H 0.22894 0.55592 0.54845 0.0
H1079 H 0.19193 0.55564 0.53501 0.0
H1080 H 0.83344 0.3479 0.88816 0.0
H1081 H 0.79636 0.31146 0.87293 0.0
H1082 H 0.77811 0.29985 0.98401 0.0
H1083 H 0.81577 0.33555 0.99914 0.0
H1084 H 0.7656 0.25968 0.96001 0.0
H1085 H 0.73086 0.29566 0.85891 0.0
H1086 H 0.75928 0.30009 0.84607 0.0
H1087 H 0.75668 0.31471 0.88529 0.0
C1088 C 0.82139 0.33776 0.90934 0.0
C1089 C 0.8279 0.34495 0.945 0.0
C1090 C 0.79983 0.31675 0.90056 0.0
C1091 C 0.78346 0.30238 0.92699 0.0
C1092 C 0.7899 0.31002 0.96261 0.0
H1093 H 0.63528 0.18868 0.87368 0.0
H1094 H 0.67179 0.22606 0.88778 0.0
C1095 C 0.8116 0.33074 0.97138 0.0
C1096 C 0.76033 0.27911 0.91819 0.0
H1097 H 0.71174 0.25336 0.86211 0.0
C1098 C 0.75387 0.25856 0.93865 0.0
C1099 C 0.74415 0.27689 0.89077 0.0
C1100 C 0.74793 0.29807 0.86929 0.0
C1101 C 0.73257 0.23655 0.93264 0.0
C1102 C 0.71701 0.23393 0.90398 0.0
C1103 C 0.72332 0.25457 0.88376 0.0
C1104 C 0.69412 0.2104 0.89511 0.0
C1105 C 0.72667 0.21665 0.95846 0.0
C1106 C 0.69356 0.18833 0.89365 0.0
C1107 C 0.67233 0.16668 0.88642 0.0
C1108 C 0.65072 0.16606 0.87906 0.0
C1109 C 0.65133 0.18812 0.87927 0.0
C1110 C 0.67249 0.20975 0.8873 0.0
H1111 H 0.73509 0.22364 0.98481 0.0
H1112 H 0.70723 0.20545 0.96239 0.0
H1113 H 0.73369 0.20535 0.94815 0.0
H1114 H 0.7097 0.18771 0.89774 0.0
H1115 H 0.673 0.15035 0.88593 0.0
H1116 H 0.46385 0.63482 0.24576 0.0
H1117 H 0.46198 0.67073 0.26234 0.0
H1118 H 0.50754 0.70837 0.17454 0.0
H1119 H 0.50922 0.67295 0.15785 0.0
H1120 H 0.52226 0.73611 0.23422 0.0
H1121 H 0.42592 0.70115 0.21661 0.0
H1122 H 0.43298 0.68399 0.24631 0.0
H1123 H 0.4406 0.68566 0.20017 0.0
C1124 C 0.47319 0.65062 0.22969 0.0
C1125 C 0.48664 0.65049 0.2003 0.0
C1126 C 0.47209 0.67132 0.23917 0.0
C1127 C 0.48441 0.69272 0.21965 0.0
C1128 C 0.49777 0.69248 0.19037 0.0
H1129 H 0.46885 0.8223 0.22894 0.0
H1130 H 0.46657 0.78435 0.21254 0.0
C1131 C 0.4987 0.6719 0.18078 0.0
C1132 C 0.48424 0.71554 0.22981 0.0
H1133 H 0.44807 0.73971 0.24222 0.0
C1134 C 0.50594 0.73671 0.23604 0.0
C1135 C 0.4632 0.71712 0.23156 0.0
C1136 C 0.43934 0.69588 0.22297 0.0
C1137 C 0.50717 0.7587 0.2444 0.0
C1138 C 0.48608 0.76013 0.24742 0.0
C1139 C 0.46438 0.73907 0.2405 0.0
C1140 C 0.4864 0.78314 0.258 0.0
C1141 C 0.53137 0.78045 0.24895 0.0
C1142 C 0.49764 0.7954 0.28958 0.0
C1143 C 0.49893 0.81711 0.29901 0.0
C1144 C 0.48901 0.82776 0.27739 0.0
C1145 C 0.47695 0.8151 0.24634 0.0
C1146 C 0.47563 0.7932 0.23689 0.0
H1147 H 0.54531 0.77833 0.2352 0.0
H1148 H 0.53171 0.79659 0.23849 0.0
H1149 H 0.53597 0.78327 0.27764 0.0
H1150 H 0.50553 0.78815 0.30729 0.0
H1151 H 0.50798 0.8257 0.32351 0.0
H1152 H 0.67282 0.51545 0.58696 0.0
H1153 H 0.70864 0.51418 0.57075 0.0
H1154 H 0.67354 0.43974 0.59669 0.0
H1155 H 0.63753 0.44099 0.61307 0.0
H1156 H 0.73892 0.50472 0.60793 0.0
H1157 H 0.69981 0.43802 0.49968 0.0
H1158 H 0.68435 0.45191 0.51901 0.0
H1159 H 0.685 0.42789 0.54157 0.0
C1160 C 0.67252 0.49869 0.58912 0.0
C1161 C 0.65184 0.47832 0.60142 0.0
C1162 C 0.69329 0.498 0.57986 0.0
C1163 C 0.6943 0.47681 0.58177 0.0
C1164 C 0.67362 0.45637 0.5941 0.0
H1165 H 0.82996 0.47346 0.58095 0.0
H1166 H 0.79299 0.47237 0.59689 0.0
C1167 C 0.65287 0.45713 0.60384 0.0
C1168 C 0.71701 0.47646 0.57161 0.0
H1169 H 0.73932 0.44967 0.51669 0.0
C1170 C 0.73883 0.49258 0.58798 0.0
C1171 C 0.71765 0.46103 0.54516 0.0
C1172 C 0.69553 0.44388 0.52502 0.0
C1173 C 0.76058 0.49342 0.57938 0.0
C1174 C 0.76115 0.47762 0.55352 0.0
C1175 C 0.73939 0.46177 0.53668 0.0
C1176 C 0.78397 0.47745 0.54345 0.0
C1177 C 0.78295 0.51182 0.59773 0.0
C1178 C 0.79178 0.48002 0.50783 0.0
C1179 C 0.81302 0.48015 0.49854 0.0
C1180 C 0.82723 0.47736 0.52438 0.0
C1181 C 0.81939 0.4748 0.55993 0.0
C1182 C 0.79822 0.47469 0.56924 0.0
H1183 H 0.7812 0.52701 0.60767 0.0
H1184 H 0.78656 0.50358 0.62093 0.0
H1185 H 0.79842 0.51877 0.57965 0.0
H1186 H 0.78156 0.48225 0.487 0.0
H1187 H 0.8183 0.48242 0.4709 0.0
H1188 H 0.35258 0.83426 0.92137 0.0
H1189 H 0.31565 0.79789 0.93772 0.0
H1190 H 0.29872 0.78116 0.8269 0.0
H1191 H 0.33542 0.81758 0.81059 0.0
H1192 H 0.26509 0.78238 0.91657 0.0
H1193 H 0.29243 0.71843 0.87012 0.0
H1194 H 0.31377 0.74921 0.87973 0.0
H1195 H 0.29655 0.74138 0.8395 0.0
C1196 C 0.34116 0.82277 0.90042 0.0
C1197 C 0.3475 0.82907 0.86452 0.0
C1198 C 0.31979 0.80186 0.90983 0.0
C1199 C 0.30405 0.78613 0.88374 0.0
C1200 C 0.31037 0.79245 0.84788 0.0
H1201 H 0.1725 0.64365 0.88767 0.0
H1202 H 0.20906 0.68041 0.87201 0.0
C1203 C 0.33153 0.81349 0.8385 0.0
C1204 C 0.2811 0.76342 0.89378 0.0
H1205 H 0.25322 0.70229 0.89072 0.0
C1206 C 0.26258 0.76488 0.91086 0.0
C1207 C 0.27716 0.74025 0.88621 0.0
C1208 C 0.29601 0.737 0.8681 0.0
C1209 C 0.24056 0.74433 0.9197 0.0
C1210 C 0.23674 0.72101 0.9129 0.0
C1211 C 0.25545 0.71968 0.896 0.0
C1212 C 0.21374 0.698 0.92282 0.0
C1213 C 0.22129 0.7481 0.93507 0.0
C1214 C 0.20346 0.69456 0.95694 0.0
C1215 C 0.18214 0.67352 0.96579 0.0
C1216 C 0.17028 0.65454 0.9413 0.0
C1217 C 0.18083 0.6576 0.9075 0.0
C1218 C 0.20201 0.67885 0.89847 0.0
H1219 H 0.22362 0.76562 0.92725 0.0
H1220 H 0.20341 0.73401 0.92628 0.0
H1221 H 0.22218 0.74789 0.96452 0.0
H1222 H 0.21203 0.70812 0.9772 0.0
H1223 H 0.17503 0.67204 0.99227 0.0
H1224 H 0.5884 0.24676 0.9321 0.0
H1225 H 0.59826 0.27306 0.98401 0.0
H1226 H 0.59411 0.2175 1.0511 0.0
H1227 H 0.58267 0.19071 1.00071 0.0
H1228 H 0.56381 0.25485 1.04983 0.0
H1229 H 0.65745 0.2836 0.07968 0.0
H1230 H 0.64558 0.27826 1.03484 0.0
H1231 H 0.64169 0.25384 1.06209 0.0
C1232 C 0.58961 0.2401 0.95788 0.0
C1233 C 0.58445 0.21636 0.962 0.0
C1234 C 0.59552 0.25531 0.98738 0.0
C1235 C 0.59709 0.24723 1.02116 0.0
C1236 C 0.59335 0.22415 1.02502 0.0
H1237 H 0.56182 0.18882 0.17665 0.0
H1238 H 0.56148 0.21545 0.13336 0.0
C1239 C 0.58696 0.20885 0.99593 0.0
C1240 C 0.5995 0.26096 1.05377 0.0
H1241 H 0.63023 0.27035 0.13078 0.0
C1242 C 0.57877 0.25955 1.06741 0.0
C1243 C 0.61921 0.26791 0.07642 0.0
C1244 C 0.64237 0.27126 1.0624 0.0
C1245 C 0.57568 0.26005 0.10425 0.0
C1246 C 0.59362 0.26166 0.12726 0.0
C1247 C 0.61611 0.2684 0.11321 0.0
C1248 C 0.58725 0.24764 0.16043 0.0
C1249 C 0.55203 0.25531 0.11823 0.0
C1250 C 0.60084 0.25675 0.1915 0.0
C1251 C 0.60065 0.24124 0.21746 0.0
C1252 C 0.58759 0.21638 0.212 0.0
C1253 C 0.57211 0.20762 0.18257 0.0
C1254 C 0.5718 0.22305 0.15739 0.0
H1255 H 0.54553 0.26542 0.10263 0.0
H1256 H 0.53882 0.23613 0.11506 0.0
H1257 H 0.55308 0.26022 0.14675 0.0
H1258 H 0.61289 0.27569 0.19442 0.0
H1259 H 0.612 0.24882 0.2405 0.0
H1260 H 0.42754 0.62448 0.27477 0.0
H1261 H 0.42404 0.6584 0.29486 0.0
H1262 H 0.38246 0.61746 0.38419 0.0
H1263 H 0.38516 0.58351 0.36378 0.0
H1264 H 0.37205 0.65421 0.36628 0.0
H1265 H 0.46967 0.69597 0.37162 0.0
H1266 H 0.45321 0.68859 0.33044 0.0
H1267 H 0.45533 0.66594 0.35504 0.0
C1268 C 0.4171 0.62251 0.29815 0.0
C1269 C 0.40747 0.60158 0.31855 0.0
C1270 C 0.41511 0.64199 0.30955 0.0
C1271 C 0.40363 0.6409 0.34158 0.0
C1272 C 0.39166 0.61904 0.35953 0.0
H1273 H 0.37884 0.59358 0.47161 0.0
H1274 H 0.37485 0.625 0.44528 0.0
C1275 C 0.39356 0.59963 0.34817 0.0
C1276 C 0.40853 0.6627 0.36153 0.0
H1277 H 0.44941 0.68596 0.4274 0.0
C1278 C 0.38928 0.66226 0.3792 0.0
C1279 C 0.43126 0.67614 0.37734 0.0
C1280 C 0.45367 0.68208 0.35751 0.0
C1281 C 0.39089 0.66697 0.41591 0.0
C1282 C 0.41148 0.67053 0.43412 0.0
C1283 C 0.43253 0.68 0.41419 0.0
C1284 C 0.40922 0.65386 0.46323 0.0
C1285 C 0.36941 0.6638 0.43566 0.0
C1286 C 0.42884 0.65896 0.48513 0.0
C1287 C 0.43128 0.64046 0.4997 0.0
C1288 C 0.41395 0.61666 0.49307 0.0
C1289 C 0.39284 0.61178 0.47601 0.0
C1290 C 0.39042 0.6301 0.46144 0.0
H1291 H 0.36442 0.67674 0.42547 0.0
H1292 H 0.35406 0.64576 0.43055 0.0
H1293 H 0.37276 0.66661 0.46473 0.0
H1294 H 0.44341 0.67702 0.48796 0.0
H1295 H 0.44758 0.64473 0.5135 0.0
H1296 H 0.78177 0.43595 0.89729 0.0
H1297 H 0.75754 0.41404 0.84503 0.0
H1298 H 0.82163 0.43273 0.78693 0.0
H1299 H 0.84552 0.45542 0.83722 0.0
H1300 H 0.7825 0.4432 0.75611 0.0
H1301 H 0.74453 0.35118 0.78891 0.0
H1302 H 0.75397 0.37311 0.82399 0.0
H1303 H 0.77358 0.36286 0.80713 0.0
C1304 C 0.79057 0.43557 0.87308 0.0
C1305 C 0.81558 0.4474 0.87135 0.0
C1306 C 0.77672 0.42282 0.84357 0.0
C1307 C 0.78782 0.42164 0.81235 0.0
C1308 C 0.8127 0.43333 0.81089 0.0
H1309 H 0.86606 0.42252 0.69371 0.0
H1310 H 0.83458 0.42502 0.72506 0.0
C1311 C 0.82638 0.44625 0.83977 0.0
C1312 C 0.77477 0.40998 0.77939 0.0
H1313 H 0.77567 0.36468 0.73537 0.0
C1314 C 0.77966 0.42552 0.75085 0.0
C1315 C 0.76953 0.38652 0.77206 0.0
C1316 C 0.75987 0.36755 0.79997 0.0
C1317 C 0.78705 0.42097 0.71829 0.0
C1318 C 0.78768 0.39962 0.714 0.0
C1319 C 0.77631 0.38156 0.7392 0.0
C1320 C 0.80612 0.39889 0.69199 0.0
C1321 C 0.79721 0.44041 0.69106 0.0
C1322 C 0.80046 0.38267 0.66382 0.0
C1323 C 0.81858 0.38129 0.64565 0.0
C1324 C 0.84242 0.39546 0.65643 0.0
C1325 C 0.84783 0.41115 0.68523 0.0
C1326 C 0.8299 0.41288 0.70273 0.0
H1327 H 0.79117 0.45349 0.69528 0.0
H1328 H 0.81687 0.45006 0.69294 0.0
H1329 H 0.79178 0.43278 0.66411 0.0
H1330 H 0.78215 0.37134 0.65572 0.0
H1331 H 0.81404 0.36922 0.62328 0.0
H1332 H 0.39547 0.88024 0.96286 0.0
H1333 H 0.3538 0.8549 0.97952 0.0
H1334 H 0.37503 0.82364 1.06229 0.0
H1335 H 0.41674 0.8487 1.04563 0.0
H1336 H 0.33058 0.79051 1.00521 0.0
H1337 H 0.32498 0.86057 0.08159 0.0
H1338 H 0.33787 0.86535 1.03766 0.0
H1339 H 0.35477 0.86595 0.07585 0.0
C1340 C 0.39126 0.86797 0.98464 0.0
C1341 C 0.40937 0.86639 1.00295 0.0
C1342 C 0.36746 0.85347 0.99387 0.0
C1343 C 0.36143 0.83714 1.02144 0.0
C1344 C 0.37944 0.83591 1.04037 0.0
H1345 H 0.37495 0.78574 0.12002 0.0
H1346 H 0.33908 0.77103 0.08629 0.0
C1347 C 0.40324 0.85046 1.03128 0.0
C1348 C 0.33671 0.82227 1.03319 0.0
H1349 H 0.30882 0.8223 0.10899 0.0
C1350 C 0.3256 0.79759 1.02766 0.0
C1351 C 0.32777 0.83096 1.05985 0.0
C1352 C 0.33669 0.85717 1.064 0.0
C1353 C 0.31062 0.78219 1.05409 0.0
C1354 C 0.31072 0.79229 0.0875 0.0
C1355 C 0.3131 0.81509 0.08602 0.0
C1356 C 0.32437 0.78915 0.1174 0.0
C1357 C 0.29892 0.75571 1.04903 0.0
C1358 C 0.32737 0.80129 0.14987 0.0
C1359 C 0.34891 0.81084 0.16838 0.0
C1360 C 0.36719 0.80707 0.156 0.0
C1361 C 0.36187 0.79031 0.1288 0.0
C1362 C 0.34071 0.7814 0.10972 0.0
H1363 H 0.28438 0.75001 1.02921 0.0
H1364 H 0.31173 0.75077 1.03807 0.0
H1365 H 0.29133 0.74604 0.07426 0.0
H1366 H 0.31457 0.80628 0.15839 0.0
H1367 H 0.35189 0.82301 0.19009 0.0
H1368 H 0.66662 0.48129 0.2998 0.0
H1369 H 0.67797 0.46262 0.34528 0.0
H1370 H 0.66191 0.4041 0.27378 0.0
H1371 H 0.64845 0.42222 0.22912 0.0
H1372 H 0.63897 0.38581 0.32539 0.0
H1373 H 0.71575 0.45361 0.34359 0.0
H1374 H 0.72263 0.44749 0.38748 0.0
H1375 H 0.70895 0.46527 0.38294 0.0
C1376 C 0.66641 0.4649 0.29341 0.0
C1377 C 0.65661 0.45306 0.26131 0.0
C1378 C 0.67329 0.45427 0.31933 0.0
C1379 C 0.67112 0.43185 0.31327 0.0
C1380 C 0.66372 0.42131 0.27939 0.0
H1381 H 0.64308 0.38981 0.53499 0.0
H1382 H 0.66488 0.39123 0.48061 0.0
C1383 C 0.65608 0.43163 0.25382 0.0
C1384 C 0.67039 0.41742 0.34448 0.0
H1385 H 0.68679 0.42822 0.43167 0.0
C1386 C 0.65023 0.39473 0.34814 0.0
C1387 C 0.6854 0.42784 0.37443 0.0
C1388 C 0.70953 0.44978 0.37153 0.0
C1389 C 0.64229 0.38483 0.38176 0.0
C1390 C 0.65433 0.3983 0.41217 0.0
C1391 C 0.67688 0.41844 0.40829 0.0
C1392 C 0.6411 0.39569 0.44533 0.0
C1393 C 0.61952 0.36134 0.38456 0.0
C1394 C 0.62092 0.3982 0.44343 0.0
C1395 C 0.60868 0.39752 0.474 0.0
C1396 C 0.61647 0.39459 0.50738 0.0
C1397 C 0.63667 0.39198 0.50948 0.0
C1398 C 0.64909 0.39277 0.47858 0.0
H1399 H 0.61827 0.34917 0.36275 0.0
H1400 H 0.61819 0.35265 0.41049 0.0
H1401 H 0.60419 0.36428 0.38173 0.0
H1402 H 0.6148 0.40113 0.41816 0.0
H1403 H 0.59302 0.39924 0.47145 0.0
H1404 H 0.20678 0.63651 0.86571 0.0
H1405 H 0.24027 0.67352 0.84504 0.0
H1406 H 0.23686 0.64056 0.7438 0.0
H1407 H 0.20506 0.60311 0.76519 0.0
H1408 H 0.28166 0.6804 0.75248 0.0
H1409 H 0.23727 0.70528 0.82307 0.0
H1410 H 0.20972 0.68225 0.80403 0.0
H1411 H 0.22122 0.71272 0.79146 0.0
C1412 C 0.21368 0.63679 0.83947 0.0
C1413 C 0.20237 0.61692 0.8165 0.0
C1414 C 0.23284 0.65822 0.82761 0.0
C1415 C 0.24051 0.66043 0.79232 0.0
C1416 C 0.2312 0.63976 0.77105 0.0
H1417 H 0.20349 0.6208 0.65108 0.0
H1418 H 0.23852 0.65136 0.67978 0.0
C1419 C 0.2125 0.61826 0.78307 0.0
C1420 C 0.25288 0.68392 0.77425 0.0
H1421 H 0.22177 0.70436 0.72926 0.0
C1422 C 0.26937 0.68682 0.74781 0.0
C1423 C 0.23972 0.69565 0.76898 0.0
C1424 C 0.22627 0.69924 0.79859 0.0
C1425 C 0.26595 0.69222 0.71292 0.0
C1426 C 0.24544 0.69382 0.70557 0.0
C1427 C 0.23566 0.70012 0.734 0.0
C1428 C 0.2285 0.67872 0.67703 0.0
C1429 C 0.28176 0.6923 0.6837 0.0
C1430 C 0.21077 0.68334 0.66444 0.0
C1431 C 0.18994 0.66514 0.6489 0.0
C1432 C 0.18681 0.64224 0.64472 0.0
C1433 C 0.20543 0.6383 0.65391 0.0
C1434 C 0.22589 0.65619 0.66996 0.0
H1435 H 0.30043 0.70592 0.68978 0.0
H1436 H 0.28106 0.67487 0.68253 0.0
H1437 H 0.27675 0.69625 0.65742 0.0
H1438 H 0.2122 0.70048 0.66898 0.0
H1439 H 0.17598 0.66873 0.64128 0.0
H1440 H 0.39209 0.94269 0.94116 0.0
H1441 H 0.40346 0.96684 0.9961 0.0
H1442 H 0.46033 0.95228 1.01284 0.0
H1443 H 0.44907 0.92838 0.95816 0.0
H1444 H 0.40626 0.96106 1.06811 0.0
H1445 H 0.49748 0.02293 1.0273 0.0
H1446 H 0.47704 1.00001 0.99768 0.0
H1447 H 0.49314 0.99343 1.03059 0.0
C1448 C 0.40704 0.94444 0.95633 0.0
C1449 C 0.41923 0.93271 0.94388 0.0
C1450 C 0.41367 0.95854 0.98849 0.0
C1451 C 0.43332 0.96245 1.01015 0.0
C1452 C 0.4454 0.95061 0.99772 0.0
H1453 H 0.51062 0.05291 0.20439 0.0
H1454 H 0.49734 0.02769 0.15118 0.0
C1455 C 0.4386 0.93633 0.96589 0.0
C1456 C 0.44103 0.97849 1.04495 0.0
H1457 H 0.48913 0.02519 0.0883 0.0
C1458 C 0.42445 0.97514 0.07206 0.0
C1459 C 0.46474 0.99726 1.05224 0.0
C1460 C 0.48408 0.00376 1.02527 0.0
C1461 C 0.43064 0.98875 0.10485 0.0
C1462 C 0.45437 0.00787 0.11197 0.0
C1463 C 0.4709 0.01113 0.0847 0.0
C1464 C 0.46254 0.02417 0.14679 0.0
C1465 C 0.41138 0.98131 0.13227 0.0
C1466 C 0.44847 0.03233 0.16441 0.0
C1467 C 0.45613 0.0469 0.19606 0.0
C1468 C 0.47874 0.05505 0.21214 0.0
C1469 C 0.49306 0.04745 0.19415 0.0
C1470 C 0.48527 0.03265 0.16281 0.0
H1471 H 0.39756 0.96232 0.12899 0.0
H1472 H 0.41862 0.98388 0.15967 0.0
H1473 H 0.40251 0.992 0.12889 0.0
H1474 H 0.43138 0.02789 0.15347 0.0
H1475 H 0.44417 0.052 0.20775 0.0
H1476 H 0.52168 0.44212 0.29538 0.0
H1477 H 0.50843 0.45402 0.34887 0.0
H1478 H 0.43633 0.41489 0.31158 0.0
H1479 H 0.44956 0.40277 0.25819 0.0
H1480 H 0.44444 0.45835 0.34244 0.0
H1481 H 0.47779 0.41873 0.44028 0.0
H1482 H 0.5 0.4391 0.41017 0.0
H1483 H 0.47574 0.41168 0.39347 0.0
C1484 C 0.50289 0.43572 0.29824 0.0
C1485 C 0.48705 0.42084 0.27107 0.0
C1486 C 0.49511 0.44261 0.32972 0.0
C1487 C 0.47088 0.43549 0.33634 0.0
C1488 C 0.45508 0.421 0.30884 0.0
H1489 H 0.40494 0.44327 0.54754 0.0
H1490 H 0.41829 0.43121 0.49419 0.0
C1491 C 0.46282 0.41375 0.27764 0.0
C1492 C 0.46227 0.44314 0.37094 0.0
H1493 H 0.46291 0.4426 0.46364 0.0
C1494 C 0.44867 0.45476 0.36874 0.0
C1495 C 0.46705 0.43896 0.40666 0.0
C1496 C 0.48076 0.42627 0.41308 0.0
C1497 C 0.44054 0.46224 0.39942 0.0
C1498 C 0.44544 0.45818 0.43513 0.0
C1499 C 0.4587 0.44622 0.43733 0.0
C1500 C 0.43695 0.46593 0.46975 0.0
C1501 C 0.42617 0.47424 0.39304 0.0
C1502 C 0.44249 0.48975 0.47656 0.0
C1503 C 0.43514 0.49686 0.50821 0.0
C1504 C 0.42105 0.48062 0.53526 0.0
C1505 C 0.41536 0.45675 0.52835 0.0
C1506 C 0.42327 0.44972 0.4971 0.0
H1507 H 0.41862 0.47082 0.36573 0.0
H1508 H 0.41144 0.46815 0.41245 0.0
H1509 H 0.4378 0.49374 0.39636 0.0
H1510 H 0.45299 0.50332 0.45744 0.0
H1511 H 0.44065 0.51546 0.51132 0.0
H1512 H 0.06926 0.52199 0.62301 0.0
H1513 H 0.044 0.50878 0.67628 0.0
H1514 H 0.02404 0.43635 0.65229 0.0
H1515 H 0.04945 0.44954 0.59964 0.0
H1516 H 0.00029 0.48501 0.69605 0.0
H1517 H 0.03376 0.42931 0.75253 0.0
H1518 H 0.04783 0.44829 0.71496 0.0
H1519 H 0.02185 0.41939 0.70882 0.0
C1520 C 0.05973 0.50318 0.62891 0.0
C1521 C 0.06237 0.48724 0.60571 0.0
C1522 C 0.04489 0.49542 0.66011 0.0
C1523 C 0.03171 0.47115 0.67082 0.0
C1524 C 0.03408 0.45523 0.64719 0.0
H1525 H 0.92936 0.38806 0.85156 0.0
H1526 H 0.9552 0.40129 0.79887 0.0
C1527 C 0.04885 0.46296 0.61603 0.0
C1528 C 0.01543 0.46271 0.70534 0.0
H1529 H 0.99872 0.42515 0.77876 0.0
C1530 C 0.00033 0.47199 0.71394 0.0
C1531 C 0.01435 0.44552 0.7304 0.0
C1532 C 0.03046 0.43521 0.72652 0.0
C1533 C 0.98458 0.46452 0.74428 0.0
C1534 C 0.98348 0.44736 0.76937 0.0
C1535 C 0.99865 0.43813 0.76083 0.0
C1536 C 0.96703 0.43886 0.80373 0.0
C1537 C 0.96833 0.47464 0.74793 0.0
C1538 C 0.96411 0.45469 0.82681 0.0
C1539 C 0.94899 0.4469 0.85759 0.0
C1540 C 0.93589 0.4227 0.86835 0.0
C1541 C 0.93899 0.40684 0.84569 0.0
C1542 C 0.95405 0.41462 0.81471 0.0
H1543 H 0.96539 0.48069 0.72191 0.0
H1544 H 0.95082 0.46139 0.75888 0.0
H1545 H 0.97667 0.49027 0.76596 0.0
H1546 H 0.97396 0.47356 0.8216 0.0
H1547 H 0.94789 0.46025 0.87348 0.0
H1548 H 0.55004 0.93561 0.19853 0.0
H1549 H 0.5621 0.96082 0.14519 0.0
H1550 H 0.49611 0.96093 0.14722 0.0
H1551 H 0.48413 0.93593 0.20055 0.0
H1552 H 0.54538 0.95716 0.07469 0.0
H1553 H 0.53875 0.03153 0.13451 0.0
H1554 H 0.5404 0.00939 0.16136 0.0
H1555 H 0.51309 0.00252 0.13962 0.0
C1556 C 0.53798 0.94103 0.18815 0.0
C1557 C 0.51588 0.93322 0.20564 0.0
C1558 C 0.54499 0.9557 0.15678 0.0
C1559 C 0.53064 0.96403 0.14082 0.0
C1560 C 0.50844 0.95599 0.15809 0.0
H1561 H 0.54845 0.06582 0.96072 0.0
H1562 H 0.53687 0.04027 1.01327 0.0
C1563 C 0.50132 0.94112 0.18917 0.0
C1564 C 0.53859 0.98054 0.10668 0.0
H1565 H 0.54678 0.03406 0.07336 0.0
C1566 C 0.54573 0.97402 0.07489 0.0
C1567 C 0.53918 0.00288 0.10472 0.0
C1568 C 0.53267 0.01228 0.13683 0.0
C1569 C 0.5525 0.98808 1.04271 0.0
C1570 C 0.55372 0.01082 1.04093 0.0
C1571 C 0.54647 0.01723 0.07287 0.0
C1572 C 0.56183 0.02771 1.00697 0.0
C1573 C 0.55709 0.97734 1.01023 0.0
C1574 C 0.58082 0.03129 0.98404 0.0
C1575 C 0.58773 0.04639 0.95319 0.0
C1576 C 0.57647 0.05947 0.943 0.0
C1577 C 0.55791 0.05642 0.96627 0.0
C1578 C 0.55103 0.04132 0.9971 0.0
H1579 H 0.54747 0.95761 1.0116 0.0
H1580 H 0.55146 0.9825 0.98555 0.0
H1581 H 0.57633 0.98346 1.00866 0.0
H1582 H 0.59095 0.02269 0.9901 0.0
H1583 H 0.60219 0.0478 0.9372 0.0
H1584 H 0.54476 0.47638 0.52437 0.0
H1585 H 0.53262 0.48918 0.47067 0.0
H1586 H 0.59167 0.55994 0.48476 0.0
H1587 H 0.60382 0.54713 0.53815 0.0
H1588 H 0.51632 0.51694 0.45055 0.0
H1589 H 0.60264 0.55842 0.38253 0.0
H1590 H 0.59733 0.54104 0.42222 0.0
H1591 H 0.60469 0.5717 0.4252 0.0
C1592 C 0.55547 0.49473 0.51624 0.0
C1593 C 0.57583 0.51029 0.53695 0.0
C1594 C 0.54831 0.50224 0.48478 0.0
C1595 C 0.56112 0.52583 0.47118 0.0
C1596 C 0.58129 0.54146 0.49225 0.0
H1597 H 0.54663 0.60523 0.28031 0.0
H1598 H 0.55888 0.59252 0.3339 0.0
C1599 C 0.58835 0.53398 0.5238 0.0
C1600 C 0.55318 0.53392 0.43629 0.0
H1601 H 0.57342 0.56557 0.3572 0.0
C1602 C 0.52909 0.52748 0.43032 0.0
C1603 C 0.56892 0.54796 0.40827 0.0
C1604 C 0.59478 0.55501 0.40955 0.0
C1605 C 0.52084 0.53481 0.39968 0.0
C1606 C 0.53653 0.54874 0.37149 0.0
C1607 C 0.56064 0.5551 0.37744 0.0
C1608 C 0.52857 0.55684 0.33657 0.0
C1609 C 0.49512 0.52823 0.39917 0.0
C1610 C 0.50732 0.54178 0.3172 0.0
C1611 C 0.50008 0.5493 0.28593 0.0
C1612 C 0.51368 0.57237 0.27091 0.0
C1613 C 0.53517 0.58734 0.28973 0.0
C1614 C 0.54235 0.57986 0.32121 0.0
H1615 H 0.48811 0.52618 0.42656 0.0
H1616 H 0.49247 0.54186 0.38558 0.0
H1617 H 0.48459 0.51092 0.38525 0.0
H1618 H 0.49611 0.52365 0.32582 0.0
H1619 H 0.48361 0.53659 0.27311 0.0
H1620 H 0.07345 0.54667 0.85022 0.0
H1621 H 0.04764 0.53319 0.79745 0.0
H1622 H 0.02098 0.5798 0.82501 0.0
H1623 H 0.04646 0.59291 0.87812 0.0
H1624 H 0.9841 0.54172 0.79836 0.0
H1625 H 0.05338 0.55748 0.70035 0.0
H1626 H 0.05091 0.53714 0.73438 0.0
H1627 H 0.0607 0.56768 0.74571 0.0
C1628 C 0.06232 0.55438 0.84529 0.0
C1629 C 0.06309 0.57158 0.86974 0.0
C1630 C 0.04732 0.54663 0.81412 0.0
C1631 C 0.03187 0.55545 0.80486 0.0
C1632 C 0.03231 0.5723 0.82971 0.0
H1633 H 0.96225 0.54132 0.58802 0.0
H1634 H 0.988 0.55375 0.64114 0.0
C1635 C 0.04741 0.58014 0.86076 0.0
C1636 C 0.01525 0.54707 0.77056 0.0
H1637 H 0.01369 0.53681 0.67926 0.0
C1638 C 0.99095 0.54082 0.77252 0.0
C1639 C 0.02292 0.54547 0.73534 0.0
C1640 C 0.04842 0.55249 0.72856 0.0
C1641 C 0.97493 0.53302 0.74231 0.0
C1642 C 0.98255 0.53116 0.70728 0.0
C1643 C 0.00691 0.53778 0.70513 0.0
C1644 C 0.9659 0.52285 0.67313 0.0
C1645 C 0.94965 0.527 0.74841 0.0
C1646 C 0.94405 0.50086 0.67085 0.0
C1647 C 0.92931 0.49329 0.63944 0.0
C1648 C 0.93491 0.50744 0.60828 0.0
C1649 C 0.95658 0.52953 0.61068 0.0
C1650 C 0.97168 0.53678 0.6417 0.0
H1651 H 0.9478 0.53503 0.77346 0.0
H1652 H 0.94301 0.53316 0.72598 0.0
H1653 H 0.93826 0.50741 0.75044 0.0
H1654 H 0.93824 0.48906 0.69342 0.0
H1655 H 0.91314 0.47617 0.63984 0.0
H1656 H 0.48391 0.06036 0.41134 0.0
H1657 H 0.49945 0.04837 0.46061 0.0
H1658 H 0.53441 0.02529 0.38609 0.0
H1659 H 0.51924 0.03785 0.33696 0.0
H1660 H 0.49166 0.00921 0.48289 0.0
H1661 H 0.58446 0.04832 0.46065 0.0
H1662 H 0.56914 0.06345 0.44502 0.0
H1663 H 0.57464 0.04461 0.41547 0.0
C1664 C 0.49525 0.0531 0.40526 0.0
C1665 C 0.50151 0.05135 0.36987 0.0
C1666 C 0.50433 0.04646 0.43378 0.0
C1667 C 0.51931 0.0372 0.42762 0.0
C1668 C 0.52432 0.03399 0.39213 0.0
H1669 H 0.47045 0.94595 0.36054 0.0
H1670 H 0.48122 0.96785 0.41606 0.0
C1671 C 0.51549 0.04097 0.36369 0.0
C1672 C 0.52597 0.02647 0.45698 0.0
H1673 H 0.5592 0.00122 0.44062 0.0
C1674 C 0.50701 0.00784 0.47534 0.0
C1675 C 0.54697 0.02537 0.45344 0.0
C1676 C 0.57004 0.04684 0.44307 0.0
C1677 C 0.50534 0.98547 0.47582 0.0
C1678 C 0.522 0.98264 0.45554 0.0
C1679 C 0.54469 0.00279 0.45173 0.0
C1680 C 0.51333 0.96581 0.4249 0.0
C1681 C 0.48362 0.96438 0.49085 0.0
C1682 C 0.52808 0.95842 0.40943 0.0
C1683 C 0.52253 0.94726 0.37632 0.0
C1684 C 0.50173 0.94224 0.35821 0.0
C1685 C 0.48676 0.9495 0.37362 0.0
C1686 C 0.4926 0.96137 0.40629 0.0
H1687 H 0.48197 0.96769 0.51941 0.0
H1688 H 0.46743 0.96205 0.47723 0.0
H1689 H 0.48449 0.94778 0.48824 0.0
H1690 H 0.54436 0.96205 0.42244 0.0
H1691 H 0.53433 0.94215 0.36524 0.0
H1692 H 0.40726 0.46278 0.69089 0.0
H1693 H 0.41635 0.44964 0.74592 0.0
H1694 H 0.48788 0.50877 0.73975 0.0
H1695 H 0.47779 0.52223 0.68588 0.0
H1696 H 0.43906 0.43145 0.7593 0.0
H1697 H 0.48679 0.5064 0.84386 0.0
H1698 H 0.46425 0.50533 0.81434 0.0
H1699 H 0.49536 0.52136 0.80211 0.0
C1700 C 0.42458 0.47288 0.70148 0.0
C1701 C 0.44142 0.49319 0.68377 0.0
C1702 C 0.42976 0.46571 0.73343 0.0
C1703 C 0.45242 0.47854 0.74832 0.0
C1704 C 0.46973 0.49893 0.73031 0.0
H1705 H 0.5178 0.46915 0.65832 0.0
H1706 H 0.48919 0.45337 0.70607 0.0
C1707 C 0.46421 0.50627 0.69862 0.0
C1708 C 0.45955 0.46805 0.7775 0.0
H1709 H 0.51596 0.49438 0.80692 0.0
C1710 C 0.45551 0.44494 0.7713 0.0
C1711 C 0.47923 0.48326 0.79885 0.0
C1712 C 0.48132 0.5053 0.81562 0.0
C1713 C 0.47483 0.44107 0.77232 0.0
C1714 C 0.49755 0.46106 0.77766 0.0
C1715 C 0.49894 0.47998 0.79799 0.0
C1716 C 0.51538 0.46763 0.74898 0.0
C1717 C 0.47174 0.41759 0.7601 0.0
C1718 C 0.53953 0.48245 0.75628 0.0
C1719 C 0.55567 0.49225 0.72852 0.0
C1720 C 0.54833 0.48645 0.69276 0.0
C1721 C 0.52416 0.47242 0.68539 0.0
C1722 C 0.50784 0.46318 0.71307 0.0
H1723 H 0.45802 0.40311 0.77661 0.0
H1724 H 0.46525 0.414 0.7322 0.0
H1725 H 0.48859 0.4172 0.76207 0.0
H1726 H 0.5459 0.48696 0.78341 0.0
H1727 H 0.57406 0.50395 0.73547 0.0
H1728 H 0.97113 0.42491 0.99631 0.0
H1729 H 0.99285 0.42617 1.0485 0.0
H1730 H 0.95049 0.44775 0.11066 0.0
H1731 H 0.92963 0.44714 1.05754 0.0
H1732 H 0.01073 0.42579 0.102 0.0
H1733 H 0.98922 0.46867 0.19038 0.0
H1734 H 0.96398 0.44394 0.16909 0.0
H1735 H 0.97205 0.47448 0.15916 0.0
C1736 C 0.96672 0.43021 1.0212 0.0
C1737 C 0.94833 0.43547 1.02282 0.0
C1738 C 0.97899 0.43059 1.05179 0.0
C1739 C 0.97402 0.43729 0.08517 0.0
C1740 C 0.95552 0.44273 0.08628 0.0
H1741 H 0.04675 0.50971 0.98269 0.0
H1742 H 0.03242 0.47928 1.02855 0.0
C1743 C 0.94337 0.44246 1.05547 0.0
C1744 C 0.99089 0.44313 0.11625 0.0
H1745 H 0.01463 0.50151 0.13257 0.0
C1746 C 0.01177 0.44254 0.10857 0.0
C1747 C 0.99526 0.46337 0.1361 0.0
C1748 C 0.97897 0.46232 0.16519 0.0
C1749 C 0.03164 0.46387 0.09742 0.0
C1750 C 0.03053 0.48509 0.10036 0.0
C1751 C 0.01413 0.4852 0.12478 0.0
C1752 C 0.04092 0.50391 0.0729 0.0
C1753 C 0.05222 0.46322 0.08033 0.0
C1754 C 0.04828 0.52756 0.08169 0.0
C1755 C 0.05512 0.54457 1.05515 0.0
C1756 C 0.0563 0.53882 1.01936 0.0
C1757 C 0.04764 0.51499 1.0102 0.0
C1758 C 0.03981 0.49765 1.03666 0.0
H1759 H 0.05736 0.45227 0.0966 0.0
H1760 H 0.04677 0.45456 1.05381 0.0
H1761 H 0.06785 0.48132 0.07733 0.0
H1762 H 0.04863 0.53297 0.10905 0.0
H1763 H 0.06014 0.56248 1.06303 0.0
H1764 H 0.04284 0.52711 0.4868 0.0
H1765 H 0.02936 0.54349 0.44011 0.0
H1766 H 0.05855 0.51697 0.36087 0.0
H1767 H 0.06781 0.49726 0.40701 0.0
H1768 H 0.04568 0.57522 0.38774 0.0
H1769 H 0.00139 0.49126 0.30991 0.0
H1770 H 0.0146 0.48897 0.35052 0.0
H1771 H 0.03303 0.50831 0.31542 0.0
C1772 C 0.04642 0.52495 0.45944 0.0
C1773 C 0.05775 0.51214 0.4509 0.0
C1774 C 0.03894 0.5345 0.43252 0.0
C1775 C 0.04306 0.53182 0.39635 0.0
C1776 C 0.05454 0.51909 0.38802 0.0
H1777 H 0.96658 0.53167 0.4828 0.0
H1778 H 0.99075 0.55331 0.43328 0.0
C1779 C 0.06051 0.50827 0.41482 0.0
C1780 C 0.03179 0.53914 0.36848 0.0
H1781 H 0.97825 0.50774 0.32738 0.0
C1782 C 0.03099 0.56015 0.37458 0.0
C1783 C 0.01412 0.5218 0.34565 0.0
C1784 C 0.01585 0.50145 0.32944 0.0
C1785 C 0.00935 0.55971 0.37014 0.0
C1786 C 0.98896 0.53738 0.36354 0.0
C1787 C 0.99291 0.52222 0.34143 0.0
C1788 C 0.97172 0.52532 0.39355 0.0
C1789 C 0.00765 0.58156 0.37788 0.0
C1790 C 0.95328 0.50142 0.3902 0.0
C1791 C 0.9404 0.48847 0.41975 0.0
C1792 C 0.94427 0.49943 0.45312 0.0
C1793 C 0.96276 0.52291 0.45709 0.0
C1794 C 0.97628 0.53563 0.42793 0.0
H1795 H 0.0183 0.59543 0.35803 0.0
H1796 H 0.989 0.57774 0.37669 0.0
H1797 H 0.01552 0.58907 0.40431 0.0
H1798 H 0.94887 0.49224 0.36491 0.0
H1799 H 0.92686 0.47005 0.41612 0.0
H1800 H 0.45787 0.93067 0.75662 0.0
H1801 H 0.45853 0.95169 0.70398 0.0
H1802 H 0.42643 0.98596 0.76325 0.0
H1803 H 0.42567 0.96423 0.81517 0.0
H1804 H 0.42917 0.00674 0.71325 0.0
H1805 H 0.47026 0.98666 0.62155 0.0
H1806 H 0.44873 0.9607 0.64534 0.0
H1807 H 0.48047 0.97223 0.6511 0.0
C1808 C 0.45076 0.94256 0.75802 0.0
C1809 C 0.44086 0.94509 0.78959 0.0
C1810 C 0.45098 0.95478 0.72746 0.0
C1811 C 0.44246 0.97101 0.7279 0.0
C1812 C 0.43313 0.9738 0.76043 0.0
H1813 H 0.51476 0.03899 0.82936 0.0
H1814 H 0.48369 0.0263 0.78425 0.0
C1815 C 0.43293 0.96151 0.79085 0.0
C1816 C 0.44746 0.98807 0.69744 0.0
H1817 H 0.50561 0.0142 0.67832 0.0
C1818 C 0.4461 0.00844 0.70623 0.0
C1819 C 0.46745 0.99323 0.67655 0.0
C1820 C 0.46646 0.97702 0.64716 0.0
C1821 C 0.46722 0.02881 0.71696 0.0
C1822 C 0.48884 0.0288 0.71229 0.0
C1823 C 0.48912 0.01285 0.68707 0.0
C1824 C 0.50793 0.03921 0.73943 0.0
C1825 C 0.46613 0.04871 0.73575 0.0
C1826 C 0.5317 0.04887 0.72958 0.0
C1827 C 0.54921 0.05549 0.75551 0.0
C1828 C 0.54362 0.05382 0.79198 0.0
C1829 C 0.51975 0.04268 0.80178 0.0
C1830 C 0.50204 0.0355 0.77582 0.0
H1831 H 0.45916 0.043 0.76302 0.0
H1832 H 0.4839 0.06497 0.73729 0.0
H1833 H 0.45366 0.0529 0.72167 0.0
H1834 H 0.53676 0.05109 0.70183 0.0
H1835 H 0.56727 0.0625 0.74666 0.0
H1836 H 0.53127 0.58375 0.10764 0.0
H1837 H 0.54206 0.5766 1.04948 0.0
H1838 H 0.48008 0.50636 1.05049 0.0
H1839 H 0.46813 0.51523 0.10656 0.0
H1840 H 0.55959 0.55627 1.02842 0.0
H1841 H 0.48552 0.50341 0.94899 0.0
H1842 H 0.48525 0.52662 0.97538 0.0
H1843 H 0.46925 0.4958 0.98959 0.0
C1844 C 0.51978 0.56716 0.09508 0.0
C1845 C 0.49898 0.55034 0.112 0.0
C1846 C 0.52587 0.56302 1.06144 0.0
C1847 C 0.51209 0.54108 1.04441 0.0
C1848 C 0.49106 0.52396 1.06149 0.0
H1849 H 0.52494 0.48072 0.1448 0.0
H1850 H 0.53737 0.50785 0.09449 0.0
C1851 C 0.48448 0.52869 0.09454 0.0
C1852 C 0.5224 0.53412 1.01431 0.0
H1853 H 0.49552 0.47558 0.99673 0.0
C1854 C 0.54577 0.53881 1.02005 0.0
C1855 C 0.50728 0.51291 0.99577 0.0
C1856 C 0.48559 0.5097 0.9765 0.0
C1857 C 0.54944 0.51957 1.02542 0.0
C1858 C 0.52942 0.49654 1.02372 0.0
C1859 C 0.51009 0.49326 1.00263 0.0
C1860 C 0.5243 0.48009 1.05386 0.0
C1861 C 0.57307 0.52389 1.03893 0.0
C1862 C 0.51104 0.4556 1.04836 0.0
C1863 C 0.50323 0.44031 0.0772 0.0
C1864 C 0.50952 0.44894 0.11239 0.0
C1865 C 0.5215 0.47349 0.11812 0.0
C1866 C 0.52881 0.48895 0.08914 0.0
H1867 H 0.58746 0.53704 1.02167 0.0
H1868 H 0.57633 0.53165 1.06611 0.0
H1869 H 0.57389 0.5072 1.03951 0.0
H1870 H 0.5065 0.44825 1.02174 0.0
H1871 H 0.49279 0.42152 1.07148 0.0
H1872 H 0.38328 0.95734 0.67907 0.0
H1873 H 0.40126 0.98623 0.63119 0.0
H1874 H 0.35211 0.01127 0.65112 0.0
H1875 H 0.33376 0.98207 0.69874 0.0
H1876 H 0.35638 0.00531 0.58127 0.0
H1877 H 0.44616 0.05647 0.64194 0.0
H1878 H 0.43634 0.02553 0.63576 0.0
H1879 H 0.42087 0.0344 0.66627 0.0
C1880 C 0.37633 0.96903 0.67323 0.0
C1881 C 0.35719 0.96757 0.69267 0.0
C1882 C 0.38672 0.98562 0.64605 0.0
C1883 C 0.37838 0.00125 0.63817 0.0
C1884 C 0.3589 0.99945 0.65698 0.0
H1885 H 0.41654 0.1192 0.49717 0.0
H1886 H 0.40092 0.08975 0.54472 0.0
C1887 C 0.34836 0.98271 0.68399 0.0
C1888 C 0.38949 0.01913 0.60972 0.0
H1889 H 0.4419 0.06656 0.58269 0.0
C1890 C 0.37504 0.01877 0.5817 0.0
C1891 C 0.41392 0.03658 0.61027 0.0
C1892 C 0.43019 0.03847 0.64033 0.0
C1893 C 0.38434 0.03538 0.55415 0.0
C1894 C 0.40864 0.05285 0.55486 0.0
C1895 C 0.42323 0.05308 0.58248 0.0
C1896 C 0.41904 0.07126 0.52724 0.0
C1897 C 0.36822 0.03403 0.52424 0.0
C1898 C 0.43466 0.07071 0.50222 0.0
C1899 C 0.4436 0.08746 0.47502 0.0
C1900 C 0.43735 0.10529 0.47273 0.0
C1901 C 0.42201 0.10598 0.49842 0.0
C1902 C 0.41293 0.08909 0.52542 0.0
H1903 H 0.35112 0.01694 0.52415 0.0
H1904 H 0.36429 0.04873 0.52722 0.0
H1905 H 0.37702 0.03616 0.49815 0.0
H1906 H 0.43956 0.05704 0.50334 0.0
H1907 H 0.45532 0.08632 0.45577 0.0
H1908 H 0.43972 0.33228 0.95464 0.0
H1909 H 0.43892 0.35974 0.91134 0.0
H1910 H 0.47359 0.41742 0.98659 0.0
H1911 H 0.47424 0.39026 1.03003 0.0
H1912 H 0.43254 0.41198 0.96467 0.0
H1913 H 0.4841 0.41376 0.84727 0.0
H1914 H 0.46421 0.38378 0.86089 0.0
H1915 H 0.48779 0.40369 0.89029 0.0
C1916 C 0.44783 0.35092 0.9617 0.0
C1917 C 0.45693 0.35893 0.99606 0.0
C1918 C 0.44752 0.36666 0.93676 0.0
C1919 C 0.45654 0.39071 0.94562 0.0
C1920 C 0.46673 0.39899 0.97916 0.0
H1921 H 0.40245 0.47419 0.8375 0.0
H1922 H 0.43082 0.46828 0.87259 0.0
C1923 C 0.46682 0.38329 1.00411 0.0
C1924 C 0.45141 0.40597 0.92261 0.0
H1925 H 0.45146 0.42123 0.83625 0.0
C1926 C 0.43725 0.41468 0.93675 0.0
C1927 C 0.4578 0.40965 0.88639 0.0
C1928 C 0.47455 0.40245 0.87044 0.0
C1929 C 0.42745 0.42499 0.91494 0.0
C1930 C 0.43223 0.42685 0.87806 0.0
C1931 C 0.44784 0.41977 0.86443 0.0
C1932 C 0.41839 0.43257 0.85291 0.0
C1933 C 0.41059 0.432 0.93117 0.0
C1934 C 0.4029 0.41496 0.82902 0.0
C1935 C 0.38695 0.41843 0.80876 0.0
C1936 C 0.38615 0.43954 0.81222 0.0
C1937 C 0.40241 0.45761 0.83495 0.0
C1938 C 0.41863 0.45426 0.85488 0.0
H1939 H 0.40586 0.42571 0.95898 0.0
H1940 H 0.41906 0.45166 0.93143 0.0
H1941 H 0.39397 0.42469 0.9153 0.0
H1942 H 0.40247 0.3981 0.8271 0.0
H1943 H 0.37469 0.40428 0.79128 0.0
H1944 H 0.97606 0.37107 0.11482 0.0
H1945 H 0.00966 0.3913 0.15534 0.0
H1946 H 0.96834 0.41024 0.22344 0.0
H1947 H 0.93469 0.39073 0.18207 0.0
H1948 H 0.01727 0.44685 0.21531 0.0
H1949 H 0.00626 0.35893 0.25055 0.0
H1950 H 0.00972 0.365 0.20376 0.0
H1951 H 0.984 0.362 0.22631 0.0
C1952 C 0.97419 0.37986 0.13809 0.0
C1953 C 0.95266 0.37911 0.14552 0.0
C1954 C 0.99335 0.39128 0.16127 0.0
C1955 C 0.99124 0.40185 0.19249 0.0
C1956 C 0.97016 0.40202 0.19944 0.0
H1957 H 0.07424 0.42428 0.37989 0.0
H1958 H 0.04302 0.41514 0.3366 0.0
C1959 C 0.95092 0.39066 0.17609 0.0
C1960 C 0.01039 0.41086 0.21913 0.0
H1961 H 0.04081 0.39286 0.27224 0.0
C1962 C 0.02245 0.43513 0.22795 0.0
C1963 C 0.01671 0.39533 0.23577 0.0
C1964 C 0.00336 0.36883 0.22893 0.0
C1965 C 0.04108 0.44436 0.25284 0.0
C1966 C 0.04791 0.42891 0.26841 0.0
C1967 C 0.03565 0.40465 0.25978 0.0
C1968 C 0.06694 0.43697 0.29518 0.0
C1969 C 0.05296 0.47033 0.26286 0.0
C1970 C 0.09075 0.45221 0.28602 0.0
C1971 C 0.10877 0.45781 0.311 0.0
C1972 C 0.10309 0.44795 0.34523 0.0
C1973 C 0.07917 0.43256 0.354 0.0
C1974 C 0.0613 0.42725 0.32931 0.0
H1975 H 0.04237 0.47857 0.25432 0.0
H1976 H 0.05585 0.47271 0.29204 0.0
H1977 H 0.07053 0.47994 0.24975 0.0
H1978 H 0.09537 0.4593 0.25939 0.0
H1979 H 0.12704 0.46984 0.30365 0.0
H1980 H 0.64251 0.07557 0.70682 0.0
H1981 H 0.62105 0.04813 0.65836 0.0
H1982 H 0.63804 0.1071 0.58893 0.0
H1983 H 0.6587 0.13502 0.63809 0.0
H1984 H 0.5827 0.05422 0.59779 0.0
H1985 H 0.66647 0.05609 0.56001 0.0
H1986 H 0.66065 0.05796 0.60642 0.0
H1987 H 0.66647 0.08206 0.57737 0.0
C1988 C 0.64119 0.08282 0.6816 0.0
C1989 C 0.65227 0.10753 0.67639 0.0
C1990 C 0.62896 0.06708 0.65395 0.0
C1991 C 0.62785 0.07571 0.62042 0.0
C1992 C 0.63857 0.10026 0.61492 0.0
H1993 H 0.59928 0.97987 0.44357 0.0
H1994 H 0.61041 0.01642 0.47575 0.0
C1995 C 0.65062 0.11611 0.64282 0.0
C1996 C 0.61756 0.05881 0.59063 0.0
H1997 H 0.63104 0.02595 0.535 0.0
C1998 C 0.59321 0.04824 0.58339 0.0
C1999 C 0.63146 0.05129 0.57209 0.0
C2000 C 0.65776 0.0624 0.57908 0.0
C2001 C 0.58215 0.02952 0.55865 0.0
C2002 C 0.59586 0.021 0.54146 0.0
C2003 C 0.62045 0.03243 0.54789 0.0
C2004 C 0.58538 0.99942 0.51856 0.0
C2005 C 0.55593 0.01904 0.55184 0.0
C2006 C 0.56699 0.97762 0.53118 0.0
C2007 C 0.55996 0.95661 0.51209 0.0
C2008 C 0.57168 0.95686 0.48052 0.0
C2009 C 0.5896 0.97885 0.46748 0.0
C2010 C 0.59616 0.99985 0.48607 0.0
H2011 H 0.55088 0.03304 0.55313 0.0
H2012 H 0.55048 0.01006 0.52565 0.0
H2013 H 0.54586 0.00585 0.57284 0.0
H2014 H 0.55869 0.97664 0.55653 0.0
H2015 H 0.5457 0.94012 0.52253 0.0
H2016 H 0.59755 0.61385 1.03647 0.0
H2017 H 0.60956 0.59015 1.00198 0.0
H2018 H 0.56596 0.58866 0.91437 0.0
H2019 H 0.55118 0.60964 0.95051 0.0
H2020 H 0.56595 0.54947 0.91431 0.0
H2021 H 0.65967 0.62093 0.93121 0.0
H2022 H 0.64634 0.60786 0.97282 0.0
H2023 H 0.63534 0.62393 0.94758 0.0
C2024 C 0.58986 0.608 1.01029 0.0
C2025 C 0.57355 0.61414 0.99624 0.0
C2026 C 0.59723 0.5948 0.99024 0.0
C2027 C 0.58952 0.5885 0.95502 0.0
C2028 C 0.57249 0.59364 0.94135 0.0
H2029 H 0.64342 0.56502 0.76683 0.0
H2030 H 0.62053 0.57 0.81372 0.0
C2031 C 0.56438 0.60608 0.96188 0.0
C2032 C 0.60015 0.57784 0.93175 0.0
H2033 H 0.65316 0.58671 0.90013 0.0
C2034 C 0.58503 0.55757 0.91143 0.0
C2035 C 0.6251 0.58856 0.92753 0.0
C2036 C 0.64251 0.61164 0.94564 0.0
C2037 C 0.59416 0.5482 0.88641 0.0
C2038 C 0.61899 0.55882 0.88269 0.0
C2039 C 0.63411 0.57839 0.90384 0.0
C2040 C 0.62984 0.55227 0.85377 0.0
C2041 C 0.5772 0.52784 0.86294 0.0
C2042 C 0.64259 0.5406 0.86097 0.0
C2043 C 0.65537 0.53723 0.83392 0.0
C2044 C 0.65586 0.5459 0.79953 0.0
C2045 C 0.64292 0.55753 0.79268 0.0
C2046 C 0.62987 0.56048 0.81945 0.0
H2047 H 0.56008 0.51644 0.87666 0.0
H2048 H 0.57343 0.53514 0.83876 0.0
H2049 H 0.58486 0.51675 0.85433 0.0
H2050 H 0.6429 0.53442 0.88757 0.0
H2051 H 0.66491 0.52796 0.83995 0.0
H2052 H 0.10465 0.65858 0.19002 0.0
H2053 H 0.07213 0.64041 0.23271 0.0
H2054 H 0.02813 0.58821 0.15435 0.0
H2055 H 0.06041 0.60561 0.11181 0.0
H2056 H 0.01278 0.62165 0.18475 0.0
H2057 H 0.03452 0.57227 0.28479 0.0
H2058 H 0.05854 0.59997 0.26851 0.0
H2059 H 0.04375 0.57504 0.23888 0.0
C2060 C 0.08837 0.6428 0.18213 0.0
C2061 C 0.08516 0.63383 0.14723 0.0
C2062 C 0.06982 0.63246 0.20657 0.0
C2063 C 0.0479 0.61303 0.19646 0.0
C2064 C 0.04502 0.60318 0.1625 0.0
H2065 H 0.93135 0.55488 0.3479 0.0
H2066 H 0.95409 0.55679 0.29508 0.0
C2067 C 0.0635 0.61338 0.13815 0.0
C2068 C 0.02707 0.60545 0.21929 0.0
H2069 H 0.00315 0.57942 0.29841 0.0
C2070 C 0.01049 0.61224 0.20951 0.0
C2071 C 0.0241 0.59284 0.25104 0.0
C2072 C 0.04103 0.5844 0.26157 0.0
C2073 C 0.99158 0.60787 0.23186 0.0
C2074 C 0.98946 0.59663 0.26475 0.0
C2075 C 0.00517 0.58847 0.27342 0.0
C2076 C 0.97263 0.59518 0.29209 0.0
C2077 C 0.97428 0.61565 0.22039 0.0
C2078 C 0.97512 0.61614 0.30711 0.0
C2079 C 0.96227 0.61513 0.33735 0.0
C2080 C 0.94695 0.59314 0.353 0.0
C2081 C 0.94325 0.57209 0.33641 0.0
C2082 C 0.95616 0.57312 0.30631 0.0
H2083 H 0.97378 0.61693 0.19099 0.0
H2084 H 0.95609 0.60316 0.23002 0.0
H2085 H 0.97995 0.63351 0.23173 0.0
H2086 H 0.9881 0.63336 0.29681 0.0
H2087 H 0.9656 0.63157 0.34989 0.0
H2088 H 0.55301 0.10447 0.41474 0.0
H2089 H 0.56379 0.10398 0.47678 0.0
H2090 H 0.50617 0.11419 0.50983 0.0
H2091 H 0.4952 0.11426 0.44717 0.0
H2092 H 0.58089 0.12977 0.52995 0.0
H2093 H 0.49223 0.06705 0.58237 0.0
H2094 H 0.49737 0.07235 0.5354 0.0
H2095 H 0.4928 0.09247 0.56305 0.0
C2096 C 0.5425 0.10677 0.43491 0.0
C2097 C 0.52283 0.10926 0.42436 0.0
C2098 C 0.54877 0.10637 0.47133 0.0
C2099 C 0.53591 0.10851 0.50025 0.0
C2100 C 0.51643 0.11148 0.4897 0.0
H2101 H 0.55389 0.1182 0.73992 0.0
H2102 H 0.54233 0.11767 0.67795 0.0
C2103 C 0.51002 0.11167 0.45305 0.0
C2104 C 0.54347 0.1083 0.54024 0.0
H2105 H 0.5226 0.08766 0.62535 0.0
C2106 C 0.56784 0.12029 0.55039 0.0
C2107 C 0.52732 0.09615 0.56882 0.0
C2108 C 0.50102 0.08107 0.56191 0.0
C2109 C 0.57609 0.12102 0.58627 0.0
C2110 C 0.55996 0.10911 0.61486 0.0
C2111 C 0.53559 0.09707 0.6048 0.0
C2112 C 0.56776 0.10936 0.65476 0.0
C2113 C 0.60242 0.13549 0.59318 0.0
C2114 C 0.58605 0.10458 0.66529 0.0
C2115 C 0.59294 0.10506 0.70184 0.0
C2116 C 0.58203 0.11031 0.7305 0.0
C2117 C 0.56353 0.11465 0.71987 0.0
C2118 C 0.55659 0.1141 0.68352 0.0
H2119 H 0.61162 0.14913 0.57233 0.0
H2120 H 0.60626 0.14458 0.61942 0.0
H2121 H 0.60997 0.12352 0.59292 0.0
H2122 H 0.59491 0.09993 0.6452 0.0
H2123 H 0.60676 0.10092 0.70762 0.0
H2124 H 0.38274 0.49589 0.77239 0.0
H2125 H 0.39502 0.50825 0.83456 0.0
H2126 H 0.46437 0.56072 0.79834 0.0
H2127 H 0.45153 0.54938 0.73676 0.0
H2128 H 0.42143 0.50849 0.88388 0.0
H2129 H 0.46302 0.60504 0.86455 0.0
H2130 H 0.44636 0.58438 0.82955 0.0
H2131 H 0.47708 0.59307 0.83727 0.0
C2132 C 0.40059 0.51017 0.77747 0.0
C2133 C 0.41568 0.52147 0.74803 0.0
C2134 C 0.40786 0.51744 0.81379 0.0
C2135 C 0.43093 0.53629 0.82343 0.0
C2136 C 0.44619 0.547 0.79378 0.0
H2137 H 0.50948 0.60187 1.03341 0.0
H2138 H 0.49812 0.58996 0.9708 0.0
C2139 C 0.43873 0.54014 0.75757 0.0
C2140 C 0.43892 0.54416 0.86353 0.0
H2141 H 0.47099 0.59286 0.91978 0.0
C2142 C 0.43213 0.52708 0.89116 0.0
C2143 C 0.4531 0.56838 0.87556 0.0
C2144 C 0.46011 0.58877 0.8503 0.0
C2145 C 0.43901 0.53303 0.92803 0.0
C2146 C 0.45337 0.55722 0.93994 0.0
C2147 C 0.46028 0.57429 0.91235 0.0
C2148 C 0.46084 0.56507 0.9801 0.0
C2149 C 0.43098 0.51271 0.95374 0.0
C2150 C 0.44441 0.55603 1.00866 0.0
C2151 C 0.45103 0.56302 1.04504 0.0
C2152 C 0.47456 0.57985 1.05599 0.0
C2153 C 0.49111 0.58912 1.02748 0.0
C2154 C 0.48444 0.58212 0.99086 0.0
H2155 H 0.42896 0.49654 0.94027 0.0
H2156 H 0.44353 0.5172 0.97628 0.0
H2157 H 0.41337 0.50829 0.96449 0.0
H2158 H 0.42597 0.54343 1.00297 0.0
H2159 H 0.43731 0.55482 1.06486 0.0
H2160 H 0.90378 0.39161 0.1036 0.0
H2161 H 0.90457 0.40342 0.16618 0.0
H2162 H 0.86827 0.44088 0.13646 0.0
H2163 H 0.86956 0.43111 0.07455 0.0
H2164 H 0.88302 0.39949 0.22075 0.0
H2165 H 0.90828 0.49224 0.19649 0.0
H2166 H 0.88102 0.47357 0.17358 0.0
H2167 H 0.90781 0.4734 0.16103 0.0
C2168 C 0.89589 0.40236 0.11017 0.0
C2169 C 0.88627 0.40975 0.08226 0.0
C2170 C 0.8964 0.40939 0.14682 0.0
C2171 C 0.88714 0.42415 0.15836 0.0
C2172 C 0.87684 0.43073 0.13039 0.0
H2173 H 0.90866 0.50133 0.37197 0.0
H2174 H 0.91015 0.48992 0.31013 0.0
C2175 C 0.87697 0.42434 0.09388 0.0
C2176 C 0.88768 0.43204 0.19866 0.0
H2177 H 0.8917 0.47732 0.25338 0.0
C2178 C 0.88507 0.41668 0.2273 0.0
C2179 C 0.89112 0.45477 0.20996 0.0
C2180 C 0.89751 0.47452 0.18369 0.0
C2181 C 0.88522 0.42269 0.26443 0.0
C2182 C 0.88669 0.44465 0.27556 0.0
C2183 C 0.88988 0.46022 0.24694 0.0
C2184 C 0.88568 0.45205 0.3157 0.0
C2185 C 0.88501 0.40541 0.29126 0.0
C2186 C 0.87113 0.43562 0.34226 0.0
C2187 C 0.87092 0.44225 0.3787 0.0
C2188 C 0.88453 0.46598 0.39155 0.0
C2189 C 0.89795 0.48275 0.36469 0.0
C2190 C 0.89874 0.47602 0.32834 0.0
H2191 H 0.89271 0.39492 0.28001 0.0
H2192 H 0.89528 0.41467 0.3155 0.0
H2193 H 0.86639 0.39263 0.29868 0.0
H2194 H 0.85934 0.41727 0.33504 0.0
H2195 H 0.85948 0.42846 0.39677 0.0
H2196 H 0.51163 0.89715 0.44433 0.0
H2197 H 0.49983 0.89701 0.50669 0.0
H2198 H 0.43141 0.8838 0.471 0.0
H2199 H 0.44288 0.88315 0.40967 0.0
H2200 H 0.48916 0.91879 0.55279 0.0
H2201 H 0.4029 0.83624 0.54342 0.0
H2202 H 0.42387 0.84577 0.50751 0.0
H2203 H 0.40411 0.85762 0.5124 0.0
C2204 C 0.49388 0.89378 0.44955 0.0
C2205 C 0.47824 0.8893 0.42033 0.0
C2206 C 0.48696 0.89379 0.48601 0.0
C2207 C 0.4639 0.88937 0.49587 0.0
C2208 C 0.44877 0.88596 0.46638 0.0
H2209 H 0.39015 0.88939 0.70314 0.0
H2210 H 0.40209 0.89003 0.64076 0.0
C2211 C 0.45558 0.88573 0.4302 0.0
C2212 C 0.45596 0.88885 0.53592 0.0
H2213 H 0.4089 0.85981 0.59507 0.0
C2214 C 0.47157 0.90559 0.56154 0.0
C2215 C 0.43301 0.87198 0.54974 0.0
C2216 C 0.41511 0.85175 0.52698 0.0
C2217 C 0.46513 0.90623 0.59817 0.0
C2218 C 0.44211 0.88958 0.61171 0.0
C2219 C 0.42648 0.87293 0.58618 0.0
C2220 C 0.4342 0.8889 0.65166 0.0
C2221 C 0.48325 0.92549 0.62197 0.0
C2222 C 0.44737 0.88768 0.68094 0.0
C2223 C 0.44016 0.88688 0.71722 0.0
C2224 C 0.41934 0.88738 0.72731 0.0
C2225 C 0.40616 0.88871 0.698 0.0
C2226 C 0.41316 0.88913 0.6615 0.0
H2227 H 0.49628 0.94109 0.60641 0.0
H2228 H 0.47468 0.93154 0.64166 0.0
H2229 H 0.49318 0.91841 0.63666 0.0
H2230 H 0.46346 0.88712 0.67589 0.0
H2231 H 0.45152 0.88647 0.73763 0.0
H2232 H 0.61298 0.50232 0.77429 0.0
H2233 H 0.60184 0.49073 0.83692 0.0
H2234 H 0.54659 0.42194 0.80218 0.0
H2235 H 0.55801 0.43327 0.74066 0.0
H2236 H 0.56576 0.47878 0.88176 0.0
H2237 H 0.56923 0.39589 0.87613 0.0
H2238 H 0.58012 0.41692 0.84019 0.0
H2239 H 0.54883 0.39585 0.84405 0.0
C2240 C 0.59872 0.48451 0.77971 0.0
C2241 C 0.58724 0.46874 0.75057 0.0
C2242 C 0.59204 0.47777 0.81634 0.0
C2243 C 0.57341 0.45476 0.82654 0.0
C2244 C 0.56163 0.43938 0.79725 0.0
H2245 H 0.50536 0.37686 1.03413 0.0
H2246 H 0.51657 0.38897 0.97174 0.0
C2247 C 0.56834 0.44607 0.76095 0.0
C2248 C 0.56602 0.447 0.86668 0.0
H2249 H 0.55118 0.40129 0.92736 0.0
C2250 C 0.56293 0.46189 0.89134 0.0
C2251 C 0.56155 0.42474 0.88136 0.0
C2252 C 0.5653 0.40751 0.85923 0.0
C2253 C 0.5555 0.45544 0.92783 0.0
C2254 C 0.55122 0.43323 0.94256 0.0
C2255 C 0.55417 0.41829 0.91784 0.0
C2256 C 0.54392 0.42535 0.98264 0.0
C2257 C 0.55133 0.47248 0.94979 0.0
C2258 C 0.5552 0.44074 1.01219 0.0
C2259 C 0.54852 0.43364 1.04842 0.0
C2260 C 0.53002 0.4106 1.05821 0.0
C2261 C 0.51919 0.3949 1.02892 0.0
C2262 C 0.52592 0.40198 0.99248 0.0
H2263 H 0.54719 0.48389 0.93276 0.0
H2264 H 0.53649 0.46289 0.96873 0.0
H2265 H 0.56768 0.48439 0.96506 0.0
H2266 H 0.56964 0.45858 1.00753 0.0
H2267 H 0.55766 0.44677 1.06901 0.0
H2268 H 0.10059 0.49159 0.37045 0.0
H2269 H 0.09938 0.50178 0.30807 0.0
H2270 H 0.12855 0.57525 0.33775 0.0
H2271 H 0.12813 0.56462 0.39984 0.0
H2272 H 0.10476 0.57364 0.28826 0.0
H2273 H 0.14027 0.52098 0.22749 0.0
H2274 H 0.11351 0.50183 0.25074 0.0
H2275 H 0.13926 0.52368 0.27497 0.0
C2276 C 0.10715 0.51005 0.36396 0.0
C2277 C 0.11518 0.52718 0.39195 0.0
C2278 C 0.10662 0.51612 0.32726 0.0
C2279 C 0.11454 0.53985 0.31562 0.0
C2280 C 0.12235 0.55679 0.34381 0.0
H2281 H 0.14007 0.57346 0.07909 0.0
H2282 H 0.14074 0.56309 0.1413 0.0
C2283 C 0.12253 0.55066 0.38037 0.0
C2284 C 0.11422 0.54713 0.27542 0.0
H2285 H 0.12257 0.5359 0.18774 0.0
C2286 C 0.10892 0.56528 0.26664 0.0
C2287 C 0.12001 0.53741 0.24523 0.0
C2288 C 0.12886 0.52014 0.25003 0.0
C2289 C 0.10916 0.57352 0.23091 0.0
C2290 C 0.11345 0.56272 0.20045 0.0
C2291 C 0.11884 0.54461 0.20931 0.0
C2292 C 0.11328 0.57009 0.16017 0.0
C2293 C 0.10597 0.59487 0.2271 0.0
C2294 C 0.09792 0.57803 0.14661 0.0
C2295 C 0.09835 0.585 0.11029 0.0
C2296 C 0.11308 0.58334 0.08396 0.0
C2297 C 0.12809 0.57502 0.09712 0.0
C2298 C 0.12833 0.56881 0.13375 0.0
H2299 H 0.11127 0.60583 0.25177 0.0
H2300 H 0.11668 0.60643 0.20489 0.0
H2301 H 0.08695 0.58881 0.22231 0.0
H2302 H 0.0849 0.5785 0.16378 0.0
H2303 H 0.08641 0.5912 0.10257 0.0
loop_
_geom_bond_atom_site_label_1
_geom_bond_atom_site_label_2
_geom_bond_distance
_geom_bond_site_symmetry_2
_ccdc_geom_bond_type
Eu0 N29 2.600 . S
Eu0 N35 2.562 . S
Eu0 O44 2.462 . S
Eu0 O45 2.373 . S
Eu0 O47 2.432 . S
Eu0 O48 2.291 . S
Eu0 O52 2.335 . S
Eu0 O55 2.372 . S
Eu0 C64 2.787 . S
C1 N2 1.365 . S
C1 C4 1.405 . S
C1 C8 1.448 . S
N2 C1 1.365 . S
N2 C5 1.319 . S
N2 Eu11 2.600 . S
C3 C5 1.397 . S
C3 C6 1.367 . S
C3 H23 0.931 . S
C4 C1 1.405 . S
C4 C6 1.403 . S
C4 C10 1.439 . S
C5 N2 1.319 . S
C5 C3 1.397 . S
C5 H16 0.930 . S
C6 C3 1.367 . S
C6 C4 1.403 . S
C6 H27 0.929 . S
C7 C8 1.430 . S
C7 C9 1.387 . S
C7 C13 1.404 . S
C8 C1 1.448 . S
C8 C7 1.430 . S
C8 N12 1.351 . S
C9 C7 1.387 . S
C9 C10 1.374 . S
C9 H24 0.931 . S
C10 C4 1.439 . S
C10 C9 1.374 . S
C10 H25 0.931 . S
Eu11 N2 2.600 . S
Eu11 N12 2.562 . S
Eu11 O46 2.335 . S
Eu11 O49 2.372 . S
Eu11 O50 2.462 . S
Eu11 O51 2.373 . S
Eu11 O53 2.432 . S
Eu11 O54 2.291 . S
Eu11 C75 2.787 . S
N12 C8 1.351 . S
N12 Eu11 2.562 . S
N12 C14 1.325 . S
C13 C7 1.404 . S
C13 C15 1.366 . S
C13 H21 0.930 . S
C14 N12 1.325 . S
C14 C15 1.416 . S
C14 H20 0.929 . S
C15 C13 1.366 . S
C15 C14 1.416 . S
C15 H17 0.930 . S
H16 C5 0.930 . S
H17 C15 0.930 . S
H18 C33 0.930 . S
H19 C40 0.930 . S
H20 C14 0.929 . S
H21 C13 0.930 . S
H22 C36 0.929 . S
H23 C3 0.931 . S
H24 C9 0.931 . S
H25 C10 0.931 . S
H26 C31 0.931 . S
H27 C6 0.929 . S
H28 C39 0.930 . S
N29 Eu0 2.600 . S
N29 C30 1.365 . S
N29 C33 1.319 . S
C30 N29 1.365 . S
C30 C32 1.405 . S
C30 C38 1.448 . S
C31 H26 0.931 . S
C31 C33 1.397 . S
C31 C34 1.367 . S
C32 C30 1.405 . S
C32 C34 1.403 . S
C32 C65 1.439 . S
C33 H18 0.930 . S
C33 N29 1.319 . S
C33 C31 1.397 . S
C34 C31 1.367 . S
C34 C32 1.403 . S
C34 H41 0.929 . S
N35 Eu0 2.562 . S
N35 C36 1.325 . S
N35 C38 1.351 . S
C36 H22 0.929 . S
C36 N35 1.325 . S
C36 C40 1.416 . S
C37 C38 1.430 . S
C37 C39 1.404 . S
C37 C66 1.387 . S
C38 C30 1.448 . S
C38 N35 1.351 . S
C38 C37 1.430 . S
C39 H28 0.930 . S
C39 C37 1.404 . S
C39 C40 1.366 . S
C40 H19 0.930 . S
C40 C36 1.416 . S
C40 C39 1.366 . S
H41 C34 0.929 . S
H42 C65 0.931 . S
H43 C66 0.931 . S
O44 Eu0 2.462 . S
O44 C64 1.252 . S
O45 Eu0 2.373 . S
O45 C56 1.249 . S
O46 Eu11 2.335 . S
O46 C56 1.264 . S
O47 Eu0 2.432 . S
O47 C64 1.268 . S
O48 Eu0 2.291 . S
O48 C63 1.255 . S
O49 Eu11 2.372 . S
O49 C63 1.257 . S
O50 Eu11 2.462 . S
O50 C75 1.252 . S
O51 Eu11 2.373 . S
O51 C67 1.249 . S
O52 Eu0 2.335 . S
O52 C67 1.264 . S
O53 Eu11 2.432 . S
O53 C75 1.268 . S
O54 Eu11 2.291 . S
O54 C74 1.255 . S
O55 Eu0 2.372 . S
O55 C74 1.257 . S
C56 O45 1.249 . S
C56 O46 1.264 . S
C57 C60 1.382 . S
C57 C62 1.390 . S
C57 C64 1.506 . S
C58 C59 1.398 . S
C58 C62 1.392 . S
C59 C58 1.398 . S
C59 C61 1.372 . S
C59 H76 0.931 . S
C60 C57 1.382 . S
C60 C61 1.390 . S
C60 H77 0.931 . S
C61 C59 1.372 . S
C61 C60 1.390 . S
C61 H78 0.929 . S
C62 C57 1.390 . S
C62 C58 1.392 . S
C62 H79 0.930 . S
C63 O48 1.255 . S
C63 O49 1.257 . S
C64 Eu0 2.787 . S
C64 O44 1.252 . S
C64 O47 1.268 . S
C64 C57 1.506 . S
C65 C32 1.439 . S
C65 H42 0.931 . S
C65 C66 1.374 . S
C66 C37 1.387 . S
C66 H43 0.931 . S
C66 C65 1.374 . S
C67 O51 1.249 . S
C67 O52 1.264 . S
C68 C71 1.382 . S
C68 C72 1.390 . S
C68 C75 1.506 . S
C69 C70 1.398 . S
C69 C72 1.392 . S
C70 C69 1.398 . S
C70 C73 1.372 . S
C70 H80 0.931 . S
C71 C68 1.382 . S
C71 C73 1.390 . S
C71 H81 0.931 . S
C72 C68 1.390 . S
C72 C69 1.392 . S
C72 H82 0.930 . S
C73 C70 1.372 . S
C73 C71 1.390 . S
C73 H83 0.929 . S
C74 O54 1.255 . S
C74 O55 1.257 . S
C75 Eu11 2.787 . S
C75 O50 1.252 . S
C75 O53 1.268 . S
C75 C68 1.506 . S
H76 C59 0.931 . S
H77 C60 0.931 . S
H78 C61 0.929 . S
H79 C62 0.930 . S
H80 C70 0.931 . S
H81 C71 0.931 . S
H82 C72 0.930 . S
H83 C73 0.929 . S
Eu84 N113 2.600 . S
Eu84 N119 2.562 . S
Eu84 O128 2.462 . S
Eu84 O129 2.373 . S
Eu84 O131 2.432 . S
Eu84 O132 2.291 . S
Eu84 O136 2.335 . S
Eu84 O139 2.372 . S
Eu84 C148 2.787 . S
C85 N86 1.365 . S
C85 C88 1.405 . S
C85 C92 1.448 . S
N86 C85 1.365 . S
N86 C89 1.319 . S
N86 Eu95 2.600 . S
C87 C89 1.397 . S
C87 C90 1.367 . S
C87 H107 0.931 . S
C88 C85 1.405 . S
C88 C90 1.403 . S
C88 C94 1.439 . S
C89 N86 1.319 . S
C89 C87 1.397 . S
C89 H100 0.930 . S
C90 C87 1.367 . S
C90 C88 1.403 . S
C90 H111 0.929 . S
C91 C92 1.430 . S
C91 C93 1.387 . S
C91 C97 1.404 . S
C92 C85 1.448 . S
C92 C91 1.430 . S
C92 N96 1.351 . S
C93 C91 1.387 . S
C93 C94 1.374 . S
C93 H108 0.931 . S
C94 C88 1.439 . S
C94 C93 1.374 . S
C94 H109 0.931 . S
Eu95 N86 2.600 . S
Eu95 N96 2.562 . S
Eu95 O130 2.335 . S
Eu95 O133 2.372 . S
Eu95 O134 2.462 . S
Eu95 O135 2.373 . S
Eu95 O137 2.432 . S
Eu95 O138 2.291 . S
Eu95 C159 2.787 . S
N96 C92 1.351 . S
N96 Eu95 2.562 . S
N96 C98 1.325 . S
C97 C91 1.404 . S
C97 C99 1.366 . S
C97 H105 0.930 . S
C98 N96 1.325 . S
C98 C99 1.416 . S
C98 H104 0.929 . S
C99 C97 1.366 . S
C99 C98 1.416 . S
C99 H101 0.930 . S
H100 C89 0.930 . S
H101 C99 0.930 . S
H102 C117 0.930 . S
H103 C124 0.930 . S
H104 C98 0.929 . S
H105 C97 0.930 . S
H106 C120 0.929 . S
H107 C87 0.931 . S
H108 C93 0.931 . S
H109 C94 0.931 . S
H110 C115 0.931 . S
H111 C90 0.929 . S
H112 C123 0.930 . S
N113 Eu84 2.600 . S
N113 C114 1.365 . S
N113 C117 1.319 . S
C114 N113 1.365 . S
C114 C116 1.405 . S
C114 C122 1.448 . S
C115 H110 0.931 . S
C115 C117 1.397 . S
C115 C118 1.367 . S
C116 C114 1.405 . S
C116 C118 1.403 . S
C116 C149 1.439 . S
C117 H102 0.930 . S
C117 N113 1.319 . S
C117 C115 1.397 . S
C118 C115 1.367 . S
C118 C116 1.403 . S
C118 H125 0.929 . S
N119 Eu84 2.562 . S
N119 C120 1.325 . S
N119 C122 1.351 . S
C120 H106 0.929 . S
C120 N119 1.325 . S
C120 C124 1.416 . S
C121 C122 1.430 . S
C121 C123 1.404 . S
C121 C150 1.387 . S
C122 C114 1.448 . S
C122 N119 1.351 . S
C122 C121 1.430 . S
C123 H112 0.930 . S
C123 C121 1.404 . S
C123 C124 1.366 . S
C124 H103 0.930 . S
C124 C120 1.416 . S
C124 C123 1.366 . S
H125 C118 0.929 . S
H126 C149 0.931 . S
H127 C150 0.931 . S
O128 Eu84 2.462 . S
O128 C148 1.252 . S
O129 Eu84 2.373 . S
O129 C140 1.249 . S
O130 Eu95 2.335 . S
O130 C140 1.264 . S
O131 Eu84 2.432 . S
O131 C148 1.268 . S
O132 Eu84 2.291 . S
O132 C147 1.255 . S
O133 Eu95 2.372 . S
O133 C147 1.257 . S
O134 Eu95 2.462 . S
O134 C159 1.252 . S
O135 Eu95 2.373 . S
O135 C151 1.249 . S
O136 Eu84 2.335 . S
O136 C151 1.264 . S
O137 Eu95 2.432 . S
O137 C159 1.268 . S
O138 Eu95 2.291 . S
O138 C158 1.255 . S
O139 Eu84 2.372 . S
O139 C158 1.257 . S
C140 O129 1.249 . S
C140 O130 1.264 . S
C141 C144 1.382 . S
C141 C146 1.390 . S
C141 C148 1.506 . S
C142 C143 1.398 . S
C142 C146 1.392 . S
C143 C142 1.398 . S
C143 C145 1.372 . S
C143 H160 0.931 . S
C144 C141 1.382 . S
C144 C145 1.390 . S
C144 H161 0.931 . S
C145 C143 1.372 . S
C145 C144 1.390 . S
C145 H162 0.929 . S
C146 C141 1.390 . S
C146 C142 1.392 . S
C146 H163 0.930 . S
C147 O132 1.255 . S
C147 O133 1.257 . S
C148 Eu84 2.787 . S
C148 O128 1.252 . S
C148 O131 1.268 . S
C148 C141 1.506 . S
C149 C116 1.439 . S
C149 H126 0.931 . S
C149 C150 1.374 . S
C150 C121 1.387 . S
C150 H127 0.931 . S
C150 C149 1.374 . S
C151 O135 1.249 . S
C151 O136 1.264 . S
C152 C155 1.382 . S
C152 C156 1.390 . S
C152 C159 1.506 . S
C153 C154 1.398 . S
C153 C156 1.392 . S
C154 C153 1.398 . S
C154 C157 1.372 . S
C154 H164 0.931 . S
C155 C152 1.382 . S
C155 C157 1.390 . S
C155 H165 0.931 . S
C156 C152 1.390 . S
C156 C153 1.392 . S
C156 H166 0.930 . S
C157 C154 1.372 . S
C157 C155 1.390 . S
C157 H167 0.929 . S
C158 O138 1.255 . S
C158 O139 1.257 . S
C159 Eu95 2.787 . S
C159 O134 1.252 . S
C159 O137 1.268 . S
C159 C152 1.506 . S
H160 C143 0.931 . S
H161 C144 0.931 . S
H162 C145 0.929 . S
H163 C146 0.930 . S
H164 C154 0.931 . S
H165 C155 0.931 . S
H166 C156 0.930 . S
H167 C157 0.929 . S
Eu168 N197 2.600 . S
Eu168 N203 2.562 . S
Eu168 O212 2.462 . S
Eu168 O213 2.373 . S
Eu168 O215 2.432 . S
Eu168 O216 2.291 . S
Eu168 O220 2.335 . S
Eu168 O223 2.372 . S
Eu168 C232 2.787 . S
C169 N170 1.365 . S
C169 C172 1.405 . S
C169 C176 1.448 . S
N170 C169 1.365 . S
N170 C173 1.319 . S
N170 Eu179 2.600 . S
C171 C173 1.397 . S
C171 C174 1.367 . S
C171 H191 0.931 . S
C172 C169 1.405 . S
C172 C174 1.403 . S
C172 C178 1.439 . S
C173 N170 1.319 . S
C173 C171 1.397 . S
C173 H184 0.930 . S
C174 C171 1.367 . S
C174 C172 1.403 . S
C174 H195 0.929 . S
C175 C176 1.430 . S
C175 C177 1.387 . S
C175 C181 1.404 . S
C176 C169 1.448 . S
C176 C175 1.430 . S
C176 N180 1.351 . S
C177 C175 1.387 . S
C177 C178 1.374 . S
C177 H192 0.931 . S
C178 C172 1.439 . S
C178 C177 1.374 . S
C178 H193 0.931 . S
Eu179 N170 2.600 . S
Eu179 N180 2.562 . S
Eu179 O214 2.335 . S
Eu179 O217 2.372 . S
Eu179 O218 2.462 . S
Eu179 O219 2.373 . S
Eu179 O221 2.432 . S
Eu179 O222 2.291 . S
Eu179 C243 2.787 1_556 S
N180 C176 1.351 . S
N180 Eu179 2.562 . S
N180 C182 1.325 . S
C181 C175 1.404 . S
C181 C183 1.366 . S
C181 H189 0.930 . S
C182 N180 1.325 . S
C182 C183 1.416 . S
C182 H188 0.929 . S
C183 C181 1.366 . S
C183 C182 1.416 . S
C183 H185 0.930 . S
H184 C173 0.930 . S
H185 C183 0.930 . S
H186 C201 0.930 . S
H187 C208 0.930 . S
H188 C182 0.929 . S
H189 C181 0.930 . S
H190 C204 0.929 . S
H191 C171 0.931 . S
H192 C177 0.931 . S
H193 C178 0.931 . S
H194 C199 0.931 . S
H195 C174 0.929 . S
H196 C207 0.930 . S
N197 Eu168 2.600 . S
N197 C198 1.365 . S
N197 C201 1.319 . S
C198 N197 1.365 . S
C198 C200 1.405 . S
C198 C206 1.448 . S
C199 H194 0.931 . S
C199 C201 1.397 . S
C199 C202 1.367 . S
C200 C198 1.405 . S
C200 C202 1.403 . S
C200 C233 1.439 . S
C201 H186 0.930 . S
C201 N197 1.319 . S
C201 C199 1.397 . S
C202 C199 1.367 . S
C202 C200 1.403 . S
C202 H209 0.929 . S
N203 Eu168 2.562 . S
N203 C204 1.325 . S
N203 C206 1.351 . S
C204 H190 0.929 . S
C204 N203 1.325 . S
C204 C208 1.416 . S
C205 C206 1.430 . S
C205 C207 1.404 . S
C205 C234 1.387 . S
C206 C198 1.448 . S
C206 N203 1.351 . S
C206 C205 1.430 . S
C207 H196 0.930 . S
C207 C205 1.404 . S
C207 C208 1.366 . S
C208 H187 0.930 . S
C208 C204 1.416 . S
C208 C207 1.366 . S
H209 C202 0.929 . S
H210 C233 0.931 . S
H211 C234 0.931 . S
O212 Eu168 2.462 . S
O212 C232 1.252 . S
O213 Eu168 2.373 . S
O213 C224 1.249 . S
O214 Eu179 2.335 . S
O214 C224 1.264 . S
O215 Eu168 2.432 . S
O215 C232 1.268 . S
O216 Eu168 2.291 . S
O216 C231 1.255 . S
O217 Eu179 2.372 . S
O217 C231 1.257 . S
O218 Eu179 2.462 . S
O218 C243 1.252 1_556 S
O219 Eu179 2.373 . S
O219 C235 1.249 . S
O220 Eu168 2.335 . S
O220 C235 1.264 . S
O221 Eu179 2.432 . S
O221 C243 1.268 1_556 S
O222 Eu179 2.291 . S
O222 C242 1.255 . S
O223 Eu168 2.372 . S
O223 C242 1.257 . S
C224 O213 1.249 . S
C224 O214 1.264 . S
C225 C228 1.382 . S
C225 C230 1.390 . S
C225 C232 1.506 . S
C226 C227 1.398 . S
C226 C230 1.392 . S
C227 C226 1.398 . S
C227 C229 1.372 . S
C227 H244 0.931 . S
C228 C225 1.382 . S
C228 C229 1.390 . S
C228 H245 0.931 . S
C229 C227 1.372 . S
C229 C228 1.390 . S
C229 H246 0.929 . S
C230 C225 1.390 . S
C230 C226 1.392 . S
C230 H247 0.930 . S
C231 O216 1.255 . S
C231 O217 1.257 . S
C232 Eu168 2.787 . S
C232 O212 1.252 . S
C232 O215 1.268 . S
C232 C225 1.506 . S
C233 C200 1.439 . S
C233 H210 0.931 . S
C233 C234 1.374 . S
C234 C205 1.387 . S
C234 H211 0.931 . S
C234 C233 1.374 . S
C235 O219 1.249 . S
C235 O220 1.264 . S
C236 C239 1.382 . S
C236 C240 1.390 . S
C236 C243 1.506 . S
C237 C238 1.398 . S
C237 C240 1.392 . S
C238 C237 1.398 . S
C238 C241 1.372 . S
C238 H248 0.931 . S
C239 C236 1.382 . S
C239 C241 1.390 . S
C239 H249 0.931 . S
C240 C236 1.390 . S
C240 C237 1.392 . S
C240 H250 0.930 . S
C241 C238 1.372 . S
C241 C239 1.390 . S
C241 H251 0.929 . S
C242 O222 1.255 . S
C242 O223 1.257 . S
C243 Eu179 2.787 1_554 S
C243 O218 1.252 1_554 S
C243 O221 1.268 1_554 S
C243 C236 1.506 . S
H244 C227 0.931 . S
H245 C228 0.931 . S
H246 C229 0.929 . S
H247 C230 0.930 . S
H248 C238 0.931 . S
H249 C239 0.931 . S
H250 C240 0.930 . S
H251 C241 0.929 . S
Eu252 N281 2.600 . S
Eu252 N287 2.562 . S
Eu252 O296 2.462 . S
Eu252 O297 2.373 . S
Eu252 O299 2.432 . S
Eu252 O300 2.291 . S
Eu252 O304 2.335 . S
Eu252 O307 2.372 . S
Eu252 C316 2.787 . S
C253 N254 1.365 . S
C253 C256 1.405 . S
C253 C260 1.448 . S
N254 C253 1.365 . S
N254 C257 1.319 . S
N254 Eu263 2.600 . S
C255 C257 1.397 . S
C255 C258 1.367 . S
C255 H275 0.931 . S
C256 C253 1.405 . S
C256 C258 1.403 . S
C256 C262 1.439 . S
C257 N254 1.319 . S
C257 C255 1.397 . S
C257 H268 0.930 . S
C258 C255 1.367 . S
C258 C256 1.403 . S
C258 H279 0.929 . S
C259 C260 1.430 . S
C259 C261 1.387 . S
C259 C265 1.404 . S
C260 C253 1.448 . S
C260 C259 1.430 . S
C260 N264 1.351 . S
C261 C259 1.387 . S
C261 C262 1.374 . S
C261 H276 0.931 . S
C262 C256 1.439 . S
C262 C261 1.374 . S
C262 H277 0.931 . S
Eu263 N254 2.600 . S
Eu263 N264 2.562 . S
Eu263 O298 2.335 . S
Eu263 O301 2.372 . S
Eu263 O302 2.462 . S
Eu263 O303 2.373 . S
Eu263 O305 2.432 . S
Eu263 O306 2.291 . S
Eu263 C327 2.787 . S
N264 C260 1.351 . S
N264 Eu263 2.562 . S
N264 C266 1.325 . S
C265 C259 1.404 . S
C265 C267 1.366 . S
C265 H273 0.930 . S
C266 N264 1.325 . S
C266 C267 1.416 . S
C266 H272 0.929 . S
C267 C265 1.366 . S
C267 C266 1.416 . S
C267 H269 0.930 . S
H268 C257 0.930 . S
H269 C267 0.930 . S
H270 C285 0.930 . S
H271 C292 0.930 . S
H272 C266 0.929 . S
H273 C265 0.930 . S
H274 C288 0.929 . S
H275 C255 0.931 . S
H276 C261 0.931 . S
H277 C262 0.931 . S
H278 C283 0.931 . S
H279 C258 0.929 . S
H280 C291 0.930 . S
N281 Eu252 2.600 . S
N281 C282 1.365 . S
N281 C285 1.319 . S
C282 N281 1.365 . S
C282 C284 1.405 . S
C282 C290 1.448 . S
C283 H278 0.931 . S
C283 C285 1.397 . S
C283 C286 1.367 . S
C284 C282 1.405 . S
C284 C286 1.403 . S
C284 C317 1.439 . S
C285 H270 0.930 . S
C285 N281 1.319 . S
C285 C283 1.397 . S
C286 C283 1.367 . S
C286 C284 1.403 . S
C286 H293 0.929 . S
N287 Eu252 2.562 . S
N287 C288 1.325 . S
N287 C290 1.351 . S
C288 H274 0.929 . S
C288 N287 1.325 . S
C288 C292 1.416 . S
C289 C290 1.430 . S
C289 C291 1.404 . S
C289 C318 1.387 . S
C290 C282 1.448 . S
C290 N287 1.351 . S
C290 C289 1.430 . S
C291 H280 0.930 . S
C291 C289 1.404 . S
C291 C292 1.366 . S
C292 H271 0.930 . S
C292 C288 1.416 . S
C292 C291 1.366 . S
H293 C286 0.929 . S
H294 C317 0.931 . S
H295 C318 0.931 . S
O296 Eu252 2.462 . S
O296 C316 1.252 . S
O297 Eu252 2.373 . S
O297 C308 1.249 . S
O298 Eu263 2.335 . S
O298 C308 1.264 . S
O299 Eu252 2.432 . S
O299 C316 1.268 . S
O300 Eu252 2.291 . S
O300 C315 1.255 . S
O301 Eu263 2.372 . S
O301 C315 1.257 . S
O302 Eu263 2.462 . S
O302 C327 1.252 . S
O303 Eu263 2.373 . S
O303 C319 1.249 . S
O304 Eu252 2.335 . S
O304 C319 1.264 . S
O305 Eu263 2.432 . S
O305 C327 1.268 . S
O306 Eu263 2.291 . S
O306 C326 1.255 . S
O307 Eu252 2.372 . S
O307 C326 1.257 . S
C308 O297 1.249 . S
C308 O298 1.264 . S
C309 C312 1.382 . S
C309 C314 1.390 . S
C309 C316 1.506 . S
C310 C311 1.398 . S
C310 C314 1.392 . S
C311 C310 1.398 . S
C311 C313 1.372 . S
C311 H328 0.931 . S
C312 C309 1.382 . S
C312 C313 1.390 . S
C312 H329 0.931 . S
C313 C311 1.372 . S
C313 C312 1.390 . S
C313 H330 0.929 . S
C314 C309 1.390 . S
C314 C310 1.392 . S
C314 H331 0.930 . S
C315 O300 1.255 . S
C315 O301 1.257 . S
C316 Eu252 2.787 . S
C316 O296 1.252 . S
C316 O299 1.268 . S
C316 C309 1.506 . S
C317 C284 1.439 . S
C317 H294 0.931 . S
C317 C318 1.374 . S
C318 C289 1.387 . S
C318 H295 0.931 . S
C318 C317 1.374 . S
C319 O303 1.249 . S
C319 O304 1.264 . S
C320 C323 1.382 . S
C320 C324 1.390 . S
C320 C327 1.506 . S
C321 C322 1.398 . S
C321 C324 1.392 . S
C322 C321 1.398 . S
C322 C325 1.372 . S
C322 H332 0.931 . S
C323 C320 1.382 . S
C323 C325 1.390 . S
C323 H333 0.931 . S
C324 C320 1.390 . S
C324 C321 1.392 . S
C324 H334 0.930 . S
C325 C322 1.372 . S
C325 C323 1.390 . S
C325 H335 0.929 . S
C326 O306 1.255 . S
C326 O307 1.257 . S
C327 Eu263 2.787 . S
C327 O302 1.252 . S
C327 O305 1.268 . S
C327 C320 1.506 . S
H328 C311 0.931 . S
H329 C312 0.931 . S
H330 C313 0.929 . S
H331 C314 0.930 . S
H332 C322 0.931 . S
H333 C323 0.931 . S
H334 C324 0.930 . S
H335 C325 0.929 . S
Eu336 N365 2.600 . S
Eu336 N371 2.562 . S
Eu336 O380 2.462 . S
Eu336 O381 2.373 . S
Eu336 O383 2.432 . S
Eu336 O384 2.291 . S
Eu336 O388 2.335 . S
Eu336 O391 2.372 . S
Eu336 C400 2.787 . S
C337 N338 1.365 . S
C337 C340 1.405 . S
C337 C344 1.448 . S
N338 C337 1.365 . S
N338 C341 1.319 . S
N338 Eu347 2.600 . S
C339 C341 1.397 . S
C339 C342 1.367 . S
C339 H359 0.931 . S
C340 C337 1.405 . S
C340 C342 1.403 . S
C340 C346 1.439 . S
C341 N338 1.319 . S
C341 C339 1.397 . S
C341 H352 0.930 . S
C342 C339 1.367 . S
C342 C340 1.403 . S
C342 H363 0.929 . S
C343 C344 1.430 . S
C343 C345 1.387 . S
C343 C349 1.404 . S
C344 C337 1.448 . S
C344 C343 1.430 . S
C344 N348 1.351 . S
C345 C343 1.387 . S
C345 C346 1.374 . S
C345 H360 0.931 . S
C346 C340 1.439 . S
C346 C345 1.374 . S
C346 H361 0.931 . S
Eu347 N338 2.600 . S
Eu347 N348 2.562 . S
Eu347 O382 2.335 . S
Eu347 O385 2.372 . S
Eu347 O386 2.462 . S
Eu347 O387 2.373 . S
Eu347 O389 2.432 . S
Eu347 O390 2.291 . S
Eu347 C411 2.787 . S
N348 C344 1.351 . S
N348 Eu347 2.562 . S
N348 C350 1.325 . S
C349 C343 1.404 . S
C349 C351 1.366 . S
C349 H357 0.930 . S
C350 N348 1.325 . S
C350 C351 1.416 . S
C350 H356 0.929 . S
C351 C349 1.366 . S
C351 C350 1.416 . S
C351 H353 0.930 . S
H352 C341 0.930 . S
H353 C351 0.930 . S
H354 C369 0.930 . S
H355 C376 0.930 . S
H356 C350 0.929 . S
H357 C349 0.930 . S
H358 C372 0.929 . S
H359 C339 0.931 . S
H360 C345 0.931 . S
H361 C346 0.931 . S
H362 C367 0.931 . S
H363 C342 0.929 . S
H364 C375 0.930 . S
N365 Eu336 2.600 . S
N365 C366 1.365 . S
N365 C369 1.319 . S
C366 N365 1.365 . S
C366 C368 1.405 . S
C366 C374 1.448 . S
C367 H362 0.931 . S
C367 C369 1.397 . S
C367 C370 1.367 . S
C368 C366 1.405 . S
C368 C370 1.403 . S
C368 C401 1.439 . S
C369 H354 0.930 . S
C369 N365 1.319 . S
C369 C367 1.397 . S
C370 C367 1.367 . S
C370 C368 1.403 . S
C370 H377 0.929 . S
N371 Eu336 2.562 . S
N371 C372 1.325 . S
N371 C374 1.351 . S
C372 H358 0.929 . S
C372 N371 1.325 . S
C372 C376 1.416 . S
C373 C374 1.430 . S
C373 C375 1.404 . S
C373 C402 1.387 . S
C374 C366 1.448 . S
C374 N371 1.351 . S
C374 C373 1.430 . S
C375 H364 0.930 . S
C375 C373 1.404 . S
C375 C376 1.366 . S
C376 H355 0.930 . S
C376 C372 1.416 . S
C376 C375 1.366 . S
H377 C370 0.929 . S
H378 C401 0.931 . S
H379 C402 0.931 . S
O380 Eu336 2.462 . S
O380 C400 1.252 . S
O381 Eu336 2.373 . S
O381 C392 1.249 . S
O382 Eu347 2.335 . S
O382 C392 1.264 . S
O383 Eu336 2.432 . S
O383 C400 1.268 . S
O384 Eu336 2.291 . S
O384 C399 1.255 . S
O385 Eu347 2.372 . S
O385 C399 1.257 . S
O386 Eu347 2.462 . S
O386 C411 1.252 . S
O387 Eu347 2.373 . S
O387 C403 1.249 . S
O388 Eu336 2.335 . S
O388 C403 1.264 . S
O389 Eu347 2.432 . S
O389 C411 1.268 . S
O390 Eu347 2.291 . S
O390 C410 1.255 . S
O391 Eu336 2.372 . S
O391 C410 1.257 . S
C392 O381 1.249 . S
C392 O382 1.264 . S
C393 C396 1.382 . S
C393 C398 1.390 . S
C393 C400 1.506 . S
C394 C395 1.398 . S
C394 C398 1.392 . S
C395 C394 1.398 . S
C395 C397 1.372 . S
C395 H412 0.931 . S
C396 C393 1.382 . S
C396 C397 1.390 . S
C396 H413 0.931 . S
C397 C395 1.372 . S
C397 C396 1.390 . S
C397 H414 0.929 . S
C398 C393 1.390 . S
C398 C394 1.392 . S
C398 H415 0.930 . S
C399 O384 1.255 . S
C399 O385 1.257 . S
C400 Eu336 2.787 . S
C400 O380 1.252 . S
C400 O383 1.268 . S
C400 C393 1.506 . S
C401 C368 1.439 . S
C401 H378 0.931 . S
C401 C402 1.374 . S
C402 C373 1.387 . S
C402 H379 0.931 . S
C402 C401 1.374 . S
C403 O387 1.249 . S
C403 O388 1.264 . S
C404 C407 1.382 . S
C404 C408 1.390 . S
C404 C411 1.506 . S
C405 C406 1.398 . S
C405 C408 1.392 . S
C406 C405 1.398 . S
C406 C409 1.372 . S
C406 H416 0.931 . S
C407 C404 1.382 . S
C407 C409 1.390 . S
C407 H417 0.931 . S
C408 C404 1.390 . S
C408 C405 1.392 . S
C408 H418 0.930 . S
C409 C406 1.372 . S
C409 C407 1.390 . S
C409 H419 0.929 . S
C410 O390 1.255 . S
C410 O391 1.257 . S
C411 Eu347 2.787 . S
C411 O386 1.252 . S
C411 O389 1.268 . S
C411 C404 1.506 . S
H412 C395 0.931 . S
H413 C396 0.931 . S
H414 C397 0.929 . S
H415 C398 0.930 . S
H416 C406 0.931 . S
H417 C407 0.931 . S
H418 C408 0.930 . S
H419 C409 0.929 . S
Eu420 N449 2.600 . S
Eu420 N455 2.562 . S
Eu420 O464 2.462 . S
Eu420 O465 2.373 . S
Eu420 O467 2.432 . S
Eu420 O468 2.291 . S
Eu420 O472 2.335 . S
Eu420 O475 2.372 . S
Eu420 C484 2.787 . S
C421 N422 1.365 . S
C421 C424 1.405 . S
C421 C428 1.448 . S
N422 C421 1.365 . S
N422 C425 1.319 . S
N422 Eu431 2.600 . S
C423 C425 1.397 . S
C423 C426 1.367 . S
C423 H443 0.931 . S
C424 C421 1.405 . S
C424 C426 1.403 . S
C424 C430 1.439 . S
C425 N422 1.319 . S
C425 C423 1.397 . S
C425 H436 0.930 . S
C426 C423 1.367 . S
C426 C424 1.403 . S
C426 H447 0.929 . S
C427 C428 1.430 . S
C427 C429 1.387 . S
C427 C433 1.404 . S
C428 C421 1.448 . S
C428 C427 1.430 . S
C428 N432 1.351 . S
C429 C427 1.387 . S
C429 C430 1.374 . S
C429 H444 0.931 . S
C430 C424 1.439 . S
C430 C429 1.374 . S
C430 H445 0.931 . S
Eu431 N422 2.600 . S
Eu431 N432 2.562 . S
Eu431 O466 2.335 . S
Eu431 O469 2.372 . S
Eu431 O470 2.462 . S
Eu431 O471 2.373 . S
Eu431 O473 2.432 . S
Eu431 O474 2.291 . S
Eu431 C495 2.787 1_556 S
N432 C428 1.351 . S
N432 Eu431 2.562 . S
N432 C434 1.325 . S
C433 C427 1.404 . S
C433 C435 1.366 . S
C433 H441 0.930 . S
C434 N432 1.325 . S
C434 C435 1.416 . S
C434 H440 0.929 . S
C435 C433 1.366 . S
C435 C434 1.416 . S
C435 H437 0.930 . S
H436 C425 0.930 . S
H437 C435 0.930 . S
H438 C453 0.930 . S
H439 C460 0.930 . S
H440 C434 0.929 . S
H441 C433 0.930 . S
H442 C456 0.929 . S
H443 C423 0.931 . S
H444 C429 0.931 . S
H445 C430 0.931 . S
H446 C451 0.931 . S
H447 C426 0.929 . S
H448 C459 0.930 . S
N449 Eu420 2.600 . S
N449 C450 1.365 . S
N449 C453 1.319 . S
C450 N449 1.365 . S
C450 C452 1.405 . S
C450 C458 1.448 . S
C451 H446 0.931 . S
C451 C453 1.397 . S
C451 C454 1.367 . S
C452 C450 1.405 . S
C452 C454 1.403 . S
C452 C485 1.439 . S
C453 H438 0.930 . S
C453 N449 1.319 . S
C453 C451 1.397 . S
C454 C451 1.367 . S
C454 C452 1.403 . S
C454 H461 0.929 . S
N455 Eu420 2.562 . S
N455 C456 1.325 . S
N455 C458 1.351 . S
C456 H442 0.929 . S
C456 N455 1.325 . S
C456 C460 1.416 . S
C457 C458 1.430 . S
C457 C459 1.404 . S
C457 C486 1.387 . S
C458 C450 1.448 . S
C458 N455 1.351 . S
C458 C457 1.430 . S
C459 H448 0.930 . S
C459 C457 1.404 . S
C459 C460 1.366 . S
C460 H439 0.930 . S
C460 C456 1.416 . S
C460 C459 1.366 . S
H461 C454 0.929 . S
H462 C485 0.931 . S
H463 C486 0.931 . S
O464 Eu420 2.462 . S
O464 C484 1.252 . S
O465 Eu420 2.373 . S
O465 C476 1.249 . S
O466 Eu431 2.335 . S
O466 C476 1.264 . S
O467 Eu420 2.432 . S
O467 C484 1.268 . S
O468 Eu420 2.291 . S
O468 C483 1.255 . S
O469 Eu431 2.372 . S
O469 C483 1.257 . S
O470 Eu431 2.462 . S
O470 C495 1.252 1_556 S
O471 Eu431 2.373 . S
O471 C487 1.249 . S
O472 Eu420 2.335 . S
O472 C487 1.264 . S
O473 Eu431 2.432 . S
O473 C495 1.268 1_556 S
O474 Eu431 2.291 . S
O474 C494 1.255 . S
O475 Eu420 2.372 . S
O475 C494 1.257 . S
C476 O465 1.249 . S
C476 O466 1.264 . S
C477 C480 1.382 . S
C477 C482 1.390 . S
C477 C484 1.506 . S
C478 C479 1.398 . S
C478 C482 1.392 . S
C479 C478 1.398 . S
C479 C481 1.372 . S
C479 H496 0.931 . S
C480 C477 1.382 . S
C480 C481 1.390 . S
C480 H497 0.931 . S
C481 C479 1.372 . S
C481 C480 1.390 . S
C481 H498 0.929 . S
C482 C477 1.390 . S
C482 C478 1.392 . S
C482 H499 0.930 . S
C483 O468 1.255 . S
C483 O469 1.257 . S
C484 Eu420 2.787 . S
C484 O464 1.252 . S
C484 O467 1.268 . S
C484 C477 1.506 . S
C485 C452 1.439 . S
C485 H462 0.931 . S
C485 C486 1.374 . S
C486 C457 1.387 . S
C486 H463 0.931 . S
C486 C485 1.374 . S
C487 O471 1.249 . S
C487 O472 1.264 . S
C488 C491 1.382 . S
C488 C492 1.390 . S
C488 C495 1.506 . S
C489 C490 1.398 . S
C489 C492 1.392 . S
C490 C489 1.398 . S
C490 C493 1.372 . S
C490 H500 0.931 . S
C491 C488 1.382 . S
C491 C493 1.390 . S
C491 H501 0.931 . S
C492 C488 1.390 . S
C492 C489 1.392 . S
C492 H502 0.930 . S
C493 C490 1.372 . S
C493 C491 1.390 . S
C493 H503 0.929 . S
C494 O474 1.255 . S
C494 O475 1.257 . S
C495 Eu431 2.787 1_554 S
C495 O470 1.252 1_554 S
C495 O473 1.268 1_554 S
C495 C488 1.506 . S
H496 C479 0.931 . S
H497 C480 0.931 . S
H498 C481 0.929 . S
H499 C482 0.930 . S
H500 C490 0.931 . S
H501 C491 0.931 . S
H502 C492 0.930 . S
H503 C493 0.929 . S
Eu504 N533 2.600 . S
Eu504 N539 2.562 . S
Eu504 O548 2.462 . S
Eu504 O549 2.373 . S
Eu504 O551 2.432 . S
Eu504 O552 2.291 . S
Eu504 O556 2.335 . S
Eu504 O559 2.372 . S
Eu504 C568 2.787 . S
C505 N506 1.365 . S
C505 C508 1.405 . S
C505 C512 1.448 . S
N506 C505 1.365 . S
N506 C509 1.319 . S
N506 Eu515 2.600 . S
C507 C509 1.397 . S
C507 C510 1.367 . S
C507 H527 0.931 . S
C508 C505 1.405 . S
C508 C510 1.403 . S
C508 C514 1.439 . S
C509 N506 1.319 . S
C509 C507 1.397 . S
C509 H520 0.930 . S
C510 C507 1.367 . S
C510 C508 1.403 . S
C510 H531 0.929 . S
C511 C512 1.430 . S
C511 C513 1.387 . S
C511 C517 1.404 . S
C512 C505 1.448 . S
C512 C511 1.430 . S
C512 N516 1.351 . S
C513 C511 1.387 . S
C513 C514 1.374 . S
C513 H528 0.931 . S
C514 C508 1.439 . S
C514 C513 1.374 . S
C514 H529 0.931 . S
Eu515 N506 2.600 . S
Eu515 N516 2.562 . S
Eu515 O550 2.335 . S
Eu515 O553 2.372 . S
Eu515 O554 2.462 . S
Eu515 O555 2.373 . S
Eu515 O557 2.432 . S
Eu515 O558 2.291 . S
Eu515 C579 2.787 . S
N516 C512 1.351 . S
N516 Eu515 2.562 . S
N516 C518 1.325 . S
C517 C511 1.404 . S
C517 C519 1.366 . S
C517 H525 0.930 . S
C518 N516 1.325 . S
C518 C519 1.416 . S
C518 H524 0.929 . S
C519 C517 1.366 . S
C519 C518 1.416 . S
C519 H521 0.930 . S
H520 C509 0.930 . S
H521 C519 0.930 . S
H522 C537 0.930 . S
H523 C544 0.930 . S
H524 C518 0.929 . S
H525 C517 0.930 . S
H526 C540 0.929 . S
H527 C507 0.931 . S
H528 C513 0.931 . S
H529 C514 0.931 . S
H530 C535 0.931 . S
H531 C510 0.929 . S
H532 C543 0.930 . S
N533 Eu504 2.600 . S
N533 C534 1.365 . S
N533 C537 1.319 . S
C534 N533 1.365 . S
C534 C536 1.405 . S
C534 C542 1.448 . S
C535 H530 0.931 . S
C535 C537 1.397 . S
C535 C538 1.367 . S
C536 C534 1.405 . S
C536 C538 1.403 . S
C536 C569 1.439 . S
C537 H522 0.930 . S
C537 N533 1.319 . S
C537 C535 1.397 . S
C538 C535 1.367 . S
C538 C536 1.403 . S
C538 H545 0.929 . S
N539 Eu504 2.562 . S
N539 C540 1.325 . S
N539 C542 1.351 . S
C540 H526 0.929 . S
C540 N539 1.325 . S
C540 C544 1.416 . S
C541 C542 1.430 . S
C541 C543 1.404 . S
C541 C570 1.387 . S
C542 C534 1.448 . S
C542 N539 1.351 . S
C542 C541 1.430 . S
C543 H532 0.930 . S
C543 C541 1.404 . S
C543 C544 1.366 . S
C544 H523 0.930 . S
C544 C540 1.416 . S
C544 C543 1.366 . S
H545 C538 0.929 . S
H546 C569 0.931 . S
H547 C570 0.931 . S
O548 Eu504 2.462 . S
O548 C568 1.252 . S
O549 Eu504 2.373 . S
O549 C560 1.249 . S
O550 Eu515 2.335 . S
O550 C560 1.264 . S
O551 Eu504 2.432 . S
O551 C568 1.268 . S
O552 Eu504 2.291 . S
O552 C567 1.255 . S
O553 Eu515 2.372 . S
O553 C567 1.257 . S
O554 Eu515 2.462 . S
O554 C579 1.252 . S
O555 Eu515 2.373 . S
O555 C571 1.249 . S
O556 Eu504 2.335 . S
O556 C571 1.264 . S
O557 Eu515 2.432 . S
O557 C579 1.268 . S
O558 Eu515 2.291 . S
O558 C578 1.255 . S
O559 Eu504 2.372 . S
O559 C578 1.257 . S
C560 O549 1.249 . S
C560 O550 1.264 . S
C561 C564 1.382 . S
C561 C566 1.390 . S
C561 C568 1.506 . S
C562 C563 1.398 . S
C562 C566 1.392 . S
C563 C562 1.398 . S
C563 C565 1.372 . S
C563 H580 0.931 . S
C564 C561 1.382 . S
C564 C565 1.390 . S
C564 H581 0.931 . S
C565 C563 1.372 . S
C565 C564 1.390 . S
C565 H582 0.929 . S
C566 C561 1.390 . S
C566 C562 1.392 . S
C566 H583 0.930 . S
C567 O552 1.255 . S
C567 O553 1.257 . S
C568 Eu504 2.787 . S
C568 O548 1.252 . S
C568 O551 1.268 . S
C568 C561 1.506 . S
C569 C536 1.439 . S
C569 H546 0.931 . S
C569 C570 1.374 . S
C570 C541 1.387 . S
C570 H547 0.931 . S
C570 C569 1.374 . S
C571 O555 1.249 . S
C571 O556 1.264 . S
C572 C575 1.382 . S
C572 C576 1.390 . S
C572 C579 1.506 . S
C573 C574 1.398 . S
C573 C576 1.392 . S
C574 C573 1.398 . S
C574 C577 1.372 . S
C574 H584 0.931 . S
C575 C572 1.382 . S
C575 C577 1.390 . S
C575 H585 0.931 . S
C576 C572 1.390 . S
C576 C573 1.392 . S
C576 H586 0.930 . S
C577 C574 1.372 . S
C577 C575 1.390 . S
C577 H587 0.929 . S
C578 O558 1.255 . S
C578 O559 1.257 . S
C579 Eu515 2.787 . S
C579 O554 1.252 . S
C579 O557 1.268 . S
C579 C572 1.506 . S
H580 C563 0.931 . S
H581 C564 0.931 . S
H582 C565 0.929 . S
H583 C566 0.930 . S
H584 C574 0.931 . S
H585 C575 0.931 . S
H586 C576 0.930 . S
H587 C577 0.929 . S
Eu588 N617 2.600 . S
Eu588 N623 2.562 . S
Eu588 O632 2.462 . S
Eu588 O633 2.373 . S
Eu588 O635 2.432 . S
Eu588 O636 2.291 . S
Eu588 O640 2.335 . S
Eu588 O643 2.372 . S
Eu588 C652 2.787 . S
C589 N590 1.365 . S
C589 C592 1.405 . S
C589 C596 1.448 . S
N590 C589 1.365 . S
N590 C593 1.319 . S
N590 Eu599 2.600 . S
C591 C593 1.397 . S
C591 C594 1.367 . S
C591 H611 0.931 . S
C592 C589 1.405 . S
C592 C594 1.403 . S
C592 C598 1.439 . S
C593 N590 1.319 . S
C593 C591 1.397 . S
C593 H604 0.930 . S
C594 C591 1.367 . S
C594 C592 1.403 . S
C594 H615 0.929 . S
C595 C596 1.430 . S
C595 C597 1.387 . S
C595 C601 1.404 . S
C596 C589 1.448 . S
C596 C595 1.430 . S
C596 N600 1.351 . S
C597 C595 1.387 . S
C597 C598 1.374 . S
C597 H612 0.931 . S
C598 C592 1.439 . S
C598 C597 1.374 . S
C598 H613 0.931 . S
Eu599 N590 2.600 . S
Eu599 N600 2.562 . S
Eu599 O634 2.335 . S
Eu599 O637 2.372 . S
Eu599 O638 2.462 . S
Eu599 O639 2.373 . S
Eu599 O641 2.432 . S
Eu599 O642 2.291 . S
Eu599 C663 2.787 . S
N600 C596 1.351 . S
N600 Eu599 2.562 . S
N600 C602 1.325 . S
C601 C595 1.404 . S
C601 C603 1.366 . S
C601 H609 0.930 . S
C602 N600 1.325 . S
C602 C603 1.416 . S
C602 H608 0.929 . S
C603 C601 1.366 . S
C603 C602 1.416 . S
C603 H605 0.930 . S
H604 C593 0.930 . S
H605 C603 0.930 . S
H606 C621 0.930 . S
H607 C628 0.930 . S
H608 C602 0.929 . S
H609 C601 0.930 . S
H610 C624 0.929 . S
H611 C591 0.931 . S
H612 C597 0.931 . S
H613 C598 0.931 . S
H614 C619 0.931 . S
H615 C594 0.929 . S
H616 C627 0.930 . S
N617 Eu588 2.600 . S
N617 C618 1.365 . S
N617 C621 1.319 . S
C618 N617 1.365 . S
C618 C620 1.405 . S
C618 C626 1.448 . S
C619 H614 0.931 . S
C619 C621 1.397 . S
C619 C622 1.367 . S
C620 C618 1.405 . S
C620 C622 1.403 . S
C620 C653 1.439 . S
C621 H606 0.930 . S
C621 N617 1.319 . S
C621 C619 1.397 . S
C622 C619 1.367 . S
C622 C620 1.403 . S
C622 H629 0.929 . S
N623 Eu588 2.562 . S
N623 C624 1.325 . S
N623 C626 1.351 . S
C624 H610 0.929 . S
C624 N623 1.325 . S
C624 C628 1.416 . S
C625 C626 1.430 . S
C625 C627 1.404 . S
C625 C654 1.387 . S
C626 C618 1.448 . S
C626 N623 1.351 . S
C626 C625 1.430 . S
C627 H616 0.930 . S
C627 C625 1.404 . S
C627 C628 1.366 . S
C628 H607 0.930 . S
C628 C624 1.416 . S
C628 C627 1.366 . S
H629 C622 0.929 . S
H630 C653 0.931 . S
H631 C654 0.931 . S
O632 Eu588 2.462 . S
O632 C652 1.252 . S
O633 Eu588 2.373 . S
O633 C644 1.249 . S
O634 Eu599 2.335 . S
O634 C644 1.264 . S
O635 Eu588 2.432 . S
O635 C652 1.268 . S
O636 Eu588 2.291 . S
O636 C651 1.255 . S
O637 Eu599 2.372 . S
O637 C651 1.257 . S
O638 Eu599 2.462 . S
O638 C663 1.252 . S
O639 Eu599 2.373 . S
O639 C655 1.249 . S
O640 Eu588 2.335 . S
O640 C655 1.264 . S
O641 Eu599 2.432 . S
O641 C663 1.268 . S
O642 Eu599 2.291 . S
O642 C662 1.255 . S
O643 Eu588 2.372 . S
O643 C662 1.257 . S
C644 O633 1.249 . S
C644 O634 1.264 . S
C645 C648 1.382 . S
C645 C650 1.390 . S
C645 C652 1.506 . S
C646 C647 1.398 . S
C646 C650 1.392 . S
C647 C646 1.398 . S
C647 C649 1.372 . S
C647 H664 0.931 . S
C648 C645 1.382 . S
C648 C649 1.390 . S
C648 H665 0.931 . S
C649 C647 1.372 . S
C649 C648 1.390 . S
C649 H666 0.929 . S
C650 C645 1.390 . S
C650 C646 1.392 . S
C650 H667 0.930 . S
C651 O636 1.255 . S
C651 O637 1.257 . S
C652 Eu588 2.787 . S
C652 O632 1.252 . S
C652 O635 1.268 . S
C652 C645 1.506 . S
C653 C620 1.439 . S
C653 H630 0.931 . S
C653 C654 1.374 . S
C654 C625 1.387 . S
C654 H631 0.931 . S
C654 C653 1.374 . S
C655 O639 1.249 . S
C655 O640 1.264 . S
C656 C659 1.382 . S
C656 C660 1.390 . S
C656 C663 1.506 . S
C657 C658 1.398 . S
C657 C660 1.392 . S
C658 C657 1.398 . S
C658 C661 1.372 . S
C658 H668 0.931 . S
C659 C656 1.382 . S
C659 C661 1.390 . S
C659 H669 0.931 . S
C660 C656 1.390 . S
C660 C657 1.392 . S
C660 H670 0.930 . S
C661 C658 1.372 . S
C661 C659 1.390 . S
C661 H671 0.929 . S
C662 O642 1.255 . S
C662 O643 1.257 . S
C663 Eu599 2.787 . S
C663 O638 1.252 . S
C663 O641 1.268 . S
C663 C656 1.506 . S
H664 C647 0.931 . S
H665 C648 0.931 . S
H666 C649 0.929 . S
H667 C650 0.930 . S
H668 C658 0.931 . S
H669 C659 0.931 . S
H670 C660 0.930 . S
H671 C661 0.929 . S
Eu672 N701 2.600 . S
Eu672 N707 2.562 . S
Eu672 O716 2.462 . S
Eu672 O717 2.373 . S
Eu672 O719 2.432 . S
Eu672 O720 2.291 . S
Eu672 O724 2.335 . S
Eu672 O727 2.372 . S
Eu672 C736 2.787 . S
C673 N674 1.365 . S
C673 C676 1.405 . S
C673 C680 1.448 . S
N674 C673 1.365 . S
N674 C677 1.319 . S
N674 Eu683 2.600 . S
C675 C677 1.397 . S
C675 C678 1.367 . S
C675 H695 0.931 . S
C676 C673 1.405 . S
C676 C678 1.403 . S
C676 C682 1.439 . S
C677 N674 1.319 . S
C677 C675 1.397 . S
C677 H688 0.930 . S
C678 C675 1.367 . S
C678 C676 1.403 . S
C678 H699 0.929 . S
C679 C680 1.430 . S
C679 C681 1.387 . S
C679 C685 1.404 . S
C680 C673 1.448 . S
C680 C679 1.430 . S
C680 N684 1.351 . S
C681 C679 1.387 . S
C681 C682 1.374 . S
C681 H696 0.931 . S
C682 C676 1.439 . S
C682 C681 1.374 . S
C682 H697 0.931 . S
Eu683 N674 2.600 . S
Eu683 N684 2.562 . S
Eu683 O718 2.335 . S
Eu683 O721 2.372 . S
Eu683 O722 2.462 . S
Eu683 O723 2.373 . S
Eu683 O725 2.432 . S
Eu683 O726 2.291 . S
Eu683 C747 2.787 1_554 S
N684 C680 1.351 . S
N684 Eu683 2.562 . S
N684 C686 1.325 . S
C685 C679 1.404 . S
C685 C687 1.366 . S
C685 H693 0.930 . S
C686 N684 1.325 . S
C686 C687 1.416 . S
C686 H692 0.929 . S
C687 C685 1.366 . S
C687 C686 1.416 . S
C687 H689 0.930 . S
H688 C677 0.930 . S
H689 C687 0.930 . S
H690 C705 0.930 . S
H691 C712 0.930 . S
H692 C686 0.929 . S
H693 C685 0.930 . S
H694 C708 0.929 . S
H695 C675 0.931 . S
H696 C681 0.931 . S
H697 C682 0.931 . S
H698 C703 0.931 . S
H699 C678 0.929 . S
H700 C711 0.930 . S
N701 Eu672 2.600 . S
N701 C702 1.365 . S
N701 C705 1.319 . S
C702 N701 1.365 . S
C702 C704 1.405 . S
C702 C710 1.448 . S
C703 H698 0.931 . S
C703 C705 1.397 . S
C703 C706 1.367 . S
C704 C702 1.405 . S
C704 C706 1.403 . S
C704 C737 1.439 . S
C705 H690 0.930 . S
C705 N701 1.319 . S
C705 C703 1.397 . S
C706 C703 1.367 . S
C706 C704 1.403 . S
C706 H713 0.929 . S
N707 Eu672 2.562 . S
N707 C708 1.325 . S
N707 C710 1.351 . S
C708 H694 0.929 . S
C708 N707 1.325 . S
C708 C712 1.416 . S
C709 C710 1.430 . S
C709 C711 1.404 . S
C709 C738 1.387 . S
C710 C702 1.448 . S
C710 N707 1.351 . S
C710 C709 1.430 . S
C711 H700 0.930 . S
C711 C709 1.404 . S
C711 C712 1.366 . S
C712 H691 0.930 . S
C712 C708 1.416 . S
C712 C711 1.366 . S
H713 C706 0.929 . S
H714 C737 0.931 . S
H715 C738 0.931 . S
O716 Eu672 2.462 . S
O716 C736 1.252 . S
O717 Eu672 2.373 . S
O717 C728 1.249 . S
O718 Eu683 2.335 . S
O718 C728 1.264 . S
O719 Eu672 2.432 . S
O719 C736 1.268 . S
O720 Eu672 2.291 . S
O720 C735 1.255 . S
O721 Eu683 2.372 . S
O721 C735 1.257 . S
O722 Eu683 2.462 . S
O722 C747 1.252 1_554 S
O723 Eu683 2.373 . S
O723 C739 1.249 . S
O724 Eu672 2.335 . S
O724 C739 1.264 . S
O725 Eu683 2.432 . S
O725 C747 1.268 1_554 S
O726 Eu683 2.291 . S
O726 C746 1.255 . S
O727 Eu672 2.372 . S
O727 C746 1.257 . S
C728 O717 1.249 . S
C728 O718 1.264 . S
C729 C732 1.382 . S
C729 C734 1.390 . S
C729 C736 1.506 . S
C730 C731 1.398 . S
C730 C734 1.392 . S
C731 C730 1.398 . S
C731 C733 1.372 . S
C731 H748 0.931 . S
C732 C729 1.382 . S
C732 C733 1.390 . S
C732 H749 0.931 . S
C733 C731 1.372 . S
C733 C732 1.390 . S
C733 H750 0.929 . S
C734 C729 1.390 . S
C734 C730 1.392 . S
C734 H751 0.930 . S
C735 O720 1.255 . S
C735 O721 1.257 . S
C736 Eu672 2.787 . S
C736 O716 1.252 . S
C736 O719 1.268 . S
C736 C729 1.506 . S
C737 C704 1.439 . S
C737 H714 0.931 . S
C737 C738 1.374 . S
C738 C709 1.387 . S
C738 H715 0.931 . S
C738 C737 1.374 . S
C739 O723 1.249 . S
C739 O724 1.264 . S
C740 C743 1.382 . S
C740 C744 1.390 . S
C740 C747 1.506 . S
C741 C742 1.398 . S
C741 C744 1.392 . S
C742 C741 1.398 . S
C742 C745 1.372 . S
C742 H752 0.931 . S
C743 C740 1.382 . S
C743 C745 1.390 . S
C743 H753 0.931 . S
C744 C740 1.390 . S
C744 C741 1.392 . S
C744 H754 0.930 . S
C745 C742 1.372 . S
C745 C743 1.390 . S
C745 H755 0.929 . S
C746 O726 1.255 . S
C746 O727 1.257 . S
C747 Eu683 2.787 1_556 S
C747 O722 1.252 1_556 S
C747 O725 1.268 1_556 S
C747 C740 1.506 . S
H748 C731 0.931 . S
H749 C732 0.931 . S
H750 C733 0.929 . S
H751 C734 0.930 . S
H752 C742 0.931 . S
H753 C743 0.931 . S
H754 C744 0.930 . S
H755 C745 0.929 . S
Eu756 N785 2.600 . S
Eu756 N791 2.562 . S
Eu756 O800 2.462 . S
Eu756 O801 2.373 . S
Eu756 O803 2.432 . S
Eu756 O804 2.291 . S
Eu756 O808 2.335 . S
Eu756 O811 2.372 . S
Eu756 C820 2.787 . S
C757 N758 1.365 . S
C757 C760 1.405 . S
C757 C764 1.448 . S
N758 C757 1.365 . S
N758 C761 1.319 . S
N758 Eu767 2.600 . S
C759 C761 1.397 . S
C759 C762 1.367 . S
C759 H779 0.931 . S
C760 C757 1.405 . S
C760 C762 1.403 . S
C760 C766 1.439 . S
C761 N758 1.319 . S
C761 C759 1.397 . S
C761 H772 0.930 . S
C762 C759 1.367 . S
C762 C760 1.403 . S
C762 H783 0.929 . S
C763 C764 1.430 . S
C763 C765 1.387 . S
C763 C769 1.404 . S
C764 C757 1.448 . S
C764 C763 1.430 . S
C764 N768 1.351 . S
C765 C763 1.387 . S
C765 C766 1.374 . S
C765 H780 0.931 . S
C766 C760 1.439 . S
C766 C765 1.374 . S
C766 H781 0.931 . S
Eu767 N758 2.600 . S
Eu767 N768 2.562 . S
Eu767 O802 2.335 . S
Eu767 O805 2.372 . S
Eu767 O806 2.462 . S
Eu767 O807 2.373 . S
Eu767 O809 2.432 . S
Eu767 O810 2.291 . S
Eu767 C831 2.787 . S
N768 C764 1.351 . S
N768 Eu767 2.562 . S
N768 C770 1.325 . S
C769 C763 1.404 . S
C769 C771 1.366 . S
C769 H777 0.930 . S
C770 N768 1.325 . S
C770 C771 1.416 . S
C770 H776 0.929 . S
C771 C769 1.366 . S
C771 C770 1.416 . S
C771 H773 0.930 . S
H772 C761 0.930 . S
H773 C771 0.930 . S
H774 C789 0.930 . S
H775 C796 0.930 . S
H776 C770 0.929 . S
H777 C769 0.930 . S
H778 C792 0.929 . S
H779 C759 0.931 . S
H780 C765 0.931 . S
H781 C766 0.931 . S
H782 C787 0.931 . S
H783 C762 0.929 . S
H784 C795 0.930 . S
N785 Eu756 2.600 . S
N785 C786 1.365 . S
N785 C789 1.319 . S
C786 N785 1.365 . S
C786 C788 1.405 . S
C786 C794 1.448 . S
C787 H782 0.931 . S
C787 C789 1.397 . S
C787 C790 1.367 . S
C788 C786 1.405 . S
C788 C790 1.403 . S
C788 C821 1.439 . S
C789 H774 0.930 . S
C789 N785 1.319 . S
C789 C787 1.397 . S
C790 C787 1.367 . S
C790 C788 1.403 . S
C790 H797 0.929 . S
N791 Eu756 2.562 . S
N791 C792 1.325 . S
N791 C794 1.351 . S
C792 H778 0.929 . S
C792 N791 1.325 . S
C792 C796 1.416 . S
C793 C794 1.430 . S
C793 C795 1.404 . S
C793 C822 1.387 . S
C794 C786 1.448 . S
C794 N791 1.351 . S
C794 C793 1.430 . S
C795 H784 0.930 . S
C795 C793 1.404 . S
C795 C796 1.366 . S
C796 H775 0.930 . S
C796 C792 1.416 . S
C796 C795 1.366 . S
H797 C790 0.929 . S
H798 C821 0.931 . S
H799 C822 0.931 . S
O800 Eu756 2.462 . S
O800 C820 1.252 . S
O801 Eu756 2.373 . S
O801 C812 1.249 . S
O802 Eu767 2.335 . S
O802 C812 1.264 . S
O803 Eu756 2.432 . S
O803 C820 1.268 . S
O804 Eu756 2.291 . S
O804 C819 1.255 . S
O805 Eu767 2.372 . S
O805 C819 1.257 . S
O806 Eu767 2.462 . S
O806 C831 1.252 . S
O807 Eu767 2.373 . S
O807 C823 1.249 . S
O808 Eu756 2.335 . S
O808 C823 1.264 . S
O809 Eu767 2.432 . S
O809 C831 1.268 . S
O810 Eu767 2.291 . S
O810 C830 1.255 . S
O811 Eu756 2.372 . S
O811 C830 1.257 . S
C812 O801 1.249 . S
C812 O802 1.264 . S
C813 C816 1.382 . S
C813 C818 1.390 . S
C813 C820 1.506 . S
C814 C815 1.398 . S
C814 C818 1.392 . S
C815 C814 1.398 . S
C815 C817 1.372 . S
C815 H832 0.931 . S
C816 C813 1.382 . S
C816 C817 1.390 . S
C816 H833 0.931 . S
C817 C815 1.372 . S
C817 C816 1.390 . S
C817 H834 0.929 . S
C818 C813 1.390 . S
C818 C814 1.392 . S
C818 H835 0.930 . S
C819 O804 1.255 . S
C819 O805 1.257 . S
C820 Eu756 2.787 . S
C820 O800 1.252 . S
C820 O803 1.268 . S
C820 C813 1.506 . S
C821 C788 1.439 . S
C821 H798 0.931 . S
C821 C822 1.374 . S
C822 C793 1.387 . S
C822 H799 0.931 . S
C822 C821 1.374 . S
C823 O807 1.249 . S
C823 O808 1.264 . S
C824 C827 1.382 . S
C824 C828 1.390 . S
C824 C831 1.506 . S
C825 C826 1.398 . S
C825 C828 1.392 . S
C826 C825 1.398 . S
C826 C829 1.372 . S
C826 H836 0.931 . S
C827 C824 1.382 . S
C827 C829 1.390 . S
C827 H837 0.931 . S
C828 C824 1.390 . S
C828 C825 1.392 . S
C828 H838 0.930 . S
C829 C826 1.372 . S
C829 C827 1.390 . S
C829 H839 0.929 . S
C830 O810 1.255 . S
C830 O811 1.257 . S
C831 Eu767 2.787 . S
C831 O806 1.252 . S
C831 O809 1.268 . S
C831 C824 1.506 . S
H832 C815 0.931 . S
H833 C816 0.931 . S
H834 C817 0.929 . S
H835 C818 0.930 . S
H836 C826 0.931 . S
H837 C827 0.931 . S
H838 C828 0.930 . S
H839 C829 0.929 . S
Eu840 N869 2.600 . S
Eu840 N875 2.562 . S
Eu840 O884 2.462 . S
Eu840 O885 2.373 . S
Eu840 O887 2.432 . S
Eu840 O888 2.291 . S
Eu840 O892 2.335 . S
Eu840 O895 2.372 . S
Eu840 C904 2.787 . S
C841 N842 1.365 . S
C841 C844 1.405 . S
C841 C848 1.448 . S
N842 C841 1.365 . S
N842 C845 1.319 . S
N842 Eu851 2.600 . S
C843 C845 1.397 . S
C843 C846 1.367 . S
C843 H863 0.931 . S
C844 C841 1.405 . S
C844 C846 1.403 . S
C844 C850 1.439 . S
C845 N842 1.319 . S
C845 C843 1.397 . S
C845 H856 0.930 . S
C846 C843 1.367 . S
C846 C844 1.403 . S
C846 H867 0.929 . S
C847 C848 1.430 . S
C847 C849 1.387 . S
C847 C853 1.404 . S
C848 C841 1.448 . S
C848 C847 1.430 . S
C848 N852 1.351 . S
C849 C847 1.387 . S
C849 C850 1.374 . S
C849 H864 0.931 . S
C850 C844 1.439 . S
C850 C849 1.374 . S
C850 H865 0.931 . S
Eu851 N842 2.600 . S
Eu851 N852 2.562 . S
Eu851 O886 2.335 . S
Eu851 O889 2.372 . S
Eu851 O890 2.462 . S
Eu851 O891 2.373 . S
Eu851 O893 2.432 . S
Eu851 O894 2.291 . S
Eu851 C915 2.787 . S
N852 C848 1.351 . S
N852 Eu851 2.562 . S
N852 C854 1.325 . S
C853 C847 1.404 . S
C853 C855 1.366 . S
C853 H861 0.930 . S
C854 N852 1.325 . S
C854 C855 1.416 . S
C854 H860 0.929 . S
C855 C853 1.366 . S
C855 C854 1.416 . S
C855 H857 0.930 . S
H856 C845 0.930 . S
H857 C855 0.930 . S
H858 C873 0.930 . S
H859 C880 0.930 . S
H860 C854 0.929 . S
H861 C853 0.930 . S
H862 C876 0.929 . S
H863 C843 0.931 . S
H864 C849 0.931 . S
H865 C850 0.931 . S
H866 C871 0.931 . S
H867 C846 0.929 . S
H868 C879 0.930 . S
N869 Eu840 2.600 . S
N869 C870 1.365 . S
N869 C873 1.319 . S
C870 N869 1.365 . S
C870 C872 1.405 . S
C870 C878 1.448 . S
C871 H866 0.931 . S
C871 C873 1.397 . S
C871 C874 1.367 . S
C872 C870 1.405 . S
C872 C874 1.403 . S
C872 C905 1.439 . S
C873 H858 0.930 . S
C873 N869 1.319 . S
C873 C871 1.397 . S
C874 C871 1.367 . S
C874 C872 1.403 . S
C874 H881 0.929 . S
N875 Eu840 2.562 . S
N875 C876 1.325 . S
N875 C878 1.351 . S
C876 H862 0.929 . S
C876 N875 1.325 . S
C876 C880 1.416 . S
C877 C878 1.430 . S
C877 C879 1.404 . S
C877 C906 1.387 . S
C878 C870 1.448 . S
C878 N875 1.351 . S
C878 C877 1.430 . S
C879 H868 0.930 . S
C879 C877 1.404 . S
C879 C880 1.366 . S
C880 H859 0.930 . S
C880 C876 1.416 . S
C880 C879 1.366 . S
H881 C874 0.929 . S
H882 C905 0.931 . S
H883 C906 0.931 . S
O884 Eu840 2.462 . S
O884 C904 1.252 . S
O885 Eu840 2.373 . S
O885 C896 1.249 . S
O886 Eu851 2.335 . S
O886 C896 1.264 . S
O887 Eu840 2.432 . S
O887 C904 1.268 . S
O888 Eu840 2.291 . S
O888 C903 1.255 . S
O889 Eu851 2.372 . S
O889 C903 1.257 . S
O890 Eu851 2.462 . S
O890 C915 1.252 . S
O891 Eu851 2.373 . S
O891 C907 1.249 . S
O892 Eu840 2.335 . S
O892 C907 1.264 . S
O893 Eu851 2.432 . S
O893 C915 1.268 . S
O894 Eu851 2.291 . S
O894 C914 1.255 . S
O895 Eu840 2.372 . S
O895 C914 1.257 . S
C896 O885 1.249 . S
C896 O886 1.264 . S
C897 C900 1.382 . S
C897 C902 1.390 . S
C897 C904 1.506 . S
C898 C899 1.398 . S
C898 C902 1.392 . S
C899 C898 1.398 . S
C899 C901 1.372 . S
C899 H916 0.931 . S
C900 C897 1.382 . S
C900 C901 1.390 . S
C900 H917 0.931 . S
C901 C899 1.372 . S
C901 C900 1.390 . S
C901 H918 0.929 . S
C902 C897 1.390 . S
C902 C898 1.392 . S
C902 H919 0.930 . S
C903 O888 1.255 . S
C903 O889 1.257 . S
C904 Eu840 2.787 . S
C904 O884 1.252 . S
C904 O887 1.268 . S
C904 C897 1.506 . S
C905 C872 1.439 . S
C905 H882 0.931 . S
C905 C906 1.374 . S
C906 C877 1.387 . S
C906 H883 0.931 . S
C906 C905 1.374 . S
C907 O891 1.249 . S
C907 O892 1.264 . S
C908 C911 1.382 . S
C908 C912 1.390 . S
C908 C915 1.506 . S
C909 C910 1.398 . S
C909 C912 1.392 . S
C910 C909 1.398 . S
C910 C913 1.372 . S
C910 H920 0.931 . S
C911 C908 1.382 . S
C911 C913 1.390 . S
C911 H921 0.931 . S
C912 C908 1.390 . S
C912 C909 1.392 . S
C912 H922 0.930 . S
C913 C910 1.372 . S
C913 C911 1.390 . S
C913 H923 0.929 . S
C914 O894 1.255 . S
C914 O895 1.257 . S
C915 Eu851 2.787 . S
C915 O890 1.252 . S
C915 O893 1.268 . S
C915 C908 1.506 . S
H916 C899 0.931 . S
H917 C900 0.931 . S
H918 C901 0.929 . S
H919 C902 0.930 . S
H920 C910 0.931 . S
H921 C911 0.931 . S
H922 C912 0.930 . S
H923 C913 0.929 . S
Eu924 N953 2.600 . S
Eu924 N959 2.562 . S
Eu924 O968 2.462 . S
Eu924 O969 2.373 . S
Eu924 O971 2.432 . S
Eu924 O972 2.291 . S
Eu924 O976 2.335 . S
Eu924 O979 2.372 . S
Eu924 C988 2.787 . S
C925 N926 1.365 . S
C925 C928 1.405 . S
C925 C932 1.448 . S
N926 C925 1.365 . S
N926 C929 1.319 . S
N926 Eu935 2.600 . S
C927 C929 1.397 . S
C927 C930 1.367 . S
C927 H947 0.931 . S
C928 C925 1.405 . S
C928 C930 1.403 . S
C928 C934 1.439 . S
C929 N926 1.319 . S
C929 C927 1.397 . S
C929 H940 0.930 . S
C930 C927 1.367 . S
C930 C928 1.403 . S
C930 H951 0.929 . S
C931 C932 1.430 . S
C931 C933 1.387 . S
C931 C937 1.404 . S
C932 C925 1.448 . S
C932 C931 1.430 . S
C932 N936 1.351 . S
C933 C931 1.387 . S
C933 C934 1.374 . S
C933 H948 0.931 . S
C934 C928 1.439 . S
C934 C933 1.374 . S
C934 H949 0.931 . S
Eu935 N926 2.600 . S
Eu935 N936 2.562 . S
Eu935 O970 2.335 . S
Eu935 O973 2.372 . S
Eu935 O974 2.462 . S
Eu935 O975 2.373 . S
Eu935 O977 2.432 . S
Eu935 O978 2.291 . S
Eu935 C999 2.787 1_554 S
N936 C932 1.351 . S
N936 Eu935 2.562 . S
N936 C938 1.325 . S
C937 C931 1.404 . S
C937 C939 1.366 . S
C937 H945 0.930 . S
C938 N936 1.325 . S
C938 C939 1.416 . S
C938 H944 0.929 . S
C939 C937 1.366 . S
C939 C938 1.416 . S
C939 H941 0.930 . S
H940 C929 0.930 . S
H941 C939 0.930 . S
H942 C957 0.930 . S
H943 C964 0.930 . S
H944 C938 0.929 . S
H945 C937 0.930 . S
H946 C960 0.929 . S
H947 C927 0.931 . S
H948 C933 0.931 . S
H949 C934 0.931 . S
H950 C955 0.931 . S
H951 C930 0.929 . S
H952 C963 0.930 . S
N953 Eu924 2.600 . S
N953 C954 1.365 . S
N953 C957 1.319 . S
C954 N953 1.365 . S
C954 C956 1.405 . S
C954 C962 1.448 . S
C955 H950 0.931 . S
C955 C957 1.397 . S
C955 C958 1.367 . S
C956 C954 1.405 . S
C956 C958 1.403 . S
C956 C989 1.439 . S
C957 H942 0.930 . S
C957 N953 1.319 . S
C957 C955 1.397 . S
C958 C955 1.367 . S
C958 C956 1.403 . S
C958 H965 0.929 . S
N959 Eu924 2.562 . S
N959 C960 1.325 . S
N959 C962 1.351 . S
C960 H946 0.929 . S
C960 N959 1.325 . S
C960 C964 1.416 . S
C961 C962 1.430 . S
C961 C963 1.404 . S
C961 C990 1.387 . S
C962 C954 1.448 . S
C962 N959 1.351 . S
C962 C961 1.430 . S
C963 H952 0.930 . S
C963 C961 1.404 . S
C963 C964 1.366 . S
C964 H943 0.930 . S
C964 C960 1.416 . S
C964 C963 1.366 . S
H965 C958 0.929 . S
H966 C989 0.931 . S
H967 C990 0.931 . S
O968 Eu924 2.462 . S
O968 C988 1.252 . S
O969 Eu924 2.373 . S
O969 C980 1.249 . S
O970 Eu935 2.335 . S
O970 C980 1.264 . S
O971 Eu924 2.432 . S
O971 C988 1.268 . S
O972 Eu924 2.291 . S
O972 C987 1.255 . S
O973 Eu935 2.372 . S
O973 C987 1.257 . S
O974 Eu935 2.462 . S
O974 C999 1.252 1_554 S
O975 Eu935 2.373 . S
O975 C991 1.249 . S
O976 Eu924 2.335 . S
O976 C991 1.264 . S
O977 Eu935 2.432 . S
O977 C999 1.268 1_554 S
O978 Eu935 2.291 . S
O978 C998 1.255 . S
O979 Eu924 2.372 . S
O979 C998 1.257 . S
C980 O969 1.249 . S
C980 O970 1.264 . S
C981 C984 1.382 . S
C981 C986 1.390 . S
C981 C988 1.506 . S
C982 C983 1.398 . S
C982 C986 1.392 . S
C983 C982 1.398 . S
C983 C985 1.372 . S
C983 H1000 0.931 . S
C984 C981 1.382 . S
C984 C985 1.390 . S
C984 H1001 0.931 . S
C985 C983 1.372 . S
C985 C984 1.390 . S
C985 H1002 0.929 . S
C986 C981 1.390 . S
C986 C982 1.392 . S
C986 H1003 0.930 . S
C987 O972 1.255 . S
C987 O973 1.257 . S
C988 Eu924 2.787 . S
C988 O968 1.252 . S
C988 O971 1.268 . S
C988 C981 1.506 . S
C989 C956 1.439 . S
C989 H966 0.931 . S
C989 C990 1.374 . S
C990 C961 1.387 . S
C990 H967 0.931 . S
C990 C989 1.374 . S
C991 O975 1.249 . S
C991 O976 1.264 . S
C992 C995 1.382 . S
C992 C996 1.390 . S
C992 C999 1.506 . S
C993 C994 1.398 . S
C993 C996 1.392 . S
C994 C993 1.398 . S
C994 C997 1.372 . S
C994 H1004 0.931 . S
C995 C992 1.382 . S
C995 C997 1.390 . S
C995 H1005 0.931 . S
C996 C992 1.390 . S
C996 C993 1.392 . S
C996 H1006 0.930 . S
C997 C994 1.372 . S
C997 C995 1.390 . S
C997 H1007 0.929 . S
C998 O978 1.255 . S
C998 O979 1.257 . S
C999 Eu935 2.787 1_556 S
C999 O974 1.252 1_556 S
C999 O977 1.268 1_556 S
C999 C992 1.506 . S
H1000 C983 0.931 . S
H1001 C984 0.931 . S
H1002 C985 0.929 . S
H1003 C986 0.930 . S
H1004 C994 0.931 . S
H1005 C995 0.931 . S
H1006 C996 0.930 . S
H1007 C997 0.929 . S
H1008 C1016 0.929 . S
H1009 C1018 0.930 . S
H1010 C1020 0.930 . S
H1011 C1023 0.929 . S
H1012 C1026 0.930 . S
H1013 C1028 0.960 . S
H1014 C1028 0.960 . S
H1015 C1028 0.960 . S
C1016 H1008 0.929 . S
C1016 C1017 1.377 . S
C1016 C1018 1.384 . S
C1017 C1016 1.377 . S
C1017 C1023 1.390 . S
C1018 H1009 0.930 . S
C1018 C1016 1.384 . S
C1018 C1019 1.372 . S
C1019 C1018 1.372 . S
C1019 C1020 1.400 . S
C1019 C1024 1.490 . S
C1020 H1010 0.930 . S
C1020 C1019 1.400 . S
C1020 C1023 1.386 . S
H1021 C1037 0.930 . S
H1022 C1038 0.931 . S
C1023 H1011 0.929 . S
C1023 C1017 1.390 . S
C1023 C1020 1.386 . S
C1024 C1019 1.490 . S
C1024 C1026 1.395 . S
C1024 C1027 1.403 . S
H1025 C1031 0.930 . S
C1026 H1012 0.930 . S
C1026 C1024 1.395 . S
C1026 C1029 1.403 . S
C1027 C1024 1.403 . S
C1027 C1028 1.524 . S
C1027 C1031 1.400 . S
C1028 H1013 0.960 . S
C1028 H1014 0.960 . S
C1028 H1015 0.960 . S
C1028 C1027 1.524 . S
C1029 C1026 1.403 . S
C1029 C1030 1.392 . S
C1029 C1033 1.495 . S
C1030 C1029 1.392 . S
C1030 C1031 1.385 . S
C1030 C1032 1.478 . S
C1031 H1025 0.930 . S
C1031 C1027 1.400 . S
C1031 C1030 1.385 . S
C1032 C1030 1.478 . S
C1032 C1034 1.381 . S
C1032 C1038 1.383 . S
C1033 C1029 1.495 . S
C1033 H1039 0.959 . S
C1033 H1040 0.961 . S
C1033 H1041 0.960 . S
C1034 C1032 1.381 . S
C1034 C1035 1.394 . S
C1034 H1042 0.930 . S
C1035 C1034 1.394 . S
C1035 C1036 1.383 . S
C1035 H1043 0.929 . S
C1036 C1035 1.383 . S
C1036 C1037 1.377 . S
C1037 H1021 0.930 . S
C1037 C1036 1.377 . S
C1037 C1038 1.379 . S
C1038 H1022 0.931 . S
C1038 C1032 1.383 . S
C1038 C1037 1.379 . S
H1039 C1033 0.959 . S
H1040 C1033 0.961 . S
H1041 C1033 0.960 . S
H1042 C1034 0.930 . S
H1043 C1035 0.929 . S
H1044 C1052 0.929 . S
H1045 C1054 0.930 . S
H1046 C1056 0.930 . S
H1047 C1059 0.929 . S
H1048 C1062 0.930 . S
H1049 C1064 0.960 . S
H1050 C1064 0.960 . S
H1051 C1064 0.960 . S
C1052 H1044 0.929 . S
C1052 C1053 1.377 . S
C1052 C1054 1.384 . S
C1053 C1052 1.377 . S
C1053 C1059 1.390 . S
C1054 H1045 0.930 . S
C1054 C1052 1.384 . S
C1054 C1055 1.372 . S
C1055 C1054 1.372 . S
C1055 C1056 1.400 . S
C1055 C1060 1.490 . S
C1056 H1046 0.930 . S
C1056 C1055 1.400 . S
C1056 C1059 1.386 . S
H1057 C1073 0.930 . S
H1058 C1074 0.931 . S
C1059 H1047 0.929 . S
C1059 C1053 1.390 . S
C1059 C1056 1.386 . S
C1060 C1055 1.490 . S
C1060 C1062 1.395 . S
C1060 C1063 1.403 . S
H1061 C1067 0.930 . S
C1062 H1048 0.930 . S
C1062 C1060 1.395 . S
C1062 C1065 1.403 . S
C1063 C1060 1.403 . S
C1063 C1064 1.524 . S
C1063 C1067 1.400 . S
C1064 H1049 0.960 . S
C1064 H1050 0.960 . S
C1064 H1051 0.960 . S
C1064 C1063 1.524 . S
C1065 C1062 1.403 . S
C1065 C1066 1.392 . S
C1065 C1069 1.495 . S
C1066 C1065 1.392 . S
C1066 C1067 1.385 . S
C1066 C1068 1.478 . S
C1067 H1061 0.930 . S
C1067 C1063 1.400 . S
C1067 C1066 1.385 . S
C1068 C1066 1.478 . S
C1068 C1070 1.381 . S
C1068 C1074 1.383 . S
C1069 C1065 1.495 . S
C1069 H1075 0.959 . S
C1069 H1076 0.961 . S
C1069 H1077 0.960 . S
C1070 C1068 1.381 . S
C1070 C1071 1.394 . S
C1070 H1078 0.930 . S
C1071 C1070 1.394 . S
C1071 C1072 1.383 . S
C1071 H1079 0.929 . S
C1072 C1071 1.383 . S
C1072 C1073 1.377 . S
C1073 H1057 0.930 . S
C1073 C1072 1.377 . S
C1073 C1074 1.379 . S
C1074 H1058 0.931 . S
C1074 C1068 1.383 . S
C1074 C1073 1.379 . S
H1075 C1069 0.959 . S
H1076 C1069 0.961 . S
H1077 C1069 0.960 . S
H1078 C1070 0.930 . S
H1079 C1071 0.929 . S
H1080 C1088 0.929 . S
H1081 C1090 0.930 . S
H1082 C1092 0.930 . S
H1083 C1095 0.929 . S
H1084 C1098 0.930 . S
H1085 C1100 0.960 . S
H1086 C1100 0.960 . S
H1087 C1100 0.960 . S
C1088 H1080 0.929 . S
C1088 C1089 1.377 . S
C1088 C1090 1.384 . S
C1089 C1088 1.377 . S
C1089 C1095 1.390 . S
C1090 H1081 0.930 . S
C1090 C1088 1.384 . S
C1090 C1091 1.372 . S
C1091 C1090 1.372 . S
C1091 C1092 1.400 . S
C1091 C1096 1.490 . S
C1092 H1082 0.930 . S
C1092 C1091 1.400 . S
C1092 C1095 1.386 . S
H1093 C1109 0.930 . S
H1094 C1110 0.931 . S
C1095 H1083 0.929 . S
C1095 C1089 1.390 . S
C1095 C1092 1.386 . S
C1096 C1091 1.490 . S
C1096 C1098 1.395 . S
C1096 C1099 1.403 . S
H1097 C1103 0.930 . S
C1098 H1084 0.930 . S
C1098 C1096 1.395 . S
C1098 C1101 1.403 . S
C1099 C1096 1.403 . S
C1099 C1100 1.524 . S
C1099 C1103 1.400 . S
C1100 H1085 0.960 . S
C1100 H1086 0.960 . S
C1100 H1087 0.960 . S
C1100 C1099 1.524 . S
C1101 C1098 1.403 . S
C1101 C1102 1.392 . S
C1101 C1105 1.495 . S
C1102 C1101 1.392 . S
C1102 C1103 1.385 . S
C1102 C1104 1.478 . S
C1103 H1097 0.930 . S
C1103 C1099 1.400 . S
C1103 C1102 1.385 . S
C1104 C1102 1.478 . S
C1104 C1106 1.381 . S
C1104 C1110 1.383 . S
C1105 C1101 1.495 . S
C1105 H1111 0.959 . S
C1105 H1112 0.961 . S
C1105 H1113 0.960 . S
C1106 C1104 1.381 . S
C1106 C1107 1.394 . S
C1106 H1114 0.930 . S
C1107 C1106 1.394 . S
C1107 C1108 1.383 . S
C1107 H1115 0.929 . S
C1108 C1107 1.383 . S
C1108 C1109 1.377 . S
C1109 H1093 0.930 . S
C1109 C1108 1.377 . S
C1109 C1110 1.379 . S
C1110 H1094 0.931 . S
C1110 C1104 1.383 . S
C1110 C1109 1.379 . S
H1111 C1105 0.959 . S
H1112 C1105 0.961 . S
H1113 C1105 0.960 . S
H1114 C1106 0.930 . S
H1115 C1107 0.929 . S
H1116 C1124 0.929 . S
H1117 C1126 0.930 . S
H1118 C1128 0.930 . S
H1119 C1131 0.929 . S
H1120 C1134 0.930 . S
H1121 C1136 0.960 . S
H1122 C1136 0.960 . S
H1123 C1136 0.960 . S
C1124 H1116 0.929 . S
C1124 C1125 1.377 . S
C1124 C1126 1.384 . S
C1125 C1124 1.377 . S
C1125 C1131 1.390 . S
C1126 H1117 0.930 . S
C1126 C1124 1.384 . S
C1126 C1127 1.372 . S
C1127 C1126 1.372 . S
C1127 C1128 1.400 . S
C1127 C1132 1.490 . S
C1128 H1118 0.930 . S
C1128 C1127 1.400 . S
C1128 C1131 1.386 . S
H1129 C1145 0.930 . S
H1130 C1146 0.931 . S
C1131 H1119 0.929 . S
C1131 C1125 1.390 . S
C1131 C1128 1.386 . S
C1132 C1127 1.490 . S
C1132 C1134 1.395 . S
C1132 C1135 1.403 . S
H1133 C1139 0.930 . S
C1134 H1120 0.930 . S
C1134 C1132 1.395 . S
C1134 C1137 1.403 . S
C1135 C1132 1.403 . S
C1135 C1136 1.524 . S
C1135 C1139 1.400 . S
C1136 H1121 0.960 . S
C1136 H1122 0.960 . S
C1136 H1123 0.960 . S
C1136 C1135 1.524 . S
C1137 C1134 1.403 . S
C1137 C1138 1.392 . S
C1137 C1141 1.495 . S
C1138 C1137 1.392 . S
C1138 C1139 1.385 . S
C1138 C1140 1.478 . S
C1139 H1133 0.930 . S
C1139 C1135 1.400 . S
C1139 C1138 1.385 . S
C1140 C1138 1.478 . S
C1140 C1142 1.381 . S
C1140 C1146 1.383 . S
C1141 C1137 1.495 . S
C1141 H1147 0.959 . S
C1141 H1148 0.961 . S
C1141 H1149 0.960 . S
C1142 C1140 1.381 . S
C1142 C1143 1.394 . S
C1142 H1150 0.930 . S
C1143 C1142 1.394 . S
C1143 C1144 1.383 . S
C1143 H1151 0.929 . S
C1144 C1143 1.383 . S
C1144 C1145 1.377 . S
C1145 H1129 0.930 . S
C1145 C1144 1.377 . S
C1145 C1146 1.379 . S
C1146 H1130 0.931 . S
C1146 C1140 1.383 . S
C1146 C1145 1.379 . S
H1147 C1141 0.959 . S
H1148 C1141 0.961 . S
H1149 C1141 0.960 . S
H1150 C1142 0.930 . S
H1151 C1143 0.929 . S
H1152 C1160 0.929 . S
H1153 C1162 0.930 . S
H1154 C1164 0.930 . S
H1155 C1167 0.929 . S
H1156 C1170 0.930 . S
H1157 C1172 0.960 . S
H1158 C1172 0.960 . S
H1159 C1172 0.960 . S
C1160 H1152 0.929 . S
C1160 C1161 1.377 . S
C1160 C1162 1.384 . S
C1161 C1160 1.377 . S
C1161 C1167 1.390 . S
C1162 H1153 0.930 . S
C1162 C1160 1.384 . S
C1162 C1163 1.372 . S
C1163 C1162 1.372 . S
C1163 C1164 1.400 . S
C1163 C1168 1.490 . S
C1164 H1154 0.930 . S
C1164 C1163 1.400 . S
C1164 C1167 1.386 . S
H1165 C1181 0.930 . S
H1166 C1182 0.931 . S
C1167 H1155 0.929 . S
C1167 C1161 1.390 . S
C1167 C1164 1.386 . S
C1168 C1163 1.490 . S
C1168 C1170 1.395 . S
C1168 C1171 1.403 . S
H1169 C1175 0.930 . S
C1170 H1156 0.930 . S
C1170 C1168 1.395 . S
C1170 C1173 1.403 . S
C1171 C1168 1.403 . S
C1171 C1172 1.524 . S
C1171 C1175 1.400 . S
C1172 H1157 0.960 . S
C1172 H1158 0.960 . S
C1172 H1159 0.960 . S
C1172 C1171 1.524 . S
C1173 C1170 1.403 . S
C1173 C1174 1.392 . S
C1173 C1177 1.495 . S
C1174 C1173 1.392 . S
C1174 C1175 1.385 . S
C1174 C1176 1.478 . S
C1175 H1169 0.930 . S
C1175 C1171 1.400 . S
C1175 C1174 1.385 . S
C1176 C1174 1.478 . S
C1176 C1178 1.381 . S
C1176 C1182 1.383 . S
C1177 C1173 1.495 . S
C1177 H1183 0.959 . S
C1177 H1184 0.961 . S
C1177 H1185 0.960 . S
C1178 C1176 1.381 . S
C1178 C1179 1.394 . S
C1178 H1186 0.930 . S
C1179 C1178 1.394 . S
C1179 C1180 1.383 . S
C1179 H1187 0.929 . S
C1180 C1179 1.383 . S
C1180 C1181 1.377 . S
C1181 H1165 0.930 . S
C1181 C1180 1.377 . S
C1181 C1182 1.379 . S
C1182 H1166 0.931 . S
C1182 C1176 1.383 . S
C1182 C1181 1.379 . S
H1183 C1177 0.959 . S
H1184 C1177 0.961 . S
H1185 C1177 0.960 . S
H1186 C1178 0.930 . S
H1187 C1179 0.929 . S
H1188 C1196 0.929 . S
H1189 C1198 0.930 . S
H1190 C1200 0.930 . S
H1191 C1203 0.929 . S
H1192 C1206 0.930 . S
H1193 C1208 0.960 . S
H1194 C1208 0.960 . S
H1195 C1208 0.960 . S
C1196 H1188 0.929 . S
C1196 C1197 1.377 . S
C1196 C1198 1.384 . S
C1197 C1196 1.377 . S
C1197 C1203 1.390 . S
C1198 H1189 0.930 . S
C1198 C1196 1.384 . S
C1198 C1199 1.372 . S
C1199 C1198 1.372 . S
C1199 C1200 1.400 . S
C1199 C1204 1.490 . S
C1200 H1190 0.930 . S
C1200 C1199 1.400 . S
C1200 C1203 1.386 . S
H1201 C1217 0.930 . S
H1202 C1218 0.931 . S
C1203 H1191 0.929 . S
C1203 C1197 1.390 . S
C1203 C1200 1.386 . S
C1204 C1199 1.490 . S
C1204 C1206 1.395 . S
C1204 C1207 1.403 . S
H1205 C1211 0.930 . S
C1206 H1192 0.930 . S
C1206 C1204 1.395 . S
C1206 C1209 1.403 . S
C1207 C1204 1.403 . S
C1207 C1208 1.524 . S
C1207 C1211 1.400 . S
C1208 H1193 0.960 . S
C1208 H1194 0.960 . S
C1208 H1195 0.960 . S
C1208 C1207 1.524 . S
C1209 C1206 1.403 . S
C1209 C1210 1.392 . S
C1209 C1213 1.495 . S
C1210 C1209 1.392 . S
C1210 C1211 1.385 . S
C1210 C1212 1.478 . S
C1211 H1205 0.930 . S
C1211 C1207 1.400 . S
C1211 C1210 1.385 . S
C1212 C1210 1.478 . S
C1212 C1214 1.381 . S
C1212 C1218 1.383 . S
C1213 C1209 1.495 . S
C1213 H1219 0.959 . S
C1213 H1220 0.961 . S
C1213 H1221 0.960 . S
C1214 C1212 1.381 . S
C1214 C1215 1.394 . S
C1214 H1222 0.930 . S
C1215 C1214 1.394 . S
C1215 C1216 1.383 . S
C1215 H1223 0.929 . S
C1216 C1215 1.383 . S
C1216 C1217 1.377 . S
C1217 H1201 0.930 . S
C1217 C1216 1.377 . S
C1217 C1218 1.379 . S
C1218 H1202 0.931 . S
C1218 C1212 1.383 . S
C1218 C1217 1.379 . S
H1219 C1213 0.959 . S
H1220 C1213 0.961 . S
H1221 C1213 0.960 . S
H1222 C1214 0.930 . S
H1223 C1215 0.929 . S
H1224 C1232 0.929 . S
H1225 C1234 0.930 . S
H1226 C1236 0.930 . S
H1227 C1239 0.929 . S
H1228 C1242 0.930 . S
H1229 C1244 0.960 1_554 S
H1230 C1244 0.960 . S
H1231 C1244 0.960 . S
C1232 H1224 0.929 . S
C1232 C1233 1.377 . S
C1232 C1234 1.384 . S
C1233 C1232 1.377 . S
C1233 C1239 1.390 . S
C1234 H1225 0.930 . S
C1234 C1232 1.384 . S
C1234 C1235 1.372 . S
C1235 C1234 1.372 . S
C1235 C1236 1.400 . S
C1235 C1240 1.490 . S
C1236 H1226 0.930 . S
C1236 C1235 1.400 . S
C1236 C1239 1.386 . S
H1237 C1253 0.930 . S
H1238 C1254 0.931 . S
C1239 H1227 0.929 . S
C1239 C1233 1.390 . S
C1239 C1236 1.386 . S
C1240 C1235 1.490 . S
C1240 C1242 1.395 . S
C1240 C1243 1.403 . S
H1241 C1247 0.930 . S
C1242 H1228 0.930 . S
C1242 C1240 1.395 . S
C1242 C1245 1.403 1_556 S
C1243 C1240 1.403 . S
C1243 C1244 1.524 . S
C1243 C1247 1.400 1_556 S
C1244 H1229 0.960 1_556 S
C1244 H1230 0.960 . S
C1244 H1231 0.960 . S
C1244 C1243 1.524 . S
C1245 C1242 1.403 1_554 S
C1245 C1246 1.392 . S
C1245 C1249 1.495 . S
C1246 C1245 1.392 . S
C1246 C1247 1.385 . S
C1246 C1248 1.478 . S
C1247 H1241 0.930 . S
C1247 C1243 1.400 1_554 S
C1247 C1246 1.385 . S
C1248 C1246 1.478 . S
C1248 C1250 1.381 . S
C1248 C1254 1.383 . S
C1249 C1245 1.495 . S
C1249 H1255 0.959 1_554 S
C1249 H1256 0.961 . S
C1249 H1257 0.960 . S
C1250 C1248 1.381 . S
C1250 C1251 1.394 . S
C1250 H1258 0.930 . S
C1251 C1250 1.394 . S
C1251 C1252 1.383 . S
C1251 H1259 0.929 . S
C1252 C1251 1.383 . S
C1252 C1253 1.377 . S
C1253 H1237 0.930 . S
C1253 C1252 1.377 . S
C1253 C1254 1.379 . S
C1254 H1238 0.931 . S
C1254 C1248 1.383 . S
C1254 C1253 1.379 . S
H1255 C1249 0.959 1_556 S
H1256 C1249 0.961 . S
H1257 C1249 0.960 . S
H1258 C1250 0.930 . S
H1259 C1251 0.929 . S
H1260 C1268 0.929 . S
H1261 C1270 0.930 . S
H1262 C1272 0.930 . S
H1263 C1275 0.929 . S
H1264 C1278 0.930 . S
H1265 C1280 0.960 . S
H1266 C1280 0.960 . S
H1267 C1280 0.960 . S
C1268 H1260 0.929 . S
C1268 C1269 1.377 . S
C1268 C1270 1.384 . S
C1269 C1268 1.377 . S
C1269 C1275 1.390 . S
C1270 H1261 0.930 . S
C1270 C1268 1.384 . S
C1270 C1271 1.372 . S
C1271 C1270 1.372 . S
C1271 C1272 1.400 . S
C1271 C1276 1.490 . S
C1272 H1262 0.930 . S
C1272 C1271 1.400 . S
C1272 C1275 1.386 . S
H1273 C1289 0.930 . S
H1274 C1290 0.931 . S
C1275 H1263 0.929 . S
C1275 C1269 1.390 . S
C1275 C1272 1.386 . S
C1276 C1271 1.490 . S
C1276 C1278 1.395 . S
C1276 C1279 1.403 . S
H1277 C1283 0.930 . S
C1278 H1264 0.930 . S
C1278 C1276 1.395 . S
C1278 C1281 1.403 . S
C1279 C1276 1.403 . S
C1279 C1280 1.524 . S
C1279 C1283 1.400 . S
C1280 H1265 0.960 . S
C1280 H1266 0.960 . S
C1280 H1267 0.960 . S
C1280 C1279 1.524 . S
C1281 C1278 1.403 . S
C1281 C1282 1.392 . S
C1281 C1285 1.495 . S
C1282 C1281 1.392 . S
C1282 C1283 1.385 . S
C1282 C1284 1.478 . S
C1283 H1277 0.930 . S
C1283 C1279 1.400 . S
C1283 C1282 1.385 . S
C1284 C1282 1.478 . S
C1284 C1286 1.381 . S
C1284 C1290 1.383 . S
C1285 C1281 1.495 . S
C1285 H1291 0.959 . S
C1285 H1292 0.961 . S
C1285 H1293 0.960 . S
C1286 C1284 1.381 . S
C1286 C1287 1.394 . S
C1286 H1294 0.930 . S
C1287 C1286 1.394 . S
C1287 C1288 1.383 . S
C1287 H1295 0.929 . S
C1288 C1287 1.383 . S
C1288 C1289 1.377 . S
C1289 H1273 0.930 . S
C1289 C1288 1.377 . S
C1289 C1290 1.379 . S
C1290 H1274 0.931 . S
C1290 C1284 1.383 . S
C1290 C1289 1.379 . S
H1291 C1285 0.959 . S
H1292 C1285 0.961 . S
H1293 C1285 0.960 . S
H1294 C1286 0.930 . S
H1295 C1287 0.929 . S
H1296 C1304 0.929 . S
H1297 C1306 0.930 . S
H1298 C1308 0.930 . S
H1299 C1311 0.929 . S
H1300 C1314 0.930 . S
H1301 C1316 0.960 . S
H1302 C1316 0.960 . S
H1303 C1316 0.960 . S
C1304 H1296 0.929 . S
C1304 C1305 1.377 . S
C1304 C1306 1.384 . S
C1305 C1304 1.377 . S
C1305 C1311 1.390 . S
C1306 H1297 0.930 . S
C1306 C1304 1.384 . S
C1306 C1307 1.372 . S
C1307 C1306 1.372 . S
C1307 C1308 1.400 . S
C1307 C1312 1.490 . S
C1308 H1298 0.930 . S
C1308 C1307 1.400 . S
C1308 C1311 1.386 . S
H1309 C1325 0.930 . S
H1310 C1326 0.931 . S
C1311 H1299 0.929 . S
C1311 C1305 1.390 . S
C1311 C1308 1.386 . S
C1312 C1307 1.490 . S
C1312 C1314 1.395 . S
C1312 C1315 1.403 . S
H1313 C1319 0.930 . S
C1314 H1300 0.930 . S
C1314 C1312 1.395 . S
C1314 C1317 1.403 . S
C1315 C1312 1.403 . S
C1315 C1316 1.524 . S
C1315 C1319 1.400 . S
C1316 H1301 0.960 . S
C1316 H1302 0.960 . S
C1316 H1303 0.960 . S
C1316 C1315 1.524 . S
C1317 C1314 1.403 . S
C1317 C1318 1.392 . S
C1317 C1321 1.495 . S
C1318 C1317 1.392 . S
C1318 C1319 1.385 . S
C1318 C1320 1.478 . S
C1319 H1313 0.930 . S
C1319 C1315 1.400 . S
C1319 C1318 1.385 . S
C1320 C1318 1.478 . S
C1320 C1322 1.381 . S
C1320 C1326 1.383 . S
C1321 C1317 1.495 . S
C1321 H1327 0.959 . S
C1321 H1328 0.961 . S
C1321 H1329 0.960 . S
C1322 C1320 1.381 . S
C1322 C1323 1.394 . S
C1322 H1330 0.930 . S
C1323 C1322 1.394 . S
C1323 C1324 1.383 . S
C1323 H1331 0.929 . S
C1324 C1323 1.383 . S
C1324 C1325 1.377 . S
C1325 H1309 0.930 . S
C1325 C1324 1.377 . S
C1325 C1326 1.379 . S
C1326 H1310 0.931 . S
C1326 C1320 1.383 . S
C1326 C1325 1.379 . S
H1327 C1321 0.959 . S
H1328 C1321 0.961 . S
H1329 C1321 0.960 . S
H1330 C1322 0.930 . S
H1331 C1323 0.929 . S
H1332 C1340 0.929 . S
H1333 C1342 0.930 . S
H1334 C1344 0.930 . S
H1335 C1347 0.929 . S
H1336 C1350 0.930 . S
H1337 C1352 0.960 . S
H1338 C1352 0.960 . S
H1339 C1352 0.960 . S
C1340 H1332 0.929 . S
C1340 C1341 1.377 . S
C1340 C1342 1.384 . S
C1341 C1340 1.377 . S
C1341 C1347 1.390 . S
C1342 H1333 0.930 . S
C1342 C1340 1.384 . S
C1342 C1343 1.372 . S
C1343 C1342 1.372 . S
C1343 C1344 1.400 . S
C1343 C1348 1.490 . S
C1344 H1334 0.930 . S
C1344 C1343 1.400 . S
C1344 C1347 1.386 . S
H1345 C1361 0.930 . S
H1346 C1362 0.931 . S
C1347 H1335 0.929 . S
C1347 C1341 1.390 . S
C1347 C1344 1.386 . S
C1348 C1343 1.490 . S
C1348 C1350 1.395 . S
C1348 C1351 1.403 . S
H1349 C1355 0.930 . S
C1350 H1336 0.930 . S
C1350 C1348 1.395 . S
C1350 C1353 1.403 1_556 S
C1351 C1348 1.403 . S
C1351 C1352 1.524 . S
C1351 C1355 1.400 1_556 S
C1352 H1337 0.960 . S
C1352 H1338 0.960 . S
C1352 H1339 0.960 . S
C1352 C1351 1.524 . S
C1353 C1350 1.403 1_554 S
C1353 C1354 1.392 . S
C1353 C1357 1.495 . S
C1354 C1353 1.392 . S
C1354 C1355 1.385 . S
C1354 C1356 1.478 . S
C1355 H1349 0.930 . S
C1355 C1351 1.400 1_554 S
C1355 C1354 1.385 . S
C1356 C1354 1.478 . S
C1356 C1358 1.381 . S
C1356 C1362 1.383 . S
C1357 C1353 1.495 . S
C1357 H1363 0.959 . S
C1357 H1364 0.961 . S
C1357 H1365 0.960 . S
C1358 C1356 1.381 . S
C1358 C1359 1.394 . S
C1358 H1366 0.930 . S
C1359 C1358 1.394 . S
C1359 C1360 1.383 . S
C1359 H1367 0.929 . S
C1360 C1359 1.383 . S
C1360 C1361 1.377 . S
C1361 H1345 0.930 . S
C1361 C1360 1.377 . S
C1361 C1362 1.379 . S
C1362 H1346 0.931 . S
C1362 C1356 1.383 . S
C1362 C1361 1.379 . S
H1363 C1357 0.959 . S
H1364 C1357 0.961 . S
H1365 C1357 0.960 . S
H1366 C1358 0.930 . S
H1367 C1359 0.929 . S
H1368 C1376 0.929 . S
H1369 C1378 0.930 . S
H1370 C1380 0.930 . S
H1371 C1383 0.929 . S
H1372 C1386 0.930 . S
H1373 C1388 0.960 . S
H1374 C1388 0.960 . S
H1375 C1388 0.960 . S
C1376 H1368 0.929 . S
C1376 C1377 1.377 . S
C1376 C1378 1.384 . S
C1377 C1376 1.377 . S
C1377 C1383 1.390 . S
C1378 H1369 0.930 . S
C1378 C1376 1.384 . S
C1378 C1379 1.372 . S
C1379 C1378 1.372 . S
C1379 C1380 1.400 . S
C1379 C1384 1.490 . S
C1380 H1370 0.930 . S
C1380 C1379 1.400 . S
C1380 C1383 1.386 . S
H1381 C1397 0.930 . S
H1382 C1398 0.931 . S
C1383 H1371 0.929 . S
C1383 C1377 1.390 . S
C1383 C1380 1.386 . S
C1384 C1379 1.490 . S
C1384 C1386 1.395 . S
C1384 C1387 1.403 . S
H1385 C1391 0.930 . S
C1386 H1372 0.930 . S
C1386 C1384 1.395 . S
C1386 C1389 1.403 . S
C1387 C1384 1.403 . S
C1387 C1388 1.524 . S
C1387 C1391 1.400 . S
C1388 H1373 0.960 . S
C1388 H1374 0.960 . S
C1388 H1375 0.960 . S
C1388 C1387 1.524 . S
C1389 C1386 1.403 . S
C1389 C1390 1.392 . S
C1389 C1393 1.495 . S
C1390 C1389 1.392 . S
C1390 C1391 1.385 . S
C1390 C1392 1.478 . S
C1391 H1385 0.930 . S
C1391 C1387 1.400 . S
C1391 C1390 1.385 . S
C1392 C1390 1.478 . S
C1392 C1394 1.381 . S
C1392 C1398 1.383 . S
C1393 C1389 1.495 . S
C1393 H1399 0.959 . S
C1393 H1400 0.961 . S
C1393 H1401 0.960 . S
C1394 C1392 1.381 . S
C1394 C1395 1.394 . S
C1394 H1402 0.930 . S
C1395 C1394 1.394 . S
C1395 C1396 1.383 . S
C1395 H1403 0.929 . S
C1396 C1395 1.383 . S
C1396 C1397 1.377 . S
C1397 H1381 0.930 . S
C1397 C1396 1.377 . S
C1397 C1398 1.379 . S
C1398 H1382 0.931 . S
C1398 C1392 1.383 . S
C1398 C1397 1.379 . S
H1399 C1393 0.959 . S
H1400 C1393 0.961 . S
H1401 C1393 0.960 . S
H1402 C1394 0.930 . S
H1403 C1395 0.929 . S
H1404 C1412 0.929 . S
H1405 C1414 0.930 . S
H1406 C1416 0.930 . S
H1407 C1419 0.929 . S
H1408 C1422 0.930 . S
H1409 C1424 0.960 . S
H1410 C1424 0.960 . S
H1411 C1424 0.960 . S
C1412 H1404 0.929 . S
C1412 C1413 1.377 . S
C1412 C1414 1.384 . S
C1413 C1412 1.377 . S
C1413 C1419 1.390 . S
C1414 H1405 0.930 . S
C1414 C1412 1.384 . S
C1414 C1415 1.372 . S
C1415 C1414 1.372 . S
C1415 C1416 1.400 . S
C1415 C1420 1.490 . S
C1416 H1406 0.930 . S
C1416 C1415 1.400 . S
C1416 C1419 1.386 . S
H1417 C1433 0.930 . S
H1418 C1434 0.931 . S
C1419 H1407 0.929 . S
C1419 C1413 1.390 . S
C1419 C1416 1.386 . S
C1420 C1415 1.490 . S
C1420 C1422 1.395 . S
C1420 C1423 1.403 . S
H1421 C1427 0.930 . S
C1422 H1408 0.930 . S
C1422 C1420 1.395 . S
C1422 C1425 1.403 . S
C1423 C1420 1.403 . S
C1423 C1424 1.524 . S
C1423 C1427 1.400 . S
C1424 H1409 0.960 . S
C1424 H1410 0.960 . S
C1424 H1411 0.960 . S
C1424 C1423 1.524 . S
C1425 C1422 1.403 . S
C1425 C1426 1.392 . S
C1425 C1429 1.495 . S
C1426 C1425 1.392 . S
C1426 C1427 1.385 . S
C1426 C1428 1.478 . S
C1427 H1421 0.930 . S
C1427 C1423 1.400 . S
C1427 C1426 1.385 . S
C1428 C1426 1.478 . S
C1428 C1430 1.381 . S
C1428 C1434 1.383 . S
C1429 C1425 1.495 . S
C1429 H1435 0.959 . S
C1429 H1436 0.961 . S
C1429 H1437 0.960 . S
C1430 C1428 1.381 . S
C1430 C1431 1.394 . S
C1430 H1438 0.930 . S
C1431 C1430 1.394 . S
C1431 C1432 1.383 . S
C1431 H1439 0.929 . S
C1432 C1431 1.383 . S
C1432 C1433 1.377 . S
C1433 H1417 0.930 . S
C1433 C1432 1.377 . S
C1433 C1434 1.379 . S
C1434 H1418 0.931 . S
C1434 C1428 1.383 . S
C1434 C1433 1.379 . S
H1435 C1429 0.959 . S
H1436 C1429 0.961 . S
H1437 C1429 0.960 . S
H1438 C1430 0.930 . S
H1439 C1431 0.929 . S
H1440 C1448 0.929 . S
H1441 C1450 0.930 . S
H1442 C1452 0.930 . S
H1443 C1455 0.929 . S
H1444 C1458 0.930 . S
H1445 C1460 0.960 . S
H1446 C1460 0.960 . S
H1447 C1460 0.960 . S
C1448 H1440 0.929 . S
C1448 C1449 1.377 . S
C1448 C1450 1.384 . S
C1449 C1448 1.377 . S
C1449 C1455 1.390 . S
C1450 H1441 0.930 . S
C1450 C1448 1.384 . S
C1450 C1451 1.372 . S
C1451 C1450 1.372 . S
C1451 C1452 1.400 . S
C1451 C1456 1.490 . S
C1452 H1442 0.930 . S
C1452 C1451 1.400 . S
C1452 C1455 1.386 . S
H1453 C1469 0.930 . S
H1454 C1470 0.931 . S
C1455 H1443 0.929 . S
C1455 C1449 1.390 . S
C1455 C1452 1.386 . S
C1456 C1451 1.490 . S
C1456 C1458 1.395 1_556 S
C1456 C1459 1.403 1_565 S
H1457 C1463 0.930 . S
C1458 H1444 0.930 . S
C1458 C1456 1.395 1_554 S
C1458 C1461 1.403 . S
C1459 C1456 1.403 1_545 S
C1459 C1460 1.524 . S
C1459 C1463 1.400 1_556 S
C1460 H1445 0.960 . S
C1460 H1446 0.960 . S
C1460 H1447 0.960 . S
C1460 C1459 1.524 . S
C1461 C1458 1.403 . S
C1461 C1462 1.392 1_565 S
C1461 C1465 1.495 . S
C1462 C1461 1.392 1_545 S
C1462 C1463 1.385 . S
C1462 C1464 1.478 . S
C1463 H1457 0.930 . S
C1463 C1459 1.400 1_554 S
C1463 C1462 1.385 . S
C1464 C1462 1.478 . S
C1464 C1466 1.381 . S
C1464 C1470 1.383 . S
C1465 C1461 1.495 . S
C1465 H1471 0.959 . S
C1465 H1472 0.961 . S
C1465 H1473 0.960 . S
C1466 C1464 1.381 . S
C1466 C1467 1.394 . S
C1466 H1474 0.930 . S
C1467 C1466 1.394 . S
C1467 C1468 1.383 . S
C1467 H1475 0.929 . S
C1468 C1467 1.383 . S
C1468 C1469 1.377 . S
C1469 H1453 0.930 . S
C1469 C1468 1.377 . S
C1469 C1470 1.379 . S
C1470 H1454 0.931 . S
C1470 C1464 1.383 . S
C1470 C1469 1.379 . S
H1471 C1465 0.959 . S
H1472 C1465 0.961 . S
H1473 C1465 0.960 . S
H1474 C1466 0.930 . S
H1475 C1467 0.929 . S
H1476 C1484 0.929 . S
H1477 C1486 0.930 . S
H1478 C1488 0.930 . S
H1479 C1491 0.929 . S
H1480 C1494 0.930 . S
H1481 C1496 0.960 . S
H1482 C1496 0.960 . S
H1483 C1496 0.960 . S
C1484 H1476 0.929 . S
C1484 C1485 1.377 . S
C1484 C1486 1.384 . S
C1485 C1484 1.377 . S
C1485 C1491 1.390 . S
C1486 H1477 0.930 . S
C1486 C1484 1.384 . S
C1486 C1487 1.372 . S
C1487 C1486 1.372 . S
C1487 C1488 1.400 . S
C1487 C1492 1.490 . S
C1488 H1478 0.930 . S
C1488 C1487 1.400 . S
C1488 C1491 1.386 . S
H1489 C1505 0.930 . S
H1490 C1506 0.931 . S
C1491 H1479 0.929 . S
C1491 C1485 1.390 . S
C1491 C1488 1.386 . S
C1492 C1487 1.490 . S
C1492 C1494 1.395 . S
C1492 C1495 1.403 . S
H1493 C1499 0.930 . S
C1494 H1480 0.930 . S
C1494 C1492 1.395 . S
C1494 C1497 1.403 . S
C1495 C1492 1.403 . S
C1495 C1496 1.524 . S
C1495 C1499 1.400 . S
C1496 H1481 0.960 . S
C1496 H1482 0.960 . S
C1496 H1483 0.960 . S
C1496 C1495 1.524 . S
C1497 C1494 1.403 . S
C1497 C1498 1.392 . S
C1497 C1501 1.495 . S
C1498 C1497 1.392 . S
C1498 C1499 1.385 . S
C1498 C1500 1.478 . S
C1499 H1493 0.930 . S
C1499 C1495 1.400 . S
C1499 C1498 1.385 . S
C1500 C1498 1.478 . S
C1500 C1502 1.381 . S
C1500 C1506 1.383 . S
C1501 C1497 1.495 . S
C1501 H1507 0.959 . S
C1501 H1508 0.961 . S
C1501 H1509 0.960 . S
C1502 C1500 1.381 . S
C1502 C1503 1.394 . S
C1502 H1510 0.930 . S
C1503 C1502 1.394 . S
C1503 C1504 1.383 . S
C1503 H1511 0.929 . S
C1504 C1503 1.383 . S
C1504 C1505 1.377 . S
C1505 H1489 0.930 . S
C1505 C1504 1.377 . S
C1505 C1506 1.379 . S
C1506 H1490 0.931 . S
C1506 C1500 1.383 . S
C1506 C1505 1.379 . S
H1507 C1501 0.959 . S
H1508 C1501 0.961 . S
H1509 C1501 0.960 . S
H1510 C1502 0.930 . S
H1511 C1503 0.929 . S
H1512 C1520 0.929 . S
H1513 C1522 0.930 . S
H1514 C1524 0.930 . S
H1515 C1527 0.929 . S
H1516 C1530 0.930 . S
H1517 C1532 0.960 . S
H1518 C1532 0.960 . S
H1519 C1532 0.960 . S
C1520 H1512 0.929 . S
C1520 C1521 1.377 . S
C1520 C1522 1.384 . S
C1521 C1520 1.377 . S
C1521 C1527 1.390 . S
C1522 H1513 0.930 . S
C1522 C1520 1.384 . S
C1522 C1523 1.372 . S
C1523 C1522 1.372 . S
C1523 C1524 1.400 . S
C1523 C1528 1.490 . S
C1524 H1514 0.930 . S
C1524 C1523 1.400 . S
C1524 C1527 1.386 . S
H1525 C1541 0.930 . S
H1526 C1542 0.931 . S
C1527 H1515 0.929 . S
C1527 C1521 1.390 . S
C1527 C1524 1.386 . S
C1528 C1523 1.490 . S
C1528 C1530 1.395 1_455 S
C1528 C1531 1.403 . S
H1529 C1535 0.930 1_455 S
C1530 H1516 0.930 . S
C1530 C1528 1.395 1_655 S
C1530 C1533 1.403 . S
C1531 C1528 1.403 . S
C1531 C1532 1.524 . S
C1531 C1535 1.400 1_455 S
C1532 H1517 0.960 . S
C1532 H1518 0.960 . S
C1532 H1519 0.960 . S
C1532 C1531 1.524 . S
C1533 C1530 1.403 . S
C1533 C1534 1.392 . S
C1533 C1537 1.495 . S
C1534 C1533 1.392 . S
C1534 C1535 1.385 . S
C1534 C1536 1.478 . S
C1535 H1529 0.930 1_655 S
C1535 C1531 1.400 1_655 S
C1535 C1534 1.385 . S
C1536 C1534 1.478 . S
C1536 C1538 1.381 . S
C1536 C1542 1.383 . S
C1537 C1533 1.495 . S
C1537 H1543 0.959 . S
C1537 H1544 0.961 . S
C1537 H1545 0.960 . S
C1538 C1536 1.381 . S
C1538 C1539 1.394 . S
C1538 H1546 0.930 . S
C1539 C1538 1.394 . S
C1539 C1540 1.383 . S
C1539 H1547 0.929 . S
C1540 C1539 1.383 . S
C1540 C1541 1.377 . S
C1541 H1525 0.930 . S
C1541 C1540 1.377 . S
C1541 C1542 1.379 . S
C1542 H1526 0.931 . S
C1542 C1536 1.383 . S
C1542 C1541 1.379 . S
H1543 C1537 0.959 . S
H1544 C1537 0.961 . S
H1545 C1537 0.960 . S
H1546 C1538 0.930 . S
H1547 C1539 0.929 . S
H1548 C1556 0.929 . S
H1549 C1558 0.930 . S
H1550 C1560 0.930 . S
H1551 C1563 0.929 . S
H1552 C1566 0.930 . S
H1553 C1568 0.960 . S
H1554 C1568 0.960 . S
H1555 C1568 0.960 1_565 S
C1556 H1548 0.929 . S
C1556 C1557 1.377 . S
C1556 C1558 1.384 . S
C1557 C1556 1.377 . S
C1557 C1563 1.390 . S
C1558 H1549 0.930 . S
C1558 C1556 1.384 . S
C1558 C1559 1.372 . S
C1559 C1558 1.372 . S
C1559 C1560 1.400 . S
C1559 C1564 1.490 . S
C1560 H1550 0.930 . S
C1560 C1559 1.400 . S
C1560 C1563 1.386 . S
H1561 C1577 0.930 . S
H1562 C1578 0.931 . S
C1563 H1551 0.929 . S
C1563 C1557 1.390 . S
C1563 C1560 1.386 . S
C1564 C1559 1.490 . S
C1564 C1566 1.395 . S
C1564 C1567 1.403 1_565 S
H1565 C1571 0.930 . S
C1566 H1552 0.930 . S
C1566 C1564 1.395 . S
C1566 C1569 1.403 1_554 S
C1567 C1564 1.403 1_545 S
C1567 C1568 1.524 . S
C1567 C1571 1.400 1_554 S
C1568 H1553 0.960 . S
C1568 H1554 0.960 . S
C1568 H1555 0.960 1_545 S
C1568 C1567 1.524 . S
C1569 C1566 1.403 1_556 S
C1569 C1570 1.392 1_565 S
C1569 C1573 1.495 . S
C1570 C1569 1.392 1_545 S
C1570 C1571 1.385 . S
C1570 C1572 1.478 . S
C1571 H1565 0.930 . S
C1571 C1567 1.400 1_556 S
C1571 C1570 1.385 . S
C1572 C1570 1.478 . S
C1572 C1574 1.381 . S
C1572 C1578 1.383 . S
C1573 C1569 1.495 . S
C1573 H1579 0.959 . S
C1573 H1580 0.961 . S
C1573 H1581 0.960 1_565 S
C1574 C1572 1.381 . S
C1574 C1575 1.394 . S
C1574 H1582 0.930 . S
C1575 C1574 1.394 . S
C1575 C1576 1.383 . S
C1575 H1583 0.929 . S
C1576 C1575 1.383 . S
C1576 C1577 1.377 . S
C1577 H1561 0.930 . S
C1577 C1576 1.377 . S
C1577 C1578 1.379 . S
C1578 H1562 0.931 . S
C1578 C1572 1.383 . S
C1578 C1577 1.379 . S
H1579 C1573 0.959 . S
H1580 C1573 0.961 . S
H1581 C1573 0.960 1_545 S
H1582 C1574 0.930 . S
H1583 C1575 0.929 . S
H1584 C1592 0.929 . S
H1585 C1594 0.930 . S
H1586 C1596 0.930 . S
H1587 C1599 0.929 . S
H1588 C1602 0.930 . S
H1589 C1604 0.960 . S
H1590 C1604 0.960 . S
H1591 C1604 0.960 . S
C1592 H1584 0.929 . S
C1592 C1593 1.377 . S
C1592 C1594 1.384 . S
C1593 C1592 1.377 . S
C1593 C1599 1.390 . S
C1594 H1585 0.930 . S
C1594 C1592 1.384 . S
C1594 C1595 1.372 . S
C1595 C1594 1.372 . S
C1595 C1596 1.400 . S
C1595 C1600 1.490 . S
C1596 H1586 0.930 . S
C1596 C1595 1.400 . S
C1596 C1599 1.386 . S
H1597 C1613 0.930 . S
H1598 C1614 0.931 . S
C1599 H1587 0.929 . S
C1599 C1593 1.390 . S
C1599 C1596 1.386 . S
C1600 C1595 1.490 . S
C1600 C1602 1.395 . S
C1600 C1603 1.403 . S
H1601 C1607 0.930 . S
C1602 H1588 0.930 . S
C1602 C1600 1.395 . S
C1602 C1605 1.403 . S
C1603 C1600 1.403 . S
C1603 C1604 1.524 . S
C1603 C1607 1.400 . S
C1604 H1589 0.960 . S
C1604 H1590 0.960 . S
C1604 H1591 0.960 . S
C1604 C1603 1.524 . S
C1605 C1602 1.403 . S
C1605 C1606 1.392 . S
C1605 C1609 1.495 . S
C1606 C1605 1.392 . S
C1606 C1607 1.385 . S
C1606 C1608 1.478 . S
C1607 H1601 0.930 . S
C1607 C1603 1.400 . S
C1607 C1606 1.385 . S
C1608 C1606 1.478 . S
C1608 C1610 1.381 . S
C1608 C1614 1.383 . S
C1609 C1605 1.495 . S
C1609 H1615 0.959 . S
C1609 H1616 0.961 . S
C1609 H1617 0.960 . S
C1610 C1608 1.381 . S
C1610 C1611 1.394 . S
C1610 H1618 0.930 . S
C1611 C1610 1.394 . S
C1611 C1612 1.383 . S
C1611 H1619 0.929 . S
C1612 C1611 1.383 . S
C1612 C1613 1.377 . S
C1613 H1597 0.930 . S
C1613 C1612 1.377 . S
C1613 C1614 1.379 . S
C1614 H1598 0.931 . S
C1614 C1608 1.383 . S
C1614 C1613 1.379 . S
H1615 C1609 0.959 . S
H1616 C1609 0.961 . S
H1617 C1609 0.960 . S
H1618 C1610 0.930 . S
H1619 C1611 0.929 . S
H1620 C1628 0.929 . S
H1621 C1630 0.930 . S
H1622 C1632 0.930 . S
H1623 C1635 0.929 . S
H1624 C1638 0.930 . S
H1625 C1640 0.960 . S
H1626 C1640 0.960 . S
H1627 C1640 0.960 . S
C1628 H1620 0.929 . S
C1628 C1629 1.377 . S
C1628 C1630 1.384 . S
C1629 C1628 1.377 . S
C1629 C1635 1.390 . S
C1630 H1621 0.930 . S
C1630 C1628 1.384 . S
C1630 C1631 1.372 . S
C1631 C1630 1.372 . S
C1631 C1632 1.400 . S
C1631 C1636 1.490 . S
C1632 H1622 0.930 . S
C1632 C1631 1.400 . S
C1632 C1635 1.386 . S
H1633 C1649 0.930 . S
H1634 C1650 0.931 . S
C1635 H1623 0.929 . S
C1635 C1629 1.390 . S
C1635 C1632 1.386 . S
C1636 C1631 1.490 . S
C1636 C1638 1.395 1_455 S
C1636 C1639 1.403 . S
H1637 C1643 0.930 . S
C1638 H1624 0.930 . S
C1638 C1636 1.395 1_655 S
C1638 C1641 1.403 . S
C1639 C1636 1.403 . S
C1639 C1640 1.524 . S
C1639 C1643 1.400 . S
C1640 H1625 0.960 . S
C1640 H1626 0.960 . S
C1640 H1627 0.960 . S
C1640 C1639 1.524 . S
C1641 C1638 1.403 . S
C1641 C1642 1.392 . S
C1641 C1645 1.495 . S
C1642 C1641 1.392 . S
C1642 C1643 1.385 1_655 S
C1642 C1644 1.478 . S
C1643 H1637 0.930 . S
C1643 C1639 1.400 . S
C1643 C1642 1.385 1_455 S
C1644 C1642 1.478 . S
C1644 C1646 1.381 . S
C1644 C1650 1.383 . S
C1645 C1641 1.495 . S
C1645 H1651 0.959 . S
C1645 H1652 0.961 . S
C1645 H1653 0.960 . S
C1646 C1644 1.381 . S
C1646 C1647 1.394 . S
C1646 H1654 0.930 . S
C1647 C1646 1.394 . S
C1647 C1648 1.383 . S
C1647 H1655 0.929 . S
C1648 C1647 1.383 . S
C1648 C1649 1.377 . S
C1649 H1633 0.930 . S
C1649 C1648 1.377 . S
C1649 C1650 1.379 . S
C1650 H1634 0.931 . S
C1650 C1644 1.383 . S
C1650 C1649 1.379 . S
H1651 C1645 0.959 . S
H1652 C1645 0.961 . S
H1653 C1645 0.960 . S
H1654 C1646 0.930 . S
H1655 C1647 0.929 . S
H1656 C1664 0.929 . S
H1657 C1666 0.930 . S
H1658 C1668 0.930 . S
H1659 C1671 0.929 . S
H1660 C1674 0.935 . S
H1661 C1676 0.960 . S
H1662 C1676 0.960 . S
H1663 C1676 0.960 . S
C1664 H1656 0.929 . S
C1664 C1665 1.377 . S
C1664 C1666 1.384 . S
C1665 C1664 1.377 . S
C1665 C1671 1.390 . S
C1666 H1657 0.930 . S
C1666 C1664 1.384 . S
C1666 C1667 1.372 . S
C1667 C1666 1.372 . S
C1667 C1668 1.400 . S
C1667 C1672 1.490 . S
C1668 H1658 0.930 . S
C1668 C1667 1.400 . S
C1668 C1671 1.386 . S
H1669 C1685 0.930 . S
H1670 C1686 0.931 . S
C1671 H1659 0.929 . S
C1671 C1665 1.390 . S
C1671 C1668 1.386 . S
C1672 C1667 1.490 . S
C1672 C1674 1.398 . S
C1672 C1675 1.403 . S
H1673 C1679 0.930 . S
C1674 H1660 0.935 . S
C1674 C1672 1.398 . S
C1674 C1677 1.395 1_545 S
C1675 C1672 1.403 . S
C1675 C1676 1.524 . S
C1675 C1679 1.400 1_545 S
C1676 H1661 0.960 . S
C1676 H1662 0.960 . S
C1676 H1663 0.960 . S
C1676 C1675 1.524 . S
C1677 C1674 1.395 1_565 S
C1677 C1678 1.392 . S
C1677 C1681 1.495 . S
C1678 C1677 1.392 . S
C1678 C1679 1.385 . S
C1678 C1680 1.478 . S
C1679 H1673 0.930 . S
C1679 C1675 1.400 1_565 S
C1679 C1678 1.385 . S
C1680 C1678 1.478 . S
C1680 C1682 1.381 . S
C1680 C1686 1.383 . S
C1681 C1677 1.495 . S
C1681 H1687 0.959 . S
C1681 H1688 0.961 . S
C1681 H1689 0.960 . S
C1682 C1680 1.381 . S
C1682 C1683 1.394 . S
C1682 H1690 0.930 . S
C1683 C1682 1.394 . S
C1683 C1684 1.383 . S
C1683 H1691 0.929 . S
C1684 C1683 1.383 . S
C1684 C1685 1.377 . S
C1685 H1669 0.930 . S
C1685 C1684 1.377 . S
C1685 C1686 1.379 . S
C1686 H1670 0.931 . S
C1686 C1680 1.383 . S
C1686 C1685 1.379 . S
H1687 C1681 0.959 . S
H1688 C1681 0.961 . S
H1689 C1681 0.960 . S
H1690 C1682 0.930 . S
H1691 C1683 0.929 . S
H1692 C1700 0.929 . S
H1693 C1702 0.930 . S
H1694 C1704 0.930 . S
H1695 C1707 0.929 . S
H1696 C1710 0.930 . S
H1697 C1712 0.960 . S
H1698 C1712 0.960 . S
H1699 C1712 0.960 . S
C1700 H1692 0.929 . S
C1700 C1701 1.377 . S
C1700 C1702 1.384 . S
C1701 C1700 1.377 . S
C1701 C1707 1.390 . S
C1702 H1693 0.930 . S
C1702 C1700 1.384 . S
C1702 C1703 1.372 . S
C1703 C1702 1.372 . S
C1703 C1704 1.400 . S
C1703 C1708 1.490 . S
C1704 H1694 0.930 . S
C1704 C1703 1.400 . S
C1704 C1707 1.386 . S
H1705 C1721 0.930 . S
H1706 C1722 0.931 . S
C1707 H1695 0.929 . S
C1707 C1701 1.390 . S
C1707 C1704 1.386 . S
C1708 C1703 1.490 . S
C1708 C1710 1.395 . S
C1708 C1711 1.403 . S
H1709 C1715 0.930 . S
C1710 H1696 0.930 . S
C1710 C1708 1.395 . S
C1710 C1713 1.403 . S
C1711 C1708 1.403 . S
C1711 C1712 1.524 . S
C1711 C1715 1.400 . S
C1712 H1697 0.960 . S
C1712 H1698 0.960 . S
C1712 H1699 0.960 . S
C1712 C1711 1.524 . S
C1713 C1710 1.403 . S
C1713 C1714 1.392 . S
C1713 C1717 1.495 . S
C1714 C1713 1.392 . S
C1714 C1715 1.385 . S
C1714 C1716 1.478 . S
C1715 H1709 0.930 . S
C1715 C1711 1.400 . S
C1715 C1714 1.385 . S
C1716 C1714 1.478 . S
C1716 C1718 1.381 . S
C1716 C1722 1.383 . S
C1717 C1713 1.495 . S
C1717 H1723 0.959 . S
C1717 H1724 0.961 . S
C1717 H1725 0.960 . S
C1718 C1716 1.381 . S
C1718 C1719 1.394 . S
C1718 H1726 0.930 . S
C1719 C1718 1.394 . S
C1719 C1720 1.383 . S
C1719 H1727 0.929 . S
C1720 C1719 1.383 . S
C1720 C1721 1.377 . S
C1721 H1705 0.930 . S
C1721 C1720 1.377 . S
C1721 C1722 1.379 . S
C1722 H1706 0.931 . S
C1722 C1716 1.383 . S
C1722 C1721 1.379 . S
H1723 C1717 0.959 . S
H1724 C1717 0.961 . S
H1725 C1717 0.960 . S
H1726 C1718 0.930 . S
H1727 C1719 0.929 . S
H1728 C1736 0.929 . S
H1729 C1738 0.930 . S
H1730 C1740 0.930 . S
H1731 C1743 0.929 . S
H1732 C1746 0.930 . S
H1733 C1748 0.960 . S
H1734 C1748 0.960 . S
H1735 C1748 0.960 . S
C1736 H1728 0.929 . S
C1736 C1737 1.377 . S
C1736 C1738 1.384 . S
C1737 C1736 1.377 . S
C1737 C1743 1.390 . S
C1738 H1729 0.930 . S
C1738 C1736 1.384 . S
C1738 C1739 1.372 . S
C1739 C1738 1.372 . S
C1739 C1740 1.400 . S
C1739 C1744 1.490 . S
C1740 H1730 0.930 . S
C1740 C1739 1.400 . S
C1740 C1743 1.386 . S
H1741 C1757 0.930 . S
H1742 C1758 0.931 . S
C1743 H1731 0.929 . S
C1743 C1737 1.390 . S
C1743 C1740 1.386 . S
C1744 C1739 1.490 . S
C1744 C1746 1.395 . S
C1744 C1747 1.403 . S
H1745 C1751 0.930 . S
C1746 H1732 0.930 . S
C1746 C1744 1.395 . S
C1746 C1749 1.403 1_655 S
C1747 C1744 1.403 . S
C1747 C1748 1.524 . S
C1747 C1751 1.400 1_655 S
C1748 H1733 0.960 . S
C1748 H1734 0.960 . S
C1748 H1735 0.960 . S
C1748 C1747 1.524 . S
C1749 C1746 1.403 1_455 S
C1749 C1750 1.392 . S
C1749 C1753 1.495 . S
C1750 C1749 1.392 . S
C1750 C1751 1.385 . S
C1750 C1752 1.478 . S
C1751 H1745 0.930 . S
C1751 C1747 1.400 1_455 S
C1751 C1750 1.385 . S
C1752 C1750 1.478 . S
C1752 C1754 1.381 . S
C1752 C1758 1.383 . S
C1753 C1749 1.495 . S
C1753 H1759 0.959 . S
C1753 H1760 0.961 . S
C1753 H1761 0.960 . S
C1754 C1752 1.381 . S
C1754 C1755 1.394 . S
C1754 H1762 0.930 . S
C1755 C1754 1.394 . S
C1755 C1756 1.383 . S
C1755 H1763 0.929 . S
C1756 C1755 1.383 . S
C1756 C1757 1.377 . S
C1757 H1741 0.930 . S
C1757 C1756 1.377 . S
C1757 C1758 1.379 . S
C1758 H1742 0.931 . S
C1758 C1752 1.383 . S
C1758 C1757 1.379 . S
H1759 C1753 0.959 . S
H1760 C1753 0.961 . S
H1761 C1753 0.960 . S
H1762 C1754 0.930 . S
H1763 C1755 0.929 . S
H1764 C1772 0.929 . S
H1765 C1774 0.930 . S
H1766 C1776 0.930 . S
H1767 C1779 0.929 . S
H1768 C1782 0.930 . S
H1769 C1784 0.952 1_655 S
H1770 C1784 0.966 . S
H1771 C1784 0.967 . S
C1772 H1764 0.929 . S
C1772 C1773 1.377 . S
C1772 C1774 1.384 . S
C1773 C1772 1.377 . S
C1773 C1779 1.390 . S
C1774 H1765 0.930 . S
C1774 C1772 1.384 . S
C1774 C1775 1.372 . S
C1775 C1774 1.372 . S
C1775 C1776 1.400 . S
C1775 C1780 1.490 . S
C1776 H1766 0.930 . S
C1776 C1775 1.400 . S
C1776 C1779 1.386 . S
H1777 C1793 0.930 . S
H1778 C1794 0.931 . S
C1779 H1767 0.929 . S
C1779 C1773 1.390 . S
C1779 C1776 1.386 . S
C1780 C1775 1.490 . S
C1780 C1782 1.395 . S
C1780 C1783 1.403 . S
H1781 C1787 0.930 . S
C1782 H1768 0.930 . S
C1782 C1780 1.395 . S
C1782 C1785 1.403 . S
C1783 C1780 1.403 . S
C1783 C1784 1.519 . S
C1783 C1787 1.400 1_455 S
C1784 H1769 0.952 1_455 S
C1784 H1770 0.966 . S
C1784 H1771 0.967 . S
C1784 C1783 1.519 . S
C1785 C1782 1.403 . S
C1785 C1786 1.392 1_455 S
C1785 C1789 1.495 . S
C1786 C1785 1.392 1_655 S
C1786 C1787 1.385 . S
C1786 C1788 1.478 . S
C1787 H1781 0.930 . S
C1787 C1783 1.400 1_655 S
C1787 C1786 1.385 . S
C1788 C1786 1.478 . S
C1788 C1790 1.381 . S
C1788 C1794 1.383 . S
C1789 C1785 1.495 . S
C1789 H1795 0.959 . S
C1789 H1796 0.961 1_455 S
C1789 H1797 0.960 1_455 S
C1790 C1788 1.381 . S
C1790 C1791 1.394 . S
C1790 H1798 0.930 . S
C1791 C1790 1.394 . S
C1791 C1792 1.383 . S
C1791 H1799 0.929 . S
C1792 C1791 1.383 . S
C1792 C1793 1.377 . S
C1793 H1777 0.930 . S
C1793 C1792 1.377 . S
C1793 C1794 1.379 . S
C1794 H1778 0.931 . S
C1794 C1788 1.383 . S
C1794 C1793 1.379 . S
H1795 C1789 0.959 . S
H1796 C1789 0.961 1_655 S
H1797 C1789 0.960 1_655 S
H1798 C1790 0.930 . S
H1799 C1791 0.929 . S
H1800 C1808 0.929 . S
H1801 C1810 0.930 . S
H1802 C1812 0.930 . S
H1803 C1815 0.929 . S
H1804 C1818 0.928 . S
H1805 C1820 0.960 . S
H1806 C1820 0.960 . S
H1807 C1820 0.960 . S
C1808 H1800 0.929 . S
C1808 C1809 1.377 . S
C1808 C1810 1.384 . S
C1809 C1808 1.377 . S
C1809 C1815 1.390 . S
C1810 H1801 0.930 . S
C1810 C1808 1.384 . S
C1810 C1811 1.372 . S
C1811 C1810 1.372 . S
C1811 C1812 1.400 . S
C1811 C1816 1.490 . S
C1812 H1802 0.930 . S
C1812 C1811 1.400 . S
C1812 C1815 1.386 . S
H1813 C1829 0.930 . S
H1814 C1830 0.931 . S
C1815 H1803 0.929 . S
C1815 C1809 1.390 . S
C1815 C1812 1.386 . S
C1816 C1811 1.490 . S
C1816 C1818 1.399 . S
C1816 C1819 1.403 . S
H1817 C1823 0.930 . S
C1818 H1804 0.928 . S
C1818 C1816 1.399 . S
C1818 C1821 1.401 1_565 S
C1819 C1816 1.403 . S
C1819 C1820 1.524 . S
C1819 C1823 1.400 1_565 S
C1820 H1805 0.960 . S
C1820 H1806 0.960 . S
C1820 H1807 0.960 . S
C1820 C1819 1.524 . S
C1821 C1818 1.401 1_545 S
C1821 C1822 1.392 . S
C1821 C1825 1.495 . S
C1822 C1821 1.392 . S
C1822 C1823 1.385 . S
C1822 C1824 1.478 . S
C1823 H1817 0.930 . S
C1823 C1819 1.400 1_545 S
C1823 C1822 1.385 . S
C1824 C1822 1.478 . S
C1824 C1826 1.381 . S
C1824 C1830 1.383 . S
C1825 C1821 1.495 . S
C1825 H1831 0.959 . S
C1825 H1832 0.961 . S
C1825 H1833 0.960 . S
C1826 C1824 1.381 . S
C1826 C1827 1.394 . S
C1826 H1834 0.930 . S
C1827 C1826 1.394 . S
C1827 C1828 1.383 . S
C1827 H1835 0.929 . S
C1828 C1827 1.383 . S
C1828 C1829 1.377 . S
C1829 H1813 0.930 . S
C1829 C1828 1.377 . S
C1829 C1830 1.379 . S
C1830 H1814 0.931 . S
C1830 C1824 1.383 . S
C1830 C1829 1.379 . S
H1831 C1825 0.959 . S
H1832 C1825 0.961 . S
H1833 C1825 0.960 . S
H1834 C1826 0.930 . S
H1835 C1827 0.929 . S
H1836 C1844 0.929 . S
H1837 C1846 0.930 . S
H1838 C1848 0.930 . S
H1839 C1851 0.929 . S
H1840 C1854 0.930 . S
H1841 C1856 0.960 . S
H1842 C1856 0.960 . S
H1843 C1856 0.960 . S
C1844 H1836 0.929 . S
C1844 C1845 1.377 . S
C1844 C1846 1.384 . S
C1845 C1844 1.377 . S
C1845 C1851 1.390 . S
C1846 H1837 0.930 . S
C1846 C1844 1.384 . S
C1846 C1847 1.372 . S
C1847 C1846 1.372 . S
C1847 C1848 1.400 . S
C1847 C1852 1.490 . S
C1848 H1838 0.930 . S
C1848 C1847 1.400 . S
C1848 C1851 1.386 . S
H1849 C1865 0.930 . S
H1850 C1866 0.931 . S
C1851 H1839 0.929 . S
C1851 C1845 1.390 . S
C1851 C1848 1.386 . S
C1852 C1847 1.490 . S
C1852 C1854 1.395 . S
C1852 C1855 1.403 . S
H1853 C1859 0.930 . S
C1854 H1840 0.930 . S
C1854 C1852 1.395 . S
C1854 C1857 1.403 . S
C1855 C1852 1.403 . S
C1855 C1856 1.524 . S
C1855 C1859 1.400 . S
C1856 H1841 0.960 . S
C1856 H1842 0.960 . S
C1856 H1843 0.960 . S
C1856 C1855 1.524 . S
C1857 C1854 1.403 . S
C1857 C1858 1.392 . S
C1857 C1861 1.495 1_554 S
C1858 C1857 1.392 . S
C1858 C1859 1.385 . S
C1858 C1860 1.478 . S
C1859 H1853 0.930 . S
C1859 C1855 1.400 . S
C1859 C1858 1.385 . S
C1860 C1858 1.478 . S
C1860 C1862 1.381 . S
C1860 C1866 1.383 . S
C1861 C1857 1.495 1_556 S
C1861 H1867 0.959 . S
C1861 H1868 0.961 . S
C1861 H1869 0.960 . S
C1862 C1860 1.381 . S
C1862 C1863 1.394 . S
C1862 H1870 0.930 . S
C1863 C1862 1.394 . S
C1863 C1864 1.383 . S
C1863 H1871 0.929 . S
C1864 C1863 1.383 . S
C1864 C1865 1.377 . S
C1865 H1849 0.930 . S
C1865 C1864 1.377 . S
C1865 C1866 1.379 . S
C1866 H1850 0.931 . S
C1866 C1860 1.383 . S
C1866 C1865 1.379 . S
H1867 C1861 0.959 . S
H1868 C1861 0.961 . S
H1869 C1861 0.960 . S
H1870 C1862 0.930 . S
H1871 C1863 0.929 . S
H1872 C1880 0.929 . S
H1873 C1882 0.930 . S
H1874 C1884 0.930 . S
H1875 C1887 0.929 . S
H1876 C1890 0.930 . S
H1877 C1892 0.960 . S
H1878 C1892 0.960 . S
H1879 C1892 0.960 . S
C1880 H1872 0.929 . S
C1880 C1881 1.377 . S
C1880 C1882 1.384 . S
C1881 C1880 1.377 . S
C1881 C1887 1.390 . S
C1882 H1873 0.930 . S
C1882 C1880 1.384 . S
C1882 C1883 1.372 . S
C1883 C1882 1.372 . S
C1883 C1884 1.400 . S
C1883 C1888 1.490 . S
C1884 H1874 0.930 . S
C1884 C1883 1.400 . S
C1884 C1887 1.386 . S
H1885 C1901 0.930 . S
H1886 C1902 0.931 . S
C1887 H1875 0.929 . S
C1887 C1881 1.390 . S
C1887 C1884 1.386 . S
C1888 C1883 1.490 . S
C1888 C1890 1.395 . S
C1888 C1891 1.403 1_565 S
H1889 C1895 0.930 . S
C1890 H1876 0.930 . S
C1890 C1888 1.395 . S
C1890 C1893 1.403 . S
C1891 C1888 1.403 1_545 S
C1891 C1892 1.524 . S
C1891 C1895 1.400 . S
C1892 H1877 0.960 . S
C1892 H1878 0.960 . S
C1892 H1879 0.960 . S
C1892 C1891 1.524 . S
C1893 C1890 1.403 . S
C1893 C1894 1.392 1_565 S
C1893 C1897 1.495 . S
C1894 C1893 1.392 1_545 S
C1894 C1895 1.385 . S
C1894 C1896 1.478 . S
C1895 H1889 0.930 . S
C1895 C1891 1.400 . S
C1895 C1894 1.385 . S
C1896 C1894 1.478 . S
C1896 C1898 1.381 . S
C1896 C1902 1.383 . S
C1897 C1893 1.495 . S
C1897 H1903 0.959 . S
C1897 H1904 0.961 . S
C1897 H1905 0.960 . S
C1898 C1896 1.381 . S
C1898 C1899 1.394 . S
C1898 H1906 0.930 . S
C1899 C1898 1.394 . S
C1899 C1900 1.383 . S
C1899 H1907 0.929 . S
C1900 C1899 1.383 . S
C1900 C1901 1.377 . S
C1901 H1885 0.930 . S
C1901 C1900 1.377 . S
C1901 C1902 1.379 . S
C1902 H1886 0.931 . S
C1902 C1896 1.383 . S
C1902 C1901 1.379 . S
H1903 C1897 0.959 . S
H1904 C1897 0.961 . S
H1905 C1897 0.960 . S
H1906 C1898 0.930 . S
H1907 C1899 0.929 . S
H1908 C1916 0.929 . S
H1909 C1918 0.930 . S
H1910 C1920 0.930 . S
H1911 C1923 0.929 . S
H1912 C1926 0.930 . S
H1913 C1928 0.960 . S
H1914 C1928 0.960 . S
H1915 C1928 0.960 . S
C1916 H1908 0.929 . S
C1916 C1917 1.377 . S
C1916 C1918 1.384 . S
C1917 C1916 1.377 . S
C1917 C1923 1.390 . S
C1918 H1909 0.930 . S
C1918 C1916 1.384 . S
C1918 C1919 1.372 . S
C1919 C1918 1.372 . S
C1919 C1920 1.400 . S
C1919 C1924 1.490 . S
C1920 H1910 0.930 . S
C1920 C1919 1.400 . S
C1920 C1923 1.386 . S
H1921 C1937 0.930 . S
H1922 C1938 0.931 . S
C1923 H1911 0.929 . S
C1923 C1917 1.390 . S
C1923 C1920 1.386 . S
C1924 C1919 1.490 . S
C1924 C1926 1.395 . S
C1924 C1927 1.403 . S
H1925 C1931 0.930 . S
C1926 H1912 0.930 . S
C1926 C1924 1.395 . S
C1926 C1929 1.403 . S
C1927 C1924 1.403 . S
C1927 C1928 1.524 . S
C1927 C1931 1.400 . S
C1928 H1913 0.960 . S
C1928 H1914 0.960 . S
C1928 H1915 0.960 . S
C1928 C1927 1.524 . S
C1929 C1926 1.403 . S
C1929 C1930 1.392 . S
C1929 C1933 1.495 . S
C1930 C1929 1.392 . S
C1930 C1931 1.385 . S
C1930 C1932 1.478 . S
C1931 H1925 0.930 . S
C1931 C1927 1.400 . S
C1931 C1930 1.385 . S
C1932 C1930 1.478 . S
C1932 C1934 1.381 . S
C1932 C1938 1.383 . S
C1933 C1929 1.495 . S
C1933 H1939 0.959 . S
C1933 H1940 0.961 . S
C1933 H1941 0.960 . S
C1934 C1932 1.381 . S
C1934 C1935 1.394 . S
C1934 H1942 0.930 . S
C1935 C1934 1.394 . S
C1935 C1936 1.383 . S
C1935 H1943 0.929 . S
C1936 C1935 1.383 . S
C1936 C1937 1.377 . S
C1937 H1921 0.930 . S
C1937 C1936 1.377 . S
C1937 C1938 1.379 . S
C1938 H1922 0.931 . S
C1938 C1932 1.383 . S
C1938 C1937 1.379 . S
H1939 C1933 0.959 . S
H1940 C1933 0.961 . S
H1941 C1933 0.960 . S
H1942 C1934 0.930 . S
H1943 C1935 0.929 . S
H1944 C1952 0.929 . S
H1945 C1954 0.930 . S
H1946 C1956 0.930 . S
H1947 C1959 0.929 . S
H1948 C1962 0.930 . S
H1949 C1964 0.960 1_455 S
H1950 C1964 0.970 . S
H1951 C1964 0.960 . S
C1952 H1944 0.929 . S
C1952 C1953 1.377 . S
C1952 C1954 1.384 . S
C1953 C1952 1.377 . S
C1953 C1959 1.390 . S
C1954 H1945 0.930 . S
C1954 C1952 1.384 . S
C1954 C1955 1.372 . S
C1955 C1954 1.372 . S
C1955 C1956 1.400 . S
C1955 C1960 1.490 . S
C1956 H1946 0.930 . S
C1956 C1955 1.400 . S
C1956 C1959 1.386 . S
H1957 C1973 0.930 . S
H1958 C1974 0.931 . S
C1959 H1947 0.929 . S
C1959 C1953 1.390 . S
C1959 C1956 1.386 . S
C1960 C1955 1.490 . S
C1960 C1962 1.395 . S
C1960 C1963 1.403 . S
H1961 C1967 0.930 . S
C1962 H1948 0.930 . S
C1962 C1960 1.395 . S
C1962 C1965 1.403 1_655 S
C1963 C1960 1.403 . S
C1963 C1964 1.524 . S
C1963 C1967 1.400 1_655 S
C1964 H1949 0.960 1_655 S
C1964 H1950 0.970 . S
C1964 H1951 0.960 . S
C1964 C1963 1.524 . S
C1965 C1962 1.403 1_455 S
C1965 C1966 1.392 . S
C1965 C1969 1.495 . S
C1966 C1965 1.392 . S
C1966 C1967 1.385 . S
C1966 C1968 1.478 . S
C1967 H1961 0.930 . S
C1967 C1963 1.400 1_455 S
C1967 C1966 1.385 . S
C1968 C1966 1.478 . S
C1968 C1970 1.381 . S
C1968 C1974 1.383 . S
C1969 C1965 1.495 . S
C1969 H1975 0.959 1_455 S
C1969 H1976 0.961 . S
C1969 H1977 0.960 . S
C1970 C1968 1.381 . S
C1970 C1971 1.394 . S
C1970 H1978 0.930 . S
C1971 C1970 1.394 . S
C1971 C1972 1.383 . S
C1971 H1979 0.929 . S
C1972 C1971 1.383 . S
C1972 C1973 1.377 . S
C1973 H1957 0.930 . S
C1973 C1972 1.377 . S
C1973 C1974 1.379 . S
C1974 H1958 0.931 . S
C1974 C1968 1.383 . S
C1974 C1973 1.379 . S
H1975 C1969 0.959 1_655 S
H1976 C1969 0.961 . S
H1977 C1969 0.960 . S
H1978 C1970 0.930 . S
H1979 C1971 0.929 . S
H1980 C1988 0.929 . S
H1981 C1990 0.930 . S
H1982 C1992 0.930 . S
H1983 C1995 0.929 . S
H1984 C1998 0.930 . S
H1985 C2000 0.960 . S
H1986 C2000 0.960 . S
H1987 C2000 0.960 . S
C1988 H1980 0.929 . S
C1988 C1989 1.377 . S
C1988 C1990 1.384 . S
C1989 C1988 1.377 . S
C1989 C1995 1.390 . S
C1990 H1981 0.930 . S
C1990 C1988 1.384 . S
C1990 C1991 1.372 . S
C1991 C1990 1.372 . S
C1991 C1992 1.400 . S
C1991 C1996 1.490 . S
C1992 H1982 0.930 . S
C1992 C1991 1.400 . S
C1992 C1995 1.386 . S
H1993 C2009 0.930 . S
H1994 C2010 0.931 . S
C1995 H1983 0.929 . S
C1995 C1989 1.390 . S
C1995 C1992 1.386 . S
C1996 C1991 1.490 . S
C1996 C1998 1.395 1_545 S
C1996 C1999 1.403 . S
H1997 C2003 0.930 . S
C1998 H1984 0.930 . S
C1998 C1996 1.395 1_565 S
C1998 C2001 1.403 . S
C1999 C1996 1.403 . S
C1999 C2000 1.524 . S
C1999 C2003 1.400 . S
C2000 H1985 0.960 . S
C2000 H1986 0.960 . S
C2000 H1987 0.960 . S
C2000 C1999 1.524 . S
C2001 C1998 1.403 . S
C2001 C2002 1.392 . S
C2001 C2005 1.495 . S
C2002 C2001 1.392 . S
C2002 C2003 1.385 1_565 S
C2002 C2004 1.478 . S
C2003 H1997 0.930 . S
C2003 C1999 1.400 . S
C2003 C2002 1.385 1_545 S
C2004 C2002 1.478 . S
C2004 C2006 1.381 . S
C2004 C2010 1.383 . S
C2005 C2001 1.495 . S
C2005 H2011 0.959 . S
C2005 H2012 0.961 . S
C2005 H2013 0.960 . S
C2006 C2004 1.381 . S
C2006 C2007 1.394 . S
C2006 H2014 0.930 . S
C2007 C2006 1.394 . S
C2007 C2008 1.383 . S
C2007 H2015 0.929 . S
C2008 C2007 1.383 . S
C2008 C2009 1.377 . S
C2009 H1993 0.930 . S
C2009 C2008 1.377 . S
C2009 C2010 1.379 . S
C2010 H1994 0.931 . S
C2010 C2004 1.383 . S
C2010 C2009 1.379 . S
H2011 C2005 0.959 . S
H2012 C2005 0.961 . S
H2013 C2005 0.960 . S
H2014 C2006 0.930 . S
H2015 C2007 0.929 . S
H2016 C2024 0.929 . S
H2017 C2026 0.930 . S
H2018 C2028 0.930 . S
H2019 C2031 0.929 . S
H2020 C2034 0.930 . S
H2021 C2036 0.960 . S
H2022 C2036 0.960 . S
H2023 C2036 0.960 . S
C2024 H2016 0.929 . S
C2024 C2025 1.377 . S
C2024 C2026 1.384 . S
C2025 C2024 1.377 . S
C2025 C2031 1.390 . S
C2026 H2017 0.930 . S
C2026 C2024 1.384 . S
C2026 C2027 1.372 . S
C2027 C2026 1.372 . S
C2027 C2028 1.400 . S
C2027 C2032 1.490 . S
C2028 H2018 0.930 . S
C2028 C2027 1.400 . S
C2028 C2031 1.386 . S
H2029 C2045 0.930 . S
H2030 C2046 0.931 . S
C2031 H2019 0.929 . S
C2031 C2025 1.390 . S
C2031 C2028 1.386 . S
C2032 C2027 1.490 . S
C2032 C2034 1.395 . S
C2032 C2035 1.403 . S
H2033 C2039 0.930 . S
C2034 H2020 0.930 . S
C2034 C2032 1.395 . S
C2034 C2037 1.403 . S
C2035 C2032 1.403 . S
C2035 C2036 1.524 . S
C2035 C2039 1.400 . S
C2036 H2021 0.960 . S
C2036 H2022 0.960 . S
C2036 H2023 0.960 . S
C2036 C2035 1.524 . S
C2037 C2034 1.403 . S
C2037 C2038 1.392 . S
C2037 C2041 1.495 . S
C2038 C2037 1.392 . S
C2038 C2039 1.385 . S
C2038 C2040 1.478 . S
C2039 H2033 0.930 . S
C2039 C2035 1.400 . S
C2039 C2038 1.385 . S
C2040 C2038 1.478 . S
C2040 C2042 1.381 . S
C2040 C2046 1.383 . S
C2041 C2037 1.495 . S
C2041 H2047 0.959 . S
C2041 H2048 0.961 . S
C2041 H2049 0.960 . S
C2042 C2040 1.381 . S
C2042 C2043 1.394 . S
C2042 H2050 0.930 . S
C2043 C2042 1.394 . S
C2043 C2044 1.383 . S
C2043 H2051 0.929 . S
C2044 C2043 1.383 . S
C2044 C2045 1.377 . S
C2045 H2029 0.930 . S
C2045 C2044 1.377 . S
C2045 C2046 1.379 . S
C2046 H2030 0.931 . S
C2046 C2040 1.383 . S
C2046 C2045 1.379 . S
H2047 C2041 0.959 . S
H2048 C2041 0.961 . S
H2049 C2041 0.960 . S
H2050 C2042 0.930 . S
H2051 C2043 0.929 . S
H2052 C2060 0.929 . S
H2053 C2062 0.930 . S
H2054 C2064 0.930 . S
H2055 C2067 0.929 . S
H2056 C2070 0.932 . S
H2057 C2072 0.960 . S
H2058 C2072 0.960 . S
H2059 C2072 0.960 . S
C2060 H2052 0.929 . S
C2060 C2061 1.377 . S
C2060 C2062 1.384 . S
C2061 C2060 1.377 . S
C2061 C2067 1.390 . S
C2062 H2053 0.930 . S
C2062 C2060 1.384 . S
C2062 C2063 1.372 . S
C2063 C2062 1.372 . S
C2063 C2064 1.400 . S
C2063 C2068 1.490 . S
C2064 H2054 0.930 . S
C2064 C2063 1.400 . S
C2064 C2067 1.386 . S
H2065 C2081 0.930 . S
H2066 C2082 0.931 . S
C2067 H2055 0.929 . S
C2067 C2061 1.390 . S
C2067 C2064 1.386 . S
C2068 C2063 1.490 . S
C2068 C2070 1.343 1_455 S
C2068 C2071 1.403 . S
H2069 C2075 0.934 . S
C2070 H2056 0.932 . S
C2070 C2068 1.343 1_655 S
C2070 C2073 1.438 . S
C2071 C2068 1.403 . S
C2071 C2072 1.524 . S
C2071 C2075 1.369 1_455 S
C2072 H2057 0.960 . S
C2072 H2058 0.960 . S
C2072 H2059 0.960 . S
C2072 C2071 1.524 . S
C2073 C2070 1.438 . S
C2073 C2074 1.392 . S
C2073 C2077 1.495 . S
C2074 C2073 1.392 . S
C2074 C2075 1.432 . S
C2074 C2076 1.478 . S
C2075 H2069 0.934 . S
C2075 C2071 1.369 1_655 S
C2075 C2074 1.432 . S
C2076 C2074 1.478 . S
C2076 C2078 1.381 . S
C2076 C2082 1.383 . S
C2077 C2073 1.495 . S
C2077 H2083 0.959 . S
C2077 H2084 0.961 . S
C2077 H2085 0.960 . S
C2078 C2076 1.381 . S
C2078 C2079 1.394 . S
C2078 H2086 0.930 . S
C2079 C2078 1.394 . S
C2079 C2080 1.383 . S
C2079 H2087 0.929 . S
C2080 C2079 1.383 . S
C2080 C2081 1.377 . S
C2081 H2065 0.930 . S
C2081 C2080 1.377 . S
C2081 C2082 1.379 . S
C2082 H2066 0.931 . S
C2082 C2076 1.383 . S
C2082 C2081 1.379 . S
H2083 C2077 0.959 . S
H2084 C2077 0.961 . S
H2085 C2077 0.960 . S
H2086 C2078 0.930 . S
H2087 C2079 0.929 . S
H2088 C2096 0.929 . S
H2089 C2098 0.930 . S
H2090 C2100 0.930 . S
H2091 C2103 0.929 . S
H2092 C2106 0.930 . S
H2093 C2108 0.960 . S
H2094 C2108 0.960 . S
H2095 C2108 0.960 . S
C2096 H2088 0.929 . S
C2096 C2097 1.377 . S
C2096 C2098 1.384 . S
C2097 C2096 1.377 . S
C2097 C2103 1.390 . S
C2098 H2089 0.930 . S
C2098 C2096 1.384 . S
C2098 C2099 1.372 . S
C2099 C2098 1.372 . S
C2099 C2100 1.400 . S
C2099 C2104 1.490 . S
C2100 H2090 0.930 . S
C2100 C2099 1.400 . S
C2100 C2103 1.386 . S
H2101 C2117 0.930 . S
H2102 C2118 0.931 . S
C2103 H2091 0.929 . S
C2103 C2097 1.390 . S
C2103 C2100 1.386 . S
C2104 C2099 1.490 . S
C2104 C2106 1.395 . S
C2104 C2107 1.403 . S
H2105 C2111 0.930 . S
C2106 H2092 0.930 . S
C2106 C2104 1.395 . S
C2106 C2109 1.403 . S
C2107 C2104 1.403 . S
C2107 C2108 1.524 . S
C2107 C2111 1.400 . S
C2108 H2093 0.960 . S
C2108 H2094 0.960 . S
C2108 H2095 0.960 . S
C2108 C2107 1.524 . S
C2109 C2106 1.403 . S
C2109 C2110 1.392 . S
C2109 C2113 1.495 . S
C2110 C2109 1.392 . S
C2110 C2111 1.385 . S
C2110 C2112 1.478 . S
C2111 H2105 0.930 . S
C2111 C2107 1.400 . S
C2111 C2110 1.385 . S
C2112 C2110 1.478 . S
C2112 C2114 1.381 . S
C2112 C2118 1.383 . S
C2113 C2109 1.495 . S
C2113 H2119 0.959 . S
C2113 H2120 0.961 . S
C2113 H2121 0.960 . S
C2114 C2112 1.381 . S
C2114 C2115 1.394 . S
C2114 H2122 0.930 . S
C2115 C2114 1.394 . S
C2115 C2116 1.383 . S
C2115 H2123 0.929 . S
C2116 C2115 1.383 . S
C2116 C2117 1.377 . S
C2117 H2101 0.930 . S
C2117 C2116 1.377 . S
C2117 C2118 1.379 . S
C2118 H2102 0.931 . S
C2118 C2112 1.383 . S
C2118 C2117 1.379 . S
H2119 C2113 0.959 . S
H2120 C2113 0.961 . S
H2121 C2113 0.960 . S
H2122 C2114 0.930 . S
H2123 C2115 0.929 . S
H2124 C2132 0.929 . S
H2125 C2134 0.930 . S
H2126 C2136 0.930 . S
H2127 C2139 0.929 . S
H2128 C2142 0.930 . S
H2129 C2144 0.960 . S
H2130 C2144 0.960 . S
H2131 C2144 0.960 . S
C2132 H2124 0.929 . S
C2132 C2133 1.377 . S
C2132 C2134 1.384 . S
C2133 C2132 1.377 . S
C2133 C2139 1.390 . S
C2134 H2125 0.930 . S
C2134 C2132 1.384 . S
C2134 C2135 1.372 . S
C2135 C2134 1.372 . S
C2135 C2136 1.400 . S
C2135 C2140 1.490 . S
C2136 H2126 0.930 . S
C2136 C2135 1.400 . S
C2136 C2139 1.386 . S
H2137 C2153 0.930 . S
H2138 C2154 0.931 . S
C2139 H2127 0.929 . S
C2139 C2133 1.390 . S
C2139 C2136 1.386 . S
C2140 C2135 1.490 . S
C2140 C2142 1.395 . S
C2140 C2143 1.403 . S
H2141 C2147 0.930 . S
C2142 H2128 0.930 . S
C2142 C2140 1.395 . S
C2142 C2145 1.403 . S
C2143 C2140 1.403 . S
C2143 C2144 1.524 . S
C2143 C2147 1.400 . S
C2144 H2129 0.960 . S
C2144 H2130 0.960 . S
C2144 H2131 0.960 . S
C2144 C2143 1.524 . S
C2145 C2142 1.403 . S
C2145 C2146 1.392 . S
C2145 C2149 1.495 . S
C2146 C2145 1.392 . S
C2146 C2147 1.385 . S
C2146 C2148 1.478 . S
C2147 H2141 0.930 . S
C2147 C2143 1.400 . S
C2147 C2146 1.385 . S
C2148 C2146 1.478 . S
C2148 C2150 1.381 . S
C2148 C2154 1.383 . S
C2149 C2145 1.495 . S
C2149 H2155 0.959 . S
C2149 H2156 0.961 . S
C2149 H2157 0.960 . S
C2150 C2148 1.381 . S
C2150 C2151 1.394 . S
C2150 H2158 0.930 . S
C2151 C2150 1.394 . S
C2151 C2152 1.383 . S
C2151 H2159 0.929 . S
C2152 C2151 1.383 . S
C2152 C2153 1.377 . S
C2153 H2137 0.930 . S
C2153 C2152 1.377 . S
C2153 C2154 1.379 . S
C2154 H2138 0.931 . S
C2154 C2148 1.383 . S
C2154 C2153 1.379 . S
H2155 C2149 0.959 . S
H2156 C2149 0.961 . S
H2157 C2149 0.960 . S
H2158 C2150 0.930 . S
H2159 C2151 0.929 . S
H2160 C2168 0.929 . S
H2161 C2170 0.930 . S
H2162 C2172 0.930 . S
H2163 C2175 0.929 . S
H2164 C2178 0.930 . S
H2165 C2180 0.960 . S
H2166 C2180 0.960 . S
H2167 C2180 0.960 . S
C2168 H2160 0.929 . S
C2168 C2169 1.377 . S
C2168 C2170 1.384 . S
C2169 C2168 1.377 . S
C2169 C2175 1.390 . S
C2170 H2161 0.930 . S
C2170 C2168 1.384 . S
C2170 C2171 1.372 . S
C2171 C2170 1.372 . S
C2171 C2172 1.400 . S
C2171 C2176 1.490 . S
C2172 H2162 0.930 . S
C2172 C2171 1.400 . S
C2172 C2175 1.386 . S
H2173 C2189 0.930 . S
H2174 C2190 0.931 . S
C2175 H2163 0.929 . S
C2175 C2169 1.390 . S
C2175 C2172 1.386 . S
C2176 C2171 1.490 . S
C2176 C2178 1.395 . S
C2176 C2179 1.403 . S
H2177 C2183 0.930 . S
C2178 H2164 0.930 . S
C2178 C2176 1.395 . S
C2178 C2181 1.403 . S
C2179 C2176 1.403 . S
C2179 C2180 1.524 . S
C2179 C2183 1.400 . S
C2180 H2165 0.960 . S
C2180 H2166 0.960 . S
C2180 H2167 0.960 . S
C2180 C2179 1.524 . S
C2181 C2178 1.403 . S
C2181 C2182 1.392 . S
C2181 C2185 1.495 . S
C2182 C2181 1.392 . S
C2182 C2183 1.385 . S
C2182 C2184 1.478 . S
C2183 H2177 0.930 . S
C2183 C2179 1.400 . S
C2183 C2182 1.385 . S
C2184 C2182 1.478 . S
C2184 C2186 1.381 . S
C2184 C2190 1.383 . S
C2185 C2181 1.495 . S
C2185 H2191 0.959 . S
C2185 H2192 0.961 . S
C2185 H2193 0.960 . S
C2186 C2184 1.381 . S
C2186 C2187 1.394 . S
C2186 H2194 0.930 . S
C2187 C2186 1.394 . S
C2187 C2188 1.383 . S
C2187 H2195 0.929 . S
C2188 C2187 1.383 . S
C2188 C2189 1.377 . S
C2189 H2173 0.930 . S
C2189 C2188 1.377 . S
C2189 C2190 1.379 . S
C2190 H2174 0.931 . S
C2190 C2184 1.383 . S
C2190 C2189 1.379 . S
H2191 C2185 0.959 . S
H2192 C2185 0.961 . S
H2193 C2185 0.960 . S
H2194 C2186 0.930 . S
H2195 C2187 0.929 . S
H2196 C2204 0.929 . S
H2197 C2206 0.930 . S
H2198 C2208 0.930 . S
H2199 C2211 0.929 . S
H2200 C2214 0.930 . S
H2201 C2216 0.960 . S
H2202 C2216 0.960 . S
H2203 C2216 0.960 . S
C2204 H2196 0.929 . S
C2204 C2205 1.377 . S
C2204 C2206 1.384 . S
C2205 C2204 1.377 . S
C2205 C2211 1.390 . S
C2206 H2197 0.930 . S
C2206 C2204 1.384 . S
C2206 C2207 1.372 . S
C2207 C2206 1.372 . S
C2207 C2208 1.400 . S
C2207 C2212 1.490 . S
C2208 H2198 0.930 . S
C2208 C2207 1.400 . S
C2208 C2211 1.386 . S
H2209 C2225 0.930 . S
H2210 C2226 0.931 . S
C2211 H2199 0.929 . S
C2211 C2205 1.390 . S
C2211 C2208 1.386 . S
C2212 C2207 1.490 . S
C2212 C2214 1.395 . S
C2212 C2215 1.403 . S
H2213 C2219 0.930 . S
C2214 H2200 0.930 . S
C2214 C2212 1.395 . S
C2214 C2217 1.403 . S
C2215 C2212 1.403 . S
C2215 C2216 1.524 . S
C2215 C2219 1.400 . S
C2216 H2201 0.960 . S
C2216 H2202 0.960 . S
C2216 H2203 0.960 . S
C2216 C2215 1.524 . S
C2217 C2214 1.403 . S
C2217 C2218 1.392 . S
C2217 C2221 1.495 . S
C2218 C2217 1.392 . S
C2218 C2219 1.385 . S
C2218 C2220 1.478 . S
C2219 H2213 0.930 . S
C2219 C2215 1.400 . S
C2219 C2218 1.385 . S
C2220 C2218 1.478 . S
C2220 C2222 1.381 . S
C2220 C2226 1.383 . S
C2221 C2217 1.495 . S
C2221 H2227 0.959 . S
C2221 H2228 0.961 . S
C2221 H2229 0.960 . S
C2222 C2220 1.381 . S
C2222 C2223 1.394 . S
C2222 H2230 0.930 . S
C2223 C2222 1.394 . S
C2223 C2224 1.383 . S
C2223 H2231 0.929 . S
C2224 C2223 1.383 . S
C2224 C2225 1.377 . S
C2225 H2209 0.930 . S
C2225 C2224 1.377 . S
C2225 C2226 1.379 . S
C2226 H2210 0.931 . S
C2226 C2220 1.383 . S
C2226 C2225 1.379 . S
H2227 C2221 0.959 . S
H2228 C2221 0.961 . S
H2229 C2221 0.960 . S
H2230 C2222 0.930 . S
H2231 C2223 0.929 . S
H2232 C2240 0.929 . S
H2233 C2242 0.930 . S
H2234 C2244 0.930 . S
H2235 C2247 0.929 . S
H2236 C2250 0.930 . S
H2237 C2252 0.960 . S
H2238 C2252 0.960 . S
H2239 C2252 0.960 . S
C2240 H2232 0.929 . S
C2240 C2241 1.377 . S
C2240 C2242 1.384 . S
C2241 C2240 1.377 . S
C2241 C2247 1.390 . S
C2242 H2233 0.930 . S
C2242 C2240 1.384 . S
C2242 C2243 1.372 . S
C2243 C2242 1.372 . S
C2243 C2244 1.400 . S
C2243 C2248 1.490 . S
C2244 H2234 0.930 . S
C2244 C2243 1.400 . S
C2244 C2247 1.386 . S
H2245 C2261 0.930 . S
H2246 C2262 0.931 . S
C2247 H2235 0.929 . S
C2247 C2241 1.390 . S
C2247 C2244 1.386 . S
C2248 C2243 1.490 . S
C2248 C2250 1.395 . S
C2248 C2251 1.403 . S
H2249 C2255 0.930 . S
C2250 H2236 0.930 . S
C2250 C2248 1.395 . S
C2250 C2253 1.403 . S
C2251 C2248 1.403 . S
C2251 C2252 1.524 . S
C2251 C2255 1.400 . S
C2252 H2237 0.960 . S
C2252 H2238 0.960 . S
C2252 H2239 0.960 . S
C2252 C2251 1.524 . S
C2253 C2250 1.403 . S
C2253 C2254 1.392 . S
C2253 C2257 1.495 . S
C2254 C2253 1.392 . S
C2254 C2255 1.385 . S
C2254 C2256 1.478 . S
C2255 H2249 0.930 . S
C2255 C2251 1.400 . S
C2255 C2254 1.385 . S
C2256 C2254 1.478 . S
C2256 C2258 1.381 . S
C2256 C2262 1.383 . S
C2257 C2253 1.495 . S
C2257 H2263 0.959 . S
C2257 H2264 0.961 . S
C2257 H2265 0.960 . S
C2258 C2256 1.381 . S
C2258 C2259 1.394 . S
C2258 H2266 0.930 . S
C2259 C2258 1.394 . S
C2259 C2260 1.383 . S
C2259 H2267 0.929 . S
C2260 C2259 1.383 . S
C2260 C2261 1.377 . S
C2261 H2245 0.930 . S
C2261 C2260 1.377 . S
C2261 C2262 1.379 . S
C2262 H2246 0.931 . S
C2262 C2256 1.383 . S
C2262 C2261 1.379 . S
H2263 C2257 0.959 . S
H2264 C2257 0.961 . S
H2265 C2257 0.960 . S
H2266 C2258 0.930 . S
H2267 C2259 0.929 . S
H2268 C2276 0.929 . S
H2269 C2278 0.930 . S
H2270 C2280 0.930 . S
H2271 C2283 0.929 . S
H2272 C2286 0.930 . S
H2273 C2288 0.960 . S
H2274 C2288 0.960 . S
H2275 C2288 0.960 . S
C2276 H2268 0.929 . S
C2276 C2277 1.377 . S
C2276 C2278 1.384 . S
C2277 C2276 1.377 . S
C2277 C2283 1.390 . S
C2278 H2269 0.930 . S
C2278 C2276 1.384 . S
C2278 C2279 1.372 . S
C2279 C2278 1.372 . S
C2279 C2280 1.400 . S
C2279 C2284 1.490 . S
C2280 H2270 0.930 . S
C2280 C2279 1.400 . S
C2280 C2283 1.386 . S
H2281 C2297 0.930 . S
H2282 C2298 0.931 . S
C2283 H2271 0.929 . S
C2283 C2277 1.390 . S
C2283 C2280 1.386 . S
C2284 C2279 1.490 . S
C2284 C2286 1.395 . S
C2284 C2287 1.403 . S
H2285 C2291 0.930 . S
C2286 H2272 0.930 . S
C2286 C2284 1.395 . S
C2286 C2289 1.403 . S
C2287 C2284 1.403 . S
C2287 C2288 1.524 . S
C2287 C2291 1.400 . S
C2288 H2273 0.960 . S
C2288 H2274 0.960 . S
C2288 H2275 0.960 . S
C2288 C2287 1.524 . S
C2289 C2286 1.403 . S
C2289 C2290 1.392 . S
C2289 C2293 1.495 . S
C2290 C2289 1.392 . S
C2290 C2291 1.385 . S
C2290 C2292 1.478 . S
C2291 H2285 0.930 . S
C2291 C2287 1.400 . S
C2291 C2290 1.385 . S
C2292 C2290 1.478 . S
C2292 C2294 1.381 . S
C2292 C2298 1.383 . S
C2293 C2289 1.495 . S
C2293 H2299 0.959 . S
C2293 H2300 0.961 . S
C2293 H2301 0.960 . S
C2294 C2292 1.381 . S
C2294 C2295 1.394 . S
C2294 H2302 0.930 . S
C2295 C2294 1.394 . S
C2295 C2296 1.383 . S
C2295 H2303 0.929 . S
C2296 C2295 1.383 . S
C2296 C2297 1.377 . S
C2297 H2281 0.930 . S
C2297 C2296 1.377 . S
C2297 C2298 1.379 . S
C2298 H2282 0.931 . S
C2298 C2292 1.383 . S
C2298 C2297 1.379 . S
H2299 C2293 0.959 . S
H2300 C2293 0.961 . S
H2301 C2293 0.960 . S
H2302 C2294 0.930 . S
H2303 C2295 0.929 . S
C1017 C63 1.001 . S
C1036 C735 1.001 . S
C1053 C147 1.001 . S
C1072 C819 1.005 . S
C1089 C231 1.003 . S
C1108 C903 0.995 . S
C1125 C987 1.002 . S
C1144 C315 1.000 . S
C1161 C399 1.002 . S
C1180 C567 0.996 . S
C1197 C651 1.003 . S
C1216 C483 0.996 . S
C1233 C898 1.715 . S
C1252 C58 1.757 . S
C1269 C982 1.710 . S
C1288 C142 1.751 . S
C1305 C226 1.715 . S
C1324 C562 1.726 . S
C1341 C646 1.703 . S
C1360 C310 1.726 . S
C1377 C730 1.700 . S
C1396 C394 1.699 . S
C1413 C478 1.706 . S
C1432 C814 1.737 . S
C1449 C655 4.617 . S
C1468 C67 4.610 . S
C1485 C739 4.616 . S
C1504 C151 4.609 . S
C1521 C823 4.616 . S
C1540 C235 4.608 . S
C1557 C319 4.616 . S
C1576 C907 4.613 . S
C1593 C403 4.616 . S
C1612 C991 4.608 . S
C1629 C487 4.616 . S
C1648 C571 4.608 . S
C1665 C74 0.568 . S
C1684 C326 0.531 . S
C1701 C158 0.550 . S
C1720 C410 0.625 . S
C1737 C242 0.568 . S
C1756 C494 0.518 . S
C1773 C830 0.538 . S
C1792 C578 0.609 . S
C1809 C662 0.565 . S
C1828 C914 0.566 . S
C1845 C998 0.547 . S
C1864 C746 0.631 . S
C1881 C657 0.651 . S
C1900 C69 0.693 . S
C1917 C741 0.628 . S
C1936 C153 0.609 . S
C1953 C237 0.643 . S
C1972 C825 0.705 . S
C1989 C909 0.629 . S
C2008 C321 0.652 . S
C2025 C993 0.636 . S
C2044 C405 0.689 . S
C2061 C489 0.631 . S
C2080 C573 0.594 . S
C2097 C56 3.277 . S
C2116 C896 3.287 . S
C2133 C140 3.282 . S
C2152 C980 3.269 1_556 S
C2169 C224 3.282 1_554 S
C2188 C560 3.269 . S
C2205 C308 3.282 . S
C2224 C644 3.262 . S
C2241 C392 3.281 . S
C2260 C728 3.262 1_556 S
C2277 C812 3.278 . S
C2296 C476 3.275 1_554 S
