# Generated by pormake.
# Topology dft, (4)-cn, num edge types: 1
# Building blocks:
#     Node 0, Type 0, BuildingBlock: CEKHIL_clean_sbu_0, # of connection points: 4
#     Node 1, Type 0, BuildingBlock: CEKHIL_clean_sbu_0, # of connection points: 4
#     Node 2, Type 0, BuildingBlock: CEKHIL_clean_sbu_0, # of connection points: 4
#     Node 3, Type 0, BuildingBlock: CEKHIL_clean_sbu_0, # of connection points: 4
#     Node 4, Type 0, BuildingBlock: CEKHIL_clean_sbu_0, # of connection points: 4
#     Node 5, Type 0, BuildingBlock: CEKHIL_clean_sbu_0, # of connection points: 4
#     Node 6, Type 0, BuildingBlock: CEKHIL_clean_sbu_0, # of connection points: 4
#     Node 7, Type 0, BuildingBlock: CEKHIL_clean_sbu_0, # of connection points: 4
#     Edge 8, Type (0, 0), BuildingBlock: FUNLAD_clean_linker_1, # of connection points: 2
#     Edge 9, Type (0, 0), BuildingBlock: FUNLAD_clean_linker_1, # of connection points: 2
#     Edge 10, Type (0, 0), BuildingBlock: FUNLAD_clean_linker_1, # of connection points: 2
#     Edge 11, Type (0, 0), BuildingBlock: FUNLAD_clean_linker_1, # of connection points: 2
#     Edge 12, Type (0, 0), BuildingBlock: FUNLAD_clean_linker_1, # of connection points: 2
#     Edge 13, Type (0, 0), BuildingBlock: FUNLAD_clean_linker_1, # of connection points: 2
#     Edge 14, Type (0, 0), BuildingBlock: FUNLAD_clean_linker_1, # of connection points: 2
#     Edge 15, Type (0, 0), BuildingBlock: FUNLAD_clean_linker_1, # of connection points: 2
#     Edge 16, Type (0, 0), BuildingBlock: FUNLAD_clean_linker_1, # of connection points: 2
#     Edge 17, Type (0, 0), BuildingBlock: FUNLAD_clean_linker_1, # of connection points: 2
#     Edge 18, Type (0, 0), BuildingBlock: FUNLAD_clean_linker_1, # of connection points: 2
#     Edge 19, Type (0, 0), BuildingBlock: FUNLAD_clean_linker_1, # of connection points: 2
#     Edge 20, Type (0, 0), BuildingBlock: FUNLAD_clean_linker_1, # of connection points: 2
#     Edge 21, Type (0, 0), BuildingBlock: FUNLAD_clean_linker_1, # of connection points: 2
#     Edge 22, Type (0, 0), BuildingBlock: FUNLAD_clean_linker_1, # of connection points: 2
#     Edge 23, Type (0, 0), BuildingBlock: FUNLAD_clean_linker_1, # of connection points: 2
# Relax obj value: 0.182
# Max RMSD: 0.171
# Mean RMSD: 0.171
data_MOF--net-dft--node1-CEKHIL_clean_sbu_0--edge1-FUNLAD_clean_linker_1
_symmetry_space_group_name_H-M    P1
_symmetry_Int_Tables_number       1
_symmetry_cell_setting            triclinic
loop_
_symmetry_equiv_pos_as_xyz
'x, y, z'
_cell_length_a     35.066972
_cell_length_b     35.274507
_cell_length_c     42.28097
_cell_angle_alpha  90.001602
_cell_angle_beta   89.731505
_cell_angle_gamma 90.110304
loop_
_atom_site_label
_atom_site_type_symbol
_atom_site_fract_x
_atom_site_fract_y
_atom_site_fract_z
_atom_type_partial_charge
Co0 Co 0.35253 0.03721 0.19419 0.0
O1 O 0.40345 0.01625 0.19281 0.0
O2 O 0.38956 0.07574 0.20493 0.0
C3 C 0.32394 0.98937 0.22058 0.0
O4 O 0.30399 0.06893 0.19982 0.0
Co5 Co 0.28459 0.99722 0.16061 0.0
O6 O 0.25318 0.03527 0.18333 0.0
C7 C 0.34474 0.03422 0.12291 0.0
C8 C 0.4154 0.04994 0.20035 0.0
C9 C 0.26768 0.06412 0.19684 0.0
O10 O 0.35735 0.05081 0.14787 0.0
O11 O 0.31821 0.00925 0.12353 0.0
O12 O 0.34314 0.0149 0.23604 0.0
O13 O 0.32614 0.99147 0.19021 0.0
Co14 Co 0.06295 0.34231 0.68397 0.0
O15 O 0.08295 0.3933 0.68291 0.0
O16 O 0.02162 0.3785 0.68591 0.0
C17 C 0.10452 0.31919 0.71949 0.0
O18 O 0.03142 0.29349 0.68773 0.0
Co19 Co 0.11229 0.27321 0.66317 0.0
O20 O 0.0694 0.24275 0.68053 0.0
C21 C 0.0879 0.33015 0.61691 0.0
C22 C 0.04778 0.40461 0.68468 0.0
C23 C 0.0375 0.25743 0.68816 0.0
O24 O 0.06166 0.34179 0.63603 0.0
O25 O 0.11372 0.30652 0.62484 0.0
O26 O 0.07487 0.33806 0.72925 0.0
O27 O 0.1094 0.31805 0.68934 0.0
Co28 Co 0.77608 0.0766 0.17977 0.0
O29 O 0.72433 0.09516 0.17627 0.0
O30 O 0.74017 0.03601 0.18771 0.0
C31 C 0.799 0.125 0.20898 0.0
O32 O 0.82542 0.04681 0.18764 0.0
Co33 Co 0.84656 0.12081 0.15353 0.0
O34 O 0.87562 0.08588 0.18097 0.0
C35 C 0.79537 0.08014 0.10965 0.0
C36 C 0.71349 0.06088 0.18318 0.0
C37 C 0.86119 0.05475 0.19046 0.0
O38 O 0.77688 0.06478 0.1328 0.0
O39 O 0.8222 0.10432 0.11322 0.0
O40 O 0.78002 0.09776 0.2226 0.0
O41 O 0.8004 0.12371 0.17857 0.0
Co42 Co 0.05616 0.7642 0.6914 0.0
O43 O 0.02888 0.71702 0.68534 0.0
O44 O 0.08983 0.72188 0.69839 0.0
C45 C 0.01097 0.79344 0.72056 0.0
O46 O 0.0941 0.80656 0.70136 0.0
Co47 Co 0.02624 0.84168 0.66678 0.0
O48 O 0.0679 0.86374 0.69269 0.0
C49 C 0.0539 0.78338 0.62213 0.0
C50 C 0.06086 0.70028 0.69198 0.0
C51 C 0.0948 0.84299 0.70309 0.0
O52 O 0.06972 0.76514 0.64491 0.0
O53 O 0.03238 0.81225 0.62646 0.0
O54 O 0.03419 0.76971 0.73397 0.0
O55 O 0.01392 0.7962 0.69029 0.0
Co56 Co 0.34222 0.08256 0.82115 0.0
O57 O 0.38975 0.10837 0.82894 0.0
O58 O 0.38474 0.04938 0.81145 0.0
C59 C 0.31416 0.13056 0.79508 0.0
O60 O 0.29815 0.04709 0.80864 0.0
Co61 Co 0.2651 0.113 0.84811 0.0
O62 O 0.24301 0.07858 0.81611 0.0
C63 C 0.31987 0.07471 0.89032 0.0
C64 C 0.40654 0.07759 0.81963 0.0
C65 C 0.2618 0.05082 0.80488 0.0
O66 O 0.34111 0.06496 0.86672 0.0
O67 O 0.28993 0.09508 0.88781 0.0
O68 O 0.33748 0.10813 0.78018 0.0
O69 O 0.31125 0.12521 0.82513 0.0
Co70 Co 0.05226 0.34316 0.31423 0.0
O71 O 0.02787 0.39194 0.32025 0.0
O72 O 0.08942 0.3833 0.31076 0.0
C73 C 0.00794 0.31885 0.28142 0.0
O74 O 0.08845 0.29912 0.3047 0.0
Co75 Co 0.01571 0.26567 0.33232 0.0
O76 O 0.05878 0.24278 0.30847 0.0
C77 C 0.04081 0.31937 0.38181 0.0
C78 C 0.06151 0.40666 0.31578 0.0
C79 C 0.08768 0.26289 0.30103 0.0
O80 O 0.06019 0.33887 0.3615 0.0
O81 O 0.01884 0.29189 0.37424 0.0
O82 O 0.03427 0.34127 0.27026 0.0
O83 O 0.00805 0.31396 0.31156 0.0
Co84 Co 0.76276 0.03324 0.80557 0.0
O85 O 0.71926 1.00042 0.8117 0.0
O86 O 0.71631 0.05995 0.79517 0.0
C87 C 0.79952 0.99049 0.78028 0.0
O88 O 0.801 0.07538 0.79476 0.0
Co89 Co 0.84144 0.01583 0.83555 0.0
O90 O 0.86035 0.05659 0.80713 0.0
C91 C 0.77677 0.03949 0.87578 0.0
C92 C 0.69849 0.0289 0.8029 0.0
C93 C 0.8375 0.07984 0.79409 0.0
O94 O 0.75828 0.05001 0.85109 0.0
O95 O 0.80894 0.02241 0.87439 0.0
O96 O 0.77394 0.0094 0.7647 0.0
O97 O 0.79993 0.99587 0.81043 0.0
Co98 Co 0.06342 0.76545 0.30703 0.0
O99 O 0.08729 0.7167 0.31392 0.0
O100 O 0.02737 0.72523 0.29913 0.0
C101 C 0.11136 0.79196 0.27894 0.0
O102 O 0.02866 0.8099 0.29598 0.0
Co103 Co 0.09714 0.84128 0.33217 0.0
O104 O 0.05736 0.86571 0.30582 0.0
C105 C 0.06556 0.78417 0.37617 0.0
C106 C 0.05456 0.70193 0.30638 0.0
C107 C 0.02988 0.84634 0.29452 0.0
O108 O 0.04842 0.76743 0.35321 0.0
O109 O 0.08919 0.81151 0.3721 0.0
O110 O 0.08724 0.76949 0.26501 0.0
O111 O 0.10752 0.79499 0.30913 0.0
H112 H 0.38424 0.06553 0.0911 0.0
C113 C 0.36121 0.04489 0.0919 0.0
H114 H 0.32539 0.00859 0.06568 0.0
H115 H 0.36399 0.1275 0.95081 0.0
H116 H 0.34213 0.17857 0.98502 0.0
H117 H 0.32734 0.16649 0.04124 0.0
H118 H 0.33522 0.10406 0.06373 0.0
C119 C 0.34752 0.0302 0.06485 0.0
C120 C 0.36211 0.04039 0.03287 0.0
C121 C 0.3563 0.07723 0.02025 0.0
C122 C 0.36274 0.08383 0.98749 0.0
C123 C 0.35804 0.12091 0.97535 0.0
C124 C 0.34573 0.15041 0.99472 0.0
C125 C 0.33754 0.14362 0.02638 0.0
C126 C 0.3425 0.10752 0.03909 0.0
H127 H 0.30686 0.06432 0.9401 0.0
C128 C 0.32973 0.06316 0.92262 0.0
H129 H 0.38933 0.0562 0.91607 0.0
H130 H 0.38344 0.96899 0.05061 0.0
H131 H 0.4064 0.91888 0.01596 0.0
H132 H 0.41406 0.92993 0.95862 0.0
H133 H 0.39909 0.99137 0.93561 0.0
C134 C 0.36549 0.05693 0.93256 0.0
C135 C 0.37227 0.05325 0.96718 0.0
C136 C 0.3818 0.01768 0.98021 0.0
C137 C 0.37688 0.01126 0.01317 0.0
C138 C 0.38608 0.97518 0.02562 0.0
C139 C 0.39942 0.94627 0.00603 0.0
C140 C 0.40375 0.9525 0.97374 0.0
C141 C 0.39498 0.98775 0.96082 0.0
H142 H 0.11586 0.33907 0.57124 0.0
C143 C 0.08881 0.34236 0.58368 0.0
H144 H 0.02988 0.353 0.57816 0.0
H145 H 0.05109 0.42238 0.43956 0.0
H146 H 0.03023 0.47808 0.46868 0.0
H147 H 0.02385 0.47653 0.52678 0.0
H148 H 0.03745 0.41899 0.55621 0.0
C149 C 0.05755 0.35015 0.56676 0.0
C150 C 0.06017 0.35108 0.53152 0.0
C151 C 0.05277 0.38505 0.51475 0.0
C152 C 0.0571 0.38614 0.48123 0.0
C153 C 0.04849 0.42012 0.465 0.0
C154 C 0.03661 0.45228 0.48142 0.0
C155 C 0.03298 0.4514 0.51417 0.0
C156 C 0.0409 0.41824 0.53077 0.0
H157 H 0.02559 0.30964 0.43123 0.0
C158 C 0.04354 0.32703 0.41592 0.0
H159 H 0.0852 0.37062 0.41514 0.0
H160 H 0.06997 0.2789 0.55494 0.0
H161 H 0.09579 0.22506 0.52659 0.0
H162 H 0.11299 0.23022 0.47009 0.0
H163 H 0.10287 0.28895 0.44146 0.0
C164 C 0.06745 0.35193 0.4294 0.0
C165 C 0.06943 0.35343 0.46465 0.0
C166 C 0.07899 0.32015 0.48171 0.0
C167 C 0.07223 0.31823 0.51478 0.0
C168 C 0.07732 0.28296 0.53031 0.0
C169 C 0.09171 0.25161 0.51422 0.0
C170 C 0.10118 0.25444 0.4824 0.0
C171 C 0.09491 0.28821 0.46621 0.0
H172 H 0.73246 0.06149 0.90855 0.0
C173 C 0.7598 0.0471 0.90723 0.0
H174 H 0.80386 0.02046 0.93268 0.0
H175 H 0.73812 0.12492 0.04922 0.0
H176 H 0.74751 0.18029 0.01571 0.0
H177 H 0.76491 0.17297 0.95942 0.0
H178 H 0.77201 0.11076 0.93616 0.0
C179 C 0.77733 0.03627 0.93398 0.0
C180 C 0.76099 0.04215 0.96617 0.0
C181 C 0.75784 0.07907 0.97926 0.0
C182 C 0.74983 0.08341 0.01206 0.0
C183 C 0.7456 0.12034 0.02464 0.0
C184 C 0.7507 0.15223 0.00567 0.0
C185 C 0.76036 0.1481 0.97397 0.0
C186 C 0.76411 0.11206 0.96082 0.0
H187 H 0.80792 0.07834 0.05911 0.0
C188 C 0.78662 0.07026 0.0767 0.0
H189 H 0.73134 0.04705 0.08334 0.0
H190 H 0.75713 0.96806 0.94741 0.0
H191 H 0.74619 0.91334 0.98124 0.0
H192 H 0.73569 0.92123 0.03863 0.0
H193 H 0.73573 0.98398 0.06252 0.0
C194 C 0.75346 0.05554 0.0667 0.0
C195 C 0.74758 0.0511 0.03197 0.0
C196 C 0.74673 0.01451 0.01841 0.0
C197 C 0.75331 0.01001 0.98541 0.0
C198 C 0.7529 0.97301 0.97244 0.0
C199 C 0.74651 0.94142 0.99157 0.0
C200 C 0.74057 0.94586 0.02388 0.0
C201 C 0.74077 0.98194 0.03731 0.0
H202 H 0.02862 0.76114 0.41436 0.0
C203 C 0.05648 0.77314 0.40902 0.0
H204 H 0.10925 0.79215 0.42668 0.0
H205 H 0.0548 0.85309 0.55685 0.0
H206 H 0.06867 0.91121 0.52857 0.0
H207 H 0.08269 0.9103 0.47137 0.0
H208 H 0.0832 0.85129 0.44221 0.0
C209 C 0.0814 0.78029 0.43237 0.0
C210 C 0.07021 0.78005 0.4663 0.0
C211 C 0.06939 0.815 0.48288 0.0
C212 C 0.06044 0.81564 0.51565 0.0
C213 C 0.06064 0.85092 0.53177 0.0
C214 C 0.0687 0.88457 0.51586 0.0
C215 C 0.07667 0.88405 0.48369 0.0
C216 C 0.07702 0.84983 0.46727 0.0
H217 H 0.088 0.75593 0.58422 0.0
C218 C 0.06229 0.77206 0.5892 0.0
H219 H 0.01411 0.79972 0.57052 0.0
H220 H 0.07223 0.70804 0.44214 0.0
H221 H 0.0569 0.64992 0.47026 0.0
H222 H 0.03815 0.65139 0.52657 0.0
H223 H 0.03506 0.71097 0.55524 0.0
C224 C 0.03972 0.78346 0.5654 0.0
C225 C 0.05175 0.78141 0.53173 0.0
C226 C 0.05251 0.74643 0.51522 0.0
C227 C 0.06222 0.74569 0.48247 0.0
C228 C 0.06407 0.7103 0.46677 0.0
C229 C 0.05548 0.67673 0.48266 0.0
C230 C 0.04499 0.67755 0.51439 0.0
C231 C 0.04343 0.71192 0.5306 0.0
H232 H 0.46434 0.08892 0.20572 0.0
C233 C 0.45647 0.0595 0.2017 0.0
H234 H 0.47609 0.00436 0.19162 0.0
H235 H 0.63231 0.04935 0.12882 0.0
H236 H 0.59805 0.0218 0.08475 0.0
H237 H 0.53009 0.00464 0.08989 0.0
H238 H 0.49599 0.01479 0.1391 0.0
C239 C 0.48394 0.03355 0.19665 0.0
C240 C 0.52516 0.04423 0.19395 0.0
C241 C 0.54481 0.03798 0.16495 0.0
C242 C 0.58404 0.04801 0.16189 0.0
C243 C 0.60268 0.04194 0.13254 0.0
C244 C 0.58332 0.02626 0.10699 0.0
C245 C 0.54506 0.01659 0.10989 0.0
C246 C 0.52586 0.02244 0.13839 0.0
H247 H 0.66583 0.02043 0.18938 0.0
C248 C 0.67279 0.05017 0.18583 0.0
H249 H 0.65099 0.1058 0.18199 0.0
H250 H 0.49809 0.05565 0.25418 0.0
H251 H 0.53231 0.08408 0.29782 0.0
H252 H 0.59931 0.10427 0.29158 0.0
H253 H 0.63264 0.09566 0.24167 0.0
C254 C 0.6445 0.07581 0.18444 0.0
C255 C 0.60367 0.06439 0.18777 0.0
C256 C 0.58413 0.07063 0.21674 0.0
C257 C 0.54509 0.05995 0.22005 0.0
C258 C 0.52714 0.0646 0.24987 0.0
C259 C 0.54659 0.08058 0.27526 0.0
C260 C 0.58434 0.09188 0.27176 0.0
C261 C 0.60309 0.08686 0.24297 0.0
H262 H 0.00779 0.45304 0.6859 0.0
C263 C 0.03776 0.44528 0.68528 0.0
H264 H 0.0946 0.46497 0.68377 0.0
H265 H 0.06276 0.62733 0.62966 0.0
H266 H 0.09133 0.59663 0.58402 0.0
H267 H 0.10332 0.52773 0.58392 0.0
H268 H 0.08685 0.48911 0.62945 0.0
C269 C 0.06463 0.47256 0.68533 0.0
C270 C 0.05494 0.51374 0.68499 0.0
C271 C 0.06486 0.53598 0.65821 0.0
C272 C 0.05797 0.57573 0.65824 0.0
C273 C 0.06778 0.59712 0.63103 0.0
C274 C 0.08406 0.57984 0.60462 0.0
C275 C 0.09081 0.54105 0.60457 0.0
C276 C 0.08133 0.51923 0.63093 0.0
H277 H 0.09308 0.64687 0.69588 0.0
C278 C 0.06495 0.65864 0.69157 0.0
H279 H 0.00707 0.64617 0.68212 0.0
H280 H 0.03443 0.48026 0.74119 0.0
H281 H 1.00428 0.51089 0.78603 0.0
H282 H 0.99018 0.57936 0.78511 0.0
H283 H 0.00658 0.61771 0.73933 0.0
C284 C 0.03562 0.63513 0.68576 0.0
C285 C 0.04124 0.59326 0.68508 0.0
C286 C 0.0304 0.57097 0.71152 0.0
C287 C 0.03773 0.53126 0.71172 0.0
C288 C 0.02844 0.5102 0.73922 0.0
C289 C 0.01134 0.52751 0.76528 0.0
C290 C 1.00346 0.56607 0.76479 0.0
C291 C 0.01298 0.58773 0.73836 0.0
H292 H 0.64387 0.99888 0.80981 0.0
C293 C 0.65649 0.02598 0.80334 0.0
H294 H 0.64574 0.08285 0.79059 0.0
H295 H 0.47602 0.05431 0.74629 0.0
H296 H 0.50768 0.06354 0.69572 0.0
H297 H 0.57783 0.06736 0.69222 0.0
H298 H 0.61678 0.06218 0.73929 0.0
C299 C 0.63365 0.05575 0.79771 0.0
C300 C 0.59129 0.05238 0.79999 0.0
C301 C 0.5689 0.05513 0.77225 0.0
C302 C 0.52843 0.05251 0.77422 0.0
C303 C 0.50684 0.0558 0.74614 0.0
C304 C 0.52465 0.06113 0.71694 0.0
C305 C 0.56414 0.06331 0.71498 0.0
C306 C 0.58616 0.06035 0.7422 0.0
H307 H 0.46436 0.09987 0.82771 0.0
C308 C 0.44857 0.07574 0.81851 0.0
H309 H 0.45263 0.02278 0.79541 0.0
H310 H 0.62516 0.04919 0.8583 0.0
H311 H 0.5936 0.03824 0.90857 0.0
H312 H 0.52379 0.03011 0.91154 0.0
H313 H 0.48508 0.0334 0.86423 0.0
C314 C 0.46782 0.04642 0.80602 0.0
C315 C 0.51033 0.04722 0.80396 0.0
C316 C 0.53272 0.04388 0.83168 0.0
C317 C 0.57316 0.04712 0.82979 0.0
C318 C 0.59454 0.04557 0.85811 0.0
C319 C 0.57675 0.03954 0.8872 0.0
C320 C 0.53744 0.03508 0.88889 0.0
C321 C 0.51554 0.03722 0.86156 0.0
H322 H 0.09707 0.45785 0.31027 0.0
C323 C 0.06833 0.44799 0.31549 0.0
H324 H 0.01196 0.46427 0.32687 0.0
H325 H 0.06269 0.62705 0.37611 0.0
H326 H 0.04876 0.59559 0.42588 0.0
H327 H 0.03484 0.52709 0.42755 0.0
H328 H 0.0347 0.48946 0.37947 0.0
C329 C 0.0406 0.47352 0.32067 0.0
C330 C 0.04869 0.51506 0.31945 0.0
C331 C 0.04876 0.53661 0.34776 0.0
C332 C 0.05707 0.57613 0.34682 0.0
C333 C 0.05682 0.59693 0.37548 0.0
C334 C 0.04884 0.57924 0.40421 0.0
C335 C 0.04098 0.54065 0.40515 0.0
C336 C 0.04094 0.51941 0.37736 0.0
H337 H 0.02056 0.65037 0.29751 0.0
C338 C 0.04784 0.66059 0.30616 0.0
H339 H 0.1004 0.64536 0.32678 0.0
H340 H 0.0476 0.48305 0.2604 0.0
H341 H 0.06259 0.51431 0.21081 0.0
H342 H 0.07981 0.58213 0.20951 0.0
H343 H 0.0817 0.61922 0.25778 0.0
C344 C 0.07364 0.63558 0.3168 0.0
C345 C 0.06514 0.59414 0.31756 0.0
C346 C 0.0651 0.57261 0.28922 0.0
C347 C 0.05636 0.53318 0.2901 0.0
C348 C 0.05516 0.51277 0.26127 0.0
C349 C 0.0635 0.53042 0.23259 0.0
C350 C 0.0731 0.56862 0.23185 0.0
C351 C 0.07393 0.58962 0.25974 0.0
H352 H 0.14599 0.26209 0.28067 0.0
C353 C 0.12193 0.24431 0.28742 0.0
H354 H 0.10077 0.18828 0.29022 0.0
H355 H 0.23144 0.16195 0.1796 0.0
H356 H 0.19163 0.20166 0.14655 0.0
H357 H 0.13586 0.23486 0.16895 0.0
H358 H 0.11983 0.22902 0.22456 0.0
C359 C 0.12405 0.20661 0.28274 0.0
C360 C 0.15871 0.18811 0.26907 0.0
C361 C 0.16728 0.19134 0.23633 0.0
C362 C 0.1987 0.1711 0.22313 0.0
C363 C 0.20723 0.17571 0.1906 0.0
C364 C 0.18475 0.19859 0.1714 0.0
C365 C 0.15341 0.21736 0.18404 0.0
C366 C 0.14462 0.21386 0.21608 0.0
H367 H 0.21055 0.08836 0.20424 0.0
C368 C 0.24062 0.09256 0.20945 0.0
H369 H 0.28025 0.12561 0.23502 0.0
H370 H 0.15169 0.17743 0.33286 0.0
H371 H 0.19112 0.13712 0.36572 0.0
H372 H 0.24447 0.10082 0.34262 0.0
H373 H 0.25887 0.10469 0.28654 0.0
C374 C 0.2507 0.12177 0.22808 0.0
C375 C 0.22084 0.14675 0.24243 0.0
C376 C 0.213 0.14448 0.27532 0.0
C377 C 0.18193 0.16512 0.28861 0.0
C378 C 0.17466 0.16207 0.32149 0.0
C379 C 0.19712 0.13911 0.34064 0.0
C380 C 0.22718 0.1187 0.32763 0.0
C381 C 0.23514 0.1212 0.29538 0.0
H382 H 0.0126 0.20085 0.6962 0.0
C383 C 0.00723 0.23104 0.69894 0.0
H384 H 0.97072 0.27199 0.71927 0.0
H385 H 0.87159 0.10844 0.71606 0.0
H386 H 0.86953 0.11775 0.65931 0.0
H387 H 0.90316 0.17152 0.6343 0.0
H388 H 0.93955 0.21607 0.66594 0.0
C389 C 0.97563 0.24212 0.71453 0.0
C390 C 0.95007 0.21342 0.72985 0.0
C391 C 0.92766 0.18844 0.71127 0.0
C392 C 0.90719 0.15812 0.72588 0.0
C393 C 0.88678 0.13254 0.70644 0.0
C394 C 0.88548 0.13747 0.67377 0.0
C395 C 0.90449 0.16769 0.65967 0.0
C396 C 0.92541 0.19294 0.67808 0.0
H397 H 0.83385 0.13409 0.76764 0.0
C398 C 0.85346 0.11357 0.77766 0.0
H399 H 0.91114 0.09928 0.7853 0.0
H400 H 0.98797 0.25761 0.77272 0.0
H401 H 0.98797 0.24996 0.82971 0.0
H402 H 0.95102 0.19867 0.85513 0.0
H403 H 0.91399 0.15455 0.82368 0.0
C404 C 0.89135 0.11915 0.77462 0.0
C405 C 0.90829 0.15343 0.75922 0.0
C406 C 0.92909 0.17964 0.7779 0.0
C407 C 0.94998 0.20959 0.76325 0.0
C408 C 0.97128 0.2346 0.78256 0.0
C409 C 0.97156 0.23053 0.81533 0.0
C410 C 0.9508 0.20163 0.82964 0.0
C411 C 0.92977 0.17641 0.81129 0.0
H412 H 0.97406 0.84914 0.27041 0.0
C413 C 0.99768 0.86612 0.27913 0.0
H414 H 0.02083 0.92133 0.28276 0.0
H415 H 0.92577 0.98134 0.16549 0.0
H416 H 0.98592 0.96807 0.13931 0.0
H417 H 0.0374 0.93449 0.16728 0.0
H418 H 0.0287 0.9134 0.22146 0.0
C419 C 0.99693 0.90396 0.27519 0.0
C420 C 0.96518 0.92321 0.25824 0.0
C421 C 0.97093 0.93612 0.22684 0.0
C422 C 0.94168 0.95658 0.21106 0.0
C423 C 0.9476 0.96728 0.17912 0.0
C424 C 0.98187 0.95946 0.16367 0.0
C425 C 0.01081 0.94049 0.17939 0.0
C426 C 0.00549 0.92868 0.21053 0.0
H427 H 0.91673 0.03695 0.20915 0.0
C428 C 0.88773 0.02726 0.20489 0.0
H429 H 0.84948 0.98118 0.20902 0.0
H430 H 0.94437 0.90145 0.31797 0.0
H431 H 0.88416 0.91447 0.34422 0.0
H432 H 0.83391 0.95103 0.31738 0.0
H433 H 0.84348 0.97475 0.2641 0.0
C434 C 0.87845 0.99134 0.21239 0.0
C435 C 0.90719 0.96555 0.22719 0.0
C436 C 0.9009 0.95135 0.25819 0.0
C437 C 0.92992 0.93019 0.27372 0.0
C438 C 0.92321 0.91728 0.30497 0.0
C439 C 0.88881 0.92466 0.32036 0.0
C440 C 0.86052 0.94525 0.30524 0.0
C441 C 0.86638 0.95865 0.2746 0.0
H442 H 0.15265 0.84335 0.72393 0.0
C443 C 0.1287 0.86121 0.71744 0.0
H444 H 0.10711 0.91696 0.71586 0.0
H445 H 0.24145 0.94035 0.82387 0.0
H446 H 0.20742 0.89368 0.85549 0.0
H447 H 0.153 0.85833 0.83331 0.0
H448 H 0.13251 0.86898 0.77946 0.0
C449 C 0.13053 0.89876 0.72296 0.0
C450 C 0.1651 0.91763 0.73631 0.0
C451 C 0.17648 0.91112 0.76807 0.0
C452 C 0.20724 0.93229 0.78123 0.0
C453 C 0.21804 0.92532 0.81291 0.0
C454 C 0.19878 0.89864 0.83129 0.0
C455 C 0.16819 0.87867 0.81878 0.0
C456 C 0.15691 0.88487 0.78765 0.0
H457 H 0.21005 0.02954 0.78191 0.0
C458 C 0.23947 0.02227 0.7873 0.0
H459 H 0.2809 0.97875 0.78493 0.0
H460 H 0.15305 0.935 0.67404 0.0
H461 H 0.18701 0.9821 0.64294 0.0
H462 H 0.23923 0.0196 0.66631 0.0
H463 H 0.25793 0.01007 0.72098 0.0
C464 C 0.25231 0.9879 0.7788 0.0
C465 C 0.22564 0.96081 0.76311 0.0
C466 C 0.21528 0.96629 0.73109 0.0
C467 C 0.18507 0.9447 0.71768 0.0
C468 C 0.17542 0.95091 0.6856 0.0
C469 C 0.19479 0.97776 0.66742 0.0
C470 C 0.22419 0.99887 0.68058 0.0
C471 C 0.2345 0.99327 0.712 0.0
H472 H 0.82715 0.9631 0.73901 0.0
C473 C 0.82697 0.96491 0.76466 0.0
H474 H 0.85119 0.94576 0.8074 0.0
H475 H 0.90133 0.8089 0.70741 0.0
H476 H 0.83366 0.79677 0.70142 0.0
H477 H 0.78603 0.83868 0.7264 0.0
H478 H 0.80572 0.89314 0.75713 0.0
C479 C 0.8509 0.94337 0.78177 0.0
C480 C 0.87922 0.91736 0.76698 0.0
C481 C 0.86708 0.88507 0.74968 0.0
C482 C 0.89455 0.86039 0.73588 0.0
C483 C 0.8817 0.82862 0.71836 0.0
C484 C 0.84294 0.82121 0.71484 0.0
C485 C 0.81613 0.84484 0.72887 0.0
C486 C 0.82787 0.87626 0.74626 0.0
H487 H 0.98338 0.81547 0.7642 0.0
C488 C 0.9846 0.81791 0.7386 0.0
H489 H 0.96268 0.84465 0.69782 0.0
H490 H 0.91217 0.97611 0.79937 0.0
H491 H 0.97984 0.98746 0.80606 0.0
H492 H 0.02739 0.94444 0.7823 0.0
H493 H 0.00754 0.88974 0.75182 0.0
C494 C 0.96224 0.84301 0.72349 0.0
C495 C 0.93403 0.86737 0.74013 0.0
C496 C 0.94619 0.89916 0.75797 0.0
C497 C 0.91874 0.9241 0.7715 0.0
C498 C 0.9317 0.95599 0.78882 0.0
C499 C 0.9705 0.96296 0.79274 0.0
C500 C 0.99726 0.93874 0.77936 0.0
C501 C 0.98544 0.9073 0.76203 0.0
H502 H 0.29529 0.96317 0.26201 0.0
C503 C 0.29762 0.96262 0.23638 0.0
H504 H 0.27734 0.93886 0.19377 0.0
H505 H 0.22219 0.80677 0.29569 0.0
H506 H 0.28953 0.79555 0.30439 0.0
H507 H 0.33819 0.83735 0.28046 0.0
H508 H 0.31983 0.89075 0.24792 0.0
C509 C 0.27592 0.93856 0.21945 0.0
C510 C 0.24691 0.91326 0.2343 0.0
C511 C 0.25823 0.8819 0.253 0.0
C512 C 0.23017 0.85748 0.26644 0.0
C513 C 0.24226 0.82636 0.28505 0.0
C514 C 0.28084 0.81948 0.29013 0.0
C515 C 0.30823 0.84303 0.27668 0.0
C516 C 0.29725 0.87378 0.25819 0.0
H517 H 0.14088 0.81311 0.23585 0.0
C518 C 0.1392 0.81546 0.26143 0.0
H519 H 0.16097 0.84148 0.30261 0.0
H520 H 0.21554 0.97024 0.19906 0.0
H521 H 0.14822 0.98163 0.19053 0.0
H522 H 0.09955 0.93996 0.2146 0.0
H523 H 0.1179 0.88654 0.2471 0.0
C524 C 0.16194 0.83995 0.27694 0.0
C525 C 0.19089 0.86407 0.26078 0.0
C526 C 0.17954 0.8953 0.24194 0.0
C527 C 0.20762 0.91969 0.22845 0.0
C528 C 0.1955 0.95076 0.20982 0.0
C529 C 0.15691 0.9577 0.2048 0.0
C530 C 0.12951 0.93422 0.21833 0.0
C531 C 0.1405 0.90347 0.23682 0.0
H532 H 0.12258 0.29593 0.76588 0.0
C533 C 0.12909 0.29699 0.74075 0.0
H534 H 0.16459 0.27781 0.70354 0.0
H535 H 0.28495 0.23998 0.81672 0.0
H536 H 0.288 0.30787 0.82539 0.0
H537 H 0.24336 0.35098 0.79847 0.0
H538 H 0.19529 0.32646 0.76286 0.0
C539 C 0.15879 0.27747 0.72881 0.0
C540 C 0.1828 0.2518 0.74805 0.0
C541 C 0.21057 0.26671 0.76889 0.0
C542 C 0.23649 0.24187 0.78422 0.0
C543 C 0.26436 0.25749 0.80461 0.0
C544 C 0.26653 0.29644 0.80973 0.0
C545 C 0.24139 0.32071 0.79457 0.0
C546 C 0.21381 0.30622 0.77425 0.0
H547 H 0.29063 0.15907 0.75284 0.0
C548 C 0.28864 0.15685 0.77843 0.0
H549 H 0.26065 0.17524 0.82008 0.0
H550 H 0.13179 0.21408 0.71065 0.0
H551 H 0.12759 0.14607 0.70294 0.0
H552 H 0.1716 0.10282 0.73046 0.0
H553 H 0.22012 0.12734 0.76553 0.0
C554 C 0.26211 0.17671 0.79443 0.0
C555 C 0.23478 0.20231 0.77839 0.0
C556 C 0.20613 0.18728 0.75839 0.0
C557 C 0.18037 0.21213 0.74296 0.0
C558 C 0.1522 0.1965 0.72286 0.0
C559 C 0.14936 0.15749 0.71833 0.0
C560 C 0.17414 0.13315 0.7338 0.0
C561 C 0.20211 0.14768 0.75373 0.0
H562 H 0.98399 0.29909 0.23567 0.0
C563 C 0.9814 0.29727 0.26124 0.0
H564 H 0.95267 0.27269 0.30024 0.0
H565 H 0.81796 0.23936 0.19719 0.0
H566 H 0.81143 0.3076 0.19317 0.0
H567 H 0.85797 0.3503 0.21848 0.0
H568 H 0.91145 0.32503 0.24775 0.0
C569 C 0.95453 0.27504 0.27465 0.0
C570 C 0.92867 0.24998 0.25634 0.0
C571 C 0.89757 0.26531 0.23934 0.0
C572 C 0.87056 0.24066 0.22497 0.0
C573 C 0.83952 0.25671 0.20836 0.0
C574 C 0.83532 0.29586 0.20598 0.0
C575 C 0.86152 0.3199 0.22022 0.0
C576 C 0.89221 0.30498 0.23687 0.0
H577 H 0.82351 0.15015 0.25249 0.0
C578 C 0.82337 0.15152 0.22682 0.0
H579 H 0.84625 0.1774 0.18581 0.0
H580 H 0.98584 0.21157 0.28629 0.0
H581 H 0.99338 0.14337 0.28928 0.0
H582 H 0.94729 0.10056 0.26351 0.0
H583 H 0.89334 0.12564 0.23497 0.0
C584 C 0.84704 0.17544 0.21145 0.0
C585 C 0.87447 0.20078 0.22792 0.0
C586 C 0.90613 0.18545 0.24431 0.0
C587 C 0.93304 0.21012 0.25876 0.0
C588 C 0.96439 0.19415 0.27504 0.0
C589 C 0.96919 0.15503 0.27682 0.0
C590 C 0.94324 0.13095 0.26233 0.0
C591 C 0.91217 0.14579 0.24614 0.0
loop_
_geom_bond_atom_site_label_1
_geom_bond_atom_site_label_2
_geom_bond_distance
_geom_bond_site_symmetry_2
_ccdc_geom_bond_type
Co0 O1 2.216 . S
Co0 O2 2.091 . S
Co0 O4 2.004 . S
Co0 O10 2.021 . S
Co0 O12 2.137 . S
Co0 O13 2.244 1_545 S
O1 Co0 2.216 . S
O1 C8 1.247 . S
O2 Co0 2.091 . S
O2 C8 1.261 . S
C3 O12 1.247 1_565 S
C3 O13 1.272 . S
O4 Co0 2.004 . S
O4 C9 1.259 . S
Co5 O6 2.061 . S
Co5 O11 2.052 . S
Co5 O13 2.135 1_545 S
O6 Co5 2.061 . S
O6 C9 1.235 . S
C7 O10 1.238 . S
C7 O11 1.241 . S
C8 O1 1.247 . S
C8 O2 1.261 . S
C9 O4 1.259 . S
C9 O6 1.235 . S
O10 Co0 2.021 . S
O10 C7 1.238 . S
O11 Co5 2.052 . S
O11 C7 1.241 . S
O12 Co0 2.137 . S
O12 C3 1.247 1_545 S
O13 Co0 2.244 1_565 S
O13 C3 1.272 . S
O13 Co5 2.135 1_565 S
Co14 O15 2.216 . S
Co14 O16 2.091 . S
Co14 O18 2.004 . S
Co14 O24 2.021 . S
Co14 O26 2.137 . S
Co14 O27 2.244 . S
O15 Co14 2.216 . S
O15 C22 1.247 . S
O16 Co14 2.091 . S
O16 C22 1.261 . S
C17 O26 1.247 . S
C17 O27 1.272 . S
O18 Co14 2.004 . S
O18 C23 1.259 . S
Co19 O20 2.061 . S
Co19 O25 2.052 . S
Co19 O27 2.135 . S
O20 Co19 2.061 . S
O20 C23 1.235 . S
C21 O24 1.238 . S
C21 O25 1.241 . S
C22 O15 1.247 . S
C22 O16 1.261 . S
C23 O18 1.259 . S
C23 O20 1.235 . S
O24 Co14 2.021 . S
O24 C21 1.238 . S
O25 Co19 2.052 . S
O25 C21 1.241 . S
O26 Co14 2.137 . S
O26 C17 1.247 . S
O27 Co14 2.244 . S
O27 C17 1.272 . S
O27 Co19 2.135 . S
Co28 O29 2.216 . S
Co28 O30 2.091 . S
Co28 O32 2.004 . S
Co28 O38 2.021 . S
Co28 O40 2.137 . S
Co28 O41 2.244 . S
O29 Co28 2.216 . S
O29 C36 1.247 . S
O30 Co28 2.091 . S
O30 C36 1.261 . S
C31 O40 1.247 . S
C31 O41 1.272 . S
O32 Co28 2.004 . S
O32 C37 1.259 . S
Co33 O34 2.061 . S
Co33 O39 2.052 . S
Co33 O41 2.135 . S
O34 Co33 2.061 . S
O34 C37 1.235 . S
C35 O38 1.238 . S
C35 O39 1.241 . S
C36 O29 1.247 . S
C36 O30 1.261 . S
C37 O32 1.259 . S
C37 O34 1.235 . S
O38 Co28 2.021 . S
O38 C35 1.238 . S
O39 Co33 2.052 . S
O39 C35 1.241 . S
O40 Co28 2.137 . S
O40 C31 1.247 . S
O41 Co28 2.244 . S
O41 C31 1.272 . S
O41 Co33 2.135 . S
Co42 O43 2.216 . S
Co42 O44 2.091 . S
Co42 O46 2.004 . S
Co42 O52 2.021 . S
Co42 O54 2.137 . S
Co42 O55 2.244 1_455 S
O43 Co42 2.216 . S
O43 C50 1.247 . S
O44 Co42 2.091 . S
O44 C50 1.261 . S
C45 O54 1.247 1_655 S
C45 O55 1.272 . S
O46 Co42 2.004 . S
O46 C51 1.259 . S
Co47 O48 2.061 . S
Co47 O53 2.052 . S
Co47 O55 2.135 1_455 S
O48 Co47 2.061 . S
O48 C51 1.235 . S
C49 O52 1.238 . S
C49 O53 1.241 . S
C50 O43 1.247 . S
C50 O44 1.261 . S
C51 O46 1.259 . S
C51 O48 1.235 . S
O52 Co42 2.021 . S
O52 C49 1.238 . S
O53 Co47 2.052 . S
O53 C49 1.241 . S
O54 Co42 2.137 . S
O54 C45 1.247 1_455 S
O55 Co42 2.244 1_655 S
O55 C45 1.272 . S
O55 Co47 2.135 1_655 S
Co56 O57 2.216 . S
Co56 O58 2.091 . S
Co56 O60 2.004 . S
Co56 O66 2.021 . S
Co56 O68 2.137 . S
Co56 O69 2.244 . S
O57 Co56 2.216 . S
O57 C64 1.247 . S
O58 Co56 2.091 . S
O58 C64 1.261 . S
C59 O68 1.247 . S
C59 O69 1.272 . S
O60 Co56 2.004 . S
O60 C65 1.259 . S
Co61 O62 2.061 . S
Co61 O67 2.052 . S
Co61 O69 2.135 . S
O62 Co61 2.061 . S
O62 C65 1.235 . S
C63 O66 1.238 . S
C63 O67 1.241 . S
C64 O57 1.247 . S
C64 O58 1.261 . S
C65 O60 1.259 . S
C65 O62 1.235 . S
O66 Co56 2.021 . S
O66 C63 1.238 . S
O67 Co61 2.052 . S
O67 C63 1.241 . S
O68 Co56 2.137 . S
O68 C59 1.247 . S
O69 Co56 2.244 . S
O69 C59 1.272 . S
O69 Co61 2.135 . S
Co70 O71 2.216 . S
Co70 O72 2.091 . S
Co70 O74 2.004 . S
Co70 O80 2.021 . S
Co70 O82 2.137 . S
Co70 O83 2.244 1_455 S
O71 Co70 2.216 . S
O71 C78 1.247 . S
O72 Co70 2.091 . S
O72 C78 1.261 . S
C73 O82 1.247 1_655 S
C73 O83 1.272 . S
O74 Co70 2.004 . S
O74 C79 1.259 . S
Co75 O76 2.061 . S
Co75 O81 2.052 . S
Co75 O83 2.135 1_455 S
O76 Co75 2.061 . S
O76 C79 1.235 . S
C77 O80 1.238 . S
C77 O81 1.241 . S
C78 O71 1.247 . S
C78 O72 1.261 . S
C79 O74 1.259 . S
C79 O76 1.235 . S
O80 Co70 2.021 . S
O80 C77 1.238 . S
O81 Co75 2.052 . S
O81 C77 1.241 . S
O82 Co70 2.137 . S
O82 C73 1.247 1_455 S
O83 Co70 2.244 1_655 S
O83 C73 1.272 . S
O83 Co75 2.135 1_655 S
Co84 O85 2.216 . S
Co84 O86 2.091 . S
Co84 O88 2.004 . S
Co84 O94 2.021 . S
Co84 O96 2.137 . S
Co84 O97 2.244 1_545 S
O85 Co84 2.216 . S
O85 C92 1.247 . S
O86 Co84 2.091 . S
O86 C92 1.261 . S
C87 O96 1.247 1_565 S
C87 O97 1.272 . S
O88 Co84 2.004 . S
O88 C93 1.259 . S
Co89 O90 2.061 . S
Co89 O95 2.052 . S
Co89 O97 2.135 1_545 S
O90 Co89 2.061 . S
O90 C93 1.235 . S
C91 O94 1.238 . S
C91 O95 1.241 . S
C92 O85 1.247 . S
C92 O86 1.261 . S
C93 O88 1.259 . S
C93 O90 1.235 . S
O94 Co84 2.021 . S
O94 C91 1.238 . S
O95 Co89 2.052 . S
O95 C91 1.241 . S
O96 Co84 2.137 . S
O96 C87 1.247 1_545 S
O97 Co84 2.244 1_565 S
O97 C87 1.272 . S
O97 Co89 2.135 1_565 S
Co98 O99 2.216 . S
Co98 O100 2.091 . S
Co98 O102 2.004 . S
Co98 O108 2.021 . S
Co98 O110 2.137 . S
Co98 O111 2.244 . S
O99 Co98 2.216 . S
O99 C106 1.247 . S
O100 Co98 2.091 . S
O100 C106 1.261 . S
C101 O110 1.247 . S
C101 O111 1.272 . S
O102 Co98 2.004 . S
O102 C107 1.259 . S
Co103 O104 2.061 . S
Co103 O109 2.052 . S
Co103 O111 2.135 . S
O104 Co103 2.061 . S
O104 C107 1.235 . S
C105 O108 1.238 . S
C105 O109 1.241 . S
C106 O99 1.247 . S
C106 O100 1.261 . S
C107 O102 1.259 . S
C107 O104 1.235 . S
O108 Co98 2.021 . S
O108 C105 1.238 . S
O109 Co103 2.052 . S
O109 C105 1.241 . S
O110 Co98 2.137 . S
O110 C101 1.247 . S
O111 Co98 2.244 . S
O111 C101 1.272 . S
O111 Co103 2.135 . S
H112 C113 0.951 . S
C113 H112 0.951 . S
C113 C119 1.265 . S
H114 C119 0.950 . S
H115 C123 0.949 . S
H116 C124 0.950 . S
H117 C125 0.951 . S
H118 C126 0.951 . S
C119 C113 1.265 . S
C119 H114 0.950 . S
C119 C120 1.478 . S
C120 C119 1.478 . S
C120 C121 1.397 . S
C120 C137 1.394 . S
C121 C120 1.397 . S
C121 C122 1.438 1_554 S
C121 C126 1.429 . S
C122 C121 1.438 1_556 S
C122 C123 1.428 . S
C122 C135 1.394 . S
C123 H115 0.949 . S
C123 C122 1.428 . S
C123 C124 1.345 . S
C124 H116 0.950 . S
C124 C123 1.345 . S
C124 C125 1.424 1_556 S
C125 H117 0.951 . S
C125 C124 1.424 1_554 S
C125 C126 1.347 . S
C126 H118 0.951 . S
C126 C121 1.429 . S
C126 C125 1.347 . S
H127 C128 0.951 . S
C128 H127 0.951 . S
C128 C134 1.265 . S
H129 C134 0.950 . S
H130 C138 0.949 . S
H131 C139 0.950 . S
H132 C140 0.951 . S
H133 C141 0.951 . S
C134 C128 1.265 . S
C134 H129 0.950 . S
C134 C135 1.478 . S
C135 C122 1.394 . S
C135 C134 1.478 . S
C135 C136 1.397 . S
C136 C135 1.397 . S
C136 C137 1.438 1_556 S
C136 C141 1.429 1_545 S
C137 C120 1.394 . S
C137 C136 1.438 1_554 S
C137 C138 1.428 1_545 S
C138 H130 0.949 . S
C138 C137 1.428 1_565 S
C138 C139 1.345 . S
C139 H131 0.950 . S
C139 C138 1.345 . S
C139 C140 1.424 1_554 S
C140 H132 0.951 . S
C140 C139 1.424 1_556 S
C140 C141 1.347 . S
C141 H133 0.951 . S
C141 C136 1.429 1_565 S
C141 C140 1.347 . S
H142 C143 0.951 . S
C143 H142 0.951 . S
C143 C149 1.265 . S
H144 C149 0.950 . S
H145 C153 0.949 . S
H146 C154 0.950 . S
H147 C155 0.951 . S
H148 C156 0.951 . S
C149 C143 1.265 . S
C149 H144 0.950 . S
C149 C150 1.478 . S
C150 C149 1.478 . S
C150 C151 1.397 . S
C150 C167 1.394 . S
C151 C150 1.397 . S
C151 C152 1.438 . S
C151 C156 1.429 . S
C152 C151 1.438 . S
C152 C153 1.428 . S
C152 C165 1.394 . S
C153 H145 0.949 . S
C153 C152 1.428 . S
C153 C154 1.345 . S
C154 H146 0.950 . S
C154 C153 1.345 . S
C154 C155 1.424 . S
C155 H147 0.951 . S
C155 C154 1.424 . S
C155 C156 1.347 . S
C156 H148 0.951 . S
C156 C151 1.429 . S
C156 C155 1.347 . S
H157 C158 0.951 . S
C158 H157 0.951 . S
C158 C164 1.265 . S
H159 C164 0.950 . S
H160 C168 0.949 . S
H161 C169 0.950 . S
H162 C170 0.951 . S
H163 C171 0.951 . S
C164 C158 1.265 . S
C164 H159 0.950 . S
C164 C165 1.478 . S
C165 C152 1.394 . S
C165 C164 1.478 . S
C165 C166 1.397 . S
C166 C165 1.397 . S
C166 C167 1.438 . S
C166 C171 1.429 . S
C167 C150 1.394 . S
C167 C166 1.438 . S
C167 C168 1.428 . S
C168 H160 0.949 . S
C168 C167 1.428 . S
C168 C169 1.345 . S
C169 H161 0.950 . S
C169 C168 1.345 . S
C169 C170 1.424 . S
C170 H162 0.951 . S
C170 C169 1.424 . S
C170 C171 1.347 . S
C171 H163 0.951 . S
C171 C166 1.429 . S
C171 C170 1.347 . S
H172 C173 0.951 . S
C173 H172 0.951 . S
C173 C179 1.265 . S
H174 C179 0.950 . S
H175 C183 0.949 . S
H176 C184 0.950 . S
H177 C185 0.951 . S
H178 C186 0.951 . S
C179 C173 1.265 . S
C179 H174 0.950 . S
C179 C180 1.478 . S
C180 C179 1.478 . S
C180 C181 1.397 . S
C180 C197 1.394 . S
C181 C180 1.397 . S
C181 C182 1.438 1_556 S
C181 C186 1.429 . S
C182 C181 1.438 1_554 S
C182 C183 1.428 . S
C182 C195 1.394 . S
C183 H175 0.949 . S
C183 C182 1.428 . S
C183 C184 1.345 . S
C184 H176 0.950 . S
C184 C183 1.345 . S
C184 C185 1.424 1_554 S
C185 H177 0.951 . S
C185 C184 1.424 1_556 S
C185 C186 1.347 . S
C186 H178 0.951 . S
C186 C181 1.429 . S
C186 C185 1.347 . S
H187 C188 0.951 . S
C188 H187 0.951 . S
C188 C194 1.265 . S
H189 C194 0.950 . S
H190 C198 0.949 . S
H191 C199 0.950 . S
H192 C200 0.951 . S
H193 C201 0.951 . S
C194 C188 1.265 . S
C194 H189 0.950 . S
C194 C195 1.478 . S
C195 C182 1.394 . S
C195 C194 1.478 . S
C195 C196 1.397 . S
C196 C195 1.397 . S
C196 C197 1.438 1_554 S
C196 C201 1.429 1_545 S
C197 C180 1.394 . S
C197 C196 1.438 1_556 S
C197 C198 1.428 1_545 S
C198 H190 0.949 . S
C198 C197 1.428 1_565 S
C198 C199 1.345 . S
C199 H191 0.950 . S
C199 C198 1.345 . S
C199 C200 1.424 1_556 S
C200 H192 0.951 . S
C200 C199 1.424 1_554 S
C200 C201 1.347 . S
C201 H193 0.951 . S
C201 C196 1.429 1_565 S
C201 C200 1.347 . S
H202 C203 0.951 . S
C203 H202 0.951 . S
C203 C209 1.265 . S
H204 C209 0.950 . S
H205 C213 0.949 . S
H206 C214 0.950 . S
H207 C215 0.951 . S
H208 C216 0.951 . S
C209 C203 1.265 . S
C209 H204 0.950 . S
C209 C210 1.478 . S
C210 C209 1.478 . S
C210 C211 1.397 . S
C210 C227 1.394 . S
C211 C210 1.397 . S
C211 C212 1.438 . S
C211 C216 1.429 . S
C212 C211 1.438 . S
C212 C213 1.428 . S
C212 C225 1.394 . S
C213 H205 0.949 . S
C213 C212 1.428 . S
C213 C214 1.345 . S
C214 H206 0.950 . S
C214 C213 1.345 . S
C214 C215 1.424 . S
C215 H207 0.951 . S
C215 C214 1.424 . S
C215 C216 1.347 . S
C216 H208 0.951 . S
C216 C211 1.429 . S
C216 C215 1.347 . S
H217 C218 0.951 . S
C218 H217 0.951 . S
C218 C224 1.265 . S
H219 C224 0.950 . S
H220 C228 0.949 . S
H221 C229 0.950 . S
H222 C230 0.951 . S
H223 C231 0.951 . S
C224 C218 1.265 . S
C224 H219 0.950 . S
C224 C225 1.478 . S
C225 C212 1.394 . S
C225 C224 1.478 . S
C225 C226 1.397 . S
C226 C225 1.397 . S
C226 C227 1.438 . S
C226 C231 1.429 . S
C227 C210 1.394 . S
C227 C226 1.438 . S
C227 C228 1.428 . S
C228 H220 0.949 . S
C228 C227 1.428 . S
C228 C229 1.345 . S
C229 H221 0.950 . S
C229 C228 1.345 . S
C229 C230 1.424 . S
C230 H222 0.951 . S
C230 C229 1.424 . S
C230 C231 1.347 . S
C231 H223 0.951 . S
C231 C226 1.429 . S
C231 C230 1.347 . S
H232 C233 0.951 . S
C233 H232 0.951 . S
C233 C239 1.265 . S
H234 C239 0.950 1_565 S
H235 C243 0.949 . S
H236 C244 0.950 . S
H237 C245 0.951 . S
H238 C246 0.951 1_565 S
C239 C233 1.265 . S
C239 H234 0.950 1_545 S
C239 C240 1.478 . S
C240 C239 1.478 . S
C240 C241 1.397 . S
C240 C257 1.394 . S
C241 C240 1.397 . S
C241 C242 1.438 . S
C241 C246 1.429 . S
C242 C241 1.438 . S
C242 C243 1.428 . S
C242 C255 1.394 . S
C243 H235 0.949 . S
C243 C242 1.428 . S
C243 C244 1.345 . S
C244 H236 0.950 . S
C244 C243 1.345 . S
C244 C245 1.424 1_545 S
C245 H237 0.951 . S
C245 C244 1.424 1_565 S
C245 C246 1.347 1_565 S
C246 H238 0.951 1_545 S
C246 C241 1.429 . S
C246 C245 1.347 1_545 S
H247 C248 0.951 . S
C248 H247 0.951 . S
C248 C254 1.265 . S
H249 C254 0.950 . S
H250 C258 0.949 . S
H251 C259 0.950 . S
H252 C260 0.951 . S
H253 C261 0.951 . S
C254 C248 1.265 . S
C254 H249 0.950 . S
C254 C255 1.478 . S
C255 C242 1.394 . S
C255 C254 1.478 . S
C255 C256 1.397 . S
C256 C255 1.397 . S
C256 C257 1.438 . S
C256 C261 1.429 . S
C257 C240 1.394 . S
C257 C256 1.438 . S
C257 C258 1.428 . S
C258 H250 0.949 . S
C258 C257 1.428 . S
C258 C259 1.345 . S
C259 H251 0.950 . S
C259 C258 1.345 . S
C259 C260 1.424 . S
C260 H252 0.951 . S
C260 C259 1.424 . S
C260 C261 1.347 . S
C261 H253 0.951 . S
C261 C256 1.429 . S
C261 C260 1.347 . S
H262 C263 0.951 . S
C263 H262 0.951 . S
C263 C269 1.265 . S
H264 C269 0.950 . S
H265 C273 0.949 . S
H266 C274 0.950 . S
H267 C275 0.951 . S
H268 C276 0.951 . S
C269 C263 1.265 . S
C269 H264 0.950 . S
C269 C270 1.478 . S
C270 C269 1.478 . S
C270 C271 1.397 . S
C270 C287 1.394 . S
C271 C270 1.397 . S
C271 C272 1.438 . S
C271 C276 1.429 . S
C272 C271 1.438 . S
C272 C273 1.428 . S
C272 C285 1.394 . S
C273 H265 0.949 . S
C273 C272 1.428 . S
C273 C274 1.345 . S
C274 H266 0.950 . S
C274 C273 1.345 . S
C274 C275 1.424 . S
C275 H267 0.951 . S
C275 C274 1.424 . S
C275 C276 1.347 . S
C276 H268 0.951 . S
C276 C271 1.429 . S
C276 C275 1.347 . S
H277 C278 0.951 . S
C278 H277 0.951 . S
C278 C284 1.265 . S
H279 C284 0.950 1_655 S
H280 C288 0.949 . S
H281 C289 0.950 . S
H282 C290 0.951 . S
H283 C291 0.951 . S
C284 C278 1.265 . S
C284 H279 0.950 1_455 S
C284 C285 1.478 . S
C285 C272 1.394 . S
C285 C284 1.478 . S
C285 C286 1.397 . S
C286 C285 1.397 . S
C286 C287 1.438 . S
C286 C291 1.429 1_455 S
C287 C270 1.394 . S
C287 C286 1.438 . S
C287 C288 1.428 . S
C288 H280 0.949 . S
C288 C287 1.428 . S
C288 C289 1.345 1_455 S
C289 H281 0.950 . S
C289 C288 1.345 1_655 S
C289 C290 1.424 . S
C290 H282 0.951 . S
C290 C289 1.424 . S
C290 C291 1.347 . S
C291 H283 0.951 . S
C291 C286 1.429 1_655 S
C291 C290 1.347 . S
H292 C293 0.951 . S
C293 H292 0.951 . S
C293 C299 1.265 . S
H294 C299 0.950 . S
H295 C303 0.949 . S
H296 C304 0.950 . S
H297 C305 0.951 . S
H298 C306 0.951 . S
C299 C293 1.265 . S
C299 H294 0.950 . S
C299 C300 1.478 . S
C300 C299 1.478 . S
C300 C301 1.397 . S
C300 C317 1.394 . S
C301 C300 1.397 . S
C301 C302 1.438 . S
C301 C306 1.429 . S
C302 C301 1.438 . S
C302 C303 1.428 . S
C302 C315 1.394 . S
C303 H295 0.949 . S
C303 C302 1.428 . S
C303 C304 1.345 . S
C304 H296 0.950 . S
C304 C303 1.345 . S
C304 C305 1.424 . S
C305 H297 0.951 . S
C305 C304 1.424 . S
C305 C306 1.347 . S
C306 H298 0.951 . S
C306 C301 1.429 . S
C306 C305 1.347 . S
H307 C308 0.951 . S
C308 H307 0.951 . S
C308 C314 1.265 . S
H309 C314 0.950 . S
H310 C318 0.949 . S
H311 C319 0.950 . S
H312 C320 0.951 . S
H313 C321 0.951 . S
C314 C308 1.265 . S
C314 H309 0.950 . S
C314 C315 1.478 . S
C315 C302 1.394 . S
C315 C314 1.478 . S
C315 C316 1.397 . S
C316 C315 1.397 . S
C316 C317 1.438 . S
C316 C321 1.429 . S
C317 C300 1.394 . S
C317 C316 1.438 . S
C317 C318 1.428 . S
C318 H310 0.949 . S
C318 C317 1.428 . S
C318 C319 1.345 . S
C319 H311 0.950 . S
C319 C318 1.345 . S
C319 C320 1.424 . S
C320 H312 0.951 . S
C320 C319 1.424 . S
C320 C321 1.347 . S
C321 H313 0.951 . S
C321 C316 1.429 . S
C321 C320 1.347 . S
H322 C323 0.951 . S
C323 H322 0.951 . S
C323 C329 1.265 . S
H324 C329 0.950 1_655 S
H325 C333 0.949 . S
H326 C334 0.950 . S
H327 C335 0.951 . S
H328 C336 0.951 . S
C329 C323 1.265 . S
C329 H324 0.950 1_455 S
C329 C330 1.478 . S
C330 C329 1.478 . S
C330 C331 1.397 . S
C330 C347 1.394 . S
C331 C330 1.397 . S
C331 C332 1.438 . S
C331 C336 1.429 . S
C332 C331 1.438 . S
C332 C333 1.428 . S
C332 C345 1.394 . S
C333 H325 0.949 . S
C333 C332 1.428 . S
C333 C334 1.345 . S
C334 H326 0.950 . S
C334 C333 1.345 . S
C334 C335 1.424 . S
C335 H327 0.951 . S
C335 C334 1.424 . S
C335 C336 1.347 . S
C336 H328 0.951 . S
C336 C331 1.429 . S
C336 C335 1.347 . S
H337 C338 0.951 . S
C338 H337 0.951 . S
C338 C344 1.265 . S
H339 C344 0.950 . S
H340 C348 0.949 . S
H341 C349 0.950 . S
H342 C350 0.951 . S
H343 C351 0.951 . S
C344 C338 1.265 . S
C344 H339 0.950 . S
C344 C345 1.478 . S
C345 C332 1.394 . S
C345 C344 1.478 . S
C345 C346 1.397 . S
C346 C345 1.397 . S
C346 C347 1.438 . S
C346 C351 1.429 . S
C347 C330 1.394 . S
C347 C346 1.438 . S
C347 C348 1.428 . S
C348 H340 0.949 . S
C348 C347 1.428 . S
C348 C349 1.345 . S
C349 H341 0.950 . S
C349 C348 1.345 . S
C349 C350 1.424 . S
C350 H342 0.951 . S
C350 C349 1.424 . S
C350 C351 1.347 . S
C351 H343 0.951 . S
C351 C346 1.429 . S
C351 C350 1.347 . S
H352 C353 0.951 . S
C353 H352 0.951 . S
C353 C359 1.265 . S
H354 C359 0.950 . S
H355 C363 0.949 . S
H356 C364 0.950 . S
H357 C365 0.951 . S
H358 C366 0.951 . S
C359 C353 1.265 . S
C359 H354 0.950 . S
C359 C360 1.478 . S
C360 C359 1.478 . S
C360 C361 1.397 . S
C360 C377 1.394 . S
C361 C360 1.397 . S
C361 C362 1.438 . S
C361 C366 1.429 . S
C362 C361 1.438 . S
C362 C363 1.428 . S
C362 C375 1.394 . S
C363 H355 0.949 . S
C363 C362 1.428 . S
C363 C364 1.345 . S
C364 H356 0.950 . S
C364 C363 1.345 . S
C364 C365 1.424 . S
C365 H357 0.951 . S
C365 C364 1.424 . S
C365 C366 1.347 . S
C366 H358 0.951 . S
C366 C361 1.429 . S
C366 C365 1.347 . S
H367 C368 0.951 . S
C368 H367 0.951 . S
C368 C374 1.265 . S
H369 C374 0.950 . S
H370 C378 0.949 . S
H371 C379 0.950 . S
H372 C380 0.951 . S
H373 C381 0.951 . S
C374 C368 1.265 . S
C374 H369 0.950 . S
C374 C375 1.478 . S
C375 C362 1.394 . S
C375 C374 1.478 . S
C375 C376 1.397 . S
C376 C375 1.397 . S
C376 C377 1.438 . S
C376 C381 1.429 . S
C377 C360 1.394 . S
C377 C376 1.438 . S
C377 C378 1.428 . S
C378 H370 0.949 . S
C378 C377 1.428 . S
C378 C379 1.345 . S
C379 H371 0.950 . S
C379 C378 1.345 . S
C379 C380 1.424 . S
C380 H372 0.951 . S
C380 C379 1.424 . S
C380 C381 1.347 . S
C381 H373 0.951 . S
C381 C376 1.429 . S
C381 C380 1.347 . S
H382 C383 0.951 1_455 S
C383 H382 0.951 1_655 S
C383 C389 1.265 . S
H384 C389 0.950 . S
H385 C393 0.949 . S
H386 C394 0.950 . S
H387 C395 0.951 . S
H388 C396 0.951 . S
C389 C383 1.265 . S
C389 H384 0.950 . S
C389 C390 1.478 . S
C390 C389 1.478 . S
C390 C391 1.397 . S
C390 C407 1.394 . S
C391 C390 1.397 . S
C391 C392 1.438 . S
C391 C396 1.429 . S
C392 C391 1.438 . S
C392 C393 1.428 . S
C392 C405 1.394 . S
C393 H385 0.949 . S
C393 C392 1.428 . S
C393 C394 1.345 . S
C394 H386 0.950 . S
C394 C393 1.345 . S
C394 C395 1.424 . S
C395 H387 0.951 . S
C395 C394 1.424 . S
C395 C396 1.347 . S
C396 H388 0.951 . S
C396 C391 1.429 . S
C396 C395 1.347 . S
H397 C398 0.951 . S
C398 H397 0.951 . S
C398 C404 1.265 . S
H399 C404 0.950 . S
H400 C408 0.949 . S
H401 C409 0.950 1_455 S
H402 C410 0.951 . S
H403 C411 0.951 . S
C404 C398 1.265 . S
C404 H399 0.950 . S
C404 C405 1.478 . S
C405 C392 1.394 . S
C405 C404 1.478 . S
C405 C406 1.397 . S
C406 C405 1.397 . S
C406 C407 1.438 . S
C406 C411 1.429 . S
C407 C390 1.394 . S
C407 C406 1.438 . S
C407 C408 1.428 . S
C408 H400 0.949 . S
C408 C407 1.428 . S
C408 C409 1.345 . S
C409 H401 0.950 1_655 S
C409 C408 1.345 . S
C409 C410 1.424 . S
C410 H402 0.951 . S
C410 C409 1.424 . S
C410 C411 1.347 . S
C411 H403 0.951 . S
C411 C406 1.429 . S
C411 C410 1.347 . S
H412 C413 0.951 . S
C413 H412 0.951 . S
C413 C419 1.265 . S
H414 C419 0.934 1_455 S
H415 C423 0.949 . S
H416 C424 0.950 . S
H417 C425 0.923 1_455 S
H418 C426 0.951 1_455 S
C419 C413 1.265 . S
C419 H414 0.934 1_655 S
C419 C420 1.478 . S
C420 C419 1.478 . S
C420 C421 1.397 . S
C420 C437 1.394 . S
C421 C420 1.397 . S
C421 C422 1.438 . S
C421 C426 1.429 . S
C422 C421 1.438 . S
C422 C423 1.428 . S
C422 C435 1.394 . S
C423 H415 0.949 . S
C423 C422 1.428 . S
C423 C424 1.345 . S
C424 H416 0.950 . S
C424 C423 1.345 . S
C424 C425 1.447 . S
C425 H417 0.923 1_655 S
C425 C424 1.447 . S
C425 C426 1.353 . S
C426 H418 0.951 1_655 S
C426 C421 1.429 . S
C426 C425 1.353 . S
H427 C428 0.951 1_545 S
C428 H427 0.951 1_565 S
C428 C434 1.265 . S
H429 C434 0.950 . S
H430 C438 0.949 . S
H431 C439 0.950 . S
H432 C440 0.951 . S
H433 C441 0.951 . S
C434 C428 1.265 . S
C434 H429 0.950 . S
C434 C435 1.478 . S
C435 C422 1.394 . S
C435 C434 1.478 . S
C435 C436 1.397 . S
C436 C435 1.397 . S
C436 C437 1.438 . S
C436 C441 1.429 . S
C437 C420 1.394 . S
C437 C436 1.438 . S
C437 C438 1.428 . S
C438 H430 0.949 . S
C438 C437 1.428 . S
C438 C439 1.345 . S
C439 H431 0.950 . S
C439 C438 1.345 . S
C439 C440 1.424 . S
C440 H432 0.951 . S
C440 C439 1.424 . S
C440 C441 1.347 . S
C441 H433 0.951 . S
C441 C436 1.429 . S
C441 C440 1.347 . S
H442 C443 0.951 . S
C443 H442 0.951 . S
C443 C449 1.265 . S
H444 C449 0.950 . S
H445 C453 0.949 . S
H446 C454 0.950 . S
H447 C455 0.951 . S
H448 C456 0.951 . S
C449 C443 1.265 . S
C449 H444 0.950 . S
C449 C450 1.478 . S
C450 C449 1.478 . S
C450 C451 1.397 . S
C450 C467 1.394 . S
C451 C450 1.397 . S
C451 C452 1.438 . S
C451 C456 1.429 . S
C452 C451 1.438 . S
C452 C453 1.428 . S
C452 C465 1.394 . S
C453 H445 0.949 . S
C453 C452 1.428 . S
C453 C454 1.345 . S
C454 H446 0.950 . S
C454 C453 1.345 . S
C454 C455 1.424 . S
C455 H447 0.951 . S
C455 C454 1.424 . S
C455 C456 1.347 . S
C456 H448 0.951 . S
C456 C451 1.429 . S
C456 C455 1.347 . S
H457 C458 0.951 . S
C458 H457 0.951 . S
C458 C464 1.265 . S
H459 C464 0.950 . S
H460 C468 0.949 . S
H461 C469 0.950 . S
H462 C470 0.951 . S
H463 C471 0.951 . S
C464 C458 1.265 . S
C464 H459 0.950 . S
C464 C465 1.478 . S
C465 C452 1.394 . S
C465 C464 1.478 . S
C465 C466 1.397 . S
C466 C465 1.397 . S
C466 C467 1.438 . S
C466 C471 1.429 . S
C467 C450 1.394 . S
C467 C466 1.438 . S
C467 C468 1.428 . S
C468 H460 0.949 . S
C468 C467 1.428 . S
C468 C469 1.345 . S
C469 H461 0.950 . S
C469 C468 1.345 . S
C469 C470 1.424 . S
C470 H462 0.951 . S
C470 C469 1.424 . S
C470 C471 1.347 . S
C471 H463 0.951 . S
C471 C466 1.429 . S
C471 C470 1.347 . S
H472 C473 0.951 . S
C473 H472 0.951 . S
C473 C479 1.265 . S
H474 C479 0.950 . S
H475 C483 0.949 . S
H476 C484 0.950 . S
H477 C485 0.951 . S
H478 C486 0.951 . S
C479 C473 1.265 . S
C479 H474 0.950 . S
C479 C480 1.478 . S
C480 C479 1.478 . S
C480 C481 1.397 . S
C480 C497 1.394 . S
C481 C480 1.397 . S
C481 C482 1.438 . S
C481 C486 1.429 . S
C482 C481 1.438 . S
C482 C483 1.428 . S
C482 C495 1.394 . S
C483 H475 0.949 . S
C483 C482 1.428 . S
C483 C484 1.345 . S
C484 H476 0.950 . S
C484 C483 1.345 . S
C484 C485 1.424 . S
C485 H477 0.951 . S
C485 C484 1.424 . S
C485 C486 1.347 . S
C486 H478 0.951 . S
C486 C481 1.429 . S
C486 C485 1.347 . S
H487 C488 0.951 . S
C488 H487 0.951 . S
C488 C494 1.265 . S
H489 C494 0.950 . S
H490 C498 0.949 . S
H491 C499 0.950 . S
H492 C500 0.951 . S
H493 C501 0.951 . S
C494 C488 1.265 . S
C494 H489 0.950 . S
C494 C495 1.478 . S
C495 C482 1.394 . S
C495 C494 1.478 . S
C495 C496 1.397 . S
C496 C495 1.397 . S
C496 C497 1.438 . S
C496 C501 1.429 . S
C497 C480 1.394 . S
C497 C496 1.438 . S
C497 C498 1.428 . S
C498 H490 0.949 . S
C498 C497 1.428 . S
C498 C499 1.345 . S
C499 H491 0.950 . S
C499 C498 1.345 . S
C499 C500 1.424 . S
C500 H492 0.951 . S
C500 C499 1.424 . S
C500 C501 1.347 . S
C501 H493 0.951 . S
C501 C496 1.429 . S
C501 C500 1.347 . S
H502 C503 0.951 . S
C503 H502 0.951 . S
C503 C509 1.265 . S
H504 C509 0.950 . S
H505 C513 0.949 . S
H506 C514 0.950 . S
H507 C515 0.951 . S
H508 C516 0.951 . S
C509 C503 1.265 . S
C509 H504 0.950 . S
C509 C510 1.478 . S
C510 C509 1.478 . S
C510 C511 1.397 . S
C510 C527 1.394 . S
C511 C510 1.397 . S
C511 C512 1.438 . S
C511 C516 1.429 . S
C512 C511 1.438 . S
C512 C513 1.428 . S
C512 C525 1.394 . S
C513 H505 0.949 . S
C513 C512 1.428 . S
C513 C514 1.345 . S
C514 H506 0.950 . S
C514 C513 1.345 . S
C514 C515 1.424 . S
C515 H507 0.951 . S
C515 C514 1.424 . S
C515 C516 1.347 . S
C516 H508 0.951 . S
C516 C511 1.429 . S
C516 C515 1.347 . S
H517 C518 0.951 . S
C518 H517 0.951 . S
C518 C524 1.265 . S
H519 C524 0.950 . S
H520 C528 0.949 . S
H521 C529 0.950 . S
H522 C530 0.951 . S
H523 C531 0.951 . S
C524 C518 1.265 . S
C524 H519 0.950 . S
C524 C525 1.478 . S
C525 C512 1.394 . S
C525 C524 1.478 . S
C525 C526 1.397 . S
C526 C525 1.397 . S
C526 C527 1.438 . S
C526 C531 1.429 . S
C527 C510 1.394 . S
C527 C526 1.438 . S
C527 C528 1.428 . S
C528 H520 0.949 . S
C528 C527 1.428 . S
C528 C529 1.345 . S
C529 H521 0.950 . S
C529 C528 1.345 . S
C529 C530 1.424 . S
C530 H522 0.951 . S
C530 C529 1.424 . S
C530 C531 1.347 . S
C531 H523 0.951 . S
C531 C526 1.429 . S
C531 C530 1.347 . S
H532 C533 0.951 . S
C533 H532 0.951 . S
C533 C539 1.265 . S
H534 C539 0.950 . S
H535 C543 0.949 . S
H536 C544 0.950 . S
H537 C545 0.951 . S
H538 C546 0.951 . S
C539 C533 1.265 . S
C539 H534 0.950 . S
C539 C540 1.478 . S
C540 C539 1.478 . S
C540 C541 1.397 . S
C540 C557 1.394 . S
C541 C540 1.397 . S
C541 C542 1.438 . S
C541 C546 1.429 . S
C542 C541 1.438 . S
C542 C543 1.428 . S
C542 C555 1.394 . S
C543 H535 0.949 . S
C543 C542 1.428 . S
C543 C544 1.345 . S
C544 H536 0.950 . S
C544 C543 1.345 . S
C544 C545 1.424 . S
C545 H537 0.951 . S
C545 C544 1.424 . S
C545 C546 1.347 . S
C546 H538 0.951 . S
C546 C541 1.429 . S
C546 C545 1.347 . S
H547 C548 0.951 . S
C548 H547 0.951 . S
C548 C554 1.265 . S
H549 C554 0.950 . S
H550 C558 0.949 . S
H551 C559 0.950 . S
H552 C560 0.951 . S
H553 C561 0.951 . S
C554 C548 1.265 . S
C554 H549 0.950 . S
C554 C555 1.478 . S
C555 C542 1.394 . S
C555 C554 1.478 . S
C555 C556 1.397 . S
C556 C555 1.397 . S
C556 C557 1.438 . S
C556 C561 1.429 . S
C557 C540 1.394 . S
C557 C556 1.438 . S
C557 C558 1.428 . S
C558 H550 0.949 . S
C558 C557 1.428 . S
C558 C559 1.345 . S
C559 H551 0.950 . S
C559 C558 1.345 . S
C559 C560 1.424 . S
C560 H552 0.951 . S
C560 C559 1.424 . S
C560 C561 1.347 . S
C561 H553 0.951 . S
C561 C556 1.429 . S
C561 C560 1.347 . S
H562 C563 0.951 . S
C563 H562 0.951 . S
C563 C569 1.265 . S
H564 C569 0.950 . S
H565 C573 0.949 . S
H566 C574 0.950 . S
H567 C575 0.951 . S
H568 C576 0.951 . S
C569 C563 1.265 . S
C569 H564 0.950 . S
C569 C570 1.478 . S
C570 C569 1.478 . S
C570 C571 1.397 . S
C570 C587 1.394 . S
C571 C570 1.397 . S
C571 C572 1.438 . S
C571 C576 1.429 . S
C572 C571 1.438 . S
C572 C573 1.428 . S
C572 C585 1.394 . S
C573 H565 0.949 . S
C573 C572 1.428 . S
C573 C574 1.345 . S
C574 H566 0.950 . S
C574 C573 1.345 . S
C574 C575 1.424 . S
C575 H567 0.951 . S
C575 C574 1.424 . S
C575 C576 1.347 . S
C576 H568 0.951 . S
C576 C571 1.429 . S
C576 C575 1.347 . S
H577 C578 0.951 . S
C578 H577 0.951 . S
C578 C584 1.265 . S
H579 C584 0.950 . S
H580 C588 0.949 . S
H581 C589 0.950 . S
H582 C590 0.951 . S
H583 C591 0.951 . S
C584 C578 1.265 . S
C584 H579 0.950 . S
C584 C585 1.478 . S
C585 C572 1.394 . S
C585 C584 1.478 . S
C585 C586 1.397 . S
C586 C585 1.397 . S
C586 C587 1.438 . S
C586 C591 1.429 . S
C587 C570 1.394 . S
C587 C586 1.438 . S
C587 C588 1.428 . S
C588 H580 0.949 . S
C588 C587 1.428 . S
C588 C589 1.345 . S
C589 H581 0.950 . S
C589 C588 1.345 . S
C589 C590 1.424 . S
C590 H582 0.951 . S
C590 C589 1.424 . S
C590 C591 1.347 . S
C591 H583 0.951 . S
C591 C586 1.429 . S
C591 C590 1.347 . S
C113 C7 1.568 . S
C128 C63 1.504 . S
C143 C21 1.517 . S
C158 C77 1.524 . S
C173 C91 1.566 . S
C188 C35 1.503 . S
C203 C105 1.556 . S
C218 C49 1.550 . S
C233 C8 1.237 . S
C248 C36 1.240 . S
C263 C22 1.238 . S
C278 C50 1.243 . S
C293 C92 1.314 . S
C308 C64 1.315 . S
C323 C78 1.239 . S
C338 C106 1.237 . S
C353 C79 1.490 . S
C368 C9 1.446 . S
C383 C23 1.439 1_655 S
C398 C93 1.494 . S
C413 C107 1.492 1_655 S
C428 C37 1.441 1_565 S
C443 C51 1.486 . S
C458 C65 1.449 1_565 S
C473 C87 1.122 . S
C488 C45 1.177 . S
C503 C3 1.132 . S
C518 C101 1.184 . S
C533 C17 1.135 . S
C548 C59 1.185 . S
C563 C73 1.126 . S
C578 C31 1.181 . S
