# Generated by pormake.
# Topology uob, (4)-cn, num edge types: 1
# Building blocks:
#     Node 0, Type 0, BuildingBlock: MUDLON_clean_sbu_0, # of connection points: 4
#     Node 1, Type 0, BuildingBlock: MUDLON_clean_sbu_0, # of connection points: 4
#     Node 2, Type 0, BuildingBlock: MUDLON_clean_sbu_0, # of connection points: 4
#     Node 3, Type 0, BuildingBlock: MUDLON_clean_sbu_0, # of connection points: 4
#     Node 4, Type 0, BuildingBlock: MUDLON_clean_sbu_0, # of connection points: 4
#     Node 5, Type 0, BuildingBlock: MUDLON_clean_sbu_0, # of connection points: 4
#     Node 6, Type 0, BuildingBlock: MUDLON_clean_sbu_0, # of connection points: 4
#     Node 7, Type 0, BuildingBlock: MUDLON_clean_sbu_0, # of connection points: 4
#     Node 8, Type 0, BuildingBlock: MUDLON_clean_sbu_0, # of connection points: 4
#     Node 9, Type 0, BuildingBlock: MUDLON_clean_sbu_0, # of connection points: 4
#     Node 10, Type 0, BuildingBlock: MUDLON_clean_sbu_0, # of connection points: 4
#     Node 11, Type 0, BuildingBlock: MUDLON_clean_sbu_0, # of connection points: 4
#     Node 12, Type 0, BuildingBlock: MUDLON_clean_sbu_0, # of connection points: 4
#     Node 13, Type 0, BuildingBlock: MUDLON_clean_sbu_0, # of connection points: 4
#     Node 14, Type 0, BuildingBlock: MUDLON_clean_sbu_0, # of connection points: 4
#     Node 15, Type 0, BuildingBlock: MUDLON_clean_sbu_0, # of connection points: 4
#     Edge 16, Type (0, 0), BuildingBlock: CIFDUS_clean_linker_0, # of connection points: 2
#     Edge 17, Type (0, 0), BuildingBlock: CIFDUS_clean_linker_0, # of connection points: 2
#     Edge 18, Type (0, 0), BuildingBlock: CIFDUS_clean_linker_0, # of connection points: 2
#     Edge 19, Type (0, 0), BuildingBlock: CIFDUS_clean_linker_0, # of connection points: 2
#     Edge 20, Type (0, 0), BuildingBlock: CIFDUS_clean_linker_0, # of connection points: 2
#     Edge 21, Type (0, 0), BuildingBlock: CIFDUS_clean_linker_0, # of connection points: 2
#     Edge 22, Type (0, 0), BuildingBlock: CIFDUS_clean_linker_0, # of connection points: 2
#     Edge 23, Type (0, 0), BuildingBlock: CIFDUS_clean_linker_0, # of connection points: 2
#     Edge 24, Type (0, 0), BuildingBlock: CIFDUS_clean_linker_0, # of connection points: 2
#     Edge 25, Type (0, 0), BuildingBlock: CIFDUS_clean_linker_0, # of connection points: 2
#     Edge 26, Type (0, 0), BuildingBlock: CIFDUS_clean_linker_0, # of connection points: 2
#     Edge 27, Type (0, 0), BuildingBlock: CIFDUS_clean_linker_0, # of connection points: 2
#     Edge 28, Type (0, 0), BuildingBlock: CIFDUS_clean_linker_0, # of connection points: 2
#     Edge 29, Type (0, 0), BuildingBlock: CIFDUS_clean_linker_0, # of connection points: 2
#     Edge 30, Type (0, 0), BuildingBlock: CIFDUS_clean_linker_0, # of connection points: 2
#     Edge 31, Type (0, 0), BuildingBlock: CIFDUS_clean_linker_0, # of connection points: 2
#     Edge 32, Type (0, 0), BuildingBlock: CIFDUS_clean_linker_0, # of connection points: 2
#     Edge 33, Type (0, 0), BuildingBlock: CIFDUS_clean_linker_0, # of connection points: 2
#     Edge 34, Type (0, 0), BuildingBlock: CIFDUS_clean_linker_0, # of connection points: 2
#     Edge 35, Type (0, 0), BuildingBlock: CIFDUS_clean_linker_0, # of connection points: 2
#     Edge 36, Type (0, 0), BuildingBlock: CIFDUS_clean_linker_0, # of connection points: 2
#     Edge 37, Type (0, 0), BuildingBlock: CIFDUS_clean_linker_0, # of connection points: 2
#     Edge 38, Type (0, 0), BuildingBlock: CIFDUS_clean_linker_0, # of connection points: 2
#     Edge 39, Type (0, 0), BuildingBlock: CIFDUS_clean_linker_0, # of connection points: 2
#     Edge 40, Type (0, 0), BuildingBlock: CIFDUS_clean_linker_0, # of connection points: 2
#     Edge 41, Type (0, 0), BuildingBlock: CIFDUS_clean_linker_0, # of connection points: 2
#     Edge 42, Type (0, 0), BuildingBlock: CIFDUS_clean_linker_0, # of connection points: 2
#     Edge 43, Type (0, 0), BuildingBlock: CIFDUS_clean_linker_0, # of connection points: 2
#     Edge 44, Type (0, 0), BuildingBlock: CIFDUS_clean_linker_0, # of connection points: 2
#     Edge 45, Type (0, 0), BuildingBlock: CIFDUS_clean_linker_0, # of connection points: 2
#     Edge 46, Type (0, 0), BuildingBlock: CIFDUS_clean_linker_0, # of connection points: 2
#     Edge 47, Type (0, 0), BuildingBlock: CIFDUS_clean_linker_0, # of connection points: 2
# Relax obj value: 0.171
# Max RMSD: 0.257
# Mean RMSD: 0.256
data_MOF--net-uob--node1-MUDLON_clean_sbu_0--edge1-CIFDUS_clean_linker_0
_symmetry_space_group_name_H-M    P1
_symmetry_Int_Tables_number       1
_symmetry_cell_setting            triclinic
loop_
_symmetry_equiv_pos_as_xyz
'x, y, z'
_cell_length_a     48.836261
_cell_length_b     48.685826
_cell_length_c     25.584183
_cell_angle_alpha  90.081148
_cell_angle_beta   90.291397
_cell_angle_gamma 90.000959
loop_
_atom_site_label
_atom_site_type_symbol
_atom_site_fract_x
_atom_site_fract_y
_atom_site_fract_z
_atom_type_partial_charge
Mg0 Mg 0.1232 0.07155 0.31031 0.0
C1 C 0.11218 0.0854 0.41812 0.0
O2 O 0.12185 0.06024 0.41929 0.0
C3 C 0.135 0.08097 0.19624 0.0
O4 O 0.14395 0.05567 0.20142 0.0
C5 C 0.18489 0.06282 0.33475 0.0
O6 O 0.18913 0.08104 0.29786 0.0
O7 O 0.16075 0.05406 0.34269 0.0
O8 O 0.10934 0.09724 0.37413 0.0
O9 O 0.09127 0.04094 0.3007 0.0
C10 C 0.06667 0.04956 0.29957 0.0
O11 O 0.06213 0.07608 0.30362 0.0
O12 O 0.12654 0.09362 0.23659 0.0
Mg13 Mg 0.93882 0.62988 0.54776 0.0
C14 C 0.93642 0.61727 0.65879 0.0
O15 O 0.96252 0.62015 0.64816 0.0
C16 C 0.92445 0.63628 0.43511 0.0
O17 O 0.94573 0.65256 0.44086 0.0
C18 C 0.96588 0.68371 0.58938 0.0
O19 O 0.98449 0.66752 0.61002 0.0
O20 O 0.94768 0.67356 0.55916 0.0
O21 O 0.91917 0.61875 0.62135 0.0
O22 O 0.97263 0.60101 0.54143 0.0
C23 C 0.96409 0.57628 0.54045 0.0
O24 O 0.93755 0.57191 0.54238 0.0
O25 O 0.91516 0.62412 0.47539 0.0
Mg26 Mg 0.37541 0.45613 0.79681 0.0
C27 C 0.38753 0.44533 0.90793 0.0
O28 O 0.37626 0.4698 0.91058 0.0
C29 C 0.36885 0.43544 0.6855 0.0
O30 O 0.35777 0.45979 0.67883 0.0
C31 C 0.32121 0.455 0.84761 0.0
O32 O 0.33172 0.43093 0.85923 0.0
O33 O 0.33456 0.47097 0.81767 0.0
O34 O 0.38998 0.43376 0.86374 0.0
O35 O 0.40723 0.48679 0.78607 0.0
C36 C 0.43113 0.4764 0.78324 0.0
O37 O 0.43358 0.44953 0.78455 0.0
O38 O 0.37655 0.42833 0.73096 0.0
Mg39 Mg 0.5782 0.8784 0.05463 0.0
C40 C 0.59196 0.88631 0.16576 0.0
O41 O 0.56958 0.87145 0.16719 0.0
C42 C 0.59091 0.87161 0.94072 0.0
O43 O 0.56942 0.85554 0.94515 0.0
C44 C 0.55029 0.82487 0.09687 0.0
O45 O 0.53032 0.84087 0.11272 0.0
O46 O 0.56976 0.83504 0.07015 0.0
O47 O 0.60182 0.89276 0.12153 0.0
O48 O 0.54436 0.90729 0.0499 0.0
C49 C 0.5531 0.93171 0.04353 0.0
O50 O 0.57967 0.93561 0.04025 0.0
O51 O 0.60035 0.88326 0.98153 0.0
Mg52 Mg 0.1319 0.44169 0.05594 0.0
C53 C 0.11765 0.42859 0.94747 0.0
O54 O 0.11447 0.45534 0.95006 0.0
C55 C 0.14061 0.42965 0.16971 0.0
O56 O 0.1564 0.45128 0.1639 0.0
C57 C 0.18171 0.46952 1.00513 0.0
O58 O 0.16302 0.48179 0.97642 0.0
O59 O 0.17418 0.45455 0.04325 0.0
O60 O 0.12362 0.41556 0.989 0.0
O61 O 0.10032 0.47325 0.05604 0.0
C62 C 0.07606 0.46378 0.05891 0.0
O63 O 0.07273 0.43704 0.06177 0.0
O64 O 0.12824 0.42 0.12985 0.0
Mg65 Mg 0.56234 0.63131 0.30623 0.0
C66 C 0.56608 0.62419 0.19349 0.0
O67 O 0.54126 0.63381 0.20092 0.0
C68 C 0.58314 0.63699 0.41715 0.0
O69 O 0.55962 0.64988 0.4215 0.0
C70 C 0.56464 0.68699 0.26365 0.0
O71 O 0.58908 0.67663 0.25535 0.0
O72 O 0.54761 0.67296 0.2901 0.0
O73 O 0.58134 0.61991 0.2331 0.0
O74 O 0.53142 0.59971 0.31679 0.0
C75 C 0.54104 0.57538 0.31669 0.0
O76 O 0.56762 0.5721 0.31181 0.0
O77 O 0.59038 0.62827 0.3724 0.0
Mg78 Mg 0.3787 0.06796 0.54506 0.0
C79 C 0.39443 0.07891 0.43846 0.0
O80 O 0.38378 0.05414 0.4369 0.0
C81 C 0.37175 0.08447 0.65777 0.0
O82 O 0.36678 0.05805 0.66206 0.0
C83 C 0.31678 0.05953 0.51926 0.0
O84 O 0.31189 0.07461 0.56078 0.0
O85 O 0.34121 0.05245 0.50898 0.0
O86 O 0.39574 0.09142 0.48196 0.0
O87 O 0.4101 0.03734 0.56012 0.0
C88 C 0.43402 0.04731 0.56609 0.0
O89 O 0.43701 0.07413 0.56499 0.0
O90 O 0.37539 0.09457 0.6126 0.0
Mg91 Mg 0.94871 0.8772 0.80185 0.0
C92 C 0.9354 0.88672 0.69141 0.0
O93 O 0.96045 0.87691 0.68993 0.0
C94 C 0.93715 0.86734 0.91572 0.0
O95 O 0.96126 0.85557 0.91157 0.0
C96 C 0.94814 0.82215 0.753 0.0
O97 O 0.92302 0.83111 0.74588 0.0
O98 O 0.96472 0.83681 0.77966 0.0
O99 O 0.92392 0.8898 0.73557 0.0
O100 O 0.97908 0.90965 0.80913 0.0
C101 C 0.9689 0.93362 0.81371 0.0
O102 O 0.94211 0.93619 0.81435 0.0
O103 O 0.92591 0.87714 0.87485 0.0
Mg104 Mg 0.63269 0.57034 0.8097 0.0
C105 C 0.63304 0.57841 0.92381 0.0
O106 O 0.65015 0.55787 0.91763 0.0
C107 C 0.6357 0.59112 0.699 0.0
O108 O 0.65015 0.56847 0.6947 0.0
C109 C 0.69154 0.57918 0.82136 0.0
O110 O 0.68188 0.603 0.80573 0.0
O111 O 0.67539 0.55869 0.82187 0.0
O112 O 0.62188 0.58909 0.88363 0.0
O113 O 0.60213 0.53833 0.79914 0.0
C114 C 0.57814 0.54843 0.79503 0.0
O115 O 0.5754 0.57527 0.79677 0.0
O116 O 0.62696 0.5981 0.74385 0.0
Mg117 Mg 0.45198 0.13109 0.04146 0.0
C118 C 0.44211 0.12209 0.15396 0.0
O119 O 0.4657 0.13505 0.15544 0.0
C120 C 0.42595 0.13818 0.93223 0.0
O121 O 0.44508 0.1568 0.9255 0.0
C122 C 0.44822 0.18665 0.08709 0.0
O123 O 0.4239 0.17603 0.09546 0.0
O124 O 0.46531 0.17292 0.06016 0.0
O125 O 0.43075 0.11748 0.11009 0.0
O126 O 0.48379 0.10019 0.03311 0.0
C127 C 0.47451 0.07573 0.03354 0.0
O128 O 0.44791 0.07213 0.03694 0.0
O129 O 0.424 0.12623 0.97613 0.0
Mg130 Mg 0.87523 0.93591 0.29297 0.0
C131 C 0.88374 0.92172 0.40364 0.0
O132 O 0.86829 0.94373 0.40573 0.0
C133 C 0.86923 0.92356 0.17813 0.0
O134 O 0.85245 0.94452 0.18261 0.0
C135 C 0.822 0.96277 0.33557 0.0
O136 O 0.83795 0.98328 0.34942 0.0
O137 O 0.83195 0.94298 0.30917 0.0
O138 O 0.89037 0.91224 0.35911 0.0
O139 O 0.90223 0.97132 0.29149 0.0
C140 C 0.92711 0.96394 0.28669 0.0
O141 O 0.93248 0.93759 0.28214 0.0
O142 O 0.88109 0.91448 0.21899 0.0
Mg143 Mg 0.07006 0.37957 0.55053 0.0
C144 C 0.10331 0.37991 0.65173 0.0
O145 O 0.10148 0.35311 0.64703 0.0
C146 C 0.08073 0.37081 0.43661 0.0
O147 O 0.05801 0.35671 0.44256 0.0
C148 C 0.04672 0.33081 0.61151 0.0
O149 O 0.03692 0.35042 0.64141 0.0
O150 O 0.05917 0.33732 0.56968 0.0
O151 O 0.09418 0.39516 0.61531 0.0
O152 O 0.03678 0.40908 0.54522 0.0
C153 C 0.04534 0.43366 0.54017 0.0
O154 O 0.07188 0.43789 0.53754 0.0
O155 O 0.09163 0.38201 0.47653 0.0
Mg156 Mg 0.63554 0.95126 0.56417 0.0
C157 C 0.62618 0.93759 0.45407 0.0
O158 O 0.63637 0.96255 0.45248 0.0
C159 C 0.64634 0.93939 0.67798 0.0
O160 O 0.65873 0.96322 0.67355 0.0
C161 C 0.69008 0.94898 0.51642 0.0
O162 O 0.68103 0.92362 0.51326 0.0
O163 O 0.67576 0.96662 0.54089 0.0
O164 O 0.62265 0.92627 0.49832 0.0
O165 O 0.60365 0.98218 0.57016 0.0
C166 C 0.57959 0.97231 0.57389 0.0
O167 O 0.57665 0.94548 0.57493 0.0
O168 O 0.63575 0.92853 0.6374 0.0
Mg169 Mg 0.06297 0.13662 0.81994 0.0
C170 C 0.07382 0.12812 0.70844 0.0
O171 O 0.04936 0.13936 0.70864 0.0
C172 C 0.07966 0.14787 0.93206 0.0
O173 O 0.05918 0.16524 0.92778 0.0
C174 C 0.06422 0.19229 0.77399 0.0
O175 O 0.08861 0.18241 0.7635 0.0
O176 O 0.04796 0.17797 0.80162 0.0
O177 O 0.08604 0.12409 0.75179 0.0
O178 O 0.03186 0.10477 0.82483 0.0
C179 C 0.04189 0.08062 0.82572 0.0
O180 O 0.06866 0.07787 0.82519 0.0
O181 O 0.08679 0.13415 0.89204 0.0
Mg182 Mg 0.87639 0.56395 0.04966 0.0
C183 C 0.87923 0.57319 0.93714 0.0
O184 O 0.86632 0.5497 0.94232 0.0
C185 C 0.86934 0.57477 0.16374 0.0
O186 O 0.8567 0.55117 0.15725 0.0
C187 C 0.82077 0.57155 0.01263 0.0
O188 O 0.83179 0.59616 0.01469 0.0
O189 O 0.8343 0.55149 0.03153 0.0
O190 O 0.88762 0.58566 0.97808 0.0
O191 O 0.90704 0.53164 0.05466 0.0
C192 C 0.9314 0.541 0.0552 0.0
O193 O 0.9349 0.56775 0.05345 0.0
O194 O 0.87919 0.58666 0.12366 0.0
Mg195 Mg 0.43836 0.37767 0.30076 0.0
C196 C 0.42861 0.39045 0.18973 0.0
O197 O 0.45259 0.37834 0.188 0.0
C198 C 0.41742 0.37561 0.41239 0.0
O199 O 0.43896 0.3598 0.41906 0.0
C200 C 0.46403 0.32386 0.25646 0.0
O201 O 0.48402 0.33968 0.24015 0.0
O202 O 0.44525 0.33409 0.28489 0.0
O203 O 0.41674 0.39307 0.23342 0.0
O204 O 0.47248 0.40612 0.30918 0.0
C205 C 0.46369 0.43059 0.31488 0.0
O206 O 0.43708 0.43454 0.31641 0.0
O207 O 0.41188 0.38453 0.36696 0.0
H208 H 0.26169 0.05402 0.53299 0.0
H209 H 0.32389 0.05739 0.41409 0.0
H210 H 0.28877 0.05761 0.34594 0.0
H211 H 0.24008 0.06041 0.32011 0.0
H212 H 0.17796 0.05342 0.43855 0.0
H213 H 0.21311 0.0508 0.50642 0.0
C214 C 0.26749 0.05443 0.49213 0.0
C215 C 0.29532 0.05587 0.47871 0.0
C216 C 0.24716 0.05403 0.4529 0.0
C217 C 0.3026 0.05615 0.42555 0.0
C218 C 0.28252 0.05644 0.38646 0.0
C219 C 0.23432 0.05792 0.36072 0.0
C220 C 0.20648 0.05728 0.37422 0.0
C221 C 0.2547 0.0559 0.39966 0.0
C222 C 0.19926 0.05382 0.42698 0.0
C223 C 0.21936 0.05249 0.46597 0.0
H224 H 0.92531 0.79938 0.66709 0.0
H225 H 0.99134 0.78824 0.77759 0.0
H226 H 1.00424 0.74525 0.73392 0.0
H227 H 0.99479 0.70956 0.66723 0.0
H228 H 0.92891 0.72204 0.55646 0.0
H229 H 0.91824 0.76601 0.59695 0.0
C230 C 0.94253 0.78756 0.68175 0.0
C231 C 0.95707 0.79673 0.72607 0.0
C232 C 0.94995 0.76317 0.65618 0.0
C233 C 0.97971 0.7815 0.74377 0.0
C234 C 0.98707 0.75694 0.71878 0.0
C235 C 0.97837 0.72207 0.65141 0.0
C236 C 0.96255 0.71227 0.609 0.0
C237 C 0.97211 0.7474 0.67527 0.0
C238 C 0.94137 0.72888 0.58911 0.0
C239 C 0.93514 0.75403 0.61242 0.0
H240 H 0.30158 0.4376 0.93999 0.0
H241 H 0.28303 0.49199 0.81177 0.0
H242 H 0.2388 0.50326 0.85165 0.0
H243 H 0.20421 0.49489 0.92014 0.0
H244 H 0.22412 0.44103 0.04891 0.0
H245 H 0.26921 0.4327 0.01196 0.0
C246 C 0.28787 0.45197 0.92075 0.0
C247 C 0.29529 0.46359 0.87255 0.0
C248 C 0.26278 0.45851 0.94413 0.0
C249 C 0.27766 0.48266 0.84873 0.0
C250 C 0.25239 0.48906 0.87152 0.0
C251 C 0.21855 0.48165 0.94056 0.0
C252 C 0.21055 0.46838 0.98704 0.0
C253 C 0.24455 0.47676 0.91886 0.0
C254 C 0.22954 0.45143 0.01302 0.0
C255 C 0.25535 0.44652 0.99178 0.0
H256 H 0.52051 0.80015 0.17442 0.0
H257 H 0.58737 0.78611 0.06772 0.0
H258 H 0.59725 0.74243 0.1099 0.0
H259 H 0.58893 0.70954 0.17968 0.0
H260 H 0.52202 0.72203 0.28645 0.0
H261 H 0.51017 0.76505 0.24168 0.0
C262 C 0.53698 0.78735 0.15989 0.0
C263 C 0.55328 0.79661 0.11804 0.0
C264 C 0.5428 0.76217 0.18478 0.0
C265 C 0.57456 0.77969 0.09991 0.0
C266 C 0.58033 0.7547 0.12416 0.0
C267 C 0.57178 0.72167 0.19342 0.0
C268 C 0.55665 0.71282 0.23692 0.0
C269 C 0.56497 0.74603 0.16722 0.0
C270 C 0.53412 0.72851 0.25332 0.0
C271 C 0.52734 0.75307 0.22767 0.0
H272 H 0.7112 0.54111 0.89142 0.0
H273 H 0.73287 0.61566 0.81027 0.0
H274 H 0.77459 0.61947 0.86217 0.0
H275 H 0.80334 0.60372 0.93393 0.0
H276 H 0.78341 0.52909 0.01589 0.0
H277 H 0.74252 0.52324 0.9605 0.0
C278 C 0.72533 0.55787 0.88447 0.0
C279 C 0.71882 0.57816 0.84706 0.0
C280 C 0.74931 0.5602 0.9152 0.0
C281 C 0.73727 0.59985 0.83887 0.0
C282 C 0.76111 0.60214 0.86872 0.0
C283 C 0.79001 0.5862 0.94002 0.0
C284 C 0.79607 0.56716 0.97972 0.0
C285 C 0.76697 0.58284 0.90775 0.0
C286 C 0.77899 0.54419 0.98597 0.0
C287 C 0.75567 0.54084 0.95422 0.0
H288 H 0.49344 0.29893 0.17871 0.0
H289 H 0.42581 0.28582 0.28395 0.0
H290 H 0.41526 0.24251 0.24067 0.0
H291 H 0.42344 0.20956 0.17054 0.0
H292 H 0.49119 0.2213 0.0654 0.0
H293 H 0.50341 0.264 0.11095 0.0
C294 C 0.47663 0.28643 0.19266 0.0
C295 C 0.46037 0.29582 0.23448 0.0
C296 C 0.47044 0.26148 0.16717 0.0
C297 C 0.43863 0.27928 0.25184 0.0
C298 C 0.43248 0.2545 0.22695 0.0
C299 C 0.44085 0.22148 0.15732 0.0
C300 C 0.45613 0.21247 0.11409 0.0
C301 C 0.44789 0.24568 0.18402 0.0
C302 C 0.47896 0.22789 0.09832 0.0
C303 C 0.48596 0.25227 0.12442 0.0
H304 H 0.79825 0.9943 0.41175 0.0
H305 H 0.78399 0.92344 0.3135 0.0
H306 H 0.74204 0.91338 0.3607 0.0
H307 H 0.71096 0.92272 0.43287 0.0
H308 H 0.72372 0.99369 0.53103 0.0
H309 H 0.76476 1.00566 0.48092 0.0
C310 C 0.78576 0.9769 0.40014 0.0
C311 C 0.79448 0.95955 0.35926 0.0
C312 C 0.76161 0.97101 0.4279 0.0
C313 C 0.77796 0.93709 0.34487 0.0
C314 C 0.75397 0.93121 0.37201 0.0
C315 C 0.72274 0.94078 0.44352 0.0
C316 C 0.7146 0.95703 0.4862 0.0
C317 C 0.74595 0.94765 0.41424 0.0
C318 C 0.72972 0.98073 0.49861 0.0
C319 C 0.75314 0.98757 0.46991 0.0
H320 H 0.02364 0.30938 0.69994 0.0
H321 H 0.07446 0.28788 0.56836 0.0
H322 H 0.08362 0.24311 0.60684 0.0
H323 H 0.08008 0.21131 0.68033 0.0
H324 H 0.02818 0.23099 0.81087 0.0
H325 H 0.01651 0.27522 0.77033 0.0
C326 C 0.03642 0.29477 0.67935 0.0
C327 C 0.04855 0.30222 0.63147 0.0
C328 C 0.04167 0.26886 0.70179 0.0
C329 C 0.06489 0.28287 0.60523 0.0
C330 C 0.07029 0.25724 0.62735 0.0
C331 C 0.06618 0.22528 0.69993 0.0
C332 C 0.05538 0.2182 0.74892 0.0
C333 C 0.05931 0.25029 0.67607 0.0
C334 C 0.03687 0.23613 0.77327 0.0
C335 C 0.03025 0.26139 0.75011 0.0
H336 H 0.0122 0.06159 0.30123 0.0
H337 H 0.0688 0.99384 0.28735 0.0
H338 H 0.03055 0.96175 0.28105 0.0
H339 H 0.98132 0.95279 0.28084 0.0
H340 H 0.92433 0.0201 0.29575 0.0
H341 H 0.96258 0.05256 0.30014 0.0
C342 C 0.0162 0.03981 0.2967 0.0
C343 C 0.04339 0.03016 0.29483 0.0
C344 C 0.99407 0.02141 0.29332 0.0
C345 C 0.04813 1.00186 0.28899 0.0
C346 C 0.02626 0.98347 0.28538 0.0
C347 C 0.97716 0.97457 0.28491 0.0
C348 C 0.94995 0.98398 0.288 0.0
C349 C 0.99918 0.99302 0.2877 0.0
C350 C 0.94505 0.01229 0.2933 0.0
C351 C 0.96692 0.03085 0.29585 0.0
H352 H 0.95082 0.52217 0.54166 0.0
H353 H 0.02017 0.57704 0.53514 0.0
H354 H 0.05124 0.53763 0.53349 0.0
H355 H 0.05863 0.48776 0.53512 0.0
H356 H 0.98924 0.43297 0.54275 0.0
H357 H 0.95818 0.47236 0.54264 0.0
C358 C 0.97273 0.52559 0.53976 0.0
C359 C 0.98314 0.55259 0.53853 0.0
C360 C 0.99043 0.50287 0.53906 0.0
C361 C 0.0116 0.55653 0.53614 0.0
C362 C 0.02937 0.53399 0.53521 0.0
C363 C 0.03671 0.48436 0.53662 0.0
C364 C 0.02629 0.45738 0.53895 0.0
C365 C 0.019 0.50709 0.53682 0.0
C366 C 0.99782 0.45346 0.54096 0.0
C367 C 0.98005 0.47599 0.54092 0.0
H368 H 0.48414 0.45943 0.78339 0.0
H369 H 0.43415 0.53258 0.78046 0.0
H370 H 0.47535 0.56109 0.78239 0.0
H371 H 0.5253 0.5652 0.78747 0.0
H372 H 0.57539 0.49215 0.79183 0.0
H373 H 0.53424 0.46358 0.78667 0.0
C374 C 0.48219 0.48162 0.78291 0.0
C375 C 0.45602 0.49384 0.78186 0.0
C376 C 0.50595 0.49787 0.78445 0.0
C377 C 0.45398 0.52262 0.7813 0.0
C378 C 0.47754 0.53893 0.78247 0.0
C379 C 0.52731 0.54302 0.78714 0.0
C380 C 0.55346 0.53085 0.79018 0.0
C381 C 0.5036 0.52677 0.78446 0.0
C382 C 0.55556 0.50207 0.78961 0.0
C383 C 0.53203 0.48573 0.78669 0.0
H384 H 0.56713 0.98528 0.03263 0.0
H385 H 0.49696 0.93205 0.04853 0.0
H386 H 0.46656 0.97198 0.04561 0.0
H387 H 0.46007 0.02193 0.03997 0.0
H388 H 0.53041 0.07506 0.0252 0.0
H389 H 0.56065 0.03505 0.02612 0.0
C390 C 0.54518 0.98232 0.03537 0.0
C391 C 0.53435 0.95564 0.04086 0.0
C392 C 0.52788 1.00534 0.03387 0.0
C393 C 0.50585 0.9523 0.04433 0.0
C394 C 0.48846 0.97514 0.04267 0.0
C395 C 0.48202 0.02483 0.03677 0.0
C396 C 0.49295 0.05154 0.03253 0.0
C397 C 0.49928 1.00175 0.03764 0.0
C398 C 0.52144 0.0548 0.02851 0.0
C399 C 0.53874 0.03192 0.02908 0.0
H400 H 0.02247 0.4488 0.06228 0.0
H401 H 0.075 0.51999 0.05424 0.0
H402 H 0.03484 0.54995 0.05282 0.0
H403 H 0.98497 0.55589 0.05339 0.0
H404 H 0.93236 0.48475 0.06086 0.0
H405 H 0.97254 0.45476 0.06302 0.0
C406 C 0.0252 0.47088 0.06027 0.0
C407 C 0.05179 0.48211 0.05838 0.0
C408 C 1.00202 0.48797 0.05935 0.0
C409 C 0.05484 0.51077 0.05574 0.0
C410 C 0.03186 0.52792 0.05492 0.0
C411 C 0.98221 0.53382 0.05556 0.0
C412 C 0.95561 0.52261 0.05697 0.0
C413 C 1.00538 0.51673 0.05665 0.0
C414 C 0.95254 0.49395 0.05971 0.0
C415 C 0.97552 0.47679 0.06094 0.0
H416 H 0.44941 0.48411 0.32509 0.0
H417 H 0.51989 0.43121 0.30993 0.0
H418 H 0.54999 0.47144 0.31062 0.0
H419 H 0.55605 0.52158 0.31318 0.0
H420 H 0.48529 0.57423 0.32707 0.0
H421 H 0.45547 0.53395 0.3293 0.0
C422 C 0.47137 0.48126 0.32211 0.0
C423 C 0.48236 0.45461 0.31736 0.0
C424 C 0.48847 0.50443 0.32219 0.0
C425 C 0.51087 0.45144 0.3136 0.0
C426 C 0.52808 0.47445 0.31393 0.0
C427 C 0.53411 0.52431 0.31689 0.0
C428 C 0.52293 0.55097 0.31985 0.0
C429 C 0.51707 0.50104 0.31785 0.0
C430 C 0.49445 0.55401 0.32465 0.0
C431 C 0.47739 0.53097 0.32589 0.0
H432 H 0.48729 0.06316 0.57107 0.0
H433 H 0.43572 0.99112 0.57142 0.0
H434 H 0.47627 0.96174 0.57535 0.0
H435 H 0.52625 0.95652 0.57618 0.0
H436 H 0.57782 0.02855 0.57414 0.0
H437 H 0.53724 0.05796 0.57345 0.0
C438 C 0.48485 0.04103 0.57227 0.0
C439 C 0.45844 0.02937 0.57089 0.0
C440 C 0.50824 0.02427 0.57406 0.0
C441 C 0.45576 1.00065 0.57239 0.0
C442 C 0.47895 0.98383 0.57458 0.0
C443 C 0.52869 0.97866 0.57578 0.0
C444 C 0.5551 0.9903 0.57513 0.0
C445 C 0.50528 0.99542 0.57503 0.0
C446 C 0.55778 0.01903 0.57458 0.0
C447 C 0.53457 0.03586 0.57417 0.0
H448 H 0.05824 0.02733 0.82318 0.0
H449 H 0.9858 0.07811 0.82744 0.0
H450 H 0.95699 0.03703 0.82491 0.0
H451 H 0.95243 0.98685 0.82017 0.0
H452 H 0.02494 0.93618 0.81493 0.0
H453 H 0.0537 0.97722 0.81921 0.0
C454 C 0.03614 0.02949 0.8237 0.0
C455 C 0.02422 0.05584 0.8255 0.0
C456 C 0.01974 1.00582 0.82198 0.0
C457 C 0.99554 0.05814 0.82608 0.0
C458 C 0.97905 0.03464 0.82459 0.0
C459 C 0.97453 0.98471 0.82007 0.0
C460 C 0.98649 0.9584 0.81719 0.0
C461 C 0.99094 0.00839 0.82233 0.0
C462 C 0.01517 0.95612 0.81708 0.0
C463 C 0.03164 0.97959 0.81951 0.0
H464 H 0.06021 0.14585 0.61143 0.0
H465 H 0.11522 0.09136 0.69358 0.0
H466 H 0.13284 0.07434 0.61034 0.0
H467 H 0.13054 0.07296 0.51473 0.0
H468 H 0.0764 0.12804 0.43204 0.0
H469 H 0.06058 0.14708 0.51529 0.0
C470 C 0.07614 0.13033 0.61109 0.0
C471 C 0.08619 0.1196 0.65849 0.0
C472 C 0.08623 0.12075 0.56316 0.0
C473 C 0.10714 0.09986 0.65757 0.0
C474 C 0.11714 0.09007 0.61003 0.0
C475 C 0.11534 0.08922 0.51491 0.0
C476 C 0.10434 0.09887 0.46748 0.0
C477 C 0.1065 0.10005 0.56269 0.0
C478 C 0.08508 0.12027 0.46814 0.0
C479 C 0.07598 0.13105 0.51568 0.0
H480 H 0.88791 0.59719 0.69583 0.0
H481 H 0.96635 0.62889 0.74556 0.0
H482 H 0.95457 0.62087 0.83662 0.0
H483 H 0.92325 0.60199 0.90242 0.0
H484 H 0.84611 0.56747 0.85273 0.0
H485 H 0.85584 0.57972 0.76211 0.0
C486 C 0.90228 0.60252 0.72667 0.0
C487 C 0.92801 0.61341 0.71382 0.0
C488 C 0.8956 0.59734 0.77923 0.0
C489 C 0.94649 0.62016 0.75426 0.0
C490 C 0.93976 0.61568 0.80649 0.0
C491 C 0.90844 0.59761 0.87177 0.0
C492 C 0.88408 0.58387 0.88405 0.0
C493 C 0.91456 0.6039 0.81947 0.0
C494 C 0.86514 0.57792 0.84401 0.0
C495 C 0.87069 0.58487 0.79218 0.0
H496 H 0.44194 0.37794 0.09026 0.0
H497 H 0.38822 0.42899 0.18212 0.0
H498 H 0.37053 0.45043 0.10248 0.0
H499 H 0.37162 0.4557 1.0071 0.0
H500 H 0.42434 0.40355 0.91535 0.0
H501 H 0.44118 0.3814 0.99486 0.0
C502 C 0.42631 0.39371 0.09282 0.0
C503 C 0.41654 0.40206 0.14184 0.0
C504 C 0.41617 0.40578 0.04704 0.0
C505 C 0.39603 0.42223 0.14469 0.0
C506 C 0.386 0.43456 0.09926 0.0
C507 C 0.38681 0.43951 1.00459 0.0
C508 C 0.39695 0.43141 0.95569 0.0
C509 C 0.39615 0.42668 0.0503 0.0
C510 C 0.41628 0.41012 0.95271 0.0
C511 C 0.42594 0.39749 0.99808 0.0
H512 H 0.64309 0.95052 0.35654 0.0
H513 H 0.59376 0.89231 0.44154 0.0
H514 H 0.58012 0.87036 0.35944 0.0
H515 H 0.58033 0.86932 0.26373 0.0
H516 H 0.62995 0.9272 0.17849 0.0
H517 H 0.64566 0.94755 0.26084 0.0
C518 C 0.62938 0.93299 0.35711 0.0
C519 C 0.61917 0.92323 0.40495 0.0
C520 C 0.62174 0.92045 0.30987 0.0
C521 C 0.60181 0.90025 0.40519 0.0
C522 C 0.59398 0.88773 0.35829 0.0
C523 C 0.59471 0.8863 0.2631 0.0
C524 C 0.60376 0.89693 0.21508 0.0
C525 C 0.60354 0.8979 0.31043 0.0
C526 C 0.62265 0.91868 0.21495 0.0
C527 C 0.63154 0.93038 0.26199 0.0
H528 H 0.1092 0.35421 0.74565 0.0
H529 H 0.11322 0.43392 0.67214 0.0
H530 H 0.11835 0.45574 0.75742 0.0
H531 H 0.11872 0.45259 0.85252 0.0
H532 H 0.11456 0.37332 0.9273 0.0
H533 H 0.1123 0.35088 0.84161 0.0
C534 C 0.11165 0.37632 0.74821 0.0
C535 C 0.1107 0.39242 0.70256 0.0
C536 C 0.11413 0.38883 0.79753 0.0
C537 C 0.11378 0.42105 0.70664 0.0
C538 C 0.11659 0.43357 0.7554 0.0
C539 C 0.11725 0.43039 0.8502 0.0
C540 C 0.11643 0.41465 0.89619 0.0
C541 C 0.11617 0.41772 0.80107 0.0
C542 C 0.11503 0.38589 0.89243 0.0
C543 C 0.1138 0.37308 0.84348 0.0
H544 H 0.61296 0.59836 0.16396 0.0
H545 H 0.54122 0.63908 0.10241 0.0
H546 H 0.55648 0.63017 0.01344 0.0
H547 H 0.58921 0.60918 0.95291 0.0
H548 H 0.66015 0.56708 0.01438 0.0
H549 H 0.6463 0.57836 0.10334 0.0
C550 C 0.60074 0.60537 0.13107 0.0
C551 C 0.57594 0.6192 0.13984 0.0
C552 C 0.60948 0.59995 0.0799 0.0
C553 C 0.56031 0.62817 0.0968 0.0
C554 C 0.56903 0.62315 0.04583 0.0
C555 C 0.60177 0.60273 0.98576 0.0
C556 C 0.6256 0.58728 0.97708 0.0
C557 C 0.59345 0.60885 0.0369 0.0
C558 C 0.64159 0.57889 0.02004 0.0
C559 C 0.6337 0.58531 0.07096 0.0
H560 H 0.38098 0.06492 0.33982 0.0
H561 H 0.43087 0.12122 0.42933 0.0
H562 H 0.4498 0.14004 0.34851 0.0
H563 H 0.45326 0.13912 0.25267 0.0
H564 H 0.40218 0.08352 0.16381 0.0
H565 H 0.38248 0.06578 0.24445 0.0
C566 C 0.396 0.08132 0.34164 0.0
C567 C 0.40479 0.0915 0.39026 0.0
C568 C 0.40656 0.09209 0.29529 0.0
C569 C 0.42386 0.11306 0.39219 0.0
C570 C 0.43473 0.12374 0.34609 0.0
C571 C 0.4378 0.12314 0.25103 0.0
C572 C 0.42934 0.11244 0.20253 0.0
C573 C 0.42641 0.11319 0.29747 0.0
C574 C 0.40902 0.09204 0.20076 0.0
C575 C 0.3978 0.08185 0.2468 0.0
H576 H 0.94911 0.87107 0.59329 0.0
H577 H 0.88941 0.91804 0.67941 0.0
H578 H 0.8673 0.93174 0.59756 0.0
H579 H 0.8664 0.93219 0.50186 0.0
H580 H 0.92572 0.8849 0.41542 0.0
H581 H 0.94641 0.8692 0.49742 0.0
C582 C 0.93123 0.88428 0.59417 0.0
C583 C 0.92108 0.8938 0.64229 0.0
C584 C 0.91859 0.89195 0.54704 0.0
C585 C 0.89765 0.91052 0.64286 0.0
C586 C 0.88505 0.91838 0.5961 0.0
C587 C 0.88378 0.91832 0.50088 0.0
C588 C 0.89469 0.90991 0.45264 0.0
C589 C 0.89556 0.90949 0.54801 0.0
C590 C 0.91697 0.89168 0.45206 0.0
C591 C 0.92887 0.8828 0.4989 0.0
H592 H 0.11597 0.10736 0.95754 0.0
H593 H 0.07004 0.17444 0.02426 0.0
H594 H 0.08521 0.16119 0.11169 0.0
H595 H 0.1082 0.12822 0.16987 0.0
H596 H 0.15286 0.06026 0.10323 0.0
H597 H 0.14172 0.07636 0.01539 0.0
C598 C 0.10955 0.11932 0.9911 0.0
C599 C 0.09169 0.14175 0.98421 0.0
C600 C 0.118 0.11133 0.04149 0.0
C601 C 0.08364 0.15699 0.02829 0.0
C602 C 0.09227 0.1494 0.07842 0.0
C603 C 0.11584 0.11713 0.13617 0.0
C604 C 0.13118 0.09292 0.14331 0.0
C605 C 0.10896 0.12624 0.0856 0.0
C606 C 0.14087 0.07885 0.09904 0.0
C607 C 0.13447 0.08802 0.04869 0.0
H608 H 0.88658 0.59762 0.40535 0.0
H609 H 0.93849 0.66157 0.34411 0.0
H610 H 0.92487 0.64952 0.25523 0.0
H611 H 0.90054 0.6189 0.19398 0.0
H612 H 0.84915 0.5545 0.25511 0.0
H613 H 0.86007 0.56876 0.34416 0.0
C614 C 0.89467 0.60913 0.37262 0.0
C615 C 0.91368 0.63038 0.38168 0.0
C616 C 0.88696 0.60191 0.32119 0.0
C617 C 0.92394 0.64501 0.33856 0.0
C618 C 0.91619 0.63812 0.28751 0.0
C619 C 0.89149 0.60816 0.22674 0.0
C620 C 0.87416 0.58553 0.21755 0.0
C621 C 0.89807 0.61631 0.27822 0.0
C622 C 0.86267 0.5719 0.26073 0.0
C623 C 0.86893 0.58002 0.31188 0.0
H624 H 0.35477 0.44357 0.58362 0.0
H625 H 0.39951 0.38852 0.68497 0.0
H626 H 0.41675 0.36363 0.60924 0.0
H627 H 0.42259 0.36015 0.5142 0.0
H628 H 0.37788 0.41525 0.4129 0.0
H629 H 0.35704 0.43718 0.48858 0.0
C630 C 0.36802 0.42593 0.58919 0.0
C631 C 0.37608 0.41819 0.6399 0.0
C632 C 0.37805 0.41177 0.54542 0.0
C633 C 0.39306 0.39508 0.64638 0.0
C634 C 0.40304 0.38084 0.60306 0.0
C635 C 0.40804 0.37673 0.50863 0.0
C636 C 0.40211 0.38622 0.45795 0.0
C637 C 0.39621 0.38942 0.55238 0.0
C638 C 0.38297 0.40758 0.45146 0.0
C639 C 0.37108 0.42023 0.49475 0.0
H640 H 0.61516 0.89479 0.70278 0.0
H641 H 0.66746 0.95672 0.77141 0.0
H642 H 0.65658 0.9399 0.85867 0.0
H643 H 0.62959 0.90986 0.91587 0.0
H644 H 0.57636 0.84876 0.84715 0.0
H645 H 0.5904 0.86289 0.75987 0.0
C646 C 0.62445 0.90443 0.73676 0.0
C647 C 0.64197 0.92713 0.7304 0.0
C648 C 0.61781 0.8949 0.787 0.0
C649 C 0.65379 0.93931 0.77501 0.0
C650 C 0.64755 0.92973 0.82504 0.0
C651 C 0.6213 0.8994 0.88185 0.0
C652 C 0.6018 0.87838 0.88821 0.0
C653 C 0.62918 0.90788 0.83157 0.0
C654 C 0.59128 0.86509 0.84355 0.0
C655 C 0.59927 0.87319 0.79351 0.0
H656 H 0.12299 0.40438 0.40907 0.0
H657 H 0.06255 0.34909 0.34433 0.0
H658 H 0.07702 0.36095 0.25608 0.0
H659 H 0.10458 0.38938 0.19706 0.0
H660 H 0.16432 0.44542 0.26183 0.0
H661 H 0.15248 0.43075 0.34999 0.0
C662 C 0.11317 0.39468 0.3757 0.0
C663 C 0.09158 0.376 0.38346 0.0
C664 C 0.12136 0.40184 0.32489 0.0
C665 C 0.07913 0.36365 0.33964 0.0
C666 C 0.08736 0.37044 0.28905 0.0
C667 C 0.11523 0.39819 0.2304 0.0
C668 C 0.13519 0.41863 0.2227 0.0
C669 C 0.10811 0.38989 0.28117 0.0
C670 C 0.14877 0.42977 0.26648 0.0
C671 C 0.142 0.42141 0.31702 0.0
H672 H 0.65202 0.58261 0.59865 0.0
H673 H 0.59836 0.63289 0.6922 0.0
H674 H 0.57884 0.65311 0.61309 0.0
H675 H 0.57421 0.65362 0.51737 0.0
H676 H 0.62772 0.60313 0.42388 0.0
H677 H 0.65019 0.58615 0.5029 0.0
C678 C 0.63627 0.59822 0.60182 0.0
C679 C 0.62651 0.60598 0.65139 0.0
C680 C 0.62496 0.60964 0.55611 0.0
C681 C 0.60624 0.62642 0.65464 0.0
C682 C 0.59497 0.63795 0.60936 0.0
C683 C 0.59099 0.63913 0.51418 0.0
C684 C 0.59903 0.62948 0.46466 0.0
C685 C 0.60373 0.62927 0.55987 0.0
C686 C 0.62099 0.61087 0.46139 0.0
C687 C 0.63382 0.60105 0.50663 0.0
H688 H 0.36332 0.07065 0.75932 0.0
H689 H 0.39513 0.13547 0.66203 0.0
H690 H 0.41279 0.15923 0.73917 0.0
H691 H 0.42349 0.15906 0.83331 0.0
H692 H 0.39141 0.09415 0.93022 0.0
H693 H 0.36945 0.07324 0.85436 0.0
C694 C 0.37377 0.09017 0.75502 0.0
C695 C 0.3782 0.10103 0.70489 0.0
C696 C 0.38408 0.10366 0.79951 0.0
C697 C 0.39151 0.12653 0.70011 0.0
C698 C 0.40176 0.1401 0.74423 0.0
C699 C 0.41141 0.14054 0.83795 0.0
C700 C 0.40949 0.12803 0.88733 0.0
C701 C 0.39885 0.12846 0.79399 0.0
C702 C 0.39345 0.10418 0.89268 0.0
C703 C 0.38091 0.09211 0.84924 0.0
H704 H 0.908 0.8853 0.15349 0.0
H705 H 0.84635 0.93761 0.08432 0.0
H706 H 0.8605 0.92326 0.99716 0.0
H707 H 0.89244 0.89836 0.94023 0.0
H708 H 0.95486 0.84699 0.00936 0.0
H709 H 0.93818 0.85829 0.09652 0.0
C710 C 0.89744 0.89335 0.1194 0.0
C711 C 0.87624 0.91266 0.12562 0.0
C712 C 0.90591 0.88527 0.06918 0.0
C713 C 0.86283 0.92284 0.08086 0.0
C714 C 0.87093 0.91466 0.03087 0.0
C715 C 0.9022 0.88936 0.9743 0.0
C716 C 0.92499 0.87196 0.9681 0.0
C717 C 0.89276 0.89626 0.02451 0.0
C718 C 0.93738 0.86055 0.01284 0.0
C719 C 0.92788 0.86704 0.06281 0.0
loop_
_geom_bond_atom_site_label_1
_geom_bond_atom_site_label_2
_geom_bond_distance
_geom_bond_site_symmetry_2
_ccdc_geom_bond_type
Mg0 O7 2.141 . S
Mg0 O8 2.048 . S
Mg0 O9 2.048 . S
Mg0 O12 2.141 . S
C1 O2 1.313 . S
C1 O8 1.195 . S
O2 C1 1.313 . S
C3 O4 1.245 . S
C3 O12 1.289 . S
O4 C3 1.245 . S
C5 O6 1.245 . S
C5 O7 1.289 . S
O6 C5 1.245 . S
O7 Mg0 2.141 . S
O7 C5 1.289 . S
O8 Mg0 2.048 . S
O8 C1 1.195 . S
O9 Mg0 2.048 . S
O9 C10 1.195 . S
C10 O9 1.195 . S
C10 O11 1.313 . S
O11 C10 1.313 . S
O12 Mg0 2.141 . S
O12 C3 1.289 . S
Mg13 O20 2.141 . S
Mg13 O21 2.048 . S
Mg13 O22 2.048 . S
Mg13 O25 2.141 . S
C14 O15 1.313 . S
C14 O21 1.195 . S
O15 C14 1.313 . S
C16 O17 1.245 . S
C16 O25 1.289 . S
O17 C16 1.245 . S
C18 O19 1.245 . S
C18 O20 1.289 . S
O19 C18 1.245 . S
O20 Mg13 2.141 . S
O20 C18 1.289 . S
O21 Mg13 2.048 . S
O21 C14 1.195 . S
O22 Mg13 2.048 . S
O22 C23 1.195 . S
C23 O22 1.195 . S
C23 O24 1.313 . S
O24 C23 1.313 . S
O25 Mg13 2.141 . S
O25 C16 1.289 . S
Mg26 O33 2.141 . S
Mg26 O34 2.048 . S
Mg26 O35 2.048 . S
Mg26 O38 2.141 . S
C27 O28 1.313 . S
C27 O34 1.195 . S
O28 C27 1.313 . S
C29 O30 1.245 . S
C29 O38 1.289 . S
O30 C29 1.245 . S
C31 O32 1.245 . S
C31 O33 1.289 . S
O32 C31 1.245 . S
O33 Mg26 2.141 . S
O33 C31 1.289 . S
O34 Mg26 2.048 . S
O34 C27 1.195 . S
O35 Mg26 2.048 . S
O35 C36 1.195 . S
C36 O35 1.195 . S
C36 O37 1.313 . S
O37 C36 1.313 . S
O38 Mg26 2.141 . S
O38 C29 1.289 . S
Mg39 O46 2.141 . S
Mg39 O47 2.048 . S
Mg39 O48 2.048 . S
Mg39 O51 2.141 1_554 S
C40 O41 1.313 . S
C40 O47 1.195 . S
O41 C40 1.313 . S
C42 O43 1.245 . S
C42 O51 1.289 . S
O43 C42 1.245 . S
C44 O45 1.245 . S
C44 O46 1.289 . S
O45 C44 1.245 . S
O46 Mg39 2.141 . S
O46 C44 1.289 . S
O47 Mg39 2.048 . S
O47 C40 1.195 . S
O48 Mg39 2.048 . S
O48 C49 1.195 . S
C49 O48 1.195 . S
C49 O50 1.313 . S
O50 C49 1.313 . S
O51 Mg39 2.141 1_556 S
O51 C42 1.289 . S
Mg52 O59 2.141 . S
Mg52 O60 2.048 1_554 S
Mg52 O61 2.048 . S
Mg52 O64 2.141 . S
C53 O54 1.313 . S
C53 O60 1.195 . S
O54 C53 1.313 . S
C55 O56 1.245 . S
C55 O64 1.289 . S
O56 C55 1.245 . S
C57 O58 1.245 . S
C57 O59 1.289 . S
O58 C57 1.245 . S
O59 Mg52 2.141 . S
O59 C57 1.289 . S
O60 Mg52 2.048 1_556 S
O60 C53 1.195 . S
O61 Mg52 2.048 . S
O61 C62 1.195 . S
C62 O61 1.195 . S
C62 O63 1.313 . S
O63 C62 1.313 . S
O64 Mg52 2.141 . S
O64 C55 1.289 . S
Mg65 O72 2.141 . S
Mg65 O73 2.048 . S
Mg65 O74 2.048 . S
Mg65 O77 2.141 . S
C66 O67 1.313 . S
C66 O73 1.195 . S
O67 C66 1.313 . S
C68 O69 1.245 . S
C68 O77 1.289 . S
O69 C68 1.245 . S
C70 O71 1.245 . S
C70 O72 1.289 . S
O71 C70 1.245 . S
O72 Mg65 2.141 . S
O72 C70 1.289 . S
O73 Mg65 2.048 . S
O73 C66 1.195 . S
O74 Mg65 2.048 . S
O74 C75 1.195 . S
C75 O74 1.195 . S
C75 O76 1.313 . S
O76 C75 1.313 . S
O77 Mg65 2.141 . S
O77 C68 1.289 . S
Mg78 O85 2.141 . S
Mg78 O86 2.048 . S
Mg78 O87 2.048 . S
Mg78 O90 2.141 . S
C79 O80 1.313 . S
C79 O86 1.195 . S
O80 C79 1.313 . S
C81 O82 1.245 . S
C81 O90 1.289 . S
O82 C81 1.245 . S
C83 O84 1.245 . S
C83 O85 1.289 . S
O84 C83 1.245 . S
O85 Mg78 2.141 . S
O85 C83 1.289 . S
O86 Mg78 2.048 . S
O86 C79 1.195 . S
O87 Mg78 2.048 . S
O87 C88 1.195 . S
C88 O87 1.195 . S
C88 O89 1.313 . S
O89 C88 1.313 . S
O90 Mg78 2.141 . S
O90 C81 1.289 . S
Mg91 O98 2.141 . S
Mg91 O99 2.048 . S
Mg91 O100 2.048 . S
Mg91 O103 2.141 . S
C92 O93 1.313 . S
C92 O99 1.195 . S
O93 C92 1.313 . S
C94 O95 1.245 . S
C94 O103 1.289 . S
O95 C94 1.245 . S
C96 O97 1.245 . S
C96 O98 1.289 . S
O97 C96 1.245 . S
O98 Mg91 2.141 . S
O98 C96 1.289 . S
O99 Mg91 2.048 . S
O99 C92 1.195 . S
O100 Mg91 2.048 . S
O100 C101 1.195 . S
C101 O100 1.195 . S
C101 O102 1.313 . S
O102 C101 1.313 . S
O103 Mg91 2.141 . S
O103 C94 1.289 . S
Mg104 O111 2.141 . S
Mg104 O112 2.048 . S
Mg104 O113 2.048 . S
Mg104 O116 2.141 . S
C105 O106 1.313 . S
C105 O112 1.195 . S
O106 C105 1.313 . S
C107 O108 1.245 . S
C107 O116 1.289 . S
O108 C107 1.245 . S
C109 O110 1.245 . S
C109 O111 1.289 . S
O110 C109 1.245 . S
O111 Mg104 2.141 . S
O111 C109 1.289 . S
O112 Mg104 2.048 . S
O112 C105 1.195 . S
O113 Mg104 2.048 . S
O113 C114 1.195 . S
C114 O113 1.195 . S
C114 O115 1.313 . S
O115 C114 1.313 . S
O116 Mg104 2.141 . S
O116 C107 1.289 . S
Mg117 O124 2.141 . S
Mg117 O125 2.048 . S
Mg117 O126 2.048 . S
Mg117 O129 2.141 1_554 S
C118 O119 1.313 . S
C118 O125 1.195 . S
O119 C118 1.313 . S
C120 O121 1.245 . S
C120 O129 1.289 . S
O121 C120 1.245 . S
C122 O123 1.245 . S
C122 O124 1.289 . S
O123 C122 1.245 . S
O124 Mg117 2.141 . S
O124 C122 1.289 . S
O125 Mg117 2.048 . S
O125 C118 1.195 . S
O126 Mg117 2.048 . S
O126 C127 1.195 . S
C127 O126 1.195 . S
C127 O128 1.313 . S
O128 C127 1.313 . S
O129 Mg117 2.141 1_556 S
O129 C120 1.289 . S
Mg130 O137 2.141 . S
Mg130 O138 2.048 . S
Mg130 O139 2.048 . S
Mg130 O142 2.141 . S
C131 O132 1.313 . S
C131 O138 1.195 . S
O132 C131 1.313 . S
C133 O134 1.245 . S
C133 O142 1.289 . S
O134 C133 1.245 . S
C135 O136 1.245 . S
C135 O137 1.289 . S
O136 C135 1.245 . S
O137 Mg130 2.141 . S
O137 C135 1.289 . S
O138 Mg130 2.048 . S
O138 C131 1.195 . S
O139 Mg130 2.048 . S
O139 C140 1.195 . S
C140 O139 1.195 . S
C140 O141 1.313 . S
O141 C140 1.313 . S
O142 Mg130 2.141 . S
O142 C133 1.289 . S
Mg143 O150 2.141 . S
Mg143 O151 2.048 . S
Mg143 O152 2.048 . S
Mg143 O155 2.141 . S
C144 O145 1.313 . S
C144 O151 1.195 . S
O145 C144 1.313 . S
C146 O147 1.245 . S
C146 O155 1.289 . S
O147 C146 1.245 . S
C148 O149 1.245 . S
C148 O150 1.289 . S
O149 C148 1.245 . S
O150 Mg143 2.141 . S
O150 C148 1.289 . S
O151 Mg143 2.048 . S
O151 C144 1.195 . S
O152 Mg143 2.048 . S
O152 C153 1.195 . S
C153 O152 1.195 . S
C153 O154 1.313 . S
O154 C153 1.313 . S
O155 Mg143 2.141 . S
O155 C146 1.289 . S
Mg156 O163 2.141 . S
Mg156 O164 2.048 . S
Mg156 O165 2.048 . S
Mg156 O168 2.141 . S
C157 O158 1.313 . S
C157 O164 1.195 . S
O158 C157 1.313 . S
C159 O160 1.245 . S
C159 O168 1.289 . S
O160 C159 1.245 . S
C161 O162 1.245 . S
C161 O163 1.289 . S
O162 C161 1.245 . S
O163 Mg156 2.141 . S
O163 C161 1.289 . S
O164 Mg156 2.048 . S
O164 C157 1.195 . S
O165 Mg156 2.048 . S
O165 C166 1.195 . S
C166 O165 1.195 . S
C166 O167 1.313 . S
O167 C166 1.313 . S
O168 Mg156 2.141 . S
O168 C159 1.289 . S
Mg169 O176 2.141 . S
Mg169 O177 2.048 . S
Mg169 O178 2.048 . S
Mg169 O181 2.141 . S
C170 O171 1.313 . S
C170 O177 1.195 . S
O171 C170 1.313 . S
C172 O173 1.245 . S
C172 O181 1.289 . S
O173 C172 1.245 . S
C174 O175 1.245 . S
C174 O176 1.289 . S
O175 C174 1.245 . S
O176 Mg169 2.141 . S
O176 C174 1.289 . S
O177 Mg169 2.048 . S
O177 C170 1.195 . S
O178 Mg169 2.048 . S
O178 C179 1.195 . S
C179 O178 1.195 . S
C179 O180 1.313 . S
O180 C179 1.313 . S
O181 Mg169 2.141 . S
O181 C172 1.289 . S
Mg182 O189 2.141 . S
Mg182 O190 2.048 1_554 S
Mg182 O191 2.048 . S
Mg182 O194 2.141 . S
C183 O184 1.313 . S
C183 O190 1.195 . S
O184 C183 1.313 . S
C185 O186 1.245 . S
C185 O194 1.289 . S
O186 C185 1.245 . S
C187 O188 1.245 . S
C187 O189 1.289 . S
O188 C187 1.245 . S
O189 Mg182 2.141 . S
O189 C187 1.289 . S
O190 Mg182 2.048 1_556 S
O190 C183 1.195 . S
O191 Mg182 2.048 . S
O191 C192 1.195 . S
C192 O191 1.195 . S
C192 O193 1.313 . S
O193 C192 1.313 . S
O194 Mg182 2.141 . S
O194 C185 1.289 . S
Mg195 O202 2.141 . S
Mg195 O203 2.048 . S
Mg195 O204 2.048 . S
Mg195 O207 2.141 . S
C196 O197 1.313 . S
C196 O203 1.195 . S
O197 C196 1.313 . S
C198 O199 1.245 . S
C198 O207 1.289 . S
O199 C198 1.245 . S
C200 O201 1.245 . S
C200 O202 1.289 . S
O201 C200 1.245 . S
O202 Mg195 2.141 . S
O202 C200 1.289 . S
O203 Mg195 2.048 . S
O203 C196 1.195 . S
O204 Mg195 2.048 . S
O204 C205 1.195 . S
C205 O204 1.195 . S
C205 O206 1.313 . S
O206 C205 1.313 . S
O207 Mg195 2.141 . S
O207 C198 1.289 . S
H208 C214 0.930 . S
H209 C217 0.930 . S
H210 C218 0.930 . S
H211 C219 0.930 . S
H212 C222 0.930 . S
H213 C223 0.930 . S
C214 H208 0.930 . S
C214 C215 1.355 . S
C214 C216 1.415 . S
C215 C214 1.355 . S
C215 C217 1.419 . S
C216 C214 1.415 . S
C216 C221 1.425 . S
C216 C223 1.409 . S
C217 H209 0.930 . S
C217 C215 1.419 . S
C217 C218 1.362 . S
C218 H210 0.930 . S
C218 C217 1.362 . S
C218 C221 1.409 . S
C219 H211 0.930 . S
C219 C220 1.355 . S
C219 C221 1.415 . S
C220 C219 1.355 . S
C220 C222 1.419 . S
C221 C216 1.425 . S
C221 C218 1.409 . S
C221 C219 1.415 . S
C222 H212 0.930 . S
C222 C220 1.419 . S
C222 C223 1.362 . S
C223 H213 0.930 . S
C223 C216 1.409 . S
C223 C222 1.362 . S
H224 C230 0.930 . S
H225 C233 0.930 . S
H226 C234 0.930 . S
H227 C235 0.930 . S
H228 C238 0.930 . S
H229 C239 0.930 . S
C230 H224 0.930 . S
C230 C231 1.355 . S
C230 C232 1.415 . S
C231 C230 1.355 . S
C231 C233 1.419 . S
C232 C230 1.415 . S
C232 C237 1.425 . S
C232 C239 1.409 . S
C233 H225 0.930 . S
C233 C231 1.419 . S
C233 C234 1.362 . S
C234 H226 0.930 . S
C234 C233 1.362 . S
C234 C237 1.409 . S
C235 H227 0.930 . S
C235 C236 1.355 . S
C235 C237 1.415 . S
C236 C235 1.355 . S
C236 C238 1.419 . S
C237 C232 1.425 . S
C237 C234 1.409 . S
C237 C235 1.415 . S
C238 H228 0.930 . S
C238 C236 1.419 . S
C238 C239 1.362 . S
C239 H229 0.930 . S
C239 C232 1.409 . S
C239 C238 1.362 . S
H240 C246 0.930 . S
H241 C249 0.930 . S
H242 C250 0.930 . S
H243 C251 0.930 . S
H244 C254 0.930 . S
H245 C255 0.933 . S
C246 H240 0.930 . S
C246 C247 1.355 . S
C246 C248 1.415 . S
C247 C246 1.355 . S
C247 C249 1.419 . S
C248 C246 1.415 . S
C248 C253 1.425 . S
C248 C255 1.409 . S
C249 H241 0.930 . S
C249 C247 1.419 . S
C249 C250 1.362 . S
C250 H242 0.930 . S
C250 C249 1.362 . S
C250 C253 1.409 . S
C251 H243 0.930 . S
C251 C252 1.355 . S
C251 C253 1.415 . S
C252 C251 1.355 . S
C252 C254 1.419 1_556 S
C253 C248 1.425 . S
C253 C250 1.409 . S
C253 C251 1.415 . S
C254 H244 0.930 . S
C254 C252 1.419 1_554 S
C254 C255 1.362 1_554 S
C255 H245 0.933 . S
C255 C248 1.409 . S
C255 C254 1.362 1_556 S
H256 C262 0.930 . S
H257 C265 0.930 . S
H258 C266 0.930 . S
H259 C267 0.930 . S
H260 C270 0.930 . S
H261 C271 0.930 . S
C262 H256 0.930 . S
C262 C263 1.355 . S
C262 C264 1.415 . S
C263 C262 1.355 . S
C263 C265 1.419 . S
C264 C262 1.415 . S
C264 C269 1.425 . S
C264 C271 1.409 . S
C265 H257 0.930 . S
C265 C263 1.419 . S
C265 C266 1.362 . S
C266 H258 0.930 . S
C266 C265 1.362 . S
C266 C269 1.409 . S
C267 H259 0.930 . S
C267 C268 1.355 . S
C267 C269 1.415 . S
C268 C267 1.355 . S
C268 C270 1.419 . S
C269 C264 1.425 . S
C269 C266 1.409 . S
C269 C267 1.415 . S
C270 H260 0.930 . S
C270 C268 1.419 . S
C270 C271 1.362 . S
C271 H261 0.930 . S
C271 C264 1.409 . S
C271 C270 1.362 . S
H272 C278 0.930 . S
H273 C281 0.930 . S
H274 C282 0.930 . S
H275 C283 0.930 1_554 S
H276 C286 0.930 . S
H277 C287 0.930 . S
C278 H272 0.930 . S
C278 C279 1.355 . S
C278 C280 1.415 . S
C279 C278 1.355 . S
C279 C281 1.419 . S
C280 C278 1.415 . S
C280 C285 1.425 . S
C280 C287 1.409 . S
C281 H273 0.930 . S
C281 C279 1.419 . S
C281 C282 1.362 . S
C282 H274 0.930 . S
C282 C281 1.362 . S
C282 C285 1.409 . S
C283 H275 0.930 1_556 S
C283 C284 1.355 . S
C283 C285 1.415 . S
C284 C283 1.355 . S
C284 C286 1.419 . S
C285 C280 1.425 . S
C285 C282 1.409 . S
C285 C283 1.415 . S
C286 H276 0.930 . S
C286 C284 1.419 . S
C286 C287 1.362 . S
C287 H277 0.930 . S
C287 C280 1.409 . S
C287 C286 1.362 . S
H288 C294 0.930 . S
H289 C297 0.930 . S
H290 C298 0.930 . S
H291 C299 0.930 . S
H292 C302 0.930 . S
H293 C303 0.930 . S
C294 H288 0.930 . S
C294 C295 1.355 . S
C294 C296 1.415 . S
C295 C294 1.355 . S
C295 C297 1.419 . S
C296 C294 1.415 . S
C296 C301 1.425 . S
C296 C303 1.409 . S
C297 H289 0.930 . S
C297 C295 1.419 . S
C297 C298 1.362 . S
C298 H290 0.930 . S
C298 C297 1.362 . S
C298 C301 1.409 . S
C299 H291 0.930 . S
C299 C300 1.355 . S
C299 C301 1.415 . S
C300 C299 1.355 . S
C300 C302 1.419 . S
C301 C296 1.425 . S
C301 C298 1.409 . S
C301 C299 1.415 . S
C302 H292 0.930 . S
C302 C300 1.419 . S
C302 C303 1.362 . S
C303 H293 0.930 . S
C303 C296 1.409 . S
C303 C302 1.362 . S
H304 C310 0.930 . S
H305 C313 0.930 . S
H306 C314 0.930 . S
H307 C315 0.930 . S
H308 C318 0.930 . S
H309 C319 0.930 . S
C310 H304 0.930 . S
C310 C311 1.355 . S
C310 C312 1.415 . S
C311 C310 1.355 . S
C311 C313 1.419 . S
C312 C310 1.415 . S
C312 C317 1.425 . S
C312 C319 1.409 . S
C313 H305 0.930 . S
C313 C311 1.419 . S
C313 C314 1.362 . S
C314 H306 0.930 . S
C314 C313 1.362 . S
C314 C317 1.409 . S
C315 H307 0.930 . S
C315 C316 1.355 . S
C315 C317 1.415 . S
C316 C315 1.355 . S
C316 C318 1.419 . S
C317 C312 1.425 . S
C317 C314 1.409 . S
C317 C315 1.415 . S
C318 H308 0.930 . S
C318 C316 1.419 . S
C318 C319 1.362 . S
C319 H309 0.930 . S
C319 C312 1.409 . S
C319 C318 1.362 . S
H320 C326 0.930 . S
H321 C329 0.930 . S
H322 C330 0.930 . S
H323 C331 0.930 . S
H324 C334 0.930 . S
H325 C335 0.930 . S
C326 H320 0.930 . S
C326 C327 1.355 . S
C326 C328 1.415 . S
C327 C326 1.355 . S
C327 C329 1.419 . S
C328 C326 1.415 . S
C328 C333 1.425 . S
C328 C335 1.409 . S
C329 H321 0.930 . S
C329 C327 1.419 . S
C329 C330 1.362 . S
C330 H322 0.930 . S
C330 C329 1.362 . S
C330 C333 1.409 . S
C331 H323 0.930 . S
C331 C332 1.355 . S
C331 C333 1.415 . S
C332 C331 1.355 . S
C332 C334 1.419 . S
C333 C328 1.425 . S
C333 C330 1.409 . S
C333 C331 1.415 . S
C334 H324 0.930 . S
C334 C332 1.419 . S
C334 C335 1.362 . S
C335 H325 0.930 . S
C335 C328 1.409 . S
C335 C334 1.362 . S
H336 C342 0.930 . S
H337 C345 0.930 . S
H338 C346 0.930 1_565 S
H339 C347 0.930 . S
H340 C350 0.930 . S
H341 C351 0.930 1_545 S
C342 H336 0.930 . S
C342 C343 1.355 . S
C342 C344 1.415 1_455 S
C343 C342 1.355 . S
C343 C345 1.419 . S
C344 C342 1.415 1_655 S
C344 C349 1.425 1_645 S
C344 C351 1.409 1_545 S
C345 H337 0.930 . S
C345 C343 1.419 . S
C345 C346 1.362 . S
C346 H338 0.930 1_545 S
C346 C345 1.362 . S
C346 C349 1.409 1_545 S
C347 H339 0.930 . S
C347 C348 1.355 . S
C347 C349 1.415 1_655 S
C348 C347 1.355 . S
C348 C350 1.419 . S
C349 C344 1.425 1_465 S
C349 C346 1.409 1_565 S
C349 C347 1.415 1_455 S
C350 H340 0.930 . S
C350 C348 1.419 . S
C350 C351 1.362 . S
C351 H341 0.930 1_565 S
C351 C344 1.409 1_565 S
C351 C350 1.362 . S
H352 C358 0.930 . S
H353 C361 0.930 . S
H354 C362 0.930 . S
H355 C363 0.930 . S
H356 C366 0.930 . S
H357 C367 0.930 . S
C358 H352 0.930 . S
C358 C359 1.355 . S
C358 C360 1.415 . S
C359 C358 1.355 . S
C359 C361 1.419 . S
C360 C358 1.415 . S
C360 C365 1.425 1_655 S
C360 C367 1.409 1_655 S
C361 H353 0.930 . S
C361 C359 1.419 . S
C361 C362 1.362 . S
C362 H354 0.930 . S
C362 C361 1.362 . S
C362 C365 1.409 1_655 S
C363 H355 0.930 . S
C363 C364 1.355 . S
C363 C365 1.415 . S
C364 C363 1.355 . S
C364 C366 1.419 . S
C365 C360 1.425 1_455 S
C365 C362 1.409 1_455 S
C365 C363 1.415 . S
C366 H356 0.930 . S
C366 C364 1.419 . S
C366 C367 1.362 . S
C367 H357 0.930 . S
C367 C360 1.409 1_455 S
C367 C366 1.362 . S
H368 C374 0.930 . S
H369 C377 0.930 . S
H370 C378 0.930 . S
H371 C379 0.930 . S
H372 C382 0.930 . S
H373 C383 0.930 . S
C374 H368 0.930 . S
C374 C375 1.355 . S
C374 C376 1.415 . S
C375 C374 1.355 . S
C375 C377 1.419 . S
C376 C374 1.415 . S
C376 C381 1.425 . S
C376 C383 1.409 . S
C377 H369 0.930 . S
C377 C375 1.419 . S
C377 C378 1.362 . S
C378 H370 0.930 . S
C378 C377 1.362 . S
C378 C381 1.409 . S
C379 H371 0.930 . S
C379 C380 1.355 . S
C379 C381 1.415 . S
C380 C379 1.355 . S
C380 C382 1.419 . S
C381 C376 1.425 . S
C381 C378 1.409 . S
C381 C379 1.415 . S
C382 H372 0.930 . S
C382 C380 1.419 . S
C382 C383 1.362 . S
C383 H373 0.930 . S
C383 C376 1.409 . S
C383 C382 1.362 . S
H384 C390 0.930 1_545 S
H385 C393 0.930 . S
H386 C394 0.930 . S
H387 C395 0.930 1_565 S
H388 C398 0.930 . S
H389 C399 0.930 . S
C390 H384 0.930 1_565 S
C390 C391 1.355 . S
C390 C392 1.415 1_565 S
C391 C390 1.355 . S
C391 C393 1.419 . S
C392 C390 1.415 1_545 S
C392 C397 1.425 1_545 S
C392 C399 1.409 . S
C393 H385 0.930 . S
C393 C391 1.419 . S
C393 C394 1.362 . S
C394 H386 0.930 . S
C394 C393 1.362 . S
C394 C397 1.409 . S
C395 H387 0.930 1_545 S
C395 C396 1.355 . S
C395 C397 1.415 1_545 S
C396 C395 1.355 . S
C396 C398 1.419 . S
C397 C392 1.425 1_565 S
C397 C394 1.409 . S
C397 C395 1.415 1_565 S
C398 H388 0.930 . S
C398 C396 1.419 . S
C398 C399 1.362 . S
C399 H389 0.930 . S
C399 C392 1.409 . S
C399 C398 1.362 . S
H400 C406 0.930 . S
H401 C409 0.930 . S
H402 C410 0.930 1_655 S
H403 C411 0.930 . S
H404 C414 0.930 . S
H405 C415 0.930 1_455 S
C406 H400 0.930 . S
C406 C407 1.355 . S
C406 C408 1.415 . S
C407 C406 1.355 . S
C407 C409 1.419 1_554 S
C408 C406 1.415 . S
C408 C413 1.425 1_455 S
C408 C415 1.409 1_455 S
C409 H401 0.930 . S
C409 C407 1.419 1_556 S
C409 C410 1.362 . S
C410 H402 0.930 1_455 S
C410 C409 1.362 . S
C410 C413 1.409 1_456 S
C411 H403 0.930 . S
C411 C412 1.355 1_556 S
C411 C413 1.415 1_556 S
C412 C411 1.355 1_554 S
C412 C414 1.419 . S
C413 C408 1.425 1_655 S
C413 C410 1.409 1_654 S
C413 C411 1.415 1_554 S
C414 H404 0.930 . S
C414 C412 1.419 . S
C414 C415 1.362 . S
C415 H405 0.930 1_655 S
C415 C408 1.409 1_655 S
C415 C414 1.362 . S
H416 C422 0.930 . S
H417 C425 0.930 . S
H418 C426 0.930 . S
H419 C427 0.930 . S
H420 C430 0.930 . S
H421 C431 0.930 . S
C422 H416 0.930 . S
C422 C423 1.355 . S
C422 C424 1.415 . S
C423 C422 1.355 . S
C423 C425 1.419 . S
C424 C422 1.415 . S
C424 C429 1.425 . S
C424 C431 1.409 . S
C425 H417 0.930 . S
C425 C423 1.419 . S
C425 C426 1.362 . S
C426 H418 0.930 . S
C426 C425 1.362 . S
C426 C429 1.409 . S
C427 H419 0.930 . S
C427 C428 1.355 . S
C427 C429 1.415 . S
C428 C427 1.355 . S
C428 C430 1.419 . S
C429 C424 1.425 . S
C429 C426 1.409 . S
C429 C427 1.415 . S
C430 H420 0.930 . S
C430 C428 1.419 . S
C430 C431 1.362 . S
C431 H421 0.930 . S
C431 C424 1.409 . S
C431 C430 1.362 . S
H432 C438 0.930 . S
H433 C441 0.930 . S
H434 C442 0.930 . S
H435 C443 0.930 . S
H436 C446 0.930 . S
H437 C447 0.930 . S
C438 H432 0.930 . S
C438 C439 1.355 . S
C438 C440 1.415 1_545 S
C439 C438 1.355 . S
C439 C441 1.419 . S
C440 C438 1.415 1_565 S
C440 C445 1.425 1_565 S
C440 C447 1.409 . S
C441 H433 0.930 . S
C441 C439 1.419 . S
C441 C442 1.362 . S
C442 H434 0.930 . S
C442 C441 1.362 . S
C442 C445 1.409 . S
C443 H435 0.930 . S
C443 C444 1.355 . S
C443 C445 1.415 1_565 S
C444 C443 1.355 . S
C444 C446 1.419 . S
C445 C440 1.425 1_545 S
C445 C442 1.409 . S
C445 C443 1.415 1_545 S
C446 H436 0.930 . S
C446 C444 1.419 . S
C446 C447 1.362 . S
C447 H437 0.930 . S
C447 C440 1.409 . S
C447 C446 1.362 . S
H448 C454 0.930 . S
H449 C457 0.930 . S
H450 C458 0.930 . S
H451 C459 0.930 . S
H452 C462 0.930 . S
H453 C463 0.930 . S
C454 H448 0.930 . S
C454 C455 1.355 . S
C454 C456 1.415 . S
C455 C454 1.355 . S
C455 C457 1.419 . S
C456 C454 1.415 . S
C456 C461 1.425 1_445 S
C456 C463 1.409 1_445 S
C457 H449 0.930 . S
C457 C455 1.419 . S
C457 C458 1.362 . S
C458 H450 0.930 . S
C458 C457 1.362 . S
C458 C461 1.409 1_445 S
C459 H451 0.930 . S
C459 C460 1.355 . S
C459 C461 1.415 . S
C460 C459 1.355 . S
C460 C462 1.419 . S
C461 C456 1.425 1_665 S
C461 C458 1.409 1_665 S
C461 C459 1.415 . S
C462 H452 0.930 . S
C462 C460 1.419 . S
C462 C463 1.362 . S
C463 H453 0.930 . S
C463 C456 1.409 1_665 S
C463 C462 1.362 . S
H464 C470 0.930 . S
H465 C473 0.930 . S
H466 C474 0.930 . S
H467 C475 0.930 . S
H468 C478 0.930 . S
H469 C479 0.930 . S
C470 H464 0.930 . S
C470 C471 1.355 . S
C470 C472 1.415 . S
C471 C470 1.355 . S
C471 C473 1.419 . S
C472 C470 1.415 . S
C472 C477 1.425 . S
C472 C479 1.409 . S
C473 H465 0.930 . S
C473 C471 1.419 . S
C473 C474 1.362 . S
C474 H466 0.930 . S
C474 C473 1.362 . S
C474 C477 1.409 . S
C475 H467 0.930 . S
C475 C476 1.355 . S
C475 C477 1.415 . S
C476 C475 1.355 . S
C476 C478 1.419 . S
C477 C472 1.425 . S
C477 C474 1.409 . S
C477 C475 1.415 . S
C478 H468 0.930 . S
C478 C476 1.419 . S
C478 C479 1.362 . S
C479 H469 0.930 . S
C479 C472 1.409 . S
C479 C478 1.362 . S
H480 C486 0.930 . S
H481 C489 0.930 . S
H482 C490 0.930 . S
H483 C491 0.930 . S
H484 C494 0.930 . S
H485 C495 0.930 . S
C486 H480 0.930 . S
C486 C487 1.355 . S
C486 C488 1.415 . S
C487 C486 1.355 . S
C487 C489 1.419 . S
C488 C486 1.415 . S
C488 C493 1.425 . S
C488 C495 1.409 . S
C489 H481 0.930 . S
C489 C487 1.419 . S
C489 C490 1.362 . S
C490 H482 0.930 . S
C490 C489 1.362 . S
C490 C493 1.409 . S
C491 H483 0.930 . S
C491 C492 1.355 . S
C491 C493 1.415 . S
C492 C491 1.355 . S
C492 C494 1.419 . S
C493 C488 1.425 . S
C493 C490 1.409 . S
C493 C491 1.415 . S
C494 H484 0.930 . S
C494 C492 1.419 . S
C494 C495 1.362 . S
C495 H485 0.930 . S
C495 C488 1.409 . S
C495 C494 1.362 . S
H496 C502 0.930 . S
H497 C505 0.930 . S
H498 C506 0.930 . S
H499 C507 0.930 . S
H500 C510 0.930 . S
H501 C511 0.930 . S
C502 H496 0.930 . S
C502 C503 1.355 . S
C502 C504 1.415 . S
C503 C502 1.355 . S
C503 C505 1.419 . S
C504 C502 1.415 . S
C504 C509 1.425 . S
C504 C511 1.409 . S
C505 H497 0.930 . S
C505 C503 1.419 . S
C505 C506 1.362 . S
C506 H498 0.930 . S
C506 C505 1.362 . S
C506 C509 1.409 . S
C507 H499 0.930 . S
C507 C508 1.355 . S
C507 C509 1.415 1_556 S
C508 C507 1.355 . S
C508 C510 1.419 . S
C509 C504 1.425 . S
C509 C506 1.409 . S
C509 C507 1.415 1_554 S
C510 H500 0.930 . S
C510 C508 1.419 . S
C510 C511 1.362 1_556 S
C511 H501 0.930 . S
C511 C504 1.409 . S
C511 C510 1.362 1_554 S
H512 C518 0.930 . S
H513 C521 0.930 . S
H514 C522 0.930 . S
H515 C523 0.930 . S
H516 C526 0.930 . S
H517 C527 0.930 . S
C518 H512 0.930 . S
C518 C519 1.355 . S
C518 C520 1.415 . S
C519 C518 1.355 . S
C519 C521 1.419 . S
C520 C518 1.415 . S
C520 C525 1.425 . S
C520 C527 1.409 . S
C521 H513 0.930 . S
C521 C519 1.419 . S
C521 C522 1.362 . S
C522 H514 0.930 . S
C522 C521 1.362 . S
C522 C525 1.409 . S
C523 H515 0.930 . S
C523 C524 1.355 . S
C523 C525 1.415 . S
C524 C523 1.355 . S
C524 C526 1.419 . S
C525 C520 1.425 . S
C525 C522 1.409 . S
C525 C523 1.415 . S
C526 H516 0.930 . S
C526 C524 1.419 . S
C526 C527 1.362 . S
C527 H517 0.930 . S
C527 C520 1.409 . S
C527 C526 1.362 . S
H528 C534 0.930 . S
H529 C537 0.930 . S
H530 C538 0.930 . S
H531 C539 0.930 . S
H532 C542 0.930 . S
H533 C543 0.930 . S
C534 H528 0.930 . S
C534 C535 1.355 . S
C534 C536 1.415 . S
C535 C534 1.355 . S
C535 C537 1.419 . S
C536 C534 1.415 . S
C536 C541 1.425 . S
C536 C543 1.409 . S
C537 H529 0.930 . S
C537 C535 1.419 . S
C537 C538 1.362 . S
C538 H530 0.930 . S
C538 C537 1.362 . S
C538 C541 1.409 . S
C539 H531 0.930 . S
C539 C540 1.355 . S
C539 C541 1.415 . S
C540 C539 1.355 . S
C540 C542 1.419 . S
C541 C536 1.425 . S
C541 C538 1.409 . S
C541 C539 1.415 . S
C542 H532 0.930 . S
C542 C540 1.419 . S
C542 C543 1.362 . S
C543 H533 0.930 . S
C543 C536 1.409 . S
C543 C542 1.362 . S
H544 C550 0.930 . S
H545 C553 0.930 . S
H546 C554 0.930 . S
H547 C555 0.930 . S
H548 C558 0.930 . S
H549 C559 0.930 . S
C550 H544 0.930 . S
C550 C551 1.355 . S
C550 C552 1.415 . S
C551 C550 1.355 . S
C551 C553 1.419 . S
C552 C550 1.415 . S
C552 C557 1.425 . S
C552 C559 1.409 . S
C553 H545 0.930 . S
C553 C551 1.419 . S
C553 C554 1.362 . S
C554 H546 0.930 . S
C554 C553 1.362 . S
C554 C557 1.409 . S
C555 H547 0.930 . S
C555 C556 1.355 . S
C555 C557 1.415 1_556 S
C556 C555 1.355 . S
C556 C558 1.419 . S
C557 C552 1.425 . S
C557 C554 1.409 . S
C557 C555 1.415 1_554 S
C558 H548 0.930 . S
C558 C556 1.419 . S
C558 C559 1.362 1_556 S
C559 H549 0.930 . S
C559 C552 1.409 . S
C559 C558 1.362 1_554 S
H560 C566 0.930 . S
H561 C569 0.930 . S
H562 C570 0.930 . S
H563 C571 0.930 . S
H564 C574 0.930 . S
H565 C575 0.930 . S
C566 H560 0.930 . S
C566 C567 1.355 . S
C566 C568 1.415 . S
C567 C566 1.355 . S
C567 C569 1.419 . S
C568 C566 1.415 . S
C568 C573 1.425 . S
C568 C575 1.409 . S
C569 H561 0.930 . S
C569 C567 1.419 . S
C569 C570 1.362 . S
C570 H562 0.930 . S
C570 C569 1.362 . S
C570 C573 1.409 . S
C571 H563 0.930 . S
C571 C572 1.355 . S
C571 C573 1.415 . S
C572 C571 1.355 . S
C572 C574 1.419 . S
C573 C568 1.425 . S
C573 C570 1.409 . S
C573 C571 1.415 . S
C574 H564 0.930 . S
C574 C572 1.419 . S
C574 C575 1.362 . S
C575 H565 0.930 . S
C575 C568 1.409 . S
C575 C574 1.362 . S
H576 C582 0.930 . S
H577 C585 0.930 . S
H578 C586 0.930 . S
H579 C587 0.930 . S
H580 C590 0.930 . S
H581 C591 0.930 . S
C582 H576 0.930 . S
C582 C583 1.355 . S
C582 C584 1.415 . S
C583 C582 1.355 . S
C583 C585 1.419 . S
C584 C582 1.415 . S
C584 C589 1.425 . S
C584 C591 1.409 . S
C585 H577 0.930 . S
C585 C583 1.419 . S
C585 C586 1.362 . S
C586 H578 0.930 . S
C586 C585 1.362 . S
C586 C589 1.409 . S
C587 H579 0.930 . S
C587 C588 1.355 . S
C587 C589 1.415 . S
C588 C587 1.355 . S
C588 C590 1.419 . S
C589 C584 1.425 . S
C589 C586 1.409 . S
C589 C587 1.415 . S
C590 H580 0.930 . S
C590 C588 1.419 . S
C590 C591 1.362 . S
C591 H581 0.930 . S
C591 C584 1.409 . S
C591 C590 1.362 . S
H592 C598 0.930 . S
H593 C601 0.930 . S
H594 C602 0.930 . S
H595 C603 0.930 . S
H596 C606 0.930 . S
H597 C607 0.930 . S
C598 H592 0.930 . S
C598 C599 1.355 . S
C598 C600 1.415 1_556 S
C599 C598 1.355 . S
C599 C601 1.419 . S
C600 C598 1.415 1_554 S
C600 C605 1.425 . S
C600 C607 1.409 . S
C601 H593 0.930 . S
C601 C599 1.419 . S
C601 C602 1.362 1_556 S
C602 H594 0.930 . S
C602 C601 1.362 1_554 S
C602 C605 1.409 . S
C603 H595 0.930 . S
C603 C604 1.355 . S
C603 C605 1.415 . S
C604 C603 1.355 . S
C604 C606 1.419 . S
C605 C600 1.425 . S
C605 C602 1.409 . S
C605 C603 1.415 . S
C606 H596 0.930 . S
C606 C604 1.419 . S
C606 C607 1.362 . S
C607 H597 0.930 . S
C607 C600 1.409 . S
C607 C606 1.362 . S
H608 C614 0.930 . S
H609 C617 0.930 . S
H610 C618 0.930 . S
H611 C619 0.930 . S
H612 C622 0.930 . S
H613 C623 0.930 . S
C614 H608 0.930 . S
C614 C615 1.355 . S
C614 C616 1.415 . S
C615 C614 1.355 . S
C615 C617 1.419 . S
C616 C614 1.415 . S
C616 C621 1.425 . S
C616 C623 1.409 . S
C617 H609 0.930 . S
C617 C615 1.419 . S
C617 C618 1.362 . S
C618 H610 0.930 . S
C618 C617 1.362 . S
C618 C621 1.409 . S
C619 H611 0.930 . S
C619 C620 1.355 . S
C619 C621 1.415 . S
C620 C619 1.355 . S
C620 C622 1.419 . S
C621 C616 1.425 . S
C621 C618 1.409 . S
C621 C619 1.415 . S
C622 H612 0.930 . S
C622 C620 1.419 . S
C622 C623 1.362 . S
C623 H613 0.930 . S
C623 C616 1.409 . S
C623 C622 1.362 . S
H624 C630 0.930 . S
H625 C633 0.930 . S
H626 C634 0.930 . S
H627 C635 0.930 . S
H628 C638 0.930 . S
H629 C639 0.930 . S
C630 H624 0.930 . S
C630 C631 1.355 . S
C630 C632 1.415 . S
C631 C630 1.355 . S
C631 C633 1.419 . S
C632 C630 1.415 . S
C632 C637 1.425 . S
C632 C639 1.409 . S
C633 H625 0.930 . S
C633 C631 1.419 . S
C633 C634 1.362 . S
C634 H626 0.930 . S
C634 C633 1.362 . S
C634 C637 1.409 . S
C635 H627 0.930 . S
C635 C636 1.355 . S
C635 C637 1.415 . S
C636 C635 1.355 . S
C636 C638 1.419 . S
C637 C632 1.425 . S
C637 C634 1.409 . S
C637 C635 1.415 . S
C638 H628 0.930 . S
C638 C636 1.419 . S
C638 C639 1.362 . S
C639 H629 0.930 . S
C639 C632 1.409 . S
C639 C638 1.362 . S
H640 C646 0.930 . S
H641 C649 0.930 . S
H642 C650 0.930 . S
H643 C651 0.930 . S
H644 C654 0.930 . S
H645 C655 0.930 . S
C646 H640 0.930 . S
C646 C647 1.355 . S
C646 C648 1.415 . S
C647 C646 1.355 . S
C647 C649 1.419 . S
C648 C646 1.415 . S
C648 C653 1.425 . S
C648 C655 1.409 . S
C649 H641 0.930 . S
C649 C647 1.419 . S
C649 C650 1.362 . S
C650 H642 0.930 . S
C650 C649 1.362 . S
C650 C653 1.409 . S
C651 H643 0.930 . S
C651 C652 1.355 . S
C651 C653 1.415 . S
C652 C651 1.355 . S
C652 C654 1.419 . S
C653 C648 1.425 . S
C653 C650 1.409 . S
C653 C651 1.415 . S
C654 H644 0.930 . S
C654 C652 1.419 . S
C654 C655 1.362 . S
C655 H645 0.930 . S
C655 C648 1.409 . S
C655 C654 1.362 . S
H656 C662 0.930 . S
H657 C665 0.930 . S
H658 C666 0.930 . S
H659 C667 0.930 . S
H660 C670 0.930 . S
H661 C671 0.930 . S
C662 H656 0.930 . S
C662 C663 1.355 . S
C662 C664 1.415 . S
C663 C662 1.355 . S
C663 C665 1.419 . S
C664 C662 1.415 . S
C664 C669 1.425 . S
C664 C671 1.409 . S
C665 H657 0.930 . S
C665 C663 1.419 . S
C665 C666 1.362 . S
C666 H658 0.930 . S
C666 C665 1.362 . S
C666 C669 1.409 . S
C667 H659 0.930 . S
C667 C668 1.355 . S
C667 C669 1.415 . S
C668 C667 1.355 . S
C668 C670 1.419 . S
C669 C664 1.425 . S
C669 C666 1.409 . S
C669 C667 1.415 . S
C670 H660 0.930 . S
C670 C668 1.419 . S
C670 C671 1.362 . S
C671 H661 0.930 . S
C671 C664 1.409 . S
C671 C670 1.362 . S
H672 C678 0.930 . S
H673 C681 0.930 . S
H674 C682 0.930 . S
H675 C683 0.930 . S
H676 C686 0.930 . S
H677 C687 0.930 . S
C678 H672 0.930 . S
C678 C679 1.355 . S
C678 C680 1.415 . S
C679 C678 1.355 . S
C679 C681 1.419 . S
C680 C678 1.415 . S
C680 C685 1.425 . S
C680 C687 1.409 . S
C681 H673 0.930 . S
C681 C679 1.419 . S
C681 C682 1.362 . S
C682 H674 0.930 . S
C682 C681 1.362 . S
C682 C685 1.409 . S
C683 H675 0.930 . S
C683 C684 1.355 . S
C683 C685 1.415 . S
C684 C683 1.355 . S
C684 C686 1.419 . S
C685 C680 1.425 . S
C685 C682 1.409 . S
C685 C683 1.415 . S
C686 H676 0.930 . S
C686 C684 1.419 . S
C686 C687 1.362 . S
C687 H677 0.930 . S
C687 C680 1.409 . S
C687 C686 1.362 . S
H688 C694 0.930 . S
H689 C697 0.930 . S
H690 C698 0.930 . S
H691 C699 0.930 . S
H692 C702 0.930 . S
H693 C703 0.930 . S
C694 H688 0.930 . S
C694 C695 1.355 . S
C694 C696 1.415 . S
C695 C694 1.355 . S
C695 C697 1.419 . S
C696 C694 1.415 . S
C696 C701 1.425 . S
C696 C703 1.409 . S
C697 H689 0.930 . S
C697 C695 1.419 . S
C697 C698 1.362 . S
C698 H690 0.930 . S
C698 C697 1.362 . S
C698 C701 1.409 . S
C699 H691 0.930 . S
C699 C700 1.355 . S
C699 C701 1.415 . S
C700 C699 1.355 . S
C700 C702 1.419 . S
C701 C696 1.425 . S
C701 C698 1.409 . S
C701 C699 1.415 . S
C702 H692 0.930 . S
C702 C700 1.419 . S
C702 C703 1.362 . S
C703 H693 0.930 . S
C703 C696 1.409 . S
C703 C702 1.362 . S
H704 C710 0.930 . S
H705 C713 0.930 . S
H706 C714 0.930 . S
H707 C715 0.930 . S
H708 C718 0.930 . S
H709 C719 0.930 . S
C710 H704 0.930 . S
C710 C711 1.355 . S
C710 C712 1.415 . S
C711 C710 1.355 . S
C711 C713 1.419 . S
C712 C710 1.415 . S
C712 C717 1.425 . S
C712 C719 1.409 . S
C713 H705 0.930 . S
C713 C711 1.419 . S
C713 C714 1.362 . S
C714 H706 0.930 . S
C714 C713 1.362 . S
C714 C717 1.409 . S
C715 H707 0.930 . S
C715 C716 1.355 . S
C715 C717 1.415 1_556 S
C716 C715 1.355 . S
C716 C718 1.419 . S
C717 C712 1.425 . S
C717 C714 1.409 . S
C717 C715 1.415 1_554 S
C718 H708 0.930 . S
C718 C716 1.419 . S
C718 C719 1.362 1_556 S
C719 H709 0.930 . S
C719 C712 1.409 . S
C719 C718 1.362 1_554 S
C215 C83 2.019 . S
C220 C5 2.019 . S
C231 C96 2.053 . S
C236 C18 2.051 . S
C247 C31 2.045 . S
C252 C57 2.058 1_556 S
C263 C44 2.067 . S
C268 C70 2.014 . S
C279 C109 2.012 . S
C284 C187 2.028 1_556 S
C295 C200 2.066 . S
C300 C122 2.030 . S
C311 C135 2.064 . S
C316 C161 2.036 . S
C327 C148 2.063 . S
C332 C174 2.009 . S
C343 C10 1.935 . S
C348 C140 1.953 . S
C359 C23 1.958 . S
C364 C153 1.974 . S
C375 C36 1.954 . S
C380 C114 1.937 . S
C391 C49 1.914 . S
C396 C127 1.914 . S
C407 C62 1.960 . S
C412 C192 1.976 . S
C423 C205 1.988 . S
C428 C75 1.981 . S
C439 C88 1.989 . S
C444 C166 1.985 . S
C455 C179 1.953 . S
C460 C101 1.969 . S
C471 C170 0.592 . S
C476 C1 0.570 . S
C487 C14 0.594 . S
C492 C183 0.593 . S
C503 C196 0.573 . S
C508 C27 0.575 . S
C519 C157 0.587 . S
C524 C40 0.569 . S
C535 C144 0.572 . S
C540 C53 0.595 . S
C551 C66 0.587 . S
C556 C105 0.597 . S
C567 C79 0.569 . S
C572 C118 0.584 . S
C583 C92 0.589 . S
C588 C131 0.569 . S
C599 C172 1.826 . S
C604 C3 1.826 . S
C615 C16 1.827 . S
C620 C185 1.825 . S
C631 C29 1.816 . S
C636 C198 1.810 . S
C647 C159 1.827 . S
C652 C42 1.826 . S
C663 C146 1.821 . S
C668 C55 1.829 . S
C679 C107 1.829 . S
C684 C68 1.817 . S
C695 C81 1.813 . S
C700 C120 1.812 . S
C711 C133 1.821 . S
C716 C94 1.829 . S
