# Generated by pormake.
# Topology unx, (4)-cn, num edge types: 1
# Building blocks:
#     Node 0, Type 0, BuildingBlock: CEKHIL_clean_sbu_0, # of connection points: 4
#     Node 1, Type 0, BuildingBlock: CEKHIL_clean_sbu_0, # of connection points: 4
#     Node 2, Type 0, BuildingBlock: CEKHIL_clean_sbu_0, # of connection points: 4
#     Node 3, Type 0, BuildingBlock: CEKHIL_clean_sbu_0, # of connection points: 4
#     Node 4, Type 0, BuildingBlock: CEKHIL_clean_sbu_0, # of connection points: 4
#     Node 5, Type 0, BuildingBlock: CEKHIL_clean_sbu_0, # of connection points: 4
#     Node 6, Type 0, BuildingBlock: CEKHIL_clean_sbu_0, # of connection points: 4
#     Node 7, Type 0, BuildingBlock: CEKHIL_clean_sbu_0, # of connection points: 4
#     Node 8, Type 0, BuildingBlock: CEKHIL_clean_sbu_0, # of connection points: 4
#     Node 9, Type 0, BuildingBlock: CEKHIL_clean_sbu_0, # of connection points: 4
#     Node 10, Type 0, BuildingBlock: CEKHIL_clean_sbu_0, # of connection points: 4
#     Node 11, Type 0, BuildingBlock: CEKHIL_clean_sbu_0, # of connection points: 4
#     Node 12, Type 0, BuildingBlock: CEKHIL_clean_sbu_0, # of connection points: 4
#     Node 13, Type 0, BuildingBlock: CEKHIL_clean_sbu_0, # of connection points: 4
#     Node 14, Type 0, BuildingBlock: CEKHIL_clean_sbu_0, # of connection points: 4
#     Node 15, Type 0, BuildingBlock: CEKHIL_clean_sbu_0, # of connection points: 4
#     Node 16, Type 0, BuildingBlock: CEKHIL_clean_sbu_0, # of connection points: 4
#     Node 17, Type 0, BuildingBlock: CEKHIL_clean_sbu_0, # of connection points: 4
#     Node 18, Type 0, BuildingBlock: CEKHIL_clean_sbu_0, # of connection points: 4
#     Node 19, Type 0, BuildingBlock: CEKHIL_clean_sbu_0, # of connection points: 4
#     Node 20, Type 0, BuildingBlock: CEKHIL_clean_sbu_0, # of connection points: 4
#     Node 21, Type 0, BuildingBlock: CEKHIL_clean_sbu_0, # of connection points: 4
#     Node 22, Type 0, BuildingBlock: CEKHIL_clean_sbu_0, # of connection points: 4
#     Node 23, Type 0, BuildingBlock: CEKHIL_clean_sbu_0, # of connection points: 4
#     Node 24, Type 0, BuildingBlock: CEKHIL_clean_sbu_0, # of connection points: 4
#     Node 25, Type 0, BuildingBlock: CEKHIL_clean_sbu_0, # of connection points: 4
#     Node 26, Type 0, BuildingBlock: CEKHIL_clean_sbu_0, # of connection points: 4
#     Node 27, Type 0, BuildingBlock: CEKHIL_clean_sbu_0, # of connection points: 4
#     Node 28, Type 0, BuildingBlock: CEKHIL_clean_sbu_0, # of connection points: 4
#     Node 29, Type 0, BuildingBlock: CEKHIL_clean_sbu_0, # of connection points: 4
#     Node 30, Type 0, BuildingBlock: CEKHIL_clean_sbu_0, # of connection points: 4
#     Node 31, Type 0, BuildingBlock: CEKHIL_clean_sbu_0, # of connection points: 4
#     Node 32, Type 0, BuildingBlock: CEKHIL_clean_sbu_0, # of connection points: 4
#     Node 33, Type 0, BuildingBlock: CEKHIL_clean_sbu_0, # of connection points: 4
#     Node 34, Type 0, BuildingBlock: CEKHIL_clean_sbu_0, # of connection points: 4
#     Node 35, Type 0, BuildingBlock: CEKHIL_clean_sbu_0, # of connection points: 4
#     Node 36, Type 0, BuildingBlock: CEKHIL_clean_sbu_0, # of connection points: 4
#     Node 37, Type 0, BuildingBlock: CEKHIL_clean_sbu_0, # of connection points: 4
#     Node 38, Type 0, BuildingBlock: CEKHIL_clean_sbu_0, # of connection points: 4
#     Node 39, Type 0, BuildingBlock: CEKHIL_clean_sbu_0, # of connection points: 4
#     Node 40, Type 0, BuildingBlock: CEKHIL_clean_sbu_0, # of connection points: 4
#     Node 41, Type 0, BuildingBlock: CEKHIL_clean_sbu_0, # of connection points: 4
#     Node 42, Type 0, BuildingBlock: CEKHIL_clean_sbu_0, # of connection points: 4
#     Node 43, Type 0, BuildingBlock: CEKHIL_clean_sbu_0, # of connection points: 4
#     Node 44, Type 0, BuildingBlock: CEKHIL_clean_sbu_0, # of connection points: 4
#     Node 45, Type 0, BuildingBlock: CEKHIL_clean_sbu_0, # of connection points: 4
#     Node 46, Type 0, BuildingBlock: CEKHIL_clean_sbu_0, # of connection points: 4
#     Node 47, Type 0, BuildingBlock: CEKHIL_clean_sbu_0, # of connection points: 4
#     Edge 48, Type (0, 0), BuildingBlock: CIFDUS_clean_linker_0, # of connection points: 2
#     Edge 49, Type (0, 0), BuildingBlock: CIFDUS_clean_linker_0, # of connection points: 2
#     Edge 50, Type (0, 0), BuildingBlock: CIFDUS_clean_linker_0, # of connection points: 2
#     Edge 51, Type (0, 0), BuildingBlock: CIFDUS_clean_linker_0, # of connection points: 2
#     Edge 52, Type (0, 0), BuildingBlock: CIFDUS_clean_linker_0, # of connection points: 2
#     Edge 53, Type (0, 0), BuildingBlock: CIFDUS_clean_linker_0, # of connection points: 2
#     Edge 54, Type (0, 0), BuildingBlock: CIFDUS_clean_linker_0, # of connection points: 2
#     Edge 55, Type (0, 0), BuildingBlock: CIFDUS_clean_linker_0, # of connection points: 2
#     Edge 56, Type (0, 0), BuildingBlock: CIFDUS_clean_linker_0, # of connection points: 2
#     Edge 57, Type (0, 0), BuildingBlock: CIFDUS_clean_linker_0, # of connection points: 2
#     Edge 58, Type (0, 0), BuildingBlock: CIFDUS_clean_linker_0, # of connection points: 2
#     Edge 59, Type (0, 0), BuildingBlock: CIFDUS_clean_linker_0, # of connection points: 2
#     Edge 60, Type (0, 0), BuildingBlock: CIFDUS_clean_linker_0, # of connection points: 2
#     Edge 61, Type (0, 0), BuildingBlock: CIFDUS_clean_linker_0, # of connection points: 2
#     Edge 62, Type (0, 0), BuildingBlock: CIFDUS_clean_linker_0, # of connection points: 2
#     Edge 63, Type (0, 0), BuildingBlock: CIFDUS_clean_linker_0, # of connection points: 2
#     Edge 64, Type (0, 0), BuildingBlock: CIFDUS_clean_linker_0, # of connection points: 2
#     Edge 65, Type (0, 0), BuildingBlock: CIFDUS_clean_linker_0, # of connection points: 2
#     Edge 66, Type (0, 0), BuildingBlock: CIFDUS_clean_linker_0, # of connection points: 2
#     Edge 67, Type (0, 0), BuildingBlock: CIFDUS_clean_linker_0, # of connection points: 2
#     Edge 68, Type (0, 0), BuildingBlock: CIFDUS_clean_linker_0, # of connection points: 2
#     Edge 69, Type (0, 0), BuildingBlock: CIFDUS_clean_linker_0, # of connection points: 2
#     Edge 70, Type (0, 0), BuildingBlock: CIFDUS_clean_linker_0, # of connection points: 2
#     Edge 71, Type (0, 0), BuildingBlock: CIFDUS_clean_linker_0, # of connection points: 2
#     Edge 72, Type (0, 0), BuildingBlock: CIFDUS_clean_linker_0, # of connection points: 2
#     Edge 73, Type (0, 0), BuildingBlock: CIFDUS_clean_linker_0, # of connection points: 2
#     Edge 74, Type (0, 0), BuildingBlock: CIFDUS_clean_linker_0, # of connection points: 2
#     Edge 75, Type (0, 0), BuildingBlock: CIFDUS_clean_linker_0, # of connection points: 2
#     Edge 76, Type (0, 0), BuildingBlock: CIFDUS_clean_linker_0, # of connection points: 2
#     Edge 77, Type (0, 0), BuildingBlock: CIFDUS_clean_linker_0, # of connection points: 2
#     Edge 78, Type (0, 0), BuildingBlock: CIFDUS_clean_linker_0, # of connection points: 2
#     Edge 79, Type (0, 0), BuildingBlock: CIFDUS_clean_linker_0, # of connection points: 2
#     Edge 80, Type (0, 0), BuildingBlock: CIFDUS_clean_linker_0, # of connection points: 2
#     Edge 81, Type (0, 0), BuildingBlock: CIFDUS_clean_linker_0, # of connection points: 2
#     Edge 82, Type (0, 0), BuildingBlock: CIFDUS_clean_linker_0, # of connection points: 2
#     Edge 83, Type (0, 0), BuildingBlock: CIFDUS_clean_linker_0, # of connection points: 2
#     Edge 84, Type (0, 0), BuildingBlock: CIFDUS_clean_linker_0, # of connection points: 2
#     Edge 85, Type (0, 0), BuildingBlock: CIFDUS_clean_linker_0, # of connection points: 2
#     Edge 86, Type (0, 0), BuildingBlock: CIFDUS_clean_linker_0, # of connection points: 2
#     Edge 87, Type (0, 0), BuildingBlock: CIFDUS_clean_linker_0, # of connection points: 2
#     Edge 88, Type (0, 0), BuildingBlock: CIFDUS_clean_linker_0, # of connection points: 2
#     Edge 89, Type (0, 0), BuildingBlock: CIFDUS_clean_linker_0, # of connection points: 2
#     Edge 90, Type (0, 0), BuildingBlock: CIFDUS_clean_linker_0, # of connection points: 2
#     Edge 91, Type (0, 0), BuildingBlock: CIFDUS_clean_linker_0, # of connection points: 2
#     Edge 92, Type (0, 0), BuildingBlock: CIFDUS_clean_linker_0, # of connection points: 2
#     Edge 93, Type (0, 0), BuildingBlock: CIFDUS_clean_linker_0, # of connection points: 2
#     Edge 94, Type (0, 0), BuildingBlock: CIFDUS_clean_linker_0, # of connection points: 2
#     Edge 95, Type (0, 0), BuildingBlock: CIFDUS_clean_linker_0, # of connection points: 2
#     Edge 96, Type (0, 0), BuildingBlock: CIFDUS_clean_linker_0, # of connection points: 2
#     Edge 97, Type (0, 0), BuildingBlock: CIFDUS_clean_linker_0, # of connection points: 2
#     Edge 98, Type (0, 0), BuildingBlock: CIFDUS_clean_linker_0, # of connection points: 2
#     Edge 99, Type (0, 0), BuildingBlock: CIFDUS_clean_linker_0, # of connection points: 2
#     Edge 100, Type (0, 0), BuildingBlock: CIFDUS_clean_linker_0, # of connection points: 2
#     Edge 101, Type (0, 0), BuildingBlock: CIFDUS_clean_linker_0, # of connection points: 2
#     Edge 102, Type (0, 0), BuildingBlock: CIFDUS_clean_linker_0, # of connection points: 2
#     Edge 103, Type (0, 0), BuildingBlock: CIFDUS_clean_linker_0, # of connection points: 2
#     Edge 104, Type (0, 0), BuildingBlock: CIFDUS_clean_linker_0, # of connection points: 2
#     Edge 105, Type (0, 0), BuildingBlock: CIFDUS_clean_linker_0, # of connection points: 2
#     Edge 106, Type (0, 0), BuildingBlock: CIFDUS_clean_linker_0, # of connection points: 2
#     Edge 107, Type (0, 0), BuildingBlock: CIFDUS_clean_linker_0, # of connection points: 2
#     Edge 108, Type (0, 0), BuildingBlock: CIFDUS_clean_linker_0, # of connection points: 2
#     Edge 109, Type (0, 0), BuildingBlock: CIFDUS_clean_linker_0, # of connection points: 2
#     Edge 110, Type (0, 0), BuildingBlock: CIFDUS_clean_linker_0, # of connection points: 2
#     Edge 111, Type (0, 0), BuildingBlock: CIFDUS_clean_linker_0, # of connection points: 2
#     Edge 112, Type (0, 0), BuildingBlock: CIFDUS_clean_linker_0, # of connection points: 2
#     Edge 113, Type (0, 0), BuildingBlock: CIFDUS_clean_linker_0, # of connection points: 2
#     Edge 114, Type (0, 0), BuildingBlock: CIFDUS_clean_linker_0, # of connection points: 2
#     Edge 115, Type (0, 0), BuildingBlock: CIFDUS_clean_linker_0, # of connection points: 2
#     Edge 116, Type (0, 0), BuildingBlock: CIFDUS_clean_linker_0, # of connection points: 2
#     Edge 117, Type (0, 0), BuildingBlock: CIFDUS_clean_linker_0, # of connection points: 2
#     Edge 118, Type (0, 0), BuildingBlock: CIFDUS_clean_linker_0, # of connection points: 2
#     Edge 119, Type (0, 0), BuildingBlock: CIFDUS_clean_linker_0, # of connection points: 2
#     Edge 120, Type (0, 0), BuildingBlock: CIFDUS_clean_linker_0, # of connection points: 2
#     Edge 121, Type (0, 0), BuildingBlock: CIFDUS_clean_linker_0, # of connection points: 2
#     Edge 122, Type (0, 0), BuildingBlock: CIFDUS_clean_linker_0, # of connection points: 2
#     Edge 123, Type (0, 0), BuildingBlock: CIFDUS_clean_linker_0, # of connection points: 2
#     Edge 124, Type (0, 0), BuildingBlock: CIFDUS_clean_linker_0, # of connection points: 2
#     Edge 125, Type (0, 0), BuildingBlock: CIFDUS_clean_linker_0, # of connection points: 2
#     Edge 126, Type (0, 0), BuildingBlock: CIFDUS_clean_linker_0, # of connection points: 2
#     Edge 127, Type (0, 0), BuildingBlock: CIFDUS_clean_linker_0, # of connection points: 2
#     Edge 128, Type (0, 0), BuildingBlock: CIFDUS_clean_linker_0, # of connection points: 2
#     Edge 129, Type (0, 0), BuildingBlock: CIFDUS_clean_linker_0, # of connection points: 2
#     Edge 130, Type (0, 0), BuildingBlock: CIFDUS_clean_linker_0, # of connection points: 2
#     Edge 131, Type (0, 0), BuildingBlock: CIFDUS_clean_linker_0, # of connection points: 2
#     Edge 132, Type (0, 0), BuildingBlock: CIFDUS_clean_linker_0, # of connection points: 2
#     Edge 133, Type (0, 0), BuildingBlock: CIFDUS_clean_linker_0, # of connection points: 2
#     Edge 134, Type (0, 0), BuildingBlock: CIFDUS_clean_linker_0, # of connection points: 2
#     Edge 135, Type (0, 0), BuildingBlock: CIFDUS_clean_linker_0, # of connection points: 2
#     Edge 136, Type (0, 0), BuildingBlock: CIFDUS_clean_linker_0, # of connection points: 2
#     Edge 137, Type (0, 0), BuildingBlock: CIFDUS_clean_linker_0, # of connection points: 2
#     Edge 138, Type (0, 0), BuildingBlock: CIFDUS_clean_linker_0, # of connection points: 2
#     Edge 139, Type (0, 0), BuildingBlock: CIFDUS_clean_linker_0, # of connection points: 2
#     Edge 140, Type (0, 0), BuildingBlock: CIFDUS_clean_linker_0, # of connection points: 2
#     Edge 141, Type (0, 0), BuildingBlock: CIFDUS_clean_linker_0, # of connection points: 2
#     Edge 142, Type (0, 0), BuildingBlock: CIFDUS_clean_linker_0, # of connection points: 2
#     Edge 143, Type (0, 0), BuildingBlock: CIFDUS_clean_linker_0, # of connection points: 2
# Relax obj value: 0.549
# Max RMSD: 0.350
# Mean RMSD: 0.245
data_MOF--net-unx--node1-CEKHIL_clean_sbu_0--edge1-CIFDUS_clean_linker_0
_symmetry_space_group_name_H-M    P1
_symmetry_Int_Tables_number       1
_symmetry_cell_setting            triclinic
loop_
_symmetry_equiv_pos_as_xyz
'x, y, z'
_cell_length_a     46.196275
_cell_length_b     44.713022
_cell_length_c     46.621882
_cell_angle_alpha  89.993773
_cell_angle_beta   90.024851
_cell_angle_gamma 91.216746
loop_
_atom_site_label
_atom_site_type_symbol
_atom_site_fract_x
_atom_site_fract_y
_atom_site_fract_z
_atom_type_partial_charge
Co0 Co 0.12264 0.49103 0.2908 0.0
O1 O 0.15362 0.4827 0.31728 0.0
O2 O 0.1527 0.52107 0.28717 0.0
C3 C 0.08396 0.48437 0.31912 0.0
O4 O 0.09497 0.50797 0.26155 0.0
Co5 Co 0.07918 0.44209 0.27063 0.0
O6 O 0.05824 0.47556 0.25249 0.0
C7 C 0.13717 0.44359 0.24549 0.0
C8 C 0.16674 0.50613 0.30637 0.0
C9 C 0.0704 0.50125 0.24998 0.0
O10 O 0.14253 0.46713 0.26046 0.0
O11 O 0.11313 0.42892 0.24692 0.0
O12 O 0.09957 0.50888 0.32066 0.0
O13 O 0.09503 0.46286 0.30427 0.0
Co14 Co 0.68361 0.20607 0.49937 0.0
O15 O 0.71757 0.22876 0.51192 0.0
O16 O 0.67234 0.23757 0.52458 0.0
C17 C 0.69983 0.15924 0.50463 0.0
O18 O 0.64321 0.18941 0.49165 0.0
Co19 Co 0.68328 0.16739 0.44429 0.0
O20 O 0.64128 0.16079 0.45215 0.0
C21 C 0.68519 0.23278 0.43926 0.0
C22 C 0.69939 0.24603 0.52498 0.0
C23 C 0.62906 0.17332 0.47336 0.0
O24 O 0.67998 0.23436 0.46623 0.0
O25 O 0.68999 0.20803 0.42647 0.0
O26 O 0.69047 0.17379 0.52683 0.0
O27 O 0.70216 0.17438 0.48112 0.0
Co28 Co 0.88014 0.95693 0.62193 0.0
O29 O 0.84523 0.97944 0.6197 0.0
O30 O 0.85445 0.94488 0.65245 0.0
C31 C 0.9134 0.99365 0.61563 0.0
O32 O 0.91408 0.92999 0.63113 0.0
Co33 Co 0.91759 0.95233 0.56691 0.0
O34 O 0.94571 0.93561 0.59457 0.0
C35 C 0.86483 0.91567 0.57136 0.0
C36 C 0.83637 0.96374 0.64155 0.0
C37 C 0.93899 0.92601 0.61952 0.0
O38 O 0.86214 0.9246 0.59734 0.0
O39 O 0.88417 0.92616 0.55426 0.0
O40 O 0.90103 0.98992 0.64048 0.0
O41 O 0.90109 0.97923 0.59473 0.0
Co42 Co 0.24187 0.97131 0.9276 0.0
O43 O 0.23288 0.92944 0.93455 0.0
O44 O 0.27703 0.94862 0.9288 0.0
C45 C 0.21438 0.99406 0.96066 0.0
O46 O 0.25954 0.01288 0.92114 0.0
Co47 Co 0.19415 0.01252 0.90407 0.0
O48 O 0.22378 0.04463 0.91081 0.0
C49 C 0.22325 0.9728 0.86423 0.0
C50 C 0.26057 0.92505 0.93292 0.0
C51 C 0.25021 0.03943 0.9165 0.0
O52 O 0.23993 0.96475 0.88479 0.0
O53 O 0.20152 0.98958 0.86808 0.0
O54 O 0.23833 0.98143 0.96817 0.0
O55 O 0.20504 0.98657 0.93542 0.0
Co56 Co 0.12371 0.45725 0.86249 0.0
O57 O 0.09605 0.48922 0.86328 0.0
O58 O 0.09307 0.4477 0.88915 0.0
C59 C 0.16527 0.48391 0.86335 0.0
O60 O 0.14739 0.42 0.86875 0.0
Co61 Co 0.16381 0.44701 0.81066 0.0
O62 O 0.18082 0.41469 0.83423 0.0
C63 C 0.10298 0.43019 0.80535 0.0
C64 C 0.08119 0.47236 0.88095 0.0
C65 C 0.16903 0.40648 0.85772 0.0
O66 O 0.10022 0.43706 0.83186 0.0
O67 O 0.12672 0.43324 0.79151 0.0
O68 O 0.15092 0.47903 0.887 0.0
O69 O 0.15227 0.47609 0.83981 0.0
Co70 Co 0.73892 0.54059 0.05856 0.0
O71 O 0.71945 0.57821 0.05452 0.0
O72 O 0.766 0.57134 0.04587 0.0
C73 C 0.70657 0.50969 0.03642 0.0
O74 O 0.76584 0.50494 0.0593 0.0
Co75 Co 0.71062 0.4918 0.09744 0.0
O76 O 0.74186 0.4671 0.08142 0.0
C77 C 0.74431 0.54007 0.12465 0.0
C78 C 0.74441 0.58954 0.04699 0.0
C79 C 0.76355 0.47739 0.06739 0.0
O80 O 0.75013 0.55045 0.09952 0.0
O81 O 0.72688 0.51787 0.12876 0.0
O82 O 0.72409 0.52667 0.02151 0.0
O83 O 0.70564 0.51616 0.0635 0.0
Co84 Co 0.87819 0.02255 0.19767 0.0
O85 O 0.90789 0.03125 0.16998 0.0
O86 O 0.90666 0.99177 0.19898 0.0
C87 C 0.83911 0.03125 0.17049 0.0
O88 O 0.85077 0.00643 0.22844 0.0
Co89 Co 0.83788 0.07372 0.21709 0.0
O90 O 0.81527 0.03971 0.23412 0.0
C91 C 0.89855 0.07344 0.23593 0.0
C92 C 0.92024 0.00736 0.1794 0.0
C93 C 0.82608 0.01409 0.23856 0.0
O94 O 0.90076 0.04632 0.22725 0.0
O95 O 0.87639 0.08937 0.23105 0.0
O96 O 0.85202 0.00574 0.16848 0.0
O97 O 0.85277 0.05146 0.18517 0.0
Co98 Co 0.17832 0.28626 0.50551 0.0
O99 O 0.21334 0.27289 0.48721 0.0
O100 O 0.1688 0.26021 0.47379 0.0
C101 C 0.18935 0.33532 0.51238 0.0
O102 O 0.1373 0.29439 0.51904 0.0
Co103 Co 0.1813 0.30643 0.56914 0.0
O104 O 0.13918 0.31317 0.5638 0.0
C105 C 0.18582 0.24309 0.55586 0.0
C106 C 0.19646 0.25573 0.47165 0.0
C107 C 0.12501 0.30487 0.54159 0.0
O108 O 0.17897 0.24967 0.53008 0.0
O109 O 0.19046 0.26298 0.57515 0.0
O110 O 0.18059 0.326 0.48728 0.0
O111 O 0.19515 0.31438 0.53046 0.0
Co112 Co 0.24187 0.03556 0.4343 0.0
O113 O 0.2547 0.07669 0.44096 0.0
O114 O 0.20904 0.06102 0.43969 0.0
C115 C 0.27166 0.01005 0.46388 0.0
O116 O 0.22028 0.99578 0.42888 0.0
Co117 Co 0.28338 0.99113 0.40497 0.0
O118 O 0.2513 0.96178 0.41211 0.0
C119 C 0.25351 0.03424 0.36923 0.0
C120 C 0.22743 0.08327 0.44229 0.0
C121 C 0.22634 0.96896 0.42114 0.0
O122 O 0.23944 0.04293 0.39146 0.0
O123 O 0.27449 0.01613 0.37077 0.0
O124 O 0.24956 0.02403 0.47423 0.0
O125 O 0.27793 0.01703 0.43765 0.0
Co126 Co 0.37226 0.52812 0.80662 0.0
O127 O 0.34545 0.54873 0.83108 0.0
O128 O 0.33901 0.50269 0.81401 0.0
C129 C 0.41431 0.53746 0.82941 0.0
O130 O 0.39454 0.49939 0.78171 0.0
Co131 Co 0.41864 0.56324 0.77169 0.0
O132 O 0.43351 0.5229 0.7627 0.0
C133 C 0.35836 0.56356 0.75196 0.0
C134 C 0.32897 0.5249 0.82863 0.0
C135 C 0.41843 0.49922 0.76755 0.0
O136 O 0.35203 0.54477 0.77196 0.0
O137 O 0.38366 0.57544 0.74911 0.0
O138 O 0.39656 0.51667 0.83871 0.0
O139 O 0.40391 0.55503 0.81005 0.0
Co140 Co 0.8128 0.79109 0.98042 0.0
O141 O 0.77892 0.77294 0.99881 0.0
O142 O 0.82455 0.76165 0.00746 0.0
C143 C 0.80182 0.84006 0.98234 0.0
O144 O 0.85323 0.80264 0.96718 0.0
Co145 Co 0.81012 0.82325 0.92178 0.0
O146 O 0.85323 0.82297 0.92322 0.0
C147 C 0.80309 0.75817 0.92353 0.0
C148 C 0.79731 0.75577 0.0118 0.0
C149 C 0.86655 0.81292 0.94499 0.0
O150 O 0.81041 0.75913 0.9501 0.0
O151 O 0.79894 0.78173 0.90863 0.0
O152 O 0.81188 0.82669 0.00493 0.0
O153 O 0.79527 0.82277 0.96095 0.0
Co154 Co 0.62447 0.03788 0.14635 0.0
O155 O 0.65571 0.01169 0.13809 0.0
O156 O 0.65327 0.04144 0.17616 0.0
C157 C 0.5867 0.00714 0.13684 0.0
O158 O 0.59462 0.06692 0.16173 0.0
Co159 Co 0.58598 0.05587 0.09457 0.0
O160 O 0.56233 0.07293 0.12585 0.0
C161 C 0.64291 0.08409 0.10102 0.0
C162 C 0.66786 0.02242 0.16106 0.0
C163 C 0.57064 0.07677 0.15171 0.0
O164 O 0.64507 0.07164 0.12569 0.0
O165 O 0.62227 0.07813 0.08352 0.0
O166 O 0.60045 0.00492 0.16111 0.0
O167 O 0.5998 0.0233 0.11771 0.0
Co168 Co 0.42282 0.24542 0.13645 0.0
O169 O 0.39448 0.234 0.16492 0.0
O170 O 0.42534 0.2725 0.16861 0.0
C171 C 0.39466 0.24155 0.09685 0.0
O172 O 0.45488 0.26378 0.1117 0.0
Co173 Co 0.44048 0.1994 0.08972 0.0
O174 O 0.46277 0.23406 0.07365 0.0
C175 C 0.45998 0.192 0.14919 0.0
C176 C 0.40505 0.25592 0.18024 0.0
C177 C 0.46757 0.25812 0.08777 0.0
O178 O 0.45198 0.21861 0.15532 0.0
O179 O 0.45401 0.179 0.1254 0.0
O180 O 0.39375 0.26554 0.11262 0.0
O181 O 0.40916 0.22005 0.10768 0.0
Co182 Co 0.09349 0.77626 0.3631 0.0
O183 O 0.07623 0.74324 0.34269 0.0
O184 O 0.11838 0.76536 0.33207 0.0
C185 C 0.08623 0.76061 0.40798 0.0
O186 O 0.11815 0.81059 0.37927 0.0
Co187 Co 0.05402 0.81694 0.39892 0.0
O188 O 0.09072 0.83885 0.40794 0.0
C189 C 0.05323 0.82306 0.33704 0.0
C190 C 0.09807 0.74607 0.32521 0.0
C191 C 0.11492 0.83285 0.39642 0.0
O192 O 0.07372 0.80424 0.33636 0.0
O193 O 0.04068 0.83088 0.3602 0.0
O194 O 0.10761 0.75019 0.39313 0.0
O195 O 0.06772 0.77627 0.39384 0.0
Co196 Co 0.40637 0.32232 0.63806 0.0
O197 O 0.41735 0.29412 0.66706 0.0
O198 O 0.37718 0.3204 0.66763 0.0
C199 C 0.41623 0.29622 0.59813 0.0
O200 O 0.38785 0.35326 0.61245 0.0
Co201 Co 0.45333 0.35093 0.59864 0.0
O202 O 0.42063 0.37313 0.58175 0.0
C203 C 0.44938 0.37169 0.65763 0.0
C204 C 0.39421 0.30209 0.68076 0.0
C205 C 0.39504 0.37113 0.59187 0.0
O206 O 0.42658 0.35502 0.66033 0.0
O207 O 0.46502 0.37192 0.63502 0.0
O208 O 0.39238 0.29069 0.61221 0.0
O209 O 0.43486 0.31354 0.6111 0.0
Co210 Co 0.05906 0.71006 0.86415 0.0
O211 O 0.0912 0.69366 0.84367 0.0
O212 O 0.06497 0.7321 0.8294 0.0
C213 C 0.07845 0.71178 0.90837 0.0
O214 O 0.0248 0.73319 0.87939 0.0
Co215 Co 0.02766 0.672 0.91066 0.0
O216 O 0.00682 0.70961 0.91835 0.0
C217 C 0.02419 0.65435 0.85055 0.0
C218 C 0.08552 0.71345 0.82416 0.0
C219 C 0.00774 0.73182 0.90119 0.0
O220 O 0.03237 0.68094 0.84332 0.0
O221 O 0.02443 0.64509 0.87649 0.0
O222 O 0.08477 0.73289 0.89006 0.0
O223 O 0.06426 0.68908 0.89804 0.0
Co224 Co 0.08605 0.6884 0.11936 0.0
O225 O 0.0731 0.71773 0.14619 0.0
O226 O 0.1167 0.69748 0.14593 0.0
C227 C 0.07044 0.70835 0.0784 0.0
O228 O 0.10719 0.65784 0.09568 0.0
Co229 Co 0.04197 0.64944 0.08505 0.0
O230 O 0.07671 0.63214 0.06679 0.0
C231 C 0.05084 0.63648 0.1458 0.0
C232 C 0.09823 0.71473 0.15836 0.0
C233 C 0.1021 0.63811 0.07615 0.0
O234 O 0.07149 0.65613 0.14587 0.0
O235 O 0.03472 0.63139 0.12396 0.0
O236 O 0.09427 0.71846 0.09015 0.0
O237 O 0.05498 0.69012 0.09396 0.0
Co238 Co 0.56585 0.74581 0.11805 0.0
O239 O 0.58858 0.74812 0.15257 0.0
O240 O 0.54543 0.7258 0.14885 0.0
C241 C 0.60139 0.73387 0.08717 0.0
O242 O 0.53633 0.73886 0.08615 0.0
Co243 Co 0.57836 0.79076 0.06856 0.0
O244 O 0.54694 0.76824 0.04822 0.0
C245 C 0.54775 0.81078 0.12011 0.0
C246 C 0.56689 0.73461 0.16513 0.0
C247 C 0.5313 0.74817 0.06049 0.0
O248 O 0.54592 0.78367 0.12898 0.0
O249 O 0.56253 0.81871 0.09805 0.0
O250 O 0.5888 0.7131 0.10257 0.0
O251 O 0.59459 0.76087 0.09349 0.0
Co252 Co 0.36197 0.24911 0.88383 0.0
O253 O 0.37789 0.28272 0.86301 0.0
O254 O 0.33611 0.25962 0.85312 0.0
C255 C 0.37 0.26465 0.92913 0.0
O256 O 0.33891 0.2136 0.89993 0.0
Co257 Co 0.4041 0.21004 0.91888 0.0
O258 O 0.36847 0.18607 0.92722 0.0
C259 C 0.40338 0.20387 0.85676 0.0
C260 C 0.35596 0.27919 0.84573 0.0
C261 C 0.34379 0.1909 0.91611 0.0
O262 O 0.38212 0.22187 0.85643 0.0
O263 O 0.41687 0.19693 0.87968 0.0
O264 O 0.34784 0.27444 0.91494 0.0
O265 O 0.38837 0.24978 0.91418 0.0
Co266 Co 0.42892 0.24762 0.38825 0.0
O267 O 0.39842 0.2614 0.36369 0.0
O268 O 0.42288 0.21974 0.35723 0.0
C269 C 0.40808 0.25592 0.43142 0.0
O270 O 0.46165 0.22631 0.40863 0.0
Co271 Co 0.46061 0.29222 0.4293 0.0
O272 O 0.47946 0.25574 0.44389 0.0
C273 C 0.46791 0.2977 0.36726 0.0
C274 C 0.40391 0.23839 0.34769 0.0
C275 C 0.47837 0.23095 0.43037 0.0
O276 O 0.45783 0.27091 0.36398 0.0
O277 O 0.4673 0.31162 0.39119 0.0
O278 O 0.40124 0.23174 0.41713 0.0
O279 O 0.42383 0.27509 0.41758 0.0
Co280 Co 0.11885 0.041 0.63226 0.0
O281 O 0.15351 0.01789 0.63141 0.0
O282 O 0.1457 0.05647 0.66017 0.0
C283 C 0.08426 0.00524 0.63137 0.0
O284 O 0.08577 0.0696 0.63929 0.0
Co285 Co 0.08103 0.04025 0.57742 0.0
O286 O 0.05456 0.06281 0.60253 0.0
C287 C 0.1335 0.07695 0.57753 0.0
C288 C 0.16345 0.03659 0.65054 0.0
C289 C 0.06137 0.07404 0.62682 0.0
O290 O 0.13651 0.0698 0.60395 0.0
O291 O 0.11366 0.06551 0.56158 0.0
O292 O 0.09822 0.01107 0.65504 0.0
O293 O 0.09627 0.01617 0.60841 0.0
Co294 Co 0.75721 0.04204 0.93727 0.0
O295 O 0.77309 0.0816 0.94412 0.0
O296 O 0.72628 0.07069 0.94118 0.0
C297 C 0.78425 0.0151 0.96802 0.0
O298 O 0.73358 0.00316 0.93165 0.0
Co299 Co 0.7981 0.99586 0.90959 0.0
O300 O 0.76526 0.96801 0.91846 0.0
C301 C 0.77308 0.04126 0.87313 0.0
C302 C 0.74671 0.09095 0.94448 0.0
C303 C 0.74004 0.97573 0.9263 0.0
O304 O 0.75719 0.04928 0.89435 0.0
O305 O 0.79358 0.02271 0.8758 0.0
O306 O 0.76259 0.03037 0.97755 0.0
O307 O 0.79184 0.02169 0.94208 0.0
Co308 Co 0.87194 0.50088 0.30788 0.0
O309 O 0.84601 0.5162 0.33669 0.0
O310 O 0.8415 0.47221 0.31485 0.0
C311 C 0.91493 0.5118 0.3278 0.0
O312 O 0.89376 0.47673 0.2785 0.0
Co313 Co 0.91151 0.54253 0.27192 0.0
O314 O 0.92857 0.50487 0.25756 0.0
C315 C 0.84986 0.53901 0.25767 0.0
C316 C 0.83087 0.49171 0.33235 0.0
C317 C 0.91585 0.47971 0.26192 0.0
O318 O 0.84726 0.51871 0.277 0.0
O319 O 0.8738 0.55308 0.2529 0.0
O320 O 0.89975 0.48869 0.33651 0.0
O321 O 0.90161 0.53009 0.31097 0.0
Co322 Co 0.31909 0.79039 0.49828 0.0
O323 O 0.28573 0.77129 0.51607 0.0
O324 O 0.33123 0.76526 0.5294 0.0
C325 C 0.30313 0.83781 0.49312 0.0
O326 O 0.35885 0.80479 0.48502 0.0
Co327 Co 0.31383 0.81281 0.4354 0.0
O328 O 0.35581 0.82245 0.43993 0.0
C329 C 0.31717 0.74858 0.44621 0.0
C330 C 0.30423 0.75671 0.53153 0.0
C331 C 0.37045 0.81589 0.46218 0.0
O332 O 0.32258 0.75465 0.47253 0.0
O333 O 0.3101 0.76849 0.42791 0.0
O334 O 0.31286 0.82887 0.51783 0.0
O335 O 0.2995 0.81686 0.47429 0.0
Co336 Co 0.13213 0.98056 0.18689 0.0
O337 O 0.10076 0.97595 0.16027 0.0
O338 O 0.1054 0.0126 0.19225 0.0
C339 C 0.16917 0.97221 0.15715 0.0
O340 O 0.16205 0.99231 0.2173 0.0
Co341 Co 0.16965 0.92515 0.19998 0.0
O342 O 0.19515 0.95602 0.21843 0.0
C343 C 0.11015 0.92761 0.22159 0.0
C344 C 0.09 0.99937 0.17237 0.0
C345 C 0.18657 0.98199 0.2254 0.0
O346 O 0.10968 0.95558 0.21548 0.0
O347 O 0.13088 0.91064 0.21434 0.0
O348 O 0.15754 0.99847 0.15784 0.0
O349 O 0.15517 0.95142 0.17075 0.0
Co350 Co 0.81645 0.71367 0.48805 0.0
O351 O 0.78132 0.73029 0.47278 0.0
O352 O 0.82573 0.74352 0.4594 0.0
C353 C 0.80427 0.66453 0.48904 0.0
O354 O 0.85755 0.70256 0.4987 0.0
Co355 Co 0.81574 0.68514 0.54868 0.0
O356 O 0.8575 0.67856 0.54109 0.0
C357 C 0.8128 0.74994 0.54372 0.0
C358 C 0.79815 0.7487 0.4585 0.0
C359 C 0.87073 0.68918 0.51923 0.0
O360 O 0.8177 0.74659 0.51693 0.0
O361 O 0.809 0.7278 0.56081 0.0
O362 O 0.81238 0.6771 0.46505 0.0
O363 O 0.79974 0.68273 0.51004 0.0
Co364 Co 0.87474 0.54182 0.86798 0.0
O365 O 0.90158 0.50899 0.8676 0.0
O366 O 0.90658 0.5504 0.89341 0.0
C367 C 0.83219 0.51698 0.87035 0.0
O368 O 0.8528 0.57984 0.87539 0.0
Co369 Co 0.83274 0.554 0.81804 0.0
O370 O 0.8181 0.58688 0.8425 0.0
C371 C 0.89366 0.56941 0.81037 0.0
C372 C 0.91759 0.52556 0.8846 0.0
C373 C 0.83131 0.59439 0.86546 0.0
O374 O 0.89748 0.56145 0.83649 0.0
O375 O 0.86916 0.56765 0.79769 0.0
O376 O 0.84774 0.52093 0.89344 0.0
O377 O 0.84464 0.52424 0.84639 0.0
Co378 Co 0.2574 0.47319 0.0643 0.0
O379 O 0.27137 0.43361 0.05578 0.0
O380 O 0.22599 0.44774 0.05104 0.0
C381 C 0.29136 0.50258 0.04279 0.0
O382 O 0.23516 0.5116 0.06974 0.0
Co383 Co 0.29307 0.51533 0.10442 0.0
O384 O 0.26445 0.54517 0.09193 0.0
C385 C 0.25825 0.46698 0.13014 0.0
C386 C 0.24471 0.42651 0.04927 0.0
C387 C 0.24099 0.53826 0.07886 0.0
O388 O 0.24816 0.46063 0.10509 0.0
O389 O 0.27847 0.48652 0.1342 0.0
O390 O 0.27133 0.48916 0.02762 0.0
O391 O 0.29346 0.49291 0.06887 0.0
Co392 Co 0.20393 0.21757 0.97642 0.0
O393 O 0.237 0.23651 0.99514 0.0
O394 O 0.19133 0.24936 0.00085 0.0
C395 C 0.21527 0.16928 0.98241 0.0
O396 O 0.16427 0.20468 0.9617 0.0
Co397 Co 0.20992 0.18177 0.9205 0.0
O398 O 0.16726 0.17529 0.92292 0.0
C399 C 0.21288 0.24716 0.91755 0.0
C400 C 0.21855 0.25507 0.0059 0.0
C401 C 0.15242 0.18894 0.94165 0.0
O402 O 0.20744 0.24741 0.94449 0.0
O403 O 0.21675 0.22292 0.90356 0.0
O404 O 0.20329 0.184 0.00316 0.0
O405 O 0.22314 0.18482 0.9602 0.0
Co406 Co 0.38247 0.96972 0.11556 0.0
O407 O 0.34888 0.99375 0.11429 0.0
O408 O 0.35563 0.95666 0.14515 0.0
C409 C 0.4168 0.00564 0.11233 0.0
O410 O 0.4162 0.94149 0.12249 0.0
Co411 Co 0.41732 0.96863 0.05888 0.0
O412 O 0.44574 0.94976 0.08455 0.0
C413 C 0.36612 0.93011 0.06352 0.0
C414 C 0.33907 0.97756 0.13527 0.0
C415 C 0.4405 0.93845 0.10919 0.0
O416 O 0.36368 0.93921 0.08945 0.0
O417 O 0.38507 0.9409 0.04618 0.0
O418 O 0.40363 1.0006 0.13652 0.0
O419 O 0.40425 0.99361 0.09014 0.0
Co420 Co 0.74628 0.9684 0.42978 0.0
O421 O 0.73688 0.92668 0.43648 0.0
O422 O 0.78135 0.94517 0.43196 0.0
C423 C 0.71708 0.98995 0.46223 0.0
O424 O 0.76364 0.0105 0.42341 0.0
Co425 Co 0.69739 0.00829 0.40564 0.0
O426 O 0.72665 0.04067 0.41257 0.0
C427 C 0.7286 0.96972 0.36613 0.0
C428 C 0.76443 0.92178 0.43561 0.0
C429 C 0.75335 0.03659 0.41808 0.0
O430 O 0.74525 0.96194 0.38686 0.0
O431 O 0.70627 0.9857 0.36982 0.0
O432 O 0.74144 0.97858 0.4704 0.0
O433 O 0.70913 0.98265 0.43659 0.0
Co434 Co 0.62559 0.50154 0.80539 0.0
O435 O 0.64721 0.47848 0.83263 0.0
O436 O 0.6597 0.52391 0.81725 0.0
C437 C 0.58066 0.49503 0.8229 0.0
O438 O 0.60883 0.53194 0.77778 0.0
Co439 Co 0.58282 0.46902 0.76451 0.0
O440 O 0.57211 0.51021 0.75324 0.0
C441 C 0.6448 0.4651 0.75288 0.0
C442 C 0.66605 0.50048 0.83233 0.0
C443 C 0.58754 0.53314 0.75997 0.0
O444 O 0.64894 0.48356 0.77362 0.0
O445 O 0.61966 0.45457 0.74636 0.0
O446 O 0.59835 0.51469 0.83429 0.0
O447 O 0.5921 0.47689 0.80463 0.0
Co448 Co 0.61819 0.70917 0.62699 0.0
O449 O 0.60392 0.73767 0.65417 0.0
O450 O 0.64385 0.71157 0.65961 0.0
C451 C 0.61313 0.7347 0.5858 0.0
O452 O 0.63968 0.67821 0.60411 0.0
Co453 Co 0.57625 0.67983 0.58303 0.0
O454 O 0.6111 0.65877 0.56938 0.0
C455 C 0.57428 0.65895 0.64235 0.0
C456 C 0.62535 0.72991 0.67051 0.0
C457 C 0.63525 0.66082 0.58251 0.0
O458 O 0.59588 0.67664 0.64746 0.0
O459 O 0.5615 0.65791 0.61801 0.0
O460 O 0.63523 0.74009 0.60246 0.0
O461 O 0.59286 0.71773 0.59665 0.0
Co462 Co 0.95529 0.26958 0.86975 0.0
O463 O 0.92463 0.27671 0.84295 0.0
O464 O 0.95438 0.23844 0.84102 0.0
C465 C 0.93129 0.27869 0.91092 0.0
O466 O 0.98919 0.2553 0.89381 0.0
Co467 Co 0.97801 0.3227 0.90736 0.0
O468 O -8e-05 0.29066 0.92679 0.0
C469 C 0.98992 0.32189 0.84565 0.0
C470 C 0.93362 0.2534 0.82923 0.0
C471 C 0.0032 0.26465 0.91609 0.0
O472 O 0.98252 0.29404 0.84474 0.0
O473 O 0.98633 0.33827 0.86782 0.0
O474 O 0.9284 0.25262 0.89866 0.0
O475 O 0.94491 0.29862 0.89595 0.0
Co476 Co 0.88864 0.21912 0.37218 0.0
O477 O 0.89915 0.2519 0.34725 0.0
O478 O 0.86228 0.22019 0.34002 0.0
C479 C 0.89238 0.24322 0.41421 0.0
O480 O 0.87105 0.18272 0.39261 0.0
Co481 Co 0.93335 0.19314 0.41385 0.0
O482 O 0.90139 0.16564 0.42622 0.0
C483 C 0.9385 0.17975 0.35296 0.0
C484 C 0.87832 0.24235 0.33064 0.0
C485 C 0.87732 0.16435 0.41288 0.0
O486 O 0.91454 0.19311 0.34924 0.0
O487 O 0.95107 0.17776 0.3773 0.0
O488 O 0.86891 0.2451 0.39893 0.0
O489 O 0.91378 0.22962 0.40236 0.0
Co490 Co 0.92211 0.24674 0.61429 0.0
O491 O 0.89568 0.24415 0.64628 0.0
O492 O 0.93919 0.26633 0.64714 0.0
C493 C 0.89041 0.26016 0.58004 0.0
O494 O 0.95519 0.25428 0.58623 0.0
Co495 Co 0.9153 0.20442 0.56186 0.0
O496 O 0.94935 0.22699 0.54608 0.0
C497 C 0.93618 0.18097 0.61675 0.0
C498 C 0.91575 0.25827 0.66074 0.0
C499 C 0.96339 0.24631 0.56102 0.0
O500 O 0.93958 0.20778 0.62629 0.0
O501 O 0.92348 0.17483 0.593 0.0
O502 O 0.90158 0.28029 0.59714 0.0
O503 O 0.8962 0.23288 0.58629 0.0
Co504 Co 0.56263 0.74375 0.37932 0.0
O505 O 0.5915 0.74036 0.34985 0.0
O506 O 0.55159 0.76699 0.34648 0.0
C507 C 0.59123 0.75064 0.41787 0.0
O508 O 0.52882 0.753 0.40553 0.0
Co509 Co 0.55777 0.69411 0.42522 0.0
O510 O 0.53071 0.72231 0.44369 0.0
C511 C 0.53457 0.68186 0.3681 0.0
C512 C 0.57459 0.75654 0.33424 0.0
C513 C 0.52008 0.74459 0.43055 0.0
O514 O 0.5401 0.7093 0.36192 0.0
O515 O 0.54216 0.67003 0.39187 0.0
O516 O 0.58591 0.77293 0.40084 0.0
O517 O 0.58324 0.72455 0.40838 0.0
Co518 Co 0.63062 0.77205 0.87997 0.0
O519 O 0.61992 0.74001 0.85424 0.0
O520 O 0.65954 0.76863 0.85038 0.0
C521 C 0.62118 0.74881 0.92166 0.0
O522 O 0.64915 0.80704 0.90155 0.0
Co523 Co 0.5849 0.80235 0.91758 0.0
O524 O 0.61719 0.8291 0.93061 0.0
C525 C 0.5862 0.81571 0.8564 0.0
C526 C 0.6427 0.74794 0.83945 0.0
C527 C 0.64244 0.82725 0.91989 0.0
O528 O 0.60906 0.80008 0.85469 0.0
O529 O 0.57186 0.8189 0.87961 0.0
O530 O 0.64567 0.74472 0.90858 0.0
O531 O 0.60217 0.76408 0.90787 0.0
Co532 Co 0.61736 0.44813 0.36539 0.0
O533 O 0.59478 0.48329 0.36005 0.0
O534 O 0.59172 0.45327 0.39778 0.0
C535 C 0.66096 0.46661 0.35237 0.0
O536 O 0.63704 0.41012 0.37841 0.0
Co537 Co 0.64571 0.4177 0.31268 0.0
O538 O 0.66302 0.39138 0.34202 0.0
C539 C 0.58363 0.40891 0.32197 0.0
C540 C 0.58185 0.47614 0.38393 0.0
C541 C 0.65457 0.39086 0.36804 0.0
O542 O 0.58618 0.42375 0.34549 0.0
O543 O 0.60463 0.40466 0.3047 0.0
O544 O 0.65116 0.47167 0.37807 0.0
O545 O 0.64265 0.4544 0.33473 0.0
Co546 Co 0.2404 0.53956 0.56858 0.0
O547 O 0.22342 0.57807 0.56234 0.0
O548 O 0.27024 0.56924 0.55915 0.0
C549 C 0.20954 0.50989 0.54288 0.0
O550 O 0.26487 0.5022 0.57268 0.0
Co551 Co 0.20418 0.49383 0.60462 0.0
O552 O 0.23565 0.46704 0.59285 0.0
C553 C 0.23688 0.54043 0.63491 0.0
C554 C 0.24949 0.58846 0.55796 0.0
C555 C 0.25938 0.47507 0.5809 0.0
O556 O 0.24697 0.54919 0.61054 0.0
O557 O 0.21729 0.51992 0.63722 0.0
O558 O 0.22944 0.52594 0.53004 0.0
O559 O 0.20558 0.51699 0.56951 0.0
Co560 Co 0.37106 0.03343 0.69869 0.0
O561 O 0.40217 0.04629 0.67401 0.0
O562 O 0.40417 0.00885 0.70526 0.0
C563 C 0.33458 0.03312 0.66663 0.0
O564 O 0.34301 0.01394 0.72722 0.0
Co565 Co 0.32068 0.07696 0.71001 0.0
O566 O 0.30229 0.04077 0.72754 0.0
C567 C 0.37763 0.08906 0.7356 0.0
C568 C 0.41723 0.02572 0.68632 0.0
C569 C 0.31646 0.01772 0.73461 0.0
O570 O 0.38544 0.06251 0.72897 0.0
O571 O 0.35386 0.10027 0.72712 0.0
O572 O 0.35195 0.01061 0.66779 0.0
O573 O 0.34269 0.05614 0.68144 0.0
Co574 Co 0.67392 0.28746 0.99542 0.0
O575 O 0.70818 0.27354 0.97626 0.0
O576 O 0.66307 0.26305 0.96302 0.0
C577 C 0.68619 0.33573 0.00374 0.0
O578 O 0.63347 0.29636 0.00969 0.0
Co579 Co 0.67766 0.30521 0.05956 0.0
O580 O 0.6356 0.31311 0.05512 0.0
C581 C 0.68319 0.24269 0.04367 0.0
C582 C 0.69047 0.25746 0.9605 0.0
C583 C 0.62131 0.30613 0.03258 0.0
O584 O 0.67418 0.25005 0.01877 0.0
O585 O 0.68864 0.26194 0.06337 0.0
O586 O 0.67693 0.3276 0.97843 0.0
O587 O 0.69178 0.31406 0.02108 0.0
Co588 Co 0.90636 0.30625 0.12306 0.0
O589 O 0.92488 0.2797 0.14962 0.0
O590 O 0.88105 0.29806 0.15515 0.0
C591 C 0.91631 0.28315 0.08139 0.0
O592 O 0.88007 0.3338 0.10082 0.0
Co593 Co 0.9434 0.34363 0.07999 0.0
O594 O 0.90561 0.35976 0.06769 0.0
C595 C 0.94282 0.36182 0.14007 0.0
C596 C 0.90199 0.28245 0.1656 0.0
C597 C 0.88189 0.35303 0.0803 0.0
O598 O 0.92325 0.34151 0.14457 0.0
O599 O 0.95565 0.36511 0.11594 0.0
O600 O 0.89523 0.27321 0.09751 0.0
O601 O 0.93294 0.30347 0.09294 0.0
Co602 Co 0.07438 0.74477 0.61601 0.0
O603 O 0.1044 0.75589 0.64251 0.0
O604 O 0.07161 0.71951 0.64942 0.0
C605 C 0.10152 0.74501 0.57591 0.0
O606 O 0.04046 0.72729 0.59294 0.0
Co607 Co 0.05817 0.78936 0.56768 0.0
O608 O 0.03372 0.75547 0.55356 0.0
C609 C 0.04261 0.80178 0.62736 0.0
C610 C 0.09342 0.73541 0.65919 0.0
C611 C 0.02777 0.73249 0.56885 0.0
O612 O 0.0478 0.77463 0.6345 0.0
O613 O 0.0492 0.81282 0.60285 0.0
O614 O 0.10132 0.72157 0.59247 0.0
O615 O 0.08858 0.76783 0.58614 0.0
Co616 Co 0.63048 0.98573 0.70263 0.0
O617 O 0.60024 0.97234 0.67714 0.0
O618 O 0.59787 0.01164 0.70613 0.0
C619 C 0.66821 0.98256 0.67225 0.0
O620 O 0.65753 0.00596 0.73161 0.0
Co621 Co 0.679 0.9415 0.71899 0.0
O622 O 0.69752 0.97824 0.73532 0.0
C623 C 0.6202 0.93244 0.74147 0.0
C624 C 0.58518 0.99394 0.68763 0.0
C625 C 0.68352 0.0019 0.74064 0.0
O626 O 0.61371 0.95899 0.73359 0.0
O627 O 0.64399 0.92006 0.7348 0.0
O628 O 0.65182 0.00586 0.6714 0.0
O629 O 0.65884 0.96101 0.68829 0.0
Co630 Co 0.31871 0.72225 0.99118 0.0
O631 O 0.28399 0.73694 0.9737 0.0
O632 O 0.32857 0.75063 0.96126 0.0
C633 C 0.30677 0.67315 0.99385 0.0
O634 O 0.35943 0.71215 0.0046 0.0
Co635 Co 0.3141 0.69795 0.05318 0.0
O636 O 0.35549 0.68861 0.04716 0.0
C637 C 0.31322 0.76244 0.04443 0.0
C638 C 0.30085 0.75482 0.95898 0.0
C639 C 0.37059 0.69847 0.02616 0.0
O640 O 0.31847 0.757 0.01806 0.0
O641 O 0.30866 0.74161 0.06284 0.0
O642 O 0.31614 0.68461 0.96983 0.0
O643 O 0.30101 0.69231 0.01377 0.0
Co644 Co 0.37707 0.53832 0.36384 0.0
O645 O 0.39699 0.50204 0.35797 0.0
O646 O 0.40576 0.53305 0.39404 0.0
C647 C 0.3322 0.52121 0.35434 0.0
O648 O 0.35921 0.5781 0.37547 0.0
Co649 Co 0.35107 0.56584 0.309 0.0
O650 O 0.332 0.59152 0.33763 0.0
C651 C 0.41271 0.57361 0.3185 0.0
C652 C 0.41358 0.50978 0.37924 0.0
C653 C 0.34046 0.59516 0.36346 0.0
O654 O 0.40829 0.56007 0.34225 0.0
O655 O 0.39253 0.57826 0.30035 0.0
O656 O 0.34355 0.51701 0.37955 0.0
O657 O 0.34982 0.53147 0.33489 0.0
Co658 Co 0.76277 0.46278 0.55834 0.0
O659 O 0.78086 0.42461 0.55336 0.0
O660 O 0.73501 0.43388 0.54335 0.0
C661 C 0.79675 0.49401 0.53929 0.0
O662 O 0.73735 0.4994 0.55982 0.0
Co663 Co 0.79149 0.508 0.60074 0.0
O664 O 0.76287 0.53513 0.58347 0.0
C665 C 0.75466 0.46003 0.62411 0.0
C666 C 0.75569 0.41462 0.54485 0.0
C667 C 0.74114 0.52657 0.56846 0.0
O668 O 0.74949 0.45127 0.5983 0.0
O669 O 0.77287 0.48109 0.63002 0.0
O670 O 0.77954 0.47848 0.52264 0.0
O671 O 0.79666 0.48536 0.56579 0.0
H672 H 0.20787 0.43361 0.13184 0.0
H673 H 0.27377 0.47338 0.18645 0.0
H674 H 0.24313 0.46495 0.22823 0.0
H675 H 0.1949 0.45442 0.24785 0.0
H676 H 0.12819 0.41601 0.19364 0.0
H677 H 0.16209 0.4152 0.15331 0.0
C678 C 0.21588 0.43978 0.15294 0.0
C679 C 0.24291 0.45479 0.15577 0.0
C680 C 0.19785 0.43542 0.17697 0.0
C681 C 0.25293 0.46226 0.18343 0.0
C682 C 0.23536 0.45754 0.20741 0.0
C683 C 0.18795 0.44524 0.22736 0.0
C684 C 0.15895 0.43576 0.22359 0.0
C685 C 0.20733 0.44543 0.20421 0.0
C686 C 0.15037 0.4235 0.1971 0.0
C687 C 0.1697 0.42328 0.17395 0.0
H688 H 0.6716 0.28819 0.45846 0.0
H689 H 0.69664 0.24064 0.38199 0.0
H690 H 0.69193 0.28632 0.35383 0.0
H691 H 0.67757 0.33858 0.35037 0.0
H692 H 0.65026 0.38541 0.4264 0.0
H693 H 0.65934 0.34103 0.45537 0.0
C694 C 0.67622 0.28773 0.43565 0.0
C695 C 0.68423 0.26083 0.42235 0.0
C696 C 0.67303 0.31393 0.41952 0.0
C697 C 0.69024 0.26089 0.39279 0.0
C698 C 0.68756 0.28703 0.37667 0.0
C699 C 0.67396 0.3393 0.37334 0.0
C700 C 0.66315 0.36532 0.38616 0.0
C701 C 0.67853 0.31352 0.38973 0.0
C702 C 0.65843 0.36567 0.41594 0.0
C703 C 0.66356 0.34028 0.43251 0.0
H704 H 0.84346 0.8713 0.60522 0.0
H705 H 0.84826 0.90036 0.517 0.0
H706 H 0.82746 0.85236 0.50137 0.0
H707 H 0.81454 0.80068 0.51218 0.0
H708 H 0.81473 0.76932 0.59984 0.0
H709 H 0.82632 0.82016 0.61641 0.0
C710 C 0.83933 0.86738 0.58261 0.0
C711 C 0.84753 0.88924 0.56222 0.0
C712 C 0.82857 0.83931 0.57372 0.0
C713 C 0.84232 0.88378 0.53302 0.0
C714 C 0.8305 0.85636 0.5241 0.0
C715 C 0.81682 0.80484 0.535 0.0
C716 C 0.81437 0.78101 0.55473 0.0
C717 C 0.82462 0.83366 0.54418 0.0
C718 C 0.81675 0.78714 0.58419 0.0
C719 C 0.82354 0.81618 0.59363 0.0
H720 H 0.25901 0.00658 0.74095 0.0
H721 H 0.34234 0.98168 0.77401 0.0
H722 H 0.31892 0.95785 0.81536 0.0
H723 H 0.27622 0.95446 0.84653 0.0
H724 H 0.19332 0.98239 0.81446 0.0
H725 H 0.215 0.99367 0.76797 0.0
C726 C 0.27199 0.99534 0.7569 0.0
C727 C 0.30238 0.99661 0.7549 0.0
C728 C 0.25845 0.98241 0.78093 0.0
C729 C 0.31892 0.9813 0.77525 0.0
C730 C 0.30553 0.96783 0.799 0.0
C731 C 0.26261 0.96206 0.82914 0.0
C732 C 0.23334 0.96849 0.83434 0.0
C733 C 0.27547 0.96973 0.80279 0.0
C734 C 0.21603 0.97783 0.81131 0.0
C735 C 0.22847 0.98453 0.78473 0.0
H736 H 0.1994 0.30085 0.94021 0.0
H737 H 0.22252 0.259 0.86016 0.0
H738 H 0.21348 0.30584 0.83471 0.0
H739 H 0.19465 0.35738 0.83485 0.0
H740 H 0.16835 0.39664 0.91505 0.0
H741 H 0.18302 0.35197 0.94078 0.0
C742 C 0.20281 0.30184 0.9172 0.0
C743 C 0.21144 0.2762 0.90214 0.0
C744 C 0.19669 0.32838 0.90269 0.0
C745 C 0.21579 0.27827 0.87234 0.0
C746 C 0.2105 0.30503 0.85775 0.0
C747 C 0.19248 0.35621 0.85799 0.0
C748 C 0.18025 0.38018 0.87303 0.0
C749 C 0.20027 0.33003 0.87263 0.0
C750 C 0.17738 0.37835 0.90297 0.0
C751 C 0.18582 0.35286 0.9177 0.0
H752 H 0.73865 0.52507 0.18115 0.0
H753 H 0.79103 0.57898 0.12349 0.0
H754 H 0.8272 0.58657 0.16102 0.0
H755 H 0.84738 0.57151 0.20774 0.0
H756 H 0.79482 0.51692 0.26476 0.0
H757 H 0.75555 0.51629 0.23009 0.0
C758 C 0.75766 0.53902 0.17689 0.0
C759 C 0.76222 0.55089 0.14925 0.0
C760 C 0.77874 0.54283 0.1984 0.0
C761 C 0.7869 0.56926 0.14441 0.0
C762 C 0.8078 0.57348 0.16586 0.0
C763 C 0.82715 0.55997 0.21284 0.0
C764 C 0.82447 0.54378 0.23866 0.0
C765 C 0.80451 0.55936 0.19256 0.0
C766 C 0.79788 0.52918 0.24491 0.0
C767 C 0.77527 0.52877 0.22505 0.0
H768 H 0.78127 0.94998 0.34864 0.0
H769 H 0.70015 0.98247 0.31618 0.0
H770 H 0.72314 0.99502 0.27066 0.0
H771 H 0.76816 0.0071 0.24472 0.0
H772 H 0.84948 0.97599 0.27742 0.0
H773 H 0.82449 0.95235 0.31803 0.0
C774 C 0.76832 0.95888 0.33134 0.0
C775 C 0.73923 0.96623 0.33629 0.0
C776 C 0.7819 0.967 0.30545 0.0
C777 C 0.72275 0.9772 0.31331 0.0
C778 C 0.73593 0.98464 0.28726 0.0
C779 C 0.78028 0.99455 0.26044 0.0
C780 C 0.81061 0.99387 0.2586 0.0
C781 C 0.76583 0.98139 0.28385 0.0
C782 C 0.8261 0.977 0.2786 0.0
C783 C 0.81183 0.96364 0.30189 0.0
H784 H 0.17502 0.19627 0.52019 0.0
H785 H 0.19551 0.21731 0.60849 0.0
H786 H 0.18632 0.16506 0.62172 0.0
H787 H 0.16532 0.11614 0.60951 0.0
H788 H 0.13965 0.097 0.52215 0.0
H789 H 0.15853 0.14601 0.5072 0.0
C790 C 0.17784 0.18952 0.54235 0.0
C791 C 0.18534 0.21092 0.56347 0.0
C792 C 0.17144 0.15985 0.54995 0.0
C793 C 0.18939 0.20146 0.59188 0.0
C794 C 0.18407 0.1716 0.59945 0.0
C795 C 0.16436 0.12231 0.58703 0.0
C796 C 0.15062 0.10305 0.56703 0.0
C797 C 0.17399 0.15095 0.57885 0.0
C798 C 0.1498 0.11148 0.53802 0.0
C799 C 0.1605 0.13953 0.52949 0.0
H800 H 0.99659 0.29152 0.58366 0.0
H801 H 0.9926 0.22969 0.51255 0.0
H802 H 0.04117 0.24566 0.4977 0.0
H803 H 0.08693 0.27257 0.50844 0.0
H804 H 0.09095 0.33339 0.58035 0.0
H805 H 0.04012 0.32274 0.59093 0.0
C806 C 0.00615 0.28172 0.56472 0.0
C807 C 0.99107 0.25898 0.54963 0.0
C808 C 0.03422 0.29076 0.55643 0.0
C809 C 0.00374 0.24699 0.52483 0.0
C810 C 0.03159 0.25608 0.51631 0.0
C811 C 0.07655 0.28406 0.52601 0.0
C812 C 0.09295 0.30346 0.54378 0.0
C813 C 0.04737 0.27731 0.53244 0.0
C814 C 0.07902 0.31809 0.56648 0.0
C815 C 0.04993 0.31193 0.57265 0.0
H816 H 0.98535 0.37689 0.82283 0.0
H817 H 0.03445 0.29628 0.81726 0.0
H818 H 0.07392 0.32376 0.79335 0.0
H819 H 0.09889 0.3728 0.7882 0.0
H820 H 0.05032 0.45335 0.79728 0.0
H821 H 0.00585 0.42399 0.80429 0.0
C822 C 0.00422 0.36519 0.81526 0.0
C823 C 0.00749 0.33495 0.82232 0.0
C824 C 0.02702 0.38129 0.80229 0.0
C825 C 0.03168 0.31969 0.81217 0.0
C826 C 0.05435 0.33547 0.79874 0.0
C827 C 0.07823 0.38378 0.78986 0.0
C828 C 0.07771 0.41503 0.79255 0.0
C829 C 0.05303 0.36664 0.79558 0.0
C830 C 0.05102 0.42924 0.79507 0.0
C831 C 0.0257 0.41244 0.79964 0.0
H832 H 0.763 0.4175 0.07619 0.0
H833 H 0.81804 0.4904 0.04646 0.0
H834 H 0.85904 0.45672 0.04415 0.0
H835 H 0.88023 0.40824 0.05608 0.0
H836 H 0.82537 0.33686 0.08915 0.0
H837 H 0.78315 0.36841 0.08447 0.0
C838 C 0.78389 0.42613 0.06901 0.0
C839 C 0.78753 0.45664 0.06202 0.0
C840 C 0.80741 0.40693 0.06849 0.0
C841 C 0.81466 0.46712 0.0522 0.0
C842 C 0.83813 0.44789 0.05097 0.0
C843 C 0.85895 0.39938 0.06174 0.0
C844 C 0.85595 0.3703 0.07315 0.0
C845 C 0.83492 0.41798 0.05986 0.0
C846 C 0.82828 0.35923 0.08056 0.0
C847 C 0.80415 0.37727 0.07793 0.0
H848 H 0.94951 0.12073 0.34911 0.0
H849 H 0.94894 0.20261 0.30049 0.0
H850 H 0.94247 0.17452 0.25609 0.0
H851 H 0.92322 0.12843 0.2342 0.0
H852 H 0.92144 0.04644 0.28269 0.0
H853 H 0.94311 0.07241 0.32391 0.0
C854 C 0.94962 0.1322 0.3286 0.0
C855 C 0.94924 0.16357 0.32789 0.0
C856 C 0.94456 0.11585 0.30326 0.0
C857 C 0.94908 0.17841 0.30135 0.0
C858 C 0.945 0.16236 0.27602 0.0
C859 C 0.92868 0.11611 0.25345 0.0
C860 C 0.92031 0.0859 0.25585 0.0
C861 C 0.94053 0.13131 0.2771 0.0
C862 C 0.92765 0.06984 0.28058 0.0
C863 C 0.9398 0.08475 0.30421 0.0
H864 H 0.22935 0.91197 0.40104 0.0
H865 H 0.17119 0.97312 0.4421 0.0
H866 H 0.13226 0.93545 0.4398 0.0
H867 H 0.11408 0.88653 0.42372 0.0
H868 H 0.17166 0.82606 0.38098 0.0
H869 H 0.2116 0.86225 0.38659 0.0
C870 C 0.20823 0.9171 0.40969 0.0
C871 C 0.20321 0.9455 0.42155 0.0
C872 C 0.18583 0.89552 0.40793 0.0
C873 C 0.17568 0.95157 0.43269 0.0
C874 C 0.15338 0.93003 0.43138 0.0
C875 C 0.1354 0.88105 0.41583 0.0
C876 C 0.13977 0.85359 0.40181 0.0
C877 C 0.15812 0.90212 0.41867 0.0
C878 C 0.16759 0.84704 0.39172 0.0
C879 C 0.19045 0.86774 0.3949 0.0
H880 H 0.42571 0.37311 0.7107 0.0
H881 H 0.485 0.42159 0.65519 0.0
H882 H 0.48392 0.46463 0.68742 0.0
H883 H 0.45959 0.49108 0.72653 0.0
H884 H 0.39777 0.44309 0.77979 0.0
H885 H 0.40649 0.39728 0.75321 0.0
C886 C 0.43882 0.39289 0.70583 0.0
C887 C 0.45486 0.39437 0.6802 0.0
C888 C 0.43724 0.41786 0.7238 0.0
C889 C 0.47223 0.41991 0.67463 0.0
C890 C 0.47144 0.44465 0.69293 0.0
C891 C 0.44839 0.4705 0.73266 0.0
C892 C 0.42752 0.47071 0.75467 0.0
C893 C 0.45296 0.44433 0.71683 0.0
C894 C 0.41348 0.44374 0.76255 0.0
C895 C 0.41847 0.41748 0.74739 0.0
H896 H 0.98515 0.75023 0.95153 0.0
H897 H 0.98267 0.76669 0.86043 0.0
H898 H 0.94093 0.79883 0.86672 0.0
H899 H 0.90066 0.815 0.89715 0.0
H900 H 0.90322 0.79766 0.98827 0.0
H901 H 0.94982 0.77388 0.98297 0.0
C902 C 0.97574 0.76128 0.93312 0.0
C903 C 0.98651 0.75563 0.90551 0.0
C904 C 0.9517 0.77949 0.93688 0.0
C905 C 0.9746 0.77055 0.88189 0.0
C906 C 0.95066 0.78882 0.88547 0.0
C907 C 0.91178 0.80686 0.916 0.0
C908 C 0.89804 0.80751 0.94296 0.0
C909 C 0.93834 0.79248 0.91274 0.0
C910 C 0.91299 0.79704 0.96716 0.0
C911 C 0.93961 0.78323 0.96416 0.0
H912 H 0.45681 0.13621 0.1708 0.0
H913 H 0.51215 0.21468 0.16557 0.0
H914 H 0.55466 0.18438 0.17453 0.0
H915 H 0.57578 0.1343 0.16911 0.0
H916 H 0.51992 0.05619 0.17246 0.0
H917 H 0.47793 0.08727 0.18003 0.0
C918 C 0.47806 0.14677 0.17316 0.0
C919 C 0.4816 0.17736 0.16718 0.0
C920 C 0.50236 0.12907 0.1775 0.0
C921 C 0.50905 0.19108 0.17019 0.0
C922 C 0.5334 0.17367 0.17491 0.0
C923 C 0.55464 0.12416 0.17323 0.0
C924 C 0.55069 0.09313 0.17006 0.0
C925 C 0.53043 0.1424 0.17651 0.0
C926 C 0.52327 0.08006 0.17492 0.0
C927 C 0.49922 0.09788 0.17886 0.0
H928 H 0.04581 0.88257 0.33018 0.0
H929 H 0.05118 0.79951 0.28371 0.0
H930 H 0.06458 0.82655 0.24016 0.0
H931 H 0.08671 0.87195 0.21968 0.0
H932 H 0.08363 0.95501 0.26634 0.0
H933 H 0.05706 0.93009 0.30527 0.0
C934 C 0.04851 0.8706 0.31015 0.0
C935 C 0.04808 0.83919 0.31012 0.0
C936 C 0.05752 0.88625 0.28548 0.0
C937 C 0.0517 0.82376 0.28415 0.0
C938 C 0.0597 0.83917 0.25935 0.0
C939 C 0.07948 0.88469 0.23805 0.0
C940 C 0.0877 0.91493 0.24067 0.0
C941 C 0.06466 0.87015 0.2604 0.0
C942 C 0.07776 0.93154 0.26412 0.0
C943 C 0.06271 0.91727 0.28643 0.0
H944 H 0.33712 0.36234 0.59033 0.0
H945 H 0.40432 0.42766 0.57113 0.0
H946 H 0.36792 0.46577 0.56321 0.0
H947 H 0.31714 0.48175 0.56768 0.0
H948 H 0.25055 0.4151 0.58609 0.0
H949 H 0.2865 0.37649 0.5881 0.0
C950 C 0.34374 0.38481 0.58397 0.0
C951 C 0.37326 0.39232 0.58171 0.0
C952 C 0.32281 0.40654 0.57963 0.0
C953 C 0.38163 0.42136 0.57301 0.0
C954 C 0.36085 0.44322 0.56869 0.0
C955 C 0.31048 0.45873 0.5717 0.0
C956 C 0.28128 0.45163 0.57756 0.0
C957 C 0.33138 0.43629 0.57285 0.0
C958 C 0.27298 0.42151 0.58228 0.0
C959 C 0.2935 0.39925 0.58337 0.0
H960 H 0.94806 0.55051 0.80902 0.0
H961 H 0.89473 0.6239 0.78419 0.0
H962 H 0.93652 0.6583 0.78727 0.0
H963 H 0.98295 0.66881 0.81199 0.0
H964 H 0.03297 0.59534 0.84327 0.0
H965 H 0.99839 0.5596 0.82239 0.0
C966 C 0.94606 0.57378 0.80279 0.0
C967 C 0.9185 0.58492 0.79697 0.0
C968 C 0.96957 0.59356 0.80673 0.0
C969 C 0.91584 0.61493 0.78878 0.0
C970 C 0.93965 0.63468 0.79111 0.0
C971 C 0.98685 0.64499 0.813 0.0
C972 C 0.01003 0.63453 0.82944 0.0
C973 C 0.96592 0.62458 0.80236 0.0
C974 C 0.01498 0.60371 0.83092 0.0
C975 C 0.99515 0.58331 0.81912 0.0
H976 H 0.18712 0.53303 0.0549 0.0
H977 H 0.24655 0.59711 0.09373 0.0
H978 H 0.20969 0.63503 0.09234 0.0
H979 H 0.15934 0.64841 0.08526 0.0
H980 H 0.09914 0.58454 0.04755 0.0
H981 H 0.13782 0.54851 0.04265 0.0
C982 C 0.19211 0.55535 0.06282 0.0
C983 C 0.21939 0.5619 0.07502 0.0
C984 C 0.1707 0.57718 0.06215 0.0
C985 C 0.22559 0.59115 0.08472 0.0
C986 C 0.20454 0.61297 0.08388 0.0
C987 C 0.15471 0.62678 0.07555 0.0
C988 C 0.12627 0.61903 0.06728 0.0
C989 C 0.17681 0.60597 0.07343 0.0
C990 C 0.1208 0.59109 0.05427 0.0
C991 C 0.14287 0.57035 0.05166 0.0
H992 H 0.55481 0.87073 0.11982 0.0
H993 H 0.49618 0.80035 0.14774 0.0
H994 H 0.45751 0.83639 0.15335 0.0
H995 H 0.43792 0.88564 0.13923 0.0
H996 H 0.49688 0.95272 0.10533 0.0
H997 H 0.53766 0.92116 0.11427 0.0
C998 C 0.5338 0.86343 0.12793 0.0
C999 C 0.52812 0.83294 0.13256 0.0
C1000 C 0.51147 0.88395 0.12994 0.0
C1001 C 0.50102 0.82378 0.14368 0.0
C1002 C 0.47877 0.84435 0.14664 0.0
C1003 C 0.45983 0.89358 0.13485 0.0
C1004 C 0.46442 0.92167 0.12196 0.0
C1005 C 0.48329 0.87419 0.13815 0.0
C1006 C 0.49285 0.93157 0.11591 0.0
C1007 C 0.51623 0.91326 0.12057 0.0
H1008 H 0.35112 0.13421 0.93451 0.0
H1009 H 0.28566 0.19392 0.90384 0.0
H1010 H 0.25047 0.15222 0.90236 0.0
H1011 H 0.23958 0.09831 0.90636 0.0
H1012 H 0.30639 0.03884 0.9347 0.0
H1013 H 0.33986 0.08122 0.94033 0.0
C1014 C 0.32905 0.13836 0.92789 0.0
C1015 C 0.32112 0.16719 0.91916 0.0
C1016 C 0.30931 0.11425 0.92622 0.0
C1017 C 0.29241 0.17195 0.91054 0.0
C1018 C 0.27232 0.1481 0.90959 0.0
C1019 C 0.26149 0.09455 0.91368 0.0
C1020 C 0.27054 0.06527 0.91963 0.0
C1021 C 0.28077 0.11903 0.91668 0.0
C1022 C 0.2989 0.06099 0.92952 0.0
C1023 C 0.31804 0.08525 0.93291 0.0
H1024 H 0.50533 0.22355 0.48148 0.0
H1025 H 0.50118 0.18846 0.39536 0.0
H1026 H 0.5459 0.1615 0.40339 0.0
H1027 H 0.59066 0.15659 0.43144 0.0
H1028 H 0.59517 0.1933 0.51706 0.0
H1029 H 0.54561 0.2102 0.51286 0.0
C1030 C 0.51385 0.20942 0.4647 0.0
C1031 C 0.50035 0.20857 0.43767 0.0
C1032 C 0.53986 0.19449 0.46926 0.0
C1033 C 0.51127 0.1897 0.41631 0.0
C1034 C 0.53699 0.17443 0.42082 0.0
C1035 C 0.58055 0.16744 0.44954 0.0
C1036 C 0.59699 0.17439 0.47421 0.0
C1037 C 0.55221 0.17791 0.44672 0.0
C1038 C 0.5833 0.18816 0.49757 0.0
C1039 C 0.55495 0.19801 0.49515 0.0
H1040 H 0.74042 0.01513 0.74778 0.0
H1041 H 0.65587 0.03558 0.78059 0.0
H1042 H 0.67787 0.05759 0.82359 0.0
H1043 H 0.71993 0.05961 0.85593 0.0
H1044 H 0.80416 0.0367 0.82355 0.0
H1045 H 0.78364 0.0281 0.77606 0.0
C1046 C 0.72689 0.02521 0.764 0.0
C1047 C 0.6966 0.02309 0.76144 0.0
C1048 C 0.73964 0.03712 0.78891 0.0
C1049 C 0.67926 0.03674 0.78221 0.0
C1050 C 0.69183 0.04911 0.80693 0.0
C1051 C 0.73403 0.05385 0.83827 0.0
C1052 C 0.76338 0.04785 0.84354 0.0
C1053 C 0.72187 0.0478 0.8112 0.0
C1054 C 0.78137 0.04081 0.82026 0.0
C1055 C 0.76961 0.03566 0.7931 0.0
H1056 H 0.35791 0.61862 0.41531 0.0
H1057 H 0.29823 0.6323 0.34533 0.0
H1058 H 0.28509 0.68025 0.3651 0.0
H1059 H 0.29316 0.72049 0.39994 0.0
H1060 H 0.35109 0.70673 0.47112 0.0
H1061 H 0.36197 0.65691 0.45332 0.0
C1062 C 0.34172 0.63186 0.40463 0.0
C1063 C 0.3296 0.62192 0.37857 0.0
C1064 C 0.33405 0.65972 0.41615 0.0
C1065 C 0.30841 0.63941 0.3652 0.0
C1066 C 0.3008 0.66699 0.37644 0.0
C1067 C 0.30803 0.70651 0.41163 0.0
C1068 C 0.32154 0.71748 0.43654 0.0
C1069 C 0.314 0.67773 0.40148 0.0
C1070 C 0.3404 0.69888 0.45176 0.0
C1071 C 0.34673 0.67036 0.44158 0.0
H1072 H 0.16966 0.02217 0.2658 0.0
H1073 H 0.24507 0.98091 0.22991 0.0
H1074 H 0.27479 1.00065 0.26906 0.0
H1075 H 0.27718 0.02082 0.31756 0.0
H1076 H 0.20112 0.05866 0.35576 0.0
H1077 H 0.17429 0.05028 0.31128 0.0
C1078 C 0.19274 0.01821 0.2662 0.0
C1079 C 0.20504 0.99954 0.24541 0.0
C1080 C 0.2096 0.02887 0.28934 0.0
C1081 C 0.23499 0.99466 0.24606 0.0
C1082 C 0.25202 0.00598 0.26842 0.0
C1083 C 0.25495 0.02801 0.316 0.0
C1084 C 0.24102 0.03953 0.34034 0.0
C1085 C 0.23925 0.02179 0.29088 0.0
C1086 C 0.21239 0.04935 0.33757 0.0
C1087 C 0.19687 0.04424 0.31218 0.0
H1088 H 0.80629 0.64418 0.84366 0.0
H1089 H 0.83711 0.60533 0.92242 0.0
H1090 H 0.82813 0.65184 0.94791 0.0
H1091 H 0.8158 0.70447 0.94699 0.0
H1092 H 0.78767 0.74497 0.8679 0.0
H1093 H 0.79101 0.69678 0.84349 0.0
C1094 C 0.81061 0.64581 0.86648 0.0
C1095 C 0.82255 0.62146 0.8811 0.0
C1096 C 0.80611 0.67295 0.8809 0.0
C1097 C 0.82822 0.6239 0.91063 0.0
C1098 C 0.82308 0.65046 0.92523 0.0
C1099 C 0.8101 0.70285 0.92446 0.0
C1100 C 0.8018 0.7285 0.90928 0.0
C1101 C 0.81273 0.67533 0.91043 0.0
C1102 C 0.79435 0.7257 0.88012 0.0
C1103 C 0.7963 0.69814 0.86611 0.0
H1104 H 0.90645 0.66864 0.56115 0.0
H1105 H 0.90759 0.7127 0.47866 0.0
H1106 H 0.95867 0.72575 0.48501 0.0
H1107 H 0.00013 0.73213 0.51731 0.0
H1108 H 0.99821 0.69049 0.60089 0.0
H1109 H 0.95053 0.66857 0.59045 0.0
C1110 C 0.91794 0.68054 0.54423 0.0
C1111 C 0.90288 0.69026 0.51975 0.0
C1112 C 0.94716 0.68876 0.54836 0.0
C1113 C 0.9184 0.70526 0.49792 0.0
C1114 C 0.94765 0.71288 0.50159 0.0
C1115 C 0.98955 0.71783 0.53311 0.0
C1116 C 0.0025 0.71358 0.56013 0.0
C1117 C 0.96181 0.70596 0.52728 0.0
C1118 C 0.9887 0.69444 0.58003 0.0
C1119 C 0.96131 0.68202 0.57414 0.0
H1120 H 0.03084 0.21798 0.89099 0.0
H1121 H 0.02744 0.26952 0.9692 0.0
H1122 H 0.07115 0.24588 0.98644 0.0
H1123 H 0.11404 0.21688 0.97617 0.0
H1124 H 0.11934 0.16733 0.89691 0.0
H1125 H 0.07087 0.18316 0.88375 0.0
C1126 C 0.03929 0.22355 0.91207 0.0
C1127 C 0.02617 0.24594 0.92851 0.0
C1128 C 0.06494 0.21036 0.92165 0.0
C1129 C 0.03738 0.25277 0.95585 0.0
C1130 C 0.0624 0.23924 0.96577 0.0
C1131 C 0.10444 0.20895 0.95627 0.0
C1132 C 0.12069 0.19144 0.93733 0.0
C1133 C 0.07699 0.21896 0.94835 0.0
C1134 C 0.10755 0.18106 0.91185 0.0
C1135 C 0.07985 0.19031 0.90416 0.0
H1136 H 0.82068 0.159 0.39728 0.0
H1137 H 0.8878 0.11285 0.4427 0.0
H1138 H 0.85555 0.06932 0.44883 0.0
H1139 H 0.80878 0.0432 0.4391 0.0
H1140 H 0.74182 0.09069 0.39453 0.0
H1141 H 0.77344 0.13449 0.3904 0.0
C1142 C 0.82825 0.13953 0.4087 0.0
C1143 C 0.85673 0.13924 0.4193 0.0
C1144 C 0.80962 0.11455 0.41218 0.0
C1145 C 0.86598 0.11382 0.43431 0.0
C1146 C 0.84758 0.08878 0.43772 0.0
C1147 C 0.80113 0.06314 0.42853 0.0
C1148 C 0.77297 0.06336 0.41696 0.0
C1149 C 0.81945 0.08869 0.42635 0.0
C1150 C 0.76334 0.08965 0.40365 0.0
C1151 C 0.78144 0.11485 0.4012 0.0
H1152 H 0.5946 0.65702 0.69696 0.0
H1153 H 0.53752 0.60997 0.63811 0.0
H1154 H 0.53369 0.56803 0.6716 0.0
H1155 H 0.55202 0.54212 0.71414 0.0
H1156 H 0.61158 0.58834 0.77119 0.0
H1157 H 0.60884 0.63325 0.74173 0.0
C1158 C 0.58095 0.6378 0.69151 0.0
C1159 C 0.56679 0.63649 0.66473 0.0
C1160 C 0.57961 0.61341 0.71038 0.0
C1161 C 0.54883 0.61157 0.65842 0.0
C1162 C 0.54679 0.58746 0.6775 0.0
C1163 C 0.56408 0.56212 0.72044 0.0
C1164 C 0.58238 0.56161 0.74465 0.0
C1165 C 0.56296 0.5877 0.70302 0.0
C1166 C 0.59765 0.58789 0.7525 0.0
C1167 C 0.59611 0.61362 0.73565 0.0
H1168 H 0.49647 0.7007 0.07527 0.0
H1169 H 0.50652 0.77052 0.01184 0.0
H1170 H 0.45881 0.75799 0.99236 0.0
H1171 H 0.41151 0.73227 0.99798 0.0
H1172 H 0.4015 0.66306 0.06203 0.0
H1173 H 0.45195 0.66999 0.07612 0.0
C1174 C 0.48845 0.71292 0.05691 0.0
C1175 C 0.50487 0.73695 0.04551 0.0
C1176 C 0.46082 0.70584 0.04596 0.0
C1177 C 0.49429 0.75211 0.02134 0.0
C1178 C 0.4669 0.74503 0.01018 0.0
C1179 C 0.42055 0.71815 0.01449 0.0
C1180 C 0.40252 0.69759 0.02926 0.0
C1181 C 0.44954 0.72266 0.02298 0.0
C1182 C 0.41471 0.67941 0.05056 0.0
C1183 C 0.44358 0.68342 0.05875 0.0
H1184 H 0.49195 0.79341 0.41046 0.0
H1185 H 0.4942 0.73213 0.48206 0.0
H1186 H 0.45062 0.75389 0.50169 0.0
H1187 H 0.40807 0.78454 0.49457 0.0
H1188 H 0.40432 0.84406 0.42179 0.0
H1189 H 0.45274 0.82945 0.40723 0.0
C1190 C 0.48314 0.78501 0.43054 0.0
C1191 C 0.49597 0.76059 0.44429 0.0
C1192 C 0.45778 0.79737 0.44159 0.0
C1193 C 0.48453 0.75049 0.47063 0.0
C1194 C 0.45959 0.76297 0.48196 0.0
C1195 C 0.41813 0.79508 0.47602 0.0
C1196 C 0.40231 0.81495 0.45901 0.0
C1197 C 0.44546 0.78565 0.46708 0.0
C1198 C 0.41585 0.82841 0.4351 0.0
C1199 C 0.44346 0.81986 0.4266 0.0
H1200 H 0.74914 0.91607 0.92643 0.0
H1201 H 0.68114 0.98044 0.93385 0.0
H1202 H 0.64501 0.93958 0.93599 0.0
H1203 H 0.63264 0.88571 0.9317 0.0
H1204 H 0.70102 0.82235 0.92127 0.0
H1205 H 0.73724 0.86282 0.92471 0.0
C1206 C 0.72642 0.92135 0.92848 0.0
C1207 C 0.71786 0.95142 0.92945 0.0
C1208 C 0.70587 0.89788 0.92924 0.0
C1209 C 0.68835 0.95758 0.93279 0.0
C1210 C 0.66768 0.9342 0.934 0.0
C1211 C 0.6555 0.88074 0.93073 0.0
C1212 C 0.66419 0.85108 0.92626 0.0
C1213 C 0.67617 0.90428 0.93173 0.0
C1214 C 0.69383 0.84499 0.92462 0.0
C1215 C 0.71451 0.86813 0.92648 0.0
H1216 H 0.75982 0.4699 0.6816 0.0
H1217 H 0.70456 0.42643 0.61884 0.0
H1218 H 0.66627 0.42072 0.65453 0.0
H1219 H 0.64579 0.43544 0.70125 0.0
H1220 H 0.70144 0.47964 0.76335 0.0
H1221 H 0.74197 0.47739 0.73035 0.0
C1222 C 0.73966 0.45856 0.67582 0.0
C1223 C 0.73501 0.44922 0.64734 0.0
C1224 C 0.71743 0.4559 0.69627 0.0
C1225 C 0.70882 0.43413 0.6405 0.0
C1226 C 0.68672 0.43105 0.66087 0.0
C1227 C 0.6669 0.44406 0.70779 0.0
C1228 C 0.67021 0.4583 0.73458 0.0
C1229 C 0.69033 0.44304 0.68848 0.0
C1230 C 0.69792 0.46902 0.74272 0.0
C1231 C 0.72125 0.46778 0.72383 0.0
H1232 H 0.34214 0.88823 0.09891 0.0
H1233 H 0.35315 0.91036 0.00933 0.0
H1234 H 0.33336 0.86121 0.99596 0.0
H1235 H 0.31883 0.81065 0.00955 0.0
H1236 H 0.31244 0.78629 0.09905 0.0
H1237 H 0.32393 0.83815 0.1126 0.0
C1238 C 0.33963 0.88261 0.07641 0.0
C1239 C 0.34927 0.90295 0.0551 0.0
C1240 C 0.3293 0.8539 0.06889 0.0
C1241 C 0.34605 0.89513 0.02611 0.0
C1242 C 0.33479 0.86701 0.01846 0.0
C1243 C 0.31965 0.81654 0.03211 0.0
C1244 C 0.31525 0.79433 0.0533 0.0
C1245 C 0.32731 0.84595 0.03967 0.0
C1246 C 0.31592 0.80277 0.08231 0.0
C1247 C 0.32263 0.8324 0.09004 0.0
H1248 H 0.30123 0.54695 0.75303 0.0
H1249 H 0.36523 0.59272 0.70057 0.0
H1250 H 0.33099 0.59397 0.66076 0.0
H1251 H 0.28572 0.57565 0.63884 0.0
H1252 H 0.22256 0.52798 0.69081 0.0
H1253 H 0.25347 0.53452 0.73284 0.0
C1254 C 0.30764 0.55759 0.73304 0.0
C1255 C 0.33606 0.56919 0.72972 0.0
C1256 C 0.28801 0.55776 0.71 0.0
C1257 C 0.34366 0.58335 0.70376 0.0
C1258 C 0.32409 0.58399 0.68088 0.0
C1259 C 0.27833 0.56722 0.65945 0.0
C1260 C 0.25198 0.55083 0.6614 0.0
C1261 C 0.29659 0.57031 0.68345 0.0
C1262 C 0.24282 0.54038 0.68846 0.0
C1263 C 0.26058 0.54396 0.71255 0.0
H1264 H 0.65855 0.10539 0.04884 0.0
H1265 H 0.66882 0.12198 0.13944 0.0
H1266 H 0.68677 0.17265 0.12953 0.0
H1267 H 0.69027 0.21485 0.09553 0.0
H1268 H 0.68006 0.19733 0.00487 0.0
H1269 H 0.67191 0.14456 0.01443 0.0
C1270 C 0.66547 0.11985 0.06634 0.0
C1271 C 0.66171 0.1103 0.09475 0.0
C1272 C 0.6753 0.14906 0.06055 0.0
C1273 C 0.6713 0.12894 0.1173 0.0
C1274 C 0.68131 0.15805 0.11169 0.0
C1275 C 0.68686 0.1994 0.07786 0.0
C1276 C 0.68468 0.21028 0.04969 0.0
C1277 C 0.68193 0.16883 0.08346 0.0
C1278 C 0.68094 0.1898 0.02693 0.0
C1279 C 0.67631 0.15949 0.03231 0.0
H1280 H 0.49286 0.26022 0.03506 0.0
H1281 H 0.49726 0.30034 0.11922 0.0
H1282 H 0.54405 0.32348 0.10746 0.0
H1283 H 0.58709 0.32482 0.07658 0.0
H1284 H 0.58307 0.28342 0.9929 0.0
H1285 H 0.53265 0.26891 0.00105 0.0
C1286 C 0.50376 0.27452 0.05065 0.0
C1287 C 0.49184 0.27794 0.07821 0.0
C1288 C 0.53095 0.28731 0.04397 0.0
C1289 C 0.50599 0.29707 0.09792 0.0
C1290 C 0.5329 0.31018 0.09128 0.0
C1291 C 0.57506 0.3132 0.05982 0.0
C1292 C 0.58921 0.30459 0.03446 0.0
C1293 C 0.54615 0.30431 0.06486 0.0
C1294 C 0.57299 0.29004 0.01282 0.0
C1295 C 0.54411 0.28154 0.01751 0.0
H1296 H 0.46427 0.35473 0.35047 0.0
H1297 H 0.50972 0.27347 0.33382 0.0
H1298 H 0.5489 0.30214 0.31049 0.0
H1299 H 0.575 0.35088 0.30696 0.0
H1300 H 0.53011 0.4316 0.32708 0.0
H1301 H 0.48568 0.40293 0.33635 0.0
C1302 C 0.48226 0.34329 0.34067 0.0
C1303 C 0.48459 0.3123 0.3442 0.0
C1304 C 0.50502 0.35998 0.32845 0.0
C1305 C 0.50765 0.29742 0.33131 0.0
C1306 C 0.53019 0.31386 0.31833 0.0
C1307 C 0.55512 0.36217 0.31219 0.0
C1308 C 0.55578 0.39319 0.31709 0.0
C1309 C 0.52993 0.34527 0.31851 0.0
C1310 C 0.53008 0.4077 0.32391 0.0
C1311 C 0.50472 0.39127 0.32923 0.0
H1312 H 0.42129 0.14663 0.84946 0.0
H1313 H 0.39821 0.22613 0.80313 0.0
H1314 H 0.39351 0.19754 0.75896 0.0
H1315 H 0.38594 0.14876 0.73632 0.0
H1316 H 0.40685 0.06845 0.7823 0.0
H1317 H 0.42297 0.09837 0.82356 0.0
C1318 C 0.41627 0.1578 0.82947 0.0
C1319 C 0.40957 0.18834 0.8296 0.0
C1320 C 0.41266 0.14092 0.8042 0.0
C1321 C 0.40305 0.20258 0.80359 0.0
C1322 C 0.40021 0.1862 0.77834 0.0
C1323 C 0.39477 0.1379 0.75512 0.0
C1324 C 0.39471 0.10657 0.75663 0.0
C1325 C 0.40335 0.15515 0.7788 0.0
C1326 C 0.4066 0.09262 0.78078 0.0
C1327 C 0.41558 0.10971 0.80445 0.0
H1328 H 0.95108 0.47819 0.21491 0.0
H1329 H 0.90131 0.42139 0.27236 0.0
H1330 H 0.90936 0.37854 0.24142 0.0
H1331 H 0.9246 0.35884 0.19526 0.0
H1332 H 0.97227 0.4157 0.13625 0.0
H1333 H 0.97159 0.45659 0.17097 0.0
C1334 C 0.94242 0.45634 0.22092 0.0
C1335 C 0.92509 0.45318 0.24561 0.0
C1336 C 0.94659 0.4318 0.20267 0.0
C1337 C 0.91427 0.42462 0.2532 0.0
C1338 C 0.91886 0.40005 0.23553 0.0
C1339 C 0.93522 0.38002 0.19006 0.0
C1340 C 0.94792 0.38434 0.16292 0.0
C1341 C 0.93404 0.40364 0.20972 0.0
C1342 C 0.96209 0.41178 0.15687 0.0
C1343 C 0.96156 0.43528 0.17666 0.0
H1344 H 0.00403 0.06501 0.62868 0.0
H1345 H 0.07142 0.12819 0.65262 0.0
H1346 H 0.03537 0.16717 0.6588 0.0
H1347 H 0.98698 0.18517 0.64584 0.0
H1348 H 0.92108 0.12191 0.61767 0.0
H1349 H 0.95397 0.08074 0.62552 0.0
C1350 C 0.01064 0.08706 0.63619 0.0
C1351 C 0.04018 0.09407 0.63968 0.0
C1352 C 0.99004 0.10936 0.63857 0.0
C1353 C 0.0487 0.12247 0.64973 0.0
C1354 C 0.02813 0.14477 0.65296 0.0
C1355 C 0.9795 0.16228 0.64249 0.0
C1356 C 0.95191 0.15654 0.63062 0.0
C1357 C 0.999 0.13885 0.64575 0.0
C1358 C 0.94241 0.12682 0.62638 0.0
C1359 C 0.96124 0.10332 0.6307 0.0
H1360 H 0.60444 0.87441 0.7389 0.0
H1361 H 0.59437 0.95413 0.78943 0.0
H1362 H 0.57549 0.9241 0.82952 0.0
H1363 H 0.57274 0.87444 0.853 0.0
H1364 H 0.58465 0.79526 0.80208 0.0
H1365 H 0.59102 0.82558 0.75906 0.0
C1366 C 0.59721 0.88519 0.75841 0.0
C1367 C 0.60118 0.91616 0.76162 0.0
C1368 C 0.58693 0.8678 0.78133 0.0
C1369 C 0.59152 0.93019 0.78668 0.0
C1370 C 0.58096 0.913 0.80964 0.0
C1371 C 0.57543 0.86389 0.83224 0.0
C1372 C 0.57876 0.83279 0.8306 0.0
C1373 C 0.58006 0.88165 0.8077 0.0
C1374 C 0.58244 0.81923 0.80373 0.0
C1375 C 0.58626 0.83657 0.77919 0.0
H1376 H 0.42738 0.63013 0.30135 0.0
H1377 H 0.46329 0.54739 0.33063 0.0
H1378 H 0.50721 0.57366 0.34631 0.0
H1379 H 0.53041 0.62132 0.36094 0.0
H1380 H 0.49509 0.70424 0.33096 0.0
H1381 H 0.45636 0.67691 0.30617 0.0
C1382 C 0.44542 0.61774 0.30982 0.0
C1383 C 0.44198 0.58699 0.31522 0.0
C1384 C 0.47043 0.6332 0.31956 0.0
C1385 C 0.46543 0.57117 0.32647 0.0
C1386 C 0.49043 0.58624 0.33579 0.0
C1387 C 0.51458 0.63333 0.34847 0.0
C1388 C 0.51522 0.66473 0.34846 0.0
C1389 C 0.49237 0.61747 0.33405 0.0
C1390 C 0.49493 0.68001 0.33166 0.0
C1391 C 0.47267 0.66441 0.31747 0.0
H1392 H 0.74755 0.58653 0.57249 0.0
H1393 H 0.68498 0.51711 0.55068 0.0
H1394 H 0.6468 0.5542 0.54878 0.0
H1395 H 0.63037 0.60497 0.56016 0.0
H1396 H 0.69295 0.67279 0.58593 0.0
H1397 H 0.73211 0.63766 0.57929 0.0
C1398 C 0.7256 0.57945 0.56712 0.0
C1399 C 0.71895 0.54901 0.56243 0.0
C1400 C 0.70377 0.6006 0.56699 0.0
C1401 C 0.69059 0.54038 0.55468 0.0
C1402 C 0.66875 0.56155 0.55373 0.0
C1403 C 0.65265 0.61216 0.56372 0.0
C1404 C 0.65886 0.64123 0.57381 0.0
C1405 C 0.67494 0.59153 0.56086 0.0
C1406 C 0.68773 0.65035 0.57851 0.0
C1407 C 0.71007 0.63031 0.57474 0.0
H1408 H 0.05164 0.85925 0.64053 0.0
H1409 H 0.99079 0.78603 0.6517 0.0
H1410 H 0.95136 0.82124 0.65778 0.0
H1411 H 0.93321 0.87153 0.64538 0.0
H1412 H 0.99493 0.94193 0.62541 0.0
H1413 H 0.03476 0.9101 0.63798 0.0
C1414 C 0.02994 0.85116 0.64574 0.0
C1415 C 0.02388 0.82034 0.64518 0.0
C1416 C 0.0073 0.87137 0.64691 0.0
C1417 C 0.99588 0.80979 0.65204 0.0
C1418 C 0.97324 0.82995 0.65493 0.0
C1419 C 0.95537 0.88006 0.64496 0.0
C1420 C 0.96125 0.90913 0.63475 0.0
C1421 C 0.97842 0.86064 0.65016 0.0
C1422 C 0.98996 0.91992 0.63371 0.0
C1423 C 0.01279 0.90151 0.64057 0.0
H1424 H 0.02608 0.58061 0.14915 0.0
H1425 H 0.07027 0.64847 0.19969 0.0
H1426 H 0.07662 0.61289 0.23851 0.0
H1427 H 0.07663 0.56104 0.25473 0.0
H1428 H 0.03389 0.49231 0.20432 0.0
H1429 H 0.0195 0.52977 0.16906 0.0
C1430 C 0.03642 0.58779 0.16894 0.0
C1431 C 0.04822 0.61696 0.17127 0.0
C1432 C 0.04066 0.56696 0.19103 0.0
C1433 C 0.06144 0.62599 0.19713 0.0
C1434 C 0.06517 0.60564 0.21935 0.0
C1435 C 0.06384 0.55432 0.2362 0.0
C1436 C 0.05696 0.52397 0.23168 0.0
C1437 C 0.05606 0.5758 0.21596 0.0
C1438 C 0.03971 0.51559 0.20806 0.0
C1439 C 0.0316 0.53697 0.18785 0.0
H1440 H 0.19967 0.48438 0.34975 0.0
H1441 H 0.2026 0.54452 0.27736 0.0
H1442 H 0.25422 0.55382 0.28512 0.0
H1443 H 0.29898 0.54392 0.31174 0.0
H1444 H 0.29561 0.4859 0.38562 0.0
H1445 H 0.24391 0.47655 0.3779 0.0
C1446 C 0.21158 0.49968 0.33583 0.0
C1447 C 0.19732 0.51368 0.31302 0.0
C1448 C 0.24128 0.50511 0.34051 0.0
C1449 C 0.21301 0.53355 0.2952 0.0
C1450 C 0.2426 0.53877 0.2995 0.0
C1451 C 0.28691 0.52919 0.32607 0.0
C1452 C 0.30108 0.51544 0.34905 0.0
C1453 C 0.25703 0.52447 0.32191 0.0
C1454 C 0.28515 0.4967 0.36771 0.0
C1455 C 0.25558 0.49136 0.36334 0.0
H1456 H 0.75176 0.27553 0.51959 0.0
H1457 H 0.66475 0.2859 0.55135 0.0
H1458 H 0.67416 0.33904 0.55904 0.0
H1459 H 0.70599 0.38333 0.55441 0.0
H1460 H 0.79379 0.37344 0.52535 0.0
H1461 H 0.78515 0.31958 0.51866 0.0
C1462 C 0.73506 0.2893 0.52872 0.0
C1463 C 0.70755 0.27664 0.53476 0.0
C1464 C 0.74055 0.32011 0.53303 0.0
C1465 C 0.68613 0.29493 0.54647 0.0
C1466 C 0.69139 0.32545 0.5507 0.0
C1467 C 0.72314 0.36938 0.5464 0.0
C1468 C 0.75028 0.38234 0.53982 0.0
C1469 C 0.71827 0.33841 0.54347 0.0
C1470 C 0.7726 0.36395 0.53024 0.0
C1471 C 0.76769 0.33316 0.52654 0.0
H1472 H 0.79634 0.00558 0.62866 0.0
H1473 H 0.80805 0.92316 0.67515 0.0
H1474 H 0.75655 0.92076 0.68639 0.0
H1475 H 0.7085 0.94098 0.68196 0.0
H1476 H 0.69615 0.02561 0.63971 0.0
H1477 H 0.74767 0.02771 0.62681 0.0
C1478 C 0.78762 0.98727 0.64148 0.0
C1479 C 0.80597 0.96457 0.65108 0.0
C1480 C 0.75793 0.98614 0.6481 0.0
C1481 C 0.79444 0.94101 0.66771 0.0
C1482 C 0.76496 0.93948 0.67394 0.0
C1483 C 0.71693 0.96008 0.67012 0.0
C1484 C 0.69849 0.9832 0.66197 0.0
C1485 C 0.74654 0.96175 0.66403 0.0
C1486 C 0.7099 0.00749 0.64621 0.0
C1487 C 0.73935 0.00878 0.63902 0.0
H1488 H 0.23111 0.87154 0.93512 0.0
H1489 H 0.31756 0.90999 0.93438 0.0
H1490 H 0.33785 0.86014 0.93814 0.0
H1491 H 0.33103 0.80594 0.94551 0.0
H1492 H 0.24457 0.76759 0.94732 0.0
H1493 H 0.22442 0.81687 0.93876 0.0
C1494 C 0.2544 0.86903 0.93575 0.0
C1495 C 0.27274 0.89458 0.93479 0.0
C1496 C 0.26597 0.84021 0.93794 0.0
C1497 C 0.30288 0.8908 0.93528 0.0
C1498 C 0.31453 0.86224 0.93734 0.0
C1499 C 0.30782 0.80819 0.94324 0.0
C1500 C 0.28937 0.78298 0.94695 0.0
C1501 C 0.2963 0.8368 0.9391 0.0
C1502 C 0.2593 0.78652 0.94443 0.0
C1503 C 0.24773 0.81479 0.93979 0.0
H1504 H 0.19364 0.5302 0.83769 0.0
H1505 H 0.20658 0.45184 0.88949 0.0
H1506 H 0.25916 0.45805 0.88454 0.0
H1507 H 0.30129 0.4837 0.86195 0.0
H1508 H 0.2886 0.56493 0.81434 0.0
H1509 H 0.23617 0.56015 0.8214 0.0
C1510 C 0.20811 0.51487 0.84823 0.0
C1511 C 0.19656 0.49051 0.86369 0.0
C1512 C 0.23827 0.51914 0.84601 0.0
C1513 C 0.21523 0.47078 0.8775 0.0
C1514 C 0.24521 0.47426 0.87459 0.0
C1515 C 0.28698 0.50062 0.85373 0.0
C1516 C 0.29851 0.52462 0.83772 0.0
C1517 C 0.25697 0.49805 0.85844 0.0
C1518 C 0.28002 0.54648 0.82704 0.0
C1519 C 0.25009 0.54362 0.83086 0.0
H1520 H 0.79209 0.62386 0.0572 0.0
H1521 H 0.70501 0.62778 0.02453 0.0
H1522 H 0.71217 0.68108 0.01347 0.0
H1523 H 0.74487 0.7257 0.00988 0.0
H1524 H 0.83115 0.72127 0.04503 0.0
H1525 H 0.82238 0.66945 0.05894 0.0
C1526 C 0.77471 0.63642 0.04766 0.0
C1527 C 0.74831 0.62188 0.04113 0.0
C1528 C 0.77875 0.6671 0.04204 0.0
C1529 C 0.72566 0.63852 0.02946 0.0
C1530 C 0.72973 0.66898 0.0232 0.0
C1531 C 0.76144 0.71362 0.02125 0.0
C1532 C 0.78872 0.72735 0.02615 0.0
C1533 C 0.75636 0.68347 0.02906 0.0
C1534 C 0.81001 0.71127 0.04081 0.0
C1535 C 0.80512 0.68149 0.04862 0.0
H1536 H 0.79878 0.9866 0.1619 0.0
H1537 H 0.80904 0.08244 0.16961 0.0
H1538 H 0.75668 0.08764 0.17102 0.0
H1539 H 0.70796 0.06512 0.17082 0.0
H1540 H 0.69679 0.97005 0.15923 0.0
H1541 H 0.74951 0.96413 0.1594 0.0
C1542 C 0.78952 0.00863 0.16331 0.0
C1543 C 0.80774 0.0341 0.16561 0.0
C1544 C 0.75928 0.01148 0.16427 0.0
C1545 C 0.79544 0.06249 0.16775 0.0
C1546 C 0.76551 0.06549 0.16884 0.0
C1547 C 0.71717 0.04307 0.16899 0.0
C1548 C 0.69883 0.01793 0.16586 0.0
C1549 C 0.74727 0.04013 0.16759 0.0
C1550 C 0.71075 0.98956 0.1623 0.0
C1551 C 0.74079 0.98626 0.16207 0.0
H1552 H 0.16447 0.20669 0.45607 0.0
H1553 H 0.25267 0.23967 0.46224 0.0
H1554 H 0.27026 0.18927 0.4531 0.0
H1555 H 0.26045 0.13487 0.44725 0.0
H1556 H 0.17186 0.10238 0.44358 0.0
H1557 H 0.15472 0.15333 0.44805 0.0
C1558 C 0.18758 0.20311 0.4547 0.0
C1559 C 0.20719 0.22715 0.4596 0.0
C1560 C 0.19752 0.17387 0.4505 0.0
C1561 C 0.23705 0.22173 0.45828 0.0
C1562 C 0.24713 0.1928 0.45336 0.0
C1563 C 0.2374 0.13895 0.44741 0.0
C1564 C 0.21752 0.11463 0.44528 0.0
C1565 C 0.22756 0.16852 0.45018 0.0
C1566 C 0.18772 0.12048 0.44536 0.0
C1567 C 0.17785 0.14971 0.44779 0.0
H1568 H 0.1992 0.38517 0.47925 0.0
H1569 H 0.17869 0.35727 0.56555 0.0
H1570 H 0.17731 0.40915 0.58102 0.0
H1571 H 0.18438 0.46244 0.57099 0.0
H1572 H 0.2141 0.49055 0.48741 0.0
H1573 H 0.20804 0.4393 0.4696 0.0
C1574 C 0.19429 0.39054 0.50138 0.0
C1575 C 0.18882 0.36726 0.52113 0.0
C1576 C 0.19487 0.42068 0.51056 0.0
C1577 C 0.1829 0.37458 0.54983 0.0
C1578 C 0.18203 0.40436 0.55874 0.0
C1579 C 0.18963 0.45746 0.54889 0.0
C1580 C 0.20023 0.48036 0.5308 0.0
C1581 C 0.1883 0.42759 0.53941 0.0
C1582 C 0.20609 0.47339 0.50196 0.0
C1583 C 0.20288 0.44398 0.4918 0.0
H1584 H 0.05413 0.52591 0.88475 0.0
H1585 H 0.03863 0.43061 0.88917 0.0
H1586 H 0.98649 0.43813 0.89148 0.0
H1587 H 0.94478 0.47189 0.8888 0.0
H1588 H 0.9606 0.56727 0.88827 0.0
H1589 H 0.01273 0.55974 0.88814 0.0
C1590 C 0.03931 0.50688 0.88673 0.0
C1591 C 0.05023 0.47779 0.88682 0.0
C1592 C 0.00927 0.51138 0.88862 0.0
C1593 C 0.03081 0.45328 0.8894 0.0
C1594 C 0.00092 0.45753 0.8905 0.0
C1595 C 0.9597 0.49094 0.88914 0.0
C1596 C 0.94883 0.52004 0.88862 0.0
C1597 C 0.98983 0.48647 0.88966 0.0
C1598 C 0.9684 0.5446 0.88906 0.0
C1599 C 0.99827 0.54034 0.88877 0.0
H1600 H 0.6871 0.46084 0.06636 0.0
H1601 H 0.70433 0.49189 0.98038 0.0
H1602 H 0.69738 0.44096 0.96208 0.0
H1603 H 0.69125 0.38655 0.97125 0.0
H1604 H 0.68177 0.35584 0.05853 0.0
H1605 H 0.68186 0.40723 0.07562 0.0
C1606 C 0.68933 0.45658 0.04362 0.0
C1607 C 0.69672 0.48018 0.02491 0.0
C1608 C 0.6873 0.42699 0.03352 0.0
C1609 C 0.69883 0.47415 0.99536 0.0
C1610 C 0.69511 0.44495 0.98489 0.0
C1611 C 0.68909 0.39119 0.99397 0.0
C1612 C 0.68646 0.3673 0.01354 0.0
C1613 C 0.6902 0.42101 0.00388 0.0
C1614 C 0.68393 0.37367 0.04295 0.0
C1615 C 0.68385 0.40314 0.05279 0.0
H1616 H 0.96347 0.04769 0.1725 0.0
H1617 H 0.94413 0.95298 0.17065 0.0
H1618 H 0.99558 0.94269 0.16369 0.0
H1619 H 0.04609 0.96052 0.16322 0.0
H1620 H 0.06594 0.05463 0.17273 0.0
H1621 H 0.01413 0.06561 0.17134 0.0
C1622 C 0.97055 0.02485 0.16995 0.0
C1623 C 0.95028 1.00105 0.17169 0.0
C1624 C 0.00017 0.01916 0.16756 0.0
C1625 C 0.95953 0.97153 0.16919 0.0
C1626 C 0.98885 0.96571 0.1653 0.0
C1627 C 0.03903 0.98348 0.16434 0.0
C1628 C 0.05957 0.00685 0.16768 0.0
C1629 C 0.00939 0.98932 0.16514 0.0
C1630 C 0.05034 0.03642 0.16995 0.0
C1631 C 0.02082 0.04262 0.16926 0.0
H1632 H 0.30418 0.96705 0.43902 0.0
H1633 H 0.26022 0.98777 0.51784 0.0
H1634 H 0.2683 0.93684 0.53527 0.0
H1635 H 0.28383 0.88452 0.52586 0.0
H1636 H 0.31815 0.8634 0.44247 0.0
H1637 H 0.31693 0.91571 0.42868 0.0
C1638 C 0.29613 0.96059 0.45995 0.0
C1639 C 0.28114 0.98129 0.47678 0.0
C1640 C 0.29872 0.93073 0.46881 0.0
C1641 C 0.27173 0.97237 0.50427 0.0
C1642 C 0.27611 0.94311 0.51415 0.0
C1643 C 0.29111 0.8915 0.50474 0.0
C1644 C 0.30143 0.86998 0.48535 0.0
C1645 C 0.28886 0.92176 0.49625 0.0
C1646 C 0.31032 0.8793 0.45791 0.0
C1647 C 0.30967 0.90936 0.44997 0.0
H1648 H 0.44417 0.48621 0.82885 0.0
H1649 H 0.45503 0.5819 0.8356 0.0
H1650 H 0.50781 0.57686 0.83647 0.0
H1651 H 0.55072 0.54532 0.83272 0.0
H1652 H 0.5397 0.45033 0.81957 0.0
H1653 H 0.48703 0.45485 0.82355 0.0
C1654 C 0.45814 0.50588 0.83103 0.0
C1655 C 0.44588 0.53438 0.8328 0.0
C1656 C 0.48835 0.50286 0.83003 0.0
C1657 C 0.4641 0.55978 0.83462 0.0
C1658 C 0.49421 0.55688 0.83498 0.0
C1659 C 0.53676 0.52557 0.8311 0.0
C1660 C 0.54899 0.49743 0.82632 0.0
C1661 C 0.50656 0.52856 0.83236 0.0
C1662 C 0.53071 0.47215 0.82345 0.0
C1663 C 0.50066 0.47475 0.82574 0.0
H1664 H 0.77848 0.88327 0.01628 0.0
H1665 H 0.8301 0.87034 0.94055 0.0
H1666 H 0.83467 0.92414 0.93362 0.0
H1667 H 0.8213 0.97457 0.94676 0.0
H1668 H 0.76193 0.98823 0.01663 0.0
H1669 H 0.7642 0.93509 0.02919 0.0
C1670 C 0.79082 0.89241 0.99842 0.0
C1671 C 0.80407 0.87289 0.97897 0.0
C1672 C 0.79221 0.92363 0.99377 0.0
C1673 C 0.81971 0.88484 0.95572 0.0
C1674 C 0.82243 0.91567 0.95183 0.0
C1675 C 0.80896 0.96609 0.96489 0.0
C1676 C 0.79108 0.98537 0.98036 0.0
C1677 C 0.80845 0.93524 0.97044 0.0
C1678 C 0.7758 0.97393 0.0042 0.0
C1679 C 0.7768 0.94342 0.01117 0.0
H1680 H 0.45277 0.99903 0.15713 0.0
H1681 H 0.45147 0.02486 0.06798 0.0
H1682 H 0.50463 0.02621 0.06726 0.0
H1683 H 0.55104 0.01683 0.09143 0.0
H1684 H 0.55106 0.98696 0.17952 0.0
H1685 H 0.49837 0.98847 0.18059 0.0
C1686 C 0.46402 0.00566 0.13765 0.0
C1687 C 0.44825 0.01227 0.11269 0.0
C1688 C 0.49424 0.00467 0.13701 0.0
C1689 C 0.46321 0.02005 0.0875 0.0
C1690 C 0.49352 0.02047 0.08704 0.0
C1691 C 0.53951 0.01055 0.11083 0.0
C1692 C 0.55501 0.00214 0.13548 0.0
C1693 C 0.50921 0.01216 0.11151 0.0
C1694 C 0.53972 0.99351 0.16026 0.0
C1695 C 0.5096 0.99481 0.16104 0.0
H1696 H 0.38949 0.21146 0.21661 0.0
H1697 H 0.40566 0.30668 0.21266 0.0
H1698 H 0.40107 0.31008 0.2649 0.0
H1699 H 0.39896 0.28501 0.31174 0.0
H1700 H 0.39022 0.18896 0.31577 0.0
H1701 H 0.38486 0.18668 0.2635 0.0
C1702 C 0.3913 0.23304 0.22717 0.0
C1703 C 0.39771 0.25885 0.2109 0.0
C1704 C 0.39013 0.23452 0.25724 0.0
C1705 C 0.40067 0.28657 0.22481 0.0
C1706 C 0.39813 0.28847 0.25464 0.0
C1707 C 0.395 0.26368 0.3012 0.0
C1708 C 0.39455 0.23719 0.31747 0.0
C1709 C 0.39373 0.26248 0.27112 0.0
C1710 C 0.39033 0.2096 0.30359 0.0
C1711 C 0.38748 0.20832 0.27375 0.0
H1712 H 0.13792 0.75187 0.28255 0.0
H1713 H 0.05382 0.71302 0.30212 0.0
H1714 H 0.04582 0.70219 0.25151 0.0
H1715 H 0.06131 0.70648 0.20154 0.0
H1716 H 0.14653 0.74139 0.18152 0.0
H1717 H 0.15531 0.75199 0.23256 0.0
C1718 C 0.11808 0.74053 0.2758 0.0
C1719 C 0.09643 0.73345 0.29605 0.0
C1720 C 0.11349 0.73457 0.2466 0.0
C1721 C 0.07087 0.71868 0.287 0.0
C1722 C 0.06611 0.71278 0.25802 0.0
C1723 C 0.08162 0.71683 0.20841 0.0
C1724 C 0.10295 0.72413 0.18807 0.0
C1725 C 0.08693 0.72135 0.23763 0.0
C1726 C 0.12965 0.73634 0.19701 0.0
C1727 C 0.13472 0.74207 0.2261 0.0
H1728 H 0.4345 0.29655 0.4655 0.0
H1729 H 0.37313 0.22264 0.46847 0.0
H1730 H 0.36973 0.22839 0.52095 0.0
H1731 H 0.38524 0.25498 0.566 0.0
H1732 H 0.4532 0.32264 0.56037 0.0
H1733 H 0.4539 0.31787 0.50874 0.0
C1734 C 0.42075 0.28111 0.47732 0.0
C1735 C 0.40432 0.259 0.4629 0.0
C1736 C 0.42035 0.28334 0.50715 0.0
C1737 C 0.38606 0.23988 0.47901 0.0
C1738 C 0.38425 0.24309 0.50899 0.0
C1739 C 0.40036 0.2684 0.55341 0.0
C1740 C 0.41874 0.28962 0.56713 0.0
C1741 C 0.40151 0.26473 0.52335 0.0
C1742 C 0.43851 0.30651 0.55059 0.0
C1743 C 0.43893 0.30384 0.52093 0.0
H1744 H 0.09362 0.68676 0.69413 0.0
H1745 H 0.11165 0.78177 0.69199 0.0
H1746 H 0.11522 0.78298 0.74414 0.0
H1747 H 0.10494 0.75837 0.79028 0.0
H1748 H 0.08997 0.663 0.7929 0.0
H1749 H 0.09414 0.6603 0.74066 0.0
C1750 C 0.09904 0.7075 0.70515 0.0
C1751 C 0.10187 0.73418 0.6895 0.0
C1752 C 0.10147 0.70798 0.73515 0.0
C1753 C 0.1093 0.76095 0.70373 0.0
C1754 C 0.11119 0.76172 0.73355 0.0
C1755 C 0.10364 0.73694 0.77938 0.0
C1756 C 0.09699 0.71099 0.79504 0.0
C1757 C 0.10616 0.73559 0.74948 0.0
C1758 C 0.09533 0.68322 0.78104 0.0
C1759 C 0.09736 0.68172 0.75121 0.0
H1760 H 0.04771 0.68304 0.94927 0.0
H1761 H 0.11508 0.75017 0.93799 0.0
H1762 H 0.11793 0.7566 0.99036 0.0
H1763 H 0.10149 0.74146 0.03924 0.0
H1764 H 0.02904 0.67925 0.04736 0.0
H1765 H 0.02695 0.67365 0.99569 0.0
C1766 C 0.06273 0.69951 0.95788 0.0
C1767 C 0.08114 0.71606 0.93967 0.0
C1768 C 0.06301 0.70418 0.98741 0.0
C1769 C 0.10071 0.73704 0.95163 0.0
C1770 C 0.10222 0.7408 0.98149 0.0
C1771 C 0.08498 0.72707 0.02962 0.0
C1772 C 0.06592 0.71019 0.04718 0.0
C1773 C 0.08343 0.72437 -0.0004 0.0
C1774 C 0.04434 0.69204 0.03446 0.0
C1775 C 0.04315 0.68872 0.00487 0.0
H1776 H 0.53314 0.74365 0.2957 0.0
H1777 H 0.62375 0.76705 0.3032 0.0
H1778 H 0.62983 0.7609 0.25123 0.0
H1779 H 0.60915 0.74839 0.20387 0.0
H1780 H 0.51916 0.7212 0.19741 0.0
H1781 H 0.51317 0.72844 0.24896 0.0
C1782 C 0.55406 0.74797 0.28578 0.0
C1783 C 0.57782 0.7567 0.30287 0.0
C1784 C 0.55759 0.74299 0.25628 0.0
C1785 C 0.60511 0.76099 0.29018 0.0
C1786 C 0.60859 0.75719 0.2606 0.0
C1787 C 0.58831 0.74371 0.2138 0.0
C1788 C 0.56463 0.73428 0.19679 0.0
C1789 C 0.58501 0.74796 0.24347 0.0
C1790 C 0.5378 0.72826 0.21 0.0
C1791 C 0.53427 0.7327 0.23944 0.0
H1792 H 0.37081 0.28601 0.06366 0.0
H1793 H 0.40118 0.19531 0.06032 0.0
H1794 H 0.39808 0.19557 0.00853 0.0
H1795 H 0.38984 0.22201 0.96409 0.0
H1796 H 0.35235 0.3093 0.96515 0.0
H1797 H 0.35535 0.31016 0.01787 0.0
C1798 C 0.37632 0.26621 0.05158 0.0
C1799 C 0.38709 0.24102 0.06595 0.0
C1800 C 0.37362 0.26604 0.02139 0.0
C1801 C 0.39361 0.21534 0.04996 0.0
C1802 C 0.39184 0.21538 0.02022 0.0
C1803 C 0.38212 0.24116 0.97573 0.0
C1804 C 0.37131 0.26568 0.96078 0.0
C1805 C 0.38254 0.24078 0.00572 0.0
C1806 C 0.36105 0.29023 0.9763 0.0
C1807 C 0.36269 0.29067 0.00639 0.0
H1808 H 0.29302 0.07417 0.67123 0.0
H1809 H 0.30717 0.98399 0.64236 0.0
H1810 H 0.25486 0.97659 0.63521 0.0
H1811 H 0.20489 0.99543 0.63959 0.0
H1812 H 0.19221 0.08369 0.67446 0.0
H1813 H 0.2443 0.09155 0.67839 0.0
C1814 C 0.28482 0.05275 0.66353 0.0
C1815 C 0.30399 0.02956 0.65765 0.0
C1816 C 0.25491 0.04808 0.66133 0.0
C1817 C 0.29287 0.00224 0.64702 0.0
C1818 C 0.26296 0.9979 0.64326 0.0
C1819 C 0.21359 0.0162 0.6484 0.0
C1820 C 0.1947 0.0389 0.65684 0.0
C1821 C 0.24373 0.02051 0.65092 0.0
C1822 C 0.20621 0.06572 0.66814 0.0
C1823 C 0.23603 0.07039 0.67008 0.0
H1824 H 0.74215 0.2301 0.96756 0.0
H1825 H 0.65811 0.21802 0.92836 0.0
H1826 H 0.66765 0.16514 0.92034 0.0
H1827 H 0.69834 0.12112 0.92816 0.0
H1828 H 0.7824 0.13377 0.96715 0.0
H1829 H 0.77416 0.18725 0.97193 0.0
C1830 C 0.7262 0.21616 0.95652 0.0
C1831 C 0.69945 0.22822 0.94852 0.0
C1832 C 0.73152 0.18551 0.95263 0.0
C1833 C 0.67897 0.20952 0.93459 0.0
C1834 C 0.68427 0.1791 0.93031 0.0
C1835 C 0.71479 0.13561 0.93776 0.0
C1836 C 0.74081 0.12334 0.9476 0.0
C1837 C 0.71013 0.16663 0.94 0.0
C1838 C 0.76211 0.14254 0.95953 0.0
C1839 C 0.75747 0.1732 0.96219 0.0
H1840 H 0.78809 0.46239 0.3051 0.0
H1841 H 0.80588 0.51498 0.3808 0.0
H1842 H 0.75443 0.51166 0.39421 0.0
H1843 H 0.70414 0.49427 0.38341 0.0
H1844 H 0.68751 0.44573 0.3048 0.0
H1845 H 0.73877 0.44722 0.29341 0.0
C1846 C 0.78082 0.47277 0.32479 0.0
C1847 C 0.8007 0.48838 0.34228 0.0
C1848 C 0.75135 0.47176 0.33161 0.0
C1849 C 0.79089 0.50254 0.36722 0.0
C1850 C 0.76152 0.50074 0.37477 0.0
C1851 C 0.7118 0.48412 0.36378 0.0
C1852 C 0.69201 0.46967 0.34513 0.0
C1853 C 0.74149 0.48556 0.35697 0.0
C1854 C 0.70218 0.45685 0.31964 0.0
C1855 C 0.73156 0.45761 0.31308 0.0
H1856 H 0.29908 0.62105 0.56841 0.0
H1857 H 0.21164 0.62893 0.53734 0.0
H1858 H 0.2196 0.68251 0.52957 0.0
H1859 H 0.2522 0.72671 0.52913 0.0
H1860 H 0.33942 0.71924 0.56111 0.0
H1861 H 0.3305 0.66638 0.5717 0.0
C1862 C 0.28184 0.63452 0.55984 0.0
C1863 C 0.25495 0.62091 0.55304 0.0
C1864 C 0.28639 0.66555 0.55595 0.0
C1865 C 0.23261 0.63878 0.54255 0.0
C1866 C 0.23712 0.66948 0.53819 0.0
C1867 C 0.26907 0.71374 0.53904 0.0
C1868 C 0.29647 0.72709 0.54426 0.0
C1869 C 0.26397 0.6831 0.54463 0.0
C1870 C 0.31808 0.70971 0.55693 0.0
C1871 C 0.3131 0.67932 0.56274 0.0
H1872 H 0.21076 0.01567 0.15294 0.0
H1873 H 0.19684 0.92009 0.14829 0.0
H1874 H 0.24901 0.91285 0.14487 0.0
H1875 H 0.2987 0.93385 0.14285 0.0
H1876 H 0.31224 0.02943 0.14564 0.0
H1877 H 0.26019 0.03658 0.15114 0.0
C1878 C 0.21912 0.99331 0.15067 0.0
C1879 C 0.20004 0.96848 0.15049 0.0
C1880 C 0.24911 0.9893 0.14923 0.0
C1881 C 0.21119 0.93958 0.14815 0.0
C1882 C 0.24099 0.9354 0.1465 0.0
C1883 C 0.29018 0.95612 0.14542 0.0
C1884 C 0.30902 0.98108 0.14445 0.0
C1885 C 0.26018 0.96008 0.1473 0.0
C1886 C 0.29793 0.00995 0.14681 0.0
C1887 C 0.26823 0.01404 0.1496 0.0
H1888 H 0.73306 0.86958 0.43873 0.0
H1889 H 0.82093 0.90417 0.43657 0.0
H1890 H 0.83907 0.85325 0.43995 0.0
H1891 H 0.82998 0.79913 0.44624 0.0
H1892 H 0.74205 0.76483 0.44988 0.0
H1893 H 0.72399 0.81529 0.44264 0.0
C1894 C 0.7562 0.86604 0.43897 0.0
C1895 C 0.77559 0.89082 0.4376 0.0
C1896 C 0.76648 0.83666 0.44093 0.0
C1897 C 0.8055 0.88564 0.43772 0.0
C1898 C 0.81589 0.85647 0.43956 0.0
C1899 C 0.80685 0.80253 0.44476 0.0
C1900 C 0.7874 0.77803 0.44836 0.0
C1901 C 0.79659 0.83181 0.44142 0.0
C1902 C 0.75752 0.78313 0.44695 0.0
C1903 C 0.74717 0.81206 0.44306 0.0
H1904 H 0.79859 0.47578 0.84312 0.0
H1905 H 0.79513 0.55147 0.90002 0.0
H1906 H 0.74244 0.5529 0.89446 0.0
H1907 H 0.69788 0.53543 0.86913 0.0
H1908 H 0.70098 0.4562 0.81674 0.0
H1909 H 0.75309 0.45293 0.82496 0.0
C1910 C 0.78611 0.49207 0.85479 0.0
C1911 C 0.80048 0.51359 0.87174 0.0
C1912 C 0.75581 0.49219 0.85212 0.0
C1913 C 0.78433 0.53462 0.88691 0.0
C1914 C 0.75426 0.53556 0.88359 0.0
C1915 C 0.70998 0.51714 0.86014 0.0
C1916 C 0.69588 0.49614 0.84231 0.0
C1917 C 0.73983 0.5149 0.86566 0.0
C1918 C 0.71153 0.47245 0.83072 0.0
C1919 C 0.74131 0.47068 0.83525 0.0
H1920 H 0.18521 0.30284 0.01649 0.0
H1921 H 0.27335 0.27333 0.02195 0.0
H1922 H 0.2894 0.3238 0.03608 0.0
H1923 H 0.27847 0.37706 0.04474 0.0
H1924 H 0.19024 0.40604 0.03703 0.0
H1925 H 0.17428 0.35514 0.02563 0.0
C1926 C 0.2079 0.30724 0.02123 0.0
C1927 C 0.228 0.2842 0.01842 0.0
C1928 C 0.21703 0.33642 0.02851 0.0
C1929 C 0.25737 0.29055 0.02419 0.0
C1930 C 0.26658 0.31948 0.03208 0.0
C1931 C 0.25576 0.37223 0.04054 0.0
C1932 C 0.23562 0.39546 0.04165 0.0
C1933 C 0.24665 0.34273 0.03388 0.0
C1934 C 0.20626 0.38873 0.03622 0.0
C1935 C 0.19706 0.35955 0.02979 0.0
H1936 H 0.28014 0.53395 0.9938 0.0
H1937 H 0.32626 0.54043 0.07415 0.0
H1938 H 0.33379 0.59407 0.06691 0.0
H1939 H 0.32397 0.64 0.0395 0.0
H1940 H 0.28283 0.63295 0.95679 0.0
H1941 H 0.27629 0.57882 0.9633 0.0
C1942 C 0.29236 0.54694 0.00947 0.0
C1943 C 0.30199 0.53316 0.03485 0.0
C1944 C 0.29697 0.57785 0.005 0.0
C1945 C 0.31815 0.55041 0.05465 0.0
C1946 C 0.32234 0.5812 0.05062 0.0
C1947 C 0.31369 0.62657 0.0229 0.0
C1948 C 0.30345 0.64043 0.99792 0.0
C1949 C 0.31115 0.59531 0.02627 0.0
C1950 C 0.29065 0.62272 0.97631 0.0
C1951 C 0.28699 0.5918 0.98 0.0
H1952 H 0.7871 0.52374 0.48887 0.0
H1953 H 0.82687 0.5345 0.57213 0.0
H1954 H 0.83162 0.58831 0.56437 0.0
H1955 H 0.82079 0.63286 0.53569 0.0
H1956 H 0.78585 0.62233 0.45054 0.0
H1957 H 0.78254 0.56794 0.45735 0.0
C1958 C 0.79739 0.53773 0.50508 0.0
C1959 C 0.80604 0.52503 0.53135 0.0
C1960 C 0.80036 0.56881 0.50036 0.0
C1961 C 0.81964 0.54359 0.5519 0.0
C1962 C 0.8222 0.57448 0.54756 0.0
C1963 C 0.81262 0.61867 0.51857 0.0
C1964 C 0.80318 0.6316 0.4928 0.0
C1965 C 0.8119 0.58742 0.52223 0.0
C1966 C 0.79306 0.61287 0.47063 0.0
C1967 C 0.79123 0.58179 0.47451 0.0
H1968 H 0.17372 0.12651 0.97444 0.0
H1969 H 0.26456 0.13936 0.99245 0.0
H1970 H 0.2709 0.08506 0.99338 0.0
H1971 H 0.25144 0.03438 0.98512 0.0
H1972 H 0.16227 0.02169 0.9598 0.0
H1973 H 0.15397 0.07516 0.96678 0.0
C1974 C 0.19477 0.11724 0.97885 0.0
C1975 C 0.21864 0.13661 0.98363 0.0
C1976 C 0.19836 0.08602 0.97842 0.0
C1977 C 0.24594 0.12468 0.9889 0.0
C1978 C 0.2495 0.09369 0.98953 0.0
C1979 C 0.22993 0.04311 0.98203 0.0
C1980 C 0.20736 0.02397 0.97228 0.0
C1981 C 0.22594 0.07415 0.98399 0.0
C1982 C 0.17987 0.03588 0.9676 0.0
C1983 C 0.17525 0.06652 0.97121 0.0
H1984 H 0.66533 0.11655 0.48128 0.0
H1985 H 0.74468 0.12962 0.52843 0.0
H1986 H 0.75547 0.07634 0.52309 0.0
H1987 H 0.74465 0.02752 0.50014 0.0
H1988 H 0.66515 0.01526 0.45255 0.0
H1989 H 0.65166 0.06648 0.46349 0.0
C1990 C 0.68474 0.10755 0.4907 0.0
C1991 C 0.70431 0.12674 0.50505 0.0
C1992 C 0.69068 0.07705 0.4875 0.0
C1993 C 0.72934 0.11504 0.51736 0.0
C1994 C 0.7355 0.08466 0.51422 0.0
C1995 C 0.72397 0.03576 0.49291 0.0
C1996 C 0.70597 0.0176 0.47541 0.0
C1997 C 0.71663 0.06557 0.49875 0.0
C1998 C 0.67939 0.02877 0.466 0.0
C1999 C 0.67176 0.05815 0.47205 0.0
H2000 H 0.59906 0.74432 0.80196 0.0
H2001 H 0.69156 0.73635 0.80826 0.0
H2002 H 0.69476 0.73025 0.75593 0.0
H2003 H 0.67079 0.72864 0.70817 0.0
H2004 H 0.57909 0.74446 0.70282 0.0
H2005 H 0.57612 0.74734 0.75489 0.0
C2006 C 0.61989 0.74098 0.79187 0.0
C2007 C 0.64496 0.74012 0.80883 0.0
C2008 C 0.62172 0.73972 0.76189 0.0
C2009 C 0.67193 0.7365 0.79555 0.0
C2010 C 0.67375 0.73334 0.76568 0.0
C2011 C 0.65028 0.73311 0.71845 0.0
C2012 C 0.62521 0.73639 0.70162 0.0
C2013 C 0.64878 0.73531 0.74857 0.0
C2014 C 0.59877 0.74221 0.7152 0.0
C2015 C 0.59696 0.7435 0.74502 0.0
H2016 H 0.91657 0.21461 0.70028 0.0
H2017 H 0.9117 0.31013 0.69043 0.0
H2018 H 0.91266 0.31645 0.7427 0.0
H2019 H 0.91897 0.29504 0.79063 0.0
H2020 H 0.93054 0.20017 0.80033 0.0
H2021 H 0.92254 0.19302 0.74871 0.0
C2022 C 0.91524 0.23669 0.70978 0.0
C2023 C 0.91365 0.26191 0.69193 0.0
C2024 C 0.91709 0.24013 0.73969 0.0
C2025 C 0.91267 0.29052 0.70403 0.0
C2026 C 0.91328 0.29408 0.73381 0.0
C2027 C 0.9191 0.27272 0.78153 0.0
C2028 C 0.92489 0.24806 0.7992 0.0
C2029 C 0.91598 0.26908 0.75179 0.0
C2030 C 0.92586 0.21938 0.78708 0.0
C2031 C 0.92143 0.21535 0.75762 0.0
H2032 H 0.5737 0.70912 0.04226 0.0
H2033 H 0.6557 0.74752 0.06848 0.0
H2034 H 0.67113 0.75117 0.01823 0.0
H2035 H 0.6579 0.75115 0.96687 0.0
H2036 H 0.57184 0.72278 0.94179 0.0
H2037 H 0.56077 0.70827 0.99128 0.0
C2038 C 0.59514 0.71767 0.03689 0.0
C2039 C 0.61372 0.72777 0.0588 0.0
C2040 C 0.60265 0.72231 0.00804 0.0
C2041 C 0.64133 0.73919 0.0518 0.0
C2042 C 0.64993 0.74166 0.02311 0.0
C2043 C 0.63695 0.74129 0.97231 0.0
C2044 C 0.61569 0.73785 0.95094 0.0
C2045 C 0.63028 0.73451 0.00103 0.0
C2046 C 0.58842 0.72564 0.95807 0.0
C2047 C 0.58214 0.71728 0.98628 0.0
H2048 H 0.92348 0.25142 0.29552 0.0
H2049 H 0.83031 0.25233 0.29777 0.0
H2050 H 0.82914 0.26443 0.24634 0.0
H2051 H 0.85512 0.27462 0.20072 0.0
H2052 H 0.94818 0.26811 0.19847 0.0
H2053 H 0.94893 0.25752 0.24977 0.0
C2054 C 0.90294 0.25458 0.28476 0.0
C2055 C 0.87704 0.25177 0.30037 0.0
C2056 C 0.90247 0.25997 0.25513 0.0
C2057 C 0.85051 0.25494 0.28615 0.0
C2058 C 0.84987 0.26164 0.25678 0.0
C2059 C 0.8755 0.27058 0.21145 0.0
C2060 C 0.90156 0.2722 0.19579 0.0
C2061 C 0.87576 0.26409 0.24101 0.0
C2062 C 0.9278 0.26678 0.20993 0.0
C2063 C 0.92829 0.26099 0.23934 0.0
H2064 H 0.92352 0.28551 0.53915 0.0
H2065 H 0.8386 0.24768 0.55495 0.0
H2066 H 0.82995 0.24338 0.50322 0.0
H2067 H 0.85004 0.24202 0.45424 0.0
H2068 H 0.9389 0.26944 0.4402 0.0
H2069 H 0.94324 0.28518 0.49035 0.0
C2070 C 0.90293 0.27697 0.53114 0.0
C2071 C 0.88161 0.26712 0.55058 0.0
C2072 C 0.89936 0.27175 0.50166 0.0
C2073 C 0.85507 0.25583 0.54019 0.0
C2074 C 0.85036 0.25293 0.51068 0.0
C2075 C 0.87014 0.25192 0.46216 0.0
C2076 C 0.89413 0.25468 0.44376 0.0
C2077 C 0.87287 0.25947 0.4913 0.0
C2078 C 0.92026 0.26703 0.45417 0.0
C2079 C 0.92268 0.27613 0.48274 0.0
H2080 H 0.34507 0.3062 0.71325 0.0
H2081 H 0.43544 0.28393 0.71782 0.0
H2082 H 0.4321 0.27946 0.76975 0.0
H2083 H 0.40395 0.28183 0.81384 0.0
H2084 H 0.31223 0.29675 0.80995 0.0
H2085 H 0.31572 0.30525 0.75793 0.0
C2086 C 0.36391 0.30007 0.72564 0.0
C2087 C 0.39046 0.29534 0.71163 0.0
C2088 C 0.36174 0.297 0.75566 0.0
C2089 C 0.41468 0.28736 0.72795 0.0
C2090 C 0.41289 0.28513 0.75773 0.0
C2091 C 0.3848 0.28755 0.80169 0.0
C2092 C 0.358 0.28945 0.8157 0.0
C2093 C 0.38666 0.29018 0.77179 0.0
C2094 C 0.33318 0.29578 0.79961 0.0
C2095 C 0.33515 0.30027 0.76989 0.0
H2096 H 0.57959 0.76841 0.55106 0.0
H2097 H 0.65295 0.71056 0.55083 0.0
H2098 H 0.65323 0.71019 0.4984 0.0
H2099 H 0.62996 0.7235 0.45244 0.0
H2100 H 0.56246 0.78851 0.45246 0.0
H2101 H 0.56266 0.78945 0.50491 0.0
C2102 C 0.59582 0.75613 0.53941 0.0
C2103 C 0.61564 0.73879 0.55455 0.0
C2104 C 0.59686 0.75736 0.50924 0.0
C2105 C 0.63703 0.72345 0.53947 0.0
C2106 C 0.63728 0.72333 0.50951 0.0
C2107 C 0.61579 0.7383 0.46402 0.0
C2108 C 0.59594 0.75553 0.44881 0.0
C2109 C 0.61691 0.73973 0.49415 0.0
C2110 C 0.57787 0.77495 0.46385 0.0
C2111 C 0.57786 0.77539 0.49383 0.0
H2112 H 0.45575 0.51406 0.42191 0.0
H2113 H 0.43978 0.48195 0.33566 0.0
H2114 H 0.49062 0.47364 0.32893 0.0
H2115 H 0.53997 0.47736 0.34583 0.0
H2116 H 0.55756 0.49679 0.43449 0.0
H2117 H 0.50625 0.50939 0.44188 0.0
C2118 C 0.46341 0.50465 0.40195 0.0
C2119 C 0.44374 0.499 0.37931 0.0
C2120 C 0.49312 0.49847 0.39837 0.0
C2121 C 0.45409 0.48655 0.35361 0.0
C2122 C 0.48337 0.48203 0.34948 0.0
C2123 C 0.53252 0.4841 0.36685 0.0
C2124 C 0.55233 0.4866 0.38941 0.0
C2125 C 0.50305 0.48839 0.37144 0.0
C2126 C 0.54258 0.49522 0.41666 0.0
C2127 C 0.51327 0.5021 0.42089 0.0
H2128 H 0.45006 0.97634 0.68254 0.0
H2129 H 0.45446 0.07269 0.68076 0.0
H2130 H 0.50736 0.07179 0.67988 0.0
H2131 H 0.55243 0.04341 0.68342 0.0
H2132 H 0.54802 0.94706 0.68062 0.0
H2133 H 0.49517 0.948 0.67912 0.0
C2134 C 0.46271 0.99703 0.68156 0.0
C2135 C 0.44866 0.0245 0.68194 0.0
C2136 C 0.49306 0.99633 0.68032 0.0
C2137 C 0.46502 0.05127 0.68037 0.0
C2138 C 0.49521 0.05079 0.68002 0.0
C2139 C 0.53981 0.02272 0.68203 0.0
C2140 C 0.55387 0.99525 0.68232 0.0
C2141 C 0.50948 0.02345 0.68053 0.0
C2142 C 0.53751 0.9685 0.68026 0.0
C2143 C 0.50732 0.969 0.6796 0.0
H2144 H 0.05 0.53276 0.32246 0.0
H2145 H 0.04783 0.43659 0.32982 0.0
H2146 H 0.99517 0.43704 0.33619 0.0
H2147 H 0.94965 0.46453 0.33614 0.0
H2148 H 0.95161 0.56015 0.32375 0.0
H2149 H 0.00463 0.56028 0.32302 0.0
C2150 C 0.03808 0.51193 0.326 0.0
C2151 C 0.05276 0.48466 0.32605 0.0
C2152 C 0.00781 0.51233 0.32854 0.0
C2153 C 0.03696 0.45782 0.32991 0.0
C2154 C 0.0069 0.4581 0.33346 0.0
C2155 C 0.9617 0.48547 0.3338 0.0
C2156 C 0.94681 0.51239 0.33034 0.0
C2157 C 0.99206 0.48518 0.33235 0.0
C2158 C 0.96265 0.53923 0.32663 0.0
C2159 C 0.99292 0.53927 0.32614 0.0
H2160 H 0.04592 0.00211 0.5868 0.0
H2161 H 0.0514 0.99494 0.67898 0.0
H2162 H 0.99884 0.99573 0.68251 0.0
H2163 H 0.95142 0.99868 0.65969 0.0
H2164 H 0.94533 0.00563 0.56761 0.0
H2165 H 0.99818 0.00663 0.56394 0.0
C2166 C 0.03562 1.00049 0.60764 0.0
C2167 C 0.05269 0.9988 0.63258 0.0
C2168 C 0.00534 0.00212 0.60965 0.0
C2169 C 0.03889 0.99634 0.65939 0.0
C2170 C 0.00881 0.99729 0.66151 0.0
C2171 C 0.96159 1.00121 0.63885 0.0
C2172 C 0.94447 0.00208 0.61394 0.0
C2173 C 0.99186 1.00071 0.63685 0.0
C2174 C 0.95807 0.00501 0.5871 0.0
C2175 C 0.98826 0.00516 0.58497 0.0
H2176 H 0.91136 0.23891 0.95213 0.0
H2177 H 0.94054 0.33045 0.9396 0.0
H2178 H 0.94078 0.3387 0.9909 0.0
H2179 H 0.93472 0.32002 0.03925 0.0
H2180 H 0.89938 0.23145 0.05384 0.0
H2181 H 0.89996 0.22169 0.00192 0.0
C2182 C 0.91738 0.26072 0.96067 0.0
C2183 C 0.92652 0.28379 0.94194 0.0
C2184 C 0.91681 0.26573 0.99057 0.0
C2185 C 0.93395 0.31204 0.95338 0.0
C2186 C 0.93414 0.31687 0.98282 0.0
C2187 C 0.92706 0.2986 0.03122 0.0
C2188 C 0.91734 0.27642 0.05037 0.0
C2189 C 0.9261 0.2938 0.00158 0.0
C2190 C 0.90719 0.24884 0.03944 0.0
C2191 C 0.90741 0.24332 0.00979 0.0
H2192 H 0.10769 0.71777 0.44324 0.0
H2193 H 0.06677 0.80368 0.44334 0.0
H2194 H 0.07544 0.80881 0.49431 0.0
H2195 H 0.094 0.78931 0.53836 0.0
H2196 H 0.12116 0.69773 0.54319 0.0
H2197 H 0.12049 0.69478 0.49042 0.0
C2198 C 0.10049 0.73741 0.45461 0.0
C2199 C 0.08739 0.76077 0.43943 0.0
C2200 C 0.10371 0.73932 0.48455 0.0
C2201 C 0.07754 0.7858 0.4543 0.0
C2202 C 0.08251 0.78877 0.4835 0.0
C2203 C 0.09926 0.76834 0.52819 0.0
C2204 C 0.10691 0.74355 0.54475 0.0
C2205 C 0.09562 0.76576 0.4987 0.0
C2206 C 0.11505 0.71714 0.53087 0.0
C2207 C 0.11427 0.71535 0.5008 0.0
loop_
_geom_bond_atom_site_label_1
_geom_bond_atom_site_label_2
_geom_bond_distance
_geom_bond_site_symmetry_2
_ccdc_geom_bond_type
Co0 O1 2.216 . S
Co0 O2 2.091 . S
Co0 O4 2.004 . S
Co0 O10 2.021 . S
Co0 O12 2.137 . S
Co0 O13 2.244 . S
O1 Co0 2.216 . S
O1 C8 1.247 . S
O2 Co0 2.091 . S
O2 C8 1.261 . S
C3 O12 1.247 . S
C3 O13 1.272 . S
O4 Co0 2.004 . S
O4 C9 1.259 . S
Co5 O6 2.061 . S
Co5 O11 2.052 . S
Co5 O13 2.135 . S
O6 Co5 2.061 . S
O6 C9 1.235 . S
C7 O10 1.238 . S
C7 O11 1.241 . S
C8 O1 1.247 . S
C8 O2 1.261 . S
C9 O4 1.259 . S
C9 O6 1.235 . S
O10 Co0 2.021 . S
O10 C7 1.238 . S
O11 Co5 2.052 . S
O11 C7 1.241 . S
O12 Co0 2.137 . S
O12 C3 1.247 . S
O13 Co0 2.244 . S
O13 C3 1.272 . S
O13 Co5 2.135 . S
Co14 O15 2.216 . S
Co14 O16 2.091 . S
Co14 O18 2.004 . S
Co14 O24 2.021 . S
Co14 O26 2.137 . S
Co14 O27 2.244 . S
O15 Co14 2.216 . S
O15 C22 1.247 . S
O16 Co14 2.091 . S
O16 C22 1.261 . S
C17 O26 1.247 . S
C17 O27 1.272 . S
O18 Co14 2.004 . S
O18 C23 1.259 . S
Co19 O20 2.061 . S
Co19 O25 2.052 . S
Co19 O27 2.135 . S
O20 Co19 2.061 . S
O20 C23 1.235 . S
C21 O24 1.238 . S
C21 O25 1.241 . S
C22 O15 1.247 . S
C22 O16 1.261 . S
C23 O18 1.259 . S
C23 O20 1.235 . S
O24 Co14 2.021 . S
O24 C21 1.238 . S
O25 Co19 2.052 . S
O25 C21 1.241 . S
O26 Co14 2.137 . S
O26 C17 1.247 . S
O27 Co14 2.244 . S
O27 C17 1.272 . S
O27 Co19 2.135 . S
Co28 O29 2.216 . S
Co28 O30 2.091 . S
Co28 O32 2.004 . S
Co28 O38 2.021 . S
Co28 O40 2.137 . S
Co28 O41 2.244 . S
O29 Co28 2.216 . S
O29 C36 1.247 . S
O30 Co28 2.091 . S
O30 C36 1.261 . S
C31 O40 1.247 . S
C31 O41 1.272 . S
O32 Co28 2.004 . S
O32 C37 1.259 . S
Co33 O34 2.061 . S
Co33 O39 2.052 . S
Co33 O41 2.135 . S
O34 Co33 2.061 . S
O34 C37 1.235 . S
C35 O38 1.238 . S
C35 O39 1.241 . S
C36 O29 1.247 . S
C36 O30 1.261 . S
C37 O32 1.259 . S
C37 O34 1.235 . S
O38 Co28 2.021 . S
O38 C35 1.238 . S
O39 Co33 2.052 . S
O39 C35 1.241 . S
O40 Co28 2.137 . S
O40 C31 1.247 . S
O41 Co28 2.244 . S
O41 C31 1.272 . S
O41 Co33 2.135 . S
Co42 O43 2.216 . S
Co42 O44 2.091 . S
Co42 O46 2.004 1_565 S
Co42 O52 2.021 . S
Co42 O54 2.137 1_565 S
Co42 O55 2.244 1_565 S
O43 Co42 2.216 . S
O43 C50 1.247 . S
O44 Co42 2.091 . S
O44 C50 1.261 . S
C45 O54 1.247 . S
C45 O55 1.272 . S
O46 Co42 2.004 1_545 S
O46 C51 1.259 . S
Co47 O48 2.061 . S
Co47 O53 2.052 . S
Co47 O55 2.135 . S
O48 Co47 2.061 . S
O48 C51 1.235 . S
C49 O52 1.238 . S
C49 O53 1.241 1_565 S
C50 O43 1.247 . S
C50 O44 1.261 . S
C51 O46 1.259 . S
C51 O48 1.235 . S
O52 Co42 2.021 . S
O52 C49 1.238 . S
O53 Co47 2.052 . S
O53 C49 1.241 1_545 S
O54 Co42 2.137 1_545 S
O54 C45 1.247 . S
O55 Co42 2.244 1_545 S
O55 C45 1.272 . S
O55 Co47 2.135 . S
Co56 O57 2.216 . S
Co56 O58 2.091 . S
Co56 O60 2.004 . S
Co56 O66 2.021 . S
Co56 O68 2.137 . S
Co56 O69 2.244 . S
O57 Co56 2.216 . S
O57 C64 1.247 . S
O58 Co56 2.091 . S
O58 C64 1.261 . S
C59 O68 1.247 . S
C59 O69 1.272 . S
O60 Co56 2.004 . S
O60 C65 1.259 . S
Co61 O62 2.061 . S
Co61 O67 2.052 . S
Co61 O69 2.135 . S
O62 Co61 2.061 . S
O62 C65 1.235 . S
C63 O66 1.238 . S
C63 O67 1.241 . S
C64 O57 1.247 . S
C64 O58 1.261 . S
C65 O60 1.259 . S
C65 O62 1.235 . S
O66 Co56 2.021 . S
O66 C63 1.238 . S
O67 Co61 2.052 . S
O67 C63 1.241 . S
O68 Co56 2.137 . S
O68 C59 1.247 . S
O69 Co56 2.244 . S
O69 C59 1.272 . S
O69 Co61 2.135 . S
Co70 O71 2.216 . S
Co70 O72 2.091 . S
Co70 O74 2.004 . S
Co70 O80 2.021 . S
Co70 O82 2.137 . S
Co70 O83 2.244 . S
O71 Co70 2.216 . S
O71 C78 1.247 . S
O72 Co70 2.091 . S
O72 C78 1.261 . S
C73 O82 1.247 . S
C73 O83 1.272 . S
O74 Co70 2.004 . S
O74 C79 1.259 . S
Co75 O76 2.061 . S
Co75 O81 2.052 . S
Co75 O83 2.135 . S
O76 Co75 2.061 . S
O76 C79 1.235 . S
C77 O80 1.238 . S
C77 O81 1.241 . S
C78 O71 1.247 . S
C78 O72 1.261 . S
C79 O74 1.259 . S
C79 O76 1.235 . S
O80 Co70 2.021 . S
O80 C77 1.238 . S
O81 Co75 2.052 . S
O81 C77 1.241 . S
O82 Co70 2.137 . S
O82 C73 1.247 . S
O83 Co70 2.244 . S
O83 C73 1.272 . S
O83 Co75 2.135 . S
Co84 O85 2.216 1_565 S
Co84 O86 2.091 . S
Co84 O88 2.004 . S
Co84 O94 2.021 1_565 S
Co84 O96 2.137 . S
Co84 O97 2.244 1_565 S
O85 Co84 2.216 1_545 S
O85 C92 1.247 1_545 S
O86 Co84 2.091 . S
O86 C92 1.261 . S
C87 O96 1.245 1_545 S
C87 O97 1.273 . S
O88 Co84 2.004 . S
O88 C93 1.259 . S
Co89 O90 2.061 . S
Co89 O95 2.052 . S
Co89 O97 2.135 . S
O90 Co89 2.061 . S
O90 C93 1.235 1_545 S
C91 O94 1.238 . S
C91 O95 1.241 . S
C92 O85 1.247 1_565 S
C92 O86 1.261 . S
C93 O88 1.259 . S
C93 O90 1.235 1_565 S
O94 Co84 2.021 1_545 S
O94 C91 1.238 . S
O95 Co89 2.052 . S
O95 C91 1.241 . S
O96 Co84 2.137 . S
O96 C87 1.245 1_565 S
O97 Co84 2.244 1_545 S
O97 C87 1.273 . S
O97 Co89 2.135 . S
Co98 O99 2.216 . S
Co98 O100 2.091 . S
Co98 O102 2.004 . S
Co98 O108 2.021 . S
Co98 O110 2.137 . S
Co98 O111 2.244 . S
O99 Co98 2.216 . S
O99 C106 1.247 . S
O100 Co98 2.091 . S
O100 C106 1.261 . S
C101 O110 1.247 . S
C101 O111 1.272 . S
O102 Co98 2.004 . S
O102 C107 1.259 . S
Co103 O104 2.061 . S
Co103 O109 2.052 . S
Co103 O111 2.135 . S
O104 Co103 2.061 . S
O104 C107 1.235 . S
C105 O108 1.238 . S
C105 O109 1.241 . S
C106 O99 1.247 . S
C106 O100 1.261 . S
C107 O102 1.259 . S
C107 O104 1.235 . S
O108 Co98 2.021 . S
O108 C105 1.238 . S
O109 Co103 2.052 . S
O109 C105 1.241 . S
O110 Co98 2.137 . S
O110 C101 1.247 . S
O111 Co98 2.244 . S
O111 C101 1.272 . S
O111 Co103 2.135 . S
Co112 O113 2.216 . S
Co112 O114 2.091 . S
Co112 O116 2.004 1_545 S
Co112 O122 2.021 . S
Co112 O124 2.137 1_545 S
Co112 O125 2.244 1_545 S
O113 Co112 2.216 . S
O113 C120 1.247 . S
O114 Co112 2.091 . S
O114 C120 1.261 . S
C115 O124 1.247 . S
C115 O125 1.272 . S
O116 Co112 2.004 1_565 S
O116 C121 1.259 . S
Co117 O118 2.061 . S
Co117 O123 2.052 . S
Co117 O125 2.135 . S
O118 Co117 2.061 . S
O118 C121 1.235 . S
C119 O122 1.238 . S
C119 O123 1.241 1_545 S
C120 O113 1.247 . S
C120 O114 1.261 . S
C121 O116 1.259 . S
C121 O118 1.235 . S
O122 Co112 2.021 . S
O122 C119 1.238 . S
O123 Co117 2.052 . S
O123 C119 1.241 1_565 S
O124 Co112 2.137 1_565 S
O124 C115 1.247 . S
O125 Co112 2.244 1_565 S
O125 C115 1.272 . S
O125 Co117 2.135 . S
Co126 O127 2.216 . S
Co126 O128 2.091 . S
Co126 O130 2.004 . S
Co126 O136 2.021 . S
Co126 O138 2.137 . S
Co126 O139 2.244 . S
O127 Co126 2.216 . S
O127 C134 1.247 . S
O128 Co126 2.091 . S
O128 C134 1.261 . S
C129 O138 1.247 . S
C129 O139 1.272 . S
O130 Co126 2.004 . S
O130 C135 1.259 . S
Co131 O132 2.061 . S
Co131 O137 2.052 . S
Co131 O139 2.135 . S
O132 Co131 2.061 . S
O132 C135 1.235 . S
C133 O136 1.238 . S
C133 O137 1.241 . S
C134 O127 1.247 . S
C134 O128 1.261 . S
C135 O130 1.259 . S
C135 O132 1.235 . S
O136 Co126 2.021 . S
O136 C133 1.238 . S
O137 Co131 2.052 . S
O137 C133 1.241 . S
O138 Co126 2.137 . S
O138 C129 1.247 . S
O139 Co126 2.244 . S
O139 C129 1.272 . S
O139 Co131 2.135 . S
Co140 O141 2.216 . S
Co140 O142 2.091 . S
Co140 O144 2.004 . S
Co140 O150 2.021 1_554 S
Co140 O152 2.137 . S
Co140 O153 2.244 1_554 S
O141 Co140 2.216 . S
O141 C148 1.247 . S
O142 Co140 2.091 . S
O142 C148 1.261 . S
C143 O152 1.247 1_556 S
C143 O153 1.272 . S
O144 Co140 2.004 . S
O144 C149 1.259 1_554 S
Co145 O146 2.061 . S
Co145 O151 2.052 . S
Co145 O153 2.135 . S
O146 Co145 2.061 . S
O146 C149 1.235 . S
C147 O150 1.238 . S
C147 O151 1.241 . S
C148 O141 1.247 . S
C148 O142 1.261 . S
C149 O144 1.259 1_556 S
C149 O146 1.235 . S
O150 Co140 2.021 1_556 S
O150 C147 1.238 . S
O151 Co145 2.052 . S
O151 C147 1.241 . S
O152 Co140 2.137 . S
O152 C143 1.247 1_554 S
O153 Co140 2.244 1_556 S
O153 C143 1.272 . S
O153 Co145 2.135 . S
Co154 O155 2.216 . S
Co154 O156 2.091 . S
Co154 O158 2.004 . S
Co154 O164 2.021 . S
Co154 O166 2.137 . S
Co154 O167 2.244 . S
O155 Co154 2.216 . S
O155 C162 1.247 . S
O156 Co154 2.091 . S
O156 C162 1.261 . S
C157 O166 1.247 . S
C157 O167 1.272 . S
O158 Co154 2.004 . S
O158 C163 1.259 . S
Co159 O160 2.061 . S
Co159 O165 2.052 . S
Co159 O167 2.135 . S
O160 Co159 2.061 . S
O160 C163 1.235 . S
C161 O164 1.238 . S
C161 O165 1.241 . S
C162 O155 1.247 . S
C162 O156 1.261 . S
C163 O158 1.259 . S
C163 O160 1.235 . S
O164 Co154 2.021 . S
O164 C161 1.238 . S
O165 Co159 2.052 . S
O165 C161 1.241 . S
O166 Co154 2.137 . S
O166 C157 1.247 . S
O167 Co154 2.244 . S
O167 C157 1.272 . S
O167 Co159 2.135 . S
Co168 O169 2.216 . S
Co168 O170 2.091 . S
Co168 O172 2.004 . S
Co168 O178 2.021 . S
Co168 O180 2.137 . S
Co168 O181 2.244 . S
O169 Co168 2.216 . S
O169 C176 1.247 . S
O170 Co168 2.091 . S
O170 C176 1.261 . S
C171 O180 1.247 . S
C171 O181 1.272 . S
O172 Co168 2.004 . S
O172 C177 1.259 . S
Co173 O174 2.061 . S
Co173 O179 2.052 . S
Co173 O181 2.135 . S
O174 Co173 2.061 . S
O174 C177 1.235 . S
C175 O178 1.238 . S
C175 O179 1.241 . S
C176 O169 1.247 . S
C176 O170 1.261 . S
C177 O172 1.259 . S
C177 O174 1.235 . S
O178 Co168 2.021 . S
O178 C175 1.238 . S
O179 Co173 2.052 . S
O179 C175 1.241 . S
O180 Co168 2.137 . S
O180 C171 1.247 . S
O181 Co168 2.244 . S
O181 C171 1.272 . S
O181 Co173 2.135 . S
Co182 O183 2.216 . S
Co182 O184 2.091 . S
Co182 O186 2.004 . S
Co182 O192 2.021 . S
Co182 O194 2.137 . S
Co182 O195 2.244 . S
O183 Co182 2.216 . S
O183 C190 1.247 . S
O184 Co182 2.091 . S
O184 C190 1.261 . S
C185 O194 1.247 . S
C185 O195 1.272 . S
O186 Co182 2.004 . S
O186 C191 1.259 . S
Co187 O188 2.061 . S
Co187 O193 2.052 . S
Co187 O195 2.135 . S
O188 Co187 2.061 . S
O188 C191 1.235 . S
C189 O192 1.238 . S
C189 O193 1.241 . S
C190 O183 1.247 . S
C190 O184 1.261 . S
C191 O186 1.259 . S
C191 O188 1.235 . S
O192 Co182 2.021 . S
O192 C189 1.238 . S
O193 Co187 2.052 . S
O193 C189 1.241 . S
O194 Co182 2.137 . S
O194 C185 1.247 . S
O195 Co182 2.244 . S
O195 C185 1.272 . S
O195 Co187 2.135 . S
Co196 O197 2.216 . S
Co196 O198 2.091 . S
Co196 O200 2.004 . S
Co196 O206 2.021 . S
Co196 O208 2.137 . S
Co196 O209 2.244 . S
O197 Co196 2.216 . S
O197 C204 1.247 . S
O198 Co196 2.091 . S
O198 C204 1.261 . S
C199 O208 1.247 . S
C199 O209 1.272 . S
O200 Co196 2.004 . S
O200 C205 1.259 . S
Co201 O202 2.061 . S
Co201 O207 2.052 . S
Co201 O209 2.135 . S
O202 Co201 2.061 . S
O202 C205 1.235 . S
C203 O206 1.238 . S
C203 O207 1.241 . S
C204 O197 1.247 . S
C204 O198 1.261 . S
C205 O200 1.259 . S
C205 O202 1.235 . S
O206 Co196 2.021 . S
O206 C203 1.238 . S
O207 Co201 2.052 . S
O207 C203 1.241 . S
O208 Co196 2.137 . S
O208 C199 1.247 . S
O209 Co196 2.244 . S
O209 C199 1.272 . S
O209 Co201 2.135 . S
Co210 O211 2.216 . S
Co210 O212 2.091 . S
Co210 O214 2.004 1_455 S
Co210 O220 2.021 1_455 S
Co210 O222 2.137 . S
Co210 O223 2.244 . S
O211 Co210 2.216 . S
O211 C218 1.247 . S
O212 Co210 2.091 . S
O212 C218 1.261 . S
C213 O222 1.247 . S
C213 O223 1.272 . S
O214 Co210 2.004 1_655 S
O214 C219 1.259 . S
Co215 O216 2.061 . S
Co215 O221 2.052 . S
Co215 O223 2.135 1_655 S
O216 Co215 2.061 . S
O216 C219 1.235 . S
C217 O220 1.238 . S
C217 O221 1.241 . S
C218 O211 1.247 . S
C218 O212 1.261 . S
C219 O214 1.259 . S
C219 O216 1.235 . S
O220 Co210 2.021 1_655 S
O220 C217 1.238 . S
O221 Co215 2.052 . S
O221 C217 1.241 . S
O222 Co210 2.137 . S
O222 C213 1.247 . S
O223 Co210 2.244 . S
O223 C213 1.272 . S
O223 Co215 2.135 1_455 S
Co224 O225 2.216 . S
Co224 O226 2.091 . S
Co224 O228 2.004 . S
Co224 O234 2.021 . S
Co224 O236 2.137 . S
Co224 O237 2.244 . S
O225 Co224 2.216 . S
O225 C232 1.247 . S
O226 Co224 2.091 . S
O226 C232 1.261 . S
C227 O236 1.247 . S
C227 O237 1.272 . S
O228 Co224 2.004 . S
O228 C233 1.259 . S
Co229 O230 2.061 . S
Co229 O235 2.052 . S
Co229 O237 2.135 . S
O230 Co229 2.061 . S
O230 C233 1.235 . S
C231 O234 1.238 . S
C231 O235 1.241 . S
C232 O225 1.247 . S
C232 O226 1.261 . S
C233 O228 1.259 . S
C233 O230 1.235 . S
O234 Co224 2.021 . S
O234 C231 1.238 . S
O235 Co229 2.052 . S
O235 C231 1.241 . S
O236 Co224 2.137 . S
O236 C227 1.247 . S
O237 Co224 2.244 . S
O237 C227 1.272 . S
O237 Co229 2.135 . S
Co238 O239 2.216 . S
Co238 O240 2.091 . S
Co238 O242 2.004 . S
Co238 O248 2.021 . S
Co238 O250 2.137 . S
Co238 O251 2.244 . S
O239 Co238 2.216 . S
O239 C246 1.247 . S
O240 Co238 2.091 . S
O240 C246 1.261 . S
C241 O250 1.247 . S
C241 O251 1.272 . S
O242 Co238 2.004 . S
O242 C247 1.259 . S
Co243 O244 2.061 . S
Co243 O249 2.052 . S
Co243 O251 2.135 . S
O244 Co243 2.061 . S
O244 C247 1.235 . S
C245 O248 1.238 . S
C245 O249 1.241 . S
C246 O239 1.247 . S
C246 O240 1.261 . S
C247 O242 1.259 . S
C247 O244 1.235 . S
O248 Co238 2.021 . S
O248 C245 1.238 . S
O249 Co243 2.052 . S
O249 C245 1.241 . S
O250 Co238 2.137 . S
O250 C241 1.247 . S
O251 Co238 2.244 . S
O251 C241 1.272 . S
O251 Co243 2.135 . S
Co252 O253 2.216 . S
Co252 O254 2.091 . S
Co252 O256 2.004 . S
Co252 O262 2.021 . S
Co252 O264 2.137 . S
Co252 O265 2.244 . S
O253 Co252 2.216 . S
O253 C260 1.247 . S
O254 Co252 2.091 . S
O254 C260 1.261 . S
C255 O264 1.247 . S
C255 O265 1.272 . S
O256 Co252 2.004 . S
O256 C261 1.259 . S
Co257 O258 2.061 . S
Co257 O263 2.052 . S
Co257 O265 2.135 . S
O258 Co257 2.061 . S
O258 C261 1.235 . S
C259 O262 1.238 . S
C259 O263 1.241 . S
C260 O253 1.247 . S
C260 O254 1.261 . S
C261 O256 1.259 . S
C261 O258 1.235 . S
O262 Co252 2.021 . S
O262 C259 1.238 . S
O263 Co257 2.052 . S
O263 C259 1.241 . S
O264 Co252 2.137 . S
O264 C255 1.247 . S
O265 Co252 2.244 . S
O265 C255 1.272 . S
O265 Co257 2.135 . S
Co266 O267 2.216 . S
Co266 O268 2.091 . S
Co266 O270 2.004 . S
Co266 O276 2.021 . S
Co266 O278 2.137 . S
Co266 O279 2.244 . S
O267 Co266 2.216 . S
O267 C274 1.247 . S
O268 Co266 2.091 . S
O268 C274 1.261 . S
C269 O278 1.247 . S
C269 O279 1.272 . S
O270 Co266 2.004 . S
O270 C275 1.259 . S
Co271 O272 2.061 . S
Co271 O277 2.052 . S
Co271 O279 2.135 . S
O272 Co271 2.061 . S
O272 C275 1.235 . S
C273 O276 1.238 . S
C273 O277 1.241 . S
C274 O267 1.247 . S
C274 O268 1.261 . S
C275 O270 1.259 . S
C275 O272 1.235 . S
O276 Co266 2.021 . S
O276 C273 1.238 . S
O277 Co271 2.052 . S
O277 C273 1.241 . S
O278 Co266 2.137 . S
O278 C269 1.247 . S
O279 Co266 2.244 . S
O279 C269 1.272 . S
O279 Co271 2.135 . S
Co280 O281 2.216 . S
Co280 O282 2.091 . S
Co280 O284 2.004 . S
Co280 O290 2.021 . S
Co280 O292 2.137 . S
Co280 O293 2.244 . S
O281 Co280 2.216 . S
O281 C288 1.247 . S
O282 Co280 2.091 . S
O282 C288 1.261 . S
C283 O292 1.247 . S
C283 O293 1.272 . S
O284 Co280 2.004 . S
O284 C289 1.259 . S
Co285 O286 2.061 . S
Co285 O291 2.052 . S
Co285 O293 2.135 . S
O286 Co285 2.061 . S
O286 C289 1.235 . S
C287 O290 1.238 . S
C287 O291 1.241 . S
C288 O281 1.247 . S
C288 O282 1.261 . S
C289 O284 1.259 . S
C289 O286 1.235 . S
O290 Co280 2.021 . S
O290 C287 1.238 . S
O291 Co285 2.052 . S
O291 C287 1.241 . S
O292 Co280 2.137 . S
O292 C283 1.247 . S
O293 Co280 2.244 . S
O293 C283 1.272 . S
O293 Co285 2.135 . S
Co294 O295 2.216 . S
Co294 O296 2.091 . S
Co294 O298 2.004 1_545 S
Co294 O304 2.021 . S
Co294 O306 2.137 1_545 S
Co294 O307 2.244 1_545 S
O295 Co294 2.216 . S
O295 C302 1.247 . S
O296 Co294 2.091 . S
O296 C302 1.261 . S
C297 O306 1.247 . S
C297 O307 1.272 . S
O298 Co294 2.004 1_565 S
O298 C303 1.259 . S
Co299 O300 2.061 . S
Co299 O305 2.052 . S
Co299 O307 2.135 . S
O300 Co299 2.061 . S
O300 C303 1.235 . S
C301 O304 1.238 . S
C301 O305 1.241 1_545 S
C302 O295 1.247 . S
C302 O296 1.261 . S
C303 O298 1.259 . S
C303 O300 1.235 . S
O304 Co294 2.021 . S
O304 C301 1.238 . S
O305 Co299 2.052 . S
O305 C301 1.241 1_565 S
O306 Co294 2.137 1_565 S
O306 C297 1.247 . S
O307 Co294 2.244 1_565 S
O307 C297 1.272 . S
O307 Co299 2.135 . S
Co308 O309 2.216 . S
Co308 O310 2.091 . S
Co308 O312 2.004 . S
Co308 O318 2.021 . S
Co308 O320 2.137 . S
Co308 O321 2.244 . S
O309 Co308 2.216 . S
O309 C316 1.247 . S
O310 Co308 2.091 . S
O310 C316 1.261 . S
C311 O320 1.247 . S
C311 O321 1.272 . S
O312 Co308 2.004 . S
O312 C317 1.259 . S
Co313 O314 2.061 . S
Co313 O319 2.052 . S
Co313 O321 2.135 . S
O314 Co313 2.061 . S
O314 C317 1.235 . S
C315 O318 1.238 . S
C315 O319 1.241 . S
C316 O309 1.247 . S
C316 O310 1.261 . S
C317 O312 1.259 . S
C317 O314 1.235 . S
O318 Co308 2.021 . S
O318 C315 1.238 . S
O319 Co313 2.052 . S
O319 C315 1.241 . S
O320 Co308 2.137 . S
O320 C311 1.247 . S
O321 Co308 2.244 . S
O321 C311 1.272 . S
O321 Co313 2.135 . S
Co322 O323 2.216 . S
Co322 O324 2.091 . S
Co322 O326 2.004 . S
Co322 O332 2.021 . S
Co322 O334 2.137 . S
Co322 O335 2.244 . S
O323 Co322 2.216 . S
O323 C330 1.247 . S
O324 Co322 2.091 . S
O324 C330 1.261 . S
C325 O334 1.247 . S
C325 O335 1.272 . S
O326 Co322 2.004 . S
O326 C331 1.259 . S
Co327 O328 2.061 . S
Co327 O333 2.052 . S
Co327 O335 2.135 . S
O328 Co327 2.061 . S
O328 C331 1.235 . S
C329 O332 1.238 . S
C329 O333 1.241 . S
C330 O323 1.247 . S
C330 O324 1.261 . S
C331 O326 1.259 . S
C331 O328 1.235 . S
O332 Co322 2.021 . S
O332 C329 1.238 . S
O333 Co327 2.052 . S
O333 C329 1.241 . S
O334 Co322 2.137 . S
O334 C325 1.247 . S
O335 Co322 2.244 . S
O335 C325 1.272 . S
O335 Co327 2.135 . S
Co336 O337 2.216 1_545 S
Co336 O338 2.091 . S
Co336 O340 2.004 . S
Co336 O346 2.021 1_545 S
Co336 O348 2.137 . S
Co336 O349 2.244 1_545 S
O337 Co336 2.216 1_565 S
O337 C344 1.247 1_565 S
O338 Co336 2.091 . S
O338 C344 1.261 . S
C339 O348 1.245 1_565 S
C339 O349 1.273 . S
O340 Co336 2.004 . S
O340 C345 1.259 . S
Co341 O342 2.061 . S
Co341 O347 2.052 . S
Co341 O349 2.135 . S
O342 Co341 2.061 . S
O342 C345 1.235 1_565 S
C343 O346 1.238 . S
C343 O347 1.241 . S
C344 O337 1.247 1_545 S
C344 O338 1.261 . S
C345 O340 1.259 . S
C345 O342 1.235 1_545 S
O346 Co336 2.021 1_565 S
O346 C343 1.238 . S
O347 Co341 2.052 . S
O347 C343 1.241 . S
O348 Co336 2.137 . S
O348 C339 1.245 1_545 S
O349 Co336 2.244 1_565 S
O349 C339 1.273 . S
O349 Co341 2.135 . S
Co350 O351 2.216 . S
Co350 O352 2.091 . S
Co350 O354 2.004 . S
Co350 O360 2.021 . S
Co350 O362 2.137 . S
Co350 O363 2.244 . S
O351 Co350 2.216 . S
O351 C358 1.247 . S
O352 Co350 2.091 . S
O352 C358 1.261 . S
C353 O362 1.247 . S
C353 O363 1.272 . S
O354 Co350 2.004 . S
O354 C359 1.259 . S
Co355 O356 2.061 . S
Co355 O361 2.052 . S
Co355 O363 2.135 . S
O356 Co355 2.061 . S
O356 C359 1.235 . S
C357 O360 1.238 . S
C357 O361 1.241 . S
C358 O351 1.247 . S
C358 O352 1.261 . S
C359 O354 1.259 . S
C359 O356 1.235 . S
O360 Co350 2.021 . S
O360 C357 1.238 . S
O361 Co355 2.052 . S
O361 C357 1.241 . S
O362 Co350 2.137 . S
O362 C353 1.247 . S
O363 Co350 2.244 . S
O363 C353 1.272 . S
O363 Co355 2.135 . S
Co364 O365 2.216 . S
Co364 O366 2.091 . S
Co364 O368 2.004 . S
Co364 O374 2.021 . S
Co364 O376 2.137 . S
Co364 O377 2.244 . S
O365 Co364 2.216 . S
O365 C372 1.247 . S
O366 Co364 2.091 . S
O366 C372 1.261 . S
C367 O376 1.247 . S
C367 O377 1.272 . S
O368 Co364 2.004 . S
O368 C373 1.259 . S
Co369 O370 2.061 . S
Co369 O375 2.052 . S
Co369 O377 2.135 . S
O370 Co369 2.061 . S
O370 C373 1.235 . S
C371 O374 1.238 . S
C371 O375 1.241 . S
C372 O365 1.247 . S
C372 O366 1.261 . S
C373 O368 1.259 . S
C373 O370 1.235 . S
O374 Co364 2.021 . S
O374 C371 1.238 . S
O375 Co369 2.052 . S
O375 C371 1.241 . S
O376 Co364 2.137 . S
O376 C367 1.247 . S
O377 Co364 2.244 . S
O377 C367 1.272 . S
O377 Co369 2.135 . S
Co378 O379 2.216 . S
Co378 O380 2.091 . S
Co378 O382 2.004 . S
Co378 O388 2.021 . S
Co378 O390 2.137 . S
Co378 O391 2.244 . S
O379 Co378 2.216 . S
O379 C386 1.247 . S
O380 Co378 2.091 . S
O380 C386 1.261 . S
C381 O390 1.247 . S
C381 O391 1.272 . S
O382 Co378 2.004 . S
O382 C387 1.259 . S
Co383 O384 2.061 . S
Co383 O389 2.052 . S
Co383 O391 2.135 . S
O384 Co383 2.061 . S
O384 C387 1.235 . S
C385 O388 1.238 . S
C385 O389 1.241 . S
C386 O379 1.247 . S
C386 O380 1.261 . S
C387 O382 1.259 . S
C387 O384 1.235 . S
O388 Co378 2.021 . S
O388 C385 1.238 . S
O389 Co383 2.052 . S
O389 C385 1.241 . S
O390 Co378 2.137 . S
O390 C381 1.247 . S
O391 Co378 2.244 . S
O391 C381 1.272 . S
O391 Co383 2.135 . S
Co392 O393 2.216 . S
Co392 O394 2.091 . S
Co392 O396 2.004 . S
Co392 O402 2.021 1_554 S
Co392 O404 2.137 . S
Co392 O405 2.244 1_554 S
O393 Co392 2.216 . S
O393 C400 1.247 . S
O394 Co392 2.091 . S
O394 C400 1.261 . S
C395 O404 1.247 1_556 S
C395 O405 1.272 . S
O396 Co392 2.004 . S
O396 C401 1.259 1_554 S
Co397 O398 2.061 . S
Co397 O403 2.052 . S
Co397 O405 2.135 . S
O398 Co397 2.061 . S
O398 C401 1.235 . S
C399 O402 1.238 . S
C399 O403 1.241 . S
C400 O393 1.247 . S
C400 O394 1.261 . S
C401 O396 1.259 1_556 S
C401 O398 1.235 . S
O402 Co392 2.021 1_556 S
O402 C399 1.238 . S
O403 Co397 2.052 . S
O403 C399 1.241 . S
O404 Co392 2.137 . S
O404 C395 1.247 1_554 S
O405 Co392 2.244 1_556 S
O405 C395 1.272 . S
O405 Co397 2.135 . S
Co406 O407 2.216 . S
Co406 O408 2.091 . S
Co406 O410 2.004 . S
Co406 O416 2.021 . S
Co406 O418 2.137 . S
Co406 O419 2.244 . S
O407 Co406 2.216 . S
O407 C414 1.247 . S
O408 Co406 2.091 . S
O408 C414 1.261 . S
C409 O418 1.247 . S
C409 O419 1.272 . S
O410 Co406 2.004 . S
O410 C415 1.259 . S
Co411 O412 2.061 . S
Co411 O417 2.052 . S
Co411 O419 2.135 . S
O412 Co411 2.061 . S
O412 C415 1.235 . S
C413 O416 1.238 . S
C413 O417 1.241 . S
C414 O407 1.247 . S
C414 O408 1.261 . S
C415 O410 1.259 . S
C415 O412 1.235 . S
O416 Co406 2.021 . S
O416 C413 1.238 . S
O417 Co411 2.052 . S
O417 C413 1.241 . S
O418 Co406 2.137 . S
O418 C409 1.247 . S
O419 Co406 2.244 . S
O419 C409 1.272 . S
O419 Co411 2.135 . S
Co420 O421 2.216 . S
Co420 O422 2.091 . S
Co420 O424 2.004 1_565 S
Co420 O430 2.021 . S
Co420 O432 2.137 1_565 S
Co420 O433 2.244 1_565 S
O421 Co420 2.216 . S
O421 C428 1.247 . S
O422 Co420 2.091 . S
O422 C428 1.261 . S
C423 O432 1.247 . S
C423 O433 1.272 . S
O424 Co420 2.004 1_545 S
O424 C429 1.259 . S
Co425 O426 2.061 . S
Co425 O431 2.052 . S
Co425 O433 2.135 . S
O426 Co425 2.061 . S
O426 C429 1.235 . S
C427 O430 1.238 . S
C427 O431 1.241 1_565 S
C428 O421 1.247 . S
C428 O422 1.261 . S
C429 O424 1.259 . S
C429 O426 1.235 . S
O430 Co420 2.021 . S
O430 C427 1.238 . S
O431 Co425 2.052 . S
O431 C427 1.241 1_545 S
O432 Co420 2.137 1_545 S
O432 C423 1.247 . S
O433 Co420 2.244 1_545 S
O433 C423 1.272 . S
O433 Co425 2.135 . S
Co434 O435 2.216 . S
Co434 O436 2.091 . S
Co434 O438 2.004 . S
Co434 O444 2.021 . S
Co434 O446 2.137 . S
Co434 O447 2.244 . S
O435 Co434 2.216 . S
O435 C442 1.247 . S
O436 Co434 2.091 . S
O436 C442 1.261 . S
C437 O446 1.247 . S
C437 O447 1.272 . S
O438 Co434 2.004 . S
O438 C443 1.259 . S
Co439 O440 2.061 . S
Co439 O445 2.052 . S
Co439 O447 2.135 . S
O440 Co439 2.061 . S
O440 C443 1.235 . S
C441 O444 1.238 . S
C441 O445 1.241 . S
C442 O435 1.247 . S
C442 O436 1.261 . S
C443 O438 1.259 . S
C443 O440 1.235 . S
O444 Co434 2.021 . S
O444 C441 1.238 . S
O445 Co439 2.052 . S
O445 C441 1.241 . S
O446 Co434 2.137 . S
O446 C437 1.247 . S
O447 Co434 2.244 . S
O447 C437 1.272 . S
O447 Co439 2.135 . S
Co448 O449 2.216 . S
Co448 O450 2.091 . S
Co448 O452 2.004 . S
Co448 O458 2.021 . S
Co448 O460 2.137 . S
Co448 O461 2.244 . S
O449 Co448 2.216 . S
O449 C456 1.247 . S
O450 Co448 2.091 . S
O450 C456 1.261 . S
C451 O460 1.247 . S
C451 O461 1.272 . S
O452 Co448 2.004 . S
O452 C457 1.259 . S
Co453 O454 2.061 . S
Co453 O459 2.052 . S
Co453 O461 2.135 . S
O454 Co453 2.061 . S
O454 C457 1.235 . S
C455 O458 1.238 . S
C455 O459 1.241 . S
C456 O449 1.247 . S
C456 O450 1.261 . S
C457 O452 1.259 . S
C457 O454 1.235 . S
O458 Co448 2.021 . S
O458 C455 1.238 . S
O459 Co453 2.052 . S
O459 C455 1.241 . S
O460 Co448 2.137 . S
O460 C451 1.247 . S
O461 Co448 2.244 . S
O461 C451 1.272 . S
O461 Co453 2.135 . S
Co462 O463 2.216 . S
Co462 O464 2.091 . S
Co462 O466 2.004 1_655 S
Co462 O472 2.021 1_655 S
Co462 O474 2.137 . S
Co462 O475 2.244 . S
O463 Co462 2.216 . S
O463 C470 1.247 . S
O464 Co462 2.091 . S
O464 C470 1.261 . S
C465 O474 1.247 . S
C465 O475 1.272 . S
O466 Co462 2.004 1_455 S
O466 C471 1.259 . S
Co467 O468 2.061 . S
Co467 O473 2.052 . S
Co467 O475 2.135 1_455 S
O468 Co467 2.061 . S
O468 C471 1.235 . S
C469 O472 1.238 . S
C469 O473 1.241 . S
C470 O463 1.247 . S
C470 O464 1.261 . S
C471 O466 1.259 . S
C471 O468 1.235 . S
O472 Co462 2.021 1_455 S
O472 C469 1.238 . S
O473 Co467 2.052 . S
O473 C469 1.241 . S
O474 Co462 2.137 . S
O474 C465 1.247 . S
O475 Co462 2.244 . S
O475 C465 1.272 . S
O475 Co467 2.135 1_655 S
Co476 O477 2.216 . S
Co476 O478 2.091 . S
Co476 O480 2.004 . S
Co476 O486 2.021 . S
Co476 O488 2.137 . S
Co476 O489 2.244 . S
O477 Co476 2.216 . S
O477 C484 1.247 . S
O478 Co476 2.091 . S
O478 C484 1.261 . S
C479 O488 1.247 . S
C479 O489 1.272 . S
O480 Co476 2.004 . S
O480 C485 1.259 . S
Co481 O482 2.061 . S
Co481 O487 2.052 . S
Co481 O489 2.135 . S
O482 Co481 2.061 . S
O482 C485 1.235 . S
C483 O486 1.238 . S
C483 O487 1.241 . S
C484 O477 1.247 . S
C484 O478 1.261 . S
C485 O480 1.259 . S
C485 O482 1.235 . S
O486 Co476 2.021 . S
O486 C483 1.238 . S
O487 Co481 2.052 . S
O487 C483 1.241 . S
O488 Co476 2.137 . S
O488 C479 1.247 . S
O489 Co476 2.244 . S
O489 C479 1.272 . S
O489 Co481 2.135 . S
Co490 O491 2.216 . S
Co490 O492 2.091 . S
Co490 O494 2.004 1_655 S
Co490 O500 2.021 1_655 S
Co490 O502 2.137 . S
Co490 O503 2.244 . S
O491 Co490 2.216 . S
O491 C498 1.247 . S
O492 Co490 2.091 . S
O492 C498 1.261 . S
C493 O502 1.247 . S
C493 O503 1.272 . S
O494 Co490 2.004 1_455 S
O494 C499 1.259 . S
Co495 O496 2.061 . S
Co495 O501 2.052 . S
Co495 O503 2.135 1_455 S
O496 Co495 2.061 . S
O496 C499 1.235 . S
C497 O500 1.238 . S
C497 O501 1.241 . S
C498 O491 1.247 . S
C498 O492 1.261 . S
C499 O494 1.259 . S
C499 O496 1.235 . S
O500 Co490 2.021 1_455 S
O500 C497 1.238 . S
O501 Co495 2.052 . S
O501 C497 1.241 . S
O502 Co490 2.137 . S
O502 C493 1.247 . S
O503 Co490 2.244 . S
O503 C493 1.272 . S
O503 Co495 2.135 1_655 S
Co504 O505 2.216 . S
Co504 O506 2.091 . S
Co504 O508 2.004 . S
Co504 O514 2.021 . S
Co504 O516 2.137 . S
Co504 O517 2.244 . S
O505 Co504 2.216 . S
O505 C512 1.247 . S
O506 Co504 2.091 . S
O506 C512 1.261 . S
C507 O516 1.247 . S
C507 O517 1.272 . S
O508 Co504 2.004 . S
O508 C513 1.259 . S
Co509 O510 2.061 . S
Co509 O515 2.052 . S
Co509 O517 2.135 . S
O510 Co509 2.061 . S
O510 C513 1.235 . S
C511 O514 1.238 . S
C511 O515 1.241 . S
C512 O505 1.247 . S
C512 O506 1.261 . S
C513 O508 1.259 . S
C513 O510 1.235 . S
O514 Co504 2.021 . S
O514 C511 1.238 . S
O515 Co509 2.052 . S
O515 C511 1.241 . S
O516 Co504 2.137 . S
O516 C507 1.247 . S
O517 Co504 2.244 . S
O517 C507 1.272 . S
O517 Co509 2.135 . S
Co518 O519 2.216 . S
Co518 O520 2.091 . S
Co518 O522 2.004 . S
Co518 O528 2.021 . S
Co518 O530 2.137 . S
Co518 O531 2.244 . S
O519 Co518 2.216 . S
O519 C526 1.247 . S
O520 Co518 2.091 . S
O520 C526 1.261 . S
C521 O530 1.247 . S
C521 O531 1.272 . S
O522 Co518 2.004 . S
O522 C527 1.259 . S
Co523 O524 2.061 . S
Co523 O529 2.052 . S
Co523 O531 2.135 . S
O524 Co523 2.061 . S
O524 C527 1.235 . S
C525 O528 1.238 . S
C525 O529 1.241 . S
C526 O519 1.247 . S
C526 O520 1.261 . S
C527 O522 1.259 . S
C527 O524 1.235 . S
O528 Co518 2.021 . S
O528 C525 1.238 . S
O529 Co523 2.052 . S
O529 C525 1.241 . S
O530 Co518 2.137 . S
O530 C521 1.247 . S
O531 Co518 2.244 . S
O531 C521 1.272 . S
O531 Co523 2.135 . S
Co532 O533 2.216 . S
Co532 O534 2.091 . S
Co532 O536 2.004 . S
Co532 O542 2.021 . S
Co532 O544 2.137 . S
Co532 O545 2.244 . S
O533 Co532 2.216 . S
O533 C540 1.247 . S
O534 Co532 2.091 . S
O534 C540 1.261 . S
C535 O544 1.247 . S
C535 O545 1.272 . S
O536 Co532 2.004 . S
O536 C541 1.259 . S
Co537 O538 2.061 . S
Co537 O543 2.052 . S
Co537 O545 2.135 . S
O538 Co537 2.061 . S
O538 C541 1.235 . S
C539 O542 1.238 . S
C539 O543 1.241 . S
C540 O533 1.247 . S
C540 O534 1.261 . S
C541 O536 1.259 . S
C541 O538 1.235 . S
O542 Co532 2.021 . S
O542 C539 1.238 . S
O543 Co537 2.052 . S
O543 C539 1.241 . S
O544 Co532 2.137 . S
O544 C535 1.247 . S
O545 Co532 2.244 . S
O545 C535 1.272 . S
O545 Co537 2.135 . S
Co546 O547 2.216 . S
Co546 O548 2.091 . S
Co546 O550 2.004 . S
Co546 O556 2.021 . S
Co546 O558 2.137 . S
Co546 O559 2.244 . S
O547 Co546 2.216 . S
O547 C554 1.247 . S
O548 Co546 2.091 . S
O548 C554 1.261 . S
C549 O558 1.247 . S
C549 O559 1.272 . S
O550 Co546 2.004 . S
O550 C555 1.259 . S
Co551 O552 2.061 . S
Co551 O557 2.052 . S
Co551 O559 2.135 . S
O552 Co551 2.061 . S
O552 C555 1.235 . S
C553 O556 1.238 . S
C553 O557 1.241 . S
C554 O547 1.247 . S
C554 O548 1.261 . S
C555 O550 1.259 . S
C555 O552 1.235 . S
O556 Co546 2.021 . S
O556 C553 1.238 . S
O557 Co551 2.052 . S
O557 C553 1.241 . S
O558 Co546 2.137 . S
O558 C549 1.247 . S
O559 Co546 2.244 . S
O559 C549 1.272 . S
O559 Co551 2.135 . S
Co560 O561 2.216 1_565 S
Co560 O562 2.091 . S
Co560 O564 2.004 . S
Co560 O570 2.021 1_565 S
Co560 O572 2.137 . S
Co560 O573 2.244 1_565 S
O561 Co560 2.216 1_545 S
O561 C568 1.247 1_545 S
O562 Co560 2.091 . S
O562 C568 1.261 . S
C563 O572 1.247 . S
C563 O573 1.272 1_565 S
O564 Co560 2.004 . S
O564 C569 1.259 . S
Co565 O566 2.035 1_545 S
Co565 O571 2.052 . S
Co565 O573 2.135 . S
O566 Co565 2.035 1_565 S
O566 C569 1.263 . S
C567 O570 1.238 . S
C567 O571 1.241 . S
C568 O561 1.247 1_565 S
C568 O562 1.261 . S
C569 O564 1.259 . S
C569 O566 1.263 . S
O570 Co560 2.021 1_545 S
O570 C567 1.238 . S
O571 Co565 2.052 . S
O571 C567 1.241 . S
O572 Co560 2.137 . S
O572 C563 1.247 . S
O573 Co560 2.244 1_545 S
O573 C563 1.272 1_545 S
O573 Co565 2.135 . S
Co574 O575 2.216 . S
Co574 O576 2.091 . S
Co574 O578 2.004 . S
Co574 O584 2.021 1_556 S
Co574 O586 2.137 . S
Co574 O587 2.244 1_556 S
O575 Co574 2.216 . S
O575 C582 1.247 . S
O576 Co574 2.091 . S
O576 C582 1.261 . S
C577 O586 1.249 1_554 S
C577 O587 1.270 . S
O578 Co574 2.004 . S
O578 C583 1.259 1_556 S
Co579 O580 2.061 . S
Co579 O585 2.052 . S
Co579 O587 2.135 . S
O580 Co579 2.061 . S
O580 C583 1.235 . S
C581 O584 1.238 . S
C581 O585 1.241 . S
C582 O575 1.247 . S
C582 O576 1.261 . S
C583 O578 1.259 1_554 S
C583 O580 1.235 . S
O584 Co574 2.021 1_554 S
O584 C581 1.238 . S
O585 Co579 2.052 . S
O585 C581 1.241 . S
O586 Co574 2.137 . S
O586 C577 1.249 1_556 S
O587 Co574 2.244 1_554 S
O587 C577 1.270 . S
O587 Co579 2.135 . S
Co588 O589 2.216 . S
Co588 O590 2.091 . S
Co588 O592 2.004 . S
Co588 O598 2.021 . S
Co588 O600 2.137 . S
Co588 O601 2.244 . S
O589 Co588 2.216 . S
O589 C596 1.247 . S
O590 Co588 2.091 . S
O590 C596 1.261 . S
C591 O600 1.247 . S
C591 O601 1.272 . S
O592 Co588 2.004 . S
O592 C597 1.259 . S
Co593 O594 2.061 . S
Co593 O599 2.052 . S
Co593 O601 2.135 . S
O594 Co593 2.061 . S
O594 C597 1.235 . S
C595 O598 1.238 . S
C595 O599 1.241 . S
C596 O589 1.247 . S
C596 O590 1.261 . S
C597 O592 1.259 . S
C597 O594 1.235 . S
O598 Co588 2.021 . S
O598 C595 1.238 . S
O599 Co593 2.052 . S
O599 C595 1.241 . S
O600 Co588 2.137 . S
O600 C591 1.247 . S
O601 Co588 2.244 . S
O601 C591 1.272 . S
O601 Co593 2.135 . S
Co602 O603 2.216 . S
Co602 O604 2.091 . S
Co602 O606 2.004 1_455 S
Co602 O612 2.021 1_455 S
Co602 O614 2.137 . S
Co602 O615 2.244 . S
O603 Co602 2.216 . S
O603 C610 1.247 . S
O604 Co602 2.091 . S
O604 C610 1.261 . S
C605 O614 1.247 . S
C605 O615 1.272 . S
O606 Co602 2.004 1_655 S
O606 C611 1.259 . S
Co607 O608 2.061 . S
Co607 O613 2.052 . S
Co607 O615 2.135 1_655 S
O608 Co607 2.061 . S
O608 C611 1.235 . S
C609 O612 1.238 . S
C609 O613 1.241 . S
C610 O603 1.247 . S
C610 O604 1.261 . S
C611 O606 1.259 . S
C611 O608 1.235 . S
O612 Co602 2.021 1_655 S
O612 C609 1.238 . S
O613 Co607 2.052 . S
O613 C609 1.241 . S
O614 Co602 2.137 . S
O614 C605 1.247 . S
O615 Co602 2.244 . S
O615 C605 1.272 . S
O615 Co607 2.135 1_455 S
Co616 O617 2.216 1_545 S
Co616 O618 2.091 . S
Co616 O620 2.004 . S
Co616 O626 2.021 1_545 S
Co616 O628 2.137 . S
Co616 O629 2.244 1_545 S
O617 Co616 2.216 1_565 S
O617 C624 1.247 1_565 S
O618 Co616 2.091 . S
O618 C624 1.261 . S
C619 O628 1.247 . S
C619 O629 1.272 1_545 S
O620 Co616 2.004 . S
O620 C625 1.259 . S
Co621 O622 2.035 1_565 S
Co621 O627 2.052 . S
Co621 O629 2.135 . S
O622 Co621 2.035 1_545 S
O622 C625 1.263 . S
C623 O626 1.238 . S
C623 O627 1.241 . S
C624 O617 1.247 1_545 S
C624 O618 1.261 . S
C625 O620 1.259 . S
C625 O622 1.263 . S
O626 Co616 2.021 1_565 S
O626 C623 1.238 . S
O627 Co621 2.052 . S
O627 C623 1.241 . S
O628 Co616 2.137 . S
O628 C619 1.247 . S
O629 Co616 2.244 1_565 S
O629 C619 1.272 1_565 S
O629 Co621 2.135 . S
Co630 O631 2.216 . S
Co630 O632 2.091 . S
Co630 O634 2.004 . S
Co630 O640 2.021 1_556 S
Co630 O642 2.137 . S
Co630 O643 2.244 1_556 S
O631 Co630 2.216 . S
O631 C638 1.247 . S
O632 Co630 2.091 . S
O632 C638 1.261 . S
C633 O642 1.249 1_554 S
C633 O643 1.270 . S
O634 Co630 2.004 . S
O634 C639 1.259 1_556 S
Co635 O636 2.061 . S
Co635 O641 2.052 . S
Co635 O643 2.135 . S
O636 Co635 2.061 . S
O636 C639 1.235 . S
C637 O640 1.238 . S
C637 O641 1.241 . S
C638 O631 1.247 . S
C638 O632 1.261 . S
C639 O634 1.259 1_554 S
C639 O636 1.235 . S
O640 Co630 2.021 1_554 S
O640 C637 1.238 . S
O641 Co635 2.052 . S
O641 C637 1.241 . S
O642 Co630 2.137 . S
O642 C633 1.249 1_556 S
O643 Co630 2.244 1_554 S
O643 C633 1.270 . S
O643 Co635 2.135 . S
Co644 O645 2.216 . S
Co644 O646 2.091 . S
Co644 O648 2.004 . S
Co644 O654 2.021 . S
Co644 O656 2.137 . S
Co644 O657 2.244 . S
O645 Co644 2.216 . S
O645 C652 1.247 . S
O646 Co644 2.091 . S
O646 C652 1.261 . S
C647 O656 1.247 . S
C647 O657 1.272 . S
O648 Co644 2.004 . S
O648 C653 1.259 . S
Co649 O650 2.061 . S
Co649 O655 2.052 . S
Co649 O657 2.135 . S
O650 Co649 2.061 . S
O650 C653 1.235 . S
C651 O654 1.238 . S
C651 O655 1.241 . S
C652 O645 1.247 . S
C652 O646 1.261 . S
C653 O648 1.259 . S
C653 O650 1.235 . S
O654 Co644 2.021 . S
O654 C651 1.238 . S
O655 Co649 2.052 . S
O655 C651 1.241 . S
O656 Co644 2.137 . S
O656 C647 1.247 . S
O657 Co644 2.244 . S
O657 C647 1.272 . S
O657 Co649 2.135 . S
Co658 O659 2.216 . S
Co658 O660 2.091 . S
Co658 O662 2.004 . S
Co658 O668 2.021 . S
Co658 O670 2.137 . S
Co658 O671 2.244 . S
O659 Co658 2.216 . S
O659 C666 1.247 . S
O660 Co658 2.091 . S
O660 C666 1.261 . S
C661 O670 1.247 . S
C661 O671 1.272 . S
O662 Co658 2.004 . S
O662 C667 1.259 . S
Co663 O664 2.061 . S
Co663 O669 2.052 . S
Co663 O671 2.135 . S
O664 Co663 2.061 . S
O664 C667 1.235 . S
C665 O668 1.238 . S
C665 O669 1.241 . S
C666 O659 1.247 . S
C666 O660 1.261 . S
C667 O662 1.259 . S
C667 O664 1.235 . S
O668 Co658 2.021 . S
O668 C665 1.238 . S
O669 Co663 2.052 . S
O669 C665 1.241 . S
O670 Co658 2.137 . S
O670 C661 1.247 . S
O671 Co658 2.244 . S
O671 C661 1.272 . S
O671 Co663 2.135 . S
H672 C678 0.930 . S
H673 C681 0.930 . S
H674 C682 0.930 . S
H675 C683 0.930 . S
H676 C686 0.930 . S
H677 C687 0.930 . S
C678 H672 0.930 . S
C678 C679 1.355 . S
C678 C680 1.415 . S
C679 C678 1.355 . S
C679 C681 1.419 . S
C680 C678 1.415 . S
C680 C685 1.425 . S
C680 C687 1.409 . S
C681 H673 0.930 . S
C681 C679 1.419 . S
C681 C682 1.362 . S
C682 H674 0.930 . S
C682 C681 1.362 . S
C682 C685 1.409 . S
C683 H675 0.930 . S
C683 C684 1.355 . S
C683 C685 1.415 . S
C684 C683 1.355 . S
C684 C686 1.419 . S
C685 C680 1.425 . S
C685 C682 1.409 . S
C685 C683 1.415 . S
C686 H676 0.930 . S
C686 C684 1.419 . S
C686 C687 1.362 . S
C687 H677 0.930 . S
C687 C680 1.409 . S
C687 C686 1.362 . S
H688 C694 0.930 . S
H689 C697 0.930 . S
H690 C698 0.930 . S
H691 C699 0.930 . S
H692 C702 0.930 . S
H693 C703 0.930 . S
C694 H688 0.930 . S
C694 C695 1.355 . S
C694 C696 1.415 . S
C695 C694 1.355 . S
C695 C697 1.419 . S
C696 C694 1.415 . S
C696 C701 1.425 . S
C696 C703 1.409 . S
C697 H689 0.930 . S
C697 C695 1.419 . S
C697 C698 1.362 . S
C698 H690 0.930 . S
C698 C697 1.362 . S
C698 C701 1.409 . S
C699 H691 0.930 . S
C699 C700 1.355 . S
C699 C701 1.415 . S
C700 C699 1.355 . S
C700 C702 1.419 . S
C701 C696 1.425 . S
C701 C698 1.409 . S
C701 C699 1.415 . S
C702 H692 0.930 . S
C702 C700 1.419 . S
C702 C703 1.362 . S
C703 H693 0.930 . S
C703 C696 1.409 . S
C703 C702 1.362 . S
H704 C710 0.930 . S
H705 C713 0.930 . S
H706 C714 0.930 . S
H707 C715 0.930 . S
H708 C718 0.930 . S
H709 C719 0.930 . S
C710 H704 0.930 . S
C710 C711 1.355 . S
C710 C712 1.415 . S
C711 C710 1.355 . S
C711 C713 1.419 . S
C712 C710 1.415 . S
C712 C717 1.425 . S
C712 C719 1.409 . S
C713 H705 0.930 . S
C713 C711 1.419 . S
C713 C714 1.362 . S
C714 H706 0.930 . S
C714 C713 1.362 . S
C714 C717 1.409 . S
C715 H707 0.930 . S
C715 C716 1.355 . S
C715 C717 1.415 . S
C716 C715 1.355 . S
C716 C718 1.419 . S
C717 C712 1.425 . S
C717 C714 1.409 . S
C717 C715 1.415 . S
C718 H708 0.930 . S
C718 C716 1.419 . S
C718 C719 1.362 . S
C719 H709 0.930 . S
C719 C712 1.409 . S
C719 C718 1.362 . S
H720 C726 0.930 . S
H721 C729 0.930 . S
H722 C730 0.930 . S
H723 C731 0.930 . S
H724 C734 0.930 . S
H725 C735 0.930 . S
C726 H720 0.930 . S
C726 C727 1.355 . S
C726 C728 1.415 . S
C727 C726 1.355 . S
C727 C729 1.419 . S
C728 C726 1.415 . S
C728 C733 1.425 . S
C728 C735 1.409 . S
C729 H721 0.930 . S
C729 C727 1.419 . S
C729 C730 1.362 . S
C730 H722 0.930 . S
C730 C729 1.362 . S
C730 C733 1.409 . S
C731 H723 0.930 . S
C731 C732 1.355 . S
C731 C733 1.415 . S
C732 C731 1.355 . S
C732 C734 1.419 . S
C733 C728 1.425 . S
C733 C730 1.409 . S
C733 C731 1.415 . S
C734 H724 0.930 . S
C734 C732 1.419 . S
C734 C735 1.362 . S
C735 H725 0.930 . S
C735 C728 1.409 . S
C735 C734 1.362 . S
H736 C742 0.930 . S
H737 C745 0.930 . S
H738 C746 0.930 . S
H739 C747 0.930 . S
H740 C750 0.930 . S
H741 C751 0.930 . S
C742 H736 0.930 . S
C742 C743 1.355 . S
C742 C744 1.415 . S
C743 C742 1.355 . S
C743 C745 1.419 . S
C744 C742 1.415 . S
C744 C749 1.425 . S
C744 C751 1.409 . S
C745 H737 0.930 . S
C745 C743 1.419 . S
C745 C746 1.362 . S
C746 H738 0.930 . S
C746 C745 1.362 . S
C746 C749 1.409 . S
C747 H739 0.930 . S
C747 C748 1.355 . S
C747 C749 1.415 . S
C748 C747 1.355 . S
C748 C750 1.419 . S
C749 C744 1.425 . S
C749 C746 1.409 . S
C749 C747 1.415 . S
C750 H740 0.930 . S
C750 C748 1.419 . S
C750 C751 1.362 . S
C751 H741 0.930 . S
C751 C744 1.409 . S
C751 C750 1.362 . S
H752 C758 0.930 . S
H753 C761 0.930 . S
H754 C762 0.930 . S
H755 C763 0.930 . S
H756 C766 0.930 . S
H757 C767 0.930 . S
C758 H752 0.930 . S
C758 C759 1.355 . S
C758 C760 1.415 . S
C759 C758 1.355 . S
C759 C761 1.419 . S
C760 C758 1.415 . S
C760 C765 1.425 . S
C760 C767 1.409 . S
C761 H753 0.930 . S
C761 C759 1.419 . S
C761 C762 1.362 . S
C762 H754 0.930 . S
C762 C761 1.362 . S
C762 C765 1.409 . S
C763 H755 0.930 . S
C763 C764 1.355 . S
C763 C765 1.415 . S
C764 C763 1.355 . S
C764 C766 1.419 . S
C765 C760 1.425 . S
C765 C762 1.409 . S
C765 C763 1.415 . S
C766 H756 0.930 . S
C766 C764 1.419 . S
C766 C767 1.362 . S
C767 H757 0.930 . S
C767 C760 1.409 . S
C767 C766 1.362 . S
H768 C774 0.930 . S
H769 C777 0.930 . S
H770 C778 0.930 . S
H771 C779 0.930 . S
H772 C782 0.930 . S
H773 C783 0.930 . S
C774 H768 0.930 . S
C774 C775 1.355 . S
C774 C776 1.415 . S
C775 C774 1.355 . S
C775 C777 1.419 1_565 S
C776 C774 1.415 . S
C776 C781 1.425 . S
C776 C783 1.409 . S
C777 H769 0.930 . S
C777 C775 1.419 1_545 S
C777 C778 1.362 . S
C778 H770 0.930 . S
C778 C777 1.362 . S
C778 C781 1.409 1_545 S
C779 H771 0.930 . S
C779 C780 1.355 . S
C779 C781 1.415 . S
C780 C779 1.355 . S
C780 C782 1.419 . S
C781 C776 1.425 . S
C781 C778 1.409 1_565 S
C781 C779 1.415 . S
C782 H772 0.930 . S
C782 C780 1.419 . S
C782 C783 1.362 . S
C783 H773 0.930 . S
C783 C776 1.409 . S
C783 C782 1.362 . S
H784 C790 0.930 . S
H785 C793 0.930 . S
H786 C794 0.930 . S
H787 C795 0.930 . S
H788 C798 0.930 . S
H789 C799 0.930 . S
C790 H784 0.930 . S
C790 C791 1.355 . S
C790 C792 1.415 . S
C791 C790 1.355 . S
C791 C793 1.419 . S
C792 C790 1.415 . S
C792 C797 1.425 . S
C792 C799 1.409 . S
C793 H785 0.930 . S
C793 C791 1.419 . S
C793 C794 1.362 . S
C794 H786 0.930 . S
C794 C793 1.362 . S
C794 C797 1.409 . S
C795 H787 0.930 . S
C795 C796 1.355 . S
C795 C797 1.415 . S
C796 C795 1.355 . S
C796 C798 1.419 . S
C797 C792 1.425 . S
C797 C794 1.409 . S
C797 C795 1.415 . S
C798 H788 0.930 . S
C798 C796 1.419 . S
C798 C799 1.362 . S
C799 H789 0.930 . S
C799 C792 1.409 . S
C799 C798 1.362 . S
H800 C806 0.930 . S
H801 C809 0.930 . S
H802 C810 0.930 . S
H803 C811 0.930 . S
H804 C814 0.930 . S
H805 C815 0.930 . S
C806 H800 0.930 . S
C806 C807 1.355 . S
C806 C808 1.415 . S
C807 C806 1.355 . S
C807 C809 1.419 . S
C808 C806 1.415 . S
C808 C813 1.425 . S
C808 C815 1.409 . S
C809 H801 0.930 . S
C809 C807 1.419 . S
C809 C810 1.362 . S
C810 H802 0.930 . S
C810 C809 1.362 . S
C810 C813 1.409 . S
C811 H803 0.930 . S
C811 C812 1.355 . S
C811 C813 1.415 . S
C812 C811 1.355 . S
C812 C814 1.419 . S
C813 C808 1.425 . S
C813 C810 1.409 . S
C813 C811 1.415 . S
C814 H804 0.930 . S
C814 C812 1.419 . S
C814 C815 1.362 . S
C815 H805 0.930 . S
C815 C808 1.409 . S
C815 C814 1.362 . S
H816 C822 0.930 . S
H817 C825 0.930 . S
H818 C826 0.930 . S
H819 C827 0.930 . S
H820 C830 0.930 . S
H821 C831 0.930 . S
C822 H816 0.930 . S
C822 C823 1.355 . S
C822 C824 1.415 . S
C823 C822 1.355 . S
C823 C825 1.419 . S
C824 C822 1.415 . S
C824 C829 1.425 . S
C824 C831 1.409 . S
C825 H817 0.930 . S
C825 C823 1.419 . S
C825 C826 1.362 . S
C826 H818 0.930 . S
C826 C825 1.362 . S
C826 C829 1.409 . S
C827 H819 0.930 . S
C827 C828 1.355 . S
C827 C829 1.415 . S
C828 C827 1.355 . S
C828 C830 1.419 . S
C829 C824 1.425 . S
C829 C826 1.409 . S
C829 C827 1.415 . S
C830 H820 0.930 . S
C830 C828 1.419 . S
C830 C831 1.362 . S
C831 H821 0.930 . S
C831 C824 1.409 . S
C831 C830 1.362 . S
H832 C838 0.930 . S
H833 C841 0.930 . S
H834 C842 0.930 . S
H835 C843 0.930 . S
H836 C846 0.930 . S
H837 C847 0.930 . S
C838 H832 0.930 . S
C838 C839 1.355 . S
C838 C840 1.415 . S
C839 C838 1.355 . S
C839 C841 1.419 . S
C840 C838 1.415 . S
C840 C845 1.425 . S
C840 C847 1.409 . S
C841 H833 0.930 . S
C841 C839 1.419 . S
C841 C842 1.362 . S
C842 H834 0.930 . S
C842 C841 1.362 . S
C842 C845 1.409 . S
C843 H835 0.930 . S
C843 C844 1.355 . S
C843 C845 1.415 . S
C844 C843 1.355 . S
C844 C846 1.419 . S
C845 C840 1.425 . S
C845 C842 1.409 . S
C845 C843 1.415 . S
C846 H836 0.930 . S
C846 C844 1.419 . S
C846 C847 1.362 . S
C847 H837 0.930 . S
C847 C840 1.409 . S
C847 C846 1.362 . S
H848 C854 0.930 . S
H849 C857 0.930 . S
H850 C858 0.930 . S
H851 C859 0.930 . S
H852 C862 0.930 . S
H853 C863 0.930 . S
C854 H848 0.930 . S
C854 C855 1.355 . S
C854 C856 1.415 . S
C855 C854 1.355 . S
C855 C857 1.419 . S
C856 C854 1.415 . S
C856 C861 1.425 . S
C856 C863 1.409 . S
C857 H849 0.930 . S
C857 C855 1.419 . S
C857 C858 1.362 . S
C858 H850 0.930 . S
C858 C857 1.362 . S
C858 C861 1.409 . S
C859 H851 0.930 . S
C859 C860 1.355 . S
C859 C861 1.415 . S
C860 C859 1.355 . S
C860 C862 1.419 . S
C861 C856 1.425 . S
C861 C858 1.409 . S
C861 C859 1.415 . S
C862 H852 0.930 . S
C862 C860 1.419 . S
C862 C863 1.362 . S
C863 H853 0.930 . S
C863 C856 1.409 . S
C863 C862 1.362 . S
H864 C870 0.930 . S
H865 C873 0.930 . S
H866 C874 0.930 . S
H867 C875 0.930 . S
H868 C878 0.930 . S
H869 C879 0.930 . S
C870 H864 0.930 . S
C870 C871 1.355 . S
C870 C872 1.415 . S
C871 C870 1.355 . S
C871 C873 1.419 . S
C872 C870 1.415 . S
C872 C877 1.425 . S
C872 C879 1.409 . S
C873 H865 0.930 . S
C873 C871 1.419 . S
C873 C874 1.362 . S
C874 H866 0.930 . S
C874 C873 1.362 . S
C874 C877 1.409 . S
C875 H867 0.930 . S
C875 C876 1.355 . S
C875 C877 1.415 . S
C876 C875 1.355 . S
C876 C878 1.419 . S
C877 C872 1.425 . S
C877 C874 1.409 . S
C877 C875 1.415 . S
C878 H868 0.930 . S
C878 C876 1.419 . S
C878 C879 1.362 . S
C879 H869 0.930 . S
C879 C872 1.409 . S
C879 C878 1.362 . S
H880 C886 0.930 . S
H881 C889 0.930 . S
H882 C890 0.930 . S
H883 C891 0.930 . S
H884 C894 0.930 . S
H885 C895 0.930 . S
C886 H880 0.930 . S
C886 C887 1.355 . S
C886 C888 1.415 . S
C887 C886 1.355 . S
C887 C889 1.419 . S
C888 C886 1.415 . S
C888 C893 1.425 . S
C888 C895 1.409 . S
C889 H881 0.930 . S
C889 C887 1.419 . S
C889 C890 1.362 . S
C890 H882 0.930 . S
C890 C889 1.362 . S
C890 C893 1.409 . S
C891 H883 0.930 . S
C891 C892 1.355 . S
C891 C893 1.415 . S
C892 C891 1.355 . S
C892 C894 1.419 . S
C893 C888 1.425 . S
C893 C890 1.409 . S
C893 C891 1.415 . S
C894 H884 0.930 . S
C894 C892 1.419 . S
C894 C895 1.362 . S
C895 H885 0.930 . S
C895 C888 1.409 . S
C895 C894 1.362 . S
H896 C902 0.930 . S
H897 C905 0.930 . S
H898 C906 0.930 . S
H899 C907 0.930 . S
H900 C910 0.930 . S
H901 C911 0.932 . S
C902 H896 0.930 . S
C902 C903 1.355 . S
C902 C904 1.415 . S
C903 C902 1.355 . S
C903 C905 1.419 . S
C904 C902 1.415 . S
C904 C909 1.425 . S
C904 C911 1.409 . S
C905 H897 0.930 . S
C905 C903 1.419 . S
C905 C906 1.362 . S
C906 H898 0.930 . S
C906 C905 1.362 . S
C906 C909 1.409 . S
C907 H899 0.930 . S
C907 C908 1.355 . S
C907 C909 1.415 . S
C908 C907 1.355 . S
C908 C910 1.419 1_556 S
C909 C904 1.425 . S
C909 C906 1.409 . S
C909 C907 1.415 . S
C910 H900 0.930 . S
C910 C908 1.419 1_554 S
C910 C911 1.362 1_554 S
C911 H901 0.932 . S
C911 C904 1.409 . S
C911 C910 1.362 1_556 S
H912 C918 0.930 . S
H913 C921 0.930 . S
H914 C922 0.930 . S
H915 C923 0.930 . S
H916 C926 0.930 . S
H917 C927 0.930 . S
C918 H912 0.930 . S
C918 C919 1.355 . S
C918 C920 1.415 . S
C919 C918 1.355 . S
C919 C921 1.419 . S
C920 C918 1.415 . S
C920 C925 1.425 . S
C920 C927 1.409 . S
C921 H913 0.930 . S
C921 C919 1.419 . S
C921 C922 1.362 . S
C922 H914 0.930 . S
C922 C921 1.362 . S
C922 C925 1.409 . S
C923 H915 0.930 . S
C923 C924 1.355 . S
C923 C925 1.415 . S
C924 C923 1.355 . S
C924 C926 1.419 . S
C925 C920 1.425 . S
C925 C922 1.409 . S
C925 C923 1.415 . S
C926 H916 0.930 . S
C926 C924 1.419 . S
C926 C927 1.362 . S
C927 H917 0.930 . S
C927 C920 1.409 . S
C927 C926 1.362 . S
H928 C934 0.930 . S
H929 C937 0.930 . S
H930 C938 0.930 . S
H931 C939 0.930 . S
H932 C942 0.930 . S
H933 C943 0.930 . S
C934 H928 0.930 . S
C934 C935 1.355 . S
C934 C936 1.415 . S
C935 C934 1.355 . S
C935 C937 1.419 . S
C936 C934 1.415 . S
C936 C941 1.425 . S
C936 C943 1.409 . S
C937 H929 0.930 . S
C937 C935 1.419 . S
C937 C938 1.362 . S
C938 H930 0.930 . S
C938 C937 1.362 . S
C938 C941 1.409 . S
C939 H931 0.930 . S
C939 C940 1.355 . S
C939 C941 1.415 . S
C940 C939 1.355 . S
C940 C942 1.419 . S
C941 C936 1.425 . S
C941 C938 1.409 . S
C941 C939 1.415 . S
C942 H932 0.930 . S
C942 C940 1.419 . S
C942 C943 1.362 . S
C943 H933 0.930 . S
C943 C936 1.409 . S
C943 C942 1.362 . S
H944 C950 0.930 . S
H945 C953 0.930 . S
H946 C954 0.930 . S
H947 C955 0.930 . S
H948 C958 0.930 . S
H949 C959 0.930 . S
C950 H944 0.930 . S
C950 C951 1.355 . S
C950 C952 1.415 . S
C951 C950 1.355 . S
C951 C953 1.419 . S
C952 C950 1.415 . S
C952 C957 1.425 . S
C952 C959 1.409 . S
C953 H945 0.930 . S
C953 C951 1.419 . S
C953 C954 1.362 . S
C954 H946 0.930 . S
C954 C953 1.362 . S
C954 C957 1.409 . S
C955 H947 0.930 . S
C955 C956 1.355 . S
C955 C957 1.415 . S
C956 C955 1.355 . S
C956 C958 1.419 . S
C957 C952 1.425 . S
C957 C954 1.409 . S
C957 C955 1.415 . S
C958 H948 0.930 . S
C958 C956 1.419 . S
C958 C959 1.362 . S
C959 H949 0.930 . S
C959 C952 1.409 . S
C959 C958 1.362 . S
H960 C966 0.930 . S
H961 C969 0.930 . S
H962 C970 0.930 . S
H963 C971 0.930 . S
H964 C974 0.930 1_455 S
H965 C975 0.930 . S
C966 H960 0.930 . S
C966 C967 1.355 . S
C966 C968 1.415 . S
C967 C966 1.355 . S
C967 C969 1.419 . S
C968 C966 1.415 . S
C968 C973 1.425 . S
C968 C975 1.409 . S
C969 H961 0.930 . S
C969 C967 1.419 . S
C969 C970 1.362 . S
C970 H962 0.930 . S
C970 C969 1.362 . S
C970 C973 1.409 . S
C971 H963 0.930 . S
C971 C972 1.355 . S
C971 C973 1.415 . S
C972 C971 1.355 . S
C972 C974 1.419 . S
C973 C968 1.425 . S
C973 C970 1.409 . S
C973 C971 1.415 . S
C974 H964 0.930 1_655 S
C974 C972 1.419 . S
C974 C975 1.362 . S
C975 H965 0.930 . S
C975 C968 1.409 . S
C975 C974 1.362 . S
H976 C982 0.930 . S
H977 C985 0.930 . S
H978 C986 0.930 . S
H979 C987 0.930 . S
H980 C990 0.930 . S
H981 C991 0.930 . S
C982 H976 0.930 . S
C982 C983 1.355 . S
C982 C984 1.415 . S
C983 C982 1.355 . S
C983 C985 1.419 . S
C984 C982 1.415 . S
C984 C989 1.425 . S
C984 C991 1.409 . S
C985 H977 0.930 . S
C985 C983 1.419 . S
C985 C986 1.362 . S
C986 H978 0.930 . S
C986 C985 1.362 . S
C986 C989 1.409 . S
C987 H979 0.930 . S
C987 C988 1.355 . S
C987 C989 1.415 . S
C988 C987 1.355 . S
C988 C990 1.419 . S
C989 C984 1.425 . S
C989 C986 1.409 . S
C989 C987 1.415 . S
C990 H980 0.930 . S
C990 C988 1.419 . S
C990 C991 1.362 . S
C991 H981 0.930 . S
C991 C984 1.409 . S
C991 C990 1.362 . S
H992 C998 0.930 . S
H993 C1001 0.930 . S
H994 C1002 0.930 . S
H995 C1003 0.930 . S
H996 C1006 0.930 . S
H997 C1007 0.930 . S
C998 H992 0.930 . S
C998 C999 1.355 . S
C998 C1000 1.415 . S
C999 C998 1.355 . S
C999 C1001 1.419 . S
C1000 C998 1.415 . S
C1000 C1005 1.425 . S
C1000 C1007 1.409 . S
C1001 H993 0.930 . S
C1001 C999 1.419 . S
C1001 C1002 1.362 . S
C1002 H994 0.930 . S
C1002 C1001 1.362 . S
C1002 C1005 1.409 . S
C1003 H995 0.930 . S
C1003 C1004 1.355 . S
C1003 C1005 1.415 . S
C1004 C1003 1.355 . S
C1004 C1006 1.419 . S
C1005 C1000 1.425 . S
C1005 C1002 1.409 . S
C1005 C1003 1.415 . S
C1006 H996 0.930 . S
C1006 C1004 1.419 . S
C1006 C1007 1.362 . S
C1007 H997 0.930 . S
C1007 C1000 1.409 . S
C1007 C1006 1.362 . S
H1008 C1014 0.930 . S
H1009 C1017 0.930 . S
H1010 C1018 0.930 . S
H1011 C1019 0.930 . S
H1012 C1022 0.930 . S
H1013 C1023 0.930 . S
C1014 H1008 0.930 . S
C1014 C1015 1.355 . S
C1014 C1016 1.415 . S
C1015 C1014 1.355 . S
C1015 C1017 1.419 . S
C1016 C1014 1.415 . S
C1016 C1021 1.425 . S
C1016 C1023 1.409 . S
C1017 H1009 0.930 . S
C1017 C1015 1.419 . S
C1017 C1018 1.362 . S
C1018 H1010 0.930 . S
C1018 C1017 1.362 . S
C1018 C1021 1.409 . S
C1019 H1011 0.930 . S
C1019 C1020 1.355 . S
C1019 C1021 1.415 . S
C1020 C1019 1.355 . S
C1020 C1022 1.419 . S
C1021 C1016 1.425 . S
C1021 C1018 1.409 . S
C1021 C1019 1.415 . S
C1022 H1012 0.930 . S
C1022 C1020 1.419 . S
C1022 C1023 1.362 . S
C1023 H1013 0.930 . S
C1023 C1016 1.409 . S
C1023 C1022 1.362 . S
H1024 C1030 0.930 . S
H1025 C1033 0.930 . S
H1026 C1034 0.930 . S
H1027 C1035 0.930 . S
H1028 C1038 0.930 . S
H1029 C1039 0.930 . S
C1030 H1024 0.930 . S
C1030 C1031 1.355 . S
C1030 C1032 1.415 . S
C1031 C1030 1.355 . S
C1031 C1033 1.419 . S
C1032 C1030 1.415 . S
C1032 C1037 1.425 . S
C1032 C1039 1.409 . S
C1033 H1025 0.930 . S
C1033 C1031 1.419 . S
C1033 C1034 1.362 . S
C1034 H1026 0.930 . S
C1034 C1033 1.362 . S
C1034 C1037 1.409 . S
C1035 H1027 0.930 . S
C1035 C1036 1.355 . S
C1035 C1037 1.415 . S
C1036 C1035 1.355 . S
C1036 C1038 1.419 . S
C1037 C1032 1.425 . S
C1037 C1034 1.409 . S
C1037 C1035 1.415 . S
C1038 H1028 0.930 . S
C1038 C1036 1.419 . S
C1038 C1039 1.362 . S
C1039 H1029 0.930 . S
C1039 C1032 1.409 . S
C1039 C1038 1.362 . S
H1040 C1046 0.930 . S
H1041 C1049 0.930 . S
H1042 C1050 0.930 . S
H1043 C1051 0.930 . S
H1044 C1054 0.930 1_565 S
H1045 C1055 0.930 1_565 S
C1046 H1040 0.930 . S
C1046 C1047 1.355 . S
C1046 C1048 1.415 . S
C1047 C1046 1.355 . S
C1047 C1049 1.419 . S
C1048 C1046 1.415 . S
C1048 C1053 1.425 . S
C1048 C1055 1.409 . S
C1049 H1041 0.930 . S
C1049 C1047 1.419 . S
C1049 C1050 1.362 . S
C1050 H1042 0.930 . S
C1050 C1049 1.362 . S
C1050 C1053 1.409 . S
C1051 H1043 0.930 . S
C1051 C1052 1.355 . S
C1051 C1053 1.415 . S
C1052 C1051 1.355 . S
C1052 C1054 1.419 . S
C1053 C1048 1.425 . S
C1053 C1050 1.409 . S
C1053 C1051 1.415 . S
C1054 H1044 0.930 1_545 S
C1054 C1052 1.419 . S
C1054 C1055 1.362 . S
C1055 H1045 0.930 1_545 S
C1055 C1048 1.409 . S
C1055 C1054 1.362 . S
H1056 C1062 0.930 . S
H1057 C1065 0.930 . S
H1058 C1066 0.930 . S
H1059 C1067 0.930 . S
H1060 C1070 0.930 . S
H1061 C1071 0.930 . S
C1062 H1056 0.930 . S
C1062 C1063 1.355 . S
C1062 C1064 1.415 . S
C1063 C1062 1.355 . S
C1063 C1065 1.419 . S
C1064 C1062 1.415 . S
C1064 C1069 1.425 . S
C1064 C1071 1.409 . S
C1065 H1057 0.930 . S
C1065 C1063 1.419 . S
C1065 C1066 1.362 . S
C1066 H1058 0.930 . S
C1066 C1065 1.362 . S
C1066 C1069 1.409 . S
C1067 H1059 0.930 . S
C1067 C1068 1.355 . S
C1067 C1069 1.415 . S
C1068 C1067 1.355 . S
C1068 C1070 1.419 . S
C1069 C1064 1.425 . S
C1069 C1066 1.409 . S
C1069 C1067 1.415 . S
C1070 H1060 0.930 . S
C1070 C1068 1.419 . S
C1070 C1071 1.362 . S
C1071 H1061 0.930 . S
C1071 C1064 1.409 . S
C1071 C1070 1.362 . S
H1072 C1078 0.930 . S
H1073 C1081 0.930 . S
H1074 C1082 0.930 . S
H1075 C1083 0.930 . S
H1076 C1086 0.930 . S
H1077 C1087 0.930 . S
C1078 H1072 0.930 . S
C1078 C1079 1.355 . S
C1078 C1080 1.415 . S
C1079 C1078 1.355 . S
C1079 C1081 1.419 . S
C1080 C1078 1.415 . S
C1080 C1085 1.425 . S
C1080 C1087 1.409 . S
C1081 H1073 0.930 . S
C1081 C1079 1.419 . S
C1081 C1082 1.362 . S
C1082 H1074 0.930 . S
C1082 C1081 1.362 . S
C1082 C1085 1.409 . S
C1083 H1075 0.930 . S
C1083 C1084 1.355 . S
C1083 C1085 1.415 . S
C1084 C1083 1.355 . S
C1084 C1086 1.419 . S
C1085 C1080 1.425 . S
C1085 C1082 1.409 . S
C1085 C1083 1.415 . S
C1086 H1076 0.930 . S
C1086 C1084 1.419 . S
C1086 C1087 1.362 . S
C1087 H1077 0.930 . S
C1087 C1080 1.409 . S
C1087 C1086 1.362 . S
H1088 C1094 0.930 . S
H1089 C1097 0.930 . S
H1090 C1098 0.930 . S
H1091 C1099 0.930 . S
H1092 C1102 0.930 . S
H1093 C1103 0.930 . S
C1094 H1088 0.930 . S
C1094 C1095 1.355 . S
C1094 C1096 1.415 . S
C1095 C1094 1.355 . S
C1095 C1097 1.419 . S
C1096 C1094 1.415 . S
C1096 C1101 1.425 . S
C1096 C1103 1.409 . S
C1097 H1089 0.930 . S
C1097 C1095 1.419 . S
C1097 C1098 1.362 . S
C1098 H1090 0.930 . S
C1098 C1097 1.362 . S
C1098 C1101 1.409 . S
C1099 H1091 0.930 . S
C1099 C1100 1.355 . S
C1099 C1101 1.415 . S
C1100 C1099 1.355 . S
C1100 C1102 1.419 . S
C1101 C1096 1.425 . S
C1101 C1098 1.409 . S
C1101 C1099 1.415 . S
C1102 H1092 0.930 . S
C1102 C1100 1.419 . S
C1102 C1103 1.362 . S
C1103 H1093 0.930 . S
C1103 C1096 1.409 . S
C1103 C1102 1.362 . S
H1104 C1110 0.930 . S
H1105 C1113 0.930 . S
H1106 C1114 0.930 . S
H1107 C1115 0.930 . S
H1108 C1118 0.930 . S
H1109 C1119 0.930 . S
C1110 H1104 0.930 . S
C1110 C1111 1.355 . S
C1110 C1112 1.415 . S
C1111 C1110 1.355 . S
C1111 C1113 1.419 . S
C1112 C1110 1.415 . S
C1112 C1117 1.425 . S
C1112 C1119 1.409 . S
C1113 H1105 0.930 . S
C1113 C1111 1.419 . S
C1113 C1114 1.362 . S
C1114 H1106 0.930 . S
C1114 C1113 1.362 . S
C1114 C1117 1.409 . S
C1115 H1107 0.930 . S
C1115 C1116 1.355 . S
C1115 C1117 1.415 . S
C1116 C1115 1.355 . S
C1116 C1118 1.419 . S
C1117 C1112 1.425 . S
C1117 C1114 1.409 . S
C1117 C1115 1.415 . S
C1118 H1108 0.930 . S
C1118 C1116 1.419 . S
C1118 C1119 1.362 . S
C1119 H1109 0.930 . S
C1119 C1112 1.409 . S
C1119 C1118 1.362 . S
H1120 C1126 0.930 . S
H1121 C1129 0.930 . S
H1122 C1130 0.930 . S
H1123 C1131 0.930 1_554 S
H1124 C1134 0.930 . S
H1125 C1135 0.930 . S
C1126 H1120 0.930 . S
C1126 C1127 1.355 . S
C1126 C1128 1.415 . S
C1127 C1126 1.355 . S
C1127 C1129 1.419 . S
C1128 C1126 1.415 . S
C1128 C1133 1.425 . S
C1128 C1135 1.409 . S
C1129 H1121 0.930 . S
C1129 C1127 1.419 . S
C1129 C1130 1.362 . S
C1130 H1122 0.930 . S
C1130 C1129 1.362 . S
C1130 C1133 1.409 . S
C1131 H1123 0.930 1_556 S
C1131 C1132 1.355 . S
C1131 C1133 1.415 . S
C1132 C1131 1.355 . S
C1132 C1134 1.419 . S
C1133 C1128 1.425 . S
C1133 C1130 1.409 . S
C1133 C1131 1.415 . S
C1134 H1124 0.930 . S
C1134 C1132 1.419 . S
C1134 C1135 1.362 . S
C1135 H1125 0.930 . S
C1135 C1128 1.409 . S
C1135 C1134 1.362 . S
H1136 C1142 0.930 . S
H1137 C1145 0.930 . S
H1138 C1146 0.930 . S
H1139 C1147 0.930 . S
H1140 C1150 0.930 . S
H1141 C1151 0.930 . S
C1142 H1136 0.930 . S
C1142 C1143 1.355 . S
C1142 C1144 1.415 . S
C1143 C1142 1.355 . S
C1143 C1145 1.419 . S
C1144 C1142 1.415 . S
C1144 C1149 1.425 . S
C1144 C1151 1.409 . S
C1145 H1137 0.930 . S
C1145 C1143 1.419 . S
C1145 C1146 1.362 . S
C1146 H1138 0.930 . S
C1146 C1145 1.362 . S
C1146 C1149 1.409 . S
C1147 H1139 0.930 . S
C1147 C1148 1.355 . S
C1147 C1149 1.415 . S
C1148 C1147 1.355 . S
C1148 C1150 1.419 . S
C1149 C1144 1.425 . S
C1149 C1146 1.409 . S
C1149 C1147 1.415 . S
C1150 H1140 0.930 . S
C1150 C1148 1.419 . S
C1150 C1151 1.362 . S
C1151 H1141 0.930 . S
C1151 C1144 1.409 . S
C1151 C1150 1.362 . S
H1152 C1158 0.930 . S
H1153 C1161 0.930 . S
H1154 C1162 0.930 . S
H1155 C1163 0.930 . S
H1156 C1166 0.930 . S
H1157 C1167 0.930 . S
C1158 H1152 0.930 . S
C1158 C1159 1.355 . S
C1158 C1160 1.415 . S
C1159 C1158 1.355 . S
C1159 C1161 1.419 . S
C1160 C1158 1.415 . S
C1160 C1165 1.425 . S
C1160 C1167 1.409 . S
C1161 H1153 0.930 . S
C1161 C1159 1.419 . S
C1161 C1162 1.362 . S
C1162 H1154 0.930 . S
C1162 C1161 1.362 . S
C1162 C1165 1.409 . S
C1163 H1155 0.930 . S
C1163 C1164 1.355 . S
C1163 C1165 1.415 . S
C1164 C1163 1.355 . S
C1164 C1166 1.419 . S
C1165 C1160 1.425 . S
C1165 C1162 1.409 . S
C1165 C1163 1.415 . S
C1166 H1156 0.930 . S
C1166 C1164 1.419 . S
C1166 C1167 1.362 . S
C1167 H1157 0.930 . S
C1167 C1160 1.409 . S
C1167 C1166 1.362 . S
H1168 C1174 0.930 . S
H1169 C1177 0.930 . S
H1170 C1178 0.930 1_556 S
H1171 C1179 0.930 1_556 S
H1172 C1182 0.930 . S
H1173 C1183 0.930 . S
C1174 H1168 0.930 . S
C1174 C1175 1.355 . S
C1174 C1176 1.415 . S
C1175 C1174 1.355 . S
C1175 C1177 1.419 . S
C1176 C1174 1.415 . S
C1176 C1181 1.425 . S
C1176 C1183 1.409 . S
C1177 H1169 0.930 . S
C1177 C1175 1.419 . S
C1177 C1178 1.362 . S
C1178 H1170 0.930 1_554 S
C1178 C1177 1.362 . S
C1178 C1181 1.409 . S
C1179 H1171 0.930 1_554 S
C1179 C1180 1.355 . S
C1179 C1181 1.415 . S
C1180 C1179 1.355 . S
C1180 C1182 1.419 . S
C1181 C1176 1.425 . S
C1181 C1178 1.409 . S
C1181 C1179 1.415 . S
C1182 H1172 0.930 . S
C1182 C1180 1.419 . S
C1182 C1183 1.362 . S
C1183 H1173 0.930 . S
C1183 C1176 1.409 . S
C1183 C1182 1.362 . S
H1184 C1190 0.930 . S
H1185 C1193 0.930 . S
H1186 C1194 0.930 . S
H1187 C1195 0.930 . S
H1188 C1198 0.930 . S
H1189 C1199 0.930 . S
C1190 H1184 0.930 . S
C1190 C1191 1.355 . S
C1190 C1192 1.415 . S
C1191 C1190 1.355 . S
C1191 C1193 1.419 . S
C1192 C1190 1.415 . S
C1192 C1197 1.425 . S
C1192 C1199 1.409 . S
C1193 H1185 0.930 . S
C1193 C1191 1.419 . S
C1193 C1194 1.362 . S
C1194 H1186 0.930 . S
C1194 C1193 1.362 . S
C1194 C1197 1.409 . S
C1195 H1187 0.930 . S
C1195 C1196 1.355 . S
C1195 C1197 1.415 . S
C1196 C1195 1.355 . S
C1196 C1198 1.419 . S
C1197 C1192 1.425 . S
C1197 C1194 1.409 . S
C1197 C1195 1.415 . S
C1198 H1188 0.930 . S
C1198 C1196 1.419 . S
C1198 C1199 1.362 . S
C1199 H1189 0.930 . S
C1199 C1192 1.409 . S
C1199 C1198 1.362 . S
H1200 C1206 0.930 . S
H1201 C1209 0.930 . S
H1202 C1210 0.930 . S
H1203 C1211 0.930 . S
H1204 C1214 0.930 . S
H1205 C1215 0.930 . S
C1206 H1200 0.930 . S
C1206 C1207 1.355 . S
C1206 C1208 1.415 . S
C1207 C1206 1.355 . S
C1207 C1209 1.419 . S
C1208 C1206 1.415 . S
C1208 C1213 1.425 . S
C1208 C1215 1.409 . S
C1209 H1201 0.930 . S
C1209 C1207 1.419 . S
C1209 C1210 1.362 . S
C1210 H1202 0.930 . S
C1210 C1209 1.362 . S
C1210 C1213 1.409 . S
C1211 H1203 0.930 . S
C1211 C1212 1.355 . S
C1211 C1213 1.415 . S
C1212 C1211 1.355 . S
C1212 C1214 1.419 . S
C1213 C1208 1.425 . S
C1213 C1210 1.409 . S
C1213 C1211 1.415 . S
C1214 H1204 0.930 . S
C1214 C1212 1.419 . S
C1214 C1215 1.362 . S
C1215 H1205 0.930 . S
C1215 C1208 1.409 . S
C1215 C1214 1.362 . S
H1216 C1222 0.930 . S
H1217 C1225 0.930 . S
H1218 C1226 0.930 . S
H1219 C1227 0.930 . S
H1220 C1230 0.930 . S
H1221 C1231 0.930 . S
C1222 H1216 0.930 . S
C1222 C1223 1.355 . S
C1222 C1224 1.415 . S
C1223 C1222 1.355 . S
C1223 C1225 1.419 . S
C1224 C1222 1.415 . S
C1224 C1229 1.425 . S
C1224 C1231 1.409 . S
C1225 H1217 0.930 . S
C1225 C1223 1.419 . S
C1225 C1226 1.362 . S
C1226 H1218 0.930 . S
C1226 C1225 1.362 . S
C1226 C1229 1.409 . S
C1227 H1219 0.930 . S
C1227 C1228 1.355 . S
C1227 C1229 1.415 . S
C1228 C1227 1.355 . S
C1228 C1230 1.419 . S
C1229 C1224 1.425 . S
C1229 C1226 1.409 . S
C1229 C1227 1.415 . S
C1230 H1220 0.930 . S
C1230 C1228 1.419 . S
C1230 C1231 1.362 . S
C1231 H1221 0.930 . S
C1231 C1224 1.409 . S
C1231 C1230 1.362 . S
H1232 C1238 0.930 . S
H1233 C1241 0.930 . S
H1234 C1242 0.930 . S
H1235 C1243 0.930 . S
H1236 C1246 0.930 . S
H1237 C1247 0.930 . S
C1238 H1232 0.930 . S
C1238 C1239 1.355 . S
C1238 C1240 1.415 . S
C1239 C1238 1.355 . S
C1239 C1241 1.419 . S
C1240 C1238 1.415 . S
C1240 C1245 1.425 . S
C1240 C1247 1.409 . S
C1241 H1233 0.930 . S
C1241 C1239 1.419 . S
C1241 C1242 1.362 . S
C1242 H1234 0.930 . S
C1242 C1241 1.362 . S
C1242 C1245 1.409 . S
C1243 H1235 0.930 . S
C1243 C1244 1.355 . S
C1243 C1245 1.415 . S
C1244 C1243 1.355 . S
C1244 C1246 1.419 . S
C1245 C1240 1.425 . S
C1245 C1242 1.409 . S
C1245 C1243 1.415 . S
C1246 H1236 0.930 . S
C1246 C1244 1.419 . S
C1246 C1247 1.362 . S
C1247 H1237 0.930 . S
C1247 C1240 1.409 . S
C1247 C1246 1.362 . S
H1248 C1254 0.930 . S
H1249 C1257 0.930 . S
H1250 C1258 0.930 . S
H1251 C1259 0.930 . S
H1252 C1262 0.930 . S
H1253 C1263 0.930 . S
C1254 H1248 0.930 . S
C1254 C1255 1.355 . S
C1254 C1256 1.415 . S
C1255 C1254 1.355 . S
C1255 C1257 1.419 . S
C1256 C1254 1.415 . S
C1256 C1261 1.425 . S
C1256 C1263 1.409 . S
C1257 H1249 0.930 . S
C1257 C1255 1.419 . S
C1257 C1258 1.362 . S
C1258 H1250 0.930 . S
C1258 C1257 1.362 . S
C1258 C1261 1.409 . S
C1259 H1251 0.930 . S
C1259 C1260 1.355 . S
C1259 C1261 1.415 . S
C1260 C1259 1.355 . S
C1260 C1262 1.419 . S
C1261 C1256 1.425 . S
C1261 C1258 1.409 . S
C1261 C1259 1.415 . S
C1262 H1252 0.930 . S
C1262 C1260 1.419 . S
C1262 C1263 1.362 . S
C1263 H1253 0.930 . S
C1263 C1256 1.409 . S
C1263 C1262 1.362 . S
H1264 C1270 0.930 . S
H1265 C1273 0.930 . S
H1266 C1274 0.930 . S
H1267 C1275 0.930 . S
H1268 C1278 0.930 . S
H1269 C1279 0.930 . S
C1270 H1264 0.930 . S
C1270 C1271 1.355 . S
C1270 C1272 1.415 . S
C1271 C1270 1.355 . S
C1271 C1273 1.419 . S
C1272 C1270 1.415 . S
C1272 C1277 1.425 . S
C1272 C1279 1.409 . S
C1273 H1265 0.930 . S
C1273 C1271 1.419 . S
C1273 C1274 1.362 . S
C1274 H1266 0.930 . S
C1274 C1273 1.362 . S
C1274 C1277 1.409 . S
C1275 H1267 0.930 . S
C1275 C1276 1.355 . S
C1275 C1277 1.415 . S
C1276 C1275 1.355 . S
C1276 C1278 1.419 . S
C1277 C1272 1.425 . S
C1277 C1274 1.409 . S
C1277 C1275 1.415 . S
C1278 H1268 0.930 . S
C1278 C1276 1.419 . S
C1278 C1279 1.362 . S
C1279 H1269 0.930 . S
C1279 C1272 1.409 . S
C1279 C1278 1.362 . S
H1280 C1286 0.930 . S
H1281 C1289 0.930 . S
H1282 C1290 0.930 . S
H1283 C1291 0.930 1_556 S
H1284 C1294 0.930 . S
H1285 C1295 0.930 . S
C1286 H1280 0.930 . S
C1286 C1287 1.355 . S
C1286 C1288 1.415 . S
C1287 C1286 1.355 . S
C1287 C1289 1.419 . S
C1288 C1286 1.415 . S
C1288 C1293 1.425 . S
C1288 C1295 1.409 . S
C1289 H1281 0.930 . S
C1289 C1287 1.419 . S
C1289 C1290 1.362 . S
C1290 H1282 0.930 . S
C1290 C1289 1.362 . S
C1290 C1293 1.409 . S
C1291 H1283 0.930 1_554 S
C1291 C1292 1.355 . S
C1291 C1293 1.415 . S
C1292 C1291 1.355 . S
C1292 C1294 1.419 . S
C1293 C1288 1.425 . S
C1293 C1290 1.409 . S
C1293 C1291 1.415 . S
C1294 H1284 0.930 . S
C1294 C1292 1.419 . S
C1294 C1295 1.362 . S
C1295 H1285 0.930 . S
C1295 C1288 1.409 . S
C1295 C1294 1.362 . S
H1296 C1302 0.930 . S
H1297 C1305 0.930 . S
H1298 C1306 0.930 . S
H1299 C1307 0.930 . S
H1300 C1310 0.930 . S
H1301 C1311 0.930 . S
C1302 H1296 0.930 . S
C1302 C1303 1.355 . S
C1302 C1304 1.415 . S
C1303 C1302 1.355 . S
C1303 C1305 1.419 . S
C1304 C1302 1.415 . S
C1304 C1309 1.425 . S
C1304 C1311 1.409 . S
C1305 H1297 0.930 . S
C1305 C1303 1.419 . S
C1305 C1306 1.362 . S
C1306 H1298 0.930 . S
C1306 C1305 1.362 . S
C1306 C1309 1.409 . S
C1307 H1299 0.930 . S
C1307 C1308 1.355 . S
C1307 C1309 1.415 . S
C1308 C1307 1.355 . S
C1308 C1310 1.419 . S
C1309 C1304 1.425 . S
C1309 C1306 1.409 . S
C1309 C1307 1.415 . S
C1310 H1300 0.930 . S
C1310 C1308 1.419 . S
C1310 C1311 1.362 . S
C1311 H1301 0.930 . S
C1311 C1304 1.409 . S
C1311 C1310 1.362 . S
H1312 C1318 0.930 . S
H1313 C1321 0.930 . S
H1314 C1322 0.930 . S
H1315 C1323 0.930 . S
H1316 C1326 0.930 . S
H1317 C1327 0.930 . S
C1318 H1312 0.930 . S
C1318 C1319 1.355 . S
C1318 C1320 1.415 . S
C1319 C1318 1.355 . S
C1319 C1321 1.419 . S
C1320 C1318 1.415 . S
C1320 C1325 1.425 . S
C1320 C1327 1.409 . S
C1321 H1313 0.930 . S
C1321 C1319 1.419 . S
C1321 C1322 1.362 . S
C1322 H1314 0.930 . S
C1322 C1321 1.362 . S
C1322 C1325 1.409 . S
C1323 H1315 0.930 . S
C1323 C1324 1.355 . S
C1323 C1325 1.415 . S
C1324 C1323 1.355 . S
C1324 C1326 1.419 . S
C1325 C1320 1.425 . S
C1325 C1322 1.409 . S
C1325 C1323 1.415 . S
C1326 H1316 0.930 . S
C1326 C1324 1.419 . S
C1326 C1327 1.362 . S
C1327 H1317 0.930 . S
C1327 C1320 1.409 . S
C1327 C1326 1.362 . S
H1328 C1334 0.930 . S
H1329 C1337 0.930 . S
H1330 C1338 0.930 . S
H1331 C1339 0.930 . S
H1332 C1342 0.930 . S
H1333 C1343 0.930 . S
C1334 H1328 0.930 . S
C1334 C1335 1.355 . S
C1334 C1336 1.415 . S
C1335 C1334 1.355 . S
C1335 C1337 1.419 . S
C1336 C1334 1.415 . S
C1336 C1341 1.425 . S
C1336 C1343 1.409 . S
C1337 H1329 0.930 . S
C1337 C1335 1.419 . S
C1337 C1338 1.362 . S
C1338 H1330 0.930 . S
C1338 C1337 1.362 . S
C1338 C1341 1.409 . S
C1339 H1331 0.930 . S
C1339 C1340 1.355 . S
C1339 C1341 1.415 . S
C1340 C1339 1.355 . S
C1340 C1342 1.419 . S
C1341 C1336 1.425 . S
C1341 C1338 1.409 . S
C1341 C1339 1.415 . S
C1342 H1332 0.930 . S
C1342 C1340 1.419 . S
C1342 C1343 1.362 . S
C1343 H1333 0.930 . S
C1343 C1336 1.409 . S
C1343 C1342 1.362 . S
H1344 C1350 0.930 . S
H1345 C1353 0.930 . S
H1346 C1354 0.930 . S
H1347 C1355 0.930 . S
H1348 C1358 0.930 . S
H1349 C1359 0.930 . S
C1350 H1344 0.930 . S
C1350 C1351 1.355 . S
C1350 C1352 1.415 . S
C1351 C1350 1.355 . S
C1351 C1353 1.419 . S
C1352 C1350 1.415 . S
C1352 C1357 1.425 . S
C1352 C1359 1.409 . S
C1353 H1345 0.930 . S
C1353 C1351 1.419 . S
C1353 C1354 1.362 . S
C1354 H1346 0.930 . S
C1354 C1353 1.362 . S
C1354 C1357 1.409 . S
C1355 H1347 0.930 . S
C1355 C1356 1.355 . S
C1355 C1357 1.415 . S
C1356 C1355 1.355 . S
C1356 C1358 1.419 . S
C1357 C1352 1.425 . S
C1357 C1354 1.409 . S
C1357 C1355 1.415 . S
C1358 H1348 0.930 . S
C1358 C1356 1.419 . S
C1358 C1359 1.362 . S
C1359 H1349 0.930 . S
C1359 C1352 1.409 . S
C1359 C1358 1.362 . S
H1360 C1366 0.930 . S
H1361 C1369 0.930 . S
H1362 C1370 0.930 . S
H1363 C1371 0.930 . S
H1364 C1374 0.930 . S
H1365 C1375 0.930 . S
C1366 H1360 0.930 . S
C1366 C1367 1.355 . S
C1366 C1368 1.415 . S
C1367 C1366 1.355 . S
C1367 C1369 1.419 . S
C1368 C1366 1.415 . S
C1368 C1373 1.425 . S
C1368 C1375 1.409 . S
C1369 H1361 0.930 . S
C1369 C1367 1.419 . S
C1369 C1370 1.362 . S
C1370 H1362 0.930 . S
C1370 C1369 1.362 . S
C1370 C1373 1.409 . S
C1371 H1363 0.930 . S
C1371 C1372 1.355 . S
C1371 C1373 1.415 . S
C1372 C1371 1.355 . S
C1372 C1374 1.419 . S
C1373 C1368 1.425 . S
C1373 C1370 1.409 . S
C1373 C1371 1.415 . S
C1374 H1364 0.930 . S
C1374 C1372 1.419 . S
C1374 C1375 1.362 . S
C1375 H1365 0.930 . S
C1375 C1368 1.409 . S
C1375 C1374 1.362 . S
H1376 C1382 0.930 . S
H1377 C1385 0.930 . S
H1378 C1386 0.930 . S
H1379 C1387 0.930 . S
H1380 C1390 0.930 . S
H1381 C1391 0.930 . S
C1382 H1376 0.930 . S
C1382 C1383 1.355 . S
C1382 C1384 1.415 . S
C1383 C1382 1.355 . S
C1383 C1385 1.419 . S
C1384 C1382 1.415 . S
C1384 C1389 1.425 . S
C1384 C1391 1.409 . S
C1385 H1377 0.930 . S
C1385 C1383 1.419 . S
C1385 C1386 1.362 . S
C1386 H1378 0.930 . S
C1386 C1385 1.362 . S
C1386 C1389 1.409 . S
C1387 H1379 0.930 . S
C1387 C1388 1.355 . S
C1387 C1389 1.415 . S
C1388 C1387 1.355 . S
C1388 C1390 1.419 . S
C1389 C1384 1.425 . S
C1389 C1386 1.409 . S
C1389 C1387 1.415 . S
C1390 H1380 0.930 . S
C1390 C1388 1.419 . S
C1390 C1391 1.362 . S
C1391 H1381 0.930 . S
C1391 C1384 1.409 . S
C1391 C1390 1.362 . S
H1392 C1398 0.930 . S
H1393 C1401 0.930 . S
H1394 C1402 0.930 . S
H1395 C1403 0.930 . S
H1396 C1406 0.930 . S
H1397 C1407 0.930 . S
C1398 H1392 0.930 . S
C1398 C1399 1.355 . S
C1398 C1400 1.415 . S
C1399 C1398 1.355 . S
C1399 C1401 1.419 . S
C1400 C1398 1.415 . S
C1400 C1405 1.425 . S
C1400 C1407 1.409 . S
C1401 H1393 0.930 . S
C1401 C1399 1.419 . S
C1401 C1402 1.362 . S
C1402 H1394 0.930 . S
C1402 C1401 1.362 . S
C1402 C1405 1.409 . S
C1403 H1395 0.930 . S
C1403 C1404 1.355 . S
C1403 C1405 1.415 . S
C1404 C1403 1.355 . S
C1404 C1406 1.419 . S
C1405 C1400 1.425 . S
C1405 C1402 1.409 . S
C1405 C1403 1.415 . S
C1406 H1396 0.930 . S
C1406 C1404 1.419 . S
C1406 C1407 1.362 . S
C1407 H1397 0.930 . S
C1407 C1400 1.409 . S
C1407 C1406 1.362 . S
H1408 C1414 0.930 . S
H1409 C1417 0.930 . S
H1410 C1418 0.930 . S
H1411 C1419 0.930 . S
H1412 C1422 0.930 . S
H1413 C1423 0.930 . S
C1414 H1408 0.930 . S
C1414 C1415 1.355 . S
C1414 C1416 1.415 . S
C1415 C1414 1.355 . S
C1415 C1417 1.419 . S
C1416 C1414 1.415 . S
C1416 C1421 1.425 . S
C1416 C1423 1.409 . S
C1417 H1409 0.930 . S
C1417 C1415 1.419 . S
C1417 C1418 1.362 . S
C1418 H1410 0.930 . S
C1418 C1417 1.362 . S
C1418 C1421 1.409 . S
C1419 H1411 0.930 . S
C1419 C1420 1.355 . S
C1419 C1421 1.415 . S
C1420 C1419 1.355 . S
C1420 C1422 1.419 . S
C1421 C1416 1.425 . S
C1421 C1418 1.409 . S
C1421 C1419 1.415 . S
C1422 H1412 0.930 . S
C1422 C1420 1.419 . S
C1422 C1423 1.362 . S
C1423 H1413 0.930 . S
C1423 C1416 1.409 . S
C1423 C1422 1.362 . S
H1424 C1430 0.930 . S
H1425 C1433 0.930 . S
H1426 C1434 0.930 . S
H1427 C1435 0.930 . S
H1428 C1438 0.930 . S
H1429 C1439 0.930 . S
C1430 H1424 0.930 . S
C1430 C1431 1.355 . S
C1430 C1432 1.415 . S
C1431 C1430 1.355 . S
C1431 C1433 1.419 . S
C1432 C1430 1.415 . S
C1432 C1437 1.425 . S
C1432 C1439 1.409 . S
C1433 H1425 0.930 . S
C1433 C1431 1.419 . S
C1433 C1434 1.362 . S
C1434 H1426 0.930 . S
C1434 C1433 1.362 . S
C1434 C1437 1.409 . S
C1435 H1427 0.930 . S
C1435 C1436 1.355 . S
C1435 C1437 1.415 . S
C1436 C1435 1.355 . S
C1436 C1438 1.419 . S
C1437 C1432 1.425 . S
C1437 C1434 1.409 . S
C1437 C1435 1.415 . S
C1438 H1428 0.930 . S
C1438 C1436 1.419 . S
C1438 C1439 1.362 . S
C1439 H1429 0.930 . S
C1439 C1432 1.409 . S
C1439 C1438 1.362 . S
H1440 C1446 0.930 . S
H1441 C1449 0.930 . S
H1442 C1450 0.930 . S
H1443 C1451 0.930 . S
H1444 C1454 0.930 . S
H1445 C1455 0.930 . S
C1446 H1440 0.930 . S
C1446 C1447 1.355 . S
C1446 C1448 1.415 . S
C1447 C1446 1.355 . S
C1447 C1449 1.419 . S
C1448 C1446 1.415 . S
C1448 C1453 1.425 . S
C1448 C1455 1.409 . S
C1449 H1441 0.930 . S
C1449 C1447 1.419 . S
C1449 C1450 1.362 . S
C1450 H1442 0.930 . S
C1450 C1449 1.362 . S
C1450 C1453 1.409 . S
C1451 H1443 0.930 . S
C1451 C1452 1.355 . S
C1451 C1453 1.415 . S
C1452 C1451 1.355 . S
C1452 C1454 1.419 . S
C1453 C1448 1.425 . S
C1453 C1450 1.409 . S
C1453 C1451 1.415 . S
C1454 H1444 0.930 . S
C1454 C1452 1.419 . S
C1454 C1455 1.362 . S
C1455 H1445 0.930 . S
C1455 C1448 1.409 . S
C1455 C1454 1.362 . S
H1456 C1462 0.930 . S
H1457 C1465 0.930 . S
H1458 C1466 0.930 . S
H1459 C1467 0.930 . S
H1460 C1470 0.930 . S
H1461 C1471 0.930 . S
C1462 H1456 0.930 . S
C1462 C1463 1.355 . S
C1462 C1464 1.415 . S
C1463 C1462 1.355 . S
C1463 C1465 1.419 . S
C1464 C1462 1.415 . S
C1464 C1469 1.425 . S
C1464 C1471 1.409 . S
C1465 H1457 0.930 . S
C1465 C1463 1.419 . S
C1465 C1466 1.362 . S
C1466 H1458 0.930 . S
C1466 C1465 1.362 . S
C1466 C1469 1.409 . S
C1467 H1459 0.930 . S
C1467 C1468 1.355 . S
C1467 C1469 1.415 . S
C1468 C1467 1.355 . S
C1468 C1470 1.419 . S
C1469 C1464 1.425 . S
C1469 C1466 1.409 . S
C1469 C1467 1.415 . S
C1470 H1460 0.930 . S
C1470 C1468 1.419 . S
C1470 C1471 1.362 . S
C1471 H1461 0.930 . S
C1471 C1464 1.409 . S
C1471 C1470 1.362 . S
H1472 C1478 0.930 . S
H1473 C1481 0.930 . S
H1474 C1482 0.930 . S
H1475 C1483 0.930 . S
H1476 C1486 0.930 . S
H1477 C1487 0.933 . S
C1478 H1472 0.930 . S
C1478 C1479 1.355 . S
C1478 C1480 1.415 . S
C1479 C1478 1.355 . S
C1479 C1481 1.419 . S
C1480 C1478 1.415 . S
C1480 C1485 1.425 . S
C1480 C1487 1.405 1_565 S
C1481 H1473 0.930 . S
C1481 C1479 1.419 . S
C1481 C1482 1.362 . S
C1482 H1474 0.930 . S
C1482 C1481 1.362 . S
C1482 C1485 1.409 . S
C1483 H1475 0.930 . S
C1483 C1484 1.355 . S
C1483 C1485 1.415 . S
C1484 C1483 1.355 . S
C1484 C1486 1.419 1_565 S
C1485 C1480 1.425 . S
C1485 C1482 1.409 . S
C1485 C1483 1.415 . S
C1486 H1476 0.930 . S
C1486 C1484 1.419 1_545 S
C1486 C1487 1.364 . S
C1487 H1477 0.933 . S
C1487 C1480 1.405 1_545 S
C1487 C1486 1.364 . S
H1488 C1494 0.930 . S
H1489 C1497 0.930 . S
H1490 C1498 0.930 . S
H1491 C1499 0.930 . S
H1492 C1502 0.930 . S
H1493 C1503 0.930 . S
C1494 H1488 0.930 . S
C1494 C1495 1.355 . S
C1494 C1496 1.415 . S
C1495 C1494 1.355 . S
C1495 C1497 1.419 . S
C1496 C1494 1.415 . S
C1496 C1501 1.425 . S
C1496 C1503 1.409 . S
C1497 H1489 0.930 . S
C1497 C1495 1.419 . S
C1497 C1498 1.362 . S
C1498 H1490 0.930 . S
C1498 C1497 1.362 . S
C1498 C1501 1.409 . S
C1499 H1491 0.930 . S
C1499 C1500 1.355 . S
C1499 C1501 1.415 . S
C1500 C1499 1.355 . S
C1500 C1502 1.419 . S
C1501 C1496 1.425 . S
C1501 C1498 1.409 . S
C1501 C1499 1.415 . S
C1502 H1492 0.930 . S
C1502 C1500 1.419 . S
C1502 C1503 1.362 . S
C1503 H1493 0.930 . S
C1503 C1496 1.409 . S
C1503 C1502 1.362 . S
H1504 C1510 0.930 . S
H1505 C1513 0.930 . S
H1506 C1514 0.930 . S
H1507 C1515 0.930 . S
H1508 C1518 0.930 . S
H1509 C1519 0.930 . S
C1510 H1504 0.930 . S
C1510 C1511 1.355 . S
C1510 C1512 1.415 . S
C1511 C1510 1.355 . S
C1511 C1513 1.419 . S
C1512 C1510 1.415 . S
C1512 C1517 1.425 . S
C1512 C1519 1.409 . S
C1513 H1505 0.930 . S
C1513 C1511 1.419 . S
C1513 C1514 1.362 . S
C1514 H1506 0.930 . S
C1514 C1513 1.362 . S
C1514 C1517 1.409 . S
C1515 H1507 0.930 . S
C1515 C1516 1.355 . S
C1515 C1517 1.415 . S
C1516 C1515 1.355 . S
C1516 C1518 1.419 . S
C1517 C1512 1.425 . S
C1517 C1514 1.409 . S
C1517 C1515 1.415 . S
C1518 H1508 0.930 . S
C1518 C1516 1.419 . S
C1518 C1519 1.362 . S
C1519 H1509 0.930 . S
C1519 C1512 1.409 . S
C1519 C1518 1.362 . S
H1520 C1526 0.930 . S
H1521 C1529 0.930 . S
H1522 C1530 0.930 . S
H1523 C1531 0.930 . S
H1524 C1534 0.930 . S
H1525 C1535 0.930 . S
C1526 H1520 0.930 . S
C1526 C1527 1.355 . S
C1526 C1528 1.415 . S
C1527 C1526 1.355 . S
C1527 C1529 1.419 . S
C1528 C1526 1.415 . S
C1528 C1533 1.425 . S
C1528 C1535 1.409 . S
C1529 H1521 0.930 . S
C1529 C1527 1.419 . S
C1529 C1530 1.362 . S
C1530 H1522 0.930 . S
C1530 C1529 1.362 . S
C1530 C1533 1.409 . S
C1531 H1523 0.930 . S
C1531 C1532 1.355 . S
C1531 C1533 1.415 . S
C1532 C1531 1.355 . S
C1532 C1534 1.419 . S
C1533 C1528 1.425 . S
C1533 C1530 1.409 . S
C1533 C1531 1.415 . S
C1534 H1524 0.930 . S
C1534 C1532 1.419 . S
C1534 C1535 1.362 . S
C1535 H1525 0.930 . S
C1535 C1528 1.409 . S
C1535 C1534 1.362 . S
H1536 C1542 0.930 1_565 S
H1537 C1545 0.930 . S
H1538 C1546 0.930 . S
H1539 C1547 0.930 . S
H1540 C1550 0.930 . S
H1541 C1551 0.930 1_565 S
C1542 H1536 0.930 1_545 S
C1542 C1543 1.355 . S
C1542 C1544 1.415 . S
C1543 C1542 1.355 . S
C1543 C1545 1.419 . S
C1544 C1542 1.415 . S
C1544 C1549 1.425 . S
C1544 C1551 1.409 . S
C1545 H1537 0.930 . S
C1545 C1543 1.419 . S
C1545 C1546 1.362 . S
C1546 H1538 0.930 . S
C1546 C1545 1.362 . S
C1546 C1549 1.409 . S
C1547 H1539 0.930 . S
C1547 C1548 1.355 . S
C1547 C1549 1.415 . S
C1548 C1547 1.355 . S
C1548 C1550 1.419 . S
C1549 C1544 1.425 . S
C1549 C1546 1.409 . S
C1549 C1547 1.415 . S
C1550 H1540 0.930 . S
C1550 C1548 1.419 . S
C1550 C1551 1.362 . S
C1551 H1541 0.930 1_545 S
C1551 C1544 1.409 . S
C1551 C1550 1.362 . S
H1552 C1558 0.930 . S
H1553 C1561 0.930 . S
H1554 C1562 0.930 . S
H1555 C1563 0.930 . S
H1556 C1566 0.930 . S
H1557 C1567 0.930 . S
C1558 H1552 0.930 . S
C1558 C1559 1.355 . S
C1558 C1560 1.415 . S
C1559 C1558 1.355 . S
C1559 C1561 1.419 . S
C1560 C1558 1.415 . S
C1560 C1565 1.425 . S
C1560 C1567 1.409 . S
C1561 H1553 0.930 . S
C1561 C1559 1.419 . S
C1561 C1562 1.362 . S
C1562 H1554 0.930 . S
C1562 C1561 1.362 . S
C1562 C1565 1.409 . S
C1563 H1555 0.930 . S
C1563 C1564 1.355 . S
C1563 C1565 1.415 . S
C1564 C1563 1.355 . S
C1564 C1566 1.419 . S
C1565 C1560 1.425 . S
C1565 C1562 1.409 . S
C1565 C1563 1.415 . S
C1566 H1556 0.930 . S
C1566 C1564 1.419 . S
C1566 C1567 1.362 . S
C1567 H1557 0.930 . S
C1567 C1560 1.409 . S
C1567 C1566 1.362 . S
H1568 C1574 0.930 . S
H1569 C1577 0.930 . S
H1570 C1578 0.930 . S
H1571 C1579 0.930 . S
H1572 C1582 0.930 . S
H1573 C1583 0.930 . S
C1574 H1568 0.930 . S
C1574 C1575 1.355 . S
C1574 C1576 1.415 . S
C1575 C1574 1.355 . S
C1575 C1577 1.419 . S
C1576 C1574 1.415 . S
C1576 C1581 1.425 . S
C1576 C1583 1.409 . S
C1577 H1569 0.930 . S
C1577 C1575 1.419 . S
C1577 C1578 1.362 . S
C1578 H1570 0.930 . S
C1578 C1577 1.362 . S
C1578 C1581 1.409 . S
C1579 H1571 0.930 . S
C1579 C1580 1.355 . S
C1579 C1581 1.415 . S
C1580 C1579 1.355 . S
C1580 C1582 1.419 . S
C1581 C1576 1.425 . S
C1581 C1578 1.409 . S
C1581 C1579 1.415 . S
C1582 H1572 0.930 . S
C1582 C1580 1.419 . S
C1582 C1583 1.362 . S
C1583 H1573 0.930 . S
C1583 C1576 1.409 . S
C1583 C1582 1.362 . S
H1584 C1590 0.930 . S
H1585 C1593 0.930 . S
H1586 C1594 0.930 1_655 S
H1587 C1595 0.930 . S
H1588 C1598 0.930 . S
H1589 C1599 0.930 1_455 S
C1590 H1584 0.930 . S
C1590 C1591 1.355 . S
C1590 C1592 1.415 . S
C1591 C1590 1.355 . S
C1591 C1593 1.419 . S
C1592 C1590 1.415 . S
C1592 C1597 1.425 1_455 S
C1592 C1599 1.409 1_455 S
C1593 H1585 0.930 . S
C1593 C1591 1.419 . S
C1593 C1594 1.362 . S
C1594 H1586 0.930 1_455 S
C1594 C1593 1.362 . S
C1594 C1597 1.409 1_455 S
C1595 H1587 0.930 . S
C1595 C1596 1.355 . S
C1595 C1597 1.415 . S
C1596 C1595 1.355 . S
C1596 C1598 1.419 . S
C1597 C1592 1.425 1_655 S
C1597 C1594 1.409 1_655 S
C1597 C1595 1.415 . S
C1598 H1588 0.930 . S
C1598 C1596 1.419 . S
C1598 C1599 1.362 . S
C1599 H1589 0.930 1_655 S
C1599 C1592 1.409 1_655 S
C1599 C1598 1.362 . S
H1600 C1606 0.930 . S
H1601 C1609 0.933 . S
H1602 C1610 0.930 . S
H1603 C1611 0.930 . S
H1604 C1614 0.930 . S
H1605 C1615 0.930 . S
C1606 H1600 0.930 . S
C1606 C1607 1.355 . S
C1606 C1608 1.415 . S
C1607 C1606 1.355 . S
C1607 C1609 1.419 . S
C1608 C1606 1.415 . S
C1608 C1613 1.425 . S
C1608 C1615 1.409 . S
C1609 H1601 0.933 . S
C1609 C1607 1.419 . S
C1609 C1610 1.362 1_554 S
C1610 H1602 0.930 . S
C1610 C1609 1.362 1_556 S
C1610 C1613 1.409 1_556 S
C1611 H1603 0.930 . S
C1611 C1612 1.355 1_556 S
C1611 C1613 1.415 1_556 S
C1612 C1611 1.355 1_554 S
C1612 C1614 1.419 . S
C1613 C1608 1.425 . S
C1613 C1610 1.409 1_554 S
C1613 C1611 1.415 1_554 S
C1614 H1604 0.930 . S
C1614 C1612 1.419 . S
C1614 C1615 1.362 . S
C1615 H1605 0.930 . S
C1615 C1608 1.409 . S
C1615 C1614 1.362 . S
H1616 C1622 0.930 . S
H1617 C1625 0.930 . S
H1618 C1626 0.930 . S
H1619 C1627 0.930 . S
H1620 C1630 0.930 . S
H1621 C1631 0.930 . S
C1622 H1616 0.930 . S
C1622 C1623 1.355 . S
C1622 C1624 1.415 1_565 S
C1623 C1622 1.355 . S
C1623 C1625 1.419 . S
C1624 C1622 1.415 1_545 S
C1624 C1629 1.425 1_645 S
C1624 C1631 1.409 1_655 S
C1625 H1617 0.930 . S
C1625 C1623 1.419 . S
C1625 C1626 1.362 . S
C1626 H1618 0.930 . S
C1626 C1625 1.362 . S
C1626 C1629 1.409 1_655 S
C1627 H1619 0.930 . S
C1627 C1628 1.355 . S
C1627 C1629 1.415 1_545 S
C1628 C1627 1.355 . S
C1628 C1630 1.419 . S
C1629 C1624 1.425 1_465 S
C1629 C1626 1.409 1_455 S
C1629 C1627 1.415 1_565 S
C1630 H1620 0.930 . S
C1630 C1628 1.419 . S
C1630 C1631 1.362 . S
C1631 H1621 0.930 . S
C1631 C1624 1.409 1_455 S
C1631 C1630 1.362 . S
H1632 C1638 0.930 . S
H1633 C1641 0.930 . S
H1634 C1642 0.930 . S
H1635 C1643 0.930 . S
H1636 C1646 0.930 . S
H1637 C1647 0.930 . S
C1638 H1632 0.930 . S
C1638 C1639 1.355 . S
C1638 C1640 1.415 . S
C1639 C1638 1.355 . S
C1639 C1641 1.419 . S
C1640 C1638 1.415 . S
C1640 C1645 1.425 . S
C1640 C1647 1.409 . S
C1641 H1633 0.930 . S
C1641 C1639 1.419 . S
C1641 C1642 1.362 . S
C1642 H1634 0.930 . S
C1642 C1641 1.362 . S
C1642 C1645 1.409 . S
C1643 H1635 0.930 . S
C1643 C1644 1.355 . S
C1643 C1645 1.415 . S
C1644 C1643 1.355 . S
C1644 C1646 1.419 . S
C1645 C1640 1.425 . S
C1645 C1642 1.409 . S
C1645 C1643 1.415 . S
C1646 H1636 0.930 . S
C1646 C1644 1.419 . S
C1646 C1647 1.362 . S
C1647 H1637 0.930 . S
C1647 C1640 1.409 . S
C1647 C1646 1.362 . S
H1648 C1654 0.930 . S
H1649 C1657 0.930 . S
H1650 C1658 0.930 . S
H1651 C1659 0.930 . S
H1652 C1662 0.930 . S
H1653 C1663 0.930 . S
C1654 H1648 0.930 . S
C1654 C1655 1.355 . S
C1654 C1656 1.415 . S
C1655 C1654 1.355 . S
C1655 C1657 1.419 . S
C1656 C1654 1.415 . S
C1656 C1661 1.425 . S
C1656 C1663 1.409 . S
C1657 H1649 0.930 . S
C1657 C1655 1.419 . S
C1657 C1658 1.362 . S
C1658 H1650 0.930 . S
C1658 C1657 1.362 . S
C1658 C1661 1.409 . S
C1659 H1651 0.930 . S
C1659 C1660 1.355 . S
C1659 C1661 1.415 . S
C1660 C1659 1.355 . S
C1660 C1662 1.419 . S
C1661 C1656 1.425 . S
C1661 C1658 1.409 . S
C1661 C1659 1.415 . S
C1662 H1652 0.930 . S
C1662 C1660 1.419 . S
C1662 C1663 1.362 . S
C1663 H1653 0.930 . S
C1663 C1656 1.409 . S
C1663 C1662 1.362 . S
H1664 C1670 0.930 . S
H1665 C1673 0.930 . S
H1666 C1674 0.930 . S
H1667 C1675 0.930 . S
H1668 C1678 0.930 1_554 S
H1669 C1679 0.930 . S
C1670 H1664 0.930 . S
C1670 C1671 1.355 1_554 S
C1670 C1672 1.415 1_554 S
C1671 C1670 1.355 1_556 S
C1671 C1673 1.419 . S
C1672 C1670 1.415 1_556 S
C1672 C1677 1.425 . S
C1672 C1679 1.409 1_556 S
C1673 H1665 0.930 . S
C1673 C1671 1.419 . S
C1673 C1674 1.362 . S
C1674 H1666 0.930 . S
C1674 C1673 1.362 . S
C1674 C1677 1.409 . S
C1675 H1667 0.930 . S
C1675 C1676 1.355 . S
C1675 C1677 1.415 . S
C1676 C1675 1.355 . S
C1676 C1678 1.419 . S
C1677 C1672 1.425 . S
C1677 C1674 1.409 . S
C1677 C1675 1.415 . S
C1678 H1668 0.930 1_556 S
C1678 C1676 1.419 . S
C1678 C1679 1.362 1_556 S
C1679 H1669 0.930 . S
C1679 C1672 1.409 1_554 S
C1679 C1678 1.362 1_554 S
H1680 C1686 0.930 . S
H1681 C1689 0.930 . S
H1682 C1690 0.930 . S
H1683 C1691 0.930 . S
H1684 C1694 0.930 . S
H1685 C1695 0.930 . S
C1686 H1680 0.930 . S
C1686 C1687 1.355 . S
C1686 C1688 1.415 . S
C1687 C1686 1.355 . S
C1687 C1689 1.419 . S
C1688 C1686 1.415 . S
C1688 C1693 1.425 1_565 S
C1688 C1695 1.409 . S
C1689 H1681 0.930 . S
C1689 C1687 1.419 . S
C1689 C1690 1.362 1_565 S
C1690 H1682 0.930 . S
C1690 C1689 1.362 1_545 S
C1690 C1693 1.409 . S
C1691 H1683 0.930 . S
C1691 C1692 1.355 . S
C1691 C1693 1.415 . S
C1692 C1691 1.355 . S
C1692 C1694 1.419 . S
C1693 C1688 1.425 1_545 S
C1693 C1690 1.409 . S
C1693 C1691 1.415 . S
C1694 H1684 0.930 . S
C1694 C1692 1.419 . S
C1694 C1695 1.362 1_545 S
C1695 H1685 0.930 . S
C1695 C1688 1.409 . S
C1695 C1694 1.362 1_565 S
H1696 C1702 0.930 . S
H1697 C1705 0.930 . S
H1698 C1706 0.930 . S
H1699 C1707 0.930 . S
H1700 C1710 0.930 . S
H1701 C1711 0.930 . S
C1702 H1696 0.930 . S
C1702 C1703 1.355 . S
C1702 C1704 1.415 . S
C1703 C1702 1.355 . S
C1703 C1705 1.419 . S
C1704 C1702 1.415 . S
C1704 C1709 1.425 . S
C1704 C1711 1.409 . S
C1705 H1697 0.930 . S
C1705 C1703 1.419 . S
C1705 C1706 1.362 . S
C1706 H1698 0.930 . S
C1706 C1705 1.362 . S
C1706 C1709 1.409 . S
C1707 H1699 0.930 . S
C1707 C1708 1.355 . S
C1707 C1709 1.415 . S
C1708 C1707 1.355 . S
C1708 C1710 1.419 . S
C1709 C1704 1.425 . S
C1709 C1706 1.409 . S
C1709 C1707 1.415 . S
C1710 H1700 0.930 . S
C1710 C1708 1.419 . S
C1710 C1711 1.362 . S
C1711 H1701 0.930 . S
C1711 C1704 1.409 . S
C1711 C1710 1.362 . S
H1712 C1718 0.930 . S
H1713 C1721 0.930 . S
H1714 C1722 0.930 . S
H1715 C1723 0.930 . S
H1716 C1726 0.930 . S
H1717 C1727 0.930 . S
C1718 H1712 0.930 . S
C1718 C1719 1.355 . S
C1718 C1720 1.415 . S
C1719 C1718 1.355 . S
C1719 C1721 1.419 . S
C1720 C1718 1.415 . S
C1720 C1725 1.425 . S
C1720 C1727 1.409 . S
C1721 H1713 0.930 . S
C1721 C1719 1.419 . S
C1721 C1722 1.362 . S
C1722 H1714 0.930 . S
C1722 C1721 1.362 . S
C1722 C1725 1.409 . S
C1723 H1715 0.930 . S
C1723 C1724 1.355 . S
C1723 C1725 1.415 . S
C1724 C1723 1.355 . S
C1724 C1726 1.419 . S
C1725 C1720 1.425 . S
C1725 C1722 1.409 . S
C1725 C1723 1.415 . S
C1726 H1716 0.930 . S
C1726 C1724 1.419 . S
C1726 C1727 1.362 . S
C1727 H1717 0.930 . S
C1727 C1720 1.409 . S
C1727 C1726 1.362 . S
H1728 C1734 0.930 . S
H1729 C1737 0.930 . S
H1730 C1738 0.930 . S
H1731 C1739 0.930 . S
H1732 C1742 0.930 . S
H1733 C1743 0.930 . S
C1734 H1728 0.930 . S
C1734 C1735 1.355 . S
C1734 C1736 1.415 . S
C1735 C1734 1.355 . S
C1735 C1737 1.419 . S
C1736 C1734 1.415 . S
C1736 C1741 1.425 . S
C1736 C1743 1.409 . S
C1737 H1729 0.930 . S
C1737 C1735 1.419 . S
C1737 C1738 1.362 . S
C1738 H1730 0.930 . S
C1738 C1737 1.362 . S
C1738 C1741 1.409 . S
C1739 H1731 0.930 . S
C1739 C1740 1.355 . S
C1739 C1741 1.415 . S
C1740 C1739 1.355 . S
C1740 C1742 1.419 . S
C1741 C1736 1.425 . S
C1741 C1738 1.409 . S
C1741 C1739 1.415 . S
C1742 H1732 0.930 . S
C1742 C1740 1.419 . S
C1742 C1743 1.362 . S
C1743 H1733 0.930 . S
C1743 C1736 1.409 . S
C1743 C1742 1.362 . S
H1744 C1750 0.930 . S
H1745 C1753 0.930 . S
H1746 C1754 0.930 . S
H1747 C1755 0.930 . S
H1748 C1758 0.930 . S
H1749 C1759 0.930 . S
C1750 H1744 0.930 . S
C1750 C1751 1.355 . S
C1750 C1752 1.415 . S
C1751 C1750 1.355 . S
C1751 C1753 1.419 . S
C1752 C1750 1.415 . S
C1752 C1757 1.425 . S
C1752 C1759 1.409 . S
C1753 H1745 0.930 . S
C1753 C1751 1.419 . S
C1753 C1754 1.362 . S
C1754 H1746 0.930 . S
C1754 C1753 1.362 . S
C1754 C1757 1.409 . S
C1755 H1747 0.930 . S
C1755 C1756 1.355 . S
C1755 C1757 1.415 . S
C1756 C1755 1.355 . S
C1756 C1758 1.419 . S
C1757 C1752 1.425 . S
C1757 C1754 1.409 . S
C1757 C1755 1.415 . S
C1758 H1748 0.930 . S
C1758 C1756 1.419 . S
C1758 C1759 1.362 . S
C1759 H1749 0.930 . S
C1759 C1752 1.409 . S
C1759 C1758 1.362 . S
H1760 C1766 0.930 . S
H1761 C1769 0.930 . S
H1762 C1770 0.930 . S
H1763 C1771 0.930 . S
H1764 C1774 0.930 . S
H1765 C1775 0.930 . S
C1766 H1760 0.930 . S
C1766 C1767 1.355 . S
C1766 C1768 1.415 . S
C1767 C1766 1.355 . S
C1767 C1769 1.419 . S
C1768 C1766 1.415 . S
C1768 C1773 1.425 1_556 S
C1768 C1775 1.409 . S
C1769 H1761 0.930 . S
C1769 C1767 1.419 . S
C1769 C1770 1.362 1_556 S
C1770 H1762 0.930 . S
C1770 C1769 1.362 1_554 S
C1770 C1773 1.409 . S
C1771 H1763 0.930 . S
C1771 C1772 1.355 . S
C1771 C1773 1.415 . S
C1772 C1771 1.355 . S
C1772 C1774 1.419 . S
C1773 C1768 1.425 1_554 S
C1773 C1770 1.409 . S
C1773 C1771 1.415 . S
C1774 H1764 0.930 . S
C1774 C1772 1.419 . S
C1774 C1775 1.362 1_554 S
C1775 H1765 0.930 . S
C1775 C1768 1.409 . S
C1775 C1774 1.362 1_556 S
H1776 C1782 0.930 . S
H1777 C1785 0.930 . S
H1778 C1786 0.930 . S
H1779 C1787 0.930 . S
H1780 C1790 0.930 . S
H1781 C1791 0.930 . S
C1782 H1776 0.930 . S
C1782 C1783 1.355 . S
C1782 C1784 1.415 . S
C1783 C1782 1.355 . S
C1783 C1785 1.419 . S
C1784 C1782 1.415 . S
C1784 C1789 1.425 . S
C1784 C1791 1.409 . S
C1785 H1777 0.930 . S
C1785 C1783 1.419 . S
C1785 C1786 1.362 . S
C1786 H1778 0.930 . S
C1786 C1785 1.362 . S
C1786 C1789 1.409 . S
C1787 H1779 0.930 . S
C1787 C1788 1.355 . S
C1787 C1789 1.415 . S
C1788 C1787 1.355 . S
C1788 C1790 1.419 . S
C1789 C1784 1.425 . S
C1789 C1786 1.409 . S
C1789 C1787 1.415 . S
C1790 H1780 0.930 . S
C1790 C1788 1.419 . S
C1790 C1791 1.362 . S
C1791 H1781 0.930 . S
C1791 C1784 1.409 . S
C1791 C1790 1.362 . S
H1792 C1798 0.930 . S
H1793 C1801 0.930 . S
H1794 C1802 0.930 . S
H1795 C1803 0.930 . S
H1796 C1806 0.930 . S
H1797 C1807 0.930 . S
C1798 H1792 0.930 . S
C1798 C1799 1.355 . S
C1798 C1800 1.415 1_554 S
C1799 C1798 1.355 . S
C1799 C1801 1.419 . S
C1800 C1798 1.415 1_556 S
C1800 C1805 1.425 . S
C1800 C1807 1.409 . S
C1801 H1793 0.930 . S
C1801 C1799 1.419 . S
C1801 C1802 1.362 . S
C1802 H1794 0.930 . S
C1802 C1801 1.362 . S
C1802 C1805 1.409 1_554 S
C1803 H1795 0.930 . S
C1803 C1804 1.355 . S
C1803 C1805 1.415 . S
C1804 C1803 1.355 . S
C1804 C1806 1.419 . S
C1805 C1800 1.425 . S
C1805 C1802 1.409 1_556 S
C1805 C1803 1.415 . S
C1806 H1796 0.930 . S
C1806 C1804 1.419 . S
C1806 C1807 1.362 . S
C1807 H1797 0.930 . S
C1807 C1800 1.409 . S
C1807 C1806 1.362 . S
H1808 C1814 0.930 . S
H1809 C1817 0.930 . S
H1810 C1818 0.930 . S
H1811 C1819 0.930 . S
H1812 C1822 0.930 . S
H1813 C1823 0.930 . S
C1814 H1808 0.930 . S
C1814 C1815 1.355 . S
C1814 C1816 1.415 . S
C1815 C1814 1.355 . S
C1815 C1817 1.419 1_545 S
C1816 C1814 1.415 . S
C1816 C1821 1.425 . S
C1816 C1823 1.409 . S
C1817 H1809 0.930 . S
C1817 C1815 1.419 1_565 S
C1817 C1818 1.362 . S
C1818 H1810 0.930 . S
C1818 C1817 1.362 . S
C1818 C1821 1.409 1_565 S
C1819 H1811 0.930 . S
C1819 C1820 1.355 . S
C1819 C1821 1.415 . S
C1820 C1819 1.355 . S
C1820 C1822 1.419 . S
C1821 C1816 1.425 . S
C1821 C1818 1.409 1_545 S
C1821 C1819 1.415 . S
C1822 H1812 0.930 . S
C1822 C1820 1.419 . S
C1822 C1823 1.362 . S
C1823 H1813 0.930 . S
C1823 C1816 1.409 . S
C1823 C1822 1.362 . S
H1824 C1830 0.930 . S
H1825 C1833 0.930 . S
H1826 C1834 0.930 . S
H1827 C1835 0.930 . S
H1828 C1838 0.930 . S
H1829 C1839 0.930 . S
C1830 H1824 0.930 . S
C1830 C1831 1.355 . S
C1830 C1832 1.415 . S
C1831 C1830 1.355 . S
C1831 C1833 1.419 . S
C1832 C1830 1.415 . S
C1832 C1837 1.425 . S
C1832 C1839 1.409 . S
C1833 H1825 0.930 . S
C1833 C1831 1.419 . S
C1833 C1834 1.362 . S
C1834 H1826 0.930 . S
C1834 C1833 1.362 . S
C1834 C1837 1.409 . S
C1835 H1827 0.930 . S
C1835 C1836 1.355 . S
C1835 C1837 1.415 . S
C1836 C1835 1.355 . S
C1836 C1838 1.419 . S
C1837 C1832 1.425 . S
C1837 C1834 1.409 . S
C1837 C1835 1.415 . S
C1838 H1828 0.930 . S
C1838 C1836 1.419 . S
C1838 C1839 1.362 . S
C1839 H1829 0.930 . S
C1839 C1832 1.409 . S
C1839 C1838 1.362 . S
H1840 C1846 0.930 . S
H1841 C1849 0.930 . S
H1842 C1850 0.930 . S
H1843 C1851 0.930 . S
H1844 C1854 0.930 . S
H1845 C1855 0.930 . S
C1846 H1840 0.930 . S
C1846 C1847 1.355 . S
C1846 C1848 1.415 . S
C1847 C1846 1.355 . S
C1847 C1849 1.419 . S
C1848 C1846 1.415 . S
C1848 C1853 1.425 . S
C1848 C1855 1.409 . S
C1849 H1841 0.930 . S
C1849 C1847 1.419 . S
C1849 C1850 1.362 . S
C1850 H1842 0.930 . S
C1850 C1849 1.362 . S
C1850 C1853 1.409 . S
C1851 H1843 0.930 . S
C1851 C1852 1.355 . S
C1851 C1853 1.415 . S
C1852 C1851 1.355 . S
C1852 C1854 1.419 . S
C1853 C1848 1.425 . S
C1853 C1850 1.409 . S
C1853 C1851 1.415 . S
C1854 H1844 0.930 . S
C1854 C1852 1.419 . S
C1854 C1855 1.362 . S
C1855 H1845 0.930 . S
C1855 C1848 1.409 . S
C1855 C1854 1.362 . S
H1856 C1862 0.930 . S
H1857 C1865 0.930 . S
H1858 C1866 0.930 . S
H1859 C1867 0.930 . S
H1860 C1870 0.930 . S
H1861 C1871 0.930 . S
C1862 H1856 0.930 . S
C1862 C1863 1.355 . S
C1862 C1864 1.415 . S
C1863 C1862 1.355 . S
C1863 C1865 1.419 . S
C1864 C1862 1.415 . S
C1864 C1869 1.425 . S
C1864 C1871 1.409 . S
C1865 H1857 0.930 . S
C1865 C1863 1.419 . S
C1865 C1866 1.362 . S
C1866 H1858 0.930 . S
C1866 C1865 1.362 . S
C1866 C1869 1.409 . S
C1867 H1859 0.930 . S
C1867 C1868 1.355 . S
C1867 C1869 1.415 . S
C1868 C1867 1.355 . S
C1868 C1870 1.419 . S
C1869 C1864 1.425 . S
C1869 C1866 1.409 . S
C1869 C1867 1.415 . S
C1870 H1860 0.930 . S
C1870 C1868 1.419 . S
C1870 C1871 1.362 . S
C1871 H1861 0.930 . S
C1871 C1864 1.409 . S
C1871 C1870 1.362 . S
H1872 C1878 0.910 1_545 S
H1873 C1881 0.930 . S
H1874 C1882 0.930 . S
H1875 C1883 0.930 . S
H1876 C1886 0.930 . S
H1877 C1887 0.930 . S
C1878 H1872 0.910 1_565 S
C1878 C1879 1.355 . S
C1878 C1880 1.415 . S
C1879 C1878 1.355 . S
C1879 C1881 1.419 . S
C1880 C1878 1.415 . S
C1880 C1885 1.425 . S
C1880 C1887 1.409 . S
C1881 H1873 0.930 . S
C1881 C1879 1.419 . S
C1881 C1882 1.362 . S
C1882 H1874 0.930 . S
C1882 C1881 1.362 . S
C1882 C1885 1.409 . S
C1883 H1875 0.930 . S
C1883 C1884 1.355 . S
C1883 C1885 1.415 . S
C1884 C1883 1.355 . S
C1884 C1886 1.419 . S
C1885 C1880 1.425 . S
C1885 C1882 1.409 . S
C1885 C1883 1.415 . S
C1886 H1876 0.930 . S
C1886 C1884 1.419 . S
C1886 C1887 1.362 . S
C1887 H1877 0.930 . S
C1887 C1880 1.409 . S
C1887 C1886 1.362 . S
H1888 C1894 0.930 . S
H1889 C1897 0.930 . S
H1890 C1898 0.930 . S
H1891 C1899 0.930 . S
H1892 C1902 0.930 . S
H1893 C1903 0.930 . S
C1894 H1888 0.930 . S
C1894 C1895 1.355 . S
C1894 C1896 1.415 . S
C1895 C1894 1.355 . S
C1895 C1897 1.419 . S
C1896 C1894 1.415 . S
C1896 C1901 1.425 . S
C1896 C1903 1.409 . S
C1897 H1889 0.930 . S
C1897 C1895 1.419 . S
C1897 C1898 1.362 . S
C1898 H1890 0.930 . S
C1898 C1897 1.362 . S
C1898 C1901 1.409 . S
C1899 H1891 0.930 . S
C1899 C1900 1.355 . S
C1899 C1901 1.415 . S
C1900 C1899 1.355 . S
C1900 C1902 1.419 . S
C1901 C1896 1.425 . S
C1901 C1898 1.409 . S
C1901 C1899 1.415 . S
C1902 H1892 0.930 . S
C1902 C1900 1.419 . S
C1902 C1903 1.362 . S
C1903 H1893 0.930 . S
C1903 C1896 1.409 . S
C1903 C1902 1.362 . S
H1904 C1910 0.930 . S
H1905 C1913 0.930 . S
H1906 C1914 0.930 . S
H1907 C1915 0.930 . S
H1908 C1918 0.930 . S
H1909 C1919 0.930 . S
C1910 H1904 0.930 . S
C1910 C1911 1.355 . S
C1910 C1912 1.415 . S
C1911 C1910 1.355 . S
C1911 C1913 1.419 . S
C1912 C1910 1.415 . S
C1912 C1917 1.425 . S
C1912 C1919 1.409 . S
C1913 H1905 0.930 . S
C1913 C1911 1.419 . S
C1913 C1914 1.362 . S
C1914 H1906 0.930 . S
C1914 C1913 1.362 . S
C1914 C1917 1.409 . S
C1915 H1907 0.930 . S
C1915 C1916 1.355 . S
C1915 C1917 1.415 . S
C1916 C1915 1.355 . S
C1916 C1918 1.419 . S
C1917 C1912 1.425 . S
C1917 C1914 1.409 . S
C1917 C1915 1.415 . S
C1918 H1908 0.930 . S
C1918 C1916 1.419 . S
C1918 C1919 1.362 . S
C1919 H1909 0.930 . S
C1919 C1912 1.409 . S
C1919 C1918 1.362 . S
H1920 C1926 0.930 . S
H1921 C1929 0.930 . S
H1922 C1930 0.930 . S
H1923 C1931 0.930 . S
H1924 C1934 0.930 . S
H1925 C1935 0.930 . S
C1926 H1920 0.930 . S
C1926 C1927 1.355 . S
C1926 C1928 1.415 . S
C1927 C1926 1.355 . S
C1927 C1929 1.419 . S
C1928 C1926 1.415 . S
C1928 C1933 1.425 . S
C1928 C1935 1.409 . S
C1929 H1921 0.930 . S
C1929 C1927 1.419 . S
C1929 C1930 1.362 . S
C1930 H1922 0.930 . S
C1930 C1929 1.362 . S
C1930 C1933 1.409 . S
C1931 H1923 0.930 . S
C1931 C1932 1.355 . S
C1931 C1933 1.415 . S
C1932 C1931 1.355 . S
C1932 C1934 1.419 . S
C1933 C1928 1.425 . S
C1933 C1930 1.409 . S
C1933 C1931 1.415 . S
C1934 H1924 0.930 . S
C1934 C1932 1.419 . S
C1934 C1935 1.362 . S
C1935 H1925 0.930 . S
C1935 C1928 1.409 . S
C1935 C1934 1.362 . S
H1936 C1942 0.930 . S
H1937 C1945 0.930 . S
H1938 C1946 0.930 . S
H1939 C1947 0.930 . S
H1940 C1950 0.930 . S
H1941 C1951 0.930 . S
C1942 H1936 0.930 . S
C1942 C1943 1.355 . S
C1942 C1944 1.415 . S
C1943 C1942 1.355 . S
C1943 C1945 1.419 . S
C1944 C1942 1.415 . S
C1944 C1949 1.425 . S
C1944 C1951 1.409 1_554 S
C1945 H1937 0.930 . S
C1945 C1943 1.419 . S
C1945 C1946 1.362 . S
C1946 H1938 0.930 . S
C1946 C1945 1.362 . S
C1946 C1949 1.409 . S
C1947 H1939 0.930 . S
C1947 C1948 1.355 . S
C1947 C1949 1.415 . S
C1948 C1947 1.355 . S
C1948 C1950 1.419 1_554 S
C1949 C1944 1.425 . S
C1949 C1946 1.409 . S
C1949 C1947 1.415 . S
C1950 H1940 0.930 . S
C1950 C1948 1.419 1_556 S
C1950 C1951 1.362 . S
C1951 H1941 0.930 . S
C1951 C1944 1.409 1_556 S
C1951 C1950 1.362 . S
H1952 C1958 0.930 . S
H1953 C1961 0.930 . S
H1954 C1962 0.930 . S
H1955 C1963 0.930 . S
H1956 C1966 0.930 . S
H1957 C1967 0.930 . S
C1958 H1952 0.930 . S
C1958 C1959 1.355 . S
C1958 C1960 1.415 . S
C1959 C1958 1.355 . S
C1959 C1961 1.419 . S
C1960 C1958 1.415 . S
C1960 C1965 1.425 . S
C1960 C1967 1.409 . S
C1961 H1953 0.930 . S
C1961 C1959 1.419 . S
C1961 C1962 1.362 . S
C1962 H1954 0.930 . S
C1962 C1961 1.362 . S
C1962 C1965 1.409 . S
C1963 H1955 0.930 . S
C1963 C1964 1.355 . S
C1963 C1965 1.415 . S
C1964 C1963 1.355 . S
C1964 C1966 1.419 . S
C1965 C1960 1.425 . S
C1965 C1962 1.409 . S
C1965 C1963 1.415 . S
C1966 H1956 0.930 . S
C1966 C1964 1.419 . S
C1966 C1967 1.362 . S
C1967 H1957 0.930 . S
C1967 C1960 1.409 . S
C1967 C1966 1.362 . S
H1968 C1974 0.930 . S
H1969 C1977 0.930 . S
H1970 C1978 0.930 . S
H1971 C1979 0.930 . S
H1972 C1982 0.930 . S
H1973 C1983 0.930 . S
C1974 H1968 0.930 . S
C1974 C1975 1.355 . S
C1974 C1976 1.415 . S
C1975 C1974 1.355 . S
C1975 C1977 1.419 . S
C1976 C1974 1.415 . S
C1976 C1981 1.425 . S
C1976 C1983 1.409 . S
C1977 H1969 0.930 . S
C1977 C1975 1.419 . S
C1977 C1978 1.362 . S
C1978 H1970 0.930 . S
C1978 C1977 1.362 . S
C1978 C1981 1.409 . S
C1979 H1971 0.930 . S
C1979 C1980 1.355 . S
C1979 C1981 1.415 . S
C1980 C1979 1.355 . S
C1980 C1982 1.419 . S
C1981 C1976 1.425 . S
C1981 C1978 1.409 . S
C1981 C1979 1.415 . S
C1982 H1972 0.930 . S
C1982 C1980 1.419 . S
C1982 C1983 1.362 . S
C1983 H1973 0.930 . S
C1983 C1976 1.409 . S
C1983 C1982 1.362 . S
H1984 C1990 0.930 . S
H1985 C1993 0.930 . S
H1986 C1994 0.930 . S
H1987 C1995 0.930 . S
H1988 C1998 0.930 . S
H1989 C1999 0.930 . S
C1990 H1984 0.930 . S
C1990 C1991 1.355 . S
C1990 C1992 1.415 . S
C1991 C1990 1.355 . S
C1991 C1993 1.419 . S
C1992 C1990 1.415 . S
C1992 C1997 1.425 . S
C1992 C1999 1.409 . S
C1993 H1985 0.930 . S
C1993 C1991 1.419 . S
C1993 C1994 1.362 . S
C1994 H1986 0.930 . S
C1994 C1993 1.362 . S
C1994 C1997 1.409 . S
C1995 H1987 0.930 . S
C1995 C1996 1.355 . S
C1995 C1997 1.415 . S
C1996 C1995 1.355 . S
C1996 C1998 1.419 . S
C1997 C1992 1.425 . S
C1997 C1994 1.409 . S
C1997 C1995 1.415 . S
C1998 H1988 0.930 . S
C1998 C1996 1.419 . S
C1998 C1999 1.362 . S
C1999 H1989 0.930 . S
C1999 C1992 1.409 . S
C1999 C1998 1.362 . S
H2000 C2006 0.930 . S
H2001 C2009 0.930 . S
H2002 C2010 0.930 . S
H2003 C2011 0.930 . S
H2004 C2014 0.930 . S
H2005 C2015 0.930 . S
C2006 H2000 0.930 . S
C2006 C2007 1.355 . S
C2006 C2008 1.415 . S
C2007 C2006 1.355 . S
C2007 C2009 1.419 . S
C2008 C2006 1.415 . S
C2008 C2013 1.425 . S
C2008 C2015 1.409 . S
C2009 H2001 0.930 . S
C2009 C2007 1.419 . S
C2009 C2010 1.362 . S
C2010 H2002 0.930 . S
C2010 C2009 1.362 . S
C2010 C2013 1.409 . S
C2011 H2003 0.930 . S
C2011 C2012 1.355 . S
C2011 C2013 1.415 . S
C2012 C2011 1.355 . S
C2012 C2014 1.419 . S
C2013 C2008 1.425 . S
C2013 C2010 1.409 . S
C2013 C2011 1.415 . S
C2014 H2004 0.930 . S
C2014 C2012 1.419 . S
C2014 C2015 1.362 . S
C2015 H2005 0.930 . S
C2015 C2008 1.409 . S
C2015 C2014 1.362 . S
H2016 C2022 0.930 . S
H2017 C2025 0.930 . S
H2018 C2026 0.932 . S
H2019 C2027 0.930 . S
H2020 C2030 0.930 . S
H2021 C2031 0.930 . S
C2022 H2016 0.930 . S
C2022 C2023 1.355 . S
C2022 C2024 1.415 . S
C2023 C2022 1.355 . S
C2023 C2025 1.419 . S
C2024 C2022 1.415 . S
C2024 C2029 1.425 . S
C2024 C2031 1.409 . S
C2025 H2017 0.930 . S
C2025 C2023 1.419 . S
C2025 C2026 1.362 . S
C2026 H2018 0.932 . S
C2026 C2025 1.362 . S
C2026 C2029 1.409 . S
C2027 H2019 0.930 . S
C2027 C2028 1.355 . S
C2027 C2029 1.415 . S
C2028 C2027 1.355 . S
C2028 C2030 1.419 . S
C2029 C2024 1.425 . S
C2029 C2026 1.409 . S
C2029 C2027 1.415 . S
C2030 H2020 0.930 . S
C2030 C2028 1.419 . S
C2030 C2031 1.362 . S
C2031 H2021 0.930 . S
C2031 C2024 1.409 . S
C2031 C2030 1.362 . S
H2032 C2038 0.930 . S
H2033 C2041 0.930 . S
H2034 C2042 0.930 . S
H2035 C2043 0.930 . S
H2036 C2046 0.930 . S
H2037 C2047 0.930 . S
C2038 H2032 0.930 . S
C2038 C2039 1.355 . S
C2038 C2040 1.415 1_554 S
C2039 C2038 1.355 . S
C2039 C2041 1.419 . S
C2040 C2038 1.415 1_556 S
C2040 C2045 1.425 . S
C2040 C2047 1.409 . S
C2041 H2033 0.930 . S
C2041 C2039 1.419 . S
C2041 C2042 1.362 . S
C2042 H2034 0.930 . S
C2042 C2041 1.362 . S
C2042 C2045 1.409 1_554 S
C2043 H2035 0.930 . S
C2043 C2044 1.355 . S
C2043 C2045 1.415 . S
C2044 C2043 1.355 . S
C2044 C2046 1.419 . S
C2045 C2040 1.425 . S
C2045 C2042 1.409 1_556 S
C2045 C2043 1.415 . S
C2046 H2036 0.930 . S
C2046 C2044 1.419 . S
C2046 C2047 1.362 . S
C2047 H2037 0.930 . S
C2047 C2040 1.409 . S
C2047 C2046 1.362 . S
H2048 C2054 0.930 . S
H2049 C2057 0.930 . S
H2050 C2058 0.930 . S
H2051 C2059 0.930 . S
H2052 C2062 0.930 . S
H2053 C2063 0.930 . S
C2054 H2048 0.930 . S
C2054 C2055 1.355 . S
C2054 C2056 1.415 . S
C2055 C2054 1.355 . S
C2055 C2057 1.419 . S
C2056 C2054 1.415 . S
C2056 C2061 1.425 . S
C2056 C2063 1.409 . S
C2057 H2049 0.930 . S
C2057 C2055 1.419 . S
C2057 C2058 1.362 . S
C2058 H2050 0.930 . S
C2058 C2057 1.362 . S
C2058 C2061 1.409 . S
C2059 H2051 0.930 . S
C2059 C2060 1.355 . S
C2059 C2061 1.415 . S
C2060 C2059 1.355 . S
C2060 C2062 1.419 . S
C2061 C2056 1.425 . S
C2061 C2058 1.409 . S
C2061 C2059 1.415 . S
C2062 H2052 0.930 . S
C2062 C2060 1.419 . S
C2062 C2063 1.362 . S
C2063 H2053 0.930 . S
C2063 C2056 1.409 . S
C2063 C2062 1.362 . S
H2064 C2070 0.930 . S
H2065 C2073 0.930 . S
H2066 C2074 0.930 . S
H2067 C2075 0.930 . S
H2068 C2078 0.930 . S
H2069 C2079 0.930 . S
C2070 H2064 0.930 . S
C2070 C2071 1.355 . S
C2070 C2072 1.415 . S
C2071 C2070 1.355 . S
C2071 C2073 1.419 . S
C2072 C2070 1.415 . S
C2072 C2077 1.425 . S
C2072 C2079 1.409 . S
C2073 H2065 0.930 . S
C2073 C2071 1.419 . S
C2073 C2074 1.362 . S
C2074 H2066 0.930 . S
C2074 C2073 1.362 . S
C2074 C2077 1.409 . S
C2075 H2067 0.930 . S
C2075 C2076 1.355 . S
C2075 C2077 1.415 . S
C2076 C2075 1.355 . S
C2076 C2078 1.419 . S
C2077 C2072 1.425 . S
C2077 C2074 1.409 . S
C2077 C2075 1.415 . S
C2078 H2068 0.930 . S
C2078 C2076 1.419 . S
C2078 C2079 1.362 . S
C2079 H2069 0.930 . S
C2079 C2072 1.409 . S
C2079 C2078 1.362 . S
H2080 C2086 0.930 . S
H2081 C2089 0.930 . S
H2082 C2090 0.930 . S
H2083 C2091 0.930 . S
H2084 C2094 0.930 . S
H2085 C2095 0.930 . S
C2086 H2080 0.930 . S
C2086 C2087 1.355 . S
C2086 C2088 1.415 . S
C2087 C2086 1.355 . S
C2087 C2089 1.419 . S
C2088 C2086 1.415 . S
C2088 C2093 1.425 . S
C2088 C2095 1.409 . S
C2089 H2081 0.930 . S
C2089 C2087 1.419 . S
C2089 C2090 1.362 . S
C2090 H2082 0.930 . S
C2090 C2089 1.362 . S
C2090 C2093 1.409 . S
C2091 H2083 0.930 . S
C2091 C2092 1.355 . S
C2091 C2093 1.415 . S
C2092 C2091 1.355 . S
C2092 C2094 1.419 . S
C2093 C2088 1.425 . S
C2093 C2090 1.409 . S
C2093 C2091 1.415 . S
C2094 H2084 0.930 . S
C2094 C2092 1.419 . S
C2094 C2095 1.362 . S
C2095 H2085 0.930 . S
C2095 C2088 1.409 . S
C2095 C2094 1.362 . S
H2096 C2102 0.930 . S
H2097 C2105 0.930 . S
H2098 C2106 0.930 . S
H2099 C2107 0.930 . S
H2100 C2110 0.930 . S
H2101 C2111 0.930 . S
C2102 H2096 0.930 . S
C2102 C2103 1.355 . S
C2102 C2104 1.415 . S
C2103 C2102 1.355 . S
C2103 C2105 1.419 . S
C2104 C2102 1.415 . S
C2104 C2109 1.425 . S
C2104 C2111 1.409 . S
C2105 H2097 0.930 . S
C2105 C2103 1.419 . S
C2105 C2106 1.362 . S
C2106 H2098 0.930 . S
C2106 C2105 1.362 . S
C2106 C2109 1.409 . S
C2107 H2099 0.930 . S
C2107 C2108 1.355 . S
C2107 C2109 1.415 . S
C2108 C2107 1.355 . S
C2108 C2110 1.419 . S
C2109 C2104 1.425 . S
C2109 C2106 1.409 . S
C2109 C2107 1.415 . S
C2110 H2100 0.930 . S
C2110 C2108 1.419 . S
C2110 C2111 1.362 . S
C2111 H2101 0.930 . S
C2111 C2104 1.409 . S
C2111 C2110 1.362 . S
H2112 C2118 0.930 . S
H2113 C2121 0.930 . S
H2114 C2122 0.930 . S
H2115 C2123 0.930 . S
H2116 C2126 0.930 . S
H2117 C2127 0.930 . S
C2118 H2112 0.930 . S
C2118 C2119 1.355 . S
C2118 C2120 1.415 . S
C2119 C2118 1.355 . S
C2119 C2121 1.419 . S
C2120 C2118 1.415 . S
C2120 C2125 1.425 . S
C2120 C2127 1.409 . S
C2121 H2113 0.930 . S
C2121 C2119 1.419 . S
C2121 C2122 1.362 . S
C2122 H2114 0.930 . S
C2122 C2121 1.362 . S
C2122 C2125 1.409 . S
C2123 H2115 0.930 . S
C2123 C2124 1.355 . S
C2123 C2125 1.415 . S
C2124 C2123 1.355 . S
C2124 C2126 1.419 . S
C2125 C2120 1.425 . S
C2125 C2122 1.409 . S
C2125 C2123 1.415 . S
C2126 H2116 0.930 . S
C2126 C2124 1.419 . S
C2126 C2127 1.362 . S
C2127 H2117 0.930 . S
C2127 C2120 1.409 . S
C2127 C2126 1.362 . S
H2128 C2134 0.930 . S
H2129 C2137 0.930 . S
H2130 C2138 0.930 . S
H2131 C2139 0.930 . S
H2132 C2142 0.930 . S
H2133 C2143 0.930 . S
C2134 H2128 0.930 . S
C2134 C2135 1.355 . S
C2134 C2136 1.415 . S
C2135 C2134 1.355 . S
C2135 C2137 1.419 1_565 S
C2136 C2134 1.415 . S
C2136 C2141 1.425 1_565 S
C2136 C2143 1.409 . S
C2137 H2129 0.930 . S
C2137 C2135 1.419 1_545 S
C2137 C2138 1.362 . S
C2138 H2130 0.930 . S
C2138 C2137 1.362 . S
C2138 C2141 1.409 . S
C2139 H2131 0.930 . S
C2139 C2140 1.355 . S
C2139 C2141 1.415 . S
C2140 C2139 1.355 . S
C2140 C2142 1.419 1_545 S
C2141 C2136 1.425 1_545 S
C2141 C2138 1.409 . S
C2141 C2139 1.415 . S
C2142 H2132 0.930 . S
C2142 C2140 1.419 1_565 S
C2142 C2143 1.362 . S
C2143 H2133 0.930 . S
C2143 C2136 1.409 . S
C2143 C2142 1.362 . S
H2144 C2150 0.930 . S
H2145 C2153 0.930 . S
H2146 C2154 0.930 1_655 S
H2147 C2155 0.930 . S
H2148 C2158 0.930 . S
H2149 C2159 0.930 1_455 S
C2150 H2144 0.930 . S
C2150 C2151 1.355 . S
C2150 C2152 1.415 . S
C2151 C2150 1.355 . S
C2151 C2153 1.419 . S
C2152 C2150 1.415 . S
C2152 C2157 1.425 1_455 S
C2152 C2159 1.409 1_455 S
C2153 H2145 0.930 . S
C2153 C2151 1.419 . S
C2153 C2154 1.362 . S
C2154 H2146 0.930 1_455 S
C2154 C2153 1.362 . S
C2154 C2157 1.409 1_455 S
C2155 H2147 0.930 . S
C2155 C2156 1.355 . S
C2155 C2157 1.415 . S
C2156 C2155 1.355 . S
C2156 C2158 1.419 . S
C2157 C2152 1.425 1_655 S
C2157 C2154 1.409 1_655 S
C2157 C2155 1.415 . S
C2158 H2148 0.930 . S
C2158 C2156 1.419 . S
C2158 C2159 1.362 . S
C2159 H2149 0.930 1_655 S
C2159 C2152 1.409 1_655 S
C2159 C2158 1.362 . S
H2160 C2166 0.930 . S
H2161 C2169 0.930 . S
H2162 C2170 0.930 1_655 S
H2163 C2171 0.930 . S
H2164 C2174 0.930 . S
H2165 C2175 0.930 1_455 S
C2166 H2160 0.930 . S
C2166 C2167 1.355 1_565 S
C2166 C2168 1.415 . S
C2167 C2166 1.355 1_545 S
C2167 C2169 1.419 . S
C2168 C2166 1.415 . S
C2168 C2173 1.425 1_465 S
C2168 C2175 1.409 1_455 S
C2169 H2161 0.930 . S
C2169 C2167 1.419 . S
C2169 C2170 1.362 . S
C2170 H2162 0.930 1_455 S
C2170 C2169 1.362 . S
C2170 C2173 1.409 1_455 S
C2171 H2163 0.930 . S
C2171 C2172 1.355 1_545 S
C2171 C2173 1.415 . S
C2172 C2171 1.355 1_565 S
C2172 C2174 1.419 . S
C2173 C2168 1.425 1_645 S
C2173 C2170 1.409 1_655 S
C2173 C2171 1.415 . S
C2174 H2164 0.930 . S
C2174 C2172 1.419 . S
C2174 C2175 1.362 . S
C2175 H2165 0.930 1_655 S
C2175 C2168 1.409 1_655 S
C2175 C2174 1.362 . S
H2176 C2182 0.930 . S
H2177 C2185 0.930 . S
H2178 C2186 0.930 . S
H2179 C2187 0.930 . S
H2180 C2190 0.930 . S
H2181 C2191 0.930 . S
C2182 H2176 0.930 . S
C2182 C2183 1.355 . S
C2182 C2184 1.415 1_556 S
C2183 C2182 1.355 . S
C2183 C2185 1.419 . S
C2184 C2182 1.415 1_554 S
C2184 C2189 1.425 1_554 S
C2184 C2191 1.409 . S
C2185 H2177 0.930 . S
C2185 C2183 1.419 . S
C2185 C2186 1.362 . S
C2186 H2178 0.930 . S
C2186 C2185 1.362 . S
C2186 C2189 1.409 . S
C2187 H2179 0.930 . S
C2187 C2188 1.355 . S
C2187 C2189 1.415 1_554 S
C2188 C2187 1.355 . S
C2188 C2190 1.419 . S
C2189 C2184 1.425 1_556 S
C2189 C2186 1.409 . S
C2189 C2187 1.415 1_556 S
C2190 H2180 0.930 . S
C2190 C2188 1.419 . S
C2190 C2191 1.362 . S
C2191 H2181 0.930 . S
C2191 C2184 1.409 . S
C2191 C2190 1.362 . S
H2192 C2198 0.930 . S
H2193 C2201 0.930 . S
H2194 C2202 0.930 . S
H2195 C2203 0.930 . S
H2196 C2206 0.930 . S
H2197 C2207 0.930 . S
C2198 H2192 0.930 . S
C2198 C2199 1.355 . S
C2198 C2200 1.415 . S
C2199 C2198 1.355 . S
C2199 C2201 1.419 . S
C2200 C2198 1.415 . S
C2200 C2205 1.425 . S
C2200 C2207 1.409 . S
C2201 H2193 0.930 . S
C2201 C2199 1.419 . S
C2201 C2202 1.362 . S
C2202 H2194 0.930 . S
C2202 C2201 1.362 . S
C2202 C2205 1.409 . S
C2203 H2195 0.930 . S
C2203 C2204 1.355 . S
C2203 C2205 1.415 . S
C2204 C2203 1.355 . S
C2204 C2206 1.419 . S
C2205 C2200 1.425 . S
C2205 C2202 1.409 . S
C2205 C2203 1.415 . S
C2206 H2196 0.930 . S
C2206 C2204 1.419 . S
C2206 C2207 1.362 . S
C2207 H2197 0.930 . S
C2207 C2200 1.409 . S
C2207 C2206 1.362 . S
C679 C385 1.232 . S
C684 C7 1.150 . S
C695 C21 0.644 . S
C700 C541 0.598 . S
C711 C35 0.931 . S
C716 C357 0.852 . S
C727 C569 1.235 . S
C732 C49 1.298 . S
C743 C399 0.828 . S
C748 C65 0.731 . S
C759 C77 1.232 . S
C764 C315 1.154 . S
C775 C427 0.990 . S
C780 C93 1.059 . S
C791 C105 0.910 . S
C796 C287 0.832 . S
C807 C499 0.930 . S
C812 C107 0.937 . S
C823 C469 0.390 . S
C828 C63 0.580 . S
C839 C79 0.800 . S
C844 C597 0.786 . S
C855 C483 0.837 . S
C860 C91 0.703 . S
C871 C121 0.872 . S
C876 C191 0.800 . S
C887 C203 0.487 . S
C892 C135 0.560 . S
C903 C219 0.911 . S
C908 C149 0.959 . S
C919 C175 0.822 . S
C924 C163 0.930 . S
C935 C189 0.834 . S
C940 C343 0.704 . S
C951 C205 0.392 . S
C956 C555 0.332 . S
C967 C371 0.361 . S
C972 C217 0.542 . S
C983 C387 0.682 . S
C988 C233 0.697 . S
C999 C245 0.855 . S
C1004 C415 0.819 . S
C1015 C261 0.523 . S
C1020 C51 0.506 . S
C1031 C275 1.288 . S
C1036 C23 1.172 . S
C1047 C625 1.276 . S
C1052 C301 1.265 . S
C1063 C653 0.616 . S
C1068 C329 0.618 . S
C1079 C345 0.977 . S
C1084 C119 0.956 . S
C1095 C373 0.666 . S
C1100 C147 0.788 . S
C1111 C359 0.928 . S
C1116 C611 1.036 . S
C1127 C471 0.905 . S
C1132 C401 0.810 . S
C1143 C485 0.841 . S
C1148 C429 0.785 . S
C1159 C455 0.561 . S
C1164 C443 0.587 . S
C1175 C247 1.141 . S
C1180 C639 1.084 . S
C1191 C513 1.239 . S
C1196 C331 1.156 . S
C1207 C303 0.490 . S
C1212 C527 0.641 . S
C1223 C665 1.451 . S
C1228 C441 1.519 . S
C1239 C413 0.470 . S
C1244 C637 0.566 . S
C1255 C133 1.469 . S
C1260 C553 1.525 . S
C1271 C161 0.619 . S
C1276 C581 0.488 . S
C1287 C177 1.182 . S
C1292 C583 1.115 . S
C1303 C273 0.822 . S
C1308 C539 0.730 . S
C1319 C259 0.760 . S
C1324 C567 0.833 . S
C1335 C317 0.842 . S
C1340 C595 0.854 . S
C1351 C289 0.569 . S
C1356 C497 0.484 . S
C1367 C623 0.726 . S
C1372 C525 0.835 . S
C1383 C651 0.770 . S
C1388 C511 0.797 . S
C1399 C667 0.434 . S
C1404 C457 0.406 . S
C1415 C609 0.616 . S
C1420 C37 0.506 . S
C1431 C231 0.869 . S
C1436 C9 0.794 . S
C1447 C8 1.875 . S
C1452 C647 1.979 . S
C1463 C22 1.755 . S
C1468 C666 1.840 . S
C1479 C36 1.526 . S
C1484 C619 1.442 1_565 S
C1495 C50 2.065 . S
C1500 C638 2.036 . S
C1511 C59 1.766 . S
C1516 C134 1.648 . S
C1527 C78 1.612 . S
C1532 C148 1.399 . S
C1543 C87 1.737 . S
C1548 C162 1.860 . S
C1559 C106 1.885 . S
C1564 C120 2.160 . S
C1575 C101 2.131 . S
C1580 C549 1.945 . S
C1591 C64 1.709 . S
C1596 C372 1.709 . S
C1607 C73 1.383 . S
C1612 C577 1.468 . S
C1623 C92 1.943 . S
C1628 C344 1.983 . S
C1639 C115 1.119 . S
C1644 C325 1.203 . S
C1655 C129 2.333 . S
C1660 C437 2.327 . S
C1671 C143 1.691 . S
C1676 C297 1.484 . S
C1687 C409 1.490 . S
C1692 C157 1.479 . S
C1703 C176 2.178 . S
C1708 C274 2.123 . S
C1719 C190 1.504 . S
C1724 C232 1.494 . S
C1735 C269 1.777 . S
C1740 C199 1.870 . S
C1751 C610 2.285 . S
C1756 C218 2.299 . S
C1767 C213 1.993 . S
C1772 C227 2.105 . S
C1783 C512 2.124 . S
C1788 C246 2.122 . S
C1799 C171 1.666 . S
C1804 C255 1.757 . S
C1815 C563 1.422 1_545 S
C1820 C288 1.523 . S
C1831 C582 1.975 . S
C1836 C302 2.077 . S
C1847 C316 1.947 . S
C1852 C535 2.035 . S
C1863 C554 1.804 . S
C1868 C330 1.661 . S
C1879 C339 1.672 . S
C1884 C414 1.821 . S
C1895 C428 2.157 . S
C1900 C358 1.954 . S
C1911 C367 1.749 . S
C1916 C442 1.629 . S
C1927 C400 1.406 . S
C1932 C386 1.568 . S
C1943 C381 1.377 . S
C1948 C633 1.489 . S
C1959 C661 1.977 . S
C1964 C353 2.170 . S
C1975 C395 1.704 . S
C1980 C45 1.479 . S
C1991 C17 1.292 . S
C1996 C423 1.239 . S
C2007 C526 1.440 . S
C2012 C456 1.454 . S
C2023 C498 2.329 . S
C2028 C470 2.328 . S
C2039 C241 1.726 . S
C2044 C521 1.798 . S
C2055 C484 1.543 . S
C2060 C596 1.549 . S
C2071 C493 1.823 . S
C2076 C479 1.938 . S
C2087 C204 1.452 . S
C2092 C260 1.439 . S
C2103 C451 1.859 . S
C2108 C507 1.763 . S
C2119 C652 1.534 . S
C2124 C540 1.530 . S
C2135 C568 1.857 . S
C2140 C624 1.875 . S
C2151 C3 2.130 . S
C2156 C311 2.100 . S
C2167 C283 1.901 . S
C2172 C31 1.902 . S
C2183 C465 1.978 . S
C2188 C591 2.098 . S
C2199 C185 1.938 . S
C2204 C605 1.830 . S
