# Generated by pormake.
# Topology fcu, (12)-cn, num edge types: 1
# Building blocks:
#     Node 0, Type 0, BuildingBlock: QEWDON_clean_sbu_0, # of connection points: 12
#     Node 1, Type 0, BuildingBlock: QEWDON_clean_sbu_0, # of connection points: 12
#     Node 2, Type 0, BuildingBlock: QEWDON_clean_sbu_0, # of connection points: 12
#     Node 3, Type 0, BuildingBlock: QEWDON_clean_sbu_0, # of connection points: 12
#     Edge 4, Type (0, 0), BuildingBlock: ZUJKAS_clean_linker_0, # of connection points: 2
#     Edge 5, Type (0, 0), BuildingBlock: ZUJKAS_clean_linker_0, # of connection points: 2
#     Edge 6, Type (0, 0), BuildingBlock: ZUJKAS_clean_linker_0, # of connection points: 2
#     Edge 7, Type (0, 0), BuildingBlock: ZUJKAS_clean_linker_0, # of connection points: 2
#     Edge 8, Type (0, 0), BuildingBlock: ZUJKAS_clean_linker_0, # of connection points: 2
#     Edge 9, Type (0, 0), BuildingBlock: ZUJKAS_clean_linker_0, # of connection points: 2
#     Edge 10, Type (0, 0), BuildingBlock: ZUJKAS_clean_linker_0, # of connection points: 2
#     Edge 11, Type (0, 0), BuildingBlock: ZUJKAS_clean_linker_0, # of connection points: 2
#     Edge 12, Type (0, 0), BuildingBlock: ZUJKAS_clean_linker_0, # of connection points: 2
#     Edge 13, Type (0, 0), BuildingBlock: ZUJKAS_clean_linker_0, # of connection points: 2
#     Edge 14, Type (0, 0), BuildingBlock: ZUJKAS_clean_linker_0, # of connection points: 2
#     Edge 15, Type (0, 0), BuildingBlock: ZUJKAS_clean_linker_0, # of connection points: 2
#     Edge 16, Type (0, 0), BuildingBlock: ZUJKAS_clean_linker_0, # of connection points: 2
#     Edge 17, Type (0, 0), BuildingBlock: ZUJKAS_clean_linker_0, # of connection points: 2
#     Edge 18, Type (0, 0), BuildingBlock: ZUJKAS_clean_linker_0, # of connection points: 2
#     Edge 19, Type (0, 0), BuildingBlock: ZUJKAS_clean_linker_0, # of connection points: 2
#     Edge 20, Type (0, 0), BuildingBlock: ZUJKAS_clean_linker_0, # of connection points: 2
#     Edge 21, Type (0, 0), BuildingBlock: ZUJKAS_clean_linker_0, # of connection points: 2
#     Edge 22, Type (0, 0), BuildingBlock: ZUJKAS_clean_linker_0, # of connection points: 2
#     Edge 23, Type (0, 0), BuildingBlock: ZUJKAS_clean_linker_0, # of connection points: 2
#     Edge 24, Type (0, 0), BuildingBlock: ZUJKAS_clean_linker_0, # of connection points: 2
#     Edge 25, Type (0, 0), BuildingBlock: ZUJKAS_clean_linker_0, # of connection points: 2
#     Edge 26, Type (0, 0), BuildingBlock: ZUJKAS_clean_linker_0, # of connection points: 2
#     Edge 27, Type (0, 0), BuildingBlock: ZUJKAS_clean_linker_0, # of connection points: 2
# Relax obj value: 0.040
# Max RMSD: 0.121
# Mean RMSD: 0.108
data_MOF--net-fcu--node1-QEWDON_clean_sbu_0--edge1-ZUJKAS_clean_linker_0
_symmetry_space_group_name_H-M    P1
_symmetry_Int_Tables_number       1
_symmetry_cell_setting            triclinic
loop_
_symmetry_equiv_pos_as_xyz
'x, y, z'
_cell_length_a     33.127035
_cell_length_b     33.795993
_cell_length_c     34.496095
_cell_angle_alpha  90.151952
_cell_angle_beta   89.912925
_cell_angle_gamma 89.928183
loop_
_atom_site_label
_atom_site_type_symbol
_atom_site_fract_x
_atom_site_fract_y
_atom_site_fract_z
_atom_type_partial_charge
Zn0 Zn 0.92446 0.90882 0.9812 0.0
Zn1 Zn 0.93512 0.90333 0.07553 0.0
O2 O 0.92072 0.94007 0.03096 0.0
H3 H 0.90278 0.96262 0.03134 0.0
C4 C 0.0037 0.89025 0.91197 0.0
O5 O 0.97899 0.92043 0.9157 0.0
Zn6 Zn 0.04378 0.07986 0.05846 0.0
Zn7 Zn 0.05069 0.07179 0.96353 0.0
O8 O 0.04648 0.04153 0.01333 0.0
H9 H 0.04966 0.01314 0.01355 0.0
Zn10 Zn 0.055 0.93258 0.97218 0.0
O11 O 0.02581 0.93939 0.0236 0.0
Zn12 Zn 0.06682 0.94864 0.06618 0.0
H13 H -0.00305 0.94254 0.0252 0.0
Zn14 Zn 0.9337 0.04388 0.98346 0.0
O15 O 0.95761 0.02513 0.03456 0.0
H16 H 0.98105 0.00844 0.03714 0.0
Zn17 Zn 0.91575 0.03011 0.07657 0.0
C18 C 0.97185 0.07768 0.9134 0.0
O19 O 0.9671 0.04114 0.90123 0.0
O20 O 0.92931 0.8494 0.99244 0.0
O21 O 0.9282 0.84692 0.05704 0.0
O22 O 0.0496 0.13149 0.97375 0.0
O23 O 0.05067 0.13565 0.03828 0.0
O24 O 0.11653 0.93484 0.9803 0.0
O25 O 0.12214 0.93778 0.04467 0.0
C26 C 0.89266 0.95362 0.12426 0.0
O27 O 0.87266 0.05249 0.98888 0.0
O28 O 0.86307 0.04748 0.05265 0.0
O29 O 0.09498 0.05387 0.92455 0.0
C30 C 0.92847 0.82982 0.02397 0.0
O31 O 0.88316 0.92289 0.93761 0.0
C32 C 0.0907 0.02792 0.10072 0.0
O33 O 0.03569 0.88918 0.93239 0.0
C34 C 0.05114 0.15186 0.00486 0.0
O35 O 0.96222 0.08618 0.94818 0.0
C36 C 0.01934 0.90043 0.11582 0.0
O37 O 0.89967 0.91676 0.12149 0.0
O38 O 0.9094 0.97593 0.09945 0.0
C39 C 0.13797 0.93512 0.01099 0.0
O40 O 0.087 0.06508 0.0968 0.0
O41 O 0.06672 0.00588 0.08167 0.0
C42 C 0.96896 0.08428 0.11362 0.0
O43 O 0.05506 0.91347 0.11194 0.0
O44 O -0.00663 0.91122 0.09076 0.0
C45 C 0.84975 0.05412 0.01856 0.0
O46 O 0.93398 0.0693 0.11721 0.0
O47 O 0.98981 0.07357 0.08442 0.0
C48 C 0.08997 0.02869 0.89757 0.0
O49 O 0.05475 0.01131 0.89371 0.0
C50 C 0.88276 0.95543 0.91919 0.0
O51 O 0.90961 0.98264 0.92768 0.0
Zn52 Zn 0.90699 0.45127 0.41737 0.0
Zn53 Zn 0.90396 0.54409 0.44171 0.0
O54 O 0.94059 0.49698 0.43718 0.0
H55 H 0.96228 0.49194 0.45502 0.0
C56 C 0.91697 0.4066 0.53575 0.0
O57 O 0.92989 0.43407 0.51193 0.0
Zn58 Zn 0.06819 0.5398 0.5792 0.0
Zn59 Zn 0.05693 0.44441 0.58263 0.0
O60 O 0.02635 0.49698 0.58556 0.0
H61 H 0.00267 0.49977 0.60168 0.0
Zn62 Zn 0.93659 0.46746 0.59313 0.0
O63 O 0.94146 0.51018 0.55167 0.0
Zn64 Zn 0.93534 0.55984 0.58191 0.0
H65 H 0.95705 0.5077 0.52812 0.0
Zn66 Zn 0.03721 0.46249 0.4298 0.0
O67 O 0.03325 0.508 0.46761 0.0
H68 H 0.02111 0.50642 0.49303 0.0
Zn69 Zn 0.04241 0.55632 0.43585 0.0
C70 C 0.06887 0.407 0.48505 0.0
O71 O 0.07842 0.4408 0.50154 0.0
O72 O 0.84992 0.46829 0.4012 0.0
O73 O 0.84716 0.53034 0.42306 0.0
O74 O 0.11577 0.45194 0.59973 0.0
O75 O 0.12184 0.51742 0.59894 0.0
O76 O 0.90342 0.48679 0.64075 0.0
O77 O 0.89734 0.55087 0.62668 0.0
C78 C 0.96042 0.59489 0.40049 0.0
O79 O 0.0736 0.47726 0.38374 0.0
O80 O 0.07918 0.54266 0.38967 0.0
O81 O 0.03175 0.39469 0.60907 0.0
C82 C 0.83077 0.50065 0.40631 0.0
O83 O 0.93328 0.40177 0.39075 0.0
C84 C 0.01669 0.59526 0.61715 0.0
O85 O 0.91895 0.4127 0.57208 0.0
C86 C 0.13634 0.48312 0.60579 0.0
O87 O 0.04912 0.40753 0.45352 0.0
C88 C 0.90339 0.59765 0.51268 0.0
O89 O 0.92344 0.58697 0.40627 0.0
O90 O 0.98671 0.57492 0.41901 0.0
C91 C 0.88884 0.52103 0.64763 0.0
O92 O 0.0538 0.58657 0.61349 0.0
O93 O -0.00846 0.57428 0.59846 0.0
C94 C 0.07825 0.59014 0.50621 0.0
O95 O 0.91277 0.60234 0.54812 0.0
O96 O 0.90768 0.56363 0.49721 0.0
C97 C 0.08829 0.51016 0.37259 0.0
O98 O 0.07047 0.5959 0.47045 0.0
O99 O 0.06654 0.55823 0.52243 0.0
C100 C 0.02436 0.39854 0.64506 0.0
O101 O 0.02985 0.43337 0.66123 0.0
C102 C 0.967 0.4025 0.37303 0.0
O103 O 0.98733 0.4358 0.37158 0.0
Zn104 Zn 0.41521 0.91981 0.46843 0.0
Zn105 Zn 0.43177 0.92154 0.56213 0.0
O106 O 0.42939 0.95528 0.51417 0.0
H107 H 0.43411 0.9834 0.51249 0.0
C108 C 0.50463 0.9018 0.40883 0.0
O109 O 0.51225 0.9374 0.39548 0.0
Zn110 Zn 0.56169 0.08178 0.56088 0.0
Zn111 Zn 0.55307 0.0778 0.46876 0.0
O112 O 0.56318 0.04355 0.51616 0.0
H113 H 0.57901 0.01958 0.51511 0.0
Zn114 Zn 0.5507 0.93258 0.47498 0.0
O115 O 0.53001 0.95606 0.52505 0.0
Zn116 Zn 0.57234 0.94764 0.56604 0.0
H117 H 0.50934 0.9762 0.52654 0.0
Zn118 Zn 0.41504 0.06502 0.4742 0.0
O119 O 0.4526 0.05944 0.51982 0.0
H120 H 0.47903 0.0475 0.51781 0.0
Zn121 Zn 0.4176 0.06065 0.56715 0.0
C122 C 0.46815 0.11339 0.42608 0.0
O123 O 0.48259 0.12281 0.46033 0.0
O124 O 0.40031 0.86362 0.48635 0.0
O125 O 0.41054 0.8671 0.54998 0.0
O126 O 0.57573 0.1335 0.47842 0.0
O127 O 0.58266 0.13503 0.54252 0.0
O128 O 0.6092 0.9139 0.47996 0.0
O129 O 0.62192 0.91892 0.54323 0.0
C130 C 0.39058 0.98198 0.60475 0.0
O131 O 0.35935 0.08683 0.49039 0.0
O132 O 0.36267 0.08502 0.55482 0.0
O133 O 0.57325 0.0566 0.41558 0.0
C134 C 0.39928 0.84806 0.51994 0.0
O135 O 0.37624 0.94093 0.42572 0.0
C136 C 0.60517 0.02591 0.60686 0.0
O137 O 0.51565 0.89321 0.44306 0.0
C138 C 0.58707 0.15102 0.50925 0.0
O139 O 0.43953 0.08846 0.42392 0.0
C140 C 0.51029 0.90837 0.60922 0.0
O141 O 0.39484 0.94473 0.60243 0.0
O142 O 0.41244 0.00363 0.58321 0.0
C143 C 0.63242 0.90866 0.50888 0.0
O144 O 0.59938 0.06279 0.60271 0.0
O145 O 0.58556 0.00256 0.58497 0.0
C146 C 0.48331 0.10044 0.60576 0.0
O147 O 0.54783 0.91617 0.60969 0.0
O148 O 0.48946 0.92056 0.5807 0.0
C149 C 0.34379 0.09348 0.52362 0.0
O150 O 0.44543 0.09448 0.60729 0.0
O151 O 0.50384 0.08289 0.57973 0.0
C152 C 0.59286 0.02442 0.41233 0.0
O153 O 0.59697 0.00163 0.44285 0.0
C154 C 0.3864 0.95966 0.39533 0.0
O155 O 0.42451 0.96892 0.38996 0.0
Zn156 Zn 0.45479 0.56262 0.04713 0.0
Zn157 Zn 0.44319 0.57301 0.95637 0.0
O158 O 0.4644 0.53422 0.99587 0.0
H159 H 0.45772 0.50648 0.99603 0.0
C160 C 0.50745 0.62858 0.09863 0.0
O161 O 0.49355 0.64199 0.06552 0.0
Zn162 Zn 0.54166 0.42917 0.95412 0.0
Zn163 Zn 0.52878 0.4357 0.0471 0.0
O164 O 0.52008 0.46382 0.99673 0.0
H165 H 0.52575 0.49158 0.99981 0.0
Zn166 Zn 0.5475 0.57319 0.0453 0.0
O167 O 0.51548 0.5894 0.99814 0.0
Zn168 Zn 0.54954 0.57377 0.9533 0.0
H169 H 0.52799 0.58282 0.02254 0.0
Zn170 Zn 0.42657 0.41286 0.0426 0.0
O171 O 0.45994 0.41458 0.99325 0.0
H172 H 0.44688 0.41308 0.01823 0.0
Zn173 Zn 0.42326 0.428 0.94961 0.0
C174 C 0.46941 0.38009 0.1111 0.0
O175 O 0.48574 0.41544 0.11246 0.0
O176 O 0.41601 0.60926 0.04023 0.0
O177 O 0.39461 0.59895 0.97999 0.0
O178 O 0.56559 0.38717 0.04111 0.0
O179 O 0.57763 0.38831 0.97757 0.0
O180 O 0.60817 0.57112 0.03123 0.0
O181 O 0.60751 0.58417 0.96778 0.0
C182 C 0.41973 0.50701 0.90637 0.0
O183 O 0.36539 0.41628 0.03141 0.0
O184 O 0.36597 0.42054 0.96705 0.0
O185 O 0.54587 0.47249 0.09202 0.0
C186 C 0.39135 0.61611 0.0128 0.0
O187 O 0.43494 0.53091 0.09498 0.0
C188 C 0.57295 0.49911 0.91865 0.0
O189 O 0.53118 0.59895 0.09838 0.0
C190 C 0.58374 0.37397 0.01118 0.0
O191 O 0.44384 0.37229 0.08476 0.0
C192 C 0.49901 0.62446 0.90861 0.0
O193 O 0.42492 0.54416 0.90883 0.0
O194 O 0.42918 0.48556 0.93523 0.0
C195 C 0.62657 0.57838 0.99947 0.0
O196 O 0.575 0.46168 0.91847 0.0
O197 O 0.54766 0.5164 0.94061 0.0
C198 C 0.4739 0.383 0.90072 0.0
O199 O 0.53109 0.60385 0.90734 0.0
O200 O 0.47484 0.62195 0.93731 0.0
C201 C 0.34693 0.4181 0.99906 0.0
O202 O 0.43686 0.39116 0.90586 0.0
O203 O 0.50008 0.40079 0.92131 0.0
C204 C 0.58119 0.48684 0.08967 0.0
O205 O 0.60302 0.47916 0.05869 0.0
C206 C 0.40433 0.50893 0.08967 0.0
O207 O 0.39186 0.50286 0.054 0.0
H208 H 0.03749 0.13111 0.11209 0.0
H209 H 0.05683 0.18222 0.15929 0.0
H210 H 0.95234 0.1537 0.22842 0.0
H211 H 0.93306 0.1031 0.18195 0.0
H212 H 0.0105 0.24796 0.17951 0.0
H213 H 0.04053 0.15861 0.30992 0.0
H214 H 0.03964 0.13746 0.26176 0.0
H215 H -0.00666 0.14517 0.2882 0.0
C216 C 0.01898 0.13542 0.13754 0.0
C217 C 0.9836 0.11309 0.14299 0.0
C218 C 0.03009 0.16459 0.16455 0.0
C219 C 0.00639 0.17136 0.19776 0.0
C220 C 0.97167 0.14845 0.20357 0.0
H221 H 0.92979 0.33064 0.36648 0.0
H222 H 0.94951 0.27491 0.32549 0.0
C223 C 0.96048 0.11968 0.17665 0.0
C224 C 0.015 0.20457 0.22482 0.0
H225 H 0.01852 0.22637 0.32149 0.0
C226 C 0.01337 0.24337 0.21049 0.0
C227 C 0.01898 0.1985 0.2652 0.0
C228 C 0.02366 0.15764 0.28212 0.0
C229 C 0.01201 0.27612 0.23569 0.0
C230 C 0.0129 0.26984 0.27626 0.0
C231 C 0.01745 0.23117 0.29043 0.0
C232 C 0.0042 0.30231 0.30421 0.0
C233 C 0.00673 0.31694 0.21874 0.0
C234 C 0.02902 0.33587 0.30682 0.0
C235 C 0.01764 0.36805 0.33012 0.0
C236 C 0.98134 0.3671 0.35141 0.0
C237 C 0.95772 0.33257 0.35025 0.0
C238 C 0.96905 0.30057 0.32691 0.0
H239 H -0.00022 0.31596 0.18725 0.0
H240 H 0.98207 0.33311 0.23384 0.0
H241 H 0.03502 0.33401 0.22266 0.0
H242 H 0.05671 0.33755 0.29017 0.0
H243 H 0.03681 0.39399 0.33072 0.0
H244 H 0.84962 0.02338 0.12404 0.0
H245 H 0.79647 0.04335 0.17002 0.0
H246 H 0.81766 0.93739 0.23632 0.0
H247 H 0.86991 0.91703 0.19048 0.0
H248 H 0.72447 0.99059 0.1902 0.0
H249 H 0.82003 0.03346 0.3155 0.0
H250 H 0.83826 0.03382 0.26608 0.0
H251 H 0.83435 0.98797 0.29202 0.0
C252 C 0.84317 0.00462 0.14862 0.0
C253 C 0.86369 0.96851 0.15352 0.0
C254 C 0.81278 0.01598 0.17474 0.0
C255 C 0.8033 0.9918 0.20649 0.0
C256 C 0.8247 0.9565 0.21206 0.0
H257 H 0.64576 0.96369 0.3992 0.0
H258 H 0.69387 0.95757 0.34573 0.0
C259 C 0.85446 0.94489 0.18578 0.0
C260 C 0.76996 0.00188 0.23332 0.0
H261 H 0.7507 0.02008 0.32886 0.0
C262 C 0.73002 -0.00223 0.22038 0.0
C263 C 0.7775 0.01104 0.2726 0.0
C264 C 0.81984 0.0172 0.28746 0.0
C265 C 0.69737 0.00067 0.24633 0.0
C266 C 0.70508 0.00823 0.28595 0.0
C267 C 0.74496 0.01386 0.2985 0.0
C268 C 0.67249 0.00941 0.31532 0.0
C269 C 0.65505 -0.00613 0.23168 0.0
C270 C 0.64385 0.03999 0.31531 0.0
C271 C 0.61624 0.04358 0.34582 0.0
C272 C 0.61701 0.01674 0.37696 0.0
C273 C 0.64441 0.98494 0.37579 0.0
C274 C 0.67202 0.98146 0.34532 0.0
H275 H 0.65481 0.98145 0.20183 0.0
H276 H 0.63851 0.9734 0.25118 0.0
H277 H 0.63848 0.02242 0.23138 0.0
H278 H 0.64396 0.06205 0.29259 0.0
H279 H 0.59549 0.06837 0.3458 0.0
H280 H 0.06612 0.88448 0.17854 0.0
H281 H 0.05609 0.83399 0.22799 0.0
H282 H 0.94266 0.80175 0.17576 0.0
H283 H 0.95231 0.85276 0.12618 0.0
H284 H 0.9897 0.82104 0.28203 0.0
H285 H 0.01184 0.69749 0.17715 0.0
H286 H 0.02678 0.74768 0.16652 0.0
H287 H 0.97451 0.73391 0.16443 0.0
C288 C 0.03883 0.86687 0.17755 0.0
C289 C 0.01028 0.87231 0.14779 0.0
C290 C 0.03315 0.83804 0.20599 0.0
C291 C -0.00097 0.81363 0.2052 0.0
C292 C 0.96959 0.81987 0.17653 0.0
H293 H 0.91115 0.62352 0.34479 0.0
H294 H 0.92375 0.67639 0.29875 0.0
C295 C 0.97507 0.84913 0.14819 0.0
C296 C -0.00474 0.78093 0.23373 0.0
H297 H -0.00404 0.68011 0.24171 0.0
C298 C -0.00876 0.79023 0.27327 0.0
C299 C -0.0025 0.74076 0.22224 0.0
C300 C 0.00319 0.72911 0.18034 0.0
C301 C 0.98858 0.76034 0.3015 0.0
C302 C 0.99071 0.72023 0.28996 0.0
C303 C -0.00511 0.71094 0.25049 0.0
C304 C 0.9847 0.68749 0.31798 0.0
C305 C 0.98229 0.77159 0.3434 0.0
C306 C 0.01522 0.67565 0.34386 0.0
C307 C 0.00828 0.64475 0.37035 0.0
C308 C 0.97055 0.62575 0.37148 0.0
C309 C 0.94051 0.6376 0.34503 0.0
C310 C 0.94758 0.66787 0.31855 0.0
H311 H 0.97871 0.80404 0.34737 0.0
H312 H 0.95502 0.75657 0.35495 0.0
H313 H 0.00851 0.76149 0.36078 0.0
H314 H 0.04423 0.69039 0.34363 0.0
H315 H 0.03195 0.63636 0.39035 0.0
H316 H 0.39783 -0.00498 0.32461 0.0
H317 H 0.34785 0.00441 0.27312 0.0
H318 H 0.2565 0.95122 0.34523 0.0
H319 H 0.30587 0.94221 0.39688 0.0
H320 H 0.30333 0.94618 0.23493 0.0
H321 H 0.20143 0.05253 0.30917 0.0
H322 H 0.25179 0.04209 0.32626 0.0
H323 H 0.21109 0.0086 0.33679 0.0
C324 C 0.367 0.98573 0.32968 0.0
C325 C 0.35588 0.96791 0.36494 0.0
C326 C 0.3385 0.99102 0.30018 0.0
C327 C 0.29832 0.9789 0.30546 0.0
C328 C 0.2871 0.96149 0.34074 0.0
H329 H 0.08571 0.97051 0.15594 0.0
H330 H 0.13746 0.95344 0.2042 0.0
C331 C 0.31549 0.9562 0.37021 0.0
C332 C 0.26842 0.98291 0.27362 0.0
H333 H 0.17709 0.02373 0.25077 0.0
C334 C 0.27581 0.96328 0.23834 0.0
C335 C 0.23249 0.00519 0.2781 0.0
C336 C 0.2238 0.02863 0.31447 0.0
C337 C 0.248 0.96501 0.20762 0.0
C338 C 0.212 0.98692 0.21233 0.0
C339 C 0.20454 0.00649 0.24753 0.0
C340 C 0.18286 0.99234 0.18023 0.0
C341 C 0.25702 0.94336 0.17033 0.0
C342 C 0.19154 0.01932 0.15058 0.0
C343 C 0.16202 0.02929 0.12337 0.0
C344 C 0.12355 0.01194 0.12496 0.0
C345 C 0.11548 0.98345 0.15349 0.0
C346 C 0.14484 0.97399 0.18122 0.0
H347 H 0.28322 0.92303 0.1732 0.0
H348 H 0.23026 0.92607 0.16091 0.0
H349 H 0.26383 0.96518 0.14724 0.0
H350 H 0.22055 0.03405 0.14958 0.0
H351 H 0.16883 0.05157 0.10181 0.0
H352 H 0.05219 0.82772 0.89233 0.0
H353 H 0.0414 0.77853 0.84146 0.0
H354 H 0.92639 0.83153 0.81452 0.0
H355 H 0.93726 0.88151 0.86507 0.0
H356 H 0.98093 0.72281 0.83019 0.0
H357 H 0.98369 0.83201 0.70971 0.0
H358 H -0.0006 0.84458 0.75827 0.0
H359 H 0.94666 0.84056 0.74691 0.0
C360 C 0.02449 0.82894 0.87574 0.0
C361 C -0.00421 0.85887 0.88262 0.0
C362 C 0.01833 0.80068 0.84666 0.0
C363 C 0.98336 0.80161 0.82373 0.0
C364 C 0.95398 0.83066 0.83128 0.0
H365 H 0.94391 0.60716 0.65421 0.0
H366 H 0.92825 0.65798 0.70325 0.0
C367 C 0.96019 0.85912 0.86034 0.0
C368 C 0.97866 0.77261 0.79147 0.0
H369 H 0.97732 0.7649 0.69258 0.0
C370 C 0.97953 0.732 0.80012 0.0
C371 C 0.977 0.78464 0.75219 0.0
C372 C 0.97692 0.82777 0.74098 0.0
C373 C 0.98004 0.70321 0.77061 0.0
C374 C 0.97951 0.7153 0.73141 0.0
C375 C 0.97735 0.75578 0.72271 0.0
C376 C 0.9865 0.68664 0.69937 0.0
C377 C 0.98322 0.66008 0.7814 0.0
C378 C 0.02394 0.68651 0.6804 0.0
C379 C 0.03296 0.65751 0.65281 0.0
C380 C 0.00453 0.62822 0.64317 0.0
C381 C 0.96629 0.62939 0.66089 0.0
C382 C 0.95742 0.65827 0.68902 0.0
H383 H 0.98711 0.65579 0.8131 0.0
H384 H 0.95543 0.64439 0.77215 0.0
H385 H 0.00914 0.64616 0.76609 0.0
H386 H 0.04677 0.70813 0.68792 0.0
H387 H 0.06262 0.65761 0.63951 0.0
H388 H 0.08559 0.9887 0.82849 0.0
H389 H 0.13824 0.98311 0.77877 0.0
H390 H 0.22039 0.04805 0.85189 0.0
H391 H 0.1682 0.05367 0.90169 0.0
H392 H 0.17608 0.04887 0.74249 0.0
H393 H 0.28775 0.95194 0.81577 0.0
H394 H 0.23576 0.95553 0.83124 0.0
H395 H 0.27115 -0.00645 0.84418 0.0
C396 C 0.11504 0.0013 0.83422 0.0
C397 C 0.12264 0.02181 0.86897 0.0
C398 C 0.14504 -0.00185 0.80575 0.0
C399 C 0.18328 0.01495 0.81178 0.0
C400 C 0.19129 0.0344 0.84688 0.0
H401 H 0.39671 0.03771 0.66219 0.0
H402 H 0.34567 0.05148 0.71266 0.0
C403 C 0.1613 0.03778 0.87521 0.0
C404 C 0.21393 0.01457 0.78043 0.0
H405 H 0.30893 0.98274 0.75746 0.0
C406 C 0.20511 0.03436 0.74572 0.0
C407 C 0.25183 -0.00422 0.78484 0.0
C408 C 0.26221 0.97268 0.82086 0.0
C409 C 0.23327 0.03598 0.71531 0.0
C410 C 0.27108 0.01718 0.71969 0.0
C411 C 0.2801 -0.00233 0.7545 0.0
C412 C 0.30003 0.01381 0.68711 0.0
C413 C 0.22245 0.05768 0.67862 0.0
C414 C 0.29089 0.98871 0.65598 0.0
C415 C 0.3199 0.98055 0.62774 0.0
C416 C 0.35838 -0.00218 0.62977 0.0
C417 C 0.36695 0.02468 0.65973 0.0
C418 C 0.33802 0.03228 0.68859 0.0
H419 H 0.19636 0.07791 0.68298 0.0
H420 H 0.24858 0.0751 0.66788 0.0
H421 H 0.2143 0.03585 0.65587 0.0
H422 H 0.26196 0.97385 0.65457 0.0
H423 H 0.31283 0.95942 0.60507 0.0
H424 H 0.022 0.31995 0.62407 0.0
H425 H 0.01144 0.26289 0.66677 0.0
H426 H -0.00512 0.34168 0.76404 0.0
H427 H 0.00478 0.39853 0.72179 0.0
H428 H 0.05772 0.24214 0.73082 0.0
H429 H 0.89912 0.26758 0.77518 0.0
H430 H 0.92159 0.29195 0.73396 0.0
H431 H 0.93028 0.31038 0.78222 0.0
C432 C 0.01544 0.32511 0.65444 0.0
C433 C 0.01417 0.36385 0.6695 0.0
C434 C 0.00957 0.29247 0.67882 0.0
C435 C 0.00192 0.29798 0.71856 0.0
C436 C -7e-05 0.33664 0.73339 0.0
H437 H 0.97756 0.15771 0.92657 0.0
H438 H 0.98769 0.20986 0.87839 0.0
C439 C 0.00583 0.36918 0.70916 0.0
C440 C -0.00169 0.2636 0.74518 0.0
H441 H 0.93729 0.22275 0.81422 0.0
C442 C 0.03122 0.2376 0.74877 0.0
C443 C 0.96373 0.25768 0.7686 0.0
C444 C 0.92651 0.28313 0.76458 0.0
C445 C 0.03108 0.2068 0.77614 0.0
C446 C -0.00309 0.20157 0.80027 0.0
C447 C 0.96368 0.22706 0.79608 0.0
C448 C -0.00536 0.16969 0.82987 0.0
C449 C 0.068 0.1809 0.77983 0.0
C450 C -0.00416 0.12972 0.81878 0.0
C451 C 0.99024 0.09984 0.84628 0.0
C452 C 0.98293 0.10927 0.88545 0.0
C453 C 0.98303 0.14933 0.89669 0.0
C454 C 0.98869 0.17921 0.86915 0.0
H455 H 0.09502 0.1948 0.76648 0.0
H456 H 0.07464 0.17443 0.81071 0.0
H457 H 0.06247 0.15238 0.76474 0.0
H458 H -0.00025 0.12161 0.78862 0.0
H459 H 0.99034 0.06935 0.83653 0.0
H460 H 0.67332 0.06362 0.62803 0.0
H461 H 0.71952 0.04689 0.68034 0.0
H462 H 0.64947 0.94242 0.70538 0.0
H463 H 0.60374 0.95847 0.65153 0.0
H464 H 0.70121 0.04384 0.75481 0.0
H465 H 0.76181 0.89756 0.70945 0.0
H466 H 0.73387 0.92897 0.67684 0.0
H467 H 0.70777 0.89977 0.71244 0.0
C468 C 0.66813 0.03667 0.64423 0.0
C469 C 0.63501 0.01225 0.63569 0.0
C470 C 0.69454 0.02719 0.67421 0.0
C471 C 0.68824 -0.0067 0.69679 0.0
C472 C 0.65557 0.96827 0.68786 0.0
H473 H 0.81682 0.91036 0.90161 0.0
H474 H 0.76823 0.92036 0.84929 0.0
C475 C 0.62937 0.97745 0.65718 0.0
C476 C 0.71462 0.98628 0.731 0.0
H477 H 0.78059 0.92067 0.77163 0.0
C478 C 0.7186 0.01688 0.75842 0.0
C479 C 0.73714 0.95104 0.73592 0.0
C480 C 0.7353 0.91757 0.70696 0.0
C481 C 0.74452 0.01341 0.79038 0.0
C482 C 0.76756 0.97846 0.79495 0.0
C483 C 0.76301 0.9475 0.76802 0.0
C484 C 0.79665 0.97338 0.82734 0.0
C485 C 0.74652 0.04707 0.81916 0.0
C486 C 0.82899 -0.00022 0.83236 0.0
C487 C 0.85666 -0.00565 0.86253 0.0
C488 C 0.8529 0.96203 0.88788 0.0
C489 C 0.82065 0.93553 0.88259 0.0
C490 C 0.79284 0.94117 0.85266 0.0
H491 H 0.71909 0.06598 0.81786 0.0
H492 H 0.75 0.03595 0.84923 0.0
H493 H 0.77292 0.06597 0.81226 0.0
H494 H 0.83318 0.0243 0.81262 0.0
H495 H 0.88135 0.01512 0.86557 0.0
H496 H 0.2984 0.41751 0.9352 0.0
H497 H 0.22981 0.39177 0.93177 0.0
H498 H 0.22653 0.38133 0.05623 0.0
H499 H 0.29546 0.40647 0.06019 0.0
H500 H 0.22948 0.3102 0.97357 0.0
H501 H 0.10562 0.4142 0.01365 0.0
H502 H 0.15095 0.43041 0.98907 0.0
H503 H 0.15295 0.41741 0.03934 0.0
C504 C 0.28275 0.41091 0.96202 0.0
C505 C 0.30276 0.41289 0.99794 0.0
C506 C 0.2434 0.39661 0.95994 0.0
C507 C 0.22336 0.38481 0.99373 0.0
C508 C 0.24154 0.39081 0.02992 0.0
H509 H 0.06592 0.20406 0.06388 0.0
H510 H 0.09956 0.26794 0.05761 0.0
C511 C 0.28106 0.40484 0.03207 0.0
C512 C 0.18931 0.35718 0.99074 0.0
H513 H 0.08875 0.34591 0.00893 0.0
C514 C 0.19854 0.31806 0.98062 0.0
C515 C 0.14942 0.36778 1.00057 0.0
C516 C 0.13876 0.40977 0.01117 0.0
C517 C 0.16898 0.28869 0.98121 0.0
C518 C 0.12898 0.29906 0.99136 0.0
C519 C 0.11945 0.33839 1.00081 0.0
C520 C 0.09804 0.26813 0.99496 0.0
C521 C 0.18109 0.24642 0.97262 0.0
C522 C 0.08416 0.24851 0.96176 0.0
C523 C 0.06514 0.21193 0.96514 0.0
C524 C 0.06005 0.19449 1.00183 0.0
C525 C 0.06989 0.21644 0.03519 0.0
C526 C 0.08891 0.25306 0.03172 0.0
H527 H 0.21437 0.24274 0.97068 0.0
H528 H 0.16947 0.22631 0.99546 0.0
H529 H 0.16773 0.23704 0.94459 0.0
H530 H 0.09102 0.25992 0.93317 0.0
H531 H 0.05736 0.19606 0.93887 0.0
H532 H 0.37908 0.66308 0.07636 0.0
H533 H 0.33911 0.72381 0.07908 0.0
H534 H 0.29781 0.70297 0.96224 0.0
H535 H 0.33689 0.64204 0.95936 0.0
H536 H 0.35446 0.78613 0.02942 0.0
H537 H 0.19535 0.73741 0.01717 0.0
H538 H 0.2356 0.70405 0.03046 0.0
H539 H 0.2269 0.71604 0.98035 0.0
C540 C 0.36071 0.67091 0.05157 0.0
C541 C 0.36158 0.64811 0.0174 0.0
C542 C 0.33801 0.70562 0.0532 0.0
C543 C 0.3157 0.71773 0.02086 0.0
C544 C 0.31448 0.69377 0.98767 0.0
H545 H 0.17967 0.91342 0.94584 0.0
H546 H 0.23689 0.86821 0.94607 0.0
C547 C 0.33704 0.65906 0.98601 0.0
C548 C 0.29723 0.75729 0.01997 0.0
H549 H 0.20887 0.80511 1.00205 0.0
C550 C 0.32255 0.79043 0.02385 0.0
C551 C 0.25569 0.76251 0.01263 0.0
C552 C 0.22675 0.7281 0.0103 0.0
C553 C 0.30738 0.82889 0.01951 0.0
C554 C 0.26618 0.8339 0.01095 0.0
C555 C 0.24079 0.80083 0.00777 0.0
C556 C 0.24714 0.87297 0.00778 0.0
C557 C 0.33525 0.86387 0.02342 0.0
C558 C 0.23669 0.8931 0.04188 0.0
C559 C 0.20371 0.91873 0.04199 0.0
C560 C 0.18085 0.92384 0.00803 0.0
C561 C 0.19599 0.90916 0.9727 0.0
C562 C 0.22889 0.88347 0.97267 0.0
H563 H 0.36745 0.85477 0.02493 0.0
H564 H 0.33116 0.88428 0.99855 0.0
H565 H 0.32757 0.88048 0.05024 0.0
H566 H 0.25063 0.88531 0.06922 0.0
H567 H 0.19345 0.93062 0.0695 0.0
H568 H 0.59505 0.32609 0.07409 0.0
H569 H 0.63805 0.2672 0.07749 0.0
H570 H 0.6787 0.28793 0.96042 0.0
H571 H 0.6364 0.34673 0.95676 0.0
H572 H 0.62897 0.20213 0.02608 0.0
H573 H 0.78339 0.26531 0.01991 0.0
H574 H 0.73967 0.29444 0.03298 0.0
H575 H 0.75041 0.28384 0.98291 0.0
C576 C 0.61359 0.31839 0.04929 0.0
C577 C 0.61201 0.34066 0.01498 0.0
C578 C 0.63804 0.28483 0.0513 0.0
C579 C 0.66149 0.27356 0.01926 0.0
C580 C 0.66113 0.29657 0.98558 0.0
H581 H 0.81511 0.08306 0.95259 0.0
H582 H 0.75991 0.13074 0.95055 0.0
C583 C 0.63665 0.32992 0.98346 0.0
C584 C 0.68368 0.23592 0.01946 0.0
H585 H 0.77724 0.1963 0.00674 0.0
C586 C 0.66145 0.2007 0.02227 0.0
C587 C 0.72591 0.23453 0.01423 0.0
C588 C 0.75133 0.27155 0.01269 0.0
C589 C 0.68047 0.16379 0.01908 0.0
C590 C 0.7225 0.16249 0.01307 0.0
C591 C 0.74477 0.19769 0.01075 0.0
C592 C 0.74508 0.12514 0.01134 0.0
C593 C 0.65569 0.12651 0.02139 0.0
C594 C 0.75304 0.10468 0.04573 0.0
C595 C 0.78479 0.07763 0.04717 0.0
C596 C 0.80902 0.07115 0.01424 0.0
C597 C 0.79748 0.08793 0.97865 0.0
C598 C 0.76587 0.1151 0.97733 0.0
H599 H 0.62277 0.1327 0.02007 0.0
H600 H 0.66391 0.10608 0.99736 0.0
H601 H 0.66227 0.11118 0.04909 0.0
H602 H 0.73727 0.11232 0.07227 0.0
H603 H 0.79251 0.06465 0.07488 0.0
H604 H 0.92717 0.77699 0.08394 0.0
H605 H 0.89655 0.71136 0.08244 0.0
H606 H 0.88203 0.72039 0.9585 0.0
H607 H 0.91334 0.78529 0.9595 0.0
H608 H 0.81862 0.71445 0.05942 0.0
H609 H 0.89833 0.60233 0.97077 0.0
H610 H 0.92358 0.64505 0.99099 0.0
H611 H 0.89506 0.64926 0.9468 0.0
C612 C 0.91886 0.76437 0.05617 0.0
C613 C 0.92153 0.78676 0.02199 0.0
C614 C 0.90161 0.72674 0.05535 0.0
C615 C 0.88689 0.71106 0.0204 0.0
C616 C 0.89374 0.73154 0.98571 0.0
H617 H 0.67544 0.60595 0.94157 0.0
H618 H 0.74562 0.62688 0.94807 0.0
C619 C 0.91126 0.769 0.98644 0.0
C620 C 0.85602 0.67958 0.02123 0.0
H621 H 0.82534 0.59484 0.97596 0.0
C622 C 0.82059 0.68765 0.04212 0.0
C623 C 0.85834 0.64521 0.99789 0.0
C624 C 0.89607 0.63477 0.97562 0.0
C625 C 0.78661 0.6635 0.03875 0.0
C626 C 0.78847 0.62967 0.01462 0.0
C627 C 0.82431 0.62062 0.99472 0.0
C628 C 0.75172 0.60639 0.00713 0.0
C629 C 0.7481 0.67586 0.05905 0.0
C630 C 0.73287 0.58608 0.03753 0.0
C631 C 0.6926 0.57464 0.03417 0.0
C632 C 0.67082 0.58316 1.00023 0.0
C633 C 0.6912 0.5996 0.96833 0.0
C634 C 0.73143 0.61124 0.97183 0.0
H635 H 0.74994 0.70636 0.07101 0.0
H636 H 0.72208 0.67447 0.03882 0.0
H637 H 0.74196 0.65534 0.0834 0.0
H638 H 0.7483 0.58188 0.06489 0.0
H639 H 0.67798 0.56122 0.05897 0.0
H640 H 0.6504 0.51059 0.93881 0.0
H641 H 0.70556 0.52788 0.89477 0.0
H642 H 0.6194 0.54888 0.80338 0.0
H643 H 0.56404 0.53284 0.84806 0.0
H644 H 0.71266 0.47787 0.83002 0.0
H645 H 0.70502 0.63548 0.78476 0.0
H646 H 0.68172 0.61784 0.82888 0.0
H647 H 0.65847 0.60828 0.78282 0.0
C648 C 0.64328 0.52081 0.90986 0.0
C649 C 0.6033 0.52104 0.89671 0.0
C650 C 0.6747 0.53042 0.8847 0.0
C651 C 0.66656 0.53969 0.84587 0.0
C652 C 0.6263 0.5426 0.83342 0.0
H653 H 0.8139 0.5507 0.63877 0.0
H654 H 0.76023 0.5547 0.68744 0.0
C655 C 0.59474 0.53344 0.85886 0.0
C656 C 0.69993 0.53896 0.81737 0.0
H657 H 0.75035 0.59394 0.75031 0.0
C658 C 0.72119 0.50333 0.81276 0.0
C659 C 0.71017 0.57192 0.79437 0.0
C660 C 0.68789 0.61069 0.79799 0.0
C661 C 0.7523 0.4995 0.78547 0.0
C662 C 0.76357 0.53283 0.76314 0.0
C663 C 0.74206 0.5685 0.76767 0.0
C664 C 0.79665 0.53097 0.73408 0.0
C665 C 0.77146 0.45928 0.77999 0.0
C666 C 0.83518 0.51669 0.74407 0.0
C667 C 0.86538 0.51312 0.7159 0.0
C668 C 0.85799 0.52546 0.67784 0.0
C669 C 0.82017 0.54124 0.66815 0.0
C670 C 0.7896 0.54358 0.69592 0.0
H671 H 0.75102 0.43518 0.78963 0.0
H672 H 0.77961 0.45387 0.74921 0.0
H673 H 0.79925 0.45746 0.79782 0.0
H674 H 0.84188 0.50812 0.77357 0.0
H675 H 0.89458 0.50122 0.72391 0.0
H676 H 0.18052 0.54243 0.63917 0.0
H677 H 0.23496 0.53485 0.6863 0.0
H678 H 0.23304 0.40844 0.66971 0.0
H679 H 0.17842 0.41548 0.62254 0.0
H680 H 0.22037 0.48123 0.75588 0.0
H681 H 0.35702 0.44543 0.66795 0.0
H682 H 0.31531 0.47331 0.64813 0.0
H683 H 0.31 0.42127 0.65654 0.0
C684 C 0.19229 0.51306 0.6447 0.0
C685 C 0.17484 0.47952 0.62728 0.0
C686 C 0.22328 0.50881 0.67178 0.0
C687 C 0.23775 0.47111 0.68143 0.0
C688 C 0.22229 0.43777 0.66241 0.0
H689 H 0.37424 0.4391 0.89829 0.0
H690 H 0.33133 0.42147 0.84322 0.0
C691 C 0.19109 0.44192 0.63548 0.0
C692 C 0.26625 0.46663 0.71398 0.0
H693 H 0.3654 0.45069 0.73547 0.0
C694 C 0.252 0.47407 0.75161 0.0
C695 C 0.30727 0.45702 0.70804 0.0
C696 C 0.32366 0.44887 0.66803 0.0
C697 C 0.27819 0.47364 0.78349 0.0
C698 C 0.31958 0.46543 0.77738 0.0
C699 C 0.33354 0.45661 0.73992 0.0
C700 C 0.34948 0.4716 0.80846 0.0
C701 C 0.26189 0.48402 0.82314 0.0
C702 C 0.37501 0.50449 0.80634 0.0
C703 C 0.3997 0.5143 0.83751 0.0
C704 C 0.39941 0.49136 0.87146 0.0
C705 C 0.37555 0.45706 0.87262 0.0
C706 C 0.35069 0.44719 0.84127 0.0
H707 H 0.22966 0.49312 0.82221 0.0
H708 H 0.26457 0.45799 0.84251 0.0
H709 H 0.27979 0.50845 0.8361 0.0
H710 H 0.37445 0.52367 0.78122 0.0
H711 H 0.41784 0.54089 0.83559 0.0
H712 H 0.11389 0.44649 0.33017 0.0
H713 H 0.1698 0.44353 0.28416 0.0
H714 H 0.18953 0.56875 0.29821 0.0
H715 H 0.13354 0.57221 0.34476 0.0
H716 H 0.18796 0.53568 0.21718 0.0
H717 H 0.2925 0.4577 0.31745 0.0
H718 H 0.24201 0.43842 0.31383 0.0
H719 H 0.25002 0.48656 0.33445 0.0
C720 C 0.12986 0.47357 0.32345 0.0
C721 C 0.11931 0.5096 0.34147 0.0
C722 C 0.16198 0.4717 0.29725 0.0
C723 C 0.18417 0.50574 0.28842 0.0
C724 C 0.1729 0.54208 0.30503 0.0
H725 H 0.41102 0.53248 0.16559 0.0
H726 H 0.35862 0.52837 0.21553 0.0
C727 C 0.14081 0.544 0.33148 0.0
C728 C 0.21902 0.50324 0.26161 0.0
H729 H 0.31444 0.46567 0.25262 0.0
C730 C 0.21565 0.52047 0.22488 0.0
C731 C 0.25513 0.48358 0.27199 0.0
C732 C 0.26053 0.46567 0.31165 0.0
C733 C 0.24733 0.51809 0.1979 0.0
C734 C 0.28314 0.49757 0.20788 0.0
C735 C 0.28679 0.48095 0.24493 0.0
C736 C 0.31735 0.49421 0.1803 0.0
C737 C 0.24237 0.53802 0.15909 0.0
C738 C 0.31236 0.47453 0.14479 0.0
C739 C 0.3421 0.47697 0.11615 0.0
C740 C 0.37756 0.49883 0.12264 0.0
C741 C 0.38398 0.51557 0.15953 0.0
C742 C 0.35404 0.51332 0.18811 0.0
H743 H 0.2174 0.56 0.15941 0.0
H744 H 0.27063 0.55322 0.15032 0.0
H745 H 0.23528 0.51534 0.13681 0.0
H746 H 0.28461 0.45885 0.13854 0.0
H747 H 0.33628 0.46353 0.08823 0.0
H748 H 0.54324 0.51732 0.15356 0.0
H749 H 0.57488 0.53737 0.21461 0.0
H750 H 0.69248 0.51606 0.16463 0.0
H751 H 0.66126 0.49767 0.10346 0.0
H752 H 0.61551 0.48877 0.25786 0.0
H753 H 0.7166 0.61342 0.22455 0.0
H754 H 0.67766 0.59767 0.19137 0.0
H755 H 0.72631 0.57359 0.19152 0.0
C756 C 0.57588 0.51799 0.15536 0.0
C757 C 0.5998 0.50562 0.12389 0.0
C758 C 0.59391 0.52947 0.19021 0.0
C759 C 0.63609 0.52857 0.1942 0.0
C760 C 0.65997 0.51812 0.16208 0.0
H761 H 0.7872 0.44472 0.36739 0.0
H762 H 0.73211 0.45633 0.32242 0.0
C763 C 0.64202 0.50724 0.12711 0.0
C764 C 0.65498 0.53266 0.23293 0.0
H765 H 0.7373 0.5712 0.27851 0.0
C766 C 0.64152 0.50762 0.26271 0.0
C767 C 0.68856 0.55755 0.23962 0.0
C768 C 0.70276 0.58734 0.21011 0.0
C769 C 0.66244 0.50469 0.29786 0.0
C770 C 0.6983 0.5267 0.30302 0.0
C771 C 0.71006 0.55391 0.27443 0.0
C772 C 0.72653 0.51884 0.3354 0.0
C773 C 0.64642 0.47723 0.32864 0.0
C774 C 0.7416 0.55002 0.3581 0.0
C775 C 0.77362 0.54355 0.38369 0.0
C776 C 0.79135 0.50581 0.38672 0.0
C777 C 0.77436 0.47417 0.36582 0.0
C778 C 0.74252 0.4807 0.34021 0.0
H779 H 0.61299 0.475 0.32706 0.0
H780 H 0.65889 0.44713 0.32378 0.0
H781 H 0.65499 0.48726 0.35817 0.0
H782 H 0.72979 0.57972 0.35472 0.0
H783 H 0.78595 0.56861 0.39931 0.0
H784 H 0.38587 0.80808 0.58767 0.0
H785 H 0.3345 0.75749 0.59847 0.0
H786 H 0.31024 0.75347 0.47573 0.0
H787 H 0.36158 0.80365 0.46448 0.0
H788 H 0.25341 0.77402 0.57812 0.0
H789 H 0.30827 0.63673 0.50717 0.0
H790 H 0.34171 0.67674 0.52045 0.0
H791 H 0.31217 0.67961 0.47682 0.0
C792 C 0.3705 0.79559 0.56279 0.0
C793 C 0.37735 0.81041 0.52525 0.0
C794 C 0.34106 0.7668 0.5691 0.0
C795 C 0.3185 0.752 0.53795 0.0
C796 C 0.32763 0.76426 0.50013 0.0
H797 H 0.08393 0.66964 0.4938 0.0
H798 H 0.14042 0.71192 0.51318 0.0
C799 C 0.357 0.79305 0.49377 0.0
C800 C 0.28226 0.72767 0.54505 0.0
H801 H 0.23696 0.64149 0.51831 0.0
C802 C 0.24998 0.7447 0.56571 0.0
C803 C 0.27799 0.68955 0.52882 0.0
C804 C 0.31203 0.6694 0.50737 0.0
C805 C 0.21275 0.72519 0.56898 0.0
C806 C 0.20798 0.6879 0.55114 0.0
C807 C 0.24081 0.67018 0.532 0.0
C808 C 0.1687 0.66748 0.54918 0.0
C809 C 0.17862 0.74474 0.59076 0.0
C810 C 0.16519 0.62916 0.56416 0.0
C811 C 0.13324 0.60503 0.55281 0.0
C812 C 0.10423 0.61875 0.52659 0.0
C813 C 0.10582 0.65834 0.5143 0.0
C814 C 0.13791 0.68259 0.52555 0.0
H815 H 0.1896 0.76882 0.61002 0.0
H816 H 0.1571 0.75775 0.5697 0.0
H817 H 0.16194 0.72273 0.60846 0.0
H818 H 0.18897 0.61681 0.58197 0.0
H819 H 0.1338 0.57449 0.56121 0.0
H820 H 0.057 0.33199 0.457 0.0
H821 H 0.09461 0.27236 0.47454 0.0
H822 H 0.1576 0.33767 0.56331 0.0
H823 H 0.12061 0.39739 0.54568 0.0
H824 H 0.20756 0.30215 0.5079 0.0
H825 H 0.09734 0.19412 0.56661 0.0
H826 H 0.08204 0.2177 0.52234 0.0
H827 H 0.0878 0.24679 0.56563 0.0
C828 C 0.07818 0.33345 0.48085 0.0
C829 C 0.08607 0.36954 0.49976 0.0
C830 C 0.09942 0.29924 0.49104 0.0
C831 C 0.12868 0.30055 0.5204 0.0
C832 C 0.13495 0.336 0.54072 0.0
H833 H 0.30378 0.12001 0.58857 0.0
H834 H 0.24766 0.16732 0.59066 0.0
C835 C 0.11374 0.37013 0.53061 0.0
C836 C 0.15676 0.26692 0.52585 0.0
H837 H 0.16184 0.16839 0.54747 0.0
C838 C 0.19762 0.27304 0.51702 0.0
C839 C 0.14368 0.22903 0.53776 0.0
C840 C 0.10038 0.22143 0.54899 0.0
C841 C 0.22558 0.242 0.51861 0.0
C842 C 0.2123 0.20378 0.52909 0.0
C843 C 0.17172 0.19774 0.53913 0.0
C844 C 0.24056 0.16993 0.52844 0.0
C845 C 0.26914 0.25009 0.50845 0.0
C846 C 0.25392 0.15479 0.49282 0.0
C847 C 0.28589 0.12789 0.49144 0.0
C848 C 0.30523 0.11576 0.52573 0.0
C849 C 0.2898 0.12892 0.56159 0.0
C850 C 0.25768 0.15587 0.5629 0.0
H851 H 0.27582 0.28228 0.50759 0.0
H852 H 0.28961 0.23582 0.52972 0.0
H853 H 0.27587 0.23735 0.47945 0.0
H854 H 0.24089 0.1653 0.46594 0.0
H855 H 0.29667 0.11817 0.46332 0.0
H856 H 0.84499 0.59859 0.45648 0.0
H857 H 0.80547 0.65646 0.4367 0.0
H858 H 0.88316 0.73151 0.5051 0.0
H859 H 0.92312 0.67431 0.52357 0.0
H860 H 0.76421 0.69476 0.49035 0.0
H861 H 0.86045 0.80455 0.41724 0.0
H862 H 0.87503 0.75323 0.4215 0.0
H863 H 0.88463 0.78755 0.46052 0.0
C864 C 0.85479 0.62766 0.46553 0.0
C865 C 0.887 0.63197 0.49156 0.0
C866 C 0.83201 0.66073 0.45453 0.0
C867 C 0.84137 0.6985 0.46928 0.0
C868 C 0.87572 0.70303 0.49257 0.0
H869 H 0.67885 0.87019 0.56279 0.0
H870 H 0.73167 0.82112 0.54969 0.0
C871 C 0.89838 0.67014 0.50345 0.0
C872 C 0.81166 0.73137 0.46713 0.0
H873 H 0.80393 0.83143 0.4548 0.0
C874 C 0.77272 0.72446 0.48176 0.0
C875 C 0.82253 0.77019 0.45586 0.0
C876 C 0.86284 0.77917 0.43752 0.0
C877 C 0.74525 0.75551 0.48746 0.0
C878 C 0.75727 0.79469 0.47905 0.0
C879 C 0.79523 0.80146 0.46223 0.0
C880 C 0.73032 0.82868 0.48742 0.0
C881 C 0.70372 0.74615 0.50296 0.0
C882 C 0.7138 0.85061 0.45693 0.0
C883 C 0.68377 0.87871 0.4643 0.0
C884 C 0.66985 0.88549 0.50238 0.0
C885 C 0.68875 0.86563 0.53317 0.0
C886 C 0.71872 0.83738 0.5257 0.0
H887 H 0.69588 0.71447 0.49874 0.0
H888 H 0.70283 0.7526 0.53451 0.0
H889 H 0.68038 0.76461 0.4886 0.0
H890 H 0.72262 0.84458 0.42723 0.0
H891 H 0.67016 0.89382 0.43993 0.0
H892 H 0.62394 0.19306 0.56724 0.0
H893 H 0.68071 0.23859 0.55973 0.0
H894 H 0.66834 0.23304 0.43554 0.0
H895 H 0.61125 0.18781 0.44247 0.0
H896 H 0.75178 0.20657 0.48798 0.0
H897 H 0.68636 0.35843 0.49604 0.0
H898 H 0.6656 0.3199 0.52622 0.0
H899 H 0.65896 0.31756 0.47474 0.0
C900 C 0.63242 0.20235 0.53833 0.0
C901 C 0.61333 0.18628 0.50547 0.0
C902 C 0.665 0.22822 0.53412 0.0
C903 C 0.67884 0.23855 0.4971 0.0
C904 C 0.65808 0.22509 0.46432 0.0
H905 H 0.88158 0.39997 0.46463 0.0
H906 H 0.82758 0.35426 0.44656 0.0
C907 C 0.62535 0.19939 0.46844 0.0
C908 C 0.71716 0.26034 0.49293 0.0
H909 H 0.75741 0.35293 0.49752 0.0
C910 C 0.75314 0.23861 0.48955 0.0
C911 C 0.71851 0.30197 0.49466 0.0
C912 C 0.6804 0.32615 0.49799 0.0
C913 C 0.79081 0.25761 0.48953 0.0
C914 C 0.79226 0.29921 0.49315 0.0
C915 C 0.75613 0.32099 0.49465 0.0
C916 C 0.83052 0.32065 0.49975 0.0
C917 C 0.82879 0.23316 0.48643 0.0
C918 C 0.85094 0.31591 0.53504 0.0
C919 C 0.88147 0.34223 0.54565 0.0
C920 C 0.89212 0.37359 0.52102 0.0
C921 C 0.87403 0.37614 0.48425 0.0
C922 C 0.84311 0.35011 0.47387 0.0
H923 H 0.82266 0.20342 0.47397 0.0
H924 H 0.85169 0.24831 0.46823 0.0
H925 H 0.84177 0.2291 0.5158 0.0
H926 H 0.84139 0.29356 0.55555 0.0
H927 H 0.89511 0.33938 0.57404 0.0
H928 H 0.5479 0.34729 0.89144 0.0
H929 H 0.56636 0.29565 0.84433 0.0
H930 H 0.44581 0.29876 0.79757 0.0
H931 H 0.42703 0.34994 0.84439 0.0
H932 H 0.48053 0.21931 0.81741 0.0
H933 H 0.57834 0.3125 0.72282 0.0
H934 H 0.58477 0.31437 0.77466 0.0
H935 H 0.53984 0.33425 0.75335 0.0
C936 C 0.52543 0.33717 0.87092 0.0
C937 C 0.48601 0.35284 0.87159 0.0
C938 C 0.53603 0.30766 0.8441 0.0
C939 C 0.50746 0.29356 0.81745 0.0
C940 C 0.46823 0.3092 0.81802 0.0
H941 H 0.46241 0.1768 0.6131 0.0
H942 H 0.48022 0.22185 0.66593 0.0
C943 C 0.45759 0.3385 0.84477 0.0
C944 C 0.51777 0.26241 0.78877 0.0
H945 H 0.56175 0.24893 0.70008 0.0
C946 C 0.49909 0.22534 0.79218 0.0
C947 C 0.54196 0.27054 0.75596 0.0
C948 C 0.56244 0.31004 0.75109 0.0
C949 C 0.50231 0.19685 0.76264 0.0
C950 C 0.52471 0.20578 0.72886 0.0
C951 C 0.545 0.2421 0.72626 0.0
C952 C 0.52108 0.18085 0.6937 0.0
C953 C 0.47957 0.15838 0.76646 0.0
C954 C 0.53939 0.14338 0.69113 0.0
C955 C 0.52968 0.11775 0.66045 0.0
C956 C 0.50122 0.12932 0.63256 0.0
C957 C 0.48464 0.16748 0.63422 0.0
C958 C 0.49479 0.19317 0.66431 0.0
H959 H 0.4621 0.1567 0.79392 0.0
H960 H 0.45842 0.15478 0.74175 0.0
H961 H 0.50115 0.13325 0.76554 0.0
H962 H 0.55963 0.13336 0.71371 0.0
H963 H 0.54224 0.08815 0.65998 0.0
H964 H 0.52795 0.91563 0.68518 0.0
H965 H 0.51227 0.86857 0.73671 0.0
H966 H 0.43999 0.8004 0.65707 0.0
H967 H 0.45577 0.84766 0.60526 0.0
H968 H 0.41186 0.80602 0.74291 0.0
H969 H 0.56995 0.75764 0.71685 0.0
H970 H 0.56356 0.80993 0.72445 0.0
H971 H 0.54191 0.78684 0.68239 0.0
C972 C 0.50769 0.89128 0.67898 0.0
C973 C 0.49286 0.88529 0.64132 0.0
C974 C 0.49872 0.8645 0.70842 0.0
C975 C 0.47528 0.83093 0.70055 0.0
C976 C 0.45791 0.82633 0.66372 0.0
H977 H 0.51781 0.61723 0.83254 0.0
H978 H 0.50544 0.66471 0.78067 0.0
C979 C 0.46666 0.85346 0.6342 0.0
C980 C 0.47465 0.79815 0.72887 0.0
H981 H 0.53741 0.73169 0.77202 0.0
C982 C 0.43909 0.7894 0.7492 0.0
C983 C 0.51006 0.77613 0.73634 0.0
C984 C 0.54851 0.78273 0.71368 0.0
C985 C 0.4384 0.75971 0.77779 0.0
C986 C 0.47455 0.73907 0.78672 0.0
C987 C 0.50971 0.74744 0.76549 0.0
C988 C 0.47737 0.7087 0.8178 0.0
C989 C 0.39889 0.75055 0.7976 0.0
C990 C 0.4654 0.71723 0.85606 0.0
C991 C 0.47161 0.68957 0.88564 0.0
C992 C 0.4912 0.65353 0.87767 0.0
C993 C 0.50311 0.64503 0.83951 0.0
C994 C 0.49588 0.6721 0.80985 0.0
H995 H 0.37279 0.75842 0.77894 0.0
H996 H 0.39667 0.71876 0.80531 0.0
H997 H 0.39651 0.76839 0.82456 0.0
H998 H 0.45229 0.74564 0.86335 0.0
H999 H 0.46227 0.69688 0.91491 0.0
H1000 H 0.53729 0.61408 0.17133 0.0
H1001 H 0.52619 0.65335 0.23014 0.0
H1002 H 0.44596 0.73052 0.16722 0.0
H1003 H 0.45629 0.69121 0.10863 0.0
H1004 H 0.54659 0.73075 0.23727 0.0
H1005 H 0.38319 0.71383 0.26673 0.0
H1006 H 0.41047 0.68122 0.23441 0.0
H1007 H 0.39331 0.72879 0.21781 0.0
C1008 C 0.51673 0.639 0.17018 0.0
C1009 C 0.4979 0.64968 0.13521 0.0
C1010 C 0.5104 0.66139 0.20382 0.0
C1011 C 0.48485 0.6946 0.20322 0.0
C1012 C 0.46507 0.70454 0.16865 0.0
H1013 H 0.47839 0.90969 0.3341 0.0
H1014 H 0.46832 0.85664 0.2866 0.0
C1015 C 0.47136 0.68222 0.13503 0.0
C1016 C 0.48229 0.72132 0.23733 0.0
H1017 H 0.41618 0.76891 0.29786 0.0
C1018 C 0.51812 0.7386 0.25087 0.0
C1019 C 0.4451 0.73164 0.25501 0.0
C1020 C 0.40588 0.7126 0.24301 0.0
C1021 C 0.51765 0.76686 0.28066 0.0
C1022 C 0.48042 0.77813 0.29738 0.0
C1023 C 0.44461 0.76028 0.28468 0.0
C1024 C 0.47879 0.80932 0.32741 0.0
C1025 C 0.55683 0.78535 0.29364 0.0
C1026 C 0.48663 0.80002 0.36623 0.0
C1027 C 0.49239 0.83021 0.39348 0.0
C1028 C 0.49074 0.87018 0.38216 0.0
C1029 C 0.48021 0.87925 0.34369 0.0
C1030 C 0.47431 0.84902 0.31653 0.0
H1031 H 0.58322 0.77381 0.2772 0.0
H1032 H 0.55536 0.81795 0.28987 0.0
H1033 H 0.56158 0.77945 0.32494 0.0
H1034 H 0.49029 0.76947 0.37502 0.0
H1035 H 0.5003 0.82215 0.42287 0.0
H1036 H 0.52386 0.17308 0.42134 0.0
H1037 H 0.53645 0.21631 0.36571 0.0
H1038 H 0.4542 0.14722 0.29659 0.0
H1039 H 0.44135 0.10379 0.35178 0.0
H1040 H 0.55161 0.19132 0.27085 0.0
H1041 H 0.41424 0.27329 0.31948 0.0
H1042 H 0.44665 0.24778 0.35328 0.0
H1043 H 0.41422 0.22 0.32186 0.0
C1044 C 0.50907 0.16655 0.39409 0.0
C1045 C 0.48106 0.13538 0.39116 0.0
C1046 C 0.51646 0.19119 0.36236 0.0
C1047 C 0.49608 0.18489 0.32732 0.0
C1048 C 0.4702 0.15237 0.32351 0.0
H1049 H 0.43328 0.3085 0.12208 0.0
H1050 H 0.4456 0.2612 0.17416 0.0
C1051 C 0.4628 0.12772 0.35513 0.0
C1052 C 0.4974 0.21496 0.29644 0.0
H1053 H 0.44304 0.29207 0.25995 0.0
C1054 C 0.52823 0.21366 0.26855 0.0
C1055 C 0.46679 0.24396 0.29383 0.0
C1056 C 0.43355 0.24675 0.32369 0.0
C1057 C 0.52845 0.24027 0.23724 0.0
C1058 C 0.49713 0.26849 0.23414 0.0
C1059 C 0.46693 0.27027 0.26256 0.0
C1060 C 0.49351 0.29519 0.20056 0.0
C1061 C 0.5612 0.23746 0.20699 0.0
C1062 C 0.51658 0.32985 0.19827 0.0
C1063 C 0.5094 0.35723 0.16868 0.0
C1064 C 0.47903 0.35023 0.14101 0.0
C1065 C 0.45685 0.31483 0.1429 0.0
C1066 C 0.46389 0.2877 0.17255 0.0
H1067 H 0.58244 0.21269 0.21268 0.0
H1068 H 0.54752 0.23327 0.1779 0.0
H1069 H 0.5785 0.26557 0.20633 0.0
H1070 H 0.5393 0.3362 0.21997 0.0
H1071 H 0.52712 0.38413 0.16791 0.0
loop_
_geom_bond_atom_site_label_1
_geom_bond_atom_site_label_2
_geom_bond_distance
_geom_bond_site_symmetry_2
_ccdc_geom_bond_type
Zn0 O2 1.933 1_556 S
Zn0 O20 1.985 . S
Zn0 O31 1.955 . S
Zn1 O2 1.911 . S
Zn1 O21 1.970 . S
Zn1 O37 1.945 . S
Zn1 O44 1.981 . S
O2 Zn0 1.933 1_554 S
O2 Zn1 1.911 . S
O2 H3 0.841 . S
H3 O2 0.841 . S
C4 O5 1.246 . S
C4 O33 1.276 1_655 S
O5 C4 1.246 . S
Zn6 O8 1.911 . S
Zn6 O23 1.970 . S
Zn6 O40 1.945 . S
Zn6 O47 1.981 . S
Zn7 O8 1.933 1_556 S
Zn7 O22 1.985 . S
Zn7 O29 1.955 . S
O8 Zn6 1.911 . S
O8 Zn7 1.933 1_554 S
O8 H9 0.841 . S
H9 O8 0.841 . S
Zn10 O11 1.933 1_556 S
Zn10 O24 1.985 . S
Zn10 O33 1.955 . S
O11 Zn10 1.933 1_554 S
O11 Zn12 1.911 . S
O11 H13 0.841 . S
Zn12 O11 1.911 . S
Zn12 O25 1.970 . S
Zn12 O41 1.981 . S
Zn12 O43 1.945 . S
H13 O11 0.841 . S
Zn14 O15 1.933 1_556 S
Zn14 O27 1.985 . S
Zn14 O35 1.955 . S
O15 Zn14 1.933 1_554 S
O15 H16 0.841 . S
O15 Zn17 1.911 . S
H16 O15 0.841 . S
Zn17 O15 1.911 . S
Zn17 O28 1.970 . S
Zn17 O38 1.981 . S
Zn17 O46 1.945 . S
C18 O19 1.246 . S
C18 O35 1.276 1_455 S
O19 C18 1.246 . S
O20 Zn0 1.985 . S
O20 C30 1.245 1_556 S
O21 Zn1 1.970 . S
O21 C30 1.263 . S
O22 Zn7 1.985 . S
O22 C34 1.245 1_556 S
O23 Zn6 1.970 . S
O23 C34 1.263 . S
O24 Zn10 1.985 . S
O24 C39 1.245 1_556 S
O25 Zn12 1.970 . S
O25 C39 1.263 . S
C26 O37 1.262 1_545 S
C26 O38 1.245 . S
O27 Zn14 1.985 . S
O27 C45 1.245 1_556 S
O28 Zn17 1.970 . S
O28 C45 1.263 . S
O29 Zn7 1.955 . S
O29 C48 1.276 . S
C30 O20 1.245 1_554 S
C30 O21 1.263 . S
O31 Zn0 1.955 . S
O31 C50 1.276 1_565 S
C32 O40 1.262 . S
C32 O41 1.245 1_545 S
O33 C4 1.276 1_455 S
O33 Zn10 1.955 . S
C34 O22 1.245 1_554 S
C34 O23 1.263 . S
O35 Zn14 1.955 . S
O35 C18 1.276 1_655 S
C36 O43 1.265 . S
C36 O44 1.243 1_455 S
O37 Zn1 1.945 . S
O37 C26 1.262 1_565 S
O38 Zn17 1.981 . S
O38 C26 1.245 . S
C39 O24 1.245 1_554 S
C39 O25 1.263 . S
O40 Zn6 1.945 . S
O40 C32 1.262 . S
O41 Zn12 1.981 . S
O41 C32 1.245 1_565 S
C42 O46 1.262 1_455 S
C42 O47 1.245 . S
O43 Zn12 1.945 . S
O43 C36 1.265 . S
O44 Zn1 1.981 . S
O44 C36 1.243 1_655 S
C45 O27 1.245 1_554 S
C45 O28 1.263 . S
O46 Zn17 1.945 . S
O46 C42 1.262 1_655 S
O47 Zn6 1.981 . S
O47 C42 1.245 . S
C48 O29 1.276 . S
C48 O49 1.246 1_545 S
O49 C48 1.246 1_565 S
C50 O31 1.276 1_545 S
C50 O51 1.246 . S
O51 C50 1.246 . S
Zn52 O54 1.933 . S
Zn52 O72 1.985 . S
Zn52 O83 1.955 . S
Zn53 O54 1.911 . S
Zn53 O73 1.970 . S
Zn53 O89 1.945 . S
Zn53 O96 1.981 . S
O54 Zn52 1.933 . S
O54 Zn53 1.911 . S
O54 H55 0.841 . S
H55 O54 0.841 . S
C56 O57 1.246 . S
C56 O85 1.276 . S
O57 C56 1.246 . S
Zn58 O60 1.911 . S
Zn58 O75 1.970 . S
Zn58 O92 1.945 . S
Zn58 O99 1.981 . S
Zn59 O60 1.933 . S
Zn59 O74 1.985 . S
Zn59 O81 1.955 . S
O60 Zn58 1.911 . S
O60 Zn59 1.933 . S
O60 H61 0.841 . S
H61 O60 0.841 . S
Zn62 O63 1.933 . S
Zn62 O76 1.985 . S
Zn62 O85 1.955 . S
O63 Zn62 1.933 . S
O63 Zn64 1.911 . S
O63 H65 0.841 . S
Zn64 O63 1.911 . S
Zn64 O77 1.970 . S
Zn64 O93 1.981 . S
Zn64 O95 1.945 . S
H65 O63 0.841 . S
Zn66 O67 1.933 . S
Zn66 O79 1.985 . S
Zn66 O87 1.955 . S
O67 Zn66 1.933 . S
O67 H68 0.841 . S
O67 Zn69 1.911 . S
H68 O67 0.841 . S
Zn69 O67 1.911 . S
Zn69 O80 1.970 . S
Zn69 O90 1.981 . S
Zn69 O98 1.945 . S
C70 O71 1.246 . S
C70 O87 1.276 . S
O71 C70 1.246 . S
O72 Zn52 1.985 . S
O72 C82 1.245 . S
O73 Zn53 1.970 . S
O73 C82 1.263 . S
O74 Zn59 1.985 . S
O74 C86 1.245 . S
O75 Zn58 1.970 . S
O75 C86 1.263 . S
O76 Zn62 1.985 . S
O76 C91 1.245 . S
O77 Zn64 1.970 . S
O77 C91 1.263 . S
C78 O89 1.261 . S
C78 O90 1.245 1_655 S
O79 Zn66 1.985 . S
O79 C97 1.245 . S
O80 Zn69 1.970 . S
O80 C97 1.263 . S
O81 Zn59 1.955 . S
O81 C100 1.276 1_455 S
C82 O72 1.245 . S
C82 O73 1.263 . S
O83 Zn52 1.955 . S
O83 C102 1.276 1_655 S
C84 O92 1.267 . S
C84 O93 1.242 1_455 S
O85 C56 1.276 . S
O85 Zn62 1.955 . S
C86 O74 1.245 . S
C86 O75 1.263 . S
O87 Zn66 1.955 . S
O87 C70 1.276 . S
C88 O95 1.262 . S
C88 O96 1.245 . S
O89 Zn53 1.945 . S
O89 C78 1.261 . S
O90 Zn69 1.981 . S
O90 C78 1.245 1_455 S
C91 O76 1.245 . S
C91 O77 1.263 . S
O92 Zn58 1.945 . S
O92 C84 1.267 . S
O93 Zn64 1.981 . S
O93 C84 1.242 1_655 S
C94 O98 1.262 . S
C94 O99 1.245 . S
O95 Zn64 1.945 . S
O95 C88 1.262 . S
O96 Zn53 1.981 . S
O96 C88 1.245 . S
C97 O79 1.245 . S
C97 O80 1.263 . S
O98 Zn69 1.945 . S
O98 C94 1.262 . S
O99 Zn58 1.981 . S
O99 C94 1.245 . S
C100 O81 1.276 1_655 S
C100 O101 1.246 . S
O101 C100 1.246 . S
C102 O83 1.276 1_455 S
C102 O103 1.246 . S
O103 C102 1.246 . S
Zn104 O106 1.933 . S
Zn104 O124 1.985 . S
Zn104 O135 1.955 . S
Zn105 O106 1.911 . S
Zn105 O125 1.970 . S
Zn105 O141 1.945 . S
Zn105 O148 1.981 . S
O106 Zn104 1.933 . S
O106 Zn105 1.911 . S
O106 H107 0.841 . S
H107 O106 0.841 . S
C108 O109 1.246 . S
C108 O137 1.276 . S
O109 C108 1.246 . S
Zn110 O112 1.911 . S
Zn110 O127 1.970 . S
Zn110 O144 1.945 . S
Zn110 O151 1.981 . S
Zn111 O112 1.933 . S
Zn111 O126 1.985 . S
Zn111 O133 1.955 . S
O112 Zn110 1.911 . S
O112 Zn111 1.933 . S
O112 H113 0.841 . S
H113 O112 0.841 . S
Zn114 O115 1.933 . S
Zn114 O128 1.985 . S
Zn114 O137 1.955 . S
O115 Zn114 1.933 . S
O115 Zn116 1.911 . S
O115 H117 0.841 . S
Zn116 O115 1.911 . S
Zn116 O129 1.970 . S
Zn116 O145 1.981 . S
Zn116 O147 1.945 . S
H117 O115 0.841 . S
Zn118 O119 1.933 . S
Zn118 O131 1.985 . S
Zn118 O139 1.955 . S
O119 Zn118 1.933 . S
O119 H120 0.841 . S
O119 Zn121 1.911 . S
H120 O119 0.841 . S
Zn121 O119 1.911 . S
Zn121 O132 1.970 . S
Zn121 O142 1.981 . S
Zn121 O150 1.945 . S
C122 O123 1.246 . S
C122 O139 1.276 . S
O123 C122 1.246 . S
O124 Zn104 1.985 . S
O124 C134 1.245 . S
O125 Zn105 1.970 . S
O125 C134 1.263 . S
O126 Zn111 1.985 . S
O126 C138 1.245 . S
O127 Zn110 1.970 . S
O127 C138 1.263 . S
O128 Zn114 1.985 . S
O128 C143 1.245 . S
O129 Zn116 1.970 . S
O129 C143 1.263 . S
C130 O141 1.262 1_545 S
C130 O142 1.245 . S
O131 Zn118 1.985 . S
O131 C149 1.245 . S
O132 Zn121 1.970 . S
O132 C149 1.263 . S
O133 Zn111 1.955 . S
O133 C152 1.276 . S
C134 O124 1.245 . S
C134 O125 1.263 . S
O135 Zn104 1.955 . S
O135 C154 1.276 1_565 S
C136 O144 1.262 . S
C136 O145 1.245 1_545 S
O137 C108 1.276 . S
O137 Zn114 1.955 . S
C138 O126 1.245 . S
C138 O127 1.263 . S
O139 Zn118 1.955 . S
O139 C122 1.276 . S
C140 O147 1.262 . S
C140 O148 1.245 . S
O141 Zn105 1.945 . S
O141 C130 1.262 1_565 S
O142 Zn121 1.981 . S
O142 C130 1.245 . S
C143 O128 1.245 . S
C143 O129 1.263 . S
O144 Zn110 1.945 . S
O144 C136 1.262 . S
O145 Zn116 1.981 . S
O145 C136 1.245 1_565 S
C146 O150 1.262 . S
C146 O151 1.245 . S
O147 Zn116 1.945 . S
O147 C140 1.262 . S
O148 Zn105 1.981 . S
O148 C140 1.245 . S
C149 O131 1.245 . S
C149 O132 1.263 . S
O150 Zn121 1.945 . S
O150 C146 1.262 . S
O151 Zn110 1.981 . S
O151 C146 1.245 . S
C152 O133 1.276 . S
C152 O153 1.246 1_545 S
O153 C152 1.246 1_565 S
C154 O135 1.276 1_545 S
C154 O155 1.246 . S
O155 C154 1.246 . S
Zn156 O158 1.933 . S
Zn156 O176 1.985 . S
Zn156 O187 1.955 . S
Zn157 O158 1.911 1_556 S
Zn157 O177 1.970 . S
Zn157 O193 1.945 . S
Zn157 O200 1.981 . S
O158 Zn156 1.933 . S
O158 Zn157 1.911 1_554 S
O158 H159 0.841 . S
H159 O158 0.841 . S
C160 O161 1.246 . S
C160 O189 1.276 . S
O161 C160 1.246 . S
Zn162 O164 1.911 1_556 S
Zn162 O179 1.970 . S
Zn162 O196 1.945 . S
Zn162 O203 1.981 . S
Zn163 O164 1.933 . S
Zn163 O178 1.985 . S
Zn163 O185 1.955 . S
O164 Zn162 1.911 1_554 S
O164 Zn163 1.933 . S
O164 H165 0.841 . S
H165 O164 0.841 . S
Zn166 O167 1.933 . S
Zn166 O180 1.985 . S
Zn166 O189 1.955 . S
O167 Zn166 1.933 . S
O167 Zn168 1.911 1_554 S
O167 H169 0.841 . S
Zn168 O167 1.911 1_556 S
Zn168 O181 1.970 . S
Zn168 O197 1.981 . S
Zn168 O199 1.945 . S
H169 O167 0.841 . S
Zn170 O171 1.933 . S
Zn170 O183 1.985 . S
Zn170 O191 1.955 . S
O171 Zn170 1.933 . S
O171 H172 0.841 . S
O171 Zn173 1.911 1_554 S
H172 O171 0.841 . S
Zn173 O171 1.911 1_556 S
Zn173 O184 1.970 . S
Zn173 O194 1.981 . S
Zn173 O202 1.945 . S
C174 O175 1.246 . S
C174 O191 1.276 . S
O175 C174 1.246 . S
O176 Zn156 1.985 . S
O176 C186 1.245 . S
O177 Zn157 1.970 . S
O177 C186 1.263 1_556 S
O178 Zn163 1.985 . S
O178 C190 1.245 . S
O179 Zn162 1.970 . S
O179 C190 1.263 1_556 S
O180 Zn166 1.985 . S
O180 C195 1.245 . S
O181 Zn168 1.970 . S
O181 C195 1.263 1_556 S
C182 O193 1.262 . S
C182 O194 1.245 . S
O183 Zn170 1.985 . S
O183 C201 1.245 . S
O184 Zn173 1.970 . S
O184 C201 1.263 1_556 S
O185 Zn163 1.955 . S
O185 C204 1.276 . S
C186 O176 1.245 . S
C186 O177 1.263 1_554 S
O187 Zn156 1.955 . S
O187 C206 1.276 . S
C188 O196 1.262 . S
C188 O197 1.245 . S
O189 C160 1.276 . S
O189 Zn166 1.955 . S
C190 O178 1.245 . S
C190 O179 1.263 1_554 S
O191 Zn170 1.955 . S
O191 C174 1.276 . S
C192 O199 1.262 . S
C192 O200 1.245 . S
O193 Zn157 1.945 . S
O193 C182 1.262 . S
O194 Zn173 1.981 . S
O194 C182 1.245 . S
C195 O180 1.245 . S
C195 O181 1.263 1_554 S
O196 Zn162 1.945 . S
O196 C188 1.262 . S
O197 Zn168 1.981 . S
O197 C188 1.245 . S
C198 O202 1.262 . S
C198 O203 1.245 . S
O199 Zn168 1.945 . S
O199 C192 1.262 . S
O200 Zn157 1.981 . S
O200 C192 1.245 . S
C201 O183 1.245 . S
C201 O184 1.263 1_554 S
O202 Zn173 1.945 . S
O202 C198 1.262 . S
O203 Zn162 1.981 . S
O203 C198 1.245 . S
C204 O185 1.276 . S
C204 O205 1.246 . S
O205 C204 1.246 . S
C206 O187 1.276 . S
C206 O207 1.246 . S
O207 C206 1.246 . S
H208 C216 0.929 . S
H209 C218 0.930 . S
H210 C220 0.930 . S
H211 C223 0.929 . S
H212 C226 0.930 . S
H213 C228 0.960 . S
H214 C228 0.960 . S
H215 C228 0.960 1_655 S
C216 H208 0.929 . S
C216 C217 1.377 . S
C216 C218 1.384 . S
C217 C216 1.377 . S
C217 C223 1.390 1_455 S
C218 H209 0.930 . S
C218 C216 1.384 . S
C218 C219 1.372 . S
C219 C218 1.372 . S
C219 C220 1.400 1_455 S
C219 C224 1.490 . S
C220 H210 0.930 . S
C220 C219 1.400 1_655 S
C220 C223 1.386 . S
H221 C237 0.930 . S
H222 C238 0.931 . S
C223 H211 0.929 . S
C223 C217 1.390 1_655 S
C223 C220 1.386 . S
C224 C219 1.490 . S
C224 C226 1.395 . S
C224 C227 1.403 . S
H225 C231 0.930 . S
C226 H212 0.930 . S
C226 C224 1.395 . S
C226 C229 1.403 . S
C227 C224 1.403 . S
C227 C228 1.524 . S
C227 C231 1.400 . S
C228 H213 0.960 . S
C228 H214 0.960 . S
C228 H215 0.960 1_455 S
C228 C227 1.524 . S
C229 C226 1.403 . S
C229 C230 1.392 . S
C229 C233 1.495 . S
C230 C229 1.392 . S
C230 C231 1.385 . S
C230 C232 1.478 . S
C231 H225 0.930 . S
C231 C227 1.400 . S
C231 C230 1.385 . S
C232 C230 1.478 . S
C232 C234 1.381 . S
C232 C238 1.383 1_455 S
C233 C229 1.495 . S
C233 H239 0.959 . S
C233 H240 0.961 1_455 S
C233 H241 0.960 . S
C234 C232 1.381 . S
C234 C235 1.394 . S
C234 H242 0.930 . S
C235 C234 1.394 . S
C235 C236 1.383 . S
C235 H243 0.929 . S
C236 C235 1.383 . S
C236 C237 1.377 1_455 S
C237 H221 0.930 . S
C237 C236 1.377 1_655 S
C237 C238 1.379 . S
C238 H222 0.931 . S
C238 C232 1.383 1_655 S
C238 C237 1.379 . S
H239 C233 0.959 . S
H240 C233 0.961 1_655 S
H241 C233 0.960 . S
H242 C234 0.930 . S
H243 C235 0.929 . S
H244 C252 0.929 . S
H245 C254 0.930 . S
H246 C256 0.930 . S
H247 C259 0.929 . S
H248 C262 0.928 1_565 S
H249 C264 0.960 . S
H250 C264 0.960 . S
H251 C264 0.960 1_565 S
C252 H244 0.929 . S
C252 C253 1.377 . S
C252 C254 1.384 . S
C253 C252 1.377 . S
C253 C259 1.390 1_545 S
C254 H245 0.930 . S
C254 C252 1.384 . S
C254 C255 1.372 . S
C255 C254 1.372 . S
C255 C256 1.400 1_545 S
C255 C260 1.490 . S
C256 H246 0.930 . S
C256 C255 1.400 1_565 S
C256 C259 1.386 . S
H257 C273 0.930 . S
H258 C274 0.931 . S
C259 H247 0.929 . S
C259 C253 1.390 1_565 S
C259 C256 1.386 . S
C260 C255 1.490 . S
C260 C262 1.399 . S
C260 C263 1.403 . S
H261 C267 0.930 . S
C262 H248 0.928 1_545 S
C262 C260 1.399 . S
C262 C265 1.401 1_545 S
C263 C260 1.403 . S
C263 C264 1.524 . S
C263 C267 1.400 . S
C264 H249 0.960 . S
C264 H250 0.960 . S
C264 H251 0.960 1_545 S
C264 C263 1.524 . S
C265 C262 1.401 1_565 S
C265 C266 1.392 1_565 S
C265 C269 1.495 . S
C266 C265 1.392 1_545 S
C266 C267 1.386 . S
C266 C268 1.477 1_545 S
C267 H261 0.930 . S
C267 C263 1.400 . S
C267 C266 1.386 . S
C268 C266 1.477 1_565 S
C268 C270 1.381 1_565 S
C268 C274 1.383 . S
C269 C265 1.495 . S
C269 H275 0.959 . S
C269 H276 0.961 . S
C269 H277 0.960 1_565 S
C270 C268 1.381 1_545 S
C270 C271 1.394 . S
C270 H278 0.930 . S
C271 C270 1.394 . S
C271 C272 1.383 1_545 S
C271 H279 0.929 . S
C272 C271 1.383 1_565 S
C272 C273 1.377 . S
C273 H257 0.930 . S
C273 C272 1.377 . S
C273 C274 1.379 . S
C274 H258 0.931 . S
C274 C268 1.383 . S
C274 C273 1.379 . S
H275 C269 0.959 . S
H276 C269 0.961 . S
H277 C269 0.960 1_545 S
H278 C270 0.930 . S
H279 C271 0.929 . S
H280 C288 0.929 . S
H281 C290 0.930 . S
H282 C292 0.930 . S
H283 C295 0.929 . S
H284 C298 0.930 . S
H285 C300 0.960 . S
H286 C300 0.960 . S
H287 C300 0.960 . S
C288 H280 0.929 . S
C288 C289 1.377 1_455 S
C288 C290 1.384 . S
C289 C288 1.377 1_655 S
C289 C295 1.390 . S
C290 H281 0.930 . S
C290 C288 1.384 . S
C290 C291 1.372 1_455 S
C291 C290 1.372 1_655 S
C291 C292 1.400 . S
C291 C296 1.490 . S
C292 H282 0.930 . S
C292 C291 1.400 . S
C292 C295 1.386 . S
H293 C309 0.930 . S
H294 C310 0.931 . S
C295 H283 0.929 . S
C295 C289 1.390 . S
C295 C292 1.386 . S
C296 C291 1.490 . S
C296 C298 1.398 . S
C296 C299 1.399 1_655 S
H297 C303 0.930 . S
C298 H284 0.930 . S
C298 C296 1.398 . S
C298 C301 1.403 . S
C299 C296 1.399 1_455 S
C299 C300 1.524 . S
C299 C303 1.400 . S
C300 H285 0.960 . S
C300 H286 0.960 . S
C300 H287 0.960 . S
C300 C299 1.524 . S
C301 C298 1.403 . S
C301 C302 1.388 1_655 S
C301 C305 1.495 . S
C302 C301 1.388 1_455 S
C302 C303 1.389 . S
C302 C304 1.478 . S
C303 H297 0.930 . S
C303 C299 1.400 . S
C303 C302 1.389 . S
C304 C302 1.478 . S
C304 C306 1.381 . S
C304 C310 1.383 1_455 S
C305 C301 1.495 . S
C305 H311 0.959 . S
C305 H312 0.961 . S
C305 H313 0.960 . S
C306 C304 1.381 . S
C306 C307 1.394 . S
C306 H314 0.930 . S
C307 C306 1.394 . S
C307 C308 1.383 . S
C307 H315 0.929 . S
C308 C307 1.383 . S
C308 C309 1.377 1_455 S
C309 H293 0.930 . S
C309 C308 1.377 1_655 S
C309 C310 1.379 . S
C310 H294 0.931 . S
C310 C304 1.383 1_655 S
C310 C309 1.379 . S
H311 C305 0.959 . S
H312 C305 0.961 . S
H313 C305 0.960 . S
H314 C306 0.930 . S
H315 C307 0.929 . S
H316 C324 0.929 . S
H317 C326 0.930 . S
H318 C328 0.930 . S
H319 C331 0.931 . S
H320 C334 0.930 . S
H321 C336 0.960 . S
H322 C336 0.960 . S
H323 C336 0.960 . S
C324 H316 0.929 . S
C324 C325 1.377 . S
C324 C326 1.384 . S
C325 C324 1.377 . S
C325 C331 1.388 1_545 S
C326 H317 0.930 . S
C326 C324 1.384 . S
C326 C327 1.372 . S
C327 C326 1.372 . S
C327 C328 1.400 1_545 S
C327 C332 1.490 . S
C328 H318 0.930 . S
C328 C327 1.400 1_565 S
C328 C331 1.386 . S
H329 C345 0.930 . S
H330 C346 0.931 . S
C331 H319 0.931 . S
C331 C325 1.388 1_565 S
C331 C328 1.386 . S
C332 C327 1.490 . S
C332 C334 1.395 1_545 S
C332 C335 1.403 . S
H333 C339 0.930 . S
C334 H320 0.930 . S
C334 C332 1.395 1_565 S
C334 C337 1.403 . S
C335 C332 1.403 . S
C335 C336 1.524 . S
C335 C339 1.400 . S
C336 H321 0.960 . S
C336 H322 0.960 . S
C336 H323 0.960 . S
C336 C335 1.524 . S
C337 C334 1.403 . S
C337 C338 1.381 1_565 S
C337 C341 1.495 . S
C338 C337 1.381 1_545 S
C338 C339 1.400 . S
C338 C340 1.476 1_545 S
C339 H333 0.930 . S
C339 C335 1.400 . S
C339 C338 1.400 . S
C340 C338 1.476 1_565 S
C340 C342 1.381 1_565 S
C340 C346 1.383 . S
C341 C337 1.495 . S
C341 H347 0.959 . S
C341 H348 0.961 . S
C341 H349 0.960 . S
C342 C340 1.381 1_545 S
C342 C343 1.394 . S
C342 H350 0.930 . S
C343 C342 1.394 . S
C343 C344 1.383 1_545 S
C343 H351 0.929 . S
C344 C343 1.383 1_565 S
C344 C345 1.377 . S
C345 H329 0.930 . S
C345 C344 1.377 . S
C345 C346 1.379 . S
C346 H330 0.931 . S
C346 C340 1.383 . S
C346 C345 1.379 . S
H347 C341 0.959 . S
H348 C341 0.961 . S
H349 C341 0.960 . S
H350 C342 0.930 . S
H351 C343 0.929 . S
H352 C360 0.929 . S
H353 C362 0.930 . S
H354 C364 0.930 . S
H355 C367 0.929 . S
H356 C370 0.930 . S
H357 C372 0.960 . S
H358 C372 0.960 . S
H359 C372 0.960 . S
C360 H352 0.929 . S
C360 C361 1.377 1_455 S
C360 C362 1.384 . S
C361 C360 1.377 1_655 S
C361 C367 1.390 . S
C362 H353 0.930 . S
C362 C360 1.384 . S
C362 C363 1.372 1_455 S
C363 C362 1.372 1_655 S
C363 C364 1.400 . S
C363 C368 1.490 . S
C364 H354 0.930 . S
C364 C363 1.400 . S
C364 C367 1.386 . S
H365 C381 0.930 . S
H366 C382 0.931 . S
C367 H355 0.929 . S
C367 C361 1.390 . S
C367 C364 1.386 . S
C368 C363 1.490 . S
C368 C370 1.395 1_655 S
C368 C371 1.403 . S
H369 C375 0.930 . S
C370 H356 0.930 . S
C370 C368 1.395 1_455 S
C370 C373 1.403 . S
C371 C368 1.403 . S
C371 C372 1.524 . S
C371 C375 1.400 . S
C372 H357 0.960 . S
C372 H358 0.960 . S
C372 H359 0.960 . S
C372 C371 1.524 . S
C373 C370 1.403 . S
C373 C374 1.392 1_455 S
C373 C377 1.495 . S
C374 C373 1.392 1_655 S
C374 C375 1.385 . S
C374 C376 1.478 . S
C375 H369 0.930 . S
C375 C371 1.400 . S
C375 C374 1.385 . S
C376 C374 1.478 . S
C376 C378 1.381 1_655 S
C376 C382 1.383 . S
C377 C373 1.495 . S
C377 H383 0.959 . S
C377 H384 0.961 1_455 S
C377 H385 0.960 . S
C378 C376 1.381 1_455 S
C378 C379 1.394 . S
C378 H386 0.930 . S
C379 C378 1.394 . S
C379 C380 1.383 1_455 S
C379 H387 0.929 . S
C380 C379 1.383 1_655 S
C380 C381 1.377 . S
C381 H365 0.930 . S
C381 C380 1.377 . S
C381 C382 1.379 . S
C382 H366 0.931 . S
C382 C376 1.383 . S
C382 C381 1.379 . S
H383 C377 0.959 . S
H384 C377 0.961 1_655 S
H385 C377 0.960 . S
H386 C378 0.930 . S
H387 C379 0.929 . S
H388 C396 0.929 . S
H389 C398 0.930 . S
H390 C400 0.930 . S
H391 C403 0.929 . S
H392 C406 0.930 . S
H393 C408 0.960 . S
H394 C408 0.960 . S
H395 C408 0.960 . S
C396 H388 0.929 . S
C396 C397 1.377 . S
C396 C398 1.384 . S
C397 C396 1.377 . S
C397 C403 1.390 1_565 S
C398 H389 0.930 . S
C398 C396 1.384 . S
C398 C399 1.372 . S
C399 C398 1.372 . S
C399 C400 1.400 1_565 S
C399 C404 1.490 1_565 S
C400 H390 0.930 . S
C400 C399 1.400 1_545 S
C400 C403 1.386 . S
H401 C417 0.930 . S
H402 C418 0.931 . S
C403 H391 0.929 . S
C403 C397 1.390 1_545 S
C403 C400 1.386 . S
C404 C399 1.490 1_545 S
C404 C406 1.393 . S
C404 C407 1.404 1_545 S
H405 C411 0.930 . S
C406 H392 0.930 . S
C406 C404 1.393 . S
C406 C409 1.403 . S
C407 C404 1.404 1_565 S
C407 C408 1.524 . S
C407 C411 1.400 . S
C408 H393 0.960 . S
C408 H394 0.960 . S
C408 H395 0.960 . S
C408 C407 1.524 . S
C409 C406 1.403 . S
C409 C410 1.392 . S
C409 C413 1.495 . S
C410 C409 1.392 . S
C410 C411 1.385 1_545 S
C410 C412 1.478 . S
C411 H405 0.930 . S
C411 C407 1.400 . S
C411 C410 1.385 1_565 S
C412 C410 1.478 . S
C412 C414 1.381 1_545 S
C412 C418 1.383 . S
C413 C409 1.495 . S
C413 H419 0.959 . S
C413 H420 0.961 . S
C413 H421 0.960 . S
C414 C412 1.381 1_565 S
C414 C415 1.394 . S
C414 H422 0.930 . S
C415 C414 1.394 . S
C415 C416 1.383 1_565 S
C415 H423 0.929 . S
C416 C415 1.383 1_545 S
C416 C417 1.377 . S
C417 H401 0.930 . S
C417 C416 1.377 . S
C417 C418 1.379 . S
C418 H402 0.931 . S
C418 C412 1.383 . S
C418 C417 1.379 . S
H419 C413 0.959 . S
H420 C413 0.961 . S
H421 C413 0.960 . S
H422 C414 0.930 . S
H423 C415 0.929 . S
H424 C432 0.929 . S
H425 C434 0.930 . S
H426 C436 0.930 . S
H427 C439 0.931 . S
H428 C442 0.930 . S
H429 C444 0.960 . S
H430 C444 0.960 . S
H431 C444 0.960 . S
C432 H424 0.929 . S
C432 C433 1.377 . S
C432 C434 1.384 . S
C433 C432 1.377 . S
C433 C439 1.388 1_655 S
C434 H425 0.930 . S
C434 C432 1.384 . S
C434 C435 1.372 . S
C435 C434 1.372 . S
C435 C436 1.400 1_655 S
C435 C440 1.490 . S
C436 H426 0.930 . S
C436 C435 1.400 1_455 S
C436 C439 1.386 . S
H437 C453 0.930 . S
H438 C454 0.931 . S
C439 H427 0.931 . S
C439 C433 1.388 1_455 S
C439 C436 1.386 . S
C440 C435 1.490 . S
C440 C442 1.395 1_655 S
C440 C443 1.403 . S
H441 C447 0.930 . S
C442 H428 0.930 . S
C442 C440 1.395 1_455 S
C442 C445 1.403 . S
C443 C440 1.403 . S
C443 C444 1.524 . S
C443 C447 1.400 . S
C444 H429 0.960 . S
C444 H430 0.960 . S
C444 H431 0.960 . S
C444 C443 1.524 . S
C445 C442 1.403 . S
C445 C446 1.392 . S
C445 C449 1.495 . S
C446 C445 1.392 . S
C446 C447 1.385 1_455 S
C446 C448 1.478 . S
C447 H441 0.930 . S
C447 C443 1.400 . S
C447 C446 1.385 1_655 S
C448 C446 1.478 . S
C448 C450 1.381 1_455 S
C448 C454 1.383 . S
C449 C445 1.495 . S
C449 H455 0.959 . S
C449 H456 0.961 . S
C449 H457 0.960 . S
C450 C448 1.381 1_655 S
C450 C451 1.394 . S
C450 H458 0.930 . S
C451 C450 1.394 . S
C451 C452 1.383 1_655 S
C451 H459 0.929 . S
C452 C451 1.383 1_455 S
C452 C453 1.377 . S
C453 H437 0.930 . S
C453 C452 1.377 . S
C453 C454 1.379 . S
C454 H438 0.931 . S
C454 C448 1.383 . S
C454 C453 1.379 . S
H455 C449 0.959 . S
H456 C449 0.961 . S
H457 C449 0.960 . S
H458 C450 0.930 . S
H459 C451 0.929 . S
H460 C468 0.929 . S
H461 C470 0.930 . S
H462 C472 0.930 . S
H463 C475 0.929 . S
H464 C478 0.930 . S
H465 C480 0.960 . S
H466 C480 0.960 . S
H467 C480 0.960 . S
C468 H460 0.929 . S
C468 C469 1.377 1_545 S
C468 C470 1.384 . S
C469 C468 1.377 1_565 S
C469 C475 1.390 . S
C470 H461 0.930 . S
C470 C468 1.384 . S
C470 C471 1.372 . S
C471 C470 1.372 . S
C471 C472 1.400 1_545 S
C471 C476 1.490 . S
C472 H462 0.930 . S
C472 C471 1.400 1_565 S
C472 C475 1.386 . S
H473 C489 0.930 . S
H474 C490 0.931 . S
C475 H463 0.929 . S
C475 C469 1.390 . S
C475 C472 1.386 . S
C476 C471 1.490 . S
C476 C478 1.395 . S
C476 C479 1.403 1_545 S
H477 C483 0.930 . S
C478 H464 0.930 . S
C478 C476 1.395 . S
C478 C481 1.403 . S
C479 C476 1.403 1_565 S
C479 C480 1.524 . S
C479 C483 1.400 . S
C480 H465 0.960 . S
C480 H466 0.960 . S
C480 H467 0.960 . S
C480 C479 1.524 . S
C481 C478 1.403 . S
C481 C482 1.392 . S
C481 C485 1.495 . S
C482 C481 1.392 . S
C482 C483 1.385 1_545 S
C482 C484 1.478 . S
C483 H477 0.930 . S
C483 C479 1.400 . S
C483 C482 1.385 1_565 S
C484 C482 1.478 . S
C484 C486 1.381 . S
C484 C490 1.383 1_545 S
C485 C481 1.495 . S
C485 H491 0.959 . S
C485 H492 0.961 . S
C485 H493 0.960 . S
C486 C484 1.381 . S
C486 C487 1.394 . S
C486 H494 0.930 . S
C487 C486 1.394 . S
C487 C488 1.383 . S
C487 H495 0.929 . S
C488 C487 1.383 . S
C488 C489 1.377 1_545 S
C489 H473 0.930 . S
C489 C488 1.377 1_565 S
C489 C490 1.379 . S
C490 H474 0.931 . S
C490 C484 1.383 1_565 S
C490 C489 1.379 . S
H491 C485 0.959 . S
H492 C485 0.961 . S
H493 C485 0.960 . S
H494 C486 0.930 . S
H495 C487 0.929 . S
H496 C504 0.929 . S
H497 C506 0.930 . S
H498 C508 0.930 . S
H499 C511 0.929 . S
H500 C514 0.928 1_556 S
H501 C516 0.960 . S
H502 C516 0.960 1_556 S
H503 C516 0.960 . S
C504 H496 0.929 . S
C504 C505 1.377 1_556 S
C504 C506 1.384 . S
C505 C504 1.377 1_554 S
C505 C511 1.390 . S
C506 H497 0.930 . S
C506 C504 1.384 . S
C506 C507 1.372 1_556 S
C507 C506 1.372 1_554 S
C507 C508 1.400 . S
C507 C512 1.490 . S
C508 H498 0.930 . S
C508 C507 1.400 . S
C508 C511 1.386 . S
H509 C525 0.930 . S
H510 C526 0.931 . S
C511 H499 0.929 . S
C511 C505 1.390 . S
C511 C508 1.386 . S
C512 C507 1.490 . S
C512 C514 1.396 . S
C512 C515 1.403 . S
H513 C519 0.930 . S
C514 H500 0.928 1_554 S
C514 C512 1.396 . S
C514 C517 1.404 . S
C515 C512 1.403 . S
C515 C516 1.524 . S
C515 C519 1.400 . S
C516 H501 0.960 . S
C516 H502 0.960 1_554 S
C516 H503 0.960 . S
C516 C515 1.524 . S
C517 C514 1.404 . S
C517 C518 1.392 . S
C517 C521 1.495 1_554 S
C518 C517 1.392 . S
C518 C519 1.385 . S
C518 C520 1.478 . S
C519 H513 0.930 . S
C519 C515 1.400 . S
C519 C518 1.385 . S
C520 C518 1.478 . S
C520 C522 1.381 1_554 S
C520 C526 1.383 . S
C521 C517 1.495 1_556 S
C521 H527 0.959 . S
C521 H528 0.961 1_556 S
C521 H529 0.960 . S
C522 C520 1.381 1_556 S
C522 C523 1.394 . S
C522 H530 0.930 . S
C523 C522 1.394 . S
C523 C524 1.383 1_556 S
C523 H531 0.929 . S
C524 C523 1.383 1_554 S
C524 C525 1.377 . S
C525 H509 0.930 . S
C525 C524 1.377 . S
C525 C526 1.379 . S
C526 H510 0.931 . S
C526 C520 1.383 . S
C526 C525 1.379 . S
H527 C521 0.959 . S
H528 C521 0.961 1_554 S
H529 C521 0.960 . S
H530 C522 0.930 . S
H531 C523 0.929 . S
H532 C540 0.929 . S
H533 C542 0.930 . S
H534 C544 0.930 . S
H535 C547 0.929 . S
H536 C550 0.930 . S
H537 C552 0.960 . S
H538 C552 0.960 1_554 S
H539 C552 0.960 . S
C540 H532 0.929 . S
C540 C541 1.377 . S
C540 C542 1.384 . S
C541 C540 1.377 . S
C541 C547 1.390 1_554 S
C542 H533 0.930 . S
C542 C540 1.384 . S
C542 C543 1.372 . S
C543 C542 1.372 . S
C543 C544 1.400 1_554 S
C543 C548 1.490 . S
C544 H534 0.930 . S
C544 C543 1.400 1_556 S
C544 C547 1.386 . S
H545 C561 0.930 . S
H546 C562 0.931 . S
C547 H535 0.929 . S
C547 C541 1.390 1_556 S
C547 C544 1.386 . S
C548 C543 1.490 . S
C548 C550 1.395 . S
C548 C551 1.403 1_554 S
H549 C555 0.930 . S
C550 H536 0.930 . S
C550 C548 1.395 . S
C550 C553 1.403 . S
C551 C548 1.403 1_556 S
C551 C552 1.524 . S
C551 C555 1.400 . S
C552 H537 0.960 . S
C552 H538 0.960 1_556 S
C552 H539 0.960 . S
C552 C551 1.524 . S
C553 C550 1.403 . S
C553 C554 1.392 . S
C553 C557 1.495 . S
C554 C553 1.392 . S
C554 C555 1.385 1_554 S
C554 C556 1.478 . S
C555 H549 0.930 . S
C555 C551 1.400 . S
C555 C554 1.385 1_556 S
C556 C554 1.478 . S
C556 C558 1.381 . S
C556 C562 1.383 1_554 S
C557 C553 1.495 . S
C557 H563 0.959 . S
C557 H564 0.961 . S
C557 H565 0.960 . S
C558 C556 1.381 . S
C558 C559 1.394 . S
C558 H566 0.930 . S
C559 C558 1.394 . S
C559 C560 1.383 . S
C559 H567 0.929 . S
C560 C559 1.383 . S
C560 C561 1.377 1_554 S
C561 H545 0.930 . S
C561 C560 1.377 1_556 S
C561 C562 1.379 . S
C562 H546 0.931 . S
C562 C556 1.383 1_556 S
C562 C561 1.379 . S
H563 C557 0.959 . S
H564 C557 0.961 . S
H565 C557 0.960 . S
H566 C558 0.930 . S
H567 C559 0.929 . S
H568 C576 0.929 . S
H569 C578 0.930 . S
H570 C580 0.930 . S
H571 C583 0.929 . S
H572 C586 0.930 . S
H573 C588 0.960 . S
H574 C588 0.960 1_554 S
H575 C588 0.960 . S
C576 H568 0.929 . S
C576 C577 1.377 . S
C576 C578 1.384 . S
C577 C576 1.377 . S
C577 C583 1.390 1_554 S
C578 H569 0.930 . S
C578 C576 1.384 . S
C578 C579 1.372 . S
C579 C578 1.372 . S
C579 C580 1.400 1_554 S
C579 C584 1.490 . S
C580 H570 0.930 . S
C580 C579 1.400 1_556 S
C580 C583 1.386 . S
H581 C597 0.930 . S
H582 C598 0.931 . S
C583 H571 0.929 . S
C583 C577 1.390 1_556 S
C583 C580 1.386 . S
C584 C579 1.490 . S
C584 C586 1.395 . S
C584 C587 1.403 1_554 S
H585 C591 0.934 . S
C586 H572 0.930 . S
C586 C584 1.395 . S
C586 C589 1.403 . S
C587 C584 1.403 1_556 S
C587 C588 1.524 . S
C587 C591 1.400 . S
C588 H573 0.960 . S
C588 H574 0.960 1_556 S
C588 H575 0.960 . S
C588 C587 1.524 . S
C589 C586 1.403 . S
C589 C590 1.392 . S
C589 C593 1.495 . S
C590 C589 1.392 . S
C590 C591 1.381 1_554 S
C590 C592 1.478 . S
C591 H585 0.934 . S
C591 C587 1.400 . S
C591 C590 1.381 1_556 S
C592 C590 1.478 . S
C592 C594 1.381 . S
C592 C598 1.383 1_554 S
C593 C589 1.495 . S
C593 H599 0.959 . S
C593 H600 0.961 . S
C593 H601 0.960 . S
C594 C592 1.381 . S
C594 C595 1.394 . S
C594 H602 0.930 . S
C595 C594 1.394 . S
C595 C596 1.383 . S
C595 H603 0.929 . S
C596 C595 1.383 . S
C596 C597 1.377 1_554 S
C597 H581 0.930 . S
C597 C596 1.377 1_556 S
C597 C598 1.379 . S
C598 H582 0.931 . S
C598 C592 1.383 1_556 S
C598 C597 1.379 . S
H599 C593 0.959 . S
H600 C593 0.961 . S
H601 C593 0.960 . S
H602 C594 0.930 . S
H603 C595 0.929 . S
H604 C612 0.929 . S
H605 C614 0.930 . S
H606 C616 0.930 . S
H607 C619 0.929 . S
H608 C622 0.930 . S
H609 C624 0.960 . S
H610 C624 0.960 . S
H611 C624 0.960 . S
C612 H604 0.929 . S
C612 C613 1.377 . S
C612 C614 1.384 . S
C613 C612 1.377 . S
C613 C619 1.390 1_554 S
C614 H605 0.930 . S
C614 C612 1.384 . S
C614 C615 1.372 . S
C615 C614 1.372 . S
C615 C616 1.400 1_554 S
C615 C620 1.490 . S
C616 H606 0.930 . S
C616 C615 1.400 1_556 S
C616 C619 1.386 . S
H617 C633 0.930 . S
H618 C634 0.931 . S
C619 H607 0.929 . S
C619 C613 1.390 1_556 S
C619 C616 1.386 . S
C620 C615 1.490 . S
C620 C622 1.395 . S
C620 C623 1.403 1_554 S
H621 C627 0.930 . S
C622 H608 0.930 . S
C622 C620 1.395 . S
C622 C625 1.403 . S
C623 C620 1.403 1_556 S
C623 C624 1.524 . S
C623 C627 1.400 . S
C624 H609 0.960 . S
C624 H610 0.960 . S
C624 H611 0.960 . S
C624 C623 1.524 . S
C625 C622 1.403 . S
C625 C626 1.392 . S
C625 C629 1.495 . S
C626 C625 1.392 . S
C626 C627 1.385 1_554 S
C626 C628 1.478 . S
C627 H621 0.930 . S
C627 C623 1.400 . S
C627 C626 1.385 1_556 S
C628 C626 1.478 . S
C628 C630 1.381 . S
C628 C634 1.383 1_554 S
C629 C625 1.495 . S
C629 H635 0.959 . S
C629 H636 0.961 . S
C629 H637 0.960 . S
C630 C628 1.381 . S
C630 C631 1.394 . S
C630 H638 0.930 . S
C631 C630 1.394 . S
C631 C632 1.383 . S
C631 H639 0.929 . S
C632 C631 1.383 . S
C632 C633 1.377 1_554 S
C633 H617 0.930 . S
C633 C632 1.377 1_556 S
C633 C634 1.379 . S
C634 H618 0.931 . S
C634 C628 1.383 1_556 S
C634 C633 1.379 . S
H635 C629 0.959 . S
H636 C629 0.961 . S
H637 C629 0.960 . S
H638 C630 0.930 . S
H639 C631 0.929 . S
H640 C648 0.929 . S
H641 C650 0.930 . S
H642 C652 0.930 . S
H643 C655 0.929 . S
H644 C658 0.930 . S
H645 C660 0.960 . S
H646 C660 0.960 . S
H647 C660 0.960 . S
C648 H640 0.929 . S
C648 C649 1.377 . S
C648 C650 1.384 . S
C649 C648 1.377 . S
C649 C655 1.390 . S
C650 H641 0.930 . S
C650 C648 1.384 . S
C650 C651 1.372 . S
C651 C650 1.372 . S
C651 C652 1.400 . S
C651 C656 1.490 . S
C652 H642 0.930 . S
C652 C651 1.400 . S
C652 C655 1.386 . S
H653 C669 0.930 . S
H654 C670 0.931 . S
C655 H643 0.929 . S
C655 C649 1.390 . S
C655 C652 1.386 . S
C656 C651 1.490 . S
C656 C658 1.395 . S
C656 C659 1.403 . S
H657 C663 0.930 . S
C658 H644 0.930 . S
C658 C656 1.395 . S
C658 C661 1.403 . S
C659 C656 1.403 . S
C659 C660 1.524 . S
C659 C663 1.400 . S
C660 H645 0.960 . S
C660 H646 0.960 . S
C660 H647 0.960 . S
C660 C659 1.524 . S
C661 C658 1.403 . S
C661 C662 1.392 . S
C661 C665 1.495 . S
C662 C661 1.392 . S
C662 C663 1.385 . S
C662 C664 1.478 . S
C663 H657 0.930 . S
C663 C659 1.400 . S
C663 C662 1.385 . S
C664 C662 1.478 . S
C664 C666 1.381 . S
C664 C670 1.383 . S
C665 C661 1.495 . S
C665 H671 0.959 . S
C665 H672 0.961 . S
C665 H673 0.960 . S
C666 C664 1.381 . S
C666 C667 1.394 . S
C666 H674 0.930 . S
C667 C666 1.394 . S
C667 C668 1.383 . S
C667 H675 0.929 . S
C668 C667 1.383 . S
C668 C669 1.377 . S
C669 H653 0.930 . S
C669 C668 1.377 . S
C669 C670 1.379 . S
C670 H654 0.931 . S
C670 C664 1.383 . S
C670 C669 1.379 . S
H671 C665 0.959 . S
H672 C665 0.961 . S
H673 C665 0.960 . S
H674 C666 0.930 . S
H675 C667 0.929 . S
H676 C684 0.929 . S
H677 C686 0.930 . S
H678 C688 0.930 . S
H679 C691 0.929 . S
H680 C694 0.930 . S
H681 C696 0.960 . S
H682 C696 0.960 . S
H683 C696 0.960 . S
C684 H676 0.929 . S
C684 C685 1.377 . S
C684 C686 1.384 . S
C685 C684 1.377 . S
C685 C691 1.390 . S
C686 H677 0.930 . S
C686 C684 1.384 . S
C686 C687 1.372 . S
C687 C686 1.372 . S
C687 C688 1.400 . S
C687 C692 1.490 . S
C688 H678 0.930 . S
C688 C687 1.400 . S
C688 C691 1.386 . S
H689 C705 0.930 . S
H690 C706 0.931 . S
C691 H679 0.929 . S
C691 C685 1.390 . S
C691 C688 1.386 . S
C692 C687 1.490 . S
C692 C694 1.395 . S
C692 C695 1.403 . S
H693 C699 0.930 . S
C694 H680 0.930 . S
C694 C692 1.395 . S
C694 C697 1.403 . S
C695 C692 1.403 . S
C695 C696 1.524 . S
C695 C699 1.400 . S
C696 H681 0.960 . S
C696 H682 0.960 . S
C696 H683 0.960 . S
C696 C695 1.524 . S
C697 C694 1.403 . S
C697 C698 1.392 . S
C697 C701 1.495 . S
C698 C697 1.392 . S
C698 C699 1.385 . S
C698 C700 1.478 . S
C699 H693 0.930 . S
C699 C695 1.400 . S
C699 C698 1.385 . S
C700 C698 1.478 . S
C700 C702 1.381 . S
C700 C706 1.383 . S
C701 C697 1.495 . S
C701 H707 0.959 . S
C701 H708 0.961 . S
C701 H709 0.960 . S
C702 C700 1.381 . S
C702 C703 1.394 . S
C702 H710 0.930 . S
C703 C702 1.394 . S
C703 C704 1.383 . S
C703 H711 0.929 . S
C704 C703 1.383 . S
C704 C705 1.377 . S
C705 H689 0.930 . S
C705 C704 1.377 . S
C705 C706 1.379 . S
C706 H690 0.931 . S
C706 C700 1.383 . S
C706 C705 1.379 . S
H707 C701 0.959 . S
H708 C701 0.961 . S
H709 C701 0.960 . S
H710 C702 0.930 . S
H711 C703 0.929 . S
H712 C720 0.929 . S
H713 C722 0.930 . S
H714 C724 0.930 . S
H715 C727 0.929 . S
H716 C730 0.930 . S
H717 C732 0.960 . S
H718 C732 0.960 . S
H719 C732 0.960 . S
C720 H712 0.929 . S
C720 C721 1.377 . S
C720 C722 1.384 . S
C721 C720 1.377 . S
C721 C727 1.390 . S
C722 H713 0.930 . S
C722 C720 1.384 . S
C722 C723 1.372 . S
C723 C722 1.372 . S
C723 C724 1.400 . S
C723 C728 1.490 . S
C724 H714 0.930 . S
C724 C723 1.400 . S
C724 C727 1.386 . S
H725 C741 0.930 . S
H726 C742 0.931 . S
C727 H715 0.929 . S
C727 C721 1.390 . S
C727 C724 1.386 . S
C728 C723 1.490 . S
C728 C730 1.395 . S
C728 C731 1.403 . S
H729 C735 0.930 . S
C730 H716 0.930 . S
C730 C728 1.395 . S
C730 C733 1.403 . S
C731 C728 1.403 . S
C731 C732 1.524 . S
C731 C735 1.400 . S
C732 H717 0.960 . S
C732 H718 0.960 . S
C732 H719 0.960 . S
C732 C731 1.524 . S
C733 C730 1.403 . S
C733 C734 1.392 . S
C733 C737 1.495 . S
C734 C733 1.392 . S
C734 C735 1.385 . S
C734 C736 1.478 . S
C735 H729 0.930 . S
C735 C731 1.400 . S
C735 C734 1.385 . S
C736 C734 1.478 . S
C736 C738 1.381 . S
C736 C742 1.383 . S
C737 C733 1.495 . S
C737 H743 0.959 . S
C737 H744 0.961 . S
C737 H745 0.960 . S
C738 C736 1.381 . S
C738 C739 1.394 . S
C738 H746 0.930 . S
C739 C738 1.394 . S
C739 C740 1.383 . S
C739 H747 0.929 . S
C740 C739 1.383 . S
C740 C741 1.377 . S
C741 H725 0.930 . S
C741 C740 1.377 . S
C741 C742 1.379 . S
C742 H726 0.931 . S
C742 C736 1.383 . S
C742 C741 1.379 . S
H743 C737 0.959 . S
H744 C737 0.961 . S
H745 C737 0.960 . S
H746 C738 0.930 . S
H747 C739 0.929 . S
H748 C756 0.929 . S
H749 C758 0.930 . S
H750 C760 0.930 . S
H751 C763 0.929 . S
H752 C766 0.930 . S
H753 C768 0.960 . S
H754 C768 0.960 . S
H755 C768 0.960 . S
C756 H748 0.929 . S
C756 C757 1.377 . S
C756 C758 1.384 . S
C757 C756 1.377 . S
C757 C763 1.390 . S
C758 H749 0.930 . S
C758 C756 1.384 . S
C758 C759 1.372 . S
C759 C758 1.372 . S
C759 C760 1.400 . S
C759 C764 1.490 . S
C760 H750 0.930 . S
C760 C759 1.400 . S
C760 C763 1.386 . S
H761 C777 0.930 . S
H762 C778 0.931 . S
C763 H751 0.929 . S
C763 C757 1.390 . S
C763 C760 1.386 . S
C764 C759 1.490 . S
C764 C766 1.395 . S
C764 C767 1.403 . S
H765 C771 0.930 . S
C766 H752 0.930 . S
C766 C764 1.395 . S
C766 C769 1.403 . S
C767 C764 1.403 . S
C767 C768 1.524 . S
C767 C771 1.400 . S
C768 H753 0.960 . S
C768 H754 0.960 . S
C768 H755 0.960 . S
C768 C767 1.524 . S
C769 C766 1.403 . S
C769 C770 1.392 . S
C769 C773 1.495 . S
C770 C769 1.392 . S
C770 C771 1.385 . S
C770 C772 1.478 . S
C771 H765 0.930 . S
C771 C767 1.400 . S
C771 C770 1.385 . S
C772 C770 1.478 . S
C772 C774 1.381 . S
C772 C778 1.383 . S
C773 C769 1.495 . S
C773 H779 0.959 . S
C773 H780 0.961 . S
C773 H781 0.960 . S
C774 C772 1.381 . S
C774 C775 1.394 . S
C774 H782 0.930 . S
C775 C774 1.394 . S
C775 C776 1.383 . S
C775 H783 0.929 . S
C776 C775 1.383 . S
C776 C777 1.377 . S
C777 H761 0.930 . S
C777 C776 1.377 . S
C777 C778 1.379 . S
C778 H762 0.931 . S
C778 C772 1.383 . S
C778 C777 1.379 . S
H779 C773 0.959 . S
H780 C773 0.961 . S
H781 C773 0.960 . S
H782 C774 0.930 . S
H783 C775 0.929 . S
H784 C792 0.929 . S
H785 C794 0.930 . S
H786 C796 0.930 . S
H787 C799 0.929 . S
H788 C802 0.930 . S
H789 C804 0.960 . S
H790 C804 0.960 . S
H791 C804 0.960 . S
C792 H784 0.929 . S
C792 C793 1.377 . S
C792 C794 1.384 . S
C793 C792 1.377 . S
C793 C799 1.390 . S
C794 H785 0.930 . S
C794 C792 1.384 . S
C794 C795 1.372 . S
C795 C794 1.372 . S
C795 C796 1.400 . S
C795 C800 1.490 . S
C796 H786 0.930 . S
C796 C795 1.400 . S
C796 C799 1.386 . S
H797 C813 0.930 . S
H798 C814 0.931 . S
C799 H787 0.929 . S
C799 C793 1.390 . S
C799 C796 1.386 . S
C800 C795 1.490 . S
C800 C802 1.395 . S
C800 C803 1.403 . S
H801 C807 0.930 . S
C802 H788 0.930 . S
C802 C800 1.395 . S
C802 C805 1.403 . S
C803 C800 1.403 . S
C803 C804 1.524 . S
C803 C807 1.400 . S
C804 H789 0.960 . S
C804 H790 0.960 . S
C804 H791 0.960 . S
C804 C803 1.524 . S
C805 C802 1.403 . S
C805 C806 1.392 . S
C805 C809 1.495 . S
C806 C805 1.392 . S
C806 C807 1.385 . S
C806 C808 1.478 . S
C807 H801 0.930 . S
C807 C803 1.400 . S
C807 C806 1.385 . S
C808 C806 1.478 . S
C808 C810 1.381 . S
C808 C814 1.383 . S
C809 C805 1.495 . S
C809 H815 0.959 . S
C809 H816 0.961 . S
C809 H817 0.960 . S
C810 C808 1.381 . S
C810 C811 1.394 . S
C810 H818 0.930 . S
C811 C810 1.394 . S
C811 C812 1.383 . S
C811 H819 0.929 . S
C812 C811 1.383 . S
C812 C813 1.377 . S
C813 H797 0.930 . S
C813 C812 1.377 . S
C813 C814 1.379 . S
C814 H798 0.931 . S
C814 C808 1.383 . S
C814 C813 1.379 . S
H815 C809 0.959 . S
H816 C809 0.961 . S
H817 C809 0.960 . S
H818 C810 0.930 . S
H819 C811 0.929 . S
H820 C828 0.929 . S
H821 C830 0.930 . S
H822 C832 0.930 . S
H823 C835 0.929 . S
H824 C838 0.930 . S
H825 C840 0.960 . S
H826 C840 0.960 . S
H827 C840 0.960 . S
C828 H820 0.929 . S
C828 C829 1.377 . S
C828 C830 1.384 . S
C829 C828 1.377 . S
C829 C835 1.390 . S
C830 H821 0.930 . S
C830 C828 1.384 . S
C830 C831 1.372 . S
C831 C830 1.372 . S
C831 C832 1.400 . S
C831 C836 1.490 . S
C832 H822 0.930 . S
C832 C831 1.400 . S
C832 C835 1.386 . S
H833 C849 0.930 . S
H834 C850 0.931 . S
C835 H823 0.929 . S
C835 C829 1.390 . S
C835 C832 1.386 . S
C836 C831 1.490 . S
C836 C838 1.395 . S
C836 C839 1.403 . S
H837 C843 0.930 . S
C838 H824 0.930 . S
C838 C836 1.395 . S
C838 C841 1.403 . S
C839 C836 1.403 . S
C839 C840 1.524 . S
C839 C843 1.400 . S
C840 H825 0.960 . S
C840 H826 0.960 . S
C840 H827 0.960 . S
C840 C839 1.524 . S
C841 C838 1.403 . S
C841 C842 1.392 . S
C841 C845 1.495 . S
C842 C841 1.392 . S
C842 C843 1.385 . S
C842 C844 1.478 . S
C843 H837 0.930 . S
C843 C839 1.400 . S
C843 C842 1.385 . S
C844 C842 1.478 . S
C844 C846 1.381 . S
C844 C850 1.383 . S
C845 C841 1.495 . S
C845 H851 0.959 . S
C845 H852 0.961 . S
C845 H853 0.960 . S
C846 C844 1.381 . S
C846 C847 1.394 . S
C846 H854 0.930 . S
C847 C846 1.394 . S
C847 C848 1.383 . S
C847 H855 0.929 . S
C848 C847 1.383 . S
C848 C849 1.377 . S
C849 H833 0.930 . S
C849 C848 1.377 . S
C849 C850 1.379 . S
C850 H834 0.931 . S
C850 C844 1.383 . S
C850 C849 1.379 . S
H851 C845 0.959 . S
H852 C845 0.961 . S
H853 C845 0.960 . S
H854 C846 0.930 . S
H855 C847 0.929 . S
H856 C864 0.929 . S
H857 C866 0.930 . S
H858 C868 0.930 . S
H859 C871 0.929 . S
H860 C874 0.930 . S
H861 C876 0.960 . S
H862 C876 0.960 . S
H863 C876 0.960 . S
C864 H856 0.929 . S
C864 C865 1.377 . S
C864 C866 1.384 . S
C865 C864 1.377 . S
C865 C871 1.390 . S
C866 H857 0.930 . S
C866 C864 1.384 . S
C866 C867 1.372 . S
C867 C866 1.372 . S
C867 C868 1.400 . S
C867 C872 1.490 . S
C868 H858 0.930 . S
C868 C867 1.400 . S
C868 C871 1.386 . S
H869 C885 0.930 . S
H870 C886 0.931 . S
C871 H859 0.929 . S
C871 C865 1.390 . S
C871 C868 1.386 . S
C872 C867 1.490 . S
C872 C874 1.395 . S
C872 C875 1.403 . S
H873 C879 0.930 . S
C874 H860 0.930 . S
C874 C872 1.395 . S
C874 C877 1.403 . S
C875 C872 1.403 . S
C875 C876 1.524 . S
C875 C879 1.400 . S
C876 H861 0.960 . S
C876 H862 0.960 . S
C876 H863 0.960 . S
C876 C875 1.524 . S
C877 C874 1.403 . S
C877 C878 1.392 . S
C877 C881 1.495 . S
C878 C877 1.392 . S
C878 C879 1.385 . S
C878 C880 1.478 . S
C879 H873 0.930 . S
C879 C875 1.400 . S
C879 C878 1.385 . S
C880 C878 1.478 . S
C880 C882 1.381 . S
C880 C886 1.383 . S
C881 C877 1.495 . S
C881 H887 0.959 . S
C881 H888 0.961 . S
C881 H889 0.960 . S
C882 C880 1.381 . S
C882 C883 1.394 . S
C882 H890 0.930 . S
C883 C882 1.394 . S
C883 C884 1.383 . S
C883 H891 0.929 . S
C884 C883 1.383 . S
C884 C885 1.377 . S
C885 H869 0.930 . S
C885 C884 1.377 . S
C885 C886 1.379 . S
C886 H870 0.931 . S
C886 C880 1.383 . S
C886 C885 1.379 . S
H887 C881 0.959 . S
H888 C881 0.961 . S
H889 C881 0.960 . S
H890 C882 0.930 . S
H891 C883 0.929 . S
H892 C900 0.929 . S
H893 C902 0.930 . S
H894 C904 0.930 . S
H895 C907 0.929 . S
H896 C910 0.930 . S
H897 C912 0.960 . S
H898 C912 0.960 . S
H899 C912 0.960 . S
C900 H892 0.929 . S
C900 C901 1.377 . S
C900 C902 1.384 . S
C901 C900 1.377 . S
C901 C907 1.390 . S
C902 H893 0.930 . S
C902 C900 1.384 . S
C902 C903 1.372 . S
C903 C902 1.372 . S
C903 C904 1.400 . S
C903 C908 1.490 . S
C904 H894 0.930 . S
C904 C903 1.400 . S
C904 C907 1.386 . S
H905 C921 0.930 . S
H906 C922 0.931 . S
C907 H895 0.929 . S
C907 C901 1.390 . S
C907 C904 1.386 . S
C908 C903 1.490 . S
C908 C910 1.395 . S
C908 C911 1.403 . S
H909 C915 0.930 . S
C910 H896 0.930 . S
C910 C908 1.395 . S
C910 C913 1.403 . S
C911 C908 1.403 . S
C911 C912 1.524 . S
C911 C915 1.400 . S
C912 H897 0.960 . S
C912 H898 0.960 . S
C912 H899 0.960 . S
C912 C911 1.524 . S
C913 C910 1.403 . S
C913 C914 1.392 . S
C913 C917 1.495 . S
C914 C913 1.392 . S
C914 C915 1.385 . S
C914 C916 1.478 . S
C915 H909 0.930 . S
C915 C911 1.400 . S
C915 C914 1.385 . S
C916 C914 1.478 . S
C916 C918 1.381 . S
C916 C922 1.383 . S
C917 C913 1.495 . S
C917 H923 0.959 . S
C917 H924 0.961 . S
C917 H925 0.960 . S
C918 C916 1.381 . S
C918 C919 1.394 . S
C918 H926 0.930 . S
C919 C918 1.394 . S
C919 C920 1.383 . S
C919 H927 0.929 . S
C920 C919 1.383 . S
C920 C921 1.377 . S
C921 H905 0.930 . S
C921 C920 1.377 . S
C921 C922 1.379 . S
C922 H906 0.931 . S
C922 C916 1.383 . S
C922 C921 1.379 . S
H923 C917 0.959 . S
H924 C917 0.961 . S
H925 C917 0.960 . S
H926 C918 0.930 . S
H927 C919 0.929 . S
H928 C936 0.929 . S
H929 C938 0.930 . S
H930 C940 0.930 . S
H931 C943 0.929 . S
H932 C946 0.930 . S
H933 C948 0.960 . S
H934 C948 0.960 . S
H935 C948 0.960 . S
C936 H928 0.929 . S
C936 C937 1.377 . S
C936 C938 1.384 . S
C937 C936 1.377 . S
C937 C943 1.390 . S
C938 H929 0.930 . S
C938 C936 1.384 . S
C938 C939 1.372 . S
C939 C938 1.372 . S
C939 C940 1.400 . S
C939 C944 1.490 . S
C940 H930 0.930 . S
C940 C939 1.400 . S
C940 C943 1.386 . S
H941 C957 0.930 . S
H942 C958 0.931 . S
C943 H931 0.929 . S
C943 C937 1.390 . S
C943 C940 1.386 . S
C944 C939 1.490 . S
C944 C946 1.395 . S
C944 C947 1.403 . S
H945 C951 0.930 . S
C946 H932 0.930 . S
C946 C944 1.395 . S
C946 C949 1.403 . S
C947 C944 1.403 . S
C947 C948 1.524 . S
C947 C951 1.400 . S
C948 H933 0.960 . S
C948 H934 0.960 . S
C948 H935 0.960 . S
C948 C947 1.524 . S
C949 C946 1.403 . S
C949 C950 1.392 . S
C949 C953 1.495 . S
C950 C949 1.392 . S
C950 C951 1.385 . S
C950 C952 1.478 . S
C951 H945 0.930 . S
C951 C947 1.400 . S
C951 C950 1.385 . S
C952 C950 1.478 . S
C952 C954 1.381 . S
C952 C958 1.383 . S
C953 C949 1.495 . S
C953 H959 0.959 . S
C953 H960 0.961 . S
C953 H961 0.960 . S
C954 C952 1.381 . S
C954 C955 1.394 . S
C954 H962 0.930 . S
C955 C954 1.394 . S
C955 C956 1.383 . S
C955 H963 0.929 . S
C956 C955 1.383 . S
C956 C957 1.377 . S
C957 H941 0.930 . S
C957 C956 1.377 . S
C957 C958 1.379 . S
C958 H942 0.931 . S
C958 C952 1.383 . S
C958 C957 1.379 . S
H959 C953 0.959 . S
H960 C953 0.961 . S
H961 C953 0.960 . S
H962 C954 0.930 . S
H963 C955 0.929 . S
H964 C972 0.929 . S
H965 C974 0.930 . S
H966 C976 0.930 . S
H967 C979 0.929 . S
H968 C982 0.930 . S
H969 C984 0.960 . S
H970 C984 0.960 . S
H971 C984 0.960 . S
C972 H964 0.929 . S
C972 C973 1.377 . S
C972 C974 1.384 . S
C973 C972 1.377 . S
C973 C979 1.390 . S
C974 H965 0.930 . S
C974 C972 1.384 . S
C974 C975 1.372 . S
C975 C974 1.372 . S
C975 C976 1.400 . S
C975 C980 1.490 . S
C976 H966 0.930 . S
C976 C975 1.400 . S
C976 C979 1.386 . S
H977 C993 0.930 . S
H978 C994 0.931 . S
C979 H967 0.929 . S
C979 C973 1.390 . S
C979 C976 1.386 . S
C980 C975 1.490 . S
C980 C982 1.395 . S
C980 C983 1.403 . S
H981 C987 0.930 . S
C982 H968 0.930 . S
C982 C980 1.395 . S
C982 C985 1.403 . S
C983 C980 1.403 . S
C983 C984 1.524 . S
C983 C987 1.400 . S
C984 H969 0.960 . S
C984 H970 0.960 . S
C984 H971 0.960 . S
C984 C983 1.524 . S
C985 C982 1.403 . S
C985 C986 1.392 . S
C985 C989 1.495 . S
C986 C985 1.392 . S
C986 C987 1.385 . S
C986 C988 1.478 . S
C987 H981 0.930 . S
C987 C983 1.400 . S
C987 C986 1.385 . S
C988 C986 1.478 . S
C988 C990 1.381 . S
C988 C994 1.383 . S
C989 C985 1.495 . S
C989 H995 0.959 . S
C989 H996 0.961 . S
C989 H997 0.960 . S
C990 C988 1.381 . S
C990 C991 1.394 . S
C990 H998 0.930 . S
C991 C990 1.394 . S
C991 C992 1.383 . S
C991 H999 0.929 . S
C992 C991 1.383 . S
C992 C993 1.377 . S
C993 H977 0.930 . S
C993 C992 1.377 . S
C993 C994 1.379 . S
C994 H978 0.931 . S
C994 C988 1.383 . S
C994 C993 1.379 . S
H995 C989 0.959 . S
H996 C989 0.961 . S
H997 C989 0.960 . S
H998 C990 0.930 . S
H999 C991 0.929 . S
H1000 C1008 0.929 . S
H1001 C1010 0.930 . S
H1002 C1012 0.930 . S
H1003 C1015 0.929 . S
H1004 C1018 0.930 . S
H1005 C1020 0.960 . S
H1006 C1020 0.960 . S
H1007 C1020 0.960 . S
C1008 H1000 0.929 . S
C1008 C1009 1.377 . S
C1008 C1010 1.384 . S
C1009 C1008 1.377 . S
C1009 C1015 1.390 . S
C1010 H1001 0.930 . S
C1010 C1008 1.384 . S
C1010 C1011 1.372 . S
C1011 C1010 1.372 . S
C1011 C1012 1.400 . S
C1011 C1016 1.490 . S
C1012 H1002 0.930 . S
C1012 C1011 1.400 . S
C1012 C1015 1.386 . S
H1013 C1029 0.930 . S
H1014 C1030 0.931 . S
C1015 H1003 0.929 . S
C1015 C1009 1.390 . S
C1015 C1012 1.386 . S
C1016 C1011 1.490 . S
C1016 C1018 1.395 . S
C1016 C1019 1.403 . S
H1017 C1023 0.930 . S
C1018 H1004 0.930 . S
C1018 C1016 1.395 . S
C1018 C1021 1.403 . S
C1019 C1016 1.403 . S
C1019 C1020 1.524 . S
C1019 C1023 1.400 . S
C1020 H1005 0.960 . S
C1020 H1006 0.960 . S
C1020 H1007 0.960 . S
C1020 C1019 1.524 . S
C1021 C1018 1.403 . S
C1021 C1022 1.392 . S
C1021 C1025 1.495 . S
C1022 C1021 1.392 . S
C1022 C1023 1.385 . S
C1022 C1024 1.478 . S
C1023 H1017 0.930 . S
C1023 C1019 1.400 . S
C1023 C1022 1.385 . S
C1024 C1022 1.478 . S
C1024 C1026 1.381 . S
C1024 C1030 1.383 . S
C1025 C1021 1.495 . S
C1025 H1031 0.959 . S
C1025 H1032 0.961 . S
C1025 H1033 0.960 . S
C1026 C1024 1.381 . S
C1026 C1027 1.394 . S
C1026 H1034 0.930 . S
C1027 C1026 1.394 . S
C1027 C1028 1.383 . S
C1027 H1035 0.929 . S
C1028 C1027 1.383 . S
C1028 C1029 1.377 . S
C1029 H1013 0.930 . S
C1029 C1028 1.377 . S
C1029 C1030 1.379 . S
C1030 H1014 0.931 . S
C1030 C1024 1.383 . S
C1030 C1029 1.379 . S
H1031 C1025 0.959 . S
H1032 C1025 0.961 . S
H1033 C1025 0.960 . S
H1034 C1026 0.930 . S
H1035 C1027 0.929 . S
H1036 C1044 0.929 . S
H1037 C1046 0.930 . S
H1038 C1048 0.930 . S
H1039 C1051 0.929 . S
H1040 C1054 0.930 . S
H1041 C1056 0.960 . S
H1042 C1056 0.960 . S
H1043 C1056 0.960 . S
C1044 H1036 0.929 . S
C1044 C1045 1.377 . S
C1044 C1046 1.384 . S
C1045 C1044 1.377 . S
C1045 C1051 1.390 . S
C1046 H1037 0.930 . S
C1046 C1044 1.384 . S
C1046 C1047 1.372 . S
C1047 C1046 1.372 . S
C1047 C1048 1.400 . S
C1047 C1052 1.490 . S
C1048 H1038 0.930 . S
C1048 C1047 1.400 . S
C1048 C1051 1.386 . S
H1049 C1065 0.930 . S
H1050 C1066 0.931 . S
C1051 H1039 0.929 . S
C1051 C1045 1.390 . S
C1051 C1048 1.386 . S
C1052 C1047 1.490 . S
C1052 C1054 1.395 . S
C1052 C1055 1.403 . S
H1053 C1059 0.930 . S
C1054 H1040 0.930 . S
C1054 C1052 1.395 . S
C1054 C1057 1.403 . S
C1055 C1052 1.403 . S
C1055 C1056 1.524 . S
C1055 C1059 1.400 . S
C1056 H1041 0.960 . S
C1056 H1042 0.960 . S
C1056 H1043 0.960 . S
C1056 C1055 1.524 . S
C1057 C1054 1.403 . S
C1057 C1058 1.392 . S
C1057 C1061 1.495 . S
C1058 C1057 1.392 . S
C1058 C1059 1.385 . S
C1058 C1060 1.478 . S
C1059 H1053 0.930 . S
C1059 C1055 1.400 . S
C1059 C1058 1.385 . S
C1060 C1058 1.478 . S
C1060 C1062 1.381 . S
C1060 C1066 1.383 . S
C1061 C1057 1.495 . S
C1061 H1067 0.959 . S
C1061 H1068 0.961 . S
C1061 H1069 0.960 . S
C1062 C1060 1.381 . S
C1062 C1063 1.394 . S
C1062 H1070 0.930 . S
C1063 C1062 1.394 . S
C1063 C1064 1.383 . S
C1063 H1071 0.929 . S
C1064 C1063 1.383 . S
C1064 C1065 1.377 . S
C1065 H1049 0.930 . S
C1065 C1064 1.377 . S
C1065 C1066 1.379 . S
C1066 H1050 0.931 . S
C1066 C1060 1.383 . S
C1066 C1065 1.379 . S
H1067 C1061 0.959 . S
H1068 C1061 0.961 . S
H1069 C1061 0.960 . S
H1070 C1062 0.930 . S
H1071 C1063 0.929 . S
C217 C42 1.925 . S
C236 C102 1.859 . S
C253 C26 1.757 . S
C272 C152 1.759 1_565 S
C289 C36 1.809 1_655 S
C308 C78 1.805 1_455 S
C325 C154 1.748 . S
C344 C32 1.751 1_565 S
C361 C4 1.854 . S
C380 C84 1.837 1_655 S
C397 C48 1.727 1_565 S
C416 C130 1.732 . S
C433 C100 1.948 . S
C452 C18 1.978 . S
C469 C136 1.737 1_565 S
C488 C50 1.734 . S
C505 C201 0.664 . S
C524 C34 0.618 . S
C541 C186 0.629 . S
C560 C39 0.683 . S
C577 C190 0.647 . S
C596 C45 0.701 . S
C613 C30 0.648 . S
C632 C195 0.606 . S
C649 C188 1.240 . S
C668 C91 1.290 . S
C685 C86 1.304 . S
C704 C182 1.249 . S
C721 C97 1.383 . S
C740 C206 1.282 . S
C757 C204 1.357 . S
C776 C82 1.409 . S
C793 C134 1.065 . S
C812 C94 1.072 . S
C829 C70 1.107 . S
C848 C149 1.120 . S
C865 C88 1.034 . S
C884 C143 1.018 . S
C901 C138 1.162 . S
C920 C56 1.151 . S
C937 C198 1.805 . S
C956 C146 1.798 . S
C973 C140 1.784 . S
C992 C192 1.789 . S
C1009 C160 1.946 . S
C1028 C108 1.926 . S
C1045 C122 1.958 . S
C1064 C174 1.956 . S
