# Generated by pormake.
# Topology yfu, (5)-cn, num edge types: 1
# Building blocks:
#     Node 0, Type 0, BuildingBlock: BEQFEK_clean_sbu_0, # of connection points: 5
#     Node 1, Type 0, BuildingBlock: BEQFEK_clean_sbu_0, # of connection points: 5
#     Node 2, Type 0, BuildingBlock: BEQFEK_clean_sbu_0, # of connection points: 5
#     Node 3, Type 0, BuildingBlock: BEQFEK_clean_sbu_0, # of connection points: 5
#     Node 4, Type 0, BuildingBlock: BEQFEK_clean_sbu_0, # of connection points: 5
#     Node 5, Type 0, BuildingBlock: BEQFEK_clean_sbu_0, # of connection points: 5
#     Node 6, Type 0, BuildingBlock: BEQFEK_clean_sbu_0, # of connection points: 5
#     Node 7, Type 0, BuildingBlock: BEQFEK_clean_sbu_0, # of connection points: 5
#     Node 8, Type 0, BuildingBlock: BEQFEK_clean_sbu_0, # of connection points: 5
#     Node 9, Type 0, BuildingBlock: BEQFEK_clean_sbu_0, # of connection points: 5
#     Node 10, Type 0, BuildingBlock: BEQFEK_clean_sbu_0, # of connection points: 5
#     Node 11, Type 0, BuildingBlock: BEQFEK_clean_sbu_0, # of connection points: 5
#     Node 12, Type 0, BuildingBlock: BEQFEK_clean_sbu_0, # of connection points: 5
#     Node 13, Type 0, BuildingBlock: BEQFEK_clean_sbu_0, # of connection points: 5
#     Node 14, Type 0, BuildingBlock: BEQFEK_clean_sbu_0, # of connection points: 5
#     Node 15, Type 0, BuildingBlock: BEQFEK_clean_sbu_0, # of connection points: 5
#     Node 16, Type 0, BuildingBlock: BEQFEK_clean_sbu_0, # of connection points: 5
#     Node 17, Type 0, BuildingBlock: BEQFEK_clean_sbu_0, # of connection points: 5
#     Node 18, Type 0, BuildingBlock: BEQFEK_clean_sbu_0, # of connection points: 5
#     Node 19, Type 0, BuildingBlock: BEQFEK_clean_sbu_0, # of connection points: 5
#     Node 20, Type 0, BuildingBlock: BEQFEK_clean_sbu_0, # of connection points: 5
#     Node 21, Type 0, BuildingBlock: BEQFEK_clean_sbu_0, # of connection points: 5
#     Node 22, Type 0, BuildingBlock: BEQFEK_clean_sbu_0, # of connection points: 5
#     Node 23, Type 0, BuildingBlock: BEQFEK_clean_sbu_0, # of connection points: 5
#     Node 24, Type 0, BuildingBlock: BEQFEK_clean_sbu_0, # of connection points: 5
#     Node 25, Type 0, BuildingBlock: BEQFEK_clean_sbu_0, # of connection points: 5
#     Node 26, Type 0, BuildingBlock: BEQFEK_clean_sbu_0, # of connection points: 5
#     Node 27, Type 0, BuildingBlock: BEQFEK_clean_sbu_0, # of connection points: 5
#     Node 28, Type 0, BuildingBlock: BEQFEK_clean_sbu_0, # of connection points: 5
#     Node 29, Type 0, BuildingBlock: BEQFEK_clean_sbu_0, # of connection points: 5
#     Node 30, Type 0, BuildingBlock: BEQFEK_clean_sbu_0, # of connection points: 5
#     Node 31, Type 0, BuildingBlock: BEQFEK_clean_sbu_0, # of connection points: 5
#     Edge 32, Type (0, 0), None
#     Edge 33, Type (0, 0), None
#     Edge 34, Type (0, 0), None
#     Edge 35, Type (0, 0), None
#     Edge 36, Type (0, 0), None
#     Edge 37, Type (0, 0), None
#     Edge 38, Type (0, 0), None
#     Edge 39, Type (0, 0), None
#     Edge 40, Type (0, 0), None
#     Edge 41, Type (0, 0), None
#     Edge 42, Type (0, 0), None
#     Edge 43, Type (0, 0), None
#     Edge 44, Type (0, 0), None
#     Edge 45, Type (0, 0), None
#     Edge 46, Type (0, 0), None
#     Edge 47, Type (0, 0), None
#     Edge 48, Type (0, 0), None
#     Edge 49, Type (0, 0), None
#     Edge 50, Type (0, 0), None
#     Edge 51, Type (0, 0), None
#     Edge 52, Type (0, 0), None
#     Edge 53, Type (0, 0), None
#     Edge 54, Type (0, 0), None
#     Edge 55, Type (0, 0), None
#     Edge 56, Type (0, 0), None
#     Edge 57, Type (0, 0), None
#     Edge 58, Type (0, 0), None
#     Edge 59, Type (0, 0), None
#     Edge 60, Type (0, 0), None
#     Edge 61, Type (0, 0), None
#     Edge 62, Type (0, 0), None
#     Edge 63, Type (0, 0), None
#     Edge 64, Type (0, 0), None
#     Edge 65, Type (0, 0), None
#     Edge 66, Type (0, 0), None
#     Edge 67, Type (0, 0), None
#     Edge 68, Type (0, 0), None
#     Edge 69, Type (0, 0), None
#     Edge 70, Type (0, 0), None
#     Edge 71, Type (0, 0), None
#     Edge 72, Type (0, 0), None
#     Edge 73, Type (0, 0), None
#     Edge 74, Type (0, 0), None
#     Edge 75, Type (0, 0), None
#     Edge 76, Type (0, 0), None
#     Edge 77, Type (0, 0), None
#     Edge 78, Type (0, 0), None
#     Edge 79, Type (0, 0), None
#     Edge 80, Type (0, 0), None
#     Edge 81, Type (0, 0), None
#     Edge 82, Type (0, 0), None
#     Edge 83, Type (0, 0), None
#     Edge 84, Type (0, 0), None
#     Edge 85, Type (0, 0), None
#     Edge 86, Type (0, 0), None
#     Edge 87, Type (0, 0), None
#     Edge 88, Type (0, 0), None
#     Edge 89, Type (0, 0), None
#     Edge 90, Type (0, 0), None
#     Edge 91, Type (0, 0), None
#     Edge 92, Type (0, 0), None
#     Edge 93, Type (0, 0), None
#     Edge 94, Type (0, 0), None
#     Edge 95, Type (0, 0), None
#     Edge 96, Type (0, 0), None
#     Edge 97, Type (0, 0), None
#     Edge 98, Type (0, 0), None
#     Edge 99, Type (0, 0), None
#     Edge 100, Type (0, 0), None
#     Edge 101, Type (0, 0), None
#     Edge 102, Type (0, 0), None
#     Edge 103, Type (0, 0), None
#     Edge 104, Type (0, 0), None
#     Edge 105, Type (0, 0), None
#     Edge 106, Type (0, 0), None
#     Edge 107, Type (0, 0), None
#     Edge 108, Type (0, 0), None
#     Edge 109, Type (0, 0), None
#     Edge 110, Type (0, 0), None
#     Edge 111, Type (0, 0), None
# Relax obj value: 0.497
# Max RMSD: 0.238
# Mean RMSD: 0.238
data_MOF--net-yfu--node1-BEQFEK_clean_sbu_0--edge1-none
_symmetry_space_group_name_H-M    P1
_symmetry_Int_Tables_number       1
_symmetry_cell_setting            triclinic
loop_
_symmetry_equiv_pos_as_xyz
'x, y, z'
_cell_length_a     25.969198
_cell_length_b     25.96895
_cell_length_c     41.59987
_cell_angle_alpha  90.0
_cell_angle_beta   90.0
_cell_angle_gamma 89.99989
loop_
_atom_site_label
_atom_site_type_symbol
_atom_site_fract_x
_atom_site_fract_y
_atom_site_fract_z
_atom_type_partial_charge
Co0 Co 0.0343 0.16001 0.32946 0.0
Co1 Co 0.08085 0.07874 0.37516 0.0
C2 C 0.12548 0.18655 0.37123 0.0
O3 O 0.0943 0.19904 0.3488 0.0
O4 O 0.12462 0.14125 0.38309 0.0
C5 C 0.02283 0.23563 0.28174 0.0
O6 O 0.07331 0.23297 0.28045 0.0
C7 C 0.16147 1.00427 0.38889 0.0
C8 C 0.11587 0.93973 0.4085 0.0
C9 C 0.16407 0.95233 0.39653 0.0
N10 N 0.11322 0.02079 0.3948 0.0
N11 N 0.08675 0.98256 0.40766 0.0
C12 C 0.20088 0.0353 0.37112 0.0
H13 H 0.18177 0.06355 0.35505 0.0
H14 H 0.22698 1.01019 0.35696 0.0
H15 H 0.22434 0.05702 0.38881 0.0
C16 C 0.04279 0.07808 0.28156 0.0
N17 N 0.05067 0.09678 0.31135 0.0
N18 N 0.07192 0.06148 0.32963 0.0
C19 C 0.07997 0.0191 0.31112 0.0
C20 C 0.06198 0.02846 0.28011 0.0
C21 C 0.01217 0.10527 0.2562 0.0
H22 H 0.97568 0.11966 0.26674 0.0
H23 H 0.03433 0.13883 0.24725 0.0
H24 H 1.0029 0.0795 0.23573 0.0
O25 O 0.98283 0.15245 0.36344 0.0
O26 O 0.01302 0.09588 0.39862 0.0
H27 H 0.08607 0.95583 0.34381 0.0
H28 H 0.10593 0.94049 0.30342 0.0
C29 C 0.10574 0.97072 0.32213 0.0
H30 H 0.14646 0.97904 0.3276 0.0
H31 H 0.04748 0.98427 0.41284 0.0
O32 O 0.99878 0.20227 0.29791 0.0
C33 C 0.97828 0.12771 0.38957 0.0
Co34 Co 0.11155 0.78431 0.57947 0.0
Co35 Co 0.19283 0.83087 0.62516 0.0
C36 C 0.08501 0.87551 0.62122 0.0
O37 O 0.07252 0.84433 0.59879 0.0
O38 O 0.13031 0.87464 0.63309 0.0
C39 C 0.03592 0.77279 0.53175 0.0
O40 O 0.03857 0.82327 0.53044 0.0
C41 C 0.2673 0.91149 0.63888 0.0
C42 C 0.33184 0.86589 0.65849 0.0
C43 C 0.31924 0.91408 0.64652 0.0
N44 N 0.25078 0.86324 0.64479 0.0
N45 N 0.28901 0.83678 0.65765 0.0
C46 C 0.23627 0.9509 0.62111 0.0
H47 H 0.20802 0.93179 0.60504 0.0
H48 H 0.26138 0.977 0.60695 0.0
H49 H 0.21456 0.97437 0.6388 0.0
C50 C 0.19346 0.79278 0.53156 0.0
N51 N 0.17477 0.80067 0.56136 0.0
N52 N 0.21008 0.82192 0.57964 0.0
C53 C 0.25245 0.82996 0.56112 0.0
C54 C 0.24309 0.81196 0.53011 0.0
C55 C 0.16627 0.76216 0.50621 0.0
H56 H 0.15188 0.72567 0.51674 0.0
H57 H 0.13272 0.78432 0.49726 0.0
H58 H 0.19203 0.75288 0.48574 0.0
O59 O 0.1191 0.73286 0.61346 0.0
O60 O 0.17569 0.76305 0.64864 0.0
H61 H 0.31572 0.83607 0.5938 0.0
H62 H 0.33106 0.85592 0.55341 0.0
C63 C 0.30083 0.85573 0.57213 0.0
H64 H 0.29251 0.89646 0.57758 0.0
H65 H 0.28729 0.7975 0.66284 0.0
O66 O 0.06928 0.74876 0.54793 0.0
C67 C 0.14384 0.72832 0.63959 0.0
Co68 Co 0.48725 0.86152 0.82946 0.0
Co69 Co 0.44071 0.94279 0.87516 0.0
C70 C 0.39608 0.83497 0.87123 0.0
O71 O 0.42725 0.82248 0.8488 0.0
O72 O 0.39694 0.88028 0.88309 0.0
C73 C 0.49873 0.7859 0.78174 0.0
O74 O 0.44825 0.78855 0.78045 0.0
C75 C 0.36009 0.01726 0.88889 0.0
C76 C 0.40569 0.0818 0.9085 0.0
C77 C 0.35749 0.0692 0.89653 0.0
N78 N 0.40834 1.00074 0.8948 0.0
N79 N 0.4348 0.03897 0.90766 0.0
C80 C 0.32068 0.98623 0.87112 0.0
H81 H 0.33978 0.95797 0.85505 0.0
H82 H 0.29458 0.01133 0.85696 0.0
H83 H 0.29721 0.96451 0.88881 0.0
C84 C 0.47877 0.94344 0.78156 0.0
N85 N 0.47088 0.92475 0.81135 0.0
N86 N 0.44963 0.96005 0.82964 0.0
C87 C 0.44158 1.00243 0.81112 0.0
C88 C 0.45958 0.99307 0.78011 0.0
C89 C 0.50939 0.91626 0.7562 0.0
H90 H 0.54588 0.90186 0.76673 0.0
H91 H 0.48722 0.8827 0.74725 0.0
H92 H 0.51866 0.94202 0.73573 0.0
O93 O 0.53872 0.86908 0.86344 0.0
O94 O 0.50854 0.92565 0.89862 0.0
H95 H 0.43549 0.06569 0.84381 0.0
H96 H 0.41563 0.08104 0.80342 0.0
C97 C 0.41582 0.0508 0.82213 0.0
H98 H 0.37509 0.04248 0.8276 0.0
H99 H 0.47408 0.03726 0.91285 0.0
O100 O 0.52278 0.81925 0.79791 0.0
C101 C 0.54327 0.89382 0.88957 0.0
Co102 Co 0.41001 0.23722 0.07947 0.0
Co103 Co 0.32873 0.19066 0.12516 0.0
C104 C 0.43654 0.14601 0.12122 0.0
O105 O 0.44904 0.1772 0.09879 0.0
O106 O 0.39124 0.14688 0.13309 0.0
C107 C 0.48563 0.24873 0.03175 0.0
O108 O 0.48299 0.19825 0.03044 0.0
C109 C 0.25425 0.11004 0.13888 0.0
C110 C 0.18972 0.15564 0.15849 0.0
C111 C 0.20232 0.10744 0.14652 0.0
N112 N 0.27078 0.15828 0.14479 0.0
N113 N 0.23255 0.18475 0.15765 0.0
C114 C 0.28529 0.07063 0.12111 0.0
H115 H 0.31354 0.08974 0.10504 0.0
H116 H 0.26018 0.04453 0.10695 0.0
H117 H 0.307 0.04716 0.1388 0.0
C118 C 0.32809 0.22875 0.03156 0.0
N119 N 0.34678 0.22086 0.06136 0.0
N120 N 0.31148 0.19961 0.07964 0.0
C121 C 0.2691 0.19156 0.06112 0.0
C122 C 0.27846 0.20957 0.03011 0.0
C123 C 0.35528 0.25937 1.00621 0.0
H124 H 0.36968 0.29586 0.01675 0.0
H125 H 0.38884 0.2372 0.99726 0.0
H126 H 0.32952 0.26864 0.98574 0.0
O127 O 0.40245 0.28866 0.11346 0.0
O128 O 0.34587 0.25848 0.14864 0.0
H129 H 0.20583 0.18546 0.0938 0.0
H130 H 0.1905 0.16561 0.05341 0.0
C131 C 0.22073 0.16579 0.07213 0.0
H132 H 0.22905 0.12507 0.07758 0.0
H133 H 0.23427 0.22403 0.16284 0.0
O134 O 0.45228 0.27276 0.04793 0.0
C135 C 0.37771 0.29321 0.13959 0.0
Co136 Co 0.03433 0.86152 0.20265 0.0
Co137 Co 0.08086 0.94279 0.15695 0.0
C138 C 0.12549 0.83496 0.16089 0.0
O139 O 0.09433 0.82247 0.18333 0.0
O140 O 0.12461 0.88026 0.14902 0.0
C141 C 0.02283 0.78589 0.25037 0.0
O142 O 0.07331 0.78854 0.25167 0.0
C143 C 0.16149 0.01726 0.14329 0.0
C144 C 0.11593 0.08181 0.12366 0.0
C145 C 0.16407 0.06922 0.13572 0.0
N146 N 0.11327 1.00073 0.13732 0.0
N147 N 0.08683 0.03897 0.12444 0.0
C148 C 0.20086 0.98621 0.16108 0.0
H149 H 0.18172 0.95798 0.17715 0.0
H150 H 0.22697 0.01131 0.17525 0.0
H151 H 0.22433 0.96447 0.14341 0.0
C152 C 0.04282 0.94343 0.25057 0.0
N153 N 0.0507 0.92474 0.22077 0.0
N154 N 0.07193 0.96006 0.20248 0.0
C155 C 0.07995 1.00244 0.221 0.0
C156 C 0.06197 0.99307 0.25201 0.0
C157 C 0.01224 0.91623 0.27593 0.0
H158 H 0.97575 0.90182 0.26541 0.0
H159 H 0.03443 0.88268 0.28488 0.0
H160 H 1.00298 0.94198 0.29641 0.0
O161 O 0.98286 0.86908 0.16868 0.0
O162 O 0.01303 0.92567 0.13349 0.0
H163 H 0.08603 0.06568 0.18829 0.0
H164 H 0.10581 0.08108 0.22869 0.0
C165 C 0.10568 0.05083 0.20998 0.0
H166 H 0.14643 0.04256 0.20456 0.0
H167 H 0.04758 0.03724 0.11919 0.0
O168 O 0.99879 0.81925 0.23421 0.0
C169 C 0.9783 0.89383 0.14255 0.0
Co170 Co 0.41001 0.78434 0.45264 0.0
Co171 Co 0.32873 0.83088 0.40695 0.0
C172 C 0.43656 0.87552 0.4109 0.0
O173 O 0.44905 0.84436 0.43333 0.0
O174 O 0.39126 0.87464 0.39903 0.0
C175 C 0.48563 0.7728 0.50037 0.0
O176 O 0.483 0.82328 0.50168 0.0
C177 C 0.25426 0.91151 0.3933 0.0
C178 C 0.1897 0.86595 0.37367 0.0
C179 C 0.2023 0.91408 0.38573 0.0
N180 N 0.27079 0.86329 0.38733 0.0
N181 N 0.23255 0.83685 0.37444 0.0
C182 C 0.2853 0.95088 0.4111 0.0
H183 H 0.31354 0.93174 0.42716 0.0
H184 H 0.2602 0.97698 0.42527 0.0
H185 H 0.30704 0.97436 0.39342 0.0
C186 C 0.3281 0.79281 0.50056 0.0
N187 N 0.34679 0.80069 0.47076 0.0
N188 N 0.31147 0.82192 0.45248 0.0
C189 C 0.26909 0.82995 0.471 0.0
C190 C 0.27846 0.81196 0.50201 0.0
C191 C 0.35532 0.76223 0.52593 0.0
H192 H 0.36972 0.72573 0.5154 0.0
H193 H 0.38887 0.78442 0.53486 0.0
H194 H 0.32957 0.75297 0.5464 0.0
O195 O 0.40245 0.73289 0.41865 0.0
O196 O 0.34585 0.76306 0.38348 0.0
H197 H 0.20585 0.83603 0.4383 0.0
H198 H 0.19045 0.8558 0.4787 0.0
C199 C 0.2207 0.85568 0.45999 0.0
H200 H 0.22898 0.89643 0.45457 0.0
H201 H 0.23428 0.7976 0.36919 0.0
O202 O 0.45228 0.74878 0.48418 0.0
C203 C 0.3777 0.72833 0.39253 0.0
Co204 Co 0.48723 0.16001 0.70265 0.0
Co205 Co 0.4407 0.07873 0.65695 0.0
C206 C 0.39606 0.18657 0.66089 0.0
O207 O 0.42723 0.19905 0.68333 0.0
O208 O 0.39694 0.14127 0.64902 0.0
C209 C 0.49872 0.23563 0.75037 0.0
O210 O 0.44824 0.23299 0.75167 0.0
C211 C 0.36006 1.00427 0.64329 0.0
C212 C 0.40563 0.93971 0.62366 0.0
C213 C 0.35749 0.95231 0.63572 0.0
N214 N 0.40829 0.0208 0.63732 0.0
N215 N 0.43472 0.98256 0.62444 0.0
C216 C 0.32069 0.03532 0.66108 0.0
H217 H 0.33983 0.06355 0.67715 0.0
H218 H 0.29459 1.01022 0.67525 0.0
H219 H 0.29722 0.05706 0.64341 0.0
C220 C 0.47873 0.0781 0.75057 0.0
N221 N 0.47086 0.09678 0.72077 0.0
N222 N 0.44963 0.06147 0.70248 0.0
C223 C 0.4416 0.01909 0.721 0.0
C224 C 0.45958 0.02845 0.75201 0.0
C225 C 0.50931 0.1053 0.77593 0.0
H226 H 0.54581 0.11971 0.76541 0.0
H227 H 0.48712 0.13885 0.78488 0.0
H228 H 0.51857 0.07955 0.79641 0.0
O229 O 0.53869 0.15244 0.66868 0.0
O230 O 0.50853 0.09586 0.63349 0.0
H231 H 0.43553 0.95585 0.68829 0.0
H232 H 0.41575 0.94044 0.72869 0.0
C233 C 0.41588 0.97069 0.70998 0.0
H234 H 0.37513 0.97897 0.70456 0.0
H235 H 0.47398 0.98428 0.61919 0.0
O236 O 0.52276 0.20227 0.73421 0.0
C237 C 0.54325 0.1277 0.64255 0.0
Co238 Co 0.11154 0.23719 0.95264 0.0
Co239 Co 0.19283 0.19065 0.90695 0.0
C240 C 0.085 0.146 0.9109 0.0
O241 O 0.07251 0.17717 0.93333 0.0
O242 O 0.1303 0.14689 0.89903 0.0
C243 C 0.03592 0.24873 1.00037 0.0
O244 O 0.03856 0.19825 1.00168 0.0
C245 C 0.2673 0.11002 0.8933 0.0
C246 C 0.33185 0.15558 0.87367 0.0
C247 C 0.31926 0.10745 0.88573 0.0
N248 N 0.25077 0.15824 0.88733 0.0
N249 N 0.289 0.18467 0.87444 0.0
C250 C 0.23626 0.07065 0.9111 0.0
H251 H 0.20802 0.08979 0.92716 0.0
H252 H 0.26135 0.04455 0.92527 0.0
H253 H 0.21451 0.04717 0.89342 0.0
C254 C 0.19345 0.22872 1.00056 0.0
N255 N 0.17477 0.22083 0.97076 0.0
N256 N 0.21009 0.1996 0.95248 0.0
C257 C 0.25246 0.19158 0.971 0.0
C258 C 0.24309 0.20957 1.00201 0.0
C259 C 0.16624 0.2593 0.02593 0.0
H260 H 0.15183 0.29579 1.0154 0.0
H261 H 0.13269 0.23711 0.03486 0.0
H262 H 0.19199 0.26856 0.0464 0.0
O263 O 0.11911 0.28863 0.91865 0.0
O264 O 0.17571 0.25847 0.88348 0.0
H265 H 0.31571 0.1855 0.9383 0.0
H266 H 0.33111 0.16573 0.9787 0.0
C267 C 0.30086 0.16585 0.95999 0.0
H268 H 0.29258 0.1251 0.95457 0.0
H269 H 0.28728 0.22393 0.86919 0.0
O270 O 0.06928 0.27275 0.98418 0.0
C271 C 0.14385 0.29319 0.89253 0.0
Co272 Co 0.98723 0.86152 0.70266 0.0
Co273 Co 0.94069 0.94279 0.65696 0.0
C274 C 0.89606 0.83497 0.66089 0.0
O275 O 0.92724 0.82248 0.68332 0.0
O276 O 0.89692 0.88028 0.64902 0.0
C277 C 0.99872 0.78589 0.75038 0.0
O278 O 0.94824 0.78853 0.75167 0.0
C279 C 0.86008 0.01726 0.64322 0.0
C280 C 0.90568 0.0818 0.62362 0.0
C281 C 0.85748 0.0692 0.63559 0.0
N282 N 0.90832 1.00074 0.63732 0.0
N283 N 0.9348 0.03897 0.62446 0.0
C284 C 0.82067 0.98623 0.66099 0.0
H285 H 0.83977 0.95797 0.67706 0.0
H286 H 0.79456 0.01133 0.67515 0.0
H287 H 0.7972 0.96451 0.6433 0.0
C288 C 0.97873 0.94344 0.75057 0.0
N289 N 0.97085 0.92475 0.72077 0.0
N290 N 0.94961 0.96005 0.70248 0.0
C291 C 0.94155 1.00243 0.721 0.0
C292 C 0.95954 0.99307 0.75201 0.0
C293 C 1.00935 0.91626 0.77592 0.0
H294 H 0.04585 0.90187 0.76539 0.0
H295 H 0.98719 0.8827 0.78488 0.0
H296 H 0.01862 0.94203 0.79639 0.0
O297 O 0.03871 0.86909 0.6687 0.0
O298 O 1.00852 0.92564 0.6335 0.0
H299 H 0.93546 0.06569 0.68831 0.0
H300 H 0.91559 0.08104 0.7287 0.0
C301 C 0.91579 0.0508 0.70998 0.0
H302 H 0.87506 0.04248 0.70452 0.0
H303 H 0.97407 0.03725 0.61928 0.0
O304 O 0.02275 0.81926 0.73422 0.0
C305 C 0.04326 0.89383 0.64257 0.0
Co306 Co 0.91002 0.23722 0.45265 0.0
Co307 Co 0.82874 0.19066 0.40696 0.0
C308 C 0.93653 0.146 0.41092 0.0
O309 O 0.94905 0.1772 0.43333 0.0
O310 O 0.89124 0.14686 0.39904 0.0
C311 C 0.98563 0.24874 0.50038 0.0
O312 O 0.98298 0.19826 0.50169 0.0
C313 C 0.75426 0.11004 0.39324 0.0
C314 C 0.68972 0.15564 0.37363 0.0
C315 C 0.70232 0.10745 0.3856 0.0
N316 N 0.77079 0.15829 0.38733 0.0
N317 N 0.73256 0.18475 0.37447 0.0
C318 C 0.78529 0.07063 0.41101 0.0
H319 H 0.81354 0.08974 0.42709 0.0
H320 H 0.76018 0.04453 0.42517 0.0
H321 H 0.80701 0.04717 0.39333 0.0
C322 C 0.82809 0.22876 0.50056 0.0
N323 N 0.84679 0.22087 0.47076 0.0
N324 N 0.81148 0.19961 0.45248 0.0
C325 C 0.76911 0.19157 0.471 0.0
C326 C 0.77847 0.20957 0.50201 0.0
C327 C 0.85528 0.25938 0.52591 0.0
H328 H 0.86968 0.29587 0.51538 0.0
H329 H 0.88884 0.23721 0.53487 0.0
H330 H 0.82952 0.26865 0.54638 0.0
O331 O 0.90246 0.28867 0.41866 0.0
O332 O 0.84589 0.25847 0.38348 0.0
H333 H 0.70584 0.18546 0.43831 0.0
H334 H 0.6905 0.16562 0.47871 0.0
C335 C 0.72073 0.1658 0.45999 0.0
H336 H 0.72905 0.12507 0.45454 0.0
H337 H 0.73427 0.22403 0.36927 0.0
O338 O 0.95228 0.27277 0.4842 0.0
C339 C 0.87773 0.29321 0.39253 0.0
Co340 Co 0.53433 0.16 0.20266 0.0
Co341 Co 0.58086 0.07874 0.15696 0.0
C342 C 0.6255 0.18655 0.16089 0.0
O343 O 0.59432 0.19904 0.18332 0.0
O344 O 0.62464 0.14125 0.14902 0.0
C345 C 0.52284 0.23564 0.25038 0.0
O346 O 0.57332 0.233 0.25167 0.0
C347 C 0.66148 1.00427 0.14322 0.0
C348 C 0.61587 0.93973 0.12362 0.0
C349 C 0.66407 0.95233 0.13559 0.0
N350 N 0.61323 0.02079 0.13732 0.0
N351 N 0.58676 0.98256 0.12446 0.0
C352 C 0.70089 0.0353 0.16099 0.0
H353 H 0.68179 0.06355 0.17706 0.0
H354 H 0.727 1.01019 0.17515 0.0
H355 H 0.72435 0.05702 0.1433 0.0
C356 C 0.54283 0.07808 0.25057 0.0
N357 N 0.5507 0.09678 0.22077 0.0
N358 N 0.57195 0.06148 0.20248 0.0
C359 C 0.58 0.0191 0.221 0.0
C360 C 0.56201 0.02846 0.25201 0.0
C361 C 0.5122 0.10526 0.27592 0.0
H362 H 0.47571 0.11965 0.26539 0.0
H363 H 0.53436 0.13883 0.28488 0.0
H364 H 0.50294 0.0795 0.29639 0.0
O365 O 0.48285 0.15243 0.1687 0.0
O366 O 0.51304 0.09588 0.1335 0.0
H367 H 0.58609 0.95583 0.18831 0.0
H368 H 0.60596 0.94049 0.2287 0.0
C369 C 0.60577 0.97072 0.20998 0.0
H370 H 0.64649 0.97904 0.20452 0.0
H371 H 0.54748 0.98427 0.11928 0.0
O372 O 0.4988 0.20227 0.23422 0.0
C373 C 0.47829 0.1277 0.14257 0.0
Co374 Co 0.61154 0.7843 0.95265 0.0
Co375 Co 0.69282 0.83087 0.90696 0.0
C376 C 0.58503 0.87553 0.91092 0.0
O377 O 0.57251 0.84432 0.93333 0.0
O378 O 0.63031 0.87467 0.89904 0.0
C379 C 0.53593 0.77279 1.00038 0.0
O380 O 0.53858 0.82327 1.00169 0.0
C381 C 0.7673 0.91148 0.89324 0.0
C382 C 0.83183 0.86589 0.87363 0.0
C383 C 0.81923 0.91408 0.8856 0.0
N384 N 0.75077 0.86324 0.88733 0.0
N385 N 0.789 0.83677 0.87447 0.0
C386 C 0.73627 0.95089 0.91101 0.0
H387 H 0.70802 0.93179 0.92709 0.0
H388 H 0.76137 0.977 0.92517 0.0
H389 H 0.71454 0.97436 0.89333 0.0
C390 C 0.69346 0.79277 1.00056 0.0
N391 N 0.67477 0.80066 0.97076 0.0
N392 N 0.71008 0.82191 0.95248 0.0
C393 C 0.75245 0.82996 0.971 0.0
C394 C 0.74309 0.81195 1.00201 0.0
C395 C 0.66628 0.76215 0.02591 0.0
H396 H 0.65188 0.72566 1.01538 0.0
H397 H 0.63272 0.78432 0.03487 0.0
H398 H 0.69204 0.75288 0.04638 0.0
O399 O 0.61909 0.73286 0.91866 0.0
O400 O 0.67566 0.76306 0.88348 0.0
H401 H 0.81572 0.83607 0.93831 0.0
H402 H 0.83106 0.85591 0.97871 0.0
C403 C 0.80083 0.85573 0.95999 0.0
H404 H 0.79251 0.89646 0.95454 0.0
H405 H 0.78728 0.7975 0.86928 0.0
O406 O 0.56927 0.74876 0.9842 0.0
C407 C 0.64383 0.72832 0.89253 0.0
Co408 Co 0.9872 0.16001 0.82946 0.0
Co409 Co 0.94068 0.07874 0.87517 0.0
C410 C 0.89605 0.18656 0.87123 0.0
O411 O 0.92721 0.19905 0.84879 0.0
O412 O 0.89692 0.14127 0.8831 0.0
C413 C 0.99871 0.23564 0.78174 0.0
O414 O 0.94823 0.23301 0.78044 0.0
C415 C 0.86005 1.00427 0.88883 0.0
C416 C 0.90562 0.93971 0.90846 0.0
C417 C 0.85748 0.95231 0.89641 0.0
N418 N 0.90828 0.0208 0.8948 0.0
N419 N 0.93472 0.98256 0.90768 0.0
C420 C 0.82068 0.03532 0.87105 0.0
H421 H 0.83982 0.06355 0.85497 0.0
H422 H 0.79457 1.01022 0.85688 0.0
H423 H 0.79721 0.05706 0.88872 0.0
C424 C 0.9787 0.07809 0.78155 0.0
N425 N 0.97082 0.09679 0.81135 0.0
N426 N 0.9496 0.06147 0.82964 0.0
C427 C 0.94157 0.01909 0.81112 0.0
C428 C 0.95955 0.02845 0.78011 0.0
C429 C 1.00928 0.1053 0.75618 0.0
H430 H 0.04578 0.1197 0.7667 0.0
H431 H 0.98709 0.13885 0.74724 0.0
H432 H 0.01854 0.07954 0.7357 0.0
O433 O 0.03868 0.15243 0.86342 0.0
O434 O 1.00851 0.09587 0.89862 0.0
H435 H 0.93551 0.95585 0.84383 0.0
H436 H 0.91571 0.94044 0.80343 0.0
C437 C 0.91585 0.9707 0.82214 0.0
H438 H 0.8751 0.97897 0.82757 0.0
H439 H 0.97398 0.98429 0.91292 0.0
O440 O 0.02274 0.20227 0.7979 0.0
C441 C 0.04325 0.12769 0.88955 0.0
Co442 Co 0.61154 0.2372 0.57947 0.0
Co443 Co 0.69282 0.19064 0.62517 0.0
C444 C 0.58502 0.14599 0.6212 0.0
O445 O 0.5725 0.17718 0.59878 0.0
O446 O 0.6303 0.14686 0.63308 0.0
C447 C 0.53592 0.24873 0.53174 0.0
O448 O 0.53857 0.19825 0.53043 0.0
C449 C 0.7673 0.11002 0.63881 0.0
C450 C 0.83185 0.15558 0.65845 0.0
C451 C 0.81925 0.10745 0.64639 0.0
N452 N 0.75076 0.15824 0.64479 0.0
N453 N 0.789 0.18467 0.65767 0.0
C454 C 0.73625 0.07065 0.62102 0.0
H455 H 0.70802 0.08979 0.60495 0.0
H456 H 0.76135 0.04454 0.60685 0.0
H457 H 0.7145 0.04718 0.63869 0.0
C458 C 0.69345 0.22872 0.53156 0.0
N459 N 0.67476 0.22084 0.56136 0.0
N460 N 0.71008 0.19961 0.57964 0.0
C461 C 0.75246 0.19159 0.56112 0.0
C462 C 0.74309 0.20958 0.53011 0.0
C463 C 0.66624 0.25931 0.50619 0.0
H464 H 0.65183 0.2958 0.51671 0.0
H465 H 0.63269 0.23712 0.49725 0.0
H466 H 0.69199 0.26857 0.48572 0.0
O467 O 0.6191 0.28864 0.61346 0.0
O468 O 0.67568 0.25846 0.64864 0.0
H469 H 0.8157 0.1855 0.59382 0.0
H470 H 0.8311 0.16573 0.55342 0.0
C471 C 0.80085 0.16585 0.57213 0.0
H472 H 0.79258 0.1251 0.57755 0.0
H473 H 0.78727 0.22393 0.66292 0.0
O474 O 0.56927 0.27276 0.54793 0.0
C475 C 0.64384 0.29319 0.63959 0.0
Co476 Co 0.53435 0.86152 0.32946 0.0
Co477 Co 0.58088 0.94279 0.37517 0.0
C478 C 0.62551 0.83496 0.37123 0.0
O479 O 0.59435 0.82248 0.34879 0.0
O480 O 0.62463 0.88026 0.3831 0.0
C481 C 0.52284 0.78589 0.28174 0.0
O482 O 0.57333 0.78851 0.28044 0.0
C483 C 0.6615 0.01726 0.38883 0.0
C484 C 0.61593 0.08181 0.40846 0.0
C485 C 0.66407 0.06922 0.39641 0.0
N486 N 0.61328 1.00073 0.3948 0.0
N487 N 0.58684 0.03896 0.40768 0.0
C488 C 0.70088 0.98621 0.37105 0.0
H489 H 0.68174 0.95798 0.35497 0.0
H490 H 0.72698 0.01131 0.35688 0.0
H491 H 0.72434 0.96447 0.38872 0.0
C492 C 0.54286 0.94343 0.28155 0.0
N493 N 0.55073 0.92474 0.31135 0.0
N494 N 0.57195 0.96006 0.32964 0.0
C495 C 0.57999 1.00244 0.31112 0.0
C496 C 0.56201 0.99307 0.28011 0.0
C497 C 0.51228 0.91623 0.25618 0.0
H498 H 0.47578 0.90183 0.2667 0.0
H499 H 0.53446 0.88268 0.24724 0.0
H500 H 0.50302 0.94198 0.23571 0.0
O501 O 0.48288 0.8691 0.36342 0.0
O502 O 0.51305 0.92566 0.39862 0.0
H503 H 0.58605 0.06568 0.34383 0.0
H504 H 0.60584 0.08108 0.30343 0.0
C505 C 0.60571 0.05083 0.32214 0.0
H506 H 0.64646 0.04255 0.32757 0.0
H507 H 0.54758 0.03724 0.41292 0.0
O508 O 0.49882 0.81926 0.2979 0.0
C509 C 0.47831 0.89384 0.38955 0.0
Co510 Co 0.91002 0.78433 0.07947 0.0
Co511 Co 0.82874 0.83088 0.12517 0.0
C512 C 0.93654 0.87554 0.1212 0.0
O513 O 0.94905 0.84435 0.09878 0.0
O514 O 0.89126 0.87467 0.13308 0.0
C515 C 0.98563 0.77279 0.03174 0.0
O516 O 0.98299 0.82327 0.03043 0.0
C517 C 0.75426 0.91151 0.13881 0.0
C518 C 0.68971 0.86595 0.15845 0.0
C519 C 0.7023 0.91408 0.14639 0.0
N520 N 0.77079 0.86329 0.14479 0.0
N521 N 0.73256 0.83685 0.15767 0.0
C522 C 0.78531 0.95088 0.12102 0.0
H523 H 0.81354 0.93174 0.10495 0.0
H524 H 0.76021 0.97698 0.10685 0.0
H525 H 0.80706 0.97435 0.13869 0.0
C526 C 0.82811 0.7928 0.03156 0.0
N527 N 0.84679 0.80069 0.06136 0.0
N528 N 0.81148 0.82192 0.07964 0.0
C529 C 0.7691 0.82994 0.06112 0.0
C530 C 0.77846 0.81195 0.03011 0.0
C531 C 0.85531 0.76222 1.00619 0.0
H532 H 0.86972 0.72573 0.01671 0.0
H533 H 0.88886 0.78441 0.99725 0.0
H534 H 0.82956 0.75296 0.98572 0.0
O535 O 0.90246 0.73289 0.11346 0.0
O536 O 0.84587 0.76307 0.14864 0.0
H537 H 0.70585 0.83603 0.09382 0.0
H538 H 0.69045 0.85579 0.05342 0.0
C539 C 0.7207 0.85567 0.07213 0.0
H540 H 0.72898 0.89642 0.07755 0.0
H541 H 0.73429 0.7976 0.16292 0.0
O542 O 0.95228 0.74877 0.04793 0.0
C543 C 0.87772 0.72834 0.13959 0.0
Co544 Co 0.53433 0.66002 0.82945 0.0
Co545 Co 0.58092 0.57876 0.87515 0.0
C546 C 0.62555 0.68656 0.87117 0.0
O547 O 0.59434 0.69907 0.84876 0.0
O548 O 0.6247 0.64127 0.88306 0.0
C549 C 0.52282 0.73561 0.7817 0.0
O550 O 0.5733 0.73303 0.78038 0.0
C551 C 0.66154 0.50429 0.88887 0.0
C552 C 0.61596 0.43976 0.90849 0.0
C553 C 0.66415 0.45236 0.89651 0.0
N554 N 0.6133 0.52082 0.89478 0.0
N555 N 0.58684 0.48259 0.90765 0.0
C556 C 0.70095 0.53532 0.8711 0.0
H557 H 0.68184 0.56356 0.85501 0.0
H558 H 0.72705 0.51021 0.85694 0.0
H559 H 0.72441 0.55706 0.88878 0.0
C560 C 0.54281 0.57808 0.78155 0.0
N561 N 0.5507 0.59679 0.81135 0.0
N562 N 0.57196 0.56149 0.82963 0.0
C563 C 0.58001 0.51911 0.81112 0.0
C564 C 0.562 0.52846 0.78011 0.0
C565 C 0.51219 0.60526 0.75619 0.0
H566 H 0.47569 0.61965 0.76673 0.0
H567 H 0.53435 0.63881 0.74724 0.0
H568 H 0.50292 0.57949 0.73573 0.0
O569 O 0.48288 0.65247 0.86344 0.0
O570 O 0.5131 0.59592 0.89863 0.0
H571 H 0.58612 0.45585 0.84381 0.0
H572 H 0.60596 0.4405 0.80342 0.0
C573 C 0.60578 0.47074 0.82213 0.0
H574 H 0.64651 0.47906 0.82758 0.0
H575 H 0.54757 0.4843 0.91285 0.0
O576 O 0.49878 0.70226 0.79788 0.0
C577 C 0.47836 0.62774 0.88957 0.0
Co578 Co 0.61152 0.28433 0.07943 0.0
Co579 Co 0.69277 0.33088 0.12515 0.0
C580 C 0.58494 0.3755 0.12121 0.0
O581 O 0.57246 0.34431 0.09878 0.0
O582 O 0.63025 0.37465 0.13307 0.0
C583 C 0.53591 0.27284 0.0317 0.0
O584 O 0.53847 0.32333 0.0304 0.0
C585 C 0.76723 0.41151 0.13889 0.0
C586 C 0.83176 0.36591 0.1585 0.0
C587 C 0.81916 0.41411 0.14653 0.0
N588 N 0.7507 0.36326 0.1448 0.0
N589 N 0.78893 0.3368 0.15766 0.0
C590 C 0.73619 0.45092 0.12112 0.0
H591 H 0.70795 0.43182 0.10504 0.0
H592 H 0.7613 0.47703 0.10697 0.0
H593 H 0.71447 0.47438 0.13881 0.0
C594 C 0.69346 0.29284 0.03154 0.0
N595 N 0.67475 0.30072 0.06134 0.0
N596 N 0.71004 0.32197 0.07963 0.0
C597 C 0.75242 0.33002 0.06112 0.0
C598 C 0.74308 0.31203 0.03011 0.0
C599 C 0.66629 0.26221 1.00618 0.0
H600 H 0.65191 0.22571 0.01671 0.0
H601 H 0.63273 0.28437 0.99722 0.0
H602 H 0.69206 0.25295 0.98571 0.0
O603 O 0.61909 0.23284 0.1134 0.0
O604 O 0.67561 0.26305 0.14861 0.0
H605 H 0.81568 0.33612 0.09382 0.0
H606 H 0.83104 0.35598 0.05343 0.0
C607 C 0.8008 0.35579 0.07214 0.0
H608 H 0.79247 0.39651 0.0776 0.0
H609 H 0.78722 0.29752 0.16285 0.0
O610 O 0.56928 0.2488 0.04786 0.0
C611 C 0.64381 0.2283 0.13953 0.0
Co612 Co 0.98723 0.36151 0.32945 0.0
Co613 Co 0.94064 0.44277 0.37515 0.0
C614 C 0.896 0.33497 0.37117 0.0
O615 O 0.92722 0.32246 0.34876 0.0
O616 O 0.89685 0.38025 0.38306 0.0
C617 C 0.99874 0.28592 0.2817 0.0
O618 O 0.94826 0.2885 0.28038 0.0
C619 C 0.86001 0.51723 0.38887 0.0
C620 C 0.9056 0.58177 0.40849 0.0
C621 C 0.85741 0.56917 0.39651 0.0
N622 N 0.90826 0.50071 0.39478 0.0
N623 N 0.93472 0.53894 0.40765 0.0
C624 C 0.82061 0.4862 0.3711 0.0
H625 H 0.83972 0.45796 0.35501 0.0
H626 H 0.7945 0.51131 0.35694 0.0
H627 H 0.79715 0.46447 0.38878 0.0
C628 C 0.97875 0.44345 0.28155 0.0
N629 N 0.97086 0.42474 0.31135 0.0
N630 N 0.9496 0.46004 0.32963 0.0
C631 C 0.94155 0.50242 0.31112 0.0
C632 C 0.95955 0.49307 0.28011 0.0
C633 C 1.00937 0.41627 0.25619 0.0
H634 H 0.04586 0.40188 0.26673 0.0
H635 H 0.98721 0.38271 0.24724 0.0
H636 H 0.01864 0.44204 0.23573 0.0
O637 O 0.03867 0.36906 0.36344 0.0
O638 O 1.00845 0.42561 0.39863 0.0
H639 H 0.93544 0.56567 0.34381 0.0
H640 H 0.9156 0.58103 0.30342 0.0
C641 C 0.91578 0.55079 0.32213 0.0
H642 H 0.87505 0.54247 0.32758 0.0
H643 H 0.97399 0.53723 0.41285 0.0
O644 O 0.02277 0.31927 0.29788 0.0
C645 C 0.0432 0.39378 0.38957 0.0
Co646 Co 0.91004 0.7372 0.57943 0.0
Co647 Co 0.82879 0.69064 0.62515 0.0
C648 C 0.93661 0.64603 0.62121 0.0
O649 O 0.94909 0.67722 0.59878 0.0
O650 O 0.89131 0.64688 0.63307 0.0
C651 C 0.98565 0.74869 0.5317 0.0
O652 O 0.98308 0.6982 0.5304 0.0
C653 C 0.75433 0.61002 0.63889 0.0
C654 C 0.6898 0.65562 0.6585 0.0
C655 C 0.7024 0.60742 0.64653 0.0
N656 N 0.77085 0.65827 0.6448 0.0
N657 N 0.73262 0.68473 0.65766 0.0
C658 C 0.78536 0.57061 0.62112 0.0
H659 H 0.81361 0.58971 0.60504 0.0
H660 H 0.76025 0.5445 0.60697 0.0
H661 H 0.80709 0.54715 0.63881 0.0
C662 C 0.8281 0.72869 0.53154 0.0
N663 N 0.84681 0.72081 0.56134 0.0
N664 N 0.81151 0.69956 0.57963 0.0
C665 C 0.76913 0.6915 0.56112 0.0
C666 C 0.77848 0.7095 0.53011 0.0
C667 C 0.85527 0.75931 0.50618 0.0
H668 H 0.86965 0.79581 0.51671 0.0
H669 H 0.88883 0.73716 0.49722 0.0
H670 H 0.82949 0.76857 0.48571 0.0
O671 O 0.90247 0.78868 0.6134 0.0
O672 O 0.84594 0.75847 0.64861 0.0
H673 H 0.70588 0.68541 0.59382 0.0
H674 H 0.69052 0.66555 0.55343 0.0
C675 C 0.72076 0.66574 0.57214 0.0
H676 H 0.72908 0.62501 0.5776 0.0
H677 H 0.73434 0.72401 0.66285 0.0
O678 O 0.95228 0.77272 0.54786 0.0
C679 C 0.87775 0.79322 0.63953 0.0
Co680 Co 0.53436 0.3615 0.70267 0.0
Co681 Co 0.58093 0.44277 0.65696 0.0
C682 C 0.62556 0.33496 0.66095 0.0
O683 O 0.59436 0.32245 0.68336 0.0
O684 O 0.6247 0.38024 0.64906 0.0
C685 C 0.52282 0.28592 0.75041 0.0
O686 O 0.5733 0.28849 0.75174 0.0
C687 C 0.66157 0.51723 0.64331 0.0
C688 C 0.61602 0.58178 0.62366 0.0
C689 C 0.66415 0.56919 0.63573 0.0
N690 N 0.61335 0.5007 0.63733 0.0
N691 N 0.58692 0.53894 0.62444 0.0
C692 C 0.70093 0.48619 0.66111 0.0
H693 H 0.68179 0.45797 0.67719 0.0
H694 H 0.72704 0.51129 0.67527 0.0
H695 H 0.7244 0.46443 0.64344 0.0
C696 C 0.54285 0.44343 0.75057 0.0
N697 N 0.55073 0.42474 0.72077 0.0
N698 N 0.57196 0.46004 0.70249 0.0
C699 C 0.57999 0.50243 0.721 0.0
C700 C 0.562 0.49307 0.75201 0.0
C701 C 0.51226 0.41624 0.77594 0.0
H702 H 0.47576 0.40184 0.76542 0.0
H703 H 0.53444 0.38269 0.78488 0.0
H704 H 0.503 0.442 0.79641 0.0
O705 O 0.48291 0.36906 0.66867 0.0
O706 O 0.51311 0.42563 0.63349 0.0
H707 H 0.58608 0.56566 0.68829 0.0
H708 H 0.60584 0.58108 0.72869 0.0
C709 C 0.60572 0.55082 0.70998 0.0
H710 H 0.64647 0.54254 0.70457 0.0
H711 H 0.54766 0.53721 0.61919 0.0
O712 O 0.4988 0.31927 0.73423 0.0
C713 C 0.47837 0.3938 0.64254 0.0
Co714 Co 0.91004 0.28435 0.95268 0.0
Co715 Co 0.82879 0.3309 0.90696 0.0
C716 C 0.93662 0.37551 0.91091 0.0
O717 O 0.9491 0.34434 0.93335 0.0
O718 O 0.89133 0.37465 0.89904 0.0
C719 C 0.98565 0.27284 1.00042 0.0
O720 O 0.9831 0.32333 1.00172 0.0
C721 C 0.75433 0.41153 0.89329 0.0
C722 C 0.68978 0.36597 0.87365 0.0
C723 C 0.70238 0.41411 0.88571 0.0
N724 N 0.77086 0.36331 0.88732 0.0
N725 N 0.73263 0.33687 0.87444 0.0
C726 C 0.78538 0.4509 0.91108 0.0
H727 H 0.8136 0.43176 0.92716 0.0
H728 H 0.76028 0.47701 0.92525 0.0
H729 H 0.80713 0.47437 0.89341 0.0
C730 C 0.82811 0.29287 1.00058 0.0
N731 N 0.84681 0.30075 0.97078 0.0
N732 N 0.81151 0.32197 0.95249 0.0
C733 C 0.76912 0.33001 0.971 0.0
C734 C 0.77847 0.31203 1.00201 0.0
C735 C 0.8553 0.26229 0.02595 0.0
H736 H 0.86969 0.22578 1.01543 0.0
H737 H 0.88885 0.28447 0.0349 0.0
H738 H 0.82954 0.25304 0.04642 0.0
O739 O 0.90247 0.23287 0.91872 0.0
O740 O 0.84592 0.26306 0.88351 0.0
H741 H 0.70589 0.33608 0.93828 0.0
H742 H 0.69047 0.35586 0.97868 0.0
C743 C 0.72073 0.35573 0.95997 0.0
H744 H 0.72901 0.39648 0.95455 0.0
H745 H 0.73435 0.29762 0.86919 0.0
O746 O 0.95228 0.24882 0.98426 0.0
C747 C 0.87774 0.22832 0.89258 0.0
Co748 Co 0.9872 0.66002 0.20267 0.0
Co749 Co 0.94063 0.57876 0.15696 0.0
C750 C 0.89599 0.68657 0.16095 0.0
O751 O 0.92719 0.69908 0.18336 0.0
O752 O 0.89685 0.64129 0.14906 0.0
C753 C 0.99873 0.73561 0.25041 0.0
O754 O 0.94825 0.73304 0.25174 0.0
C755 C 0.85999 0.50429 0.14331 0.0
C756 C 0.90554 0.43974 0.12366 0.0
C757 C 0.85741 0.45234 0.13573 0.0
N758 N 0.90821 0.52082 0.13733 0.0
N759 N 0.93464 0.48259 0.12444 0.0
C760 C 0.82062 0.53534 0.16111 0.0
H761 H 0.83977 0.56356 0.17719 0.0
H762 H 0.79452 0.51024 0.17527 0.0
H763 H 0.79716 0.5571 0.14344 0.0
C764 C 0.97871 0.57809 0.25057 0.0
N765 N 0.97083 0.59679 0.22077 0.0
N766 N 0.94959 0.56148 0.20249 0.0
C767 C 0.94157 0.5191 0.221 0.0
C768 C 0.95956 0.52845 0.25201 0.0
C769 C 1.0093 0.60529 0.27594 0.0
H770 H 0.0458 0.61969 0.26542 0.0
H771 H 0.98711 0.63884 0.28488 0.0
H772 H 0.01855 0.57953 0.29641 0.0
O773 O 0.03864 0.65246 0.16867 0.0
O774 O 1.00844 0.5959 0.13349 0.0
H775 H 0.93548 0.45587 0.18829 0.0
H776 H 0.91572 0.44045 0.22869 0.0
C777 C 0.91583 0.47071 0.20998 0.0
H778 H 0.87508 0.47899 0.20457 0.0
H779 H 0.97389 0.48431 0.11919 0.0
O780 O 0.02276 0.70226 0.23423 0.0
C781 C 0.04318 0.62773 0.14254 0.0
Co782 Co 0.61152 0.73718 0.45268 0.0
Co783 Co 0.69277 0.69063 0.40696 0.0
C784 C 0.58493 0.64602 0.41091 0.0
O785 O 0.57245 0.67719 0.43335 0.0
O786 O 0.63023 0.64688 0.39904 0.0
C787 C 0.53591 0.74868 0.50042 0.0
O788 O 0.53846 0.6982 0.50172 0.0
C789 C 0.76722 0.60999 0.39329 0.0
C790 C 0.83178 0.65556 0.37365 0.0
C791 C 0.81918 0.60742 0.38571 0.0
N792 N 0.7507 0.65822 0.38732 0.0
N793 N 0.78893 0.68465 0.37444 0.0
C794 C 0.73618 0.57062 0.41108 0.0
H795 H 0.70795 0.58976 0.42716 0.0
H796 H 0.76128 0.54451 0.42525 0.0
H797 H 0.71443 0.54716 0.39341 0.0
C798 C 0.69344 0.72865 0.50058 0.0
N799 N 0.67474 0.72078 0.47078 0.0
N800 N 0.71005 0.69956 0.45249 0.0
C801 C 0.75243 0.69152 0.471 0.0
C802 C 0.74308 0.7095 0.50201 0.0
C803 C 0.66626 0.75924 0.52595 0.0
H804 H 0.65186 0.79575 0.51543 0.0
H805 H 0.6327 0.73706 0.5349 0.0
H806 H 0.69202 0.76849 0.54642 0.0
O807 O 0.61909 0.78865 0.41872 0.0
O808 O 0.67563 0.75846 0.38351 0.0
H809 H 0.81566 0.68545 0.43828 0.0
H810 H 0.83108 0.66567 0.47868 0.0
C811 C 0.80082 0.6658 0.45997 0.0
H812 H 0.79254 0.62505 0.45455 0.0
H813 H 0.78721 0.72391 0.36919 0.0
O814 O 0.56928 0.77271 0.48426 0.0
C815 C 0.64382 0.79321 0.39258 0.0
Co816 Co 0.4872 0.36151 0.20268 0.0
Co817 Co 0.44062 0.44276 0.15697 0.0
C818 C 0.39599 0.33497 0.16095 0.0
O819 O 0.4272 0.32246 0.18335 0.0
O820 O 0.39683 0.38026 0.14906 0.0
C821 C 0.49873 0.28591 0.25042 0.0
O822 O 0.44824 0.28847 0.25174 0.0
C823 C 0.36 0.51723 0.14324 0.0
C824 C 0.4056 0.58177 0.12363 0.0
C825 C 0.3574 0.56917 0.1356 0.0
N826 N 0.40825 0.50071 0.13733 0.0
N827 N 0.43471 0.53894 0.12447 0.0
C828 C 0.3206 0.4862 0.16101 0.0
H829 H 0.3397 0.45796 0.1771 0.0
H830 H 0.29448 0.51131 0.17517 0.0
H831 H 0.29714 0.46447 0.14333 0.0
C832 C 0.47871 0.44345 0.25057 0.0
N833 N 0.47083 0.42474 0.22077 0.0
N834 N 0.44957 0.46004 0.20249 0.0
C835 C 0.44152 0.50242 0.221 0.0
C836 C 0.45952 0.49307 0.25201 0.0
C837 C 0.50934 0.41628 0.27593 0.0
H838 H 0.54583 0.40189 0.2654 0.0
H839 H 0.48718 0.38271 0.28489 0.0
H840 H 0.5186 0.44204 0.2964 0.0
O841 O 0.53866 0.36907 0.1687 0.0
O842 O 0.50844 0.4256 0.1335 0.0
H843 H 0.43541 0.56567 0.18831 0.0
H844 H 0.41557 0.58103 0.2287 0.0
C845 C 0.41575 0.55079 0.20998 0.0
H846 H 0.37502 0.54247 0.20453 0.0
H847 H 0.47399 0.53722 0.11927 0.0
O848 O 0.52275 0.31927 0.23425 0.0
C849 C 0.54319 0.39379 0.14256 0.0
Co850 Co 0.41004 0.73721 0.95269 0.0
Co851 Co 0.3288 0.69064 0.90697 0.0
C852 C 0.4366 0.64602 0.91094 0.0
O853 O 0.4491 0.67722 0.93335 0.0
O854 O 0.39131 0.64685 0.89906 0.0
C855 C 0.48564 0.74869 1.00043 0.0
O856 O 0.48308 0.69821 1.00173 0.0
C857 C 0.25434 0.61002 0.89323 0.0
C858 C 0.1898 0.65562 0.87362 0.0
C859 C 0.2024 0.60742 0.88559 0.0
N860 N 0.27086 0.65827 0.88732 0.0
N861 N 0.23263 0.68473 0.87446 0.0
C862 C 0.28537 0.57061 0.911 0.0
H863 H 0.31361 0.58972 0.92709 0.0
H864 H 0.26026 0.5445 0.92515 0.0
H865 H 0.3071 0.54716 0.89331 0.0
C866 C 0.3281 0.7287 1.00058 0.0
N867 N 0.34681 0.72082 0.97078 0.0
N868 N 0.31152 0.69957 0.95249 0.0
C869 C 0.26914 0.69151 0.971 0.0
C870 C 0.27848 0.7095 1.00201 0.0
C871 C 0.35526 0.75932 0.02594 0.0
H872 H 0.36965 0.79582 1.01541 0.0
H873 H 0.38883 0.73717 0.0349 0.0
H874 H 0.32949 0.76858 0.0464 0.0
O875 O 0.40248 0.78869 0.91873 0.0
O876 O 0.34597 0.75847 0.88351 0.0
H877 H 0.20589 0.68541 0.9383 0.0
H878 H 0.19052 0.66555 0.97869 0.0
C879 C 0.22077 0.66574 0.95998 0.0
H880 H 0.22909 0.62502 0.95452 0.0
H881 H 0.23434 0.72401 0.86927 0.0
O882 O 0.45228 0.77273 0.98427 0.0
C883 C 0.37777 0.79322 0.89259 0.0
Co884 Co 0.03435 0.66002 0.70268 0.0
Co885 Co 0.08093 0.57876 0.65697 0.0
C886 C 0.12557 0.68656 0.66095 0.0
O887 O 0.09435 0.69907 0.68335 0.0
O888 O 0.12472 0.64127 0.64906 0.0
C889 C 0.02283 0.73561 0.75042 0.0
O890 O 0.07331 0.73305 0.75174 0.0
C891 C 0.16155 0.50429 0.64324 0.0
C892 C 0.11596 0.43976 0.62363 0.0
C893 C 0.16415 0.45236 0.6356 0.0
N894 N 0.11331 0.52082 0.63733 0.0
N895 N 0.08685 0.48259 0.62447 0.0
C896 C 0.20096 0.53532 0.66101 0.0
H897 H 0.18185 0.56356 0.6771 0.0
H898 H 0.22707 0.51021 0.67517 0.0
H899 H 0.22442 0.55706 0.64333 0.0
C900 C 0.04285 0.57808 0.75057 0.0
N901 N 0.05073 0.59679 0.72077 0.0
N902 N 0.07199 0.56149 0.70249 0.0
C903 C 0.08004 0.51911 0.721 0.0
C904 C 0.06204 0.52846 0.75201 0.0
C905 C 0.01222 0.60525 0.77593 0.0
H906 H 0.97572 0.61964 0.7654 0.0
H907 H 0.03438 0.63881 0.78489 0.0
H908 H 1.00296 0.57948 0.7964 0.0
O909 O 0.98289 0.65245 0.6687 0.0
O910 O 0.01312 0.59593 0.6335 0.0
H911 H 0.08614 0.45585 0.68831 0.0
H912 H 0.10599 0.4405 0.7287 0.0
C913 C 0.10581 0.47074 0.70998 0.0
H914 H 0.14654 0.47906 0.70453 0.0
H915 H 0.04757 0.4843 0.61927 0.0
O916 O 0.99881 0.70225 0.73425 0.0
C917 C 0.97837 0.62773 0.64256 0.0
Co918 Co 0.11151 0.28432 0.45269 0.0
Co919 Co 0.19276 0.33089 0.40697 0.0
C920 C 0.08496 0.37551 0.41094 0.0
O921 O 0.07245 0.3443 0.43335 0.0
O922 O 0.13025 0.37467 0.39906 0.0
C923 C 0.03591 0.27284 0.50043 0.0
O924 O 0.03848 0.32332 0.50173 0.0
C925 C 0.26722 0.41151 0.39323 0.0
C926 C 0.33175 0.36591 0.37362 0.0
C927 C 0.31915 0.41411 0.38559 0.0
N928 N 0.2507 0.36326 0.38732 0.0
N929 N 0.28893 0.33679 0.37446 0.0
C930 C 0.23619 0.45092 0.411 0.0
H931 H 0.20795 0.43181 0.42709 0.0
H932 H 0.2613 0.47703 0.42515 0.0
H933 H 0.21445 0.47437 0.39331 0.0
C934 C 0.19346 0.29283 0.50058 0.0
N935 N 0.17474 0.30071 0.47078 0.0
N936 N 0.21004 0.32196 0.45249 0.0
C937 C 0.25242 0.33002 0.471 0.0
C938 C 0.24308 0.31202 0.50201 0.0
C939 C 0.16629 0.26221 0.52594 0.0
H940 H 0.15191 0.22571 0.51541 0.0
H941 H 0.13273 0.28436 0.5349 0.0
H942 H 0.19206 0.25295 0.5464 0.0
O943 O 0.11908 0.23284 0.41873 0.0
O944 O 0.17559 0.26306 0.38351 0.0
H945 H 0.31567 0.33611 0.4383 0.0
H946 H 0.33103 0.35597 0.47869 0.0
C947 C 0.30079 0.35578 0.45998 0.0
H948 H 0.29247 0.39651 0.45452 0.0
H949 H 0.28721 0.29752 0.36927 0.0
O950 O 0.06928 0.2488 0.48427 0.0
C951 C 0.14379 0.2283 0.39259 0.0
Co952 Co 0.48718 0.66002 0.32944 0.0
Co953 Co 0.44061 0.57876 0.37516 0.0
C954 C 0.39598 0.68657 0.37117 0.0
O955 O 0.42718 0.69908 0.34876 0.0
O956 O 0.39683 0.64129 0.38306 0.0
C957 C 0.49872 0.73562 0.2817 0.0
O958 O 0.44824 0.73307 0.28038 0.0
C959 C 0.35998 0.50429 0.38881 0.0
C960 C 0.40554 0.43974 0.40845 0.0
C961 C 0.3574 0.45234 0.39639 0.0
N962 N 0.4082 0.52082 0.39479 0.0
N963 N 0.43463 0.48259 0.40768 0.0
C964 C 0.32061 0.53534 0.37102 0.0
H965 H 0.33975 0.56356 0.35494 0.0
H966 H 0.2945 0.51024 0.35686 0.0
H967 H 0.29715 0.5571 0.38869 0.0
C968 C 0.47868 0.57809 0.28154 0.0
N969 N 0.4708 0.59679 0.31134 0.0
N970 N 0.44957 0.56149 0.32963 0.0
C971 C 0.44153 0.5191 0.31112 0.0
C972 C 0.45952 0.52846 0.28011 0.0
C973 C 0.50926 0.60528 0.25617 0.0
H974 H 0.54577 0.61968 0.26669 0.0
H975 H 0.48708 0.63884 0.24723 0.0
H976 H 0.51852 0.57953 0.2357 0.0
O977 O 0.53863 0.65245 0.36343 0.0
O978 O 0.50843 0.59591 0.39863 0.0
H979 H 0.43545 0.45587 0.34383 0.0
H980 H 0.41568 0.44045 0.30343 0.0
C981 C 0.41581 0.47071 0.32214 0.0
H982 H 0.37506 0.47899 0.32756 0.0
H983 H 0.47389 0.48432 0.41293 0.0
O984 O 0.52274 0.70225 0.29788 0.0
C985 C 0.54317 0.62772 0.38956 0.0
Co986 Co 0.11151 0.73718 0.07943 0.0
Co987 Co 0.19276 0.69063 0.12516 0.0
C988 C 0.08495 0.646 0.12118 0.0
O989 O 0.07244 0.6772 0.09876 0.0
O990 O 0.13023 0.64686 0.13307 0.0
C991 C 0.03591 0.74869 0.03169 0.0
O992 O 0.03847 0.6982 0.03038 0.0
C993 C 0.26722 0.60999 0.13882 0.0
C994 C 0.33177 0.65556 0.15846 0.0
C995 C 0.31917 0.60742 0.1464 0.0
N996 N 0.25069 0.65822 0.1448 0.0
N997 N 0.28892 0.68466 0.15768 0.0
C998 C 0.23617 0.57063 0.12103 0.0
H999 H 0.20795 0.58977 0.10495 0.0
H1000 H 0.26127 0.54451 0.10687 0.0
H1001 H 0.21441 0.54716 0.1387 0.0
C1002 C 0.19344 0.72866 0.03154 0.0
N1003 N 0.17474 0.72079 0.06133 0.0
N1004 N 0.21004 0.69956 0.07963 0.0
C1005 C 0.25243 0.69153 0.06112 0.0
C1006 C 0.24308 0.70951 0.03011 0.0
C1007 C 0.16626 0.75925 1.00616 0.0
H1008 H 0.15186 0.79575 0.01668 0.0
H1009 H 0.1327 0.73707 0.99722 0.0
H1010 H 0.19202 0.7685 0.98569 0.0
O1011 O 0.11908 0.78866 0.1134 0.0
O1012 O 0.17561 0.75846 0.14861 0.0
H1013 H 0.31566 0.68545 0.09384 0.0
H1014 H 0.33108 0.66567 0.05344 0.0
C1015 C 0.30082 0.6658 0.07214 0.0
H1016 H 0.29254 0.62505 0.07757 0.0
H1017 H 0.2872 0.72391 0.16293 0.0
O1018 O 0.06928 0.77272 0.04785 0.0
C1019 C 0.1438 0.79321 0.13954 0.0
Co1020 Co 0.03438 0.36151 0.82944 0.0
Co1021 Co 0.08095 0.44277 0.87516 0.0
C1022 C 0.12558 0.33496 0.87117 0.0
O1023 O 0.09438 0.32245 0.84876 0.0
O1024 O 0.12472 0.38024 0.88306 0.0
C1025 C 0.02283 0.28591 0.7817 0.0
O1026 O 0.07332 0.28846 0.78038 0.0
C1027 C 0.16158 0.51723 0.88881 0.0
C1028 C 0.11602 0.58178 0.90845 0.0
C1029 C 0.16415 0.56919 0.89639 0.0
N1030 N 0.11336 0.5007 0.89479 0.0
N1031 N 0.08692 0.53894 0.90768 0.0
C1032 C 0.20095 0.48619 0.87102 0.0
H1033 H 0.1818 0.45797 0.85494 0.0
H1034 H 0.22706 0.51129 0.85686 0.0
H1035 H 0.22441 0.46443 0.88869 0.0
C1036 C 0.04288 0.44343 0.78154 0.0
N1037 N 0.05076 0.42474 0.81134 0.0
N1038 N 0.07199 0.46004 0.82963 0.0
C1039 C 0.08002 0.50243 0.81112 0.0
C1040 C 0.06204 0.49307 0.78011 0.0
C1041 C 0.01229 0.41624 0.75617 0.0
H1042 H 0.97579 0.40185 0.76669 0.0
H1043 H 0.03447 0.38269 0.74723 0.0
H1044 H 1.00304 0.442 0.7357 0.0
O1045 O 0.98293 0.36908 0.86343 0.0
O1046 O 0.01313 0.42562 0.89863 0.0
H1047 H 0.0861 0.56566 0.84383 0.0
H1048 H 0.10587 0.58108 0.80343 0.0
C1049 C 0.10575 0.55082 0.82214 0.0
H1050 H 0.1465 0.54254 0.82756 0.0
H1051 H 0.04767 0.53721 0.91293 0.0
O1052 O 0.99882 0.31927 0.79788 0.0
C1053 C 0.97838 0.3938 0.88956 0.0
Co1054 Co 0.41005 0.28434 0.57943 0.0
Co1055 Co 0.3288 0.3309 0.62516 0.0
C1056 C 0.43661 0.37552 0.62118 0.0
O1057 O 0.44911 0.34433 0.59876 0.0
O1058 O 0.39132 0.37467 0.63307 0.0
C1059 C 0.48565 0.27284 0.53169 0.0
O1060 O 0.48309 0.32333 0.53038 0.0
C1061 C 0.25434 0.41153 0.63882 0.0
C1062 C 0.18979 0.36597 0.65846 0.0
C1063 C 0.20238 0.41411 0.6464 0.0
N1064 N 0.27087 0.36331 0.6448 0.0
N1065 N 0.23263 0.33687 0.65768 0.0
C1066 C 0.28538 0.4509 0.62103 0.0
H1067 H 0.3136 0.43176 0.60495 0.0
H1068 H 0.26028 0.47702 0.60687 0.0
H1069 H 0.30714 0.47436 0.6387 0.0
C1070 C 0.32811 0.29287 0.53154 0.0
N1071 N 0.34682 0.30074 0.56133 0.0
N1072 N 0.31152 0.32197 0.57963 0.0
C1073 C 0.26913 0.33 0.56112 0.0
C1074 C 0.27847 0.31202 0.5301 0.0
C1075 C 0.3553 0.26228 0.50616 0.0
H1076 H 0.36969 0.22577 0.51668 0.0
H1077 H 0.38885 0.28446 0.49722 0.0
H1078 H 0.32953 0.25303 0.48569 0.0
O1079 O 0.40248 0.23287 0.6134 0.0
O1080 O 0.34595 0.26307 0.64861 0.0
H1081 H 0.2059 0.33607 0.59384 0.0
H1082 H 0.19048 0.35586 0.55344 0.0
C1083 C 0.22074 0.35573 0.57214 0.0
H1084 H 0.22902 0.39648 0.57757 0.0
H1085 H 0.23436 0.29761 0.66293 0.0
O1086 O 0.45228 0.24881 0.54785 0.0
C1087 C 0.37775 0.22832 0.63954 0.0
loop_
_geom_bond_atom_site_label_1
_geom_bond_atom_site_label_2
_geom_bond_distance
_geom_bond_site_symmetry_2
_ccdc_geom_bond_type
Co0 O3 1.970 . S
Co0 N17 1.989 . S
Co0 O25 1.967 1_455 S
Co0 O32 1.920 1_455 S
Co1 O4 1.966 . S
Co1 N10 2.022 1_545 S
Co1 N18 1.993 . S
Co1 O26 1.941 . S
C2 O3 1.258 . S
C2 O4 1.263 . S
O3 Co0 1.970 . S
O3 C2 1.258 . S
O4 Co1 1.966 . S
O4 C2 1.263 . S
C5 O6 1.235 . S
C5 O32 1.289 1_455 S
O6 C5 1.235 . S
C7 C9 1.400 . S
C7 N10 1.351 . S
C7 C12 1.501 1_565 S
C8 C9 1.387 . S
C8 N11 1.341 . S
C9 C7 1.400 . S
C9 C8 1.387 . S
N10 Co1 2.022 1_565 S
N10 C7 1.351 . S
N10 N11 1.365 . S
N11 C8 1.341 . S
N11 N10 1.365 . S
N11 H31 0.862 . S
C12 C7 1.501 1_545 S
C12 H13 0.961 . S
C12 H14 0.961 . S
C12 H15 0.960 . S
H13 C12 0.961 . S
H14 C12 0.961 . S
H15 C12 0.960 . S
C16 N17 1.342 . S
C16 C20 1.401 . S
C16 C21 1.507 . S
N17 Co0 1.989 . S
N17 C16 1.342 . S
N17 N18 1.388 . S
N18 Co1 1.993 . S
N18 N17 1.388 . S
N18 C19 1.346 . S
C19 N18 1.346 . S
C19 C20 1.396 . S
C19 C29 1.510 1_545 S
C20 C16 1.401 . S
C20 C19 1.396 . S
C21 C16 1.507 . S
C21 H22 0.955 1_455 S
C21 H23 0.969 . S
C21 H24 0.949 1_455 S
H22 C21 0.955 1_655 S
H23 C21 0.969 . S
H24 C21 0.949 1_655 S
O25 Co0 1.967 1_655 S
O25 C33 1.258 . S
O26 Co1 1.941 . S
O26 C33 1.267 1_455 S
H27 C29 0.959 . S
H28 C29 0.961 . S
C29 C19 1.510 1_565 S
C29 H27 0.959 . S
C29 H28 0.961 . S
C29 H30 0.960 . S
H30 C29 0.960 . S
H31 N11 0.862 . S
O32 Co0 1.920 1_655 S
O32 C5 1.289 1_655 S
C33 O25 1.258 . S
C33 O26 1.267 1_655 S
Co34 O37 1.970 . S
Co34 N51 1.989 . S
Co34 O59 1.967 . S
Co34 O66 1.920 . S
Co35 O38 1.966 . S
Co35 N44 2.022 . S
Co35 N52 1.993 . S
Co35 O60 1.941 . S
C36 O37 1.258 . S
C36 O38 1.263 . S
O37 Co34 1.970 . S
O37 C36 1.258 . S
O38 Co35 1.966 . S
O38 C36 1.263 . S
C39 O40 1.235 . S
C39 O66 1.289 . S
O40 C39 1.235 . S
C41 C43 1.400 . S
C41 N44 1.351 . S
C41 C46 1.501 . S
C42 C43 1.387 . S
C42 N45 1.341 . S
C43 C41 1.400 . S
C43 C42 1.387 . S
N44 Co35 2.022 . S
N44 C41 1.351 . S
N44 N45 1.365 . S
N45 C42 1.341 . S
N45 N44 1.365 . S
N45 H65 0.862 . S
C46 C41 1.501 . S
C46 H47 0.961 . S
C46 H48 0.961 . S
C46 H49 0.960 . S
H47 C46 0.961 . S
H48 C46 0.961 . S
H49 C46 0.960 . S
C50 N51 1.342 . S
C50 C54 1.401 . S
C50 C55 1.499 . S
N51 Co34 1.989 . S
N51 C50 1.342 . S
N51 N52 1.388 . S
N52 Co35 1.993 . S
N52 N51 1.388 . S
N52 C53 1.346 . S
C53 N52 1.346 . S
C53 C54 1.396 . S
C53 C63 1.510 . S
C54 C50 1.401 . S
C54 C53 1.396 . S
C55 C50 1.499 . S
C55 H56 0.959 . S
C55 H57 0.960 . S
C55 H58 0.961 . S
H56 C55 0.959 . S
H57 C55 0.960 . S
H58 C55 0.961 . S
O59 Co34 1.967 . S
O59 C67 1.258 . S
O60 Co35 1.941 . S
O60 C67 1.266 . S
H61 C63 0.959 . S
H62 C63 0.961 . S
C63 C53 1.510 . S
C63 H61 0.959 . S
C63 H62 0.961 . S
C63 H64 0.960 . S
H64 C63 0.960 . S
H65 N45 0.862 . S
O66 Co34 1.920 . S
O66 C39 1.289 . S
C67 O59 1.258 . S
C67 O60 1.266 . S
Co68 O71 1.970 . S
Co68 N85 1.989 . S
Co68 O93 1.967 . S
Co68 O100 1.920 . S
Co69 O72 1.966 . S
Co69 N78 2.022 1_565 S
Co69 N86 1.993 . S
Co69 O94 1.941 . S
C70 O71 1.258 . S
C70 O72 1.263 . S
O71 Co68 1.970 . S
O71 C70 1.258 . S
O72 Co69 1.966 . S
O72 C70 1.263 . S
C73 O74 1.235 . S
C73 O100 1.289 . S
O74 C73 1.235 . S
C75 C77 1.400 . S
C75 N78 1.351 . S
C75 C80 1.501 1_545 S
C76 C77 1.387 . S
C76 N79 1.341 . S
C77 C75 1.400 . S
C77 C76 1.387 . S
N78 Co69 2.022 1_545 S
N78 C75 1.351 . S
N78 N79 1.365 . S
N79 C76 1.341 . S
N79 N78 1.365 . S
N79 H99 0.862 . S
C80 C75 1.501 1_565 S
C80 H81 0.961 . S
C80 H82 0.961 . S
C80 H83 0.960 . S
H81 C80 0.961 . S
H82 C80 0.961 . S
H83 C80 0.960 . S
C84 N85 1.342 . S
C84 C88 1.401 . S
C84 C89 1.499 . S
N85 Co68 1.989 . S
N85 C84 1.342 . S
N85 N86 1.388 . S
N86 Co69 1.993 . S
N86 N85 1.388 . S
N86 C87 1.346 . S
C87 N86 1.346 . S
C87 C88 1.396 . S
C87 C97 1.510 1_565 S
C88 C84 1.401 . S
C88 C87 1.396 . S
C89 C84 1.499 . S
C89 H90 0.959 . S
C89 H91 0.960 . S
C89 H92 0.961 . S
H90 C89 0.959 . S
H91 C89 0.960 . S
H92 C89 0.961 . S
O93 Co68 1.967 . S
O93 C101 1.258 . S
O94 Co69 1.941 . S
O94 C101 1.266 . S
H95 C97 0.959 . S
H96 C97 0.961 . S
C97 C87 1.510 1_545 S
C97 H95 0.959 . S
C97 H96 0.961 . S
C97 H98 0.960 . S
H98 C97 0.960 . S
H99 N79 0.862 . S
O100 Co68 1.920 . S
O100 C73 1.289 . S
C101 O93 1.258 . S
C101 O94 1.266 . S
Co102 O105 1.970 . S
Co102 N119 1.989 . S
Co102 O127 1.967 . S
Co102 O134 1.920 . S
Co103 O106 1.966 . S
Co103 N112 2.022 . S
Co103 N120 1.993 . S
Co103 O128 1.941 . S
C104 O105 1.258 . S
C104 O106 1.263 . S
O105 Co102 1.970 . S
O105 C104 1.258 . S
O106 Co103 1.966 . S
O106 C104 1.263 . S
C107 O108 1.235 . S
C107 O134 1.289 . S
O108 C107 1.235 . S
C109 C111 1.400 . S
C109 N112 1.351 . S
C109 C114 1.501 . S
C110 C111 1.387 . S
C110 N113 1.341 . S
C111 C109 1.400 . S
C111 C110 1.387 . S
N112 Co103 2.022 . S
N112 C109 1.351 . S
N112 N113 1.365 . S
N113 C110 1.341 . S
N113 N112 1.365 . S
N113 H133 0.862 . S
C114 C109 1.501 . S
C114 H115 0.961 . S
C114 H116 0.961 . S
C114 H117 0.960 . S
H115 C114 0.961 . S
H116 C114 0.961 . S
H117 C114 0.960 . S
C118 N119 1.342 . S
C118 C122 1.401 . S
C118 C123 1.499 1_554 S
N119 Co102 1.989 . S
N119 C118 1.342 . S
N119 N120 1.388 . S
N120 Co103 1.993 . S
N120 N119 1.388 . S
N120 C121 1.346 . S
C121 N120 1.346 . S
C121 C122 1.396 . S
C121 C131 1.510 . S
C122 C118 1.401 . S
C122 C121 1.396 . S
C123 C118 1.499 1_556 S
C123 H124 0.959 . S
C123 H125 0.960 . S
C123 H126 0.961 . S
H124 C123 0.959 . S
H125 C123 0.960 . S
H126 C123 0.961 . S
O127 Co102 1.967 . S
O127 C135 1.258 . S
O128 Co103 1.941 . S
O128 C135 1.266 . S
H129 C131 0.959 . S
H130 C131 0.961 . S
C131 C121 1.510 . S
C131 H129 0.959 . S
C131 H130 0.961 . S
C131 H132 0.960 . S
H132 C131 0.960 . S
H133 N113 0.862 . S
O134 Co102 1.920 . S
O134 C107 1.289 . S
C135 O127 1.258 . S
C135 O128 1.266 . S
Co136 O139 1.970 . S
Co136 N153 1.989 . S
Co136 O161 1.967 1_455 S
Co136 O168 1.920 1_455 S
Co137 O140 1.966 . S
Co137 N146 2.022 1_565 S
Co137 N154 1.993 . S
Co137 O162 1.941 . S
C138 O139 1.258 . S
C138 O140 1.263 . S
O139 Co136 1.970 . S
O139 C138 1.258 . S
O140 Co137 1.966 . S
O140 C138 1.263 . S
C141 O142 1.235 . S
C141 O168 1.289 1_455 S
O142 C141 1.235 . S
C143 C145 1.400 . S
C143 N146 1.351 . S
C143 C148 1.501 1_545 S
C144 C145 1.387 . S
C144 N147 1.341 . S
C145 C143 1.400 . S
C145 C144 1.387 . S
N146 Co137 2.022 1_545 S
N146 C143 1.351 . S
N146 N147 1.365 . S
N147 C144 1.341 . S
N147 N146 1.365 . S
N147 H167 0.862 . S
C148 C143 1.501 1_565 S
C148 H149 0.961 . S
C148 H150 0.961 . S
C148 H151 0.960 . S
H149 C148 0.961 . S
H150 C148 0.961 . S
H151 C148 0.960 . S
C152 N153 1.342 . S
C152 C156 1.401 . S
C152 C157 1.507 . S
N153 Co136 1.989 . S
N153 C152 1.342 . S
N153 N154 1.388 . S
N154 Co137 1.993 . S
N154 N153 1.388 . S
N154 C155 1.346 . S
C155 N154 1.346 . S
C155 C156 1.396 . S
C155 C165 1.510 1_565 S
C156 C152 1.401 . S
C156 C155 1.396 . S
C157 C152 1.507 . S
C157 H158 0.955 1_455 S
C157 H159 0.969 . S
C157 H160 0.949 1_455 S
H158 C157 0.955 1_655 S
H159 C157 0.969 . S
H160 C157 0.949 1_655 S
O161 Co136 1.967 1_655 S
O161 C169 1.258 . S
O162 Co137 1.941 . S
O162 C169 1.267 1_455 S
H163 C165 0.959 . S
H164 C165 0.961 . S
C165 C155 1.510 1_545 S
C165 H163 0.959 . S
C165 H164 0.961 . S
C165 H166 0.960 . S
H166 C165 0.960 . S
H167 N147 0.862 . S
O168 Co136 1.920 1_655 S
O168 C141 1.289 1_655 S
C169 O161 1.258 . S
C169 O162 1.267 1_655 S
Co170 O173 1.970 . S
Co170 N187 1.989 . S
Co170 O195 1.967 . S
Co170 O202 1.920 . S
Co171 O174 1.966 . S
Co171 N180 2.022 . S
Co171 N188 1.993 . S
Co171 O196 1.941 . S
C172 O173 1.258 . S
C172 O174 1.263 . S
O173 Co170 1.970 . S
O173 C172 1.258 . S
O174 Co171 1.966 . S
O174 C172 1.263 . S
C175 O176 1.235 . S
C175 O202 1.289 . S
O176 C175 1.235 . S
C177 C179 1.400 . S
C177 N180 1.351 . S
C177 C182 1.501 . S
C178 C179 1.387 . S
C178 N181 1.341 . S
C179 C177 1.400 . S
C179 C178 1.387 . S
N180 Co171 2.022 . S
N180 C177 1.351 . S
N180 N181 1.365 . S
N181 C178 1.341 . S
N181 N180 1.365 . S
N181 H201 0.862 . S
C182 C177 1.501 . S
C182 H183 0.961 . S
C182 H184 0.961 . S
C182 H185 0.960 . S
H183 C182 0.961 . S
H184 C182 0.961 . S
H185 C182 0.960 . S
C186 N187 1.342 . S
C186 C190 1.401 . S
C186 C191 1.499 . S
N187 Co170 1.989 . S
N187 C186 1.342 . S
N187 N188 1.388 . S
N188 Co171 1.993 . S
N188 N187 1.388 . S
N188 C189 1.346 . S
C189 N188 1.346 . S
C189 C190 1.396 . S
C189 C199 1.510 . S
C190 C186 1.401 . S
C190 C189 1.396 . S
C191 C186 1.499 . S
C191 H192 0.959 . S
C191 H193 0.960 . S
C191 H194 0.961 . S
H192 C191 0.959 . S
H193 C191 0.960 . S
H194 C191 0.961 . S
O195 Co170 1.967 . S
O195 C203 1.258 . S
O196 Co171 1.941 . S
O196 C203 1.266 . S
H197 C199 0.959 . S
H198 C199 0.961 . S
C199 C189 1.510 . S
C199 H197 0.959 . S
C199 H198 0.961 . S
C199 H200 0.960 . S
H200 C199 0.960 . S
H201 N181 0.862 . S
O202 Co170 1.920 . S
O202 C175 1.289 . S
C203 O195 1.258 . S
C203 O196 1.266 . S
Co204 O207 1.970 . S
Co204 N221 1.989 . S
Co204 O229 1.967 . S
Co204 O236 1.920 . S
Co205 O208 1.966 . S
Co205 N214 2.022 1_545 S
Co205 N222 1.993 . S
Co205 O230 1.941 . S
C206 O207 1.258 . S
C206 O208 1.263 . S
O207 Co204 1.970 . S
O207 C206 1.258 . S
O208 Co205 1.966 . S
O208 C206 1.263 . S
C209 O210 1.235 . S
C209 O236 1.289 . S
O210 C209 1.235 . S
C211 C213 1.400 . S
C211 N214 1.351 . S
C211 C216 1.501 1_565 S
C212 C213 1.387 . S
C212 N215 1.341 . S
C213 C211 1.400 . S
C213 C212 1.387 . S
N214 Co205 2.022 1_565 S
N214 C211 1.351 . S
N214 N215 1.365 . S
N215 C212 1.341 . S
N215 N214 1.365 . S
N215 H235 0.862 . S
C216 C211 1.501 1_545 S
C216 H217 0.961 . S
C216 H218 0.961 . S
C216 H219 0.960 . S
H217 C216 0.961 . S
H218 C216 0.961 . S
H219 C216 0.960 . S
C220 N221 1.342 . S
C220 C224 1.401 . S
C220 C225 1.499 . S
N221 Co204 1.989 . S
N221 C220 1.342 . S
N221 N222 1.388 . S
N222 Co205 1.993 . S
N222 N221 1.388 . S
N222 C223 1.346 . S
C223 N222 1.346 . S
C223 C224 1.396 . S
C223 C233 1.510 1_545 S
C224 C220 1.401 . S
C224 C223 1.396 . S
C225 C220 1.499 . S
C225 H226 0.959 . S
C225 H227 0.960 . S
C225 H228 0.961 . S
H226 C225 0.959 . S
H227 C225 0.960 . S
H228 C225 0.961 . S
O229 Co204 1.967 . S
O229 C237 1.258 . S
O230 Co205 1.941 . S
O230 C237 1.266 . S
H231 C233 0.959 . S
H232 C233 0.961 . S
C233 C223 1.510 1_565 S
C233 H231 0.959 . S
C233 H232 0.961 . S
C233 H234 0.960 . S
H234 C233 0.960 . S
H235 N215 0.862 . S
O236 Co204 1.920 . S
O236 C209 1.289 . S
C237 O229 1.258 . S
C237 O230 1.266 . S
Co238 O241 1.970 . S
Co238 N255 1.989 . S
Co238 O263 1.967 . S
Co238 O270 1.920 . S
Co239 O242 1.966 . S
Co239 N248 2.022 . S
Co239 N256 1.993 . S
Co239 O264 1.941 . S
C240 O241 1.258 . S
C240 O242 1.263 . S
O241 Co238 1.970 . S
O241 C240 1.258 . S
O242 Co239 1.966 . S
O242 C240 1.263 . S
C243 O244 1.235 . S
C243 O270 1.289 . S
O244 C243 1.235 . S
C245 C247 1.400 . S
C245 N248 1.351 . S
C245 C250 1.501 . S
C246 C247 1.387 . S
C246 N249 1.341 . S
C247 C245 1.400 . S
C247 C246 1.387 . S
N248 Co239 2.022 . S
N248 C245 1.351 . S
N248 N249 1.365 . S
N249 C246 1.341 . S
N249 N248 1.365 . S
N249 H269 0.862 . S
C250 C245 1.501 . S
C250 H251 0.961 . S
C250 H252 0.961 . S
C250 H253 0.960 . S
H251 C250 0.961 . S
H252 C250 0.961 . S
H253 C250 0.960 . S
C254 N255 1.342 . S
C254 C258 1.401 . S
C254 C259 1.499 1_556 S
N255 Co238 1.989 . S
N255 C254 1.342 . S
N255 N256 1.388 . S
N256 Co239 1.993 . S
N256 N255 1.388 . S
N256 C257 1.346 . S
C257 N256 1.346 . S
C257 C258 1.396 . S
C257 C267 1.510 . S
C258 C254 1.401 . S
C258 C257 1.396 . S
C259 C254 1.499 1_554 S
C259 H260 0.959 . S
C259 H261 0.960 . S
C259 H262 0.961 . S
H260 C259 0.959 . S
H261 C259 0.960 . S
H262 C259 0.961 . S
O263 Co238 1.967 . S
O263 C271 1.258 . S
O264 Co239 1.941 . S
O264 C271 1.266 . S
H265 C267 0.959 . S
H266 C267 0.961 . S
C267 C257 1.510 . S
C267 H265 0.959 . S
C267 H266 0.961 . S
C267 H268 0.960 . S
H268 C267 0.960 . S
H269 N249 0.862 . S
O270 Co238 1.920 . S
O270 C243 1.289 . S
C271 O263 1.258 . S
C271 O264 1.266 . S
Co272 O275 1.970 . S
Co272 N289 1.989 . S
Co272 O297 1.967 1_655 S
Co272 O304 1.920 1_655 S
Co273 O276 1.966 . S
Co273 N282 2.022 1_565 S
Co273 N290 1.993 . S
Co273 O298 1.941 . S
C274 O275 1.258 . S
C274 O276 1.263 . S
O275 Co272 1.970 . S
O275 C274 1.258 . S
O276 Co273 1.966 . S
O276 C274 1.263 . S
C277 O278 1.235 . S
C277 O304 1.289 1_655 S
O278 C277 1.235 . S
C279 C281 1.400 . S
C279 N282 1.351 . S
C279 C284 1.501 1_545 S
C280 C281 1.387 . S
C280 N283 1.341 . S
C281 C279 1.400 . S
C281 C280 1.387 . S
N282 Co273 2.022 1_545 S
N282 C279 1.351 . S
N282 N283 1.365 . S
N283 C280 1.341 . S
N283 N282 1.365 . S
N283 H303 0.862 . S
C284 C279 1.501 1_565 S
C284 H285 0.961 . S
C284 H286 0.961 . S
C284 H287 0.960 . S
H285 C284 0.961 . S
H286 C284 0.961 . S
H287 C284 0.960 . S
C288 N289 1.342 . S
C288 C292 1.401 . S
C288 C293 1.507 . S
N289 Co272 1.989 . S
N289 C288 1.342 . S
N289 N290 1.388 . S
N290 Co273 1.993 . S
N290 N289 1.388 . S
N290 C291 1.346 . S
C291 N290 1.346 . S
C291 C292 1.396 . S
C291 C301 1.510 1_565 S
C292 C288 1.401 . S
C292 C291 1.396 . S
C293 C288 1.507 . S
C293 H294 0.955 1_655 S
C293 H295 0.969 . S
C293 H296 0.949 1_655 S
H294 C293 0.955 1_455 S
H295 C293 0.969 . S
H296 C293 0.949 1_455 S
O297 Co272 1.967 1_455 S
O297 C305 1.258 . S
O298 Co273 1.941 . S
O298 C305 1.267 1_655 S
H299 C301 0.959 . S
H300 C301 0.961 . S
C301 C291 1.510 1_545 S
C301 H299 0.959 . S
C301 H300 0.961 . S
C301 H302 0.960 . S
H302 C301 0.960 . S
H303 N283 0.862 . S
O304 Co272 1.920 1_455 S
O304 C277 1.289 1_455 S
C305 O297 1.258 . S
C305 O298 1.267 1_455 S
Co306 O309 1.970 . S
Co306 N323 1.989 . S
Co306 O331 1.967 . S
Co306 O338 1.920 . S
Co307 O310 1.966 . S
Co307 N316 2.022 . S
Co307 N324 1.993 . S
Co307 O332 1.941 . S
C308 O309 1.258 . S
C308 O310 1.263 . S
O309 Co306 1.970 . S
O309 C308 1.258 . S
O310 Co307 1.966 . S
O310 C308 1.263 . S
C311 O312 1.235 . S
C311 O338 1.289 . S
O312 C311 1.235 . S
C313 C315 1.400 . S
C313 N316 1.351 . S
C313 C318 1.501 . S
C314 C315 1.387 . S
C314 N317 1.341 . S
C315 C313 1.400 . S
C315 C314 1.387 . S
N316 Co307 2.022 . S
N316 C313 1.351 . S
N316 N317 1.365 . S
N317 C314 1.341 . S
N317 N316 1.365 . S
N317 H337 0.862 . S
C318 C313 1.501 . S
C318 H319 0.961 . S
C318 H320 0.961 . S
C318 H321 0.960 . S
H319 C318 0.961 . S
H320 C318 0.961 . S
H321 C318 0.960 . S
C322 N323 1.342 . S
C322 C326 1.401 . S
C322 C327 1.499 . S
N323 Co306 1.989 . S
N323 C322 1.342 . S
N323 N324 1.388 . S
N324 Co307 1.993 . S
N324 N323 1.388 . S
N324 C325 1.346 . S
C325 N324 1.346 . S
C325 C326 1.396 . S
C325 C335 1.510 . S
C326 C322 1.401 . S
C326 C325 1.396 . S
C327 C322 1.499 . S
C327 H328 0.959 . S
C327 H329 0.960 . S
C327 H330 0.961 . S
H328 C327 0.959 . S
H329 C327 0.960 . S
H330 C327 0.961 . S
O331 Co306 1.967 . S
O331 C339 1.258 . S
O332 Co307 1.941 . S
O332 C339 1.266 . S
H333 C335 0.959 . S
H334 C335 0.961 . S
C335 C325 1.510 . S
C335 H333 0.959 . S
C335 H334 0.961 . S
C335 H336 0.960 . S
H336 C335 0.960 . S
H337 N317 0.862 . S
O338 Co306 1.920 . S
O338 C311 1.289 . S
C339 O331 1.258 . S
C339 O332 1.266 . S
Co340 O343 1.970 . S
Co340 N357 1.989 . S
Co340 O365 1.967 . S
Co340 O372 1.920 . S
Co341 O344 1.966 . S
Co341 N350 2.022 1_545 S
Co341 N358 1.993 . S
Co341 O366 1.941 . S
C342 O343 1.258 . S
C342 O344 1.263 . S
O343 Co340 1.970 . S
O343 C342 1.258 . S
O344 Co341 1.966 . S
O344 C342 1.263 . S
C345 O346 1.235 . S
C345 O372 1.289 . S
O346 C345 1.235 . S
C347 C349 1.400 . S
C347 N350 1.351 . S
C347 C352 1.501 1_565 S
C348 C349 1.387 . S
C348 N351 1.341 . S
C349 C347 1.400 . S
C349 C348 1.387 . S
N350 Co341 2.022 1_565 S
N350 C347 1.351 . S
N350 N351 1.365 . S
N351 C348 1.341 . S
N351 N350 1.365 . S
N351 H371 0.862 . S
C352 C347 1.501 1_545 S
C352 H353 0.961 . S
C352 H354 0.961 . S
C352 H355 0.960 . S
H353 C352 0.961 . S
H354 C352 0.961 . S
H355 C352 0.960 . S
C356 N357 1.342 . S
C356 C360 1.401 . S
C356 C361 1.499 . S
N357 Co340 1.989 . S
N357 C356 1.342 . S
N357 N358 1.388 . S
N358 Co341 1.993 . S
N358 N357 1.388 . S
N358 C359 1.346 . S
C359 N358 1.346 . S
C359 C360 1.396 . S
C359 C369 1.510 1_545 S
C360 C356 1.401 . S
C360 C359 1.396 . S
C361 C356 1.499 . S
C361 H362 0.959 . S
C361 H363 0.960 . S
C361 H364 0.961 . S
H362 C361 0.959 . S
H363 C361 0.960 . S
H364 C361 0.961 . S
O365 Co340 1.967 . S
O365 C373 1.258 . S
O366 Co341 1.941 . S
O366 C373 1.266 . S
H367 C369 0.959 . S
H368 C369 0.961 . S
C369 C359 1.510 1_565 S
C369 H367 0.959 . S
C369 H368 0.961 . S
C369 H370 0.960 . S
H370 C369 0.960 . S
H371 N351 0.862 . S
O372 Co340 1.920 . S
O372 C345 1.289 . S
C373 O365 1.258 . S
C373 O366 1.266 . S
Co374 O377 1.970 . S
Co374 N391 1.989 . S
Co374 O399 1.967 . S
Co374 O406 1.920 . S
Co375 O378 1.966 . S
Co375 N384 2.022 . S
Co375 N392 1.993 . S
Co375 O400 1.941 . S
C376 O377 1.258 . S
C376 O378 1.263 . S
O377 Co374 1.970 . S
O377 C376 1.258 . S
O378 Co375 1.966 . S
O378 C376 1.263 . S
C379 O380 1.235 . S
C379 O406 1.289 . S
O380 C379 1.235 . S
C381 C383 1.400 . S
C381 N384 1.351 . S
C381 C386 1.501 . S
C382 C383 1.387 . S
C382 N385 1.341 . S
C383 C381 1.400 . S
C383 C382 1.387 . S
N384 Co375 2.022 . S
N384 C381 1.351 . S
N384 N385 1.365 . S
N385 C382 1.341 . S
N385 N384 1.365 . S
N385 H405 0.862 . S
C386 C381 1.501 . S
C386 H387 0.961 . S
C386 H388 0.961 . S
C386 H389 0.960 . S
H387 C386 0.961 . S
H388 C386 0.961 . S
H389 C386 0.960 . S
C390 N391 1.342 . S
C390 C394 1.401 . S
C390 C395 1.499 1_556 S
N391 Co374 1.989 . S
N391 C390 1.342 . S
N391 N392 1.388 . S
N392 Co375 1.993 . S
N392 N391 1.388 . S
N392 C393 1.346 . S
C393 N392 1.346 . S
C393 C394 1.396 . S
C393 C403 1.510 . S
C394 C390 1.401 . S
C394 C393 1.396 . S
C395 C390 1.499 1_554 S
C395 H396 0.959 . S
C395 H397 0.960 . S
C395 H398 0.961 . S
H396 C395 0.959 . S
H397 C395 0.960 . S
H398 C395 0.961 . S
O399 Co374 1.967 . S
O399 C407 1.258 . S
O400 Co375 1.941 . S
O400 C407 1.266 . S
H401 C403 0.959 . S
H402 C403 0.961 . S
C403 C393 1.510 . S
C403 H401 0.959 . S
C403 H402 0.961 . S
C403 H404 0.960 . S
H404 C403 0.960 . S
H405 N385 0.862 . S
O406 Co374 1.920 . S
O406 C379 1.289 . S
C407 O399 1.258 . S
C407 O400 1.266 . S
Co408 O411 1.970 . S
Co408 N425 1.989 . S
Co408 O433 1.967 1_655 S
Co408 O440 1.920 1_655 S
Co409 O412 1.966 . S
Co409 N418 2.022 1_545 S
Co409 N426 1.993 . S
Co409 O434 1.941 . S
C410 O411 1.258 . S
C410 O412 1.263 . S
O411 Co408 1.970 . S
O411 C410 1.258 . S
O412 Co409 1.966 . S
O412 C410 1.263 . S
C413 O414 1.235 . S
C413 O440 1.289 1_655 S
O414 C413 1.235 . S
C415 C417 1.400 . S
C415 N418 1.351 . S
C415 C420 1.501 1_565 S
C416 C417 1.387 . S
C416 N419 1.341 . S
C417 C415 1.400 . S
C417 C416 1.387 . S
N418 Co409 2.022 1_565 S
N418 C415 1.351 . S
N418 N419 1.365 . S
N419 C416 1.341 . S
N419 N418 1.365 . S
N419 H439 0.862 . S
C420 C415 1.501 1_545 S
C420 H421 0.961 . S
C420 H422 0.961 . S
C420 H423 0.960 . S
H421 C420 0.961 . S
H422 C420 0.961 . S
H423 C420 0.960 . S
C424 N425 1.342 . S
C424 C428 1.401 . S
C424 C429 1.507 . S
N425 Co408 1.989 . S
N425 C424 1.342 . S
N425 N426 1.388 . S
N426 Co409 1.993 . S
N426 N425 1.388 . S
N426 C427 1.346 . S
C427 N426 1.346 . S
C427 C428 1.396 . S
C427 C437 1.510 1_545 S
C428 C424 1.401 . S
C428 C427 1.396 . S
C429 C424 1.507 . S
C429 H430 0.955 1_655 S
C429 H431 0.969 . S
C429 H432 0.949 1_655 S
H430 C429 0.955 1_455 S
H431 C429 0.969 . S
H432 C429 0.949 1_455 S
O433 Co408 1.967 1_455 S
O433 C441 1.258 . S
O434 Co409 1.941 . S
O434 C441 1.267 1_655 S
H435 C437 0.959 . S
H436 C437 0.961 . S
C437 C427 1.510 1_565 S
C437 H435 0.959 . S
C437 H436 0.961 . S
C437 H438 0.960 . S
H438 C437 0.960 . S
H439 N419 0.862 . S
O440 Co408 1.920 1_455 S
O440 C413 1.289 1_455 S
C441 O433 1.258 . S
C441 O434 1.267 1_455 S
Co442 O445 1.970 . S
Co442 N459 1.989 . S
Co442 O467 1.967 . S
Co442 O474 1.920 . S
Co443 O446 1.966 . S
Co443 N452 2.022 . S
Co443 N460 1.993 . S
Co443 O468 1.941 . S
C444 O445 1.258 . S
C444 O446 1.263 . S
O445 Co442 1.970 . S
O445 C444 1.258 . S
O446 Co443 1.966 . S
O446 C444 1.263 . S
C447 O448 1.235 . S
C447 O474 1.289 . S
O448 C447 1.235 . S
C449 C451 1.400 . S
C449 N452 1.351 . S
C449 C454 1.501 . S
C450 C451 1.387 . S
C450 N453 1.341 . S
C451 C449 1.400 . S
C451 C450 1.387 . S
N452 Co443 2.022 . S
N452 C449 1.351 . S
N452 N453 1.365 . S
N453 C450 1.341 . S
N453 N452 1.365 . S
N453 H473 0.862 . S
C454 C449 1.501 . S
C454 H455 0.961 . S
C454 H456 0.961 . S
C454 H457 0.960 . S
H455 C454 0.961 . S
H456 C454 0.961 . S
H457 C454 0.960 . S
C458 N459 1.342 . S
C458 C462 1.401 . S
C458 C463 1.499 . S
N459 Co442 1.989 . S
N459 C458 1.342 . S
N459 N460 1.388 . S
N460 Co443 1.993 . S
N460 N459 1.388 . S
N460 C461 1.346 . S
C461 N460 1.346 . S
C461 C462 1.396 . S
C461 C471 1.510 . S
C462 C458 1.401 . S
C462 C461 1.396 . S
C463 C458 1.499 . S
C463 H464 0.959 . S
C463 H465 0.960 . S
C463 H466 0.961 . S
H464 C463 0.959 . S
H465 C463 0.960 . S
H466 C463 0.961 . S
O467 Co442 1.967 . S
O467 C475 1.258 . S
O468 Co443 1.941 . S
O468 C475 1.266 . S
H469 C471 0.959 . S
H470 C471 0.961 . S
C471 C461 1.510 . S
C471 H469 0.959 . S
C471 H470 0.961 . S
C471 H472 0.960 . S
H472 C471 0.960 . S
H473 N453 0.862 . S
O474 Co442 1.920 . S
O474 C447 1.289 . S
C475 O467 1.258 . S
C475 O468 1.266 . S
Co476 O479 1.970 . S
Co476 N493 1.989 . S
Co476 O501 1.967 . S
Co476 O508 1.920 . S
Co477 O480 1.966 . S
Co477 N486 2.022 1_565 S
Co477 N494 1.993 . S
Co477 O502 1.941 . S
C478 O479 1.258 . S
C478 O480 1.263 . S
O479 Co476 1.970 . S
O479 C478 1.258 . S
O480 Co477 1.966 . S
O480 C478 1.263 . S
C481 O482 1.235 . S
C481 O508 1.289 . S
O482 C481 1.235 . S
C483 C485 1.400 . S
C483 N486 1.351 . S
C483 C488 1.501 1_545 S
C484 C485 1.387 . S
C484 N487 1.341 . S
C485 C483 1.400 . S
C485 C484 1.387 . S
N486 Co477 2.022 1_545 S
N486 C483 1.351 . S
N486 N487 1.365 . S
N487 C484 1.341 . S
N487 N486 1.365 . S
N487 H507 0.862 . S
C488 C483 1.501 1_565 S
C488 H489 0.961 . S
C488 H490 0.961 . S
C488 H491 0.960 . S
H489 C488 0.961 . S
H490 C488 0.961 . S
H491 C488 0.960 . S
C492 N493 1.342 . S
C492 C496 1.401 . S
C492 C497 1.499 . S
N493 Co476 1.989 . S
N493 C492 1.342 . S
N493 N494 1.388 . S
N494 Co477 1.993 . S
N494 N493 1.388 . S
N494 C495 1.346 . S
C495 N494 1.346 . S
C495 C496 1.396 . S
C495 C505 1.510 1_565 S
C496 C492 1.401 . S
C496 C495 1.396 . S
C497 C492 1.499 . S
C497 H498 0.959 . S
C497 H499 0.960 . S
C497 H500 0.961 . S
H498 C497 0.959 . S
H499 C497 0.960 . S
H500 C497 0.961 . S
O501 Co476 1.967 . S
O501 C509 1.258 . S
O502 Co477 1.941 . S
O502 C509 1.266 . S
H503 C505 0.959 . S
H504 C505 0.961 . S
C505 C495 1.510 1_545 S
C505 H503 0.959 . S
C505 H504 0.961 . S
C505 H506 0.960 . S
H506 C505 0.960 . S
H507 N487 0.862 . S
O508 Co476 1.920 . S
O508 C481 1.289 . S
C509 O501 1.258 . S
C509 O502 1.266 . S
Co510 O513 1.970 . S
Co510 N527 1.989 . S
Co510 O535 1.967 . S
Co510 O542 1.920 . S
Co511 O514 1.966 . S
Co511 N520 2.022 . S
Co511 N528 1.993 . S
Co511 O536 1.941 . S
C512 O513 1.258 . S
C512 O514 1.263 . S
O513 Co510 1.970 . S
O513 C512 1.258 . S
O514 Co511 1.966 . S
O514 C512 1.263 . S
C515 O516 1.235 . S
C515 O542 1.289 . S
O516 C515 1.235 . S
C517 C519 1.400 . S
C517 N520 1.351 . S
C517 C522 1.501 . S
C518 C519 1.387 . S
C518 N521 1.341 . S
C519 C517 1.400 . S
C519 C518 1.387 . S
N520 Co511 2.022 . S
N520 C517 1.351 . S
N520 N521 1.365 . S
N521 C518 1.341 . S
N521 N520 1.365 . S
N521 H541 0.862 . S
C522 C517 1.501 . S
C522 H523 0.961 . S
C522 H524 0.961 . S
C522 H525 0.960 . S
H523 C522 0.961 . S
H524 C522 0.961 . S
H525 C522 0.960 . S
C526 N527 1.342 . S
C526 C530 1.401 . S
C526 C531 1.499 1_554 S
N527 Co510 1.989 . S
N527 C526 1.342 . S
N527 N528 1.388 . S
N528 Co511 1.993 . S
N528 N527 1.388 . S
N528 C529 1.346 . S
C529 N528 1.346 . S
C529 C530 1.396 . S
C529 C539 1.510 . S
C530 C526 1.401 . S
C530 C529 1.396 . S
C531 C526 1.499 1_556 S
C531 H532 0.959 . S
C531 H533 0.960 . S
C531 H534 0.961 . S
H532 C531 0.959 . S
H533 C531 0.960 . S
H534 C531 0.961 . S
O535 Co510 1.967 . S
O535 C543 1.258 . S
O536 Co511 1.941 . S
O536 C543 1.266 . S
H537 C539 0.959 . S
H538 C539 0.961 . S
C539 C529 1.510 . S
C539 H537 0.959 . S
C539 H538 0.961 . S
C539 H540 0.960 . S
H540 C539 0.960 . S
H541 N521 0.862 . S
O542 Co510 1.920 . S
O542 C515 1.289 . S
C543 O535 1.258 . S
C543 O536 1.266 . S
Co544 O547 1.970 . S
Co544 N561 1.989 . S
Co544 O569 1.967 . S
Co544 O576 1.920 . S
Co545 O548 1.966 . S
Co545 N554 2.022 . S
Co545 N562 1.993 . S
Co545 O570 1.941 . S
C546 O547 1.258 . S
C546 O548 1.263 . S
O547 Co544 1.970 . S
O547 C546 1.258 . S
O548 Co545 1.966 . S
O548 C546 1.263 . S
C549 O550 1.235 . S
C549 O576 1.289 . S
O550 C549 1.235 . S
C551 C553 1.400 . S
C551 N554 1.351 . S
C551 C556 1.501 . S
C552 C553 1.387 . S
C552 N555 1.341 . S
C553 C551 1.400 . S
C553 C552 1.387 . S
N554 Co545 2.022 . S
N554 C551 1.351 . S
N554 N555 1.365 . S
N555 C552 1.341 . S
N555 N554 1.365 . S
N555 H575 0.862 . S
C556 C551 1.501 . S
C556 H557 0.961 . S
C556 H558 0.961 . S
C556 H559 0.960 . S
H557 C556 0.961 . S
H558 C556 0.961 . S
H559 C556 0.960 . S
C560 N561 1.342 . S
C560 C564 1.401 . S
C560 C565 1.499 . S
N561 Co544 1.989 . S
N561 C560 1.342 . S
N561 N562 1.388 . S
N562 Co545 1.993 . S
N562 N561 1.388 . S
N562 C563 1.346 . S
C563 N562 1.346 . S
C563 C564 1.396 . S
C563 C573 1.510 . S
C564 C560 1.401 . S
C564 C563 1.396 . S
C565 C560 1.499 . S
C565 H566 0.959 . S
C565 H567 0.960 . S
C565 H568 0.961 . S
H566 C565 0.959 . S
H567 C565 0.960 . S
H568 C565 0.961 . S
O569 Co544 1.967 . S
O569 C577 1.258 . S
O570 Co545 1.941 . S
O570 C577 1.266 . S
H571 C573 0.959 . S
H572 C573 0.961 . S
C573 C563 1.510 . S
C573 H571 0.959 . S
C573 H572 0.961 . S
C573 H574 0.960 . S
H574 C573 0.960 . S
H575 N555 0.862 . S
O576 Co544 1.920 . S
O576 C549 1.289 . S
C577 O569 1.258 . S
C577 O570 1.266 . S
Co578 O581 1.970 . S
Co578 N595 1.989 . S
Co578 O603 1.967 . S
Co578 O610 1.920 . S
Co579 O582 1.966 . S
Co579 N588 2.022 . S
Co579 N596 1.993 . S
Co579 O604 1.941 . S
C580 O581 1.258 . S
C580 O582 1.263 . S
O581 Co578 1.970 . S
O581 C580 1.258 . S
O582 Co579 1.966 . S
O582 C580 1.263 . S
C583 O584 1.235 . S
C583 O610 1.289 . S
O584 C583 1.235 . S
C585 C587 1.400 . S
C585 N588 1.351 . S
C585 C590 1.501 . S
C586 C587 1.387 . S
C586 N589 1.341 . S
C587 C585 1.400 . S
C587 C586 1.387 . S
N588 Co579 2.022 . S
N588 C585 1.351 . S
N588 N589 1.365 . S
N589 C586 1.341 . S
N589 N588 1.365 . S
N589 H609 0.862 . S
C590 C585 1.501 . S
C590 H591 0.961 . S
C590 H592 0.961 . S
C590 H593 0.960 . S
H591 C590 0.961 . S
H592 C590 0.961 . S
H593 C590 0.960 . S
C594 N595 1.342 . S
C594 C598 1.401 . S
C594 C599 1.499 1_554 S
N595 Co578 1.989 . S
N595 C594 1.342 . S
N595 N596 1.388 . S
N596 Co579 1.993 . S
N596 N595 1.388 . S
N596 C597 1.346 . S
C597 N596 1.346 . S
C597 C598 1.396 . S
C597 C607 1.510 . S
C598 C594 1.401 . S
C598 C597 1.396 . S
C599 C594 1.499 1_556 S
C599 H600 0.959 . S
C599 H601 0.960 . S
C599 H602 0.961 . S
H600 C599 0.959 . S
H601 C599 0.960 . S
H602 C599 0.961 . S
O603 Co578 1.967 . S
O603 C611 1.258 . S
O604 Co579 1.941 . S
O604 C611 1.266 . S
H605 C607 0.959 . S
H606 C607 0.961 . S
C607 C597 1.510 . S
C607 H605 0.959 . S
C607 H606 0.961 . S
C607 H608 0.960 . S
H608 C607 0.960 . S
H609 N589 0.862 . S
O610 Co578 1.920 . S
O610 C583 1.289 . S
C611 O603 1.258 . S
C611 O604 1.266 . S
Co612 O615 1.970 . S
Co612 N629 1.989 . S
Co612 O637 1.967 1_655 S
Co612 O644 1.920 1_655 S
Co613 O616 1.966 . S
Co613 N622 2.022 . S
Co613 N630 1.993 . S
Co613 O638 1.941 . S
C614 O615 1.258 . S
C614 O616 1.263 . S
O615 Co612 1.970 . S
O615 C614 1.258 . S
O616 Co613 1.966 . S
O616 C614 1.263 . S
C617 O618 1.235 . S
C617 O644 1.289 1_655 S
O618 C617 1.235 . S
C619 C621 1.400 . S
C619 N622 1.351 . S
C619 C624 1.501 . S
C620 C621 1.387 . S
C620 N623 1.341 . S
C621 C619 1.400 . S
C621 C620 1.387 . S
N622 Co613 2.022 . S
N622 C619 1.351 . S
N622 N623 1.365 . S
N623 C620 1.341 . S
N623 N622 1.365 . S
N623 H643 0.862 . S
C624 C619 1.501 . S
C624 H625 0.961 . S
C624 H626 0.961 . S
C624 H627 0.960 . S
H625 C624 0.961 . S
H626 C624 0.961 . S
H627 C624 0.960 . S
C628 N629 1.342 . S
C628 C632 1.401 . S
C628 C633 1.507 . S
N629 Co612 1.989 . S
N629 C628 1.342 . S
N629 N630 1.388 . S
N630 Co613 1.993 . S
N630 N629 1.388 . S
N630 C631 1.346 . S
C631 N630 1.346 . S
C631 C632 1.396 . S
C631 C641 1.510 . S
C632 C628 1.401 . S
C632 C631 1.396 . S
C633 C628 1.507 . S
C633 H634 0.955 1_655 S
C633 H635 0.969 . S
C633 H636 0.949 1_655 S
H634 C633 0.955 1_455 S
H635 C633 0.969 . S
H636 C633 0.949 1_455 S
O637 Co612 1.967 1_455 S
O637 C645 1.258 . S
O638 Co613 1.941 . S
O638 C645 1.267 1_655 S
H639 C641 0.959 . S
H640 C641 0.961 . S
C641 C631 1.510 . S
C641 H639 0.959 . S
C641 H640 0.961 . S
C641 H642 0.960 . S
H642 C641 0.960 . S
H643 N623 0.862 . S
O644 Co612 1.920 1_455 S
O644 C617 1.289 1_455 S
C645 O637 1.258 . S
C645 O638 1.267 1_455 S
Co646 O649 1.970 . S
Co646 N663 1.989 . S
Co646 O671 1.967 . S
Co646 O678 1.920 . S
Co647 O650 1.966 . S
Co647 N656 2.022 . S
Co647 N664 1.993 . S
Co647 O672 1.941 . S
C648 O649 1.258 . S
C648 O650 1.263 . S
O649 Co646 1.970 . S
O649 C648 1.258 . S
O650 Co647 1.966 . S
O650 C648 1.263 . S
C651 O652 1.235 . S
C651 O678 1.289 . S
O652 C651 1.235 . S
C653 C655 1.400 . S
C653 N656 1.351 . S
C653 C658 1.501 . S
C654 C655 1.387 . S
C654 N657 1.341 . S
C655 C653 1.400 . S
C655 C654 1.387 . S
N656 Co647 2.022 . S
N656 C653 1.351 . S
N656 N657 1.365 . S
N657 C654 1.341 . S
N657 N656 1.365 . S
N657 H677 0.862 . S
C658 C653 1.501 . S
C658 H659 0.961 . S
C658 H660 0.961 . S
C658 H661 0.960 . S
H659 C658 0.961 . S
H660 C658 0.961 . S
H661 C658 0.960 . S
C662 N663 1.342 . S
C662 C666 1.401 . S
C662 C667 1.499 . S
N663 Co646 1.989 . S
N663 C662 1.342 . S
N663 N664 1.388 . S
N664 Co647 1.993 . S
N664 N663 1.388 . S
N664 C665 1.346 . S
C665 N664 1.346 . S
C665 C666 1.396 . S
C665 C675 1.510 . S
C666 C662 1.401 . S
C666 C665 1.396 . S
C667 C662 1.499 . S
C667 H668 0.959 . S
C667 H669 0.960 . S
C667 H670 0.961 . S
H668 C667 0.959 . S
H669 C667 0.960 . S
H670 C667 0.961 . S
O671 Co646 1.967 . S
O671 C679 1.258 . S
O672 Co647 1.941 . S
O672 C679 1.266 . S
H673 C675 0.959 . S
H674 C675 0.961 . S
C675 C665 1.510 . S
C675 H673 0.959 . S
C675 H674 0.961 . S
C675 H676 0.960 . S
H676 C675 0.960 . S
H677 N657 0.862 . S
O678 Co646 1.920 . S
O678 C651 1.289 . S
C679 O671 1.258 . S
C679 O672 1.266 . S
Co680 O683 1.970 . S
Co680 N697 1.989 . S
Co680 O705 1.967 . S
Co680 O712 1.920 . S
Co681 O684 1.966 . S
Co681 N690 2.022 . S
Co681 N698 1.993 . S
Co681 O706 1.941 . S
C682 O683 1.258 . S
C682 O684 1.263 . S
O683 Co680 1.970 . S
O683 C682 1.258 . S
O684 Co681 1.966 . S
O684 C682 1.263 . S
C685 O686 1.235 . S
C685 O712 1.289 . S
O686 C685 1.235 . S
C687 C689 1.400 . S
C687 N690 1.351 . S
C687 C692 1.501 . S
C688 C689 1.387 . S
C688 N691 1.341 . S
C689 C687 1.400 . S
C689 C688 1.387 . S
N690 Co681 2.022 . S
N690 C687 1.351 . S
N690 N691 1.365 . S
N691 C688 1.341 . S
N691 N690 1.365 . S
N691 H711 0.862 . S
C692 C687 1.501 . S
C692 H693 0.961 . S
C692 H694 0.961 . S
C692 H695 0.960 . S
H693 C692 0.961 . S
H694 C692 0.961 . S
H695 C692 0.960 . S
C696 N697 1.342 . S
C696 C700 1.401 . S
C696 C701 1.499 . S
N697 Co680 1.989 . S
N697 C696 1.342 . S
N697 N698 1.388 . S
N698 Co681 1.993 . S
N698 N697 1.388 . S
N698 C699 1.346 . S
C699 N698 1.346 . S
C699 C700 1.396 . S
C699 C709 1.510 . S
C700 C696 1.401 . S
C700 C699 1.396 . S
C701 C696 1.499 . S
C701 H702 0.959 . S
C701 H703 0.960 . S
C701 H704 0.961 . S
H702 C701 0.959 . S
H703 C701 0.960 . S
H704 C701 0.961 . S
O705 Co680 1.967 . S
O705 C713 1.258 . S
O706 Co681 1.941 . S
O706 C713 1.266 . S
H707 C709 0.959 . S
H708 C709 0.961 . S
C709 C699 1.510 . S
C709 H707 0.959 . S
C709 H708 0.961 . S
C709 H710 0.960 . S
H710 C709 0.960 . S
H711 N691 0.862 . S
O712 Co680 1.920 . S
O712 C685 1.289 . S
C713 O705 1.258 . S
C713 O706 1.266 . S
Co714 O717 1.970 . S
Co714 N731 1.989 . S
Co714 O739 1.967 . S
Co714 O746 1.920 . S
Co715 O718 1.966 . S
Co715 N724 2.022 . S
Co715 N732 1.993 . S
Co715 O740 1.941 . S
C716 O717 1.258 . S
C716 O718 1.263 . S
O717 Co714 1.970 . S
O717 C716 1.258 . S
O718 Co715 1.966 . S
O718 C716 1.263 . S
C719 O720 1.235 . S
C719 O746 1.289 . S
O720 C719 1.235 . S
C721 C723 1.400 . S
C721 N724 1.351 . S
C721 C726 1.501 . S
C722 C723 1.387 . S
C722 N725 1.341 . S
C723 C721 1.400 . S
C723 C722 1.387 . S
N724 Co715 2.022 . S
N724 C721 1.351 . S
N724 N725 1.365 . S
N725 C722 1.341 . S
N725 N724 1.365 . S
N725 H745 0.862 . S
C726 C721 1.501 . S
C726 H727 0.961 . S
C726 H728 0.961 . S
C726 H729 0.960 . S
H727 C726 0.961 . S
H728 C726 0.961 . S
H729 C726 0.960 . S
C730 N731 1.342 . S
C730 C734 1.401 . S
C730 C735 1.499 1_556 S
N731 Co714 1.989 . S
N731 C730 1.342 . S
N731 N732 1.388 . S
N732 Co715 1.993 . S
N732 N731 1.388 . S
N732 C733 1.346 . S
C733 N732 1.346 . S
C733 C734 1.396 . S
C733 C743 1.510 . S
C734 C730 1.401 . S
C734 C733 1.396 . S
C735 C730 1.499 1_554 S
C735 H736 0.959 . S
C735 H737 0.960 . S
C735 H738 0.961 . S
H736 C735 0.959 . S
H737 C735 0.960 . S
H738 C735 0.961 . S
O739 Co714 1.967 . S
O739 C747 1.258 . S
O740 Co715 1.941 . S
O740 C747 1.266 . S
H741 C743 0.959 . S
H742 C743 0.961 . S
C743 C733 1.510 . S
C743 H741 0.959 . S
C743 H742 0.961 . S
C743 H744 0.960 . S
H744 C743 0.960 . S
H745 N725 0.862 . S
O746 Co714 1.920 . S
O746 C719 1.289 . S
C747 O739 1.258 . S
C747 O740 1.266 . S
Co748 O751 1.970 . S
Co748 N765 1.989 . S
Co748 O773 1.967 1_655 S
Co748 O780 1.920 1_655 S
Co749 O752 1.966 . S
Co749 N758 2.022 . S
Co749 N766 1.993 . S
Co749 O774 1.941 . S
C750 O751 1.258 . S
C750 O752 1.263 . S
O751 Co748 1.970 . S
O751 C750 1.258 . S
O752 Co749 1.966 . S
O752 C750 1.263 . S
C753 O754 1.235 . S
C753 O780 1.289 1_655 S
O754 C753 1.235 . S
C755 C757 1.400 . S
C755 N758 1.351 . S
C755 C760 1.501 . S
C756 C757 1.387 . S
C756 N759 1.341 . S
C757 C755 1.400 . S
C757 C756 1.387 . S
N758 Co749 2.022 . S
N758 C755 1.351 . S
N758 N759 1.365 . S
N759 C756 1.341 . S
N759 N758 1.365 . S
N759 H779 0.862 . S
C760 C755 1.501 . S
C760 H761 0.961 . S
C760 H762 0.961 . S
C760 H763 0.960 . S
H761 C760 0.961 . S
H762 C760 0.961 . S
H763 C760 0.960 . S
C764 N765 1.342 . S
C764 C768 1.401 . S
C764 C769 1.507 . S
N765 Co748 1.989 . S
N765 C764 1.342 . S
N765 N766 1.388 . S
N766 Co749 1.993 . S
N766 N765 1.388 . S
N766 C767 1.346 . S
C767 N766 1.346 . S
C767 C768 1.396 . S
C767 C777 1.510 . S
C768 C764 1.401 . S
C768 C767 1.396 . S
C769 C764 1.507 . S
C769 H770 0.955 1_655 S
C769 H771 0.969 . S
C769 H772 0.949 1_655 S
H770 C769 0.955 1_455 S
H771 C769 0.969 . S
H772 C769 0.949 1_455 S
O773 Co748 1.967 1_455 S
O773 C781 1.258 . S
O774 Co749 1.941 . S
O774 C781 1.267 1_655 S
H775 C777 0.959 . S
H776 C777 0.961 . S
C777 C767 1.510 . S
C777 H775 0.959 . S
C777 H776 0.961 . S
C777 H778 0.960 . S
H778 C777 0.960 . S
H779 N759 0.862 . S
O780 Co748 1.920 1_455 S
O780 C753 1.289 1_455 S
C781 O773 1.258 . S
C781 O774 1.267 1_455 S
Co782 O785 1.970 . S
Co782 N799 1.989 . S
Co782 O807 1.967 . S
Co782 O814 1.920 . S
Co783 O786 1.966 . S
Co783 N792 2.022 . S
Co783 N800 1.993 . S
Co783 O808 1.941 . S
C784 O785 1.258 . S
C784 O786 1.263 . S
O785 Co782 1.970 . S
O785 C784 1.258 . S
O786 Co783 1.966 . S
O786 C784 1.263 . S
C787 O788 1.235 . S
C787 O814 1.289 . S
O788 C787 1.235 . S
C789 C791 1.400 . S
C789 N792 1.351 . S
C789 C794 1.501 . S
C790 C791 1.387 . S
C790 N793 1.341 . S
C791 C789 1.400 . S
C791 C790 1.387 . S
N792 Co783 2.022 . S
N792 C789 1.351 . S
N792 N793 1.365 . S
N793 C790 1.341 . S
N793 N792 1.365 . S
N793 H813 0.862 . S
C794 C789 1.501 . S
C794 H795 0.961 . S
C794 H796 0.961 . S
C794 H797 0.960 . S
H795 C794 0.961 . S
H796 C794 0.961 . S
H797 C794 0.960 . S
C798 N799 1.342 . S
C798 C802 1.401 . S
C798 C803 1.499 . S
N799 Co782 1.989 . S
N799 C798 1.342 . S
N799 N800 1.388 . S
N800 Co783 1.993 . S
N800 N799 1.388 . S
N800 C801 1.346 . S
C801 N800 1.346 . S
C801 C802 1.396 . S
C801 C811 1.510 . S
C802 C798 1.401 . S
C802 C801 1.396 . S
C803 C798 1.499 . S
C803 H804 0.959 . S
C803 H805 0.960 . S
C803 H806 0.961 . S
H804 C803 0.959 . S
H805 C803 0.960 . S
H806 C803 0.961 . S
O807 Co782 1.967 . S
O807 C815 1.258 . S
O808 Co783 1.941 . S
O808 C815 1.266 . S
H809 C811 0.959 . S
H810 C811 0.961 . S
C811 C801 1.510 . S
C811 H809 0.959 . S
C811 H810 0.961 . S
C811 H812 0.960 . S
H812 C811 0.960 . S
H813 N793 0.862 . S
O814 Co782 1.920 . S
O814 C787 1.289 . S
C815 O807 1.258 . S
C815 O808 1.266 . S
Co816 O819 1.970 . S
Co816 N833 1.989 . S
Co816 O841 1.967 . S
Co816 O848 1.920 . S
Co817 O820 1.966 . S
Co817 N826 2.022 . S
Co817 N834 1.993 . S
Co817 O842 1.941 . S
C818 O819 1.258 . S
C818 O820 1.263 . S
O819 Co816 1.970 . S
O819 C818 1.258 . S
O820 Co817 1.966 . S
O820 C818 1.263 . S
C821 O822 1.235 . S
C821 O848 1.289 . S
O822 C821 1.235 . S
C823 C825 1.400 . S
C823 N826 1.351 . S
C823 C828 1.501 . S
C824 C825 1.387 . S
C824 N827 1.341 . S
C825 C823 1.400 . S
C825 C824 1.387 . S
N826 Co817 2.022 . S
N826 C823 1.351 . S
N826 N827 1.365 . S
N827 C824 1.341 . S
N827 N826 1.365 . S
N827 H847 0.862 . S
C828 C823 1.501 . S
C828 H829 0.961 . S
C828 H830 0.961 . S
C828 H831 0.960 . S
H829 C828 0.961 . S
H830 C828 0.961 . S
H831 C828 0.960 . S
C832 N833 1.342 . S
C832 C836 1.401 . S
C832 C837 1.499 . S
N833 Co816 1.989 . S
N833 C832 1.342 . S
N833 N834 1.388 . S
N834 Co817 1.993 . S
N834 N833 1.388 . S
N834 C835 1.346 . S
C835 N834 1.346 . S
C835 C836 1.396 . S
C835 C845 1.510 . S
C836 C832 1.401 . S
C836 C835 1.396 . S
C837 C832 1.499 . S
C837 H838 0.959 . S
C837 H839 0.960 . S
C837 H840 0.961 . S
H838 C837 0.959 . S
H839 C837 0.960 . S
H840 C837 0.961 . S
O841 Co816 1.967 . S
O841 C849 1.258 . S
O842 Co817 1.941 . S
O842 C849 1.266 . S
H843 C845 0.959 . S
H844 C845 0.961 . S
C845 C835 1.510 . S
C845 H843 0.959 . S
C845 H844 0.961 . S
C845 H846 0.960 . S
H846 C845 0.960 . S
H847 N827 0.862 . S
O848 Co816 1.920 . S
O848 C821 1.289 . S
C849 O841 1.258 . S
C849 O842 1.266 . S
Co850 O853 1.970 . S
Co850 N867 1.989 . S
Co850 O875 1.967 . S
Co850 O882 1.920 . S
Co851 O854 1.966 . S
Co851 N860 2.022 . S
Co851 N868 1.993 . S
Co851 O876 1.941 . S
C852 O853 1.258 . S
C852 O854 1.263 . S
O853 Co850 1.970 . S
O853 C852 1.258 . S
O854 Co851 1.966 . S
O854 C852 1.263 . S
C855 O856 1.235 . S
C855 O882 1.289 . S
O856 C855 1.235 . S
C857 C859 1.400 . S
C857 N860 1.351 . S
C857 C862 1.501 . S
C858 C859 1.387 . S
C858 N861 1.341 . S
C859 C857 1.400 . S
C859 C858 1.387 . S
N860 Co851 2.022 . S
N860 C857 1.351 . S
N860 N861 1.365 . S
N861 C858 1.341 . S
N861 N860 1.365 . S
N861 H881 0.862 . S
C862 C857 1.501 . S
C862 H863 0.961 . S
C862 H864 0.961 . S
C862 H865 0.960 . S
H863 C862 0.961 . S
H864 C862 0.961 . S
H865 C862 0.960 . S
C866 N867 1.342 . S
C866 C870 1.401 . S
C866 C871 1.499 1_556 S
N867 Co850 1.989 . S
N867 C866 1.342 . S
N867 N868 1.388 . S
N868 Co851 1.993 . S
N868 N867 1.388 . S
N868 C869 1.346 . S
C869 N868 1.346 . S
C869 C870 1.396 . S
C869 C879 1.510 . S
C870 C866 1.401 . S
C870 C869 1.396 . S
C871 C866 1.499 1_554 S
C871 H872 0.959 . S
C871 H873 0.960 . S
C871 H874 0.961 . S
H872 C871 0.959 . S
H873 C871 0.960 . S
H874 C871 0.961 . S
O875 Co850 1.967 . S
O875 C883 1.258 . S
O876 Co851 1.941 . S
O876 C883 1.266 . S
H877 C879 0.959 . S
H878 C879 0.961 . S
C879 C869 1.510 . S
C879 H877 0.959 . S
C879 H878 0.961 . S
C879 H880 0.960 . S
H880 C879 0.960 . S
H881 N861 0.862 . S
O882 Co850 1.920 . S
O882 C855 1.289 . S
C883 O875 1.258 . S
C883 O876 1.266 . S
Co884 O887 1.970 . S
Co884 N901 1.989 . S
Co884 O909 1.967 1_455 S
Co884 O916 1.920 1_455 S
Co885 O888 1.966 . S
Co885 N894 2.022 . S
Co885 N902 1.993 . S
Co885 O910 1.941 . S
C886 O887 1.258 . S
C886 O888 1.263 . S
O887 Co884 1.970 . S
O887 C886 1.258 . S
O888 Co885 1.966 . S
O888 C886 1.263 . S
C889 O890 1.235 . S
C889 O916 1.289 1_455 S
O890 C889 1.235 . S
C891 C893 1.400 . S
C891 N894 1.351 . S
C891 C896 1.501 . S
C892 C893 1.387 . S
C892 N895 1.341 . S
C893 C891 1.400 . S
C893 C892 1.387 . S
N894 Co885 2.022 . S
N894 C891 1.351 . S
N894 N895 1.365 . S
N895 C892 1.341 . S
N895 N894 1.365 . S
N895 H915 0.862 . S
C896 C891 1.501 . S
C896 H897 0.961 . S
C896 H898 0.961 . S
C896 H899 0.960 . S
H897 C896 0.961 . S
H898 C896 0.961 . S
H899 C896 0.960 . S
C900 N901 1.342 . S
C900 C904 1.401 . S
C900 C905 1.507 . S
N901 Co884 1.989 . S
N901 C900 1.342 . S
N901 N902 1.388 . S
N902 Co885 1.993 . S
N902 N901 1.388 . S
N902 C903 1.346 . S
C903 N902 1.346 . S
C903 C904 1.396 . S
C903 C913 1.510 . S
C904 C900 1.401 . S
C904 C903 1.396 . S
C905 C900 1.507 . S
C905 H906 0.955 1_455 S
C905 H907 0.969 . S
C905 H908 0.949 1_455 S
H906 C905 0.955 1_655 S
H907 C905 0.969 . S
H908 C905 0.949 1_655 S
O909 Co884 1.967 1_655 S
O909 C917 1.258 . S
O910 Co885 1.941 . S
O910 C917 1.267 1_455 S
H911 C913 0.959 . S
H912 C913 0.961 . S
C913 C903 1.510 . S
C913 H911 0.959 . S
C913 H912 0.961 . S
C913 H914 0.960 . S
H914 C913 0.960 . S
H915 N895 0.862 . S
O916 Co884 1.920 1_655 S
O916 C889 1.289 1_655 S
C917 O909 1.258 . S
C917 O910 1.267 1_655 S
Co918 O921 1.970 . S
Co918 N935 1.989 . S
Co918 O943 1.967 . S
Co918 O950 1.920 . S
Co919 O922 1.966 . S
Co919 N928 2.022 . S
Co919 N936 1.993 . S
Co919 O944 1.941 . S
C920 O921 1.258 . S
C920 O922 1.263 . S
O921 Co918 1.970 . S
O921 C920 1.258 . S
O922 Co919 1.966 . S
O922 C920 1.263 . S
C923 O924 1.235 . S
C923 O950 1.289 . S
O924 C923 1.235 . S
C925 C927 1.400 . S
C925 N928 1.351 . S
C925 C930 1.501 . S
C926 C927 1.387 . S
C926 N929 1.341 . S
C927 C925 1.400 . S
C927 C926 1.387 . S
N928 Co919 2.022 . S
N928 C925 1.351 . S
N928 N929 1.365 . S
N929 C926 1.341 . S
N929 N928 1.365 . S
N929 H949 0.862 . S
C930 C925 1.501 . S
C930 H931 0.961 . S
C930 H932 0.961 . S
C930 H933 0.960 . S
H931 C930 0.961 . S
H932 C930 0.961 . S
H933 C930 0.960 . S
C934 N935 1.342 . S
C934 C938 1.401 . S
C934 C939 1.499 . S
N935 Co918 1.989 . S
N935 C934 1.342 . S
N935 N936 1.388 . S
N936 Co919 1.993 . S
N936 N935 1.388 . S
N936 C937 1.346 . S
C937 N936 1.346 . S
C937 C938 1.396 . S
C937 C947 1.510 . S
C938 C934 1.401 . S
C938 C937 1.396 . S
C939 C934 1.499 . S
C939 H940 0.959 . S
C939 H941 0.960 . S
C939 H942 0.961 . S
H940 C939 0.959 . S
H941 C939 0.960 . S
H942 C939 0.961 . S
O943 Co918 1.967 . S
O943 C951 1.258 . S
O944 Co919 1.941 . S
O944 C951 1.266 . S
H945 C947 0.959 . S
H946 C947 0.961 . S
C947 C937 1.510 . S
C947 H945 0.959 . S
C947 H946 0.961 . S
C947 H948 0.960 . S
H948 C947 0.960 . S
H949 N929 0.862 . S
O950 Co918 1.920 . S
O950 C923 1.289 . S
C951 O943 1.258 . S
C951 O944 1.266 . S
Co952 O955 1.970 . S
Co952 N969 1.989 . S
Co952 O977 1.967 . S
Co952 O984 1.920 . S
Co953 O956 1.966 . S
Co953 N962 2.022 . S
Co953 N970 1.993 . S
Co953 O978 1.941 . S
C954 O955 1.258 . S
C954 O956 1.263 . S
O955 Co952 1.970 . S
O955 C954 1.258 . S
O956 Co953 1.966 . S
O956 C954 1.263 . S
C957 O958 1.235 . S
C957 O984 1.289 . S
O958 C957 1.235 . S
C959 C961 1.400 . S
C959 N962 1.351 . S
C959 C964 1.501 . S
C960 C961 1.387 . S
C960 N963 1.341 . S
C961 C959 1.400 . S
C961 C960 1.387 . S
N962 Co953 2.022 . S
N962 C959 1.351 . S
N962 N963 1.365 . S
N963 C960 1.341 . S
N963 N962 1.365 . S
N963 H983 0.862 . S
C964 C959 1.501 . S
C964 H965 0.961 . S
C964 H966 0.961 . S
C964 H967 0.960 . S
H965 C964 0.961 . S
H966 C964 0.961 . S
H967 C964 0.960 . S
C968 N969 1.342 . S
C968 C972 1.401 . S
C968 C973 1.499 . S
N969 Co952 1.989 . S
N969 C968 1.342 . S
N969 N970 1.388 . S
N970 Co953 1.993 . S
N970 N969 1.388 . S
N970 C971 1.346 . S
C971 N970 1.346 . S
C971 C972 1.396 . S
C971 C981 1.510 . S
C972 C968 1.401 . S
C972 C971 1.396 . S
C973 C968 1.499 . S
C973 H974 0.959 . S
C973 H975 0.960 . S
C973 H976 0.961 . S
H974 C973 0.959 . S
H975 C973 0.960 . S
H976 C973 0.961 . S
O977 Co952 1.967 . S
O977 C985 1.258 . S
O978 Co953 1.941 . S
O978 C985 1.266 . S
H979 C981 0.959 . S
H980 C981 0.961 . S
C981 C971 1.510 . S
C981 H979 0.959 . S
C981 H980 0.961 . S
C981 H982 0.960 . S
H982 C981 0.960 . S
H983 N963 0.862 . S
O984 Co952 1.920 . S
O984 C957 1.289 . S
C985 O977 1.258 . S
C985 O978 1.266 . S
Co986 O989 1.970 . S
Co986 N1003 1.989 . S
Co986 O1011 1.967 . S
Co986 O1018 1.920 . S
Co987 O990 1.966 . S
Co987 N996 2.022 . S
Co987 N1004 1.993 . S
Co987 O1012 1.941 . S
C988 O989 1.258 . S
C988 O990 1.263 . S
O989 Co986 1.970 . S
O989 C988 1.258 . S
O990 Co987 1.966 . S
O990 C988 1.263 . S
C991 O992 1.235 . S
C991 O1018 1.289 . S
O992 C991 1.235 . S
C993 C995 1.400 . S
C993 N996 1.351 . S
C993 C998 1.501 . S
C994 C995 1.387 . S
C994 N997 1.341 . S
C995 C993 1.400 . S
C995 C994 1.387 . S
N996 Co987 2.022 . S
N996 C993 1.351 . S
N996 N997 1.365 . S
N997 C994 1.341 . S
N997 N996 1.365 . S
N997 H1017 0.862 . S
C998 C993 1.501 . S
C998 H999 0.961 . S
C998 H1000 0.961 . S
C998 H1001 0.960 . S
H999 C998 0.961 . S
H1000 C998 0.961 . S
H1001 C998 0.960 . S
C1002 N1003 1.342 . S
C1002 C1006 1.401 . S
C1002 C1007 1.499 1_554 S
N1003 Co986 1.989 . S
N1003 C1002 1.342 . S
N1003 N1004 1.388 . S
N1004 Co987 1.993 . S
N1004 N1003 1.388 . S
N1004 C1005 1.346 . S
C1005 N1004 1.346 . S
C1005 C1006 1.396 . S
C1005 C1015 1.510 . S
C1006 C1002 1.401 . S
C1006 C1005 1.396 . S
C1007 C1002 1.499 1_556 S
C1007 H1008 0.959 . S
C1007 H1009 0.960 . S
C1007 H1010 0.961 . S
H1008 C1007 0.959 . S
H1009 C1007 0.960 . S
H1010 C1007 0.961 . S
O1011 Co986 1.967 . S
O1011 C1019 1.258 . S
O1012 Co987 1.941 . S
O1012 C1019 1.266 . S
H1013 C1015 0.959 . S
H1014 C1015 0.961 . S
C1015 C1005 1.510 . S
C1015 H1013 0.959 . S
C1015 H1014 0.961 . S
C1015 H1016 0.960 . S
H1016 C1015 0.960 . S
H1017 N997 0.862 . S
O1018 Co986 1.920 . S
O1018 C991 1.289 . S
C1019 O1011 1.258 . S
C1019 O1012 1.266 . S
Co1020 O1023 1.970 . S
Co1020 N1037 1.989 . S
Co1020 O1045 1.967 1_455 S
Co1020 O1052 1.920 1_455 S
Co1021 O1024 1.966 . S
Co1021 N1030 2.022 . S
Co1021 N1038 1.993 . S
Co1021 O1046 1.941 . S
C1022 O1023 1.258 . S
C1022 O1024 1.263 . S
O1023 Co1020 1.970 . S
O1023 C1022 1.258 . S
O1024 Co1021 1.966 . S
O1024 C1022 1.263 . S
C1025 O1026 1.235 . S
C1025 O1052 1.289 1_455 S
O1026 C1025 1.235 . S
C1027 C1029 1.400 . S
C1027 N1030 1.351 . S
C1027 C1032 1.501 . S
C1028 C1029 1.387 . S
C1028 N1031 1.341 . S
C1029 C1027 1.400 . S
C1029 C1028 1.387 . S
N1030 Co1021 2.022 . S
N1030 C1027 1.351 . S
N1030 N1031 1.365 . S
N1031 C1028 1.341 . S
N1031 N1030 1.365 . S
N1031 H1051 0.862 . S
C1032 C1027 1.501 . S
C1032 H1033 0.961 . S
C1032 H1034 0.961 . S
C1032 H1035 0.960 . S
H1033 C1032 0.961 . S
H1034 C1032 0.961 . S
H1035 C1032 0.960 . S
C1036 N1037 1.342 . S
C1036 C1040 1.401 . S
C1036 C1041 1.507 . S
N1037 Co1020 1.989 . S
N1037 C1036 1.342 . S
N1037 N1038 1.388 . S
N1038 Co1021 1.993 . S
N1038 N1037 1.388 . S
N1038 C1039 1.346 . S
C1039 N1038 1.346 . S
C1039 C1040 1.396 . S
C1039 C1049 1.510 . S
C1040 C1036 1.401 . S
C1040 C1039 1.396 . S
C1041 C1036 1.507 . S
C1041 H1042 0.955 1_455 S
C1041 H1043 0.969 . S
C1041 H1044 0.949 1_455 S
H1042 C1041 0.955 1_655 S
H1043 C1041 0.969 . S
H1044 C1041 0.949 1_655 S
O1045 Co1020 1.967 1_655 S
O1045 C1053 1.258 . S
O1046 Co1021 1.941 . S
O1046 C1053 1.267 1_455 S
H1047 C1049 0.959 . S
H1048 C1049 0.961 . S
C1049 C1039 1.510 . S
C1049 H1047 0.959 . S
C1049 H1048 0.961 . S
C1049 H1050 0.960 . S
H1050 C1049 0.960 . S
H1051 N1031 0.862 . S
O1052 Co1020 1.920 1_655 S
O1052 C1025 1.289 1_655 S
C1053 O1045 1.258 . S
C1053 O1046 1.267 1_655 S
Co1054 O1057 1.970 . S
Co1054 N1071 1.989 . S
Co1054 O1079 1.967 . S
Co1054 O1086 1.920 . S
Co1055 O1058 1.966 . S
Co1055 N1064 2.022 . S
Co1055 N1072 1.993 . S
Co1055 O1080 1.941 . S
C1056 O1057 1.258 . S
C1056 O1058 1.263 . S
O1057 Co1054 1.970 . S
O1057 C1056 1.258 . S
O1058 Co1055 1.966 . S
O1058 C1056 1.263 . S
C1059 O1060 1.235 . S
C1059 O1086 1.289 . S
O1060 C1059 1.235 . S
C1061 C1063 1.400 . S
C1061 N1064 1.351 . S
C1061 C1066 1.501 . S
C1062 C1063 1.387 . S
C1062 N1065 1.341 . S
C1063 C1061 1.400 . S
C1063 C1062 1.387 . S
N1064 Co1055 2.022 . S
N1064 C1061 1.351 . S
N1064 N1065 1.365 . S
N1065 C1062 1.341 . S
N1065 N1064 1.365 . S
N1065 H1085 0.862 . S
C1066 C1061 1.501 . S
C1066 H1067 0.961 . S
C1066 H1068 0.961 . S
C1066 H1069 0.960 . S
H1067 C1066 0.961 . S
H1068 C1066 0.961 . S
H1069 C1066 0.960 . S
C1070 N1071 1.342 . S
C1070 C1074 1.401 . S
C1070 C1075 1.499 . S
N1071 Co1054 1.989 . S
N1071 C1070 1.342 . S
N1071 N1072 1.388 . S
N1072 Co1055 1.993 . S
N1072 N1071 1.388 . S
N1072 C1073 1.346 . S
C1073 N1072 1.346 . S
C1073 C1074 1.396 . S
C1073 C1083 1.510 . S
C1074 C1070 1.401 . S
C1074 C1073 1.396 . S
C1075 C1070 1.499 . S
C1075 H1076 0.959 . S
C1075 H1077 0.960 . S
C1075 H1078 0.961 . S
H1076 C1075 0.959 . S
H1077 C1075 0.960 . S
H1078 C1075 0.961 . S
O1079 Co1054 1.967 . S
O1079 C1087 1.258 . S
O1080 Co1055 1.941 . S
O1080 C1087 1.266 . S
H1081 C1083 0.959 . S
H1082 C1083 0.961 . S
C1083 C1073 1.510 . S
C1083 H1081 0.959 . S
C1083 H1082 0.961 . S
C1083 H1084 0.960 . S
H1084 C1083 0.960 . S
H1085 N1065 0.862 . S
O1086 Co1054 1.920 . S
O1086 C1059 1.289 . S
C1087 O1079 1.258 . S
C1087 O1080 1.266 . S
C951 C2 2.164 . S
C305 C36 2.164 . S
C883 C70 2.164 . S
C104 C373 2.164 . S
C1019 C138 2.163 . S
C509 C172 2.164 . S
C206 C1087 2.164 . S
C240 C441 2.164 . S
C679 C274 2.164 . S
C33 C308 2.164 . S
C342 C611 2.164 . S
C376 C101 2.164 . S
C410 C747 2.163 . S
C444 C237 2.164 . S
C815 C478 2.164 . S
C169 C512 2.164 . S
C407 C546 2.164 . S
C580 C849 2.164 . S
C339 C614 2.164 . S
C648 C917 2.164 . S
C475 C682 2.164 . S
C1053 C716 2.164 . S
C543 C750 2.163 . S
C784 C985 2.164 . S
C818 C135 2.164 . S
C577 C852 2.164 . S
C67 C886 2.164 . S
C920 C645 2.164 . S
C954 C203 2.164 . S
C988 C781 2.164 . S
C271 C1022 2.163 . S
C1056 C713 2.164 . S
C9 C179 1.032 . S
C213 C43 1.032 . S
C247 C77 1.032 . S
C111 C145 1.032 . S
C281 C451 1.032 . S
C315 C485 1.032 . S
C349 C519 1.032 . S
C383 C417 1.032 . S
C723 C553 1.032 . S
C587 C757 1.032 . S
C621 C791 1.032 . S
C689 C655 1.032 . S
C995 C825 1.032 . S
C1029 C859 1.032 . S
C1063 C893 1.032 . S
C961 C927 1.032 . S
C20 C156 1.827 1_545 S
C54 C190 1.828 . S
C224 C88 1.827 1_545 S
C258 C122 1.828 1_556 S
C292 C428 1.827 1_565 S
C462 C326 1.828 . S
C360 C496 1.827 1_545 S
C530 C394 1.828 1_554 S
C564 C700 1.827 . S
C598 C734 1.828 1_554 S
C632 C768 1.827 . S
C666 C802 1.828 . S
C972 C836 1.827 . S
C870 C1006 1.828 1_556 S
C904 C1040 1.827 . S
C938 C1074 1.828 . S
C5 C617 0.825 1_455 S
C651 C39 0.825 1_655 S
C73 C549 0.825 . S
C107 C583 0.826 . S
C753 C141 0.825 1_655 S
C787 C175 0.825 . S
C209 C685 0.825 . S
C243 C719 0.825 1_455 S
C277 C889 0.825 1_655 S
C923 C311 0.825 1_455 S
C821 C345 0.825 . S
C379 C855 0.826 . S
C413 C1025 0.825 1_655 S
C447 C1059 0.825 . S
C481 C957 0.825 . S
C515 C991 0.825 1_655 S
