# Generated by pormake.
# Topology soe, (5)-cn, num edge types: 1
# Building blocks:
#     Node 0, Type 0, BuildingBlock: BEQFEK_clean_sbu_0, # of connection points: 5
#     Node 1, Type 0, BuildingBlock: BEQFEK_clean_sbu_0, # of connection points: 5
#     Node 2, Type 0, BuildingBlock: BEQFEK_clean_sbu_0, # of connection points: 5
#     Node 3, Type 0, BuildingBlock: BEQFEK_clean_sbu_0, # of connection points: 5
#     Node 4, Type 0, BuildingBlock: BEQFEK_clean_sbu_0, # of connection points: 5
#     Node 5, Type 0, BuildingBlock: BEQFEK_clean_sbu_0, # of connection points: 5
#     Node 6, Type 0, BuildingBlock: BEQFEK_clean_sbu_0, # of connection points: 5
#     Node 7, Type 0, BuildingBlock: BEQFEK_clean_sbu_0, # of connection points: 5
#     Edge 8, Type (0, 0), BuildingBlock: CIFDUS_clean_linker_0, # of connection points: 2
#     Edge 9, Type (0, 0), BuildingBlock: CIFDUS_clean_linker_0, # of connection points: 2
#     Edge 10, Type (0, 0), BuildingBlock: CIFDUS_clean_linker_0, # of connection points: 2
#     Edge 11, Type (0, 0), BuildingBlock: CIFDUS_clean_linker_0, # of connection points: 2
#     Edge 12, Type (0, 0), BuildingBlock: CIFDUS_clean_linker_0, # of connection points: 2
#     Edge 13, Type (0, 0), BuildingBlock: CIFDUS_clean_linker_0, # of connection points: 2
#     Edge 14, Type (0, 0), BuildingBlock: CIFDUS_clean_linker_0, # of connection points: 2
#     Edge 15, Type (0, 0), BuildingBlock: CIFDUS_clean_linker_0, # of connection points: 2
#     Edge 16, Type (0, 0), BuildingBlock: CIFDUS_clean_linker_0, # of connection points: 2
#     Edge 17, Type (0, 0), BuildingBlock: CIFDUS_clean_linker_0, # of connection points: 2
#     Edge 18, Type (0, 0), BuildingBlock: CIFDUS_clean_linker_0, # of connection points: 2
#     Edge 19, Type (0, 0), BuildingBlock: CIFDUS_clean_linker_0, # of connection points: 2
#     Edge 20, Type (0, 0), BuildingBlock: CIFDUS_clean_linker_0, # of connection points: 2
#     Edge 21, Type (0, 0), BuildingBlock: CIFDUS_clean_linker_0, # of connection points: 2
#     Edge 22, Type (0, 0), BuildingBlock: CIFDUS_clean_linker_0, # of connection points: 2
#     Edge 23, Type (0, 0), BuildingBlock: CIFDUS_clean_linker_0, # of connection points: 2
#     Edge 24, Type (0, 0), BuildingBlock: CIFDUS_clean_linker_0, # of connection points: 2
#     Edge 25, Type (0, 0), BuildingBlock: CIFDUS_clean_linker_0, # of connection points: 2
#     Edge 26, Type (0, 0), BuildingBlock: CIFDUS_clean_linker_0, # of connection points: 2
#     Edge 27, Type (0, 0), BuildingBlock: CIFDUS_clean_linker_0, # of connection points: 2
# Relax obj value: 0.161
# Max RMSD: 0.233
# Mean RMSD: 0.174
data_MOF--net-soe--node1-BEQFEK_clean_sbu_0--edge1-CIFDUS_clean_linker_0
_symmetry_space_group_name_H-M    P1
_symmetry_Int_Tables_number       1
_symmetry_cell_setting            triclinic
loop_
_symmetry_equiv_pos_as_xyz
'x, y, z'
_cell_length_a     51.560059
_cell_length_b     34.793447
_cell_length_c     17.225957
_cell_angle_alpha  89.608089
_cell_angle_beta   90.492533
_cell_angle_gamma 92.877815
loop_
_atom_site_label
_atom_site_type_symbol
_atom_site_fract_x
_atom_site_fract_y
_atom_site_fract_z
_atom_type_partial_charge
Co0 Co 0.12477 0.00421 0.19816 0.0
Co1 Co 0.13078 0.03837 0.02744 0.0
C2 C 0.17107 0.98925 0.102 0.0
O3 O 0.15822 0.98452 0.16449 0.0
O4 O 0.16249 0.00873 0.04523 0.0
C5 C 0.13378 0.97538 0.35276 0.0
O6 O 0.15572 0.96523 0.32271 0.0
C7 C 0.13013 0.02749 0.85767 0.0
C8 C 0.1231 0.08593 0.81441 0.0
C9 C 0.12576 0.04842 0.78996 0.0
N10 N 0.12973 0.05149 0.9187 0.0
N11 N 0.12591 0.08649 0.89219 0.0
C12 C 0.13209 0.98489 0.86574 0.0
H13 H 0.12744 0.97539 0.92589 0.0
H14 H 0.11881 0.96954 0.82396 0.0
H15 H 0.15227 0.97738 0.85307 0.0
C16 C 0.07389 0.9753 0.13099 0.0
N17 N 0.09757 0.99335 0.12484 0.0
N18 N 0.0997 0.00932 0.05541 0.0
C19 C 0.07717 0.00287 0.01625 0.0
C20 C 0.06018 0.98054 0.06203 0.0
C21 C 0.06465 0.95404 0.20205 0.0
H22 H 0.08124 0.94127 0.23246 0.0
H23 H 0.04974 0.93112 0.18693 0.0
H24 H 0.05592 0.97457 0.24204 0.0
O25 O 0.12979 0.06016 0.20788 0.0
O26 O 0.13384 0.08646 0.09066 0.0
H27 H 0.04933 0.02478 0.93438 0.0
H28 H 0.07758 0.00533 0.89212 0.0
C29 C 0.07059 0.02231 0.94124 0.0
H30 H 0.07993 0.05163 0.93912 0.0
H31 H 0.12429 0.11051 0.92745 0.0
O32 O 0.11653 0.9887 0.30805 0.0
C33 C 0.13308 0.0896 0.16438 0.0
Co34 Co 0.36624 0.91894 0.25403 0.0
Co35 Co 0.36064 0.89051 0.081 0.0
C36 C 0.31811 0.93129 0.16037 0.0
O37 O 0.3315 0.93497 0.22254 0.0
O38 O 0.3271 0.91529 0.10063 0.0
C39 C 0.35831 0.95262 0.40473 0.0
O40 O 0.33782 0.9669 0.3717 0.0
C41 C 0.36118 0.90285 0.91146 0.0
C42 C 0.36991 0.84507 0.86975 0.0
C43 C 0.36639 0.88242 0.84466 0.0
N44 N 0.36199 0.87871 0.97276 0.0
N45 N 0.3668 0.8441 0.94718 0.0
C46 C 0.358 0.94518 0.91864 0.0
H47 H 0.36186 0.95466 0.97923 0.0
H48 H 0.37123 0.96144 0.87831 0.0
H49 H 0.33772 0.95155 0.90323 0.0
C50 C 0.41582 0.95332 0.1927 0.0
N51 N 0.39231 0.93532 0.18225 0.0
N52 N 0.39049 0.92217 0.11077 0.0
C53 C 0.41313 0.93056 0.07417 0.0
C54 C 0.42986 0.95101 0.1244 0.0
C55 C 0.42501 0.9703 0.26818 0.0
H56 H 0.40887 0.98456 0.29663 0.0
H57 H 0.44161 0.99141 0.25949 0.0
H58 H 0.43121 0.94688 0.30715 0.0
O59 O 0.36497 0.86238 0.26066 0.0
O60 O 0.36118 0.84109 0.13979 0.0
H61 H 0.41174 0.88375 0.99337 0.0
H62 H 0.4417 0.91217 0.99227 0.0
C63 C 0.42037 0.91341 -0.00177 0.0
H64 H 0.41299 0.93117 0.94998 0.0
H65 H 0.36895 0.82012 0.98295 0.0
O66 O 0.37399 0.93468 0.36323 0.0
C67 C 0.36306 0.83481 0.21256 0.0
Co68 Co 0.13994 0.39299 0.27007 0.0
Co69 Co 0.1431 0.36015 0.44187 0.0
C70 C 0.1857 0.41178 0.37314 0.0
O71 O 0.17351 0.41534 0.30911 0.0
O72 O 0.17622 0.3914 0.42873 0.0
C73 C 0.15334 0.41749 0.11714 0.0
O74 O 0.17634 0.4222 0.14997 0.0
C75 C 0.14554 0.36776 0.61247 0.0
C76 C 0.12714 0.31228 0.65091 0.0
C77 C 0.13708 0.34747 0.67832 0.0
N78 N 0.1403 0.34579 0.54958 0.0
N79 N 0.12978 0.31238 0.57323 0.0
C80 C 0.15555 0.40886 0.60778 0.0
H81 H 0.15221 0.4208 0.54886 0.0
H82 H 0.14595 0.42656 0.65139 0.0
H83 H 0.17675 0.41034 0.61981 0.0
C84 C 0.0903 0.42092 0.33059 0.0
N85 N 0.1126 0.40267 0.33949 0.0
N86 N 0.11389 0.38883 0.41082 0.0
C87 C 0.09236 0.39779 0.44934 0.0
C88 C 0.07665 0.41829 0.39987 0.0
C89 C 0.08195 0.43903 0.25608 0.0
H90 H 0.08524 0.41932 0.20718 0.0
H91 H 0.09404 0.46585 0.24598 0.0
H92 H 0.06117 0.44589 0.25726 0.0
O93 O 0.14264 0.3375 0.26027 0.0
O94 O 0.14392 0.31205 0.37846 0.0
H95 H 0.08855 0.35745 0.54356 0.0
H96 H 0.06881 0.3984 0.55407 0.0
C97 C 0.08766 0.38884 0.53342 0.0
H98 H 0.1029 0.40403 0.56864 0.0
H99 H 0.12339 0.29027 0.53604 0.0
O100 O 0.13378 0.40883 0.1597 0.0
C101 C 0.14385 0.30843 0.30478 0.0
Co102 Co 0.37972 0.52802 0.26879 0.0
Co103 Co 0.36878 0.55339 0.43648 0.0
C104 C 0.32982 0.50511 0.34175 0.0
O105 O 0.34503 0.50342 0.28437 0.0
O106 O 0.33658 0.52357 0.40282 0.0
C107 C 0.37903 0.49598 0.11772 0.0
O108 O 0.36107 0.47133 0.14414 0.0
C109 C 0.36265 0.5342 0.59938 0.0
C110 C 0.3735 0.58969 0.65547 0.0
C111 C 0.36755 0.55107 0.67118 0.0
N112 N 0.36647 0.56136 0.54432 0.0
N113 N 0.37246 0.59461 0.57809 0.0
C114 C 0.35457 0.49314 0.58228 0.0
H115 H 0.34312 0.49105 0.52785 0.0
H116 H 0.37206 0.4763 0.57469 0.0
H117 H 0.34271 0.4803 0.63021 0.0
C118 C 0.42556 0.49564 0.34454 0.0
N119 N 0.40335 0.51432 0.34649 0.0
N120 N 0.3996 0.5267 0.41724 0.0
C121 C 0.41987 0.51715 0.46238 0.0
C122 C 0.43679 0.49672 0.4181 0.0
C123 C 0.43543 0.47677 0.27365 0.0
H124 H 0.44594 0.4988 0.23728 0.0
H125 H 0.41891 0.46415 0.23905 0.0
H126 H 0.44887 0.45394 0.28923 0.0
O127 O 0.37667 0.58429 0.2642 0.0
O128 O 0.37006 0.6042 0.38375 0.0
H129 H 0.41759 0.56037 0.55015 0.0
H130 H 0.44574 0.53204 0.55816 0.0
C131 C 0.42472 0.53111 0.54352 0.0
H132 H 0.41449 0.51129 0.58501 0.0
H133 H 0.37701 0.62022 0.5482 0.0
O134 O 0.39197 0.51735 0.16481 0.0
C135 C 0.37305 0.61123 0.31172 0.0
Co136 Co 0.86286 0.87767 0.0396 0.0
Co137 Co 0.86988 0.90709 0.87081 0.0
C138 C 0.82465 0.92929 0.96365 0.0
O139 O 0.83226 0.90964 0.02143 0.0
O140 O 0.83767 0.93175 0.90115 0.0
C141 C 0.84417 0.86327 0.19231 0.0
O142 O 0.82397 0.88205 0.16951 0.0
C143 C 0.86136 0.92177 0.70405 0.0
C144 C 0.89793 0.90054 0.65906 0.0
C145 C 0.87354 0.91159 0.6356 0.0
N146 N 0.87725 0.91434 0.76402 0.0
N147 N 0.8994 0.90311 0.73654 0.0
C148 C 0.83548 0.93862 0.71393 0.0
H149 H 0.83563 0.95667 0.76659 0.0
H150 H 0.82025 0.91515 0.72044 0.0
H151 H 0.83083 0.95719 0.66362 0.0
C152 C 0.86512 0.80165 0.96054 0.0
N153 N 0.86518 0.84041 0.96069 0.0
N154 N 0.86532 0.85312 0.8887 0.0
C155 C 0.86365 0.82283 0.84031 0.0
C156 C 0.86425 0.78908 0.88381 0.0
C157 C 0.86714 0.77765 0.03254 0.0
H158 H 0.87851 0.7938 0.07769 0.0
H159 H 0.84735 0.77081 0.05525 0.0
H160 H 0.87656 0.75038 0.02042 0.0
O161 O 0.89539 0.90937 0.04724 0.0
O162 O 0.90186 0.9279 0.92563 0.0
H163 H 0.8761 0.83055 0.72282 0.0
H164 H 0.8475 0.79921 0.73348 0.0
C165 C 0.85775 0.82584 0.75528 0.0
H166 H 0.84513 0.85011 0.74425 0.0
H167 H 0.91478 0.89437 0.7711 0.0
O168 O 0.86067 0.8539 0.14257 0.0
C169 C 0.90924 0.92673 0.99624 0.0
Co170 Co 0.6344 0.02738 0.82542 0.0
Co171 Co 0.64495 0.05835 0.99275 0.0
C172 C 0.68303 0.0099 0.90952 0.0
O173 O 0.66822 0.00585 0.8504 0.0
O174 O 0.67637 0.02934 0.96782 0.0
C175 C 0.63874 0.001 0.67088 0.0
O176 O 0.66221 0.99332 0.69452 0.0
C177 C 0.65099 0.043 0.15652 0.0
C178 C 0.64203 0.09803 0.21098 0.0
C179 C 0.64794 0.06041 0.22753 0.0
N180 N 0.64695 0.06899 0.10041 0.0
N181 N 0.64197 0.10205 0.13312 0.0
C182 C 0.65493 0.00138 0.14158 0.0
H183 H 0.64736 0.99311 0.08324 0.0
H184 H 0.6452 0.98297 0.18664 0.0
H185 H 0.67603 0.99652 0.14363 0.0
C186 C 0.58482 -0.00036 0.89675 0.0
N187 N 0.60916 0.01539 0.90176 0.0
N188 N 0.61308 0.02965 0.97162 0.0
C189 C 0.59109 0.02402 0.01305 0.0
C190 C 0.57242 0.00463 0.96716 0.0
C191 C 0.57345 0.9819 0.82445 0.0
H192 H 0.58828 0.96537 0.7948 0.0
H193 H 0.55624 0.96259 0.83766 0.0
H194 H 0.56756 0.00507 0.78441 0.0
O195 O 0.6391 0.08379 0.81557 0.0
O196 O 0.64566 0.10765 0.93351 0.0
H197 H 0.59532 0.07199 0.09018 0.0
H198 H 0.56586 0.04313 0.10392 0.0
C199 C 0.58677 0.04216 0.09019 0.0
H200 H 0.59642 0.02546 0.1362 0.0
H201 H 0.63755 0.12685 0.10234 0.0
O202 O 0.62255 0.01206 0.72015 0.0
C203 C 0.64306 0.11239 0.86048 0.0
Co204 Co 0.88054 0.5089 0.69888 0.0
Co205 Co 0.87385 0.53658 0.52519 0.0
C206 C 0.83207 0.48913 0.60987 0.0
O207 O 0.84598 0.48655 0.671 0.0
O208 O 0.84039 0.50752 0.54992 0.0
C209 C 0.87779 0.47213 0.85252 0.0
O210 O 0.8609 0.44659 0.82313 0.0
C211 C 0.86787 0.53045 0.35262 0.0
C212 C 0.88967 0.58383 0.31705 0.0
C213 C 0.877 0.55092 0.28758 0.0
N214 N 0.87559 0.55 0.41688 0.0
N215 N 0.88823 0.58213 0.3948 0.0
C216 C 0.8519 0.49333 0.35429 0.0
H217 H 0.84033 0.49095 0.40802 0.0
H218 H 0.86489 0.46888 0.35325 0.0
H219 H 0.83865 0.49125 0.30319 0.0
C220 C 0.92797 0.477 0.63219 0.0
N221 N 0.90589 0.49597 0.62563 0.0
N222 N 0.90302 0.50745 0.55313 0.0
C223 C 0.92328 0.49621 0.51143 0.0
C224 C 0.93981 0.47676 0.56001 0.0
C225 C 0.93785 0.46103 0.70699 0.0
H226 H 0.9379 0.48355 0.75229 0.0
H227 H 0.92447 0.43693 0.72628 0.0
H228 H 0.95773 0.45063 0.70101 0.0
O229 O 0.87799 0.56475 0.70393 0.0
O230 O 0.87546 0.58625 0.58284 0.0
H231 H 0.92803 0.53357 0.41287 0.0
H232 H 0.94328 0.48835 0.40233 0.0
C233 C 0.92619 0.50232 0.42575 0.0
H234 H 0.90876 0.48981 0.39572 0.0
H235 H 0.89664 0.60236 0.43307 0.0
O236 O 0.88935 0.49665 0.80815 0.0
C237 C 0.87643 0.59222 0.65565 0.0
Co238 Co 0.63762 0.39157 0.64323 0.0
Co239 Co 0.64268 0.3597 0.47609 0.0
C240 C 0.68561 0.40818 0.55317 0.0
O241 O 0.67245 0.41273 0.61426 0.0
O242 O 0.67644 0.38838 0.49647 0.0
C243 C 0.64669 0.41104 0.79772 0.0
O244 O 0.67074 0.40845 0.77456 0.0
C245 C 0.64981 0.37127 0.31167 0.0
C246 C 0.63301 0.31739 0.26067 0.0
C247 C 0.64437 0.35315 0.24203 0.0
N248 N 0.64207 0.34743 0.36934 0.0
N249 N 0.63228 0.31505 0.33876 0.0
C250 C 0.65974 0.412 0.32318 0.0
H251 H 0.6533 0.42296 0.37983 0.0
H252 H 0.65289 0.43072 0.27556 0.0
H253 H 0.68126 0.41312 0.32231 0.0
C254 C 0.59116 0.42533 0.57283 0.0
N255 N 0.61235 0.40434 0.56888 0.0
N256 N 0.61408 0.39025 0.49857 0.0
C257 C 0.5938 0.40153 0.4556 0.0
C258 C 0.57873 0.42437 0.50099 0.0
C259 C 0.58351 0.4465 0.64368 0.0
H260 H 0.60104 0.46012 0.67195 0.0
H261 H 0.5696 0.46886 0.62925 0.0
H262 H 0.57435 0.42568 0.68552 0.0
O263 O 0.63882 0.33526 0.65555 0.0
O264 O 0.64107 0.31112 0.53732 0.0
H265 H 0.59117 0.35721 0.36972 0.0
H266 H 0.56729 0.39281 0.35822 0.0
C267 C 0.58777 0.38826 0.37464 0.0
H268 H 0.60067 0.40449 0.33348 0.0
H269 H 0.62444 0.29187 0.37108 0.0
O270 O 0.62847 0.4084 0.74775 0.0
C271 C 0.64 0.30658 0.61066 0.0
H272 H 0.28527 0.93982 0.03597 0.0
H273 H 0.28943 0.94895 0.28583 0.0
H274 H 0.24413 0.96501 0.28951 0.0
H275 H 0.20334 0.97692 0.22294 0.0
H276 H 0.19892 0.97193 0.97306 0.0
H277 H 0.24413 0.95341 0.96837 0.0
C278 C 0.27627 0.94543 0.09115 0.0
C279 C 0.29086 0.94319 0.16044 0.0
C280 C 0.25007 0.95508 0.09302 0.0
C281 C 0.27885 0.95072 0.23143 0.0
C282 C 0.25283 0.95971 0.23378 0.0
C283 C 0.21214 0.97132 0.16743 0.0
C284 C 0.19771 0.97534 0.09854 0.0
C285 C 0.23825 0.96187 0.16509 0.0
C286 C 0.2096 0.96883 0.02699 0.0
C287 C 0.23546 0.95836 0.02428 0.0
H288 H 0.21921 0.43104 0.2579 0.0
H289 H 0.21143 0.43286 0.50697 0.0
H290 H 0.25543 0.4622 0.5196 0.0
H291 H 0.29612 0.48719 0.45929 0.0
H292 H 0.30412 0.48185 0.21025 0.0
H293 H 0.26001 0.45384 0.19832 0.0
C294 C 0.22706 0.43811 0.31494 0.0
C295 C 0.21203 0.43016 0.38134 0.0
C296 C 0.25245 0.45413 0.32179 0.0
C297 C 0.22264 0.43879 0.45497 0.0
C298 C 0.24777 0.45554 0.4622 0.0
C299 C 0.28821 0.47986 0.40245 0.0
C300 C 0.3034 0.48671 0.33579 0.0
C301 C 0.26287 0.46328 0.39595 0.0
C302 C 0.29293 0.47675 0.26258 0.0
C303 C 0.26765 0.46086 0.25559 0.0
H304 H 0.71606 0.99852 0.03172 0.0
H305 H 0.70877 0.98512 0.78331 0.0
H306 H 0.75229 0.9612 0.77802 0.0
H307 H 0.79239 0.94369 0.84327 0.0
H308 H 0.79932 0.95324 0.09214 0.0
H309 H 0.75612 0.97927 0.09782 0.0
C310 C 0.72399 0.99032 0.97647 0.0
C311 C 0.70909 0.99368 0.90805 0.0
C312 C 0.74906 0.97611 0.97379 0.0
C313 C 0.71965 0.98265 0.83701 0.0
C314 C 0.74464 0.96912 0.83378 0.0
C315 C 0.78459 0.9519 0.89867 0.0
C316 C 0.79917 0.947 0.96705 0.0
C317 C 0.75953 0.96582 0.90168 0.0
C318 C 0.78851 0.9569 0.03861 0.0
C319 C 0.7638 0.97172 0.0419 0.0
H320 H 0.79948 0.47487 0.48642 0.0
H321 H 0.80395 0.46611 0.7364 0.0
H322 H 0.75888 0.44184 0.7407 0.0
H323 H 0.71808 0.42348 0.67425 0.0
H324 H 0.7138 0.42846 0.42429 0.0
H325 H 0.75885 0.45401 0.41923 0.0
C326 C 0.79061 0.46756 0.54178 0.0
C327 C 0.80511 0.47242 0.6109 0.0
C328 C 0.76467 0.45314 0.54394 0.0
C329 C 0.79334 0.46253 0.68217 0.0
C330 C 0.76749 0.44879 0.68483 0.0
C331 C 0.72695 0.43042 0.61868 0.0
C332 C 0.71258 0.42448 0.54979 0.0
C333 C 0.75295 0.44416 0.61619 0.0
C334 C 0.72447 0.43288 0.47813 0.0
C335 C 0.75021 0.44746 0.47523 0.0
H336 H 0.95277 0.92673 0.90981 0.0
H337 H 0.92478 0.95839 0.13442 0.0
H338 H 0.96912 0.97738 0.17596 0.0
H339 H 0.01611 0.98433 0.14834 0.0
H340 H 0.044 0.94728 0.92721 0.0
H341 H 0.99958 0.93092 0.88442 0.0
C342 C 0.95637 0.93833 0.96743 0.0
C343 C 0.93555 0.94178 0.01857 0.0
C344 C 0.98196 0.94779 0.99181 0.0
C345 C 0.94053 0.95585 0.09381 0.0
C346 C 0.96587 0.9665 0.1177 0.0
C347 C 0.01244 0.97209 0.09136 0.0
C348 C 0.03327 0.96723 0.0408 0.0
C349 C 0.98679 0.96224 0.06744 0.0
C350 C 0.02822 0.95173 0.96676 0.0
C351 C 1.00284 0.94238 0.94223 0.0
H352 H 0.45039 0.98909 0.00036 0.0
H353 H 0.47154 0.93538 0.21636 0.0
H354 H 0.51761 0.94717 0.18674 0.0
H355 H 0.55193 0.97018 0.09611 0.0
H356 H 0.53057 0.02356 0.87987 0.0
H357 H 0.48458 0.01335 0.91132 0.0
C358 C 0.46515 0.98023 0.04103 0.0
C359 C 0.45765 0.96167 0.1106 0.0
C360 C 0.49153 0.98629 0.0227 0.0
C361 C 0.47686 0.95034 0.16307 0.0
C362 C 0.50319 0.95666 0.1457 0.0
C363 C 0.53714 0.97958 0.0561 0.0
C364 C 0.54456 0.99716 0.98542 0.0
C365 C 0.51075 0.97418 0.07524 0.0
C366 C 0.5253 0.00921 0.93388 0.0
C367 C 0.49903 0.00377 0.95221 0.0
H368 H 0.0344 0.3806 0.46136 0.0
H369 H 0.063 0.49237 0.38176 0.0
H370 H 0.02321 0.5207 0.42629 0.0
H371 H 0.98107 0.51385 0.49275 0.0
H372 H 0.95324 0.40256 0.57692 0.0
H373 H 0.99253 0.37387 0.52916 0.0
C374 C 0.03185 0.41118 0.45401 0.0
C375 C 0.05154 0.43453 0.41904 0.0
C376 C 0.00941 0.42732 0.48217 0.0
C377 C 0.04797 0.47391 0.4083 0.0
C378 C 0.0254 0.49012 0.43446 0.0
C379 C 0.98377 0.48335 0.50074 0.0
C380 C 0.96449 0.46019 0.53808 0.0
C381 C 0.00618 0.46718 0.47245 0.0
C382 C 0.96804 0.42082 0.54879 0.0
C383 C 0.99032 0.40445 0.52088 0.0
H384 H 0.48383 0.50534 0.34907 0.0
H385 H 0.44478 0.45269 0.54592 0.0
H386 H 0.48557 0.42698 0.59145 0.0
H387 H 0.53227 0.4183 0.57339 0.0
H388 H 0.57119 0.47029 0.37575 0.0
H389 H 0.53059 0.49724 0.33175 0.0
C390 C 0.4843 0.48792 0.40148 0.0
C391 C 0.46145 0.4807 0.44402 0.0
C392 C 0.50777 0.47322 0.42707 0.0
C393 C 0.46226 0.4587 0.51257 0.0
C394 C 0.48552 0.44398 0.53848 0.0
C395 C 0.53181 0.4359 0.52123 0.0
C396 C 0.55451 0.44243 0.47771 0.0
C397 C 0.5084 0.45102 0.49617 0.0
C398 C 0.55379 0.46485 0.40975 0.0
C399 C 0.53064 0.48021 0.38466 0.0
H400 H 0.15135 0.99246 0.71408 0.0
H401 H 0.09244 0.07501 0.68193 0.0
H402 H 0.08755 0.05675 0.54588 0.0
H403 H 0.1019 0.02041 0.43377 0.0
H404 H 0.16206 0.9397 0.46417 0.0
H405 H 0.16395 0.95325 0.60321 0.0
C406 C 0.13701 0.0058 0.67792 0.0
C407 C 0.12211 0.03484 0.70866 0.0
C408 C 0.13447 0.99543 0.59912 0.0
C409 C 0.10423 0.05266 0.65986 0.0
C410 C 0.10134 0.04215 0.58199 0.0
C411 C 0.11505 0.00517 0.47101 0.0
C412 C 0.13177 0.97898 0.43841 0.0
C413 C 0.11659 0.01394 0.55065 0.0
C414 C 0.14896 0.95998 0.4876 0.0
C415 C 0.15015 0.96786 0.56717 0.0
H416 H 0.39133 0.91087 0.49108 0.0
H417 H 0.3286 0.98767 0.5117 0.0
H418 H 0.32658 0.97488 0.65126 0.0
H419 H 0.33971 0.93672 0.76493 0.0
H420 H 0.40143 0.85843 0.74193 0.0
H421 H 0.40647 0.87657 0.60576 0.0
C422 C 0.37749 0.92538 0.52616 0.0
C423 C 0.36005 0.95005 0.49066 0.0
C424 C 0.37597 0.91714 0.60597 0.0
C425 C 0.34222 0.96844 0.53731 0.0
C426 C 0.34096 0.961 0.61717 0.0
C427 C 0.35467 0.92435 0.73071 0.0
C428 C 0.37027 0.89641 0.76384 0.0
C429 C 0.3573 0.93464 0.65184 0.0
C430 C 0.38906 0.87984 0.71778 0.0
C431 C 0.39203 0.89028 0.6399 0.0
H432 H 0.17148 0.39515 0.7595 0.0
H433 H 0.09906 0.3285 0.78167 0.0
H434 H 0.0961 0.34754 0.91723 0.0
H435 H 0.11519 0.38032 0.03163 0.0
H436 H 0.18815 0.44567 0.01039 0.0
H437 H 0.18927 0.43116 0.87195 0.0
C438 C 0.15475 0.38553 0.79329 0.0
C439 C 0.13539 0.36076 0.75991 0.0
C440 C 0.15318 0.39654 0.87157 0.0
C441 C 0.11431 0.34749 0.80582 0.0
C442 C 0.11251 0.35852 0.88336 0.0
C443 C 0.13106 0.39207 0.99642 0.0
C444 C 0.15152 0.41412 0.03142 0.0
C445 C 0.13195 0.38274 0.91713 0.0
C446 C 0.17213 0.42862 0.98498 0.0
C447 C 0.17287 0.42016 0.90581 0.0
H448 H 0.38236 0.45657 0.98258 0.0
H449 H 0.36929 0.56829 0.07733 0.0
H450 H 0.36278 0.59435 0.94741 0.0
H451 H 0.36109 0.5857 0.80765 0.0
H452 H 0.38021 0.47674 0.71051 0.0
H453 H 0.38339 0.44911 0.83975 0.0
C454 C 0.37818 0.48657 0.97415 0.0
C455 C 0.37645 0.51063 0.03848 0.0
C456 C 0.37509 0.50169 0.89903 0.0
C457 C 0.37104 0.54949 0.02792 0.0
C458 C 0.36717 0.56435 0.95391 0.0
C459 C 0.36585 0.55584 0.81456 0.0
C460 C 0.36912 0.53301 0.74897 0.0
C461 C 0.36921 0.54074 0.88912 0.0
C462 C 0.37588 0.49458 0.75922 0.0
C463 C 0.3783 0.47884 0.83356 0.0
H464 H 0.81437 0.87727 0.31762 0.0
H465 H 0.89248 0.85301 0.2512 0.0
H466 H 0.90822 0.86875 0.38091 0.0
H467 H 0.90057 0.89352 0.50922 0.0
H468 H 0.82172 0.9087 0.58255 0.0
H469 H 0.80597 0.89428 0.4534 0.0
C470 C 0.83475 0.87482 0.332 0.0
C471 C 0.85221 0.86445 0.27455 0.0
C472 C 0.8438 0.88371 0.4071 0.0
C473 C 0.87854 0.86095 0.29419 0.0
C474 C 0.88767 0.87034 0.36821 0.0
C475 C 0.87988 0.89386 0.49764 0.0
C476 C 0.86279 0.90442 0.5562 0.0
C477 C 0.87056 0.88265 0.42441 0.0
C478 C 0.83597 0.9035 0.53921 0.0
C479 C 0.82666 0.89413 0.46498 0.0
H480 H 0.6695 0.98285 0.55073 0.0
H481 H 0.59669 0.03279 0.60291 0.0
H482 H 0.59283 0.05469 0.46875 0.0
H483 H 0.61232 0.06535 0.34005 0.0
H484 H 0.68477 0.01511 0.28739 0.0
H485 H 0.68671 0.98777 0.4185 0.0
C486 C 0.65256 0.99794 0.5325 0.0
C487 C 0.63363 0.00663 0.5871 0.0
C488 C 0.65062 0.01094 0.45552 0.0
C489 C 0.61165 0.02585 0.56226 0.0
C490 C 0.6095 0.03868 0.48563 0.0
C491 C 0.62844 0.04827 0.35751 0.0
C492 C 0.64847 0.04238 0.305 0.0
C493 C 0.62926 0.03244 0.43251 0.0
C494 C 0.66911 0.01981 0.32719 0.0
C495 C 0.67023 0.00428 0.40202 0.0
H496 H 0.87468 0.47894 0.21873 0.0
H497 H 0.8789 0.60073 0.16645 0.0
H498 H 0.88141 0.58689 0.02865 0.0
H499 H 0.8822 0.54084 0.92289 0.0
H500 H 0.87364 0.41918 0.97118 0.0
H501 H 0.87255 0.43235 0.1111 0.0
C502 C 0.87525 0.50254 0.17758 0.0
C503 C 0.87606 0.54094 0.20367 0.0
C504 C 0.87622 0.49439 0.09766 0.0
C505 C 0.87814 0.57091 0.14848 0.0
C506 C 0.87961 0.56307 0.06947 0.0
C507 C 0.88039 0.51713 0.96407 0.0
C508 C 0.87851 0.47905 0.93708 0.0
C509 C 0.87881 0.52499 0.0435 0.0
C510 C 0.8754 0.4487 0.99086 0.0
C511 C 0.87469 0.45627 0.07066 0.0
H512 H 0.60865 0.35741 0.12774 0.0
H513 H 0.68904 0.38509 0.1831 0.0
H514 H 0.69631 0.40998 0.05139 0.0
H515 H 0.6804 0.41931 0.9185 0.0
H516 H 0.59961 0.39295 0.86371 0.0
H517 H 0.59166 0.37312 0.99788 0.0
C518 C 0.62769 0.369 0.11057 0.0
C519 C 0.64839 0.36916 0.16382 0.0
C520 C 0.63156 0.38374 0.03542 0.0
C521 C 0.67292 0.38476 0.14235 0.0
C522 C 0.67704 0.39895 0.06732 0.0
C523 C 0.66096 0.40982 0.93619 0.0
C524 C 0.64073 0.4071 0.88106 0.0
C525 C 0.65658 0.39807 0.0131 0.0
C526 C 0.61557 0.39521 0.905 0.0
C527 C 0.61103 0.38354 0.98156 0.0
H528 H 0.14125 0.16007 0.0952 0.0
H529 H 0.13104 0.10505 0.31921 0.0
H530 H 0.13453 0.16728 0.3827 0.0
H531 H 0.13924 0.23778 0.37521 0.0
H532 H 0.14923 0.29276 0.15113 0.0
H533 H 0.14721 0.2304 0.08805 0.0
C534 C 0.13984 0.16167 0.15787 0.0
C535 C 0.13578 0.12783 0.20194 0.0
C536 C 0.14183 0.19769 0.19451 0.0
C537 C 0.13409 0.13055 0.28336 0.0
C538 C 0.1361 0.1662 0.32005 0.0
C539 C 0.14117 0.2361 0.31269 0.0
C540 C 0.14426 0.27 0.26831 0.0
C541 C 0.13982 0.20002 0.27625 0.0
C542 C 0.14668 0.26721 0.1871 0.0
C543 C 0.14552 0.23149 0.15067 0.0
H544 H 0.36807 0.76903 0.13009 0.0
H545 H 0.35966 0.81093 0.3635 0.0
H546 H 0.36207 0.74578 0.41475 0.0
H547 H 0.36696 0.67687 0.39391 0.0
H548 H 0.376 0.63512 0.16058 0.0
H549 H 0.37302 0.70012 0.10925 0.0
C550 C 0.36663 0.7639 0.19212 0.0
C551 C 0.36367 0.79489 0.24267 0.0
C552 C 0.36826 0.72634 0.22152 0.0
C553 C 0.362 0.78768 0.32305 0.0
C554 C 0.36338 0.75039 0.35259 0.0
C555 C 0.3683 0.68196 0.33185 0.0
C556 C 0.37172 0.65105 0.28143 0.0
C557 C 0.36662 0.71951 0.30243 0.0
C558 C 0.37343 0.65829 0.20104 0.0
C559 C 0.37168 0.6955 0.17141 0.0
H560 H 0.89003 0.76536 0.75766 0.0
H561 H 0.83925 0.72336 0.94063 0.0
H562 H 0.83949 0.65842 0.88747 0.0
H563 H 0.85309 0.61411 0.7865 0.0
H564 H 0.89868 0.65816 0.59376 0.0
H565 H 0.90048 0.72254 0.65113 0.0
C566 C 0.87856 0.74223 0.78518 0.0
C567 C 0.86466 0.7493 0.85319 0.0
C568 C 0.87756 0.70556 0.75176 0.0
C569 C 0.85057 0.71865 0.88927 0.0
C570 C 0.85042 0.6816 0.85827 0.0
C571 C 0.86332 0.63791 0.75699 0.0
C572 C 0.87586 0.63158 0.68633 0.0
C573 C 0.86371 0.67483 0.78929 0.0
C574 C 0.8888 0.66255 0.64801 0.0
C575 C 0.88995 0.69919 0.68103 0.0
H576 H 0.64061 0.13146 0.70753 0.0
H577 H 0.64707 0.18165 0.93603 0.0
H578 H 0.64663 0.24604 0.87849 0.0
H579 H 0.6438 0.28782 0.76378 0.0
H580 H 0.63758 0.23739 0.53546 0.0
H581 H 0.63848 0.17312 0.59302 0.0
C582 C 0.64198 0.15642 0.74502 0.0
C583 C 0.64382 0.15162 0.82617 0.0
C584 C 0.64167 0.19326 0.71165 0.0
C585 C 0.64566 0.18441 0.87348 0.0
C586 C 0.64535 0.22126 0.84062 0.0
C587 C 0.64259 0.26282 0.72642 0.0
C588 C 0.64052 0.2675 0.64527 0.0
C589 C 0.64324 0.22598 0.75983 0.0
C590 C 0.63916 0.2347 0.59799 0.0
C591 C 0.63968 0.19792 0.63086 0.0
loop_
_geom_bond_atom_site_label_1
_geom_bond_atom_site_label_2
_geom_bond_distance
_geom_bond_site_symmetry_2
_ccdc_geom_bond_type
Co0 O3 1.970 1_545 S
Co0 N17 1.990 . S
Co0 O25 1.967 . S
Co0 O32 1.920 . S
Co1 O4 1.966 . S
Co1 N10 2.022 1_554 S
Co1 N18 1.993 . S
Co1 O26 1.941 . S
C2 O3 1.258 1_545 S
C2 O4 1.263 . S
O3 Co0 1.970 1_565 S
O3 C2 1.258 1_565 S
O4 Co1 1.966 . S
O4 C2 1.263 . S
C5 O6 1.235 . S
C5 O32 1.289 1_565 S
O6 C5 1.235 . S
C7 C9 1.400 . S
C7 N10 1.351 . S
C7 C12 1.501 1_545 S
C8 C9 1.387 . S
C8 N11 1.341 . S
C9 C7 1.400 . S
C9 C8 1.387 . S
N10 Co1 2.022 1_556 S
N10 C7 1.351 . S
N10 N11 1.365 . S
N11 C8 1.341 . S
N11 N10 1.365 . S
N11 H31 0.862 . S
C12 C7 1.501 1_565 S
C12 H13 0.961 . S
C12 H14 0.961 . S
C12 H15 0.960 1_565 S
H13 C12 0.961 . S
H14 C12 0.961 . S
H15 C12 0.960 1_545 S
C16 N17 1.340 1_565 S
C16 C20 1.401 . S
C16 C21 1.499 . S
N17 Co0 1.990 . S
N17 C16 1.340 1_545 S
N17 N18 1.388 . S
N18 Co1 1.993 . S
N18 N17 1.388 . S
N18 C19 1.346 1_545 S
C19 N18 1.346 1_565 S
C19 C20 1.396 . S
C19 C29 1.510 1_554 S
C20 C16 1.401 . S
C20 C19 1.396 . S
C21 C16 1.499 . S
C21 H22 0.959 . S
C21 H23 0.960 . S
C21 H24 0.961 . S
H22 C21 0.959 . S
H23 C21 0.960 . S
H24 C21 0.961 . S
O25 Co0 1.967 . S
O25 C33 1.258 . S
O26 Co1 1.941 . S
O26 C33 1.266 . S
H27 C29 0.959 1_545 S
H28 C29 0.961 . S
C29 C19 1.510 1_556 S
C29 H27 0.959 1_565 S
C29 H28 0.961 . S
C29 H30 0.960 1_565 S
H30 C29 0.960 1_545 S
H31 N11 0.862 . S
O32 Co0 1.920 . S
O32 C5 1.289 1_545 S
C33 O25 1.258 . S
C33 O26 1.266 . S
Co34 O37 1.970 . S
Co34 N51 1.989 . S
Co34 O59 1.967 . S
Co34 O66 1.920 . S
Co35 O38 1.966 . S
Co35 N44 2.022 1_554 S
Co35 N52 1.993 . S
Co35 O60 1.941 . S
C36 O37 1.258 . S
C36 O38 1.263 . S
O37 Co34 1.970 . S
O37 C36 1.258 . S
O38 Co35 1.966 . S
O38 C36 1.263 . S
C39 O40 1.235 . S
C39 O66 1.289 . S
O40 C39 1.235 . S
C41 C43 1.400 . S
C41 N44 1.351 . S
C41 C46 1.501 . S
C42 C43 1.387 . S
C42 N45 1.341 . S
C43 C41 1.400 . S
C43 C42 1.387 . S
N44 Co35 2.022 1_556 S
N44 C41 1.351 . S
N44 N45 1.365 . S
N45 C42 1.341 . S
N45 N44 1.365 . S
N45 H65 0.862 . S
C46 C41 1.501 . S
C46 H47 0.961 . S
C46 H48 0.961 . S
C46 H49 0.960 . S
H47 C46 0.961 . S
H48 C46 0.961 . S
H49 C46 0.960 . S
C50 N51 1.342 . S
C50 C54 1.401 . S
C50 C55 1.499 . S
N51 Co34 1.989 . S
N51 C50 1.342 . S
N51 N52 1.388 . S
N52 Co35 1.993 . S
N52 N51 1.388 . S
N52 C53 1.346 . S
C53 N52 1.346 . S
C53 C54 1.396 . S
C53 C63 1.510 1_554 S
C54 C50 1.401 . S
C54 C53 1.396 . S
C55 C50 1.499 . S
C55 H56 0.959 . S
C55 H57 0.960 . S
C55 H58 0.961 . S
H56 C55 0.959 . S
H57 C55 0.960 . S
H58 C55 0.961 . S
O59 Co34 1.967 . S
O59 C67 1.258 . S
O60 Co35 1.941 . S
O60 C67 1.266 . S
H61 C63 0.959 . S
H62 C63 0.961 . S
C63 C53 1.510 1_556 S
C63 H61 0.959 . S
C63 H62 0.961 . S
C63 H64 0.960 . S
H64 C63 0.960 . S
H65 N45 0.862 . S
O66 Co34 1.920 . S
O66 C39 1.289 . S
C67 O59 1.258 . S
C67 O60 1.266 . S
Co68 O71 1.970 . S
Co68 N85 1.989 . S
Co68 O93 1.967 . S
Co68 O100 1.920 . S
Co69 O72 1.966 . S
Co69 N78 2.022 . S
Co69 N86 1.993 . S
Co69 O94 1.941 . S
C70 O71 1.258 . S
C70 O72 1.263 . S
O71 Co68 1.970 . S
O71 C70 1.258 . S
O72 Co69 1.966 . S
O72 C70 1.263 . S
C73 O74 1.235 . S
C73 O100 1.289 . S
O74 C73 1.235 . S
C75 C77 1.400 . S
C75 N78 1.351 . S
C75 C80 1.501 . S
C76 C77 1.387 . S
C76 N79 1.341 . S
C77 C75 1.400 . S
C77 C76 1.387 . S
N78 Co69 2.022 . S
N78 C75 1.351 . S
N78 N79 1.365 . S
N79 C76 1.341 . S
N79 N78 1.365 . S
N79 H99 0.862 . S
C80 C75 1.501 . S
C80 H81 0.961 . S
C80 H82 0.961 . S
C80 H83 0.960 . S
H81 C80 0.961 . S
H82 C80 0.961 . S
H83 C80 0.960 . S
C84 N85 1.342 . S
C84 C88 1.401 . S
C84 C89 1.499 . S
N85 Co68 1.989 . S
N85 C84 1.342 . S
N85 N86 1.388 . S
N86 Co69 1.993 . S
N86 N85 1.388 . S
N86 C87 1.346 . S
C87 N86 1.346 . S
C87 C88 1.396 . S
C87 C97 1.510 . S
C88 C84 1.401 . S
C88 C87 1.396 . S
C89 C84 1.499 . S
C89 H90 0.959 . S
C89 H91 0.960 . S
C89 H92 0.961 . S
H90 C89 0.959 . S
H91 C89 0.960 . S
H92 C89 0.961 . S
O93 Co68 1.967 . S
O93 C101 1.258 . S
O94 Co69 1.941 . S
O94 C101 1.266 . S
H95 C97 0.959 . S
H96 C97 0.961 . S
C97 C87 1.510 . S
C97 H95 0.959 . S
C97 H96 0.961 . S
C97 H98 0.960 . S
H98 C97 0.960 . S
H99 N79 0.862 . S
O100 Co68 1.920 . S
O100 C73 1.289 . S
C101 O93 1.258 . S
C101 O94 1.266 . S
Co102 O105 1.970 . S
Co102 N119 1.989 . S
Co102 O127 1.967 . S
Co102 O134 1.920 . S
Co103 O106 1.966 . S
Co103 N112 2.022 . S
Co103 N120 1.993 . S
Co103 O128 1.941 . S
C104 O105 1.258 . S
C104 O106 1.263 . S
O105 Co102 1.970 . S
O105 C104 1.258 . S
O106 Co103 1.966 . S
O106 C104 1.263 . S
C107 O108 1.235 . S
C107 O134 1.289 . S
O108 C107 1.235 . S
C109 C111 1.400 . S
C109 N112 1.351 . S
C109 C114 1.501 . S
C110 C111 1.387 . S
C110 N113 1.341 . S
C111 C109 1.400 . S
C111 C110 1.387 . S
N112 Co103 2.022 . S
N112 C109 1.351 . S
N112 N113 1.365 . S
N113 C110 1.341 . S
N113 N112 1.365 . S
N113 H133 0.862 . S
C114 C109 1.501 . S
C114 H115 0.961 . S
C114 H116 0.961 . S
C114 H117 0.960 . S
H115 C114 0.961 . S
H116 C114 0.961 . S
H117 C114 0.960 . S
C118 N119 1.342 . S
C118 C122 1.401 . S
C118 C123 1.499 . S
N119 Co102 1.989 . S
N119 C118 1.342 . S
N119 N120 1.388 . S
N120 Co103 1.993 . S
N120 N119 1.388 . S
N120 C121 1.346 . S
C121 N120 1.346 . S
C121 C122 1.396 . S
C121 C131 1.510 . S
C122 C118 1.401 . S
C122 C121 1.396 . S
C123 C118 1.499 . S
C123 H124 0.959 . S
C123 H125 0.960 . S
C123 H126 0.961 . S
H124 C123 0.959 . S
H125 C123 0.960 . S
H126 C123 0.961 . S
O127 Co102 1.967 . S
O127 C135 1.258 . S
O128 Co103 1.941 . S
O128 C135 1.266 . S
H129 C131 0.959 . S
H130 C131 0.961 . S
C131 C121 1.510 . S
C131 H129 0.959 . S
C131 H130 0.961 . S
C131 H132 0.960 . S
H132 C131 0.960 . S
H133 N113 0.862 . S
O134 Co102 1.920 . S
O134 C107 1.289 . S
C135 O127 1.258 . S
C135 O128 1.266 . S
Co136 O139 1.970 . S
Co136 N153 1.989 . S
Co136 O161 1.967 . S
Co136 O168 1.920 1_556 S
Co137 O140 1.966 . S
Co137 N146 2.022 . S
Co137 N154 1.993 . S
Co137 O162 1.941 . S
C138 O139 1.258 . S
C138 O140 1.263 . S
O139 Co136 1.970 . S
O139 C138 1.258 . S
O140 Co137 1.966 . S
O140 C138 1.263 . S
C141 O142 1.235 . S
C141 O168 1.289 . S
O142 C141 1.235 . S
C143 C145 1.400 . S
C143 N146 1.351 . S
C143 C148 1.501 . S
C144 C145 1.387 . S
C144 N147 1.341 . S
C145 C143 1.400 . S
C145 C144 1.387 . S
N146 Co137 2.022 . S
N146 C143 1.351 . S
N146 N147 1.365 . S
N147 C144 1.341 . S
N147 N146 1.365 . S
N147 H167 0.862 . S
C148 C143 1.501 . S
C148 H149 0.961 . S
C148 H150 0.961 . S
C148 H151 0.960 . S
H149 C148 0.961 . S
H150 C148 0.961 . S
H151 C148 0.960 . S
C152 N153 1.342 . S
C152 C156 1.401 . S
C152 C157 1.499 . S
N153 Co136 1.989 . S
N153 C152 1.342 . S
N153 N154 1.388 . S
N154 Co137 1.993 . S
N154 N153 1.388 . S
N154 C155 1.346 . S
C155 N154 1.346 . S
C155 C156 1.396 . S
C155 C165 1.510 . S
C156 C152 1.401 . S
C156 C155 1.396 . S
C157 C152 1.499 . S
C157 H158 0.959 1_556 S
C157 H159 0.960 . S
C157 H160 0.961 . S
H158 C157 0.959 1_554 S
H159 C157 0.960 . S
H160 C157 0.961 . S
O161 Co136 1.967 . S
O161 C169 1.258 . S
O162 Co137 1.941 . S
O162 C169 1.266 . S
H163 C165 0.959 . S
H164 C165 0.961 . S
C165 C155 1.510 . S
C165 H163 0.959 . S
C165 H164 0.961 . S
C165 H166 0.960 . S
H166 C165 0.960 . S
H167 N147 0.862 . S
O168 Co136 1.920 1_554 S
O168 C141 1.289 . S
C169 O161 1.258 . S
C169 O162 1.266 . S
Co170 O173 1.970 . S
Co170 N187 1.989 . S
Co170 O195 1.967 . S
Co170 O202 1.920 . S
Co171 O174 1.966 1_554 S
Co171 N180 2.022 . S
Co171 N188 1.993 1_554 S
Co171 O196 1.941 1_554 S
C172 O173 1.258 . S
C172 O174 1.263 . S
O173 Co170 1.970 . S
O173 C172 1.258 . S
O174 Co171 1.966 1_556 S
O174 C172 1.263 . S
C175 O176 1.235 1_545 S
C175 O202 1.289 . S
O176 C175 1.235 1_565 S
C177 C179 1.400 . S
C177 N180 1.351 . S
C177 C182 1.501 . S
C178 C179 1.387 . S
C178 N181 1.341 . S
C179 C177 1.400 . S
C179 C178 1.387 . S
N180 Co171 2.022 . S
N180 C177 1.351 . S
N180 N181 1.365 . S
N181 C178 1.341 . S
N181 N180 1.365 . S
N181 H201 0.862 . S
C182 C177 1.501 . S
C182 H183 0.961 . S
C182 H184 0.961 . S
C182 H185 0.960 . S
H183 C182 0.961 . S
H184 C182 0.961 . S
H185 C182 0.960 . S
C186 N187 1.342 . S
C186 C190 1.401 . S
C186 C191 1.499 . S
N187 Co170 1.989 . S
N187 C186 1.342 . S
N187 N188 1.388 . S
N188 Co171 1.993 1_556 S
N188 N187 1.388 . S
N188 C189 1.346 1_556 S
C189 N188 1.346 1_554 S
C189 C190 1.396 1_554 S
C189 C199 1.510 . S
C190 C186 1.401 . S
C190 C189 1.396 1_556 S
C191 C186 1.499 . S
C191 H192 0.959 . S
C191 H193 0.976 . S
C191 H194 0.961 . S
H192 C191 0.959 . S
H193 C191 0.976 . S
H194 C191 0.961 . S
O195 Co170 1.967 . S
O195 C203 1.258 . S
O196 Co171 1.941 1_556 S
O196 C203 1.266 . S
H197 C199 0.959 . S
H198 C199 0.961 . S
C199 C189 1.510 . S
C199 H197 0.959 . S
C199 H198 0.961 . S
C199 H200 0.960 . S
H200 C199 0.960 . S
H201 N181 0.862 . S
O202 Co170 1.920 . S
O202 C175 1.289 . S
C203 O195 1.258 . S
C203 O196 1.266 . S
Co204 O207 1.970 . S
Co204 N221 1.989 . S
Co204 O229 1.967 . S
Co204 O236 1.920 . S
Co205 O208 1.966 . S
Co205 N214 2.022 . S
Co205 N222 1.993 . S
Co205 O230 1.941 . S
C206 O207 1.258 . S
C206 O208 1.263 . S
O207 Co204 1.970 . S
O207 C206 1.258 . S
O208 Co205 1.966 . S
O208 C206 1.263 . S
C209 O210 1.235 . S
C209 O236 1.289 . S
O210 C209 1.235 . S
C211 C213 1.400 . S
C211 N214 1.351 . S
C211 C216 1.501 . S
C212 C213 1.387 . S
C212 N215 1.341 . S
C213 C211 1.400 . S
C213 C212 1.387 . S
N214 Co205 2.022 . S
N214 C211 1.351 . S
N214 N215 1.365 . S
N215 C212 1.341 . S
N215 N214 1.365 . S
N215 H235 0.862 . S
C216 C211 1.501 . S
C216 H217 0.961 . S
C216 H218 0.961 . S
C216 H219 0.960 . S
H217 C216 0.961 . S
H218 C216 0.961 . S
H219 C216 0.960 . S
C220 N221 1.342 . S
C220 C224 1.401 . S
C220 C225 1.499 . S
N221 Co204 1.989 . S
N221 C220 1.342 . S
N221 N222 1.388 . S
N222 Co205 1.993 . S
N222 N221 1.388 . S
N222 C223 1.346 . S
C223 N222 1.346 . S
C223 C224 1.396 . S
C223 C233 1.510 . S
C224 C220 1.401 . S
C224 C223 1.396 . S
C225 C220 1.499 . S
C225 H226 0.959 . S
C225 H227 0.960 . S
C225 H228 0.961 . S
H226 C225 0.959 . S
H227 C225 0.960 . S
H228 C225 0.961 . S
O229 Co204 1.967 . S
O229 C237 1.258 . S
O230 Co205 1.941 . S
O230 C237 1.266 . S
H231 C233 0.959 . S
H232 C233 0.961 . S
C233 C223 1.510 . S
C233 H231 0.959 . S
C233 H232 0.961 . S
C233 H234 0.960 . S
H234 C233 0.960 . S
H235 N215 0.862 . S
O236 Co204 1.920 . S
O236 C209 1.289 . S
C237 O229 1.258 . S
C237 O230 1.266 . S
Co238 O241 1.970 . S
Co238 N255 1.989 . S
Co238 O263 1.967 . S
Co238 O270 1.920 . S
Co239 O242 1.966 . S
Co239 N248 2.022 . S
Co239 N256 1.993 . S
Co239 O264 1.941 . S
C240 O241 1.258 . S
C240 O242 1.263 . S
O241 Co238 1.970 . S
O241 C240 1.258 . S
O242 Co239 1.966 . S
O242 C240 1.263 . S
C243 O244 1.235 . S
C243 O270 1.289 . S
O244 C243 1.235 . S
C245 C247 1.400 . S
C245 N248 1.351 . S
C245 C250 1.501 . S
C246 C247 1.387 . S
C246 N249 1.341 . S
C247 C245 1.400 . S
C247 C246 1.387 . S
N248 Co239 2.022 . S
N248 C245 1.351 . S
N248 N249 1.365 . S
N249 C246 1.341 . S
N249 N248 1.365 . S
N249 H269 0.862 . S
C250 C245 1.501 . S
C250 H251 0.961 . S
C250 H252 0.961 . S
C250 H253 0.960 . S
H251 C250 0.961 . S
H252 C250 0.961 . S
H253 C250 0.960 . S
C254 N255 1.342 . S
C254 C258 1.401 . S
C254 C259 1.499 . S
N255 Co238 1.989 . S
N255 C254 1.342 . S
N255 N256 1.388 . S
N256 Co239 1.993 . S
N256 N255 1.388 . S
N256 C257 1.346 . S
C257 N256 1.346 . S
C257 C258 1.396 . S
C257 C267 1.510 . S
C258 C254 1.401 . S
C258 C257 1.396 . S
C259 C254 1.499 . S
C259 H260 0.959 . S
C259 H261 0.960 . S
C259 H262 0.961 . S
H260 C259 0.959 . S
H261 C259 0.960 . S
H262 C259 0.961 . S
O263 Co238 1.967 . S
O263 C271 1.258 . S
O264 Co239 1.941 . S
O264 C271 1.266 . S
H265 C267 0.959 . S
H266 C267 0.961 . S
C267 C257 1.510 . S
C267 H265 0.959 . S
C267 H266 0.961 . S
C267 H268 0.960 . S
H268 C267 0.960 . S
H269 N249 0.862 . S
O270 Co238 1.920 . S
O270 C243 1.289 . S
C271 O263 1.258 . S
C271 O264 1.266 . S
H272 C278 0.930 . S
H273 C281 0.930 . S
H274 C282 0.930 . S
H275 C283 0.930 . S
H276 C286 0.930 . S
H277 C287 0.930 . S
C278 H272 0.930 . S
C278 C279 1.355 . S
C278 C280 1.415 . S
C279 C278 1.355 . S
C279 C281 1.419 . S
C280 C278 1.415 . S
C280 C285 1.425 . S
C280 C287 1.409 1_565 S
C281 H273 0.930 . S
C281 C279 1.419 . S
C281 C282 1.362 . S
C282 H274 0.930 . S
C282 C281 1.362 . S
C282 C285 1.409 . S
C283 H275 0.930 . S
C283 C284 1.355 . S
C283 C285 1.415 . S
C284 C283 1.355 . S
C284 C286 1.419 1_565 S
C285 C280 1.425 . S
C285 C282 1.409 . S
C285 C283 1.415 . S
C286 H276 0.930 . S
C286 C284 1.419 1_545 S
C286 C287 1.362 . S
C287 H277 0.930 . S
C287 C280 1.409 1_545 S
C287 C286 1.362 . S
H288 C294 0.930 . S
H289 C297 0.930 . S
H290 C298 0.930 . S
H291 C299 0.930 . S
H292 C302 0.930 . S
H293 C303 0.930 . S
C294 H288 0.930 . S
C294 C295 1.355 . S
C294 C296 1.415 . S
C295 C294 1.355 . S
C295 C297 1.419 . S
C296 C294 1.415 . S
C296 C301 1.425 . S
C296 C303 1.409 . S
C297 H289 0.930 . S
C297 C295 1.419 . S
C297 C298 1.362 . S
C298 H290 0.930 . S
C298 C297 1.362 . S
C298 C301 1.409 . S
C299 H291 0.930 . S
C299 C300 1.355 . S
C299 C301 1.415 . S
C300 C299 1.355 . S
C300 C302 1.419 . S
C301 C296 1.425 . S
C301 C298 1.409 . S
C301 C299 1.415 . S
C302 H292 0.930 . S
C302 C300 1.419 . S
C302 C303 1.362 . S
C303 H293 0.930 . S
C303 C296 1.409 . S
C303 C302 1.362 . S
H304 C310 0.930 . S
H305 C313 0.930 . S
H306 C314 0.930 . S
H307 C315 0.930 . S
H308 C318 0.924 1_545 S
H309 C319 0.930 . S
C310 H304 0.930 . S
C310 C311 1.355 . S
C310 C312 1.415 . S
C311 C310 1.355 . S
C311 C313 1.419 1_545 S
C312 C310 1.415 . S
C312 C317 1.425 1_545 S
C312 C319 1.409 . S
C313 H305 0.930 . S
C313 C311 1.419 1_565 S
C313 C314 1.362 . S
C314 H306 0.930 . S
C314 C313 1.362 . S
C314 C317 1.409 . S
C315 H307 0.930 . S
C315 C316 1.355 . S
C315 C317 1.415 . S
C316 C315 1.355 . S
C316 C318 1.419 . S
C317 C312 1.425 1_565 S
C317 C314 1.409 . S
C317 C315 1.415 . S
C318 H308 0.924 1_565 S
C318 C316 1.419 . S
C318 C319 1.362 1_565 S
C319 H309 0.930 . S
C319 C312 1.409 . S
C319 C318 1.362 1_545 S
H320 C326 0.930 . S
H321 C329 0.930 . S
H322 C330 0.930 . S
H323 C331 0.930 . S
H324 C334 0.930 . S
H325 C335 0.930 . S
C326 H320 0.930 . S
C326 C327 1.355 . S
C326 C328 1.415 . S
C327 C326 1.355 . S
C327 C329 1.419 . S
C328 C326 1.415 . S
C328 C333 1.425 . S
C328 C335 1.409 . S
C329 H321 0.930 . S
C329 C327 1.419 . S
C329 C330 1.362 . S
C330 H322 0.930 . S
C330 C329 1.362 . S
C330 C333 1.409 . S
C331 H323 0.930 . S
C331 C332 1.355 . S
C331 C333 1.415 . S
C332 C331 1.355 . S
C332 C334 1.419 . S
C333 C328 1.425 . S
C333 C330 1.409 . S
C333 C331 1.415 . S
C334 H324 0.930 . S
C334 C332 1.419 . S
C334 C335 1.362 . S
C335 H325 0.930 . S
C335 C328 1.409 . S
C335 C334 1.362 . S
H336 C342 0.930 . S
H337 C345 0.930 . S
H338 C346 0.930 . S
H339 C347 0.930 . S
H340 C350 0.930 . S
H341 C351 0.930 . S
C342 H336 0.930 . S
C342 C343 1.355 . S
C342 C344 1.415 . S
C343 C342 1.355 . S
C343 C345 1.419 1_556 S
C344 C342 1.415 . S
C344 C349 1.425 1_556 S
C344 C351 1.409 1_655 S
C345 H337 0.930 . S
C345 C343 1.419 1_554 S
C345 C346 1.362 . S
C346 H338 0.930 . S
C346 C345 1.362 . S
C346 C349 1.409 . S
C347 H339 0.930 . S
C347 C348 1.355 1_655 S
C347 C349 1.415 . S
C348 C347 1.355 1_455 S
C348 C350 1.419 1_554 S
C349 C344 1.425 1_554 S
C349 C346 1.409 . S
C349 C347 1.415 . S
C350 H340 0.930 . S
C350 C348 1.419 1_556 S
C350 C351 1.362 . S
C351 H341 0.930 . S
C351 C344 1.409 1_455 S
C351 C350 1.362 . S
H352 C358 0.930 1_546 S
H353 C361 0.930 . S
H354 C362 0.930 . S
H355 C363 0.930 . S
H356 C366 0.930 . S
H357 C367 0.930 . S
C358 H352 0.930 1_564 S
C358 C359 1.355 . S
C358 C360 1.415 1_565 S
C359 C358 1.355 . S
C359 C361 1.419 . S
C360 C358 1.415 1_545 S
C360 C365 1.425 1_545 S
C360 C367 1.409 1_554 S
C361 H353 0.930 . S
C361 C359 1.419 . S
C361 C362 1.362 . S
C362 H354 0.930 . S
C362 C361 1.362 . S
C362 C365 1.409 . S
C363 H355 0.930 . S
C363 C364 1.355 1_564 S
C363 C365 1.415 . S
C364 C363 1.355 1_546 S
C364 C366 1.419 . S
C365 C360 1.425 1_565 S
C365 C362 1.409 . S
C365 C363 1.415 . S
C366 H356 0.930 . S
C366 C364 1.419 . S
C366 C367 1.362 . S
C367 H357 0.930 . S
C367 C360 1.409 1_556 S
C367 C366 1.362 . S
H368 C374 0.930 . S
H369 C377 0.930 . S
H370 C378 0.930 . S
H371 C379 0.930 . S
H372 C382 0.930 . S
H373 C383 0.933 . S
C374 H368 0.930 . S
C374 C375 1.355 . S
C374 C376 1.415 . S
C375 C374 1.355 . S
C375 C377 1.419 . S
C376 C374 1.415 . S
C376 C381 1.425 . S
C376 C383 1.409 1_455 S
C377 H369 0.930 . S
C377 C375 1.419 . S
C377 C378 1.362 . S
C378 H370 0.930 . S
C378 C377 1.362 . S
C378 C381 1.409 . S
C379 H371 0.930 . S
C379 C380 1.355 . S
C379 C381 1.415 1_655 S
C380 C379 1.355 . S
C380 C382 1.419 . S
C381 C376 1.425 . S
C381 C378 1.409 . S
C381 C379 1.415 1_455 S
C382 H372 0.930 . S
C382 C380 1.419 . S
C382 C383 1.362 . S
C383 H373 0.933 . S
C383 C376 1.409 1_655 S
C383 C382 1.362 . S
H384 C390 0.930 . S
H385 C393 0.930 . S
H386 C394 0.930 . S
H387 C395 0.930 . S
H388 C398 0.930 . S
H389 C399 0.930 . S
C390 H384 0.930 . S
C390 C391 1.355 . S
C390 C392 1.415 . S
C391 C390 1.355 . S
C391 C393 1.419 . S
C392 C390 1.415 . S
C392 C397 1.425 . S
C392 C399 1.409 . S
C393 H385 0.930 . S
C393 C391 1.419 . S
C393 C394 1.362 . S
C394 H386 0.930 . S
C394 C393 1.362 . S
C394 C397 1.409 . S
C395 H387 0.930 . S
C395 C396 1.355 . S
C395 C397 1.415 . S
C396 C395 1.355 . S
C396 C398 1.419 . S
C397 C392 1.425 . S
C397 C394 1.409 . S
C397 C395 1.415 . S
C398 H388 0.930 . S
C398 C396 1.419 . S
C398 C399 1.362 . S
C399 H389 0.930 . S
C399 C392 1.409 . S
C399 C398 1.362 . S
H400 C406 0.930 . S
H401 C409 0.930 . S
H402 C410 0.930 . S
H403 C411 0.930 . S
H404 C414 0.930 . S
H405 C415 0.930 . S
C406 H400 0.930 . S
C406 C407 1.355 1_565 S
C406 C408 1.415 . S
C407 C406 1.355 1_545 S
C407 C409 1.419 . S
C408 C406 1.415 . S
C408 C413 1.425 1_565 S
C408 C415 1.409 . S
C409 H401 0.930 . S
C409 C407 1.419 . S
C409 C410 1.362 . S
C410 H402 0.930 . S
C410 C409 1.362 . S
C410 C413 1.409 . S
C411 H403 0.930 . S
C411 C412 1.355 1_545 S
C411 C413 1.415 . S
C412 C411 1.355 1_565 S
C412 C414 1.419 . S
C413 C408 1.425 1_545 S
C413 C410 1.409 . S
C413 C411 1.415 . S
C414 H404 0.930 . S
C414 C412 1.419 . S
C414 C415 1.362 . S
C415 H405 0.930 . S
C415 C408 1.409 . S
C415 C414 1.362 . S
H416 C422 0.930 . S
H417 C425 0.930 . S
H418 C426 0.930 . S
H419 C427 0.930 . S
H420 C430 0.930 . S
H421 C431 0.930 1_545 S
C422 H416 0.930 . S
C422 C423 1.355 . S
C422 C424 1.415 . S
C423 C422 1.355 . S
C423 C425 1.419 . S
C424 C422 1.415 . S
C424 C429 1.425 . S
C424 C431 1.409 . S
C425 H417 0.930 . S
C425 C423 1.419 . S
C425 C426 1.362 . S
C426 H418 0.930 . S
C426 C425 1.362 . S
C426 C429 1.409 . S
C427 H419 0.930 . S
C427 C428 1.355 . S
C427 C429 1.415 . S
C428 C427 1.355 . S
C428 C430 1.419 . S
C429 C424 1.425 . S
C429 C426 1.409 . S
C429 C427 1.415 . S
C430 H420 0.930 . S
C430 C428 1.419 . S
C430 C431 1.362 . S
C431 H421 0.930 1_565 S
C431 C424 1.409 . S
C431 C430 1.362 . S
H432 C438 0.930 . S
H433 C441 0.930 . S
H434 C442 0.930 . S
H435 C443 0.930 . S
H436 C446 0.930 . S
H437 C447 0.930 . S
C438 H432 0.930 . S
C438 C439 1.355 . S
C438 C440 1.415 . S
C439 C438 1.355 . S
C439 C441 1.419 . S
C440 C438 1.415 . S
C440 C445 1.425 . S
C440 C447 1.409 . S
C441 H433 0.930 . S
C441 C439 1.419 . S
C441 C442 1.362 . S
C442 H434 0.930 . S
C442 C441 1.362 . S
C442 C445 1.409 . S
C443 H435 0.930 . S
C443 C444 1.355 . S
C443 C445 1.415 1_554 S
C444 C443 1.355 . S
C444 C446 1.419 . S
C445 C440 1.425 . S
C445 C442 1.409 . S
C445 C443 1.415 1_556 S
C446 H436 0.930 . S
C446 C444 1.419 . S
C446 C447 1.362 1_554 S
C447 H437 0.930 . S
C447 C440 1.409 . S
C447 C446 1.362 1_556 S
H448 C454 0.930 . S
H449 C457 0.930 . S
H450 C458 0.930 . S
H451 C459 0.930 . S
H452 C462 0.930 . S
H453 C463 0.930 . S
C454 H448 0.930 . S
C454 C455 1.355 . S
C454 C456 1.415 1_554 S
C455 C454 1.355 . S
C455 C457 1.419 . S
C456 C454 1.415 1_556 S
C456 C461 1.425 . S
C456 C463 1.409 . S
C457 H449 0.930 . S
C457 C455 1.419 . S
C457 C458 1.362 1_554 S
C458 H450 0.930 . S
C458 C457 1.362 1_556 S
C458 C461 1.409 . S
C459 H451 0.930 . S
C459 C460 1.355 . S
C459 C461 1.415 . S
C460 C459 1.355 . S
C460 C462 1.419 . S
C461 C456 1.425 . S
C461 C458 1.409 . S
C461 C459 1.415 . S
C462 H452 0.930 . S
C462 C460 1.419 . S
C462 C463 1.362 . S
C463 H453 0.930 . S
C463 C456 1.409 . S
C463 C462 1.362 . S
H464 C470 0.930 . S
H465 C473 0.930 . S
H466 C474 0.930 . S
H467 C475 0.930 . S
H468 C478 0.930 . S
H469 C479 0.930 . S
C470 H464 0.930 . S
C470 C471 1.355 . S
C470 C472 1.415 . S
C471 C470 1.355 . S
C471 C473 1.419 . S
C472 C470 1.415 . S
C472 C477 1.425 . S
C472 C479 1.409 . S
C473 H465 0.930 . S
C473 C471 1.419 . S
C473 C474 1.362 . S
C474 H466 0.930 . S
C474 C473 1.362 . S
C474 C477 1.409 . S
C475 H467 0.930 . S
C475 C476 1.355 . S
C475 C477 1.415 . S
C476 C475 1.355 . S
C476 C478 1.419 . S
C477 C472 1.425 . S
C477 C474 1.409 . S
C477 C475 1.415 . S
C478 H468 0.930 . S
C478 C476 1.419 . S
C478 C479 1.362 . S
C479 H469 0.930 . S
C479 C472 1.409 . S
C479 C478 1.362 . S
H480 C486 0.930 1_565 S
H481 C489 0.930 . S
H482 C490 0.930 . S
H483 C491 0.930 . S
H484 C494 0.930 1_565 S
H485 C495 0.930 . S
C486 H480 0.930 1_545 S
C486 C487 1.355 . S
C486 C488 1.415 . S
C487 C486 1.355 . S
C487 C489 1.419 . S
C488 C486 1.415 . S
C488 C493 1.425 . S
C488 C495 1.409 1_545 S
C489 H481 0.930 . S
C489 C487 1.419 . S
C489 C490 1.362 . S
C490 H482 0.930 . S
C490 C489 1.362 . S
C490 C493 1.409 . S
C491 H483 0.930 . S
C491 C492 1.355 . S
C491 C493 1.415 . S
C492 C491 1.355 . S
C492 C494 1.419 . S
C493 C488 1.425 . S
C493 C490 1.409 . S
C493 C491 1.415 . S
C494 H484 0.930 1_545 S
C494 C492 1.419 . S
C494 C495 1.362 1_545 S
C495 H485 0.930 . S
C495 C488 1.409 1_565 S
C495 C494 1.362 1_565 S
H496 C502 0.930 . S
H497 C505 0.930 . S
H498 C506 0.930 . S
H499 C507 0.930 . S
H500 C510 0.930 . S
H501 C511 0.930 . S
C502 H496 0.930 . S
C502 C503 1.355 . S
C502 C504 1.415 . S
C503 C502 1.355 . S
C503 C505 1.419 . S
C504 C502 1.415 . S
C504 C509 1.425 . S
C504 C511 1.409 . S
C505 H497 0.930 . S
C505 C503 1.419 . S
C505 C506 1.362 . S
C506 H498 0.930 . S
C506 C505 1.362 . S
C506 C509 1.409 . S
C507 H499 0.930 . S
C507 C508 1.355 . S
C507 C509 1.415 1_556 S
C508 C507 1.355 . S
C508 C510 1.419 . S
C509 C504 1.425 . S
C509 C506 1.409 . S
C509 C507 1.415 1_554 S
C510 H500 0.930 . S
C510 C508 1.419 . S
C510 C511 1.362 1_556 S
C511 H501 0.930 . S
C511 C504 1.409 . S
C511 C510 1.362 1_554 S
H512 C518 0.930 . S
H513 C521 0.930 . S
H514 C522 0.930 . S
H515 C523 0.930 . S
H516 C526 0.930 . S
H517 C527 0.930 . S
C518 H512 0.930 . S
C518 C519 1.355 . S
C518 C520 1.415 . S
C519 C518 1.355 . S
C519 C521 1.419 . S
C520 C518 1.415 . S
C520 C525 1.425 . S
C520 C527 1.409 . S
C521 H513 0.930 . S
C521 C519 1.419 . S
C521 C522 1.362 . S
C522 H514 0.930 . S
C522 C521 1.362 . S
C522 C525 1.409 . S
C523 H515 0.930 . S
C523 C524 1.355 . S
C523 C525 1.415 1_556 S
C524 C523 1.355 . S
C524 C526 1.419 . S
C525 C520 1.425 . S
C525 C522 1.409 . S
C525 C523 1.415 1_554 S
C526 H516 0.930 . S
C526 C524 1.419 . S
C526 C527 1.362 1_556 S
C527 H517 0.930 . S
C527 C520 1.409 . S
C527 C526 1.362 1_554 S
H528 C534 0.930 . S
H529 C537 0.930 . S
H530 C538 0.930 . S
H531 C539 0.930 . S
H532 C542 0.930 . S
H533 C543 0.930 . S
C534 H528 0.930 . S
C534 C535 1.355 . S
C534 C536 1.415 . S
C535 C534 1.355 . S
C535 C537 1.419 . S
C536 C534 1.415 . S
C536 C541 1.425 . S
C536 C543 1.409 . S
C537 H529 0.930 . S
C537 C535 1.419 . S
C537 C538 1.362 . S
C538 H530 0.930 . S
C538 C537 1.362 . S
C538 C541 1.409 . S
C539 H531 0.930 . S
C539 C540 1.355 . S
C539 C541 1.415 . S
C540 C539 1.355 . S
C540 C542 1.419 . S
C541 C536 1.425 . S
C541 C538 1.409 . S
C541 C539 1.415 . S
C542 H532 0.930 . S
C542 C540 1.419 . S
C542 C543 1.362 . S
C543 H533 0.930 . S
C543 C536 1.409 . S
C543 C542 1.362 . S
H544 C550 0.930 . S
H545 C553 0.930 . S
H546 C554 0.930 . S
H547 C555 0.930 . S
H548 C558 0.930 . S
H549 C559 0.930 . S
C550 H544 0.930 . S
C550 C551 1.355 . S
C550 C552 1.415 . S
C551 C550 1.355 . S
C551 C553 1.419 . S
C552 C550 1.415 . S
C552 C557 1.425 . S
C552 C559 1.409 . S
C553 H545 0.930 . S
C553 C551 1.419 . S
C553 C554 1.362 . S
C554 H546 0.930 . S
C554 C553 1.362 . S
C554 C557 1.409 . S
C555 H547 0.930 . S
C555 C556 1.355 . S
C555 C557 1.415 . S
C556 C555 1.355 . S
C556 C558 1.419 . S
C557 C552 1.425 . S
C557 C554 1.409 . S
C557 C555 1.415 . S
C558 H548 0.930 . S
C558 C556 1.419 . S
C558 C559 1.362 . S
C559 H549 0.930 . S
C559 C552 1.409 . S
C559 C558 1.362 . S
H560 C566 0.930 . S
H561 C569 0.930 . S
H562 C570 0.930 . S
H563 C571 0.930 . S
H564 C574 0.930 . S
H565 C575 0.930 . S
C566 H560 0.930 . S
C566 C567 1.355 . S
C566 C568 1.415 . S
C567 C566 1.355 . S
C567 C569 1.419 . S
C568 C566 1.415 . S
C568 C573 1.425 . S
C568 C575 1.409 . S
C569 H561 0.930 . S
C569 C567 1.419 . S
C569 C570 1.362 . S
C570 H562 0.930 . S
C570 C569 1.362 . S
C570 C573 1.409 . S
C571 H563 0.930 . S
C571 C572 1.355 . S
C571 C573 1.415 . S
C572 C571 1.355 . S
C572 C574 1.419 . S
C573 C568 1.425 . S
C573 C570 1.409 . S
C573 C571 1.415 . S
C574 H564 0.930 . S
C574 C572 1.419 . S
C574 C575 1.362 . S
C575 H565 0.930 . S
C575 C568 1.409 . S
C575 C574 1.362 . S
H576 C582 0.930 . S
H577 C585 0.930 . S
H578 C586 0.930 . S
H579 C587 0.930 . S
H580 C590 0.930 . S
H581 C591 0.930 . S
C582 H576 0.930 . S
C582 C583 1.355 . S
C582 C584 1.415 . S
C583 C582 1.355 . S
C583 C585 1.419 . S
C584 C582 1.415 . S
C584 C589 1.425 . S
C584 C591 1.409 . S
C585 H577 0.930 . S
C585 C583 1.419 . S
C585 C586 1.362 . S
C586 H578 0.930 . S
C586 C585 1.362 . S
C586 C589 1.409 . S
C587 H579 0.930 . S
C587 C588 1.355 . S
C587 C589 1.415 . S
C588 C587 1.355 . S
C588 C590 1.419 . S
C589 C584 1.425 . S
C589 C586 1.409 . S
C589 C587 1.415 . S
C590 H580 0.930 . S
C590 C588 1.419 . S
C590 C591 1.362 . S
C591 H581 0.930 . S
C591 C584 1.409 . S
C591 C590 1.362 . S
C279 C36 1.779 . S
C284 C2 1.783 1_565 S
C295 C70 1.439 . S
C300 C104 1.441 . S
C311 C172 1.701 . S
C316 C138 1.718 . S
C327 C206 1.175 . S
C332 C240 1.177 . S
C343 C169 1.761 . S
C348 C20 1.767 . S
C359 C54 1.723 . S
C364 C190 1.729 . S
C375 C88 1.312 . S
C380 C224 1.311 . S
C391 C122 1.574 . S
C396 C258 1.577 . S
C407 C9 1.279 . S
C412 C5 1.345 . S
C423 C39 1.296 . S
C428 C43 1.304 . S
C439 C77 1.276 . S
C444 C73 1.316 . S
C455 C107 1.285 . S
C460 C111 1.292 . S
C471 C141 1.332 . S
C476 C145 1.315 . S
C487 C175 1.320 . S
C492 C179 1.319 . S
C503 C213 1.249 . S
C508 C209 1.311 . S
C519 C247 1.341 . S
C524 C243 1.346 . S
C535 C33 1.613 . S
C540 C101 1.606 . S
C551 C67 1.820 . S
C556 C135 1.815 . S
C567 C156 1.430 . S
C572 C237 1.446 . S
C583 C203 1.417 . S
C588 C271 1.419 . S
