# Generated by pormake.
# Topology lcs, (4)-cn, num edge types: 1
# Building blocks:
#     Node 0, Type 0, BuildingBlock: UXUYUI_clean_sbu_0, # of connection points: 4
#     Node 1, Type 0, BuildingBlock: UXUYUI_clean_sbu_0, # of connection points: 4
#     Node 2, Type 0, BuildingBlock: UXUYUI_clean_sbu_0, # of connection points: 4
#     Node 3, Type 0, BuildingBlock: UXUYUI_clean_sbu_0, # of connection points: 4
#     Node 4, Type 0, BuildingBlock: UXUYUI_clean_sbu_0, # of connection points: 4
#     Node 5, Type 0, BuildingBlock: UXUYUI_clean_sbu_0, # of connection points: 4
#     Node 6, Type 0, BuildingBlock: UXUYUI_clean_sbu_0, # of connection points: 4
#     Node 7, Type 0, BuildingBlock: UXUYUI_clean_sbu_0, # of connection points: 4
#     Node 8, Type 0, BuildingBlock: UXUYUI_clean_sbu_0, # of connection points: 4
#     Node 9, Type 0, BuildingBlock: UXUYUI_clean_sbu_0, # of connection points: 4
#     Node 10, Type 0, BuildingBlock: UXUYUI_clean_sbu_0, # of connection points: 4
#     Node 11, Type 0, BuildingBlock: UXUYUI_clean_sbu_0, # of connection points: 4
#     Node 12, Type 0, BuildingBlock: UXUYUI_clean_sbu_0, # of connection points: 4
#     Node 13, Type 0, BuildingBlock: UXUYUI_clean_sbu_0, # of connection points: 4
#     Node 14, Type 0, BuildingBlock: UXUYUI_clean_sbu_0, # of connection points: 4
#     Node 15, Type 0, BuildingBlock: UXUYUI_clean_sbu_0, # of connection points: 4
#     Node 16, Type 0, BuildingBlock: UXUYUI_clean_sbu_0, # of connection points: 4
#     Node 17, Type 0, BuildingBlock: UXUYUI_clean_sbu_0, # of connection points: 4
#     Node 18, Type 0, BuildingBlock: UXUYUI_clean_sbu_0, # of connection points: 4
#     Node 19, Type 0, BuildingBlock: UXUYUI_clean_sbu_0, # of connection points: 4
#     Node 20, Type 0, BuildingBlock: UXUYUI_clean_sbu_0, # of connection points: 4
#     Node 21, Type 0, BuildingBlock: UXUYUI_clean_sbu_0, # of connection points: 4
#     Node 22, Type 0, BuildingBlock: UXUYUI_clean_sbu_0, # of connection points: 4
#     Node 23, Type 0, BuildingBlock: UXUYUI_clean_sbu_0, # of connection points: 4
#     Edge 24, Type (0, 0), None
#     Edge 25, Type (0, 0), None
#     Edge 26, Type (0, 0), None
#     Edge 27, Type (0, 0), None
#     Edge 28, Type (0, 0), None
#     Edge 29, Type (0, 0), None
#     Edge 30, Type (0, 0), None
#     Edge 31, Type (0, 0), None
#     Edge 32, Type (0, 0), None
#     Edge 33, Type (0, 0), None
#     Edge 34, Type (0, 0), None
#     Edge 35, Type (0, 0), None
#     Edge 36, Type (0, 0), None
#     Edge 37, Type (0, 0), None
#     Edge 38, Type (0, 0), None
#     Edge 39, Type (0, 0), None
#     Edge 40, Type (0, 0), None
#     Edge 41, Type (0, 0), None
#     Edge 42, Type (0, 0), None
#     Edge 43, Type (0, 0), None
#     Edge 44, Type (0, 0), None
#     Edge 45, Type (0, 0), None
#     Edge 46, Type (0, 0), None
#     Edge 47, Type (0, 0), None
#     Edge 48, Type (0, 0), None
#     Edge 49, Type (0, 0), None
#     Edge 50, Type (0, 0), None
#     Edge 51, Type (0, 0), None
#     Edge 52, Type (0, 0), None
#     Edge 53, Type (0, 0), None
#     Edge 54, Type (0, 0), None
#     Edge 55, Type (0, 0), None
#     Edge 56, Type (0, 0), None
#     Edge 57, Type (0, 0), None
#     Edge 58, Type (0, 0), None
#     Edge 59, Type (0, 0), None
#     Edge 60, Type (0, 0), None
#     Edge 61, Type (0, 0), None
#     Edge 62, Type (0, 0), None
#     Edge 63, Type (0, 0), None
#     Edge 64, Type (0, 0), None
#     Edge 65, Type (0, 0), None
#     Edge 66, Type (0, 0), None
#     Edge 67, Type (0, 0), None
#     Edge 68, Type (0, 0), None
#     Edge 69, Type (0, 0), None
#     Edge 70, Type (0, 0), None
#     Edge 71, Type (0, 0), None
# Relax obj value: 0.148
# Max RMSD: 0.190
# Mean RMSD: 0.190
data_MOF--net-lcs--node1-UXUYUI_clean_sbu_0--edge1-none
_symmetry_space_group_name_H-M    P1
_symmetry_Int_Tables_number       1
_symmetry_cell_setting            triclinic
loop_
_symmetry_equiv_pos_as_xyz
'x, y, z'
_cell_length_a     45.146824
_cell_length_b     45.146818
_cell_length_c     45.146811
_cell_angle_alpha  89.999736
_cell_angle_beta   89.999785
_cell_angle_gamma 89.999802
loop_
_atom_site_label
_atom_site_type_symbol
_atom_site_fract_x
_atom_site_fract_y
_atom_site_fract_z
_atom_type_partial_charge
Li0 Li 0.01335 0.27807 0.35685 0.0
Li1 Li 0.02849 0.24276 0.39667 0.0
Li2 Li 0.99198 0.22725 0.35684 0.0
Li3 Li 0.97683 0.26256 0.39668 0.0
C4 C 0.05214 0.23339 0.32976 0.0
N5 N 0.0889 0.22124 0.28241 0.0
C6 C 0.08275 0.23142 0.33397 0.0
C7 C 0.04018 0.22892 0.30158 0.0
C8 C 0.10097 0.22534 0.30972 0.0
C9 C 0.05915 0.22287 0.27789 0.0
C10 C 0.02416 0.30097 0.4239 0.0
C11 C 0.02251 0.31278 0.47593 0.0
N12 N 0.04341 0.33406 0.47158 0.0
C13 C 0.04545 0.32307 0.41986 0.0
C14 C 0.01242 0.29586 0.45207 0.0
C15 C 0.05496 0.33951 0.44429 0.0
C16 C 0.00935 0.33634 0.33619 0.0
N17 N 0.02632 0.31152 0.33454 0.0
C18 C 0.06286 0.33731 0.30618 0.0
C19 C 0.05256 0.31148 0.31976 0.0
C20 C 0.04619 0.36352 0.30814 0.0
C21 C 0.0189 0.36272 0.32311 0.0
H22 H 0.98871 0.33579 0.34837 0.0
H23 H 0.066 0.29174 0.31925 0.0
C24 C 0.06965 0.19991 0.41257 0.0
N25 N 0.06204 0.22846 0.41833 0.0
C26 C 0.09541 0.18779 0.42471 0.0
C27 C 0.10482 0.23446 0.44911 0.0
C28 C 0.07891 0.24575 0.43635 0.0
C29 C 0.1136 0.20521 0.44302 0.0
H30 H 0.05596 0.18674 0.39796 0.0
H31 H 0.07279 0.26848 0.44035 0.0
C32 C 0.95328 0.27195 0.32969 0.0
N33 N 0.91671 0.28413 0.28221 0.0
C34 C 0.92267 0.27406 0.33381 0.0
C35 C 0.96534 0.27629 0.30153 0.0
C36 C 0.90454 0.28016 0.30949 0.0
C37 C 0.94646 0.28237 0.27778 0.0
C38 C 0.98126 0.20441 0.42398 0.0
C39 C 0.96011 0.18216 0.42007 0.0
C40 C 0.99296 0.20976 0.45213 0.0
C41 C 0.9507 0.16579 0.44459 0.0
C42 C 0.98297 0.1929 0.47608 0.0
N43 N 0.96221 0.17147 0.47185 0.0
C44 C 0.99602 0.16902 0.33608 0.0
C45 C 0.95273 0.19384 0.31983 0.0
C46 C 0.98646 0.14264 0.32299 0.0
N47 N 0.97901 0.19382 0.33452 0.0
C48 C 0.94241 0.16802 0.30624 0.0
C49 C 0.95913 0.14183 0.30811 0.0
H50 H 0.0167 0.16958 0.34819 0.0
H51 H 0.93925 0.21356 0.3194 0.0
C52 C 0.93576 0.30545 0.41271 0.0
N53 N 0.94328 0.27685 0.41833 0.0
C54 C 0.91002 0.31757 0.42486 0.0
C55 C 0.90042 0.27079 0.44897 0.0
C56 C 0.92632 0.2595 0.43621 0.0
C57 C 0.89173 0.3001 0.44302 0.0
H58 H 0.94953 0.31866 0.39821 0.0
H59 H 0.93235 0.23672 0.44008 0.0
O60 O 0.03403 0.23925 0.35329 0.0
O61 O 0.01463 0.28472 0.40024 0.0
O62 O 0.97129 0.26607 0.35329 0.0
O63 O 0.99068 0.22059 0.40023 0.0
H64 H 0.0923 0.2347 0.35572 0.0
H65 H 0.01652 0.22992 0.29804 0.0
H66 H 0.12472 0.22386 0.3126 0.0
H67 H 0.05022 0.21939 0.25593 0.0
H68 H 0.0137 0.30904 0.49789 0.0
H69 H 0.0546 0.32735 0.39811 0.0
H70 H 0.99566 0.27908 0.45546 0.0
H71 H 0.07152 0.35661 0.44155 0.0
H72 H 0.08425 0.33703 0.29531 0.0
H73 H 0.00526 0.38236 0.32499 0.0
H74 H 0.10103 0.16501 0.41974 0.0
H75 H 0.11828 0.24879 0.46286 0.0
H76 H 0.91305 0.27088 0.35554 0.0
H77 H 0.98901 0.27518 0.29807 0.0
H78 H 0.8808 0.28174 0.3123 0.0
H79 H 0.95547 0.28574 0.25583 0.0
H80 H 0.95099 0.17769 0.39834 0.0
H81 H 0.00961 0.22666 0.45543 0.0
H82 H 0.93425 0.14857 0.44195 0.0
H83 H 0.99176 0.19682 0.49803 0.0
H84 H 1.00013 0.12302 0.3248 0.0
H85 H 0.92099 0.16829 0.29545 0.0
H86 H 0.90447 0.3404 0.42 0.0
H87 H 0.88688 0.25642 0.4626 0.0
Li88 Li 0.01256 0.77851 0.64667 0.0
Li89 Li 0.97725 0.76335 0.60684 0.0
Li90 Li 0.99276 0.72684 0.64667 0.0
Li91 Li 0.02808 0.74198 0.60685 0.0
C92 C 0.95442 0.77408 0.67399 0.0
N93 N 0.9215 0.79312 0.72187 0.0
C94 C 0.93217 0.79524 0.67009 0.0
C95 C 0.95977 0.76237 0.70213 0.0
C96 C 0.91582 0.80465 0.69462 0.0
C97 C 0.94292 0.77235 0.72609 0.0
C98 C 0.02195 0.80206 0.57969 0.0
C99 C 0.03237 0.80888 0.52778 0.0
N100 N 0.03413 0.83863 0.53221 0.0
C101 C 0.02405 0.83266 0.58381 0.0
C102 C 0.0263 0.79 0.55153 0.0
C103 C 0.03014 0.8508 0.55948 0.0
C104 C 0.05543 0.81962 0.66263 0.0
N105 N 0.02685 0.81205 0.66832 0.0
C106 C 0.02083 0.85487 0.69905 0.0
C107 C 0.00954 0.82897 0.68628 0.0
C108 C 0.05011 0.8636 0.69303 0.0
C109 C 0.06755 0.84537 0.67478 0.0
H110 H 0.06862 0.8059 0.64807 0.0
H111 H 0.98678 0.82289 0.69022 0.0
C112 C 0.91901 0.75932 0.58611 0.0
N113 N 0.94382 0.77632 0.58453 0.0
C114 C 0.89263 0.76888 0.57302 0.0
C115 C 0.91802 0.8129 0.55622 0.0
C116 C 0.94384 0.80259 0.56981 0.0
C117 C 0.89182 0.79619 0.55811 0.0
H118 H 0.91957 0.73866 0.59824 0.0
H119 H 0.96357 0.81606 0.56935 0.0
C120 C 0.05097 0.73117 0.6739 0.0
N121 N 0.08406 0.71192 0.72158 0.0
C122 C 0.07306 0.70987 0.66986 0.0
C123 C 0.04587 0.74292 0.70207 0.0
C124 C 0.0895 0.70035 0.69429 0.0
C125 C 0.0628 0.73283 0.72593 0.0
C126 C 0.98339 0.7032 0.57976 0.0
C127 C 0.98142 0.6726 0.58396 0.0
C128 C 0.97893 0.71517 0.55157 0.0
C129 C 0.97534 0.65437 0.55969 0.0
C130 C 0.97288 0.69621 0.52788 0.0
N131 N 0.97125 0.66646 0.5324 0.0
C132 C 0.94994 0.68564 0.6625 0.0
C133 C 0.99572 0.67647 0.68642 0.0
C134 C 0.93782 0.65988 0.67464 0.0
N135 N 0.97846 0.6933 0.66833 0.0
C136 C 0.98444 0.65057 0.69918 0.0
C137 C 0.95522 0.64174 0.69302 0.0
H138 H 0.93679 0.69929 0.64784 0.0
H139 H 0.01844 0.68263 0.69048 0.0
C140 C 0.08634 0.74599 0.58618 0.0
N141 N 0.06152 0.72902 0.58454 0.0
C142 C 0.11272 0.73644 0.57309 0.0
C143 C 0.08731 0.69247 0.55618 0.0
C144 C 0.06149 0.70278 0.56977 0.0
C145 C 0.11352 0.70915 0.55813 0.0
H146 H 0.08578 0.76664 0.59834 0.0
H147 H 0.04175 0.68933 0.56927 0.0
O148 O 0.97059 0.76466 0.65023 0.0
O149 O 0.01607 0.78404 0.60328 0.0
O150 O 0.03472 0.7407 0.65024 0.0
O151 O 0.98925 0.7213 0.60329 0.0
H152 H 0.92771 0.80436 0.64836 0.0
H153 H 0.97667 0.74571 0.70542 0.0
H154 H 0.8986 0.8211 0.69198 0.0
H155 H 0.94685 0.76355 0.74803 0.0
H156 H 0.03576 0.79987 0.50583 0.0
H157 H 0.02086 0.84229 0.60554 0.0
H158 H 0.0252 0.76633 0.54807 0.0
H159 H 0.03172 0.87454 0.56229 0.0
H160 H 0.00649 0.86836 0.71274 0.0
H161 H 0.09035 0.85096 0.66986 0.0
H162 H 0.873 0.75521 0.57485 0.0
H163 H 0.9183 0.83431 0.5454 0.0
H164 H 0.07733 0.70071 0.64811 0.0
H165 H 0.0291 0.75969 0.70546 0.0
H166 H 0.10659 0.68378 0.69155 0.0
H167 H 0.05906 0.74165 0.74789 0.0
H168 H 0.9847 0.66303 0.6057 0.0
H169 H 0.97993 0.73884 0.54805 0.0
H170 H 0.97387 0.63063 0.56257 0.0
H171 H 0.9694 0.70514 0.50593 0.0
H172 H 0.91506 0.65422 0.66961 0.0
H173 H 0.99874 0.63714 0.71298 0.0
H174 H 0.13236 0.75009 0.57496 0.0
H175 H 0.08703 0.67108 0.54532 0.0
Li176 Li 0.51334 0.77809 0.85685 0.0
Li177 Li 0.52851 0.74277 0.89668 0.0
Li178 Li 0.49198 0.72726 0.85685 0.0
Li179 Li 0.47684 0.76257 0.89669 0.0
C180 C 0.55209 0.73338 0.82973 0.0
N181 N 0.58874 0.72119 0.7823 0.0
C182 C 0.58269 0.73131 0.83389 0.0
C183 C 0.54007 0.72899 0.80155 0.0
C184 C 0.60087 0.72521 0.8096 0.0
C185 C 0.55899 0.72292 0.77783 0.0
C186 C 0.52409 0.80093 0.92398 0.0
C187 C 0.52241 0.81247 0.97607 0.0
N188 N 0.54316 0.8339 0.97181 0.0
C189 C 0.54523 0.82319 0.92004 0.0
C190 C 0.51241 0.7956 0.95213 0.0
C191 C 0.55466 0.83957 0.94454 0.0
C192 C 0.50933 0.83634 0.83617 0.0
N193 N 0.5263 0.81152 0.83453 0.0
C194 C 0.56286 0.83731 0.80618 0.0
C195 C 0.55255 0.81148 0.81976 0.0
C196 C 0.54618 0.86352 0.80812 0.0
C197 C 0.51889 0.86272 0.82308 0.0
H198 H 0.48869 0.83579 0.84833 0.0
H199 H 0.566 0.79175 0.81926 0.0
C200 C 0.5695 0.69985 0.91282 0.0
N201 N 0.56205 0.72849 0.91832 0.0
C202 C 0.59524 0.68772 0.92497 0.0
C203 C 0.605 0.73459 0.94885 0.0
C204 C 0.5791 0.74588 0.93609 0.0
C205 C 0.6136 0.70523 0.94302 0.0
H206 H 0.55567 0.6866 0.89841 0.0
H207 H 0.57313 0.76869 0.93986 0.0
C208 C 0.45321 0.77195 0.82975 0.0
N209 N 0.41652 0.78412 0.78236 0.0
C210 C 0.42261 0.77398 0.83393 0.0
C211 C 0.46521 0.77637 0.80157 0.0
C212 C 0.40442 0.78007 0.80965 0.0
C213 C 0.44627 0.78243 0.77787 0.0
C214 C 0.48119 0.70436 0.92391 0.0
C215 C 0.45993 0.68223 0.91988 0.0
C216 C 0.49292 0.7095 0.95208 0.0
C217 C 0.45044 0.66579 0.94432 0.0
C218 C 0.48285 0.69257 0.97595 0.0
N219 N 0.46198 0.67127 0.97161 0.0
C220 C 0.49599 0.669 0.83619 0.0
C221 C 0.45277 0.69385 0.81977 0.0
C222 C 0.48643 0.64262 0.8231 0.0
N223 N 0.47902 0.69382 0.83455 0.0
C224 C 0.44246 0.66803 0.80619 0.0
C225 C 0.45914 0.64181 0.80814 0.0
H226 H 0.51663 0.66955 0.84835 0.0
H227 H 0.43933 0.71359 0.81927 0.0
C228 C 0.43574 0.80544 0.91268 0.0
N229 N 0.4433 0.77686 0.91834 0.0
C230 C 0.40999 0.81756 0.92482 0.0
C231 C 0.40046 0.77081 0.94903 0.0
C232 C 0.42637 0.75953 0.93627 0.0
C233 C 0.39174 0.8001 0.94303 0.0
H234 H 0.44948 0.81865 0.89814 0.0
H235 H 0.43243 0.73677 0.94019 0.0
O236 O 0.53403 0.73926 0.85329 0.0
O237 O 0.51466 0.78474 0.90024 0.0
O238 O 0.47129 0.76608 0.8533 0.0
O239 O 0.4907 0.72061 0.90025 0.0
H240 H 0.59229 0.73453 0.85563 0.0
H241 H 0.5164 0.73007 0.79806 0.0
H242 H 0.62461 0.72366 0.81244 0.0
H243 H 0.55002 0.7195 0.75588 0.0
H244 H 0.51364 0.80856 0.99802 0.0
H245 H 0.55433 0.82765 0.89829 0.0
H246 H 0.49576 0.77869 0.95545 0.0
H247 H 0.5711 0.85679 0.94188 0.0
H248 H 0.58424 0.83703 0.79532 0.0
H249 H 0.50524 0.88236 0.82496 0.0
H250 H 0.60073 0.66486 0.92021 0.0
H251 H 0.6186 0.74899 0.96238 0.0
H252 H 0.41303 0.77074 0.85568 0.0
H253 H 0.48888 0.77532 0.79806 0.0
H254 H 0.38068 0.78159 0.81251 0.0
H255 H 0.45523 0.78587 0.75591 0.0
H256 H 0.45079 0.67792 0.89813 0.0
H257 H 0.50966 0.7263 0.95547 0.0
H258 H 0.4339 0.64866 0.94159 0.0
H259 H 0.49166 0.69634 0.99791 0.0
H260 H 0.50007 0.62297 0.82498 0.0
H261 H 0.42108 0.66831 0.79533 0.0
H262 H 0.40442 0.84037 0.91993 0.0
H263 H 0.38695 0.75646 0.96269 0.0
Li264 Li 0.51258 0.27849 0.14667 0.0
Li265 Li 0.47726 0.26336 0.10684 0.0
Li266 Li 0.49277 0.22683 0.14667 0.0
Li267 Li 0.52809 0.24198 0.10684 0.0
C268 C 0.45438 0.27413 0.17393 0.0
N269 N 0.42134 0.29329 0.22168 0.0
C270 C 0.43223 0.29537 0.16993 0.0
C271 C 0.45958 0.2624 0.20209 0.0
C272 C 0.41581 0.30484 0.1944 0.0
C273 C 0.44267 0.27245 0.22598 0.0
C274 C 0.52195 0.3021 0.07973 0.0
C275 C 0.53241 0.30902 0.02783 0.0
N276 N 0.53411 0.33877 0.03231 0.0
C277 C 0.524 0.33271 0.08389 0.0
C278 C 0.52635 0.29009 0.05155 0.0
C279 C 0.53008 0.35089 0.0596 0.0
C280 C 0.55545 0.31961 0.16264 0.0
N281 N 0.52687 0.31204 0.16833 0.0
C282 C 0.52084 0.35486 0.19904 0.0
C283 C 0.50955 0.32896 0.18628 0.0
C284 C 0.55012 0.3636 0.19302 0.0
C285 C 0.56757 0.34536 0.17478 0.0
H286 H 0.56864 0.30588 0.14808 0.0
H287 H 0.4868 0.32288 0.19022 0.0
C288 C 0.41902 0.25933 0.08611 0.0
N289 N 0.44382 0.27633 0.08453 0.0
C290 C 0.39264 0.26889 0.07302 0.0
C291 C 0.41803 0.31292 0.05623 0.0
C292 C 0.44385 0.3026 0.06982 0.0
C293 C 0.39182 0.29621 0.05812 0.0
H294 H 0.41958 0.23866 0.09824 0.0
H295 H 0.46357 0.31607 0.06936 0.0
C296 C 0.55095 0.23122 0.17394 0.0
N297 N 0.58395 0.2121 0.22174 0.0
C298 C 0.57316 0.21004 0.16998 0.0
C299 C 0.54568 0.24292 0.2021 0.0
C300 C 0.58956 0.20059 0.19446 0.0
C301 C 0.56256 0.2329 0.22602 0.0
C302 C 0.48339 0.20323 0.07973 0.0
C303 C 0.48134 0.17263 0.0839 0.0
C304 C 0.47898 0.21523 0.05155 0.0
C305 C 0.47525 0.15444 0.05962 0.0
C306 C 0.47292 0.1963 0.02784 0.0
N307 N 0.47122 0.16655 0.03232 0.0
C308 C 0.44986 0.1858 0.16274 0.0
C309 C 0.49584 0.17629 0.18615 0.0
C310 C 0.43774 0.16005 0.17489 0.0
N311 N 0.47848 0.19329 0.16832 0.0
C312 C 0.48456 0.15038 0.19891 0.0
C313 C 0.45523 0.14173 0.19301 0.0
H314 H 0.43664 0.19958 0.14828 0.0
H315 H 0.51863 0.1823 0.18999 0.0
C316 C 0.58632 0.24602 0.08609 0.0
N317 N 0.56152 0.22901 0.08452 0.0
C318 C 0.6127 0.23645 0.073 0.0
C319 C 0.58731 0.19242 0.05623 0.0
C320 C 0.56149 0.20273 0.06982 0.0
C321 C 0.61351 0.20913 0.05811 0.0
H322 H 0.58576 0.26669 0.09821 0.0
H323 H 0.54177 0.18926 0.06937 0.0
O324 O 0.47061 0.26464 0.15023 0.0
O325 O 0.51609 0.28404 0.10328 0.0
O326 O 0.53474 0.24068 0.15023 0.0
O327 O 0.48926 0.2213 0.10328 0.0
H328 H 0.42788 0.3045 0.14819 0.0
H329 H 0.4764 0.24568 0.20544 0.0
H330 H 0.39866 0.32136 0.19169 0.0
H331 H 0.44648 0.26364 0.24794 0.0
H332 H 0.53583 0.30005 0.00587 0.0
H333 H 0.52077 0.3423 0.10563 0.0
H334 H 0.52529 0.26643 0.04805 0.0
H335 H 0.53161 0.37463 0.06244 0.0
H336 H 0.50649 0.36836 0.21272 0.0
H337 H 0.59037 0.35094 0.16987 0.0
H338 H 0.37301 0.25522 0.07485 0.0
H339 H 0.4183 0.33433 0.04542 0.0
H340 H 0.57757 0.20092 0.14823 0.0
H341 H 0.5288 0.2596 0.20544 0.0
H342 H 0.60675 0.18411 0.19178 0.0
H343 H 0.5587 0.24168 0.24797 0.0
H344 H 0.48457 0.16305 0.10565 0.0
H345 H 0.48004 0.2389 0.04804 0.0
H346 H 0.47371 0.1307 0.06247 0.0
H347 H 0.46949 0.20526 0.00588 0.0
H348 H 0.4149 0.15452 0.17007 0.0
H349 H 0.49894 0.13682 0.2125 0.0
H350 H 0.63233 0.25012 0.07482 0.0
H351 H 0.58704 0.171 0.04543 0.0
Li352 Li 0.01335 0.72727 0.14849 0.0
Li353 Li 0.02848 0.76258 0.10866 0.0
Li354 Li 0.99198 0.77809 0.1485 0.0
Li355 Li 0.97682 0.74278 0.10867 0.0
C356 C 0.05216 0.77195 0.17555 0.0
N357 N 0.08895 0.78409 0.22288 0.0
C358 C 0.08276 0.77388 0.17133 0.0
C359 C 0.04021 0.77644 0.20375 0.0
C360 C 0.10101 0.77996 0.19558 0.0
C361 C 0.0592 0.78249 0.22742 0.0
C362 C 0.02418 0.70435 0.08147 0.0
C363 C 0.02254 0.69242 0.02946 0.0
N364 N 0.0435 0.67121 0.03385 0.0
C365 C 0.04554 0.68232 0.08554 0.0
C366 C 0.01241 0.70936 0.05329 0.0
C367 C 0.05508 0.66585 0.06114 0.0
C368 C 0.00935 0.669 0.16912 0.0
N369 N 0.02632 0.69382 0.17079 0.0
C370 C 0.06285 0.66803 0.19917 0.0
C371 C 0.05254 0.69386 0.18559 0.0
C372 C 0.04618 0.64181 0.1972 0.0
C373 C 0.01891 0.64261 0.18221 0.0
H374 H 0.98873 0.66955 0.15693 0.0
H375 H 0.06598 0.7136 0.18612 0.0
C376 C 0.06973 0.80538 0.09289 0.0
N377 N 0.06203 0.77688 0.087 0.0
C378 C 0.09549 0.8175 0.08075 0.0
C379 C 0.10472 0.77093 0.05609 0.0
C380 C 0.07881 0.75965 0.06884 0.0
C381 C 0.11359 0.80012 0.06231 0.0
H382 H 0.0561 0.81851 0.1076 0.0
H383 H 0.07262 0.73695 0.06473 0.0
C384 C 0.9533 0.73339 0.17566 0.0
N385 N 0.91677 0.7212 0.22318 0.0
C386 C 0.92269 0.73125 0.17157 0.0
C387 C 0.96538 0.72907 0.20382 0.0
C388 C 0.90458 0.72515 0.19591 0.0
C389 C 0.94653 0.72299 0.22759 0.0
C390 C 0.98128 0.8009 0.08132 0.0
C391 C 0.96018 0.82321 0.08518 0.0
C392 C 0.99297 0.79547 0.05318 0.0
C393 C 0.9508 0.83955 0.06062 0.0
C394 C 0.98302 0.81229 0.02919 0.0
N395 N 0.96231 0.83377 0.03337 0.0
C396 C 0.99603 0.83632 0.16925 0.0
C397 C 0.95275 0.8115 0.18552 0.0
C398 C 0.98647 0.8627 0.18234 0.0
N399 N 0.97902 0.81152 0.17082 0.0
C400 C 0.94243 0.83732 0.19912 0.0
C401 C 0.95915 0.86352 0.19724 0.0
H402 H 0.01669 0.83577 0.15712 0.0
H403 H 0.93927 0.79178 0.18597 0.0
C404 C 0.93577 0.69988 0.09261 0.0
N405 N 0.94327 0.7285 0.08702 0.0
C406 C 0.91003 0.68776 0.08046 0.0
C407 C 0.90039 0.73456 0.0564 0.0
C408 C 0.92629 0.74585 0.06917 0.0
C409 C 0.89173 0.70524 0.06232 0.0
H410 H 0.94955 0.68666 0.10709 0.0
H411 H 0.9323 0.76864 0.06532 0.0
O412 O 0.03404 0.76609 0.15204 0.0
O413 O 0.01462 0.72062 0.10509 0.0
O414 O 0.97129 0.73927 0.15206 0.0
O415 O 0.99066 0.78475 0.1051 0.0
H416 H 0.0923 0.77057 0.14958 0.0
H417 H 0.01655 0.77547 0.20729 0.0
H418 H 0.12475 0.78141 0.19269 0.0
H419 H 0.05028 0.78599 0.24938 0.0
H420 H 0.0137 0.69608 0.00749 0.0
H421 H 0.05471 0.67811 0.1073 0.0
H422 H 0.9956 0.72609 0.04987 0.0
H423 H 0.0717 0.6488 0.06391 0.0
H424 H 0.08422 0.66832 0.21006 0.0
H425 H 0.00527 0.62297 0.18031 0.0
H426 H 0.10118 0.84024 0.08583 0.0
H427 H 0.11811 0.75664 0.04223 0.0
H428 H 0.91305 0.73441 0.14984 0.0
H429 H 0.98905 0.7302 0.20727 0.0
H430 H 0.88084 0.72354 0.19312 0.0
H431 H 0.95555 0.71963 0.24953 0.0
H432 H 0.95107 0.82775 0.1069 0.0
H433 H 0.00958 0.77851 0.04992 0.0
H434 H 0.93439 0.85681 0.06323 0.0
H435 H 0.9918 0.8083 0.00726 0.0
H436 H 1.00014 0.88233 0.18052 0.0
H437 H 0.92102 0.83705 0.20993 0.0
H438 H 0.90449 0.66492 0.0853 0.0
H439 H 0.88683 0.74893 0.04279 0.0
Li440 Li 0.49277 0.7785 0.35866 0.0
Li441 Li 0.52809 0.76336 0.39849 0.0
Li442 Li 0.51258 0.72684 0.35866 0.0
Li443 Li 0.47726 0.74199 0.39849 0.0
C444 C 0.55094 0.77411 0.33137 0.0
N445 N 0.58393 0.79322 0.28357 0.0
C446 C 0.57313 0.79532 0.33533 0.0
C447 C 0.54568 0.76239 0.30322 0.0
C448 C 0.58953 0.80476 0.31084 0.0
C449 C 0.56256 0.77241 0.2793 0.0
C450 C 0.48339 0.80209 0.42562 0.0
C451 C 0.47294 0.80896 0.47752 0.0
N452 N 0.47122 0.83871 0.47307 0.0
C453 C 0.48132 0.83269 0.42148 0.0
C454 C 0.47901 0.79005 0.45379 0.0
C455 C 0.47523 0.85085 0.44578 0.0
C456 C 0.44991 0.81962 0.34271 0.0
N457 N 0.47848 0.81205 0.337 0.0
C458 C 0.4845 0.85486 0.30628 0.0
C459 C 0.49579 0.82896 0.31903 0.0
C460 C 0.45523 0.8636 0.31231 0.0
C461 C 0.43779 0.84537 0.33056 0.0
H462 H 0.43672 0.8059 0.35728 0.0
H463 H 0.51854 0.82287 0.31508 0.0
C464 C 0.58633 0.75933 0.41922 0.0
N465 N 0.56152 0.77633 0.4208 0.0
C466 C 0.6127 0.76889 0.43231 0.0
C467 C 0.58731 0.81291 0.44911 0.0
C468 C 0.56149 0.8026 0.43552 0.0
C469 C 0.61352 0.79621 0.44722 0.0
H470 H 0.58577 0.73867 0.40709 0.0
H471 H 0.54177 0.81606 0.43598 0.0
C472 C 0.45438 0.7312 0.3314 0.0
N473 N 0.42135 0.71203 0.28366 0.0
C474 C 0.43223 0.70997 0.3354 0.0
C475 C 0.45958 0.74293 0.30324 0.0
C476 C 0.41581 0.70049 0.31094 0.0
C477 C 0.44268 0.73287 0.27935 0.0
C478 C 0.52195 0.70322 0.42559 0.0
C479 C 0.52397 0.67262 0.42141 0.0
C480 C 0.52639 0.71521 0.45377 0.0
C481 C 0.53006 0.65442 0.44568 0.0
C482 C 0.53245 0.69627 0.47748 0.0
N483 N 0.53412 0.66652 0.47298 0.0
C484 C 0.55544 0.68571 0.34272 0.0
C485 C 0.50956 0.67638 0.31904 0.0
C486 C 0.56756 0.65996 0.33057 0.0
N487 N 0.52687 0.69329 0.33701 0.0
C488 C 0.52084 0.65048 0.30628 0.0
C489 C 0.55012 0.64173 0.31232 0.0
H490 H 0.56863 0.69943 0.35728 0.0
H491 H 0.48681 0.68247 0.31509 0.0
C492 C 0.419 0.746 0.41916 0.0
N493 N 0.44382 0.72902 0.4208 0.0
C494 C 0.39262 0.73644 0.43225 0.0
C495 C 0.41803 0.69247 0.44915 0.0
C496 C 0.44385 0.70278 0.43556 0.0
C497 C 0.39182 0.70915 0.44721 0.0
H498 H 0.41956 0.76664 0.407 0.0
H499 H 0.46359 0.68933 0.43606 0.0
O500 O 0.53474 0.76465 0.3551 0.0
O501 O 0.48926 0.78404 0.40204 0.0
O502 O 0.47061 0.74069 0.3551 0.0
O503 O 0.51608 0.7213 0.40205 0.0
H504 H 0.57753 0.80445 0.35706 0.0
H505 H 0.52882 0.74569 0.2999 0.0
H506 H 0.6067 0.82126 0.31351 0.0
H507 H 0.5587 0.7636 0.25735 0.0
H508 H 0.46954 0.79997 0.49947 0.0
H509 H 0.48453 0.8423 0.39974 0.0
H510 H 0.48009 0.76638 0.45727 0.0
H511 H 0.47368 0.87459 0.44295 0.0
H512 H 0.49884 0.86835 0.29257 0.0
H513 H 0.41499 0.85097 0.33549 0.0
H514 H 0.63233 0.75523 0.43047 0.0
H515 H 0.58704 0.83432 0.45993 0.0
H516 H 0.42788 0.70083 0.35715 0.0
H517 H 0.47641 0.75965 0.29988 0.0
H518 H 0.39867 0.68397 0.31364 0.0
H519 H 0.44649 0.74168 0.25739 0.0
H520 H 0.52071 0.66304 0.39966 0.0
H521 H 0.52535 0.73888 0.45728 0.0
H522 H 0.53156 0.63068 0.44282 0.0
H523 H 0.53589 0.70522 0.49943 0.0
H524 H 0.59036 0.65437 0.3355 0.0
H525 H 0.5065 0.63699 0.29258 0.0
H526 H 0.37298 0.75009 0.43038 0.0
H527 H 0.41831 0.67108 0.46001 0.0
Li528 Li 0.51335 0.22726 0.6485 0.0
Li529 Li 0.5285 0.26257 0.60867 0.0
Li530 Li 0.49198 0.27808 0.6485 0.0
Li531 Li 0.47683 0.24277 0.60867 0.0
C532 C 0.55211 0.27195 0.67561 0.0
N533 N 0.58879 0.28412 0.72301 0.0
C534 C 0.58271 0.27399 0.67143 0.0
C535 C 0.54011 0.27637 0.70379 0.0
C536 C 0.6009 0.28008 0.69571 0.0
C537 C 0.55904 0.28243 0.7275 0.0
C538 C 0.52411 0.20439 0.5814 0.0
C539 C 0.52244 0.19273 0.52934 0.0
N540 N 0.54325 0.17137 0.53363 0.0
C541 C 0.54532 0.1822 0.58538 0.0
C542 C 0.5124 0.20963 0.55324 0.0
C543 C 0.55478 0.16579 0.5609 0.0
C544 C 0.50932 0.16901 0.66922 0.0
N545 N 0.52632 0.19382 0.67082 0.0
C546 C 0.5629 0.16803 0.69913 0.0
C547 C 0.55258 0.19385 0.68554 0.0
C548 C 0.5462 0.14182 0.69723 0.0
C549 C 0.51888 0.14264 0.68231 0.0
H550 H 0.48866 0.16957 0.65709 0.0
H551 H 0.56605 0.21358 0.68601 0.0
C552 C 0.56957 0.30546 0.59265 0.0
N553 N 0.56204 0.27686 0.58702 0.0
C554 C 0.59532 0.31758 0.5805 0.0
C555 C 0.6049 0.2708 0.55637 0.0
C556 C 0.579 0.25952 0.56912 0.0
C557 C 0.6136 0.30011 0.56232 0.0
H558 H 0.55581 0.31867 0.60716 0.0
H559 H 0.57296 0.23675 0.56524 0.0
C560 C 0.45323 0.23339 0.67562 0.0
N561 N 0.41658 0.22122 0.72304 0.0
C562 C 0.42263 0.23133 0.67146 0.0
C563 C 0.46525 0.229 0.7038 0.0
C564 C 0.40446 0.22524 0.69575 0.0
C565 C 0.44633 0.22293 0.72752 0.0
C566 C 0.48121 0.30095 0.5814 0.0
C567 C 0.46 0.32313 0.58539 0.0
C568 C 0.49293 0.29573 0.55324 0.0
C569 C 0.45053 0.33954 0.56092 0.0
C570 C 0.48289 0.31262 0.52934 0.0
N571 N 0.46206 0.33398 0.53364 0.0
C572 C 0.496 0.33633 0.66921 0.0
C573 C 0.45274 0.31149 0.68554 0.0
C574 C 0.48644 0.36271 0.6823 0.0
N575 N 0.47901 0.31152 0.67081 0.0
C576 C 0.44243 0.33731 0.69913 0.0
C577 C 0.45913 0.36352 0.69722 0.0
H578 H 0.51666 0.33577 0.65708 0.0
H579 H 0.43928 0.29176 0.68601 0.0
C580 C 0.43575 0.19988 0.59266 0.0
N581 N 0.44329 0.22847 0.58702 0.0
C582 C 0.41 0.18776 0.58051 0.0
C583 C 0.40043 0.23453 0.55635 0.0
C584 C 0.42634 0.24581 0.56911 0.0
C585 C 0.39173 0.20522 0.56232 0.0
H586 H 0.4495 0.18667 0.60718 0.0
H587 H 0.43239 0.26858 0.56521 0.0
O588 O 0.53403 0.26608 0.65206 0.0
O589 O 0.51464 0.2206 0.60511 0.0
O590 O 0.47129 0.23926 0.65206 0.0
O591 O 0.49069 0.28473 0.60511 0.0
H592 H 0.59229 0.27075 0.64968 0.0
H593 H 0.51644 0.27532 0.70729 0.0
H594 H 0.62464 0.2816 0.69285 0.0
H595 H 0.55008 0.28586 0.74945 0.0
H596 H 0.51364 0.19658 0.50738 0.0
H597 H 0.55445 0.17781 0.60712 0.0
H598 H 0.49571 0.22648 0.5499 0.0
H599 H 0.57127 0.14862 0.56359 0.0
H600 H 0.5843 0.1683 0.70995 0.0
H601 H 0.50522 0.123 0.68047 0.0
H602 H 0.60088 0.3404 0.58537 0.0
H603 H 0.61844 0.25644 0.54273 0.0
H604 H 0.41304 0.23455 0.64972 0.0
H605 H 0.48892 0.23007 0.70729 0.0
H606 H 0.38071 0.2237 0.69291 0.0
H607 H 0.4553 0.21952 0.74947 0.0
H608 H 0.45087 0.3275 0.60713 0.0
H609 H 0.50963 0.27888 0.54989 0.0
H610 H 0.43403 0.35671 0.56361 0.0
H611 H 0.49169 0.30879 0.50739 0.0
H612 H 0.5001 0.38234 0.68046 0.0
H613 H 0.42103 0.33704 0.70995 0.0
H614 H 0.40444 0.16494 0.58539 0.0
H615 H 0.38691 0.24888 0.54271 0.0
Li616 Li 0.99277 0.27849 0.85865 0.0
Li617 Li 0.02808 0.26335 0.89849 0.0
Li618 Li 0.01256 0.22683 0.85866 0.0
Li619 Li 0.97725 0.24199 0.89849 0.0
C620 C 0.05098 0.27415 0.83144 0.0
N621 N 0.08409 0.29338 0.78376 0.0
C622 C 0.07309 0.29543 0.83548 0.0
C623 C 0.04587 0.26241 0.80326 0.0
C624 C 0.08955 0.30493 0.81105 0.0
C625 C 0.0628 0.2725 0.77941 0.0
C626 C 0.98339 0.30213 0.92558 0.0
C627 C 0.97289 0.30909 0.97746 0.0
N628 N 0.97122 0.33884 0.97296 0.0
C629 C 0.98137 0.33273 0.92139 0.0
C630 C 0.97896 0.29014 0.95376 0.0
C631 C 0.97528 0.35094 0.94566 0.0
C632 C 0.9499 0.3196 0.84268 0.0
N633 N 0.97848 0.31204 0.83699 0.0
C634 C 0.98451 0.35486 0.80629 0.0
C635 C 0.99579 0.32895 0.81904 0.0
C636 C 0.95523 0.3636 0.81231 0.0
C637 C 0.93778 0.34536 0.83054 0.0
H638 H 0.93671 0.30588 0.85724 0.0
H639 H 0.01855 0.32287 0.8151 0.0
C640 C 0.08635 0.25935 0.91913 0.0
N641 N 0.06152 0.27631 0.92079 0.0
C642 C 0.11273 0.2689 0.93222 0.0
C643 C 0.08731 0.31285 0.94917 0.0
C644 C 0.06148 0.30254 0.93559 0.0
C645 C 0.11353 0.29618 0.9472 0.0
H646 H 0.0858 0.23872 0.90694 0.0
H647 H 0.04174 0.31598 0.93611 0.0
C648 C 0.9544 0.23126 0.83136 0.0
N649 N 0.92145 0.21221 0.7835 0.0
C650 C 0.93212 0.21014 0.83529 0.0
C651 C 0.95977 0.24293 0.8032 0.0
C652 C 0.91575 0.20073 0.81077 0.0
C653 C 0.94291 0.23294 0.77926 0.0
C654 C 0.02196 0.20325 0.92562 0.0
C655 C 0.02405 0.17265 0.92147 0.0
C656 C 0.02634 0.21528 0.95379 0.0
C657 C 0.03016 0.15449 0.94576 0.0
C658 C 0.03242 0.19637 0.97752 0.0
N659 N 0.03416 0.16662 0.97305 0.0
C660 C 0.0555 0.18587 0.84246 0.0
C661 C 0.00943 0.1762 0.81931 0.0
C662 C 0.06763 0.16013 0.83031 0.0
N663 N 0.02684 0.19328 0.83702 0.0
C664 C 0.02071 0.15029 0.80655 0.0
C665 C 0.05009 0.14173 0.81232 0.0
H666 H 0.06877 0.19972 0.85683 0.0
H667 H 0.9866 0.18214 0.81558 0.0
C668 C 0.91899 0.24601 0.91917 0.0
N669 N 0.94381 0.22904 0.92081 0.0
C670 C 0.89261 0.23645 0.93226 0.0
C671 C 0.91803 0.19249 0.94918 0.0
C672 C 0.94385 0.2028 0.93559 0.0
C673 C 0.89181 0.20917 0.94722 0.0
H674 H 0.91954 0.26665 0.90699 0.0
H675 H 0.96359 0.18935 0.93609 0.0
O676 O 0.03473 0.26463 0.85509 0.0
O677 O 0.98926 0.28405 0.90204 0.0
O678 O 0.97059 0.24068 0.8551 0.0
O679 O 0.01607 0.2213 0.90205 0.0
H680 H 0.07738 0.30457 0.85723 0.0
H681 H 0.02908 0.24566 0.79987 0.0
H682 H 0.10665 0.32148 0.81379 0.0
H683 H 0.05906 0.26368 0.75744 0.0
H684 H 0.96945 0.30014 0.99942 0.0
H685 H 0.98463 0.34231 0.89964 0.0
H686 H 0.97999 0.26648 0.95728 0.0
H687 H 0.97378 0.37468 0.9428 0.0
H688 H 0.99886 0.36836 0.79261 0.0
H689 H 0.91498 0.35094 0.83546 0.0
H690 H 0.13237 0.25527 0.93032 0.0
H691 H 0.08702 0.33423 0.96005 0.0
H692 H 0.92764 0.20105 0.85703 0.0
H693 H 0.9767 0.25956 0.79989 0.0
H694 H 0.89851 0.1843 0.81343 0.0
H695 H 0.94684 0.24171 0.75731 0.0
H696 H 0.02084 0.16305 0.89972 0.0
H697 H 0.02524 0.23895 0.95728 0.0
H698 H 0.03172 0.13075 0.94292 0.0
H699 H 0.03582 0.20535 0.99947 0.0
H700 H 0.09051 0.15467 0.83503 0.0
H701 H 0.0063 0.13667 0.79307 0.0
H702 H 0.87297 0.25009 0.93037 0.0
H703 H 0.91832 0.17111 0.96004 0.0
Li704 Li 0.39667 0.02849 0.24276 0.0
Li705 Li 0.35685 0.01335 0.27808 0.0
Li706 Li 0.39667 0.97683 0.26256 0.0
Li707 Li 0.35684 0.99198 0.22725 0.0
C708 C 0.4239 0.02416 0.30097 0.0
N709 N 0.47158 0.04341 0.33406 0.0
C710 C 0.41986 0.04546 0.32307 0.0
C711 C 0.45207 0.01242 0.29587 0.0
C712 C 0.44428 0.05497 0.33951 0.0
C713 C 0.47593 0.02251 0.31279 0.0
C714 C 0.32976 0.05214 0.23339 0.0
C715 C 0.27789 0.05915 0.22287 0.0
N716 N 0.28241 0.0889 0.22124 0.0
C717 C 0.33397 0.08274 0.23142 0.0
C718 C 0.30157 0.04018 0.22892 0.0
C719 C 0.30971 0.10097 0.22534 0.0
C720 C 0.41256 0.06966 0.19992 0.0
N721 N 0.41833 0.06204 0.22846 0.0
C722 C 0.44912 0.10481 0.23446 0.0
C723 C 0.43636 0.0789 0.24574 0.0
C724 C 0.44302 0.1136 0.20521 0.0
C725 C 0.4247 0.09541 0.18779 0.0
H726 H 0.39794 0.05597 0.18675 0.0
H727 H 0.44037 0.07278 0.26848 0.0
C728 C 0.33619 0.00935 0.33634 0.0
N729 N 0.33454 0.02632 0.31152 0.0
C730 C 0.3231 0.01891 0.36272 0.0
C731 C 0.30618 0.06286 0.33731 0.0
C732 C 0.31976 0.05256 0.31148 0.0
C733 C 0.30814 0.04619 0.36353 0.0
H734 H 0.34836 0.98871 0.33579 0.0
H735 H 0.31925 0.066 0.29175 0.0
C736 C 0.42398 0.98126 0.20441 0.0
N737 N 0.47186 0.96222 0.17148 0.0
C738 C 0.42008 0.96011 0.18216 0.0
C739 C 0.45213 0.99296 0.20976 0.0
C740 C 0.4446 0.9507 0.16579 0.0
C741 C 0.47608 0.98298 0.19291 0.0
C742 C 0.32969 0.95328 0.27195 0.0
C743 C 0.33381 0.92267 0.27406 0.0
C744 C 0.30153 0.96534 0.2763 0.0
C745 C 0.30949 0.90454 0.28016 0.0
C746 C 0.27778 0.94646 0.28237 0.0
N747 N 0.28221 0.91671 0.28413 0.0
C748 C 0.4127 0.93576 0.30545 0.0
C749 C 0.43621 0.92632 0.2595 0.0
C750 C 0.42485 0.91001 0.31757 0.0
N751 N 0.41832 0.94328 0.27685 0.0
C752 C 0.44897 0.90042 0.27079 0.0
C753 C 0.44302 0.89173 0.3001 0.0
H754 H 0.3982 0.94952 0.31866 0.0
H755 H 0.44008 0.93236 0.23673 0.0
C756 C 0.33608 0.99602 0.16902 0.0
N757 N 0.33452 0.97902 0.19382 0.0
C758 C 0.32299 0.98646 0.14264 0.0
C759 C 0.30624 0.94241 0.16803 0.0
C760 C 0.31983 0.95273 0.19384 0.0
C761 C 0.30811 0.95913 0.14183 0.0
H762 H 0.34819 0.01669 0.16958 0.0
H763 H 0.31939 0.93926 0.21356 0.0
O764 O 0.40024 0.01463 0.28472 0.0
O765 O 0.35329 0.03404 0.23925 0.0
O766 O 0.40023 0.99068 0.22059 0.0
O767 O 0.35328 0.97129 0.26607 0.0
H768 H 0.3981 0.05461 0.32735 0.0
H769 H 0.45546 0.99566 0.27909 0.0
H770 H 0.44154 0.07153 0.35661 0.0
H771 H 0.49789 0.0137 0.30905 0.0
H772 H 0.25593 0.05022 0.2194 0.0
H773 H 0.35572 0.0923 0.2347 0.0
H774 H 0.29804 0.01651 0.22993 0.0
H775 H 0.31259 0.12471 0.22386 0.0
H776 H 0.46287 0.11826 0.24878 0.0
H777 H 0.41972 0.10104 0.16502 0.0
H778 H 0.32499 0.00527 0.38237 0.0
H779 H 0.29531 0.08425 0.33703 0.0
H780 H 0.39834 0.95099 0.17769 0.0
H781 H 0.45542 0.00961 0.22667 0.0
H782 H 0.44196 0.93425 0.14857 0.0
H783 H 0.49803 0.99177 0.19684 0.0
H784 H 0.35554 0.91305 0.27088 0.0
H785 H 0.29806 0.98901 0.27519 0.0
H786 H 0.3123 0.88079 0.28174 0.0
H787 H 0.25583 0.95547 0.28575 0.0
H788 H 0.41999 0.90446 0.3404 0.0
H789 H 0.4626 0.88688 0.25643 0.0
H790 H 0.32481 1.00013 0.12302 0.0
H791 H 0.29544 0.92099 0.16829 0.0
Li792 Li 0.22683 0.14666 0.49277 0.0
Li793 Li 0.24198 0.10683 0.52809 0.0
Li794 Li 0.27849 0.14667 0.51258 0.0
Li795 Li 0.26336 0.10684 0.47726 0.0
C796 C 0.23122 0.17394 0.55095 0.0
N797 N 0.2121 0.22173 0.58395 0.0
C798 C 0.21003 0.16997 0.57316 0.0
C799 C 0.24292 0.2021 0.54568 0.0
C800 C 0.20058 0.19446 0.58956 0.0
C801 C 0.23289 0.22601 0.56257 0.0
C802 C 0.20323 0.07972 0.48339 0.0
C803 C 0.1963 0.02783 0.47292 0.0
N804 N 0.16656 0.03232 0.47122 0.0
C805 C 0.17263 0.0839 0.48134 0.0
C806 C 0.21524 0.05154 0.47899 0.0
C807 C 0.15444 0.05961 0.47525 0.0
C808 C 0.18579 0.16273 0.44987 0.0
N809 N 0.19328 0.16831 0.47848 0.0
C810 C 0.15039 0.19892 0.48456 0.0
C811 C 0.17629 0.18616 0.49584 0.0
C812 C 0.14173 0.19301 0.45523 0.0
C813 C 0.16004 0.17488 0.43774 0.0
H814 H 0.19957 0.14825 0.43664 0.0
H815 H 0.18231 0.19001 0.51863 0.0
C816 C 0.24602 0.08608 0.58632 0.0
N817 N 0.22901 0.08452 0.56152 0.0
C818 C 0.23646 0.07299 0.6127 0.0
C819 C 0.19241 0.05623 0.58732 0.0
C820 C 0.20273 0.06982 0.5615 0.0
C821 C 0.20913 0.0581 0.61352 0.0
H822 H 0.26669 0.0982 0.58576 0.0
H823 H 0.18926 0.06938 0.54178 0.0
C824 C 0.27413 0.17392 0.45439 0.0
N825 N 0.29329 0.22168 0.42135 0.0
C826 C 0.29537 0.16994 0.43223 0.0
C827 C 0.2624 0.20209 0.45958 0.0
C828 C 0.30484 0.1944 0.41581 0.0
C829 C 0.27244 0.22598 0.44268 0.0
C830 C 0.3021 0.07972 0.52195 0.0
C831 C 0.33271 0.08388 0.52399 0.0
C832 C 0.29009 0.05154 0.52635 0.0
C833 C 0.35089 0.05959 0.53008 0.0
C834 C 0.30902 0.02782 0.53241 0.0
N835 N 0.33877 0.0323 0.53411 0.0
C836 C 0.31961 0.16263 0.55544 0.0
C837 C 0.32895 0.18629 0.50956 0.0
C838 C 0.34537 0.17477 0.56757 0.0
N839 N 0.31204 0.16832 0.52687 0.0
C840 C 0.35486 0.19904 0.52084 0.0
C841 C 0.3636 0.19302 0.55012 0.0
H842 H 0.30589 0.14806 0.56863 0.0
H843 H 0.32287 0.19023 0.48681 0.0
C844 C 0.25933 0.08611 0.41902 0.0
N845 N 0.27633 0.08453 0.44382 0.0
C846 C 0.26889 0.07302 0.39264 0.0
C847 C 0.31292 0.05623 0.41803 0.0
C848 C 0.3026 0.06982 0.44385 0.0
C849 C 0.29621 0.05812 0.39183 0.0
H850 H 0.23866 0.09823 0.41958 0.0
H851 H 0.31607 0.06936 0.46357 0.0
O852 O 0.24068 0.15023 0.53474 0.0
O853 O 0.2213 0.10328 0.48926 0.0
O854 O 0.26464 0.15023 0.47061 0.0
O855 O 0.28404 0.10328 0.51609 0.0
H856 H 0.20092 0.14823 0.57757 0.0
H857 H 0.2596 0.20544 0.52881 0.0
H858 H 0.1841 0.19177 0.60675 0.0
H859 H 0.24168 0.24797 0.5587 0.0
H860 H 0.20527 0.00587 0.4695 0.0
H861 H 0.16305 0.10564 0.48457 0.0
H862 H 0.2389 0.04804 0.48005 0.0
H863 H 0.1307 0.06247 0.47372 0.0
H864 H 0.13683 0.21251 0.49893 0.0
H865 H 0.15451 0.17005 0.41491 0.0
H866 H 0.25013 0.07481 0.63233 0.0
H867 H 0.171 0.04543 0.58705 0.0
H868 H 0.30451 0.14819 0.42788 0.0
H869 H 0.24567 0.20544 0.47641 0.0
H870 H 0.32136 0.1917 0.39867 0.0
H871 H 0.26363 0.24793 0.44649 0.0
H872 H 0.3423 0.10563 0.52077 0.0
H873 H 0.26643 0.04805 0.52529 0.0
H874 H 0.37463 0.06244 0.53161 0.0
H875 H 0.30005 0.00587 0.53583 0.0
H876 H 0.35096 0.16984 0.59037 0.0
H877 H 0.36835 0.21274 0.5065 0.0
H878 H 0.25522 0.07485 0.37301 0.0
H879 H 0.33433 0.04542 0.4183 0.0
Li880 Li 0.14848 0.01335 0.72727 0.0
Li881 Li 0.10865 0.02848 0.76259 0.0
Li882 Li 0.1485 0.99198 0.77809 0.0
Li883 Li 0.10866 0.97682 0.74278 0.0
C884 C 0.17555 0.05216 0.77195 0.0
N885 N 0.22288 0.08895 0.78409 0.0
C886 C 0.17133 0.08276 0.77388 0.0
C887 C 0.20374 0.04021 0.77645 0.0
C888 C 0.19558 0.10101 0.77996 0.0
C889 C 0.22741 0.0592 0.78249 0.0
C890 C 0.08146 0.02418 0.70436 0.0
C891 C 0.02945 0.02253 0.69244 0.0
N892 N 0.03382 0.04349 0.67123 0.0
C893 C 0.08552 0.04553 0.68232 0.0
C894 C 0.05328 0.01241 0.70939 0.0
C895 C 0.06112 0.05507 0.66586 0.0
C896 C 0.16912 0.00935 0.669 0.0
N897 N 0.17079 0.02632 0.69382 0.0
C898 C 0.19917 0.06285 0.66803 0.0
C899 C 0.18558 0.05254 0.69386 0.0
C900 C 0.1972 0.04618 0.64181 0.0
C901 C 0.18221 0.0189 0.64262 0.0
H902 H 0.15694 0.98872 0.66955 0.0
H903 H 0.18611 0.06598 0.7136 0.0
C904 C 0.09289 0.06973 0.80538 0.0
N905 N 0.087 0.06203 0.77688 0.0
C906 C 0.08076 0.09549 0.8175 0.0
C907 C 0.05609 0.10472 0.77093 0.0
C908 C 0.06884 0.07881 0.75965 0.0
C909 C 0.06231 0.11359 0.80013 0.0
H910 H 0.1076 0.05611 0.81851 0.0
H911 H 0.06472 0.07262 0.73696 0.0
C912 C 0.17566 0.9533 0.73339 0.0
N913 N 0.22318 0.91677 0.7212 0.0
C914 C 0.17157 0.92269 0.73125 0.0
C915 C 0.20382 0.96538 0.72907 0.0
C916 C 0.19591 0.90458 0.72515 0.0
C917 C 0.22759 0.94653 0.72299 0.0
C918 C 0.08132 0.98128 0.80091 0.0
C919 C 0.08519 0.96016 0.8232 0.0
C920 C 0.05318 0.99297 0.79549 0.0
C921 C 0.06064 0.95078 0.83954 0.0
C922 C 0.0292 0.98301 0.81231 0.0
N923 N 0.03339 0.96229 0.83379 0.0
C924 C 0.16924 0.99603 0.83633 0.0
C925 C 0.18552 0.95274 0.8115 0.0
C926 C 0.18234 0.98647 0.8627 0.0
N927 N 0.17081 0.97902 0.81153 0.0
C928 C 0.19911 0.94243 0.83732 0.0
C929 C 0.19723 0.95914 0.86352 0.0
H930 H 0.15712 0.01669 0.83577 0.0
H931 H 0.18596 0.93927 0.79178 0.0
C932 C 0.09264 0.93576 0.69989 0.0
N933 N 0.08702 0.94327 0.7285 0.0
C934 C 0.08049 0.91001 0.68777 0.0
C935 C 0.05637 0.90041 0.73455 0.0
C936 C 0.06914 0.92631 0.74584 0.0
C937 C 0.06232 0.89173 0.70524 0.0
H938 H 0.10714 0.94952 0.68668 0.0
H939 H 0.06526 0.93234 0.76862 0.0
O940 O 0.15204 0.03403 0.76609 0.0
O941 O 0.10509 0.01462 0.72063 0.0
O942 O 0.15205 0.97129 0.73927 0.0
O943 O 0.1051 0.99067 0.78475 0.0
H944 H 0.14958 0.0923 0.77057 0.0
H945 H 0.20729 0.01655 0.77547 0.0
H946 H 0.19269 0.12475 0.7814 0.0
H947 H 0.24938 0.05028 0.78599 0.0
H948 H 0.00748 0.01369 0.69612 0.0
H949 H 0.10728 0.0547 0.6781 0.0
H950 H 0.04987 0.99561 0.72612 0.0
H951 H 0.06388 0.07167 0.6488 0.0
H952 H 0.21005 0.08422 0.66832 0.0
H953 H 0.18031 0.00527 0.62297 0.0
H954 H 0.08583 0.10119 0.84024 0.0
H955 H 0.04223 0.11811 0.75665 0.0
H956 H 0.14984 0.91305 0.73442 0.0
H957 H 0.20726 0.98906 0.7302 0.0
H958 H 0.19312 0.88084 0.72355 0.0
H959 H 0.24953 0.95556 0.71963 0.0
H960 H 0.10691 0.95105 0.82772 0.0
H961 H 0.04992 0.00959 0.77854 0.0
H962 H 0.06325 0.93436 0.85679 0.0
H963 H 0.00726 0.9918 0.80833 0.0
H964 H 0.18052 1.00014 0.88233 0.0
H965 H 0.20992 0.92102 0.83705 0.0
H966 H 0.08535 0.90446 0.66494 0.0
H967 H 0.04274 0.88687 0.74891 0.0
Li968 Li 0.27849 0.85865 0.99277 0.0
Li969 Li 0.26335 0.89848 0.02808 0.0
Li970 Li 0.22683 0.85866 0.01256 0.0
Li971 Li 0.24199 0.89849 0.97725 0.0
C972 C 0.27415 0.83143 0.05098 0.0
N973 N 0.29338 0.78375 0.08409 0.0
C974 C 0.29542 0.83547 0.07309 0.0
C975 C 0.26241 0.80326 0.04587 0.0
C976 C 0.30493 0.81104 0.08955 0.0
C977 C 0.27249 0.7794 0.0628 0.0
C978 C 0.30213 0.92558 0.98339 0.0
C979 C 0.30909 0.97746 0.9729 0.0
N980 N 0.33884 0.97296 0.97123 0.0
C981 C 0.33273 0.92139 0.98138 0.0
C982 C 0.29014 0.95376 0.97896 0.0
C983 C 0.35094 0.94566 0.97529 0.0
C984 C 0.3196 0.84268 0.9499 0.0
N985 N 0.31204 0.83699 0.97848 0.0
C986 C 0.35486 0.80629 0.98452 0.0
C987 C 0.32895 0.81904 0.9958 0.0
C988 C 0.3636 0.81231 0.95524 0.0
C989 C 0.34536 0.83054 0.93778 0.0
H990 H 0.30588 0.85723 0.93671 0.0
H991 H 0.32288 0.8151 0.01855 0.0
C992 C 0.25935 0.91913 0.08635 0.0
N993 N 0.27631 0.92079 0.06152 0.0
C994 C 0.2689 0.93222 0.11273 0.0
C995 C 0.31285 0.94917 0.08731 0.0
C996 C 0.30254 0.93558 0.06148 0.0
C997 C 0.29618 0.9472 0.11353 0.0
H998 H 0.23872 0.90694 0.0858 0.0
H999 H 0.31599 0.9361 0.04174 0.0
C1000 C 0.23126 0.83135 0.95441 0.0
N1001 N 0.21221 0.7835 0.92145 0.0
C1002 C 0.21014 0.83528 0.93213 0.0
C1003 C 0.24293 0.8032 0.95977 0.0
C1004 C 0.20072 0.81077 0.91575 0.0
C1005 C 0.23294 0.77925 0.9429 0.0
C1006 C 0.20325 0.92561 0.02196 0.0
C1007 C 0.17265 0.92146 0.02405 0.0
C1008 C 0.21528 0.95379 0.02634 0.0
C1009 C 0.15449 0.94576 0.03015 0.0
C1010 C 0.19637 0.97751 0.03242 0.0
N1011 N 0.16662 0.97305 0.03416 0.0
C1012 C 0.18587 0.84246 0.0555 0.0
C1013 C 0.1762 0.8193 0.00943 0.0
C1014 C 0.16012 0.83031 0.06763 0.0
N1015 N 0.19328 0.83701 0.02684 0.0
C1016 C 0.1503 0.80655 0.02072 0.0
C1017 C 0.14172 0.81232 0.05009 0.0
H1018 H 0.19972 0.85684 0.06877 0.0
H1019 H 0.18215 0.81557 0.98661 0.0
C1020 C 0.24601 0.91916 0.919 0.0
N1021 N 0.22904 0.92081 0.94382 0.0
C1022 C 0.23645 0.93225 0.89261 0.0
C1023 C 0.19249 0.94917 0.91803 0.0
C1024 C 0.2028 0.93558 0.94386 0.0
C1025 C 0.20917 0.94722 0.89182 0.0
H1026 H 0.26665 0.90699 0.91954 0.0
H1027 H 0.18935 0.93609 0.96359 0.0
O1028 O 0.26463 0.85509 0.03473 0.0
O1029 O 0.28405 0.90203 0.98926 0.0
O1030 O 0.24068 0.8551 0.9706 0.0
O1031 O 0.2213 0.90205 0.01607 0.0
H1032 H 0.30457 0.85723 0.07738 0.0
H1033 H 0.24566 0.79986 0.02908 0.0
H1034 H 0.32148 0.81378 0.10666 0.0
H1035 H 0.26368 0.75744 0.05905 0.0
H1036 H 0.30014 0.99942 0.96945 0.0
H1037 H 0.3423 0.89964 0.98463 0.0
H1038 H 0.26648 0.95727 0.97999 0.0
H1039 H 0.37468 0.9428 0.97378 0.0
H1040 H 0.36836 0.79261 0.99886 0.0
H1041 H 0.35094 0.83545 0.91498 0.0
H1042 H 0.25527 0.93032 0.13237 0.0
H1043 H 0.33423 0.96005 0.08702 0.0
H1044 H 0.20104 0.85703 0.92765 0.0
H1045 H 0.25956 0.79989 0.97669 0.0
H1046 H 0.18429 0.81343 0.89851 0.0
H1047 H 0.2417 0.7573 0.94684 0.0
H1048 H 0.16305 0.89972 0.02084 0.0
H1049 H 0.23895 0.95728 0.02525 0.0
H1050 H 0.13075 0.94292 0.03172 0.0
H1051 H 0.20535 0.99947 0.03583 0.0
H1052 H 0.15466 0.83504 0.0905 0.0
H1053 H 0.13667 0.79306 0.0063 0.0
H1054 H 0.25009 0.93037 0.87297 0.0
H1055 H 0.17111 0.96004 0.91832 0.0
Li1056 Li 0.24276 0.39667 0.0285 0.0
Li1057 Li 0.27807 0.35685 0.01336 0.0
Li1058 Li 0.26256 0.39667 0.97683 0.0
Li1059 Li 0.22725 0.35684 0.99199 0.0
C1060 C 0.30097 0.4239 0.02416 0.0
N1061 N 0.33405 0.47159 0.0434 0.0
C1062 C 0.32307 0.41987 0.04545 0.0
C1063 C 0.29585 0.45207 0.01242 0.0
C1064 C 0.33952 0.4443 0.05496 0.0
C1065 C 0.31277 0.47593 0.02251 0.0
C1066 C 0.23339 0.32976 0.05215 0.0
C1067 C 0.22287 0.27789 0.05915 0.0
N1068 N 0.22124 0.28241 0.0889 0.0
C1069 C 0.23141 0.33397 0.08275 0.0
C1070 C 0.22892 0.30157 0.04018 0.0
C1071 C 0.22533 0.30971 0.10097 0.0
C1072 C 0.19991 0.41257 0.06965 0.0
N1073 N 0.22846 0.41833 0.06204 0.0
C1074 C 0.23447 0.4491 0.10482 0.0
C1075 C 0.24575 0.43635 0.07892 0.0
C1076 C 0.20521 0.44302 0.1136 0.0
C1077 C 0.18779 0.42472 0.0954 0.0
H1078 H 0.18673 0.39797 0.05596 0.0
H1079 H 0.26849 0.44034 0.07281 0.0
C1080 C 0.33634 0.33619 0.00935 0.0
N1081 N 0.31152 0.33454 0.02632 0.0
C1082 C 0.36272 0.3231 0.01891 0.0
C1083 C 0.33731 0.30618 0.06287 0.0
C1084 C 0.31148 0.31976 0.05256 0.0
C1085 C 0.36352 0.30814 0.04619 0.0
H1086 H 0.33579 0.34836 0.98871 0.0
H1087 H 0.29174 0.31925 0.066 0.0
C1088 C 0.20441 0.42398 0.98126 0.0
N1089 N 0.17146 0.47184 0.96221 0.0
C1090 C 0.18216 0.42006 0.96011 0.0
C1091 C 0.20975 0.45213 0.99296 0.0
C1092 C 0.16579 0.44458 0.95069 0.0
C1093 C 0.19289 0.47608 0.98297 0.0
C1094 C 0.27195 0.32969 0.95328 0.0
C1095 C 0.27406 0.33381 0.92267 0.0
C1096 C 0.2763 0.30153 0.96534 0.0
C1097 C 0.28016 0.30949 0.90454 0.0
C1098 C 0.28237 0.27778 0.94646 0.0
N1099 N 0.28413 0.28221 0.9167 0.0
C1100 C 0.30545 0.41271 0.93577 0.0
C1101 C 0.2595 0.4362 0.92632 0.0
C1102 C 0.31757 0.42486 0.91002 0.0
N1103 N 0.27685 0.41832 0.94329 0.0
C1104 C 0.27078 0.44896 0.90042 0.0
C1105 C 0.3001 0.44302 0.89173 0.0
H1106 H 0.31867 0.39821 0.94954 0.0
H1107 H 0.23672 0.44007 0.93235 0.0
C1108 C 0.16902 0.33608 0.99603 0.0
N1109 N 0.19382 0.33452 0.97902 0.0
C1110 C 0.14264 0.32299 0.98646 0.0
C1111 C 0.16802 0.30624 0.94241 0.0
C1112 C 0.19384 0.31983 0.95273 0.0
C1113 C 0.14182 0.30811 0.95913 0.0
H1114 H 0.16958 0.34819 0.0167 0.0
H1115 H 0.21356 0.3194 0.93926 0.0
O1116 O 0.28472 0.40024 0.01464 0.0
O1117 O 0.23925 0.35329 0.03404 0.0
O1118 O 0.22059 0.40023 0.99068 0.0
O1119 O 0.26607 0.35328 0.9713 0.0
H1120 H 0.32736 0.39811 0.05459 0.0
H1121 H 0.27906 0.45546 0.99567 0.0
H1122 H 0.35662 0.44156 0.07151 0.0
H1123 H 0.30903 0.4979 0.0137 0.0
H1124 H 0.2194 0.25593 0.05022 0.0
H1125 H 0.23469 0.35572 0.0923 0.0
H1126 H 0.22993 0.29804 0.01652 0.0
H1127 H 0.22385 0.31259 0.12472 0.0
H1128 H 0.24879 0.46284 0.11829 0.0
H1129 H 0.165 0.41975 0.10102 0.0
H1130 H 0.38236 0.32499 0.00527 0.0
H1131 H 0.33703 0.29531 0.08425 0.0
H1132 H 0.1777 0.39833 0.95099 0.0
H1133 H 0.22665 0.45543 0.00961 0.0
H1134 H 0.14857 0.44193 0.93424 0.0
H1135 H 0.19681 0.49802 0.99176 0.0
H1136 H 0.27088 0.35555 0.91305 0.0
H1137 H 0.27519 0.29806 0.98901 0.0
H1138 H 0.28174 0.3123 0.88079 0.0
H1139 H 0.28575 0.25583 0.95546 0.0
H1140 H 0.3404 0.42001 0.90447 0.0
H1141 H 0.25642 0.46259 0.88688 0.0
H1142 H 0.12301 0.3248 1.00013 0.0
H1143 H 0.16829 0.29544 0.921 0.0
Li1144 Li 0.72727 0.14848 0.01336 0.0
Li1145 Li 0.76258 0.10865 0.02848 0.0
Li1146 Li 0.77809 0.1485 0.99199 0.0
Li1147 Li 0.74278 0.10866 0.97682 0.0
C1148 C 0.77195 0.17556 0.05216 0.0
N1149 N 0.78408 0.22289 0.08894 0.0
C1150 C 0.77388 0.17134 0.08276 0.0
C1151 C 0.77644 0.20375 0.04021 0.0
C1152 C 0.77996 0.19559 0.101 0.0
C1153 C 0.78249 0.22742 0.05919 0.0
C1154 C 0.70435 0.08146 0.02418 0.0
C1155 C 0.69242 0.02946 0.02254 0.0
N1156 N 0.67122 0.03383 0.0435 0.0
C1157 C 0.68232 0.08553 0.04554 0.0
C1158 C 0.70937 0.05328 0.01241 0.0
C1159 C 0.66585 0.06113 0.05508 0.0
C1160 C 0.669 0.16913 0.00935 0.0
N1161 N 0.69382 0.17079 0.02632 0.0
C1162 C 0.66803 0.19917 0.06285 0.0
C1163 C 0.69386 0.18558 0.05255 0.0
C1164 C 0.64181 0.1972 0.04618 0.0
C1165 C 0.64261 0.18221 0.01891 0.0
H1166 H 0.66955 0.15694 0.98872 0.0
H1167 H 0.7136 0.1861 0.06599 0.0
C1168 C 0.80538 0.09289 0.06974 0.0
N1169 N 0.77688 0.087 0.06203 0.0
C1170 C 0.8175 0.08076 0.09549 0.0
C1171 C 0.77093 0.05608 0.10471 0.0
C1172 C 0.75965 0.06883 0.07881 0.0
C1173 C 0.80012 0.06231 0.11359 0.0
H1174 H 0.81851 0.10761 0.05612 0.0
H1175 H 0.73696 0.06471 0.07261 0.0
C1176 C 0.73339 0.17566 0.9533 0.0
N1177 N 0.7212 0.22317 0.91677 0.0
C1178 C 0.73125 0.17156 0.92269 0.0
C1179 C 0.72906 0.20382 0.96538 0.0
C1180 C 0.72516 0.1959 0.90458 0.0
C1181 C 0.72299 0.22759 0.94652 0.0
C1182 C 0.8009 0.08132 0.98128 0.0
C1183 C 0.82321 0.08518 0.96018 0.0
C1184 C 0.79547 0.05318 0.99297 0.0
C1185 C 0.83954 0.06063 0.9508 0.0
C1186 C 0.8123 0.0292 0.98302 0.0
N1187 N 0.83378 0.03338 0.9623 0.0
C1188 C 0.83632 0.16924 0.99603 0.0
C1189 C 0.8115 0.18552 0.95275 0.0
C1190 C 0.8627 0.18234 0.98647 0.0
N1191 N 0.81152 0.17081 0.97903 0.0
C1192 C 0.83732 0.19911 0.94243 0.0
C1193 C 0.86352 0.19723 0.95915 0.0
H1194 H 0.83576 0.15713 0.0167 0.0
H1195 H 0.79178 0.18596 0.93927 0.0
C1196 C 0.69989 0.09262 0.93577 0.0
N1197 N 0.72849 0.08702 0.94327 0.0
C1198 C 0.68776 0.08047 0.91002 0.0
C1199 C 0.73456 0.05639 0.9004 0.0
C1200 C 0.74585 0.06916 0.9263 0.0
C1201 C 0.70524 0.06232 0.89173 0.0
H1202 H 0.68667 0.10711 0.94954 0.0
H1203 H 0.76863 0.0653 0.93232 0.0
O1204 O 0.76609 0.15204 0.03404 0.0
O1205 O 0.72062 0.10509 0.01462 0.0
O1206 O 0.73927 0.15206 0.9713 0.0
O1207 O 0.78475 0.1051 0.99067 0.0
H1208 H 0.77058 0.14959 0.09231 0.0
H1209 H 0.77546 0.20728 0.01655 0.0
H1210 H 0.78141 0.1927 0.12475 0.0
H1211 H 0.78598 0.24938 0.05027 0.0
H1212 H 0.6961 0.00749 0.0137 0.0
H1213 H 0.67811 0.10729 0.05471 0.0
H1214 H 0.7261 0.04987 0.9956 0.0
H1215 H 0.64881 0.06389 0.07169 0.0
H1216 H 0.66832 0.21004 0.08423 0.0
H1217 H 0.62297 0.18032 0.00527 0.0
H1218 H 0.84023 0.08584 0.10119 0.0
H1219 H 0.75665 0.04222 0.1181 0.0
H1220 H 0.73442 0.14983 0.91305 0.0
H1221 H 0.73019 0.20727 0.98905 0.0
H1222 H 0.72356 0.19311 0.88083 0.0
H1223 H 0.71962 0.24953 0.95554 0.0
H1224 H 0.82774 0.10691 0.95107 0.0
H1225 H 0.77852 0.04992 0.00958 0.0
H1226 H 0.8568 0.06324 0.93438 0.0
H1227 H 0.80831 0.00726 0.9918 0.0
H1228 H 0.88233 0.18052 1.00014 0.0
H1229 H 0.83705 0.20992 0.92102 0.0
H1230 H 0.66493 0.08532 0.90448 0.0
H1231 H 0.74892 0.04277 0.88685 0.0
Li1232 Li 0.14667 0.51258 0.2785 0.0
Li1233 Li 0.10684 0.47726 0.26336 0.0
Li1234 Li 0.14666 0.49277 0.22684 0.0
Li1235 Li 0.10683 0.52809 0.24199 0.0
C1236 C 0.17392 0.45438 0.27413 0.0
N1237 N 0.22167 0.42134 0.2933 0.0
C1238 C 0.16993 0.43223 0.29537 0.0
C1239 C 0.20208 0.45957 0.2624 0.0
C1240 C 0.19439 0.41581 0.30485 0.0
C1241 C 0.22598 0.44267 0.27245 0.0
C1242 C 0.07972 0.52195 0.30211 0.0
C1243 C 0.02783 0.53241 0.30903 0.0
N1244 N 0.0323 0.5341 0.33878 0.0
C1245 C 0.08389 0.52399 0.33271 0.0
C1246 C 0.05154 0.52635 0.2901 0.0
C1247 C 0.0596 0.53007 0.35089 0.0
C1248 C 0.16262 0.55544 0.31962 0.0
N1249 N 0.16832 0.52687 0.31204 0.0
C1250 C 0.19905 0.52084 0.35486 0.0
C1251 C 0.18629 0.50956 0.32895 0.0
C1252 C 0.19302 0.55012 0.3636 0.0
C1253 C 0.17477 0.56756 0.34537 0.0
H1254 H 0.14806 0.56863 0.3059 0.0
H1255 H 0.19024 0.48681 0.32287 0.0
C1256 C 0.08611 0.41902 0.25933 0.0
N1257 N 0.08453 0.44382 0.27633 0.0
C1258 C 0.07302 0.39264 0.26889 0.0
C1259 C 0.05623 0.41803 0.31292 0.0
C1260 C 0.06981 0.44385 0.30261 0.0
C1261 C 0.05812 0.39182 0.29621 0.0
H1262 H 0.09823 0.41958 0.23866 0.0
H1263 H 0.06936 0.46357 0.31607 0.0
C1264 C 0.17394 0.55095 0.23123 0.0
N1265 N 0.22174 0.58395 0.21211 0.0
C1266 C 0.16998 0.57316 0.21004 0.0
C1267 C 0.2021 0.54568 0.24292 0.0
C1268 C 0.19446 0.58956 0.20059 0.0
C1269 C 0.22602 0.56256 0.2329 0.0
C1270 C 0.07972 0.48339 0.20324 0.0
C1271 C 0.08389 0.48134 0.17264 0.0
C1272 C 0.05154 0.47899 0.21524 0.0
C1273 C 0.05961 0.47525 0.15445 0.0
C1274 C 0.02783 0.47292 0.19631 0.0
N1275 N 0.03231 0.47122 0.16656 0.0
C1276 C 0.16272 0.44987 0.18579 0.0
C1277 C 0.18616 0.49584 0.1763 0.0
C1278 C 0.17487 0.43774 0.16004 0.0
N1279 N 0.16831 0.47848 0.19329 0.0
C1280 C 0.19892 0.48455 0.1504 0.0
C1281 C 0.19301 0.45523 0.14173 0.0
H1282 H 0.14824 0.43665 0.19957 0.0
H1283 H 0.19002 0.51862 0.18232 0.0
C1284 C 0.08608 0.58632 0.24602 0.0
N1285 N 0.08452 0.56152 0.22902 0.0
C1286 C 0.07299 0.6127 0.23646 0.0
C1287 C 0.05624 0.58732 0.19241 0.0
C1288 C 0.06982 0.5615 0.20273 0.0
C1289 C 0.05811 0.61351 0.20913 0.0
H1290 H 0.09819 0.58576 0.2667 0.0
H1291 H 0.06938 0.54178 0.18926 0.0
O1292 O 0.15023 0.47061 0.26464 0.0
O1293 O 0.10328 0.51609 0.28404 0.0
O1294 O 0.15023 0.53474 0.24068 0.0
O1295 O 0.10328 0.48926 0.2213 0.0
H1296 H 0.14818 0.42789 0.30451 0.0
H1297 H 0.20544 0.4764 0.24568 0.0
H1298 H 0.19169 0.39867 0.32137 0.0
H1299 H 0.24793 0.44648 0.26364 0.0
H1300 H 0.00587 0.53583 0.30006 0.0
H1301 H 0.10563 0.52076 0.3423 0.0
H1302 H 0.04805 0.5253 0.26643 0.0
H1303 H 0.06245 0.5316 0.37464 0.0
H1304 H 0.21274 0.5065 0.36835 0.0
H1305 H 0.16984 0.59036 0.35096 0.0
H1306 H 0.07485 0.37301 0.25522 0.0
H1307 H 0.04541 0.4183 0.33433 0.0
H1308 H 0.14823 0.57757 0.20092 0.0
H1309 H 0.20544 0.5288 0.25961 0.0
H1310 H 0.19178 0.60674 0.18411 0.0
H1311 H 0.24797 0.55869 0.24169 0.0
H1312 H 0.10564 0.48457 0.16305 0.0
H1313 H 0.04804 0.48005 0.23891 0.0
H1314 H 0.06246 0.47371 0.13071 0.0
H1315 H 0.00587 0.4695 0.20528 0.0
H1316 H 0.17004 0.41491 0.15451 0.0
H1317 H 0.21253 0.49892 0.13684 0.0
H1318 H 0.07481 0.63232 0.25013 0.0
H1319 H 0.04544 0.58705 0.171 0.0
Li1320 Li 0.74277 0.89668 0.52851 0.0
Li1321 Li 0.77809 0.85685 0.51335 0.0
Li1322 Li 0.76257 0.89668 0.47684 0.0
Li1323 Li 0.72726 0.85685 0.49198 0.0
C1324 C 0.80094 0.92397 0.5241 0.0
N1325 N 0.83391 0.9718 0.54318 0.0
C1326 C 0.82319 0.92002 0.54524 0.0
C1327 C 0.79562 0.95213 0.51241 0.0
C1328 C 0.83957 0.94452 0.55467 0.0
C1329 C 0.81249 0.97606 0.52242 0.0
C1330 C 0.73338 0.82973 0.55209 0.0
C1331 C 0.72292 0.77783 0.55899 0.0
N1332 N 0.7212 0.7823 0.58874 0.0
C1333 C 0.73131 0.83389 0.5827 0.0
C1334 C 0.72899 0.80155 0.54008 0.0
C1335 C 0.72521 0.8096 0.60087 0.0
C1336 C 0.69985 0.91282 0.5695 0.0
N1337 N 0.72849 0.91832 0.56206 0.0
C1338 C 0.73459 0.94885 0.605 0.0
C1339 C 0.74588 0.93609 0.5791 0.0
C1340 C 0.70523 0.94302 0.61361 0.0
C1341 C 0.68772 0.92497 0.59524 0.0
H1342 H 0.6866 0.8984 0.55568 0.0
H1343 H 0.76869 0.93987 0.57312 0.0
C1344 C 0.83634 0.83616 0.50933 0.0
N1345 N 0.81152 0.83453 0.52631 0.0
C1346 C 0.86272 0.82308 0.51889 0.0
C1347 C 0.83731 0.80618 0.56286 0.0
C1348 C 0.81149 0.81977 0.55255 0.0
C1349 C 0.86352 0.80812 0.54618 0.0
H1350 H 0.83579 0.84833 0.48869 0.0
H1351 H 0.79175 0.81927 0.566 0.0
C1352 C 0.70436 0.92391 0.4812 0.0
N1353 N 0.67128 0.97162 0.462 0.0
C1354 C 0.68222 0.91989 0.45995 0.0
C1355 C 0.70951 0.95209 0.49292 0.0
C1356 C 0.66578 0.94433 0.45046 0.0
C1357 C 0.69259 0.97596 0.48286 0.0
C1358 C 0.77195 0.82975 0.45322 0.0
C1359 C 0.77398 0.83393 0.42262 0.0
C1360 C 0.77637 0.80157 0.46521 0.0
C1361 C 0.78007 0.80965 0.40442 0.0
C1362 C 0.78243 0.77787 0.44627 0.0
N1363 N 0.78412 0.78236 0.41652 0.0
C1364 C 0.80545 0.9127 0.43576 0.0
C1365 C 0.75952 0.93625 0.42635 0.0
C1366 C 0.81757 0.92484 0.41001 0.0
N1367 N 0.77686 0.91834 0.4433 0.0
C1368 C 0.7708 0.949 0.40044 0.0
C1369 C 0.8001 0.94303 0.39174 0.0
H1370 H 0.81866 0.89818 0.44951 0.0
H1371 H 0.73675 0.94015 0.43241 0.0
C1372 C 0.669 0.83618 0.49599 0.0
N1373 N 0.69382 0.83454 0.47902 0.0
C1374 C 0.64262 0.82309 0.48644 0.0
C1375 C 0.66803 0.80619 0.44247 0.0
C1376 C 0.69385 0.81977 0.45278 0.0
C1377 C 0.64181 0.80814 0.45915 0.0
H1378 H 0.66955 0.84835 0.51663 0.0
H1379 H 0.71359 0.81927 0.43933 0.0
O1380 O 0.78474 0.90024 0.51466 0.0
O1381 O 0.73926 0.85329 0.53404 0.0
O1382 O 0.72061 0.90024 0.4907 0.0
O1383 O 0.76608 0.8533 0.47129 0.0
H1384 H 0.82763 0.89828 0.55435 0.0
H1385 H 0.77872 0.95545 0.49576 0.0
H1386 H 0.85679 0.94185 0.57113 0.0
H1387 H 0.80859 0.99801 0.51364 0.0
H1388 H 0.71951 0.75588 0.55002 0.0
H1389 H 0.73453 0.85563 0.59229 0.0
H1390 H 0.73007 0.79806 0.51641 0.0
H1391 H 0.72366 0.81244 0.62461 0.0
H1392 H 0.74898 0.96239 0.6186 0.0
H1393 H 0.66486 0.9202 0.60073 0.0
H1394 H 0.88236 0.82495 0.50524 0.0
H1395 H 0.83703 0.79532 0.58425 0.0
H1396 H 0.6779 0.89814 0.45082 0.0
H1397 H 0.72633 0.95547 0.50966 0.0
H1398 H 0.64865 0.9416 0.43393 0.0
H1399 H 0.69637 0.99792 0.49166 0.0
H1400 H 0.77074 0.85568 0.41304 0.0
H1401 H 0.77532 0.79806 0.48888 0.0
H1402 H 0.7816 0.81251 0.38068 0.0
H1403 H 0.78587 0.75591 0.45523 0.0
H1404 H 0.84039 0.91997 0.40444 0.0
H1405 H 0.75644 0.96265 0.38692 0.0
H1406 H 0.62298 0.82497 0.50008 0.0
H1407 H 0.66831 0.79533 0.42108 0.0
Li1408 Li 0.89848 0.02808 0.26336 0.0
Li1409 Li 0.85865 0.99276 0.27849 0.0
Li1410 Li 0.89849 0.97725 0.242 0.0
Li1411 Li 0.85866 0.01256 0.22683 0.0
C1412 C 0.92557 0.98339 0.30213 0.0
N1413 N 0.97296 0.97123 0.33884 0.0
C1414 C 0.92139 0.98138 0.33274 0.0
C1415 C 0.95376 0.97896 0.29015 0.0
C1416 C 0.94566 0.97529 0.35094 0.0
C1417 C 0.97746 0.97289 0.3091 0.0
C1418 C 0.83144 0.05099 0.27416 0.0
C1419 C 0.77941 0.06283 0.27251 0.0
N1420 N 0.78377 0.0841 0.2934 0.0
C1421 C 0.83548 0.07308 0.29545 0.0
C1422 C 0.80326 0.04589 0.26242 0.0
C1423 C 0.81106 0.08954 0.30496 0.0
C1424 C 0.91912 0.08635 0.25935 0.0
N1425 N 0.92079 0.06152 0.27632 0.0
C1426 C 0.94917 0.08731 0.31285 0.0
C1427 C 0.93558 0.06148 0.30255 0.0
C1428 C 0.94719 0.11353 0.29618 0.0
C1429 C 0.93221 0.11273 0.26891 0.0
H1430 H 0.90694 0.0858 0.23872 0.0
H1431 H 0.93611 0.04174 0.31599 0.0
C1432 C 0.8427 0.94991 0.31962 0.0
N1433 N 0.83699 0.97847 0.31204 0.0
C1434 C 0.83056 0.93779 0.34537 0.0
C1435 C 0.80626 0.9845 0.35485 0.0
C1436 C 0.81902 0.99578 0.32894 0.0
C1437 C 0.8123 0.95523 0.3636 0.0
H1438 H 0.85727 0.93672 0.3059 0.0
H1439 H 0.81506 0.01853 0.32285 0.0
C1440 C 0.92561 0.02196 0.20326 0.0
N1441 N 0.97305 0.03416 0.16663 0.0
C1442 C 0.92146 0.02405 0.17266 0.0
C1443 C 0.95379 0.02634 0.21529 0.0
C1444 C 0.94576 0.03016 0.15449 0.0
C1445 C 0.97752 0.03242 0.19638 0.0
C1446 C 0.83135 0.95441 0.23127 0.0
C1447 C 0.83527 0.93212 0.21016 0.0
C1448 C 0.80319 0.95979 0.24293 0.0
C1449 C 0.81075 0.91575 0.20075 0.0
C1450 C 0.77924 0.94293 0.23295 0.0
N1451 N 0.78348 0.92146 0.21223 0.0
C1452 C 0.91917 0.91899 0.24601 0.0
C1453 C 0.93558 0.94385 0.2028 0.0
C1454 C 0.93225 0.89261 0.23646 0.0
N1455 N 0.92081 0.94381 0.22904 0.0
C1456 C 0.94917 0.91803 0.19249 0.0
C1457 C 0.94722 0.89181 0.20917 0.0
H1458 H 0.90699 0.91954 0.26665 0.0
H1459 H 0.93609 0.96359 0.18936 0.0
C1460 C 0.84245 0.0555 0.18587 0.0
N1461 N 0.83701 0.02684 0.19328 0.0
C1462 C 0.8303 0.06763 0.16013 0.0
C1463 C 0.80656 0.02071 0.15029 0.0
C1464 C 0.81931 0.00942 0.17619 0.0
C1465 C 0.81232 0.05009 0.14172 0.0
H1466 H 0.85682 0.06877 0.19973 0.0
H1467 H 0.81559 0.9866 0.18214 0.0
O1468 O 0.90203 0.98926 0.28405 0.0
O1469 O 0.85509 0.03472 0.26463 0.0
O1470 O 0.90205 0.01607 0.2213 0.0
O1471 O 0.8551 0.97059 0.24068 0.0
H1472 H 0.89964 0.98464 0.34231 0.0
H1473 H 0.95727 0.97999 0.26648 0.0
H1474 H 0.94279 0.97379 0.37468 0.0
H1475 H 0.99941 0.96945 0.30015 0.0
H1476 H 0.75745 0.0591 0.26369 0.0
H1477 H 0.85724 0.07736 0.30459 0.0
H1478 H 0.79986 0.02911 0.24565 0.0
H1479 H 0.81381 0.10664 0.32152 0.0
H1480 H 0.96005 0.08702 0.33423 0.0
H1481 H 0.93031 0.13237 0.25527 0.0
H1482 H 0.83549 0.91499 0.35097 0.0
H1483 H 0.79256 0.99884 0.36834 0.0
H1484 H 0.89972 0.02084 0.16305 0.0
H1485 H 0.95728 0.02524 0.23895 0.0
H1486 H 0.94293 0.03172 0.13075 0.0
H1487 H 0.99947 0.03582 0.20536 0.0
H1488 H 0.85701 0.92762 0.20107 0.0
H1489 H 0.79989 0.97672 0.25955 0.0
H1490 H 0.8134 0.8985 0.18433 0.0
H1491 H 0.75729 0.94688 0.24171 0.0
H1492 H 0.93037 0.87297 0.2501 0.0
H1493 H 0.96004 0.91831 0.17111 0.0
H1494 H 0.83502 0.09051 0.15467 0.0
H1495 H 0.79307 0.00629 0.13666 0.0
Li1496 Li 0.22726 0.6485 0.51335 0.0
Li1497 Li 0.26257 0.60867 0.5285 0.0
Li1498 Li 0.27808 0.6485 0.49198 0.0
Li1499 Li 0.24277 0.60867 0.47684 0.0
C1500 C 0.27195 0.6756 0.55211 0.0
N1501 N 0.28412 0.723 0.5888 0.0
C1502 C 0.27398 0.67143 0.58271 0.0
C1503 C 0.27637 0.70378 0.54011 0.0
C1504 C 0.28007 0.6957 0.60091 0.0
C1505 C 0.28243 0.72749 0.55905 0.0
C1506 C 0.20438 0.5814 0.52412 0.0
C1507 C 0.19272 0.52934 0.52244 0.0
N1508 N 0.17136 0.53363 0.54326 0.0
C1509 C 0.1822 0.58538 0.54533 0.0
C1510 C 0.20962 0.55324 0.5124 0.0
C1511 C 0.16579 0.56091 0.55479 0.0
C1512 C 0.16901 0.66922 0.50932 0.0
N1513 N 0.19382 0.67081 0.52632 0.0
C1514 C 0.16803 0.69912 0.5629 0.0
C1515 C 0.19385 0.68554 0.55259 0.0
C1516 C 0.14182 0.69722 0.5462 0.0
C1517 C 0.14264 0.68231 0.51888 0.0
H1518 H 0.16957 0.65709 0.48866 0.0
H1519 H 0.21357 0.686 0.56605 0.0
C1520 C 0.30545 0.59266 0.56958 0.0
N1521 N 0.27686 0.58702 0.56204 0.0
C1522 C 0.31758 0.58051 0.59533 0.0
C1523 C 0.27081 0.55635 0.6049 0.0
C1524 C 0.25952 0.56911 0.57899 0.0
C1525 C 0.30011 0.56232 0.6136 0.0
H1526 H 0.31866 0.60718 0.55583 0.0
H1527 H 0.23675 0.56521 0.57294 0.0
C1528 C 0.23339 0.67562 0.45324 0.0
N1529 N 0.22122 0.72305 0.41659 0.0
C1530 C 0.23133 0.67146 0.42264 0.0
C1531 C 0.229 0.7038 0.46526 0.0
C1532 C 0.22524 0.69576 0.40446 0.0
C1533 C 0.22294 0.72752 0.44634 0.0
C1534 C 0.30095 0.5814 0.48122 0.0
C1535 C 0.32313 0.58538 0.46001 0.0
C1536 C 0.29572 0.55324 0.49293 0.0
C1537 C 0.33954 0.5609 0.45055 0.0
C1538 C 0.31261 0.52933 0.4829 0.0
N1539 N 0.33397 0.53362 0.46208 0.0
C1540 C 0.33633 0.66922 0.49601 0.0
C1541 C 0.31149 0.68553 0.45274 0.0
C1542 C 0.36271 0.68231 0.48645 0.0
N1543 N 0.31152 0.67081 0.47901 0.0
C1544 C 0.33731 0.69912 0.44243 0.0
C1545 C 0.36352 0.69722 0.45913 0.0
H1546 H 0.33577 0.65708 0.51667 0.0
H1547 H 0.29177 0.686 0.43928 0.0
C1548 C 0.19988 0.59265 0.43575 0.0
N1549 N 0.22847 0.58702 0.44329 0.0
C1550 C 0.18776 0.58051 0.41 0.0
C1551 C 0.23453 0.55636 0.40043 0.0
C1552 C 0.24581 0.56911 0.42634 0.0
C1553 C 0.20522 0.56232 0.39173 0.0
H1554 H 0.18667 0.60717 0.44951 0.0
H1555 H 0.26858 0.56522 0.43239 0.0
O1556 O 0.26608 0.65205 0.53404 0.0
O1557 O 0.2206 0.60511 0.51465 0.0
O1558 O 0.23926 0.65205 0.47129 0.0
O1559 O 0.28473 0.6051 0.49069 0.0
H1560 H 0.27074 0.64968 0.59229 0.0
H1561 H 0.27532 0.70729 0.51645 0.0
H1562 H 0.28159 0.69285 0.62465 0.0
H1563 H 0.28586 0.74945 0.55009 0.0
H1564 H 0.19656 0.50738 0.51364 0.0
H1565 H 0.17782 0.60713 0.55446 0.0
H1566 H 0.22646 0.5499 0.4957 0.0
H1567 H 0.14863 0.5636 0.57129 0.0
H1568 H 0.1683 0.70995 0.58431 0.0
H1569 H 0.123 0.68047 0.50522 0.0
H1570 H 0.34039 0.58539 0.60089 0.0
H1571 H 0.25645 0.5427 0.61842 0.0
H1572 H 0.23455 0.64972 0.41304 0.0
H1573 H 0.23007 0.70729 0.48892 0.0
H1574 H 0.2237 0.69291 0.38072 0.0
H1575 H 0.21952 0.74947 0.45531 0.0
H1576 H 0.32751 0.60712 0.45088 0.0
H1577 H 0.27887 0.54989 0.50963 0.0
H1578 H 0.35671 0.56359 0.43405 0.0
H1579 H 0.30877 0.50738 0.49169 0.0
H1580 H 0.38234 0.68047 0.50011 0.0
H1581 H 0.33704 0.70994 0.42103 0.0
H1582 H 0.16494 0.58539 0.40444 0.0
H1583 H 0.24888 0.54271 0.38691 0.0
Li1584 Li 0.39849 0.52809 0.76336 0.0
Li1585 Li 0.35865 0.49277 0.7785 0.0
Li1586 Li 0.39849 0.47726 0.74199 0.0
Li1587 Li 0.35866 0.51257 0.72684 0.0
C1588 C 0.42561 0.48339 0.80209 0.0
N1589 N 0.47306 0.47123 0.83871 0.0
C1590 C 0.42147 0.48132 0.83269 0.0
C1591 C 0.45379 0.47901 0.79006 0.0
C1592 C 0.44578 0.47524 0.85086 0.0
C1593 C 0.47752 0.47295 0.80896 0.0
C1594 C 0.33138 0.55094 0.77411 0.0
C1595 C 0.27931 0.56258 0.77242 0.0
N1596 N 0.28358 0.58394 0.79324 0.0
C1597 C 0.33533 0.57313 0.79533 0.0
C1598 C 0.30322 0.5457 0.76239 0.0
C1599 C 0.31085 0.58952 0.80478 0.0
C1600 C 0.41921 0.58632 0.75933 0.0
N1601 N 0.4208 0.56152 0.77633 0.0
C1602 C 0.4491 0.58731 0.81291 0.0
C1603 C 0.43551 0.56149 0.8026 0.0
C1604 C 0.44721 0.61352 0.79621 0.0
C1605 C 0.43231 0.6127 0.76889 0.0
H1606 H 0.40709 0.58577 0.73867 0.0
H1607 H 0.43597 0.54177 0.81607 0.0
C1608 C 0.34271 0.44991 0.81963 0.0
N1609 N 0.337 0.47848 0.81205 0.0
C1610 C 0.33057 0.43779 0.84538 0.0
C1611 C 0.30626 0.4845 0.85485 0.0
C1612 C 0.31902 0.49579 0.82895 0.0
C1613 C 0.31231 0.45523 0.8636 0.0
H1614 H 0.35729 0.43673 0.80592 0.0
H1615 H 0.31506 0.51853 0.82286 0.0
C1616 C 0.42559 0.52195 0.70323 0.0
N1617 N 0.47298 0.53412 0.66652 0.0
C1618 C 0.42141 0.52397 0.67262 0.0
C1619 C 0.45377 0.52638 0.71522 0.0
C1620 C 0.44568 0.53006 0.65442 0.0
C1621 C 0.47747 0.53245 0.69627 0.0
C1622 C 0.3314 0.45439 0.73121 0.0
C1623 C 0.33538 0.43222 0.70998 0.0
C1624 C 0.30323 0.4596 0.74293 0.0
C1625 C 0.31092 0.41581 0.70051 0.0
C1626 C 0.27934 0.4427 0.73288 0.0
N1627 N 0.28364 0.42136 0.71205 0.0
C1628 C 0.41917 0.419 0.746 0.0
C1629 C 0.43556 0.44385 0.70278 0.0
C1630 C 0.43225 0.39262 0.73645 0.0
N1631 N 0.4208 0.44382 0.72903 0.0
C1632 C 0.44914 0.41803 0.69247 0.0
C1633 C 0.4472 0.39182 0.70915 0.0
H1634 H 0.40701 0.41956 0.76665 0.0
H1635 H 0.43605 0.46359 0.68933 0.0
C1636 C 0.3427 0.55544 0.68572 0.0
N1637 N 0.33701 0.52687 0.69329 0.0
C1638 C 0.33056 0.56756 0.65997 0.0
C1639 C 0.30629 0.52084 0.65047 0.0
C1640 C 0.31905 0.50955 0.67638 0.0
C1641 C 0.31232 0.55012 0.64173 0.0
H1642 H 0.35727 0.56863 0.69944 0.0
H1643 H 0.3151 0.4868 0.68246 0.0
O1644 O 0.40204 0.48926 0.78405 0.0
O1645 O 0.35509 0.53474 0.76465 0.0
O1646 O 0.40204 0.51608 0.72131 0.0
O1647 O 0.35509 0.47061 0.74069 0.0
H1648 H 0.39973 0.48454 0.8423 0.0
H1649 H 0.45727 0.48009 0.76639 0.0
H1650 H 0.44295 0.47369 0.8746 0.0
H1651 H 0.49947 0.46954 0.79998 0.0
H1652 H 0.25736 0.55873 0.76361 0.0
H1653 H 0.35707 0.57752 0.80447 0.0
H1654 H 0.29989 0.52885 0.74569 0.0
H1655 H 0.31352 0.60669 0.82128 0.0
H1656 H 0.45992 0.58704 0.83432 0.0
H1657 H 0.43047 0.63233 0.75523 0.0
H1658 H 0.33551 0.41499 0.85098 0.0
H1659 H 0.29255 0.49883 0.86834 0.0
H1660 H 0.39966 0.52071 0.66305 0.0
H1661 H 0.45728 0.52535 0.73888 0.0
H1662 H 0.44282 0.53156 0.63068 0.0
H1663 H 0.49943 0.53589 0.70523 0.0
H1664 H 0.35713 0.42786 0.70085 0.0
H1665 H 0.29988 0.47643 0.75964 0.0
H1666 H 0.31362 0.39866 0.684 0.0
H1667 H 0.25738 0.44652 0.74168 0.0
H1668 H 0.43038 0.37298 0.75009 0.0
H1669 H 0.46 0.41831 0.67108 0.0
H1670 H 0.33548 0.59036 0.65438 0.0
H1671 H 0.2926 0.5065 0.63698 0.0
Li1672 Li 0.64667 0.01256 0.77851 0.0
Li1673 Li 0.60684 0.97725 0.76336 0.0
Li1674 Li 0.64667 0.99276 0.72685 0.0
Li1675 Li 0.60684 0.02808 0.74198 0.0
C1676 C 0.67399 0.95442 0.77408 0.0
N1677 N 0.72186 0.9215 0.79313 0.0
C1678 C 0.67008 0.93218 0.79525 0.0
C1679 C 0.70213 0.95976 0.76237 0.0
C1680 C 0.69461 0.91582 0.80466 0.0
C1681 C 0.72608 0.94291 0.77235 0.0
C1682 C 0.57969 0.02195 0.80206 0.0
C1683 C 0.52777 0.03237 0.80888 0.0
N1684 N 0.5322 0.03412 0.83863 0.0
C1685 C 0.5838 0.02405 0.83267 0.0
C1686 C 0.55152 0.0263 0.79 0.0
C1687 C 0.55948 0.03014 0.8508 0.0
C1688 C 0.66261 0.05542 0.81963 0.0
N1689 N 0.66832 0.02686 0.81205 0.0
C1690 C 0.69906 0.02084 0.85486 0.0
C1691 C 0.6863 0.00955 0.82896 0.0
C1692 C 0.69302 0.05011 0.8636 0.0
C1693 C 0.67476 0.06755 0.84538 0.0
H1694 H 0.64803 0.06861 0.80592 0.0
H1695 H 0.69025 0.9868 0.82287 0.0
C1696 C 0.58611 0.91901 0.75932 0.0
N1697 N 0.58452 0.94382 0.77632 0.0
C1698 C 0.57301 0.89264 0.76888 0.0
C1699 C 0.55622 0.91802 0.8129 0.0
C1700 C 0.56981 0.94384 0.80259 0.0
C1701 C 0.55811 0.89182 0.7962 0.0
H1702 H 0.59823 0.91957 0.73865 0.0
H1703 H 0.56935 0.96357 0.81606 0.0
C1704 C 0.6739 0.05097 0.73118 0.0
N1705 N 0.72159 0.08405 0.71193 0.0
C1706 C 0.66987 0.07306 0.70988 0.0
C1707 C 0.70207 0.04586 0.74293 0.0
C1708 C 0.6943 0.0895 0.70037 0.0
C1709 C 0.72593 0.06279 0.73284 0.0
C1710 C 0.57976 0.98339 0.7032 0.0
C1711 C 0.58395 0.98142 0.6726 0.0
C1712 C 0.55157 0.97893 0.71517 0.0
C1713 C 0.55969 0.97534 0.65438 0.0
C1714 C 0.52788 0.97288 0.69621 0.0
N1715 N 0.53239 0.97125 0.66646 0.0
C1716 C 0.66249 0.94994 0.68563 0.0
C1717 C 0.68642 0.99573 0.67648 0.0
C1718 C 0.67463 0.93782 0.65988 0.0
N1719 N 0.66832 0.97846 0.6933 0.0
C1720 C 0.69918 0.98444 0.65057 0.0
C1721 C 0.69302 0.95522 0.64174 0.0
H1722 H 0.64783 0.93679 0.69929 0.0
H1723 H 0.69049 0.01844 0.68263 0.0
C1724 C 0.58617 0.08634 0.746 0.0
N1725 N 0.58454 0.06152 0.72902 0.0
C1726 C 0.57308 0.11272 0.73644 0.0
C1727 C 0.55618 0.08731 0.69247 0.0
C1728 C 0.56977 0.06149 0.70278 0.0
C1729 C 0.55813 0.11352 0.70915 0.0
H1730 H 0.59834 0.08578 0.76664 0.0
H1731 H 0.56927 0.04175 0.68933 0.0
O1732 O 0.65023 0.97059 0.76466 0.0
O1733 O 0.60328 0.01607 0.78404 0.0
O1734 O 0.65024 0.03472 0.7407 0.0
O1735 O 0.60329 0.98925 0.7213 0.0
H1736 H 0.64835 0.92772 0.80438 0.0
H1737 H 0.70542 0.97666 0.74571 0.0
H1738 H 0.69197 0.89861 0.82113 0.0
H1739 H 0.74802 0.94683 0.76356 0.0
H1740 H 0.50583 0.03576 0.79987 0.0
H1741 H 0.60553 0.02085 0.8423 0.0
H1742 H 0.54807 0.0252 0.76633 0.0
H1743 H 0.56229 0.03171 0.87455 0.0
H1744 H 0.71277 0.0065 0.86834 0.0
H1745 H 0.66982 0.09034 0.85098 0.0
H1746 H 0.57485 0.87301 0.75521 0.0
H1747 H 0.5454 0.91829 0.83431 0.0
H1748 H 0.64811 0.07734 0.70072 0.0
H1749 H 0.70545 0.02909 0.75969 0.0
H1750 H 0.69157 0.10659 0.6838 0.0
H1751 H 0.74789 0.05905 0.74166 0.0
H1752 H 0.6057 0.98471 0.66304 0.0
H1753 H 0.54805 0.97993 0.73884 0.0
H1754 H 0.56256 0.97387 0.63064 0.0
H1755 H 0.50592 0.9694 0.70515 0.0
H1756 H 0.6696 0.91507 0.65422 0.0
H1757 H 0.71299 0.99874 0.63715 0.0
H1758 H 0.57496 0.13236 0.75009 0.0
H1759 H 0.54532 0.08703 0.67108 0.0
Li1760 Li 0.76335 0.60684 0.97725 0.0
Li1761 Li 0.7785 0.64667 0.01256 0.0
Li1762 Li 0.74198 0.60684 0.02808 0.0
Li1763 Li 0.72684 0.64667 0.99276 0.0
C1764 C 0.80206 0.57969 0.02195 0.0
N1765 N 0.83863 0.5322 0.03412 0.0
C1766 C 0.83266 0.5838 0.02405 0.0
C1767 C 0.79 0.55152 0.0263 0.0
C1768 C 0.8508 0.55948 0.03014 0.0
C1769 C 0.80887 0.52777 0.03237 0.0
C1770 C 0.77408 0.67399 0.95442 0.0
C1771 C 0.77235 0.72608 0.94291 0.0
N1772 N 0.79313 0.72186 0.9215 0.0
C1773 C 0.79525 0.67008 0.93219 0.0
C1774 C 0.76236 0.70213 0.95976 0.0
C1775 C 0.80466 0.69461 0.91582 0.0
C1776 C 0.75932 0.58611 0.91901 0.0
N1777 N 0.77632 0.58453 0.94382 0.0
C1778 C 0.8129 0.55622 0.91803 0.0
C1779 C 0.80259 0.56981 0.94385 0.0
C1780 C 0.79619 0.55811 0.89182 0.0
C1781 C 0.76888 0.57301 0.89264 0.0
H1782 H 0.73866 0.59824 0.91957 0.0
H1783 H 0.81606 0.56935 0.96357 0.0
C1784 C 0.81964 0.6626 0.05542 0.0
N1785 N 0.81205 0.66832 0.02686 0.0
C1786 C 0.84539 0.67475 0.06755 0.0
C1787 C 0.85485 0.69907 0.02084 0.0
C1788 C 0.82895 0.68631 0.00955 0.0
C1789 C 0.8636 0.69302 0.05011 0.0
H1790 H 0.80593 0.64802 0.0686 0.0
H1791 H 0.82286 0.69027 0.98681 0.0
C1792 C 0.7032 0.57976 0.98339 0.0
N1793 N 0.66646 0.53239 0.97125 0.0
C1794 C 0.6726 0.58395 0.98143 0.0
C1795 C 0.71517 0.55157 0.97893 0.0
C1796 C 0.65437 0.55969 0.97535 0.0
C1797 C 0.69621 0.52788 0.97288 0.0
C1798 C 0.73117 0.6739 0.05097 0.0
C1799 C 0.70988 0.66987 0.07306 0.0
C1800 C 0.74292 0.70207 0.04586 0.0
C1801 C 0.70037 0.6943 0.0895 0.0
C1802 C 0.73283 0.72593 0.06278 0.0
N1803 N 0.71193 0.72159 0.08405 0.0
C1804 C 0.74599 0.58617 0.08634 0.0
C1805 C 0.70278 0.56977 0.06149 0.0
C1806 C 0.73644 0.57309 0.11272 0.0
N1807 N 0.72902 0.58454 0.06152 0.0
C1808 C 0.69247 0.55618 0.08731 0.0
C1809 C 0.70915 0.55813 0.11353 0.0
H1810 H 0.76664 0.59834 0.08578 0.0
H1811 H 0.68933 0.56926 0.04175 0.0
C1812 C 0.68563 0.66249 0.94995 0.0
N1813 N 0.69329 0.66832 0.97847 0.0
C1814 C 0.65988 0.67463 0.93783 0.0
C1815 C 0.65057 0.69918 0.98444 0.0
C1816 C 0.67647 0.68642 0.99573 0.0
C1817 C 0.64174 0.69302 0.95522 0.0
H1818 H 0.69928 0.64782 0.9368 0.0
H1819 H 0.68263 0.69049 0.01844 0.0
O1820 O 0.78404 0.60328 0.01608 0.0
O1821 O 0.76466 0.65023 0.9706 0.0
O1822 O 0.7213 0.60329 0.98925 0.0
O1823 O 0.7407 0.65024 0.03472 0.0
H1824 H 0.84229 0.60553 0.02086 0.0
H1825 H 0.76632 0.54807 0.0252 0.0
H1826 H 0.87454 0.56228 0.03171 0.0
H1827 H 0.79986 0.50583 0.03576 0.0
H1828 H 0.76355 0.74802 0.94682 0.0
H1829 H 0.80438 0.64835 0.92773 0.0
H1830 H 0.7457 0.70542 0.97665 0.0
H1831 H 0.82113 0.69197 0.89862 0.0
H1832 H 0.83431 0.5454 0.9183 0.0
H1833 H 0.75521 0.57485 0.87301 0.0
H1834 H 0.85099 0.6698 0.09034 0.0
H1835 H 0.86833 0.71279 0.00651 0.0
H1836 H 0.66303 0.6057 0.98471 0.0
H1837 H 0.73884 0.54805 0.97993 0.0
H1838 H 0.63063 0.56257 0.97387 0.0
H1839 H 0.70514 0.50592 0.9694 0.0
H1840 H 0.70072 0.64812 0.07734 0.0
H1841 H 0.75969 0.70545 0.02908 0.0
H1842 H 0.6838 0.69157 0.1066 0.0
H1843 H 0.74166 0.74789 0.05904 0.0
H1844 H 0.75009 0.57496 0.13236 0.0
H1845 H 0.67108 0.54532 0.08703 0.0
H1846 H 0.65421 0.6696 0.91507 0.0
H1847 H 0.63715 0.71299 0.99874 0.0
Li1848 Li 0.89667 0.52851 0.74278 0.0
Li1849 Li 0.85684 0.51334 0.77809 0.0
Li1850 Li 0.89668 0.47684 0.76257 0.0
Li1851 Li 0.85685 0.49198 0.72726 0.0
C1852 C 0.92397 0.52409 0.80094 0.0
N1853 N 0.9718 0.54317 0.83391 0.0
C1854 C 0.92003 0.54524 0.82319 0.0
C1855 C 0.95213 0.51241 0.79561 0.0
C1856 C 0.94453 0.55467 0.83957 0.0
C1857 C 0.97606 0.52241 0.81248 0.0
C1858 C 0.82973 0.55209 0.73338 0.0
C1859 C 0.77783 0.55899 0.72292 0.0
N1860 N 0.7823 0.58874 0.7212 0.0
C1861 C 0.83388 0.58269 0.73131 0.0
C1862 C 0.80155 0.54007 0.729 0.0
C1863 C 0.80959 0.60086 0.72521 0.0
C1864 C 0.91282 0.5695 0.69985 0.0
N1865 N 0.91832 0.56205 0.72849 0.0
C1866 C 0.94885 0.605 0.73459 0.0
C1867 C 0.93609 0.57909 0.74588 0.0
C1868 C 0.94302 0.61361 0.70524 0.0
C1869 C 0.92496 0.59525 0.68772 0.0
H1870 H 0.8984 0.55568 0.6866 0.0
H1871 H 0.93988 0.57312 0.76869 0.0
C1872 C 0.83616 0.50933 0.83634 0.0
N1873 N 0.83453 0.5263 0.81152 0.0
C1874 C 0.82308 0.51889 0.86272 0.0
C1875 C 0.80618 0.56286 0.83731 0.0
C1876 C 0.81976 0.55255 0.81149 0.0
C1877 C 0.80812 0.54618 0.86352 0.0
H1878 H 0.84833 0.48869 0.83579 0.0
H1879 H 0.81927 0.566 0.79175 0.0
C1880 C 0.92391 0.4812 0.70436 0.0
N1881 N 0.97162 0.46199 0.67128 0.0
C1882 C 0.91989 0.45994 0.68223 0.0
C1883 C 0.95208 0.49292 0.70951 0.0
C1884 C 0.94433 0.45045 0.66579 0.0
C1885 C 0.97595 0.48285 0.69259 0.0
C1886 C 0.82975 0.45321 0.77196 0.0
C1887 C 0.83393 0.42261 0.77398 0.0
C1888 C 0.80157 0.46521 0.77637 0.0
C1889 C 0.80965 0.40442 0.78007 0.0
C1890 C 0.77787 0.44627 0.78244 0.0
N1891 N 0.78236 0.41652 0.78412 0.0
C1892 C 0.91268 0.43574 0.80544 0.0
C1893 C 0.93627 0.42636 0.75953 0.0
C1894 C 0.92482 0.40999 0.81757 0.0
N1895 N 0.91834 0.4433 0.77686 0.0
C1896 C 0.94902 0.40046 0.77081 0.0
C1897 C 0.94303 0.39174 0.8001 0.0
H1898 H 0.89814 0.44948 0.81865 0.0
H1899 H 0.94019 0.43243 0.73677 0.0
C1900 C 0.83619 0.49599 0.669 0.0
N1901 N 0.83454 0.47902 0.69382 0.0
C1902 C 0.8231 0.48643 0.64262 0.0
C1903 C 0.80618 0.44247 0.66803 0.0
C1904 C 0.81977 0.45278 0.69386 0.0
C1905 C 0.80813 0.45914 0.64182 0.0
H1906 H 0.84835 0.51663 0.66955 0.0
H1907 H 0.81926 0.43933 0.71359 0.0
O1908 O 0.90024 0.51465 0.78474 0.0
O1909 O 0.85329 0.53404 0.73927 0.0
O1910 O 0.90024 0.4907 0.72061 0.0
O1911 O 0.8533 0.47129 0.76608 0.0
H1912 H 0.89828 0.55434 0.82764 0.0
H1913 H 0.95545 0.49576 0.77871 0.0
H1914 H 0.94186 0.57112 0.85679 0.0
H1915 H 0.99801 0.51364 0.80858 0.0
H1916 H 0.75587 0.55001 0.71951 0.0
H1917 H 0.85563 0.59229 0.73453 0.0
H1918 H 0.79806 0.5164 0.73007 0.0
H1919 H 0.81243 0.62461 0.72366 0.0
H1920 H 0.96239 0.61859 0.74899 0.0
H1921 H 0.92019 0.60074 0.66486 0.0
H1922 H 0.82495 0.50524 0.88236 0.0
H1923 H 0.79532 0.58425 0.83703 0.0
H1924 H 0.89813 0.4508 0.67792 0.0
H1925 H 0.95547 0.50966 0.72632 0.0
H1926 H 0.9416 0.43391 0.64866 0.0
H1927 H 0.99792 0.49166 0.69636 0.0
H1928 H 0.85568 0.41303 0.77074 0.0
H1929 H 0.79806 0.48888 0.77533 0.0
H1930 H 0.81251 0.38067 0.78159 0.0
H1931 H 0.75591 0.45523 0.78588 0.0
H1932 H 0.91993 0.40442 0.84038 0.0
H1933 H 0.96269 0.38694 0.75646 0.0
H1934 H 0.82498 0.50007 0.62298 0.0
H1935 H 0.79532 0.42108 0.66832 0.0
Li1936 Li 0.7785 0.35865 0.49277 0.0
Li1937 Li 0.76336 0.39849 0.52809 0.0
Li1938 Li 0.72684 0.35866 0.51258 0.0
Li1939 Li 0.74199 0.39849 0.47726 0.0
C1940 C 0.77411 0.33137 0.55094 0.0
N1941 N 0.79322 0.28356 0.58393 0.0
C1942 C 0.79532 0.33532 0.57313 0.0
C1943 C 0.76238 0.30322 0.54568 0.0
C1944 C 0.80476 0.31083 0.58953 0.0
C1945 C 0.7724 0.2793 0.56256 0.0
C1946 C 0.80208 0.42562 0.48339 0.0
C1947 C 0.80895 0.47752 0.47295 0.0
N1948 N 0.8387 0.47307 0.47122 0.0
C1949 C 0.83269 0.42148 0.48132 0.0
C1950 C 0.79005 0.45379 0.47902 0.0
C1951 C 0.85085 0.44578 0.47523 0.0
C1952 C 0.81963 0.34271 0.44991 0.0
N1953 N 0.81205 0.337 0.47848 0.0
C1954 C 0.85485 0.30627 0.4845 0.0
C1955 C 0.82895 0.31903 0.49579 0.0
C1956 C 0.8636 0.31231 0.45523 0.0
C1957 C 0.84538 0.33057 0.43779 0.0
H1958 H 0.80591 0.35728 0.43673 0.0
H1959 H 0.82287 0.31507 0.51854 0.0
C1960 C 0.75933 0.41922 0.58633 0.0
N1961 N 0.77633 0.4208 0.56152 0.0
C1962 C 0.76889 0.43231 0.61271 0.0
C1963 C 0.81291 0.4491 0.58732 0.0
C1964 C 0.8026 0.43551 0.5615 0.0
C1965 C 0.79621 0.44721 0.61352 0.0
H1966 H 0.73866 0.40709 0.58577 0.0
H1967 H 0.81607 0.43597 0.54177 0.0
C1968 C 0.7312 0.3314 0.45439 0.0
N1969 N 0.71203 0.28366 0.42135 0.0
C1970 C 0.70996 0.3354 0.43223 0.0
C1971 C 0.74293 0.30324 0.45958 0.0
C1972 C 0.70049 0.31094 0.41581 0.0
C1973 C 0.73287 0.27935 0.44268 0.0
C1974 C 0.70322 0.42559 0.52196 0.0
C1975 C 0.67262 0.42141 0.52397 0.0
C1976 C 0.71521 0.45377 0.52639 0.0
C1977 C 0.65442 0.44568 0.53005 0.0
C1978 C 0.69626 0.47747 0.53245 0.0
N1979 N 0.66652 0.47298 0.53412 0.0
C1980 C 0.68571 0.34272 0.55544 0.0
C1981 C 0.67638 0.31904 0.50956 0.0
C1982 C 0.65996 0.33058 0.56756 0.0
N1983 N 0.69329 0.33701 0.52687 0.0
C1984 C 0.65048 0.30628 0.52085 0.0
C1985 C 0.64173 0.31232 0.55012 0.0
H1986 H 0.69943 0.35729 0.56863 0.0
H1987 H 0.68247 0.31508 0.48681 0.0
C1988 C 0.746 0.41916 0.419 0.0
N1989 N 0.72902 0.4208 0.44382 0.0
C1990 C 0.73644 0.43225 0.39262 0.0
C1991 C 0.69247 0.44915 0.41803 0.0
C1992 C 0.70278 0.43556 0.44386 0.0
C1993 C 0.70915 0.4472 0.39182 0.0
H1994 H 0.76664 0.407 0.41956 0.0
H1995 H 0.68933 0.43606 0.46359 0.0
O1996 O 0.76465 0.35509 0.53474 0.0
O1997 O 0.78404 0.40204 0.48926 0.0
O1998 O 0.74069 0.35509 0.47061 0.0
O1999 O 0.7213 0.40204 0.51609 0.0
H2000 H 0.80445 0.35706 0.57753 0.0
H2001 H 0.74569 0.29989 0.52882 0.0
H2002 H 0.82126 0.3135 0.6067 0.0
H2003 H 0.7636 0.25735 0.5587 0.0
H2004 H 0.79996 0.49947 0.46954 0.0
H2005 H 0.8423 0.39974 0.48453 0.0
H2006 H 0.76638 0.45727 0.48009 0.0
H2007 H 0.87459 0.44295 0.47368 0.0
H2008 H 0.86834 0.29256 0.49884 0.0
H2009 H 0.85097 0.3355 0.41499 0.0
H2010 H 0.75522 0.43048 0.63234 0.0
H2011 H 0.83432 0.45992 0.58704 0.0
H2012 H 0.70083 0.35715 0.42788 0.0
H2013 H 0.75965 0.29988 0.47641 0.0
H2014 H 0.68397 0.31364 0.39867 0.0
H2015 H 0.74168 0.25739 0.44649 0.0
H2016 H 0.66304 0.39966 0.52071 0.0
H2017 H 0.73888 0.45728 0.52536 0.0
H2018 H 0.63067 0.44282 0.53156 0.0
H2019 H 0.70522 0.49943 0.5359 0.0
H2020 H 0.65436 0.33551 0.59036 0.0
H2021 H 0.63699 0.29258 0.50651 0.0
H2022 H 0.75008 0.43037 0.37298 0.0
H2023 H 0.67108 0.46 0.41831 0.0
Li2024 Li 0.6485 0.51335 0.22726 0.0
Li2025 Li 0.60867 0.5285 0.26257 0.0
Li2026 Li 0.6485 0.49198 0.27808 0.0
Li2027 Li 0.60867 0.47683 0.24277 0.0
C2028 C 0.6756 0.55211 0.27195 0.0
N2029 N 0.723 0.58879 0.28412 0.0
C2030 C 0.67143 0.58271 0.27399 0.0
C2031 C 0.70379 0.54011 0.27637 0.0
C2032 C 0.69571 0.6009 0.28008 0.0
C2033 C 0.72749 0.55904 0.28243 0.0
C2034 C 0.5814 0.52411 0.20439 0.0
C2035 C 0.52933 0.52243 0.19275 0.0
N2036 N 0.53361 0.54324 0.17138 0.0
C2037 C 0.58537 0.54532 0.1822 0.0
C2038 C 0.55324 0.5124 0.20964 0.0
C2039 C 0.56089 0.55477 0.16579 0.0
C2040 C 0.66922 0.50932 0.16902 0.0
N2041 N 0.67081 0.52632 0.19382 0.0
C2042 C 0.69912 0.5629 0.16803 0.0
C2043 C 0.68554 0.55258 0.19385 0.0
C2044 C 0.69723 0.5462 0.14182 0.0
C2045 C 0.68231 0.51888 0.14264 0.0
H2046 H 0.65709 0.48866 0.16958 0.0
H2047 H 0.686 0.56605 0.21358 0.0
C2048 C 0.59265 0.56957 0.30546 0.0
N2049 N 0.58702 0.56204 0.27686 0.0
C2050 C 0.5805 0.59532 0.31758 0.0
C2051 C 0.55636 0.60491 0.27081 0.0
C2052 C 0.56912 0.579 0.25952 0.0
C2053 C 0.56232 0.6136 0.30011 0.0
H2054 H 0.60716 0.55582 0.31867 0.0
H2055 H 0.56523 0.57296 0.23675 0.0
C2056 C 0.67562 0.45324 0.23339 0.0
N2057 N 0.72304 0.41658 0.22123 0.0
C2058 C 0.67146 0.42263 0.23133 0.0
C2059 C 0.70379 0.46525 0.229 0.0
C2060 C 0.69575 0.40446 0.22524 0.0
C2061 C 0.72752 0.44633 0.22294 0.0
C2062 C 0.5814 0.48121 0.30096 0.0
C2063 C 0.58539 0.45999 0.32313 0.0
C2064 C 0.55324 0.49293 0.29574 0.0
C2065 C 0.56092 0.45052 0.33954 0.0
C2066 C 0.52934 0.48289 0.31263 0.0
N2067 N 0.53364 0.46206 0.33398 0.0
C2068 C 0.66922 0.49601 0.33633 0.0
C2069 C 0.68553 0.45274 0.3115 0.0
C2070 C 0.68231 0.48645 0.36271 0.0
N2071 N 0.67081 0.47901 0.31152 0.0
C2072 C 0.69912 0.44243 0.33732 0.0
C2073 C 0.69722 0.45913 0.36352 0.0
H2074 H 0.65708 0.51667 0.33577 0.0
H2075 H 0.68599 0.43928 0.29177 0.0
C2076 C 0.59267 0.43574 0.19989 0.0
N2077 N 0.58701 0.44329 0.22848 0.0
C2078 C 0.58052 0.40999 0.18777 0.0
C2079 C 0.55634 0.40044 0.23452 0.0
C2080 C 0.5691 0.42635 0.24581 0.0
C2081 C 0.56232 0.39173 0.20523 0.0
H2082 H 0.6072 0.44949 0.18668 0.0
H2083 H 0.56519 0.4324 0.26857 0.0
O2084 O 0.65205 0.53403 0.26608 0.0
O2085 O 0.60511 0.51465 0.2206 0.0
O2086 O 0.65205 0.47129 0.23926 0.0
O2087 O 0.6051 0.49069 0.28473 0.0
H2088 H 0.64968 0.59229 0.27075 0.0
H2089 H 0.70729 0.51644 0.27532 0.0
H2090 H 0.69285 0.62464 0.2816 0.0
H2091 H 0.74945 0.55008 0.28586 0.0
H2092 H 0.50738 0.51364 0.19659 0.0
H2093 H 0.60711 0.55444 0.17781 0.0
H2094 H 0.5499 0.49571 0.22649 0.0
H2095 H 0.56358 0.57126 0.14862 0.0
H2096 H 0.70995 0.5843 0.1683 0.0
H2097 H 0.68047 0.50522 0.12301 0.0
H2098 H 0.58537 0.60088 0.3404 0.0
H2099 H 0.54272 0.61844 0.25645 0.0
H2100 H 0.64972 0.41304 0.23455 0.0
H2101 H 0.70729 0.48892 0.23007 0.0
H2102 H 0.69291 0.38071 0.2237 0.0
H2103 H 0.74947 0.45531 0.21952 0.0
H2104 H 0.60713 0.45086 0.3275 0.0
H2105 H 0.54989 0.50964 0.2789 0.0
H2106 H 0.56362 0.43402 0.3567 0.0
H2107 H 0.50739 0.49169 0.30881 0.0
H2108 H 0.68047 0.50011 0.38234 0.0
H2109 H 0.70994 0.42102 0.33704 0.0
H2110 H 0.58541 0.40442 0.16495 0.0
H2111 H 0.54268 0.38692 0.24888 0.0
loop_
_geom_bond_atom_site_label_1
_geom_bond_atom_site_label_2
_geom_bond_distance
_geom_bond_site_symmetry_2
_ccdc_geom_bond_type
Li0 N17 1.990 . S
Li0 O60 1.956 . S
Li0 O61 1.970 . S
Li0 O62 1.961 1_455 S
Li1 N25 1.990 . S
Li1 O60 1.970 . S
Li1 O61 1.956 . S
Li1 O63 1.961 1_455 S
Li2 N47 1.990 . S
Li2 O60 1.961 1_655 S
Li2 O62 1.956 . S
Li2 O63 1.970 . S
Li3 N53 1.990 . S
Li3 O61 1.961 1_655 S
Li3 O62 1.970 . S
Li3 O63 1.956 . S
C4 C6 1.348 . S
C4 C7 1.356 . S
C4 O60 1.325 . S
N5 C8 1.314 . S
N5 C9 1.279 . S
C6 C4 1.348 . S
C6 C8 1.353 . S
C6 H64 0.929 . S
C7 C4 1.356 . S
C7 C9 1.358 . S
C7 H65 0.930 . S
C8 N5 1.314 . S
C8 C6 1.353 . S
C8 H66 0.930 . S
C9 N5 1.279 . S
C9 C7 1.358 . S
C9 H67 0.930 . S
C10 C13 1.348 . S
C10 C14 1.356 . S
C10 O61 1.325 . S
C11 N12 1.279 . S
C11 C14 1.358 . S
C11 H68 0.930 . S
N12 C11 1.279 . S
N12 C15 1.314 . S
C13 C10 1.348 . S
C13 C15 1.353 . S
C13 H69 0.929 . S
C14 C10 1.356 . S
C14 C11 1.358 . S
C14 H70 0.930 . S
C15 N12 1.314 . S
C15 C13 1.353 . S
C15 H71 0.930 . S
C16 N17 1.314 . S
C16 C21 1.353 . S
C16 H22 0.930 1_455 S
N17 Li0 1.990 . S
N17 C16 1.314 . S
N17 C19 1.279 . S
C18 C19 1.358 . S
C18 C20 1.356 . S
C18 H72 0.930 . S
C19 N17 1.279 . S
C19 C18 1.358 . S
C19 H23 0.930 . S
C20 C18 1.356 . S
C20 C21 1.348 . S
C21 C16 1.353 . S
C21 C20 1.348 . S
C21 H73 0.929 . S
H22 C16 0.930 1_655 S
H23 C19 0.930 . S
C24 N25 1.314 . S
C24 C26 1.353 . S
C24 H30 0.930 . S
N25 Li1 1.990 . S
N25 C24 1.314 . S
N25 C28 1.279 . S
C26 C24 1.353 . S
C26 C29 1.348 . S
C26 H74 0.929 . S
C27 C28 1.358 . S
C27 C29 1.356 . S
C27 H75 0.930 . S
C28 N25 1.279 . S
C28 C27 1.358 . S
C28 H31 0.930 . S
C29 C26 1.348 . S
C29 C27 1.356 . S
H30 C24 0.930 . S
H31 C28 0.930 . S
C32 C34 1.348 . S
C32 C35 1.356 . S
C32 O62 1.325 . S
N33 C36 1.314 . S
N33 C37 1.279 . S
C34 C32 1.348 . S
C34 C36 1.353 . S
C34 H76 0.929 . S
C35 C32 1.356 . S
C35 C37 1.358 . S
C35 H77 0.930 . S
C36 N33 1.314 . S
C36 C34 1.353 . S
C36 H78 0.930 . S
C37 N33 1.279 . S
C37 C35 1.358 . S
C37 H79 0.930 . S
C38 C39 1.348 . S
C38 C40 1.356 . S
C38 O63 1.325 . S
C39 C38 1.348 . S
C39 C41 1.353 . S
C39 H80 0.929 . S
C40 C38 1.356 . S
C40 C42 1.358 . S
C40 H81 0.930 . S
C41 C39 1.353 . S
C41 N43 1.314 . S
C41 H82 0.930 . S
C42 C40 1.358 . S
C42 N43 1.279 . S
C42 H83 0.930 . S
N43 C41 1.314 . S
N43 C42 1.279 . S
C44 C46 1.353 . S
C44 N47 1.314 . S
C44 H50 0.930 1_655 S
C45 N47 1.279 . S
C45 C48 1.358 . S
C45 H51 0.930 . S
C46 C44 1.353 . S
C46 C49 1.348 . S
C46 H84 0.929 . S
N47 Li2 1.990 . S
N47 C44 1.314 . S
N47 C45 1.279 . S
C48 C45 1.358 . S
C48 C49 1.356 . S
C48 H85 0.930 . S
C49 C46 1.348 . S
C49 C48 1.356 . S
H50 C44 0.930 1_455 S
H51 C45 0.930 . S
C52 N53 1.314 . S
C52 C54 1.353 . S
C52 H58 0.930 . S
N53 Li3 1.990 . S
N53 C52 1.314 . S
N53 C56 1.279 . S
C54 C52 1.353 . S
C54 C57 1.348 . S
C54 H86 0.929 . S
C55 C56 1.358 . S
C55 C57 1.356 . S
C55 H87 0.930 . S
C56 N53 1.279 . S
C56 C55 1.358 . S
C56 H59 0.930 . S
C57 C54 1.348 . S
C57 C55 1.356 . S
H58 C52 0.930 . S
H59 C56 0.930 . S
O60 Li0 1.956 . S
O60 Li1 1.970 . S
O60 Li2 1.961 1_455 S
O60 C4 1.325 . S
O61 Li0 1.970 . S
O61 Li1 1.956 . S
O61 Li3 1.961 1_455 S
O61 C10 1.325 . S
O62 Li0 1.961 1_655 S
O62 Li2 1.956 . S
O62 Li3 1.970 . S
O62 C32 1.325 . S
O63 Li1 1.961 1_655 S
O63 Li2 1.970 . S
O63 Li3 1.956 . S
O63 C38 1.325 . S
H64 C6 0.929 . S
H65 C7 0.930 . S
H66 C8 0.930 . S
H67 C9 0.930 . S
H68 C11 0.930 . S
H69 C13 0.929 . S
H70 C14 0.930 . S
H71 C15 0.930 . S
H72 C18 0.930 . S
H73 C21 0.929 . S
H74 C26 0.929 . S
H75 C27 0.930 . S
H76 C34 0.929 . S
H77 C35 0.930 . S
H78 C36 0.930 . S
H79 C37 0.930 . S
H80 C39 0.929 . S
H81 C40 0.930 . S
H82 C41 0.930 . S
H83 C42 0.930 . S
H84 C46 0.929 . S
H85 C48 0.930 . S
H86 C54 0.929 . S
H87 C55 0.930 . S
Li88 N105 1.990 . S
Li88 O148 1.956 1_455 S
Li88 O149 1.970 . S
Li88 O150 1.961 . S
Li89 N113 1.990 . S
Li89 O148 1.970 . S
Li89 O149 1.956 1_655 S
Li89 O151 1.961 . S
Li90 N135 1.990 . S
Li90 O148 1.961 . S
Li90 O150 1.956 1_655 S
Li90 O151 1.970 . S
Li91 N141 1.990 . S
Li91 O149 1.961 . S
Li91 O150 1.970 . S
Li91 O151 1.956 1_455 S
C92 C94 1.348 . S
C92 C95 1.356 . S
C92 O148 1.325 . S
N93 C96 1.314 . S
N93 C97 1.279 . S
C94 C92 1.348 . S
C94 C96 1.353 . S
C94 H152 0.929 . S
C95 C92 1.356 . S
C95 C97 1.358 . S
C95 H153 0.930 . S
C96 N93 1.314 . S
C96 C94 1.353 . S
C96 H154 0.930 . S
C97 N93 1.279 . S
C97 C95 1.358 . S
C97 H155 0.930 . S
C98 C101 1.348 . S
C98 C102 1.356 . S
C98 O149 1.325 . S
C99 N100 1.279 . S
C99 C102 1.358 . S
C99 H156 0.930 . S
N100 C99 1.279 . S
N100 C103 1.314 . S
C101 C98 1.348 . S
C101 C103 1.353 . S
C101 H157 0.929 . S
C102 C98 1.356 . S
C102 C99 1.358 . S
C102 H158 0.930 . S
C103 N100 1.314 . S
C103 C101 1.353 . S
C103 H159 0.930 . S
C104 N105 1.314 . S
C104 C109 1.353 . S
C104 H110 0.930 . S
N105 Li88 1.990 . S
N105 C104 1.314 . S
N105 C107 1.279 . S
C106 C107 1.358 . S
C106 C108 1.356 . S
C106 H160 0.930 . S
C107 N105 1.279 . S
C107 C106 1.358 . S
C107 H111 0.930 1_455 S
C108 C106 1.356 . S
C108 C109 1.348 . S
C109 C104 1.353 . S
C109 C108 1.348 . S
C109 H161 0.929 . S
H110 C104 0.930 . S
H111 C107 0.930 1_655 S
C112 N113 1.314 . S
C112 C114 1.353 . S
C112 H118 0.930 . S
N113 Li89 1.990 . S
N113 C112 1.314 . S
N113 C116 1.279 . S
C114 C112 1.353 . S
C114 C117 1.348 . S
C114 H162 0.929 . S
C115 C116 1.358 . S
C115 C117 1.356 . S
C115 H163 0.930 . S
C116 N113 1.279 . S
C116 C115 1.358 . S
C116 H119 0.930 . S
C117 C114 1.348 . S
C117 C115 1.356 . S
H118 C112 0.930 . S
H119 C116 0.930 . S
C120 C122 1.348 . S
C120 C123 1.356 . S
C120 O150 1.325 . S
N121 C124 1.314 . S
N121 C125 1.279 . S
C122 C120 1.348 . S
C122 C124 1.353 . S
C122 H164 0.929 . S
C123 C120 1.356 . S
C123 C125 1.358 . S
C123 H165 0.930 . S
C124 N121 1.314 . S
C124 C122 1.353 . S
C124 H166 0.930 . S
C125 N121 1.279 . S
C125 C123 1.358 . S
C125 H167 0.930 . S
C126 C127 1.348 . S
C126 C128 1.356 . S
C126 O151 1.325 . S
C127 C126 1.348 . S
C127 C129 1.353 . S
C127 H168 0.929 . S
C128 C126 1.356 . S
C128 C130 1.358 . S
C128 H169 0.930 . S
C129 C127 1.353 . S
C129 N131 1.314 . S
C129 H170 0.930 . S
C130 C128 1.358 . S
C130 N131 1.279 . S
C130 H171 0.930 . S
N131 C129 1.314 . S
N131 C130 1.279 . S
C132 C134 1.353 . S
C132 N135 1.314 . S
C132 H138 0.930 . S
C133 N135 1.279 . S
C133 C136 1.358 . S
C133 H139 0.930 1_655 S
C134 C132 1.353 . S
C134 C137 1.348 . S
C134 H172 0.929 . S
N135 Li90 1.990 . S
N135 C132 1.314 . S
N135 C133 1.279 . S
C136 C133 1.358 . S
C136 C137 1.356 . S
C136 H173 0.930 . S
C137 C134 1.348 . S
C137 C136 1.356 . S
H138 C132 0.930 . S
H139 C133 0.930 1_455 S
C140 N141 1.314 . S
C140 C142 1.353 . S
C140 H146 0.930 . S
N141 Li91 1.990 . S
N141 C140 1.314 . S
N141 C144 1.279 . S
C142 C140 1.353 . S
C142 C145 1.348 . S
C142 H174 0.929 . S
C143 C144 1.358 . S
C143 C145 1.356 . S
C143 H175 0.930 . S
C144 N141 1.279 . S
C144 C143 1.358 . S
C144 H147 0.930 . S
C145 C142 1.348 . S
C145 C143 1.356 . S
H146 C140 0.930 . S
H147 C144 0.930 . S
O148 Li88 1.956 1_655 S
O148 Li89 1.970 . S
O148 Li90 1.961 . S
O148 C92 1.325 . S
O149 Li88 1.970 . S
O149 Li89 1.956 1_455 S
O149 Li91 1.961 . S
O149 C98 1.325 . S
O150 Li88 1.961 . S
O150 Li90 1.956 1_455 S
O150 Li91 1.970 . S
O150 C120 1.325 . S
O151 Li89 1.961 . S
O151 Li90 1.970 . S
O151 Li91 1.956 1_655 S
O151 C126 1.325 . S
H152 C94 0.929 . S
H153 C95 0.930 . S
H154 C96 0.930 . S
H155 C97 0.930 . S
H156 C99 0.930 . S
H157 C101 0.929 . S
H158 C102 0.930 . S
H159 C103 0.930 . S
H160 C106 0.930 . S
H161 C109 0.929 . S
H162 C114 0.929 . S
H163 C115 0.930 . S
H164 C122 0.929 . S
H165 C123 0.930 . S
H166 C124 0.930 . S
H167 C125 0.930 . S
H168 C127 0.929 . S
H169 C128 0.930 . S
H170 C129 0.930 . S
H171 C130 0.930 . S
H172 C134 0.929 . S
H173 C136 0.930 . S
H174 C142 0.929 . S
H175 C143 0.930 . S
Li176 N193 1.990 . S
Li176 O236 1.956 . S
Li176 O237 1.970 . S
Li176 O238 1.961 . S
Li177 N201 1.990 . S
Li177 O236 1.970 . S
Li177 O237 1.956 . S
Li177 O239 1.961 . S
Li178 N223 1.990 . S
Li178 O236 1.961 . S
Li178 O238 1.956 . S
Li178 O239 1.970 . S
Li179 N229 1.990 . S
Li179 O237 1.961 . S
Li179 O238 1.970 . S
Li179 O239 1.956 . S
C180 C182 1.348 . S
C180 C183 1.356 . S
C180 O236 1.325 . S
N181 C184 1.314 . S
N181 C185 1.279 . S
C182 C180 1.348 . S
C182 C184 1.353 . S
C182 H240 0.929 . S
C183 C180 1.356 . S
C183 C185 1.358 . S
C183 H241 0.930 . S
C184 N181 1.314 . S
C184 C182 1.353 . S
C184 H242 0.930 . S
C185 N181 1.279 . S
C185 C183 1.358 . S
C185 H243 0.930 . S
C186 C189 1.348 . S
C186 C190 1.356 . S
C186 O237 1.325 . S
C187 N188 1.279 . S
C187 C190 1.358 . S
C187 H244 0.930 . S
N188 C187 1.279 . S
N188 C191 1.314 . S
C189 C186 1.348 . S
C189 C191 1.353 . S
C189 H245 0.929 . S
C190 C186 1.356 . S
C190 C187 1.358 . S
C190 H246 0.930 . S
C191 N188 1.314 . S
C191 C189 1.353 . S
C191 H247 0.930 . S
C192 N193 1.314 . S
C192 C197 1.353 . S
C192 H198 0.930 . S
N193 Li176 1.990 . S
N193 C192 1.314 . S
N193 C195 1.279 . S
C194 C195 1.358 . S
C194 C196 1.356 . S
C194 H248 0.930 . S
C195 N193 1.279 . S
C195 C194 1.358 . S
C195 H199 0.930 . S
C196 C194 1.356 . S
C196 C197 1.348 . S
C197 C192 1.353 . S
C197 C196 1.348 . S
C197 H249 0.929 . S
H198 C192 0.930 . S
H199 C195 0.930 . S
C200 N201 1.314 . S
C200 C202 1.353 . S
C200 H206 0.930 . S
N201 Li177 1.990 . S
N201 C200 1.314 . S
N201 C204 1.279 . S
C202 C200 1.353 . S
C202 C205 1.348 . S
C202 H250 0.929 . S
C203 C204 1.358 . S
C203 C205 1.356 . S
C203 H251 0.930 . S
C204 N201 1.279 . S
C204 C203 1.358 . S
C204 H207 0.930 . S
C205 C202 1.348 . S
C205 C203 1.356 . S
H206 C200 0.930 . S
H207 C204 0.930 . S
C208 C210 1.348 . S
C208 C211 1.356 . S
C208 O238 1.325 . S
N209 C212 1.314 . S
N209 C213 1.279 . S
C210 C208 1.348 . S
C210 C212 1.353 . S
C210 H252 0.929 . S
C211 C208 1.356 . S
C211 C213 1.358 . S
C211 H253 0.930 . S
C212 N209 1.314 . S
C212 C210 1.353 . S
C212 H254 0.930 . S
C213 N209 1.279 . S
C213 C211 1.358 . S
C213 H255 0.930 . S
C214 C215 1.348 . S
C214 C216 1.356 . S
C214 O239 1.325 . S
C215 C214 1.348 . S
C215 C217 1.353 . S
C215 H256 0.929 . S
C216 C214 1.356 . S
C216 C218 1.358 . S
C216 H257 0.930 . S
C217 C215 1.353 . S
C217 N219 1.314 . S
C217 H258 0.930 . S
C218 C216 1.358 . S
C218 N219 1.279 . S
C218 H259 0.930 . S
N219 C217 1.314 . S
N219 C218 1.279 . S
C220 C222 1.353 . S
C220 N223 1.314 . S
C220 H226 0.930 . S
C221 N223 1.279 . S
C221 C224 1.358 . S
C221 H227 0.930 . S
C222 C220 1.353 . S
C222 C225 1.348 . S
C222 H260 0.929 . S
N223 Li178 1.990 . S
N223 C220 1.314 . S
N223 C221 1.279 . S
C224 C221 1.358 . S
C224 C225 1.356 . S
C224 H261 0.930 . S
C225 C222 1.348 . S
C225 C224 1.356 . S
H226 C220 0.930 . S
H227 C221 0.930 . S
C228 N229 1.314 . S
C228 C230 1.353 . S
C228 H234 0.930 . S
N229 Li179 1.990 . S
N229 C228 1.314 . S
N229 C232 1.279 . S
C230 C228 1.353 . S
C230 C233 1.348 . S
C230 H262 0.929 . S
C231 C232 1.358 . S
C231 C233 1.356 . S
C231 H263 0.930 . S
C232 N229 1.279 . S
C232 C231 1.358 . S
C232 H235 0.930 . S
C233 C230 1.348 . S
C233 C231 1.356 . S
H234 C228 0.930 . S
H235 C232 0.930 . S
O236 Li176 1.956 . S
O236 Li177 1.970 . S
O236 Li178 1.961 . S
O236 C180 1.325 . S
O237 Li176 1.970 . S
O237 Li177 1.956 . S
O237 Li179 1.961 . S
O237 C186 1.325 . S
O238 Li176 1.961 . S
O238 Li178 1.956 . S
O238 Li179 1.970 . S
O238 C208 1.325 . S
O239 Li177 1.961 . S
O239 Li178 1.970 . S
O239 Li179 1.956 . S
O239 C214 1.325 . S
H240 C182 0.929 . S
H241 C183 0.930 . S
H242 C184 0.930 . S
H243 C185 0.930 . S
H244 C187 0.930 . S
H245 C189 0.929 . S
H246 C190 0.930 . S
H247 C191 0.930 . S
H248 C194 0.930 . S
H249 C197 0.929 . S
H250 C202 0.929 . S
H251 C203 0.930 . S
H252 C210 0.929 . S
H253 C211 0.930 . S
H254 C212 0.930 . S
H255 C213 0.930 . S
H256 C215 0.929 . S
H257 C216 0.930 . S
H258 C217 0.930 . S
H259 C218 0.930 . S
H260 C222 0.929 . S
H261 C224 0.930 . S
H262 C230 0.929 . S
H263 C231 0.930 . S
Li264 N281 1.990 . S
Li264 O324 1.956 . S
Li264 O325 1.970 . S
Li264 O326 1.961 . S
Li265 N289 1.990 . S
Li265 O324 1.970 . S
Li265 O325 1.956 . S
Li265 O327 1.961 . S
Li266 N311 1.990 . S
Li266 O324 1.961 . S
Li266 O326 1.956 . S
Li266 O327 1.970 . S
Li267 N317 1.990 . S
Li267 O325 1.961 . S
Li267 O326 1.970 . S
Li267 O327 1.956 . S
C268 C270 1.348 . S
C268 C271 1.356 . S
C268 O324 1.325 . S
N269 C272 1.314 . S
N269 C273 1.279 . S
C270 C268 1.348 . S
C270 C272 1.353 . S
C270 H328 0.929 . S
C271 C268 1.356 . S
C271 C273 1.358 . S
C271 H329 0.930 . S
C272 N269 1.314 . S
C272 C270 1.353 . S
C272 H330 0.930 . S
C273 N269 1.279 . S
C273 C271 1.358 . S
C273 H331 0.930 . S
C274 C277 1.348 . S
C274 C278 1.356 . S
C274 O325 1.325 . S
C275 N276 1.279 . S
C275 C278 1.358 . S
C275 H332 0.930 . S
N276 C275 1.279 . S
N276 C279 1.314 . S
C277 C274 1.348 . S
C277 C279 1.353 . S
C277 H333 0.929 . S
C278 C274 1.356 . S
C278 C275 1.358 . S
C278 H334 0.930 . S
C279 N276 1.314 . S
C279 C277 1.353 . S
C279 H335 0.930 . S
C280 N281 1.314 . S
C280 C285 1.353 . S
C280 H286 0.930 . S
N281 Li264 1.990 . S
N281 C280 1.314 . S
N281 C283 1.279 . S
C282 C283 1.358 . S
C282 C284 1.356 . S
C282 H336 0.930 . S
C283 N281 1.279 . S
C283 C282 1.358 . S
C283 H287 0.930 . S
C284 C282 1.356 . S
C284 C285 1.348 . S
C285 C280 1.353 . S
C285 C284 1.348 . S
C285 H337 0.929 . S
H286 C280 0.930 . S
H287 C283 0.930 . S
C288 N289 1.314 . S
C288 C290 1.353 . S
C288 H294 0.930 . S
N289 Li265 1.990 . S
N289 C288 1.314 . S
N289 C292 1.279 . S
C290 C288 1.353 . S
C290 C293 1.348 . S
C290 H338 0.929 . S
C291 C292 1.358 . S
C291 C293 1.356 . S
C291 H339 0.930 . S
C292 N289 1.279 . S
C292 C291 1.358 . S
C292 H295 0.930 . S
C293 C290 1.348 . S
C293 C291 1.356 . S
H294 C288 0.930 . S
H295 C292 0.930 . S
C296 C298 1.348 . S
C296 C299 1.356 . S
C296 O326 1.325 . S
N297 C300 1.314 . S
N297 C301 1.279 . S
C298 C296 1.348 . S
C298 C300 1.353 . S
C298 H340 0.929 . S
C299 C296 1.356 . S
C299 C301 1.358 . S
C299 H341 0.930 . S
C300 N297 1.314 . S
C300 C298 1.353 . S
C300 H342 0.930 . S
C301 N297 1.279 . S
C301 C299 1.358 . S
C301 H343 0.930 . S
C302 C303 1.348 . S
C302 C304 1.356 . S
C302 O327 1.325 . S
C303 C302 1.348 . S
C303 C305 1.353 . S
C303 H344 0.929 . S
C304 C302 1.356 . S
C304 C306 1.358 . S
C304 H345 0.930 . S
C305 C303 1.353 . S
C305 N307 1.314 . S
C305 H346 0.930 . S
C306 C304 1.358 . S
C306 N307 1.279 . S
C306 H347 0.930 . S
N307 C305 1.314 . S
N307 C306 1.279 . S
C308 C310 1.353 . S
C308 N311 1.314 . S
C308 H314 0.930 . S
C309 N311 1.279 . S
C309 C312 1.358 . S
C309 H315 0.930 . S
C310 C308 1.353 . S
C310 C313 1.348 . S
C310 H348 0.929 . S
N311 Li266 1.990 . S
N311 C308 1.314 . S
N311 C309 1.279 . S
C312 C309 1.358 . S
C312 C313 1.356 . S
C312 H349 0.930 . S
C313 C310 1.348 . S
C313 C312 1.356 . S
H314 C308 0.930 . S
H315 C309 0.930 . S
C316 N317 1.314 . S
C316 C318 1.353 . S
C316 H322 0.930 . S
N317 Li267 1.990 . S
N317 C316 1.314 . S
N317 C320 1.279 . S
C318 C316 1.353 . S
C318 C321 1.348 . S
C318 H350 0.929 . S
C319 C320 1.358 . S
C319 C321 1.356 . S
C319 H351 0.930 . S
C320 N317 1.279 . S
C320 C319 1.358 . S
C320 H323 0.930 . S
C321 C318 1.348 . S
C321 C319 1.356 . S
H322 C316 0.930 . S
H323 C320 0.930 . S
O324 Li264 1.956 . S
O324 Li265 1.970 . S
O324 Li266 1.961 . S
O324 C268 1.325 . S
O325 Li264 1.970 . S
O325 Li265 1.956 . S
O325 Li267 1.961 . S
O325 C274 1.325 . S
O326 Li264 1.961 . S
O326 Li266 1.956 . S
O326 Li267 1.970 . S
O326 C296 1.325 . S
O327 Li265 1.961 . S
O327 Li266 1.970 . S
O327 Li267 1.956 . S
O327 C302 1.325 . S
H328 C270 0.929 . S
H329 C271 0.930 . S
H330 C272 0.930 . S
H331 C273 0.930 . S
H332 C275 0.930 . S
H333 C277 0.929 . S
H334 C278 0.930 . S
H335 C279 0.930 . S
H336 C282 0.930 . S
H337 C285 0.929 . S
H338 C290 0.929 . S
H339 C291 0.930 . S
H340 C298 0.929 . S
H341 C299 0.930 . S
H342 C300 0.930 . S
H343 C301 0.930 . S
H344 C303 0.929 . S
H345 C304 0.930 . S
H346 C305 0.930 . S
H347 C306 0.930 . S
H348 C310 0.929 . S
H349 C312 0.930 . S
H350 C318 0.929 . S
H351 C319 0.930 . S
Li352 N369 1.990 . S
Li352 O412 1.956 . S
Li352 O413 1.970 . S
Li352 O414 1.961 1_455 S
Li353 N377 1.990 . S
Li353 O412 1.970 . S
Li353 O413 1.956 . S
Li353 O415 1.961 1_455 S
Li354 N399 1.990 . S
Li354 O412 1.961 1_655 S
Li354 O414 1.956 . S
Li354 O415 1.970 . S
Li355 N405 1.990 . S
Li355 O413 1.961 1_655 S
Li355 O414 1.970 . S
Li355 O415 1.956 . S
C356 C358 1.348 . S
C356 C359 1.356 . S
C356 O412 1.325 . S
N357 C360 1.314 . S
N357 C361 1.279 . S
C358 C356 1.348 . S
C358 C360 1.353 . S
C358 H416 0.929 . S
C359 C356 1.356 . S
C359 C361 1.358 . S
C359 H417 0.930 . S
C360 N357 1.314 . S
C360 C358 1.353 . S
C360 H418 0.930 . S
C361 N357 1.279 . S
C361 C359 1.358 . S
C361 H419 0.930 . S
C362 C365 1.348 . S
C362 C366 1.356 . S
C362 O413 1.325 . S
C363 N364 1.279 . S
C363 C366 1.358 . S
C363 H420 0.930 . S
N364 C363 1.279 . S
N364 C367 1.314 . S
C365 C362 1.348 . S
C365 C367 1.353 . S
C365 H421 0.929 . S
C366 C362 1.356 . S
C366 C363 1.358 . S
C366 H422 0.930 . S
C367 N364 1.314 . S
C367 C365 1.353 . S
C367 H423 0.930 . S
C368 N369 1.314 . S
C368 C373 1.353 . S
C368 H374 0.930 1_455 S
N369 Li352 1.990 . S
N369 C368 1.314 . S
N369 C371 1.279 . S
C370 C371 1.358 . S
C370 C372 1.356 . S
C370 H424 0.930 . S
C371 N369 1.279 . S
C371 C370 1.358 . S
C371 H375 0.930 . S
C372 C370 1.356 . S
C372 C373 1.348 . S
C373 C368 1.353 . S
C373 C372 1.348 . S
C373 H425 0.929 . S
H374 C368 0.930 1_655 S
H375 C371 0.930 . S
C376 N377 1.314 . S
C376 C378 1.353 . S
C376 H382 0.930 . S
N377 Li353 1.990 . S
N377 C376 1.314 . S
N377 C380 1.279 . S
C378 C376 1.353 . S
C378 C381 1.348 . S
C378 H426 0.929 . S
C379 C380 1.358 . S
C379 C381 1.356 . S
C379 H427 0.930 . S
C380 N377 1.279 . S
C380 C379 1.358 . S
C380 H383 0.930 . S
C381 C378 1.348 . S
C381 C379 1.356 . S
H382 C376 0.930 . S
H383 C380 0.930 . S
C384 C386 1.348 . S
C384 C387 1.356 . S
C384 O414 1.325 . S
N385 C388 1.314 . S
N385 C389 1.279 . S
C386 C384 1.348 . S
C386 C388 1.353 . S
C386 H428 0.929 . S
C387 C384 1.356 . S
C387 C389 1.358 . S
C387 H429 0.930 . S
C388 N385 1.314 . S
C388 C386 1.353 . S
C388 H430 0.930 . S
C389 N385 1.279 . S
C389 C387 1.358 . S
C389 H431 0.930 . S
C390 C391 1.348 . S
C390 C392 1.356 . S
C390 O415 1.325 . S
C391 C390 1.348 . S
C391 C393 1.353 . S
C391 H432 0.929 . S
C392 C390 1.356 . S
C392 C394 1.358 . S
C392 H433 0.930 . S
C393 C391 1.353 . S
C393 N395 1.314 . S
C393 H434 0.930 . S
C394 C392 1.358 . S
C394 N395 1.279 . S
C394 H435 0.930 . S
N395 C393 1.314 . S
N395 C394 1.279 . S
C396 C398 1.353 . S
C396 N399 1.314 . S
C396 H402 0.930 1_655 S
C397 N399 1.279 . S
C397 C400 1.358 . S
C397 H403 0.930 . S
C398 C396 1.353 . S
C398 C401 1.348 . S
C398 H436 0.929 . S
N399 Li354 1.990 . S
N399 C396 1.314 . S
N399 C397 1.279 . S
C400 C397 1.358 . S
C400 C401 1.356 . S
C400 H437 0.930 . S
C401 C398 1.348 . S
C401 C400 1.356 . S
H402 C396 0.930 1_455 S
H403 C397 0.930 . S
C404 N405 1.314 . S
C404 C406 1.353 . S
C404 H410 0.930 . S
N405 Li355 1.990 . S
N405 C404 1.314 . S
N405 C408 1.279 . S
C406 C404 1.353 . S
C406 C409 1.348 . S
C406 H438 0.929 . S
C407 C408 1.358 . S
C407 C409 1.356 . S
C407 H439 0.930 . S
C408 N405 1.279 . S
C408 C407 1.358 . S
C408 H411 0.930 . S
C409 C406 1.348 . S
C409 C407 1.356 . S
H410 C404 0.930 . S
H411 C408 0.930 . S
O412 Li352 1.956 . S
O412 Li353 1.970 . S
O412 Li354 1.961 1_455 S
O412 C356 1.325 . S
O413 Li352 1.970 . S
O413 Li353 1.956 . S
O413 Li355 1.961 1_455 S
O413 C362 1.325 . S
O414 Li352 1.961 1_655 S
O414 Li354 1.956 . S
O414 Li355 1.970 . S
O414 C384 1.325 . S
O415 Li353 1.961 1_655 S
O415 Li354 1.970 . S
O415 Li355 1.956 . S
O415 C390 1.325 . S
H416 C358 0.929 . S
H417 C359 0.930 . S
H418 C360 0.930 . S
H419 C361 0.930 . S
H420 C363 0.930 . S
H421 C365 0.929 . S
H422 C366 0.930 . S
H423 C367 0.930 . S
H424 C370 0.930 . S
H425 C373 0.929 . S
H426 C378 0.929 . S
H427 C379 0.930 . S
H428 C386 0.929 . S
H429 C387 0.930 . S
H430 C388 0.930 . S
H431 C389 0.930 . S
H432 C391 0.929 . S
H433 C392 0.930 . S
H434 C393 0.930 . S
H435 C394 0.930 . S
H436 C398 0.929 . S
H437 C400 0.930 . S
H438 C406 0.929 . S
H439 C407 0.930 . S
Li440 N457 1.990 . S
Li440 O500 1.956 . S
Li440 O501 1.970 . S
Li440 O502 1.961 . S
Li441 N465 1.990 . S
Li441 O500 1.970 . S
Li441 O501 1.956 . S
Li441 O503 1.961 . S
Li442 N487 1.990 . S
Li442 O500 1.961 . S
Li442 O502 1.956 . S
Li442 O503 1.970 . S
Li443 N493 1.990 . S
Li443 O501 1.961 . S
Li443 O502 1.970 . S
Li443 O503 1.956 . S
C444 C446 1.348 . S
C444 C447 1.356 . S
C444 O500 1.325 . S
N445 C448 1.314 . S
N445 C449 1.279 . S
C446 C444 1.348 . S
C446 C448 1.353 . S
C446 H504 0.929 . S
C447 C444 1.356 . S
C447 C449 1.358 . S
C447 H505 0.930 . S
C448 N445 1.314 . S
C448 C446 1.353 . S
C448 H506 0.930 . S
C449 N445 1.279 . S
C449 C447 1.358 . S
C449 H507 0.930 . S
C450 C453 1.348 . S
C450 C454 1.356 . S
C450 O501 1.325 . S
C451 N452 1.279 . S
C451 C454 1.358 . S
C451 H508 0.930 . S
N452 C451 1.279 . S
N452 C455 1.314 . S
C453 C450 1.348 . S
C453 C455 1.353 . S
C453 H509 0.929 . S
C454 C450 1.356 . S
C454 C451 1.358 . S
C454 H510 0.930 . S
C455 N452 1.314 . S
C455 C453 1.353 . S
C455 H511 0.930 . S
C456 N457 1.314 . S
C456 C461 1.353 . S
C456 H462 0.930 . S
N457 Li440 1.990 . S
N457 C456 1.314 . S
N457 C459 1.279 . S
C458 C459 1.358 . S
C458 C460 1.356 . S
C458 H512 0.930 . S
C459 N457 1.279 . S
C459 C458 1.358 . S
C459 H463 0.930 . S
C460 C458 1.356 . S
C460 C461 1.348 . S
C461 C456 1.353 . S
C461 C460 1.348 . S
C461 H513 0.929 . S
H462 C456 0.930 . S
H463 C459 0.930 . S
C464 N465 1.314 . S
C464 C466 1.353 . S
C464 H470 0.930 . S
N465 Li441 1.990 . S
N465 C464 1.314 . S
N465 C468 1.279 . S
C466 C464 1.353 . S
C466 C469 1.348 . S
C466 H514 0.929 . S
C467 C468 1.358 . S
C467 C469 1.356 . S
C467 H515 0.930 . S
C468 N465 1.279 . S
C468 C467 1.358 . S
C468 H471 0.930 . S
C469 C466 1.348 . S
C469 C467 1.356 . S
H470 C464 0.930 . S
H471 C468 0.930 . S
C472 C474 1.348 . S
C472 C475 1.356 . S
C472 O502 1.325 . S
N473 C476 1.314 . S
N473 C477 1.279 . S
C474 C472 1.348 . S
C474 C476 1.353 . S
C474 H516 0.929 . S
C475 C472 1.356 . S
C475 C477 1.358 . S
C475 H517 0.930 . S
C476 N473 1.314 . S
C476 C474 1.353 . S
C476 H518 0.930 . S
C477 N473 1.279 . S
C477 C475 1.358 . S
C477 H519 0.930 . S
C478 C479 1.348 . S
C478 C480 1.356 . S
C478 O503 1.325 . S
C479 C478 1.348 . S
C479 C481 1.353 . S
C479 H520 0.929 . S
C480 C478 1.356 . S
C480 C482 1.358 . S
C480 H521 0.930 . S
C481 C479 1.353 . S
C481 N483 1.314 . S
C481 H522 0.930 . S
C482 C480 1.358 . S
C482 N483 1.279 . S
C482 H523 0.930 . S
N483 C481 1.314 . S
N483 C482 1.279 . S
C484 C486 1.353 . S
C484 N487 1.314 . S
C484 H490 0.930 . S
C485 N487 1.279 . S
C485 C488 1.358 . S
C485 H491 0.930 . S
C486 C484 1.353 . S
C486 C489 1.348 . S
C486 H524 0.929 . S
N487 Li442 1.990 . S
N487 C484 1.314 . S
N487 C485 1.279 . S
C488 C485 1.358 . S
C488 C489 1.356 . S
C488 H525 0.930 . S
C489 C486 1.348 . S
C489 C488 1.356 . S
H490 C484 0.930 . S
H491 C485 0.930 . S
C492 N493 1.314 . S
C492 C494 1.353 . S
C492 H498 0.930 . S
N493 Li443 1.990 . S
N493 C492 1.314 . S
N493 C496 1.279 . S
C494 C492 1.353 . S
C494 C497 1.348 . S
C494 H526 0.929 . S
C495 C496 1.358 . S
C495 C497 1.356 . S
C495 H527 0.930 . S
C496 N493 1.279 . S
C496 C495 1.358 . S
C496 H499 0.930 . S
C497 C494 1.348 . S
C497 C495 1.356 . S
H498 C492 0.930 . S
H499 C496 0.930 . S
O500 Li440 1.956 . S
O500 Li441 1.970 . S
O500 Li442 1.961 . S
O500 C444 1.325 . S
O501 Li440 1.970 . S
O501 Li441 1.956 . S
O501 Li443 1.961 . S
O501 C450 1.325 . S
O502 Li440 1.961 . S
O502 Li442 1.956 . S
O502 Li443 1.970 . S
O502 C472 1.325 . S
O503 Li441 1.961 . S
O503 Li442 1.970 . S
O503 Li443 1.956 . S
O503 C478 1.325 . S
H504 C446 0.929 . S
H505 C447 0.930 . S
H506 C448 0.930 . S
H507 C449 0.930 . S
H508 C451 0.930 . S
H509 C453 0.929 . S
H510 C454 0.930 . S
H511 C455 0.930 . S
H512 C458 0.930 . S
H513 C461 0.929 . S
H514 C466 0.929 . S
H515 C467 0.930 . S
H516 C474 0.929 . S
H517 C475 0.930 . S
H518 C476 0.930 . S
H519 C477 0.930 . S
H520 C479 0.929 . S
H521 C480 0.930 . S
H522 C481 0.930 . S
H523 C482 0.930 . S
H524 C486 0.929 . S
H525 C488 0.930 . S
H526 C494 0.929 . S
H527 C495 0.930 . S
Li528 N545 1.990 . S
Li528 O588 1.956 . S
Li528 O589 1.970 . S
Li528 O590 1.961 . S
Li529 N553 1.990 . S
Li529 O588 1.970 . S
Li529 O589 1.956 . S
Li529 O591 1.961 . S
Li530 N575 1.990 . S
Li530 O588 1.961 . S
Li530 O590 1.956 . S
Li530 O591 1.970 . S
Li531 N581 1.990 . S
Li531 O589 1.961 . S
Li531 O590 1.970 . S
Li531 O591 1.956 . S
C532 C534 1.348 . S
C532 C535 1.356 . S
C532 O588 1.325 . S
N533 C536 1.314 . S
N533 C537 1.279 . S
C534 C532 1.348 . S
C534 C536 1.353 . S
C534 H592 0.929 . S
C535 C532 1.356 . S
C535 C537 1.358 . S
C535 H593 0.930 . S
C536 N533 1.314 . S
C536 C534 1.353 . S
C536 H594 0.930 . S
C537 N533 1.279 . S
C537 C535 1.358 . S
C537 H595 0.930 . S
C538 C541 1.348 . S
C538 C542 1.356 . S
C538 O589 1.325 . S
C539 N540 1.279 . S
C539 C542 1.358 . S
C539 H596 0.930 . S
N540 C539 1.279 . S
N540 C543 1.314 . S
C541 C538 1.348 . S
C541 C543 1.353 . S
C541 H597 0.929 . S
C542 C538 1.356 . S
C542 C539 1.358 . S
C542 H598 0.930 . S
C543 N540 1.314 . S
C543 C541 1.353 . S
C543 H599 0.930 . S
C544 N545 1.314 . S
C544 C549 1.353 . S
C544 H550 0.930 . S
N545 Li528 1.990 . S
N545 C544 1.314 . S
N545 C547 1.279 . S
C546 C547 1.358 . S
C546 C548 1.356 . S
C546 H600 0.930 . S
C547 N545 1.279 . S
C547 C546 1.358 . S
C547 H551 0.930 . S
C548 C546 1.356 . S
C548 C549 1.348 . S
C549 C544 1.353 . S
C549 C548 1.348 . S
C549 H601 0.929 . S
H550 C544 0.930 . S
H551 C547 0.930 . S
C552 N553 1.314 . S
C552 C554 1.353 . S
C552 H558 0.930 . S
N553 Li529 1.990 . S
N553 C552 1.314 . S
N553 C556 1.279 . S
C554 C552 1.353 . S
C554 C557 1.348 . S
C554 H602 0.929 . S
C555 C556 1.358 . S
C555 C557 1.356 . S
C555 H603 0.930 . S
C556 N553 1.279 . S
C556 C555 1.358 . S
C556 H559 0.930 . S
C557 C554 1.348 . S
C557 C555 1.356 . S
H558 C552 0.930 . S
H559 C556 0.930 . S
C560 C562 1.348 . S
C560 C563 1.356 . S
C560 O590 1.325 . S
N561 C564 1.314 . S
N561 C565 1.279 . S
C562 C560 1.348 . S
C562 C564 1.353 . S
C562 H604 0.929 . S
C563 C560 1.356 . S
C563 C565 1.358 . S
C563 H605 0.930 . S
C564 N561 1.314 . S
C564 C562 1.353 . S
C564 H606 0.930 . S
C565 N561 1.279 . S
C565 C563 1.358 . S
C565 H607 0.930 . S
C566 C567 1.348 . S
C566 C568 1.356 . S
C566 O591 1.325 . S
C567 C566 1.348 . S
C567 C569 1.353 . S
C567 H608 0.929 . S
C568 C566 1.356 . S
C568 C570 1.358 . S
C568 H609 0.930 . S
C569 C567 1.353 . S
C569 N571 1.314 . S
C569 H610 0.930 . S
C570 C568 1.358 . S
C570 N571 1.279 . S
C570 H611 0.930 . S
N571 C569 1.314 . S
N571 C570 1.279 . S
C572 C574 1.353 . S
C572 N575 1.314 . S
C572 H578 0.930 . S
C573 N575 1.279 . S
C573 C576 1.358 . S
C573 H579 0.930 . S
C574 C572 1.353 . S
C574 C577 1.348 . S
C574 H612 0.929 . S
N575 Li530 1.990 . S
N575 C572 1.314 . S
N575 C573 1.279 . S
C576 C573 1.358 . S
C576 C577 1.356 . S
C576 H613 0.930 . S
C577 C574 1.348 . S
C577 C576 1.356 . S
H578 C572 0.930 . S
H579 C573 0.930 . S
C580 N581 1.314 . S
C580 C582 1.353 . S
C580 H586 0.930 . S
N581 Li531 1.990 . S
N581 C580 1.314 . S
N581 C584 1.279 . S
C582 C580 1.353 . S
C582 C585 1.348 . S
C582 H614 0.929 . S
C583 C584 1.358 . S
C583 C585 1.356 . S
C583 H615 0.930 . S
C584 N581 1.279 . S
C584 C583 1.358 . S
C584 H587 0.930 . S
C585 C582 1.348 . S
C585 C583 1.356 . S
H586 C580 0.930 . S
H587 C584 0.930 . S
O588 Li528 1.956 . S
O588 Li529 1.970 . S
O588 Li530 1.961 . S
O588 C532 1.325 . S
O589 Li528 1.970 . S
O589 Li529 1.956 . S
O589 Li531 1.961 . S
O589 C538 1.325 . S
O590 Li528 1.961 . S
O590 Li530 1.956 . S
O590 Li531 1.970 . S
O590 C560 1.325 . S
O591 Li529 1.961 . S
O591 Li530 1.970 . S
O591 Li531 1.956 . S
O591 C566 1.325 . S
H592 C534 0.929 . S
H593 C535 0.930 . S
H594 C536 0.930 . S
H595 C537 0.930 . S
H596 C539 0.930 . S
H597 C541 0.929 . S
H598 C542 0.930 . S
H599 C543 0.930 . S
H600 C546 0.930 . S
H601 C549 0.929 . S
H602 C554 0.929 . S
H603 C555 0.930 . S
H604 C562 0.929 . S
H605 C563 0.930 . S
H606 C564 0.930 . S
H607 C565 0.930 . S
H608 C567 0.929 . S
H609 C568 0.930 . S
H610 C569 0.930 . S
H611 C570 0.930 . S
H612 C574 0.929 . S
H613 C576 0.930 . S
H614 C582 0.929 . S
H615 C583 0.930 . S
Li616 N633 1.990 . S
Li616 O676 1.956 1_655 S
Li616 O677 1.970 . S
Li616 O678 1.961 . S
Li617 N641 1.990 . S
Li617 O676 1.970 . S
Li617 O677 1.956 1_455 S
Li617 O679 1.961 . S
Li618 N663 1.990 . S
Li618 O676 1.961 . S
Li618 O678 1.956 1_455 S
Li618 O679 1.970 . S
Li619 N669 1.990 . S
Li619 O677 1.961 . S
Li619 O678 1.970 . S
Li619 O679 1.956 1_655 S
C620 C622 1.348 . S
C620 C623 1.356 . S
C620 O676 1.325 . S
N621 C624 1.314 . S
N621 C625 1.279 . S
C622 C620 1.348 . S
C622 C624 1.353 . S
C622 H680 0.929 . S
C623 C620 1.356 . S
C623 C625 1.358 . S
C623 H681 0.930 . S
C624 N621 1.314 . S
C624 C622 1.353 . S
C624 H682 0.930 . S
C625 N621 1.279 . S
C625 C623 1.358 . S
C625 H683 0.930 . S
C626 C629 1.348 . S
C626 C630 1.356 . S
C626 O677 1.325 . S
C627 N628 1.279 . S
C627 C630 1.358 . S
C627 H684 0.930 . S
N628 C627 1.279 . S
N628 C631 1.314 . S
C629 C626 1.348 . S
C629 C631 1.353 . S
C629 H685 0.929 . S
C630 C626 1.356 . S
C630 C627 1.358 . S
C630 H686 0.930 . S
C631 N628 1.314 . S
C631 C629 1.353 . S
C631 H687 0.930 . S
C632 N633 1.314 . S
C632 C637 1.353 . S
C632 H638 0.930 . S
N633 Li616 1.990 . S
N633 C632 1.314 . S
N633 C635 1.279 . S
C634 C635 1.358 . S
C634 C636 1.356 . S
C634 H688 0.930 . S
C635 N633 1.279 . S
C635 C634 1.358 . S
C635 H639 0.930 1_655 S
C636 C634 1.356 . S
C636 C637 1.348 . S
C637 C632 1.353 . S
C637 C636 1.348 . S
C637 H689 0.929 . S
H638 C632 0.930 . S
H639 C635 0.930 1_455 S
C640 N641 1.314 . S
C640 C642 1.353 . S
C640 H646 0.930 . S
N641 Li617 1.990 . S
N641 C640 1.314 . S
N641 C644 1.279 . S
C642 C640 1.353 . S
C642 C645 1.348 . S
C642 H690 0.929 . S
C643 C644 1.358 . S
C643 C645 1.356 . S
C643 H691 0.930 . S
C644 N641 1.279 . S
C644 C643 1.358 . S
C644 H647 0.930 . S
C645 C642 1.348 . S
C645 C643 1.356 . S
H646 C640 0.930 . S
H647 C644 0.930 . S
C648 C650 1.348 . S
C648 C651 1.356 . S
C648 O678 1.325 . S
N649 C652 1.314 . S
N649 C653 1.279 . S
C650 C648 1.348 . S
C650 C652 1.353 . S
C650 H692 0.929 . S
C651 C648 1.356 . S
C651 C653 1.358 . S
C651 H693 0.930 . S
C652 N649 1.314 . S
C652 C650 1.353 . S
C652 H694 0.930 . S
C653 N649 1.279 . S
C653 C651 1.358 . S
C653 H695 0.930 . S
C654 C655 1.348 . S
C654 C656 1.356 . S
C654 O679 1.325 . S
C655 C654 1.348 . S
C655 C657 1.353 . S
C655 H696 0.929 . S
C656 C654 1.356 . S
C656 C658 1.358 . S
C656 H697 0.930 . S
C657 C655 1.353 . S
C657 N659 1.314 . S
C657 H698 0.930 . S
C658 C656 1.358 . S
C658 N659 1.279 . S
C658 H699 0.930 . S
N659 C657 1.314 . S
N659 C658 1.279 . S
C660 C662 1.353 . S
C660 N663 1.314 . S
C660 H666 0.930 . S
C661 N663 1.279 . S
C661 C664 1.358 . S
C661 H667 0.930 1_455 S
C662 C660 1.353 . S
C662 C665 1.348 . S
C662 H700 0.929 . S
N663 Li618 1.990 . S
N663 C660 1.314 . S
N663 C661 1.279 . S
C664 C661 1.358 . S
C664 C665 1.356 . S
C664 H701 0.930 . S
C665 C662 1.348 . S
C665 C664 1.356 . S
H666 C660 0.930 . S
H667 C661 0.930 1_655 S
C668 N669 1.314 . S
C668 C670 1.353 . S
C668 H674 0.930 . S
N669 Li619 1.990 . S
N669 C668 1.314 . S
N669 C672 1.279 . S
C670 C668 1.353 . S
C670 C673 1.348 . S
C670 H702 0.929 . S
C671 C672 1.358 . S
C671 C673 1.356 . S
C671 H703 0.930 . S
C672 N669 1.279 . S
C672 C671 1.358 . S
C672 H675 0.930 . S
C673 C670 1.348 . S
C673 C671 1.356 . S
H674 C668 0.930 . S
H675 C672 0.930 . S
O676 Li616 1.956 1_455 S
O676 Li617 1.970 . S
O676 Li618 1.961 . S
O676 C620 1.325 . S
O677 Li616 1.970 . S
O677 Li617 1.956 1_655 S
O677 Li619 1.961 . S
O677 C626 1.325 . S
O678 Li616 1.961 . S
O678 Li618 1.956 1_655 S
O678 Li619 1.970 . S
O678 C648 1.325 . S
O679 Li617 1.961 . S
O679 Li618 1.970 . S
O679 Li619 1.956 1_455 S
O679 C654 1.325 . S
H680 C622 0.929 . S
H681 C623 0.930 . S
H682 C624 0.930 . S
H683 C625 0.930 . S
H684 C627 0.930 . S
H685 C629 0.929 . S
H686 C630 0.930 . S
H687 C631 0.930 . S
H688 C634 0.930 . S
H689 C637 0.929 . S
H690 C642 0.929 . S
H691 C643 0.930 . S
H692 C650 0.929 . S
H693 C651 0.930 . S
H694 C652 0.930 . S
H695 C653 0.930 . S
H696 C655 0.929 . S
H697 C656 0.930 . S
H698 C657 0.930 . S
H699 C658 0.930 . S
H700 C662 0.929 . S
H701 C664 0.930 . S
H702 C670 0.929 . S
H703 C671 0.930 . S
Li704 N721 1.990 . S
Li704 O764 1.956 . S
Li704 O765 1.970 . S
Li704 O766 1.961 1_545 S
Li705 N729 1.990 . S
Li705 O764 1.970 . S
Li705 O765 1.956 . S
Li705 O767 1.961 1_545 S
Li706 N751 1.990 . S
Li706 O764 1.961 1_565 S
Li706 O766 1.956 . S
Li706 O767 1.970 . S
Li707 N757 1.990 . S
Li707 O765 1.961 1_565 S
Li707 O766 1.970 . S
Li707 O767 1.956 . S
C708 C710 1.348 . S
C708 C711 1.356 . S
C708 O764 1.325 . S
N709 C712 1.314 . S
N709 C713 1.279 . S
C710 C708 1.348 . S
C710 C712 1.353 . S
C710 H768 0.929 . S
C711 C708 1.356 . S
C711 C713 1.358 . S
C711 H769 0.930 . S
C712 N709 1.314 . S
C712 C710 1.353 . S
C712 H770 0.930 . S
C713 N709 1.279 . S
C713 C711 1.358 . S
C713 H771 0.930 . S
C714 C717 1.348 . S
C714 C718 1.356 . S
C714 O765 1.325 . S
C715 N716 1.279 . S
C715 C718 1.358 . S
C715 H772 0.930 . S
N716 C715 1.279 . S
N716 C719 1.314 . S
C717 C714 1.348 . S
C717 C719 1.353 . S
C717 H773 0.929 . S
C718 C714 1.356 . S
C718 C715 1.358 . S
C718 H774 0.930 . S
C719 N716 1.314 . S
C719 C717 1.353 . S
C719 H775 0.930 . S
C720 N721 1.314 . S
C720 C725 1.353 . S
C720 H726 0.930 . S
N721 Li704 1.990 . S
N721 C720 1.314 . S
N721 C723 1.279 . S
C722 C723 1.358 . S
C722 C724 1.356 . S
C722 H776 0.930 . S
C723 N721 1.279 . S
C723 C722 1.358 . S
C723 H727 0.930 . S
C724 C722 1.356 . S
C724 C725 1.348 . S
C725 C720 1.353 . S
C725 C724 1.348 . S
C725 H777 0.929 . S
H726 C720 0.930 . S
H727 C723 0.930 . S
C728 N729 1.314 . S
C728 C730 1.353 . S
C728 H734 0.930 1_545 S
N729 Li705 1.990 . S
N729 C728 1.314 . S
N729 C732 1.279 . S
C730 C728 1.353 . S
C730 C733 1.348 . S
C730 H778 0.929 . S
C731 C732 1.358 . S
C731 C733 1.356 . S
C731 H779 0.930 . S
C732 N729 1.279 . S
C732 C731 1.358 . S
C732 H735 0.930 . S
C733 C730 1.348 . S
C733 C731 1.356 . S
H734 C728 0.930 1_565 S
H735 C732 0.930 . S
C736 C738 1.348 . S
C736 C739 1.356 . S
C736 O766 1.325 . S
N737 C740 1.314 . S
N737 C741 1.279 . S
C738 C736 1.348 . S
C738 C740 1.353 . S
C738 H780 0.929 . S
C739 C736 1.356 . S
C739 C741 1.358 . S
C739 H781 0.930 . S
C740 N737 1.314 . S
C740 C738 1.353 . S
C740 H782 0.930 . S
C741 N737 1.279 . S
C741 C739 1.358 . S
C741 H783 0.930 . S
C742 C743 1.348 . S
C742 C744 1.356 . S
C742 O767 1.325 . S
C743 C742 1.348 . S
C743 C745 1.353 . S
C743 H784 0.929 . S
C744 C742 1.356 . S
C744 C746 1.358 . S
C744 H785 0.930 . S
C745 C743 1.353 . S
C745 N747 1.314 . S
C745 H786 0.930 . S
C746 C744 1.358 . S
C746 N747 1.279 . S
C746 H787 0.930 . S
N747 C745 1.314 . S
N747 C746 1.279 . S
C748 C750 1.353 . S
C748 N751 1.314 . S
C748 H754 0.930 . S
C749 N751 1.279 . S
C749 C752 1.358 . S
C749 H755 0.930 . S
C750 C748 1.353 . S
C750 C753 1.348 . S
C750 H788 0.929 . S
N751 Li706 1.990 . S
N751 C748 1.314 . S
N751 C749 1.279 . S
C752 C749 1.358 . S
C752 C753 1.356 . S
C752 H789 0.930 . S
C753 C750 1.348 . S
C753 C752 1.356 . S
H754 C748 0.930 . S
H755 C749 0.930 . S
C756 N757 1.314 . S
C756 C758 1.353 . S
C756 H762 0.930 1_565 S
N757 Li707 1.990 . S
N757 C756 1.314 . S
N757 C760 1.279 . S
C758 C756 1.353 . S
C758 C761 1.348 . S
C758 H790 0.929 . S
C759 C760 1.358 . S
C759 C761 1.356 . S
C759 H791 0.930 . S
C760 N757 1.279 . S
C760 C759 1.358 . S
C760 H763 0.930 . S
C761 C758 1.348 . S
C761 C759 1.356 . S
H762 C756 0.930 1_545 S
H763 C760 0.930 . S
O764 Li704 1.956 . S
O764 Li705 1.970 . S
O764 Li706 1.961 1_545 S
O764 C708 1.325 . S
O765 Li704 1.970 . S
O765 Li705 1.956 . S
O765 Li707 1.961 1_545 S
O765 C714 1.325 . S
O766 Li704 1.961 1_565 S
O766 Li706 1.956 . S
O766 Li707 1.970 . S
O766 C736 1.325 . S
O767 Li705 1.961 1_565 S
O767 Li706 1.970 . S
O767 Li707 1.956 . S
O767 C742 1.325 . S
H768 C710 0.929 . S
H769 C711 0.930 . S
H770 C712 0.930 . S
H771 C713 0.930 . S
H772 C715 0.930 . S
H773 C717 0.929 . S
H774 C718 0.930 . S
H775 C719 0.930 . S
H776 C722 0.930 . S
H777 C725 0.929 . S
H778 C730 0.929 . S
H779 C731 0.930 . S
H780 C738 0.929 . S
H781 C739 0.930 . S
H782 C740 0.930 . S
H783 C741 0.930 . S
H784 C743 0.929 . S
H785 C744 0.930 . S
H786 C745 0.930 . S
H787 C746 0.930 . S
H788 C750 0.929 . S
H789 C752 0.930 . S
H790 C758 0.929 . S
H791 C759 0.930 . S
Li792 N809 1.990 . S
Li792 O852 1.956 . S
Li792 O853 1.970 . S
Li792 O854 1.961 . S
Li793 N817 1.990 . S
Li793 O852 1.970 . S
Li793 O853 1.956 . S
Li793 O855 1.961 . S
Li794 N839 1.990 . S
Li794 O852 1.961 . S
Li794 O854 1.956 . S
Li794 O855 1.970 . S
Li795 N845 1.990 . S
Li795 O853 1.961 . S
Li795 O854 1.970 . S
Li795 O855 1.956 . S
C796 C798 1.348 . S
C796 C799 1.356 . S
C796 O852 1.325 . S
N797 C800 1.314 . S
N797 C801 1.279 . S
C798 C796 1.348 . S
C798 C800 1.353 . S
C798 H856 0.929 . S
C799 C796 1.356 . S
C799 C801 1.358 . S
C799 H857 0.930 . S
C800 N797 1.314 . S
C800 C798 1.353 . S
C800 H858 0.930 . S
C801 N797 1.279 . S
C801 C799 1.358 . S
C801 H859 0.930 . S
C802 C805 1.348 . S
C802 C806 1.356 . S
C802 O853 1.325 . S
C803 N804 1.279 . S
C803 C806 1.358 . S
C803 H860 0.930 . S
N804 C803 1.279 . S
N804 C807 1.314 . S
C805 C802 1.348 . S
C805 C807 1.353 . S
C805 H861 0.929 . S
C806 C802 1.356 . S
C806 C803 1.358 . S
C806 H862 0.930 . S
C807 N804 1.314 . S
C807 C805 1.353 . S
C807 H863 0.930 . S
C808 N809 1.314 . S
C808 C813 1.353 . S
C808 H814 0.930 . S
N809 Li792 1.990 . S
N809 C808 1.314 . S
N809 C811 1.279 . S
C810 C811 1.358 . S
C810 C812 1.356 . S
C810 H864 0.930 . S
C811 N809 1.279 . S
C811 C810 1.358 . S
C811 H815 0.930 . S
C812 C810 1.356 . S
C812 C813 1.348 . S
C813 C808 1.353 . S
C813 C812 1.348 . S
C813 H865 0.929 . S
H814 C808 0.930 . S
H815 C811 0.930 . S
C816 N817 1.314 . S
C816 C818 1.353 . S
C816 H822 0.930 . S
N817 Li793 1.990 . S
N817 C816 1.314 . S
N817 C820 1.279 . S
C818 C816 1.353 . S
C818 C821 1.348 . S
C818 H866 0.929 . S
C819 C820 1.358 . S
C819 C821 1.356 . S
C819 H867 0.930 . S
C820 N817 1.279 . S
C820 C819 1.358 . S
C820 H823 0.930 . S
C821 C818 1.348 . S
C821 C819 1.356 . S
H822 C816 0.930 . S
H823 C820 0.930 . S
C824 C826 1.348 . S
C824 C827 1.356 . S
C824 O854 1.325 . S
N825 C828 1.314 . S
N825 C829 1.279 . S
C826 C824 1.348 . S
C826 C828 1.353 . S
C826 H868 0.929 . S
C827 C824 1.356 . S
C827 C829 1.358 . S
C827 H869 0.930 . S
C828 N825 1.314 . S
C828 C826 1.353 . S
C828 H870 0.930 . S
C829 N825 1.279 . S
C829 C827 1.358 . S
C829 H871 0.930 . S
C830 C831 1.348 . S
C830 C832 1.356 . S
C830 O855 1.325 . S
C831 C830 1.348 . S
C831 C833 1.353 . S
C831 H872 0.929 . S
C832 C830 1.356 . S
C832 C834 1.358 . S
C832 H873 0.930 . S
C833 C831 1.353 . S
C833 N835 1.314 . S
C833 H874 0.930 . S
C834 C832 1.358 . S
C834 N835 1.279 . S
C834 H875 0.930 . S
N835 C833 1.314 . S
N835 C834 1.279 . S
C836 C838 1.353 . S
C836 N839 1.314 . S
C836 H842 0.930 . S
C837 N839 1.279 . S
C837 C840 1.358 . S
C837 H843 0.930 . S
C838 C836 1.353 . S
C838 C841 1.348 . S
C838 H876 0.929 . S
N839 Li794 1.990 . S
N839 C836 1.314 . S
N839 C837 1.279 . S
C840 C837 1.358 . S
C840 C841 1.356 . S
C840 H877 0.930 . S
C841 C838 1.348 . S
C841 C840 1.356 . S
H842 C836 0.930 . S
H843 C837 0.930 . S
C844 N845 1.314 . S
C844 C846 1.353 . S
C844 H850 0.930 . S
N845 Li795 1.990 . S
N845 C844 1.314 . S
N845 C848 1.279 . S
C846 C844 1.353 . S
C846 C849 1.348 . S
C846 H878 0.929 . S
C847 C848 1.358 . S
C847 C849 1.356 . S
C847 H879 0.930 . S
C848 N845 1.279 . S
C848 C847 1.358 . S
C848 H851 0.930 . S
C849 C846 1.348 . S
C849 C847 1.356 . S
H850 C844 0.930 . S
H851 C848 0.930 . S
O852 Li792 1.956 . S
O852 Li793 1.970 . S
O852 Li794 1.961 . S
O852 C796 1.325 . S
O853 Li792 1.970 . S
O853 Li793 1.956 . S
O853 Li795 1.961 . S
O853 C802 1.325 . S
O854 Li792 1.961 . S
O854 Li794 1.956 . S
O854 Li795 1.970 . S
O854 C824 1.325 . S
O855 Li793 1.961 . S
O855 Li794 1.970 . S
O855 Li795 1.956 . S
O855 C830 1.325 . S
H856 C798 0.929 . S
H857 C799 0.930 . S
H858 C800 0.930 . S
H859 C801 0.930 . S
H860 C803 0.930 . S
H861 C805 0.929 . S
H862 C806 0.930 . S
H863 C807 0.930 . S
H864 C810 0.930 . S
H865 C813 0.929 . S
H866 C818 0.929 . S
H867 C819 0.930 . S
H868 C826 0.929 . S
H869 C827 0.930 . S
H870 C828 0.930 . S
H871 C829 0.930 . S
H872 C831 0.929 . S
H873 C832 0.930 . S
H874 C833 0.930 . S
H875 C834 0.930 . S
H876 C838 0.929 . S
H877 C840 0.930 . S
H878 C846 0.929 . S
H879 C847 0.930 . S
Li880 N897 1.990 . S
Li880 O940 1.956 . S
Li880 O941 1.970 . S
Li880 O942 1.961 1_545 S
Li881 N905 1.990 . S
Li881 O940 1.970 . S
Li881 O941 1.956 . S
Li881 O943 1.961 1_545 S
Li882 N927 1.990 . S
Li882 O940 1.961 1_565 S
Li882 O942 1.956 . S
Li882 O943 1.970 . S
Li883 N933 1.990 . S
Li883 O941 1.961 1_565 S
Li883 O942 1.970 . S
Li883 O943 1.956 . S
C884 C886 1.348 . S
C884 C887 1.356 . S
C884 O940 1.325 . S
N885 C888 1.314 . S
N885 C889 1.279 . S
C886 C884 1.348 . S
C886 C888 1.353 . S
C886 H944 0.929 . S
C887 C884 1.356 . S
C887 C889 1.358 . S
C887 H945 0.930 . S
C888 N885 1.314 . S
C888 C886 1.353 . S
C888 H946 0.930 . S
C889 N885 1.279 . S
C889 C887 1.358 . S
C889 H947 0.930 . S
C890 C893 1.348 . S
C890 C894 1.356 . S
C890 O941 1.325 . S
C891 N892 1.279 . S
C891 C894 1.358 . S
C891 H948 0.930 . S
N892 C891 1.279 . S
N892 C895 1.314 . S
C893 C890 1.348 . S
C893 C895 1.353 . S
C893 H949 0.929 . S
C894 C890 1.356 . S
C894 C891 1.358 . S
C894 H950 0.930 . S
C895 N892 1.314 . S
C895 C893 1.353 . S
C895 H951 0.930 . S
C896 N897 1.314 . S
C896 C901 1.353 . S
C896 H902 0.930 1_545 S
N897 Li880 1.990 . S
N897 C896 1.314 . S
N897 C899 1.279 . S
C898 C899 1.358 . S
C898 C900 1.356 . S
C898 H952 0.930 . S
C899 N897 1.279 . S
C899 C898 1.358 . S
C899 H903 0.930 . S
C900 C898 1.356 . S
C900 C901 1.348 . S
C901 C896 1.353 . S
C901 C900 1.348 . S
C901 H953 0.929 . S
H902 C896 0.930 1_565 S
H903 C899 0.930 . S
C904 N905 1.314 . S
C904 C906 1.353 . S
C904 H910 0.930 . S
N905 Li881 1.990 . S
N905 C904 1.314 . S
N905 C908 1.279 . S
C906 C904 1.353 . S
C906 C909 1.348 . S
C906 H954 0.929 . S
C907 C908 1.358 . S
C907 C909 1.356 . S
C907 H955 0.930 . S
C908 N905 1.279 . S
C908 C907 1.358 . S
C908 H911 0.930 . S
C909 C906 1.348 . S
C909 C907 1.356 . S
H910 C904 0.930 . S
H911 C908 0.930 . S
C912 C914 1.348 . S
C912 C915 1.356 . S
C912 O942 1.325 . S
N913 C916 1.314 . S
N913 C917 1.279 . S
C914 C912 1.348 . S
C914 C916 1.353 . S
C914 H956 0.929 . S
C915 C912 1.356 . S
C915 C917 1.358 . S
C915 H957 0.930 . S
C916 N913 1.314 . S
C916 C914 1.353 . S
C916 H958 0.930 . S
C917 N913 1.279 . S
C917 C915 1.358 . S
C917 H959 0.930 . S
C918 C919 1.348 . S
C918 C920 1.356 . S
C918 O943 1.325 . S
C919 C918 1.348 . S
C919 C921 1.353 . S
C919 H960 0.929 . S
C920 C918 1.356 . S
C920 C922 1.358 . S
C920 H961 0.930 . S
C921 C919 1.353 . S
C921 N923 1.314 . S
C921 H962 0.930 . S
C922 C920 1.358 . S
C922 N923 1.279 . S
C922 H963 0.930 . S
N923 C921 1.314 . S
N923 C922 1.279 . S
C924 C926 1.353 . S
C924 N927 1.314 . S
C924 H930 0.930 1_565 S
C925 N927 1.279 . S
C925 C928 1.358 . S
C925 H931 0.930 . S
C926 C924 1.353 . S
C926 C929 1.348 . S
C926 H964 0.929 . S
N927 Li882 1.990 . S
N927 C924 1.314 . S
N927 C925 1.279 . S
C928 C925 1.358 . S
C928 C929 1.356 . S
C928 H965 0.930 . S
C929 C926 1.348 . S
C929 C928 1.356 . S
H930 C924 0.930 1_545 S
H931 C925 0.930 . S
C932 N933 1.314 . S
C932 C934 1.353 . S
C932 H938 0.930 . S
N933 Li883 1.990 . S
N933 C932 1.314 . S
N933 C936 1.279 . S
C934 C932 1.353 . S
C934 C937 1.348 . S
C934 H966 0.929 . S
C935 C936 1.358 . S
C935 C937 1.356 . S
C935 H967 0.930 . S
C936 N933 1.279 . S
C936 C935 1.358 . S
C936 H939 0.930 . S
C937 C934 1.348 . S
C937 C935 1.356 . S
H938 C932 0.930 . S
H939 C936 0.930 . S
O940 Li880 1.956 . S
O940 Li881 1.970 . S
O940 Li882 1.961 1_545 S
O940 C884 1.325 . S
O941 Li880 1.970 . S
O941 Li881 1.956 . S
O941 Li883 1.961 1_545 S
O941 C890 1.325 . S
O942 Li880 1.961 1_565 S
O942 Li882 1.956 . S
O942 Li883 1.970 . S
O942 C912 1.325 . S
O943 Li881 1.961 1_565 S
O943 Li882 1.970 . S
O943 Li883 1.956 . S
O943 C918 1.325 . S
H944 C886 0.929 . S
H945 C887 0.930 . S
H946 C888 0.930 . S
H947 C889 0.930 . S
H948 C891 0.930 . S
H949 C893 0.929 . S
H950 C894 0.930 . S
H951 C895 0.930 . S
H952 C898 0.930 . S
H953 C901 0.929 . S
H954 C906 0.929 . S
H955 C907 0.930 . S
H956 C914 0.929 . S
H957 C915 0.930 . S
H958 C916 0.930 . S
H959 C917 0.930 . S
H960 C919 0.929 . S
H961 C920 0.930 . S
H962 C921 0.930 . S
H963 C922 0.930 . S
H964 C926 0.929 . S
H965 C928 0.930 . S
H966 C934 0.929 . S
H967 C935 0.930 . S
Li968 N985 1.990 . S
Li968 O1028 1.956 1_556 S
Li968 O1029 1.970 . S
Li968 O1030 1.961 . S
Li969 N993 1.990 . S
Li969 O1028 1.970 . S
Li969 O1029 1.956 1_554 S
Li969 O1031 1.961 . S
Li970 N1015 1.990 . S
Li970 O1028 1.961 . S
Li970 O1030 1.956 1_554 S
Li970 O1031 1.970 . S
Li971 N1021 1.990 . S
Li971 O1029 1.961 . S
Li971 O1030 1.970 . S
Li971 O1031 1.956 1_556 S
C972 C974 1.348 . S
C972 C975 1.356 . S
C972 O1028 1.325 . S
N973 C976 1.314 . S
N973 C977 1.279 . S
C974 C972 1.348 . S
C974 C976 1.353 . S
C974 H1032 0.929 . S
C975 C972 1.356 . S
C975 C977 1.358 . S
C975 H1033 0.930 . S
C976 N973 1.314 . S
C976 C974 1.353 . S
C976 H1034 0.930 . S
C977 N973 1.279 . S
C977 C975 1.358 . S
C977 H1035 0.930 . S
C978 C981 1.348 . S
C978 C982 1.356 . S
C978 O1029 1.325 . S
C979 N980 1.279 . S
C979 C982 1.358 . S
C979 H1036 0.930 . S
N980 C979 1.279 . S
N980 C983 1.314 . S
C981 C978 1.348 . S
C981 C983 1.353 . S
C981 H1037 0.929 . S
C982 C978 1.356 . S
C982 C979 1.358 . S
C982 H1038 0.930 . S
C983 N980 1.314 . S
C983 C981 1.353 . S
C983 H1039 0.930 . S
C984 N985 1.314 . S
C984 C989 1.353 . S
C984 H990 0.930 . S
N985 Li968 1.990 . S
N985 C984 1.314 . S
N985 C987 1.279 . S
C986 C987 1.358 . S
C986 C988 1.356 . S
C986 H1040 0.930 . S
C987 N985 1.279 . S
C987 C986 1.358 . S
C987 H991 0.930 1_556 S
C988 C986 1.356 . S
C988 C989 1.348 . S
C989 C984 1.353 . S
C989 C988 1.348 . S
C989 H1041 0.929 . S
H990 C984 0.930 . S
H991 C987 0.930 1_554 S
C992 N993 1.314 . S
C992 C994 1.353 . S
C992 H998 0.930 . S
N993 Li969 1.990 . S
N993 C992 1.314 . S
N993 C996 1.279 . S
C994 C992 1.353 . S
C994 C997 1.348 . S
C994 H1042 0.929 . S
C995 C996 1.358 . S
C995 C997 1.356 . S
C995 H1043 0.930 . S
C996 N993 1.279 . S
C996 C995 1.358 . S
C996 H999 0.930 . S
C997 C994 1.348 . S
C997 C995 1.356 . S
H998 C992 0.930 . S
H999 C996 0.930 . S
C1000 C1002 1.348 . S
C1000 C1003 1.356 . S
C1000 O1030 1.325 . S
N1001 C1004 1.314 . S
N1001 C1005 1.279 . S
C1002 C1000 1.348 . S
C1002 C1004 1.353 . S
C1002 H1044 0.929 . S
C1003 C1000 1.356 . S
C1003 C1005 1.358 . S
C1003 H1045 0.930 . S
C1004 N1001 1.314 . S
C1004 C1002 1.353 . S
C1004 H1046 0.930 . S
C1005 N1001 1.279 . S
C1005 C1003 1.358 . S
C1005 H1047 0.930 . S
C1006 C1007 1.348 . S
C1006 C1008 1.356 . S
C1006 O1031 1.325 . S
C1007 C1006 1.348 . S
C1007 C1009 1.353 . S
C1007 H1048 0.929 . S
C1008 C1006 1.356 . S
C1008 C1010 1.358 . S
C1008 H1049 0.930 . S
C1009 C1007 1.353 . S
C1009 N1011 1.314 . S
C1009 H1050 0.930 . S
C1010 C1008 1.358 . S
C1010 N1011 1.279 . S
C1010 H1051 0.930 . S
N1011 C1009 1.314 . S
N1011 C1010 1.279 . S
C1012 C1014 1.353 . S
C1012 N1015 1.314 . S
C1012 H1018 0.930 . S
C1013 N1015 1.279 . S
C1013 C1016 1.358 . S
C1013 H1019 0.930 1_554 S
C1014 C1012 1.353 . S
C1014 C1017 1.348 . S
C1014 H1052 0.929 . S
N1015 Li970 1.990 . S
N1015 C1012 1.314 . S
N1015 C1013 1.279 . S
C1016 C1013 1.358 . S
C1016 C1017 1.356 . S
C1016 H1053 0.930 . S
C1017 C1014 1.348 . S
C1017 C1016 1.356 . S
H1018 C1012 0.930 . S
H1019 C1013 0.930 1_556 S
C1020 N1021 1.314 . S
C1020 C1022 1.353 . S
C1020 H1026 0.930 . S
N1021 Li971 1.990 . S
N1021 C1020 1.314 . S
N1021 C1024 1.279 . S
C1022 C1020 1.353 . S
C1022 C1025 1.348 . S
C1022 H1054 0.929 . S
C1023 C1024 1.358 . S
C1023 C1025 1.356 . S
C1023 H1055 0.930 . S
C1024 N1021 1.279 . S
C1024 C1023 1.358 . S
C1024 H1027 0.930 . S
C1025 C1022 1.348 . S
C1025 C1023 1.356 . S
H1026 C1020 0.930 . S
H1027 C1024 0.930 . S
O1028 Li968 1.956 1_554 S
O1028 Li969 1.970 . S
O1028 Li970 1.961 . S
O1028 C972 1.325 . S
O1029 Li968 1.970 . S
O1029 Li969 1.956 1_556 S
O1029 Li971 1.961 . S
O1029 C978 1.325 . S
O1030 Li968 1.961 . S
O1030 Li970 1.956 1_556 S
O1030 Li971 1.970 . S
O1030 C1000 1.325 . S
O1031 Li969 1.961 . S
O1031 Li970 1.970 . S
O1031 Li971 1.956 1_554 S
O1031 C1006 1.325 . S
H1032 C974 0.929 . S
H1033 C975 0.930 . S
H1034 C976 0.930 . S
H1035 C977 0.930 . S
H1036 C979 0.930 . S
H1037 C981 0.929 . S
H1038 C982 0.930 . S
H1039 C983 0.930 . S
H1040 C986 0.930 . S
H1041 C989 0.929 . S
H1042 C994 0.929 . S
H1043 C995 0.930 . S
H1044 C1002 0.929 . S
H1045 C1003 0.930 . S
H1046 C1004 0.930 . S
H1047 C1005 0.930 . S
H1048 C1007 0.929 . S
H1049 C1008 0.930 . S
H1050 C1009 0.930 . S
H1051 C1010 0.930 . S
H1052 C1014 0.929 . S
H1053 C1016 0.930 . S
H1054 C1022 0.929 . S
H1055 C1023 0.930 . S
Li1056 N1073 1.990 . S
Li1056 O1116 1.956 . S
Li1056 O1117 1.970 . S
Li1056 O1118 1.961 1_554 S
Li1057 N1081 1.990 . S
Li1057 O1116 1.970 . S
Li1057 O1117 1.956 . S
Li1057 O1119 1.961 1_554 S
Li1058 N1103 1.990 . S
Li1058 O1116 1.961 1_556 S
Li1058 O1118 1.956 . S
Li1058 O1119 1.970 . S
Li1059 N1109 1.990 . S
Li1059 O1117 1.961 1_556 S
Li1059 O1118 1.970 . S
Li1059 O1119 1.956 . S
C1060 C1062 1.348 . S
C1060 C1063 1.356 . S
C1060 O1116 1.325 . S
N1061 C1064 1.314 . S
N1061 C1065 1.279 . S
C1062 C1060 1.348 . S
C1062 C1064 1.353 . S
C1062 H1120 0.929 . S
C1063 C1060 1.356 . S
C1063 C1065 1.358 . S
C1063 H1121 0.930 . S
C1064 N1061 1.314 . S
C1064 C1062 1.353 . S
C1064 H1122 0.930 . S
C1065 N1061 1.279 . S
C1065 C1063 1.358 . S
C1065 H1123 0.930 . S
C1066 C1069 1.348 . S
C1066 C1070 1.356 . S
C1066 O1117 1.325 . S
C1067 N1068 1.279 . S
C1067 C1070 1.358 . S
C1067 H1124 0.930 . S
N1068 C1067 1.279 . S
N1068 C1071 1.314 . S
C1069 C1066 1.348 . S
C1069 C1071 1.353 . S
C1069 H1125 0.929 . S
C1070 C1066 1.356 . S
C1070 C1067 1.358 . S
C1070 H1126 0.930 . S
C1071 N1068 1.314 . S
C1071 C1069 1.353 . S
C1071 H1127 0.930 . S
C1072 N1073 1.314 . S
C1072 C1077 1.353 . S
C1072 H1078 0.930 . S
N1073 Li1056 1.990 . S
N1073 C1072 1.314 . S
N1073 C1075 1.279 . S
C1074 C1075 1.358 . S
C1074 C1076 1.356 . S
C1074 H1128 0.930 . S
C1075 N1073 1.279 . S
C1075 C1074 1.358 . S
C1075 H1079 0.930 . S
C1076 C1074 1.356 . S
C1076 C1077 1.348 . S
C1077 C1072 1.353 . S
C1077 C1076 1.348 . S
C1077 H1129 0.929 . S
H1078 C1072 0.930 . S
H1079 C1075 0.930 . S
C1080 N1081 1.314 . S
C1080 C1082 1.353 . S
C1080 H1086 0.930 1_554 S
N1081 Li1057 1.990 . S
N1081 C1080 1.314 . S
N1081 C1084 1.279 . S
C1082 C1080 1.353 . S
C1082 C1085 1.348 . S
C1082 H1130 0.929 . S
C1083 C1084 1.358 . S
C1083 C1085 1.356 . S
C1083 H1131 0.930 . S
C1084 N1081 1.279 . S
C1084 C1083 1.358 . S
C1084 H1087 0.930 . S
C1085 C1082 1.348 . S
C1085 C1083 1.356 . S
H1086 C1080 0.930 1_556 S
H1087 C1084 0.930 . S
C1088 C1090 1.348 . S
C1088 C1091 1.356 . S
C1088 O1118 1.325 . S
N1089 C1092 1.314 . S
N1089 C1093 1.279 . S
C1090 C1088 1.348 . S
C1090 C1092 1.353 . S
C1090 H1132 0.929 . S
C1091 C1088 1.356 . S
C1091 C1093 1.358 . S
C1091 H1133 0.930 . S
C1092 N1089 1.314 . S
C1092 C1090 1.353 . S
C1092 H1134 0.930 . S
C1093 N1089 1.279 . S
C1093 C1091 1.358 . S
C1093 H1135 0.930 . S
C1094 C1095 1.348 . S
C1094 C1096 1.356 . S
C1094 O1119 1.325 . S
C1095 C1094 1.348 . S
C1095 C1097 1.353 . S
C1095 H1136 0.929 . S
C1096 C1094 1.356 . S
C1096 C1098 1.358 . S
C1096 H1137 0.930 . S
C1097 C1095 1.353 . S
C1097 N1099 1.314 . S
C1097 H1138 0.930 . S
C1098 C1096 1.358 . S
C1098 N1099 1.279 . S
C1098 H1139 0.930 . S
N1099 C1097 1.314 . S
N1099 C1098 1.279 . S
C1100 C1102 1.353 . S
C1100 N1103 1.314 . S
C1100 H1106 0.930 . S
C1101 N1103 1.279 . S
C1101 C1104 1.358 . S
C1101 H1107 0.930 . S
C1102 C1100 1.353 . S
C1102 C1105 1.348 . S
C1102 H1140 0.929 . S
N1103 Li1058 1.990 . S
N1103 C1100 1.314 . S
N1103 C1101 1.279 . S
C1104 C1101 1.358 . S
C1104 C1105 1.356 . S
C1104 H1141 0.930 . S
C1105 C1102 1.348 . S
C1105 C1104 1.356 . S
H1106 C1100 0.930 . S
H1107 C1101 0.930 . S
C1108 N1109 1.314 . S
C1108 C1110 1.353 . S
C1108 H1114 0.930 1_556 S
N1109 Li1059 1.990 . S
N1109 C1108 1.314 . S
N1109 C1112 1.279 . S
C1110 C1108 1.353 . S
C1110 C1113 1.348 . S
C1110 H1142 0.929 . S
C1111 C1112 1.358 . S
C1111 C1113 1.356 . S
C1111 H1143 0.930 . S
C1112 N1109 1.279 . S
C1112 C1111 1.358 . S
C1112 H1115 0.930 . S
C1113 C1110 1.348 . S
C1113 C1111 1.356 . S
H1114 C1108 0.930 1_554 S
H1115 C1112 0.930 . S
O1116 Li1056 1.956 . S
O1116 Li1057 1.970 . S
O1116 Li1058 1.961 1_554 S
O1116 C1060 1.325 . S
O1117 Li1056 1.970 . S
O1117 Li1057 1.956 . S
O1117 Li1059 1.961 1_554 S
O1117 C1066 1.325 . S
O1118 Li1056 1.961 1_556 S
O1118 Li1058 1.956 . S
O1118 Li1059 1.970 . S
O1118 C1088 1.325 . S
O1119 Li1057 1.961 1_556 S
O1119 Li1058 1.970 . S
O1119 Li1059 1.956 . S
O1119 C1094 1.325 . S
H1120 C1062 0.929 . S
H1121 C1063 0.930 . S
H1122 C1064 0.930 . S
H1123 C1065 0.930 . S
H1124 C1067 0.930 . S
H1125 C1069 0.929 . S
H1126 C1070 0.930 . S
H1127 C1071 0.930 . S
H1128 C1074 0.930 . S
H1129 C1077 0.929 . S
H1130 C1082 0.929 . S
H1131 C1083 0.930 . S
H1132 C1090 0.929 . S
H1133 C1091 0.930 . S
H1134 C1092 0.930 . S
H1135 C1093 0.930 . S
H1136 C1095 0.929 . S
H1137 C1096 0.930 . S
H1138 C1097 0.930 . S
H1139 C1098 0.930 . S
H1140 C1102 0.929 . S
H1141 C1104 0.930 . S
H1142 C1110 0.929 . S
H1143 C1111 0.930 . S
Li1144 N1161 1.990 . S
Li1144 O1204 1.956 . S
Li1144 O1205 1.970 . S
Li1144 O1206 1.961 1_554 S
Li1145 N1169 1.990 . S
Li1145 O1204 1.970 . S
Li1145 O1205 1.956 . S
Li1145 O1207 1.961 1_554 S
Li1146 N1191 1.990 . S
Li1146 O1204 1.961 1_556 S
Li1146 O1206 1.956 . S
Li1146 O1207 1.970 . S
Li1147 N1197 1.990 . S
Li1147 O1205 1.961 1_556 S
Li1147 O1206 1.970 . S
Li1147 O1207 1.956 . S
C1148 C1150 1.348 . S
C1148 C1151 1.356 . S
C1148 O1204 1.325 . S
N1149 C1152 1.314 . S
N1149 C1153 1.279 . S
C1150 C1148 1.348 . S
C1150 C1152 1.353 . S
C1150 H1208 0.929 . S
C1151 C1148 1.356 . S
C1151 C1153 1.358 . S
C1151 H1209 0.930 . S
C1152 N1149 1.314 . S
C1152 C1150 1.353 . S
C1152 H1210 0.930 . S
C1153 N1149 1.279 . S
C1153 C1151 1.358 . S
C1153 H1211 0.930 . S
C1154 C1157 1.348 . S
C1154 C1158 1.356 . S
C1154 O1205 1.325 . S
C1155 N1156 1.279 . S
C1155 C1158 1.358 . S
C1155 H1212 0.930 . S
N1156 C1155 1.279 . S
N1156 C1159 1.314 . S
C1157 C1154 1.348 . S
C1157 C1159 1.353 . S
C1157 H1213 0.929 . S
C1158 C1154 1.356 . S
C1158 C1155 1.358 . S
C1158 H1214 0.930 . S
C1159 N1156 1.314 . S
C1159 C1157 1.353 . S
C1159 H1215 0.930 . S
C1160 N1161 1.314 . S
C1160 C1165 1.353 . S
C1160 H1166 0.930 1_554 S
N1161 Li1144 1.990 . S
N1161 C1160 1.314 . S
N1161 C1163 1.279 . S
C1162 C1163 1.358 . S
C1162 C1164 1.356 . S
C1162 H1216 0.930 . S
C1163 N1161 1.279 . S
C1163 C1162 1.358 . S
C1163 H1167 0.930 . S
C1164 C1162 1.356 . S
C1164 C1165 1.348 . S
C1165 C1160 1.353 . S
C1165 C1164 1.348 . S
C1165 H1217 0.929 . S
H1166 C1160 0.930 1_556 S
H1167 C1163 0.930 . S
C1168 N1169 1.314 . S
C1168 C1170 1.353 . S
C1168 H1174 0.930 . S
N1169 Li1145 1.990 . S
N1169 C1168 1.314 . S
N1169 C1172 1.279 . S
C1170 C1168 1.353 . S
C1170 C1173 1.348 . S
C1170 H1218 0.929 . S
C1171 C1172 1.358 . S
C1171 C1173 1.356 . S
C1171 H1219 0.930 . S
C1172 N1169 1.279 . S
C1172 C1171 1.358 . S
C1172 H1175 0.930 . S
C1173 C1170 1.348 . S
C1173 C1171 1.356 . S
H1174 C1168 0.930 . S
H1175 C1172 0.930 . S
C1176 C1178 1.348 . S
C1176 C1179 1.356 . S
C1176 O1206 1.325 . S
N1177 C1180 1.314 . S
N1177 C1181 1.279 . S
C1178 C1176 1.348 . S
C1178 C1180 1.353 . S
C1178 H1220 0.929 . S
C1179 C1176 1.356 . S
C1179 C1181 1.358 . S
C1179 H1221 0.930 . S
C1180 N1177 1.314 . S
C1180 C1178 1.353 . S
C1180 H1222 0.930 . S
C1181 N1177 1.279 . S
C1181 C1179 1.358 . S
C1181 H1223 0.930 . S
C1182 C1183 1.348 . S
C1182 C1184 1.356 . S
C1182 O1207 1.325 . S
C1183 C1182 1.348 . S
C1183 C1185 1.353 . S
C1183 H1224 0.929 . S
C1184 C1182 1.356 . S
C1184 C1186 1.358 . S
C1184 H1225 0.930 . S
C1185 C1183 1.353 . S
C1185 N1187 1.314 . S
C1185 H1226 0.930 . S
C1186 C1184 1.358 . S
C1186 N1187 1.279 . S
C1186 H1227 0.930 . S
N1187 C1185 1.314 . S
N1187 C1186 1.279 . S
C1188 C1190 1.353 . S
C1188 N1191 1.314 . S
C1188 H1194 0.930 1_556 S
C1189 N1191 1.279 . S
C1189 C1192 1.358 . S
C1189 H1195 0.930 . S
C1190 C1188 1.353 . S
C1190 C1193 1.348 . S
C1190 H1228 0.929 . S
N1191 Li1146 1.990 . S
N1191 C1188 1.314 . S
N1191 C1189 1.279 . S
C1192 C1189 1.358 . S
C1192 C1193 1.356 . S
C1192 H1229 0.930 . S
C1193 C1190 1.348 . S
C1193 C1192 1.356 . S
H1194 C1188 0.930 1_554 S
H1195 C1189 0.930 . S
C1196 N1197 1.314 . S
C1196 C1198 1.353 . S
C1196 H1202 0.930 . S
N1197 Li1147 1.990 . S
N1197 C1196 1.314 . S
N1197 C1200 1.279 . S
C1198 C1196 1.353 . S
C1198 C1201 1.348 . S
C1198 H1230 0.929 . S
C1199 C1200 1.358 . S
C1199 C1201 1.356 . S
C1199 H1231 0.930 . S
C1200 N1197 1.279 . S
C1200 C1199 1.358 . S
C1200 H1203 0.930 . S
C1201 C1198 1.348 . S
C1201 C1199 1.356 . S
H1202 C1196 0.930 . S
H1203 C1200 0.930 . S
O1204 Li1144 1.956 . S
O1204 Li1145 1.970 . S
O1204 Li1146 1.961 1_554 S
O1204 C1148 1.325 . S
O1205 Li1144 1.970 . S
O1205 Li1145 1.956 . S
O1205 Li1147 1.961 1_554 S
O1205 C1154 1.325 . S
O1206 Li1144 1.961 1_556 S
O1206 Li1146 1.956 . S
O1206 Li1147 1.970 . S
O1206 C1176 1.325 . S
O1207 Li1145 1.961 1_556 S
O1207 Li1146 1.970 . S
O1207 Li1147 1.956 . S
O1207 C1182 1.325 . S
H1208 C1150 0.929 . S
H1209 C1151 0.930 . S
H1210 C1152 0.930 . S
H1211 C1153 0.930 . S
H1212 C1155 0.930 . S
H1213 C1157 0.929 . S
H1214 C1158 0.930 . S
H1215 C1159 0.930 . S
H1216 C1162 0.930 . S
H1217 C1165 0.929 . S
H1218 C1170 0.929 . S
H1219 C1171 0.930 . S
H1220 C1178 0.929 . S
H1221 C1179 0.930 . S
H1222 C1180 0.930 . S
H1223 C1181 0.930 . S
H1224 C1183 0.929 . S
H1225 C1184 0.930 . S
H1226 C1185 0.930 . S
H1227 C1186 0.930 . S
H1228 C1190 0.929 . S
H1229 C1192 0.930 . S
H1230 C1198 0.929 . S
H1231 C1199 0.930 . S
Li1232 N1249 1.990 . S
Li1232 O1292 1.956 . S
Li1232 O1293 1.970 . S
Li1232 O1294 1.961 . S
Li1233 N1257 1.990 . S
Li1233 O1292 1.970 . S
Li1233 O1293 1.956 . S
Li1233 O1295 1.961 . S
Li1234 N1279 1.990 . S
Li1234 O1292 1.961 . S
Li1234 O1294 1.956 . S
Li1234 O1295 1.970 . S
Li1235 N1285 1.990 . S
Li1235 O1293 1.961 . S
Li1235 O1294 1.970 . S
Li1235 O1295 1.956 . S
C1236 C1238 1.348 . S
C1236 C1239 1.356 . S
C1236 O1292 1.325 . S
N1237 C1240 1.314 . S
N1237 C1241 1.279 . S
C1238 C1236 1.348 . S
C1238 C1240 1.353 . S
C1238 H1296 0.929 . S
C1239 C1236 1.356 . S
C1239 C1241 1.358 . S
C1239 H1297 0.930 . S
C1240 N1237 1.314 . S
C1240 C1238 1.353 . S
C1240 H1298 0.930 . S
C1241 N1237 1.279 . S
C1241 C1239 1.358 . S
C1241 H1299 0.930 . S
C1242 C1245 1.348 . S
C1242 C1246 1.356 . S
C1242 O1293 1.325 . S
C1243 N1244 1.279 . S
C1243 C1246 1.358 . S
C1243 H1300 0.930 . S
N1244 C1243 1.279 . S
N1244 C1247 1.314 . S
C1245 C1242 1.348 . S
C1245 C1247 1.353 . S
C1245 H1301 0.929 . S
C1246 C1242 1.356 . S
C1246 C1243 1.358 . S
C1246 H1302 0.930 . S
C1247 N1244 1.314 . S
C1247 C1245 1.353 . S
C1247 H1303 0.930 . S
C1248 N1249 1.314 . S
C1248 C1253 1.353 . S
C1248 H1254 0.930 . S
N1249 Li1232 1.990 . S
N1249 C1248 1.314 . S
N1249 C1251 1.279 . S
C1250 C1251 1.358 . S
C1250 C1252 1.356 . S
C1250 H1304 0.930 . S
C1251 N1249 1.279 . S
C1251 C1250 1.358 . S
C1251 H1255 0.930 . S
C1252 C1250 1.356 . S
C1252 C1253 1.348 . S
C1253 C1248 1.353 . S
C1253 C1252 1.348 . S
C1253 H1305 0.929 . S
H1254 C1248 0.930 . S
H1255 C1251 0.930 . S
C1256 N1257 1.314 . S
C1256 C1258 1.353 . S
C1256 H1262 0.930 . S
N1257 Li1233 1.990 . S
N1257 C1256 1.314 . S
N1257 C1260 1.279 . S
C1258 C1256 1.353 . S
C1258 C1261 1.348 . S
C1258 H1306 0.929 . S
C1259 C1260 1.358 . S
C1259 C1261 1.356 . S
C1259 H1307 0.930 . S
C1260 N1257 1.279 . S
C1260 C1259 1.358 . S
C1260 H1263 0.930 . S
C1261 C1258 1.348 . S
C1261 C1259 1.356 . S
H1262 C1256 0.930 . S
H1263 C1260 0.930 . S
C1264 C1266 1.348 . S
C1264 C1267 1.356 . S
C1264 O1294 1.325 . S
N1265 C1268 1.314 . S
N1265 C1269 1.279 . S
C1266 C1264 1.348 . S
C1266 C1268 1.353 . S
C1266 H1308 0.929 . S
C1267 C1264 1.356 . S
C1267 C1269 1.358 . S
C1267 H1309 0.930 . S
C1268 N1265 1.314 . S
C1268 C1266 1.353 . S
C1268 H1310 0.930 . S
C1269 N1265 1.279 . S
C1269 C1267 1.358 . S
C1269 H1311 0.930 . S
C1270 C1271 1.348 . S
C1270 C1272 1.356 . S
C1270 O1295 1.325 . S
C1271 C1270 1.348 . S
C1271 C1273 1.353 . S
C1271 H1312 0.929 . S
C1272 C1270 1.356 . S
C1272 C1274 1.358 . S
C1272 H1313 0.930 . S
C1273 C1271 1.353 . S
C1273 N1275 1.314 . S
C1273 H1314 0.930 . S
C1274 C1272 1.358 . S
C1274 N1275 1.279 . S
C1274 H1315 0.930 . S
N1275 C1273 1.314 . S
N1275 C1274 1.279 . S
C1276 C1278 1.353 . S
C1276 N1279 1.314 . S
C1276 H1282 0.930 . S
C1277 N1279 1.279 . S
C1277 C1280 1.358 . S
C1277 H1283 0.930 . S
C1278 C1276 1.353 . S
C1278 C1281 1.348 . S
C1278 H1316 0.929 . S
N1279 Li1234 1.990 . S
N1279 C1276 1.314 . S
N1279 C1277 1.279 . S
C1280 C1277 1.358 . S
C1280 C1281 1.356 . S
C1280 H1317 0.930 . S
C1281 C1278 1.348 . S
C1281 C1280 1.356 . S
H1282 C1276 0.930 . S
H1283 C1277 0.930 . S
C1284 N1285 1.314 . S
C1284 C1286 1.353 . S
C1284 H1290 0.930 . S
N1285 Li1235 1.990 . S
N1285 C1284 1.314 . S
N1285 C1288 1.279 . S
C1286 C1284 1.353 . S
C1286 C1289 1.348 . S
C1286 H1318 0.929 . S
C1287 C1288 1.358 . S
C1287 C1289 1.356 . S
C1287 H1319 0.930 . S
C1288 N1285 1.279 . S
C1288 C1287 1.358 . S
C1288 H1291 0.930 . S
C1289 C1286 1.348 . S
C1289 C1287 1.356 . S
H1290 C1284 0.930 . S
H1291 C1288 0.930 . S
O1292 Li1232 1.956 . S
O1292 Li1233 1.970 . S
O1292 Li1234 1.961 . S
O1292 C1236 1.325 . S
O1293 Li1232 1.970 . S
O1293 Li1233 1.956 . S
O1293 Li1235 1.961 . S
O1293 C1242 1.325 . S
O1294 Li1232 1.961 . S
O1294 Li1234 1.956 . S
O1294 Li1235 1.970 . S
O1294 C1264 1.325 . S
O1295 Li1233 1.961 . S
O1295 Li1234 1.970 . S
O1295 Li1235 1.956 . S
O1295 C1270 1.325 . S
H1296 C1238 0.929 . S
H1297 C1239 0.930 . S
H1298 C1240 0.930 . S
H1299 C1241 0.930 . S
H1300 C1243 0.930 . S
H1301 C1245 0.929 . S
H1302 C1246 0.930 . S
H1303 C1247 0.930 . S
H1304 C1250 0.930 . S
H1305 C1253 0.929 . S
H1306 C1258 0.929 . S
H1307 C1259 0.930 . S
H1308 C1266 0.929 . S
H1309 C1267 0.930 . S
H1310 C1268 0.930 . S
H1311 C1269 0.930 . S
H1312 C1271 0.929 . S
H1313 C1272 0.930 . S
H1314 C1273 0.930 . S
H1315 C1274 0.930 . S
H1316 C1278 0.929 . S
H1317 C1280 0.930 . S
H1318 C1286 0.929 . S
H1319 C1287 0.930 . S
Li1320 N1337 1.990 . S
Li1320 O1380 1.956 . S
Li1320 O1381 1.970 . S
Li1320 O1382 1.961 . S
Li1321 N1345 1.990 . S
Li1321 O1380 1.970 . S
Li1321 O1381 1.956 . S
Li1321 O1383 1.961 . S
Li1322 N1367 1.990 . S
Li1322 O1380 1.961 . S
Li1322 O1382 1.956 . S
Li1322 O1383 1.970 . S
Li1323 N1373 1.990 . S
Li1323 O1381 1.961 . S
Li1323 O1382 1.970 . S
Li1323 O1383 1.956 . S
C1324 C1326 1.348 . S
C1324 C1327 1.356 . S
C1324 O1380 1.325 . S
N1325 C1328 1.314 . S
N1325 C1329 1.279 . S
C1326 C1324 1.348 . S
C1326 C1328 1.353 . S
C1326 H1384 0.929 . S
C1327 C1324 1.356 . S
C1327 C1329 1.358 . S
C1327 H1385 0.930 . S
C1328 N1325 1.314 . S
C1328 C1326 1.353 . S
C1328 H1386 0.930 . S
C1329 N1325 1.279 . S
C1329 C1327 1.358 . S
C1329 H1387 0.930 . S
C1330 C1333 1.348 . S
C1330 C1334 1.356 . S
C1330 O1381 1.325 . S
C1331 N1332 1.279 . S
C1331 C1334 1.358 . S
C1331 H1388 0.930 . S
N1332 C1331 1.279 . S
N1332 C1335 1.314 . S
C1333 C1330 1.348 . S
C1333 C1335 1.353 . S
C1333 H1389 0.929 . S
C1334 C1330 1.356 . S
C1334 C1331 1.358 . S
C1334 H1390 0.930 . S
C1335 N1332 1.314 . S
C1335 C1333 1.353 . S
C1335 H1391 0.930 . S
C1336 N1337 1.314 . S
C1336 C1341 1.353 . S
C1336 H1342 0.930 . S
N1337 Li1320 1.990 . S
N1337 C1336 1.314 . S
N1337 C1339 1.279 . S
C1338 C1339 1.358 . S
C1338 C1340 1.356 . S
C1338 H1392 0.930 . S
C1339 N1337 1.279 . S
C1339 C1338 1.358 . S
C1339 H1343 0.930 . S
C1340 C1338 1.356 . S
C1340 C1341 1.348 . S
C1341 C1336 1.353 . S
C1341 C1340 1.348 . S
C1341 H1393 0.929 . S
H1342 C1336 0.930 . S
H1343 C1339 0.930 . S
C1344 N1345 1.314 . S
C1344 C1346 1.353 . S
C1344 H1350 0.930 . S
N1345 Li1321 1.990 . S
N1345 C1344 1.314 . S
N1345 C1348 1.279 . S
C1346 C1344 1.353 . S
C1346 C1349 1.348 . S
C1346 H1394 0.929 . S
C1347 C1348 1.358 . S
C1347 C1349 1.356 . S
C1347 H1395 0.930 . S
C1348 N1345 1.279 . S
C1348 C1347 1.358 . S
C1348 H1351 0.930 . S
C1349 C1346 1.348 . S
C1349 C1347 1.356 . S
H1350 C1344 0.930 . S
H1351 C1348 0.930 . S
C1352 C1354 1.348 . S
C1352 C1355 1.356 . S
C1352 O1382 1.325 . S
N1353 C1356 1.314 . S
N1353 C1357 1.279 . S
C1354 C1352 1.348 . S
C1354 C1356 1.353 . S
C1354 H1396 0.929 . S
C1355 C1352 1.356 . S
C1355 C1357 1.358 . S
C1355 H1397 0.930 . S
C1356 N1353 1.314 . S
C1356 C1354 1.353 . S
C1356 H1398 0.930 . S
C1357 N1353 1.279 . S
C1357 C1355 1.358 . S
C1357 H1399 0.930 . S
C1358 C1359 1.348 . S
C1358 C1360 1.356 . S
C1358 O1383 1.325 . S
C1359 C1358 1.348 . S
C1359 C1361 1.353 . S
C1359 H1400 0.929 . S
C1360 C1358 1.356 . S
C1360 C1362 1.358 . S
C1360 H1401 0.930 . S
C1361 C1359 1.353 . S
C1361 N1363 1.314 . S
C1361 H1402 0.930 . S
C1362 C1360 1.358 . S
C1362 N1363 1.279 . S
C1362 H1403 0.930 . S
N1363 C1361 1.314 . S
N1363 C1362 1.279 . S
C1364 C1366 1.353 . S
C1364 N1367 1.314 . S
C1364 H1370 0.930 . S
C1365 N1367 1.279 . S
C1365 C1368 1.358 . S
C1365 H1371 0.930 . S
C1366 C1364 1.353 . S
C1366 C1369 1.348 . S
C1366 H1404 0.929 . S
N1367 Li1322 1.990 . S
N1367 C1364 1.314 . S
N1367 C1365 1.279 . S
C1368 C1365 1.358 . S
C1368 C1369 1.356 . S
C1368 H1405 0.930 . S
C1369 C1366 1.348 . S
C1369 C1368 1.356 . S
H1370 C1364 0.930 . S
H1371 C1365 0.930 . S
C1372 N1373 1.314 . S
C1372 C1374 1.353 . S
C1372 H1378 0.930 . S
N1373 Li1323 1.990 . S
N1373 C1372 1.314 . S
N1373 C1376 1.279 . S
C1374 C1372 1.353 . S
C1374 C1377 1.348 . S
C1374 H1406 0.929 . S
C1375 C1376 1.358 . S
C1375 C1377 1.356 . S
C1375 H1407 0.930 . S
C1376 N1373 1.279 . S
C1376 C1375 1.358 . S
C1376 H1379 0.930 . S
C1377 C1374 1.348 . S
C1377 C1375 1.356 . S
H1378 C1372 0.930 . S
H1379 C1376 0.930 . S
O1380 Li1320 1.956 . S
O1380 Li1321 1.970 . S
O1380 Li1322 1.961 . S
O1380 C1324 1.325 . S
O1381 Li1320 1.970 . S
O1381 Li1321 1.956 . S
O1381 Li1323 1.961 . S
O1381 C1330 1.325 . S
O1382 Li1320 1.961 . S
O1382 Li1322 1.956 . S
O1382 Li1323 1.970 . S
O1382 C1352 1.325 . S
O1383 Li1321 1.961 . S
O1383 Li1322 1.970 . S
O1383 Li1323 1.956 . S
O1383 C1358 1.325 . S
H1384 C1326 0.929 . S
H1385 C1327 0.930 . S
H1386 C1328 0.930 . S
H1387 C1329 0.930 . S
H1388 C1331 0.930 . S
H1389 C1333 0.929 . S
H1390 C1334 0.930 . S
H1391 C1335 0.930 . S
H1392 C1338 0.930 . S
H1393 C1341 0.929 . S
H1394 C1346 0.929 . S
H1395 C1347 0.930 . S
H1396 C1354 0.929 . S
H1397 C1355 0.930 . S
H1398 C1356 0.930 . S
H1399 C1357 0.930 . S
H1400 C1359 0.929 . S
H1401 C1360 0.930 . S
H1402 C1361 0.930 . S
H1403 C1362 0.930 . S
H1404 C1366 0.929 . S
H1405 C1368 0.930 . S
H1406 C1374 0.929 . S
H1407 C1375 0.930 . S
Li1408 N1425 1.990 . S
Li1408 O1468 1.956 1_545 S
Li1408 O1469 1.970 . S
Li1408 O1470 1.961 . S
Li1409 N1433 1.990 . S
Li1409 O1468 1.970 . S
Li1409 O1469 1.956 1_565 S
Li1409 O1471 1.961 . S
Li1410 N1455 1.990 . S
Li1410 O1468 1.961 . S
Li1410 O1470 1.956 1_565 S
Li1410 O1471 1.970 . S
Li1411 N1461 1.990 . S
Li1411 O1469 1.961 . S
Li1411 O1470 1.970 . S
Li1411 O1471 1.956 1_545 S
C1412 C1414 1.348 . S
C1412 C1415 1.356 . S
C1412 O1468 1.325 . S
N1413 C1416 1.314 . S
N1413 C1417 1.279 . S
C1414 C1412 1.348 . S
C1414 C1416 1.353 . S
C1414 H1472 0.929 . S
C1415 C1412 1.356 . S
C1415 C1417 1.358 . S
C1415 H1473 0.930 . S
C1416 N1413 1.314 . S
C1416 C1414 1.353 . S
C1416 H1474 0.930 . S
C1417 N1413 1.279 . S
C1417 C1415 1.358 . S
C1417 H1475 0.930 . S
C1418 C1421 1.348 . S
C1418 C1422 1.356 . S
C1418 O1469 1.325 . S
C1419 N1420 1.279 . S
C1419 C1422 1.358 . S
C1419 H1476 0.930 . S
N1420 C1419 1.279 . S
N1420 C1423 1.314 . S
C1421 C1418 1.348 . S
C1421 C1423 1.353 . S
C1421 H1477 0.929 . S
C1422 C1418 1.356 . S
C1422 C1419 1.358 . S
C1422 H1478 0.930 . S
C1423 N1420 1.314 . S
C1423 C1421 1.353 . S
C1423 H1479 0.930 . S
C1424 N1425 1.314 . S
C1424 C1429 1.353 . S
C1424 H1430 0.930 . S
N1425 Li1408 1.990 . S
N1425 C1424 1.314 . S
N1425 C1427 1.279 . S
C1426 C1427 1.358 . S
C1426 C1428 1.356 . S
C1426 H1480 0.930 . S
C1427 N1425 1.279 . S
C1427 C1426 1.358 . S
C1427 H1431 0.930 . S
C1428 C1426 1.356 . S
C1428 C1429 1.348 . S
C1429 C1424 1.353 . S
C1429 C1428 1.348 . S
C1429 H1481 0.929 . S
H1430 C1424 0.930 . S
H1431 C1427 0.930 . S
C1432 N1433 1.314 . S
C1432 C1434 1.353 . S
C1432 H1438 0.930 . S
N1433 Li1409 1.990 . S
N1433 C1432 1.314 . S
N1433 C1436 1.279 . S
C1434 C1432 1.353 . S
C1434 C1437 1.348 . S
C1434 H1482 0.929 . S
C1435 C1436 1.358 . S
C1435 C1437 1.356 . S
C1435 H1483 0.930 . S
C1436 N1433 1.279 . S
C1436 C1435 1.358 . S
C1436 H1439 0.930 1_565 S
C1437 C1434 1.348 . S
C1437 C1435 1.356 . S
H1438 C1432 0.930 . S
H1439 C1436 0.930 1_545 S
C1440 C1442 1.348 . S
C1440 C1443 1.356 . S
C1440 O1470 1.325 . S
N1441 C1444 1.314 . S
N1441 C1445 1.279 . S
C1442 C1440 1.348 . S
C1442 C1444 1.353 . S
C1442 H1484 0.929 . S
C1443 C1440 1.356 . S
C1443 C1445 1.358 . S
C1443 H1485 0.930 . S
C1444 N1441 1.314 . S
C1444 C1442 1.353 . S
C1444 H1486 0.930 . S
C1445 N1441 1.279 . S
C1445 C1443 1.358 . S
C1445 H1487 0.930 . S
C1446 C1447 1.348 . S
C1446 C1448 1.356 . S
C1446 O1471 1.325 . S
C1447 C1446 1.348 . S
C1447 C1449 1.353 . S
C1447 H1488 0.929 . S
C1448 C1446 1.356 . S
C1448 C1450 1.358 . S
C1448 H1489 0.930 . S
C1449 C1447 1.353 . S
C1449 N1451 1.314 . S
C1449 H1490 0.930 . S
C1450 C1448 1.358 . S
C1450 N1451 1.279 . S
C1450 H1491 0.930 . S
N1451 C1449 1.314 . S
N1451 C1450 1.279 . S
C1452 C1454 1.353 . S
C1452 N1455 1.314 . S
C1452 H1458 0.930 . S
C1453 N1455 1.279 . S
C1453 C1456 1.358 . S
C1453 H1459 0.930 . S
C1454 C1452 1.353 . S
C1454 C1457 1.348 . S
C1454 H1492 0.929 . S
N1455 Li1410 1.990 . S
N1455 C1452 1.314 . S
N1455 C1453 1.279 . S
C1456 C1453 1.358 . S
C1456 C1457 1.356 . S
C1456 H1493 0.930 . S
C1457 C1454 1.348 . S
C1457 C1456 1.356 . S
H1458 C1452 0.930 . S
H1459 C1453 0.930 . S
C1460 N1461 1.314 . S
C1460 C1462 1.353 . S
C1460 H1466 0.930 . S
N1461 Li1411 1.990 . S
N1461 C1460 1.314 . S
N1461 C1464 1.279 . S
C1462 C1460 1.353 . S
C1462 C1465 1.348 . S
C1462 H1494 0.929 . S
C1463 C1464 1.358 . S
C1463 C1465 1.356 . S
C1463 H1495 0.930 . S
C1464 N1461 1.279 . S
C1464 C1463 1.358 . S
C1464 H1467 0.930 1_545 S
C1465 C1462 1.348 . S
C1465 C1463 1.356 . S
H1466 C1460 0.930 . S
H1467 C1464 0.930 1_565 S
O1468 Li1408 1.956 1_565 S
O1468 Li1409 1.970 . S
O1468 Li1410 1.961 . S
O1468 C1412 1.325 . S
O1469 Li1408 1.970 . S
O1469 Li1409 1.956 1_545 S
O1469 Li1411 1.961 . S
O1469 C1418 1.325 . S
O1470 Li1408 1.961 . S
O1470 Li1410 1.956 1_545 S
O1470 Li1411 1.970 . S
O1470 C1440 1.325 . S
O1471 Li1409 1.961 . S
O1471 Li1410 1.970 . S
O1471 Li1411 1.956 1_565 S
O1471 C1446 1.325 . S
H1472 C1414 0.929 . S
H1473 C1415 0.930 . S
H1474 C1416 0.930 . S
H1475 C1417 0.930 . S
H1476 C1419 0.930 . S
H1477 C1421 0.929 . S
H1478 C1422 0.930 . S
H1479 C1423 0.930 . S
H1480 C1426 0.930 . S
H1481 C1429 0.929 . S
H1482 C1434 0.929 . S
H1483 C1435 0.930 . S
H1484 C1442 0.929 . S
H1485 C1443 0.930 . S
H1486 C1444 0.930 . S
H1487 C1445 0.930 . S
H1488 C1447 0.929 . S
H1489 C1448 0.930 . S
H1490 C1449 0.930 . S
H1491 C1450 0.930 . S
H1492 C1454 0.929 . S
H1493 C1456 0.930 . S
H1494 C1462 0.929 . S
H1495 C1463 0.930 . S
Li1496 N1513 1.990 . S
Li1496 O1556 1.956 . S
Li1496 O1557 1.970 . S
Li1496 O1558 1.961 . S
Li1497 N1521 1.990 . S
Li1497 O1556 1.970 . S
Li1497 O1557 1.956 . S
Li1497 O1559 1.961 . S
Li1498 N1543 1.990 . S
Li1498 O1556 1.961 . S
Li1498 O1558 1.956 . S
Li1498 O1559 1.970 . S
Li1499 N1549 1.990 . S
Li1499 O1557 1.961 . S
Li1499 O1558 1.970 . S
Li1499 O1559 1.956 . S
C1500 C1502 1.348 . S
C1500 C1503 1.356 . S
C1500 O1556 1.325 . S
N1501 C1504 1.314 . S
N1501 C1505 1.279 . S
C1502 C1500 1.348 . S
C1502 C1504 1.353 . S
C1502 H1560 0.929 . S
C1503 C1500 1.356 . S
C1503 C1505 1.358 . S
C1503 H1561 0.930 . S
C1504 N1501 1.314 . S
C1504 C1502 1.353 . S
C1504 H1562 0.930 . S
C1505 N1501 1.279 . S
C1505 C1503 1.358 . S
C1505 H1563 0.930 . S
C1506 C1509 1.348 . S
C1506 C1510 1.356 . S
C1506 O1557 1.325 . S
C1507 N1508 1.279 . S
C1507 C1510 1.358 . S
C1507 H1564 0.930 . S
N1508 C1507 1.279 . S
N1508 C1511 1.314 . S
C1509 C1506 1.348 . S
C1509 C1511 1.353 . S
C1509 H1565 0.929 . S
C1510 C1506 1.356 . S
C1510 C1507 1.358 . S
C1510 H1566 0.930 . S
C1511 N1508 1.314 . S
C1511 C1509 1.353 . S
C1511 H1567 0.930 . S
C1512 N1513 1.314 . S
C1512 C1517 1.353 . S
C1512 H1518 0.930 . S
N1513 Li1496 1.990 . S
N1513 C1512 1.314 . S
N1513 C1515 1.279 . S
C1514 C1515 1.358 . S
C1514 C1516 1.356 . S
C1514 H1568 0.930 . S
C1515 N1513 1.279 . S
C1515 C1514 1.358 . S
C1515 H1519 0.930 . S
C1516 C1514 1.356 . S
C1516 C1517 1.348 . S
C1517 C1512 1.353 . S
C1517 C1516 1.348 . S
C1517 H1569 0.929 . S
H1518 C1512 0.930 . S
H1519 C1515 0.930 . S
C1520 N1521 1.314 . S
C1520 C1522 1.353 . S
C1520 H1526 0.930 . S
N1521 Li1497 1.990 . S
N1521 C1520 1.314 . S
N1521 C1524 1.279 . S
C1522 C1520 1.353 . S
C1522 C1525 1.348 . S
C1522 H1570 0.929 . S
C1523 C1524 1.358 . S
C1523 C1525 1.356 . S
C1523 H1571 0.930 . S
C1524 N1521 1.279 . S
C1524 C1523 1.358 . S
C1524 H1527 0.930 . S
C1525 C1522 1.348 . S
C1525 C1523 1.356 . S
H1526 C1520 0.930 . S
H1527 C1524 0.930 . S
C1528 C1530 1.348 . S
C1528 C1531 1.356 . S
C1528 O1558 1.325 . S
N1529 C1532 1.314 . S
N1529 C1533 1.279 . S
C1530 C1528 1.348 . S
C1530 C1532 1.353 . S
C1530 H1572 0.929 . S
C1531 C1528 1.356 . S
C1531 C1533 1.358 . S
C1531 H1573 0.930 . S
C1532 N1529 1.314 . S
C1532 C1530 1.353 . S
C1532 H1574 0.930 . S
C1533 N1529 1.279 . S
C1533 C1531 1.358 . S
C1533 H1575 0.930 . S
C1534 C1535 1.348 . S
C1534 C1536 1.356 . S
C1534 O1559 1.325 . S
C1535 C1534 1.348 . S
C1535 C1537 1.353 . S
C1535 H1576 0.929 . S
C1536 C1534 1.356 . S
C1536 C1538 1.358 . S
C1536 H1577 0.930 . S
C1537 C1535 1.353 . S
C1537 N1539 1.314 . S
C1537 H1578 0.930 . S
C1538 C1536 1.358 . S
C1538 N1539 1.279 . S
C1538 H1579 0.930 . S
N1539 C1537 1.314 . S
N1539 C1538 1.279 . S
C1540 C1542 1.353 . S
C1540 N1543 1.314 . S
C1540 H1546 0.930 . S
C1541 N1543 1.279 . S
C1541 C1544 1.358 . S
C1541 H1547 0.930 . S
C1542 C1540 1.353 . S
C1542 C1545 1.348 . S
C1542 H1580 0.929 . S
N1543 Li1498 1.990 . S
N1543 C1540 1.314 . S
N1543 C1541 1.279 . S
C1544 C1541 1.358 . S
C1544 C1545 1.356 . S
C1544 H1581 0.930 . S
C1545 C1542 1.348 . S
C1545 C1544 1.356 . S
H1546 C1540 0.930 . S
H1547 C1541 0.930 . S
C1548 N1549 1.314 . S
C1548 C1550 1.353 . S
C1548 H1554 0.930 . S
N1549 Li1499 1.990 . S
N1549 C1548 1.314 . S
N1549 C1552 1.279 . S
C1550 C1548 1.353 . S
C1550 C1553 1.348 . S
C1550 H1582 0.929 . S
C1551 C1552 1.358 . S
C1551 C1553 1.356 . S
C1551 H1583 0.930 . S
C1552 N1549 1.279 . S
C1552 C1551 1.358 . S
C1552 H1555 0.930 . S
C1553 C1550 1.348 . S
C1553 C1551 1.356 . S
H1554 C1548 0.930 . S
H1555 C1552 0.930 . S
O1556 Li1496 1.956 . S
O1556 Li1497 1.970 . S
O1556 Li1498 1.961 . S
O1556 C1500 1.325 . S
O1557 Li1496 1.970 . S
O1557 Li1497 1.956 . S
O1557 Li1499 1.961 . S
O1557 C1506 1.325 . S
O1558 Li1496 1.961 . S
O1558 Li1498 1.956 . S
O1558 Li1499 1.970 . S
O1558 C1528 1.325 . S
O1559 Li1497 1.961 . S
O1559 Li1498 1.970 . S
O1559 Li1499 1.956 . S
O1559 C1534 1.325 . S
H1560 C1502 0.929 . S
H1561 C1503 0.930 . S
H1562 C1504 0.930 . S
H1563 C1505 0.930 . S
H1564 C1507 0.930 . S
H1565 C1509 0.929 . S
H1566 C1510 0.930 . S
H1567 C1511 0.930 . S
H1568 C1514 0.930 . S
H1569 C1517 0.929 . S
H1570 C1522 0.929 . S
H1571 C1523 0.930 . S
H1572 C1530 0.929 . S
H1573 C1531 0.930 . S
H1574 C1532 0.930 . S
H1575 C1533 0.930 . S
H1576 C1535 0.929 . S
H1577 C1536 0.930 . S
H1578 C1537 0.930 . S
H1579 C1538 0.930 . S
H1580 C1542 0.929 . S
H1581 C1544 0.930 . S
H1582 C1550 0.929 . S
H1583 C1551 0.930 . S
Li1584 N1601 1.990 . S
Li1584 O1644 1.956 . S
Li1584 O1645 1.970 . S
Li1584 O1646 1.961 . S
Li1585 N1609 1.990 . S
Li1585 O1644 1.970 . S
Li1585 O1645 1.956 . S
Li1585 O1647 1.961 . S
Li1586 N1631 1.990 . S
Li1586 O1644 1.961 . S
Li1586 O1646 1.956 . S
Li1586 O1647 1.970 . S
Li1587 N1637 1.990 . S
Li1587 O1645 1.961 . S
Li1587 O1646 1.970 . S
Li1587 O1647 1.956 . S
C1588 C1590 1.348 . S
C1588 C1591 1.356 . S
C1588 O1644 1.325 . S
N1589 C1592 1.314 . S
N1589 C1593 1.279 . S
C1590 C1588 1.348 . S
C1590 C1592 1.353 . S
C1590 H1648 0.929 . S
C1591 C1588 1.356 . S
C1591 C1593 1.358 . S
C1591 H1649 0.930 . S
C1592 N1589 1.314 . S
C1592 C1590 1.353 . S
C1592 H1650 0.930 . S
C1593 N1589 1.279 . S
C1593 C1591 1.358 . S
C1593 H1651 0.930 . S
C1594 C1597 1.348 . S
C1594 C1598 1.356 . S
C1594 O1645 1.325 . S
C1595 N1596 1.279 . S
C1595 C1598 1.358 . S
C1595 H1652 0.930 . S
N1596 C1595 1.279 . S
N1596 C1599 1.314 . S
C1597 C1594 1.348 . S
C1597 C1599 1.353 . S
C1597 H1653 0.929 . S
C1598 C1594 1.356 . S
C1598 C1595 1.358 . S
C1598 H1654 0.930 . S
C1599 N1596 1.314 . S
C1599 C1597 1.353 . S
C1599 H1655 0.930 . S
C1600 N1601 1.314 . S
C1600 C1605 1.353 . S
C1600 H1606 0.930 . S
N1601 Li1584 1.990 . S
N1601 C1600 1.314 . S
N1601 C1603 1.279 . S
C1602 C1603 1.358 . S
C1602 C1604 1.356 . S
C1602 H1656 0.930 . S
C1603 N1601 1.279 . S
C1603 C1602 1.358 . S
C1603 H1607 0.930 . S
C1604 C1602 1.356 . S
C1604 C1605 1.348 . S
C1605 C1600 1.353 . S
C1605 C1604 1.348 . S
C1605 H1657 0.929 . S
H1606 C1600 0.930 . S
H1607 C1603 0.930 . S
C1608 N1609 1.314 . S
C1608 C1610 1.353 . S
C1608 H1614 0.930 . S
N1609 Li1585 1.990 . S
N1609 C1608 1.314 . S
N1609 C1612 1.279 . S
C1610 C1608 1.353 . S
C1610 C1613 1.348 . S
C1610 H1658 0.929 . S
C1611 C1612 1.358 . S
C1611 C1613 1.356 . S
C1611 H1659 0.930 . S
C1612 N1609 1.279 . S
C1612 C1611 1.358 . S
C1612 H1615 0.930 . S
C1613 C1610 1.348 . S
C1613 C1611 1.356 . S
H1614 C1608 0.930 . S
H1615 C1612 0.930 . S
C1616 C1618 1.348 . S
C1616 C1619 1.356 . S
C1616 O1646 1.325 . S
N1617 C1620 1.314 . S
N1617 C1621 1.279 . S
C1618 C1616 1.348 . S
C1618 C1620 1.353 . S
C1618 H1660 0.929 . S
C1619 C1616 1.356 . S
C1619 C1621 1.358 . S
C1619 H1661 0.930 . S
C1620 N1617 1.314 . S
C1620 C1618 1.353 . S
C1620 H1662 0.930 . S
C1621 N1617 1.279 . S
C1621 C1619 1.358 . S
C1621 H1663 0.930 . S
C1622 C1623 1.348 . S
C1622 C1624 1.356 . S
C1622 O1647 1.325 . S
C1623 C1622 1.348 . S
C1623 C1625 1.353 . S
C1623 H1664 0.929 . S
C1624 C1622 1.356 . S
C1624 C1626 1.358 . S
C1624 H1665 0.930 . S
C1625 C1623 1.353 . S
C1625 N1627 1.314 . S
C1625 H1666 0.930 . S
C1626 C1624 1.358 . S
C1626 N1627 1.279 . S
C1626 H1667 0.930 . S
N1627 C1625 1.314 . S
N1627 C1626 1.279 . S
C1628 C1630 1.353 . S
C1628 N1631 1.314 . S
C1628 H1634 0.930 . S
C1629 N1631 1.279 . S
C1629 C1632 1.358 . S
C1629 H1635 0.930 . S
C1630 C1628 1.353 . S
C1630 C1633 1.348 . S
C1630 H1668 0.929 . S
N1631 Li1586 1.990 . S
N1631 C1628 1.314 . S
N1631 C1629 1.279 . S
C1632 C1629 1.358 . S
C1632 C1633 1.356 . S
C1632 H1669 0.930 . S
C1633 C1630 1.348 . S
C1633 C1632 1.356 . S
H1634 C1628 0.930 . S
H1635 C1629 0.930 . S
C1636 N1637 1.314 . S
C1636 C1638 1.353 . S
C1636 H1642 0.930 . S
N1637 Li1587 1.990 . S
N1637 C1636 1.314 . S
N1637 C1640 1.279 . S
C1638 C1636 1.353 . S
C1638 C1641 1.348 . S
C1638 H1670 0.929 . S
C1639 C1640 1.358 . S
C1639 C1641 1.356 . S
C1639 H1671 0.930 . S
C1640 N1637 1.279 . S
C1640 C1639 1.358 . S
C1640 H1643 0.930 . S
C1641 C1638 1.348 . S
C1641 C1639 1.356 . S
H1642 C1636 0.930 . S
H1643 C1640 0.930 . S
O1644 Li1584 1.956 . S
O1644 Li1585 1.970 . S
O1644 Li1586 1.961 . S
O1644 C1588 1.325 . S
O1645 Li1584 1.970 . S
O1645 Li1585 1.956 . S
O1645 Li1587 1.961 . S
O1645 C1594 1.325 . S
O1646 Li1584 1.961 . S
O1646 Li1586 1.956 . S
O1646 Li1587 1.970 . S
O1646 C1616 1.325 . S
O1647 Li1585 1.961 . S
O1647 Li1586 1.970 . S
O1647 Li1587 1.956 . S
O1647 C1622 1.325 . S
H1648 C1590 0.929 . S
H1649 C1591 0.930 . S
H1650 C1592 0.930 . S
H1651 C1593 0.930 . S
H1652 C1595 0.930 . S
H1653 C1597 0.929 . S
H1654 C1598 0.930 . S
H1655 C1599 0.930 . S
H1656 C1602 0.930 . S
H1657 C1605 0.929 . S
H1658 C1610 0.929 . S
H1659 C1611 0.930 . S
H1660 C1618 0.929 . S
H1661 C1619 0.930 . S
H1662 C1620 0.930 . S
H1663 C1621 0.930 . S
H1664 C1623 0.929 . S
H1665 C1624 0.930 . S
H1666 C1625 0.930 . S
H1667 C1626 0.930 . S
H1668 C1630 0.929 . S
H1669 C1632 0.930 . S
H1670 C1638 0.929 . S
H1671 C1639 0.930 . S
Li1672 N1689 1.990 . S
Li1672 O1732 1.956 1_545 S
Li1672 O1733 1.970 . S
Li1672 O1734 1.961 . S
Li1673 N1697 1.990 . S
Li1673 O1732 1.970 . S
Li1673 O1733 1.956 1_565 S
Li1673 O1735 1.961 . S
Li1674 N1719 1.990 . S
Li1674 O1732 1.961 . S
Li1674 O1734 1.956 1_565 S
Li1674 O1735 1.970 . S
Li1675 N1725 1.990 . S
Li1675 O1733 1.961 . S
Li1675 O1734 1.970 . S
Li1675 O1735 1.956 1_545 S
C1676 C1678 1.348 . S
C1676 C1679 1.356 . S
C1676 O1732 1.325 . S
N1677 C1680 1.314 . S
N1677 C1681 1.279 . S
C1678 C1676 1.348 . S
C1678 C1680 1.353 . S
C1678 H1736 0.929 . S
C1679 C1676 1.356 . S
C1679 C1681 1.358 . S
C1679 H1737 0.930 . S
C1680 N1677 1.314 . S
C1680 C1678 1.353 . S
C1680 H1738 0.930 . S
C1681 N1677 1.279 . S
C1681 C1679 1.358 . S
C1681 H1739 0.930 . S
C1682 C1685 1.348 . S
C1682 C1686 1.356 . S
C1682 O1733 1.325 . S
C1683 N1684 1.279 . S
C1683 C1686 1.358 . S
C1683 H1740 0.930 . S
N1684 C1683 1.279 . S
N1684 C1687 1.314 . S
C1685 C1682 1.348 . S
C1685 C1687 1.353 . S
C1685 H1741 0.929 . S
C1686 C1682 1.356 . S
C1686 C1683 1.358 . S
C1686 H1742 0.930 . S
C1687 N1684 1.314 . S
C1687 C1685 1.353 . S
C1687 H1743 0.930 . S
C1688 N1689 1.314 . S
C1688 C1693 1.353 . S
C1688 H1694 0.930 . S
N1689 Li1672 1.990 . S
N1689 C1688 1.314 . S
N1689 C1691 1.279 . S
C1690 C1691 1.358 . S
C1690 C1692 1.356 . S
C1690 H1744 0.930 . S
C1691 N1689 1.279 . S
C1691 C1690 1.358 . S
C1691 H1695 0.930 1_545 S
C1692 C1690 1.356 . S
C1692 C1693 1.348 . S
C1693 C1688 1.353 . S
C1693 C1692 1.348 . S
C1693 H1745 0.929 . S
H1694 C1688 0.930 . S
H1695 C1691 0.930 1_565 S
C1696 N1697 1.314 . S
C1696 C1698 1.353 . S
C1696 H1702 0.930 . S
N1697 Li1673 1.990 . S
N1697 C1696 1.314 . S
N1697 C1700 1.279 . S
C1698 C1696 1.353 . S
C1698 C1701 1.348 . S
C1698 H1746 0.929 . S
C1699 C1700 1.358 . S
C1699 C1701 1.356 . S
C1699 H1747 0.930 . S
C1700 N1697 1.279 . S
C1700 C1699 1.358 . S
C1700 H1703 0.930 . S
C1701 C1698 1.348 . S
C1701 C1699 1.356 . S
H1702 C1696 0.930 . S
H1703 C1700 0.930 . S
C1704 C1706 1.348 . S
C1704 C1707 1.356 . S
C1704 O1734 1.325 . S
N1705 C1708 1.314 . S
N1705 C1709 1.279 . S
C1706 C1704 1.348 . S
C1706 C1708 1.353 . S
C1706 H1748 0.929 . S
C1707 C1704 1.356 . S
C1707 C1709 1.358 . S
C1707 H1749 0.930 . S
C1708 N1705 1.314 . S
C1708 C1706 1.353 . S
C1708 H1750 0.930 . S
C1709 N1705 1.279 . S
C1709 C1707 1.358 . S
C1709 H1751 0.930 . S
C1710 C1711 1.348 . S
C1710 C1712 1.356 . S
C1710 O1735 1.325 . S
C1711 C1710 1.348 . S
C1711 C1713 1.353 . S
C1711 H1752 0.929 . S
C1712 C1710 1.356 . S
C1712 C1714 1.358 . S
C1712 H1753 0.930 . S
C1713 C1711 1.353 . S
C1713 N1715 1.314 . S
C1713 H1754 0.930 . S
C1714 C1712 1.358 . S
C1714 N1715 1.279 . S
C1714 H1755 0.930 . S
N1715 C1713 1.314 . S
N1715 C1714 1.279 . S
C1716 C1718 1.353 . S
C1716 N1719 1.314 . S
C1716 H1722 0.930 . S
C1717 N1719 1.279 . S
C1717 C1720 1.358 . S
C1717 H1723 0.930 1_565 S
C1718 C1716 1.353 . S
C1718 C1721 1.348 . S
C1718 H1756 0.929 . S
N1719 Li1674 1.990 . S
N1719 C1716 1.314 . S
N1719 C1717 1.279 . S
C1720 C1717 1.358 . S
C1720 C1721 1.356 . S
C1720 H1757 0.930 . S
C1721 C1718 1.348 . S
C1721 C1720 1.356 . S
H1722 C1716 0.930 . S
H1723 C1717 0.930 1_545 S
C1724 N1725 1.314 . S
C1724 C1726 1.353 . S
C1724 H1730 0.930 . S
N1725 Li1675 1.990 . S
N1725 C1724 1.314 . S
N1725 C1728 1.279 . S
C1726 C1724 1.353 . S
C1726 C1729 1.348 . S
C1726 H1758 0.929 . S
C1727 C1728 1.358 . S
C1727 C1729 1.356 . S
C1727 H1759 0.930 . S
C1728 N1725 1.279 . S
C1728 C1727 1.358 . S
C1728 H1731 0.930 . S
C1729 C1726 1.348 . S
C1729 C1727 1.356 . S
H1730 C1724 0.930 . S
H1731 C1728 0.930 . S
O1732 Li1672 1.956 1_565 S
O1732 Li1673 1.970 . S
O1732 Li1674 1.961 . S
O1732 C1676 1.325 . S
O1733 Li1672 1.970 . S
O1733 Li1673 1.956 1_545 S
O1733 Li1675 1.961 . S
O1733 C1682 1.325 . S
O1734 Li1672 1.961 . S
O1734 Li1674 1.956 1_545 S
O1734 Li1675 1.970 . S
O1734 C1704 1.325 . S
O1735 Li1673 1.961 . S
O1735 Li1674 1.970 . S
O1735 Li1675 1.956 1_565 S
O1735 C1710 1.325 . S
H1736 C1678 0.929 . S
H1737 C1679 0.930 . S
H1738 C1680 0.930 . S
H1739 C1681 0.930 . S
H1740 C1683 0.930 . S
H1741 C1685 0.929 . S
H1742 C1686 0.930 . S
H1743 C1687 0.930 . S
H1744 C1690 0.930 . S
H1745 C1693 0.929 . S
H1746 C1698 0.929 . S
H1747 C1699 0.930 . S
H1748 C1706 0.929 . S
H1749 C1707 0.930 . S
H1750 C1708 0.930 . S
H1751 C1709 0.930 . S
H1752 C1711 0.929 . S
H1753 C1712 0.930 . S
H1754 C1713 0.930 . S
H1755 C1714 0.930 . S
H1756 C1718 0.929 . S
H1757 C1720 0.930 . S
H1758 C1726 0.929 . S
H1759 C1727 0.930 . S
Li1760 N1777 1.990 . S
Li1760 O1820 1.956 1_556 S
Li1760 O1821 1.970 . S
Li1760 O1822 1.961 . S
Li1761 N1785 1.990 . S
Li1761 O1820 1.970 . S
Li1761 O1821 1.956 1_554 S
Li1761 O1823 1.961 . S
Li1762 N1807 1.990 . S
Li1762 O1820 1.961 . S
Li1762 O1822 1.956 1_554 S
Li1762 O1823 1.970 . S
Li1763 N1813 1.990 . S
Li1763 O1821 1.961 . S
Li1763 O1822 1.970 . S
Li1763 O1823 1.956 1_556 S
C1764 C1766 1.348 . S
C1764 C1767 1.356 . S
C1764 O1820 1.325 . S
N1765 C1768 1.314 . S
N1765 C1769 1.279 . S
C1766 C1764 1.348 . S
C1766 C1768 1.353 . S
C1766 H1824 0.929 . S
C1767 C1764 1.356 . S
C1767 C1769 1.358 . S
C1767 H1825 0.930 . S
C1768 N1765 1.314 . S
C1768 C1766 1.353 . S
C1768 H1826 0.930 . S
C1769 N1765 1.279 . S
C1769 C1767 1.358 . S
C1769 H1827 0.930 . S
C1770 C1773 1.348 . S
C1770 C1774 1.356 . S
C1770 O1821 1.325 . S
C1771 N1772 1.279 . S
C1771 C1774 1.358 . S
C1771 H1828 0.930 . S
N1772 C1771 1.279 . S
N1772 C1775 1.314 . S
C1773 C1770 1.348 . S
C1773 C1775 1.353 . S
C1773 H1829 0.929 . S
C1774 C1770 1.356 . S
C1774 C1771 1.358 . S
C1774 H1830 0.930 . S
C1775 N1772 1.314 . S
C1775 C1773 1.353 . S
C1775 H1831 0.930 . S
C1776 N1777 1.314 . S
C1776 C1781 1.353 . S
C1776 H1782 0.930 . S
N1777 Li1760 1.990 . S
N1777 C1776 1.314 . S
N1777 C1779 1.279 . S
C1778 C1779 1.358 . S
C1778 C1780 1.356 . S
C1778 H1832 0.930 . S
C1779 N1777 1.279 . S
C1779 C1778 1.358 . S
C1779 H1783 0.930 . S
C1780 C1778 1.356 . S
C1780 C1781 1.348 . S
C1781 C1776 1.353 . S
C1781 C1780 1.348 . S
C1781 H1833 0.929 . S
H1782 C1776 0.930 . S
H1783 C1779 0.930 . S
C1784 N1785 1.314 . S
C1784 C1786 1.353 . S
C1784 H1790 0.930 . S
N1785 Li1761 1.990 . S
N1785 C1784 1.314 . S
N1785 C1788 1.279 . S
C1786 C1784 1.353 . S
C1786 C1789 1.348 . S
C1786 H1834 0.929 . S
C1787 C1788 1.358 . S
C1787 C1789 1.356 . S
C1787 H1835 0.930 . S
C1788 N1785 1.279 . S
C1788 C1787 1.358 . S
C1788 H1791 0.930 1_554 S
C1789 C1786 1.348 . S
C1789 C1787 1.356 . S
H1790 C1784 0.930 . S
H1791 C1788 0.930 1_556 S
C1792 C1794 1.348 . S
C1792 C1795 1.356 . S
C1792 O1822 1.325 . S
N1793 C1796 1.314 . S
N1793 C1797 1.279 . S
C1794 C1792 1.348 . S
C1794 C1796 1.353 . S
C1794 H1836 0.929 . S
C1795 C1792 1.356 . S
C1795 C1797 1.358 . S
C1795 H1837 0.930 . S
C1796 N1793 1.314 . S
C1796 C1794 1.353 . S
C1796 H1838 0.930 . S
C1797 N1793 1.279 . S
C1797 C1795 1.358 . S
C1797 H1839 0.930 . S
C1798 C1799 1.348 . S
C1798 C1800 1.356 . S
C1798 O1823 1.325 . S
C1799 C1798 1.348 . S
C1799 C1801 1.353 . S
C1799 H1840 0.929 . S
C1800 C1798 1.356 . S
C1800 C1802 1.358 . S
C1800 H1841 0.930 . S
C1801 C1799 1.353 . S
C1801 N1803 1.314 . S
C1801 H1842 0.930 . S
C1802 C1800 1.358 . S
C1802 N1803 1.279 . S
C1802 H1843 0.930 . S
N1803 C1801 1.314 . S
N1803 C1802 1.279 . S
C1804 C1806 1.353 . S
C1804 N1807 1.314 . S
C1804 H1810 0.930 . S
C1805 N1807 1.279 . S
C1805 C1808 1.358 . S
C1805 H1811 0.930 . S
C1806 C1804 1.353 . S
C1806 C1809 1.348 . S
C1806 H1844 0.929 . S
N1807 Li1762 1.990 . S
N1807 C1804 1.314 . S
N1807 C1805 1.279 . S
C1808 C1805 1.358 . S
C1808 C1809 1.356 . S
C1808 H1845 0.930 . S
C1809 C1806 1.348 . S
C1809 C1808 1.356 . S
H1810 C1804 0.930 . S
H1811 C1805 0.930 . S
C1812 N1813 1.314 . S
C1812 C1814 1.353 . S
C1812 H1818 0.930 . S
N1813 Li1763 1.990 . S
N1813 C1812 1.314 . S
N1813 C1816 1.279 . S
C1814 C1812 1.353 . S
C1814 C1817 1.348 . S
C1814 H1846 0.929 . S
C1815 C1816 1.358 . S
C1815 C1817 1.356 . S
C1815 H1847 0.930 . S
C1816 N1813 1.279 . S
C1816 C1815 1.358 . S
C1816 H1819 0.930 1_556 S
C1817 C1814 1.348 . S
C1817 C1815 1.356 . S
H1818 C1812 0.930 . S
H1819 C1816 0.930 1_554 S
O1820 Li1760 1.956 1_554 S
O1820 Li1761 1.970 . S
O1820 Li1762 1.961 . S
O1820 C1764 1.325 . S
O1821 Li1760 1.970 . S
O1821 Li1761 1.956 1_556 S
O1821 Li1763 1.961 . S
O1821 C1770 1.325 . S
O1822 Li1760 1.961 . S
O1822 Li1762 1.956 1_556 S
O1822 Li1763 1.970 . S
O1822 C1792 1.325 . S
O1823 Li1761 1.961 . S
O1823 Li1762 1.970 . S
O1823 Li1763 1.956 1_554 S
O1823 C1798 1.325 . S
H1824 C1766 0.929 . S
H1825 C1767 0.930 . S
H1826 C1768 0.930 . S
H1827 C1769 0.930 . S
H1828 C1771 0.930 . S
H1829 C1773 0.929 . S
H1830 C1774 0.930 . S
H1831 C1775 0.930 . S
H1832 C1778 0.930 . S
H1833 C1781 0.929 . S
H1834 C1786 0.929 . S
H1835 C1787 0.930 . S
H1836 C1794 0.929 . S
H1837 C1795 0.930 . S
H1838 C1796 0.930 . S
H1839 C1797 0.930 . S
H1840 C1799 0.929 . S
H1841 C1800 0.930 . S
H1842 C1801 0.930 . S
H1843 C1802 0.930 . S
H1844 C1806 0.929 . S
H1845 C1808 0.930 . S
H1846 C1814 0.929 . S
H1847 C1815 0.930 . S
Li1848 N1865 1.990 . S
Li1848 O1908 1.956 . S
Li1848 O1909 1.970 . S
Li1848 O1910 1.961 . S
Li1849 N1873 1.990 . S
Li1849 O1908 1.970 . S
Li1849 O1909 1.956 . S
Li1849 O1911 1.961 . S
Li1850 N1895 1.990 . S
Li1850 O1908 1.961 . S
Li1850 O1910 1.956 . S
Li1850 O1911 1.970 . S
Li1851 N1901 1.990 . S
Li1851 O1909 1.961 . S
Li1851 O1910 1.970 . S
Li1851 O1911 1.956 . S
C1852 C1854 1.348 . S
C1852 C1855 1.356 . S
C1852 O1908 1.325 . S
N1853 C1856 1.314 . S
N1853 C1857 1.279 . S
C1854 C1852 1.348 . S
C1854 C1856 1.353 . S
C1854 H1912 0.929 . S
C1855 C1852 1.356 . S
C1855 C1857 1.358 . S
C1855 H1913 0.930 . S
C1856 N1853 1.314 . S
C1856 C1854 1.353 . S
C1856 H1914 0.930 . S
C1857 N1853 1.279 . S
C1857 C1855 1.358 . S
C1857 H1915 0.930 . S
C1858 C1861 1.348 . S
C1858 C1862 1.356 . S
C1858 O1909 1.325 . S
C1859 N1860 1.279 . S
C1859 C1862 1.358 . S
C1859 H1916 0.930 . S
N1860 C1859 1.279 . S
N1860 C1863 1.314 . S
C1861 C1858 1.348 . S
C1861 C1863 1.353 . S
C1861 H1917 0.929 . S
C1862 C1858 1.356 . S
C1862 C1859 1.358 . S
C1862 H1918 0.930 . S
C1863 N1860 1.314 . S
C1863 C1861 1.353 . S
C1863 H1919 0.930 . S
C1864 N1865 1.314 . S
C1864 C1869 1.353 . S
C1864 H1870 0.930 . S
N1865 Li1848 1.990 . S
N1865 C1864 1.314 . S
N1865 C1867 1.279 . S
C1866 C1867 1.358 . S
C1866 C1868 1.356 . S
C1866 H1920 0.930 . S
C1867 N1865 1.279 . S
C1867 C1866 1.358 . S
C1867 H1871 0.930 . S
C1868 C1866 1.356 . S
C1868 C1869 1.348 . S
C1869 C1864 1.353 . S
C1869 C1868 1.348 . S
C1869 H1921 0.929 . S
H1870 C1864 0.930 . S
H1871 C1867 0.930 . S
C1872 N1873 1.314 . S
C1872 C1874 1.353 . S
C1872 H1878 0.930 . S
N1873 Li1849 1.990 . S
N1873 C1872 1.314 . S
N1873 C1876 1.279 . S
C1874 C1872 1.353 . S
C1874 C1877 1.348 . S
C1874 H1922 0.929 . S
C1875 C1876 1.358 . S
C1875 C1877 1.356 . S
C1875 H1923 0.930 . S
C1876 N1873 1.279 . S
C1876 C1875 1.358 . S
C1876 H1879 0.930 . S
C1877 C1874 1.348 . S
C1877 C1875 1.356 . S
H1878 C1872 0.930 . S
H1879 C1876 0.930 . S
C1880 C1882 1.348 . S
C1880 C1883 1.356 . S
C1880 O1910 1.325 . S
N1881 C1884 1.314 . S
N1881 C1885 1.279 . S
C1882 C1880 1.348 . S
C1882 C1884 1.353 . S
C1882 H1924 0.929 . S
C1883 C1880 1.356 . S
C1883 C1885 1.358 . S
C1883 H1925 0.930 . S
C1884 N1881 1.314 . S
C1884 C1882 1.353 . S
C1884 H1926 0.930 . S
C1885 N1881 1.279 . S
C1885 C1883 1.358 . S
C1885 H1927 0.930 . S
C1886 C1887 1.348 . S
C1886 C1888 1.356 . S
C1886 O1911 1.325 . S
C1887 C1886 1.348 . S
C1887 C1889 1.353 . S
C1887 H1928 0.929 . S
C1888 C1886 1.356 . S
C1888 C1890 1.358 . S
C1888 H1929 0.930 . S
C1889 C1887 1.353 . S
C1889 N1891 1.314 . S
C1889 H1930 0.930 . S
C1890 C1888 1.358 . S
C1890 N1891 1.279 . S
C1890 H1931 0.930 . S
N1891 C1889 1.314 . S
N1891 C1890 1.279 . S
C1892 C1894 1.353 . S
C1892 N1895 1.314 . S
C1892 H1898 0.930 . S
C1893 N1895 1.279 . S
C1893 C1896 1.358 . S
C1893 H1899 0.930 . S
C1894 C1892 1.353 . S
C1894 C1897 1.348 . S
C1894 H1932 0.929 . S
N1895 Li1850 1.990 . S
N1895 C1892 1.314 . S
N1895 C1893 1.279 . S
C1896 C1893 1.358 . S
C1896 C1897 1.356 . S
C1896 H1933 0.930 . S
C1897 C1894 1.348 . S
C1897 C1896 1.356 . S
H1898 C1892 0.930 . S
H1899 C1893 0.930 . S
C1900 N1901 1.314 . S
C1900 C1902 1.353 . S
C1900 H1906 0.930 . S
N1901 Li1851 1.990 . S
N1901 C1900 1.314 . S
N1901 C1904 1.279 . S
C1902 C1900 1.353 . S
C1902 C1905 1.348 . S
C1902 H1934 0.929 . S
C1903 C1904 1.358 . S
C1903 C1905 1.356 . S
C1903 H1935 0.930 . S
C1904 N1901 1.279 . S
C1904 C1903 1.358 . S
C1904 H1907 0.930 . S
C1905 C1902 1.348 . S
C1905 C1903 1.356 . S
H1906 C1900 0.930 . S
H1907 C1904 0.930 . S
O1908 Li1848 1.956 . S
O1908 Li1849 1.970 . S
O1908 Li1850 1.961 . S
O1908 C1852 1.325 . S
O1909 Li1848 1.970 . S
O1909 Li1849 1.956 . S
O1909 Li1851 1.961 . S
O1909 C1858 1.325 . S
O1910 Li1848 1.961 . S
O1910 Li1850 1.956 . S
O1910 Li1851 1.970 . S
O1910 C1880 1.325 . S
O1911 Li1849 1.961 . S
O1911 Li1850 1.970 . S
O1911 Li1851 1.956 . S
O1911 C1886 1.325 . S
H1912 C1854 0.929 . S
H1913 C1855 0.930 . S
H1914 C1856 0.930 . S
H1915 C1857 0.930 . S
H1916 C1859 0.930 . S
H1917 C1861 0.929 . S
H1918 C1862 0.930 . S
H1919 C1863 0.930 . S
H1920 C1866 0.930 . S
H1921 C1869 0.929 . S
H1922 C1874 0.929 . S
H1923 C1875 0.930 . S
H1924 C1882 0.929 . S
H1925 C1883 0.930 . S
H1926 C1884 0.930 . S
H1927 C1885 0.930 . S
H1928 C1887 0.929 . S
H1929 C1888 0.930 . S
H1930 C1889 0.930 . S
H1931 C1890 0.930 . S
H1932 C1894 0.929 . S
H1933 C1896 0.930 . S
H1934 C1902 0.929 . S
H1935 C1903 0.930 . S
Li1936 N1953 1.990 . S
Li1936 O1996 1.956 . S
Li1936 O1997 1.970 . S
Li1936 O1998 1.961 . S
Li1937 N1961 1.990 . S
Li1937 O1996 1.970 . S
Li1937 O1997 1.956 . S
Li1937 O1999 1.961 . S
Li1938 N1983 1.990 . S
Li1938 O1996 1.961 . S
Li1938 O1998 1.956 . S
Li1938 O1999 1.970 . S
Li1939 N1989 1.990 . S
Li1939 O1997 1.961 . S
Li1939 O1998 1.970 . S
Li1939 O1999 1.956 . S
C1940 C1942 1.348 . S
C1940 C1943 1.356 . S
C1940 O1996 1.325 . S
N1941 C1944 1.314 . S
N1941 C1945 1.279 . S
C1942 C1940 1.348 . S
C1942 C1944 1.353 . S
C1942 H2000 0.929 . S
C1943 C1940 1.356 . S
C1943 C1945 1.358 . S
C1943 H2001 0.930 . S
C1944 N1941 1.314 . S
C1944 C1942 1.353 . S
C1944 H2002 0.930 . S
C1945 N1941 1.279 . S
C1945 C1943 1.358 . S
C1945 H2003 0.930 . S
C1946 C1949 1.348 . S
C1946 C1950 1.356 . S
C1946 O1997 1.325 . S
C1947 N1948 1.279 . S
C1947 C1950 1.358 . S
C1947 H2004 0.930 . S
N1948 C1947 1.279 . S
N1948 C1951 1.314 . S
C1949 C1946 1.348 . S
C1949 C1951 1.353 . S
C1949 H2005 0.929 . S
C1950 C1946 1.356 . S
C1950 C1947 1.358 . S
C1950 H2006 0.930 . S
C1951 N1948 1.314 . S
C1951 C1949 1.353 . S
C1951 H2007 0.930 . S
C1952 N1953 1.314 . S
C1952 C1957 1.353 . S
C1952 H1958 0.930 . S
N1953 Li1936 1.990 . S
N1953 C1952 1.314 . S
N1953 C1955 1.279 . S
C1954 C1955 1.358 . S
C1954 C1956 1.356 . S
C1954 H2008 0.930 . S
C1955 N1953 1.279 . S
C1955 C1954 1.358 . S
C1955 H1959 0.930 . S
C1956 C1954 1.356 . S
C1956 C1957 1.348 . S
C1957 C1952 1.353 . S
C1957 C1956 1.348 . S
C1957 H2009 0.929 . S
H1958 C1952 0.930 . S
H1959 C1955 0.930 . S
C1960 N1961 1.314 . S
C1960 C1962 1.353 . S
C1960 H1966 0.930 . S
N1961 Li1937 1.990 . S
N1961 C1960 1.314 . S
N1961 C1964 1.279 . S
C1962 C1960 1.353 . S
C1962 C1965 1.348 . S
C1962 H2010 0.929 . S
C1963 C1964 1.358 . S
C1963 C1965 1.356 . S
C1963 H2011 0.930 . S
C1964 N1961 1.279 . S
C1964 C1963 1.358 . S
C1964 H1967 0.930 . S
C1965 C1962 1.348 . S
C1965 C1963 1.356 . S
H1966 C1960 0.930 . S
H1967 C1964 0.930 . S
C1968 C1970 1.348 . S
C1968 C1971 1.356 . S
C1968 O1998 1.325 . S
N1969 C1972 1.314 . S
N1969 C1973 1.279 . S
C1970 C1968 1.348 . S
C1970 C1972 1.353 . S
C1970 H2012 0.929 . S
C1971 C1968 1.356 . S
C1971 C1973 1.358 . S
C1971 H2013 0.930 . S
C1972 N1969 1.314 . S
C1972 C1970 1.353 . S
C1972 H2014 0.930 . S
C1973 N1969 1.279 . S
C1973 C1971 1.358 . S
C1973 H2015 0.930 . S
C1974 C1975 1.348 . S
C1974 C1976 1.356 . S
C1974 O1999 1.325 . S
C1975 C1974 1.348 . S
C1975 C1977 1.353 . S
C1975 H2016 0.929 . S
C1976 C1974 1.356 . S
C1976 C1978 1.358 . S
C1976 H2017 0.930 . S
C1977 C1975 1.353 . S
C1977 N1979 1.314 . S
C1977 H2018 0.930 . S
C1978 C1976 1.358 . S
C1978 N1979 1.279 . S
C1978 H2019 0.930 . S
N1979 C1977 1.314 . S
N1979 C1978 1.279 . S
C1980 C1982 1.353 . S
C1980 N1983 1.314 . S
C1980 H1986 0.930 . S
C1981 N1983 1.279 . S
C1981 C1984 1.358 . S
C1981 H1987 0.930 . S
C1982 C1980 1.353 . S
C1982 C1985 1.348 . S
C1982 H2020 0.929 . S
N1983 Li1938 1.990 . S
N1983 C1980 1.314 . S
N1983 C1981 1.279 . S
C1984 C1981 1.358 . S
C1984 C1985 1.356 . S
C1984 H2021 0.930 . S
C1985 C1982 1.348 . S
C1985 C1984 1.356 . S
H1986 C1980 0.930 . S
H1987 C1981 0.930 . S
C1988 N1989 1.314 . S
C1988 C1990 1.353 . S
C1988 H1994 0.930 . S
N1989 Li1939 1.990 . S
N1989 C1988 1.314 . S
N1989 C1992 1.279 . S
C1990 C1988 1.353 . S
C1990 C1993 1.348 . S
C1990 H2022 0.929 . S
C1991 C1992 1.358 . S
C1991 C1993 1.356 . S
C1991 H2023 0.930 . S
C1992 N1989 1.279 . S
C1992 C1991 1.358 . S
C1992 H1995 0.930 . S
C1993 C1990 1.348 . S
C1993 C1991 1.356 . S
H1994 C1988 0.930 . S
H1995 C1992 0.930 . S
O1996 Li1936 1.956 . S
O1996 Li1937 1.970 . S
O1996 Li1938 1.961 . S
O1996 C1940 1.325 . S
O1997 Li1936 1.970 . S
O1997 Li1937 1.956 . S
O1997 Li1939 1.961 . S
O1997 C1946 1.325 . S
O1998 Li1936 1.961 . S
O1998 Li1938 1.956 . S
O1998 Li1939 1.970 . S
O1998 C1968 1.325 . S
O1999 Li1937 1.961 . S
O1999 Li1938 1.970 . S
O1999 Li1939 1.956 . S
O1999 C1974 1.325 . S
H2000 C1942 0.929 . S
H2001 C1943 0.930 . S
H2002 C1944 0.930 . S
H2003 C1945 0.930 . S
H2004 C1947 0.930 . S
H2005 C1949 0.929 . S
H2006 C1950 0.930 . S
H2007 C1951 0.930 . S
H2008 C1954 0.930 . S
H2009 C1957 0.929 . S
H2010 C1962 0.929 . S
H2011 C1963 0.930 . S
H2012 C1970 0.929 . S
H2013 C1971 0.930 . S
H2014 C1972 0.930 . S
H2015 C1973 0.930 . S
H2016 C1975 0.929 . S
H2017 C1976 0.930 . S
H2018 C1977 0.930 . S
H2019 C1978 0.930 . S
H2020 C1982 0.929 . S
H2021 C1984 0.930 . S
H2022 C1990 0.929 . S
H2023 C1991 0.930 . S
Li2024 N2041 1.990 . S
Li2024 O2084 1.956 . S
Li2024 O2085 1.970 . S
Li2024 O2086 1.961 . S
Li2025 N2049 1.990 . S
Li2025 O2084 1.970 . S
Li2025 O2085 1.956 . S
Li2025 O2087 1.961 . S
Li2026 N2071 1.990 . S
Li2026 O2084 1.961 . S
Li2026 O2086 1.956 . S
Li2026 O2087 1.970 . S
Li2027 N2077 1.990 . S
Li2027 O2085 1.961 . S
Li2027 O2086 1.970 . S
Li2027 O2087 1.956 . S
C2028 C2030 1.348 . S
C2028 C2031 1.356 . S
C2028 O2084 1.325 . S
N2029 C2032 1.314 . S
N2029 C2033 1.279 . S
C2030 C2028 1.348 . S
C2030 C2032 1.353 . S
C2030 H2088 0.929 . S
C2031 C2028 1.356 . S
C2031 C2033 1.358 . S
C2031 H2089 0.930 . S
C2032 N2029 1.314 . S
C2032 C2030 1.353 . S
C2032 H2090 0.930 . S
C2033 N2029 1.279 . S
C2033 C2031 1.358 . S
C2033 H2091 0.930 . S
C2034 C2037 1.348 . S
C2034 C2038 1.356 . S
C2034 O2085 1.325 . S
C2035 N2036 1.279 . S
C2035 C2038 1.358 . S
C2035 H2092 0.930 . S
N2036 C2035 1.279 . S
N2036 C2039 1.314 . S
C2037 C2034 1.348 . S
C2037 C2039 1.353 . S
C2037 H2093 0.929 . S
C2038 C2034 1.356 . S
C2038 C2035 1.358 . S
C2038 H2094 0.930 . S
C2039 N2036 1.314 . S
C2039 C2037 1.353 . S
C2039 H2095 0.930 . S
C2040 N2041 1.314 . S
C2040 C2045 1.353 . S
C2040 H2046 0.930 . S
N2041 Li2024 1.990 . S
N2041 C2040 1.314 . S
N2041 C2043 1.279 . S
C2042 C2043 1.358 . S
C2042 C2044 1.356 . S
C2042 H2096 0.930 . S
C2043 N2041 1.279 . S
C2043 C2042 1.358 . S
C2043 H2047 0.930 . S
C2044 C2042 1.356 . S
C2044 C2045 1.348 . S
C2045 C2040 1.353 . S
C2045 C2044 1.348 . S
C2045 H2097 0.929 . S
H2046 C2040 0.930 . S
H2047 C2043 0.930 . S
C2048 N2049 1.314 . S
C2048 C2050 1.353 . S
C2048 H2054 0.930 . S
N2049 Li2025 1.990 . S
N2049 C2048 1.314 . S
N2049 C2052 1.279 . S
C2050 C2048 1.353 . S
C2050 C2053 1.348 . S
C2050 H2098 0.929 . S
C2051 C2052 1.358 . S
C2051 C2053 1.356 . S
C2051 H2099 0.930 . S
C2052 N2049 1.279 . S
C2052 C2051 1.358 . S
C2052 H2055 0.930 . S
C2053 C2050 1.348 . S
C2053 C2051 1.356 . S
H2054 C2048 0.930 . S
H2055 C2052 0.930 . S
C2056 C2058 1.348 . S
C2056 C2059 1.356 . S
C2056 O2086 1.325 . S
N2057 C2060 1.314 . S
N2057 C2061 1.279 . S
C2058 C2056 1.348 . S
C2058 C2060 1.353 . S
C2058 H2100 0.929 . S
C2059 C2056 1.356 . S
C2059 C2061 1.358 . S
C2059 H2101 0.930 . S
C2060 N2057 1.314 . S
C2060 C2058 1.353 . S
C2060 H2102 0.930 . S
C2061 N2057 1.279 . S
C2061 C2059 1.358 . S
C2061 H2103 0.930 . S
C2062 C2063 1.348 . S
C2062 C2064 1.356 . S
C2062 O2087 1.325 . S
C2063 C2062 1.348 . S
C2063 C2065 1.353 . S
C2063 H2104 0.929 . S
C2064 C2062 1.356 . S
C2064 C2066 1.358 . S
C2064 H2105 0.930 . S
C2065 C2063 1.353 . S
C2065 N2067 1.314 . S
C2065 H2106 0.930 . S
C2066 C2064 1.358 . S
C2066 N2067 1.279 . S
C2066 H2107 0.930 . S
N2067 C2065 1.314 . S
N2067 C2066 1.279 . S
C2068 C2070 1.353 . S
C2068 N2071 1.314 . S
C2068 H2074 0.930 . S
C2069 N2071 1.279 . S
C2069 C2072 1.358 . S
C2069 H2075 0.930 . S
C2070 C2068 1.353 . S
C2070 C2073 1.348 . S
C2070 H2108 0.929 . S
N2071 Li2026 1.990 . S
N2071 C2068 1.314 . S
N2071 C2069 1.279 . S
C2072 C2069 1.358 . S
C2072 C2073 1.356 . S
C2072 H2109 0.930 . S
C2073 C2070 1.348 . S
C2073 C2072 1.356 . S
H2074 C2068 0.930 . S
H2075 C2069 0.930 . S
C2076 N2077 1.314 . S
C2076 C2078 1.353 . S
C2076 H2082 0.930 . S
N2077 Li2027 1.990 . S
N2077 C2076 1.314 . S
N2077 C2080 1.279 . S
C2078 C2076 1.353 . S
C2078 C2081 1.348 . S
C2078 H2110 0.929 . S
C2079 C2080 1.358 . S
C2079 C2081 1.356 . S
C2079 H2111 0.930 . S
C2080 N2077 1.279 . S
C2080 C2079 1.358 . S
C2080 H2083 0.930 . S
C2081 C2078 1.348 . S
C2081 C2079 1.356 . S
H2082 C2076 0.930 . S
H2083 C2080 0.930 . S
O2084 Li2024 1.956 . S
O2084 Li2025 1.970 . S
O2084 Li2026 1.961 . S
O2084 C2028 1.325 . S
O2085 Li2024 1.970 . S
O2085 Li2025 1.956 . S
O2085 Li2027 1.961 . S
O2085 C2034 1.325 . S
O2086 Li2024 1.961 . S
O2086 Li2026 1.956 . S
O2086 Li2027 1.970 . S
O2086 C2056 1.325 . S
O2087 Li2025 1.961 . S
O2087 Li2026 1.970 . S
O2087 Li2027 1.956 . S
O2087 C2062 1.325 . S
H2088 C2030 0.929 . S
H2089 C2031 0.930 . S
H2090 C2032 0.930 . S
H2091 C2033 0.930 . S
H2092 C2035 0.930 . S
H2093 C2037 0.929 . S
H2094 C2038 0.930 . S
H2095 C2039 0.930 . S
H2096 C2042 0.930 . S
H2097 C2045 0.929 . S
H2098 C2050 0.929 . S
H2099 C2051 0.930 . S
H2100 C2058 0.929 . S
H2101 C2059 0.930 . S
H2102 C2060 0.930 . S
H2103 C2061 0.930 . S
H2104 C2063 0.929 . S
H2105 C2064 0.930 . S
H2106 C2065 0.930 . S
H2107 C2066 0.930 . S
H2108 C2070 0.929 . S
H2109 C2072 0.930 . S
H2110 C2078 0.929 . S
H2111 C2079 0.930 . S
C1261 C20 2.028 . S
C117 C1349 2.031 . S
C1604 C225 2.027 . S
C321 C1164 2.028 . S
C1289 C372 2.028 . S
C469 C1377 2.027 . S
C577 C1633 2.027 . S
C673 C1193 2.030 . S
C849 C733 2.028 . S
C900 C821 2.028 . S
C929 C1025 2.030 . S
C997 C761 2.022 . S
C1085 C293 2.028 . S
C401 C1457 2.030 . S
C1516 C145 2.023 . S
C137 C1868 2.013 . S
C812 C29 2.009 . S
C2081 C284 2.013 . S
C988 C233 2.013 . S
C1897 C636 2.012 . S
C841 C585 2.013 . S
C489 C2053 2.013 . S
C381 C1017 2.010 . S
C1340 C1721 2.013 . S
C1437 C1369 2.012 . S
C1173 C1465 2.010 . S
C1692 C1201 2.018 . S
C205 C1817 2.013 . S
C909 C665 2.010 . S
C57 C1956 2.017 . S
C1701 C196 2.031 . S
C49 C1428 2.022 . S
C1729 C548 2.023 . S
C1113 C645 2.022 . S
C497 C1545 2.027 . S
C1877 C1780 2.031 . S
C2044 C1809 2.023 . S
C1993 C2073 2.027 . S
C1905 C1965 2.027 . S
C724 C313 2.009 . S
C108 C937 2.018 . S
C460 C753 2.017 . S
C1789 C409 2.018 . S
C557 C1985 2.013 . S
C1076 C1281 2.010 . S
C1613 C1105 2.017 . S
C1525 C1641 2.013 . S
C1252 C1553 2.013 . S
