# Generated by pormake.
# Topology wmi, (6)-cn, num edge types: 1
# Building blocks:
#     Node 0, Type 0, BuildingBlock: BETDIP_clean_sbu_0, # of connection points: 6
#     Node 1, Type 0, BuildingBlock: BETDIP_clean_sbu_0, # of connection points: 6
#     Node 2, Type 0, BuildingBlock: BETDIP_clean_sbu_0, # of connection points: 6
#     Node 3, Type 0, BuildingBlock: BETDIP_clean_sbu_0, # of connection points: 6
#     Node 4, Type 0, BuildingBlock: BETDIP_clean_sbu_0, # of connection points: 6
#     Node 5, Type 0, BuildingBlock: BETDIP_clean_sbu_0, # of connection points: 6
#     Node 6, Type 0, BuildingBlock: BETDIP_clean_sbu_0, # of connection points: 6
#     Node 7, Type 0, BuildingBlock: BETDIP_clean_sbu_0, # of connection points: 6
#     Node 8, Type 0, BuildingBlock: BETDIP_clean_sbu_0, # of connection points: 6
#     Node 9, Type 0, BuildingBlock: BETDIP_clean_sbu_0, # of connection points: 6
#     Node 10, Type 0, BuildingBlock: BETDIP_clean_sbu_0, # of connection points: 6
#     Node 11, Type 0, BuildingBlock: BETDIP_clean_sbu_0, # of connection points: 6
#     Node 12, Type 0, BuildingBlock: BETDIP_clean_sbu_0, # of connection points: 6
#     Node 13, Type 0, BuildingBlock: BETDIP_clean_sbu_0, # of connection points: 6
#     Node 14, Type 0, BuildingBlock: BETDIP_clean_sbu_0, # of connection points: 6
#     Node 15, Type 0, BuildingBlock: BETDIP_clean_sbu_0, # of connection points: 6
#     Node 16, Type 0, BuildingBlock: BETDIP_clean_sbu_0, # of connection points: 6
#     Node 17, Type 0, BuildingBlock: BETDIP_clean_sbu_0, # of connection points: 6
#     Edge 18, Type (0, 0), None
#     Edge 19, Type (0, 0), None
#     Edge 20, Type (0, 0), None
#     Edge 21, Type (0, 0), None
#     Edge 22, Type (0, 0), None
#     Edge 23, Type (0, 0), None
#     Edge 24, Type (0, 0), None
#     Edge 25, Type (0, 0), None
#     Edge 26, Type (0, 0), None
#     Edge 27, Type (0, 0), None
#     Edge 28, Type (0, 0), None
#     Edge 29, Type (0, 0), None
#     Edge 30, Type (0, 0), None
#     Edge 31, Type (0, 0), None
#     Edge 32, Type (0, 0), None
#     Edge 33, Type (0, 0), None
#     Edge 34, Type (0, 0), None
#     Edge 35, Type (0, 0), None
#     Edge 36, Type (0, 0), None
#     Edge 37, Type (0, 0), None
#     Edge 38, Type (0, 0), None
#     Edge 39, Type (0, 0), None
#     Edge 40, Type (0, 0), None
#     Edge 41, Type (0, 0), None
#     Edge 42, Type (0, 0), None
#     Edge 43, Type (0, 0), None
#     Edge 44, Type (0, 0), None
#     Edge 45, Type (0, 0), None
#     Edge 46, Type (0, 0), None
#     Edge 47, Type (0, 0), None
#     Edge 48, Type (0, 0), None
#     Edge 49, Type (0, 0), None
#     Edge 50, Type (0, 0), None
#     Edge 51, Type (0, 0), None
#     Edge 52, Type (0, 0), None
#     Edge 53, Type (0, 0), None
#     Edge 54, Type (0, 0), None
#     Edge 55, Type (0, 0), None
#     Edge 56, Type (0, 0), None
#     Edge 57, Type (0, 0), None
#     Edge 58, Type (0, 0), None
#     Edge 59, Type (0, 0), None
#     Edge 60, Type (0, 0), None
#     Edge 61, Type (0, 0), None
#     Edge 62, Type (0, 0), None
#     Edge 63, Type (0, 0), None
#     Edge 64, Type (0, 0), None
#     Edge 65, Type (0, 0), None
#     Edge 66, Type (0, 0), None
#     Edge 67, Type (0, 0), None
#     Edge 68, Type (0, 0), None
#     Edge 69, Type (0, 0), None
#     Edge 70, Type (0, 0), None
#     Edge 71, Type (0, 0), None
# Relax obj value: 0.130
# Max RMSD: 0.289
# Mean RMSD: 0.289
data_MOF--net-wmi--node1-BETDIP_clean_sbu_0--edge1-none
_symmetry_space_group_name_H-M    P1
_symmetry_Int_Tables_number       1
_symmetry_cell_setting            triclinic
loop_
_symmetry_equiv_pos_as_xyz
'x, y, z'
_cell_length_a     22.617473
_cell_length_b     22.731647
_cell_length_c     33.504342
_cell_angle_alpha  90.487777
_cell_angle_beta   89.773879
_cell_angle_gamma 119.83566
loop_
_atom_site_label
_atom_site_type_symbol
_atom_site_fract_x
_atom_site_fract_y
_atom_site_fract_z
_atom_type_partial_charge
Tb0 Tb 0.58744 0.12108 0.0952 0.0
Tb1 Tb 0.46781 1.03015 0.06718 0.0
C2 C 0.70365 0.19735 0.1261 0.0
C3 C 0.77432 0.23692 0.10841 0.0
C4 C 0.78489 0.25593 0.06791 0.0
C5 C 0.85142 0.29683 0.05249 0.0
C6 C 0.90988 0.31913 0.07672 0.0
C7 C 0.89896 0.29753 0.11672 0.0
C8 C 0.83254 0.25667 0.13221 0.0
C9 C 0.45767 0.09151 0.14314 0.0
C10 C 0.52089 0.19329 0.06259 0.0
C11 C 0.34458 0.93945 0.05742 0.0
C12 C 0.30889 0.86475 0.05207 0.0
C13 C 0.33841 0.82607 0.06492 0.0
C14 C 0.29873 0.75514 0.06865 0.0
C15 C 0.22883 0.72175 0.05966 0.0
C16 C 0.20079 0.76054 0.04469 0.0
C17 C 0.24022 0.83095 0.04109 0.0
C18 C 0.55842 0.05905 0.00965 0.0
C19 C 0.57694 0.98633 0.08294 0.0
O20 O 0.65971 0.21744 0.11798 0.0
O21 O 0.67488 0.13128 0.12405 0.0
O22 O 0.49323 0.06587 0.12864 0.0
O23 O 0.49221 0.06374 0.12901 0.0
O24 O 0.58106 0.19967 0.06562 0.0
O25 O 0.46603 0.13055 0.06466 0.0
O26 O 0.37467 0.95978 0.09168 0.0
O27 O 0.38241 0.97852 0.02851 0.0
O28 O 0.55693 0.10154 0.03372 0.0
O29 O 0.50987 0.99924 0.0185 0.0
O30 O 0.51095 0.96517 0.08582 0.0
O31 O 0.61874 1.05064 0.07816 0.0
H32 H 0.74154 0.2414 0.04848 0.0
H33 H 0.857 0.31466 0.02207 0.0
H34 H 0.94159 0.31755 0.13708 0.0
H35 H 0.82669 0.24313 0.16347 0.0
H36 H 0.39133 0.85102 0.074 0.0
H37 H 0.3221 0.72699 0.07991 0.0
H38 H 0.14731 0.73684 0.03692 0.0
H39 H 0.21602 0.85937 0.0316 0.0
Tb40 Tb 1.04939 0.52768 0.08688 0.0
Tb41 Tb 0.13908 0.49343 0.06595 0.0
C42 C 0.97678 0.57551 0.11451 0.0
C43 C 0.93779 0.60732 0.09721 0.0
C44 C 0.91534 0.59657 0.05724 0.0
C45 C 0.87326 0.62152 0.04287 0.0
C46 C 0.85301 0.65905 0.06766 0.0
C47 C 0.87804 0.67195 0.10704 0.0
C48 C 0.92018 0.6472 0.12148 0.0
C49 C 1.07533 0.43609 0.14374 0.0
C50 C 0.97461 0.38288 0.06598 0.0
C51 C 0.23152 0.46192 0.06451 0.0
C52 C 0.30599 0.50074 0.05773 0.0
C53 C 0.34332 0.57203 0.06243 0.0
C54 C 0.41488 0.6066 0.06583 0.0
C55 C 0.45008 0.57029 0.06466 0.0
C56 C 0.4123 0.49945 0.05775 0.0
C57 C 0.34143 0.46531 0.05448 0.0
C58 C 0.10859 0.53621 0.00079 0.0
C59 C 0.18275 0.64782 0.06663 0.0
O60 O 0.95377 0.51085 0.10741 0.0
O61 O 1.04323 0.61027 0.11163 0.0
O62 O 0.10312 0.49427 0.12592 0.0
O63 O 0.10546 0.49548 0.12637 0.0
O64 O 0.9676 0.43622 0.06424 0.0
O65 O 1.03808 0.39165 0.06837 0.0
O66 O 0.21265 0.48168 0.09603 0.0
O67 O 0.18995 0.44985 0.03456 0.0
O68 O 1.06593 0.5007 0.02743 0.0
O69 O 0.1691 0.55133 0.01165 0.0
O70 O 0.20347 0.60508 0.07736 0.0
O71 O 0.11798 0.62294 0.06043 0.0
H72 H 0.92776 0.56622 0.03756 0.0
H73 H 0.85259 0.60736 0.01298 0.0
H74 H 0.85937 0.69531 0.12789 0.0
H75 H 0.93602 0.65628 0.15245 0.0
H76 H 0.31697 0.60058 0.06546 0.0
H77 H 0.44214 0.66097 0.07067 0.0
H78 H 0.43715 0.46927 0.056 0.0
H79 H 0.31406 0.41055 0.05143 0.0
Tb80 Tb 0.64993 0.58781 0.09232 0.0
Tb81 Tb 0.67593 0.71214 0.05599 0.0
C82 C 0.60113 0.4655 0.11551 0.0
C83 C 0.56893 0.39553 0.09658 0.0
C84 C 0.59182 0.38337 0.05989 0.0
C85 C 0.5685 0.31651 0.04584 0.0
C86 C 0.52078 0.25923 0.06757 0.0
C87 C 0.49449 0.27179 0.10273 0.0
C88 C 0.51798 0.33866 0.11699 0.0
C89 C 0.70185 0.70458 0.13788 0.0
C90 C 0.78798 0.65915 0.05854 0.0
C91 C 0.70964 0.83344 0.04327 0.0
C92 C 0.67315 0.86994 0.05426 0.0
C93 C 0.60203 0.84057 0.04925 0.0
C94 C 0.56856 0.87598 0.06101 0.0
C95 C 0.60581 0.94089 0.07814 0.0
C96 C 0.67619 0.96823 0.08485 0.0
C97 C 0.70941 0.9333 0.07295 0.0
C98 C 0.62686 0.61523 0.00282 0.0
C99 C 0.52516 0.60262 0.07094 0.0
O100 O 0.66583 0.50721 0.10873 0.0
O101 O 0.56663 0.49755 0.11495 0.0
O102 O 0.65283 0.67978 0.11424 0.0
O103 O 0.72289 0.66088 0.13867 0.0
O104 O 0.73435 0.59881 0.05817 0.0
O105 O 0.77823 0.71304 0.06153 0.0
O106 O 0.73244 0.81456 0.07326 0.0
O107 O 0.68176 0.78591 0.01613 0.0
O108 O 0.66776 0.62211 0.0307 0.0
O109 O 0.61309 0.66376 0.00484 0.0
O110 O 0.56727 0.66919 0.07293 0.0
O111 O 0.55009 0.56161 0.07147 0.0
H112 H 0.63063 0.42543 0.04304 0.0
H113 H 0.59187 0.30945 0.0193 0.0
H114 H 0.4608 0.22969 0.12123 0.0
H115 H 0.49908 0.34565 0.14537 0.0
H116 H 0.5725 0.79074 0.03579 0.0
H117 H 0.51454 0.85398 0.05515 0.0
H118 H 0.70637 1.01808 0.09821 0.0
H119 H 0.76375 0.95613 0.07808 0.0
Tb120 Tb 0.15258 0.56195 0.8736 0.0
Tb121 Tb 1.06051 0.44132 0.89633 0.0
C122 C 0.22858 0.67868 0.84571 0.0
C123 C 0.26987 0.74611 0.86585 0.0
C124 C 0.30933 0.7533 0.89982 0.0
C125 C 0.35175 0.81746 0.91683 0.0
C126 C 0.35542 0.87632 0.9008 0.0
C127 C 0.31202 0.86853 0.86876 0.0
C128 C 0.26984 0.80415 0.85141 0.0
C129 C 0.1247 0.44251 0.81874 0.0
C130 C 0.22338 0.48825 0.89731 0.0
C131 C 0.96542 0.32007 0.90094 0.0
C132 C 0.89053 0.28976 0.90577 0.0
C133 C 0.85294 0.31189 0.88273 0.0
C134 C 0.78128 0.27438 0.8815 0.0
C135 C 0.74632 0.21434 0.90332 0.0
C136 C 0.78392 0.19597 0.92888 0.0
C137 C 0.85504 0.23301 0.92996 0.0
C138 C 0.09162 0.52309 0.95873 0.0
C139 C 1.01837 0.55276 0.88806 0.0
O140 O 0.24815 0.63365 0.85044 0.0
O141 O 0.16249 0.65137 0.84891 0.0
O142 O 0.09708 0.47404 0.83596 0.0
O143 O 0.09496 0.47298 0.83555 0.0
O144 O 0.23247 0.54953 0.89769 0.0
O145 O 0.15915 0.43551 0.89543 0.0
O146 O 0.98927 0.35241 0.86781 0.0
O147 O 1.00528 0.35243 0.93112 0.0
O148 O 0.1341 0.52423 0.9336 0.0
O149 O 1.03096 0.47753 0.94847 0.0
O150 O 0.99708 0.48796 0.88071 0.0
O151 O 0.08293 0.59259 0.89495 0.0
H152 H 0.3095 0.70964 0.9124 0.0
H153 H 0.38511 0.8216 0.94115 0.0
H154 H 0.31464 0.91275 0.85513 0.0
H155 H 0.23911 0.80012 0.82569 0.0
H156 H 0.87894 0.35614 0.86395 0.0
H157 H 0.75387 0.28976 0.86161 0.0
H158 H 0.75834 0.15042 0.94669 0.0
H159 H 0.88235 0.21514 0.94815 0.0
Tb160 Tb 0.6081 0.59429 0.87309 0.0
Tb161 Tb 0.72509 0.63358 0.90435 0.0
C162 C 0.4901 0.53975 0.8416 0.0
C163 C 0.42017 0.51944 0.85803 0.0
C164 C 0.4106 0.53453 0.89767 0.0
C165 C 0.34508 0.51797 0.912 0.0
C166 C 0.28655 0.48436 0.88756 0.0
C167 C 0.29638 0.46819 0.84829 0.0
C168 C 0.36173 0.48478 0.83388 0.0
C169 C 0.73934 0.66832 0.82065 0.0
C170 C 0.67193 0.74318 0.88991 0.0
C171 C 0.84897 0.67276 0.91955 0.0
C172 C 0.8905 0.64075 0.9099 0.0
C173 C 0.86094 0.56977 0.90596 0.0
C174 C 0.9015 0.54031 0.8974 0.0
C175 C 0.97225 0.58144 0.89274 0.0
C176 C 1.001 0.65248 0.89563 0.0
C177 C 0.96063 0.68166 0.90409 0.0
C178 C 0.63798 0.59708 0.96348 0.0
C179 C 0.62017 0.47944 0.90356 0.0
O180 O 0.53472 0.6047 0.83955 0.0
O181 O 0.5186 0.50584 0.8548 0.0
O182 O 0.70059 0.61485 0.84124 0.0
O183 O 0.70131 0.61332 0.84111 0.0
O184 O 0.61364 0.68957 0.88227 0.0
O185 O 0.72545 0.73492 0.89885 0.0
O186 O 0.82931 0.69448 0.88962 0.0
O187 O 0.79959 0.64093 0.9447 0.0
O188 O 0.63791 0.63042 0.93335 0.0
O189 O 0.6846 0.58095 0.95955 0.0
O190 O 0.68439 0.5224 0.89398 0.0
O191 O 0.57856 0.50322 0.90553 0.0
H192 H 0.45421 0.5612 0.91723 0.0
H193 H 0.34066 0.53447 0.94174 0.0
H194 H 0.25424 0.44769 0.82759 0.0
H195 H 0.36689 0.47273 0.80317 0.0
H196 H 0.80667 0.537 0.91004 0.0
H197 H 0.87784 0.48561 0.89551 0.0
H198 H 1.05531 0.68597 0.89195 0.0
H199 H 0.98443 0.73635 0.90652 0.0
Tb200 Tb 0.55889 1.02568 0.87994 0.0
Tb201 Tb 0.51661 0.10435 0.90824 0.0
C202 C 0.60089 0.94996 0.84877 0.0
C203 C 0.62921 0.90593 0.86426 0.0
C204 C 0.60109 0.86391 0.89784 0.0
C205 C 0.62154 0.81666 0.90888 0.0
C206 C 0.67168 0.80968 0.88731 0.0
C207 C 0.70248 0.85422 0.855 0.0
C208 C 0.68178 0.90155 0.84377 0.0
C209 C 0.52888 0.12273 0.82328 0.0
C210 C 0.4174 0.94315 0.90892 0.0
C211 C 0.47741 0.18889 0.92286 0.0
C212 C 0.51976 0.26398 0.92168 0.0
C213 C 0.57646 0.29578 0.89581 0.0
C214 C 0.61305 0.36658 0.89181 0.0
C215 C 0.59272 0.40682 0.91303 0.0
C216 C 0.53776 0.3752 0.94005 0.0
C217 C 0.50191 0.3046 0.94447 0.0
C218 C 0.57386 0.07603 0.96786 0.0
C219 C 0.67356 0.16379 0.89613 0.0
O220 O 0.53689 0.93045 0.85626 0.0
O221 O 0.63857 1.01593 0.85248 0.0
O222 O 0.50995 0.07146 0.84626 0.0
O223 O 0.50604 0.06913 0.84626 0.0
O224 O 0.47501 0.94288 0.90891 0.0
O225 O 0.41943 1.00276 0.90683 0.0
O226 O 0.46957 0.15875 0.88883 0.0
O227 O 0.49031 0.15735 0.95074 0.0
O228 O 0.53601 1.03416 0.94154 0.0
O229 O 0.58675 0.13567 0.95789 0.0
O230 O 0.62422 0.17805 0.88992 0.0
O231 O 0.65632 0.10078 0.90048 0.0
H232 H 0.56074 0.86521 0.91464 0.0
H233 H 0.59471 0.78216 0.93308 0.0
H234 H 0.73899 0.84903 0.8365 0.0
H235 H 0.70476 0.93256 0.81769 0.0
H236 H 0.59083 0.26584 0.87725 0.0
H237 H 0.65433 0.38929 0.87041 0.0
H238 H 0.521 0.40509 0.95696 0.0
H239 H 0.45886 0.28168 0.96467 0.0
Tb240 Tb 0.26385 0.44137 0.42336 0.0
Tb241 Tb 0.13218 0.36419 0.38558 0.0
C242 C 0.38871 0.51517 0.44519 0.0
C243 C 0.45902 0.56318 0.42811 0.0
C244 C 0.46942 0.60872 0.39706 0.0
C245 C 0.53604 0.6572 0.38455 0.0
C246 C 0.59534 0.66211 0.40213 0.0
C247 C 0.58473 0.61412 0.43174 0.0
C248 C 0.51791 0.56556 0.44437 0.0
C249 C 0.14641 0.37499 0.47035 0.0
C250 C 0.20271 0.52789 0.39337 0.0
C251 C 1.00914 0.28464 0.37076 0.0
C252 C 0.97447 0.21056 0.36454 0.0
C253 C 1.01084 0.17507 0.36702 0.0
C254 C 0.9766 0.10462 0.37342 0.0
C255 C 0.90541 0.06875 0.37685 0.0
C256 C 0.86945 0.10426 0.37139 0.0
C257 C 0.90354 0.17414 0.36562 0.0
C258 C 0.22613 0.39494 0.33182 0.0
C259 C 0.22698 0.3008 0.39962 0.0
O260 O 0.34282 0.53431 0.44723 0.0
O261 O 0.36045 0.45135 0.43491 0.0
O262 O 0.15989 0.41092 0.44065 0.0
O263 O 0.20269 0.37364 0.47597 0.0
O264 O 0.25906 0.52778 0.40252 0.0
O265 O 0.14426 0.46939 0.3866 0.0
O266 O 1.03373 0.30239 0.40671 0.0
O267 O 1.05199 0.32405 0.34342 0.0
O268 O 0.22991 0.43334 0.36084 0.0
O269 O 0.17494 0.3353 0.33737 0.0
O270 O 0.16369 0.28915 0.4053 0.0
O271 O 0.2762 0.36305 0.397 0.0
H272 H 0.4261 0.60883 0.38349 0.0
H273 H 0.54133 0.6942 0.36257 0.0
H274 H 0.6281 0.6173 0.44729 0.0
H275 H 0.51237 0.53154 0.46835 0.0
H276 H 1.06581 0.20217 0.36586 0.0
H277 H 1.00568 0.07884 0.37667 0.0
H278 H 0.81437 0.07864 0.37321 0.0
H279 H 0.87445 0.20021 0.36434 0.0
Tb280 Tb 0.74357 0.87708 0.41783 0.0
Tb281 Tb 0.82466 0.84242 0.38586 0.0
C282 C 0.67901 0.93057 0.44973 0.0
C283 C 0.6314 0.95351 0.43339 0.0
C284 C 0.61396 0.94776 0.39252 0.0
C285 C 0.5667 0.96671 0.3783 0.0
C286 C 0.53645 0.9937 0.4042 0.0
C287 C 0.55508 1.00007 0.4448 0.0
C288 C 0.60211 0.9813 0.45905 0.0
C289 C 0.80431 0.80569 0.46944 0.0
C290 C 0.66156 0.72928 0.39972 0.0
C291 C 0.91287 0.80701 0.37153 0.0
C292 C 0.98551 0.83851 0.38347 0.0
C293 C 1.02713 0.90941 0.38788 0.0
C294 C 0.09667 0.93836 0.39753 0.0
C295 C 0.1257 0.89687 0.40293 0.0
C296 C 0.08303 0.8259 0.39995 0.0
C297 C 1.01397 0.7972 0.39034 0.0
C298 C 0.77434 0.87822 0.3269 0.0
C299 C 0.86551 0.99518 0.38617 0.0
O300 O 0.65763 0.86528 0.45014 0.0
O301 O 0.74251 0.96471 0.43816 0.0
O302 O 0.81745 0.859 0.44909 0.0
O303 O 0.81964 0.86054 0.4492 0.0
O304 O 0.65543 0.78142 0.40909 0.0
O305 O 0.72405 0.73955 0.3899 0.0
O306 O 0.86798 0.78118 0.39974 0.0
O307 O 0.89745 0.84117 0.34707 0.0
O308 O 0.7401 0.84368 0.35673 0.0
O309 O 0.83707 0.89447 0.33077 0.0
O310 O 0.89076 0.95512 0.39503 0.0
O311 O 0.79978 0.9675 0.38502 0.0
H312 H 0.63514 0.9264 0.37172 0.0
H313 H 0.55118 0.95704 0.34729 0.0
H314 H 0.52884 1.01436 0.46635 0.0
H315 H 0.61349 0.98604 0.49068 0.0
H316 H 1.00624 0.94253 0.38312 0.0
H317 H 0.12796 0.99304 0.39946 0.0
H318 H 0.10335 0.79213 0.40418 0.0
H319 H 0.98298 0.74257 0.38758 0.0
Tb320 Tb 0.32675 0.91686 0.41995 0.0
Tb321 Tb 0.35343 1.03718 0.39673 0.0
C322 C 0.2867 0.79975 0.44755 0.0
C323 C 0.25772 0.73076 0.42814 0.0
C324 C 0.29185 0.71868 0.39667 0.0
C325 C 0.26796 0.65273 0.38149 0.0
C326 C 0.20877 0.59648 0.39681 0.0
C327 C 0.17156 0.60929 0.42596 0.0
C328 C 0.19579 0.67547 0.44152 0.0
C329 C 0.42256 1.0393 0.47245 0.0
C330 C 0.46993 0.99029 0.39343 0.0
C331 C 0.37396 0.15648 0.39177 0.0
C332 C 0.32455 0.18185 0.38866 0.0
C333 C 0.27173 0.16374 0.4171 0.0
C334 C 0.23318 0.19688 0.41842 0.0
C335 C 0.24625 0.24828 0.39113 0.0
C336 C 0.29456 0.26172 0.36061 0.0
C337 C 0.33336 0.22919 0.35948 0.0
C338 C 0.30093 0.95321 0.33528 0.0
C339 C 0.20052 0.92519 0.40777 0.0
O340 O 0.35101 0.84419 0.44093 0.0
O341 O 0.24857 0.82801 0.44646 0.0
O342 O 0.36214 1.00669 0.4568 0.0
O343 O 0.36117 1.00774 0.45722 0.0
O344 O 0.4178 0.929 0.39378 0.0
O345 O 0.45836 1.04318 0.39532 0.0
O346 O 0.3712 0.12655 0.42505 0.0
O347 O 0.38161 0.12447 0.36128 0.0
O348 O 0.34332 0.95348 0.35985 0.0
O349 O 0.28548 0.99844 0.34583 0.0
O350 O 0.24415 0.99003 0.41472 0.0
O351 O 0.22531 0.88546 0.40047 0.0
H352 H 0.33889 0.75971 0.38491 0.0
H353 H 0.29885 0.6449 0.3596 0.0
H354 H 0.12681 0.56738 0.43903 0.0
H355 H 0.16758 0.68288 0.46534 0.0
H356 H 0.26269 0.12668 0.4399 0.0
H357 H 0.19741 0.18623 0.44262 0.0
H358 H 0.30602 0.30144 0.33917 0.0
H359 H 0.37282 0.24384 0.33708 0.0
Tb360 Tb 0.80064 0.89463 0.19808 0.0
Tb361 Tb 0.7021 0.76856 0.23366 0.0
C362 C 0.87454 1.01738 0.17566 0.0
C363 C 0.91104 0.08724 0.19472 0.0
C364 C 0.94066 0.09884 0.233 0.0
C365 C 0.98329 0.16555 0.24761 0.0
C366 C 0.9973 0.22319 0.22482 0.0
C367 C 0.96429 0.21117 0.18763 0.0
C368 C 0.92163 0.14453 0.17293 0.0
C369 C 0.73814 0.77868 0.15174 0.0
C370 C 0.86708 0.823 0.2313 0.0
C371 C 0.61654 0.64697 0.24734 0.0
C372 C 0.54199 0.61266 0.24472 0.0
C373 C 0.50933 0.64052 0.22226 0.0
C374 C 0.43858 0.6043 0.21661 0.0
C375 C 0.40021 0.53962 0.23302 0.0
C376 C 0.43297 0.51365 0.25703 0.0
C377 C 0.50318 0.54986 0.26281 0.0
C378 C 0.74661 0.86347 0.28727 0.0
C379 C 0.66012 0.87866 0.22051 0.0
O380 O 0.89767 0.97603 0.18305 0.0
O381 O 0.80795 0.98489 0.17542 0.0
O382 O 0.71293 0.80236 0.17566 0.0
O383 O 0.80265 0.82323 0.15111 0.0
O384 O 0.87313 0.88307 0.23248 0.0
O385 O 0.80389 0.7689 0.22733 0.0
O386 O 0.64788 0.66813 0.21341 0.0
O387 O 0.64481 0.69243 0.27557 0.0
O388 O 0.78229 0.85862 0.25934 0.0
O389 O 0.6842 0.81536 0.28438 0.0
O390 O 0.63578 0.81202 0.21948 0.0
O391 O 0.72597 0.92005 0.21864 0.0
H392 H 0.93394 0.0564 0.25081 0.0
H393 H 1.00972 0.17209 0.27561 0.0
H394 H 0.9771 0.25328 0.16806 0.0
H395 H 0.90027 0.13795 0.14326 0.0
H396 H 0.53875 0.6891 0.20789 0.0
H397 H 0.4146 0.62527 0.19804 0.0
H398 H 0.40445 0.46418 0.27068 0.0
H399 H 0.52734 0.52787 0.28039 0.0
Tb400 Tb 0.2605 0.95593 0.20703 0.0
Tb401 Tb 0.38297 0.98795 0.22926 0.0
C402 C 0.142 0.9107 0.17767 0.0
C403 C 1.07042 0.87778 0.19402 0.0
C404 C 1.05678 0.88524 0.23426 0.0
C405 C 0.98909 0.85932 0.24795 0.0
C406 C 0.93268 0.82405 0.22212 0.0
C407 C 0.9467 0.81446 0.18238 0.0
C408 C 1.01423 0.84018 0.16864 0.0
C409 C 0.38093 1.05102 0.15285 0.0
C410 C 0.33005 0.09926 0.23152 0.0
C411 C 0.50665 1.01851 0.23134 0.0
C412 C 0.54248 0.97975 0.23755 0.0
C413 C 0.50863 0.90849 0.23273 0.0
C414 C 0.54577 0.87418 0.22812 0.0
C415 C 0.61733 0.91074 0.22809 0.0
C416 C 0.65032 0.98153 0.23515 0.0
C417 C 0.61345 1.01539 0.23969 0.0
C418 C 0.30628 0.94178 0.29316 0.0
C419 C 0.27112 0.83387 0.22624 0.0
O420 O 0.18329 0.97474 0.18654 0.0
O421 O 0.17335 0.87555 0.17978 0.0
O422 O 0.34959 0.99158 0.16918 0.0
O423 O 0.35075 0.99032 0.1686 0.0
O424 O 0.26946 1.04602 0.23166 0.0
O425 O 0.38467 0.09027 0.22921 0.0
O426 O 0.46879 0.99949 0.19965 0.0
O427 O 0.47633 1.02969 0.26141 0.0
O428 O 0.3007 0.9789 0.26712 0.0
O429 O 0.3522 0.92716 0.28239 0.0
O430 O 0.3354 0.87654 0.21672 0.0
O431 O 0.23127 0.85903 0.23177 0.0
H432 H 0.09857 0.91379 0.25476 0.0
H433 H 0.98105 0.87095 0.27822 0.0
H434 H 0.90574 0.793 0.16091 0.0
H435 H 1.02258 0.8337 0.13744 0.0
H436 H 0.45364 0.87981 0.23046 0.0
H437 H 0.51869 0.81983 0.22321 0.0
H438 H 0.70539 1.0119 0.23603 0.0
H439 H 0.64078 0.07015 0.24272 0.0
Tb440 Tb 0.20592 0.36227 0.20374 0.0
Tb441 Tb 0.17409 0.45177 0.23214 0.0
C442 C 0.2504 0.28932 0.17307 0.0
C443 C 0.28029 0.24904 0.1911 0.0
C444 C 0.2644 0.22371 0.2303 0.0
C445 C 0.28831 0.18152 0.24563 0.0
C446 C 0.33007 0.16412 0.22272 0.0
C447 C 0.34879 0.19258 0.18441 0.0
C448 C 0.3247 0.23457 0.1689 0.0
C449 C 0.11148 0.39551 0.15341 0.0
C450 C 1.06331 0.28835 0.2316 0.0
C451 C 0.14135 0.5428 0.24004 0.0
C452 C 0.18002 0.61764 0.24454 0.0
C453 C 0.24888 0.65595 0.23251 0.0
C454 C 0.28007 0.72663 0.22735 0.0
C455 C 0.2428 0.76009 0.23401 0.0
C456 C 0.17512 0.72172 0.24805 0.0
C457 C 0.14424 0.65161 0.25312 0.0
C458 C 0.22918 0.41796 0.29107 0.0
C459 C 0.32766 0.49487 0.22341 0.0
O460 O 0.18547 0.26797 0.17931 0.0
O461 O 0.28678 0.35531 0.17673 0.0
O462 O 0.1709 0.42023 0.17011 0.0
O463 O 0.17209 0.42252 0.16969 0.0
O464 O 0.11688 0.28138 0.229 0.0
O465 O 1.07172 0.35143 0.23125 0.0
O466 O 0.15236 0.52174 0.20634 0.0
O467 O 0.13923 0.50448 0.26953 0.0
O468 O 0.18835 0.37779 0.26487 0.0
O469 O 0.23916 0.47811 0.28461 0.0
O470 O 0.28404 0.51663 0.21721 0.0
O471 O 0.30433 0.43016 0.22637 0.0
H472 H 0.23101 0.23415 0.24857 0.0
H473 H 0.2703 0.1587 0.27463 0.0
H474 H 0.37686 0.17709 0.16505 0.0
H475 H 0.33835 0.25317 0.13869 0.0
H476 H 0.2775 0.63082 0.22515 0.0
H477 H 0.33225 0.75448 0.21691 0.0
H478 H 0.14467 0.74547 0.25406 0.0
H479 H 0.09108 0.62344 0.2618 0.0
Tb480 Tb 0.94234 0.78626 0.7538 0.0
Tb481 Tb 0.82315 0.70562 0.72275 0.0
C482 C 1.05805 0.863 0.78611 0.0
C483 C 0.13023 0.90593 0.77004 0.0
C484 C 0.14347 0.94419 0.73487 0.0
C485 C 0.21091 0.99 0.72254 0.0
C486 C 0.26837 0.99907 0.74432 0.0
C487 C 0.25526 0.95816 0.77833 0.0
C488 C 0.18747 0.91231 0.79089 0.0
C489 C 0.81221 0.68837 0.8082 0.0
C490 C 0.88315 0.86649 0.72132 0.0
C491 C 0.70083 0.61926 0.70602 0.0
C492 C 0.66825 0.54398 0.70613 0.0
C493 C 0.69239 0.51113 0.73151 0.0
C494 C 0.65691 0.44024 0.73552 0.0
C495 C 0.59574 0.40085 0.71483 0.0
C496 C 0.57334 0.43349 0.68813 0.0
C497 C 0.60933 0.50414 0.6837 0.0
C498 C 0.91585 0.7349 0.66627 0.0
C499 C 0.92132 0.64838 0.73846 0.0
O500 O 1.01357 0.88204 0.77762 0.0
O501 O 1.02998 0.79691 0.78354 0.0
O502 O 0.84504 0.73926 0.78499 0.0
O503 O 0.84337 0.74148 0.78492 0.0
O504 O 0.94155 0.86794 0.72336 0.0
O505 O 0.82593 0.80641 0.72257 0.0
O506 O 0.72101 0.64778 0.74062 0.0
O507 O 0.74666 0.65266 0.67891 0.0
O508 O 0.91589 0.77631 0.69165 0.0
O509 O 0.86709 0.67536 0.67492 0.0
O510 O 0.8569 0.63291 0.74239 0.0
O511 O 0.96714 0.71174 0.73584 0.0
H512 H 0.10153 0.94105 0.71768 0.0
H513 H 0.21813 1.02181 0.69699 0.0
H514 H 0.29736 0.96531 0.79694 0.0
H515 H 0.17988 0.88403 0.8181 0.0
H516 H 0.73692 0.54035 0.74986 0.0
H517 H 0.67501 0.41686 0.75659 0.0
H518 H 0.52637 0.40443 0.67153 0.0
H519 H 0.58953 0.52778 0.66397 0.0
Tb520 Tb 0.42083 0.21356 0.75319 0.0
Tb521 Tb 0.49809 0.17303 0.72537 0.0
C522 C 0.35703 0.26948 0.78317 0.0
C523 C 0.3067 0.28936 0.76772 0.0
C524 C 0.29037 0.2862 0.7268 0.0
C525 C 0.24122 0.30312 0.71343 0.0
C526 C 0.20806 0.32543 0.74034 0.0
C527 C 0.22524 0.32891 0.78103 0.0
C528 C 0.27409 0.31212 0.79442 0.0
C529 C 0.47589 0.14133 0.80893 0.0
C530 C 0.33506 0.06495 0.73952 0.0
C531 C 0.58192 0.13205 0.71123 0.0
C532 C 0.65611 0.16589 0.71836 0.0
C533 C 0.69663 0.23717 0.72039 0.0
C534 C 0.76707 0.26823 0.72769 0.0
C535 C 0.79784 0.22832 0.73291 0.0
C536 C 0.75648 0.15705 0.73165 0.0
C537 C 0.68659 0.12633 0.7245 0.0
C538 C 0.45281 0.20825 0.66379 0.0
C539 C 0.54945 0.32815 0.72425 0.0
O540 O 0.3368 0.20472 0.78639 0.0
O541 O 0.41876 0.3026 0.76872 0.0
O542 O 0.49093 0.19423 0.78778 0.0
O543 O 0.49348 0.19612 0.78805 0.0
O544 O 0.33052 0.11928 0.74387 0.0
O545 O 0.39714 0.07227 0.7329 0.0
O546 O 0.54399 0.11595 0.74274 0.0
O547 O 0.56135 0.15894 0.68467 0.0
O548 O 0.41605 0.17488 0.69315 0.0
O549 O 0.51545 0.22685 0.67063 0.0
O550 O 0.56948 0.28469 0.73488 0.0
O551 O 0.48426 0.30447 0.72087 0.0
H552 H 0.31411 0.26865 0.70526 0.0
H553 H 0.22685 0.2958 0.68221 0.0
H554 H 0.19699 0.33984 0.8031 0.0
H555 H 0.28468 0.31475 0.82609 0.0
H556 H 0.67403 0.26884 0.71598 0.0
H557 H 0.79743 0.32305 0.72834 0.0
H558 H 0.7782 0.12447 0.73582 0.0
H559 H 0.65634 0.07147 0.72357 0.0
Tb560 Tb 0.9964 0.24809 0.75341 0.0
Tb561 Tb 1.02632 0.36966 0.72992 0.0
C562 C 0.95467 0.13147 0.7817 0.0
C563 C 0.92896 0.06369 0.76198 0.0
C564 C 0.96106 0.05618 0.72782 0.0
C565 C 0.94029 0.99167 0.71149 0.0
C566 C 0.88622 0.93281 0.7284 0.0
C567 C 0.85063 0.94079 0.76062 0.0
C568 C 0.87189 1.0055 0.77728 0.0
C569 C 0.08694 0.36752 0.80808 0.0
C570 C 0.14148 0.32149 0.72964 0.0
C571 C 1.05467 0.49147 0.72573 0.0
C572 C 1.01096 0.52253 0.72204 0.0
C573 C 0.94911 0.49726 0.74358 0.0
C574 C 0.91587 0.53536 0.74712 0.0
C575 C 0.94414 0.59903 0.72913 0.0
C576 C 1.00237 0.62088 0.70473 0.0
C577 C 1.03553 0.58325 0.7014 0.0
C578 C 0.97816 0.28782 0.66735 0.0
C579 C 0.87272 0.25807 0.73691 0.0
O580 O 1.01941 0.17633 0.7771 0.0
O581 O 0.91606 0.15887 0.778 0.0
O582 O 1.02823 0.33643 0.7905 0.0
O583 O 1.02714 0.33755 0.791 0.0
O584 O 0.08922 0.26023 0.72977 0.0
O585 O 0.13026 0.37446 0.7311 0.0
O586 O 1.04618 0.45898 0.75871 0.0
O587 O 1.06046 0.45855 0.69517 0.0
O588 O 1.01726 0.28636 0.69385 0.0
O589 O 0.96449 0.33511 0.67598 0.0
O590 O 0.91572 0.32292 0.74448 0.0
O591 O 0.89769 0.21825 0.73056 0.0
H592 H 1.00416 0.09991 0.71463 0.0
H593 H 0.96951 0.98737 0.68706 0.0
H594 H 0.81 0.8966 0.77501 0.0
H595 H 0.84541 1.00971 0.8032 0.0
H596 H 0.92859 0.44996 0.75965 0.0
H597 H 0.87108 0.51719 0.76585 0.0
H598 H 1.02464 0.66923 0.68963 0.0
H599 H 1.08249 0.60355 0.68448 0.0
Tb600 Tb 0.49224 0.2364 0.53715 0.0
Tb601 Tb 0.39978 0.11396 0.55958 0.0
C602 C 0.56692 0.35438 0.50995 0.0
C603 C 0.60686 0.42271 0.52984 0.0
C604 C 0.64096 0.43071 0.56627 0.0
C605 C 0.68329 0.49564 0.58277 0.0
C606 C 0.69215 0.55472 0.5638 0.0
C607 C 0.65393 0.54627 0.52898 0.0
C608 C 0.61201 0.48118 0.51219 0.0
C609 C 0.46155 0.11551 0.48175 0.0
C610 C 0.56337 0.16291 0.56105 0.0
C611 C 0.30659 0.99183 0.5604 0.0
C612 C 0.23236 0.95633 0.56686 0.0
C613 C 0.19277 0.98642 0.55659 0.0
C614 C 0.12169 0.94662 0.5521 0.0
C615 C 0.08963 0.87638 0.55778 0.0
C616 C 0.12945 0.84791 0.57063 0.0
C617 C 0.19971 0.88731 0.57498 0.0
C618 C 0.43106 0.19212 0.62286 0.0
C619 C 0.3604 0.22793 0.55784 0.0
O620 O 0.58796 0.31055 0.51524 0.0
O621 O 0.50053 0.32534 0.51253 0.0
O622 O 0.43574 0.1484 0.49942 0.0
O623 O 0.43325 0.14732 0.4989 0.0
O624 O 0.57212 0.22403 0.56094 0.0
O625 O 0.49939 0.10967 0.55855 0.0
O626 O 0.32521 1.03049 0.52937 0.0
O627 O 0.34804 1.0204 0.5906 0.0
O628 O 0.4731 0.19602 0.59646 0.0
O629 O 0.37056 0.144 0.61432 0.0
O630 O 0.33749 0.16355 0.54823 0.0
O631 O 0.42552 0.26706 0.5627 0.0
H632 H 0.63735 0.38695 0.5812 0.0
H633 H 0.71288 0.50002 0.60912 0.0
H634 H 0.66095 0.59036 0.51284 0.0
H635 H 0.58594 0.47683 0.48434 0.0
H636 H 0.21719 1.03996 0.54982 0.0
H637 H 0.09257 0.97018 0.5428 0.0
H638 H 0.10684 0.79412 0.57625 0.0
H639 H 0.22895 0.86293 0.58245 0.0
Tb640 Tb 0.9574 0.28348 0.53472 0.0
Tb641 Tb 1.08179 0.32147 0.57159 0.0
C642 C 0.83448 0.22852 0.50949 0.0
C643 C 0.76378 0.20085 0.52676 0.0
C644 C 0.75237 0.21932 0.56508 0.0
C645 C 0.68558 0.19961 0.57842 0.0
C646 C 0.62778 0.16003 0.55421 0.0
C647 C 0.63946 0.13948 0.51668 0.0
C648 C 0.70606 0.15894 0.5033 0.0
C649 C 1.07359 0.33281 0.48732 0.0
C650 C 1.02038 0.42577 0.56155 0.0
C651 C 0.20494 0.36236 0.58694 0.0
C652 C 0.24211 0.325 0.58106 0.0
C653 C 0.21565 0.26712 0.55607 0.0
C654 C 0.25217 0.23292 0.54945 0.0
C655 C 0.31609 0.2569 0.56732 0.0
C656 C 0.34136 0.31383 0.59306 0.0
C657 C 0.30466 0.34735 0.59993 0.0
C658 C 0.98811 0.27421 0.62618 0.0
C659 C 0.97623 0.16567 0.56301 0.0
O660 O 0.87605 0.2939 0.51206 0.0
O661 O 0.86669 0.19535 0.51644 0.0
O662 O 1.05304 0.28903 0.514 0.0
O663 O 1.02522 0.34753 0.48451 0.0
O664 O 0.96169 0.37015 0.56243 0.0
O665 O 1.07689 0.41974 0.56115 0.0
O666 O 0.18424 0.37726 0.55441 0.0
O667 O 0.15744 0.3387 0.61409 0.0
O668 O 0.99026 0.31168 0.59729 0.0
O669 O 1.03587 0.25951 0.6222 0.0
O670 O 1.0426 0.21051 0.56072 0.0
O671 O 0.93281 0.18731 0.55964 0.0
H672 H 0.79531 0.25176 0.58401 0.0
H673 H 0.67944 0.21917 0.6068 0.0
H674 H 0.59762 0.11405 0.49605 0.0
H675 H 0.71263 0.14432 0.47347 0.0
H676 H 0.16746 0.24923 0.54096 0.0
H677 H 0.23174 0.18963 0.52936 0.0
H678 H 0.3903 0.33324 0.60767 0.0
H679 H 0.32567 0.39135 0.6195 0.0
Tb680 Tb 0.8945 0.69413 0.53795 0.0
Tb681 Tb 0.86207 0.78165 0.56748 0.0
C682 C 0.93073 0.61356 0.50781 0.0
C683 C 0.96392 0.57498 0.5251 0.0
C684 C 0.94383 0.54219 0.56233 0.0
C685 C 0.96893 0.50005 0.5762 0.0
C686 C 1.01615 0.48937 0.55394 0.0
C687 C 1.03925 0.52516 0.51778 0.0
C688 C 1.01372 0.56722 0.50365 0.0
C689 C 0.85869 0.78723 0.48121 0.0
C690 C 0.75607 0.62059 0.57173 0.0
C691 C 0.83259 0.87401 0.58145 0.0
C692 C 0.87595 0.94917 0.58566 0.0
C693 C 0.94468 0.984 0.57278 0.0
C694 C 0.97984 0.055 0.56716 0.0
C695 C 0.94666 0.09245 0.57406 0.0
C696 C 0.87958 0.05768 0.5896 0.0
C697 C 0.84486 0.98737 0.59515 0.0
C698 C 0.92441 0.75254 0.6244 0.0
C699 C 1.0158 0.82976 0.55078 0.0
O700 O 0.86837 0.59516 0.51913 0.0
O701 O 0.9676 0.67982 0.50575 0.0
O702 O 0.84308 0.73971 0.5067 0.0
O703 O 0.83956 0.73787 0.50696 0.0
O704 O 0.81184 0.61682 0.57067 0.0
O705 O 0.7614 0.6819 0.56892 0.0
O706 O 0.83512 0.85141 0.54635 0.0
O707 O 0.83362 0.83443 0.6092 0.0
O708 O 0.882 0.71084 0.5997 0.0
O709 O 0.93606 0.81221 0.61539 0.0
O710 O 0.96929 0.84841 0.54644 0.0
O711 O 0.9948 0.76595 0.55466 0.0
H712 H 0.90615 0.54665 0.58014 0.0
H713 H 0.94797 0.47218 0.60357 0.0
H714 H 1.07307 0.5164 0.49893 0.0
H715 H 1.03074 0.5913 0.47489 0.0
H716 H 0.97015 0.95604 0.565 0.0
H717 H 1.03131 0.07971 0.5555 0.0
H718 H 0.85227 0.08452 0.59617 0.0
H719 H 0.79215 0.96239 0.60478 0.0
loop_
_geom_bond_atom_site_label_1
_geom_bond_atom_site_label_2
_geom_bond_distance
_geom_bond_site_symmetry_2
_ccdc_geom_bond_type
Tb0 C2 2.809 . S
Tb0 O20 2.484 . S
Tb0 O21 2.440 . S
Tb0 O22 2.658 1_545 S
Tb0 O23 2.409 . S
Tb0 O24 2.378 . S
Tb0 O28 2.325 . S
Tb0 O31 2.341 1_545 S
Tb1 C11 2.809 . S
Tb1 O22 2.325 . S
Tb1 O25 2.341 1_565 S
Tb1 O26 2.484 . S
Tb1 O27 2.440 . S
Tb1 O28 2.658 1_565 S
Tb1 O29 2.409 . S
Tb1 O30 2.378 . S
C2 Tb0 2.809 . S
C2 C3 1.514 . S
C2 O20 1.248 . S
C2 O21 1.266 . S
C3 C2 1.514 . S
C3 C4 1.359 . S
C3 C8 1.348 . S
C4 C3 1.359 . S
C4 C5 1.380 . S
C4 H32 0.929 . S
C5 C4 1.380 . S
C5 C6 1.347 . S
C5 H33 0.931 . S
C6 C5 1.347 . S
C6 C7 1.369 . S
C7 C6 1.369 . S
C7 C8 1.408 . S
C7 H34 0.930 . S
C8 C3 1.348 . S
C8 C7 1.408 . S
C8 H35 0.930 . S
C9 O22 1.281 1_545 S
C9 O23 1.254 . S
C10 O24 1.236 . S
C10 O25 1.266 . S
C11 Tb1 2.809 . S
C11 C12 1.514 . S
C11 O26 1.248 . S
C11 O27 1.266 . S
C12 C11 1.514 . S
C12 C13 1.359 . S
C12 C17 1.348 . S
C13 C12 1.359 . S
C13 C14 1.380 . S
C13 H36 0.929 . S
C14 C13 1.380 . S
C14 C15 1.347 . S
C14 H37 0.931 . S
C15 C14 1.347 . S
C15 C16 1.369 . S
C16 C15 1.369 . S
C16 C17 1.408 . S
C16 H38 0.930 . S
C17 C12 1.348 . S
C17 C16 1.408 . S
C17 H39 0.930 . S
C18 O28 1.281 . S
C18 O29 1.254 1_545 S
C19 O30 1.236 . S
C19 O31 1.266 . S
O20 Tb0 2.484 . S
O20 C2 1.248 . S
O21 Tb0 2.440 . S
O21 C2 1.266 . S
O22 Tb0 2.658 1_565 S
O22 Tb1 2.325 . S
O22 C9 1.281 1_565 S
O23 Tb0 2.409 . S
O23 C9 1.254 . S
O24 Tb0 2.378 . S
O24 C10 1.236 . S
O25 Tb1 2.341 1_545 S
O25 C10 1.266 . S
O26 Tb1 2.484 . S
O26 C11 1.248 . S
O27 Tb1 2.440 . S
O27 C11 1.266 . S
O28 Tb0 2.325 . S
O28 Tb1 2.658 1_545 S
O28 C18 1.281 . S
O29 Tb1 2.409 . S
O29 C18 1.254 1_565 S
O30 Tb1 2.378 . S
O30 C19 1.236 . S
O31 Tb0 2.341 1_565 S
O31 C19 1.266 . S
H32 C4 0.929 . S
H33 C5 0.931 . S
H34 C7 0.930 . S
H35 C8 0.930 . S
H36 C13 0.929 . S
H37 C14 0.931 . S
H38 C16 0.930 . S
H39 C17 0.930 . S
Tb40 C42 2.809 . S
Tb40 O60 2.484 . S
Tb40 O61 2.440 . S
Tb40 O62 2.658 1_655 S
Tb40 O63 2.409 1_655 S
Tb40 O64 2.378 . S
Tb40 O68 2.325 1_655 S
Tb40 O71 2.341 1_655 S
Tb41 C51 2.809 . S
Tb41 O62 2.325 . S
Tb41 O65 2.341 1_455 S
Tb41 O66 2.484 . S
Tb41 O67 2.440 . S
Tb41 O68 2.658 . S
Tb41 O69 2.409 . S
Tb41 O70 2.378 . S
C42 Tb40 2.809 . S
C42 C43 1.514 . S
C42 O60 1.248 . S
C42 O61 1.266 . S
C43 C42 1.514 . S
C43 C44 1.359 . S
C43 C48 1.348 . S
C44 C43 1.359 . S
C44 C45 1.380 . S
C44 H72 0.929 . S
C45 C44 1.380 . S
C45 C46 1.347 . S
C45 H73 0.931 . S
C46 C45 1.347 . S
C46 C47 1.369 . S
C47 C46 1.369 . S
C47 C48 1.408 . S
C47 H74 0.930 . S
C48 C43 1.348 . S
C48 C47 1.408 . S
C48 H75 0.930 . S
C49 O62 1.281 . S
C49 O63 1.254 . S
C50 O64 1.236 . S
C50 O65 1.266 . S
C51 Tb41 2.809 . S
C51 C52 1.514 . S
C51 O66 1.248 . S
C51 O67 1.266 . S
C52 C51 1.514 . S
C52 C53 1.359 . S
C52 C57 1.348 . S
C53 C52 1.359 . S
C53 C54 1.380 . S
C53 H76 0.929 . S
C54 C53 1.380 . S
C54 C55 1.347 . S
C54 H77 0.931 . S
C55 C54 1.347 . S
C55 C56 1.369 . S
C56 C55 1.369 . S
C56 C57 1.408 . S
C56 H78 0.930 . S
C57 C52 1.348 . S
C57 C56 1.408 . S
C57 H79 0.930 . S
C58 O68 1.281 . S
C58 O69 1.254 . S
C59 O70 1.236 . S
C59 O71 1.266 . S
O60 Tb40 2.484 . S
O60 C42 1.248 . S
O61 Tb40 2.440 . S
O61 C42 1.266 . S
O62 Tb40 2.658 1_455 S
O62 Tb41 2.325 . S
O62 C49 1.281 . S
O63 Tb40 2.409 1_455 S
O63 C49 1.254 . S
O64 Tb40 2.378 . S
O64 C50 1.236 . S
O65 Tb41 2.341 1_655 S
O65 C50 1.266 . S
O66 Tb41 2.484 . S
O66 C51 1.248 . S
O67 Tb41 2.440 . S
O67 C51 1.266 . S
O68 Tb40 2.325 1_455 S
O68 Tb41 2.658 . S
O68 C58 1.281 . S
O69 Tb41 2.409 . S
O69 C58 1.254 . S
O70 Tb41 2.378 . S
O70 C59 1.236 . S
O71 Tb40 2.341 1_455 S
O71 C59 1.266 . S
H72 C44 0.929 . S
H73 C45 0.931 . S
H74 C47 0.930 . S
H75 C48 0.930 . S
H76 C53 0.929 . S
H77 C54 0.931 . S
H78 C56 0.930 . S
H79 C57 0.930 . S
Tb80 C82 2.809 . S
Tb80 O100 2.484 . S
Tb80 O101 2.440 . S
Tb80 O102 2.658 . S
Tb80 O103 2.409 . S
Tb80 O104 2.378 . S
Tb80 O108 2.325 . S
Tb80 O111 2.341 . S
Tb81 C91 2.809 . S
Tb81 O102 2.325 . S
Tb81 O105 2.341 . S
Tb81 O106 2.484 . S
Tb81 O107 2.440 . S
Tb81 O108 2.658 . S
Tb81 O109 2.409 . S
Tb81 O110 2.378 . S
C82 Tb80 2.809 . S
C82 C83 1.514 . S
C82 O100 1.248 . S
C82 O101 1.266 . S
C83 C82 1.514 . S
C83 C84 1.359 . S
C83 C88 1.348 . S
C84 C83 1.359 . S
C84 C85 1.380 . S
C84 H112 0.929 . S
C85 C84 1.380 . S
C85 C86 1.347 . S
C85 H113 0.931 . S
C86 C85 1.347 . S
C86 C87 1.369 . S
C87 C86 1.369 . S
C87 C88 1.408 . S
C87 H114 0.930 . S
C88 C83 1.348 . S
C88 C87 1.408 . S
C88 H115 0.930 . S
C89 O102 1.281 . S
C89 O103 1.254 . S
C90 O104 1.236 . S
C90 O105 1.266 . S
C91 Tb81 2.809 . S
C91 C92 1.514 . S
C91 O106 1.248 . S
C91 O107 1.266 . S
C92 C91 1.514 . S
C92 C93 1.359 . S
C92 C97 1.348 . S
C93 C92 1.359 . S
C93 C94 1.380 . S
C93 H116 0.929 . S
C94 C93 1.380 . S
C94 C95 1.347 . S
C94 H117 0.931 . S
C95 C94 1.347 . S
C95 C96 1.369 . S
C96 C95 1.369 . S
C96 C97 1.408 . S
C96 H118 0.930 . S
C97 C92 1.348 . S
C97 C96 1.408 . S
C97 H119 0.930 . S
C98 O108 1.281 . S
C98 O109 1.254 . S
C99 O110 1.236 . S
C99 O111 1.266 . S
O100 Tb80 2.484 . S
O100 C82 1.248 . S
O101 Tb80 2.440 . S
O101 C82 1.266 . S
O102 Tb80 2.658 . S
O102 Tb81 2.325 . S
O102 C89 1.281 . S
O103 Tb80 2.409 . S
O103 C89 1.254 . S
O104 Tb80 2.378 . S
O104 C90 1.236 . S
O105 Tb81 2.341 . S
O105 C90 1.266 . S
O106 Tb81 2.484 . S
O106 C91 1.248 . S
O107 Tb81 2.440 . S
O107 C91 1.266 . S
O108 Tb80 2.325 . S
O108 Tb81 2.658 . S
O108 C98 1.281 . S
O109 Tb81 2.409 . S
O109 C98 1.254 . S
O110 Tb81 2.378 . S
O110 C99 1.236 . S
O111 Tb80 2.341 . S
O111 C99 1.266 . S
H112 C84 0.929 . S
H113 C85 0.931 . S
H114 C87 0.930 . S
H115 C88 0.930 . S
H116 C93 0.929 . S
H117 C94 0.931 . S
H118 C96 0.930 . S
H119 C97 0.930 . S
Tb120 C122 2.809 . S
Tb120 O140 2.484 . S
Tb120 O141 2.440 . S
Tb120 O142 2.658 1_455 S
Tb120 O143 2.409 . S
Tb120 O144 2.378 . S
Tb120 O148 2.325 . S
Tb120 O151 2.341 1_455 S
Tb121 C131 2.809 . S
Tb121 O142 2.325 . S
Tb121 O145 2.341 1_655 S
Tb121 O146 2.484 . S
Tb121 O147 2.440 . S
Tb121 O148 2.658 1_655 S
Tb121 O149 2.409 . S
Tb121 O150 2.378 . S
C122 Tb120 2.809 . S
C122 C123 1.514 . S
C122 O140 1.248 . S
C122 O141 1.266 . S
C123 C122 1.514 . S
C123 C124 1.359 . S
C123 C128 1.348 . S
C124 C123 1.359 . S
C124 C125 1.380 . S
C124 H152 0.929 . S
C125 C124 1.380 . S
C125 C126 1.347 . S
C125 H153 0.931 . S
C126 C125 1.347 . S
C126 C127 1.369 . S
C127 C126 1.369 . S
C127 C128 1.408 . S
C127 H154 0.930 . S
C128 C123 1.348 . S
C128 C127 1.408 . S
C128 H155 0.930 . S
C129 O142 1.281 1_455 S
C129 O143 1.254 . S
C130 O144 1.236 . S
C130 O145 1.266 . S
C131 Tb121 2.809 . S
C131 C132 1.514 . S
C131 O146 1.248 . S
C131 O147 1.266 . S
C132 C131 1.514 . S
C132 C133 1.359 . S
C132 C137 1.348 . S
C133 C132 1.359 . S
C133 C134 1.380 . S
C133 H156 0.929 . S
C134 C133 1.380 . S
C134 C135 1.347 . S
C134 H157 0.931 . S
C135 C134 1.347 . S
C135 C136 1.369 . S
C136 C135 1.369 . S
C136 C137 1.408 . S
C136 H158 0.930 . S
C137 C132 1.348 . S
C137 C136 1.408 . S
C137 H159 0.930 . S
C138 O148 1.281 . S
C138 O149 1.254 1_455 S
C139 O150 1.236 . S
C139 O151 1.266 . S
O140 Tb120 2.484 . S
O140 C122 1.248 . S
O141 Tb120 2.440 . S
O141 C122 1.266 . S
O142 Tb120 2.658 1_655 S
O142 Tb121 2.325 . S
O142 C129 1.281 1_655 S
O143 Tb120 2.409 . S
O143 C129 1.254 . S
O144 Tb120 2.378 . S
O144 C130 1.236 . S
O145 Tb121 2.341 1_455 S
O145 C130 1.266 . S
O146 Tb121 2.484 . S
O146 C131 1.248 . S
O147 Tb121 2.440 . S
O147 C131 1.266 . S
O148 Tb120 2.325 . S
O148 Tb121 2.658 1_455 S
O148 C138 1.281 . S
O149 Tb121 2.409 . S
O149 C138 1.254 1_655 S
O150 Tb121 2.378 . S
O150 C139 1.236 . S
O151 Tb120 2.341 1_655 S
O151 C139 1.266 . S
H152 C124 0.929 . S
H153 C125 0.931 . S
H154 C127 0.930 . S
H155 C128 0.930 . S
H156 C133 0.929 . S
H157 C134 0.931 . S
H158 C136 0.930 . S
H159 C137 0.930 . S
Tb160 C162 2.809 . S
Tb160 O180 2.484 . S
Tb160 O181 2.440 . S
Tb160 O182 2.658 . S
Tb160 O183 2.409 . S
Tb160 O184 2.378 . S
Tb160 O188 2.325 . S
Tb160 O191 2.341 . S
Tb161 C171 2.809 . S
Tb161 O182 2.325 . S
Tb161 O185 2.341 . S
Tb161 O186 2.484 . S
Tb161 O187 2.440 . S
Tb161 O188 2.658 . S
Tb161 O189 2.409 . S
Tb161 O190 2.378 . S
C162 Tb160 2.809 . S
C162 C163 1.514 . S
C162 O180 1.248 . S
C162 O181 1.266 . S
C163 C162 1.514 . S
C163 C164 1.359 . S
C163 C168 1.348 . S
C164 C163 1.359 . S
C164 C165 1.380 . S
C164 H192 0.929 . S
C165 C164 1.380 . S
C165 C166 1.347 . S
C165 H193 0.931 . S
C166 C165 1.347 . S
C166 C167 1.369 . S
C167 C166 1.369 . S
C167 C168 1.408 . S
C167 H194 0.930 . S
C168 C163 1.348 . S
C168 C167 1.408 . S
C168 H195 0.930 . S
C169 O182 1.281 . S
C169 O183 1.254 . S
C170 O184 1.236 . S
C170 O185 1.266 . S
C171 Tb161 2.809 . S
C171 C172 1.514 . S
C171 O186 1.248 . S
C171 O187 1.266 . S
C172 C171 1.514 . S
C172 C173 1.359 . S
C172 C177 1.348 . S
C173 C172 1.359 . S
C173 C174 1.380 . S
C173 H196 0.929 . S
C174 C173 1.380 . S
C174 C175 1.347 . S
C174 H197 0.931 . S
C175 C174 1.347 . S
C175 C176 1.369 . S
C176 C175 1.369 . S
C176 C177 1.408 . S
C176 H198 0.930 . S
C177 C172 1.348 . S
C177 C176 1.408 . S
C177 H199 0.930 . S
C178 O188 1.281 . S
C178 O189 1.254 . S
C179 O190 1.236 . S
C179 O191 1.266 . S
O180 Tb160 2.484 . S
O180 C162 1.248 . S
O181 Tb160 2.440 . S
O181 C162 1.266 . S
O182 Tb160 2.658 . S
O182 Tb161 2.325 . S
O182 C169 1.281 . S
O183 Tb160 2.409 . S
O183 C169 1.254 . S
O184 Tb160 2.378 . S
O184 C170 1.236 . S
O185 Tb161 2.341 . S
O185 C170 1.266 . S
O186 Tb161 2.484 . S
O186 C171 1.248 . S
O187 Tb161 2.440 . S
O187 C171 1.266 . S
O188 Tb160 2.325 . S
O188 Tb161 2.658 . S
O188 C178 1.281 . S
O189 Tb161 2.409 . S
O189 C178 1.254 . S
O190 Tb161 2.378 . S
O190 C179 1.236 . S
O191 Tb160 2.341 . S
O191 C179 1.266 . S
H192 C164 0.929 . S
H193 C165 0.931 . S
H194 C167 0.930 . S
H195 C168 0.930 . S
H196 C173 0.929 . S
H197 C174 0.931 . S
H198 C176 0.930 . S
H199 C177 0.930 . S
Tb200 C202 2.809 . S
Tb200 O220 2.484 . S
Tb200 O221 2.440 . S
Tb200 O222 2.658 1_565 S
Tb200 O223 2.409 1_565 S
Tb200 O224 2.378 . S
Tb200 O228 2.325 1_565 S
Tb200 O231 2.341 1_565 S
Tb201 C211 2.809 . S
Tb201 O222 2.325 . S
Tb201 O225 2.341 1_545 S
Tb201 O226 2.484 . S
Tb201 O227 2.440 . S
Tb201 O228 2.658 . S
Tb201 O229 2.409 . S
Tb201 O230 2.378 . S
C202 Tb200 2.809 . S
C202 C203 1.514 . S
C202 O220 1.248 . S
C202 O221 1.266 . S
C203 C202 1.514 . S
C203 C204 1.359 . S
C203 C208 1.348 . S
C204 C203 1.359 . S
C204 C205 1.380 . S
C204 H232 0.929 . S
C205 C204 1.380 . S
C205 C206 1.347 . S
C205 H233 0.931 . S
C206 C205 1.347 . S
C206 C207 1.369 . S
C207 C206 1.369 . S
C207 C208 1.408 . S
C207 H234 0.930 . S
C208 C203 1.348 . S
C208 C207 1.408 . S
C208 H235 0.930 . S
C209 O222 1.281 . S
C209 O223 1.254 . S
C210 O224 1.236 . S
C210 O225 1.266 . S
C211 Tb201 2.809 . S
C211 C212 1.514 . S
C211 O226 1.248 . S
C211 O227 1.266 . S
C212 C211 1.514 . S
C212 C213 1.359 . S
C212 C217 1.348 . S
C213 C212 1.359 . S
C213 C214 1.380 . S
C213 H236 0.929 . S
C214 C213 1.380 . S
C214 C215 1.347 . S
C214 H237 0.931 . S
C215 C214 1.347 . S
C215 C216 1.369 . S
C216 C215 1.369 . S
C216 C217 1.408 . S
C216 H238 0.930 . S
C217 C212 1.348 . S
C217 C216 1.408 . S
C217 H239 0.930 . S
C218 O228 1.281 . S
C218 O229 1.254 . S
C219 O230 1.236 . S
C219 O231 1.266 . S
O220 Tb200 2.484 . S
O220 C202 1.248 . S
O221 Tb200 2.440 . S
O221 C202 1.266 . S
O222 Tb200 2.658 1_545 S
O222 Tb201 2.325 . S
O222 C209 1.281 . S
O223 Tb200 2.409 1_545 S
O223 C209 1.254 . S
O224 Tb200 2.378 . S
O224 C210 1.236 . S
O225 Tb201 2.341 1_565 S
O225 C210 1.266 . S
O226 Tb201 2.484 . S
O226 C211 1.248 . S
O227 Tb201 2.440 . S
O227 C211 1.266 . S
O228 Tb200 2.325 1_545 S
O228 Tb201 2.658 . S
O228 C218 1.281 . S
O229 Tb201 2.409 . S
O229 C218 1.254 . S
O230 Tb201 2.378 . S
O230 C219 1.236 . S
O231 Tb200 2.341 1_545 S
O231 C219 1.266 . S
H232 C204 0.929 . S
H233 C205 0.931 . S
H234 C207 0.930 . S
H235 C208 0.930 . S
H236 C213 0.929 . S
H237 C214 0.931 . S
H238 C216 0.930 . S
H239 C217 0.930 . S
Tb240 C242 2.809 . S
Tb240 O260 2.484 . S
Tb240 O261 2.440 . S
Tb240 O262 2.658 . S
Tb240 O263 2.409 . S
Tb240 O264 2.378 . S
Tb240 O268 2.325 . S
Tb240 O271 2.341 . S
Tb241 C251 2.809 1_455 S
Tb241 O262 2.325 . S
Tb241 O265 2.341 . S
Tb241 O266 2.484 1_455 S
Tb241 O267 2.440 1_455 S
Tb241 O268 2.658 . S
Tb241 O269 2.409 . S
Tb241 O270 2.378 . S
C242 Tb240 2.809 . S
C242 C243 1.514 . S
C242 O260 1.248 . S
C242 O261 1.266 . S
C243 C242 1.514 . S
C243 C244 1.359 . S
C243 C248 1.348 . S
C244 C243 1.359 . S
C244 C245 1.380 . S
C244 H272 0.929 . S
C245 C244 1.380 . S
C245 C246 1.347 . S
C245 H273 0.931 . S
C246 C245 1.347 . S
C246 C247 1.369 . S
C247 C246 1.369 . S
C247 C248 1.408 . S
C247 H274 0.930 . S
C248 C243 1.348 . S
C248 C247 1.408 . S
C248 H275 0.930 . S
C249 O262 1.281 . S
C249 O263 1.254 . S
C250 O264 1.236 . S
C250 O265 1.266 . S
C251 Tb241 2.809 1_655 S
C251 C252 1.514 . S
C251 O266 1.248 . S
C251 O267 1.266 . S
C252 C251 1.514 . S
C252 C253 1.359 . S
C252 C257 1.348 . S
C253 C252 1.359 . S
C253 C254 1.380 . S
C253 H276 0.929 . S
C254 C253 1.380 . S
C254 C255 1.347 1_545 S
C254 H277 0.931 1_545 S
C255 C254 1.347 1_565 S
C255 C256 1.369 1_565 S
C256 C255 1.369 1_545 S
C256 C257 1.408 . S
C256 H278 0.930 . S
C257 C252 1.348 . S
C257 C256 1.408 . S
C257 H279 0.930 . S
C258 O268 1.281 . S
C258 O269 1.254 . S
C259 O270 1.236 . S
C259 O271 1.266 . S
O260 Tb240 2.484 . S
O260 C242 1.248 . S
O261 Tb240 2.440 . S
O261 C242 1.266 . S
O262 Tb240 2.658 . S
O262 Tb241 2.325 . S
O262 C249 1.281 . S
O263 Tb240 2.409 . S
O263 C249 1.254 . S
O264 Tb240 2.378 . S
O264 C250 1.236 . S
O265 Tb241 2.341 . S
O265 C250 1.266 . S
O266 Tb241 2.484 1_655 S
O266 C251 1.248 . S
O267 Tb241 2.440 1_655 S
O267 C251 1.266 . S
O268 Tb240 2.325 . S
O268 Tb241 2.658 . S
O268 C258 1.281 . S
O269 Tb241 2.409 . S
O269 C258 1.254 . S
O270 Tb241 2.378 . S
O270 C259 1.236 . S
O271 Tb240 2.341 . S
O271 C259 1.266 . S
H272 C244 0.929 . S
H273 C245 0.931 . S
H274 C247 0.930 . S
H275 C248 0.930 . S
H276 C253 0.929 . S
H277 C254 0.931 1_565 S
H278 C256 0.930 . S
H279 C257 0.930 . S
Tb280 C282 2.809 . S
Tb280 O300 2.484 . S
Tb280 O301 2.440 . S
Tb280 O302 2.658 . S
Tb280 O303 2.409 . S
Tb280 O304 2.378 . S
Tb280 O308 2.325 . S
Tb280 O311 2.341 . S
Tb281 C291 2.809 . S
Tb281 O302 2.325 . S
Tb281 O305 2.341 . S
Tb281 O306 2.484 . S
Tb281 O307 2.440 . S
Tb281 O308 2.658 . S
Tb281 O309 2.409 . S
Tb281 O310 2.378 . S
C282 Tb280 2.809 . S
C282 C283 1.514 . S
C282 O300 1.248 . S
C282 O301 1.266 . S
C283 C282 1.514 . S
C283 C284 1.359 . S
C283 C288 1.348 . S
C284 C283 1.359 . S
C284 C285 1.380 . S
C284 H312 0.929 . S
C285 C284 1.380 . S
C285 C286 1.347 . S
C285 H313 0.931 . S
C286 C285 1.347 . S
C286 C287 1.369 . S
C287 C286 1.369 . S
C287 C288 1.408 . S
C287 H314 0.930 . S
C288 C283 1.348 . S
C288 C287 1.408 . S
C288 H315 0.930 . S
C289 O302 1.281 . S
C289 O303 1.254 . S
C290 O304 1.236 . S
C290 O305 1.266 . S
C291 Tb281 2.809 . S
C291 C292 1.514 . S
C291 O306 1.248 . S
C291 O307 1.266 . S
C292 C291 1.514 . S
C292 C293 1.359 . S
C292 C297 1.348 . S
C293 C292 1.359 . S
C293 C294 1.380 1_655 S
C293 H316 0.929 . S
C294 C293 1.380 1_455 S
C294 C295 1.347 . S
C294 H317 0.931 . S
C295 C294 1.347 . S
C295 C296 1.369 . S
C296 C295 1.369 . S
C296 C297 1.408 1_455 S
C296 H318 0.930 . S
C297 C292 1.348 . S
C297 C296 1.408 1_655 S
C297 H319 0.930 . S
C298 O308 1.281 . S
C298 O309 1.254 . S
C299 O310 1.236 . S
C299 O311 1.266 . S
O300 Tb280 2.484 . S
O300 C282 1.248 . S
O301 Tb280 2.440 . S
O301 C282 1.266 . S
O302 Tb280 2.658 . S
O302 Tb281 2.325 . S
O302 C289 1.281 . S
O303 Tb280 2.409 . S
O303 C289 1.254 . S
O304 Tb280 2.378 . S
O304 C290 1.236 . S
O305 Tb281 2.341 . S
O305 C290 1.266 . S
O306 Tb281 2.484 . S
O306 C291 1.248 . S
O307 Tb281 2.440 . S
O307 C291 1.266 . S
O308 Tb280 2.325 . S
O308 Tb281 2.658 . S
O308 C298 1.281 . S
O309 Tb281 2.409 . S
O309 C298 1.254 . S
O310 Tb281 2.378 . S
O310 C299 1.236 . S
O311 Tb280 2.341 . S
O311 C299 1.266 . S
H312 C284 0.929 . S
H313 C285 0.931 . S
H314 C287 0.930 . S
H315 C288 0.930 . S
H316 C293 0.929 . S
H317 C294 0.931 . S
H318 C296 0.930 . S
H319 C297 0.930 . S
Tb320 C322 2.809 . S
Tb320 O340 2.484 . S
Tb320 O341 2.440 . S
Tb320 O342 2.658 . S
Tb320 O343 2.409 . S
Tb320 O344 2.378 . S
Tb320 O348 2.325 . S
Tb320 O351 2.341 . S
Tb321 C331 2.809 1_565 S
Tb321 O342 2.325 . S
Tb321 O345 2.341 . S
Tb321 O346 2.484 1_565 S
Tb321 O347 2.440 1_565 S
Tb321 O348 2.658 . S
Tb321 O349 2.409 . S
Tb321 O350 2.378 . S
C322 Tb320 2.809 . S
C322 C323 1.514 . S
C322 O340 1.248 . S
C322 O341 1.266 . S
C323 C322 1.514 . S
C323 C324 1.359 . S
C323 C328 1.348 . S
C324 C323 1.359 . S
C324 C325 1.380 . S
C324 H352 0.929 . S
C325 C324 1.380 . S
C325 C326 1.347 . S
C325 H353 0.931 . S
C326 C325 1.347 . S
C326 C327 1.369 . S
C327 C326 1.369 . S
C327 C328 1.408 . S
C327 H354 0.930 . S
C328 C323 1.348 . S
C328 C327 1.408 . S
C328 H355 0.930 . S
C329 O342 1.281 . S
C329 O343 1.254 . S
C330 O344 1.236 . S
C330 O345 1.266 . S
C331 Tb321 2.809 1_545 S
C331 C332 1.514 . S
C331 O346 1.248 . S
C331 O347 1.266 . S
C332 C331 1.514 . S
C332 C333 1.359 . S
C332 C337 1.348 . S
C333 C332 1.359 . S
C333 C334 1.380 . S
C333 H356 0.929 . S
C334 C333 1.380 . S
C334 C335 1.347 . S
C334 H357 0.931 . S
C335 C334 1.347 . S
C335 C336 1.369 . S
C336 C335 1.369 . S
C336 C337 1.408 . S
C336 H358 0.930 . S
C337 C332 1.348 . S
C337 C336 1.408 . S
C337 H359 0.930 . S
C338 O348 1.281 . S
C338 O349 1.254 . S
C339 O350 1.236 . S
C339 O351 1.266 . S
O340 Tb320 2.484 . S
O340 C322 1.248 . S
O341 Tb320 2.440 . S
O341 C322 1.266 . S
O342 Tb320 2.658 . S
O342 Tb321 2.325 . S
O342 C329 1.281 . S
O343 Tb320 2.409 . S
O343 C329 1.254 . S
O344 Tb320 2.378 . S
O344 C330 1.236 . S
O345 Tb321 2.341 . S
O345 C330 1.266 . S
O346 Tb321 2.484 1_545 S
O346 C331 1.248 . S
O347 Tb321 2.440 1_545 S
O347 C331 1.266 . S
O348 Tb320 2.325 . S
O348 Tb321 2.658 . S
O348 C338 1.281 . S
O349 Tb321 2.409 . S
O349 C338 1.254 . S
O350 Tb321 2.378 . S
O350 C339 1.236 . S
O351 Tb320 2.341 . S
O351 C339 1.266 . S
H352 C324 0.929 . S
H353 C325 0.931 . S
H354 C327 0.930 . S
H355 C328 0.930 . S
H356 C333 0.929 . S
H357 C334 0.931 . S
H358 C336 0.930 . S
H359 C337 0.930 . S
Tb360 C362 2.815 . S
Tb360 O380 2.484 . S
Tb360 O381 2.440 . S
Tb360 O382 2.658 . S
Tb360 O383 2.409 . S
Tb360 O384 2.378 . S
Tb360 O388 2.325 . S
Tb360 O391 2.341 . S
Tb361 C371 2.809 . S
Tb361 O382 2.325 . S
Tb361 O385 2.341 . S
Tb361 O386 2.484 . S
Tb361 O387 2.440 . S
Tb361 O388 2.658 . S
Tb361 O389 2.409 . S
Tb361 O390 2.378 . S
C362 Tb360 2.815 . S
C362 C363 1.508 1_565 S
C362 O380 1.252 . S
C362 O381 1.268 . S
C363 C362 1.508 1_545 S
C363 C364 1.359 . S
C363 C368 1.348 . S
C364 C363 1.359 . S
C364 C365 1.380 1_655 S
C364 H392 0.929 . S
C365 C364 1.380 1_455 S
C365 C366 1.347 . S
C365 H393 0.931 . S
C366 C365 1.347 . S
C366 C367 1.369 1_455 S
C367 C366 1.369 1_655 S
C367 C368 1.408 . S
C367 H394 0.930 1_655 S
C368 C363 1.348 . S
C368 C367 1.408 . S
C368 H395 0.930 . S
C369 O382 1.281 . S
C369 O383 1.254 . S
C370 O384 1.236 . S
C370 O385 1.266 . S
C371 Tb361 2.809 . S
C371 C372 1.514 . S
C371 O386 1.248 . S
C371 O387 1.266 . S
C372 C371 1.514 . S
C372 C373 1.359 . S
C372 C377 1.348 . S
C373 C372 1.359 . S
C373 C374 1.380 . S
C373 H396 0.929 . S
C374 C373 1.380 . S
C374 C375 1.347 . S
C374 H397 0.931 . S
C375 C374 1.347 . S
C375 C376 1.369 . S
C376 C375 1.369 . S
C376 C377 1.408 . S
C376 H398 0.930 . S
C377 C372 1.348 . S
C377 C376 1.408 . S
C377 H399 0.930 . S
C378 O388 1.281 . S
C378 O389 1.254 . S
C379 O390 1.236 . S
C379 O391 1.266 . S
O380 Tb360 2.484 . S
O380 C362 1.252 . S
O381 Tb360 2.440 . S
O381 C362 1.268 . S
O382 Tb360 2.658 . S
O382 Tb361 2.325 . S
O382 C369 1.281 . S
O383 Tb360 2.409 . S
O383 C369 1.254 . S
O384 Tb360 2.378 . S
O384 C370 1.236 . S
O385 Tb361 2.341 . S
O385 C370 1.266 . S
O386 Tb361 2.484 . S
O386 C371 1.248 . S
O387 Tb361 2.440 . S
O387 C371 1.266 . S
O388 Tb360 2.325 . S
O388 Tb361 2.658 . S
O388 C378 1.281 . S
O389 Tb361 2.409 . S
O389 C378 1.254 . S
O390 Tb361 2.378 . S
O390 C379 1.236 . S
O391 Tb360 2.341 . S
O391 C379 1.266 . S
H392 C364 0.929 . S
H393 C365 0.931 . S
H394 C367 0.930 1_455 S
H395 C368 0.930 . S
H396 C373 0.929 . S
H397 C374 0.931 . S
H398 C376 0.930 . S
H399 C377 0.930 . S
Tb400 C402 2.809 . S
Tb400 O420 2.484 . S
Tb400 O421 2.440 . S
Tb400 O422 2.658 . S
Tb400 O423 2.409 . S
Tb400 O424 2.378 . S
Tb400 O428 2.325 . S
Tb400 O431 2.341 . S
Tb401 C411 2.809 . S
Tb401 O422 2.325 . S
Tb401 O425 2.341 . S
Tb401 O426 2.484 . S
Tb401 O427 2.440 . S
Tb401 O428 2.658 . S
Tb401 O429 2.409 . S
Tb401 O430 2.378 . S
C402 Tb400 2.809 . S
C402 C403 1.514 1_455 S
C402 O420 1.248 . S
C402 O421 1.266 . S
C403 C402 1.514 1_655 S
C403 C404 1.359 . S
C403 C408 1.348 . S
C404 C403 1.359 . S
C404 C405 1.380 . S
C404 H432 0.929 . S
C405 C404 1.380 . S
C405 C406 1.347 . S
C405 H433 0.931 . S
C406 C405 1.347 . S
C406 C407 1.369 . S
C407 C406 1.369 . S
C407 C408 1.408 . S
C407 H434 0.930 . S
C408 C403 1.348 . S
C408 C407 1.408 . S
C408 H435 0.930 . S
C409 O422 1.281 . S
C409 O423 1.254 . S
C410 O424 1.236 . S
C410 O425 1.266 . S
C411 Tb401 2.809 . S
C411 C412 1.514 . S
C411 O426 1.248 . S
C411 O427 1.266 . S
C412 C411 1.514 . S
C412 C413 1.359 . S
C412 C417 1.348 . S
C413 C412 1.359 . S
C413 C414 1.380 . S
C413 H436 0.929 . S
C414 C413 1.380 . S
C414 C415 1.347 . S
C414 H437 0.931 . S
C415 C414 1.347 . S
C415 C416 1.369 . S
C416 C415 1.369 . S
C416 C417 1.408 . S
C416 H438 0.930 . S
C417 C412 1.348 . S
C417 C416 1.408 . S
C417 H439 0.930 . S
C418 O428 1.281 . S
C418 O429 1.254 . S
C419 O430 1.236 . S
C419 O431 1.266 . S
O420 Tb400 2.484 . S
O420 C402 1.248 . S
O421 Tb400 2.440 . S
O421 C402 1.266 . S
O422 Tb400 2.658 . S
O422 Tb401 2.325 . S
O422 C409 1.281 . S
O423 Tb400 2.409 . S
O423 C409 1.254 . S
O424 Tb400 2.378 . S
O424 C410 1.236 . S
O425 Tb401 2.341 . S
O425 C410 1.266 . S
O426 Tb401 2.484 . S
O426 C411 1.248 . S
O427 Tb401 2.440 . S
O427 C411 1.266 . S
O428 Tb400 2.325 . S
O428 Tb401 2.658 . S
O428 C418 1.281 . S
O429 Tb401 2.409 . S
O429 C418 1.254 . S
O430 Tb401 2.378 . S
O430 C419 1.236 . S
O431 Tb400 2.341 . S
O431 C419 1.266 . S
H432 C404 0.929 . S
H433 C405 0.931 . S
H434 C407 0.930 . S
H435 C408 0.930 . S
H436 C413 0.929 . S
H437 C414 0.931 . S
H438 C416 0.930 . S
H439 C417 0.930 . S
Tb440 C442 2.809 . S
Tb440 O460 2.484 . S
Tb440 O461 2.440 . S
Tb440 O462 2.658 . S
Tb440 O463 2.409 . S
Tb440 O464 2.378 . S
Tb440 O468 2.325 . S
Tb440 O471 2.341 . S
Tb441 C451 2.809 . S
Tb441 O462 2.325 . S
Tb441 O465 2.341 . S
Tb441 O466 2.484 . S
Tb441 O467 2.440 . S
Tb441 O468 2.658 . S
Tb441 O469 2.409 . S
Tb441 O470 2.378 . S
C442 Tb440 2.809 . S
C442 C443 1.514 . S
C442 O460 1.248 . S
C442 O461 1.266 . S
C443 C442 1.514 . S
C443 C444 1.359 . S
C443 C448 1.348 . S
C444 C443 1.359 . S
C444 C445 1.380 . S
C444 H472 0.929 . S
C445 C444 1.380 . S
C445 C446 1.347 . S
C445 H473 0.931 . S
C446 C445 1.347 . S
C446 C447 1.369 . S
C447 C446 1.369 . S
C447 C448 1.408 . S
C447 H474 0.930 . S
C448 C443 1.348 . S
C448 C447 1.408 . S
C448 H475 0.930 . S
C449 O462 1.281 . S
C449 O463 1.254 . S
C450 O464 1.236 . S
C450 O465 1.266 . S
C451 Tb441 2.809 . S
C451 C452 1.514 . S
C451 O466 1.248 . S
C451 O467 1.266 . S
C452 C451 1.514 . S
C452 C453 1.359 . S
C452 C457 1.348 . S
C453 C452 1.359 . S
C453 C454 1.380 . S
C453 H476 0.929 . S
C454 C453 1.380 . S
C454 C455 1.347 . S
C454 H477 0.931 . S
C455 C454 1.347 . S
C455 C456 1.369 . S
C456 C455 1.369 . S
C456 C457 1.408 . S
C456 H478 0.930 . S
C457 C452 1.348 . S
C457 C456 1.408 . S
C457 H479 0.930 . S
C458 O468 1.281 . S
C458 O469 1.254 . S
C459 O470 1.236 . S
C459 O471 1.266 . S
O460 Tb440 2.484 . S
O460 C442 1.248 . S
O461 Tb440 2.440 . S
O461 C442 1.266 . S
O462 Tb440 2.658 . S
O462 Tb441 2.325 . S
O462 C449 1.281 . S
O463 Tb440 2.409 . S
O463 C449 1.254 . S
O464 Tb440 2.378 . S
O464 C450 1.236 . S
O465 Tb441 2.341 . S
O465 C450 1.266 . S
O466 Tb441 2.484 . S
O466 C451 1.248 . S
O467 Tb441 2.440 . S
O467 C451 1.266 . S
O468 Tb440 2.325 . S
O468 Tb441 2.658 . S
O468 C458 1.281 . S
O469 Tb441 2.409 . S
O469 C458 1.254 . S
O470 Tb441 2.378 . S
O470 C459 1.236 . S
O471 Tb440 2.341 . S
O471 C459 1.266 . S
H472 C444 0.929 . S
H473 C445 0.931 . S
H474 C447 0.930 . S
H475 C448 0.930 . S
H476 C453 0.929 . S
H477 C454 0.931 . S
H478 C456 0.930 . S
H479 C457 0.930 . S
Tb480 C482 2.815 . S
Tb480 O500 2.484 . S
Tb480 O501 2.440 . S
Tb480 O502 2.658 . S
Tb480 O503 2.409 . S
Tb480 O504 2.378 . S
Tb480 O508 2.325 . S
Tb480 O511 2.341 . S
Tb481 C491 2.809 . S
Tb481 O502 2.325 . S
Tb481 O505 2.341 . S
Tb481 O506 2.484 . S
Tb481 O507 2.440 . S
Tb481 O508 2.658 . S
Tb481 O509 2.409 . S
Tb481 O510 2.378 . S
C482 Tb480 2.815 . S
C482 C483 1.508 1_655 S
C482 O500 1.252 . S
C482 O501 1.268 . S
C483 C482 1.508 1_455 S
C483 C484 1.359 . S
C483 C488 1.348 . S
C484 C483 1.359 . S
C484 C485 1.380 1_565 S
C484 H512 0.929 . S
C485 C484 1.380 1_545 S
C485 C486 1.347 . S
C485 H513 0.931 . S
C486 C485 1.347 . S
C486 C487 1.369 1_545 S
C487 C486 1.369 1_565 S
C487 C488 1.408 . S
C487 H514 0.930 1_565 S
C488 C483 1.348 . S
C488 C487 1.408 . S
C488 H515 0.930 . S
C489 O502 1.281 . S
C489 O503 1.254 . S
C490 O504 1.236 . S
C490 O505 1.266 . S
C491 Tb481 2.809 . S
C491 C492 1.514 . S
C491 O506 1.248 . S
C491 O507 1.266 . S
C492 C491 1.514 . S
C492 C493 1.359 . S
C492 C497 1.348 . S
C493 C492 1.359 . S
C493 C494 1.380 . S
C493 H516 0.929 . S
C494 C493 1.380 . S
C494 C495 1.347 . S
C494 H517 0.931 . S
C495 C494 1.347 . S
C495 C496 1.369 . S
C496 C495 1.369 . S
C496 C497 1.408 . S
C496 H518 0.930 . S
C497 C492 1.348 . S
C497 C496 1.408 . S
C497 H519 0.930 . S
C498 O508 1.281 . S
C498 O509 1.254 . S
C499 O510 1.236 . S
C499 O511 1.266 . S
O500 Tb480 2.484 . S
O500 C482 1.252 . S
O501 Tb480 2.440 . S
O501 C482 1.268 . S
O502 Tb480 2.658 . S
O502 Tb481 2.325 . S
O502 C489 1.281 . S
O503 Tb480 2.409 . S
O503 C489 1.254 . S
O504 Tb480 2.378 . S
O504 C490 1.236 . S
O505 Tb481 2.341 . S
O505 C490 1.266 . S
O506 Tb481 2.484 . S
O506 C491 1.248 . S
O507 Tb481 2.440 . S
O507 C491 1.266 . S
O508 Tb480 2.325 . S
O508 Tb481 2.658 . S
O508 C498 1.281 . S
O509 Tb481 2.409 . S
O509 C498 1.254 . S
O510 Tb481 2.378 . S
O510 C499 1.236 . S
O511 Tb480 2.341 . S
O511 C499 1.266 . S
H512 C484 0.929 . S
H513 C485 0.931 . S
H514 C487 0.930 1_545 S
H515 C488 0.930 . S
H516 C493 0.929 . S
H517 C494 0.931 . S
H518 C496 0.930 . S
H519 C497 0.930 . S
Tb520 C522 2.809 . S
Tb520 O540 2.484 . S
Tb520 O541 2.440 . S
Tb520 O542 2.658 . S
Tb520 O543 2.409 . S
Tb520 O544 2.378 . S
Tb520 O548 2.325 . S
Tb520 O551 2.341 . S
Tb521 C531 2.809 . S
Tb521 O542 2.325 . S
Tb521 O545 2.341 . S
Tb521 O546 2.484 . S
Tb521 O547 2.440 . S
Tb521 O548 2.658 . S
Tb521 O549 2.409 . S
Tb521 O550 2.378 . S
C522 Tb520 2.809 . S
C522 C523 1.514 . S
C522 O540 1.248 . S
C522 O541 1.266 . S
C523 C522 1.514 . S
C523 C524 1.359 . S
C523 C528 1.348 . S
C524 C523 1.359 . S
C524 C525 1.380 . S
C524 H552 0.929 . S
C525 C524 1.380 . S
C525 C526 1.347 . S
C525 H553 0.931 . S
C526 C525 1.347 . S
C526 C527 1.369 . S
C527 C526 1.369 . S
C527 C528 1.408 . S
C527 H554 0.930 . S
C528 C523 1.348 . S
C528 C527 1.408 . S
C528 H555 0.930 . S
C529 O542 1.281 . S
C529 O543 1.254 . S
C530 O544 1.236 . S
C530 O545 1.266 . S
C531 Tb521 2.809 . S
C531 C532 1.514 . S
C531 O546 1.248 . S
C531 O547 1.266 . S
C532 C531 1.514 . S
C532 C533 1.359 . S
C532 C537 1.348 . S
C533 C532 1.359 . S
C533 C534 1.380 . S
C533 H556 0.929 . S
C534 C533 1.380 . S
C534 C535 1.347 . S
C534 H557 0.931 . S
C535 C534 1.347 . S
C535 C536 1.369 . S
C536 C535 1.369 . S
C536 C537 1.408 . S
C536 H558 0.930 . S
C537 C532 1.348 . S
C537 C536 1.408 . S
C537 H559 0.930 . S
C538 O548 1.281 . S
C538 O549 1.254 . S
C539 O550 1.236 . S
C539 O551 1.266 . S
O540 Tb520 2.484 . S
O540 C522 1.248 . S
O541 Tb520 2.440 . S
O541 C522 1.266 . S
O542 Tb520 2.658 . S
O542 Tb521 2.325 . S
O542 C529 1.281 . S
O543 Tb520 2.409 . S
O543 C529 1.254 . S
O544 Tb520 2.378 . S
O544 C530 1.236 . S
O545 Tb521 2.341 . S
O545 C530 1.266 . S
O546 Tb521 2.484 . S
O546 C531 1.248 . S
O547 Tb521 2.440 . S
O547 C531 1.266 . S
O548 Tb520 2.325 . S
O548 Tb521 2.658 . S
O548 C538 1.281 . S
O549 Tb521 2.409 . S
O549 C538 1.254 . S
O550 Tb521 2.378 . S
O550 C539 1.236 . S
O551 Tb520 2.341 . S
O551 C539 1.266 . S
H552 C524 0.929 . S
H553 C525 0.931 . S
H554 C527 0.930 . S
H555 C528 0.930 . S
H556 C533 0.929 . S
H557 C534 0.931 . S
H558 C536 0.930 . S
H559 C537 0.930 . S
Tb560 C562 2.809 . S
Tb560 O580 2.484 . S
Tb560 O581 2.440 . S
Tb560 O582 2.658 . S
Tb560 O583 2.409 . S
Tb560 O584 2.378 . S
Tb560 O588 2.325 . S
Tb560 O591 2.341 . S
Tb561 C571 2.809 . S
Tb561 O582 2.325 . S
Tb561 O585 2.341 . S
Tb561 O586 2.484 . S
Tb561 O587 2.440 . S
Tb561 O588 2.658 . S
Tb561 O589 2.409 . S
Tb561 O590 2.378 . S
C562 Tb560 2.809 . S
C562 C563 1.514 1_545 S
C562 O580 1.248 . S
C562 O581 1.266 . S
C563 C562 1.514 1_565 S
C563 C564 1.359 . S
C563 C568 1.348 . S
C564 C563 1.359 . S
C564 C565 1.380 . S
C564 H592 0.929 . S
C565 C564 1.380 . S
C565 C566 1.347 . S
C565 H593 0.931 . S
C566 C565 1.347 . S
C566 C567 1.369 . S
C567 C566 1.369 . S
C567 C568 1.408 . S
C567 H594 0.930 . S
C568 C563 1.348 . S
C568 C567 1.408 . S
C568 H595 0.930 . S
C569 O582 1.281 . S
C569 O583 1.254 . S
C570 O584 1.236 . S
C570 O585 1.266 . S
C571 Tb561 2.809 . S
C571 C572 1.514 . S
C571 O586 1.248 . S
C571 O587 1.266 . S
C572 C571 1.514 . S
C572 C573 1.359 . S
C572 C577 1.348 . S
C573 C572 1.359 . S
C573 C574 1.380 . S
C573 H596 0.929 . S
C574 C573 1.380 . S
C574 C575 1.347 . S
C574 H597 0.931 . S
C575 C574 1.347 . S
C575 C576 1.369 . S
C576 C575 1.369 . S
C576 C577 1.408 . S
C576 H598 0.930 . S
C577 C572 1.348 . S
C577 C576 1.408 . S
C577 H599 0.930 . S
C578 O588 1.281 . S
C578 O589 1.254 . S
C579 O590 1.236 . S
C579 O591 1.266 . S
O580 Tb560 2.484 . S
O580 C562 1.248 . S
O581 Tb560 2.440 . S
O581 C562 1.266 . S
O582 Tb560 2.658 . S
O582 Tb561 2.325 . S
O582 C569 1.281 . S
O583 Tb560 2.409 . S
O583 C569 1.254 . S
O584 Tb560 2.378 . S
O584 C570 1.236 . S
O585 Tb561 2.341 . S
O585 C570 1.266 . S
O586 Tb561 2.484 . S
O586 C571 1.248 . S
O587 Tb561 2.440 . S
O587 C571 1.266 . S
O588 Tb560 2.325 . S
O588 Tb561 2.658 . S
O588 C578 1.281 . S
O589 Tb561 2.409 . S
O589 C578 1.254 . S
O590 Tb561 2.378 . S
O590 C579 1.236 . S
O591 Tb560 2.341 . S
O591 C579 1.266 . S
H592 C564 0.929 . S
H593 C565 0.931 . S
H594 C567 0.930 . S
H595 C568 0.930 . S
H596 C573 0.929 . S
H597 C574 0.931 . S
H598 C576 0.930 . S
H599 C577 0.930 . S
Tb600 C602 2.809 . S
Tb600 O620 2.484 . S
Tb600 O621 2.440 . S
Tb600 O622 2.658 . S
Tb600 O623 2.409 . S
Tb600 O624 2.378 . S
Tb600 O628 2.325 . S
Tb600 O631 2.341 . S
Tb601 C611 2.809 1_545 S
Tb601 O622 2.325 . S
Tb601 O625 2.341 . S
Tb601 O626 2.484 1_545 S
Tb601 O627 2.440 1_545 S
Tb601 O628 2.658 . S
Tb601 O629 2.409 . S
Tb601 O630 2.378 . S
C602 Tb600 2.809 . S
C602 C603 1.514 . S
C602 O620 1.248 . S
C602 O621 1.266 . S
C603 C602 1.514 . S
C603 C604 1.359 . S
C603 C608 1.348 . S
C604 C603 1.359 . S
C604 C605 1.380 . S
C604 H632 0.929 . S
C605 C604 1.380 . S
C605 C606 1.347 . S
C605 H633 0.931 . S
C606 C605 1.347 . S
C606 C607 1.369 . S
C607 C606 1.369 . S
C607 C608 1.408 . S
C607 H634 0.930 . S
C608 C603 1.348 . S
C608 C607 1.408 . S
C608 H635 0.930 . S
C609 O622 1.281 . S
C609 O623 1.254 . S
C610 O624 1.236 . S
C610 O625 1.266 . S
C611 Tb601 2.809 1_565 S
C611 C612 1.514 . S
C611 O626 1.248 . S
C611 O627 1.266 . S
C612 C611 1.514 . S
C612 C613 1.359 . S
C612 C617 1.348 . S
C613 C612 1.359 . S
C613 C614 1.380 . S
C613 H636 0.929 . S
C614 C613 1.380 . S
C614 C615 1.347 1_455 S
C614 H637 0.931 1_455 S
C615 C614 1.347 1_655 S
C615 C616 1.369 1_655 S
C616 C615 1.369 1_455 S
C616 C617 1.408 . S
C616 H638 0.930 . S
C617 C612 1.348 . S
C617 C616 1.408 . S
C617 H639 0.930 . S
C618 O628 1.281 . S
C618 O629 1.254 . S
C619 O630 1.236 . S
C619 O631 1.266 . S
O620 Tb600 2.484 . S
O620 C602 1.248 . S
O621 Tb600 2.440 . S
O621 C602 1.266 . S
O622 Tb600 2.658 . S
O622 Tb601 2.325 . S
O622 C609 1.281 . S
O623 Tb600 2.409 . S
O623 C609 1.254 . S
O624 Tb600 2.378 . S
O624 C610 1.236 . S
O625 Tb601 2.341 . S
O625 C610 1.266 . S
O626 Tb601 2.484 1_565 S
O626 C611 1.248 . S
O627 Tb601 2.440 1_565 S
O627 C611 1.266 . S
O628 Tb600 2.325 . S
O628 Tb601 2.658 . S
O628 C618 1.281 . S
O629 Tb601 2.409 . S
O629 C618 1.254 . S
O630 Tb601 2.378 . S
O630 C619 1.236 . S
O631 Tb600 2.341 . S
O631 C619 1.266 . S
H632 C604 0.929 . S
H633 C605 0.931 . S
H634 C607 0.930 . S
H635 C608 0.930 . S
H636 C613 0.929 . S
H637 C614 0.931 1_655 S
H638 C616 0.930 . S
H639 C617 0.930 . S
Tb640 C642 2.809 . S
Tb640 O660 2.484 . S
Tb640 O661 2.440 . S
Tb640 O662 2.658 . S
Tb640 O663 2.409 . S
Tb640 O664 2.378 . S
Tb640 O668 2.325 . S
Tb640 O671 2.341 . S
Tb641 C651 2.809 1_655 S
Tb641 O662 2.325 . S
Tb641 O665 2.341 . S
Tb641 O666 2.484 1_655 S
Tb641 O667 2.440 1_655 S
Tb641 O668 2.658 . S
Tb641 O669 2.409 . S
Tb641 O670 2.378 . S
C642 Tb640 2.809 . S
C642 C643 1.514 . S
C642 O660 1.248 . S
C642 O661 1.266 . S
C643 C642 1.514 . S
C643 C644 1.359 . S
C643 C648 1.348 . S
C644 C643 1.359 . S
C644 C645 1.380 . S
C644 H672 0.929 . S
C645 C644 1.380 . S
C645 C646 1.347 . S
C645 H673 0.931 . S
C646 C645 1.347 . S
C646 C647 1.369 . S
C647 C646 1.369 . S
C647 C648 1.408 . S
C647 H674 0.930 . S
C648 C643 1.348 . S
C648 C647 1.408 . S
C648 H675 0.930 . S
C649 O662 1.281 . S
C649 O663 1.254 . S
C650 O664 1.236 . S
C650 O665 1.266 . S
C651 Tb641 2.809 1_455 S
C651 C652 1.514 . S
C651 O666 1.248 . S
C651 O667 1.266 . S
C652 C651 1.514 . S
C652 C653 1.359 . S
C652 C657 1.348 . S
C653 C652 1.359 . S
C653 C654 1.380 . S
C653 H676 0.929 . S
C654 C653 1.380 . S
C654 C655 1.347 . S
C654 H677 0.931 . S
C655 C654 1.347 . S
C655 C656 1.369 . S
C656 C655 1.369 . S
C656 C657 1.408 . S
C656 H678 0.930 . S
C657 C652 1.348 . S
C657 C656 1.408 . S
C657 H679 0.930 . S
C658 O668 1.281 . S
C658 O669 1.254 . S
C659 O670 1.236 . S
C659 O671 1.266 . S
O660 Tb640 2.484 . S
O660 C642 1.248 . S
O661 Tb640 2.440 . S
O661 C642 1.266 . S
O662 Tb640 2.658 . S
O662 Tb641 2.325 . S
O662 C649 1.281 . S
O663 Tb640 2.409 . S
O663 C649 1.254 . S
O664 Tb640 2.378 . S
O664 C650 1.236 . S
O665 Tb641 2.341 . S
O665 C650 1.266 . S
O666 Tb641 2.484 1_455 S
O666 C651 1.248 . S
O667 Tb641 2.440 1_455 S
O667 C651 1.266 . S
O668 Tb640 2.325 . S
O668 Tb641 2.658 . S
O668 C658 1.281 . S
O669 Tb641 2.409 . S
O669 C658 1.254 . S
O670 Tb641 2.378 . S
O670 C659 1.236 . S
O671 Tb640 2.341 . S
O671 C659 1.266 . S
H672 C644 0.929 . S
H673 C645 0.931 . S
H674 C647 0.930 . S
H675 C648 0.930 . S
H676 C653 0.929 . S
H677 C654 0.931 . S
H678 C656 0.930 . S
H679 C657 0.930 . S
Tb680 C682 2.809 . S
Tb680 O700 2.484 . S
Tb680 O701 2.440 . S
Tb680 O702 2.658 . S
Tb680 O703 2.409 . S
Tb680 O704 2.378 . S
Tb680 O708 2.325 . S
Tb680 O711 2.341 . S
Tb681 C691 2.809 . S
Tb681 O702 2.325 . S
Tb681 O705 2.341 . S
Tb681 O706 2.484 . S
Tb681 O707 2.440 . S
Tb681 O708 2.658 . S
Tb681 O709 2.409 . S
Tb681 O710 2.378 . S
C682 Tb680 2.809 . S
C682 C683 1.514 . S
C682 O700 1.248 . S
C682 O701 1.266 . S
C683 C682 1.514 . S
C683 C684 1.359 . S
C683 C688 1.348 . S
C684 C683 1.359 . S
C684 C685 1.380 . S
C684 H712 0.929 . S
C685 C684 1.380 . S
C685 C686 1.347 . S
C685 H713 0.931 . S
C686 C685 1.347 . S
C686 C687 1.369 . S
C687 C686 1.369 . S
C687 C688 1.408 . S
C687 H714 0.930 . S
C688 C683 1.348 . S
C688 C687 1.408 . S
C688 H715 0.930 . S
C689 O702 1.281 . S
C689 O703 1.254 . S
C690 O704 1.236 . S
C690 O705 1.266 . S
C691 Tb681 2.809 . S
C691 C692 1.514 . S
C691 O706 1.248 . S
C691 O707 1.266 . S
C692 C691 1.514 . S
C692 C693 1.359 . S
C692 C697 1.348 . S
C693 C692 1.359 . S
C693 C694 1.380 1_565 S
C693 H716 0.929 . S
C694 C693 1.380 1_545 S
C694 C695 1.347 . S
C694 H717 0.931 . S
C695 C694 1.347 . S
C695 C696 1.369 . S
C696 C695 1.369 . S
C696 C697 1.408 1_545 S
C696 H718 0.930 . S
C697 C692 1.348 . S
C697 C696 1.408 1_565 S
C697 H719 0.930 . S
C698 O708 1.281 . S
C698 O709 1.254 . S
C699 O710 1.236 . S
C699 O711 1.266 . S
O700 Tb680 2.484 . S
O700 C682 1.248 . S
O701 Tb680 2.440 . S
O701 C682 1.266 . S
O702 Tb680 2.658 . S
O702 Tb681 2.325 . S
O702 C689 1.281 . S
O703 Tb680 2.409 . S
O703 C689 1.254 . S
O704 Tb680 2.378 . S
O704 C690 1.236 . S
O705 Tb681 2.341 . S
O705 C690 1.266 . S
O706 Tb681 2.484 . S
O706 C691 1.248 . S
O707 Tb681 2.440 . S
O707 C691 1.266 . S
O708 Tb680 2.325 . S
O708 Tb681 2.658 . S
O708 C698 1.281 . S
O709 Tb681 2.409 . S
O709 C698 1.254 . S
O710 Tb681 2.378 . S
O710 C699 1.236 . S
O711 Tb680 2.341 . S
O711 C699 1.266 . S
H712 C684 0.929 . S
H713 C685 0.931 . S
H714 C687 0.930 . S
H715 C688 0.930 . S
H716 C693 0.929 . S
H717 C694 0.931 . S
H718 C696 0.930 . S
H719 C697 0.930 . S
C19 C95 1.792 . S
C15 C59 1.791 . S
C55 C99 1.792 . S
C139 C175 1.792 . S
C215 C179 1.792 . S
C219 C135 1.791 . S
C335 C259 1.792 . S
C255 C299 1.792 . S
C339 C295 1.792 . S
C415 C379 1.792 . S
C419 C455 1.792 . S
C375 C459 1.792 . S
C499 C575 1.792 . S
C495 C539 1.792 . S
C535 C579 1.792 . S
C655 C619 1.792 . S
C695 C659 1.792 . S
C615 C699 1.792 . S
C18 C218 1.640 1_554 S
C138 C58 1.640 1_556 S
C178 C98 1.641 1_556 S
C258 C458 1.641 . S
C298 C378 1.641 . S
C418 C338 1.641 . S
C498 C698 1.641 . S
C618 C538 1.641 . S
C658 C578 1.641 . S
C409 C9 4.929 1_565 S
C49 C449 4.929 . S
C369 C89 4.929 . S
C129 C569 4.929 1_455 S
C169 C489 4.929 . S
C529 C209 4.929 . S
C649 C249 4.929 1_655 S
C289 C689 4.929 . S
C329 C609 4.929 1_565 S
C86 C10 2.809 . S
C6 C50 2.809 . S
C90 C46 2.809 . S
C166 C130 2.809 . S
C206 C170 2.809 . S
C210 C126 2.809 . S
C326 C250 2.809 . S
C290 C246 2.809 . S
C286 C330 2.809 . S
C370 C406 2.809 . S
C410 C446 2.809 1_565 S
C366 C450 2.809 . S
C490 C566 2.809 . S
C530 C486 2.809 . S
C526 C570 2.809 1_455 S
C610 C646 2.809 . S
C650 C686 2.809 . S
C606 C690 2.809 . S
