# Generated by pormake.
# Topology qtz-g, (3)-cn, num edge types: 1
# Building blocks:
#     Node 0, Type 0, BuildingBlock: OLANEW_clean_sbu_2, # of connection points: 3
#     Node 1, Type 0, BuildingBlock: OLANEW_clean_sbu_2, # of connection points: 3
#     Node 2, Type 0, BuildingBlock: OLANEW_clean_sbu_2, # of connection points: 3
#     Node 3, Type 0, BuildingBlock: OLANEW_clean_sbu_2, # of connection points: 3
#     Node 4, Type 0, BuildingBlock: OLANEW_clean_sbu_2, # of connection points: 3
#     Node 5, Type 0, BuildingBlock: OLANEW_clean_sbu_2, # of connection points: 3
#     Node 6, Type 0, BuildingBlock: OLANEW_clean_sbu_2, # of connection points: 3
#     Node 7, Type 0, BuildingBlock: OLANEW_clean_sbu_2, # of connection points: 3
#     Node 8, Type 0, BuildingBlock: OLANEW_clean_sbu_2, # of connection points: 3
#     Node 9, Type 0, BuildingBlock: OLANEW_clean_sbu_2, # of connection points: 3
#     Node 10, Type 0, BuildingBlock: OLANEW_clean_sbu_2, # of connection points: 3
#     Node 11, Type 0, BuildingBlock: OLANEW_clean_sbu_2, # of connection points: 3
#     Edge 12, Type (0, 0), BuildingBlock: FUNLAD_clean_linker_1, # of connection points: 2
#     Edge 13, Type (0, 0), BuildingBlock: FUNLAD_clean_linker_1, # of connection points: 2
#     Edge 14, Type (0, 0), BuildingBlock: FUNLAD_clean_linker_1, # of connection points: 2
#     Edge 15, Type (0, 0), BuildingBlock: FUNLAD_clean_linker_1, # of connection points: 2
#     Edge 16, Type (0, 0), BuildingBlock: FUNLAD_clean_linker_1, # of connection points: 2
#     Edge 17, Type (0, 0), BuildingBlock: FUNLAD_clean_linker_1, # of connection points: 2
#     Edge 18, Type (0, 0), BuildingBlock: FUNLAD_clean_linker_1, # of connection points: 2
#     Edge 19, Type (0, 0), BuildingBlock: FUNLAD_clean_linker_1, # of connection points: 2
#     Edge 20, Type (0, 0), BuildingBlock: FUNLAD_clean_linker_1, # of connection points: 2
#     Edge 21, Type (0, 0), BuildingBlock: FUNLAD_clean_linker_1, # of connection points: 2
#     Edge 22, Type (0, 0), BuildingBlock: FUNLAD_clean_linker_1, # of connection points: 2
#     Edge 23, Type (0, 0), BuildingBlock: FUNLAD_clean_linker_1, # of connection points: 2
#     Edge 24, Type (0, 0), BuildingBlock: FUNLAD_clean_linker_1, # of connection points: 2
#     Edge 25, Type (0, 0), BuildingBlock: FUNLAD_clean_linker_1, # of connection points: 2
#     Edge 26, Type (0, 0), BuildingBlock: FUNLAD_clean_linker_1, # of connection points: 2
#     Edge 27, Type (0, 0), BuildingBlock: FUNLAD_clean_linker_1, # of connection points: 2
#     Edge 28, Type (0, 0), BuildingBlock: FUNLAD_clean_linker_1, # of connection points: 2
#     Edge 29, Type (0, 0), BuildingBlock: FUNLAD_clean_linker_1, # of connection points: 2
# Relax obj value: 0.011
# Max RMSD: 0.026
# Mean RMSD: 0.026
data_MOF--net-qtz-g--node1-OLANEW_clean_sbu_2--edge1-FUNLAD_clean_linker_1
_symmetry_space_group_name_H-M    P1
_symmetry_Int_Tables_number       1
_symmetry_cell_setting            triclinic
loop_
_symmetry_equiv_pos_as_xyz
'x, y, z'
_cell_length_a     46.152785
_cell_length_b     46.16653
_cell_length_c     87.265099
_cell_angle_alpha  89.999649
_cell_angle_beta   90.00084
_cell_angle_gamma 120.02003
loop_
_atom_site_label
_atom_site_type_symbol
_atom_site_fract_x
_atom_site_fract_y
_atom_site_fract_z
_atom_type_partial_charge
O0 O 0.00757 0.38051 0.03438 0.0
Cd1 Cd 0.00566 0.32683 0.03212 0.0
O2 O 0.01425 0.37969 0.05923 0.0
Cd3 Cd 0.01951 0.4011 0.08212 0.0
O4 O 0.02343 0.41538 0.10623 0.0
C5 C 0.9979 0.41137 0.11355 0.0
O6 O 0.9691 0.3994 0.10639 0.0
C7 C 0.01113 0.39404 0.04745 0.0
C8 C 0.0678 0.33328 0.02589 0.0
O9 O 0.04844 0.33169 0.01499 0.0
O10 O 0.05799 0.33214 0.03972 0.0
O11 O 0.61761 0.99086 0.35437 0.0
Cd12 Cd 0.67345 0.99724 0.35495 0.0
O13 O 0.62438 0.00845 0.37814 0.0
Cd14 Cd 0.60754 0.01557 0.40059 0.0
O15 O 0.58722 0.01373 0.42342 0.0
C16 C 0.58243 0.98919 0.43177 0.0
O17 O 0.58996 0.96723 0.42636 0.0
C18 C 0.60612 0.99758 0.36621 0.0
C19 C 0.72535 0.06233 0.35008 0.0
O20 O 0.71158 0.04219 0.33881 0.0
O21 O 0.71428 0.05194 0.36361 0.0
O22 O 0.63604 0.62359 0.70814 0.0
Cd23 Cd 0.683 0.68021 0.71195 0.0
O24 O 0.61688 0.63317 0.7293 0.0
Cd25 Cd 0.58576 0.6207 0.74985 0.0
O26 O 0.56647 0.61117 0.77326 0.0
C27 C 0.57759 0.59756 0.78236 0.0
O28 O 0.59925 0.58925 0.77727 0.0
C29 C 0.61347 0.6135 0.71835 0.0
C30 C 0.68059 0.72764 0.69317 0.0
O31 O 0.69844 0.7146 0.6895 0.0
O32 O 0.66371 0.71818 0.70564 0.0
O33 O 0.99202 0.62127 0.02059 0.0
Cd34 Cd 0.99436 0.67534 0.02067 0.0
O35 O 0.98833 0.61952 0.04567 0.0
Cd36 Cd 0.98138 0.59666 0.06839 0.0
O37 O 0.97723 0.57935 0.09203 0.0
C38 C 0.00169 0.57905 0.09854 0.0
O39 O 0.02942 0.58839 0.09081 0.0
C40 C 0.99024 0.6065 0.03312 0.0
C41 C 0.93212 0.67041 0.01691 0.0
O42 O 0.95019 0.67293 0.00527 0.0
O43 O 0.94323 0.66986 0.03029 0.0
O44 O 0.36261 0.99433 0.37207 0.0
Cd45 Cd 0.30595 0.98018 0.37946 0.0
O46 O 0.36798 0.98163 0.39573 0.0
Cd47 Cd 0.39898 0.98006 0.4143 0.0
O48 O 0.42328 0.98291 0.43619 0.0
C49 C 0.45475 0.99669 0.43815 0.0
O50 O 0.47506 0.01009 0.42646 0.0
C51 C 0.38 0.99081 0.38237 0.0
C52 C 0.25766 0.92448 0.36363 0.0
O53 O 0.26623 0.95413 0.35913 0.0
O54 O 0.27189 0.9211 0.37555 0.0
O55 O 0.3638 0.37826 0.70918 0.0
Cd56 Cd 0.3166 0.32205 0.71364 0.0
O57 O 0.38382 0.36919 0.7302 0.0
Cd58 Cd 0.41581 0.38208 0.75047 0.0
O59 O 0.43567 0.39205 0.77378 0.0
C60 C 0.42429 0.40532 0.78294 0.0
O61 O 0.40215 0.41306 0.77792 0.0
C62 C 0.38687 0.38853 0.71915 0.0
C63 C 0.31893 0.27309 0.69598 0.0
O64 O 0.30102 0.28577 0.69183 0.0
O65 O 0.33587 0.28362 0.7084 0.0
O66 O 0.61543 0.97082 0.61714 0.0
Cd67 Cd 0.65979 0.95719 0.61364 0.0
O68 O 0.6089 0.96207 0.5924 0.0
Cd69 Cd 0.5853 0.96282 0.57086 0.0
O70 O 0.56999 0.97085 0.54838 0.0
C71 C 0.55683 0.9891 0.54652 0.0
O72 O 0.55135 0.00298 0.55846 0.0
C73 C 0.60026 0.96989 0.60484 0.0
C74 C 0.65128 0.90283 0.6309 0.0
O75 O 0.6708 0.93284 0.63551 0.0
O76 O 0.6354 0.89847 0.6183 0.0
O77 O 0.61206 0.63656 0.97693 0.0
Cd78 Cd 0.66647 0.68788 0.97775 0.0
O79 O 0.62505 0.62434 0.95464 0.0
Cd80 Cd 0.61502 0.5979 0.93276 0.0
O81 O 0.60907 0.58295 0.9087 0.0
C82 C 0.58805 0.58624 0.90059 0.0
O83 O 0.57013 0.59792 0.90692 0.0
C84 C 0.60418 0.61699 0.96552 0.0
C85 C 0.72011 0.67672 0.9811 0.0
O86 O 0.70527 0.67993 0.99285 0.0
O87 O 0.70941 0.67838 0.96777 0.0
O88 O 0.0085 0.63696 0.28539 0.0
Cd89 Cd 0.0139 0.69171 0.28093 0.0
O90 O 0.03705 0.64629 0.26413 0.0
Cd91 Cd 0.05717 0.63047 0.2453 0.0
O92 O 0.06631 0.62043 0.22188 0.0
C93 C 0.04364 0.59513 0.21485 0.0
O94 O 0.01581 0.57466 0.22208 0.0
C95 C 0.02182 0.62729 0.27538 0.0
C96 C 0.05989 0.74118 0.30038 0.0
O97 O 0.02856 0.72597 0.30345 0.0
O98 O 0.06955 0.73298 0.28819 0.0
O99 O 0.39699 0.0323 0.62922 0.0
Cd100 Cd 0.35131 0.04248 0.62281 0.0
O101 O 0.40421 0.03385 0.60442 0.0
Cd102 Cd 0.4288 0.03539 0.58273 0.0
O103 O 0.44412 0.03665 0.55896 0.0
C104 C 0.45697 0.01968 0.55407 0.0
O105 O 0.46229 0.0008 0.56361 0.0
C106 C 0.41285 0.03018 0.6178 0.0
C107 C 0.35497 0.09688 0.63829 0.0
O108 O 0.33607 0.067 0.6432 0.0
O109 O 0.37236 0.10111 0.6262 0.0
O110 O 0.38169 0.36529 0.97754 0.0
Cd111 Cd 0.32749 0.31373 0.97847 0.0
O112 O 0.36893 0.37626 0.95491 0.0
Cd113 Cd 0.37937 0.40171 0.93277 0.0
O114 O 0.38624 0.41602 0.90862 0.0
C115 C 0.40815 0.41336 0.90093 0.0
O116 O 0.42643 0.40263 0.90773 0.0
C117 C 0.38964 0.38429 0.96591 0.0
C118 C 0.2737 0.32416 0.98313 0.0
O119 O 0.2891 0.3204 0.9945 0.0
O120 O 0.28393 0.32342 0.96957 0.0
O121 O 0.99648 0.38566 0.30449 0.0
Cd122 Cd 0.00036 0.3357 0.30966 0.0
O123 O 0.96623 0.36208 0.28397 0.0
Cd124 Cd 0.94377 0.36653 0.26271 0.0
O125 O 0.9358 0.3755 0.23892 0.0
C126 C 0.96164 0.39389 0.23096 0.0
O127 O 0.99131 0.40661 0.23736 0.0
C128 C 0.9808 0.38716 0.29283 0.0
C129 C 0.9384 0.2778 0.31286 0.0
O130 O 0.95353 0.2961 0.32451 0.0
O131 O 0.95232 0.287 0.29969 0.0
H132 H 0.98112 0.55962 0.02224 0.0
C133 C 0.98958 0.57427 0.03272 0.0
H134 H 0.01269 0.57948 0.05419 0.0
H135 H 0.94209 0.4165 0.03729 0.0
H136 H 0.88884 0.41488 0.03923 0.0
H137 H 0.88668 0.46658 0.04352 0.0
H138 H 0.93767 0.52021 0.04573 0.0
C139 C 0.00097 0.5636 0.04432 0.0
C140 C 0.00191 0.53194 0.04311 0.0
C141 C 0.97177 0.5007 0.04218 0.0
C142 C 0.973 0.47079 0.04009 0.0
C143 C 0.94258 0.43997 0.03896 0.0
C144 C 0.91184 0.43866 0.04008 0.0
C145 C 0.91063 0.46778 0.04247 0.0
C146 C 0.94013 0.49847 0.04358 0.0
H147 H 0.0161 0.43744 0.06038 0.0
C148 C 0.01134 0.42592 0.04911 0.0
H149 H 0.99932 0.42907 0.02601 0.0
H150 H 0.06437 0.5875 0.04515 0.0
H151 H 0.11743 0.5887 0.0441 0.0
H152 H 0.11944 0.53667 0.04074 0.0
H153 H 0.06833 0.48311 0.03843 0.0
C154 C 0.00531 0.44069 0.03726 0.0
C155 C 0.00428 0.47206 0.03942 0.0
C156 C 0.03439 0.50313 0.0408 0.0
C157 C 0.03321 0.53312 0.04269 0.0
C158 C 0.06371 0.56388 0.04382 0.0
C159 C 0.09439 0.56496 0.04319 0.0
C160 C 0.09552 0.53567 0.04131 0.0
C161 C 0.06597 0.50507 0.04006 0.0
H162 H 0.55369 0.9708 0.35838 0.0
C163 C 0.57104 0.98993 0.36622 0.0
H164 H 0.57715 0.02615 0.38268 0.0
H165 H 0.4331 0.99171 0.35125 0.0
H166 H 0.46651 0.02155 0.32914 0.0
H167 H 0.52702 0.04128 0.32841 0.0
H168 H 0.55419 0.0304 0.34963 0.0
C169 C 0.56011 0.006 0.37523 0.0
C170 C 0.52407 0.9958 0.37586 0.0
C171 C 0.50905 0.00401 0.36373 0.0
C172 C 0.47465 0.99451 0.36458 0.0
C173 C 0.4596 0.00038 0.3517 0.0
C174 C 0.47842 0.01709 0.33883 0.0
C175 C 0.51244 0.02806 0.33839 0.0
C176 C 0.52771 0.02158 0.35064 0.0
H177 H 0.4327 0.02245 0.37542 0.0
C178 C 0.41389 0.99744 0.37897 0.0
H179 H 0.40164 0.94792 0.38338 0.0
H180 H 0.54428 0.97268 0.40008 0.0
H181 H 0.51091 0.94232 0.42216 0.0
H182 H 0.45215 0.92851 0.4244 0.0
H183 H 0.42641 0.94495 0.40472 0.0
C184 C 0.42124 0.9728 0.38006 0.0
C185 C 0.45596 0.97888 0.37804 0.0
C186 C 0.47066 0.96931 0.38986 0.0
C187 C 0.50472 0.97769 0.38871 0.0
C188 C 0.51872 0.96752 0.40054 0.0
C189 C 0.49982 0.94992 0.41323 0.0
C190 C 0.46669 0.94202 0.41446 0.0
C191 C 0.4522 0.95163 0.403 0.0
H192 H 0.41138 0.44157 0.7123 0.0
C193 C 0.41524 0.42308 0.71825 0.0
H194 H 0.45003 0.41351 0.72951 0.0
H195 H 0.5427 0.56077 0.6943 0.0
H196 H 0.52118 0.53031 0.67053 0.0
H197 H 0.47913 0.47016 0.6707 0.0
H198 H 0.45765 0.44042 0.69465 0.0
C199 C 0.44562 0.43193 0.7239 0.0
C200 C 0.47358 0.46727 0.72356 0.0
C201 C 0.48731 0.48374 0.70944 0.0
C202 C 0.51317 0.51789 0.70935 0.0
C203 C 0.52443 0.53443 0.69508 0.0
C204 C 0.51207 0.5173 0.68133 0.0
C205 C 0.48829 0.48348 0.68142 0.0
C206 C 0.47598 0.46677 0.69527 0.0
H207 H 0.58897 0.56023 0.71191 0.0
C208 C 0.5852 0.57886 0.71778 0.0
H209 H 0.55065 0.58871 0.72907 0.0
H210 H 0.45206 0.44387 0.75257 0.0
H211 H 0.47608 0.47325 0.7764 0.0
H212 H 0.52419 0.53046 0.77627 0.0
H213 H 0.54834 0.55909 0.7523 0.0
C214 C 0.55494 0.57013 0.72355 0.0
C215 C 0.52694 0.53478 0.72339 0.0
C216 C 0.51375 0.51802 0.73749 0.0
C217 C 0.48672 0.48448 0.73757 0.0
C218 C 0.47321 0.46892 0.75184 0.0
C219 C 0.48663 0.48553 0.7656 0.0
C220 C 0.51371 0.51785 0.76552 0.0
C221 C 0.5272 0.53402 0.75168 0.0
H222 H 0.55898 0.97334 0.59407 0.0
C223 C 0.57313 0.97791 0.60463 0.0
H224 H 0.57902 0.99521 0.62745 0.0
H225 H 0.48962 0.05192 0.59026 0.0
H226 H 0.53943 0.08446 0.57494 0.0
H227 H 0.58956 0.07916 0.5787 0.0
H228 H 0.58993 0.04094 0.59763 0.0
C229 C 0.56565 0.99102 0.61669 0.0
C230 C 0.5374 0.99789 0.61585 0.0
C231 C 0.53809 0.02133 0.6051 0.0
C232 C 0.50951 0.02501 0.6032 0.0
C233 C 0.5106 0.04807 0.59218 0.0
C234 C 0.53911 0.06704 0.58334 0.0
C235 C 0.56729 0.06401 0.58544 0.0
C236 C 0.56703 0.04168 0.59625 0.0
H237 H 0.45462 0.03283 0.63122 0.0
C238 C 0.44148 0.02495 0.62033 0.0
H239 H 0.43721 0.00053 0.5993 0.0
H240 H 0.52862 0.95243 0.63816 0.0
H241 H 0.47894 0.9203 0.65362 0.0
H242 H 0.42925 0.92649 0.65021 0.0
H243 H 0.42901 0.96493 0.63138 0.0
C244 C 0.45077 0.00968 0.60998 0.0
C245 C 0.4807 0.00608 0.61237 0.0
C246 C 0.48037 0.98342 0.62345 0.0
C247 C 0.50888 0.97955 0.62528 0.0
C248 C 0.50774 0.95647 0.6363 0.0
C249 C 0.47934 0.93779 0.64524 0.0
C250 C 0.45138 0.9413 0.64334 0.0
C251 C 0.45167 0.96366 0.63254 0.0
H252 H 0.44329 0.41326 0.97136 0.0
C253 C 0.42326 0.4141 0.96519 0.0
H254 H 0.40922 0.44419 0.95264 0.0
H255 H 0.55668 0.54404 0.9875 0.0
H256 H 0.52681 0.52222 0.01138 0.0
H257 H 0.46684 0.47954 0.01142 0.0
H258 H 0.43683 0.45761 0.98758 0.0
C259 C 0.42926 0.44276 0.95846 0.0
C260 C 0.46339 0.47303 0.95857 0.0
C261 C 0.47983 0.48744 0.97263 0.0
C262 C 0.51362 0.51404 0.97261 0.0
C263 C 0.5304 0.52549 0.98682 0.0
C264 C 0.51364 0.51292 0.00063 0.0
C265 C 0.47995 0.48876 0.00066 0.0
C266 C 0.46312 0.47611 0.98687 0.0
H267 H 0.55049 0.58848 0.97097 0.0
C268 C 0.57046 0.5873 0.9649 0.0
H269 H 0.58414 0.55658 0.95264 0.0
H270 H 0.43884 0.45274 0.92962 0.0
H271 H 0.46762 0.47721 0.90569 0.0
H272 H 0.525 0.52496 0.90566 0.0
H273 H 0.55413 0.54905 0.92956 0.0
C274 C 0.56423 0.5584 0.95837 0.0
C275 C 0.52997 0.52837 0.95852 0.0
C276 C 0.51322 0.5146 0.94448 0.0
C277 C 0.47995 0.48696 0.9445 0.0
C278 C 0.464 0.47372 0.93028 0.0
C279 C 0.48021 0.48748 0.91647 0.0
C280 C 0.51258 0.51449 0.91645 0.0
C281 C 0.52899 0.52803 0.93024 0.0
H282 H 0.03803 0.59083 0.27028 0.0
C283 C 0.01996 0.59459 0.27667 0.0
H284 H 0.97873 0.5734 0.29171 0.0
H285 H 0.0066 0.45242 0.26429 0.0
H286 H 0.99755 0.46815 0.23897 0.0
H287 H 0.98459 0.51337 0.23567 0.0
H288 H 0.98299 0.54495 0.25755 0.0
C289 C 0.99678 0.56964 0.2853 0.0
C290 C 0.99688 0.53761 0.28743 0.0
C291 C 0.9949 0.51768 0.27463 0.0
C292 C 0.99899 0.48936 0.2767 0.0
C293 C 0.00102 0.47249 0.26353 0.0
C294 C 0.99619 0.48143 0.24891 0.0
C295 C 0.98924 0.50717 0.24703 0.0
C296 C 0.98866 0.52525 0.25968 0.0
H297 H 0.95909 0.41562 0.28247 0.0
C298 C 0.97968 0.41782 0.28938 0.0
H299 H 0.02415 0.45012 0.30117 0.0
H300 H 0.00147 0.56991 0.31452 0.0
H301 H 0.00519 0.55127 0.33997 0.0
H302 H 0.00605 0.49879 0.34378 0.0
H303 H 0.00381 0.46497 0.32214 0.0
C304 C 0.00355 0.44804 0.29428 0.0
C305 C 0.00138 0.47885 0.29173 0.0
C306 C 0.00162 0.49784 0.30458 0.0
C307 C 0.99998 0.52753 0.30241 0.0
C308 C 0.00177 0.54671 0.31544 0.0
C309 C 0.00401 0.53636 0.33016 0.0
C310 C 0.00457 0.50686 0.33231 0.0
C311 C 0.00339 0.48774 0.31973 0.0
H312 H 0.9335 0.38461 0.20933 0.0
C313 C 0.95828 0.39819 0.21444 0.0
H314 H 0.01008 0.42911 0.2103 0.0
H315 H 0.98667 0.36108 0.14433 0.0
H316 H 0.00505 0.328 0.15837 0.0
H317 H 0.01376 0.33447 0.18633 0.0
H318 H 0.00353 0.37373 0.20041 0.0
C319 C 0.98503 0.41624 0.20546 0.0
C320 C 0.98185 0.41446 0.1885 0.0
C321 C 0.98929 0.39244 0.18035 0.0
C322 C 0.98549 0.38964 0.16417 0.0
C323 C 0.99077 0.3656 0.1565 0.0
C324 C 0.00098 0.34609 0.16446 0.0
C325 C 0.00579 0.34967 0.18019 0.0
C326 C 0.99988 0.37237 0.18812 0.0
H327 H 0.02459 0.42603 0.13563 0.0
C328 C 0.00031 0.41696 0.13024 0.0
H329 H 0.94897 0.39991 0.13385 0.0
H330 H 0.96579 0.45912 0.20074 0.0
H331 H 0.94781 0.49284 0.1867 0.0
H332 H 0.94305 0.48956 0.15852 0.0
H333 H 0.95569 0.45216 0.14419 0.0
C334 C 0.97334 0.40851 0.13904 0.0
C335 C 0.9758 0.41016 0.15607 0.0
C336 C 0.96808 0.43198 0.16426 0.0
C337 C 0.97108 0.43411 0.18051 0.0
C338 C 0.96362 0.45637 0.18841 0.0
C339 C 0.95338 0.47591 0.18049 0.0
C340 C 0.95063 0.47401 0.16462 0.0
C341 C 0.95791 0.4524 0.15654 0.0
H342 H 0.57143 0.96688 0.45472 0.0
C343 C 0.57044 0.98579 0.44766 0.0
H344 H 0.55889 0.02465 0.44701 0.0
H345 H 0.50265 0.93002 0.51129 0.0
H346 H 0.46285 0.88597 0.49454 0.0
H347 H 0.46242 0.89564 0.46674 0.0
H348 H 0.50222 0.94933 0.4555 0.0
C349 C 0.55956 0.00532 0.45383 0.0
C350 C 0.55202 0.00293 0.47055 0.0
C351 C 0.5278 0.97206 0.47701 0.0
C352 C 0.52772 0.96673 0.49303 0.0
C353 C 0.50402 0.93523 0.49914 0.0
C354 C 0.48096 0.90983 0.48967 0.0
C355 C 0.48073 0.91526 0.47401 0.0
C356 C 0.50376 0.94603 0.4677 0.0
H357 H 0.54078 0.01411 0.52978 0.0
C358 C 0.54991 0.99669 0.53099 0.0
H359 H 0.56476 0.96596 0.51962 0.0
H360 H 0.59493 0.06775 0.46217 0.0
H361 H 0.63211 0.1131 0.47896 0.0
H362 H 0.63358 0.10369 0.5067 0.0
H363 H 0.59778 0.0492 0.51781 0.0
C364 C 0.55644 0.9841 0.51845 0.0
C365 C 0.55137 0.99255 0.50259 0.0
C366 C 0.57278 0.02481 0.49635 0.0
C367 C 0.57259 0.0301 0.48029 0.0
C368 C 0.59435 0.06231 0.47425 0.0
C369 C 0.61579 0.08857 0.48376 0.0
C370 C 0.61657 0.08328 0.49938 0.0
C371 C 0.59563 0.05179 0.50564 0.0
H372 H 0.55047 0.60125 0.80243 0.0
C373 C 0.56794 0.59341 0.79866 0.0
H374 H 0.599 0.57415 0.80535 0.0
H375 H 0.58744 0.64428 0.86971 0.0
H376 H 0.61419 0.69661 0.85572 0.0
H377 H 0.62527 0.69771 0.82803 0.0
H378 H 0.60917 0.64659 0.81414 0.0
C379 C 0.5821 0.58278 0.80902 0.0
C380 C 0.57562 0.5825 0.82575 0.0
C381 C 0.58617 0.61298 0.83376 0.0
C382 C 0.5809 0.6125 0.84983 0.0
C383 C 0.59105 0.64316 0.85752 0.0
C384 C 0.60653 0.67344 0.84965 0.0
C385 C 0.61269 0.67405 0.83405 0.0
C386 C 0.60292 0.64433 0.82617 0.0
H387 H 0.60366 0.57316 0.87899 0.0
C388 C 0.5858 0.57925 0.88402 0.0
H389 H 0.54666 0.58936 0.87973 0.0
H390 H 0.551 0.51964 0.81384 0.0
H391 H 0.52614 0.4675 0.82811 0.0
H392 H 0.52032 0.4672 0.85621 0.0
H393 H 0.53831 0.51893 0.87019 0.0
C394 C 0.564 0.58232 0.87494 0.0
C395 C 0.56682 0.58188 0.85799 0.0
C396 C 0.55669 0.55151 0.85006 0.0
C397 C 0.56066 0.55178 0.83388 0.0
C398 C 0.54923 0.52095 0.82616 0.0
C399 C 0.53488 0.49085 0.8342 0.0
C400 C 0.53162 0.49068 0.85003 0.0
C401 C 0.5422 0.52056 0.85792 0.0
H402 H 0.06856 0.61195 0.19245 0.0
C403 C 0.04679 0.59206 0.19821 0.0
H404 H 0.00035 0.54747 0.19533 0.0
H405 H 0.01923 0.62768 0.13015 0.0
H406 H 0.00532 0.66268 0.14547 0.0
H407 H 0.99754 0.65452 0.17342 0.0
H408 H 0.00458 0.61188 0.18621 0.0
C409 C 0.02224 0.56775 0.18984 0.0
C410 C 0.02291 0.56967 0.17283 0.0
C411 C 0.01664 0.59334 0.16542 0.0
C412 C 0.01907 0.59663 0.14921 0.0
C413 C 0.01569 0.62258 0.14229 0.0
C414 C 0.00805 0.64317 0.15099 0.0
C415 C 0.00382 0.63868 0.16672 0.0
C416 C 0.0081 0.61417 0.17392 0.0
H417 H 0.97625 0.56431 0.12093 0.0
C418 C 0.99974 0.5717 0.11507 0.0
H419 H 0.05017 0.58395 0.11762 0.0
H420 H 0.03676 0.52229 0.18351 0.0
H421 H 0.04888 0.48573 0.16814 0.0
H422 H 0.0496 0.48894 0.13991 0.0
H423 H 0.03844 0.52876 0.12685 0.0
C424 C 0.02661 0.57702 0.12329 0.0
C425 C 0.02537 0.57456 0.14033 0.0
C426 C 0.0312 0.5506 0.14776 0.0
C427 C 0.03029 0.54839 0.16404 0.0
C428 C 0.03701 0.52484 0.17118 0.0
C429 C 0.044 0.50375 0.1625 0.0
C430 C 0.04432 0.50549 0.1466 0.0
C431 C 0.03793 0.52852 0.13925 0.0
H432 H 0.49447 0.00456 0.45464 0.0
C433 C 0.46853 0.99822 0.45358 0.0
H434 H 0.42381 0.98653 0.46498 0.0
H435 H 0.43504 0.936 0.52823 0.0
H436 H 0.3948 0.88408 0.51603 0.0
H437 H 0.38517 0.88149 0.48814 0.0
H438 H 0.41583 0.93086 0.47227 0.0
C439 C 0.44988 0.99322 0.46617 0.0
C440 C 0.46196 0.99363 0.48203 0.0
C441 C 0.44448 0.9644 0.49111 0.0
C442 C 0.45026 0.9658 0.50716 0.0
C443 C 0.43174 0.93638 0.51598 0.0
C444 C 0.40855 0.90637 0.50912 0.0
C445 C 0.40308 0.90492 0.49343 0.0
C446 C 0.42072 0.9335 0.48447 0.0
H447 H 0.45633 0.0343 0.53016 0.0
C448 C 0.46282 0.01934 0.53749 0.0
H449 H 0.47886 0.98382 0.53821 0.0
H450 H 0.50229 0.05433 0.46796 0.0
H451 H 0.54637 0.10426 0.47985 0.0
H452 H 0.55822 0.10545 0.50747 0.0
H453 H 0.52551 0.05652 0.52338 0.0
C454 C 0.47345 0.99985 0.53109 0.0
C455 C 0.47338 0.99653 0.5141 0.0
C456 C 0.49352 0.02481 0.50482 0.0
C457 C 0.48748 0.02362 0.48877 0.0
C458 C 0.50647 0.05308 0.48004 0.0
C459 C 0.53177 0.08215 0.48677 0.0
C460 C 0.53838 0.08287 0.50232 0.0
C461 C 0.51939 0.05468 0.51132 0.0
H462 H 0.39345 0.42594 0.87896 0.0
C463 C 0.41135 0.42037 0.88435 0.0
H464 H 0.45167 0.41166 0.88085 0.0
H465 H 0.39409 0.35542 0.81438 0.0
H466 H 0.37885 0.30425 0.82803 0.0
H467 H 0.38875 0.30485 0.85582 0.0
H468 H 0.41343 0.35675 0.87014 0.0
C469 C 0.43422 0.41815 0.8757 0.0
C470 C 0.43272 0.41907 0.85871 0.0
C471 C 0.41992 0.38878 0.85037 0.0
C472 C 0.41537 0.38864 0.83425 0.0
C473 C 0.39979 0.3575 0.82646 0.0
C474 C 0.39052 0.32773 0.83421 0.0
C475 C 0.39601 0.32806 0.84985 0.0
C476 C 0.4103 0.35809 0.85792 0.0
H477 H 0.4519 0.40219 0.80295 0.0
C478 C 0.43396 0.40946 0.79923 0.0
H479 H 0.40171 0.42722 0.80604 0.0
H480 H 0.45946 0.48157 0.87126 0.0
H481 H 0.47702 0.5335 0.85752 0.0
H482 H 0.47238 0.53387 0.82937 0.0
H483 H 0.44922 0.4822 0.81481 0.0
C484 C 0.41913 0.4192 0.80966 0.0
C485 C 0.4254 0.41919 0.82639 0.0
C486 C 0.43936 0.44966 0.83471 0.0
C487 C 0.4426 0.44954 0.85091 0.0
C488 C 0.45612 0.48023 0.85896 0.0
C489 C 0.46643 0.51022 0.85121 0.0
C490 C 0.46385 0.51043 0.83535 0.0
C491 C 0.45046 0.48059 0.82714 0.0
H492 H 0.2317 0.33043 0.97529 0.0
C493 C 0.24423 0.32817 0.98538 0.0
H494 H 0.24447 0.32634 0.00959 0.0
H495 H 0.1562 0.39561 0.01701 0.0
H496 H 0.21077 0.44154 0.02413 0.0
H497 H 0.26148 0.43701 0.02098 0.0
H498 H 0.25793 0.38658 0.01058 0.0
C499 C 0.23181 0.32774 0.99935 0.0
C500 C 0.20106 0.33015 0.00133 0.0
C501 C 0.20348 0.35953 0.0077 0.0
C502 C 0.17417 0.36193 0.00975 0.0
C503 C 0.1775 0.39206 0.01561 0.0
C504 C 0.20872 0.41872 0.01964 0.0
C505 C 0.23727 0.41619 0.01785 0.0
C506 C 0.23486 0.38706 0.0119 0.0
H507 H 0.11502 0.33556 0.03252 0.0
C508 C 0.10022 0.33543 0.02279 0.0
H509 H 0.09627 0.33483 0.99867 0.0
H510 H 0.18722 0.26926 0.98979 0.0
H511 H 0.13276 0.22354 0.98254 0.0
H512 H 0.08206 0.22805 0.98572 0.0
H513 H 0.08554 0.27827 0.99625 0.0
C514 C 0.11133 0.3361 0.00849 0.0
C515 C 0.14241 0.33465 0.0057 0.0
C516 C 0.14003 0.3054 0.99917 0.0
C517 C 0.16933 0.30299 0.99713 0.0
C518 C 0.16598 0.27289 0.99121 0.0
C519 C 0.13479 0.2463 0.98709 0.0
C520 C 0.10625 0.24882 0.98889 0.0
C521 C 0.10864 0.27787 0.99492 0.0
H522 H 0.89489 0.23162 0.30418 0.0
C523 C 0.90627 0.24634 0.31444 0.0
H524 H 0.90204 0.24961 0.33842 0.0
H525 H 0.74548 0.1484 0.33885 0.0
H526 H 0.74685 0.2009 0.34338 0.0
H527 H 0.79985 0.25461 0.34165 0.0
H528 H 0.85179 0.25614 0.3353 0.0
C529 C 0.89149 0.23486 0.3281 0.0
C530 C 0.85977 0.20231 0.32948 0.0
C531 C 0.82976 0.20181 0.33348 0.0
C532 C 0.79928 0.17081 0.33469 0.0
C533 C 0.76948 0.17115 0.33817 0.0
C534 C 0.76987 0.20113 0.3407 0.0
C535 C 0.7997 0.23138 0.33971 0.0
C536 C 0.82935 0.23189 0.33609 0.0
H537 H 0.76511 0.11197 0.35782 0.0
C538 C 0.75402 0.09628 0.34778 0.0
H539 H 0.75756 0.09176 0.32386 0.0
H540 H 0.91342 0.19409 0.32302 0.0
H541 H 0.91202 0.14165 0.3185 0.0
H542 H 0.85897 0.08797 0.32008 0.0
H543 H 0.80705 0.08646 0.3263 0.0
C544 C 0.76759 0.10765 0.33391 0.0
C545 C 0.79902 0.14033 0.33215 0.0
C546 C 0.82902 0.14082 0.32812 0.0
C547 C 0.85951 0.17181 0.32696 0.0
C548 C 0.88936 0.17141 0.3236 0.0
C549 C 0.88897 0.14143 0.32109 0.0
C550 C 0.85912 0.11121 0.322 0.0
C551 C 0.82946 0.11073 0.32554 0.0
H552 H 0.70004 0.76543 0.67479 0.0
C553 C 0.68052 0.75362 0.6834 0.0
H554 H 0.63796 0.75135 0.69352 0.0
H555 H 0.66829 0.89607 0.67709 0.0
H556 H 0.66752 0.89645 0.70484 0.0
H557 H 0.66381 0.84922 0.71964 0.0
H558 H 0.66034 0.80112 0.7068 0.0
C559 C 0.65735 0.76297 0.68485 0.0
C560 C 0.65914 0.79117 0.67573 0.0
C561 C 0.66187 0.81948 0.68346 0.0
C562 C 0.66499 0.84717 0.67493 0.0
C563 C 0.66664 0.87465 0.68296 0.0
C564 C 0.66612 0.87519 0.69891 0.0
C565 C 0.66397 0.84857 0.70724 0.0
C566 C 0.6619 0.82103 0.69969 0.0
H567 H 0.6259 0.84936 0.63707 0.0
C568 C 0.64728 0.87378 0.63965 0.0
H569 H 0.6915 0.90085 0.65256 0.0
H570 H 0.64715 0.73831 0.65716 0.0
H571 H 0.6519 0.73934 0.62948 0.0
H572 H 0.66606 0.79054 0.6149 0.0
H573 H 0.67421 0.84043 0.62786 0.0
C574 C 0.67013 0.87645 0.64996 0.0
C575 C 0.66633 0.84697 0.65869 0.0
C576 C 0.66428 0.81891 0.65097 0.0
C577 C 0.65901 0.79037 0.65946 0.0
C578 C 0.65352 0.76145 0.65137 0.0
C579 C 0.65583 0.76157 0.63546 0.0
C580 C 0.66359 0.79031 0.62725 0.0
C581 C 0.66785 0.81872 0.63484 0.0
H582 H 0.88619 0.66837 0.0255 0.0
C583 C 0.89976 0.6692 0.01517 0.0
H584 H 0.9 0.67019 0.99094 0.0
H585 H 0.74241 0.61073 0.98765 0.0
H586 H 0.74603 0.56211 0.98006 0.0
H587 H 0.79966 0.56259 0.98143 0.0
H588 H 0.84998 0.61167 0.99051 0.0
C589 C 0.88728 0.67025 0.00141 0.0
C590 C 0.85531 0.67058 6e-05 0.0
C591 C 0.82631 0.64199 0.99442 0.0
C592 C 0.7955 0.64191 0.99339 0.0
C593 C 0.76665 0.61251 0.98828 0.0
C594 C 0.76833 0.58433 0.98398 0.0
C595 C 0.79851 0.58458 0.98477 0.0
C596 C 0.82722 0.61294 0.98997 0.0
H597 H 0.76164 0.67072 0.9723 0.0
C598 C 0.74946 0.67227 0.98269 0.0
H599 H 0.75091 0.6741 0.00687 0.0
H600 H 0.90694 0.73067 0.01006 0.0
H601 H 0.90345 0.77939 0.01751 0.0
H602 H 0.8499 0.77903 0.01606 0.0
H603 H 0.79957 0.72999 0.00707 0.0
C604 C 0.76213 0.67136 0.99642 0.0
C605 C 0.79396 0.67073 0.99773 0.0
C606 C 0.82302 0.69938 0.00332 0.0
C607 C 0.8538 0.69944 0.00435 0.0
C608 C 0.8827 0.72888 0.00942 0.0
C609 C 0.88111 0.75715 0.01364 0.0
C610 C 0.85098 0.75696 0.01281 0.0
C611 C 0.82223 0.72856 0.00766 0.0
H612 H 0.23075 0.87085 0.35774 0.0
C613 C 0.23239 0.89472 0.35532 0.0
H614 H 0.21298 0.92012 0.3427 0.0
H615 H 0.15025 0.82037 0.28789 0.0
H616 H 0.19284 0.87042 0.27535 0.0
H617 H 0.23375 0.91889 0.29045 0.0
H618 H 0.23199 0.91774 0.31818 0.0
C619 C 0.21123 0.89623 0.34521 0.0
C620 C 0.18679 0.86633 0.33628 0.0
C621 C 0.18868 0.8671 0.32005 0.0
C622 C 0.16568 0.83877 0.31135 0.0
C623 C 0.16749 0.84077 0.29513 0.0
C624 C 0.19179 0.86944 0.28775 0.0
C625 C 0.21477 0.89674 0.29625 0.0
C626 C 0.21338 0.89574 0.31219 0.0
H627 H 0.07408 0.77841 0.31887 0.0
C628 C 0.08388 0.76811 0.31048 0.0
H629 H 0.12687 0.77004 0.30108 0.0
H630 H 0.1719 0.85812 0.36703 0.0
H631 H 0.13215 0.8067 0.37969 0.0
H632 H 0.0979 0.75513 0.36482 0.0
H633 H 0.10239 0.75509 0.33716 0.0
C634 C 0.11704 0.78012 0.30956 0.0
C635 C 0.14136 0.80933 0.31888 0.0
C636 C 0.14019 0.80817 0.33515 0.0
C637 C 0.16187 0.83717 0.34382 0.0
C638 C 0.15772 0.83628 0.35993 0.0
C639 C 0.13472 0.80698 0.36736 0.0
C640 C 0.1153 0.77801 0.35898 0.0
C641 C 0.11791 0.77844 0.34307 0.0
H642 H 0.29926 0.23352 0.6784 0.0
C643 C 0.31904 0.24637 0.68681 0.0
H644 H 0.3623 0.25043 0.69701 0.0
H645 H 0.33564 0.10584 0.68383 0.0
H646 H 0.33693 0.10808 0.71155 0.0
H647 H 0.3392 0.15589 0.72526 0.0
H648 H 0.34071 0.20194 0.71133 0.0
C649 C 0.34265 0.2377 0.68854 0.0
C650 C 0.34115 0.20891 0.68007 0.0
C651 C 0.33947 0.18174 0.68843 0.0
C652 C 0.33718 0.15369 0.68053 0.0
C653 C 0.33665 0.12745 0.68919 0.0
C654 C 0.33746 0.12842 0.70514 0.0
C655 C 0.33881 0.15536 0.71285 0.0
C656 C 0.33977 0.18173 0.70468 0.0
H657 H 0.37747 0.15066 0.64335 0.0
C658 C 0.35686 0.12595 0.6462 0.0
H659 H 0.31279 0.09817 0.65913 0.0
H660 H 0.35079 0.25931 0.66031 0.0
H661 H 0.34529 0.25538 0.63267 0.0
H662 H 0.33259 0.20331 0.61923 0.0
H663 H 0.32668 0.15545 0.63332 0.0
C664 C 0.33335 0.12284 0.65621 0.0
C665 C 0.33561 0.15237 0.6643 0.0
C666 C 0.33635 0.17914 0.65594 0.0
C667 C 0.34078 0.2081 0.66379 0.0
C668 C 0.34505 0.23583 0.65505 0.0
C669 C 0.34231 0.23405 0.63914 0.0
C670 C 0.33537 0.20483 0.63157 0.0
C671 C 0.33238 0.17763 0.63981 0.0
loop_
_geom_bond_atom_site_label_1
_geom_bond_atom_site_label_2
_geom_bond_distance
_geom_bond_site_symmetry_2
_ccdc_geom_bond_type
O0 Cd1 2.300 . S
O0 C7 1.275 . S
Cd1 O0 2.300 . S
Cd1 O9 2.381 . S
Cd1 O10 2.378 . S
O2 Cd3 2.385 . S
O2 C7 1.255 . S
Cd3 O2 2.385 . S
Cd3 O4 2.317 . S
O4 Cd3 2.317 . S
O4 C5 1.232 . S
C5 O4 1.232 . S
C5 O6 1.218 . S
O6 C5 1.218 . S
C7 O0 1.275 . S
C7 O2 1.255 . S
C8 O9 1.258 . S
C8 O10 1.256 . S
O9 Cd1 2.381 . S
O9 C8 1.258 . S
O10 Cd1 2.378 . S
O10 C8 1.256 . S
O11 Cd12 2.300 . S
O11 C18 1.275 . S
Cd12 O11 2.300 . S
Cd12 O20 2.381 . S
Cd12 O21 2.378 . S
O13 Cd14 2.385 . S
O13 C18 1.255 . S
Cd14 O13 2.385 . S
Cd14 O15 2.317 . S
O15 Cd14 2.317 . S
O15 C16 1.232 . S
C16 O15 1.232 . S
C16 O17 1.218 . S
O17 C16 1.218 . S
C18 O11 1.275 . S
C18 O13 1.255 . S
C19 O20 1.258 . S
C19 O21 1.256 . S
O20 Cd12 2.381 . S
O20 C19 1.258 . S
O21 Cd12 2.378 . S
O21 C19 1.256 . S
O22 Cd23 2.300 . S
O22 C29 1.275 . S
Cd23 O22 2.300 . S
Cd23 O31 2.381 . S
Cd23 O32 2.378 . S
O24 Cd25 2.385 . S
O24 C29 1.255 . S
Cd25 O24 2.385 . S
Cd25 O26 2.317 . S
O26 Cd25 2.317 . S
O26 C27 1.232 . S
C27 O26 1.232 . S
C27 O28 1.218 . S
O28 C27 1.218 . S
C29 O22 1.275 . S
C29 O24 1.255 . S
C30 O31 1.258 . S
C30 O32 1.256 . S
O31 Cd23 2.381 . S
O31 C30 1.258 . S
O32 Cd23 2.378 . S
O32 C30 1.256 . S
O33 Cd34 2.300 . S
O33 C40 1.275 . S
Cd34 O33 2.300 . S
Cd34 O42 2.381 . S
Cd34 O43 2.378 . S
O35 Cd36 2.385 . S
O35 C40 1.255 . S
Cd36 O35 2.385 . S
Cd36 O37 2.317 . S
O37 Cd36 2.317 . S
O37 C38 1.232 . S
C38 O37 1.232 . S
C38 O39 1.218 . S
O39 C38 1.218 . S
C40 O33 1.275 . S
C40 O35 1.255 . S
C41 O42 1.258 . S
C41 O43 1.256 . S
O42 Cd34 2.381 . S
O42 C41 1.258 . S
O43 Cd34 2.378 . S
O43 C41 1.256 . S
O44 Cd45 2.300 . S
O44 C51 1.275 . S
Cd45 O44 2.300 . S
Cd45 O53 2.381 . S
Cd45 O54 2.378 . S
O46 Cd47 2.385 . S
O46 C51 1.255 . S
Cd47 O46 2.385 . S
Cd47 O48 2.317 . S
O48 Cd47 2.317 . S
O48 C49 1.232 . S
C49 O48 1.232 . S
C49 O50 1.218 . S
O50 C49 1.218 . S
C51 O44 1.275 . S
C51 O46 1.255 . S
C52 O53 1.258 . S
C52 O54 1.256 . S
O53 Cd45 2.381 . S
O53 C52 1.258 . S
O54 Cd45 2.378 . S
O54 C52 1.256 . S
O55 Cd56 2.300 . S
O55 C62 1.275 . S
Cd56 O55 2.300 . S
Cd56 O64 2.381 . S
Cd56 O65 2.378 . S
O57 Cd58 2.385 . S
O57 C62 1.255 . S
Cd58 O57 2.385 . S
Cd58 O59 2.317 . S
O59 Cd58 2.317 . S
O59 C60 1.232 . S
C60 O59 1.232 . S
C60 O61 1.218 . S
O61 C60 1.218 . S
C62 O55 1.275 . S
C62 O57 1.255 . S
C63 O64 1.258 . S
C63 O65 1.256 . S
O64 Cd56 2.381 . S
O64 C63 1.258 . S
O65 Cd56 2.378 . S
O65 C63 1.256 . S
O66 Cd67 2.300 . S
O66 C73 1.275 . S
Cd67 O66 2.300 . S
Cd67 O75 2.381 . S
Cd67 O76 2.378 . S
O68 Cd69 2.385 . S
O68 C73 1.255 . S
Cd69 O68 2.385 . S
Cd69 O70 2.317 . S
O70 Cd69 2.317 . S
O70 C71 1.232 . S
C71 O70 1.232 . S
C71 O72 1.218 . S
O72 C71 1.218 . S
C73 O66 1.275 . S
C73 O68 1.255 . S
C74 O75 1.258 . S
C74 O76 1.256 . S
O75 Cd67 2.381 . S
O75 C74 1.258 . S
O76 Cd67 2.378 . S
O76 C74 1.256 . S
O77 Cd78 2.300 . S
O77 C84 1.275 . S
Cd78 O77 2.300 . S
Cd78 O86 2.381 . S
Cd78 O87 2.378 . S
O79 Cd80 2.385 . S
O79 C84 1.255 . S
Cd80 O79 2.385 . S
Cd80 O81 2.317 . S
O81 Cd80 2.317 . S
O81 C82 1.232 . S
C82 O81 1.232 . S
C82 O83 1.218 . S
O83 C82 1.218 . S
C84 O77 1.275 . S
C84 O79 1.255 . S
C85 O86 1.258 . S
C85 O87 1.256 . S
O86 Cd78 2.381 . S
O86 C85 1.258 . S
O87 Cd78 2.378 . S
O87 C85 1.256 . S
O88 Cd89 2.300 . S
O88 C95 1.275 . S
Cd89 O88 2.300 . S
Cd89 O97 2.381 . S
Cd89 O98 2.378 . S
O90 Cd91 2.385 . S
O90 C95 1.255 . S
Cd91 O90 2.385 . S
Cd91 O92 2.317 . S
O92 Cd91 2.317 . S
O92 C93 1.232 . S
C93 O92 1.232 . S
C93 O94 1.218 . S
O94 C93 1.218 . S
C95 O88 1.275 . S
C95 O90 1.255 . S
C96 O97 1.258 . S
C96 O98 1.256 . S
O97 Cd89 2.381 . S
O97 C96 1.258 . S
O98 Cd89 2.378 . S
O98 C96 1.256 . S
O99 Cd100 2.300 . S
O99 C106 1.275 . S
Cd100 O99 2.300 . S
Cd100 O108 2.381 . S
Cd100 O109 2.378 . S
O101 Cd102 2.385 . S
O101 C106 1.255 . S
Cd102 O101 2.385 . S
Cd102 O103 2.317 . S
O103 Cd102 2.317 . S
O103 C104 1.232 . S
C104 O103 1.232 . S
C104 O105 1.218 . S
O105 C104 1.218 . S
C106 O99 1.275 . S
C106 O101 1.255 . S
C107 O108 1.258 . S
C107 O109 1.256 . S
O108 Cd100 2.381 . S
O108 C107 1.258 . S
O109 Cd100 2.378 . S
O109 C107 1.256 . S
O110 Cd111 2.300 . S
O110 C117 1.275 . S
Cd111 O110 2.300 . S
Cd111 O119 2.381 . S
Cd111 O120 2.378 . S
O112 Cd113 2.385 . S
O112 C117 1.255 . S
Cd113 O112 2.385 . S
Cd113 O114 2.317 . S
O114 Cd113 2.317 . S
O114 C115 1.232 . S
C115 O114 1.232 . S
C115 O116 1.218 . S
O116 C115 1.218 . S
C117 O110 1.275 . S
C117 O112 1.255 . S
C118 O119 1.258 . S
C118 O120 1.256 . S
O119 Cd111 2.381 . S
O119 C118 1.258 . S
O120 Cd111 2.378 . S
O120 C118 1.256 . S
O121 Cd122 2.300 . S
O121 C128 1.275 . S
Cd122 O121 2.300 . S
Cd122 O130 2.381 . S
Cd122 O131 2.378 . S
O123 Cd124 2.385 . S
O123 C128 1.255 . S
Cd124 O123 2.385 . S
Cd124 O125 2.317 . S
O125 Cd124 2.317 . S
O125 C126 1.232 . S
C126 O125 1.232 . S
C126 O127 1.218 . S
O127 C126 1.218 . S
C128 O121 1.275 . S
C128 O123 1.255 . S
C129 O130 1.258 . S
C129 O131 1.256 . S
O130 Cd122 2.381 . S
O130 C129 1.258 . S
O131 Cd122 2.378 . S
O131 C129 1.256 . S
H132 C133 0.950 1_455 S
C133 H132 0.950 1_655 S
C133 C139 1.265 . S
H134 C139 0.950 . S
H135 C143 0.949 . S
H136 C144 0.950 . S
H137 C145 0.951 . S
H138 C146 0.951 . S
C139 C133 1.265 . S
C139 H134 0.950 . S
C139 C140 1.478 . S
C140 C139 1.478 . S
C140 C141 1.397 . S
C140 C157 1.394 1_655 S
C141 C140 1.397 . S
C141 C142 1.438 . S
C141 C146 1.429 . S
C142 C141 1.438 . S
C142 C143 1.428 . S
C142 C155 1.394 1_655 S
C143 H135 0.949 . S
C143 C142 1.428 . S
C143 C144 1.345 . S
C144 H136 0.950 . S
C144 C143 1.345 . S
C144 C145 1.424 . S
C145 H137 0.951 . S
C145 C144 1.424 . S
C145 C146 1.347 . S
C146 H138 0.951 . S
C146 C141 1.429 . S
C146 C145 1.347 . S
H147 C148 0.951 1_655 S
C148 H147 0.951 1_455 S
C148 C154 1.265 . S
H149 C154 0.950 . S
H150 C158 0.949 . S
H151 C159 0.950 . S
H152 C160 0.951 . S
H153 C161 0.951 . S
C154 C148 1.265 . S
C154 H149 0.950 . S
C154 C155 1.478 . S
C155 C142 1.394 1_455 S
C155 C154 1.478 . S
C155 C156 1.397 . S
C156 C155 1.397 . S
C156 C157 1.438 . S
C156 C161 1.429 . S
C157 C140 1.394 1_455 S
C157 C156 1.438 . S
C157 C158 1.428 . S
C158 H150 0.949 . S
C158 C157 1.428 . S
C158 C159 1.345 . S
C159 H151 0.950 . S
C159 C158 1.345 . S
C159 C160 1.424 . S
C160 H152 0.951 . S
C160 C159 1.424 . S
C160 C161 1.347 . S
C161 H153 0.951 . S
C161 C156 1.429 . S
C161 C160 1.347 . S
H162 C163 0.951 . S
C163 H162 0.951 . S
C163 C169 1.265 1_565 S
H164 C169 0.950 . S
H165 C173 0.949 . S
H166 C174 0.950 . S
H167 C175 0.951 . S
H168 C176 0.951 . S
C169 C163 1.265 1_545 S
C169 H164 0.950 . S
C169 C170 1.478 . S
C170 C169 1.478 . S
C170 C171 1.397 . S
C170 C187 1.394 1_545 S
C171 C170 1.397 . S
C171 C172 1.438 . S
C171 C176 1.429 . S
C172 C171 1.438 . S
C172 C173 1.428 . S
C172 C185 1.394 1_545 S
C173 H165 0.949 . S
C173 C172 1.428 . S
C173 C174 1.345 . S
C174 H166 0.950 . S
C174 C173 1.345 . S
C174 C175 1.424 . S
C175 H167 0.951 . S
C175 C174 1.424 . S
C175 C176 1.347 . S
C176 H168 0.951 . S
C176 C171 1.429 . S
C176 C175 1.347 . S
H177 C178 0.970 . S
C178 H177 0.970 . S
C178 C184 1.241 1_545 S
H179 C184 0.950 . S
H180 C188 0.949 . S
H181 C189 0.950 . S
H182 C190 0.951 . S
H183 C191 0.951 . S
C184 C178 1.241 1_565 S
C184 H179 0.950 . S
C184 C185 1.478 . S
C185 C172 1.394 1_565 S
C185 C184 1.478 . S
C185 C186 1.397 . S
C186 C185 1.397 . S
C186 C187 1.438 . S
C186 C191 1.429 . S
C187 C170 1.394 1_565 S
C187 C186 1.438 . S
C187 C188 1.428 . S
C188 H180 0.949 . S
C188 C187 1.428 . S
C188 C189 1.345 . S
C189 H181 0.950 . S
C189 C188 1.345 . S
C189 C190 1.424 . S
C190 H182 0.951 . S
C190 C189 1.424 . S
C190 C191 1.347 . S
C191 H183 0.951 . S
C191 C186 1.429 . S
C191 C190 1.347 . S
H192 C193 0.951 . S
C193 H192 0.951 . S
C193 C199 1.265 . S
H194 C199 0.950 . S
H195 C203 0.949 . S
H196 C204 0.950 . S
H197 C205 0.951 . S
H198 C206 0.951 . S
C199 C193 1.265 . S
C199 H194 0.950 . S
C199 C200 1.478 . S
C200 C199 1.478 . S
C200 C201 1.397 . S
C200 C217 1.394 . S
C201 C200 1.397 . S
C201 C202 1.438 . S
C201 C206 1.429 . S
C202 C201 1.438 . S
C202 C203 1.428 . S
C202 C215 1.394 . S
C203 H195 0.949 . S
C203 C202 1.428 . S
C203 C204 1.345 . S
C204 H196 0.950 . S
C204 C203 1.345 . S
C204 C205 1.424 . S
C205 H197 0.951 . S
C205 C204 1.424 . S
C205 C206 1.347 . S
C206 H198 0.951 . S
C206 C201 1.429 . S
C206 C205 1.347 . S
H207 C208 0.951 . S
C208 H207 0.951 . S
C208 C214 1.265 . S
H209 C214 0.950 . S
H210 C218 0.949 . S
H211 C219 0.950 . S
H212 C220 0.951 . S
H213 C221 0.951 . S
C214 C208 1.265 . S
C214 H209 0.950 . S
C214 C215 1.478 . S
C215 C202 1.394 . S
C215 C214 1.478 . S
C215 C216 1.397 . S
C216 C215 1.397 . S
C216 C217 1.438 . S
C216 C221 1.429 . S
C217 C200 1.394 . S
C217 C216 1.438 . S
C217 C218 1.428 . S
C218 H210 0.949 . S
C218 C217 1.428 . S
C218 C219 1.345 . S
C219 H211 0.950 . S
C219 C218 1.345 . S
C219 C220 1.424 . S
C220 H212 0.951 . S
C220 C219 1.424 . S
C220 C221 1.347 . S
C221 H213 0.951 . S
C221 C216 1.429 . S
C221 C220 1.347 . S
H222 C223 0.951 . S
C223 H222 0.951 . S
C223 C229 1.265 1_565 S
H224 C229 0.950 . S
H225 C233 0.949 . S
H226 C234 0.950 . S
H227 C235 0.951 . S
H228 C236 0.951 . S
C229 C223 1.265 1_545 S
C229 H224 0.950 . S
C229 C230 1.478 . S
C230 C229 1.478 . S
C230 C231 1.397 . S
C230 C247 1.394 1_545 S
C231 C230 1.397 . S
C231 C232 1.438 . S
C231 C236 1.429 . S
C232 C231 1.438 . S
C232 C233 1.428 . S
C232 C245 1.394 1_545 S
C233 H225 0.949 . S
C233 C232 1.428 . S
C233 C234 1.345 . S
C234 H226 0.950 . S
C234 C233 1.345 . S
C234 C235 1.424 . S
C235 H227 0.951 . S
C235 C234 1.424 . S
C235 C236 1.347 . S
C236 H228 0.951 . S
C236 C231 1.429 . S
C236 C235 1.347 . S
H237 C238 0.951 . S
C238 H237 0.951 . S
C238 C244 1.265 1_545 S
H239 C244 0.950 . S
H240 C248 0.949 . S
H241 C249 0.950 . S
H242 C250 0.951 . S
H243 C251 0.951 . S
C244 C238 1.265 1_565 S
C244 H239 0.950 . S
C244 C245 1.478 . S
C245 C232 1.394 1_565 S
C245 C244 1.478 . S
C245 C246 1.397 . S
C246 C245 1.397 . S
C246 C247 1.438 . S
C246 C251 1.429 . S
C247 C230 1.394 1_565 S
C247 C246 1.438 . S
C247 C248 1.428 . S
C248 H240 0.949 . S
C248 C247 1.428 . S
C248 C249 1.345 . S
C249 H241 0.950 . S
C249 C248 1.345 . S
C249 C250 1.424 . S
C250 H242 0.951 . S
C250 C249 1.424 . S
C250 C251 1.347 . S
C251 H243 0.951 . S
C251 C246 1.429 . S
C251 C250 1.347 . S
H252 C253 0.951 . S
C253 H252 0.951 . S
C253 C259 1.265 . S
H254 C259 0.950 . S
H255 C263 0.949 . S
H256 C264 0.950 . S
H257 C265 0.951 . S
H258 C266 0.951 . S
C259 C253 1.265 . S
C259 H254 0.950 . S
C259 C260 1.478 . S
C260 C259 1.478 . S
C260 C261 1.397 . S
C260 C277 1.394 . S
C261 C260 1.397 . S
C261 C262 1.438 . S
C261 C266 1.429 . S
C262 C261 1.438 . S
C262 C263 1.428 . S
C262 C275 1.394 . S
C263 H255 0.949 . S
C263 C262 1.428 . S
C263 C264 1.345 . S
C264 H256 0.950 . S
C264 C263 1.345 . S
C264 C265 1.424 . S
C265 H257 0.951 . S
C265 C264 1.424 . S
C265 C266 1.347 . S
C266 H258 0.951 . S
C266 C261 1.429 . S
C266 C265 1.347 . S
H267 C268 0.951 . S
C268 H267 0.951 . S
C268 C274 1.265 . S
H269 C274 0.950 . S
H270 C278 0.949 . S
H271 C279 0.950 . S
H272 C280 0.951 . S
H273 C281 0.951 . S
C274 C268 1.265 . S
C274 H269 0.950 . S
C274 C275 1.478 . S
C275 C262 1.394 . S
C275 C274 1.478 . S
C275 C276 1.397 . S
C276 C275 1.397 . S
C276 C277 1.438 . S
C276 C281 1.429 . S
C277 C260 1.394 . S
C277 C276 1.438 . S
C277 C278 1.428 . S
C278 H270 0.949 . S
C278 C277 1.428 . S
C278 C279 1.345 . S
C279 H271 0.950 . S
C279 C278 1.345 . S
C279 C280 1.424 . S
C280 H272 0.951 . S
C280 C279 1.424 . S
C280 C281 1.347 . S
C281 H273 0.951 . S
C281 C276 1.429 . S
C281 C280 1.347 . S
H282 C283 0.951 . S
C283 H282 0.951 . S
C283 C289 1.265 1_455 S
H284 C289 0.950 . S
H285 C293 0.949 . S
H286 C294 0.950 . S
H287 C295 0.951 . S
H288 C296 0.951 . S
C289 C283 1.265 1_655 S
C289 H284 0.950 . S
C289 C290 1.478 . S
C290 C289 1.478 . S
C290 C291 1.397 . S
C290 C307 1.394 1_655 S
C291 C290 1.397 . S
C291 C292 1.438 . S
C291 C296 1.429 . S
C292 C291 1.438 . S
C292 C293 1.428 . S
C292 C305 1.394 1_655 S
C293 H285 0.949 . S
C293 C292 1.428 . S
C293 C294 1.345 . S
C294 H286 0.950 . S
C294 C293 1.345 . S
C294 C295 1.424 . S
C295 H287 0.951 . S
C295 C294 1.424 . S
C295 C296 1.347 . S
C296 H288 0.951 . S
C296 C291 1.429 . S
C296 C295 1.347 . S
H297 C298 0.951 . S
C298 H297 0.951 . S
C298 C304 1.265 1_655 S
H299 C304 0.950 . S
H300 C308 0.949 . S
H301 C309 0.950 . S
H302 C310 0.951 . S
H303 C311 0.951 . S
C304 C298 1.265 1_455 S
C304 H299 0.950 . S
C304 C305 1.478 . S
C305 C292 1.394 1_455 S
C305 C304 1.478 . S
C305 C306 1.397 . S
C306 C305 1.397 . S
C306 C307 1.438 . S
C306 C311 1.429 . S
C307 C290 1.394 1_455 S
C307 C306 1.438 . S
C307 C308 1.428 . S
C308 H300 0.949 . S
C308 C307 1.428 . S
C308 C309 1.345 . S
C309 H301 0.950 . S
C309 C308 1.345 . S
C309 C310 1.424 . S
C310 H302 0.951 . S
C310 C309 1.424 . S
C310 C311 1.347 . S
C311 H303 0.951 . S
C311 C306 1.429 . S
C311 C310 1.347 . S
H312 C313 0.951 . S
C313 H312 0.951 . S
C313 C319 1.265 1_655 S
H314 C319 0.950 . S
H315 C323 0.949 . S
H316 C324 0.950 . S
H317 C325 0.951 . S
H318 C326 0.950 1_455 S
C319 C313 1.265 1_455 S
C319 H314 0.950 . S
C319 C320 1.478 . S
C320 C319 1.478 . S
C320 C321 1.392 . S
C320 C337 1.394 . S
C321 C320 1.392 . S
C321 C322 1.434 1_455 S
C321 C326 1.440 1_455 S
C322 C321 1.434 1_655 S
C322 C323 1.428 . S
C322 C335 1.394 . S
C323 H315 0.949 . S
C323 C322 1.428 . S
C323 C324 1.345 . S
C324 H316 0.950 . S
C324 C323 1.345 . S
C324 C325 1.424 . S
C325 H317 0.951 . S
C325 C324 1.424 . S
C325 C326 1.346 . S
C326 H318 0.950 1_655 S
C326 C321 1.440 1_655 S
C326 C325 1.346 . S
H327 C328 0.951 . S
C328 H327 0.951 . S
C328 C334 1.265 1_455 S
H329 C334 0.950 . S
H330 C338 0.949 . S
H331 C339 0.950 . S
H332 C340 0.951 . S
H333 C341 0.951 1_655 S
C334 C328 1.265 1_655 S
C334 H329 0.950 . S
C334 C335 1.478 . S
C335 C322 1.394 . S
C335 C334 1.478 . S
C335 C336 1.400 1_655 S
C336 C335 1.400 1_455 S
C336 C337 1.441 . S
C336 C341 1.423 . S
C337 C320 1.394 . S
C337 C336 1.441 . S
C337 C338 1.428 . S
C338 H330 0.949 . S
C338 C337 1.428 . S
C338 C339 1.345 . S
C339 H331 0.950 . S
C339 C338 1.345 . S
C339 C340 1.424 . S
C340 H332 0.951 . S
C340 C339 1.424 . S
C340 C341 1.347 . S
C341 H333 0.951 1_455 S
C341 C336 1.423 . S
C341 C340 1.347 . S
H342 C343 0.952 1_545 S
C343 H342 0.952 1_565 S
C343 C349 1.264 . S
H344 C349 0.950 . S
H345 C353 0.949 . S
H346 C354 0.950 . S
H347 C355 0.951 . S
H348 C356 0.951 . S
C349 C343 1.264 . S
C349 H344 0.950 . S
C349 C350 1.478 . S
C350 C349 1.478 . S
C350 C351 1.397 . S
C350 C367 1.394 1_565 S
C351 C350 1.397 . S
C351 C352 1.438 . S
C351 C356 1.429 . S
C352 C351 1.438 . S
C352 C353 1.428 . S
C352 C365 1.384 1_565 S
C353 H345 0.949 . S
C353 C352 1.428 . S
C353 C354 1.345 . S
C354 H346 0.950 . S
C354 C353 1.345 . S
C354 C355 1.424 . S
C355 H347 0.951 . S
C355 C354 1.424 . S
C355 C356 1.347 . S
C356 H348 0.951 . S
C356 C351 1.429 . S
C356 C355 1.347 . S
H357 C358 0.939 . S
C358 H357 0.939 . S
C358 C364 1.273 1_565 S
H359 C364 0.950 . S
H360 C368 0.949 . S
H361 C369 0.950 . S
H362 C370 0.951 . S
H363 C371 0.951 . S
C364 C358 1.273 1_545 S
C364 H359 0.950 . S
C364 C365 1.477 . S
C365 C352 1.384 1_545 S
C365 C364 1.477 . S
C365 C366 1.409 . S
C366 C365 1.409 . S
C366 C367 1.438 . S
C366 C371 1.429 . S
C367 C350 1.394 1_545 S
C367 C366 1.438 . S
C367 C368 1.428 . S
C368 H360 0.949 . S
C368 C367 1.428 . S
C368 C369 1.345 . S
C369 H361 0.950 . S
C369 C368 1.345 . S
C369 C370 1.424 . S
C370 H362 0.951 . S
C370 C369 1.424 . S
C370 C371 1.347 . S
C371 H363 0.951 . S
C371 C366 1.429 . S
C371 C370 1.347 . S
H372 C373 0.951 . S
C373 H372 0.951 . S
C373 C379 1.265 . S
H374 C379 0.950 . S
H375 C383 0.949 . S
H376 C384 0.950 . S
H377 C385 0.951 . S
H378 C386 0.951 . S
C379 C373 1.265 . S
C379 H374 0.950 . S
C379 C380 1.478 . S
C380 C379 1.478 . S
C380 C381 1.397 . S
C380 C397 1.394 . S
C381 C380 1.397 . S
C381 C382 1.438 . S
C381 C386 1.429 . S
C382 C381 1.438 . S
C382 C383 1.428 . S
C382 C395 1.394 . S
C383 H375 0.949 . S
C383 C382 1.428 . S
C383 C384 1.345 . S
C384 H376 0.950 . S
C384 C383 1.345 . S
C384 C385 1.424 . S
C385 H377 0.951 . S
C385 C384 1.424 . S
C385 C386 1.347 . S
C386 H378 0.951 . S
C386 C381 1.429 . S
C386 C385 1.347 . S
H387 C388 0.951 . S
C388 H387 0.951 . S
C388 C394 1.265 . S
H389 C394 0.950 . S
H390 C398 0.949 . S
H391 C399 0.950 . S
H392 C400 0.951 . S
H393 C401 0.951 . S
C394 C388 1.265 . S
C394 H389 0.950 . S
C394 C395 1.478 . S
C395 C382 1.394 . S
C395 C394 1.478 . S
C395 C396 1.397 . S
C396 C395 1.397 . S
C396 C397 1.438 . S
C396 C401 1.429 . S
C397 C380 1.394 . S
C397 C396 1.438 . S
C397 C398 1.428 . S
C398 H390 0.949 . S
C398 C397 1.428 . S
C398 C399 1.345 . S
C399 H391 0.950 . S
C399 C398 1.345 . S
C399 C400 1.424 . S
C400 H392 0.951 . S
C400 C399 1.424 . S
C400 C401 1.347 . S
C401 H393 0.951 . S
C401 C396 1.429 . S
C401 C400 1.347 . S
H402 C403 0.951 . S
C403 H402 0.951 . S
C403 C409 1.265 1_455 S
H404 C409 0.950 . S
H405 C413 0.949 . S
H406 C414 0.950 . S
H407 C415 0.951 . S
H408 C416 0.951 . S
C409 C403 1.265 1_655 S
C409 H404 0.950 . S
C409 C410 1.478 . S
C410 C409 1.478 . S
C410 C411 1.397 1_655 S
C410 C427 1.394 . S
C411 C410 1.397 1_455 S
C411 C412 1.438 . S
C411 C416 1.429 . S
C412 C411 1.438 . S
C412 C413 1.428 . S
C412 C425 1.394 . S
C413 H405 0.949 . S
C413 C412 1.428 . S
C413 C414 1.345 . S
C414 H406 0.950 . S
C414 C413 1.345 . S
C414 C415 1.424 . S
C415 H407 0.951 . S
C415 C414 1.424 . S
C415 C416 1.347 . S
C416 H408 0.951 . S
C416 C411 1.429 . S
C416 C415 1.347 . S
H417 C418 0.951 . S
C418 H417 0.951 . S
C418 C424 1.265 1_655 S
H419 C424 0.950 . S
H420 C428 0.949 . S
H421 C429 0.950 . S
H422 C430 0.951 . S
H423 C431 0.955 . S
C424 C418 1.265 1_455 S
C424 H419 0.950 . S
C424 C425 1.478 . S
C425 C412 1.394 . S
C425 C424 1.478 . S
C425 C426 1.397 1_455 S
C426 C425 1.397 1_655 S
C426 C427 1.438 . S
C426 C431 1.429 . S
C427 C410 1.394 . S
C427 C426 1.438 . S
C427 C428 1.428 . S
C428 H420 0.949 . S
C428 C427 1.428 . S
C428 C429 1.345 . S
C429 H421 0.950 . S
C429 C428 1.345 . S
C429 C430 1.424 . S
C430 H422 0.951 . S
C430 C429 1.424 . S
C430 C431 1.347 . S
C431 H423 0.955 . S
C431 C426 1.429 . S
C431 C430 1.347 . S
H432 C433 0.955 1_545 S
C433 H432 0.955 1_565 S
C433 C439 1.262 . S
H434 C439 0.950 . S
H435 C443 0.949 . S
H436 C444 0.950 . S
H437 C445 0.951 . S
H438 C446 0.951 . S
C439 C433 1.262 . S
C439 H434 0.950 . S
C439 C440 1.478 . S
C440 C439 1.478 . S
C440 C441 1.397 . S
C440 C457 1.394 1_565 S
C441 C440 1.397 . S
C441 C442 1.438 . S
C441 C446 1.429 . S
C442 C441 1.438 . S
C442 C443 1.428 . S
C442 C455 1.387 1_565 S
C443 H435 0.949 . S
C443 C442 1.428 . S
C443 C444 1.345 . S
C444 H436 0.950 . S
C444 C443 1.345 . S
C444 C445 1.424 . S
C445 H437 0.951 . S
C445 C444 1.424 . S
C445 C446 1.347 . S
C446 H438 0.951 . S
C446 C441 1.429 . S
C446 C445 1.347 . S
H447 C448 0.942 . S
C448 H447 0.942 . S
C448 C454 1.271 1_565 S
H449 C454 0.950 . S
H450 C458 0.949 . S
H451 C459 0.950 . S
H452 C460 0.951 . S
H453 C461 0.951 . S
C454 C448 1.271 1_545 S
C454 H449 0.950 . S
C454 C455 1.477 . S
C455 C442 1.387 1_545 S
C455 C454 1.477 . S
C455 C456 1.405 . S
C456 C455 1.405 . S
C456 C457 1.438 . S
C456 C461 1.429 . S
C457 C440 1.394 1_545 S
C457 C456 1.438 . S
C457 C458 1.428 . S
C458 H450 0.949 . S
C458 C457 1.428 . S
C458 C459 1.345 . S
C459 H451 0.950 . S
C459 C458 1.345 . S
C459 C460 1.424 . S
C460 H452 0.951 . S
C460 C459 1.424 . S
C460 C461 1.347 . S
C461 H453 0.951 . S
C461 C456 1.429 . S
C461 C460 1.347 . S
H462 C463 0.951 . S
C463 H462 0.951 . S
C463 C469 1.265 . S
H464 C469 0.950 . S
H465 C473 0.949 . S
H466 C474 0.950 . S
H467 C475 0.951 . S
H468 C476 0.951 . S
C469 C463 1.265 . S
C469 H464 0.950 . S
C469 C470 1.478 . S
C470 C469 1.478 . S
C470 C471 1.397 . S
C470 C487 1.394 . S
C471 C470 1.397 . S
C471 C472 1.438 . S
C471 C476 1.429 . S
C472 C471 1.438 . S
C472 C473 1.428 . S
C472 C485 1.394 . S
C473 H465 0.949 . S
C473 C472 1.428 . S
C473 C474 1.345 . S
C474 H466 0.950 . S
C474 C473 1.345 . S
C474 C475 1.424 . S
C475 H467 0.951 . S
C475 C474 1.424 . S
C475 C476 1.347 . S
C476 H468 0.951 . S
C476 C471 1.429 . S
C476 C475 1.347 . S
H477 C478 0.951 . S
C478 H477 0.951 . S
C478 C484 1.265 . S
H479 C484 0.950 . S
H480 C488 0.949 . S
H481 C489 0.950 . S
H482 C490 0.951 . S
H483 C491 0.951 . S
C484 C478 1.265 . S
C484 H479 0.950 . S
C484 C485 1.478 . S
C485 C472 1.394 . S
C485 C484 1.478 . S
C485 C486 1.397 . S
C486 C485 1.397 . S
C486 C487 1.438 . S
C486 C491 1.429 . S
C487 C470 1.394 . S
C487 C486 1.438 . S
C487 C488 1.428 . S
C488 H480 0.949 . S
C488 C487 1.428 . S
C488 C489 1.345 . S
C489 H481 0.950 . S
C489 C488 1.345 . S
C489 C490 1.424 . S
C490 H482 0.951 . S
C490 C489 1.424 . S
C490 C491 1.347 . S
C491 H483 0.951 . S
C491 C486 1.429 . S
C491 C490 1.347 . S
H492 C493 0.951 . S
C493 H492 0.951 . S
C493 C499 1.265 . S
H494 C499 0.950 . S
H495 C503 0.949 . S
H496 C504 0.950 . S
H497 C505 0.951 . S
H498 C506 0.951 1_556 S
C499 C493 1.265 . S
C499 H494 0.950 . S
C499 C500 1.478 . S
C500 C499 1.478 . S
C500 C501 1.365 1_556 S
C500 C517 1.394 . S
C501 C500 1.365 1_554 S
C501 C502 1.469 . S
C501 C506 1.435 . S
C502 C501 1.469 . S
C502 C503 1.428 . S
C502 C515 1.394 . S
C503 H495 0.949 . S
C503 C502 1.428 . S
C503 C504 1.345 . S
C504 H496 0.950 . S
C504 C503 1.345 . S
C504 C505 1.424 . S
C505 H497 0.951 . S
C505 C504 1.424 . S
C505 C506 1.347 . S
C506 H498 0.951 1_554 S
C506 C501 1.435 . S
C506 C505 1.347 . S
H507 C508 0.951 . S
C508 H507 0.951 . S
C508 C514 1.265 . S
H509 C514 0.950 . S
H510 C518 0.949 . S
H511 C519 0.950 . S
H512 C520 0.951 . S
H513 C521 0.951 1_554 S
C514 C508 1.265 . S
C514 H509 0.950 . S
C514 C515 1.478 . S
C515 C502 1.394 . S
C515 C514 1.478 . S
C515 C516 1.364 1_554 S
C516 C515 1.364 1_556 S
C516 C517 1.469 . S
C516 C521 1.435 . S
C517 C500 1.394 . S
C517 C516 1.469 . S
C517 C518 1.428 . S
C518 H510 0.949 . S
C518 C517 1.428 . S
C518 C519 1.345 . S
C519 H511 0.950 . S
C519 C518 1.345 . S
C519 C520 1.424 . S
C520 H512 0.951 . S
C520 C519 1.424 . S
C520 C521 1.347 . S
C521 H513 0.951 1_556 S
C521 C516 1.435 . S
C521 C520 1.347 . S
H522 C523 0.951 . S
C523 H522 0.951 . S
C523 C529 1.265 . S
H524 C529 0.950 . S
H525 C533 0.949 . S
H526 C534 0.950 . S
H527 C535 0.951 . S
H528 C536 0.951 . S
C529 C523 1.265 . S
C529 H524 0.950 . S
C529 C530 1.478 . S
C530 C529 1.478 . S
C530 C531 1.397 . S
C530 C547 1.394 . S
C531 C530 1.397 . S
C531 C532 1.438 . S
C531 C536 1.429 . S
C532 C531 1.438 . S
C532 C533 1.428 . S
C532 C545 1.394 . S
C533 H525 0.949 . S
C533 C532 1.428 . S
C533 C534 1.345 . S
C534 H526 0.950 . S
C534 C533 1.345 . S
C534 C535 1.424 . S
C535 H527 0.951 . S
C535 C534 1.424 . S
C535 C536 1.347 . S
C536 H528 0.951 . S
C536 C531 1.429 . S
C536 C535 1.347 . S
H537 C538 0.951 . S
C538 H537 0.951 . S
C538 C544 1.265 . S
H539 C544 0.950 . S
H540 C548 0.949 . S
H541 C549 0.950 . S
H542 C550 0.951 . S
H543 C551 0.951 . S
C544 C538 1.265 . S
C544 H539 0.950 . S
C544 C545 1.478 . S
C545 C532 1.394 . S
C545 C544 1.478 . S
C545 C546 1.397 . S
C546 C545 1.397 . S
C546 C547 1.438 . S
C546 C551 1.429 . S
C547 C530 1.394 . S
C547 C546 1.438 . S
C547 C548 1.428 . S
C548 H540 0.949 . S
C548 C547 1.428 . S
C548 C549 1.345 . S
C549 H541 0.950 . S
C549 C548 1.345 . S
C549 C550 1.424 . S
C550 H542 0.951 . S
C550 C549 1.424 . S
C550 C551 1.347 . S
C551 H543 0.951 . S
C551 C546 1.429 . S
C551 C550 1.347 . S
H552 C553 0.951 . S
C553 H552 0.951 . S
C553 C559 1.265 . S
H554 C559 0.950 . S
H555 C563 0.949 . S
H556 C564 0.950 . S
H557 C565 0.951 . S
H558 C566 0.951 . S
C559 C553 1.265 . S
C559 H554 0.950 . S
C559 C560 1.478 . S
C560 C559 1.478 . S
C560 C561 1.397 . S
C560 C577 1.394 . S
C561 C560 1.397 . S
C561 C562 1.438 . S
C561 C566 1.429 . S
C562 C561 1.438 . S
C562 C563 1.428 . S
C562 C575 1.394 . S
C563 H555 0.949 . S
C563 C562 1.428 . S
C563 C564 1.345 . S
C564 H556 0.950 . S
C564 C563 1.345 . S
C564 C565 1.424 . S
C565 H557 0.951 . S
C565 C564 1.424 . S
C565 C566 1.347 . S
C566 H558 0.951 . S
C566 C561 1.429 . S
C566 C565 1.347 . S
H567 C568 0.951 . S
C568 H567 0.951 . S
C568 C574 1.265 . S
H569 C574 0.950 . S
H570 C578 0.949 . S
H571 C579 0.950 . S
H572 C580 0.951 . S
H573 C581 0.951 . S
C574 C568 1.265 . S
C574 H569 0.950 . S
C574 C575 1.478 . S
C575 C562 1.394 . S
C575 C574 1.478 . S
C575 C576 1.397 . S
C576 C575 1.397 . S
C576 C577 1.438 . S
C576 C581 1.429 . S
C577 C560 1.394 . S
C577 C576 1.438 . S
C577 C578 1.428 . S
C578 H570 0.949 . S
C578 C577 1.428 . S
C578 C579 1.345 . S
C579 H571 0.950 . S
C579 C578 1.345 . S
C579 C580 1.424 . S
C580 H572 0.951 . S
C580 C579 1.424 . S
C580 C581 1.347 . S
C581 H573 0.951 . S
C581 C576 1.429 . S
C581 C580 1.347 . S
H582 C583 0.951 . S
C583 H582 0.951 . S
C583 C589 1.265 . S
H584 C589 0.950 . S
H585 C593 0.949 . S
H586 C594 0.950 . S
H587 C595 0.951 . S
H588 C596 0.962 . S
C589 C583 1.265 . S
C589 H584 0.950 . S
C589 C590 1.478 . S
C590 C589 1.478 . S
C590 C591 1.397 1_554 S
C590 C607 1.394 . S
C591 C590 1.397 1_556 S
C591 C592 1.438 . S
C591 C596 1.429 . S
C592 C591 1.438 . S
C592 C593 1.428 . S
C592 C605 1.394 . S
C593 H585 0.949 . S
C593 C592 1.428 . S
C593 C594 1.345 . S
C594 H586 0.950 . S
C594 C593 1.345 . S
C594 C595 1.424 . S
C595 H587 0.951 . S
C595 C594 1.424 . S
C595 C596 1.347 . S
C596 H588 0.962 . S
C596 C591 1.429 . S
C596 C595 1.347 . S
H597 C598 0.951 . S
C598 H597 0.951 . S
C598 C604 1.265 . S
H599 C604 0.950 . S
H600 C608 0.949 . S
H601 C609 0.950 . S
H602 C610 0.951 . S
H603 C611 0.962 . S
C604 C598 1.265 . S
C604 H599 0.950 . S
C604 C605 1.478 . S
C605 C592 1.394 . S
C605 C604 1.478 . S
C605 C606 1.397 1_556 S
C606 C605 1.397 1_554 S
C606 C607 1.438 . S
C606 C611 1.429 . S
C607 C590 1.394 . S
C607 C606 1.438 . S
C607 C608 1.428 . S
C608 H600 0.949 . S
C608 C607 1.428 . S
C608 C609 1.345 . S
C609 H601 0.950 . S
C609 C608 1.345 . S
C609 C610 1.424 . S
C610 H602 0.951 . S
C610 C609 1.424 . S
C610 C611 1.347 . S
C611 H603 0.962 . S
C611 C606 1.429 . S
C611 C610 1.347 . S
H612 C613 0.951 . S
C613 H612 0.951 . S
C613 C619 1.265 . S
H614 C619 0.950 . S
H615 C623 0.949 . S
H616 C624 0.950 . S
H617 C625 0.951 . S
H618 C626 0.951 . S
C619 C613 1.265 . S
C619 H614 0.950 . S
C619 C620 1.478 . S
C620 C619 1.478 . S
C620 C621 1.397 . S
C620 C637 1.394 . S
C621 C620 1.397 . S
C621 C622 1.438 . S
C621 C626 1.429 . S
C622 C621 1.438 . S
C622 C623 1.428 . S
C622 C635 1.394 . S
C623 H615 0.949 . S
C623 C622 1.428 . S
C623 C624 1.345 . S
C624 H616 0.950 . S
C624 C623 1.345 . S
C624 C625 1.424 . S
C625 H617 0.951 . S
C625 C624 1.424 . S
C625 C626 1.347 . S
C626 H618 0.951 . S
C626 C621 1.429 . S
C626 C625 1.347 . S
H627 C628 0.951 . S
C628 H627 0.951 . S
C628 C634 1.265 . S
H629 C634 0.950 . S
H630 C638 0.949 . S
H631 C639 0.950 . S
H632 C640 0.951 . S
H633 C641 0.951 . S
C634 C628 1.265 . S
C634 H629 0.950 . S
C634 C635 1.478 . S
C635 C622 1.394 . S
C635 C634 1.478 . S
C635 C636 1.397 . S
C636 C635 1.397 . S
C636 C637 1.438 . S
C636 C641 1.429 . S
C637 C620 1.394 . S
C637 C636 1.438 . S
C637 C638 1.428 . S
C638 H630 0.949 . S
C638 C637 1.428 . S
C638 C639 1.345 . S
C639 H631 0.950 . S
C639 C638 1.345 . S
C639 C640 1.424 . S
C640 H632 0.951 . S
C640 C639 1.424 . S
C640 C641 1.347 . S
C641 H633 0.951 . S
C641 C636 1.429 . S
C641 C640 1.347 . S
H642 C643 0.951 . S
C643 H642 0.951 . S
C643 C649 1.265 . S
H644 C649 0.950 . S
H645 C653 0.949 . S
H646 C654 0.950 . S
H647 C655 0.951 . S
H648 C656 0.951 . S
C649 C643 1.265 . S
C649 H644 0.950 . S
C649 C650 1.478 . S
C650 C649 1.478 . S
C650 C651 1.397 . S
C650 C667 1.394 . S
C651 C650 1.397 . S
C651 C652 1.438 . S
C651 C656 1.429 . S
C652 C651 1.438 . S
C652 C653 1.428 . S
C652 C665 1.394 . S
C653 H645 0.949 . S
C653 C652 1.428 . S
C653 C654 1.345 . S
C654 H646 0.950 . S
C654 C653 1.345 . S
C654 C655 1.424 . S
C655 H647 0.951 . S
C655 C654 1.424 . S
C655 C656 1.347 . S
C656 H648 0.951 . S
C656 C651 1.429 . S
C656 C655 1.347 . S
H657 C658 0.951 . S
C658 H657 0.951 . S
C658 C664 1.265 . S
H659 C664 0.950 . S
H660 C668 0.949 . S
H661 C669 0.950 . S
H662 C670 0.951 . S
H663 C671 0.951 . S
C664 C658 1.265 . S
C664 H659 0.950 . S
C664 C665 1.478 . S
C665 C652 1.394 . S
C665 C664 1.478 . S
C665 C666 1.397 . S
C666 C665 1.397 . S
C666 C667 1.438 . S
C666 C671 1.429 . S
C667 C650 1.394 . S
C667 C666 1.438 . S
C667 C668 1.428 . S
C668 H660 0.949 . S
C668 C667 1.428 . S
C668 C669 1.345 . S
C669 H661 0.950 . S
C669 C668 1.345 . S
C669 C670 1.424 . S
C670 H662 0.951 . S
C670 C669 1.424 . S
C670 C671 1.347 . S
C671 H663 0.951 . S
C671 C666 1.429 . S
C671 C670 1.347 . S
C133 C40 1.568 . S
C148 C7 1.578 . S
C163 C18 1.594 1_565 S
C178 C51 1.597 1_545 S
C193 C62 1.596 . S
C208 C29 1.595 . S
C223 C73 1.476 . S
C238 C106 1.476 . S
C253 C117 1.596 . S
C268 C84 1.595 . S
C283 C95 1.476 . S
C298 C128 1.476 . S
C313 C126 1.193 . S
C328 C5 1.263 . S
C343 C16 1.355 1_565 S
C358 C71 1.230 . S
C373 C27 1.200 . S
C388 C82 1.245 . S
C403 C93 1.192 . S
C418 C38 1.268 . S
C433 C49 1.235 . S
C448 C104 1.361 1_565 S
C463 C115 1.259 . S
C478 C60 1.194 . S
C493 C118 1.597 . S
C508 C8 1.590 . S
C523 C129 1.582 . S
C538 C19 1.611 . S
C553 C30 1.651 . S
C568 C74 1.594 . S
C583 C41 1.593 . S
C598 C85 1.595 . S
C613 C52 1.587 . S
C628 C96 1.647 . S
C643 C63 1.645 . S
C658 C107 1.585 . S
