# Generated by pormake.
# Topology lcy-e, (6)-cn, num edge types: 1
# Building blocks:
#     Node 0, Type 0, BuildingBlock: KUMJIN_clean_sbu_0, # of connection points: 6
#     Node 1, Type 0, BuildingBlock: KUMJIN_clean_sbu_0, # of connection points: 6
#     Node 2, Type 0, BuildingBlock: KUMJIN_clean_sbu_0, # of connection points: 6
#     Node 3, Type 0, BuildingBlock: KUMJIN_clean_sbu_0, # of connection points: 6
#     Node 4, Type 0, BuildingBlock: KUMJIN_clean_sbu_0, # of connection points: 6
#     Node 5, Type 0, BuildingBlock: KUMJIN_clean_sbu_0, # of connection points: 6
#     Node 6, Type 0, BuildingBlock: KUMJIN_clean_sbu_0, # of connection points: 6
#     Node 7, Type 0, BuildingBlock: KUMJIN_clean_sbu_0, # of connection points: 6
#     Node 8, Type 0, BuildingBlock: KUMJIN_clean_sbu_0, # of connection points: 6
#     Node 9, Type 0, BuildingBlock: KUMJIN_clean_sbu_0, # of connection points: 6
#     Node 10, Type 0, BuildingBlock: KUMJIN_clean_sbu_0, # of connection points: 6
#     Node 11, Type 0, BuildingBlock: KUMJIN_clean_sbu_0, # of connection points: 6
#     Edge 12, Type (0, 0), BuildingBlock: XIVTED_clean_linker_0, # of connection points: 2
#     Edge 13, Type (0, 0), BuildingBlock: XIVTED_clean_linker_0, # of connection points: 2
#     Edge 14, Type (0, 0), BuildingBlock: XIVTED_clean_linker_0, # of connection points: 2
#     Edge 15, Type (0, 0), BuildingBlock: XIVTED_clean_linker_0, # of connection points: 2
#     Edge 16, Type (0, 0), BuildingBlock: XIVTED_clean_linker_0, # of connection points: 2
#     Edge 17, Type (0, 0), BuildingBlock: XIVTED_clean_linker_0, # of connection points: 2
#     Edge 18, Type (0, 0), BuildingBlock: XIVTED_clean_linker_0, # of connection points: 2
#     Edge 19, Type (0, 0), BuildingBlock: XIVTED_clean_linker_0, # of connection points: 2
#     Edge 20, Type (0, 0), BuildingBlock: XIVTED_clean_linker_0, # of connection points: 2
#     Edge 21, Type (0, 0), BuildingBlock: XIVTED_clean_linker_0, # of connection points: 2
#     Edge 22, Type (0, 0), BuildingBlock: XIVTED_clean_linker_0, # of connection points: 2
#     Edge 23, Type (0, 0), BuildingBlock: XIVTED_clean_linker_0, # of connection points: 2
#     Edge 24, Type (0, 0), BuildingBlock: XIVTED_clean_linker_0, # of connection points: 2
#     Edge 25, Type (0, 0), BuildingBlock: XIVTED_clean_linker_0, # of connection points: 2
#     Edge 26, Type (0, 0), BuildingBlock: XIVTED_clean_linker_0, # of connection points: 2
#     Edge 27, Type (0, 0), BuildingBlock: XIVTED_clean_linker_0, # of connection points: 2
#     Edge 28, Type (0, 0), BuildingBlock: XIVTED_clean_linker_0, # of connection points: 2
#     Edge 29, Type (0, 0), BuildingBlock: XIVTED_clean_linker_0, # of connection points: 2
#     Edge 30, Type (0, 0), BuildingBlock: XIVTED_clean_linker_0, # of connection points: 2
#     Edge 31, Type (0, 0), BuildingBlock: XIVTED_clean_linker_0, # of connection points: 2
#     Edge 32, Type (0, 0), BuildingBlock: XIVTED_clean_linker_0, # of connection points: 2
#     Edge 33, Type (0, 0), BuildingBlock: XIVTED_clean_linker_0, # of connection points: 2
#     Edge 34, Type (0, 0), BuildingBlock: XIVTED_clean_linker_0, # of connection points: 2
#     Edge 35, Type (0, 0), BuildingBlock: XIVTED_clean_linker_0, # of connection points: 2
#     Edge 36, Type (0, 0), BuildingBlock: XIVTED_clean_linker_0, # of connection points: 2
#     Edge 37, Type (0, 0), BuildingBlock: XIVTED_clean_linker_0, # of connection points: 2
#     Edge 38, Type (0, 0), BuildingBlock: XIVTED_clean_linker_0, # of connection points: 2
#     Edge 39, Type (0, 0), BuildingBlock: XIVTED_clean_linker_0, # of connection points: 2
#     Edge 40, Type (0, 0), BuildingBlock: XIVTED_clean_linker_0, # of connection points: 2
#     Edge 41, Type (0, 0), BuildingBlock: XIVTED_clean_linker_0, # of connection points: 2
#     Edge 42, Type (0, 0), BuildingBlock: XIVTED_clean_linker_0, # of connection points: 2
#     Edge 43, Type (0, 0), BuildingBlock: XIVTED_clean_linker_0, # of connection points: 2
#     Edge 44, Type (0, 0), BuildingBlock: XIVTED_clean_linker_0, # of connection points: 2
#     Edge 45, Type (0, 0), BuildingBlock: XIVTED_clean_linker_0, # of connection points: 2
#     Edge 46, Type (0, 0), BuildingBlock: XIVTED_clean_linker_0, # of connection points: 2
#     Edge 47, Type (0, 0), BuildingBlock: XIVTED_clean_linker_0, # of connection points: 2
# Relax obj value: 0.109
# Max RMSD: 0.285
# Mean RMSD: 0.284
data_MOF--net-lcy-e--node1-KUMJIN_clean_sbu_0--edge1-XIVTED_clean_linker_0
_symmetry_space_group_name_H-M    P1
_symmetry_Int_Tables_number       1
_symmetry_cell_setting            triclinic
loop_
_symmetry_equiv_pos_as_xyz
'x, y, z'
_cell_length_a     43.384676
_cell_length_b     43.34914
_cell_length_c     43.282844
_cell_angle_alpha  89.66945
_cell_angle_beta   90.258735
_cell_angle_gamma 90.663948
loop_
_atom_site_label
_atom_site_type_symbol
_atom_site_fract_x
_atom_site_fract_y
_atom_site_fract_z
_atom_type_partial_charge
Eu0 Eu 0.15103 0.2183 0.53841 0.0
C1 C 0.04152 0.26504 0.45387 0.0
C2 C 0.03552 0.22647 0.41412 0.0
C3 C 0.99134 0.25629 0.42997 0.0
C4 C 0.05395 0.24212 0.43612 0.0
C5 C 1.01024 0.27301 0.45047 0.0
C6 C 1.00398 0.23306 0.41176 0.0
C7 C 0.01959 0.31574 0.48492 0.0
N8 N 0.06065 0.28121 0.4727 0.0
C9 C 0.05049 0.30718 0.4871 0.0
C10 C 0.99923 0.29831 0.46685 0.0
Eu11 Eu 0.11271 0.26515 0.47681 0.0
N12 N 0.08449 0.23637 0.43909 0.0
C13 C 0.09844 0.21673 0.41905 0.0
C14 C 0.0495 0.20524 0.39463 0.0
C15 C 0.08119 0.20069 0.39683 0.0
H16 H 0.0662 0.32092 0.5009 0.0
H17 H 0.09238 0.18471 0.38151 0.0
H18 H 0.98938 0.22092 0.39538 0.0
H19 H 1.01156 0.33588 0.49702 0.0
H20 H 0.1228 0.21278 0.4202 0.0
H21 H 0.18491 0.29788 0.63017 0.0
H22 H 0.03618 0.19271 0.37748 0.0
H23 H 0.1912 0.16116 0.50693 0.0
H24 H 0.14885 0.27085 0.59517 0.0
H25 H 0.2447 0.14201 0.50661 0.0
H26 H 0.96717 0.26182 0.42729 0.0
H27 H 0.24048 0.28575 0.62923 0.0
H28 H 0.28305 0.25304 0.60847 0.0
H29 H 0.97536 0.30517 0.4649 0.0
H30 H 0.29925 0.21039 0.57518 0.0
N31 N 0.1838 0.2449 0.5733 0.0
C32 C 0.17307 0.2656 0.59418 0.0
C33 C 0.22479 0.27404 0.61355 0.0
C34 C 0.23533 0.25133 0.59344 0.0
C35 C 0.19344 0.2809 0.61419 0.0
C36 C 0.21394 0.23685 0.57345 0.0
H37 H 0.28506 0.16862 0.53742 0.0
N38 N 0.20154 0.19852 0.53698 0.0
C39 C 0.23895 0.16198 0.52021 0.0
C40 C 0.22306 0.21277 0.55488 0.0
C41 C 0.20871 0.17282 0.52048 0.0
C42 C 0.26168 0.17712 0.53758 0.0
C43 C 0.25381 0.20261 0.55552 0.0
O44 O 0.14364 0.17037 0.55333 0.0
O45 O 0.11365 0.2213 0.50319 0.0
O46 O 0.08003 0.26205 0.51821 0.0
O47 O 0.11282 0.24643 0.55861 0.0
O48 O 0.13501 0.17935 0.50625 0.0
O49 O 0.13337 0.20771 0.5845 0.0
O50 O 0.11599 0.31213 0.4581 0.0
O51 O 0.14819 0.26487 0.51475 0.0
O52 O 0.18596 0.22941 0.5017 0.0
O53 O 0.15262 0.2351 0.45992 0.0
O54 O 0.12255 0.30468 0.50873 0.0
O55 O 0.14093 0.27568 0.43625 0.0
C56 C 0.1131 0.19428 0.49298 0.0
C57 C 0.14765 0.15974 0.60703 0.0
C58 C 0.14437 0.11535 0.64239 0.0
C59 C 0.1333 0.1318 0.61642 0.0
C60 C 0.17021 0.12699 0.6584 0.0
C61 C 0.17366 0.17056 0.62321 0.0
C62 C 0.18484 0.15422 0.6487 0.0
C63 C 0.08646 0.25724 0.54792 0.0
C64 C 0.13479 0.17782 0.58103 0.0
C65 C 0.27547 0.21773 0.5745 0.0
C66 C 0.26625 0.24205 0.59342 0.0
C67 C 0.14389 0.29195 0.52494 0.0
C68 C 0.12193 0.31481 0.40386 0.0
C69 C 0.14236 0.32962 0.38317 0.0
C70 C 0.13242 0.3377 0.35313 0.0
C71 C 0.10184 0.33099 0.3443 0.0
C72 C 0.09148 0.30872 0.39454 0.0
C73 C 0.08154 0.31675 0.36494 0.0
C74 C 0.18039 0.22976 0.47173 0.0
C75 C 0.13268 0.30439 0.43451 0.0
H76 H 0.11319 0.1233 0.60404 0.0
H77 H 0.1793 0.11478 0.6783 0.0
H78 H 0.18515 0.1918 0.61634 0.0
H79 H 0.20485 0.1628 0.66113 0.0
H80 H 0.16596 0.33428 0.39019 0.0
H81 H 0.09348 0.33722 0.32151 0.0
H82 H 0.07539 0.29767 0.41009 0.0
H83 H 0.058 0.31187 0.35797 0.0
Eu84 Eu 1.00986 0.87839 0.74098 0.0
C85 C 0.09489 0.96924 0.79453 0.0
C86 C 0.13825 0.9683 0.75938 0.0
C87 C 0.12311 0.01672 0.78222 0.0
C88 C 0.11414 0.95278 0.7753 0.0
C89 C 0.09966 1.00133 0.79856 0.0
C90 C 0.14232 1.00026 0.76266 0.0
C91 C 0.05912 1.00076 0.83636 0.0
N92 N 0.07194 0.95403 0.80974 0.0
C93 C 0.05524 0.96912 0.83171 0.0
C94 C 0.08107 0.01707 0.81933 0.0
Eu95 Eu 0.06649 0.90014 0.79989 0.0
N96 N 0.10933 0.92187 0.77189 0.0
C97 C 0.12937 0.90517 0.7543 0.0
C98 C 0.1577 0.95134 0.74052 0.0
C99 C 0.15341 0.91962 0.73826 0.0
H100 H 0.03915 0.95693 0.84644 0.0
H101 H 0.16871 0.90617 0.72412 0.0
H102 H 0.16048 1.01245 0.75034 0.0
H103 H 0.04541 1.01248 0.85341 0.0
H104 H 0.12759 0.88061 0.75202 0.0
H105 H 0.91115 0.8584 0.81646 0.0
H106 H 0.17633 0.96245 0.72792 0.0
H107 H 0.02728 0.83463 0.67961 0.0
H108 H 0.94963 0.88936 0.78752 0.0
H109 H 0.02224 0.78013 0.66318 0.0
H110 H 0.12681 0.04133 0.78484 0.0
H111 H 0.91025 0.80153 0.81163 0.0
H112 H 0.92971 0.75442 0.78456 0.0
H113 H 0.0841 0.04162 0.82306 0.0
H114 H 0.96048 0.73281 0.74243 0.0
N115 N 0.97102 0.85045 0.76773 0.0
C116 C 0.94951 0.8646 0.78544 0.0
C117 C 0.9273 0.81502 0.79908 0.0
C118 C 0.94775 0.80093 0.77877 0.0
C119 C 0.9276 0.84712 0.80173 0.0
C120 C 0.96942 0.8196 0.76295 0.0
H121 H 0.99445 0.74242 0.69632 0.0
N122 N 1.0046 0.82702 0.72248 0.0
C123 C 1.01251 0.78738 0.6849 0.0
C124 C 0.98689 0.80741 0.73949 0.0
C125 C 0.01528 0.81814 0.6942 0.0
C126 C 0.99695 0.76614 0.70376 0.0
C127 C 0.98293 0.77628 0.73088 0.0
O128 O 1.00058 0.8903 0.6926 0.0
O129 O 0.04647 0.91263 0.7539 0.0
O130 O 0.01917 0.92088 0.81167 0.0
O131 O 0.99634 0.92323 0.76324 0.0
O132 O 0.0485 0.89496 0.70961 0.0
O133 O 0.96491 0.89582 0.72622 0.0
O134 O 0.06913 0.90513 0.85024 0.0
O135 O 0.021 0.87567 0.79224 0.0
O136 O 0.04781 0.84324 0.73875 0.0
O137 O 0.08558 0.85914 0.77404 0.0
O138 O 0.05472 0.85137 0.8147 0.0
O139 O 0.10644 0.88367 0.82552 0.0
C140 C 0.06029 0.91503 0.72833 0.0
C141 C 0.94958 0.8824 0.67557 0.0
C142 C 0.91834 0.88449 0.6283 0.0
C143 C 0.93892 0.89868 0.64942 0.0
C144 C 0.90933 0.85356 0.63366 0.0
C145 C 0.93942 0.85201 0.68071 0.0
C146 C 0.91963 0.83764 0.65973 0.0
C147 C 0.99807 0.93197 0.79231 0.0
C148 C 0.97182 0.89685 0.69703 0.0
C149 C 0.96342 0.75692 0.74834 0.0
C150 C 0.94586 0.76924 0.77231 0.0
C151 C 0.02587 0.85115 0.80773 0.0
C152 C 0.11987 0.90735 0.87293 0.0
C153 C 0.14717 0.89119 0.8797 0.0
C154 C 0.16867 0.90281 0.90127 0.0
C155 C 0.16282 0.93106 0.91571 0.0
C156 C 0.11468 0.93569 0.88744 0.0
C157 C 0.13614 0.94747 0.9086 0.0
C158 C 0.07494 0.8405 0.75225 0.0
C159 C 0.09658 0.89315 0.85216 0.0
H160 H 0.94635 0.92238 0.64585 0.0
H161 H 0.89441 0.84144 0.61759 0.0
H162 H 0.94684 0.83932 0.70088 0.0
H163 H 0.91228 0.81399 0.66366 0.0
H164 H 0.15126 0.86911 0.86889 0.0
H165 H 0.17902 0.94052 0.93236 0.0
H166 H 0.09394 0.94858 0.88281 0.0
H167 H 0.13192 0.96928 0.91978 0.0
Eu168 Eu 0.40478 0.75511 0.986 0.0
C169 C 0.30386 0.84013 0.04482 0.0
C170 C 0.29786 0.88114 1.00717 0.0
C171 C 0.25492 0.86665 0.04022 0.0
C172 C 0.316 0.85824 0.02147 0.0
C173 C 0.27339 0.84458 0.05499 0.0
C174 C 0.26713 0.88489 1.01634 0.0
C175 C 0.28259 0.80707 0.09537 0.0
N176 N 0.32238 0.81923 0.05874 0.0
C177 C 0.31268 0.8037 0.08458 0.0
C178 C 0.2627 0.82733 0.08027 0.0
Eu179 Eu 0.37339 0.81478 0.03994 0.0
N180 N 0.34567 0.85376 1.01297 0.0
C181 C 0.35909 0.87271 0.99138 0.0
C182 C 0.31119 0.89972 0.98424 0.0
C183 C 0.34204 0.89566 0.97654 0.0
H184 H 0.32814 0.78822 0.09651 0.0
H185 H 0.3527 0.91013 0.95905 0.0
H186 H 0.25278 0.90214 1.00541 0.0
H187 H 0.27482 0.79418 0.11542 0.0
H188 H 0.38279 0.87002 0.98481 0.0
H189 H 0.44942 0.66068 0.0565 0.0
H190 H 0.298 0.91744 0.97261 0.0
H191 H 0.4354 0.78445 0.92115 0.0
H192 H 0.40957 0.69433 0.03393 0.0
H193 H 0.48589 0.78721 0.89487 0.0
H194 H 0.23137 0.87021 0.04751 0.0
H195 H 0.50363 0.66605 0.03951 0.0
H196 H 0.5418 0.69029 1.00281 0.0
H197 H 0.23946 0.83009 0.08879 0.0
H198 H 0.55167 0.72449 0.95824 0.0
N199 N 0.44126 0.72039 1.00685 0.0
C200 C 0.43328 0.6975 0.02711 0.0
C201 C 0.48631 0.6813 0.03005 0.0
C202 C 0.49379 0.70288 1.00703 0.0
C203 C 0.45575 0.67815 0.03965 0.0
C204 C 0.47035 0.72217 0.99558 0.0
H205 H 0.53078 0.7603 0.91739 0.0
N206 N 0.45205 0.75757 0.95876 0.0
C207 C 0.48346 0.77438 0.91626 0.0
C208 C 0.4759 0.74121 0.9705 0.0
C209 C 0.45494 0.77279 0.93117 0.0
C210 C 0.50877 0.75923 0.9291 0.0
C211 C 0.50502 0.74181 0.95619 0.0
O212 O 0.38688 0.74344 0.94004 0.0
O213 O 0.3693 0.79056 0.99524 0.0
O214 O 0.33967 0.77334 0.03818 0.0
O215 O 0.37055 0.73356 1.01903 0.0
O216 O 0.3841 0.78848 0.95045 0.0
O217 O 0.38832 0.70831 0.9754 0.0
O218 O 0.38099 0.82912 0.0878 0.0
O219 O 0.4072 0.7764 0.03393 0.0
O220 O 0.44077 0.79246 0.9892 0.0
O221 O 0.4134 0.83354 1.01028 0.0
O222 O 0.3874 0.78202 0.07749 0.0
O223 O 0.39887 0.85744 0.05075 0.0
C224 C 0.36496 0.80159 0.96871 0.0
C225 C 0.39412 0.69236 0.92325 0.0
C226 C 0.38606 0.66018 0.87733 0.0
C227 C 0.37487 0.68157 0.899 0.0
C228 C 0.4167 0.65031 0.87997 0.0
C229 C 0.42466 0.68222 0.92508 0.0
C230 C 0.43584 0.66141 0.90351 0.0
C231 C 0.3451 0.74381 0.03194 0.0
C232 C 0.38252 0.71436 0.94637 0.0
C233 C 0.52902 0.72412 0.96869 0.0
C234 C 0.52341 0.70468 0.9941 0.0
C235 C 0.40622 0.76584 0.06157 0.0
C236 C 0.38219 0.88332 0.09566 0.0
C237 C 0.40221 0.9076 0.10497 0.0
C238 C 0.39018 0.93468 0.1182 0.0
C239 C 0.35815 0.93686 0.12229 0.0
C240 C 0.35037 0.88623 0.10039 0.0
C241 C 0.3385 0.91277 0.11359 0.0
C242 C 0.43755 0.82184 0.99595 0.0
C243 C 0.39416 0.85535 0.08042 0.0
H244 H 0.35122 0.68924 0.8974 0.0
H245 H 0.42587 0.63393 0.86367 0.0
H246 H 0.43984 0.69029 0.94328 0.0
H247 H 0.45943 0.65367 0.90517 0.0
H248 H 0.42683 0.9057 0.10141 0.0
H249 H 0.34829 0.95722 0.13254 0.0
H250 H 0.33456 0.86798 0.09396 0.0
H251 H 0.3139 0.9147 0.11704 0.0
Eu252 Eu 0.53164 0.16439 0.23574 0.0
C253 C 0.4607 0.04752 0.2877 0.0
C254 C 0.42221 0.03564 0.24883 0.0
C255 C 0.44304 0.99455 0.2808 0.0
C256 C 0.4417 0.05705 0.264 0.0
C257 C 0.46105 0.01628 0.29697 0.0
C258 C 0.42361 1.00423 0.25676 0.0
C259 C 0.49408 0.03095 0.33964 0.0
N260 N 0.47712 0.06923 0.30324 0.0
C261 C 0.49262 0.06167 0.32976 0.0
C262 C 0.47855 1.00806 0.32292 0.0
Eu263 Eu 0.47475 0.12083 0.28491 0.0
N264 N 0.44088 0.08758 0.25707 0.0
C265 C 0.41925 0.09854 0.23689 0.0
C266 C 0.40128 0.04659 0.22679 0.0
C267 C 0.39948 0.07824 0.22117 0.0
H268 H 0.50455 0.0794 0.34278 0.0
H269 H 0.38292 0.08704 0.20466 0.0
H270 H 0.40915 0.98738 0.24505 0.0
H271 H 0.50704 0.02498 0.3602 0.0
H272 H 0.41745 0.12288 0.23228 0.0
H273 H 0.62171 0.21683 0.30712 0.0
H274 H 0.38597 0.03091 0.21456 0.0
H275 H 0.4913 0.19611 0.17712 0.0
H276 H 0.59149 0.17427 0.28384 0.0
H277 H 0.48203 0.24745 0.1545 0.0
H278 H 0.44323 0.97038 0.28734 0.0
H279 H 0.61145 0.2708 0.29163 0.0
H280 H 0.58276 0.3076 0.25716 0.0
H281 H 0.47944 0.9843 0.33078 0.0
H282 H 0.54522 0.31585 0.2152 0.0
N283 N 0.56259 0.20388 0.25773 0.0
C284 C 0.5861 0.19777 0.27778 0.0
C285 C 0.59769 0.25222 0.28186 0.0
C286 C 0.57503 0.25815 0.25956 0.0
C287 C 0.60356 0.22181 0.29067 0.0
C288 C 0.55776 0.23312 0.24763 0.0
H289 H 0.50787 0.29354 0.17654 0.0
N290 N 0.5217 0.21285 0.21212 0.0
C291 C 0.49747 0.24505 0.17405 0.0
C292 C 0.53687 0.23774 0.22388 0.0
C293 C 0.50285 0.21594 0.18693 0.0
C294 C 0.51204 0.27102 0.1866 0.0
C295 C 0.53232 0.26754 0.21159 0.0
O296 O 0.54545 0.15034 0.18951 0.0
O297 O 0.50002 0.12337 0.24046 0.0
O298 O 0.52007 0.09381 0.28411 0.0
O299 O 0.5562 0.13107 0.26726 0.0
O300 O 0.50011 0.14479 0.198 0.0
O301 O 0.58014 0.15603 0.225 0.0
O302 O 0.45402 0.12126 0.33083 0.0
O303 O 0.51183 0.15651 0.28282 0.0
O304 O 0.49287 0.19577 0.24825 0.0
O305 O 0.45403 0.15885 0.25367 0.0
O306 O 0.50002 0.14071 0.3263 0.0
O307 O 0.43167 0.14502 0.29292 0.0
C308 C 0.48922 0.12171 0.21349 0.0
C309 C 0.59446 0.1663 0.17305 0.0
C310 C 0.62411 0.16494 0.12504 0.0
C311 C 0.60687 0.14969 0.14825 0.0
C312 C 0.62838 0.19716 0.12719 0.0
C313 C 0.59936 0.19825 0.17475 0.0
C314 C 0.61624 0.21354 0.1519 0.0
C315 C 0.54877 0.10371 0.27891 0.0
C316 C 0.57477 0.15043 0.19586 0.0
C317 C 0.54854 0.29275 0.2242 0.0
C318 C 0.56987 0.28806 0.24814 0.0
C319 C 0.51733 0.15994 0.31149 0.0
C320 C 0.39959 0.12314 0.33093 0.0
C321 C 0.37753 0.14215 0.3446 0.0
C322 C 0.34811 0.13032 0.35212 0.0
C323 C 0.34117 0.0992 0.34579 0.0
C324 C 0.3923 0.09209 0.32517 0.0
C325 C 0.36321 0.08025 0.33251 0.0
C326 C 0.46349 0.18773 0.24851 0.0
C327 C 0.42962 0.13615 0.32167 0.0
H328 H 0.60313 0.12495 0.14717 0.0
H329 H 0.64073 0.20993 0.1095 0.0
H330 H 0.58985 0.21141 0.19351 0.0
H331 H 0.61967 0.23828 0.15317 0.0
H332 H 0.38309 0.1662 0.3489 0.0
H333 H 0.31886 0.08937 0.35162 0.0
H334 H 0.40903 0.07704 0.31498 0.0
H335 H 0.35773 0.05627 0.32794 0.0
Eu336 Eu 0.6369 0.25048 0.55286 0.0
C337 C 0.73978 0.33631 0.4994 0.0
C338 C 0.74426 0.37651 0.5377 0.0
C339 C 0.78908 0.36231 0.50777 0.0
C340 C 0.72663 0.35382 0.52214 0.0
C341 C 0.77094 0.34097 0.49123 0.0
C342 C 0.77575 0.38007 0.531 0.0
C343 C 0.76283 0.30609 0.44859 0.0
N344 N 0.7214 0.31647 0.48354 0.0
C345 C 0.73201 0.3026 0.45741 0.0
C346 C 0.78255 0.32499 0.46589 0.0
Eu347 Eu 0.6695 0.31036 0.50008 0.0
N348 N 0.6962 0.34963 0.52806 0.0
C349 C 0.68143 0.36917 0.54761 0.0
C350 C 0.72954 0.39544 0.55897 0.0
C351 C 0.69788 0.39207 0.56355 0.0
H352 H 0.71672 0.28821 0.44376 0.0
H353 H 0.68612 0.40698 0.57951 0.0
H354 H 0.78977 0.39704 0.54304 0.0
H355 H 0.77128 0.29436 0.42837 0.0
H356 H 0.65704 0.36699 0.5516 0.0
H357 H 0.59825 0.15213 0.48387 0.0
H358 H 0.74226 0.41309 0.57145 0.0
H359 H 0.60003 0.28773 0.6093 0.0
H360 H 0.63562 0.19003 0.50437 0.0
H361 H 0.54825 0.28885 0.63271 0.0
H362 H 0.81316 0.36594 0.50211 0.0
H363 H 0.54415 0.1524 0.50167 0.0
H364 H 0.50422 0.17464 0.5367 0.0
H365 H 0.80634 0.32793 0.45886 0.0
H366 H 0.49076 0.21143 0.57744 0.0
N367 N 0.60279 0.21282 0.53229 0.0
C368 C 0.61203 0.1908 0.51203 0.0
C369 C 0.56042 0.16935 0.51054 0.0
C370 C 0.55149 0.19087 0.53265 0.0
C371 C 0.59092 0.16911 0.50046 0.0
C372 C 0.57356 0.21248 0.54339 0.0
H373 H 0.50704 0.25393 0.61347 0.0
N374 N 0.58808 0.25287 0.57686 0.0
C375 C 0.55294 0.27303 0.61411 0.0
C376 C 0.56603 0.23292 0.56655 0.0
C377 C 0.58226 0.27228 0.60085 0.0
C378 C 0.52973 0.2533 0.60315 0.0
C379 C 0.53617 0.23272 0.57928 0.0
O380 O 0.64719 0.23867 0.60108 0.0
O381 O 0.6739 0.28648 0.54554 0.0
O382 O 0.70132 0.26764 0.49843 0.0
O383 O 0.67243 0.22844 0.52289 0.0
O384 O 0.65329 0.2863 0.58813 0.0
O385 O 0.65656 0.20583 0.56483 0.0
O386 O 0.6653 0.32725 0.45246 0.0
O387 O 0.63606 0.27129 0.50505 0.0
O388 O 0.59891 0.28202 0.53859 0.0
O389 O 0.62756 0.32652 0.52912 0.0
O390 O 0.6564 0.27745 0.46203 0.0
O391 O 0.64146 0.35074 0.48866 0.0
C392 C 0.67488 0.29874 0.57183 0.0
C393 C 0.6448 0.18564 0.61464 0.0
C394 C 0.65002 0.15402 0.66145 0.0
C395 C 0.6597 0.17922 0.64299 0.0
C396 C 0.62498 0.13574 0.65147 0.0
C397 C 0.61961 0.16725 0.6054 0.0
C398 C 0.60976 0.14251 0.62379 0.0
C399 C 0.69634 0.23823 0.50667 0.0
C400 C 0.65632 0.21089 0.59458 0.0
C401 C 0.51387 0.21186 0.56804 0.0
C402 C 0.52152 0.19096 0.54479 0.0
C403 C 0.63742 0.26061 0.47776 0.0
C404 C 0.65999 0.38142 0.4472 0.0
C405 C 0.63916 0.40318 0.43475 0.0
C406 C 0.64997 0.43237 0.42433 0.0
C407 C 0.68173 0.43905 0.42608 0.0
C408 C 0.69151 0.38894 0.44851 0.0
C409 C 0.70226 0.41748 0.43797 0.0
C410 C 0.60112 0.31222 0.53611 0.0
C411 C 0.6491 0.35129 0.45961 0.0
H412 H 0.67922 0.19327 0.65025 0.0
H413 H 0.61704 0.11631 0.66526 0.0
H414 H 0.60775 0.17176 0.58385 0.0
H415 H 0.5904 0.12836 0.61642 0.0
H416 H 0.61474 0.39772 0.43383 0.0
H417 H 0.69078 0.46106 0.41803 0.0
H418 H 0.70792 0.37274 0.45769 0.0
H419 H 0.72664 0.42296 0.43911 0.0
Eu420 Eu 0.97784 0.41135 0.74149 0.0
C421 C 1.01393 0.31577 0.8408 0.0
C422 C 0.97057 0.31724 0.87579 0.0
C423 C 1.00056 0.27048 0.87164 0.0
C424 C 0.98973 0.33161 0.85359 0.0
C425 C 0.01994 0.28514 0.85005 0.0
C426 C 0.97596 0.28652 0.88454 0.0
C427 C 0.06551 0.28672 0.81823 0.0
N428 N 0.03236 0.33071 0.82023 0.0
C429 C 0.05883 0.31719 0.81014 0.0
C430 C 0.04577 0.27047 0.838 0.0
Eu431 Eu 0.02105 0.38326 0.80969 0.0
N432 N 0.98493 0.36113 0.84437 0.0
C433 C 0.96176 0.3779 0.85698 0.0
C434 C 0.94659 0.33421 0.88857 0.0
C435 C 0.94222 0.36471 0.87915 0.0
H436 H 0.07472 0.33002 0.79561 0.0
H437 H 0.92377 0.37806 0.88892 0.0
H438 H 0.96133 0.27501 0.90135 0.0
H439 H 0.08611 0.27595 0.80957 0.0
H440 H 0.95812 0.40146 0.84996 0.0
H441 H 0.97908 0.35386 0.62956 0.0
H442 H 0.93134 0.324 0.90565 0.0
H443 H 1.00393 0.48233 0.76055 0.0
H444 H 0.96377 0.36167 0.68401 0.0
H445 H 0.03447 0.52456 0.73733 0.0
H446 H 1.00468 0.2469 0.87887 0.0
H447 H 1.01387 0.39164 0.60397 0.0
H448 H 0.0431 0.44201 0.60638 0.0
H449 H 0.05117 0.24697 0.84453 0.0
H450 H 0.05761 0.48862 0.63547 0.0
N451 N 0.99103 0.40239 0.68934 0.0
C452 C 0.9791 0.37811 0.67291 0.0
C453 C 1.00733 0.39506 0.62782 0.0
C454 C 0.01746 0.42113 0.6441 0.0
C455 C 0.98768 0.37368 0.64217 0.0
C456 C 1.00839 0.42441 0.67514 0.0
H457 H 0.05415 0.51975 0.68406 0.0
N458 N 1.00603 0.45368 0.72088 0.0
C459 C 0.02946 0.50396 0.72414 0.0
C460 C 0.0161 0.45084 0.69138 0.0
C461 C 1.01201 0.47994 0.73721 0.0
C462 C 0.04057 0.50113 0.69409 0.0
C463 C 0.03376 0.47446 0.6772 0.0
O464 O 0.94461 0.44511 0.72388 0.0
O465 O 0.97545 0.3841 0.78593 0.0
O466 O 0.02516 0.34829 0.76989 0.0
O467 O 1.01146 0.37614 0.7252 0.0
O468 O 0.95739 0.36345 0.74589 0.0
O469 O 0.9299 0.39822 0.73088 0.0
O470 O 0.06764 0.38787 0.82896 0.0
O471 O 0.02107 0.41783 0.77047 0.0
O472 O 0.96686 0.44399 0.78063 0.0
O473 O 0.999 0.42911 0.82138 0.0
O474 O 0.06154 0.39293 0.7794 0.0
O475 O 0.02929 0.40471 0.85485 0.0
C476 C 0.96171 0.36039 0.77518 0.0
C477 C 0.90862 0.42346 0.68737 0.0
C478 C 0.8689 0.40335 0.65135 0.0
C479 C 0.88133 0.4059 0.68167 0.0
C480 C 0.88408 0.41913 0.62718 0.0
C481 C 0.92304 0.43861 0.66246 0.0
C482 C 0.9108 0.43647 0.63273 0.0
C483 C 0.02336 0.35201 0.73939 0.0
C484 C 0.92289 0.42464 0.71878 0.0
C485 C 0.04385 0.47082 0.64666 0.0
C486 C 0.03567 0.44424 0.63012 0.0
C487 C 0.04901 0.4136 0.76212 0.0
C488 C 0.07181 0.3861 0.88361 0.0
C489 C 0.08236 0.40516 0.90789 0.0
C490 C 0.09381 0.39196 0.93551 0.0
C491 C 0.09489 0.35967 0.9383 0.0
C492 C 0.07354 0.35396 0.88706 0.0
C493 C 0.08494 0.34088 0.91418 0.0
C494 C 0.97848 0.44775 0.80868 0.0
C495 C 0.05878 0.39967 0.85499 0.0
H496 H 0.87027 0.39375 0.70063 0.0
H497 H 0.87509 0.41842 0.60381 0.0
H498 H 0.94403 0.45196 0.66584 0.0
H499 H 0.92215 0.44832 0.61379 0.0
H500 H 0.08122 0.43003 0.90552 0.0
H501 H 0.10385 0.34893 0.9591 0.0
H502 H 0.06624 0.33882 0.86883 0.0
H503 H 0.0861 0.31604 0.91649 0.0
Eu504 Eu 0.90433 0.78827 0.06002 0.0
C505 C 0.78998 0.71442 1.00904 0.0
C506 C 0.78121 0.67514 0.04802 0.0
C507 C 0.73817 0.69413 1.0176 0.0
C508 C 0.80118 0.69568 0.03217 0.0
C509 C 0.75846 0.71332 1.00086 0.0
C510 C 0.74954 0.67505 0.04117 0.0
C511 C 0.77006 0.7475 0.95812 0.0
N512 N 0.81028 0.73228 0.99314 0.0
C513 C 0.8011 0.7475 0.96698 0.0
C514 C 0.74853 0.7307 0.97544 0.0
Eu515 Eu 0.86254 0.73255 1.00972 0.0
N516 N 0.83184 0.6966 0.03834 0.0
C517 C 0.8444 0.67559 0.0583 0.0
C518 C 0.79379 0.65483 0.06976 0.0
C519 C 0.8256 0.65472 0.07453 0.0
H520 H 0.81779 0.76022 0.95332 0.0
H521 H 0.83567 0.63871 0.09086 0.0
H522 H 0.7338 0.65978 0.05341 0.0
H523 H 0.76282 0.7603 0.93786 0.0
H524 H 0.86887 0.67511 0.06249 0.0
H525 H 0.95056 0.88084 0.987 0.0
H526 H 0.77926 0.63876 0.08247 0.0
H527 H 0.93931 0.74808 0.11657 0.0
H528 H 0.91008 0.84791 1.01016 0.0
H529 H 0.99172 0.74083 0.13758 0.0
H530 H 0.71383 0.69322 1.01192 0.0
H531 H 1.00507 0.87409 1.00233 0.0
H532 H 0.04386 0.84743 0.03611 0.0
H533 H 0.72452 0.73049 0.9684 0.0
H534 H 0.055 0.80969 0.07725 0.0
N535 N 0.94139 0.82168 0.03731 0.0
C536 C 0.93377 0.84447 1.01688 0.0
C537 C 0.9874 0.85937 1.01242 0.0
C538 C 0.99487 0.83709 0.03467 0.0
C539 C 0.95666 0.86329 1.00375 0.0
C540 C 0.97101 0.81845 0.047 0.0
H541 H 0.03572 0.76998 0.11528 0.0
N542 N 0.9536 0.78049 0.08227 0.0
C543 C 0.98798 0.75679 0.11864 0.0
C544 C 0.97728 0.79741 0.07033 0.0
C545 C 0.9583 0.76101 0.10674 0.0
C546 C 1.01276 0.77325 0.10595 0.0
C547 C 1.00757 0.79411 0.08172 0.0
O548 O 0.89372 0.79981 0.10784 0.0
O549 O 0.86295 0.75697 0.05479 0.0
O550 O 0.83468 0.77774 1.01001 0.0
O551 O 0.86975 0.81382 0.03086 0.0
O552 O 0.88628 0.75428 0.09627 0.0
O553 O 0.89407 0.83582 0.07298 0.0
O554 O 0.86513 0.71602 0.96206 0.0
O555 O 0.90098 0.76702 1.01285 0.0
O556 O 0.93756 0.7517 0.04615 0.0
O557 O 0.90255 0.71155 0.03874 0.0
O558 O 0.87749 0.76441 0.97108 0.0
O559 O 0.88158 0.68728 0.99919 0.0
C560 C 0.86233 0.74475 0.08127 0.0
C561 C 0.90651 0.84986 0.12474 0.0
C562 C 0.9057 0.8772 0.17419 0.0
C563 C 0.89075 0.85903 0.15153 0.0
C564 C 0.93656 0.88625 0.16933 0.0
C565 C 0.93723 0.85923 0.12048 0.0
C566 C 0.95209 0.87739 0.14265 0.0
C567 C 0.8436 0.80654 1.01676 0.0
C568 C 0.89111 0.82924 0.10234 0.0
C569 C 0.03155 0.81197 0.06889 0.0
C570 C 0.02521 0.83343 0.04543 0.0
C571 C 0.89942 0.77836 0.98576 0.0
C572 C 0.90636 0.68251 0.95117 0.0
C573 C 0.90861 0.65345 0.93687 0.0
C574 C 0.93564 0.64543 0.92087 0.0
C575 C 0.95989 0.66718 0.91882 0.0
C576 C 0.93099 0.70356 0.94898 0.0
C577 C 0.95748 0.69604 0.93268 0.0
C578 C 0.9309 0.72207 0.0447 0.0
C579 C 0.87893 0.69044 0.96938 0.0
H580 H 0.86712 0.85143 0.15504 0.0
H581 H 0.94864 0.90052 0.18602 0.0
H582 H 0.94978 0.85237 0.10015 0.0
H583 H 0.97582 0.88456 0.1392 0.0
H584 H 0.8898 0.63689 0.93892 0.0
H585 H 0.98077 0.66184 0.90641 0.0
H586 H 0.92975 0.72569 0.96013 0.0
H587 H 0.97633 0.71254 0.93102 0.0
Eu588 Eu 0.49277 0.64755 0.30574 0.0
C589 C 0.58516 0.5511 0.25844 0.0
C590 C 0.62362 0.55118 0.29908 0.0
C591 C 0.6132 0.50419 0.27044 0.0
C592 C 0.60091 0.5665 0.28147 0.0
C593 C 0.5918 0.52 0.25198 0.0
C594 C 0.62909 0.51976 0.29398 0.0
C595 C 0.55872 0.52359 0.20717 0.0
N596 N 0.56507 0.5672 0.24076 0.0
C597 C 0.55319 0.55443 0.21435 0.0
C598 C 0.5777 0.50611 0.22639 0.0
Eu599 Eu 0.55576 0.61938 0.25441 0.0
N600 N 0.59482 0.59678 0.28597 0.0
C601 C 0.61241 0.61359 0.30627 0.0
C602 C 0.64058 0.56802 0.32087 0.0
C603 C 0.63526 0.59947 0.32412 0.0
H604 H 0.53886 0.56802 0.19907 0.0
H605 H 0.6486 0.61286 0.34056 0.0
H606 H 0.64609 0.50752 0.30759 0.0
H607 H 0.54853 0.51342 0.1867 0.0
H608 H 0.60878 0.63784 0.3095 0.0
H609 H 0.39796 0.67635 0.22708 0.0
H610 H 0.65817 0.5571 0.33486 0.0
H611 H 0.5102 0.68422 0.37121 0.0
H612 H 0.43421 0.64226 0.25396 0.0
H613 H 0.50508 0.73611 0.39408 0.0
H614 H 0.61831 0.4802 0.2661 0.0
H615 H 0.39701 0.73197 0.23936 0.0
H616 H 0.41496 0.77514 0.27379 0.0
H617 H 0.58222 0.48229 0.22064 0.0
H618 H 0.4441 0.79152 0.3199 0.0
N619 N 0.45545 0.67834 0.27998 0.0
C620 C 0.43456 0.66648 0.25941 0.0
C621 C 0.41335 0.71714 0.25103 0.0
C622 C 0.43268 0.72858 0.27433 0.0
C623 C 0.41372 0.68576 0.24413 0.0
C624 C 0.4535 0.70823 0.28878 0.0
H625 H 0.47717 0.77686 0.3655 0.0
N626 N 0.48693 0.69617 0.32962 0.0
C627 C 0.49524 0.73128 0.37157 0.0
C628 C 0.46972 0.71743 0.31464 0.0
C629 C 0.49807 0.70197 0.35861 0.0
C630 C 0.4796 0.75425 0.35531 0.0
C631 C 0.46583 0.74723 0.32685 0.0
O632 O 0.48148 0.63247 0.35293 0.0
O633 O 0.52997 0.61263 0.2985 0.0
O634 O 0.51393 0.58632 0.24845 0.0
O635 O 0.47388 0.61065 0.27476 0.0
O636 O 0.52759 0.63221 0.34184 0.0
O637 O 0.44822 0.6259 0.31645 0.0
O638 O 0.57386 0.6218 0.20723 0.0
O639 O 0.51628 0.65226 0.25897 0.0
O640 O 0.52873 0.68506 0.30637 0.0
O641 O 0.57071 0.66297 0.28108 0.0
O642 O 0.52346 0.63154 0.21603 0.0
O643 O 0.59568 0.64882 0.24274 0.0
C644 C 0.54114 0.61174 0.32545 0.0
C645 C 0.42891 0.63371 0.36711 0.0
C646 C 0.39763 0.62559 0.41368 0.0
C647 C 0.42205 0.61669 0.39426 0.0
C648 C 0.38066 0.65194 0.40577 0.0
C649 C 0.41183 0.66015 0.3601 0.0
C650 C 0.38788 0.66915 0.37935 0.0
C651 C 0.48454 0.58875 0.25692 0.0
C652 C 0.45358 0.62364 0.34605 0.0
C653 C 0.44706 0.76838 0.31114 0.0
C654 C 0.43049 0.75906 0.28488 0.0
C655 C 0.50641 0.6503 0.23113 0.0
C656 C 0.62802 0.62984 0.20329 0.0
C657 C 0.64987 0.65131 0.19121 0.0
C658 C 0.67952 0.6414 0.18212 0.0
C659 C 0.68653 0.60989 0.18482 0.0
C660 C 0.63601 0.59863 0.20553 0.0
C661 C 0.66496 0.58879 0.19631 0.0
C662 C 0.55788 0.68498 0.29777 0.0
C663 C 0.59722 0.63966 0.2142 0.0
H664 H 0.43521 0.59629 0.39988 0.0
H665 H 0.36195 0.65945 0.42031 0.0
H666 H 0.41686 0.67373 0.33962 0.0
H667 H 0.37476 0.68952 0.37371 0.0
H668 H 0.64409 0.67551 0.1895 0.0
H669 H 0.70884 0.60148 0.17779 0.0
H670 H 0.61985 0.58172 0.21438 0.0
H671 H 0.67075 0.56462 0.19817 0.0
Eu672 Eu 0.22233 0.53187 0.15745 0.0
C673 C 0.26407 0.44821 0.04726 0.0
C674 C 0.22247 0.41095 0.04232 0.0
C675 C 0.25251 0.42548 0.99721 0.0
C676 C 0.24025 0.43158 0.06041 0.0
C677 C 0.27101 0.44484 1.01566 0.0
C678 C 0.22824 0.40857 1.01053 0.0
C679 C 0.31568 0.47766 0.02352 0.0
N680 N 0.2817 0.46626 0.06584 0.0
C681 C 0.30794 0.48005 0.05473 0.0
C682 C 0.29691 0.46027 1.00378 0.0
Eu683 Eu 0.26711 0.47074 0.1184 0.0
N684 N 0.23537 0.4345 0.09119 0.0
C685 C 0.21445 0.41557 0.10566 0.0
C686 C 0.19991 0.39282 0.05684 0.0
C687 C 0.19623 0.39482 0.08873 0.0
H688 H 0.32257 0.49353 0.06992 0.0
H689 H 0.17923 0.38048 0.10033 0.0
H690 H 0.21457 0.39316 0.99622 0.0
H691 H 0.33614 0.48915 1.01474 0.0
H692 H 0.21093 0.41663 0.13016 0.0
H693 H 0.30546 0.61978 0.19469 0.0
H694 H 0.1857 0.37679 0.04377 0.0
H695 H 0.16211 0.50155 0.19579 0.0
H696 H 0.27809 0.58643 0.15744 0.0
H697 H 0.14084 0.50127 0.24863 0.0
H698 H 0.25727 0.42283 0.97282 0.0
H699 H 0.29078 0.61869 0.24986 0.0
H700 H 0.25513 0.59875 0.29117 0.0
H701 H 0.30304 0.45825 0.97964 0.0
H702 H 0.21016 0.56685 0.30577 0.0
N703 N 0.24938 0.56524 0.19135 0.0
C704 C 0.27174 0.58533 0.18149 0.0
C705 C 0.27891 0.6037 0.23365 0.0
C706 C 0.25467 0.5844 0.24327 0.0
C707 C 0.28723 0.60442 0.20253 0.0
C708 C 0.24006 0.56527 0.22125 0.0
H709 H 0.16723 0.53072 0.29002 0.0
N710 N 0.20055 0.53017 0.20741 0.0
C711 C 0.16171 0.51423 0.24359 0.0
C712 C 0.21474 0.54737 0.22949 0.0
C713 C 0.17379 0.51445 0.2137 0.0
C714 C 0.1767 0.53084 0.2669 0.0
C715 C 0.20335 0.548 0.25993 0.0
O716 O 0.17581 0.54535 0.14381 0.0
O717 O 0.22442 0.49791 0.11907 0.0
O718 O 0.26631 0.51352 0.08648 0.0
O719 O 0.25158 0.55313 0.11997 0.0
O720 O 0.18316 0.49964 0.14214 0.0
O721 O 0.21213 0.57983 0.14498 0.0
O722 O 0.31281 0.44967 0.11846 0.0
O723 O 0.26824 0.50769 0.15443 0.0
O724 O 0.2307 0.49461 0.19264 0.0
O725 O 0.23769 0.45329 0.15937 0.0
O726 O 0.30748 0.50206 0.12771 0.0
O727 O 0.27742 0.43104 0.14801 0.0
C728 C 0.19731 0.48751 0.11917 0.0
C729 C 0.16045 0.59627 0.15316 0.0
C730 C 0.11169 0.6241 0.14814 0.0
C731 C 0.13452 0.60503 0.13546 0.0
C732 C 0.11556 0.63458 0.17864 0.0
C733 C 0.16371 0.60708 0.18347 0.0
C734 C 0.14142 0.62623 0.19603 0.0
C735 C 0.26217 0.54311 0.09334 0.0
C736 C 0.18279 0.57441 0.1403 0.0
C737 C 0.21846 0.56619 0.28221 0.0
C738 C 0.24408 0.58434 0.2739 0.0
C739 C 0.29556 0.51767 0.14977 0.0
C740 C 0.31287 0.39576 0.12806 0.0
C741 C 0.3274 0.3754 0.14895 0.0
C742 C 0.33324 0.34458 0.14045 0.0
C743 C 0.32454 0.33473 0.1107 0.0
C744 C 0.30456 0.38525 0.09857 0.0
C745 C 0.31039 0.35494 0.08999 0.0
C746 C 0.23148 0.46476 0.18707 0.0
C747 C 0.30513 0.42745 0.13741 0.0
H748 H 0.13176 0.59639 0.11214 0.0
H749 H 0.0987 0.64955 0.18897 0.0
H750 H 0.18332 0.6005 0.19749 0.0
H751 H 0.1441 0.63453 0.21944 0.0
H752 H 0.3336 0.38337 0.17187 0.0
H753 H 0.3291 0.31144 0.1032 0.0
H754 H 0.29349 0.40044 0.08218 0.0
H755 H 0.30391 0.34707 0.06715 0.0
Eu756 Eu 0.78673 0.06661 0.90111 0.0
C757 C 0.69462 0.02542 0.8157 0.0
C758 C 0.6519 0.06056 0.82055 0.0
C759 C 0.66612 0.04199 0.76991 0.0
C760 C 0.67596 0.04327 0.83415 0.0
C761 C 0.68938 0.02415 0.78342 0.0
C762 C 0.6475 0.06025 0.78842 0.0
C763 C 0.72909 0.98605 0.78002 0.0
N764 N 0.7174 1.00877 0.82919 0.0
C765 C 0.73329 0.98786 0.81197 0.0
C766 C 0.70742 1.00467 0.76558 0.0
Eu767 Eu 0.72364 1.01347 0.88378 0.0
N768 N 0.68077 0.04329 0.86527 0.0
C769 C 0.65987 0.0576 0.88396 0.0
C770 C 0.63248 0.07732 0.83962 0.0
C771 C 0.63616 0.07536 0.87147 0.0
H772 H 0.74882 0.97166 0.8225 0.0
H773 H 0.6203 0.08704 0.88655 0.0
H774 H 0.6294 0.07366 0.7777 0.0
H775 H 0.74225 0.96984 0.76664 0.0
H776 H 0.66012 0.05505 0.90866 0.0
H777 H 0.86613 0.97566 0.93554 0.0
H778 H 0.6139 0.09091 0.83005 0.0
H779 H 0.77828 0.13527 0.93483 0.0
H780 H 0.83399 1.00608 0.89968 0.0
H781 H 0.78739 0.15956 0.98578 0.0
H782 H 0.66212 0.04157 0.74518 0.0
H783 H 0.87115 0.9916 0.99019 0.0
H784 H 0.85997 0.03077 0.03119 0.0
H785 H 0.7041 1.00311 0.7408 0.0
H786 H 0.83825 0.08103 0.04501 0.0
N787 N 0.81965 0.03756 0.9337 0.0
C788 C 0.83572 1.01285 0.92341 0.0
C789 C 0.85677 1.00475 0.97453 0.0
C790 C 0.84194 0.03144 0.9844 0.0
C791 C 0.85407 0.99573 0.9437 0.0
C792 C 0.82342 0.04765 0.96308 0.0
H793 H 0.81166 0.12958 0.02802 0.0
N794 N 0.79553 0.0917 0.94891 0.0
C795 C 0.79387 0.13584 0.98204 0.0
C796 C 0.811 0.0757 0.97094 0.0
C797 C 0.78878 0.12209 0.95329 0.0
C798 C 0.80747 0.11881 1.00585 0.0
C799 C 0.81703 0.08863 1.0002 0.0
O800 O 0.80313 0.11119 0.88313 0.0
O801 O 0.74892 0.05549 0.86755 0.0
O802 O 0.76989 0.99499 0.86575 0.0
O803 O 0.79718 0.04023 0.85779 0.0
O804 O 0.75161 0.10067 0.883 0.0
O805 O 0.83373 0.07243 0.88388 0.0
O806 O 0.72195 0.96339 0.87772 0.0
O807 O 0.76866 0.01786 0.90903 0.0
O808 O 0.7495 0.07759 0.93531 0.0
O809 O 0.70839 0.04414 0.92373 0.0
O810 O 0.73117 1.00294 0.9343 0.0
O811 O 0.68184 0.98702 0.89613 0.0
C812 C 0.73765 0.08208 0.8642 0.0
C813 C 0.85604 0.12223 0.89024 0.0
C814 C 0.88843 0.16839 0.88377 0.0
C815 C 0.86414 0.14907 0.87356 0.0
C816 C 0.90427 0.1606 0.91108 0.0
C817 C 0.87193 0.11512 0.91764 0.0
C818 C 0.8959 0.13426 0.92794 0.0
C819 C 0.79301 1.01062 0.85286 0.0
C820 C 0.8311 0.1019 0.87868 0.0
C821 C 0.83374 0.07168 0.02224 0.0
C822 C 0.84614 0.04308 1.01436 0.0
C823 C 0.76081 1.00604 0.93489 0.0
C824 C 0.67745 0.93094 0.89066 0.0
C825 C 0.6478 0.92861 0.90394 0.0
C826 C 0.63205 0.9 0.90487 0.0
C827 C 0.64635 0.87377 0.89289 0.0
C828 C 0.6913 0.90424 0.87913 0.0
C829 C 0.67584 0.87589 0.88032 0.0
C830 C 0.72118 0.06706 0.93967 0.0
C831 C 0.69398 0.96091 0.88827 0.0
H832 H 0.85189 0.15462 0.85239 0.0
H833 H 0.92285 0.17516 0.91963 0.0
H834 H 0.86593 0.09474 0.931 0.0
H835 H 0.90809 0.12862 0.94908 0.0
H836 H 0.63678 0.94896 0.91296 0.0
H837 H 0.63472 0.85152 0.89346 0.0
H838 H 0.71406 0.90527 0.86896 0.0
H839 H 0.68669 0.85549 0.87129 0.0
Eu840 Eu 0.75795 0.97846 0.39997 0.0
C841 C 0.86005 1.0047 0.32122 0.0
C842 C 0.90929 0.98617 0.33972 0.0
C843 C 0.8969 0.98318 0.2851 0.0
C844 C 0.88005 0.99897 0.34546 0.0
C845 C 0.86863 0.99747 0.29064 0.0
C846 C 0.91717 0.97746 0.30962 0.0
C847 C 0.82159 0.02069 0.27281 0.0
N848 N 0.83273 0.01835 0.32729 0.0
C849 C 0.81415 0.02747 0.30339 0.0
C850 C 0.84875 1.00524 0.26641 0.0
Eu851 Eu 0.82191 0.02962 0.38001 0.0
N852 N 0.87194 1.00793 0.37427 0.0
C853 C 0.89387 1.009 0.39716 0.0
C854 C 0.93034 0.98384 0.36414 0.0
C855 C 0.92285 0.99603 0.39282 0.0
H856 H 0.79387 0.04074 0.30725 0.0
H857 H 0.93956 0.99592 0.41146 0.0
H858 H 0.9393 0.96721 0.30491 0.0
H859 H 0.80648 0.02774 0.25416 0.0
H860 H 0.88893 0.01967 0.41907 0.0
H861 H 0.67847 0.07059 0.42877 0.0
H862 H 0.95296 0.97413 0.36067 0.0
H863 H 0.76605 0.91119 0.43686 0.0
H864 H 0.71081 0.03887 0.39489 0.0
H865 H 0.75652 0.88858 0.48873 0.0
H866 H 0.90357 0.97702 0.26186 0.0
H867 H 0.67304 0.05662 0.48405 0.0
H868 H 0.6839 0.01891 0.52707 0.0
H869 H 0.85449 1.00006 0.24267 0.0
H870 H 0.70547 0.96915 0.54357 0.0
N871 N 0.72487 1.00863 0.43064 0.0
C872 C 0.70892 0.03297 0.41891 0.0
C873 C 0.68755 0.04293 0.46927 0.0
C874 C 0.70232 0.01664 0.48067 0.0
C875 C 0.69046 0.05082 0.43808 0.0
C876 C 0.72101 0.9997 0.46046 0.0
H877 H 0.73206 0.91998 0.52922 0.0
N878 N 0.74898 0.95524 0.44881 0.0
C879 C 0.75022 0.9122 0.48386 0.0
C880 C 0.73344 0.97201 0.46987 0.0
C881 C 0.7556 0.92501 0.45462 0.0
C882 C 0.73652 0.93004 0.50668 0.0
C883 C 0.72713 0.96006 0.49957 0.0
O884 O 0.74275 0.9335 0.38228 0.0
O885 O 0.79638 0.98707 0.3665 0.0
O886 O 0.77685 0.0486 0.35904 0.0
O887 O 0.74599 1.00459 0.35661 0.0
O888 O 0.79324 0.94315 0.38575 0.0
O889 O 0.71073 0.97093 0.38339 0.0
O890 O 0.82896 0.07378 0.35609 0.0
O891 O 0.77654 0.02733 0.40446 0.0
O892 O 0.79396 0.97129 0.437 0.0
O893 O 0.83819 0.9956 0.41738 0.0
O894 O 0.81395 0.04321 0.42947 0.0
O895 O 0.85058 0.06613 0.40022 0.0
C896 C 0.80803 0.96046 0.36634 0.0
C897 C 0.69073 0.92041 0.391 0.0
C898 C 0.65787 0.87426 0.38622 0.0
C899 C 0.67979 0.89509 0.37359 0.0
C900 C 0.64792 0.87892 0.4168 0.0
C901 C 0.67959 0.92488 0.42098 0.0
C902 C 0.65855 0.90408 0.43385 0.0
C903 C 0.75229 0.03322 0.34854 0.0
C904 C 0.7143 0.94163 0.37821 0.0
C905 C 0.71021 0.97773 0.5205 0.0
C906 C 0.69788 1.00604 0.51108 0.0
C907 C 0.78434 0.04028 0.42969 0.0
C908 C 0.88008 0.09355 0.36338 0.0
C909 C 0.90394 0.10293 0.3837 0.0
C910 C 0.93363 0.11024 0.37242 0.0
C911 C 0.93887 0.10875 0.34042 0.0
C912 C 0.88612 0.09221 0.33153 0.0
C913 C 0.91527 0.0999 0.32022 0.0
C914 C 0.82381 0.97761 0.43775 0.0
C915 C 0.8497 0.08352 0.37573 0.0
H916 H 0.68803 0.89196 0.35024 0.0
H917 H 0.63195 0.86297 0.42778 0.0
H918 H 0.68722 0.94438 0.43454 0.0
H919 H 0.65046 0.90746 0.4572 0.0
H920 H 0.89965 0.10362 0.40834 0.0
H921 H 0.96123 0.11467 0.33092 0.0
H922 H 0.86846 0.08491 0.31529 0.0
H923 H 0.91967 0.09879 0.29566 0.0
Eu924 Eu 0.30551 0.49038 0.65695 0.0
C925 C 0.25354 0.57741 0.55453 0.0
C926 C 0.29496 0.61496 0.54961 0.0
C927 C 0.26248 0.60324 0.50526 0.0
C928 C 0.27801 0.59337 0.56744 0.0
C929 C 0.24503 0.58264 0.52346 0.0
C930 C 0.28742 0.61939 0.51833 0.0
C931 C 0.20106 0.54892 0.53147 0.0
N932 N 0.23722 0.55774 0.57276 0.0
C933 C 0.21037 0.5447 0.56216 0.0
C934 C 0.21873 0.56763 0.51186 0.0
Eu935 Eu 0.25418 0.55099 0.62456 0.0
N936 N 0.28502 0.58805 0.59755 0.0
C937 C 0.30747 0.60528 0.61184 0.0
C938 C 0.31882 0.63164 0.56383 0.0
C939 C 0.32483 0.62704 0.59519 0.0
H940 H 0.19635 0.53062 0.57742 0.0
H941 H 0.34298 0.64009 0.60655 0.0
H942 H 0.30043 0.63557 0.50418 0.0
H943 H 0.18017 0.53791 0.52302 0.0
H944 H 0.31276 0.60195 0.63595 0.0
H945 H 0.23449 0.39616 0.70299 0.0
H946 H 0.33244 0.64835 0.55094 0.0
H947 H 0.36693 0.52603 0.6886 0.0
H948 H 0.25439 0.4318 0.66309 0.0
H949 H 0.39475 0.52737 0.73852 0.0
H950 H 0.25651 0.60731 0.48126 0.0
H951 H 0.25636 0.39747 0.75587 0.0
H952 H 0.29573 0.41936 0.79268 0.0
H953 H 0.2114 0.57103 0.48814 0.0
H954 H 0.33961 0.45457 0.80217 0.0
N955 N 0.28559 0.45472 0.69348 0.0
C956 C 0.26358 0.43321 0.68623 0.0
C957 C 0.26484 0.41354 0.73854 0.0
C958 C 0.28876 0.4344 0.74533 0.0
C959 C 0.25245 0.41273 0.70873 0.0
C960 C 0.29888 0.45488 0.72195 0.0
H961 H 0.37682 0.4947 0.78207 0.0
N962 N 0.33329 0.49344 0.70402 0.0
C963 C 0.37475 0.51249 0.7357 0.0
C964 C 0.3237 0.47455 0.72729 0.0
C965 C 0.35899 0.51165 0.70745 0.0
C966 C 0.36453 0.49403 0.76023 0.0
C967 C 0.33891 0.47452 0.75614 0.0
O968 O 0.35155 0.47864 0.64071 0.0
O969 O 0.29728 0.52473 0.61924 0.0
O970 O 0.24841 0.50733 0.59422 0.0
O971 O 0.2721 0.46832 0.62362 0.0
O972 O 0.34132 0.52389 0.63654 0.0
O973 O 0.31545 0.44374 0.64094 0.0
O974 O 0.20758 0.56928 0.62878 0.0
O975 O 0.25867 0.51268 0.65893 0.0
O976 O 0.29764 0.52443 0.69489 0.0
O977 O 0.28278 0.56787 0.6669 0.0
O978 O 0.21501 0.52061 0.64027 0.0
O979 O 0.2462 0.59469 0.64795 0.0
C980 C 0.32397 0.53554 0.61537 0.0
C981 C 0.36738 0.42713 0.64676 0.0
C982 C 0.41466 0.39803 0.6382 0.0
C983 C 0.39311 0.42015 0.62829 0.0
C984 C 0.4104 0.3835 0.66701 0.0
C985 C 0.36386 0.41252 0.67555 0.0
C986 C 0.38532 0.39088 0.68559 0.0
C987 C 0.25527 0.47782 0.59994 0.0
C988 C 0.3446 0.44978 0.63581 0.0
C989 C 0.32833 0.45482 0.77978 0.0
C990 C 0.3033 0.43481 0.77439 0.0
C991 C 0.23054 0.50355 0.65905 0.0
C992 C 0.19849 0.59996 0.67292 0.0
C993 C 0.18842 0.63019 0.67833 0.0
C994 C 0.17227 0.63731 0.70556 0.0
C995 C 0.16617 0.61354 0.72706 0.0
C996 C 0.1923 0.57679 0.69478 0.0
C997 C 0.1761 0.58354 0.72163 0.0
C998 C 0.29307 0.55437 0.69261 0.0
C999 C 0.21634 0.59313 0.64497 0.0
H1000 H 0.39595 0.43135 0.60601 0.0
H1001 H 0.42662 0.36645 0.67521 0.0
H1002 H 0.34447 0.41772 0.6902 0.0
H1003 H 0.38241 0.37964 0.70779 0.0
H1004 H 0.19366 0.64821 0.66163 0.0
H1005 H 0.15338 0.61806 0.74795 0.0
H1006 H 0.20008 0.55355 0.69111 0.0
H1007 H 0.17126 0.56544 0.73832 0.0
H1008 H 0.12657 0.33023 0.56968 0.0
H1009 H 0.19544 0.47281 0.57925 0.0
H1010 H 0.20667 0.30207 0.5192 0.0
H1011 H 0.28142 0.42406 0.58239 0.0
H1012 H 0.16927 0.42487 0.56358 0.0
H1013 H 0.15383 0.37707 0.58554 0.0
C1014 C 0.15033 0.33354 0.5627 0.0
C1015 C 0.16444 0.31215 0.54329 0.0
C1016 C 0.19392 0.42471 0.56754 0.0
C1017 C 0.19527 0.36685 0.55975 0.0
C1018 C 0.20894 0.4523 0.57572 0.0
C1019 C 0.24061 0.45245 0.58212 0.0
C1020 C 0.21076 0.39714 0.56553 0.0
C1021 C 0.25688 0.42488 0.57777 0.0
C1022 C 0.16561 0.36067 0.57112 0.0
C1023 C 0.19514 0.31777 0.53458 0.0
N1024 N 0.24182 0.39833 0.56984 0.0
N1025 N 0.20955 0.34478 0.54271 0.0
H1026 H 0.8176 0.95407 0.86755 0.0
H1027 H 0.96321 0.97167 0.759 0.0
H1028 H 0.82951 0.03245 0.80682 0.0
H1029 H 0.97118 0.9323 0.85042 0.0
H1030 H 0.91143 0.98886 0.77144 0.0
H1031 H 0.86999 0.93749 0.85477 0.0
C1032 C 0.83076 0.96721 0.85078 0.0
C1033 C 0.81926 0.9948 0.83839 0.0
C1034 C 0.92456 0.97656 0.78883 0.0
C1035 C 0.87902 0.97619 0.82397 0.0
C1036 C 0.95424 0.96697 0.78189 0.0
C1037 C 0.97132 0.94971 0.80339 0.0
C1038 C 0.91149 0.96842 0.8173 0.0
C1039 C 0.95856 0.94467 0.83279 0.0
C1040 C 0.86085 0.95808 0.84401 0.0
C1041 C 0.83755 1.01111 0.81701 0.0
N1042 N 0.92906 0.95336 0.83869 0.0
N1043 N 0.86652 1.00162 0.81054 0.0
H1044 H 0.33526 0.71907 0.08897 0.0
H1045 H 0.2263 0.58213 0.06047 0.0
H1046 H 0.30766 0.71148 0.9936 0.0
H1047 H 0.32086 0.56215 0.0824 0.0
H1048 H 0.24215 0.63432 0.04362 0.0
H1049 H 0.31456 0.66669 0.09843 0.0
C1050 C 0.32379 0.70683 0.07037 0.0
C1051 C 0.32287 0.7195 0.04057 0.0
C1052 C 0.25942 0.61818 0.05146 0.0
C1053 C 0.2994 0.66019 0.05111 0.0
C1054 C 0.25056 0.58836 0.06051 0.0
C1055 C 0.27248 0.56778 0.0723 0.0
C1056 C 0.29013 0.62764 0.0555 0.0
C1057 C 0.30342 0.57731 0.07317 0.0
C1058 C 0.31241 0.67696 0.07566 0.0
C1059 C 0.30821 0.70258 1.01702 0.0
N1060 N 0.3113 0.60689 0.06564 0.0
N1061 N 0.29698 0.67366 0.02275 0.0
H1062 H 0.56604 0.08669 0.33723 0.0
H1063 H 0.72473 0.08793 0.362 0.0
H1064 H 0.59282 0.08152 0.24169 0.0
H1065 H 0.72173 1.01208 0.29808 0.0
H1066 H 0.67234 0.10191 0.34585 0.0
H1067 H 0.61897 0.07288 0.35247 0.0
C1068 C 0.58275 0.08148 0.31954 0.0
C1069 C 0.57527 0.08505 0.28823 0.0
C1070 C 0.68351 0.08255 0.33505 0.0
C1071 C 0.63528 0.0699 0.30526 0.0
C1072 C 0.71361 0.07503 0.34368 0.0
C1073 C 0.72747 0.04878 0.33139 0.0
C1074 C 0.66778 0.06423 0.31331 0.0
C1075 C 0.71173 0.03249 0.30808 0.0
C1076 C 0.61294 0.07428 0.32819 0.0
C1077 C 0.59781 0.07867 0.26608 0.0
N1078 N 0.68264 0.04046 0.29975 0.0
N1079 N 0.62689 0.0713 0.275 0.0
H1080 H 0.71842 0.22804 0.44794 0.0
H1081 H 0.76831 0.05381 0.48924 0.0
H1082 H 0.71687 0.18959 0.53994 0.0
H1083 H 0.7672 0.09099 0.39688 0.0
H1084 H 0.74989 0.1036 0.50848 0.0
H1085 H 0.73896 0.179 0.42886 0.0
C1086 C 0.72339 0.20969 0.46424 0.0
C1087 C 0.7163 0.21304 0.49561 0.0
C1088 C 0.75323 0.10074 0.4839 0.0
C1089 C 0.7387 0.1565 0.47393 0.0
C1090 C 0.76343 0.0722 0.47295 0.0
C1091 C 0.76807 0.06781 0.44128 0.0
C1092 C 0.74839 0.12536 0.46306 0.0
C1093 C 0.76249 0.0928 0.42124 0.0
C1094 C 0.73459 0.18148 0.45332 0.0
C1095 C 0.72221 0.18806 0.51558 0.0
N1096 N 0.75303 0.1204 0.43241 0.0
N1097 N 0.73284 0.16093 0.50444 0.0
H1098 H 0.07944 0.46577 0.77949 0.0
H1099 H 0.20042 0.45229 0.64091 0.0
H1100 H 0.06873 0.40293 0.70361 0.0
H1101 H 0.21782 0.50831 0.72091 0.0
H1102 H 0.15318 0.43275 0.66453 0.0
H1103 H 0.12842 0.48419 0.75731 0.0
C1104 C 0.08675 0.4568 0.75742 0.0
C1105 C 0.06949 0.43332 0.74295 0.0
C1106 C 0.16753 0.4488 0.67739 0.0
C1107 C 0.12659 0.45284 0.71836 0.0
C1108 C 0.195 0.45943 0.66415 0.0
C1109 C 0.21357 0.48156 0.6791 0.0
C1110 C 0.15785 0.46085 0.70573 0.0
C1111 C 0.20464 0.49076 0.70879 0.0
C1112 C 0.11511 0.46676 0.74516 0.0
C1113 C 0.08092 0.4214 0.71526 0.0
N1114 N 0.17716 0.48084 0.7209 0.0
N1115 N 0.10867 0.43115 0.70397 0.0
H1116 H 0.77659 0.994 0.99525 0.0
H1117 H 0.81537 0.81638 0.96047 0.0
H1118 H 0.77781 0.95438 0.90437 0.0
H1119 H 0.83303 0.85901 0.04858 0.0
H1120 H 0.79611 0.86586 0.94084 0.0
H1121 H 0.79419 0.94432 1.01659 0.0
C1122 C 0.78131 0.97514 0.97973 0.0
C1123 C 0.77687 0.97878 0.94782 0.0
C1124 C 0.80382 0.86428 0.96462 0.0
C1125 C 0.79542 0.92152 0.97198 0.0
C1126 C 0.8143 0.83585 0.97594 0.0
C1127 C 0.82546 0.83346 1.00627 0.0
C1128 C 0.80439 0.89046 0.98384 0.0
C1129 C 0.82447 0.85983 0.02504 0.0
C1130 C 0.79105 0.94673 0.99187 0.0
C1131 C 0.78224 0.95323 0.92882 0.0
N1132 N 0.81426 0.88717 1.01356 0.0
N1133 N 0.79105 0.9258 0.94113 0.0
H1134 H 0.47657 0.57448 0.1959 0.0
H1135 H 0.30356 0.51043 0.21291 0.0
H1136 H 0.43524 0.56235 0.28554 0.0
H1137 H 0.33814 0.55951 0.13332 0.0
H1138 H 0.35171 0.52385 0.24081 0.0
H1139 H 0.42734 0.55933 0.17195 0.0
C1140 C 0.45753 0.56739 0.21052 0.0
C1141 C 0.46003 0.56948 0.24269 0.0
C1142 C 0.34838 0.53213 0.2174 0.0
C1143 C 0.40335 0.55306 0.21562 0.0
C1144 C 0.3207 0.525 0.20175 0.0
C1145 C 0.31681 0.53417 0.17085 0.0
C1146 C 0.37228 0.54784 0.20165 0.0
C1147 C 0.34016 0.55216 0.15713 0.0
C1148 C 0.42921 0.55941 0.19691 0.0
C1149 C 0.43425 0.56086 0.26059 0.0
N1150 N 0.36697 0.55798 0.17235 0.0
N1151 N 0.40694 0.55322 0.24686 0.0
H1152 H 0.57386 0.14277 0.33118 0.0
H1153 H 0.57506 0.26547 0.46879 0.0
H1154 H 0.50957 0.21726 0.335 0.0
H1155 H 0.65368 0.21078 0.44542 0.0
H1156 H 0.54677 0.2428 0.42469 0.0
H1157 H 0.60145 0.16427 0.37551 0.0
C1158 C 0.56628 0.16436 0.34061 0.0
C1159 C 0.5402 0.17891 0.32838 0.0
C1160 C 0.56999 0.23528 0.42967 0.0
C1161 C 0.57026 0.20267 0.38104 0.0
C1162 C 0.58582 0.24764 0.45527 0.0
C1163 C 0.61645 0.23934 0.46121 0.0
C1164 C 0.58495 0.21446 0.41003 0.0
C1165 C 0.62985 0.21723 0.44205 0.0
C1166 C 0.58173 0.17641 0.36632 0.0
C1167 C 0.53043 0.20608 0.34275 0.0
N1168 N 0.61412 0.20564 0.41739 0.0
N1169 N 0.54524 0.21693 0.36847 0.0
H1170 H 0.07076 0.3165 0.55837 0.0
H1171 H 0.07933 0.35026 0.7128 0.0
H1172 H 0.05924 0.2239 0.59346 0.0
H1173 H 0.99125 0.30357 0.71586 0.0
H1174 H 0.08904 0.3268 0.66231 0.0
H1175 H 0.05523 0.33647 0.60893 0.0
C1176 C 0.06347 0.30044 0.57622 0.0
C1177 C 0.06583 0.2686 0.57185 0.0
C1178 C 0.06794 0.32117 0.67451 0.0
C1179 C 0.04904 0.29103 0.62936 0.0
C1180 C 0.06265 0.33405 0.70339 0.0
C1181 C 0.03469 0.32844 0.71847 0.0
C1182 C 0.04523 0.30225 0.66105 0.0
C1183 C 1.01345 0.30771 0.70519 0.0
C1184 C 0.05526 0.31179 0.60511 0.0
C1185 C 0.0572 0.24863 0.59603 0.0
N1186 N 0.0191 0.29528 0.67701 0.0
N1187 N 0.04929 0.26017 0.62399 0.0
H1188 H 0.98074 0.8832 0.83696 0.0
H1189 H 0.96191 0.76815 0.98054 0.0
H1190 H 0.02705 0.79618 0.83943 0.0
H1191 H 0.88872 0.82651 0.9482 0.0
H1192 H 0.99375 0.78574 0.93648 0.0
H1193 H 0.95321 0.8692 0.884 0.0
C1194 C 0.98458 0.86083 0.84695 0.0
C1195 C 1.00522 0.84046 0.83323 0.0
C1196 C 0.97095 0.79513 0.93951 0.0
C1197 C 0.97525 0.82475 0.88884 0.0
C1198 C 0.95303 0.78554 0.9649 0.0
C1199 C 0.92273 0.79609 0.96804 0.0
C1200 C 0.95863 0.81591 0.91772 0.0
C1201 C 0.91207 0.81806 0.94673 0.0
C1202 C 0.96916 0.85295 0.87415 0.0
C1203 C 1.01048 0.81223 0.84851 0.0
N1204 N 0.92991 0.82721 0.92255 0.0
N1205 N 0.99569 0.8052 0.87553 0.0
H1206 H 0.4567 0.63225 0.19902 0.0
H1207 H 0.46617 0.7736 0.08011 0.0
H1208 H 0.51315 0.71221 0.21788 0.0
H1209 H 0.38875 0.71104 0.0854 0.0
H1210 H 0.48912 0.74767 0.12552 0.0
H1211 H 0.43462 0.65852 0.15441 0.0
C1212 C 0.46354 0.65592 0.19444 0.0
C1213 C 0.48577 0.67051 0.21312 0.0
C1214 C 0.46742 0.73921 0.11623 0.0
C1215 C 0.46233 0.70016 0.16015 0.0
C1216 C 0.45475 0.75344 0.08982 0.0
C1217 C 0.42601 0.74367 0.07813 0.0
C1218 C 0.45117 0.71505 0.13098 0.0
C1219 C 0.41129 0.71873 0.09297 0.0
C1220 C 0.45131 0.67076 0.16858 0.0
C1221 C 0.49501 0.70066 0.20499 0.0
N1222 N 0.42398 0.70529 0.11838 0.0
N1223 N 0.48354 0.71439 0.17886 0.0
H1224 H 0.16936 0.38869 0.3624 0.0
H1225 H 0.21711 0.40283 0.18392 0.0
H1226 H 0.14249 0.32279 0.29279 0.0
H1227 H 0.22572 0.47781 0.24872 0.0
H1228 H 0.19783 0.36966 0.22558 0.0
H1229 H 0.19828 0.4179 0.32306 0.0
C1230 C 0.16999 0.38012 0.33896 0.0
C1231 C 0.1533 0.35346 0.33076 0.0
C1232 C 0.20404 0.39336 0.23068 0.0
C1233 C 0.18613 0.38671 0.28567 0.0
C1234 C 0.2151 0.41235 0.20687 0.0
C1235 C 0.22246 0.44343 0.21256 0.0
C1236 C 0.20055 0.40539 0.26054 0.0
C1237 C 0.21974 0.45421 0.24301 0.0
C1238 C 0.18629 0.39688 0.31648 0.0
C1239 C 0.15471 0.34347 0.29999 0.0
N1240 N 0.20885 0.43531 0.26577 0.0
N1241 N 0.17068 0.36014 0.27857 0.0
H1242 H 0.94737 0.92809 0.59079 0.0
H1243 H 0.81641 0.9205 0.46267 0.0
H1244 H 0.8605 0.87991 0.6029 0.0
H1245 H 0.87237 1.00274 0.47111 0.0
H1246 H 0.83972 0.90008 0.50959 0.0
H1247 H 0.9266 0.95211 0.54354 0.0
C1248 C 0.92395 0.92267 0.58378 0.0
C1249 C 0.90593 0.90137 0.60076 0.0
C1250 C 0.84694 0.92264 0.50127 0.0
C1251 C 0.88251 0.92821 0.54641 0.0
C1252 C 0.8334 0.93442 0.47459 0.0
C1253 C 0.84165 0.96376 0.46349 0.0
C1254 C 0.86951 0.94 0.51689 0.0
C1255 C 0.86527 0.98002 0.47895 0.0
C1256 C 0.91223 0.9363 0.55673 0.0
C1257 C 0.87577 0.89527 0.59025 0.0
N1258 N 0.87838 0.96796 0.50505 0.0
N1259 N 0.86523 0.90829 0.56372 0.0
H1260 H 0.304 0.6176 0.69768 0.0
H1261 H 0.37054 0.59994 0.86971 0.0
H1262 H 0.3003 0.53374 0.75176 0.0
H1263 H 0.35773 0.68931 0.82798 0.0
H1264 H 0.34406 0.57612 0.82591 0.0
H1265 H 0.32245 0.64541 0.74397 0.0
C1266 C 0.3068 0.60507 0.7192 0.0
C1267 C 0.30111 0.57307 0.7205 0.0
C1268 C 0.34662 0.60099 0.82629 0.0
C1269 C 0.32235 0.60466 0.77344 0.0
C1270 C 0.36171 0.61458 0.85141 0.0
C1271 C 0.36618 0.64662 0.85257 0.0
C1272 C 0.33623 0.61942 0.80157 0.0
C1273 C 0.35447 0.66452 0.82808 0.0
C1274 C 0.31739 0.62094 0.74561 0.0
C1275 C 0.30504 0.55817 0.74918 0.0
N1276 N 0.34032 0.65066 0.80337 0.0
N1277 N 0.3156 0.57393 0.77418 0.0
H1278 H 0.59974 0.11498 0.09298 0.0
H1279 H 0.72703 0.12548 0.96148 0.0
H1280 H 0.67947 0.17549 0.0963 0.0
H1281 H 0.6746 0.04155 0.97551 0.0
H1282 H 0.70355 0.14731 1.00708 0.0
H1283 H 0.6216 0.08986 0.0474 0.0
C1284 C 0.62188 0.12288 0.0844 0.0
C1285 C 0.63752 0.14781 0.09846 0.0
C1286 C 0.69719 0.12405 1.00037 0.0
C1287 C 0.66216 0.11956 0.04591 0.0
C1288 C 0.71082 0.11145 0.97438 0.0
C1289 C 0.70365 0.08124 0.96519 0.0
C1290 C 0.67562 0.10662 1.01729 0.0
C1291 C 0.68104 0.06485 0.98195 0.0
C1292 C 0.63421 0.1086 0.05827 0.0
C1293 C 0.66601 0.15707 0.08594 0.0
N1294 N 0.66785 0.07771 1.00735 0.0
N1295 N 0.67719 0.14317 0.06038 0.0
H1296 H 0.65952 0.19025 0.71256 0.0
H1297 H 0.75383 0.06306 0.80661 0.0
H1298 H 0.67635 0.0993 0.6772 0.0
H1299 H 0.69792 0.12961 0.8533 0.0
H1300 H 0.7349 0.08253 0.75687 0.0
H1301 H 0.68245 0.17448 0.76239 0.0
C1302 C 0.6684 0.16713 0.7152 0.0
C1303 C 0.66606 0.14601 0.69082 0.0
C1304 C 0.72674 0.09287 0.77798 0.0
C1305 C 0.69244 0.12801 0.74732 0.0
C1306 C 0.73738 0.08167 0.80636 0.0
C1307 C 0.72639 0.09394 0.83408 0.0
C1308 C 0.70556 0.1171 0.77721 0.0
C1309 C 0.70621 0.11898 0.8324 0.0
C1310 C 0.68124 0.15811 0.74361 0.0
C1311 C 0.67765 0.11623 0.69547 0.0
N1312 N 0.69623 0.12965 0.80441 0.0
N1313 N 0.69045 0.10817 0.72306 0.0
H1314 H 0.21153 0.49794 0.05834 0.0
H1315 H 0.07672 0.38725 0.99577 0.0
H1316 H 0.14407 0.45372 0.11698 0.0
H1317 H 0.13665 0.43928 0.93522 0.0
H1318 H 0.09993 0.41331 0.04016 0.0
H1319 H 0.18378 0.47855 1.01286 0.0
C1320 C 0.19089 0.48404 0.06161 0.0
C1321 C 0.18055 0.47652 0.09143 0.0
C1322 C 0.10787 0.41935 1.0172 0.0
C1323 C 0.14829 0.45485 0.03954 0.0
C1324 C 0.09459 0.40448 0.99185 0.0
C1325 C 0.10484 0.41107 0.96181 0.0
C1326 C 0.13191 0.44084 1.01265 0.0
C1327 C 0.12796 0.43368 0.95801 0.0
C1328 C 0.17493 0.47318 0.03563 0.0
C1329 C 0.15313 0.45942 0.09437 0.0
N1330 N 0.14099 0.44752 0.98317 0.0
N1331 N 0.13816 0.44884 0.06878 0.0
H1332 H 0.85987 0.92548 0.36355 0.0
H1333 H 0.8469 0.8995 0.18009 0.0
H1334 H 0.78681 0.96225 0.3072 0.0
H1335 H 0.92762 0.87695 0.2338 0.0
H1336 H 0.822 0.91768 0.22724 0.0
H1337 H 0.88257 0.9025 0.31717 0.0
C1338 C 0.84871 0.92869 0.34134 0.0
C1339 C 0.82214 0.94658 0.33884 0.0
C1340 C 0.84512 0.90863 0.22873 0.0
C1341 C 0.84725 0.9198 0.28596 0.0
C1342 C 0.85928 0.89808 0.20183 0.0
C1343 C 0.88948 0.8868 0.20289 0.0
C1344 C 0.8611 0.90762 0.25707 0.0
C1345 C 0.90448 0.88583 0.23176 0.0
C1346 C 0.86157 0.91558 0.31491 0.0
C1347 C 0.80794 0.94941 0.3098 0.0
N1348 N 0.89018 0.89609 0.25761 0.0
N1349 N 0.82072 0.9363 0.28447 0.0
H1350 H 0.29942 0.52515 0.55789 0.0
H1351 H 0.43483 0.60896 0.4626 0.0
H1352 H 0.37799 0.56682 0.60315 0.0
H1353 H 0.34103 0.60252 0.42989 0.0
H1354 H 0.4187 0.58443 0.51155 0.0
H1355 H 0.31883 0.54397 0.5081 0.0
C1356 C 0.32077 0.53832 0.55735 0.0
C1357 C 0.33649 0.54549 0.58485 0.0
C1358 C 0.40175 0.5882 0.49352 0.0
C1359 C 0.35951 0.56618 0.52768 0.0
C1360 C 0.41098 0.60196 0.46554 0.0
C1361 C 0.38924 0.60781 0.44215 0.0
C1362 C 0.37068 0.57966 0.49788 0.0
C1363 C 0.35853 0.59855 0.44734 0.0
C1364 C 0.3319 0.54896 0.52889 0.0
C1365 C 0.36475 0.5615 0.58257 0.0
N1366 N 0.35021 0.58491 0.47451 0.0
N1367 N 0.37525 0.57153 0.55453 0.0
H1368 H 0.17667 0.21068 0.41135 0.0
H1369 H 0.356 0.1699 0.40075 0.0
H1370 H 0.24215 0.22817 0.48474 0.0
H1371 H 0.28694 0.13532 0.33742 0.0
H1372 H 0.31603 0.19875 0.42759 0.0
H1373 H 0.21836 0.19056 0.37978 0.0
C1374 C 0.19979 0.21054 0.42078 0.0
C1375 C 0.20574 0.22062 0.45099 0.0
C1376 C 0.30967 0.18502 0.40768 0.0
C1377 C 0.25365 0.19764 0.41492 0.0
C1378 C 0.33249 0.1687 0.39226 0.0
C1379 C 0.32471 0.14999 0.36699 0.0
C1380 C 0.27889 0.18281 0.39759 0.0
C1381 C 0.29384 0.1491 0.3571 0.0
C1382 C 0.2236 0.19893 0.40276 0.0
C1383 C 0.23634 0.2201 0.4618 0.0
N1384 N 0.27206 0.16518 0.37246 0.0
N1385 N 0.25908 0.20861 0.44387 0.0
H1386 H 0.13254 0.06218 0.6099 0.0
H1387 H 0.04715 0.97345 0.74773 0.0
H1388 H 0.12247 0.1022 0.70014 0.0
H1389 H 0.09866 0.92454 0.67906 0.0
H1390 H 0.06641 0.02242 0.72625 0.0
H1391 H 0.11162 1.01304 0.63026 0.0
C1392 C 0.12556 0.06071 0.63386 0.0
C1393 C 0.12924 0.08626 0.65337 0.0
C1394 C 0.07362 1.00098 0.71596 0.0
C1395 C 0.10519 0.03038 0.67671 0.0
C1396 C 0.06285 0.97302 0.72835 0.0
C1397 C 0.07235 0.94484 0.71592 0.0
C1398 C 0.09314 1.00091 0.69016 0.0
C1399 C 0.09144 0.94574 0.68981 0.0
C1400 C 0.11389 0.03266 0.64551 0.0
C1401 C 0.1201 0.08303 0.68435 0.0
N1402 N 0.10124 0.9733 0.67778 0.0
N1403 N 0.10838 0.05572 0.695 0.0
H1404 H 0.21421 0.88297 0.86267 0.0
H1405 H 0.3073 0.79239 0.99284 0.0
H1406 H 0.18724 0.88321 0.95837 0.0
H1407 H 0.3546 0.8371 0.91729 0.0
H1408 H 0.25894 0.81513 0.97524 0.0
H1409 H 0.262 0.85626 0.8774 0.0
C1410 C 0.21827 0.87714 0.88671 0.0
C1411 C 0.19689 0.88535 0.90939 0.0
C1412 C 0.2799 0.81997 0.96251 0.0
C1413 C 0.25093 0.85453 0.92622 0.0
C1414 C 0.30758 0.80718 0.97267 0.0
C1415 C 0.33528 0.81412 0.95738 0.0
C1416 C 0.27968 0.83903 0.93621 0.0
C1417 C 0.33387 0.83202 0.93028 0.0
C1418 C 0.24551 0.8621 0.89508 0.0
C1419 C 0.20324 0.87743 0.94024 0.0
N1420 N 0.30655 0.84408 0.92063 0.0
N1421 N 0.22957 0.86228 0.94773 0.0
H1422 H 0.50245 0.06127 0.22748 0.0
H1423 H 0.38473 0.99464 0.10044 0.0
H1424 H 0.4518 0.11767 0.16317 0.0
H1425 H 0.43984 0.93558 0.15831 0.0
H1426 H 0.41167 0.03961 0.12152 0.0
H1427 H 0.48246 0.01485 0.20139 0.0
C1428 C 0.487 0.06383 0.20793 0.0
C1429 C 0.47783 0.09327 0.19809 0.0
C1430 C 0.41822 0.01688 0.12948 0.0
C1431 C 0.45545 0.04042 0.16768 0.0
C1432 C 0.40286 0.99116 0.11735 0.0
C1433 C 0.41005 0.96132 0.12762 0.0
C1434 C 0.44087 1.01299 0.15244 0.0
C1435 C 0.43376 0.95818 0.14959 0.0
C1436 C 0.4758 0.03736 0.19289 0.0
C1437 C 0.45878 0.09537 0.17195 0.0
N1438 N 0.4481 0.98371 0.16154 0.0
N1439 N 0.44793 0.06937 0.15794 0.0
H1440 H 0.81484 0.39768 0.68491 0.0
H1441 H 0.67776 0.33679 0.62187 0.0
H1442 H 0.85729 0.36623 0.60107 0.0
H1443 H 0.73581 0.29152 0.55615 0.0
H1444 H 0.72338 0.36077 0.64523 0.0
H1445 H 0.7672 0.37101 0.66985 0.0
C1446 C 0.81423 0.38508 0.66338 0.0
C1447 C 0.84024 0.38476 0.64413 0.0
C1448 C 0.72652 0.34533 0.62604 0.0
C1449 C 0.78493 0.35458 0.62591 0.0
C1450 C 0.70025 0.33177 0.61251 0.0
C1451 C 0.70286 0.31284 0.58647 0.0
C1452 C 0.75595 0.33944 0.61387 0.0
C1453 C 0.73263 0.30665 0.57566 0.0
C1454 C 0.78669 0.37012 0.65444 0.0
C1455 C 0.83779 0.36789 0.61645 0.0
N1456 N 0.75786 0.32013 0.58915 0.0
N1457 N 0.8108 0.35371 0.60822 0.0
H1458 H 0.93176 0.48878 0.7962 0.0
H1459 H 0.98422 0.60668 0.92779 0.0
H1460 H 1.00417 0.47005 0.86221 0.0
H1461 H 0.89612 0.61363 0.88201 0.0
H1462 H 0.9927 0.55756 0.90199 0.0
H1463 H 0.91897 0.53539 0.82517 0.0
C1464 C 0.94491 0.49432 0.8168 0.0
C1465 C 0.96919 0.47535 0.82663 0.0
C1466 C 0.97139 0.56964 0.89767 0.0
C1467 C 0.95476 0.5289 0.85976 0.0
C1468 C 0.96659 0.59776 0.91234 0.0
C1469 C 0.93948 0.61435 0.90695 0.0
C1470 C 0.94914 0.558 0.87699 0.0
C1471 C 0.91728 0.60152 0.8869 0.0
C1472 C 0.93751 0.52092 0.83337 0.0
C1473 C 0.98528 0.4838 0.85362 0.0
N1474 N 0.92273 0.57426 0.87237 0.0
N1475 N 0.97795 0.50997 0.869 0.0
H1476 H 0.86048 0.70831 0.13241 0.0
H1477 H 0.67656 0.68402 0.13422 0.0
H1478 H 0.80078 0.75531 0.06833 0.0
H1479 H 0.73885 0.64686 0.20234 0.0
H1480 H 0.72026 0.71232 0.11057 0.0
H1481 H 0.81523 0.68749 0.1591 0.0
C1482 C 0.83775 0.71424 0.12397 0.0
C1483 C 0.83443 0.73272 0.09752 0.0
C1484 C 0.72423 0.6983 0.13095 0.0
C1485 C 0.78207 0.70921 0.12828 0.0
C1486 C 0.69925 0.68233 0.14458 0.0
C1487 C 0.70403 0.66294 0.17027 0.0
C1488 C 0.75417 0.69493 0.14321 0.0
C1489 C 0.73407 0.66132 0.18244 0.0
C1490 C 0.81183 0.70237 0.13923 0.0
C1491 C 0.80436 0.74031 0.08807 0.0
N1492 N 0.75783 0.67682 0.16877 0.0
N1493 N 0.77934 0.72825 0.10319 0.0
H1494 H 0.60582 0.42801 0.37818 0.0
H1495 H 0.57679 0.61101 0.37693 0.0
H1496 H 0.64706 0.4924 0.44208 0.0
H1497 H 0.53596 0.55023 0.30943 0.0
H1498 H 0.59988 0.56657 0.40267 0.0
H1499 H 0.57708 0.47086 0.35435 0.0
C1500 C 0.6084 0.45102 0.38752 0.0
C1501 C 0.62895 0.45665 0.4121 0.0
C1502 C 0.58596 0.56277 0.3822 0.0
C1503 C 0.59641 0.50574 0.38492 0.0
C1504 C 0.57281 0.58821 0.36748 0.0
C1505 C 0.55535 0.58441 0.34044 0.0
C1506 C 0.58125 0.53299 0.37019 0.0
C1507 C 0.55014 0.55424 0.32969 0.0
C1508 C 0.59219 0.4755 0.37379 0.0
C1509 C 0.63168 0.48701 0.42304 0.0
N1510 N 0.56326 0.52968 0.34442 0.0
N1511 N 0.61578 0.51026 0.40938 0.0
H1512 H 0.31816 0.28394 0.15176 0.0
H1513 H 0.47155 0.25034 0.24889 0.0
H1514 H 0.38393 0.35459 0.17779 0.0
H1515 H 0.40453 0.1799 0.22542 0.0
H1516 H 0.4378 0.28927 0.22666 0.0
H1517 H 0.3472 0.24636 0.18211 0.0
C1518 C 0.33867 0.2916 0.16399 0.0
C1519 C 0.34878 0.32248 0.16188 0.0
C1520 C 0.43026 0.26537 0.22659 0.0
C1521 C 0.38227 0.27936 0.19685 0.0
C1522 C 0.44958 0.24303 0.23927 0.0
C1523 C 0.44111 0.21163 0.23868 0.0
C1524 C 0.40206 0.25643 0.21316 0.0
C1525 C 0.41212 0.20375 0.2263 0.0
C1526 C 0.3552 0.27011 0.18142 0.0
C1527 C 0.3752 0.33111 0.17876 0.0
N1528 N 0.3938 0.22594 0.21377 0.0
N1529 N 0.39117 0.30964 0.19524 0.0
H1530 H 0.9117 0.35625 0.81237 0.0
H1531 H 0.85084 0.21371 0.86112 0.0
H1532 H 0.98416 0.30189 0.77351 0.0
H1533 H 0.94626 0.18734 0.86638 0.0
H1534 H 0.86638 0.26114 0.83388 0.0
H1535 H 0.89084 0.3097 0.83767 0.0
C1536 C 0.92337 0.3345 0.80954 0.0
C1537 C 0.95043 0.33301 0.79213 0.0
C1538 C 0.88393 0.24511 0.84124 0.0
C1539 C 0.92615 0.27955 0.81968 0.0
C1540 C 0.87504 0.2179 0.85645 0.0
C1541 C 0.89732 0.19668 0.86621 0.0
C1542 C 0.91532 0.25096 0.8354 0.0
C1543 C 0.92839 0.20326 0.85959 0.0
C1544 C 0.9112 0.30788 0.82347 0.0
C1545 C 0.96389 0.30413 0.78773 0.0
N1546 N 0.93644 0.22969 0.84442 0.0
N1547 N 0.952 0.27861 0.80196 0.0
H1548 H 0.05126 0.62342 0.16664 0.0
H1549 H 0.9909 0.72618 0.02796 0.0
H1550 H 0.10855 0.64607 0.08842 0.0
H1551 H 0.92856 0.67184 0.08384 0.0
H1552 H 0.03441 0.69836 0.05047 0.0
H1553 H 1.00628 0.64244 0.13814 0.0
C1554 C 0.05436 0.63226 0.14339 0.0
C1555 C 0.08382 0.63327 0.12998 0.0
C1556 C 1.01123 0.69203 0.05742 0.0
C1557 C 0.03231 0.6553 0.09725 0.0
C1558 C 0.98637 0.70782 0.04449 0.0
C1559 C 0.95606 0.70099 0.05375 0.0
C1560 C 1.00594 0.66971 0.08047 0.0
C1561 C 0.95152 0.6774 0.07566 0.0
C1562 C 0.02862 0.64293 0.12707 0.0
C1563 C 0.08633 0.64472 0.09964 0.0
N1564 N 0.97623 0.66294 0.08866 0.0
N1565 N 0.06104 0.65564 0.08449 0.0
H1566 H 0.68703 0.83636 0.34396 0.0
H1567 H 0.55868 0.70823 0.35539 0.0
H1568 H 0.59879 0.85153 0.38676 0.0
H1569 H 0.60262 0.71962 0.26704 0.0
H1570 H 0.58348 0.75546 0.37327 0.0
H1571 H 0.66538 0.78962 0.31939 0.0
C1572 C 0.66313 0.83019 0.34799 0.0
C1573 C 0.64497 0.84769 0.36817 0.0
C1574 C 0.58768 0.74775 0.34991 0.0
C1575 C 0.62058 0.79411 0.34074 0.0
C1576 C 0.57318 0.72101 0.33956 0.0
C1577 C 0.57729 0.71086 0.30924 0.0
C1578 C 0.60732 0.7643 0.33012 0.0
C1579 C 0.59843 0.72704 0.29047 0.0
C1580 C 0.6509 0.80348 0.33402 0.0
C1581 C 0.61414 0.83836 0.37242 0.0
N1582 N 0.61267 0.75325 0.30117 0.0
N1583 N 0.60317 0.81209 0.3593 0.0
H1584 H 0.54214 0.29135 0.53246 0.0
H1585 H 0.46098 0.43452 0.61332 0.0
H1586 H 0.59514 0.37205 0.55837 0.0
H1587 H 0.42839 0.34039 0.61863 0.0
H1588 H 0.5064 0.41696 0.58424 0.0
H1589 H 0.4963 0.31444 0.55386 0.0
C1590 C 0.54413 0.31419 0.54236 0.0
C1591 C 0.5728 0.32953 0.54404 0.0
C1592 C 0.48916 0.40027 0.59165 0.0
C1593 C 0.51973 0.35638 0.56868 0.0
C1594 C 0.46322 0.41027 0.60803 0.0
C1595 C 0.44097 0.38882 0.61842 0.0
C1596 C 0.4924 0.36874 0.58513 0.0
C1597 C 0.44505 0.35765 0.61119 0.0
C1598 C 0.51782 0.32734 0.55468 0.0
C1599 C 0.57358 0.35934 0.55668 0.0
N1600 N 0.4701 0.34862 0.59499 0.0
N1601 N 0.54743 0.37175 0.5688 0.0
H1602 H 0.17448 0.66907 0.7602 0.0
H1603 H 0.07884 0.81269 0.69589 0.0
H1604 H 0.14573 0.67846 0.66508 0.0
H1605 H 0.11388 0.80697 0.78904 0.0
H1606 H 0.10477 0.7646 0.68366 0.0
H1607 H 0.15402 0.72021 0.77076 0.0
C1608 C 0.16385 0.68189 0.7415 0.0
C1609 C 0.16163 0.66927 0.71173 0.0
C1610 C 0.10694 0.77386 0.70676 0.0
C1611 C 0.13825 0.72811 0.72368 0.0
C1612 C 0.09188 0.80121 0.71382 0.0
C1613 C 0.09361 0.81349 0.74371 0.0
C1614 C 0.12391 0.75853 0.72978 0.0
C1615 C 0.11186 0.79825 0.76572 0.0
C1616 C 0.15233 0.7112 0.74753 0.0
C1617 C 0.14813 0.68726 0.68833 0.0
N1618 N 0.12604 0.77141 0.75841 0.0
N1619 N 0.13676 0.71563 0.69485 0.0
H1620 H 0.48372 0.85084 0.0284 0.0
H1621 H 0.58064 0.87953 0.87511 0.0
H1622 H 0.44687 0.8391 0.93667 0.0
H1623 H 0.61215 0.91226 0.9637 0.0
H1624 H 0.53037 0.86735 0.89756 0.0
H1625 H 0.5295 0.87668 1.00617 0.0
C1626 C 0.48505 0.85436 1.00364 0.0
C1627 C 0.46178 0.8428 0.98421 0.0
C1628 C 0.54803 0.87757 0.91213 0.0
C1629 C 0.514 0.87143 0.95862 0.0
C1630 C 0.57672 0.88452 0.89927 0.0
C1631 C 0.60047 0.89686 0.91761 0.0
C1632 C 0.5431 0.88241 0.94381 0.0
C1633 C 0.5943 0.90289 0.9488 0.0
C1634 C 0.51117 0.8689 0.99094 0.0
C1635 C 0.46457 0.84746 0.95232 0.0
N1636 N 0.56631 0.89519 0.96107 0.0
N1637 N 0.49033 0.86107 0.9405 0.0
H1638 H 0.99351 0.09102 0.37101 0.0
H1639 H 0.05241 0.20777 0.50152 0.0
H1640 H 0.93264 0.1496 0.42221 0.0
H1641 H 0.11182 0.14475 0.45433 0.0
H1642 H 1.00772 0.18408 0.47588 0.0
H1643 H 0.03646 0.10827 0.40345 0.0
C1644 C 0.98916 0.10752 0.38912 0.0
C1645 C 0.9594 0.11907 0.39366 0.0
C1646 C 0.03046 0.17524 0.47122 0.0
C1647 C 1.00867 0.13881 0.43125 0.0
C1648 C 0.056 0.18892 0.4857 0.0
C1649 C 0.08587 0.17893 0.47903 0.0
C1650 C 0.03485 0.15138 0.4499 0.0
C1651 C 0.08918 0.15362 0.45939 0.0
C1652 C 1.0137 0.11722 0.40779 0.0
C1653 C 0.95512 0.13997 0.41792 0.0
N1654 N 0.06403 0.14105 0.44509 0.0
N1655 N 0.9795 0.14936 0.43561 0.0
loop_
_geom_bond_atom_site_label_1
_geom_bond_atom_site_label_2
_geom_bond_distance
_geom_bond_site_symmetry_2
_ccdc_geom_bond_type
Eu0 N31 2.657 . S
Eu0 N38 2.609 . S
Eu0 O44 2.558 . S
Eu0 O45 2.612 . S
Eu0 O47 2.339 . S
Eu0 O48 2.563 . S
Eu0 O49 2.419 . S
Eu0 O51 2.380 . S
Eu0 O52 2.432 . S
Eu0 C64 2.848 . S
C1 C4 1.429 . S
C1 C5 1.411 . S
C1 N8 1.377 . S
C2 C4 1.420 . S
C2 C6 1.423 . S
C2 C14 1.392 . S
C3 C5 1.420 1_655 S
C3 C6 1.351 1_655 S
C3 H26 0.931 . S
C4 C1 1.429 . S
C4 C2 1.420 . S
C4 N12 1.362 . S
C5 C1 1.411 . S
C5 C3 1.420 1_455 S
C5 C10 1.395 1_455 S
C6 C2 1.423 . S
C6 C3 1.351 1_455 S
C6 H18 0.930 . S
C7 C9 1.400 . S
C7 C10 1.386 1_455 S
C7 H19 0.930 . S
N8 C1 1.377 . S
N8 C9 1.321 . S
N8 Eu11 2.609 . S
C9 C7 1.400 . S
C9 N8 1.321 . S
C9 H16 0.930 . S
C10 C5 1.395 1_655 S
C10 C7 1.386 1_655 S
C10 H29 0.930 . S
Eu11 N8 2.609 . S
Eu11 N12 2.657 . S
Eu11 O45 2.380 . S
Eu11 O46 2.432 . S
Eu11 O50 2.558 . S
Eu11 O51 2.612 . S
Eu11 O53 2.339 . S
Eu11 O54 2.563 . S
Eu11 O55 2.419 . S
Eu11 C75 2.848 . S
N12 C4 1.362 . S
N12 Eu11 2.657 . S
N12 C13 1.334 . S
C13 N12 1.334 . S
C13 C15 1.413 . S
C13 H20 0.929 . S
C14 C2 1.392 . S
C14 C15 1.367 . S
C14 H22 0.930 . S
C15 C13 1.413 . S
C15 C14 1.367 . S
C15 H17 0.930 . S
H16 C9 0.930 . S
H17 C15 0.930 . S
H18 C6 0.930 . S
H19 C7 0.930 . S
H20 C13 0.929 . S
H21 C35 0.930 . S
H22 C14 0.930 . S
H23 C41 0.930 . S
H24 C32 0.929 . S
H25 C39 0.930 . S
H26 C3 0.931 . S
H27 C33 0.930 . S
H28 C66 0.930 . S
H29 C10 0.930 . S
H30 C65 0.931 . S
N31 Eu0 2.657 . S
N31 C32 1.334 . S
N31 C36 1.362 . S
C32 H24 0.929 . S
C32 N31 1.334 . S
C32 C35 1.413 . S
C33 H27 0.930 . S
C33 C34 1.392 . S
C33 C35 1.367 . S
C34 C33 1.392 . S
C34 C36 1.420 . S
C34 C66 1.423 . S
C35 H21 0.930 . S
C35 C32 1.413 . S
C35 C33 1.367 . S
C36 N31 1.362 . S
C36 C34 1.420 . S
C36 C40 1.429 . S
H37 C42 0.930 . S
N38 Eu0 2.609 . S
N38 C40 1.377 . S
N38 C41 1.321 . S
C39 H25 0.930 . S
C39 C41 1.400 . S
C39 C42 1.386 . S
C40 C36 1.429 . S
C40 N38 1.377 . S
C40 C43 1.411 . S
C41 H23 0.930 . S
C41 N38 1.321 . S
C41 C39 1.400 . S
C42 H37 0.930 . S
C42 C39 1.386 . S
C42 C43 1.395 . S
C43 C40 1.411 . S
C43 C42 1.395 . S
C43 C65 1.420 . S
O44 Eu0 2.558 . S
O44 C64 1.257 . S
O45 Eu0 2.612 . S
O45 Eu11 2.380 . S
O45 C56 1.276 . S
O46 Eu11 2.432 . S
O46 C63 1.264 . S
O47 Eu0 2.339 . S
O47 C63 1.254 . S
O48 Eu0 2.563 . S
O48 C56 1.235 . S
O49 Eu0 2.419 . S
O49 C64 1.249 . S
O50 Eu11 2.558 . S
O50 C75 1.257 . S
O51 Eu0 2.380 . S
O51 Eu11 2.612 . S
O51 C67 1.276 . S
O52 Eu0 2.432 . S
O52 C74 1.264 . S
O53 Eu11 2.339 . S
O53 C74 1.254 . S
O54 Eu11 2.563 . S
O54 C67 1.235 . S
O55 Eu11 2.419 . S
O55 C75 1.249 . S
C56 O45 1.276 . S
C56 O48 1.235 . S
C57 C59 1.393 . S
C57 C61 1.395 . S
C57 C64 1.492 . S
C58 C59 1.392 . S
C58 C60 1.386 . S
C59 C57 1.393 . S
C59 C58 1.392 . S
C59 H76 0.930 . S
C60 C58 1.386 . S
C60 C62 1.395 . S
C60 H77 0.930 . S
C61 C57 1.395 . S
C61 C62 1.379 . S
C61 H78 0.930 . S
C62 C60 1.395 . S
C62 C61 1.379 . S
C62 H79 0.930 . S
C63 O46 1.264 . S
C63 O47 1.254 . S
C64 Eu0 2.848 . S
C64 O44 1.257 . S
C64 O49 1.249 . S
C64 C57 1.492 . S
C65 H30 0.931 . S
C65 C43 1.420 . S
C65 C66 1.351 . S
C66 H28 0.930 . S
C66 C34 1.423 . S
C66 C65 1.351 . S
C67 O51 1.276 . S
C67 O54 1.235 . S
C68 C69 1.393 . S
C68 C72 1.395 . S
C68 C75 1.492 . S
C69 C68 1.393 . S
C69 C70 1.392 . S
C69 H80 0.930 . S
C70 C69 1.392 . S
C70 C71 1.386 . S
C71 C70 1.386 . S
C71 C73 1.395 . S
C71 H81 0.930 . S
C72 C68 1.395 . S
C72 C73 1.379 . S
C72 H82 0.930 . S
C73 C71 1.395 . S
C73 C72 1.379 . S
C73 H83 0.930 . S
C74 O52 1.264 . S
C74 O53 1.254 . S
C75 Eu11 2.848 . S
C75 O50 1.257 . S
C75 O55 1.249 . S
C75 C68 1.492 . S
H76 C59 0.930 . S
H77 C60 0.930 . S
H78 C61 0.930 . S
H79 C62 0.930 . S
H80 C69 0.930 . S
H81 C71 0.930 . S
H82 C72 0.930 . S
H83 C73 0.930 . S
Eu84 N115 2.657 . S
Eu84 N122 2.609 . S
Eu84 O128 2.558 . S
Eu84 O129 2.612 1_655 S
Eu84 O131 2.339 . S
Eu84 O132 2.563 1_655 S
Eu84 O133 2.419 . S
Eu84 O135 2.380 1_655 S
Eu84 O136 2.432 1_655 S
Eu84 C148 2.848 . S
C85 C88 1.429 . S
C85 C89 1.411 . S
C85 N92 1.377 . S
C86 C88 1.420 . S
C86 C90 1.423 . S
C86 C98 1.392 . S
C87 C89 1.405 1_545 S
C87 C90 1.335 1_545 S
C87 H110 0.962 . S
C88 C85 1.429 . S
C88 C86 1.420 . S
C88 N96 1.362 . S
C89 C85 1.411 . S
C89 C87 1.405 1_565 S
C89 C94 1.390 1_565 S
C90 C86 1.423 . S
C90 C87 1.335 1_565 S
C90 H102 0.930 . S
C91 C93 1.400 . S
C91 C94 1.381 1_565 S
C91 H103 0.930 . S
N92 C85 1.377 . S
N92 C93 1.321 . S
N92 Eu95 2.609 . S
C93 C91 1.400 . S
C93 N92 1.321 . S
C93 H100 0.930 . S
C94 C89 1.390 1_545 S
C94 C91 1.381 1_545 S
C94 H113 0.940 . S
Eu95 N92 2.609 . S
Eu95 N96 2.657 . S
Eu95 O129 2.380 . S
Eu95 O130 2.432 1_455 S
Eu95 O134 2.558 . S
Eu95 O135 2.612 . S
Eu95 O137 2.339 . S
Eu95 O138 2.563 . S
Eu95 O139 2.419 . S
Eu95 C159 2.848 . S
N96 C88 1.362 . S
N96 Eu95 2.657 . S
N96 C97 1.334 . S
C97 N96 1.334 . S
C97 C99 1.413 . S
C97 H104 0.929 . S
C98 C86 1.392 . S
C98 C99 1.367 . S
C98 H106 0.930 . S
C99 C97 1.413 . S
C99 C98 1.367 . S
C99 H101 0.930 . S
H100 C93 0.930 . S
H101 C99 0.930 . S
H102 C90 0.930 . S
H103 C91 0.930 . S
H104 C97 0.929 . S
H105 C119 0.930 . S
H106 C98 0.930 . S
H107 C125 0.917 1_455 S
H108 C116 0.929 . S
H109 C123 0.930 . S
H110 C87 0.962 . S
H111 C117 0.930 . S
H112 C150 0.930 . S
H113 C94 0.940 . S
H114 C149 0.931 . S
N115 Eu84 2.657 . S
N115 C116 1.334 . S
N115 C120 1.362 . S
C116 H108 0.929 . S
C116 N115 1.334 . S
C116 C119 1.413 . S
C117 H111 0.930 . S
C117 C118 1.392 . S
C117 C119 1.367 . S
C118 C117 1.392 . S
C118 C120 1.420 . S
C118 C150 1.423 . S
C119 H105 0.930 . S
C119 C116 1.413 . S
C119 C117 1.367 . S
C120 N115 1.362 . S
C120 C118 1.420 . S
C120 C124 1.429 . S
H121 C126 0.930 . S
N122 Eu84 2.609 . S
N122 C124 1.377 . S
N122 C125 1.321 . S
C123 H109 0.930 . S
C123 C125 1.400 . S
C123 C126 1.386 . S
C124 C120 1.429 . S
C124 N122 1.377 . S
C124 C127 1.411 . S
C125 H107 0.917 1_655 S
C125 N122 1.321 . S
C125 C123 1.400 . S
C126 H121 0.930 . S
C126 C123 1.386 . S
C126 C127 1.395 . S
C127 C124 1.411 . S
C127 C126 1.395 . S
C127 C149 1.420 . S
O128 Eu84 2.558 . S
O128 C148 1.257 . S
O129 Eu84 2.612 1_455 S
O129 Eu95 2.380 . S
O129 C140 1.276 . S
O130 Eu95 2.432 1_655 S
O130 C147 1.264 . S
O131 Eu84 2.339 . S
O131 C147 1.254 . S
O132 Eu84 2.563 1_455 S
O132 C140 1.235 . S
O133 Eu84 2.419 . S
O133 C148 1.249 . S
O134 Eu95 2.558 . S
O134 C159 1.257 . S
O135 Eu84 2.380 1_455 S
O135 Eu95 2.612 . S
O135 C151 1.276 . S
O136 Eu84 2.432 1_455 S
O136 C158 1.264 . S
O137 Eu95 2.339 . S
O137 C158 1.254 . S
O138 Eu95 2.563 . S
O138 C151 1.235 . S
O139 Eu95 2.419 . S
O139 C159 1.249 . S
C140 O129 1.276 . S
C140 O132 1.235 . S
C141 C143 1.393 . S
C141 C145 1.395 . S
C141 C148 1.492 . S
C142 C143 1.392 . S
C142 C144 1.386 . S
C143 C141 1.393 . S
C143 C142 1.392 . S
C143 H160 0.930 . S
C144 C142 1.386 . S
C144 C146 1.395 . S
C144 H161 0.930 . S
C145 C141 1.395 . S
C145 C146 1.379 . S
C145 H162 0.930 . S
C146 C144 1.395 . S
C146 C145 1.379 . S
C146 H163 0.930 . S
C147 O130 1.264 . S
C147 O131 1.254 . S
C148 Eu84 2.848 . S
C148 O128 1.257 . S
C148 O133 1.249 . S
C148 C141 1.492 . S
C149 H114 0.931 . S
C149 C127 1.420 . S
C149 C150 1.351 . S
C150 H112 0.930 . S
C150 C118 1.423 . S
C150 C149 1.351 . S
C151 O135 1.276 . S
C151 O138 1.235 . S
C152 C153 1.393 . S
C152 C156 1.395 . S
C152 C159 1.492 . S
C153 C152 1.393 . S
C153 C154 1.392 . S
C153 H164 0.930 . S
C154 C153 1.392 . S
C154 C155 1.386 . S
C155 C154 1.386 . S
C155 C157 1.395 . S
C155 H165 0.930 . S
C156 C152 1.395 . S
C156 C157 1.379 . S
C156 H166 0.930 . S
C157 C155 1.395 . S
C157 C156 1.379 . S
C157 H167 0.930 . S
C158 O136 1.264 . S
C158 O137 1.254 . S
C159 Eu95 2.848 . S
C159 O134 1.257 . S
C159 O139 1.249 . S
C159 C152 1.492 . S
H160 C143 0.930 . S
H161 C144 0.930 . S
H162 C145 0.930 . S
H163 C146 0.930 . S
H164 C153 0.930 . S
H165 C155 0.930 . S
H166 C156 0.930 . S
H167 C157 0.930 . S
Eu168 N199 2.657 . S
Eu168 N206 2.609 . S
Eu168 O212 2.558 . S
Eu168 O213 2.612 . S
Eu168 O215 2.339 . S
Eu168 O216 2.563 . S
Eu168 O217 2.419 . S
Eu168 O219 2.380 1_556 S
Eu168 O220 2.432 . S
Eu168 C232 2.848 . S
C169 C172 1.429 1_554 S
C169 C173 1.411 . S
C169 N176 1.377 . S
C170 C172 1.420 . S
C170 C174 1.423 . S
C170 C182 1.392 . S
C171 C173 1.420 . S
C171 C174 1.351 1_554 S
C171 H194 0.931 . S
C172 C169 1.429 1_556 S
C172 C170 1.420 . S
C172 N180 1.362 . S
C173 C169 1.411 . S
C173 C171 1.420 . S
C173 C178 1.395 . S
C174 C170 1.423 . S
C174 C171 1.351 1_556 S
C174 H186 0.930 . S
C175 C177 1.400 . S
C175 C178 1.386 . S
C175 H187 0.930 . S
N176 C169 1.377 . S
N176 C177 1.321 . S
N176 Eu179 2.609 . S
C177 C175 1.400 . S
C177 N176 1.321 . S
C177 H184 0.930 . S
C178 C173 1.395 . S
C178 C175 1.386 . S
C178 H197 0.930 . S
Eu179 N176 2.609 . S
Eu179 N180 2.657 1_554 S
Eu179 O213 2.380 1_554 S
Eu179 O214 2.432 . S
Eu179 O218 2.558 . S
Eu179 O219 2.612 . S
Eu179 O221 2.339 1_554 S
Eu179 O222 2.563 . S
Eu179 O223 2.419 . S
Eu179 C243 2.848 . S
N180 C172 1.362 . S
N180 Eu179 2.657 1_556 S
N180 C181 1.334 . S
C181 N180 1.334 . S
C181 C183 1.413 . S
C181 H188 0.929 . S
C182 C170 1.392 . S
C182 C183 1.367 . S
C182 H190 0.930 . S
C183 C181 1.413 . S
C183 C182 1.367 . S
C183 H185 0.930 . S
H184 C177 0.930 . S
H185 C183 0.930 . S
H186 C174 0.930 . S
H187 C175 0.930 . S
H188 C181 0.929 . S
H189 C203 0.930 . S
H190 C182 0.930 . S
H191 C209 0.930 . S
H192 C200 0.929 . S
H193 C207 0.930 . S
H194 C171 0.931 . S
H195 C201 0.930 . S
H196 C234 0.930 1_554 S
H197 C178 0.930 . S
H198 C233 0.931 . S
N199 Eu168 2.657 . S
N199 C200 1.334 1_556 S
N199 C204 1.362 . S
C200 H192 0.929 . S
C200 N199 1.334 1_554 S
C200 C203 1.413 . S
C201 H195 0.930 . S
C201 C202 1.392 . S
C201 C203 1.367 . S
C202 C201 1.392 . S
C202 C204 1.420 1_554 S
C202 C234 1.423 1_554 S
C203 H189 0.930 . S
C203 C200 1.413 . S
C203 C201 1.367 . S
C204 N199 1.362 . S
C204 C202 1.420 1_556 S
C204 C208 1.429 . S
H205 C210 0.930 . S
N206 Eu168 2.609 . S
N206 C208 1.377 . S
N206 C209 1.321 . S
C207 H193 0.930 . S
C207 C209 1.400 . S
C207 C210 1.386 . S
C208 C204 1.429 . S
C208 N206 1.377 . S
C208 C211 1.411 . S
C209 H191 0.930 . S
C209 N206 1.321 . S
C209 C207 1.400 . S
C210 H205 0.930 . S
C210 C207 1.386 . S
C210 C211 1.395 . S
C211 C208 1.411 . S
C211 C210 1.395 . S
C211 C233 1.420 . S
O212 Eu168 2.558 . S
O212 C232 1.257 . S
O213 Eu168 2.612 . S
O213 Eu179 2.380 1_556 S
O213 C224 1.276 . S
O214 Eu179 2.432 . S
O214 C231 1.264 . S
O215 Eu168 2.339 . S
O215 C231 1.254 1_556 S
O216 Eu168 2.563 . S
O216 C224 1.235 . S
O217 Eu168 2.419 . S
O217 C232 1.249 . S
O218 Eu179 2.558 . S
O218 C243 1.257 . S
O219 Eu168 2.380 1_554 S
O219 Eu179 2.612 . S
O219 C235 1.276 . S
O220 Eu168 2.432 . S
O220 C242 1.264 . S
O221 Eu179 2.339 1_556 S
O221 C242 1.254 . S
O222 Eu179 2.563 . S
O222 C235 1.235 . S
O223 Eu179 2.419 . S
O223 C243 1.249 . S
C224 O213 1.276 . S
C224 O216 1.235 . S
C225 C227 1.393 . S
C225 C229 1.395 . S
C225 C232 1.492 . S
C226 C227 1.392 . S
C226 C228 1.386 . S
C227 C225 1.393 . S
C227 C226 1.392 . S
C227 H244 0.930 . S
C228 C226 1.386 . S
C228 C230 1.395 . S
C228 H245 0.930 . S
C229 C225 1.395 . S
C229 C230 1.379 . S
C229 H246 0.930 . S
C230 C228 1.395 . S
C230 C229 1.379 . S
C230 H247 0.930 . S
C231 O214 1.264 . S
C231 O215 1.254 1_554 S
C232 Eu168 2.848 . S
C232 O212 1.257 . S
C232 O217 1.249 . S
C232 C225 1.492 . S
C233 H198 0.931 . S
C233 C211 1.420 . S
C233 C234 1.351 . S
C234 H196 0.930 1_556 S
C234 C202 1.423 1_556 S
C234 C233 1.351 . S
C235 O219 1.276 . S
C235 O222 1.235 . S
C236 C237 1.393 . S
C236 C240 1.395 . S
C236 C243 1.492 . S
C237 C236 1.393 . S
C237 C238 1.392 . S
C237 H248 0.930 . S
C238 C237 1.392 . S
C238 C239 1.386 . S
C239 C238 1.386 . S
C239 C241 1.395 . S
C239 H249 0.930 . S
C240 C236 1.395 . S
C240 C241 1.379 . S
C240 H250 0.930 . S
C241 C239 1.395 . S
C241 C240 1.379 . S
C241 H251 0.930 . S
C242 O220 1.264 . S
C242 O221 1.254 . S
C243 Eu179 2.848 . S
C243 O218 1.257 . S
C243 O223 1.249 . S
C243 C236 1.492 . S
H244 C227 0.930 . S
H245 C228 0.930 . S
H246 C229 0.930 . S
H247 C230 0.930 . S
H248 C237 0.930 . S
H249 C239 0.930 . S
H250 C240 0.930 . S
H251 C241 0.930 . S
Eu252 N283 2.657 . S
Eu252 N290 2.609 . S
Eu252 O296 2.558 . S
Eu252 O297 2.612 . S
Eu252 O299 2.339 . S
Eu252 O300 2.563 . S
Eu252 O301 2.419 . S
Eu252 O303 2.380 . S
Eu252 O304 2.432 . S
Eu252 C316 2.848 . S
C253 C256 1.429 . S
C253 C257 1.411 . S
C253 N260 1.377 . S
C254 C256 1.420 . S
C254 C258 1.423 . S
C254 C266 1.392 . S
C255 C257 1.420 1_565 S
C255 C258 1.351 1_565 S
C255 H278 0.931 . S
C256 C253 1.429 . S
C256 C254 1.420 . S
C256 N264 1.362 . S
C257 C253 1.411 . S
C257 C255 1.420 1_545 S
C257 C262 1.395 1_545 S
C258 C254 1.423 . S
C258 C255 1.351 1_545 S
C258 H270 0.930 . S
C259 C261 1.400 . S
C259 C262 1.386 1_545 S
C259 H271 0.930 . S
N260 C253 1.377 . S
N260 C261 1.321 . S
N260 Eu263 2.609 . S
C261 C259 1.400 . S
C261 N260 1.321 . S
C261 H268 0.930 . S
C262 C257 1.395 1_565 S
C262 C259 1.386 1_565 S
C262 H281 0.930 . S
Eu263 N260 2.609 . S
Eu263 N264 2.657 . S
Eu263 O297 2.380 . S
Eu263 O298 2.432 . S
Eu263 O302 2.558 . S
Eu263 O303 2.612 . S
Eu263 O305 2.339 . S
Eu263 O306 2.563 . S
Eu263 O307 2.419 . S
Eu263 C327 2.848 . S
N264 C256 1.362 . S
N264 Eu263 2.657 . S
N264 C265 1.334 . S
C265 N264 1.334 . S
C265 C267 1.413 . S
C265 H272 0.929 . S
C266 C254 1.392 . S
C266 C267 1.367 . S
C266 H274 0.930 . S
C267 C265 1.413 . S
C267 C266 1.367 . S
C267 H269 0.930 . S
H268 C261 0.930 . S
H269 C267 0.930 . S
H270 C258 0.930 . S
H271 C259 0.930 . S
H272 C265 0.929 . S
H273 C287 0.930 . S
H274 C266 0.930 . S
H275 C293 0.930 . S
H276 C284 0.929 . S
H277 C291 0.930 . S
H278 C255 0.931 . S
H279 C285 0.930 . S
H280 C318 0.930 . S
H281 C262 0.930 . S
H282 C317 0.931 . S
N283 Eu252 2.657 . S
N283 C284 1.334 . S
N283 C288 1.362 . S
C284 H276 0.929 . S
C284 N283 1.334 . S
C284 C287 1.413 . S
C285 H279 0.930 . S
C285 C286 1.392 . S
C285 C287 1.367 . S
C286 C285 1.392 . S
C286 C288 1.420 . S
C286 C318 1.423 . S
C287 H273 0.930 . S
C287 C284 1.413 . S
C287 C285 1.367 . S
C288 N283 1.362 . S
C288 C286 1.420 . S
C288 C292 1.429 . S
H289 C294 0.930 . S
N290 Eu252 2.609 . S
N290 C292 1.377 . S
N290 C293 1.321 . S
C291 H277 0.930 . S
C291 C293 1.400 . S
C291 C294 1.386 . S
C292 C288 1.429 . S
C292 N290 1.377 . S
C292 C295 1.411 . S
C293 H275 0.930 . S
C293 N290 1.321 . S
C293 C291 1.400 . S
C294 H289 0.930 . S
C294 C291 1.386 . S
C294 C295 1.395 . S
C295 C292 1.411 . S
C295 C294 1.395 . S
C295 C317 1.420 . S
O296 Eu252 2.558 . S
O296 C316 1.257 . S
O297 Eu252 2.612 . S
O297 Eu263 2.380 . S
O297 C308 1.276 . S
O298 Eu263 2.432 . S
O298 C315 1.264 . S
O299 Eu252 2.339 . S
O299 C315 1.254 . S
O300 Eu252 2.563 . S
O300 C308 1.235 . S
O301 Eu252 2.419 . S
O301 C316 1.249 . S
O302 Eu263 2.558 . S
O302 C327 1.257 . S
O303 Eu252 2.380 . S
O303 Eu263 2.612 . S
O303 C319 1.276 . S
O304 Eu252 2.432 . S
O304 C326 1.264 . S
O305 Eu263 2.339 . S
O305 C326 1.254 . S
O306 Eu263 2.563 . S
O306 C319 1.235 . S
O307 Eu263 2.419 . S
O307 C327 1.249 . S
C308 O297 1.276 . S
C308 O300 1.235 . S
C309 C311 1.393 . S
C309 C313 1.395 . S
C309 C316 1.492 . S
C310 C311 1.392 . S
C310 C312 1.386 . S
C311 C309 1.393 . S
C311 C310 1.392 . S
C311 H328 0.930 . S
C312 C310 1.386 . S
C312 C314 1.395 . S
C312 H329 0.930 . S
C313 C309 1.395 . S
C313 C314 1.379 . S
C313 H330 0.930 . S
C314 C312 1.395 . S
C314 C313 1.379 . S
C314 H331 0.930 . S
C315 O298 1.264 . S
C315 O299 1.254 . S
C316 Eu252 2.848 . S
C316 O296 1.257 . S
C316 O301 1.249 . S
C316 C309 1.492 . S
C317 H282 0.931 . S
C317 C295 1.420 . S
C317 C318 1.351 . S
C318 H280 0.930 . S
C318 C286 1.423 . S
C318 C317 1.351 . S
C319 O303 1.276 . S
C319 O306 1.235 . S
C320 C321 1.393 . S
C320 C324 1.395 . S
C320 C327 1.492 . S
C321 C320 1.393 . S
C321 C322 1.392 . S
C321 H332 0.930 . S
C322 C321 1.392 . S
C322 C323 1.386 . S
C323 C322 1.386 . S
C323 C325 1.395 . S
C323 H333 0.930 . S
C324 C320 1.395 . S
C324 C325 1.379 . S
C324 H334 0.930 . S
C325 C323 1.395 . S
C325 C324 1.379 . S
C325 H335 0.930 . S
C326 O304 1.264 . S
C326 O305 1.254 . S
C327 Eu263 2.848 . S
C327 O302 1.257 . S
C327 O307 1.249 . S
C327 C320 1.492 . S
H328 C311 0.930 . S
H329 C312 0.930 . S
H330 C313 0.930 . S
H331 C314 0.930 . S
H332 C321 0.930 . S
H333 C323 0.930 . S
H334 C324 0.930 . S
H335 C325 0.930 . S
Eu336 N367 2.657 . S
Eu336 N374 2.609 . S
Eu336 O380 2.558 . S
Eu336 O381 2.612 . S
Eu336 O383 2.339 . S
Eu336 O384 2.563 . S
Eu336 O385 2.419 . S
Eu336 O387 2.380 . S
Eu336 O388 2.432 . S
Eu336 C400 2.848 . S
C337 C340 1.429 . S
C337 C341 1.411 . S
C337 N344 1.377 . S
C338 C340 1.420 . S
C338 C342 1.423 . S
C338 C350 1.392 . S
C339 C341 1.420 . S
C339 C342 1.351 . S
C339 H362 0.931 . S
C340 C337 1.429 . S
C340 C338 1.420 . S
C340 N348 1.362 . S
C341 C337 1.411 . S
C341 C339 1.420 . S
C341 C346 1.395 . S
C342 C338 1.423 . S
C342 C339 1.351 . S
C342 H354 0.930 . S
C343 C345 1.400 . S
C343 C346 1.386 . S
C343 H355 0.930 . S
N344 C337 1.377 . S
N344 C345 1.321 . S
N344 Eu347 2.609 . S
C345 C343 1.400 . S
C345 N344 1.321 . S
C345 H352 0.930 . S
C346 C341 1.395 . S
C346 C343 1.386 . S
C346 H365 0.930 . S
Eu347 N344 2.609 . S
Eu347 N348 2.657 . S
Eu347 O381 2.380 . S
Eu347 O382 2.432 . S
Eu347 O386 2.558 . S
Eu347 O387 2.612 . S
Eu347 O389 2.339 . S
Eu347 O390 2.563 . S
Eu347 O391 2.419 . S
Eu347 C411 2.848 . S
N348 C340 1.362 . S
N348 Eu347 2.657 . S
N348 C349 1.334 . S
C349 N348 1.334 . S
C349 C351 1.413 . S
C349 H356 0.929 . S
C350 C338 1.392 . S
C350 C351 1.367 . S
C350 H358 0.930 . S
C351 C349 1.413 . S
C351 C350 1.367 . S
C351 H353 0.930 . S
H352 C345 0.930 . S
H353 C351 0.930 . S
H354 C342 0.930 . S
H355 C343 0.930 . S
H356 C349 0.929 . S
H357 C371 0.930 . S
H358 C350 0.930 . S
H359 C377 0.930 . S
H360 C368 0.929 . S
H361 C375 0.930 . S
H362 C339 0.931 . S
H363 C369 0.930 . S
H364 C402 0.930 . S
H365 C346 0.930 . S
H366 C401 0.931 . S
N367 Eu336 2.657 . S
N367 C368 1.334 . S
N367 C372 1.362 . S
C368 H360 0.929 . S
C368 N367 1.334 . S
C368 C371 1.413 . S
C369 H363 0.930 . S
C369 C370 1.392 . S
C369 C371 1.367 . S
C370 C369 1.392 . S
C370 C372 1.420 . S
C370 C402 1.423 . S
C371 H357 0.930 . S
C371 C368 1.413 . S
C371 C369 1.367 . S
C372 N367 1.362 . S
C372 C370 1.420 . S
C372 C376 1.429 . S
H373 C378 0.930 . S
N374 Eu336 2.609 . S
N374 C376 1.377 . S
N374 C377 1.321 . S
C375 H361 0.930 . S
C375 C377 1.400 . S
C375 C378 1.386 . S
C376 C372 1.429 . S
C376 N374 1.377 . S
C376 C379 1.411 . S
C377 H359 0.930 . S
C377 N374 1.321 . S
C377 C375 1.400 . S
C378 H373 0.930 . S
C378 C375 1.386 . S
C378 C379 1.395 . S
C379 C376 1.411 . S
C379 C378 1.395 . S
C379 C401 1.420 . S
O380 Eu336 2.558 . S
O380 C400 1.257 . S
O381 Eu336 2.612 . S
O381 Eu347 2.380 . S
O381 C392 1.276 . S
O382 Eu347 2.432 . S
O382 C399 1.264 . S
O383 Eu336 2.339 . S
O383 C399 1.254 . S
O384 Eu336 2.563 . S
O384 C392 1.235 . S
O385 Eu336 2.419 . S
O385 C400 1.249 . S
O386 Eu347 2.558 . S
O386 C411 1.257 . S
O387 Eu336 2.380 . S
O387 Eu347 2.612 . S
O387 C403 1.276 . S
O388 Eu336 2.432 . S
O388 C410 1.264 . S
O389 Eu347 2.339 . S
O389 C410 1.254 . S
O390 Eu347 2.563 . S
O390 C403 1.235 . S
O391 Eu347 2.419 . S
O391 C411 1.249 . S
C392 O381 1.276 . S
C392 O384 1.235 . S
C393 C395 1.393 . S
C393 C397 1.395 . S
C393 C400 1.492 . S
C394 C395 1.392 . S
C394 C396 1.386 . S
C395 C393 1.393 . S
C395 C394 1.392 . S
C395 H412 0.930 . S
C396 C394 1.386 . S
C396 C398 1.395 . S
C396 H413 0.930 . S
C397 C393 1.395 . S
C397 C398 1.379 . S
C397 H414 0.930 . S
C398 C396 1.395 . S
C398 C397 1.379 . S
C398 H415 0.930 . S
C399 O382 1.264 . S
C399 O383 1.254 . S
C400 Eu336 2.848 . S
C400 O380 1.257 . S
C400 O385 1.249 . S
C400 C393 1.492 . S
C401 H366 0.931 . S
C401 C379 1.420 . S
C401 C402 1.351 . S
C402 H364 0.930 . S
C402 C370 1.423 . S
C402 C401 1.351 . S
C403 O387 1.276 . S
C403 O390 1.235 . S
C404 C405 1.393 . S
C404 C408 1.395 . S
C404 C411 1.492 . S
C405 C404 1.393 . S
C405 C406 1.392 . S
C405 H416 0.930 . S
C406 C405 1.392 . S
C406 C407 1.386 . S
C407 C406 1.386 . S
C407 C409 1.395 . S
C407 H417 0.930 . S
C408 C404 1.395 . S
C408 C409 1.379 . S
C408 H418 0.930 . S
C409 C407 1.395 . S
C409 C408 1.379 . S
C409 H419 0.930 . S
C410 O388 1.264 . S
C410 O389 1.254 . S
C411 Eu347 2.848 . S
C411 O386 1.257 . S
C411 O391 1.249 . S
C411 C404 1.492 . S
H412 C395 0.930 . S
H413 C396 0.930 . S
H414 C397 0.930 . S
H415 C398 0.930 . S
H416 C405 0.930 . S
H417 C407 0.930 . S
H418 C408 0.930 . S
H419 C409 0.930 . S
Eu420 N451 2.657 . S
Eu420 N458 2.609 . S
Eu420 O464 2.558 . S
Eu420 O465 2.612 . S
Eu420 O467 2.339 . S
Eu420 O468 2.563 . S
Eu420 O469 2.419 . S
Eu420 O471 2.380 1_655 S
Eu420 O472 2.432 . S
Eu420 C484 2.848 . S
C421 C424 1.429 1_455 S
C421 C425 1.411 . S
C421 N428 1.377 . S
C422 C424 1.420 . S
C422 C426 1.423 . S
C422 C434 1.392 . S
C423 C425 1.420 . S
C423 C426 1.351 1_455 S
C423 H446 0.931 . S
C424 C421 1.429 1_655 S
C424 C422 1.420 . S
C424 N432 1.362 . S
C425 C421 1.411 . S
C425 C423 1.420 . S
C425 C430 1.395 . S
C426 C422 1.423 . S
C426 C423 1.351 1_655 S
C426 H438 0.930 . S
C427 C429 1.400 . S
C427 C430 1.386 . S
C427 H439 0.930 . S
N428 C421 1.377 . S
N428 C429 1.321 . S
N428 Eu431 2.609 . S
C429 C427 1.400 . S
C429 N428 1.321 . S
C429 H436 0.930 . S
C430 C425 1.395 . S
C430 C427 1.386 . S
C430 H449 0.930 . S
Eu431 N428 2.609 . S
Eu431 N432 2.657 1_455 S
Eu431 O465 2.380 1_455 S
Eu431 O466 2.432 . S
Eu431 O470 2.558 . S
Eu431 O471 2.612 . S
Eu431 O473 2.339 1_455 S
Eu431 O474 2.563 . S
Eu431 O475 2.419 . S
Eu431 C495 2.848 . S
N432 C424 1.362 . S
N432 Eu431 2.657 1_655 S
N432 C433 1.334 . S
C433 N432 1.334 . S
C433 C435 1.413 . S
C433 H440 0.929 . S
C434 C422 1.392 . S
C434 C435 1.367 . S
C434 H442 0.930 . S
C435 C433 1.413 . S
C435 C434 1.367 . S
C435 H437 0.930 . S
H436 C429 0.930 . S
H437 C435 0.930 . S
H438 C426 0.930 . S
H439 C427 0.930 . S
H440 C433 0.929 . S
H441 C455 0.930 . S
H442 C434 0.930 . S
H443 C461 0.930 . S
H444 C452 0.929 . S
H445 C459 0.930 . S
H446 C423 0.931 . S
H447 C453 0.930 . S
H448 C486 0.930 1_455 S
H449 C430 0.930 . S
H450 C485 0.931 . S
N451 Eu420 2.657 . S
N451 C452 1.334 1_655 S
N451 C456 1.362 . S
C452 H444 0.929 . S
C452 N451 1.334 1_455 S
C452 C455 1.413 . S
C453 H447 0.930 . S
C453 C454 1.392 . S
C453 C455 1.367 . S
C454 C453 1.392 . S
C454 C456 1.420 1_455 S
C454 C486 1.423 1_455 S
C455 H441 0.930 . S
C455 C452 1.413 . S
C455 C453 1.367 . S
C456 N451 1.362 . S
C456 C454 1.420 1_655 S
C456 C460 1.429 . S
H457 C462 0.930 . S
N458 Eu420 2.609 . S
N458 C460 1.377 . S
N458 C461 1.321 . S
C459 H445 0.930 . S
C459 C461 1.400 . S
C459 C462 1.386 . S
C460 C456 1.429 . S
C460 N458 1.377 . S
C460 C463 1.411 . S
C461 H443 0.930 . S
C461 N458 1.321 . S
C461 C459 1.400 . S
C462 H457 0.930 . S
C462 C459 1.386 . S
C462 C463 1.395 . S
C463 C460 1.411 . S
C463 C462 1.395 . S
C463 C485 1.420 . S
O464 Eu420 2.558 . S
O464 C484 1.257 . S
O465 Eu420 2.612 . S
O465 Eu431 2.380 1_655 S
O465 C476 1.276 . S
O466 Eu431 2.432 . S
O466 C483 1.264 . S
O467 Eu420 2.339 . S
O467 C483 1.254 1_655 S
O468 Eu420 2.563 . S
O468 C476 1.235 . S
O469 Eu420 2.419 . S
O469 C484 1.249 . S
O470 Eu431 2.558 . S
O470 C495 1.257 . S
O471 Eu420 2.380 1_455 S
O471 Eu431 2.612 . S
O471 C487 1.276 . S
O472 Eu420 2.432 . S
O472 C494 1.264 . S
O473 Eu431 2.339 1_655 S
O473 C494 1.254 . S
O474 Eu431 2.563 . S
O474 C487 1.235 . S
O475 Eu431 2.419 . S
O475 C495 1.249 . S
C476 O465 1.276 . S
C476 O468 1.235 . S
C477 C479 1.393 . S
C477 C481 1.395 . S
C477 C484 1.492 . S
C478 C479 1.392 . S
C478 C480 1.386 . S
C479 C477 1.393 . S
C479 C478 1.392 . S
C479 H496 0.930 . S
C480 C478 1.386 . S
C480 C482 1.395 . S
C480 H497 0.930 . S
C481 C477 1.395 . S
C481 C482 1.379 . S
C481 H498 0.930 . S
C482 C480 1.395 . S
C482 C481 1.379 . S
C482 H499 0.930 . S
C483 O466 1.264 . S
C483 O467 1.254 1_455 S
C484 Eu420 2.848 . S
C484 O464 1.257 . S
C484 O469 1.249 . S
C484 C477 1.492 . S
C485 H450 0.931 . S
C485 C463 1.420 . S
C485 C486 1.351 . S
C486 H448 0.930 1_655 S
C486 C454 1.423 1_655 S
C486 C485 1.351 . S
C487 O471 1.276 . S
C487 O474 1.235 . S
C488 C489 1.393 . S
C488 C492 1.395 . S
C488 C495 1.492 . S
C489 C488 1.393 . S
C489 C490 1.392 . S
C489 H500 0.930 . S
C490 C489 1.392 . S
C490 C491 1.386 . S
C491 C490 1.386 . S
C491 C493 1.395 . S
C491 H501 0.930 . S
C492 C488 1.395 . S
C492 C493 1.379 . S
C492 H502 0.930 . S
C493 C491 1.395 . S
C493 C492 1.379 . S
C493 H503 0.930 . S
C494 O472 1.264 . S
C494 O473 1.254 . S
C495 Eu431 2.848 . S
C495 O470 1.257 . S
C495 O475 1.249 . S
C495 C488 1.492 . S
H496 C479 0.930 . S
H497 C480 0.930 . S
H498 C481 0.930 . S
H499 C482 0.930 . S
H500 C489 0.930 . S
H501 C491 0.930 . S
H502 C492 0.930 . S
H503 C493 0.930 . S
Eu504 N535 2.657 . S
Eu504 N542 2.609 . S
Eu504 O548 2.558 . S
Eu504 O549 2.612 . S
Eu504 O551 2.339 . S
Eu504 O552 2.563 . S
Eu504 O553 2.419 . S
Eu504 O555 2.380 1_554 S
Eu504 O556 2.432 . S
Eu504 C568 2.848 . S
C505 C508 1.429 1_556 S
C505 C509 1.411 . S
C505 N512 1.377 . S
C506 C508 1.420 . S
C506 C510 1.423 . S
C506 C518 1.392 . S
C507 C509 1.420 . S
C507 C510 1.351 1_556 S
C507 H530 0.931 . S
C508 C505 1.429 1_554 S
C508 C506 1.420 . S
C508 N516 1.362 . S
C509 C505 1.411 . S
C509 C507 1.420 . S
C509 C514 1.395 . S
C510 C506 1.423 . S
C510 C507 1.351 1_554 S
C510 H522 0.930 . S
C511 C513 1.400 . S
C511 C514 1.386 . S
C511 H523 0.930 . S
N512 C505 1.377 . S
N512 C513 1.321 . S
N512 Eu515 2.609 . S
C513 C511 1.400 . S
C513 N512 1.321 . S
C513 H520 0.930 . S
C514 C509 1.395 . S
C514 C511 1.386 . S
C514 H533 0.930 . S
Eu515 N512 2.609 . S
Eu515 N516 2.657 1_556 S
Eu515 O549 2.380 1_556 S
Eu515 O550 2.432 . S
Eu515 O554 2.558 . S
Eu515 O555 2.612 . S
Eu515 O557 2.339 1_556 S
Eu515 O558 2.563 . S
Eu515 O559 2.419 . S
Eu515 C579 2.848 . S
N516 C508 1.362 . S
N516 Eu515 2.657 1_554 S
N516 C517 1.334 . S
C517 N516 1.334 . S
C517 C519 1.413 . S
C517 H524 0.929 . S
C518 C506 1.392 . S
C518 C519 1.367 . S
C518 H526 0.930 . S
C519 C517 1.413 . S
C519 C518 1.367 . S
C519 H521 0.930 . S
H520 C513 0.930 . S
H521 C519 0.930 . S
H522 C510 0.930 . S
H523 C511 0.930 . S
H524 C517 0.929 . S
H525 C539 0.930 . S
H526 C518 0.930 . S
H527 C545 0.930 . S
H528 C536 0.929 . S
H529 C543 0.930 . S
H530 C507 0.931 . S
H531 C537 0.930 . S
H532 C570 0.930 1_556 S
H533 C514 0.930 . S
H534 C569 0.931 . S
N535 Eu504 2.657 . S
N535 C536 1.334 1_554 S
N535 C540 1.362 . S
C536 H528 0.929 . S
C536 N535 1.334 1_556 S
C536 C539 1.413 . S
C537 H531 0.930 . S
C537 C538 1.391 . S
C537 C539 1.367 . S
C538 C537 1.391 . S
C538 C540 1.420 1_556 S
C538 C570 1.423 1_556 S
C539 H525 0.930 . S
C539 C536 1.413 . S
C539 C537 1.367 . S
C540 N535 1.362 . S
C540 C538 1.420 1_554 S
C540 C544 1.429 . S
H541 C546 0.930 . S
N542 Eu504 2.609 . S
N542 C544 1.377 . S
N542 C545 1.321 . S
C543 H529 0.930 . S
C543 C545 1.400 . S
C543 C546 1.386 1_655 S
C544 C540 1.429 . S
C544 N542 1.377 . S
C544 C547 1.411 . S
C545 H527 0.930 . S
C545 N542 1.321 . S
C545 C543 1.400 . S
C546 H541 0.930 . S
C546 C543 1.386 1_455 S
C546 C547 1.395 1_455 S
C547 C544 1.411 . S
C547 C546 1.395 1_655 S
C547 C569 1.420 1_655 S
O548 Eu504 2.558 . S
O548 C568 1.257 . S
O549 Eu504 2.612 . S
O549 Eu515 2.380 1_554 S
O549 C560 1.276 . S
O550 Eu515 2.432 . S
O550 C567 1.264 . S
O551 Eu504 2.339 . S
O551 C567 1.254 1_554 S
O552 Eu504 2.563 . S
O552 C560 1.235 . S
O553 Eu504 2.419 . S
O553 C568 1.249 . S
O554 Eu515 2.558 . S
O554 C579 1.257 . S
O555 Eu504 2.380 1_556 S
O555 Eu515 2.612 . S
O555 C571 1.276 . S
O556 Eu504 2.432 . S
O556 C578 1.264 . S
O557 Eu515 2.339 1_554 S
O557 C578 1.254 . S
O558 Eu515 2.563 . S
O558 C571 1.235 . S
O559 Eu515 2.419 . S
O559 C579 1.249 . S
C560 O549 1.276 . S
C560 O552 1.235 . S
C561 C563 1.393 . S
C561 C565 1.395 . S
C561 C568 1.492 . S
C562 C563 1.392 . S
C562 C564 1.386 . S
C563 C561 1.393 . S
C563 C562 1.392 . S
C563 H580 0.930 . S
C564 C562 1.386 . S
C564 C566 1.395 . S
C564 H581 0.930 . S
C565 C561 1.395 . S
C565 C566 1.379 . S
C565 H582 0.930 . S
C566 C564 1.395 . S
C566 C565 1.379 . S
C566 H583 0.930 . S
C567 O550 1.264 . S
C567 O551 1.254 1_556 S
C568 Eu504 2.848 . S
C568 O548 1.257 . S
C568 O553 1.249 . S
C568 C561 1.492 . S
C569 H534 0.931 . S
C569 C547 1.420 1_455 S
C569 C570 1.351 1_455 S
C570 H532 0.930 1_554 S
C570 C538 1.423 1_554 S
C570 C569 1.351 1_655 S
C571 O555 1.276 . S
C571 O558 1.235 . S
C572 C573 1.393 . S
C572 C576 1.395 . S
C572 C579 1.492 . S
C573 C572 1.393 . S
C573 C574 1.392 . S
C573 H584 0.930 . S
C574 C573 1.392 . S
C574 C575 1.386 . S
C575 C574 1.386 . S
C575 C577 1.395 . S
C575 H585 0.930 . S
C576 C572 1.395 . S
C576 C577 1.379 . S
C576 H586 0.930 . S
C577 C575 1.395 . S
C577 C576 1.379 . S
C577 H587 0.930 . S
C578 O556 1.264 . S
C578 O557 1.254 . S
C579 Eu515 2.848 . S
C579 O554 1.257 . S
C579 O559 1.249 . S
C579 C572 1.492 . S
H580 C563 0.930 . S
H581 C564 0.930 . S
H582 C565 0.930 . S
H583 C566 0.930 . S
H584 C573 0.930 . S
H585 C575 0.930 . S
H586 C576 0.930 . S
H587 C577 0.930 . S
Eu588 N619 2.657 . S
Eu588 N626 2.609 . S
Eu588 O632 2.558 . S
Eu588 O633 2.612 . S
Eu588 O635 2.339 . S
Eu588 O636 2.563 . S
Eu588 O637 2.419 . S
Eu588 O639 2.380 . S
Eu588 O640 2.432 . S
Eu588 C652 2.848 . S
C589 C592 1.429 . S
C589 C593 1.411 . S
C589 N596 1.377 . S
C590 C592 1.420 . S
C590 C594 1.423 . S
C590 C602 1.392 . S
C591 C593 1.420 . S
C591 C594 1.351 . S
C591 H614 0.931 . S
C592 C589 1.429 . S
C592 C590 1.420 . S
C592 N600 1.362 . S
C593 C589 1.411 . S
C593 C591 1.420 . S
C593 C598 1.395 . S
C594 C590 1.423 . S
C594 C591 1.351 . S
C594 H606 0.930 . S
C595 C597 1.400 . S
C595 C598 1.386 . S
C595 H607 0.930 . S
N596 C589 1.377 . S
N596 C597 1.321 . S
N596 Eu599 2.609 . S
C597 C595 1.400 . S
C597 N596 1.321 . S
C597 H604 0.930 . S
C598 C593 1.395 . S
C598 C595 1.386 . S
C598 H617 0.930 . S
Eu599 N596 2.609 . S
Eu599 N600 2.657 . S
Eu599 O633 2.380 . S
Eu599 O634 2.432 . S
Eu599 O638 2.558 . S
Eu599 O639 2.612 . S
Eu599 O641 2.339 . S
Eu599 O642 2.563 . S
Eu599 O643 2.419 . S
Eu599 C663 2.848 . S
N600 C592 1.362 . S
N600 Eu599 2.657 . S
N600 C601 1.334 . S
C601 N600 1.334 . S
C601 C603 1.413 . S
C601 H608 0.929 . S
C602 C590 1.392 . S
C602 C603 1.367 . S
C602 H610 0.930 . S
C603 C601 1.413 . S
C603 C602 1.367 . S
C603 H605 0.930 . S
H604 C597 0.930 . S
H605 C603 0.930 . S
H606 C594 0.930 . S
H607 C595 0.930 . S
H608 C601 0.929 . S
H609 C623 0.930 . S
H610 C602 0.930 . S
H611 C629 0.930 . S
H612 C620 0.929 . S
H613 C627 0.930 . S
H614 C591 0.931 . S
H615 C621 0.930 . S
H616 C654 0.930 . S
H617 C598 0.930 . S
H618 C653 0.931 . S
N619 Eu588 2.657 . S
N619 C620 1.334 . S
N619 C624 1.362 . S
C620 H612 0.929 . S
C620 N619 1.334 . S
C620 C623 1.413 . S
C621 H615 0.930 . S
C621 C622 1.392 . S
C621 C623 1.367 . S
C622 C621 1.392 . S
C622 C624 1.420 . S
C622 C654 1.423 . S
C623 H609 0.930 . S
C623 C620 1.413 . S
C623 C621 1.367 . S
C624 N619 1.362 . S
C624 C622 1.420 . S
C624 C628 1.429 . S
H625 C630 0.930 . S
N626 Eu588 2.609 . S
N626 C628 1.377 . S
N626 C629 1.321 . S
C627 H613 0.930 . S
C627 C629 1.400 . S
C627 C630 1.386 . S
C628 C624 1.429 . S
C628 N626 1.377 . S
C628 C631 1.411 . S
C629 H611 0.930 . S
C629 N626 1.321 . S
C629 C627 1.400 . S
C630 H625 0.930 . S
C630 C627 1.386 . S
C630 C631 1.395 . S
C631 C628 1.411 . S
C631 C630 1.395 . S
C631 C653 1.420 . S
O632 Eu588 2.558 . S
O632 C652 1.257 . S
O633 Eu588 2.612 . S
O633 Eu599 2.380 . S
O633 C644 1.276 . S
O634 Eu599 2.432 . S
O634 C651 1.264 . S
O635 Eu588 2.339 . S
O635 C651 1.254 . S
O636 Eu588 2.563 . S
O636 C644 1.235 . S
O637 Eu588 2.419 . S
O637 C652 1.249 . S
O638 Eu599 2.558 . S
O638 C663 1.257 . S
O639 Eu588 2.380 . S
O639 Eu599 2.612 . S
O639 C655 1.276 . S
O640 Eu588 2.432 . S
O640 C662 1.264 . S
O641 Eu599 2.339 . S
O641 C662 1.254 . S
O642 Eu599 2.563 . S
O642 C655 1.235 . S
O643 Eu599 2.419 . S
O643 C663 1.249 . S
C644 O633 1.276 . S
C644 O636 1.235 . S
C645 C647 1.393 . S
C645 C649 1.395 . S
C645 C652 1.492 . S
C646 C647 1.392 . S
C646 C648 1.386 . S
C647 C645 1.393 . S
C647 C646 1.392 . S
C647 H664 0.930 . S
C648 C646 1.386 . S
C648 C650 1.395 . S
C648 H665 0.930 . S
C649 C645 1.395 . S
C649 C650 1.379 . S
C649 H666 0.930 . S
C650 C648 1.395 . S
C650 C649 1.379 . S
C650 H667 0.930 . S
C651 O634 1.264 . S
C651 O635 1.254 . S
C652 Eu588 2.848 . S
C652 O632 1.257 . S
C652 O637 1.249 . S
C652 C645 1.492 . S
C653 H618 0.931 . S
C653 C631 1.420 . S
C653 C654 1.351 . S
C654 H616 0.930 . S
C654 C622 1.423 . S
C654 C653 1.351 . S
C655 O639 1.276 . S
C655 O642 1.235 . S
C656 C657 1.393 . S
C656 C660 1.395 . S
C656 C663 1.492 . S
C657 C656 1.393 . S
C657 C658 1.392 . S
C657 H668 0.930 . S
C658 C657 1.392 . S
C658 C659 1.386 . S
C659 C658 1.386 . S
C659 C661 1.395 . S
C659 H669 0.930 . S
C660 C656 1.395 . S
C660 C661 1.379 . S
C660 H670 0.930 . S
C661 C659 1.395 . S
C661 C660 1.379 . S
C661 H671 0.930 . S
C662 O640 1.264 . S
C662 O641 1.254 . S
C663 Eu599 2.848 . S
C663 O638 1.257 . S
C663 O643 1.249 . S
C663 C656 1.492 . S
H664 C647 0.930 . S
H665 C648 0.930 . S
H666 C649 0.930 . S
H667 C650 0.930 . S
H668 C657 0.930 . S
H669 C659 0.930 . S
H670 C660 0.930 . S
H671 C661 0.930 . S
Eu672 N703 2.657 . S
Eu672 N710 2.609 . S
Eu672 O716 2.558 . S
Eu672 O717 2.612 . S
Eu672 O719 2.339 . S
Eu672 O720 2.563 . S
Eu672 O721 2.419 . S
Eu672 O723 2.380 . S
Eu672 O724 2.432 . S
Eu672 C736 2.848 . S
C673 C676 1.429 . S
C673 C677 1.411 . S
C673 N680 1.377 . S
C674 C676 1.420 . S
C674 C678 1.423 . S
C674 C686 1.392 . S
C675 C677 1.420 1_556 S
C675 C678 1.351 1_556 S
C675 H698 0.931 . S
C676 C673 1.429 . S
C676 C674 1.420 . S
C676 N684 1.362 . S
C677 C673 1.411 . S
C677 C675 1.420 1_554 S
C677 C682 1.395 1_554 S
C678 C674 1.423 . S
C678 C675 1.351 1_554 S
C678 H690 0.930 . S
C679 C681 1.400 . S
C679 C682 1.386 1_554 S
C679 H691 0.930 . S
N680 C673 1.377 . S
N680 C681 1.321 . S
N680 Eu683 2.609 . S
C681 C679 1.400 . S
C681 N680 1.321 . S
C681 H688 0.930 . S
C682 C677 1.395 1_556 S
C682 C679 1.386 1_556 S
C682 H701 0.930 . S
Eu683 N680 2.609 . S
Eu683 N684 2.657 . S
Eu683 O717 2.380 . S
Eu683 O718 2.432 . S
Eu683 O722 2.558 . S
Eu683 O723 2.612 . S
Eu683 O725 2.339 . S
Eu683 O726 2.563 . S
Eu683 O727 2.419 . S
Eu683 C747 2.848 . S
N684 C676 1.362 . S
N684 Eu683 2.657 . S
N684 C685 1.334 . S
C685 N684 1.334 . S
C685 C687 1.413 . S
C685 H692 0.929 . S
C686 C674 1.392 . S
C686 C687 1.367 . S
C686 H694 0.930 . S
C687 C685 1.413 . S
C687 C686 1.367 . S
C687 H689 0.930 . S
H688 C681 0.930 . S
H689 C687 0.930 . S
H690 C678 0.930 . S
H691 C679 0.930 . S
H692 C685 0.929 . S
H693 C707 0.930 . S
H694 C686 0.930 . S
H695 C713 0.930 . S
H696 C704 0.929 . S
H697 C711 0.930 . S
H698 C675 0.931 . S
H699 C705 0.930 . S
H700 C738 0.930 . S
H701 C682 0.930 . S
H702 C737 0.931 . S
N703 Eu672 2.657 . S
N703 C704 1.334 . S
N703 C708 1.362 . S
C704 H696 0.929 . S
C704 N703 1.334 . S
C704 C707 1.413 . S
C705 H699 0.930 . S
C705 C706 1.392 . S
C705 C707 1.367 . S
C706 C705 1.392 . S
C706 C708 1.420 . S
C706 C738 1.423 . S
C707 H693 0.930 . S
C707 C704 1.413 . S
C707 C705 1.367 . S
C708 N703 1.362 . S
C708 C706 1.420 . S
C708 C712 1.429 . S
H709 C714 0.930 . S
N710 Eu672 2.609 . S
N710 C712 1.377 . S
N710 C713 1.321 . S
C711 H697 0.930 . S
C711 C713 1.400 . S
C711 C714 1.386 . S
C712 C708 1.429 . S
C712 N710 1.377 . S
C712 C715 1.411 . S
C713 H695 0.930 . S
C713 N710 1.321 . S
C713 C711 1.400 . S
C714 H709 0.930 . S
C714 C711 1.386 . S
C714 C715 1.395 . S
C715 C712 1.411 . S
C715 C714 1.395 . S
C715 C737 1.420 . S
O716 Eu672 2.558 . S
O716 C736 1.257 . S
O717 Eu672 2.612 . S
O717 Eu683 2.380 . S
O717 C728 1.276 . S
O718 Eu683 2.432 . S
O718 C735 1.264 . S
O719 Eu672 2.339 . S
O719 C735 1.254 . S
O720 Eu672 2.563 . S
O720 C728 1.235 . S
O721 Eu672 2.419 . S
O721 C736 1.249 . S
O722 Eu683 2.558 . S
O722 C747 1.257 . S
O723 Eu672 2.380 . S
O723 Eu683 2.612 . S
O723 C739 1.276 . S
O724 Eu672 2.432 . S
O724 C746 1.264 . S
O725 Eu683 2.339 . S
O725 C746 1.254 . S
O726 Eu683 2.563 . S
O726 C739 1.235 . S
O727 Eu683 2.419 . S
O727 C747 1.249 . S
C728 O717 1.276 . S
C728 O720 1.235 . S
C729 C731 1.393 . S
C729 C733 1.395 . S
C729 C736 1.492 . S
C730 C731 1.392 . S
C730 C732 1.386 . S
C731 C729 1.393 . S
C731 C730 1.392 . S
C731 H748 0.930 . S
C732 C730 1.386 . S
C732 C734 1.395 . S
C732 H749 0.930 . S
C733 C729 1.395 . S
C733 C734 1.379 . S
C733 H750 0.930 . S
C734 C732 1.395 . S
C734 C733 1.379 . S
C734 H751 0.930 . S
C735 O718 1.264 . S
C735 O719 1.254 . S
C736 Eu672 2.848 . S
C736 O716 1.257 . S
C736 O721 1.249 . S
C736 C729 1.492 . S
C737 H702 0.931 . S
C737 C715 1.420 . S
C737 C738 1.351 . S
C738 H700 0.930 . S
C738 C706 1.423 . S
C738 C737 1.351 . S
C739 O723 1.276 . S
C739 O726 1.235 . S
C740 C741 1.393 . S
C740 C744 1.395 . S
C740 C747 1.492 . S
C741 C740 1.393 . S
C741 C742 1.392 . S
C741 H752 0.930 . S
C742 C741 1.392 . S
C742 C743 1.386 . S
C743 C742 1.386 . S
C743 C745 1.395 . S
C743 H753 0.930 . S
C744 C740 1.395 . S
C744 C745 1.379 . S
C744 H754 0.930 . S
C745 C743 1.395 . S
C745 C744 1.379 . S
C745 H755 0.930 . S
C746 O724 1.264 . S
C746 O725 1.254 . S
C747 Eu683 2.848 . S
C747 O722 1.257 . S
C747 O727 1.249 . S
C747 C740 1.492 . S
H748 C731 0.930 . S
H749 C732 0.930 . S
H750 C733 0.930 . S
H751 C734 0.930 . S
H752 C741 0.930 . S
H753 C743 0.930 . S
H754 C744 0.930 . S
H755 C745 0.930 . S
Eu756 N787 2.657 . S
Eu756 N794 2.609 . S
Eu756 O800 2.558 . S
Eu756 O801 2.612 . S
Eu756 O803 2.339 . S
Eu756 O804 2.563 . S
Eu756 O805 2.419 . S
Eu756 O807 2.380 1_545 S
Eu756 O808 2.432 . S
Eu756 C820 2.848 . S
C757 C760 1.429 1_565 S
C757 C761 1.411 . S
C757 N764 1.377 . S
C758 C760 1.420 . S
C758 C762 1.423 . S
C758 C770 1.392 . S
C759 C761 1.420 . S
C759 C762 1.351 1_565 S
C759 H782 0.931 . S
C760 C757 1.429 1_545 S
C760 C758 1.420 . S
C760 N768 1.362 . S
C761 C757 1.411 . S
C761 C759 1.420 . S
C761 C766 1.395 . S
C762 C758 1.423 . S
C762 C759 1.351 1_545 S
C762 H774 0.930 . S
C763 C765 1.400 . S
C763 C766 1.386 . S
C763 H775 0.930 . S
N764 C757 1.377 . S
N764 C765 1.321 . S
N764 Eu767 2.609 . S
C765 C763 1.400 . S
C765 N764 1.321 . S
C765 H772 0.930 . S
C766 C761 1.395 . S
C766 C763 1.386 . S
C766 H785 0.930 . S
Eu767 N764 2.609 . S
Eu767 N768 2.657 1_565 S
Eu767 O801 2.380 1_565 S
Eu767 O802 2.432 . S
Eu767 O806 2.558 . S
Eu767 O807 2.612 . S
Eu767 O809 2.339 1_565 S
Eu767 O810 2.563 . S
Eu767 O811 2.419 . S
Eu767 C831 2.848 . S
N768 C760 1.362 . S
N768 Eu767 2.657 1_545 S
N768 C769 1.334 . S
C769 N768 1.334 . S
C769 C771 1.413 . S
C769 H776 0.929 . S
C770 C758 1.392 . S
C770 C771 1.367 . S
C770 H778 0.930 . S
C771 C769 1.413 . S
C771 C770 1.367 . S
C771 H773 0.930 . S
H772 C765 0.930 . S
H773 C771 0.930 . S
H774 C762 0.930 . S
H775 C763 0.930 . S
H776 C769 0.929 . S
H777 C791 0.930 . S
H778 C770 0.930 . S
H779 C797 0.930 . S
H780 C788 0.929 . S
H781 C795 0.930 . S
H782 C759 0.931 . S
H783 C789 0.930 . S
H784 C822 0.923 1_565 S
H785 C766 0.930 . S
H786 C821 0.931 . S
N787 Eu756 2.657 . S
N787 C788 1.334 1_545 S
N787 C792 1.362 . S
C788 H780 0.929 . S
C788 N787 1.334 1_565 S
C788 C791 1.413 . S
C789 H783 0.930 . S
C789 C790 1.392 1_565 S
C789 C791 1.367 . S
C790 C789 1.392 1_545 S
C790 C792 1.420 . S
C790 C822 1.423 . S
C791 H777 0.930 . S
C791 C788 1.413 . S
C791 C789 1.367 . S
C792 N787 1.362 . S
C792 C790 1.420 . S
C792 C796 1.429 . S
H793 C798 0.930 . S
N794 Eu756 2.609 . S
N794 C796 1.377 . S
N794 C797 1.321 . S
C795 H781 0.930 . S
C795 C797 1.400 . S
C795 C798 1.386 1_556 S
C796 C792 1.429 . S
C796 N794 1.377 . S
C796 C799 1.411 . S
C797 H779 0.930 . S
C797 N794 1.321 . S
C797 C795 1.400 . S
C798 H793 0.930 . S
C798 C795 1.386 1_554 S
C798 C799 1.395 1_554 S
C799 C796 1.411 . S
C799 C798 1.395 1_556 S
C799 C821 1.420 1_556 S
O800 Eu756 2.558 . S
O800 C820 1.257 . S
O801 Eu756 2.612 . S
O801 Eu767 2.380 1_545 S
O801 C812 1.276 . S
O802 Eu767 2.432 . S
O802 C819 1.264 . S
O803 Eu756 2.339 . S
O803 C819 1.254 1_545 S
O804 Eu756 2.563 . S
O804 C812 1.235 . S
O805 Eu756 2.419 . S
O805 C820 1.249 . S
O806 Eu767 2.558 . S
O806 C831 1.257 . S
O807 Eu756 2.380 1_565 S
O807 Eu767 2.612 . S
O807 C823 1.276 . S
O808 Eu756 2.432 . S
O808 C830 1.264 . S
O809 Eu767 2.339 1_545 S
O809 C830 1.254 . S
O810 Eu767 2.563 . S
O810 C823 1.235 . S
O811 Eu767 2.419 . S
O811 C831 1.249 . S
C812 O801 1.276 . S
C812 O804 1.235 . S
C813 C815 1.393 . S
C813 C817 1.395 . S
C813 C820 1.492 . S
C814 C815 1.392 . S
C814 C816 1.386 . S
C815 C813 1.393 . S
C815 C814 1.392 . S
C815 H832 0.930 . S
C816 C814 1.386 . S
C816 C818 1.395 . S
C816 H833 0.930 . S
C817 C813 1.395 . S
C817 C818 1.379 . S
C817 H834 0.930 . S
C818 C816 1.395 . S
C818 C817 1.379 . S
C818 H835 0.930 . S
C819 O802 1.264 . S
C819 O803 1.254 1_565 S
C820 Eu756 2.848 . S
C820 O800 1.257 . S
C820 O805 1.249 . S
C820 C813 1.492 . S
C821 H786 0.931 . S
C821 C799 1.420 1_554 S
C821 C822 1.351 1_554 S
C822 H784 0.923 1_545 S
C822 C790 1.423 . S
C822 C821 1.351 1_556 S
C823 O807 1.276 . S
C823 O810 1.235 . S
C824 C825 1.393 . S
C824 C828 1.395 . S
C824 C831 1.492 . S
C825 C824 1.393 . S
C825 C826 1.392 . S
C825 H836 0.930 . S
C826 C825 1.392 . S
C826 C827 1.386 . S
C827 C826 1.386 . S
C827 C829 1.395 . S
C827 H837 0.930 . S
C828 C824 1.395 . S
C828 C829 1.379 . S
C828 H838 0.930 . S
C829 C827 1.395 . S
C829 C828 1.379 . S
C829 H839 0.930 . S
C830 O808 1.264 . S
C830 O809 1.254 . S
C831 Eu767 2.848 . S
C831 O806 1.257 . S
C831 O811 1.249 . S
C831 C824 1.492 . S
H832 C815 0.930 . S
H833 C816 0.930 . S
H834 C817 0.930 . S
H835 C818 0.930 . S
H836 C825 0.930 . S
H837 C827 0.930 . S
H838 C828 0.930 . S
H839 C829 0.930 . S
Eu840 N871 2.657 . S
Eu840 N878 2.609 . S
Eu840 O884 2.558 . S
Eu840 O885 2.612 . S
Eu840 O887 2.339 . S
Eu840 O888 2.563 . S
Eu840 O889 2.419 . S
Eu840 O891 2.380 1_565 S
Eu840 O892 2.432 . S
Eu840 C904 2.848 . S
C841 C844 1.429 1_545 S
C841 C845 1.411 . S
C841 N848 1.377 . S
C842 C844 1.420 . S
C842 C846 1.423 . S
C842 C854 1.392 . S
C843 C845 1.420 . S
C843 C846 1.351 1_545 S
C843 H866 0.931 . S
C844 C841 1.429 1_565 S
C844 C842 1.420 . S
C844 N852 1.362 . S
C845 C841 1.411 . S
C845 C843 1.420 . S
C845 C850 1.395 . S
C846 C842 1.423 . S
C846 C843 1.351 1_565 S
C846 H858 0.930 . S
C847 C849 1.400 . S
C847 C850 1.386 . S
C847 H859 0.930 . S
N848 C841 1.377 . S
N848 C849 1.321 . S
N848 Eu851 2.609 . S
C849 C847 1.400 . S
C849 N848 1.321 . S
C849 H856 0.930 . S
C850 C845 1.395 . S
C850 C847 1.386 . S
C850 H869 0.930 . S
Eu851 N848 2.609 . S
Eu851 N852 2.657 1_545 S
Eu851 O885 2.380 1_545 S
Eu851 O886 2.432 . S
Eu851 O890 2.558 . S
Eu851 O891 2.612 . S
Eu851 O893 2.339 1_545 S
Eu851 O894 2.563 . S
Eu851 O895 2.419 . S
Eu851 C915 2.848 . S
N852 C844 1.362 . S
N852 Eu851 2.657 1_565 S
N852 C853 1.334 . S
C853 N852 1.334 . S
C853 C855 1.413 . S
C853 H860 0.929 . S
C854 C842 1.392 . S
C854 C855 1.367 . S
C854 H862 0.930 . S
C855 C853 1.413 . S
C855 C854 1.367 . S
C855 H857 0.930 . S
H856 C849 0.930 . S
H857 C855 0.930 . S
H858 C846 0.930 . S
H859 C847 0.930 . S
H860 C853 0.929 . S
H861 C875 0.930 . S
H862 C854 0.930 . S
H863 C881 0.930 . S
H864 C872 0.929 . S
H865 C879 0.930 . S
H866 C843 0.931 . S
H867 C873 0.930 . S
H868 C906 0.930 1_545 S
H869 C850 0.930 . S
H870 C905 0.931 . S
N871 Eu840 2.657 . S
N871 C872 1.334 1_565 S
N871 C876 1.362 . S
C872 H864 0.929 . S
C872 N871 1.334 1_545 S
C872 C875 1.413 . S
C873 H867 0.930 . S
C873 C874 1.368 1_545 S
C873 C875 1.367 . S
C874 C873 1.368 1_565 S
C874 C876 1.436 . S
C874 C906 1.431 . S
C875 H861 0.930 . S
C875 C872 1.413 . S
C875 C873 1.367 . S
C876 N871 1.362 . S
C876 C874 1.436 . S
C876 C880 1.429 . S
H877 C882 0.930 . S
N878 Eu840 2.609 . S
N878 C880 1.377 . S
N878 C881 1.321 . S
C879 H865 0.930 . S
C879 C881 1.400 . S
C879 C882 1.386 . S
C880 C876 1.429 . S
C880 N878 1.377 . S
C880 C883 1.411 . S
C881 H863 0.930 . S
C881 N878 1.321 . S
C881 C879 1.400 . S
C882 H877 0.930 . S
C882 C879 1.386 . S
C882 C883 1.395 . S
C883 C880 1.411 . S
C883 C882 1.395 . S
C883 C905 1.420 . S
O884 Eu840 2.558 . S
O884 C904 1.257 . S
O885 Eu840 2.612 . S
O885 Eu851 2.380 1_565 S
O885 C896 1.276 . S
O886 Eu851 2.432 . S
O886 C903 1.264 . S
O887 Eu840 2.339 . S
O887 C903 1.254 1_565 S
O888 Eu840 2.563 . S
O888 C896 1.235 . S
O889 Eu840 2.419 . S
O889 C904 1.249 . S
O890 Eu851 2.558 . S
O890 C915 1.257 . S
O891 Eu840 2.380 1_545 S
O891 Eu851 2.612 . S
O891 C907 1.276 . S
O892 Eu840 2.432 . S
O892 C914 1.264 . S
O893 Eu851 2.339 1_565 S
O893 C914 1.254 . S
O894 Eu851 2.563 . S
O894 C907 1.235 . S
O895 Eu851 2.419 . S
O895 C915 1.249 . S
C896 O885 1.276 . S
C896 O888 1.235 . S
C897 C899 1.393 . S
C897 C901 1.395 . S
C897 C904 1.492 . S
C898 C899 1.392 . S
C898 C900 1.386 . S
C899 C897 1.393 . S
C899 C898 1.392 . S
C899 H916 0.930 . S
C900 C898 1.386 . S
C900 C902 1.395 . S
C900 H917 0.930 . S
C901 C897 1.395 . S
C901 C902 1.379 . S
C901 H918 0.930 . S
C902 C900 1.395 . S
C902 C901 1.379 . S
C902 H919 0.930 . S
C903 O886 1.264 . S
C903 O887 1.254 1_545 S
C904 Eu840 2.848 . S
C904 O884 1.257 . S
C904 O889 1.249 . S
C904 C897 1.492 . S
C905 H870 0.931 . S
C905 C883 1.420 . S
C905 C906 1.351 . S
C906 H868 0.930 1_565 S
C906 C874 1.431 . S
C906 C905 1.351 . S
C907 O891 1.276 . S
C907 O894 1.235 . S
C908 C909 1.393 . S
C908 C912 1.395 . S
C908 C915 1.492 . S
C909 C908 1.393 . S
C909 C910 1.392 . S
C909 H920 0.930 . S
C910 C909 1.392 . S
C910 C911 1.386 . S
C911 C910 1.386 . S
C911 C913 1.395 . S
C911 H921 0.930 . S
C912 C908 1.395 . S
C912 C913 1.379 . S
C912 H922 0.930 . S
C913 C911 1.395 . S
C913 C912 1.379 . S
C913 H923 0.930 . S
C914 O892 1.264 . S
C914 O893 1.254 . S
C915 Eu851 2.848 . S
C915 O890 1.257 . S
C915 O895 1.249 . S
C915 C908 1.492 . S
H916 C899 0.930 . S
H917 C900 0.930 . S
H918 C901 0.930 . S
H919 C902 0.930 . S
H920 C909 0.930 . S
H921 C911 0.930 . S
H922 C912 0.930 . S
H923 C913 0.930 . S
Eu924 N955 2.657 . S
Eu924 N962 2.609 . S
Eu924 O968 2.558 . S
Eu924 O969 2.612 . S
Eu924 O971 2.339 . S
Eu924 O972 2.563 . S
Eu924 O973 2.419 . S
Eu924 O975 2.380 . S
Eu924 O976 2.432 . S
Eu924 C988 2.848 . S
C925 C928 1.429 . S
C925 C929 1.411 . S
C925 N932 1.377 . S
C926 C928 1.420 . S
C926 C930 1.423 . S
C926 C938 1.392 . S
C927 C929 1.420 . S
C927 C930 1.351 . S
C927 H950 0.931 . S
C928 C925 1.429 . S
C928 C926 1.420 . S
C928 N936 1.362 . S
C929 C925 1.411 . S
C929 C927 1.420 . S
C929 C934 1.395 . S
C930 C926 1.423 . S
C930 C927 1.351 . S
C930 H942 0.930 . S
C931 C933 1.400 . S
C931 C934 1.386 . S
C931 H943 0.930 . S
N932 C925 1.377 . S
N932 C933 1.321 . S
N932 Eu935 2.609 . S
C933 C931 1.400 . S
C933 N932 1.321 . S
C933 H940 0.930 . S
C934 C929 1.395 . S
C934 C931 1.386 . S
C934 H953 0.930 . S
Eu935 N932 2.609 . S
Eu935 N936 2.657 . S
Eu935 O969 2.380 . S
Eu935 O970 2.432 . S
Eu935 O974 2.558 . S
Eu935 O975 2.612 . S
Eu935 O977 2.339 . S
Eu935 O978 2.563 . S
Eu935 O979 2.419 . S
Eu935 C999 2.848 . S
N936 C928 1.362 . S
N936 Eu935 2.657 . S
N936 C937 1.334 . S
C937 N936 1.334 . S
C937 C939 1.413 . S
C937 H944 0.929 . S
C938 C926 1.392 . S
C938 C939 1.367 . S
C938 H946 0.930 . S
C939 C937 1.413 . S
C939 C938 1.367 . S
C939 H941 0.930 . S
H940 C933 0.930 . S
H941 C939 0.930 . S
H942 C930 0.930 . S
H943 C931 0.930 . S
H944 C937 0.929 . S
H945 C959 0.930 . S
H946 C938 0.930 . S
H947 C965 0.930 . S
H948 C956 0.929 . S
H949 C963 0.930 . S
H950 C927 0.931 . S
H951 C957 0.930 . S
H952 C990 0.930 . S
H953 C934 0.930 . S
H954 C989 0.931 . S
N955 Eu924 2.657 . S
N955 C956 1.334 . S
N955 C960 1.362 . S
C956 H948 0.929 . S
C956 N955 1.334 . S
C956 C959 1.413 . S
C957 H951 0.930 . S
C957 C958 1.392 . S
C957 C959 1.367 . S
C958 C957 1.392 . S
C958 C960 1.420 . S
C958 C990 1.423 . S
C959 H945 0.930 . S
C959 C956 1.413 . S
C959 C957 1.367 . S
C960 N955 1.362 . S
C960 C958 1.420 . S
C960 C964 1.429 . S
H961 C966 0.930 . S
N962 Eu924 2.609 . S
N962 C964 1.377 . S
N962 C965 1.321 . S
C963 H949 0.930 . S
C963 C965 1.400 . S
C963 C966 1.386 . S
C964 C960 1.429 . S
C964 N962 1.377 . S
C964 C967 1.411 . S
C965 H947 0.930 . S
C965 N962 1.321 . S
C965 C963 1.400 . S
C966 H961 0.930 . S
C966 C963 1.386 . S
C966 C967 1.395 . S
C967 C964 1.411 . S
C967 C966 1.395 . S
C967 C989 1.420 . S
O968 Eu924 2.558 . S
O968 C988 1.257 . S
O969 Eu924 2.612 . S
O969 Eu935 2.380 . S
O969 C980 1.276 . S
O970 Eu935 2.432 . S
O970 C987 1.264 . S
O971 Eu924 2.339 . S
O971 C987 1.254 . S
O972 Eu924 2.563 . S
O972 C980 1.235 . S
O973 Eu924 2.419 . S
O973 C988 1.249 . S
O974 Eu935 2.558 . S
O974 C999 1.257 . S
O975 Eu924 2.380 . S
O975 Eu935 2.612 . S
O975 C991 1.276 . S
O976 Eu924 2.432 . S
O976 C998 1.264 . S
O977 Eu935 2.339 . S
O977 C998 1.254 . S
O978 Eu935 2.563 . S
O978 C991 1.235 . S
O979 Eu935 2.419 . S
O979 C999 1.249 . S
C980 O969 1.276 . S
C980 O972 1.235 . S
C981 C983 1.393 . S
C981 C985 1.395 . S
C981 C988 1.492 . S
C982 C983 1.392 . S
C982 C984 1.386 . S
C983 C981 1.393 . S
C983 C982 1.392 . S
C983 H1000 0.930 . S
C984 C982 1.386 . S
C984 C986 1.395 . S
C984 H1001 0.930 . S
C985 C981 1.395 . S
C985 C986 1.379 . S
C985 H1002 0.930 . S
C986 C984 1.395 . S
C986 C985 1.379 . S
C986 H1003 0.930 . S
C987 O970 1.264 . S
C987 O971 1.254 . S
C988 Eu924 2.848 . S
C988 O968 1.257 . S
C988 O973 1.249 . S
C988 C981 1.492 . S
C989 H954 0.931 . S
C989 C967 1.420 . S
C989 C990 1.351 . S
C990 H952 0.930 . S
C990 C958 1.423 . S
C990 C989 1.351 . S
C991 O975 1.276 . S
C991 O978 1.235 . S
C992 C993 1.393 . S
C992 C996 1.395 . S
C992 C999 1.492 . S
C993 C992 1.393 . S
C993 C994 1.392 . S
C993 H1004 0.930 . S
C994 C993 1.392 . S
C994 C995 1.386 . S
C995 C994 1.386 . S
C995 C997 1.395 . S
C995 H1005 0.930 . S
C996 C992 1.395 . S
C996 C997 1.379 . S
C996 H1006 0.930 . S
C997 C995 1.395 . S
C997 C996 1.379 . S
C997 H1007 0.930 . S
C998 O976 1.264 . S
C998 O977 1.254 . S
C999 Eu935 2.848 . S
C999 O974 1.257 . S
C999 O979 1.249 . S
C999 C992 1.492 . S
H1000 C983 0.930 . S
H1001 C984 0.930 . S
H1002 C985 0.930 . S
H1003 C986 0.930 . S
H1004 C993 0.930 . S
H1005 C995 0.930 . S
H1006 C996 0.930 . S
H1007 C997 0.930 . S
H1008 C1014 0.930 . S
H1009 C1018 0.930 . S
H1010 C1023 0.929 . S
H1011 C1021 0.929 . S
H1012 C1016 0.929 . S
H1013 C1022 0.929 . S
C1014 H1008 0.930 . S
C1014 C1015 1.367 . S
C1014 C1022 1.378 . S
C1015 C1014 1.367 . S
C1015 C1023 1.433 . S
C1016 H1012 0.929 . S
C1016 C1018 1.378 . S
C1016 C1020 1.350 . S
C1017 C1020 1.463 . S
C1017 C1022 1.350 . S
C1017 N1025 1.427 . S
C1018 H1009 0.930 . S
C1018 C1016 1.378 . S
C1018 C1019 1.367 . S
C1019 C1018 1.367 . S
C1019 C1021 1.433 . S
C1020 C1016 1.350 . S
C1020 C1017 1.463 . S
C1020 N1024 1.427 . S
C1021 H1011 0.929 . S
C1021 C1019 1.433 . S
C1021 N1024 1.384 . S
C1022 H1013 0.929 . S
C1022 C1014 1.378 . S
C1022 C1017 1.350 . S
C1023 H1010 0.929 . S
C1023 C1015 1.433 . S
C1023 N1025 1.384 . S
N1024 C1020 1.427 . S
N1024 C1021 1.384 . S
N1025 C1017 1.427 . S
N1025 C1023 1.384 . S
H1026 C1032 0.930 . S
H1027 C1036 0.930 . S
H1028 C1041 0.929 . S
H1029 C1039 0.929 . S
H1030 C1034 0.929 . S
H1031 C1040 0.929 . S
C1032 H1026 0.930 . S
C1032 C1033 1.367 . S
C1032 C1040 1.378 . S
C1033 C1032 1.367 . S
C1033 C1041 1.433 1_565 S
C1034 H1030 0.929 . S
C1034 C1036 1.378 . S
C1034 C1038 1.350 . S
C1035 C1038 1.463 . S
C1035 C1040 1.350 . S
C1035 N1043 1.427 . S
C1036 H1027 0.930 . S
C1036 C1034 1.378 . S
C1036 C1037 1.367 . S
C1037 C1036 1.367 . S
C1037 C1039 1.433 . S
C1038 C1034 1.350 . S
C1038 C1035 1.463 . S
C1038 N1042 1.427 . S
C1039 H1029 0.929 . S
C1039 C1037 1.433 . S
C1039 N1042 1.384 . S
C1040 H1031 0.929 . S
C1040 C1032 1.378 . S
C1040 C1035 1.350 . S
C1041 H1028 0.929 . S
C1041 C1033 1.433 1_545 S
C1041 N1043 1.384 1_545 S
N1042 C1038 1.427 . S
N1042 C1039 1.384 . S
N1043 C1035 1.427 . S
N1043 C1041 1.384 1_565 S
H1044 C1050 0.930 . S
H1045 C1054 0.930 . S
H1046 C1059 0.929 . S
H1047 C1057 0.929 . S
H1048 C1052 0.929 . S
H1049 C1058 0.929 . S
C1050 H1044 0.930 . S
C1050 C1051 1.367 . S
C1050 C1058 1.378 . S
C1051 C1050 1.367 . S
C1051 C1059 1.433 1_554 S
C1052 H1048 0.929 . S
C1052 C1054 1.378 . S
C1052 C1056 1.350 . S
C1053 C1056 1.463 . S
C1053 C1058 1.350 . S
C1053 N1061 1.427 . S
C1054 H1045 0.930 . S
C1054 C1052 1.378 . S
C1054 C1055 1.367 . S
C1055 C1054 1.367 . S
C1055 C1057 1.433 . S
C1056 C1052 1.350 . S
C1056 C1053 1.463 . S
C1056 N1060 1.427 . S
C1057 H1047 0.929 . S
C1057 C1055 1.433 . S
C1057 N1060 1.384 . S
C1058 H1049 0.929 . S
C1058 C1050 1.378 . S
C1058 C1053 1.350 . S
C1059 H1046 0.929 . S
C1059 C1051 1.433 1_556 S
C1059 N1061 1.384 1_556 S
N1060 C1056 1.427 . S
N1060 C1057 1.384 . S
N1061 C1053 1.427 . S
N1061 C1059 1.384 1_554 S
H1062 C1068 0.930 . S
H1063 C1072 0.930 . S
H1064 C1077 0.929 . S
H1065 C1075 0.929 1_565 S
H1066 C1070 0.929 . S
H1067 C1076 0.929 . S
C1068 H1062 0.930 . S
C1068 C1069 1.367 . S
C1068 C1076 1.378 . S
C1069 C1068 1.367 . S
C1069 C1077 1.433 . S
C1070 H1066 0.929 . S
C1070 C1072 1.378 . S
C1070 C1074 1.350 . S
C1071 C1074 1.463 . S
C1071 C1076 1.350 . S
C1071 N1079 1.427 . S
C1072 H1063 0.930 . S
C1072 C1070 1.378 . S
C1072 C1073 1.367 . S
C1073 C1072 1.367 . S
C1073 C1075 1.433 . S
C1074 C1070 1.350 . S
C1074 C1071 1.463 . S
C1074 N1078 1.427 . S
C1075 H1065 0.929 1_545 S
C1075 C1073 1.433 . S
C1075 N1078 1.384 . S
C1076 H1067 0.929 . S
C1076 C1068 1.378 . S
C1076 C1071 1.350 . S
C1077 H1064 0.929 . S
C1077 C1069 1.433 . S
C1077 N1079 1.384 . S
N1078 C1074 1.427 . S
N1078 C1075 1.384 . S
N1079 C1071 1.427 . S
N1079 C1077 1.384 . S
H1080 C1086 0.930 . S
H1081 C1090 0.930 . S
H1082 C1095 0.929 . S
H1083 C1093 0.929 . S
H1084 C1088 0.929 . S
H1085 C1094 0.929 . S
C1086 H1080 0.930 . S
C1086 C1087 1.367 . S
C1086 C1094 1.378 . S
C1087 C1086 1.367 . S
C1087 C1095 1.433 . S
C1088 H1084 0.929 . S
C1088 C1090 1.378 . S
C1088 C1092 1.350 . S
C1089 C1092 1.463 . S
C1089 C1094 1.350 . S
C1089 N1097 1.427 . S
C1090 H1081 0.930 . S
C1090 C1088 1.378 . S
C1090 C1091 1.367 . S
C1091 C1090 1.367 . S
C1091 C1093 1.433 . S
C1092 C1088 1.350 . S
C1092 C1089 1.463 . S
C1092 N1096 1.427 . S
C1093 H1083 0.929 . S
C1093 C1091 1.433 . S
C1093 N1096 1.384 . S
C1094 H1085 0.929 . S
C1094 C1086 1.378 . S
C1094 C1089 1.350 . S
C1095 H1082 0.929 . S
C1095 C1087 1.433 . S
C1095 N1097 1.384 . S
N1096 C1092 1.427 . S
N1096 C1093 1.384 . S
N1097 C1089 1.427 . S
N1097 C1095 1.384 . S
H1098 C1104 0.930 . S
H1099 C1108 0.930 . S
H1100 C1113 0.929 . S
H1101 C1111 0.929 . S
H1102 C1106 0.929 . S
H1103 C1112 0.929 . S
C1104 H1098 0.930 . S
C1104 C1105 1.367 . S
C1104 C1112 1.378 . S
C1105 C1104 1.367 . S
C1105 C1113 1.433 . S
C1106 H1102 0.929 . S
C1106 C1108 1.378 . S
C1106 C1110 1.350 . S
C1107 C1110 1.463 . S
C1107 C1112 1.350 . S
C1107 N1115 1.427 . S
C1108 H1099 0.930 . S
C1108 C1106 1.378 . S
C1108 C1109 1.367 . S
C1109 C1108 1.367 . S
C1109 C1111 1.433 . S
C1110 C1106 1.350 . S
C1110 C1107 1.463 . S
C1110 N1114 1.427 . S
C1111 H1101 0.929 . S
C1111 C1109 1.433 . S
C1111 N1114 1.384 . S
C1112 H1103 0.929 . S
C1112 C1104 1.378 . S
C1112 C1107 1.350 . S
C1113 H1100 0.929 . S
C1113 C1105 1.433 . S
C1113 N1115 1.384 . S
N1114 C1110 1.427 . S
N1114 C1111 1.384 . S
N1115 C1107 1.427 . S
N1115 C1113 1.384 . S
H1116 C1122 0.930 . S
H1117 C1126 0.930 . S
H1118 C1131 0.929 . S
H1119 C1129 0.929 . S
H1120 C1124 0.929 . S
H1121 C1130 0.929 . S
C1122 H1116 0.930 . S
C1122 C1123 1.367 . S
C1122 C1130 1.378 . S
C1123 C1122 1.367 . S
C1123 C1131 1.433 . S
C1124 H1120 0.929 . S
C1124 C1126 1.378 . S
C1124 C1128 1.350 . S
C1125 C1128 1.463 . S
C1125 C1130 1.350 . S
C1125 N1133 1.427 . S
C1126 H1117 0.930 . S
C1126 C1124 1.378 . S
C1126 C1127 1.367 . S
C1127 C1126 1.367 . S
C1127 C1129 1.433 1_556 S
C1128 C1124 1.350 . S
C1128 C1125 1.463 . S
C1128 N1132 1.427 . S
C1129 H1119 0.929 . S
C1129 C1127 1.433 1_554 S
C1129 N1132 1.384 1_554 S
C1130 H1121 0.929 . S
C1130 C1122 1.378 . S
C1130 C1125 1.350 . S
C1131 H1118 0.929 . S
C1131 C1123 1.433 . S
C1131 N1133 1.384 . S
N1132 C1128 1.427 . S
N1132 C1129 1.384 1_556 S
N1133 C1125 1.427 . S
N1133 C1131 1.384 . S
H1134 C1140 0.930 . S
H1135 C1144 0.930 . S
H1136 C1149 0.929 . S
H1137 C1147 0.929 . S
H1138 C1142 0.929 . S
H1139 C1148 0.929 . S
C1140 H1134 0.930 . S
C1140 C1141 1.367 . S
C1140 C1148 1.378 . S
C1141 C1140 1.367 . S
C1141 C1149 1.433 . S
C1142 H1138 0.929 . S
C1142 C1144 1.378 . S
C1142 C1146 1.350 . S
C1143 C1146 1.463 . S
C1143 C1148 1.350 . S
C1143 N1151 1.427 . S
C1144 H1135 0.930 . S
C1144 C1142 1.378 . S
C1144 C1145 1.367 . S
C1145 C1144 1.367 . S
C1145 C1147 1.433 . S
C1146 C1142 1.350 . S
C1146 C1143 1.463 . S
C1146 N1150 1.427 . S
C1147 H1137 0.929 . S
C1147 C1145 1.433 . S
C1147 N1150 1.384 . S
C1148 H1139 0.929 . S
C1148 C1140 1.378 . S
C1148 C1143 1.350 . S
C1149 H1136 0.929 . S
C1149 C1141 1.433 . S
C1149 N1151 1.384 . S
N1150 C1146 1.427 . S
N1150 C1147 1.384 . S
N1151 C1143 1.427 . S
N1151 C1149 1.384 . S
H1152 C1158 0.930 . S
H1153 C1162 0.930 . S
H1154 C1167 0.929 . S
H1155 C1165 0.929 . S
H1156 C1160 0.929 . S
H1157 C1166 0.929 . S
C1158 H1152 0.930 . S
C1158 C1159 1.367 . S
C1158 C1166 1.378 . S
C1159 C1158 1.367 . S
C1159 C1167 1.433 . S
C1160 H1156 0.929 . S
C1160 C1162 1.378 . S
C1160 C1164 1.350 . S
C1161 C1164 1.463 . S
C1161 C1166 1.350 . S
C1161 N1169 1.427 . S
C1162 H1153 0.930 . S
C1162 C1160 1.378 . S
C1162 C1163 1.367 . S
C1163 C1162 1.367 . S
C1163 C1165 1.433 . S
C1164 C1160 1.350 . S
C1164 C1161 1.463 . S
C1164 N1168 1.427 . S
C1165 H1155 0.929 . S
C1165 C1163 1.433 . S
C1165 N1168 1.384 . S
C1166 H1157 0.929 . S
C1166 C1158 1.378 . S
C1166 C1161 1.350 . S
C1167 H1154 0.929 . S
C1167 C1159 1.433 . S
C1167 N1169 1.384 . S
N1168 C1164 1.427 . S
N1168 C1165 1.384 . S
N1169 C1161 1.427 . S
N1169 C1167 1.384 . S
H1170 C1176 0.930 . S
H1171 C1180 0.930 . S
H1172 C1185 0.929 . S
H1173 C1183 0.929 1_655 S
H1174 C1178 0.929 . S
H1175 C1184 0.929 . S
C1176 H1170 0.930 . S
C1176 C1177 1.367 . S
C1176 C1184 1.378 . S
C1177 C1176 1.367 . S
C1177 C1185 1.433 . S
C1178 H1174 0.929 . S
C1178 C1180 1.378 . S
C1178 C1182 1.350 . S
C1179 C1182 1.463 . S
C1179 C1184 1.350 . S
C1179 N1187 1.427 . S
C1180 H1171 0.930 . S
C1180 C1178 1.378 . S
C1180 C1181 1.367 . S
C1181 C1180 1.367 . S
C1181 C1183 1.433 . S
C1182 C1178 1.350 . S
C1182 C1179 1.463 . S
C1182 N1186 1.427 . S
C1183 H1173 0.929 1_455 S
C1183 C1181 1.433 . S
C1183 N1186 1.384 . S
C1184 H1175 0.929 . S
C1184 C1176 1.378 . S
C1184 C1179 1.350 . S
C1185 H1172 0.929 . S
C1185 C1177 1.433 . S
C1185 N1187 1.384 . S
N1186 C1182 1.427 . S
N1186 C1183 1.384 . S
N1187 C1179 1.427 . S
N1187 C1185 1.384 . S
H1188 C1194 0.930 . S
H1189 C1198 0.930 . S
H1190 C1203 0.929 1_455 S
H1191 C1201 0.929 . S
H1192 C1196 0.929 . S
H1193 C1202 0.929 . S
C1194 H1188 0.930 . S
C1194 C1195 1.367 . S
C1194 C1202 1.378 . S
C1195 C1194 1.367 . S
C1195 C1203 1.433 . S
C1196 H1192 0.929 . S
C1196 C1198 1.378 . S
C1196 C1200 1.350 . S
C1197 C1200 1.463 . S
C1197 C1202 1.350 . S
C1197 N1205 1.427 . S
C1198 H1189 0.930 . S
C1198 C1196 1.378 . S
C1198 C1199 1.367 . S
C1199 C1198 1.367 . S
C1199 C1201 1.433 . S
C1200 C1196 1.350 . S
C1200 C1197 1.463 . S
C1200 N1204 1.427 . S
C1201 H1191 0.929 . S
C1201 C1199 1.433 . S
C1201 N1204 1.384 . S
C1202 H1193 0.929 . S
C1202 C1194 1.378 . S
C1202 C1197 1.350 . S
C1203 H1190 0.929 1_655 S
C1203 C1195 1.433 . S
C1203 N1205 1.384 . S
N1204 C1200 1.427 . S
N1204 C1201 1.384 . S
N1205 C1197 1.427 . S
N1205 C1203 1.384 . S
H1206 C1212 0.930 . S
H1207 C1216 0.930 . S
H1208 C1221 0.929 . S
H1209 C1219 0.929 . S
H1210 C1214 0.929 . S
H1211 C1220 0.929 . S
C1212 H1206 0.930 . S
C1212 C1213 1.367 . S
C1212 C1220 1.378 . S
C1213 C1212 1.367 . S
C1213 C1221 1.433 . S
C1214 H1210 0.929 . S
C1214 C1216 1.378 . S
C1214 C1218 1.350 . S
C1215 C1218 1.463 . S
C1215 C1220 1.350 . S
C1215 N1223 1.427 . S
C1216 H1207 0.930 . S
C1216 C1214 1.378 . S
C1216 C1217 1.367 . S
C1217 C1216 1.367 . S
C1217 C1219 1.433 . S
C1218 C1214 1.350 . S
C1218 C1215 1.463 . S
C1218 N1222 1.427 . S
C1219 H1209 0.929 . S
C1219 C1217 1.433 . S
C1219 N1222 1.384 . S
C1220 H1211 0.929 . S
C1220 C1212 1.378 . S
C1220 C1215 1.350 . S
C1221 H1208 0.929 . S
C1221 C1213 1.433 . S
C1221 N1223 1.384 . S
N1222 C1218 1.427 . S
N1222 C1219 1.384 . S
N1223 C1215 1.427 . S
N1223 C1221 1.384 . S
H1224 C1230 0.930 . S
H1225 C1234 0.930 . S
H1226 C1239 0.929 . S
H1227 C1237 0.929 . S
H1228 C1232 0.929 . S
H1229 C1238 0.929 . S
C1230 H1224 0.930 . S
C1230 C1231 1.367 . S
C1230 C1238 1.378 . S
C1231 C1230 1.367 . S
C1231 C1239 1.433 . S
C1232 H1228 0.929 . S
C1232 C1234 1.378 . S
C1232 C1236 1.350 . S
C1233 C1236 1.463 . S
C1233 C1238 1.350 . S
C1233 N1241 1.427 . S
C1234 H1225 0.930 . S
C1234 C1232 1.378 . S
C1234 C1235 1.367 . S
C1235 C1234 1.367 . S
C1235 C1237 1.433 . S
C1236 C1232 1.350 . S
C1236 C1233 1.463 . S
C1236 N1240 1.427 . S
C1237 H1227 0.929 . S
C1237 C1235 1.433 . S
C1237 N1240 1.384 . S
C1238 H1229 0.929 . S
C1238 C1230 1.378 . S
C1238 C1233 1.350 . S
C1239 H1226 0.929 . S
C1239 C1231 1.433 . S
C1239 N1241 1.384 . S
N1240 C1236 1.427 . S
N1240 C1237 1.384 . S
N1241 C1233 1.427 . S
N1241 C1239 1.384 . S
H1242 C1248 0.930 . S
H1243 C1252 0.930 . S
H1244 C1257 0.929 . S
H1245 C1255 0.929 1_545 S
H1246 C1250 0.929 . S
H1247 C1256 0.929 . S
C1248 H1242 0.930 . S
C1248 C1249 1.367 . S
C1248 C1256 1.378 . S
C1249 C1248 1.367 . S
C1249 C1257 1.433 . S
C1250 H1246 0.929 . S
C1250 C1252 1.378 . S
C1250 C1254 1.350 . S
C1251 C1254 1.463 . S
C1251 C1256 1.350 . S
C1251 N1259 1.427 . S
C1252 H1243 0.930 . S
C1252 C1250 1.378 . S
C1252 C1253 1.367 . S
C1253 C1252 1.367 . S
C1253 C1255 1.433 . S
C1254 C1250 1.350 . S
C1254 C1251 1.463 . S
C1254 N1258 1.427 . S
C1255 H1245 0.929 1_565 S
C1255 C1253 1.433 . S
C1255 N1258 1.384 . S
C1256 H1247 0.929 . S
C1256 C1248 1.378 . S
C1256 C1251 1.350 . S
C1257 H1244 0.929 . S
C1257 C1249 1.433 . S
C1257 N1259 1.384 . S
N1258 C1254 1.427 . S
N1258 C1255 1.384 . S
N1259 C1251 1.427 . S
N1259 C1257 1.384 . S
H1260 C1266 0.930 . S
H1261 C1270 0.930 . S
H1262 C1275 0.929 . S
H1263 C1273 0.929 . S
H1264 C1268 0.929 . S
H1265 C1274 0.929 . S
C1266 H1260 0.930 . S
C1266 C1267 1.367 . S
C1266 C1274 1.378 . S
C1267 C1266 1.367 . S
C1267 C1275 1.433 . S
C1268 H1264 0.929 . S
C1268 C1270 1.378 . S
C1268 C1272 1.350 . S
C1269 C1272 1.463 . S
C1269 C1274 1.350 . S
C1269 N1277 1.427 . S
C1270 H1261 0.930 . S
C1270 C1268 1.378 . S
C1270 C1271 1.367 . S
C1271 C1270 1.367 . S
C1271 C1273 1.433 . S
C1272 C1268 1.350 . S
C1272 C1269 1.463 . S
C1272 N1276 1.427 . S
C1273 H1263 0.929 . S
C1273 C1271 1.433 . S
C1273 N1276 1.384 . S
C1274 H1265 0.929 . S
C1274 C1266 1.378 . S
C1274 C1269 1.350 . S
C1275 H1262 0.929 . S
C1275 C1267 1.433 . S
C1275 N1277 1.384 . S
N1276 C1272 1.427 . S
N1276 C1273 1.384 . S
N1277 C1269 1.427 . S
N1277 C1275 1.384 . S
H1278 C1284 0.930 . S
H1279 C1288 0.930 . S
H1280 C1293 0.929 . S
H1281 C1291 0.929 1_565 S
H1282 C1286 0.932 . S
H1283 C1292 0.929 . S
C1284 H1278 0.930 . S
C1284 C1285 1.367 . S
C1284 C1292 1.378 . S
C1285 C1284 1.367 . S
C1285 C1293 1.433 . S
C1286 H1282 0.932 . S
C1286 C1288 1.378 . S
C1286 C1290 1.350 1_556 S
C1287 C1290 1.463 . S
C1287 C1292 1.350 . S
C1287 N1295 1.427 . S
C1288 H1279 0.930 . S
C1288 C1286 1.378 . S
C1288 C1289 1.367 . S
C1289 C1288 1.367 . S
C1289 C1291 1.433 . S
C1290 C1286 1.350 1_554 S
C1290 C1287 1.463 . S
C1290 N1294 1.427 1_554 S
C1291 H1281 0.929 1_545 S
C1291 C1289 1.433 . S
C1291 N1294 1.384 . S
C1292 H1283 0.929 . S
C1292 C1284 1.378 . S
C1292 C1287 1.350 . S
C1293 H1280 0.929 . S
C1293 C1285 1.433 . S
C1293 N1295 1.384 . S
N1294 C1290 1.427 1_556 S
N1294 C1291 1.384 . S
N1295 C1287 1.427 . S
N1295 C1293 1.384 . S
H1296 C1302 0.930 . S
H1297 C1306 0.930 . S
H1298 C1311 0.929 . S
H1299 C1309 0.929 . S
H1300 C1304 0.929 . S
H1301 C1310 0.929 . S
C1302 H1296 0.930 . S
C1302 C1303 1.367 . S
C1302 C1310 1.378 . S
C1303 C1302 1.367 . S
C1303 C1311 1.433 . S
C1304 H1300 0.929 . S
C1304 C1306 1.378 . S
C1304 C1308 1.350 . S
C1305 C1308 1.463 . S
C1305 C1310 1.350 . S
C1305 N1313 1.427 . S
C1306 H1297 0.930 . S
C1306 C1304 1.378 . S
C1306 C1307 1.367 . S
C1307 C1306 1.367 . S
C1307 C1309 1.433 . S
C1308 C1304 1.350 . S
C1308 C1305 1.463 . S
C1308 N1312 1.427 . S
C1309 H1299 0.929 . S
C1309 C1307 1.433 . S
C1309 N1312 1.384 . S
C1310 H1301 0.929 . S
C1310 C1302 1.378 . S
C1310 C1305 1.350 . S
C1311 H1298 0.929 . S
C1311 C1303 1.433 . S
C1311 N1313 1.384 . S
N1312 C1308 1.427 . S
N1312 C1309 1.384 . S
N1313 C1305 1.427 . S
N1313 C1311 1.384 . S
H1314 C1320 0.930 . S
H1315 C1324 0.930 . S
H1316 C1329 0.929 . S
H1317 C1327 0.929 . S
H1318 C1322 0.929 . S
H1319 C1328 0.929 . S
C1320 H1314 0.930 . S
C1320 C1321 1.367 . S
C1320 C1328 1.378 1_554 S
C1321 C1320 1.367 . S
C1321 C1329 1.433 . S
C1322 H1318 0.929 . S
C1322 C1324 1.378 . S
C1322 C1326 1.350 . S
C1323 C1326 1.463 . S
C1323 C1328 1.350 . S
C1323 N1331 1.427 1_556 S
C1324 H1315 0.930 . S
C1324 C1322 1.378 . S
C1324 C1325 1.367 . S
C1325 C1324 1.367 . S
C1325 C1327 1.433 . S
C1326 C1322 1.350 . S
C1326 C1323 1.463 . S
C1326 N1330 1.427 . S
C1327 H1317 0.929 . S
C1327 C1325 1.433 . S
C1327 N1330 1.384 . S
C1328 H1319 0.929 . S
C1328 C1320 1.378 1_556 S
C1328 C1323 1.350 . S
C1329 H1316 0.929 . S
C1329 C1321 1.433 . S
C1329 N1331 1.384 . S
N1330 C1326 1.427 . S
N1330 C1327 1.384 . S
N1331 C1323 1.427 1_554 S
N1331 C1329 1.384 . S
H1332 C1338 0.930 . S
H1333 C1342 0.930 . S
H1334 C1347 0.929 . S
H1335 C1345 0.929 . S
H1336 C1340 0.929 . S
H1337 C1346 0.929 . S
C1338 H1332 0.930 . S
C1338 C1339 1.367 . S
C1338 C1346 1.378 . S
C1339 C1338 1.367 . S
C1339 C1347 1.433 . S
C1340 H1336 0.929 . S
C1340 C1342 1.378 . S
C1340 C1344 1.350 . S
C1341 C1344 1.463 . S
C1341 C1346 1.350 . S
C1341 N1349 1.427 . S
C1342 H1333 0.930 . S
C1342 C1340 1.378 . S
C1342 C1343 1.367 . S
C1343 C1342 1.367 . S
C1343 C1345 1.433 . S
C1344 C1340 1.350 . S
C1344 C1341 1.463 . S
C1344 N1348 1.427 . S
C1345 H1335 0.929 . S
C1345 C1343 1.433 . S
C1345 N1348 1.384 . S
C1346 H1337 0.929 . S
C1346 C1338 1.378 . S
C1346 C1341 1.350 . S
C1347 H1334 0.929 . S
C1347 C1339 1.433 . S
C1347 N1349 1.384 . S
N1348 C1344 1.427 . S
N1348 C1345 1.384 . S
N1349 C1341 1.427 . S
N1349 C1347 1.384 . S
H1350 C1356 0.930 . S
H1351 C1360 0.930 . S
H1352 C1365 0.929 . S
H1353 C1363 0.929 . S
H1354 C1358 0.929 . S
H1355 C1364 0.929 . S
C1356 H1350 0.930 . S
C1356 C1357 1.367 . S
C1356 C1364 1.378 . S
C1357 C1356 1.367 . S
C1357 C1365 1.433 . S
C1358 H1354 0.929 . S
C1358 C1360 1.378 . S
C1358 C1362 1.350 . S
C1359 C1362 1.463 . S
C1359 C1364 1.350 . S
C1359 N1367 1.427 . S
C1360 H1351 0.930 . S
C1360 C1358 1.378 . S
C1360 C1361 1.367 . S
C1361 C1360 1.367 . S
C1361 C1363 1.433 . S
C1362 C1358 1.350 . S
C1362 C1359 1.463 . S
C1362 N1366 1.427 . S
C1363 H1353 0.929 . S
C1363 C1361 1.433 . S
C1363 N1366 1.384 . S
C1364 H1355 0.929 . S
C1364 C1356 1.378 . S
C1364 C1359 1.350 . S
C1365 H1352 0.929 . S
C1365 C1357 1.433 . S
C1365 N1367 1.384 . S
N1366 C1362 1.427 . S
N1366 C1363 1.384 . S
N1367 C1359 1.427 . S
N1367 C1365 1.384 . S
H1368 C1374 0.930 . S
H1369 C1378 0.930 . S
H1370 C1383 0.929 . S
H1371 C1381 0.929 . S
H1372 C1376 0.929 . S
H1373 C1382 0.929 . S
C1374 H1368 0.930 . S
C1374 C1375 1.367 . S
C1374 C1382 1.378 . S
C1375 C1374 1.367 . S
C1375 C1383 1.433 . S
C1376 H1372 0.929 . S
C1376 C1378 1.378 . S
C1376 C1380 1.350 . S
C1377 C1380 1.463 . S
C1377 C1382 1.350 . S
C1377 N1385 1.427 . S
C1378 H1369 0.930 . S
C1378 C1376 1.378 . S
C1378 C1379 1.367 . S
C1379 C1378 1.367 . S
C1379 C1381 1.433 . S
C1380 C1376 1.350 . S
C1380 C1377 1.463 . S
C1380 N1384 1.427 . S
C1381 H1371 0.929 . S
C1381 C1379 1.433 . S
C1381 N1384 1.384 . S
C1382 H1373 0.929 . S
C1382 C1374 1.378 . S
C1382 C1377 1.350 . S
C1383 H1370 0.929 . S
C1383 C1375 1.433 . S
C1383 N1385 1.384 . S
N1384 C1380 1.427 . S
N1384 C1381 1.384 . S
N1385 C1377 1.427 . S
N1385 C1383 1.384 . S
H1386 C1392 0.930 . S
H1387 C1396 0.930 . S
H1388 C1401 0.929 . S
H1389 C1399 0.929 . S
H1390 C1394 0.929 1_545 S
H1391 C1400 0.929 . S
C1392 H1386 0.930 . S
C1392 C1393 1.367 . S
C1392 C1400 1.378 . S
C1393 C1392 1.367 . S
C1393 C1401 1.433 . S
C1394 H1390 0.929 1_565 S
C1394 C1396 1.378 . S
C1394 C1398 1.350 1_565 S
C1395 C1398 1.463 . S
C1395 C1400 1.350 . S
C1395 N1403 1.427 . S
C1396 H1387 0.930 . S
C1396 C1394 1.378 . S
C1396 C1397 1.367 . S
C1397 C1396 1.367 . S
C1397 C1399 1.433 . S
C1398 C1394 1.350 1_545 S
C1398 C1395 1.463 . S
C1398 N1402 1.427 1_545 S
C1399 H1389 0.929 . S
C1399 C1397 1.433 . S
C1399 N1402 1.384 . S
C1400 H1391 0.929 . S
C1400 C1392 1.378 . S
C1400 C1395 1.350 . S
C1401 H1388 0.929 . S
C1401 C1393 1.433 . S
C1401 N1403 1.384 . S
N1402 C1398 1.427 1_565 S
N1402 C1399 1.384 . S
N1403 C1395 1.427 . S
N1403 C1401 1.384 . S
H1404 C1410 0.930 . S
H1405 C1414 0.930 . S
H1406 C1419 0.929 . S
H1407 C1417 0.929 . S
H1408 C1412 0.929 . S
H1409 C1418 0.929 . S
C1410 H1404 0.930 . S
C1410 C1411 1.367 . S
C1410 C1418 1.378 . S
C1411 C1410 1.367 . S
C1411 C1419 1.433 . S
C1412 H1408 0.929 . S
C1412 C1414 1.378 . S
C1412 C1416 1.350 . S
C1413 C1416 1.463 . S
C1413 C1418 1.350 . S
C1413 N1421 1.427 . S
C1414 H1405 0.930 . S
C1414 C1412 1.378 . S
C1414 C1415 1.367 . S
C1415 C1414 1.367 . S
C1415 C1417 1.433 . S
C1416 C1412 1.350 . S
C1416 C1413 1.463 . S
C1416 N1420 1.427 . S
C1417 H1407 0.929 . S
C1417 C1415 1.433 . S
C1417 N1420 1.384 . S
C1418 H1409 0.929 . S
C1418 C1410 1.378 . S
C1418 C1413 1.350 . S
C1419 H1406 0.929 . S
C1419 C1411 1.433 . S
C1419 N1421 1.384 . S
N1420 C1416 1.427 . S
N1420 C1417 1.384 . S
N1421 C1413 1.427 . S
N1421 C1419 1.384 . S
H1422 C1428 0.930 . S
H1423 C1432 0.930 . S
H1424 C1437 0.929 . S
H1425 C1435 0.929 . S
H1426 C1430 0.929 . S
H1427 C1436 0.929 1_565 S
C1428 H1422 0.930 . S
C1428 C1429 1.367 . S
C1428 C1436 1.378 . S
C1429 C1428 1.367 . S
C1429 C1437 1.433 . S
C1430 H1426 0.929 . S
C1430 C1432 1.378 . S
C1430 C1434 1.350 . S
C1431 C1434 1.463 . S
C1431 C1436 1.350 1_565 S
C1431 N1439 1.427 1_565 S
C1432 H1423 0.930 . S
C1432 C1430 1.378 . S
C1432 C1433 1.367 . S
C1433 C1432 1.367 . S
C1433 C1435 1.433 . S
C1434 C1430 1.350 . S
C1434 C1431 1.463 . S
C1434 N1438 1.427 . S
C1435 H1425 0.929 . S
C1435 C1433 1.433 . S
C1435 N1438 1.384 . S
C1436 H1427 0.929 1_545 S
C1436 C1428 1.378 . S
C1436 C1431 1.350 1_545 S
C1437 H1424 0.929 . S
C1437 C1429 1.433 . S
C1437 N1439 1.384 . S
N1438 C1434 1.427 . S
N1438 C1435 1.384 . S
N1439 C1431 1.427 1_545 S
N1439 C1437 1.384 . S
H1440 C1446 0.930 . S
H1441 C1450 0.930 . S
H1442 C1455 0.929 . S
H1443 C1453 0.929 . S
H1444 C1448 0.929 . S
H1445 C1454 0.929 . S
C1446 H1440 0.930 . S
C1446 C1447 1.367 . S
C1446 C1454 1.378 . S
C1447 C1446 1.367 . S
C1447 C1455 1.433 . S
C1448 H1444 0.929 . S
C1448 C1450 1.378 . S
C1448 C1452 1.350 . S
C1449 C1452 1.463 . S
C1449 C1454 1.350 . S
C1449 N1457 1.427 . S
C1450 H1441 0.930 . S
C1450 C1448 1.378 . S
C1450 C1451 1.367 . S
C1451 C1450 1.367 . S
C1451 C1453 1.433 . S
C1452 C1448 1.350 . S
C1452 C1449 1.463 . S
C1452 N1456 1.427 . S
C1453 H1443 0.929 . S
C1453 C1451 1.433 . S
C1453 N1456 1.384 . S
C1454 H1445 0.929 . S
C1454 C1446 1.378 . S
C1454 C1449 1.350 . S
C1455 H1442 0.929 . S
C1455 C1447 1.433 . S
C1455 N1457 1.384 . S
N1456 C1452 1.427 . S
N1456 C1453 1.384 . S
N1457 C1449 1.427 . S
N1457 C1455 1.384 . S
H1458 C1464 0.930 . S
H1459 C1468 0.930 . S
H1460 C1473 0.929 1_455 S
H1461 C1471 0.929 . S
H1462 C1466 0.929 . S
H1463 C1472 0.929 . S
C1464 H1458 0.930 . S
C1464 C1465 1.367 . S
C1464 C1472 1.378 . S
C1465 C1464 1.367 . S
C1465 C1473 1.433 . S
C1466 H1462 0.929 . S
C1466 C1468 1.378 . S
C1466 C1470 1.350 . S
C1467 C1470 1.463 . S
C1467 C1472 1.350 . S
C1467 N1475 1.427 . S
C1468 H1459 0.930 . S
C1468 C1466 1.378 . S
C1468 C1469 1.367 . S
C1469 C1468 1.367 . S
C1469 C1471 1.433 . S
C1470 C1466 1.350 . S
C1470 C1467 1.463 . S
C1470 N1474 1.427 . S
C1471 H1461 0.929 . S
C1471 C1469 1.433 . S
C1471 N1474 1.384 . S
C1472 H1463 0.929 . S
C1472 C1464 1.378 . S
C1472 C1467 1.350 . S
C1473 H1460 0.929 1_655 S
C1473 C1465 1.433 . S
C1473 N1475 1.384 . S
N1474 C1470 1.427 . S
N1474 C1471 1.384 . S
N1475 C1467 1.427 . S
N1475 C1473 1.384 . S
H1476 C1482 0.930 . S
H1477 C1486 0.930 . S
H1478 C1491 0.929 . S
H1479 C1489 0.929 . S
H1480 C1484 0.929 . S
H1481 C1490 0.929 . S
C1482 H1476 0.930 . S
C1482 C1483 1.367 . S
C1482 C1490 1.378 . S
C1483 C1482 1.367 . S
C1483 C1491 1.433 . S
C1484 H1480 0.929 . S
C1484 C1486 1.378 . S
C1484 C1488 1.350 . S
C1485 C1488 1.463 . S
C1485 C1490 1.350 . S
C1485 N1493 1.427 . S
C1486 H1477 0.930 . S
C1486 C1484 1.378 . S
C1486 C1487 1.367 . S
C1487 C1486 1.367 . S
C1487 C1489 1.433 . S
C1488 C1484 1.350 . S
C1488 C1485 1.463 . S
C1488 N1492 1.427 . S
C1489 H1479 0.929 . S
C1489 C1487 1.433 . S
C1489 N1492 1.384 . S
C1490 H1481 0.929 . S
C1490 C1482 1.378 . S
C1490 C1485 1.350 . S
C1491 H1478 0.929 . S
C1491 C1483 1.433 . S
C1491 N1493 1.384 . S
N1492 C1488 1.427 . S
N1492 C1489 1.384 . S
N1493 C1485 1.427 . S
N1493 C1491 1.384 . S
H1494 C1500 0.930 . S
H1495 C1504 0.930 . S
H1496 C1509 0.929 . S
H1497 C1507 0.929 . S
H1498 C1502 0.929 . S
H1499 C1508 0.929 . S
C1500 H1494 0.930 . S
C1500 C1501 1.367 . S
C1500 C1508 1.378 . S
C1501 C1500 1.367 . S
C1501 C1509 1.433 . S
C1502 H1498 0.929 . S
C1502 C1504 1.378 . S
C1502 C1506 1.350 . S
C1503 C1506 1.463 . S
C1503 C1508 1.350 . S
C1503 N1511 1.427 . S
C1504 H1495 0.930 . S
C1504 C1502 1.378 . S
C1504 C1505 1.367 . S
C1505 C1504 1.367 . S
C1505 C1507 1.433 . S
C1506 C1502 1.350 . S
C1506 C1503 1.463 . S
C1506 N1510 1.427 . S
C1507 H1497 0.929 . S
C1507 C1505 1.433 . S
C1507 N1510 1.384 . S
C1508 H1499 0.929 . S
C1508 C1500 1.378 . S
C1508 C1503 1.350 . S
C1509 H1496 0.929 . S
C1509 C1501 1.433 . S
C1509 N1511 1.384 . S
N1510 C1506 1.427 . S
N1510 C1507 1.384 . S
N1511 C1503 1.427 . S
N1511 C1509 1.384 . S
H1512 C1518 0.930 . S
H1513 C1522 0.930 . S
H1514 C1527 0.929 . S
H1515 C1525 0.929 . S
H1516 C1520 0.929 . S
H1517 C1526 0.929 . S
C1518 H1512 0.930 . S
C1518 C1519 1.367 . S
C1518 C1526 1.378 . S
C1519 C1518 1.367 . S
C1519 C1527 1.433 . S
C1520 H1516 0.929 . S
C1520 C1522 1.378 . S
C1520 C1524 1.350 . S
C1521 C1524 1.463 . S
C1521 C1526 1.350 . S
C1521 N1529 1.427 . S
C1522 H1513 0.930 . S
C1522 C1520 1.378 . S
C1522 C1523 1.367 . S
C1523 C1522 1.367 . S
C1523 C1525 1.433 . S
C1524 C1520 1.350 . S
C1524 C1521 1.463 . S
C1524 N1528 1.427 . S
C1525 H1515 0.929 . S
C1525 C1523 1.433 . S
C1525 N1528 1.384 . S
C1526 H1517 0.929 . S
C1526 C1518 1.378 . S
C1526 C1521 1.350 . S
C1527 H1514 0.929 . S
C1527 C1519 1.433 . S
C1527 N1529 1.384 . S
N1528 C1524 1.427 . S
N1528 C1525 1.384 . S
N1529 C1521 1.427 . S
N1529 C1527 1.384 . S
H1530 C1536 0.930 . S
H1531 C1540 0.930 . S
H1532 C1545 0.929 . S
H1533 C1543 0.929 . S
H1534 C1538 0.929 . S
H1535 C1544 0.929 . S
C1536 H1530 0.930 . S
C1536 C1537 1.367 . S
C1536 C1544 1.378 . S
C1537 C1536 1.367 . S
C1537 C1545 1.433 . S
C1538 H1534 0.929 . S
C1538 C1540 1.378 . S
C1538 C1542 1.350 . S
C1539 C1542 1.463 . S
C1539 C1544 1.350 . S
C1539 N1547 1.427 . S
C1540 H1531 0.930 . S
C1540 C1538 1.378 . S
C1540 C1541 1.367 . S
C1541 C1540 1.367 . S
C1541 C1543 1.433 . S
C1542 C1538 1.350 . S
C1542 C1539 1.463 . S
C1542 N1546 1.427 . S
C1543 H1533 0.929 . S
C1543 C1541 1.433 . S
C1543 N1546 1.384 . S
C1544 H1535 0.929 . S
C1544 C1536 1.378 . S
C1544 C1539 1.350 . S
C1545 H1532 0.929 . S
C1545 C1537 1.433 . S
C1545 N1547 1.384 . S
N1546 C1542 1.427 . S
N1546 C1543 1.384 . S
N1547 C1539 1.427 . S
N1547 C1545 1.384 . S
H1548 C1554 0.930 . S
H1549 C1558 0.930 1_556 S
H1550 C1563 0.929 . S
H1551 C1561 0.929 . S
H1552 C1556 0.929 . S
H1553 C1562 0.929 . S
C1554 H1548 0.930 . S
C1554 C1555 1.367 . S
C1554 C1562 1.378 . S
C1555 C1554 1.367 . S
C1555 C1563 1.433 . S
C1556 H1552 0.929 . S
C1556 C1558 1.378 1_455 S
C1556 C1560 1.350 . S
C1557 C1560 1.463 . S
C1557 C1562 1.350 . S
C1557 N1565 1.427 . S
C1558 H1549 0.930 1_554 S
C1558 C1556 1.378 1_655 S
C1558 C1559 1.367 . S
C1559 C1558 1.367 . S
C1559 C1561 1.433 . S
C1560 C1556 1.350 . S
C1560 C1557 1.463 . S
C1560 N1564 1.427 1_455 S
C1561 H1551 0.929 . S
C1561 C1559 1.433 . S
C1561 N1564 1.384 . S
C1562 H1553 0.929 . S
C1562 C1554 1.378 . S
C1562 C1557 1.350 . S
C1563 H1550 0.929 . S
C1563 C1555 1.433 . S
C1563 N1565 1.384 . S
N1564 C1560 1.427 1_655 S
N1564 C1561 1.384 . S
N1565 C1557 1.427 . S
N1565 C1563 1.384 . S
H1566 C1572 0.930 . S
H1567 C1576 0.930 . S
H1568 C1581 0.929 . S
H1569 C1579 0.929 . S
H1570 C1574 0.929 . S
H1571 C1580 0.929 . S
C1572 H1566 0.930 . S
C1572 C1573 1.367 . S
C1572 C1580 1.378 . S
C1573 C1572 1.367 . S
C1573 C1581 1.433 . S
C1574 H1570 0.929 . S
C1574 C1576 1.378 . S
C1574 C1578 1.350 . S
C1575 C1578 1.463 . S
C1575 C1580 1.350 . S
C1575 N1583 1.427 . S
C1576 H1567 0.930 . S
C1576 C1574 1.378 . S
C1576 C1577 1.367 . S
C1577 C1576 1.367 . S
C1577 C1579 1.433 . S
C1578 C1574 1.350 . S
C1578 C1575 1.463 . S
C1578 N1582 1.427 . S
C1579 H1569 0.929 . S
C1579 C1577 1.433 . S
C1579 N1582 1.384 . S
C1580 H1571 0.929 . S
C1580 C1572 1.378 . S
C1580 C1575 1.350 . S
C1581 H1568 0.929 . S
C1581 C1573 1.433 . S
C1581 N1583 1.384 . S
N1582 C1578 1.427 . S
N1582 C1579 1.384 . S
N1583 C1575 1.427 . S
N1583 C1581 1.384 . S
H1584 C1590 0.930 . S
H1585 C1594 0.930 . S
H1586 C1599 0.929 . S
H1587 C1597 0.929 . S
H1588 C1592 0.929 . S
H1589 C1598 0.929 . S
C1590 H1584 0.930 . S
C1590 C1591 1.367 . S
C1590 C1598 1.378 . S
C1591 C1590 1.367 . S
C1591 C1599 1.433 . S
C1592 H1588 0.929 . S
C1592 C1594 1.378 . S
C1592 C1596 1.350 . S
C1593 C1596 1.463 . S
C1593 C1598 1.350 . S
C1593 N1601 1.427 . S
C1594 H1585 0.930 . S
C1594 C1592 1.378 . S
C1594 C1595 1.367 . S
C1595 C1594 1.367 . S
C1595 C1597 1.433 . S
C1596 C1592 1.350 . S
C1596 C1593 1.463 . S
C1596 N1600 1.427 . S
C1597 H1587 0.929 . S
C1597 C1595 1.433 . S
C1597 N1600 1.384 . S
C1598 H1589 0.929 . S
C1598 C1590 1.378 . S
C1598 C1593 1.350 . S
C1599 H1586 0.929 . S
C1599 C1591 1.433 . S
C1599 N1601 1.384 . S
N1600 C1596 1.427 . S
N1600 C1597 1.384 . S
N1601 C1593 1.427 . S
N1601 C1599 1.384 . S
H1602 C1608 0.930 . S
H1603 C1612 0.930 . S
H1604 C1617 0.929 . S
H1605 C1615 0.929 . S
H1606 C1610 0.929 . S
H1607 C1616 0.929 . S
C1608 H1602 0.930 . S
C1608 C1609 1.367 . S
C1608 C1616 1.378 . S
C1609 C1608 1.367 . S
C1609 C1617 1.433 . S
C1610 H1606 0.929 . S
C1610 C1612 1.378 . S
C1610 C1614 1.350 . S
C1611 C1614 1.463 . S
C1611 C1616 1.350 . S
C1611 N1619 1.427 . S
C1612 H1603 0.930 . S
C1612 C1610 1.378 . S
C1612 C1613 1.367 . S
C1613 C1612 1.367 . S
C1613 C1615 1.433 . S
C1614 C1610 1.350 . S
C1614 C1611 1.463 . S
C1614 N1618 1.427 . S
C1615 H1605 0.929 . S
C1615 C1613 1.433 . S
C1615 N1618 1.384 . S
C1616 H1607 0.929 . S
C1616 C1608 1.378 . S
C1616 C1611 1.350 . S
C1617 H1604 0.929 . S
C1617 C1609 1.433 . S
C1617 N1619 1.384 . S
N1618 C1614 1.427 . S
N1618 C1615 1.384 . S
N1619 C1611 1.427 . S
N1619 C1617 1.384 . S
H1620 C1626 0.930 1_554 S
H1621 C1630 0.930 . S
H1622 C1635 0.929 . S
H1623 C1633 0.929 . S
H1624 C1628 0.929 . S
H1625 C1634 0.929 . S
C1626 H1620 0.930 1_556 S
C1626 C1627 1.367 . S
C1626 C1634 1.378 . S
C1627 C1626 1.367 . S
C1627 C1635 1.433 . S
C1628 H1624 0.929 . S
C1628 C1630 1.378 . S
C1628 C1632 1.350 . S
C1629 C1632 1.463 . S
C1629 C1634 1.350 . S
C1629 N1637 1.427 . S
C1630 H1621 0.930 . S
C1630 C1628 1.378 . S
C1630 C1631 1.367 . S
C1631 C1630 1.367 . S
C1631 C1633 1.433 . S
C1632 C1628 1.350 . S
C1632 C1629 1.463 . S
C1632 N1636 1.427 . S
C1633 H1623 0.929 . S
C1633 C1631 1.433 . S
C1633 N1636 1.384 . S
C1634 H1625 0.929 . S
C1634 C1626 1.378 . S
C1634 C1629 1.350 . S
C1635 H1622 0.929 . S
C1635 C1627 1.433 . S
C1635 N1637 1.384 . S
N1636 C1632 1.427 . S
N1636 C1633 1.384 . S
N1637 C1629 1.427 . S
N1637 C1635 1.384 . S
H1638 C1644 0.930 . S
H1639 C1648 0.930 . S
H1640 C1653 0.929 . S
H1641 C1651 0.929 . S
H1642 C1646 0.908 1_655 S
H1643 C1652 0.929 . S
C1644 H1638 0.930 . S
C1644 C1645 1.367 . S
C1644 C1652 1.378 . S
C1645 C1644 1.367 . S
C1645 C1653 1.433 . S
C1646 H1642 0.908 1_455 S
C1646 C1648 1.402 . S
C1646 C1650 1.346 1_455 S
C1647 C1650 1.463 . S
C1647 C1652 1.350 . S
C1647 N1655 1.427 . S
C1648 H1639 0.930 . S
C1648 C1646 1.402 . S
C1648 C1649 1.367 . S
C1649 C1648 1.367 . S
C1649 C1651 1.433 . S
C1650 C1646 1.346 1_655 S
C1650 C1647 1.463 . S
C1650 N1654 1.427 1_655 S
C1651 H1641 0.929 . S
C1651 C1649 1.433 . S
C1651 N1654 1.384 . S
C1652 H1643 0.929 . S
C1652 C1644 1.378 . S
C1652 C1647 1.350 . S
C1653 H1640 0.929 . S
C1653 C1645 1.433 . S
C1653 N1655 1.384 . S
N1654 C1650 1.427 1_455 S
N1654 C1651 1.384 . S
N1655 C1647 1.427 . S
N1655 C1653 1.384 . S
C1015 C67 1.561 . S
C1019 C987 1.613 . S
C1033 C819 1.555 . S
C1037 C147 1.587 . S
C1051 C231 1.493 . S
C1055 C735 1.506 . S
C1069 C315 1.537 . S
C1073 C903 1.539 . S
C1087 C399 1.667 . S
C1091 C907 1.621 . S
C1105 C487 1.652 . S
C1109 C991 1.648 . S
C1123 C823 1.584 . S
C1127 C567 1.619 . S
C1141 C651 1.581 . S
C1145 C739 1.536 . S
C1159 C319 1.646 . S
C1163 C403 1.653 . S
C1177 C63 1.557 . S
C1181 C483 1.569 . S
C1195 C151 1.637 1_655 S
C1199 C571 1.653 . S
C1213 C655 1.647 . S
C1217 C235 1.650 . S
C1231 C70 1.647 . S
C1235 C746 1.784 . S
C1249 C142 1.433 . S
C1253 C914 1.619 . S
C1267 C998 1.690 . S
C1271 C226 1.461 . S
C1285 C310 1.509 . S
C1289 C830 1.721 . S
C1303 C394 1.475 . S
C1307 C812 1.705 . S
C1321 C728 1.864 . S
C1325 C490 1.713 . S
C1339 C896 1.805 . S
C1343 C562 1.578 . S
C1357 C980 1.762 . S
C1361 C646 1.521 . S
C1375 C74 1.785 . S
C1379 C322 1.660 . S
C1393 C58 1.587 . S
C1397 C140 1.823 . S
C1411 C154 1.742 . S
C1415 C224 1.895 . S
C1429 C308 1.865 . S
C1433 C238 1.719 . S
C1447 C478 1.486 . S
C1451 C392 1.697 . S
C1465 C494 1.649 . S
C1469 C574 1.550 . S
C1483 C560 1.730 . S
C1487 C658 1.594 . S
C1501 C406 1.619 . S
C1505 C644 1.760 . S
C1519 C742 1.583 . S
C1523 C326 1.719 . S
C1537 C476 1.752 . S
C1541 C814 1.530 . S
C1555 C730 1.472 . S
C1559 C578 1.708 . S
C1573 C898 1.432 . S
C1577 C662 1.629 . S
C1591 C410 1.622 . S
C1595 C982 1.402 . S
C1609 C994 1.520 . S
C1613 C158 1.623 . S
C1627 C242 1.647 . S
C1631 C826 1.517 . S
C1645 C910 1.625 . S
C1649 C56 1.764 . S
