# Generated by pormake.
# Topology wip, (6)-cn, num edge types: 1
# Building blocks:
#     Node 0, Type 0, BuildingBlock: CUKXOW_clean_sbu_0, # of connection points: 6
#     Node 1, Type 0, BuildingBlock: CUKXOW_clean_sbu_0, # of connection points: 6
#     Node 2, Type 0, BuildingBlock: CUKXOW_clean_sbu_0, # of connection points: 6
#     Node 3, Type 0, BuildingBlock: CUKXOW_clean_sbu_0, # of connection points: 6
#     Node 4, Type 0, BuildingBlock: CUKXOW_clean_sbu_0, # of connection points: 6
#     Node 5, Type 0, BuildingBlock: CUKXOW_clean_sbu_0, # of connection points: 6
#     Node 6, Type 0, BuildingBlock: CUKXOW_clean_sbu_0, # of connection points: 6
#     Node 7, Type 0, BuildingBlock: CUKXOW_clean_sbu_0, # of connection points: 6
#     Node 8, Type 0, BuildingBlock: CUKXOW_clean_sbu_0, # of connection points: 6
#     Node 9, Type 0, BuildingBlock: CUKXOW_clean_sbu_0, # of connection points: 6
#     Node 10, Type 0, BuildingBlock: CUKXOW_clean_sbu_0, # of connection points: 6
#     Node 11, Type 0, BuildingBlock: CUKXOW_clean_sbu_0, # of connection points: 6
#     Node 12, Type 0, BuildingBlock: CUKXOW_clean_sbu_0, # of connection points: 6
#     Node 13, Type 0, BuildingBlock: CUKXOW_clean_sbu_0, # of connection points: 6
#     Node 14, Type 0, BuildingBlock: CUKXOW_clean_sbu_0, # of connection points: 6
#     Node 15, Type 0, BuildingBlock: CUKXOW_clean_sbu_0, # of connection points: 6
#     Node 16, Type 0, BuildingBlock: CUKXOW_clean_sbu_0, # of connection points: 6
#     Node 17, Type 0, BuildingBlock: CUKXOW_clean_sbu_0, # of connection points: 6
#     Node 18, Type 0, BuildingBlock: CUKXOW_clean_sbu_0, # of connection points: 6
#     Node 19, Type 0, BuildingBlock: CUKXOW_clean_sbu_0, # of connection points: 6
#     Node 20, Type 0, BuildingBlock: CUKXOW_clean_sbu_0, # of connection points: 6
#     Node 21, Type 0, BuildingBlock: CUKXOW_clean_sbu_0, # of connection points: 6
#     Node 22, Type 0, BuildingBlock: CUKXOW_clean_sbu_0, # of connection points: 6
#     Node 23, Type 0, BuildingBlock: CUKXOW_clean_sbu_0, # of connection points: 6
#     Node 24, Type 0, BuildingBlock: CUKXOW_clean_sbu_0, # of connection points: 6
#     Node 25, Type 0, BuildingBlock: CUKXOW_clean_sbu_0, # of connection points: 6
#     Node 26, Type 0, BuildingBlock: CUKXOW_clean_sbu_0, # of connection points: 6
#     Node 27, Type 0, BuildingBlock: CUKXOW_clean_sbu_0, # of connection points: 6
#     Node 28, Type 0, BuildingBlock: CUKXOW_clean_sbu_0, # of connection points: 6
#     Node 29, Type 0, BuildingBlock: CUKXOW_clean_sbu_0, # of connection points: 6
#     Node 30, Type 0, BuildingBlock: CUKXOW_clean_sbu_0, # of connection points: 6
#     Node 31, Type 0, BuildingBlock: CUKXOW_clean_sbu_0, # of connection points: 6
#     Edge 32, Type (0, 0), BuildingBlock: CIFDUS_clean_linker_0, # of connection points: 2
#     Edge 33, Type (0, 0), BuildingBlock: CIFDUS_clean_linker_0, # of connection points: 2
#     Edge 34, Type (0, 0), BuildingBlock: CIFDUS_clean_linker_0, # of connection points: 2
#     Edge 35, Type (0, 0), BuildingBlock: CIFDUS_clean_linker_0, # of connection points: 2
#     Edge 36, Type (0, 0), BuildingBlock: CIFDUS_clean_linker_0, # of connection points: 2
#     Edge 37, Type (0, 0), BuildingBlock: CIFDUS_clean_linker_0, # of connection points: 2
#     Edge 38, Type (0, 0), BuildingBlock: CIFDUS_clean_linker_0, # of connection points: 2
#     Edge 39, Type (0, 0), BuildingBlock: CIFDUS_clean_linker_0, # of connection points: 2
#     Edge 40, Type (0, 0), BuildingBlock: CIFDUS_clean_linker_0, # of connection points: 2
#     Edge 41, Type (0, 0), BuildingBlock: CIFDUS_clean_linker_0, # of connection points: 2
#     Edge 42, Type (0, 0), BuildingBlock: CIFDUS_clean_linker_0, # of connection points: 2
#     Edge 43, Type (0, 0), BuildingBlock: CIFDUS_clean_linker_0, # of connection points: 2
#     Edge 44, Type (0, 0), BuildingBlock: CIFDUS_clean_linker_0, # of connection points: 2
#     Edge 45, Type (0, 0), BuildingBlock: CIFDUS_clean_linker_0, # of connection points: 2
#     Edge 46, Type (0, 0), BuildingBlock: CIFDUS_clean_linker_0, # of connection points: 2
#     Edge 47, Type (0, 0), BuildingBlock: CIFDUS_clean_linker_0, # of connection points: 2
#     Edge 48, Type (0, 0), BuildingBlock: CIFDUS_clean_linker_0, # of connection points: 2
#     Edge 49, Type (0, 0), BuildingBlock: CIFDUS_clean_linker_0, # of connection points: 2
#     Edge 50, Type (0, 0), BuildingBlock: CIFDUS_clean_linker_0, # of connection points: 2
#     Edge 51, Type (0, 0), BuildingBlock: CIFDUS_clean_linker_0, # of connection points: 2
#     Edge 52, Type (0, 0), BuildingBlock: CIFDUS_clean_linker_0, # of connection points: 2
#     Edge 53, Type (0, 0), BuildingBlock: CIFDUS_clean_linker_0, # of connection points: 2
#     Edge 54, Type (0, 0), BuildingBlock: CIFDUS_clean_linker_0, # of connection points: 2
#     Edge 55, Type (0, 0), BuildingBlock: CIFDUS_clean_linker_0, # of connection points: 2
#     Edge 56, Type (0, 0), BuildingBlock: CIFDUS_clean_linker_0, # of connection points: 2
#     Edge 57, Type (0, 0), BuildingBlock: CIFDUS_clean_linker_0, # of connection points: 2
#     Edge 58, Type (0, 0), BuildingBlock: CIFDUS_clean_linker_0, # of connection points: 2
#     Edge 59, Type (0, 0), BuildingBlock: CIFDUS_clean_linker_0, # of connection points: 2
#     Edge 60, Type (0, 0), BuildingBlock: CIFDUS_clean_linker_0, # of connection points: 2
#     Edge 61, Type (0, 0), BuildingBlock: CIFDUS_clean_linker_0, # of connection points: 2
#     Edge 62, Type (0, 0), BuildingBlock: CIFDUS_clean_linker_0, # of connection points: 2
#     Edge 63, Type (0, 0), BuildingBlock: CIFDUS_clean_linker_0, # of connection points: 2
#     Edge 64, Type (0, 0), BuildingBlock: CIFDUS_clean_linker_0, # of connection points: 2
#     Edge 65, Type (0, 0), BuildingBlock: CIFDUS_clean_linker_0, # of connection points: 2
#     Edge 66, Type (0, 0), BuildingBlock: CIFDUS_clean_linker_0, # of connection points: 2
#     Edge 67, Type (0, 0), BuildingBlock: CIFDUS_clean_linker_0, # of connection points: 2
#     Edge 68, Type (0, 0), BuildingBlock: CIFDUS_clean_linker_0, # of connection points: 2
#     Edge 69, Type (0, 0), BuildingBlock: CIFDUS_clean_linker_0, # of connection points: 2
#     Edge 70, Type (0, 0), BuildingBlock: CIFDUS_clean_linker_0, # of connection points: 2
#     Edge 71, Type (0, 0), BuildingBlock: CIFDUS_clean_linker_0, # of connection points: 2
#     Edge 72, Type (0, 0), BuildingBlock: CIFDUS_clean_linker_0, # of connection points: 2
#     Edge 73, Type (0, 0), BuildingBlock: CIFDUS_clean_linker_0, # of connection points: 2
#     Edge 74, Type (0, 0), BuildingBlock: CIFDUS_clean_linker_0, # of connection points: 2
#     Edge 75, Type (0, 0), BuildingBlock: CIFDUS_clean_linker_0, # of connection points: 2
#     Edge 76, Type (0, 0), BuildingBlock: CIFDUS_clean_linker_0, # of connection points: 2
#     Edge 77, Type (0, 0), BuildingBlock: CIFDUS_clean_linker_0, # of connection points: 2
#     Edge 78, Type (0, 0), BuildingBlock: CIFDUS_clean_linker_0, # of connection points: 2
#     Edge 79, Type (0, 0), BuildingBlock: CIFDUS_clean_linker_0, # of connection points: 2
#     Edge 80, Type (0, 0), BuildingBlock: CIFDUS_clean_linker_0, # of connection points: 2
#     Edge 81, Type (0, 0), BuildingBlock: CIFDUS_clean_linker_0, # of connection points: 2
#     Edge 82, Type (0, 0), BuildingBlock: CIFDUS_clean_linker_0, # of connection points: 2
#     Edge 83, Type (0, 0), BuildingBlock: CIFDUS_clean_linker_0, # of connection points: 2
#     Edge 84, Type (0, 0), BuildingBlock: CIFDUS_clean_linker_0, # of connection points: 2
#     Edge 85, Type (0, 0), BuildingBlock: CIFDUS_clean_linker_0, # of connection points: 2
#     Edge 86, Type (0, 0), BuildingBlock: CIFDUS_clean_linker_0, # of connection points: 2
#     Edge 87, Type (0, 0), BuildingBlock: CIFDUS_clean_linker_0, # of connection points: 2
#     Edge 88, Type (0, 0), BuildingBlock: CIFDUS_clean_linker_0, # of connection points: 2
#     Edge 89, Type (0, 0), BuildingBlock: CIFDUS_clean_linker_0, # of connection points: 2
#     Edge 90, Type (0, 0), BuildingBlock: CIFDUS_clean_linker_0, # of connection points: 2
#     Edge 91, Type (0, 0), BuildingBlock: CIFDUS_clean_linker_0, # of connection points: 2
#     Edge 92, Type (0, 0), BuildingBlock: CIFDUS_clean_linker_0, # of connection points: 2
#     Edge 93, Type (0, 0), BuildingBlock: CIFDUS_clean_linker_0, # of connection points: 2
#     Edge 94, Type (0, 0), BuildingBlock: CIFDUS_clean_linker_0, # of connection points: 2
#     Edge 95, Type (0, 0), BuildingBlock: CIFDUS_clean_linker_0, # of connection points: 2
#     Edge 96, Type (0, 0), BuildingBlock: CIFDUS_clean_linker_0, # of connection points: 2
#     Edge 97, Type (0, 0), BuildingBlock: CIFDUS_clean_linker_0, # of connection points: 2
#     Edge 98, Type (0, 0), BuildingBlock: CIFDUS_clean_linker_0, # of connection points: 2
#     Edge 99, Type (0, 0), BuildingBlock: CIFDUS_clean_linker_0, # of connection points: 2
#     Edge 100, Type (0, 0), BuildingBlock: CIFDUS_clean_linker_0, # of connection points: 2
#     Edge 101, Type (0, 0), BuildingBlock: CIFDUS_clean_linker_0, # of connection points: 2
#     Edge 102, Type (0, 0), BuildingBlock: CIFDUS_clean_linker_0, # of connection points: 2
#     Edge 103, Type (0, 0), BuildingBlock: CIFDUS_clean_linker_0, # of connection points: 2
#     Edge 104, Type (0, 0), BuildingBlock: CIFDUS_clean_linker_0, # of connection points: 2
#     Edge 105, Type (0, 0), BuildingBlock: CIFDUS_clean_linker_0, # of connection points: 2
#     Edge 106, Type (0, 0), BuildingBlock: CIFDUS_clean_linker_0, # of connection points: 2
#     Edge 107, Type (0, 0), BuildingBlock: CIFDUS_clean_linker_0, # of connection points: 2
#     Edge 108, Type (0, 0), BuildingBlock: CIFDUS_clean_linker_0, # of connection points: 2
#     Edge 109, Type (0, 0), BuildingBlock: CIFDUS_clean_linker_0, # of connection points: 2
#     Edge 110, Type (0, 0), BuildingBlock: CIFDUS_clean_linker_0, # of connection points: 2
#     Edge 111, Type (0, 0), BuildingBlock: CIFDUS_clean_linker_0, # of connection points: 2
#     Edge 112, Type (0, 0), BuildingBlock: CIFDUS_clean_linker_0, # of connection points: 2
#     Edge 113, Type (0, 0), BuildingBlock: CIFDUS_clean_linker_0, # of connection points: 2
#     Edge 114, Type (0, 0), BuildingBlock: CIFDUS_clean_linker_0, # of connection points: 2
#     Edge 115, Type (0, 0), BuildingBlock: CIFDUS_clean_linker_0, # of connection points: 2
#     Edge 116, Type (0, 0), BuildingBlock: CIFDUS_clean_linker_0, # of connection points: 2
#     Edge 117, Type (0, 0), BuildingBlock: CIFDUS_clean_linker_0, # of connection points: 2
#     Edge 118, Type (0, 0), BuildingBlock: CIFDUS_clean_linker_0, # of connection points: 2
#     Edge 119, Type (0, 0), BuildingBlock: CIFDUS_clean_linker_0, # of connection points: 2
#     Edge 120, Type (0, 0), BuildingBlock: CIFDUS_clean_linker_0, # of connection points: 2
#     Edge 121, Type (0, 0), BuildingBlock: CIFDUS_clean_linker_0, # of connection points: 2
#     Edge 122, Type (0, 0), BuildingBlock: CIFDUS_clean_linker_0, # of connection points: 2
#     Edge 123, Type (0, 0), BuildingBlock: CIFDUS_clean_linker_0, # of connection points: 2
#     Edge 124, Type (0, 0), BuildingBlock: CIFDUS_clean_linker_0, # of connection points: 2
#     Edge 125, Type (0, 0), BuildingBlock: CIFDUS_clean_linker_0, # of connection points: 2
#     Edge 126, Type (0, 0), BuildingBlock: CIFDUS_clean_linker_0, # of connection points: 2
#     Edge 127, Type (0, 0), BuildingBlock: CIFDUS_clean_linker_0, # of connection points: 2
# Relax obj value: 0.223
# Max RMSD: 0.184
# Mean RMSD: 0.177
data_MOF--net-wip--node1-CUKXOW_clean_sbu_0--edge1-CIFDUS_clean_linker_0
_symmetry_space_group_name_H-M    P1
_symmetry_Int_Tables_number       1
_symmetry_cell_setting            triclinic
loop_
_symmetry_equiv_pos_as_xyz
'x, y, z'
_cell_length_a     50.362178
_cell_length_b     66.33293
_cell_length_c     24.21281
_cell_angle_alpha  87.663989
_cell_angle_beta   90.159895
_cell_angle_gamma 89.994768
loop_
_atom_site_label
_atom_site_type_symbol
_atom_site_fract_x
_atom_site_fract_y
_atom_site_fract_z
_atom_type_partial_charge
Tb0 Tb 0.09918 0.47529 0.18718 0.0
C1 C 0.05929 0.50308 0.12379 0.0
Tb2 Tb 0.06649 0.45841 0.09043 0.0
O3 O 0.12317 0.49435 0.12994 0.0
O4 O 0.10597 0.4679 0.10403 0.0
O5 O 0.06926 0.49781 0.17291 0.0
C6 C 0.04041 0.45535 0.99306 0.0
O7 O 0.06194 0.49124 0.08147 0.0
C8 C 0.04641 0.45086 0.1903 0.0
C9 C 0.10632 0.42918 0.15593 0.0
O10 O 0.03065 0.46152 0.03887 0.0
O11 O 0.06504 0.45011 1.00235 0.0
O12 O 0.04228 0.43988 0.14781 0.0
O13 O 0.05895 0.46652 0.17377 0.0
O14 O 0.09113 0.43178 0.11075 0.0
O15 O 0.11173 0.44388 0.18998 0.0
C16 C 0.11292 0.48312 0.2918 0.0
O17 O 0.10174 0.46677 0.27549 0.0
O18 O 0.11749 0.49485 0.24854 0.0
C19 C 0.11799 0.48365 0.08731 0.0
Tb20 Tb 0.76653 0.80757 0.40005 0.0
C21 C 0.81528 0.82822 0.4626 0.0
Tb22 Tb 0.79817 0.7832 0.49584 0.0
O23 O 0.73449 0.81604 0.45571 0.0
O24 O 0.77189 0.80841 0.48634 0.0
O25 O 0.79847 0.82912 0.41951 0.0
C26 C 0.81147 0.76624 0.59689 0.0
O27 O 0.81783 0.81221 0.49713 0.0
C28 C 0.81454 0.77775 0.39112 0.0
C29 C 0.74974 0.76436 0.44511 0.0
O30 O 0.8122 0.78526 0.58187 0.0
O31 O 0.80367 0.7565 0.55407 0.0
O32 O 0.82879 0.77369 0.43543 0.0
O33 O 0.79201 0.78221 0.40887 0.0
O34 O 0.75877 0.77018 0.49304 0.0
O35 O 0.74981 0.77735 0.40184 0.0
C36 C 0.75031 0.82019 0.29815 0.0
O37 O 0.73505 0.81492 0.3394 0.0
O38 O 0.7749 0.81917 0.31502 0.0
C39 C 0.74836 0.81206 0.50035 0.0
Tb40 Tb 0.39663 0.52956 0.67497 0.0
C41 C 0.40868 0.57175 0.72947 0.0
Tb42 Tb 0.43381 0.53081 0.77843 0.0
O43 O 0.36159 0.52047 0.7245 0.0
O44 O 0.39337 0.53547 0.75877 0.0
O45 O 0.39781 0.56236 0.6871 0.0
C46 C 0.45511 0.53141 0.88085 0.0
O47 O 0.42281 0.56228 0.76894 0.0
C48 C 0.45741 0.53302 0.68038 0.0
C49 C 0.40791 0.4897 0.74437 0.0
O50 O 0.43613 0.54279 0.86123 0.0
O51 O 0.46236 0.51936 0.84245 0.0
O52 O 0.46679 0.54092 0.7246 0.0
O53 O 0.43703 0.52293 0.69398 0.0
O54 O 0.4171 0.50055 0.78543 0.0
O55 O 0.40342 0.4978 0.69408 0.0
C56 C 0.38872 0.52864 0.56576 0.0
O57 O 0.37263 0.52115 0.6033 0.0
O58 O 0.40814 0.5376 0.59017 0.0
C59 C 0.37216 0.5262 0.77075 0.0
Tb60 Tb 0.69041 0.19834 0.93458 0.0
C61 C 0.6586 0.168 1.01554 0.0
Tb62 Tb 0.6511 0.21568 1.02001 0.0
O63 O 0.71919 0.19059 1.00035 0.0
O64 O 0.69323 0.21466 1.00919 0.0
O65 O 0.67317 0.16991 0.96936 0.0
C66 C 0.63608 0.22644 0.12127 0.0
O67 O 0.64897 0.18368 0.04132 0.0
C68 C 0.63039 0.21031 0.91931 0.0
C69 C 0.67095 0.24444 0.93153 0.0
O70 O 0.65007 0.21075 0.11002 0.0
O71 O 0.62964 0.23591 0.07507 0.0
O72 O 0.61974 0.22162 0.95632 0.0
O73 O 0.6488 0.20061 0.94438 0.0
O74 O 0.66612 0.24343 0.98491 0.0
O75 O 0.67923 0.22862 0.90434 0.0
C76 C 0.71657 0.19321 0.83738 0.0
O77 O 0.71992 0.20784 0.8708 0.0
O78 O 0.69921 0.18091 0.86015 0.0
C79 C 0.71057 0.20381 0.03422 0.0
Tb80 Tb 0.09194 0.54259 0.68742 0.0
C81 C 0.05822 0.51083 0.75391 0.0
Tb82 Tb 0.05168 0.55659 0.77824 0.0
O83 O 0.12081 0.53135 0.7495 0.0
O84 O 0.09345 0.55322 0.769 0.0
O85 O 0.069 0.51602 0.70567 0.0
C86 C 0.02431 0.55734 0.87481 0.0
O87 O 0.05654 0.52394 0.79356 0.0
C88 C 0.03314 0.55702 0.67531 0.0
C89 C 0.0779 0.5893 0.6981 0.0
O90 O 0.01706 0.54874 0.83002 0.0
O91 O 0.04681 0.56654 0.8645 0.0
O92 O 0.02294 0.56753 0.71434 0.0
O93 O 0.05026 0.54535 0.69741 0.0
O94 O 0.06709 0.58612 0.74823 0.0
O95 O 0.08649 0.57456 0.66705 0.0
C96 C 0.1112 0.53097 0.58983 0.0
O97 O 0.11329 0.54901 0.60875 0.0
O98 O 0.09923 0.51964 0.62669 0.0
C99 C 0.11028 0.54099 0.78975 0.0
Tb100 Tb 0.67868 0.81412 0.88756 0.0
C101 C 0.62165 0.81259 0.82567 0.0
Tb102 Tb 0.66938 0.78352 0.79231 0.0
O103 O 0.68991 0.83973 0.8293 0.0
O104 O 0.66999 0.81448 0.80463 0.0
O105 O 0.6353 0.81732 0.87136 0.0
C106 C 0.67418 0.76133 0.70117 0.0
O107 O 0.63098 0.79949 0.78974 0.0
C108 C 0.66628 0.76879 0.89607 0.0
C109 C 0.72626 0.8028 0.81424 0.0
O110 O 0.65596 0.77484 0.70931 0.0
O111 O 0.68925 0.76017 0.74483 0.0
O112 O 0.65303 0.76195 0.85462 0.0
O113 O 0.68181 0.78236 0.87739 0.0
O114 O 0.70965 0.79475 0.77837 0.0
O115 O 0.71901 0.80705 0.86516 0.0
C116 C 0.68467 0.82206 0.99512 0.0
O117 O 0.69727 0.83101 0.95414 0.0
O118 O 0.66762 0.80957 0.97497 0.0
C119 C 0.68075 0.83042 0.78644 0.0
Tb120 Tb 0.4045 0.46482 0.17394 0.0
C121 C 0.39386 0.4242 0.113 0.0
Tb122 Tb 0.44542 0.44968 0.07825 0.0
O123 O 0.37799 0.48214 0.11665 0.0
O124 O 0.41044 0.46666 0.08889 0.0
O125 O 0.38968 0.43437 0.15885 0.0
C126 C 0.4666 0.44137 0.97936 0.0
O127 O 0.41273 0.42853 0.07599 0.0
C128 C 0.45951 0.43741 0.18207 0.0
C129 C 0.45322 0.48979 0.13346 0.0
O130 O 0.44273 0.43689 0.99613 0.0
O131 O 0.47863 0.45081 1.0184 0.0
O132 O 0.4726 0.43348 0.13738 0.0
O133 O 0.43927 0.44702 0.16498 0.0
O134 O 0.4531 0.48169 0.08436 0.0
O135 O 0.43072 0.49071 0.16122 0.0
C136 C 0.39199 0.47614 0.27538 0.0
O137 O 0.41484 0.47821 0.2515 0.0
O138 O 0.37576 0.46704 0.24239 0.0
C139 C 0.39146 0.47774 0.07273 0.0
Tb140 Tb 0.80616 0.20819 0.42975 0.0
C141 C 0.83144 0.17527 0.35596 0.0
Tb142 Tb 0.84162 0.22112 0.32859 0.0
O143 O 0.77242 0.20159 0.37432 0.0
O144 O 0.80059 0.22267 0.35018 0.0
O145 O 0.82481 0.17953 0.40771 0.0
C146 C 0.85188 0.23238 0.22379 0.0
O147 O 0.83455 0.18947 0.31651 0.0
C148 C 0.86679 0.21846 0.42489 0.0
C149 C 0.82737 0.25403 0.40986 0.0
O150 O 0.86832 0.2222 0.25596 0.0
O151 O 0.83044 0.23597 0.25094 0.0
O152 O 0.87581 0.22808 0.38067 0.0
O153 O 0.84696 0.20826 0.40977 0.0
O154 O 0.83564 0.25066 0.35931 0.0
O155 O 0.8171 0.23962 0.44342 0.0
C156 C 0.78459 0.20598 0.53369 0.0
O157 O 0.78682 0.19106 0.50058 0.0
O158 O 0.79461 0.2217 0.50803 0.0
C159 C 0.78087 0.21293 0.33305 0.0
Tb160 Tb 0.93721 0.55237 0.2808 0.0
C161 C 0.89903 0.57756 0.20058 0.0
Tb162 Tb 0.9078 0.53041 0.18914 0.0
O163 O 0.96258 0.5686 0.22075 0.0
O164 O 0.94755 0.54049 0.20209 0.0
O165 O 0.91274 0.57772 0.24792 0.0
C166 C 0.89414 0.51805 0.08921 0.0
O167 O 0.89476 0.56102 0.17304 0.0
C168 C 0.88639 0.52584 0.28772 0.0
C169 C 0.94609 0.50623 0.26618 0.0
O170 O 0.90717 0.53434 0.09924 0.0
O171 O 0.88821 0.50878 0.13579 0.0
O172 O 0.88247 0.51362 0.2479 0.0
O173 O 0.89842 0.54122 0.26782 0.0
O174 O 0.93743 0.50884 0.21465 0.0
O175 O 0.94258 0.52029 0.30266 0.0
C176 C 0.9591 0.56092 0.37943 0.0
O177 O 0.97083 0.55213 0.3393 0.0
O178 O 0.93509 0.5656 0.36325 0.0
C179 C 0.96 0.55572 0.18198 0.0
Tb180 Tb 0.15046 0.22176 0.81334 0.0
C181 C 0.16392 0.25015 0.90798 0.0
Tb182 Tb 0.18501 0.20404 0.91495 0.0
O183 O 0.11617 0.22705 0.8679 0.0
O184 O 0.14465 0.20596 0.89049 0.0
O185 O 0.15713 0.2492 0.85534 0.0
C186 C 0.20825 0.19704 1.01669 0.0
O187 O 0.17283 0.23428 0.93822 0.0
C188 C 0.21031 0.20955 0.82014 0.0
C189 C 0.16273 0.17469 0.8253 0.0
O190 O 0.21437 0.21116 0.98012 0.0
O191 O 0.1892 0.18648 0.9952 0.0
O192 O 0.21843 0.19758 0.86048 0.0
O193 O 0.19119 0.21994 0.83758 0.0
O194 O 0.17099 0.17611 0.87779 0.0
O195 O 0.15636 0.19055 0.79249 0.0
C196 C 0.14169 0.23952 0.71242 0.0
O197 O 0.1258 0.22652 0.73748 0.0
O198 O 0.16218 0.24205 0.74407 0.0
C199 C 0.12475 0.21523 0.90864 0.0
Tb200 Tb 0.54502 0.45104 0.58728 0.0
C201 C 0.52753 0.47974 0.67303 0.0
Tb202 Tb 0.58625 0.46463 0.67685 0.0
O203 O 0.52141 0.43241 0.64687 0.0
O204 O 0.55983 0.44 0.66511 0.0
O205 O 0.52855 0.4783 0.6188 0.0
C206 C 0.60336 0.48361 0.76674 0.0
O207 O 0.54762 0.47375 0.70451 0.0
C208 C 0.59126 0.48088 0.57732 0.0
C209 C 0.60287 0.43114 0.59664 0.0
O210 O 0.59272 0.49182 0.72259 0.0
O211 O 0.60605 0.4643 0.75924 0.0
O212 O 0.61098 0.47808 0.61141 0.0
O213 O 0.56973 0.47643 0.6012 0.0
O214 O 0.60738 0.43838 0.64666 0.0
O215 O 0.58168 0.43583 0.56571 0.0
C216 C 0.51743 0.44668 0.49145 0.0
O217 O 0.54275 0.44368 0.49862 0.0
O218 O 0.50781 0.45207 0.53831 0.0
C219 C 0.53891 0.43257 0.68648 0.0
Tb220 Tb 0.33316 0.78405 0.31683 0.0
C221 C 0.29327 0.76274 0.39085 0.0
Tb222 Tb 0.30828 0.80715 0.41658 0.0
O223 O 0.35483 0.76242 0.37216 0.0
O224 O 0.3428 0.78951 0.4016 0.0
O225 O 0.29833 0.76694 0.33848 0.0
C226 C 0.29264 0.81802 0.51825 0.0
O227 O 0.29781 0.77583 0.42936 0.0
C228 C 0.27968 0.80742 0.32482 0.0
C229 C 0.35076 0.82915 0.33652 0.0
O230 O 0.29426 0.79993 0.50059 0.0
O231 O 0.30061 0.83047 0.47851 0.0
O232 O 0.26987 0.8102 0.37337 0.0
O233 O 0.3045 0.80705 0.32943 0.0
O234 O 0.33833 0.82919 0.38561 0.0
O235 O 0.34991 0.81376 0.30306 0.0
C236 C 0.34055 0.76884 0.2159 0.0
O237 O 0.3193 0.76705 0.2459 0.0
O238 O 0.35781 0.77948 0.24254 0.0
C239 C 0.35225 0.77243 0.41698 0.0
Tb240 Tb 0.9529 0.44947 0.5899 0.0
C241 C 0.92327 0.42039 0.67527 0.0
Tb242 Tb 0.9198 0.46789 0.68374 0.0
O243 O 0.98117 0.43585 0.6493 0.0
O244 O 0.96067 0.46178 0.66882 0.0
O245 O 0.93275 0.42213 0.62351 0.0
C246 C 0.90844 0.48447 0.77954 0.0
O247 O 0.92008 0.43606 0.70703 0.0
C248 C 0.89679 0.47005 0.58595 0.0
C249 C 0.95057 0.49632 0.60132 0.0
O250 O 0.89563 0.46926 0.75976 0.0
O251 O 0.927 0.48998 0.74552 0.0
O252 O 0.89006 0.4811 0.62679 0.0
O253 O 0.91252 0.45658 0.60469 0.0
O254 O 0.94111 0.49354 0.65181 0.0
O255 O 0.95116 0.48158 0.56632 0.0
C256 C 0.98051 0.44667 0.49481 0.0
O257 O 0.98838 0.45484 0.53969 0.0
O258 O 0.95698 0.43886 0.50409 0.0
C259 C 0.97604 0.44812 0.68839 0.0
Tb260 Tb 0.32856 0.22292 0.52576 0.0
C261 C 0.27698 0.2388 0.47406 0.0
Tb262 Tb 0.30055 0.20102 0.42344 0.0
O263 O 0.34812 0.24446 0.46852 0.0
O264 O 0.33654 0.21667 0.44145 0.0
O265 O 0.28953 0.23658 0.52184 0.0
C266 C 0.28378 0.19877 0.31574 0.0
O267 O 0.28862 0.23252 0.42914 0.0
C268 C 0.27491 0.19563 0.52089 0.0
C269 C 0.34335 0.1773 0.49849 0.0
O270 O 0.27997 0.18507 0.35529 0.0
O271 O 0.29778 0.21296 0.337 0.0
O272 O 0.26576 0.18977 0.47366 0.0
O273 O 0.29707 0.20331 0.5092 0.0
O274 O 0.33035 0.17811 0.44968 0.0
O275 O 0.34398 0.19236 0.53342 0.0
C276 C 0.34579 0.23581 0.62257 0.0
O277 O 0.3511 0.21831 0.60304 0.0
O278 O 0.3308 0.2459 0.58776 0.0
C279 C 0.3455 0.23367 0.42543 0.0
Tb280 Tb 0.54872 0.5312 0.27787 0.0
C281 C 0.5745 0.49025 0.24962 0.0
Tb282 Tb 0.59001 0.52931 0.17911 0.0
O283 O 0.51666 0.53779 0.21691 0.0
O284 O 0.54975 0.52168 0.19497 0.0
O285 O 0.56824 0.50198 0.29082 0.0
C286 C 0.60712 0.52325 0.07584 0.0
O287 O 0.57976 0.49814 0.19948 0.0
C288 C 0.61114 0.52948 0.27851 0.0
C289 C 0.57211 0.57213 0.22433 0.0
O290 O 0.61878 0.51702 0.12137 0.0
O291 O 0.58662 0.53408 0.08866 0.0
O292 O 0.624 0.52359 0.2353 0.0
O293 O 0.58942 0.53691 0.26197 0.0
O294 O 0.58356 0.56225 0.18334 0.0
O295 O 0.55929 0.56285 0.26625 0.0
C296 C 0.52122 0.52856 0.37467 0.0
O297 O 0.53601 0.54359 0.35748 0.0
O298 O 0.52196 0.51514 0.33716 0.0
C299 C 0.52904 0.52988 0.17605 0.0
Tb300 Tb 0.19569 0.79074 0.03316 0.0
C301 C 0.2568 0.79806 1.00364 0.0
Tb302 Tb 0.21206 0.81818 0.92771 0.0
O303 O 0.17629 0.76894 0.97938 0.0
O304 O 0.20606 0.78698 0.94878 0.0
O305 O 0.23878 0.79086 0.03949 0.0
C306 C 0.22411 0.81975 0.81894 0.0
O307 O 0.25054 0.80706 0.95515 0.0
C308 C 0.22246 0.83347 1.02428 0.0
C309 C 0.15674 0.82593 0.98625 0.0
O310 O 0.22497 0.83521 0.85089 0.0
O311 O 0.21541 0.80436 0.84813 0.0
O312 O 0.23366 0.83988 0.97791 0.0
O313 O 0.20467 0.82102 1.01202 0.0
O314 O 0.17021 0.82744 0.93844 0.0
O315 O 0.16466 0.81394 0.02905 0.0
C316 C 0.19027 0.77135 0.13379 0.0
O317 O 0.212 0.77912 0.11349 0.0
O318 O 0.17152 0.77475 0.0975 0.0
C319 C 0.18802 0.77509 0.93422 0.0
Tb320 Tb 0.58697 0.96114 0.65712 0.0
C321 C 0.55904 0.98866 0.56981 0.0
Tb322 Tb 0.55257 0.9412 0.56546 0.0
O323 O 0.61879 0.97017 0.59986 0.0
O324 O 0.59327 0.94709 0.58147 0.0
O325 O 0.56499 0.98619 0.62299 0.0
C326 C 0.53089 0.93526 0.46413 0.0
O327 O 0.55599 0.97303 0.53799 0.0
C328 C 0.52969 0.94519 0.6631 0.0
C329 C 0.58333 0.91303 0.65332 0.0
O330 O 0.51918 0.94336 0.50558 0.0
O331 O 0.55436 0.9294 0.48113 0.0
O332 O 0.52303 0.93147 0.62853 0.0
O333 O 0.54619 0.95694 0.63939 0.0
O334 O 0.57044 0.91352 0.60464 0.0
O335 O 0.58958 0.92944 0.68017 0.0
C336 C 0.60241 0.97568 0.75416 0.0
O337 O 0.5918 0.9581 0.74757 0.0
O338 O 0.60477 0.98482 0.70608 0.0
C339 C 0.61052 0.95893 0.56053 0.0
Tb340 Tb 0.29552 0.30123 0.90107 0.0
C341 C 0.32558 0.33024 0.97887 0.0
Tb342 Tb 0.32462 0.28251 1.00527 0.0
O343 O 0.26294 0.31247 0.95298 0.0
O344 O 0.28473 0.28789 0.98025 0.0
O345 O 0.31796 0.3276 0.92652 0.0
C346 C 0.33824 0.26906 0.10701 0.0
O347 O 0.32747 0.31507 1.01672 0.0
C348 C 0.35301 0.28504 0.91288 0.0
C349 C 0.29273 0.25584 0.92846 0.0
O350 O 0.32403 0.28504 0.09536 0.0
O351 O 0.34535 0.26107 0.06138 0.0
O352 O 0.35726 0.27203 0.95351 0.0
O353 O 0.33526 0.29691 0.92834 0.0
O354 O 0.29924 0.25761 0.98106 0.0
O355 O 0.30351 0.26901 0.89356 0.0
C356 C 0.27728 0.30298 0.79367 0.0
O357 O 0.29417 0.29043 0.81596 0.0
O358 O 0.27085 0.31529 0.83206 0.0
C359 C 0.26786 0.30046 0.9954 0.0
Tb360 Tb 0.89053 0.03486 0.17701 0.0
C361 C 0.89648 0.07856 0.2279 0.0
Tb362 Tb 0.93089 0.0415 0.2759 0.0
O363 O 0.85571 0.0279 0.22849 0.0
O364 O 0.88923 0.0413 0.26085 0.0
O365 O 0.8877 0.06793 0.18553 0.0
C366 C 0.96154 0.04288 0.36884 0.0
O367 O 0.91273 0.0711 0.2672 0.0
C368 C 0.95016 0.04188 0.17276 0.0
C369 C 0.90527 -0.00124 0.25993 0.0
O370 O 0.94037 0.05361 0.35785 0.0
O371 O 0.96515 0.03121 0.32756 0.0
O372 O 0.9598 0.05241 0.21217 0.0
O373 O 0.93175 0.03117 0.19332 0.0
O374 O 0.91607 0.01139 0.2949 0.0
O375 O 0.89897 0.00431 0.20793 0.0
C376 C 0.88125 0.02805 0.06909 0.0
O377 O 0.86763 0.02056 0.11072 0.0
O378 O 0.89885 0.04029 0.08848 0.0
C379 C 0.86741 0.03284 0.2745 0.0
Tb380 Tb 0.18763 0.67386 0.44147 0.0
C381 C 0.13423 0.67679 0.50961 0.0
Tb382 Tb 0.18608 0.70287 0.54321 0.0
O383 O 0.2038 0.64807 0.49236 0.0
O384 O 0.1847 0.67188 0.52738 0.0
O385 O 0.14525 0.67122 0.46204 0.0
C386 C 0.18055 0.72329 0.63754 0.0
O387 O 0.14636 0.68897 0.54472 0.0
C388 C 0.19349 0.71969 0.44235 0.0
C389 C 0.24006 0.68373 0.50914 0.0
O390 O 0.19528 0.70744 0.63124 0.0
O391 O 0.16849 0.72741 0.59066 0.0
O392 O 0.20326 0.72653 0.48749 0.0
O393 O 0.17902 0.70473 0.45547 0.0
O394 O 0.22656 0.69211 0.54927 0.0
O395 O 0.22922 0.67934 0.46092 0.0
C396 C 0.19845 0.66914 0.33349 0.0
O397 O 0.20333 0.68493 0.36177 0.0
O398 O 0.18613 0.65586 0.36588 0.0
C399 C 0.19742 0.65592 0.53928 0.0
Tb400 Tb 0.59317 0.02357 0.16029 0.0
C401 C 0.54279 0.00194 0.20774 0.0
Tb402 Tb 0.55604 0.04513 0.24485 0.0
O403 O 0.61371 0.00569 0.22479 0.0
O404 O 0.59492 0.03249 0.24365 0.0
O405 O 0.56058 0.00257 0.1676 0.0
C406 C 0.52782 0.05219 0.33823 0.0
O407 O 0.5471 0.01273 0.25174 0.0
C408 C 0.54288 0.05103 0.13865 0.0
C409 C 0.60124 0.0704 0.18114 0.0
O410 O 0.51828 0.04765 0.29041 0.0
O411 O 0.55354 0.05351 0.33295 0.0
O412 O 0.53535 0.06267 0.17784 0.0
O413 O 0.55414 0.03591 0.16183 0.0
O414 O 0.58384 0.06987 0.22311 0.0
O415 O 0.60749 0.05442 0.15232 0.0
C416 C 0.61259 0.00938 0.06604 0.0
O417 O 0.60625 0.02803 0.07379 0.0
O418 O 0.6093 -0.00087 0.11222 0.0
C419 C 0.60543 0.0166 0.26453 0.0
Tb420 Tb 0.1787 0.29469 0.39621 0.0
C421 C 0.15286 0.32596 0.30959 0.0
Tb422 Tb 0.14107 0.27912 0.30243 0.0
O423 O 0.20896 0.30315 0.33393 0.0
O424 O 0.18267 0.27978 0.31991 0.0
O425 O 0.1627 0.32318 0.36067 0.0
C426 C 0.12745 0.26511 0.20339 0.0
O427 O 0.14631 0.31081 0.27799 0.0
C428 C 0.11785 0.28284 0.40087 0.0
C429 C 0.15661 0.24859 0.39583 0.0
O430 O 0.11478 0.2791 0.22908 0.0
O431 O 0.14757 0.25921 0.23352 0.0
O432 O 0.10782 0.27295 0.36011 0.0
O433 O 0.13746 0.29257 0.38045 0.0
O434 O 0.14818 0.25047 0.34421 0.0
O435 O 0.16782 0.26368 0.42266 0.0
C436 C 0.20362 0.3028 0.49365 0.0
O437 O 0.20916 0.28814 0.46142 0.0
O438 O 0.18428 0.31305 0.47024 0.0
C439 C 0.2005 0.29076 0.29763 0.0
Tb440 Tb 0.88242 0.96299 0.67203 0.0
C441 C 0.87842 0.92106 0.61339 0.0
Tb442 Tb 0.92166 0.95358 0.57251 0.0
O443 O 0.85654 0.98345 0.62187 0.0
O444 O 0.88197 0.96354 0.58538 0.0
O445 O 0.86961 0.93208 0.65488 0.0
C446 C 0.94348 0.94239 0.47503 0.0
O447 O 0.8987 0.92611 0.58056 0.0
C448 C 0.9408 0.95022 0.6762 0.0
C449 C 0.91764 0.99684 0.61016 0.0
O450 O 0.91838 0.94429 0.48585 0.0
O451 O 0.95643 0.94693 0.51939 0.0
O452 O 0.95509 0.95467 0.63276 0.0
O453 O 0.91772 0.94642 0.65937 0.0
O454 O 0.92074 0.98583 0.56627 0.0
O455 O 0.90764 0.98933 0.65743 0.0
C456 C 0.87472 0.97321 0.77762 0.0
O457 O 0.89642 0.97531 0.74929 0.0
O458 O 0.85699 0.96448 0.74679 0.0
C459 C 0.86623 0.97808 0.57474 0.0
Tb460 Tb 0.28549 0.67876 0.9271 0.0
C461 C 0.33577 0.66402 0.85923 0.0
Tb462 Tb 0.31006 0.70642 0.82258 0.0
O463 O 0.25949 0.66 0.87691 0.0
O464 O 0.28209 0.68313 0.84157 0.0
O465 O 0.32203 0.66238 0.90689 0.0
C466 C 0.32288 0.72616 0.72546 0.0
O467 O 0.33331 0.67902 0.82099 0.0
C468 C 0.32569 0.71596 0.92496 0.0
C469 C 0.25806 0.71705 0.87476 0.0
O470 O 0.32749 0.70712 0.73792 0.0
O471 O 0.31111 0.7337 0.76757 0.0
O472 O 0.32824 0.72766 0.88098 0.0
O473 O 0.31715 0.69943 0.90826 0.0
O474 O 0.26811 0.71277 0.82647 0.0
O475 O 0.2557 0.70233 0.91289 0.0
C476 C 0.26949 0.67568 0.03386 0.0
O477 O 0.27322 0.66036 1.00221 0.0
O478 O 0.27573 0.69199 1.00553 0.0
C479 C 0.2661 0.66922 0.83017 0.0
Tb480 Tb 0.44278 0.0552 0.74715 0.0
C481 C 0.40407 0.08218 0.67023 0.0
Tb482 Tb 0.4062 0.03432 0.65638 0.0
O483 O 0.47481 0.06554 0.69037 0.0
O484 O 0.44328 0.04948 0.66197 0.0
O485 O 0.41954 0.08145 0.71563 0.0
C486 C 0.39273 0.02154 0.55816 0.0
O487 O 0.39716 0.06608 0.64235 0.0
C488 C 0.39147 0.02784 0.75958 0.0
C489 C 0.45064 0.0109 0.71431 0.0
O490 O 0.37585 0.02884 0.59303 0.0
O491 O 0.41645 0.02155 0.57908 0.0
O492 O 0.38349 0.01708 0.71889 0.0
O493 O 0.40376 0.04312 0.7395 0.0
O494 O 0.43057 0.00876 0.68026 0.0
O495 O 0.44733 0.02249 0.7569 0.0
C496 C 0.46517 0.06151 0.84677 0.0
O497 O 0.47521 0.05124 0.80748 0.0
O498 O 0.44245 0.06892 0.82935 0.0
C499 C 0.4646 0.05808 0.64603 0.0
Tb500 Tb 0.68646 0.69729 0.30224 0.0
C501 C 0.74361 0.68095 0.33936 0.0
Tb502 Tb 0.69359 0.66677 0.40601 0.0
O503 O 0.66741 0.7189 0.35547 0.0
O504 O 0.69501 0.69879 0.38924 0.0
O505 O 0.72842 0.68856 0.29827 0.0
C506 C 0.6998 0.6584 0.51555 0.0
O507 O 0.73384 0.67564 0.3887 0.0
C508 C 0.70097 0.65115 0.30797 0.0
C509 C 0.63853 0.66777 0.34064 0.0
O510 O 0.71182 0.6493 0.47607 0.0
O511 O 0.68299 0.67117 0.49291 0.0
O512 O 0.7083 0.64192 0.35445 0.0
O513 O 0.68797 0.66634 0.32113 0.0
O514 O 0.65096 0.66281 0.38833 0.0
O515 O 0.64955 0.67961 0.30086 0.0
C516 C 0.68601 0.71916 0.20462 0.0
O517 O 0.66798 0.70639 0.22189 0.0
O518 O 0.70441 0.71953 0.24244 0.0
C519 C 0.67825 0.71212 0.40116 0.0
Tb520 Tb 0.03181 0.94703 0.08237 0.0
C521 C 0.0154 0.97918 0.15763 0.0
Tb522 Tb 0.07123 0.95925 0.17849 0.0
O523 O 0.00243 0.9335 0.14117 0.0
O524 O 0.04157 0.93692 0.16485 0.0
O525 O 0.01993 0.97669 0.10483 0.0
C526 C 0.08871 0.97754 0.26963 0.0
O527 O 0.03286 0.97263 0.19519 0.0
C528 C 0.08148 0.97309 0.07783 0.0
C529 C 0.08376 0.92067 0.11 0.0
O530 O 0.0796 0.98621 0.22459 0.0
O531 O 0.08916 0.95809 0.26285 0.0
O532 O 0.09978 0.97 0.11515 0.0
O533 O 0.05921 0.97018 0.09964 0.0
O534 O 0.08875 0.93024 0.15674 0.0
O535 O 0.06419 0.92568 0.07497 0.0
C536 C 0.01292 0.94601 0.977 0.0
O537 O 0.03747 0.94853 0.99195 0.0
O538 O -0.00115 0.94347 1.02195 0.0
C539 C 0.01866 0.9324 0.18342 0.0
Tb540 Tb 0.83158 0.28614 0.80701 0.0
C541 C 0.77252 0.28067 0.83059 0.0
Tb542 Tb 0.80124 0.31234 0.89732 0.0
O543 O 0.85623 0.27255 0.87539 0.0
O544 O 0.81887 0.28371 0.88974 0.0
O545 O 0.79019 0.28037 0.7907 0.0
C546 C 0.78313 0.31826 1.00283 0.0
O547 O 0.77932 0.28508 0.88155 0.0
C548 C 0.78947 0.32218 0.79223 0.0
C549 C 0.85662 0.32777 0.84202 0.0
O550 O 0.76929 0.32003 0.95716 0.0
O551 O 0.80755 0.31458 0.98799 0.0
O552 O 0.7752 0.32765 0.83436 0.0
O553 O 0.81022 0.31388 0.81217 0.0
O554 O 0.83879 0.32952 0.88309 0.0
O555 O 0.85677 0.31258 0.80753 0.0
C556 C 0.8452 0.26362 0.72175 0.0
O557 O 0.85104 0.28261 0.72645 0.0
O558 O 0.83201 0.25744 0.76521 0.0
C559 C 0.83904 0.27655 0.91336 0.0
Tb560 Tb 0.43866 0.94878 0.06267 0.0
C561 C 0.40729 0.92174 0.15138 0.0
Tb562 Tb 0.40444 0.9695 0.153 0.0
O563 O 0.46819 0.93734 0.12426 0.0
O564 O 0.44495 0.96222 0.1397 0.0
O565 O 0.41818 0.92241 0.10086 0.0
C566 C 0.39824 0.98779 0.24755 0.0
O567 O 0.40242 0.93804 0.17976 0.0
C568 C 0.38219 0.96924 0.05431 0.0
C569 C 0.43194 0.99687 0.06245 0.0
O570 O 0.38087 0.9754 0.22738 0.0
O571 O 0.41818 0.98976 0.21417 0.0
O572 O 0.37422 0.98058 0.09387 0.0
O573 O 0.39845 0.95659 0.07572 0.0
O574 O 0.42036 0.99586 0.11142 0.0
O575 O 0.43785 0.98057 0.03472 0.0
C576 C 0.46079 0.94065 0.96428 0.0
O577 O 0.47039 0.95255 1.00066 0.0
O578 O 0.43904 0.93259 0.98441 0.0
C579 C 0.46102 0.94959 0.16217 0.0
Tb580 Tb 0.80438 0.70486 1.0 0.0
C581 C 0.76755 0.71849 0.90411 0.0
Tb582 Tb 0.78714 0.67335 0.91186 0.0
O583 O 0.82588 0.72417 0.93859 0.0
O584 O 0.81871 0.69436 0.92305 0.0
O585 O 0.77248 0.72066 0.95726 0.0
C586 C 0.76816 0.65862 0.81687 0.0
O587 O 0.77311 0.70191 0.87835 0.0
C588 C 0.76535 0.66911 1.01014 0.0
C589 C 0.8294 0.66056 1.0016 0.0
O590 O 0.75457 0.66758 0.85409 0.0
O591 O 0.79262 0.65686 0.83466 0.0
O592 O 0.76811 0.65439 0.97681 0.0
O593 O 0.77168 0.68542 0.98503 0.0
O594 O 0.82098 0.65763 0.9501 0.0
O595 O 0.82269 0.67658 0.02994 0.0
C596 C 0.80631 0.7262 0.09404 0.0
O597 O 0.82664 0.71838 0.06934 0.0
O598 O 0.78528 0.72181 0.06572 0.0
C599 C 0.82659 0.71094 0.90022 0.0
Tb600 Tb 0.04757 0.04369 0.77469 0.0
C601 C 0.04428 0.00323 0.72358 0.0
Tb602 Tb 0.08955 0.0318 0.67519 0.0
O603 O 0.01625 0.05514 0.71647 0.0
O604 O 0.05128 0.04498 0.68695 0.0
O605 O 0.04872 0.01124 0.77166 0.0
C606 C 0.10461 0.01961 0.57523 0.0
O607 O 0.05865 0.00893 0.67969 0.0
C608 C 0.10421 0.02067 0.77717 0.0
C609 C 0.09933 0.07083 0.74452 0.0
O610 O 0.10765 0.0097 0.6222 0.0
O611 O 0.09441 0.03725 0.58489 0.0
O612 O 0.11826 0.01656 0.7338 0.0
O613 O 0.08458 0.03058 0.75974 0.0
O614 O 0.10498 0.06157 0.69749 0.0
O615 O 0.07958 0.06565 0.77911 0.0
C616 C 0.02354 0.04754 0.87432 0.0
O617 O 0.03948 0.06057 0.8499 0.0
O618 O 0.02121 0.03231 0.84235 0.0
C619 C 0.02903 0.05179 0.671 0.0
Tb620 Tb 0.65895 0.27844 0.51257 0.0
C621 C 0.69803 0.25791 0.43513 0.0
Tb622 Tb 0.68758 0.30244 0.40822 0.0
O623 O 0.63072 0.26424 0.45663 0.0
O624 O 0.64906 0.29095 0.43208 0.0
O625 O 0.69045 0.25813 0.48758 0.0
C626 C 0.70707 0.31066 0.30321 0.0
O627 O 0.68571 0.26993 0.39905 0.0
C628 C 0.71335 0.30341 0.50551 0.0
C629 C 0.65789 0.32719 0.49709 0.0
O630 O 0.71972 0.30224 0.34505 0.0
O631 O 0.68334 0.31499 0.32132 0.0
O632 O 0.71938 0.31472 0.46205 0.0
O633 O 0.69608 0.29122 0.48958 0.0
O634 O 0.66626 0.32746 0.44448 0.0
O635 O 0.65559 0.31046 0.52937 0.0
C636 C 0.64412 0.26276 0.61402 0.0
O637 O 0.63463 0.27897 0.58893 0.0
O638 O 0.66208 0.25551 0.58184 0.0
C639 C 0.63424 0.27706 0.41513 0.0
H640 H 0.12863 0.51918 0.33354 0.0
H641 H 0.10132 0.45944 0.38219 0.0
H642 H 0.09995 0.46866 0.47861 0.0
H643 H 0.10398 0.49408 0.5488 0.0
H644 H 0.13021 0.55419 0.50203 0.0
H645 H 0.13481 0.54447 0.40572 0.0
C646 C 0.12279 0.50813 0.36544 0.0
C647 C 0.11522 0.48859 0.35059 0.0
C648 C 0.12177 0.51363 0.42124 0.0
C649 C 0.10741 0.47451 0.39237 0.0
C650 C 0.10652 0.4798 0.44762 0.0
C651 C 0.11104 0.50501 0.51769 0.0
C652 C 0.11684 0.52483 0.53264 0.0
C653 C 0.11331 0.49936 0.46248 0.0
C654 C 0.12578 0.53882 0.4917 0.0
C655 C 0.12829 0.53327 0.43656 0.0
H656 H 0.72988 0.83863 0.74495 0.0
H657 H 0.6488 0.82748 0.69817 0.0
H658 H 0.66261 0.82176 0.60339 0.0
H659 H 0.69823 0.81579 0.53701 0.0
H660 H 0.7799 0.82122 0.58781 0.0
H661 H 0.76575 0.83231 0.6784 0.0
C662 C 0.71529 0.83537 0.71355 0.0
C663 C 0.68841 0.83351 0.72812 0.0
C664 C 0.72367 0.8303 0.66047 0.0
C665 C 0.66959 0.82915 0.68747 0.0
C666 C 0.67753 0.82556 0.6336 0.0
C667 C 0.71289 0.81945 0.56797 0.0
C668 C 0.74001 0.81771 0.55598 0.0
C669 C 0.70458 0.82533 0.62022 0.0
C670 C 0.75888 0.82234 0.59637 0.0
C671 C 0.7508 0.82885 0.64794 0.0
H672 H 0.3855 0.53994 0.87011 0.0
H673 H 0.34935 0.48933 0.79337 0.0
H674 H 0.35318 0.46911 0.88002 0.0
H675 H 0.37025 0.4651 0.97647 0.0
H676 H 0.40622 0.51609 0.05204 0.0
H677 H 0.39915 0.53684 0.9674 0.0
C678 C 0.3783 0.52453 0.87269 0.0
C679 C 0.36767 0.51601 0.82542 0.0
C680 C 0.38116 0.51292 0.92214 0.0
C681 C 0.35755 0.49626 0.8294 0.0
C682 C 0.36014 0.48458 0.87869 0.0
C683 C 0.3769 0.48066 0.97371 0.0
C684 C 0.38932 0.48904 1.01946 0.0
C685 C 0.37265 0.49257 0.92489 0.0
C686 C 0.39716 0.50933 1.01659 0.0
C687 C 0.39309 0.52118 0.9684 0.0
H688 H 0.74996 0.18548 0.28097 0.0
H689 H 0.7818 0.24546 0.25873 0.0
H690 H 0.76102 0.24896 0.16731 0.0
H691 H 0.73505 0.23425 0.09042 0.0
H692 H 0.70595 0.17338 0.11113 0.0
H693 H 0.72382 0.17101 0.20531 0.0
C694 C 0.75231 0.19935 0.2562 0.0
C695 C 0.76781 0.21512 0.27701 0.0
C696 C 0.74052 0.20111 0.20284 0.0
C697 C 0.77047 0.23294 0.24391 0.0
C698 C 0.75839 0.23498 0.19144 0.0
C699 C 0.73221 0.22064 0.11603 0.0
C700 C 0.71866 0.20411 0.09386 0.0
C701 C 0.74351 0.21911 0.17003 0.0
C702 C 0.71593 0.18639 0.12721 0.0
C703 C 0.72631 0.18499 0.18112 0.0
H704 H 0.91346 0.53412 0.99421 0.0
H705 H 0.86766 0.4839 0.06035 0.0
H706 H 0.86603 0.46944 0.96861 0.0
H707 H 0.88041 0.4702 0.8702 0.0
H708 H 0.92849 0.52 0.80843 0.0
H709 H 0.92654 0.53543 0.89762 0.0
C710 C 0.90284 0.52012 0.98844 0.0
C711 C 0.89064 0.51009 0.03369 0.0
C712 C 0.90258 0.51175 0.93629 0.0
C713 C 0.87714 0.4919 1.02585 0.0
C714 C 0.87629 0.48361 0.97351 0.0
C715 C 0.89006 0.48455 0.87632 0.0
C716 C 0.90446 0.49399 0.83285 0.0
C717 C 0.8893 0.49327 0.92847 0.0
C718 C 0.91724 0.51245 0.84128 0.0
C719 C 0.91617 0.52132 0.89229 0.0
H720 H 0.19156 0.2015 0.71675 0.0
H721 H 0.26143 0.22039 0.80331 0.0
H722 H 0.28759 0.21882 0.71852 0.0
H723 H 0.29148 0.20957 0.62069 0.0
H724 H 0.22264 0.18696 0.53716 0.0
H725 H 0.19554 0.19196 0.61918 0.0
C726 C 0.21235 0.20568 0.71669 0.0
C727 C 0.2243 0.21175 0.76604 0.0
C728 C 0.2277 0.20351 0.6683 0.0
C729 C 0.25155 0.21637 0.76555 0.0
C730 C 0.26662 0.21516 0.71717 0.0
C731 C 0.27056 0.20571 0.62053 0.0
C732 C 0.25917 0.19787 0.57262 0.0
C733 C 0.25508 0.20833 0.66847 0.0
C734 C 0.23202 0.19287 0.57342 0.0
C735 C 0.21643 0.19585 0.62033 0.0
H736 H 0.58491 0.53992 0.36892 0.0
H737 H 0.64803 0.5017 0.31525 0.0
H738 H 0.64866 0.48387 0.40597 0.0
H739 H 0.62757 0.47686 0.49708 0.0
H740 H 0.5598 0.51203 0.5435 0.0
H741 H 0.56444 0.53335 0.45924 0.0
C742 C 0.59869 0.52766 0.37724 0.0
C743 C 0.61589 0.52179 0.33552 0.0
C744 C 0.59768 0.51672 0.42777 0.0
C745 C 0.63449 0.5064 0.34694 0.0
C746 C 0.63463 0.49607 0.39848 0.0
C747 C 0.61377 0.48914 0.48822 0.0
C748 C 0.59329 0.49291 0.52558 0.0
C749 C 0.61567 0.50065 0.43848 0.0
C750 C 0.57543 0.50876 0.51449 0.0
C751 C 0.57805 0.52092 0.46654 0.0
H752 H 0.29966 0.82196 0.22732 0.0
H753 H 0.22694 0.80271 0.30674 0.0
H754 H 0.20207 0.81079 0.2216 0.0
H755 H 0.2014 0.82235 0.12356 0.0
H756 H 0.27381 0.84332 0.04599 0.0
H757 H 0.29836 0.83605 0.1317 0.0
C758 C 0.27839 0.81947 0.22578 0.0
C759 C 0.26511 0.81153 0.27275 0.0
C760 C 0.26416 0.82473 0.17733 0.0
C761 C 0.23751 0.80872 0.2708 0.0
C762 C 0.2233 0.81343 0.22231 0.0
C763 C 0.22245 0.82568 0.12591 0.0
C764 C 0.23582 0.83326 0.07866 0.0
C765 C 0.23643 0.82141 0.17529 0.0
C766 C 0.26306 0.83762 0.08203 0.0
C767 C 0.27717 0.83322 0.1308 0.0
H768 H 0.61498 0.0285 0.96416 0.0
H769 H 0.61568 0.96951 0.04581 0.0
H770 H 0.61315 0.95371 0.95661 0.0
H771 H 0.60757 0.95663 0.85531 0.0
H772 H 0.60879 0.01547 0.77308 0.0
H773 H 0.61371 0.03131 0.86204 0.0
C774 C 0.61509 0.0122 0.96227 0.0
C775 C 0.61551 0.00021 1.01156 0.0
C776 C 0.61366 0.00316 0.91062 0.0
C777 C 0.61549 0.97909 1.0085 0.0
C778 C 0.61387 0.97002 0.95746 0.0
C779 C 0.6092 0.9729 0.85696 0.0
C780 C 0.60771 0.98487 0.80781 0.0
C781 C 0.61243 0.98189 0.90828 0.0
C782 C 0.60996 0.00593 0.81039 0.0
C783 C 0.61271 0.015 0.86128 0.0
H784 H 0.26 0.26995 0.07535 0.0
H785 H 0.24724 0.33349 0.04151 0.0
H786 H 0.2261 0.33633 0.1317 0.0
H787 H 0.21083 0.32076 0.22081 0.0
H788 H 0.21662 0.25638 0.24841 0.0
H789 H 0.23971 0.25365 0.15974 0.0
C790 C 0.25227 0.28435 0.08728 0.0
C791 C 0.2552 0.30149 0.05117 0.0
C792 C 0.2386 0.28565 0.13822 0.0
C793 C 0.24525 0.32005 0.0681 0.0
C794 C 0.23309 0.32168 0.11979 0.0
C795 C 0.21705 0.30612 0.2072 0.0
C796 C 0.2122 0.28881 0.24145 0.0
C797 C 0.22954 0.30459 0.15521 0.0
C798 C 0.22006 0.26992 0.22289 0.0
C799 C 0.23348 0.26839 0.17232 0.0
H800 H 0.87763 0.04428 0.38025 0.0
H801 H 0.84589 0.99564 0.28737 0.0
H802 H 0.84483 0.97372 0.37047 0.0
H803 H 0.85487 0.9677 0.46979 0.0
H804 H 0.87527 0.01848 0.56669 0.0
H805 H 0.8791 0.04009 0.48283 0.0
C806 C 0.87005 0.02901 0.37861 0.0
C807 C 0.86238 0.0215 0.32757 0.0
C808 C 0.86792 0.01672 0.4274 0.0
C809 C 0.85203 0.0018 0.32614 0.0
C810 C 0.85159 0.98914 0.37362 0.0
C811 C 0.86003 0.98351 0.47232 0.0
C812 C 0.86602 0.99128 0.52388 0.0
C813 C 0.85987 0.99632 0.42441 0.0
C814 C 0.87158 0.01198 0.5271 0.0
C815 C 0.87356 0.02441 0.4792 0.0
H816 H 0.18154 0.66679 0.63955 0.0
H817 H 0.24556 0.63751 0.55675 0.0
H818 H 0.27364 0.63984 0.63914 0.0
H819 H 0.28096 0.65285 0.73318 0.0
H820 H 0.21575 0.68075 0.81577 0.0
H821 H 0.18715 0.67639 0.73538 0.0
C822 C 0.20147 0.66057 0.64008 0.0
C823 C 0.21163 0.65226 0.59223 0.0
C824 C 0.21749 0.66219 0.68717 0.0
C825 C 0.2373 0.64393 0.59337 0.0
C826 C 0.25349 0.64554 0.64017 0.0
C827 C 0.2606 0.65819 0.73287 0.0
C828 C 0.25054 0.66772 0.77916 0.0
C829 C 0.24406 0.65522 0.68678 0.0
C830 C 0.22394 0.6739 0.77968 0.0
C831 C 0.20757 0.67126 0.73405 0.0
H832 H 0.42923 0.01485 0.48284 0.0
H833 H 0.34455 0.01396 0.50756 0.0
H834 H 0.33812 0.00274 0.41254 0.0
H835 H 0.35759 0.99309 0.32197 0.0
H836 H 0.44254 0.99798 0.30016 0.0
H837 H 0.44787 0.00779 0.39455 0.0
C838 C 0.40928 0.01237 0.46746 0.0
C839 C 0.3874 0.0152 0.50175 0.0
C840 C 0.40587 0.00665 0.41325 0.0
C841 C 0.36169 0.01188 0.48149 0.0
C842 C 0.35807 0.00548 0.42735 0.0
C843 C 0.37712 0.99645 0.33814 0.0
C844 C 0.39961 0.99474 0.30432 0.0
C845 C 0.38011 0.00281 0.39271 0.0
C846 C 0.42488 -0.00075 0.32526 0.0
C847 C 0.42803 0.00483 0.37934 0.0
H848 H 0.77247 0.64174 0.09559 0.0
H849 H 0.72483 0.6928 0.04106 0.0
H850 H 0.69791 0.68915 0.12467 0.0
H851 H 0.68922 0.67262 0.21491 0.0
H852 H 0.74045 0.62507 0.27754 0.0
H853 H 0.76446 0.62575 0.18916 0.0
C854 C 0.75627 0.65211 0.10252 0.0
C855 C 0.75052 0.66751 0.0625 0.0
C856 C 0.74162 0.65052 0.15208 0.0
C857 C 0.72969 0.68098 0.07164 0.0
C858 C 0.71431 0.67888 0.11936 0.0
C859 C 0.70567 0.66247 0.20928 0.0
C860 C 0.71318 0.64899 0.25279 0.0
C861 C 0.72024 0.66387 0.16002 0.0
C862 C 0.73423 0.63556 0.24459 0.0
C863 C 0.74811 0.63612 0.19429 0.0
H864 H 0.12002 0.96935 1.00005 0.0
H865 H 0.05048 0.00366 0.0407 0.0
H866 H 0.05398 0.02321 0.95404 0.0
H867 H 0.07445 0.02906 0.8642 0.0
H868 H 0.141 0.99309 0.81646 0.0
H869 H 0.1415 0.97592 0.90838 0.0
C870 C 0.10583 0.98121 0.98968 0.0
C871 C 0.08498 0.98507 1.02618 0.0
C872 C 0.10736 0.99202 0.93853 0.0
C873 C 0.0665 0.00031 1.01273 0.0
C874 C 0.06848 0.01153 0.96326 0.0
C875 C 0.08907 0.0175 0.87398 0.0
C876 C 0.10738 0.01214 0.83381 0.0
C877 C 0.08846 0.00727 0.9255 0.0
C878 C 0.12663 0.9974 0.84702 0.0
C879 C 0.1268 0.98752 0.89933 0.0
H880 H 0.76423 0.31159 0.53673 0.0
H881 H 0.68638 0.29983 0.60397 0.0
H882 H 0.70209 0.30807 0.69573 0.0
H883 H 0.73798 0.31939 0.75707 0.0
H884 H 0.81831 0.3209 0.69666 0.0
H885 H 0.80194 0.31643 0.60217 0.0
C886 C 0.75079 0.31064 0.57162 0.0
C887 C 0.72382 0.30581 0.56274 0.0
C888 C 0.76054 0.31379 0.62554 0.0
C889 C 0.70689 0.30413 0.60873 0.0
C890 C 0.71595 0.30878 0.66155 0.0
C891 C 0.75202 0.31833 0.7236 0.0
C892 C 0.77941 0.32043 0.7343 0.0
C893 C 0.74269 0.31382 0.67041 0.0
C894 C 0.79715 0.31941 0.68976 0.0
C895 C 0.78778 0.31674 0.63574 0.0
H896 H 0.1316 0.33706 0.209 0.0
H897 H 0.1634 0.36191 0.35743 0.0
H898 H 0.15367 0.39591 0.32056 0.0
H899 H 0.13421 0.41836 0.24893 0.0
H900 H 0.10088 0.39368 0.10172 0.0
H901 H 0.11353 0.35978 0.13546 0.0
C902 C 0.13656 0.34985 0.23341 0.0
C903 C 0.14812 0.34679 0.28635 0.0
C904 C 0.13067 0.36942 0.21214 0.0
C905 C 0.15443 0.3637 0.31694 0.0
C906 C 0.14886 0.38322 0.2958 0.0
C907 C 0.12987 0.40568 0.22364 0.0
C908 C 0.11649 0.40872 0.1726 0.0
C909 C 0.13672 0.38619 0.24379 0.0
C910 C 0.11112 0.39191 0.1409 0.0
C911 C 0.11827 0.37244 0.16035 0.0
H912 H 0.86736 0.91209 0.50953 0.0
H913 H 0.85636 0.89028 0.67819 0.0
H914 H 0.83627 0.85916 0.64499 0.0
H915 H 0.8239 0.83805 0.568 0.0
H916 H 0.83304 0.86074 0.39945 0.0
H917 H 0.85246 0.89194 0.43285 0.0
C918 C 0.86055 0.9005 0.53913 0.0
C919 C 0.86364 0.9032 0.59625 0.0
C920 C 0.84913 0.88293 0.51971 0.0
C921 C 0.85418 0.88843 0.63417 0.0
C922 C 0.84292 0.87067 0.61511 0.0
C923 C 0.83034 0.84973 0.5384 0.0
C924 C 0.82763 0.84696 0.48112 0.0
C925 C 0.84073 0.86768 0.55798 0.0
C926 C 0.83528 0.86247 0.44351 0.0
C927 C 0.84625 0.88026 0.46266 0.0
H928 H 0.34864 0.65355 0.75632 0.0
H929 H 0.36242 0.63723 0.92853 0.0
H930 H 0.38978 0.60871 0.90177 0.0
H931 H 0.40634 0.5873 0.83036 0.0
H932 H 0.38862 0.6014 0.65839 0.0
H933 H 0.36649 0.63256 0.68437 0.0
C934 C 0.35796 0.64396 0.78815 0.0
C935 C 0.35365 0.64751 0.84446 0.0
C936 C 0.37288 0.62736 0.77244 0.0
C937 C 0.36541 0.63473 0.88506 0.0
C938 C 0.38105 0.6185 0.86972 0.0
C939 C 0.39819 0.59734 0.79813 0.0
C940 C 0.3993 0.59212 0.74225 0.0
C941 C 0.3845 0.61453 0.8136 0.0
C942 C 0.38812 0.60515 0.70151 0.0
C943 C 0.37537 0.62285 0.71644 0.0
H944 H 0.6337 0.15995 0.11351 0.0
H945 H 0.66806 0.13034 0.97501 0.0
H946 H 0.65493 0.09753 1.01656 0.0
H947 H 0.63202 0.07761 0.08974 0.0
H948 H 0.59655 0.1076 0.22649 0.0
H949 H 0.61214 0.14008 0.18775 0.0
C950 C 0.6384 0.1464 0.09198 0.0
C951 C 0.65171 0.14775 0.04055 0.0
C952 C 0.63065 0.12767 0.11591 0.0
C953 C 0.65779 0.12985 1.01426 0.0
C954 C 0.65026 0.11108 0.03808 0.0
C955 C 0.62786 0.09117 0.1117 0.0
C956 C 0.61303 0.09002 0.16136 0.0
C957 C 0.63647 0.10985 0.08862 0.0
C958 C 0.60787 0.1079 0.18852 0.0
C959 C 0.61671 0.12652 0.1662 0.0
H960 H 0.07313 0.59984 0.58999 0.0
H961 H 0.08863 0.62499 0.74831 0.0
H962 H 0.10206 0.65697 0.70176 0.0
H963 H 0.11656 0.67511 0.6165 0.0
H964 H 0.10398 0.64849 0.45855 0.0
H965 H 0.08133 0.61999 0.50465 0.0
C966 C 0.07906 0.61244 0.61445 0.0
C967 C 0.08044 0.60994 0.67257 0.0
C968 C 0.08728 0.63048 0.58737 0.0
C969 C 0.08753 0.6265 0.70365 0.0
C970 C 0.09535 0.64472 0.67692 0.0
C971 C 0.10822 0.66343 0.59165 0.0
C972 C 0.11256 0.6639 0.53379 0.0
C973 C 0.09632 0.64657 0.61876 0.0
C974 C 0.10125 0.64858 0.5029 0.0
C975 C 0.08852 0.63212 0.52939 0.0
H976 H 0.56102 0.87403 0.66095 0.0
H977 H 0.62848 0.90945 0.71051 0.0
H978 H 0.64158 0.8833 0.77693 0.0
H979 H 0.63438 0.85128 0.82309 0.0
H980 H 0.57533 0.81071 0.76281 0.0
H981 H 0.55761 0.83806 0.7009 0.0
C982 C 0.57887 0.87575 0.68543 0.0
C983 C 0.59326 0.89407 0.68143 0.0
C984 C 0.58721 0.86003 0.72335 0.0
C985 C 0.61652 0.89585 0.71334 0.0
C986 C 0.62407 0.88093 0.75186 0.0
C987 C 0.61723 0.84838 0.79739 0.0
C988 C 0.60559 0.82915 0.79932 0.0
C989 C 0.60928 0.86323 0.75814 0.0
C990 C 0.58407 0.82561 0.76372 0.0
C991 C 0.57434 0.84114 0.72748 0.0
H992 H 0.37808 0.41484 1.01145 0.0
H993 H 0.37014 0.39597 0.18317 0.0
H994 H 0.34626 0.36555 0.15628 0.0
H995 H 0.33154 0.34316 0.08331 0.0
H996 H 0.34004 0.36248 0.91172 0.0
H997 H 0.3598 0.39415 0.93938 0.0
C998 C 0.37099 0.40411 0.04311 0.0
C999 C 0.37623 0.40736 0.09919 0.0
C1000 C 0.35759 0.38679 1.02729 0.0
C1001 C 0.36639 0.39369 0.1398 0.0
C1002 C 0.35291 0.3763 0.12435 0.0
C1003 C 0.33758 0.35434 0.0519 0.0
C1004 C 0.33473 0.35032 0.99541 0.0
C1005 C 0.34903 0.37248 0.06814 0.0
C1006 C 0.34213 0.36513 0.95536 0.0
C1007 C 0.35351 0.38321 0.97116 0.0
H1008 H 0.83567 0.16082 0.25326 0.0
H1009 H 0.84629 0.14373 0.42598 0.0
H1010 H 0.86763 0.11233 0.40028 0.0
H1011 H 0.88578 0.09119 0.32943 0.0
H1012 H 0.87508 0.1077 0.15651 0.0
H1013 H 0.85142 0.13839 0.18184 0.0
C1014 C 0.84242 0.15015 0.28543 0.0
C1015 C 0.83963 0.15471 0.34162 0.0
C1016 C 0.85506 0.13237 0.2703 0.0
C1017 C 0.8481 0.14059 0.3826 0.0
C1018 C 0.86055 0.12275 0.36787 0.0
C1019 C 0.87861 0.1016 0.29703 0.0
C1020 C 0.88286 0.09751 0.24099 0.0
C1021 C 0.8647 0.1188 0.31194 0.0
C1022 C 0.87246 0.11073 0.19978 0.0
C1023 C 0.85886 0.12817 0.21433 0.0
H1024 H 0.89214 0.58414 0.09174 0.0
H1025 H 0.88297 0.6132 0.24676 0.0
H1026 H 0.86177 0.64225 0.19767 0.0
H1027 H 0.84324 0.65793 0.11118 0.0
H1028 H 0.85201 0.6274 0.95786 0.0
H1029 H 0.87593 0.6001 1.00645 0.0
C1030 C 0.88547 0.59678 0.11519 0.0
C1031 C 0.88865 0.59635 0.17311 0.0
C1032 C 0.87314 0.61304 0.08698 0.0
C1033 C 0.88062 0.61313 0.2023 0.0
C1034 C 0.86841 0.62964 0.1742 0.0
C1035 C 0.85058 0.64541 0.08818 0.0
C1036 C 0.84564 0.64473 0.0307 0.0
C1037 C 0.86415 0.62957 0.11661 0.0
C1038 C 0.85531 0.62833 1.0019 0.0
C1039 C 0.86902 0.6127 0.02969 0.0
H1040 H 0.12377 0.10211 0.68601 0.0
H1041 H 0.11438 0.07522 0.84998 0.0
H1042 H 0.1364 0.10384 0.88987 0.0
H1043 H 0.1531 0.13853 0.87978 0.0
H1044 H 0.16183 0.16607 0.71636 0.0
H1045 H 0.1459 0.13541 0.67522 0.0
C1046 C 0.1271 0.10239 0.73024 0.0
C1047 C 0.11702 0.08676 0.76493 0.0
C1048 C 0.13947 0.1192 0.75341 0.0
C1049 C 0.12149 0.08729 0.82234 0.0
C1050 C 0.13413 0.10366 0.84536 0.0
C1051 C 0.15209 0.13765 0.83518 0.0
C1052 C 0.1582 0.1547 0.80147 0.0
C1053 C 0.1424 0.12004 0.81156 0.0
C1054 C 0.15678 0.15328 0.74357 0.0
C1055 C 0.14763 0.13572 0.71981 0.0
H1056 H 0.65083 0.36514 0.4491 0.0
H1057 H 0.65222 0.33255 0.60729 0.0
H1058 H 0.63982 0.36283 0.65353 0.0
H1059 H 0.62362 0.39778 0.64889 0.0
H1060 H 0.62012 0.43019 0.49127 0.0
H1061 H 0.63883 0.40124 0.44571 0.0
C1062 C 0.64862 0.36471 0.49367 0.0
C1063 C 0.6519 0.34639 0.52412 0.0
C1064 C 0.6412 0.38231 0.52054 0.0
C1065 C 0.64923 0.34624 0.58215 0.0
C1066 C 0.64228 0.36365 0.60903 0.0
C1067 C 0.62782 0.39867 0.60494 0.0
C1068 C 0.62065 0.41602 0.57349 0.0
C1069 C 0.63759 0.38167 0.57863 0.0
C1070 C 0.62561 0.41691 0.51629 0.0
C1071 C 0.63608 0.40031 0.49012 0.0
H1072 H 0.3734 0.83434 0.23517 0.0
H1073 H 0.35779 0.86579 0.38462 0.0
H1074 H 0.37538 0.89689 0.34062 0.0
H1075 H 0.39237 0.91531 0.25846 0.0
H1076 H 0.40603 0.88405 0.10795 0.0
H1077 H 0.39179 0.85241 0.15437 0.0
C1078 C 0.37395 0.84788 0.25875 0.0
C1079 C 0.36408 0.84764 0.31344 0.0
C1080 C 0.38347 0.86572 0.23282 0.0
C1081 C 0.36517 0.86546 0.3427 0.0
C1082 C 0.37513 0.88326 0.31741 0.0
C1083 C 0.39227 0.90163 0.23544 0.0
C1084 C 0.40001 0.90217 0.17927 0.0
C1085 C 0.38383 0.88361 0.2622 0.0
C1086 C 0.4001 0.88414 0.1509 0.0
C1087 C 0.39193 0.86606 0.17747 0.0
H1088 H 0.90445 0.41301 0.77921 0.0
H1089 H 0.92459 0.38281 0.63011 0.0
H1090 H 0.90907 0.35079 0.67279 0.0
H1091 H 0.88672 0.33231 0.74892 0.0
H1092 H 0.86382 0.36331 0.89509 0.0
H1093 H 0.88432 0.39425 0.85694 0.0
C1094 C 0.90565 0.39949 0.75565 0.0
C1095 C 0.9155 0.40047 0.70089 0.0
C1096 C 0.89635 0.38131 0.78008 0.0
C1097 C 0.91699 0.38261 0.67192 0.0
C1098 C 0.90813 0.3643 0.69642 0.0
C1099 C 0.88648 0.34568 0.77322 0.0
C1100 C 0.8735 0.34538 0.82509 0.0
C1101 C 0.89737 0.36359 0.75008 0.0
C1102 C 0.87358 0.36299 0.85533 0.0
C1103 C 0.88514 0.38074 0.83327 0.0
H1104 H 0.3715 0.17112 0.59405 0.0
H1105 H 0.34371 0.14019 0.45116 0.0
H1106 H 0.3602 0.10826 0.49231 0.0
H1107 H 0.38042 0.08914 0.57002 0.0
H1108 H 0.40752 0.11991 0.71369 0.0
H1109 H 0.39286 0.15211 0.67072 0.0
C1110 C 0.3691 0.15748 0.57134 0.0
C1111 C 0.35617 0.15818 0.51926 0.0
C1112 C 0.37815 0.13916 0.59572 0.0
C1113 C 0.35356 0.14023 0.49097 0.0
C1114 C 0.36285 0.12193 0.51473 0.0
C1115 C 0.38308 0.1028 0.59248 0.0
C1116 C 0.39486 0.10195 0.6457 0.0
C1117 C 0.37476 0.12121 0.56742 0.0
C1118 C 0.3984 0.12 0.67312 0.0
C1119 C 0.39008 0.13843 0.64842 0.0
H1120 H 0.56379 0.59402 0.31512 0.0
H1121 H 0.59547 0.59892 0.14945 0.0
H1122 H 0.61424 0.63191 0.16889 0.0
H1123 H 0.62791 0.6561 0.23722 0.0
H1124 H 0.6013 0.64854 0.40609 0.0
H1125 H 0.57377 0.61992 0.38074 0.0
C1126 C 0.5743 0.6024 0.28259 0.0
C1127 C 0.57845 0.59379 0.2309 0.0
C1128 C 0.5861 0.62084 0.29494 0.0
C1129 C 0.59212 0.60505 0.18963 0.0
C1130 C 0.60294 0.62389 0.20085 0.0
C1131 C 0.61543 0.64865 0.26825 0.0
C1132 C 0.6166 0.65449 0.32362 0.0
C1133 C 0.60097 0.63151 0.25403 0.0
C1134 C 0.60068 0.64438 0.3633 0.0
C1135 C 0.58513 0.62793 0.34883 0.0
H1136 H 0.1487 0.84033 0.08752 0.0
H1137 H 0.12615 0.85011 0.91629 0.0
H1138 H 0.10189 0.88065 0.94011 0.0
H1139 H 0.08872 0.90491 1.00897 0.0
H1140 H 0.11377 0.89592 0.17896 0.0
H1141 H 0.13626 0.86468 0.15561 0.0
C1142 C 0.13805 0.84883 0.05529 0.0
C1143 C 0.13877 0.84267 1.00014 0.0
C1144 C 0.12519 0.86667 0.06893 0.0
C1145 C 0.12556 0.85434 0.95901 0.0
C1146 C 0.11192 0.87186 0.97262 0.0
C1147 C 0.09907 0.89614 0.0411 0.0
C1148 C 0.09945 0.90271 0.09587 0.0
C1149 C 0.11192 0.87827 1.02732 0.0
C1150 C 0.11329 0.89129 0.13658 0.0
C1151 C 0.12594 0.87335 0.12329 0.0
H1152 H -0.00574 0.51671 0.30602 0.0
H1153 H 0.9551 0.46602 0.23897 0.0
H1154 H 0.98215 0.46934 0.15498 0.0
H1155 H 0.01066 0.49096 0.09547 0.0
H1156 H 0.05101 0.54125 0.16343 0.0
H1157 H 0.0242 0.53773 0.24765 0.0
C1158 C 0.99214 0.50613 0.27328 0.0
C1159 C 0.96975 0.4936 0.27236 0.0
C1160 C 0.00521 0.51012 0.22314 0.0
C1161 C 0.97029 0.47757 0.23624 0.0
C1162 C 0.98462 0.4801 0.18709 0.0
C1163 C 0.01308 0.50148 0.12821 0.0
C1164 C 0.03485 0.51464 0.12722 0.0
C1165 C 0.00056 0.49733 0.17873 0.0
C1166 C 0.03557 0.52988 0.16582 0.0
C1167 C 0.0214 0.52719 0.2151 0.0
H1168 H 0.75815 0.75084 0.34264 0.0
H1169 H 0.75951 0.73184 0.51579 0.0
H1170 H 0.77829 0.6993 0.49155 0.0
H1171 H 0.78482 0.67494 0.41818 0.0
H1172 H 0.77794 0.69348 0.24997 0.0
H1173 H 0.77576 0.72876 0.27316 0.0
C1174 C 0.7631 0.73999 0.3757 0.0
C1175 C 0.75706 0.74373 0.43106 0.0
C1176 C 0.77496 0.72206 0.36194 0.0
C1177 C 0.7634 0.72911 0.47275 0.0
C1178 C 0.77488 0.7108 0.45921 0.0
C1179 C 0.78394 0.68715 0.38699 0.0
C1180 C 0.77296 0.6833 0.33508 0.0
C1181 C 0.77983 0.70691 0.40373 0.0
C1182 C 0.78018 0.69726 0.29285 0.0
C1183 C 0.77854 0.71751 0.30608 0.0
H1184 H 0.48175 0.46678 0.62835 0.0
H1185 H 0.51678 0.48678 0.77993 0.0
H1186 H 0.47715 0.47619 0.83115 0.0
H1187 H 0.43064 0.46573 0.82904 0.0
H1188 H 0.39275 0.45674 0.67613 0.0
H1189 H 0.43586 0.45313 0.62995 0.0
C1190 C 0.4807 0.46898 0.67241 0.0
C1191 C 0.50181 0.47797 0.70024 0.0
C1192 C 0.45812 0.46285 0.7014 0.0
C1193 C 0.50031 0.48041 0.7576 0.0
C1194 C 0.47811 0.47385 0.78715 0.0
C1195 C 0.43223 0.46271 0.78543 0.0
C1196 C 0.41062 0.46741 0.75088 0.0
C1197 C 0.45682 0.4653 0.75932 0.0
C1198 C 0.41079 0.4577 0.70033 0.0
C1199 C 0.43531 0.45637 0.67344 0.0
H1200 H 0.66752 0.24942 0.82204 0.0
H1201 H 0.66772 0.28305 0.96979 0.0
H1202 H 0.69594 0.30843 0.92485 0.0
H1203 H 0.73773 0.30487 0.87717 0.0
H1204 H 0.7455 0.26286 0.74713 0.0
H1205 H 0.69754 0.2574 0.74795 0.0
C1206 C 0.67192 0.26312 0.84273 0.0
C1207 C 0.66813 0.26362 0.9 0.0
C1208 C 0.69126 0.27559 0.81942 0.0
C1209 C 0.67239 0.28171 0.92645 0.0
C1210 C 0.68879 0.29612 0.90071 0.0
C1211 C 0.72872 0.29496 0.84795 0.0
C1212 C 0.74467 0.28259 0.81611 0.0
C1213 C 0.70189 0.29082 0.85225 0.0
C1214 C 0.73328 0.27123 0.77487 0.0
C1215 C 0.70591 0.26841 0.77497 0.0
H1216 H 0.00139 0.49222 0.56438 0.0
H1217 H 0.95105 0.53713 0.62966 0.0
H1218 H 0.97562 0.53544 0.71744 0.0
H1219 H 0.0066 0.51653 0.77909 0.0
H1220 H 0.05821 0.47227 0.71279 0.0
H1221 H 0.03338 0.47383 0.62547 0.0
C1222 C -0.00386 0.50183 0.59784 0.0
C1223 C 0.97146 0.51163 0.59678 0.0
C1224 C 0.00845 0.49867 0.64939 0.0
C1225 C 0.96809 0.52721 0.63378 0.0
C1226 C 0.9811 0.5255 0.68492 0.0
C1227 C 0.01208 0.50693 0.74584 0.0
C1228 C 0.03634 0.49657 0.74839 0.0
C1229 C 8e-05 0.51018 0.69414 0.0
C1230 C 0.04082 0.48185 0.70925 0.0
C1231 C 0.02766 0.48354 0.65832 0.0
H1232 H 0.78261 0.75582 0.92924 0.0
H1233 H 0.75111 0.72084 0.79713 0.0
H1234 H 0.75293 0.75043 0.73397 0.0
H1235 H 0.7528 0.78719 0.72549 0.0
H1236 H 0.77071 0.82159 0.86465 0.0
H1237 H 0.79082 0.79216 0.91276 0.0
C1238 C 0.7759 0.75466 0.88687 0.0
C1239 C 0.76536 0.73658 0.86844 0.0
C1240 C 0.77681 0.77156 0.85133 0.0
C1241 C 0.75806 0.735 0.81263 0.0
C1242 C 0.75977 0.75168 0.77618 0.0
C1243 C 0.76183 0.78807 0.7661 0.0
C1244 C 0.75472 0.80395 0.79916 0.0
C1245 C 0.7678 0.77021 0.79597 0.0
C1246 C 0.77183 0.80753 0.84354 0.0
C1247 C 0.78245 0.79061 0.87187 0.0
H1248 H 0.50021 0.47199 0.10634 0.0
H1249 H 0.45861 0.49842 0.24177 0.0
H1250 H 0.49254 0.48628 0.30582 0.0
H1251 H 0.53737 0.47341 0.32069 0.0
H1252 H 0.58388 0.45638 0.18371 0.0
H1253 H 0.54422 0.45601 0.12462 0.0
C1254 C 0.49867 0.4753 0.14967 0.0
C1255 C 0.47651 0.48574 0.16921 0.0
C1256 C 0.519 0.46925 0.18617 0.0
C1257 C 0.47512 0.49007 0.2256 0.0
C1258 C 0.49455 0.48319 0.26247 0.0
C1259 C 0.53861 0.46936 0.27777 0.0
C1260 C 0.56342 0.46956 0.25192 0.0
C1261 C 0.51681 0.4732 0.24303 0.0
C1262 C 0.56476 0.45959 0.20176 0.0
C1263 C 0.54236 0.46026 0.16718 0.0
H1264 H 0.80666 0.28321 0.34106 0.0
H1265 H 0.82961 0.2767 0.50956 0.0
H1266 H 0.78296 0.27279 0.53806 0.0
H1267 H 0.73847 0.26041 0.51002 0.0
H1268 H 0.72144 0.25489 0.33604 0.0
H1269 H 0.76379 0.27056 0.3123 0.0
C1270 C 0.80111 0.28123 0.38426 0.0
C1271 C 0.82051 0.27494 0.42248 0.0
C1272 C 0.77547 0.27449 0.39714 0.0
C1273 C 0.81419 0.27758 0.47832 0.0
C1274 C 0.78774 0.27453 0.49451 0.0
C1275 C 0.74425 0.26206 0.46695 0.0
C1276 C 0.72657 0.25703 0.42466 0.0
C1277 C 0.76877 0.27065 0.45347 0.0
C1278 C 0.73481 0.25874 0.36918 0.0
C1279 C 0.75857 0.26825 0.35541 0.0
H1280 H 0.25269 0.24922 1.00329 0.0
H1281 H 0.26813 0.256 0.82835 0.0
H1282 H 0.2251 0.27207 0.81348 0.0
H1283 H 0.18297 0.28345 0.85077 0.0
H1284 H 0.16258 0.26763 1.01635 0.0
H1285 H 0.20939 0.26086 0.03991 0.0
C1286 C 0.24662 0.2541 0.96199 0.0
C1287 C 0.26431 0.25289 0.91755 0.0
C1288 C 0.22224 0.2637 0.95407 0.0
C1289 C 0.25517 0.25761 0.86354 0.0
C1290 C 0.23112 0.26753 0.85517 0.0
C1291 C 0.1892 0.27875 0.8923 0.0
C1292 C 0.17035 0.27025 0.92849 0.0
C1293 C 0.2149 0.27116 0.90038 0.0
C1294 C 0.17755 0.26991 0.98471 0.0
C1295 C 0.20407 0.26533 0.9978 0.0
H1296 H 0.27754 0.67082 0.43497 0.0
H1297 H 0.27349 0.69071 0.59965 0.0
H1298 H 0.29319 0.72296 0.57157 0.0
H1299 H 0.29399 0.74819 0.49585 0.0
H1300 H 0.29035 0.72984 0.32651 0.0
H1301 H 0.28892 0.69449 0.35872 0.0
C1302 C 0.28234 0.68206 0.46479 0.0
C1303 C 0.26908 0.68152 0.5155 0.0
C1304 C 0.29036 0.7012 0.44554 0.0
C1305 C 0.28003 0.69298 0.55724 0.0
C1306 C 0.29069 0.71165 0.54101 0.0
C1307 C 0.2933 0.73656 0.46567 0.0
C1308 C 0.29141 0.74157 0.409 0.0
C1309 C 0.29277 0.71657 0.48422 0.0
C1310 C 0.29098 0.72626 0.37054 0.0
C1311 C 0.2908 0.70609 0.38877 0.0
H1312 H 0.24668 0.22039 0.39991 0.0
H1313 H 0.24332 0.24884 0.55726 0.0
H1314 H 0.19528 0.24288 0.5613 0.0
H1315 H 0.15477 0.23606 0.50783 0.0
H1316 H 0.15981 0.21041 0.3504 0.0
H1317 H 0.20728 0.2041 0.36336 0.0
C1318 C 0.23572 0.22528 0.43546 0.0
C1319 C 0.2481 0.2364 0.47642 0.0
C1320 C 0.20906 0.2205 0.43937 0.0
C1321 C 0.23365 0.24167 0.52328 0.0
C1322 C 0.20653 0.23754 0.52669 0.0
C1323 C 0.16634 0.22834 0.47763 0.0
C1324 C 0.15712 0.22823 0.42295 0.0
C1325 C 0.19394 0.22776 0.48359 0.0
C1326 C 0.1689 0.21406 0.38934 0.0
C1327 C 0.19617 0.21105 0.39583 0.0
H1328 H 0.26057 0.72662 0.98237 0.0
H1329 H 0.273 0.75136 0.81656 0.0
H1330 H 0.29414 0.78108 0.854 0.0
H1331 H 0.30186 0.80157 0.93506 0.0
H1332 H 0.28417 0.77853 0.09577 0.0
H1333 H 0.27741 0.74444 0.06202 0.0
C1334 C 0.26865 0.73801 0.95399 0.0
C1335 C 0.26634 0.73634 0.89659 0.0
C1336 C 0.28103 0.75455 0.9755 0.0
C1337 C 0.27539 0.75209 0.86086 0.0
C1338 C 0.28784 0.76888 0.88206 0.0
C1339 C 0.29721 0.78868 0.96234 0.0
C1340 C 0.28489 0.79199 1.01294 0.0
C1341 C 0.29034 0.77036 0.93933 0.0
C1342 C 0.28718 0.77598 0.05232 0.0
C1343 C 0.28241 0.75673 0.03305 0.0
H1344 H 0.46043 0.00138 0.60849 0.0
H1345 H 0.49886 0.0229 0.75495 0.0
H1346 H 0.53909 0.03015 0.70127 0.0
H1347 H 0.5641 0.02617 0.61541 0.0
H1348 H 0.52732 -6e-05 0.4772 0.0
H1349 H 0.48353 0.00291 0.51995 0.0
C1350 C 0.4773 0.00791 0.6291 0.0
C1351 C 0.4764 0.01196 0.68573 0.0
C1352 C 0.49982 0.01233 0.59819 0.0
C1353 C 0.49897 0.01985 0.7114 0.0
C1354 C 0.52177 0.02432 0.68063 0.0
C1355 C 0.54613 0.0217 0.59432 0.0
C1356 C 0.54823 0.00846 0.55084 0.0
C1357 C 0.52242 0.02039 0.62421 0.0
C1358 C 0.52583 0.00691 0.51676 0.0
C1359 C 0.501 0.00778 0.54202 0.0
H1360 H -0.00255 0.98099 0.26189 0.0
H1361 H 0.97183 0.97327 0.09318 0.0
H1362 H 0.92776 0.96366 0.1252 0.0
H1363 H 0.89506 0.96392 0.19984 0.0
H1364 H 0.91788 0.97671 0.36199 0.0
H1365 H 0.96527 0.97514 0.33815 0.0
C1366 C 0.98224 0.97734 0.23207 0.0
C1367 C 0.98776 0.97816 0.17532 0.0
C1368 C 0.95718 0.9717 0.2505 0.0
C1369 C 0.96789 0.97316 0.13714 0.0
C1370 C 0.94293 0.96702 0.15532 0.0
C1371 C 0.91086 0.96564 0.22983 0.0
C1372 C 0.90592 0.9769 0.27616 0.0
C1373 C 0.93721 0.96672 0.21168 0.0
C1374 C 0.92344 0.97295 0.32046 0.0
C1375 C 0.95041 0.97264 0.30673 0.0
H1376 H 0.43502 0.03415 0.11466 0.0
H1377 H 0.46477 0.00884 0.96992 0.0
H1378 H 0.50668 -0.00037 1.01674 0.0
H1379 H 0.52757 0.99054 0.10614 0.0
H1380 H 0.4966 0.01495 0.2559 0.0
H1381 H 0.4592 0.02969 0.20356 0.0
C1382 C 0.45123 0.02697 0.09355 0.0
C1383 C 0.4456 0.01606 0.04637 0.0
C1384 C 0.47325 0.01996 0.12445 0.0
C1385 C 0.46761 0.0128 1.01251 0.0
C1386 C 0.49109 0.00683 0.03957 0.0
C1387 C 0.51273 -0.00097 0.12784 0.0
C1388 C 0.51559 0.00239 0.18469 0.0
C1389 C 0.4927 0.00859 0.09728 0.0
C1390 C 0.49534 0.01266 0.21197 0.0
C1391 C 0.47442 0.0216 0.18193 0.0
H1392 H 0.92561 0.02231 0.69644 0.0
H1393 H 0.9461 0.01762 0.52679 0.0
H1394 H 0.99139 0.00794 0.55173 0.0
H1395 H 0.02295 0.99712 0.62299 0.0
H1396 H 0.00207 0.00093 0.79527 0.0
H1397 H 0.95771 0.01265 0.76914 0.0
C1398 C 0.94058 0.02013 0.66506 0.0
C1399 C 0.93258 0.01585 0.61141 0.0
C1400 C 0.96574 0.01326 0.68123 0.0
C1401 C 0.95189 0.01759 0.56994 0.0
C1402 C 0.9775 0.01137 0.58405 0.0
C1403 C 0.00869 0.00023 0.65508 0.0
C1404 C 0.01629 -0.00059 0.71088 0.0
C1405 C 0.98409 0.00807 0.63996 0.0
C1406 C -0.00295 0.00242 0.75181 0.0
C1407 C 0.97196 0.00961 0.73706 0.0
H1408 H 0.05238 0.43623 0.89731 0.0
H1409 H -0.00405 0.4769 0.96673 0.0
H1410 H 0.97165 0.47924 0.87915 0.0
H1411 H 0.96566 0.4691 0.78241 0.0
H1412 H 0.0204 0.42672 0.71522 0.0
H1413 H 0.04579 0.42565 0.80123 0.0
C1414 C 0.03476 0.44557 0.89322 0.0
C1415 C 0.02603 0.45628 0.93884 0.0
C1416 C 0.02039 0.44651 0.84275 0.0
C1417 C 0.00308 0.46832 0.93262 0.0
C1418 C 0.98913 0.46972 0.88236 0.0
C1419 C 0.9831 0.45967 0.78657 0.0
C1420 C 0.99097 0.44805 0.74198 0.0
C1421 C -0.00255 0.45878 0.83708 0.0
C1422 C 0.01368 0.4358 0.74864 0.0
C1423 C 0.02834 0.43519 0.79798 0.0
H1424 H 0.84384 0.72815 0.17839 0.0
H1425 H 0.76854 0.75269 0.12391 0.0
H1426 H 0.76589 0.77253 0.20653 0.0
H1427 H 0.78283 0.78079 0.29865 0.0
H1428 H 0.85673 0.75508 0.35708 0.0
H1429 H 0.86196 0.73793 0.26992 0.0
C1430 C 0.82699 0.73797 0.18442 0.0
C1431 C 0.80634 0.73878 0.14454 0.0
C1432 C 0.82527 0.74915 0.23336 0.0
C1433 C 0.78461 0.75156 0.15368 0.0
C1434 C 0.78314 0.76306 0.20101 0.0
C1435 C 0.80042 0.77184 0.29197 0.0
C1436 C 0.81937 0.76939 0.33495 0.0
C1437 C 0.8031 0.76174 0.24172 0.0
C1438 C 0.84178 0.75736 0.32521 0.0
C1439 C 0.84473 0.74744 0.27518 0.0
H1440 H 0.52204 0.55432 0.46032 0.0
H1441 H 0.48744 0.49845 0.41079 0.0
H1442 H 0.46391 0.49494 0.49926 0.0
H1443 H 0.45356 0.50755 0.59258 0.0
H1444 H 0.49059 0.56248 0.64275 0.0
H1445 H 0.5127 0.56639 0.55333 0.0
C1446 C 0.50937 0.54135 0.46884 0.0
C1447 C 0.5066 0.52669 0.42861 0.0
C1448 C 0.4963 0.53919 0.52047 0.0
C1449 C 0.49006 0.50998 0.44075 0.0
C1450 C 0.47662 0.50793 0.49156 0.0
C1451 C 0.46636 0.52041 0.58374 0.0
C1452 C 0.47014 0.53483 0.62449 0.0
C1453 C 0.47959 0.52241 0.532 0.0
C1454 C 0.48718 0.5512 0.61239 0.0
C1455 C 0.49988 0.55347 0.56107 0.0
H1456 H 0.60648 0.24245 0.86178 0.0
H1457 H 0.65216 0.18879 0.83708 0.0
H1458 H 0.66056 0.19985 0.74097 0.0
H1459 H 0.65828 0.22644 0.66558 0.0
H1460 H 0.61178 0.27987 0.68971 0.0
H1461 H 0.60005 0.26727 0.78295 0.0
C1462 C 0.61763 0.23288 0.835 0.0
C1463 C 0.62957 0.21503 0.85769 0.0
C1464 C 0.62215 0.23937 0.779 0.0
C1465 C 0.64382 0.20294 0.82174 0.0
C1466 C 0.64843 0.20924 0.76643 0.0
C1467 C 0.64535 0.23525 0.691 0.0
C1468 C 0.63612 0.25425 0.67025 0.0
C1469 C 0.63847 0.22777 0.74496 0.0
C1470 C 0.6193 0.26529 0.70417 0.0
C1471 C 0.61245 0.25801 0.75768 0.0
H1472 H 0.95773 0.53142 0.09061 0.0
H1473 H -0.00366 0.58411 0.15161 0.0
H1474 H 0.02032 0.58895 0.06486 0.0
H1475 H 0.02976 0.57912 0.96918 0.0
H1476 H 0.98802 0.52849 0.90443 0.0
H1477 H 0.96592 0.52226 0.99327 0.0
C1478 C 0.97106 0.54412 0.08468 0.0
C1479 C 0.97472 0.55752 0.12796 0.0
C1480 C 0.98434 0.54732 0.03325 0.0
C1481 C 0.99278 0.57358 0.11937 0.0
C1482 C 0.0066 0.57641 0.06946 0.0
C1483 C 0.01576 0.56678 0.97447 0.0
C1484 C 0.01062 0.55438 0.92969 0.0
C1485 C 0.00242 0.56355 1.02571 0.0
C1486 C 0.99233 0.53844 0.93771 0.0
C1487 C 0.97965 0.5348 0.98881 0.0
H1488 H 0.65044 0.7166 0.11983 0.0
H1489 H 0.72124 0.74812 0.16663 0.0
H1490 H 0.72136 0.76686 0.07703 0.0
H1491 H 0.70164 0.77378 0.9831 0.0
H1492 H 0.63107 0.74146 0.93779 0.0
H1493 H 0.63062 0.72374 0.02801 0.0
C1494 C 0.66587 0.72761 0.11054 0.0
C1495 C 0.68582 0.73087 0.1502 0.0
C1496 C 0.6659 0.73824 0.05862 0.0
C1497 C 0.70568 0.7452 0.13704 0.0
C1498 C 0.70574 0.75595 0.08564 0.0
C1499 C 0.68607 0.76298 0.99318 0.0
C1500 C 0.66631 0.75908 0.95325 0.0
C1501 C 0.686 0.75256 0.04576 0.0
C1502 C 0.64649 0.74485 0.96727 0.0
C1503 C 0.64622 0.73464 1.01908 0.0
H1504 H 0.53307 0.42967 0.39521 0.0
H1505 H 0.46671 0.45932 0.46901 0.0
H1506 H 0.44161 0.4577 0.38245 0.0
H1507 H 0.43893 0.44844 0.2837 0.0
H1508 H 0.5059 0.4194 0.21077 0.0
H1509 H 0.52928 0.41883 0.29898 0.0
C1510 C 0.51305 0.43566 0.3925 0.0
C1511 C 0.50199 0.44481 0.43873 0.0
C1512 C 0.49846 0.43434 0.3426 0.0
C1513 C 0.47589 0.45233 0.43422 0.0
C1514 C 0.46142 0.45132 0.38462 0.0
C1515 C 0.45867 0.44227 0.28692 0.0
C1516 C 0.47081 0.4347 0.23952 0.0
C1517 C 0.47255 0.44251 0.33815 0.0
C1518 C 0.49601 0.42563 0.24589 0.0
C1519 C 0.50957 0.42537 0.29654 0.0
H1520 H 0.87331 0.27425 0.62886 0.0
H1521 H 0.82916 0.2251 0.70579 0.0
H1522 H 0.83422 0.20553 0.62302 0.0
H1523 H 0.8474 0.20376 0.52466 0.0
H1524 H 0.89334 0.25248 0.45012 0.0
H1525 H 0.8915 0.27059 0.53542 0.0
C1526 C 0.86499 0.2592 0.62762 0.0
C1527 C 0.85055 0.25129 0.67313 0.0
C1528 C 0.86811 0.24793 0.57989 0.0
C1529 C 0.84019 0.23164 0.67115 0.0
C1530 C 0.84306 0.22042 0.62374 0.0
C1531 C 0.85746 0.21814 0.52759 0.0
C1532 C 0.87017 0.22681 0.48069 0.0
C1533 C 0.85641 0.22859 0.57724 0.0
C1534 C 0.88332 0.2454 0.48535 0.0
C1535 C 0.88213 0.25591 0.53415 0.0
H1536 H 0.99118 0.57757 0.62795 0.0
H1537 H 0.05302 0.53534 0.59133 0.0
H1538 H 0.03667 0.5336 0.49646 0.0
H1539 H 0.00371 0.54326 0.424 0.0
H1540 H 0.9398 0.58351 0.46244 0.0
H1541 H 0.95773 0.58676 0.55591 0.0
C1542 C 0.00121 0.56813 0.59903 0.0
C1543 C 0.02357 0.55674 0.61682 0.0
C1544 C 0.99112 0.56677 0.54466 0.0
C1545 C 0.03606 0.54442 0.57882 0.0
C1546 C 0.02657 0.54334 0.52449 0.0
C1547 C 0.99382 0.55287 0.45271 0.0
C1548 C 0.97053 0.56332 0.43586 0.0
C1549 C 0.00399 0.55434 0.50694 0.0
C1550 C 0.95778 0.57542 0.47403 0.0
C1551 C 0.96806 0.57727 0.52759 0.0
H1552 H 0.14132 0.22905 0.16237 0.0
H1553 H 0.09944 0.28414 0.1195 0.0
H1554 H 0.09234 0.27281 1.02538 0.0
H1555 H 0.10123 0.24822 0.95309 0.0
H1556 H 0.14 0.19209 0.99833 0.0
H1557 H 0.14498 0.20264 0.09359 0.0
C1558 C 0.13041 0.23848 0.13254 0.0
C1559 C 0.12111 0.25751 0.14781 0.0
C1560 C 0.12593 0.23165 0.07883 0.0
C1561 C 0.10678 0.26946 0.10885 0.0
C1562 C 0.10275 0.26297 0.05497 0.0
C1563 C 0.11011 0.23807 0.98412 0.0
C1564 C 0.12102 0.21957 0.96822 0.0
C1565 C 0.11252 0.24419 0.0392 0.0
C1566 C 0.13234 0.20664 1.00914 0.0
C1567 C 0.13509 0.21266 0.06365 0.0
H1568 H 0.51754 0.44703 0.94006 0.0
H1569 H 0.44058 0.42434 0.89484 0.0
H1570 H 0.45692 0.41735 0.80279 0.0
H1571 H 0.49165 0.42087 0.73168 0.0
H1572 H 0.56939 0.44131 0.77666 0.0
H1573 H 0.55436 0.44628 0.87137 0.0
C1574 C 0.50442 0.44047 0.91009 0.0
C1575 C 0.4777 0.43649 0.92432 0.0
C1576 C 0.51405 0.43634 0.85677 0.0
C1577 C 0.46112 0.42771 0.88512 0.0
C1578 C 0.47051 0.42361 0.83238 0.0
C1579 C 0.5055 0.42603 0.76244 0.0
C1580 C 0.53151 0.4315 0.74642 0.0
C1581 C 0.49674 0.42828 0.81723 0.0
C1582 C 0.54914 0.4378 0.78727 0.0
C1583 C 0.54048 0.44051 0.84159 0.0
H1584 H 0.3396 0.78796 0.51884 0.0
H1585 H 0.36582 0.73367 0.4442 0.0
H1586 H 0.36113 0.71486 0.53227 0.0
H1587 H 0.34582 0.71275 0.62976 0.0
H1588 H 0.31465 0.76617 0.70173 0.0
H1589 H 0.32378 0.78586 0.61639 0.0
C1590 C 0.34372 0.77196 0.52161 0.0
C1591 C 0.35223 0.76228 0.47392 0.0
C1592 C 0.33973 0.76084 0.57241 0.0
C1593 C 0.359 0.74167 0.47961 0.0
C1594 C 0.35619 0.73077 0.5302 0.0
C1595 C 0.34119 0.72872 0.62692 0.0
C1596 C 0.32949 0.73783 0.67262 0.0
C1597 C 0.34598 0.74003 0.57675 0.0
C1598 C 0.32357 0.7586 0.66757 0.0
C1599 C 0.32881 0.76996 0.61852 0.0
H1600 H 0.05038 0.47255 0.28503 0.0
H1601 H 0.00896 0.42257 0.21596 0.0
H1602 H 0.9841 0.4171 0.30166 0.0
H1603 H 0.97426 0.42606 0.3982 0.0
H1604 H 0.01886 0.47404 0.46958 0.0
H1605 H 0.04224 0.48043 0.38259 0.0
C1606 C 0.03623 0.46028 0.289 0.0
C1607 C 0.0319 0.44788 0.24394 0.0
C1608 C 0.02241 0.45677 0.33941 0.0
C1609 C 0.01296 0.43231 0.24983 0.0
C1610 C -0.00136 0.42915 0.29902 0.0
C1611 C 0.98915 0.43785 0.39468 0.0
C1612 C -0.00529 0.44948 0.44075 0.0
C1613 C 0.00322 0.44119 0.3444 0.0
C1614 C 0.01418 0.4647 0.43519 0.0
C1615 C 0.0276 0.46845 0.3852 0.0
H1616 H 0.32667 0.28533 0.20476 0.0
H1617 H 0.35973 0.23231 0.13407 0.0
H1618 H 0.36479 0.21627 0.22636 0.0
H1619 H 0.35887 0.21712 0.3279 0.0
H1620 H 0.3274 0.27091 0.39749 0.0
H1621 H 0.32261 0.28679 0.30538 0.0
C1622 C 0.33517 0.27033 0.20968 0.0
C1623 C 0.34287 0.26003 0.1629 0.0
C1624 C 0.33819 0.26129 0.26279 0.0
C1625 C 0.3538 0.24058 0.16968 0.0
C1626 C 0.35664 0.23138 0.22239 0.0
C1627 C 0.35106 0.23232 0.32257 0.0
C1628 C 0.34334 0.24281 0.36909 0.0
C1629 C 0.34876 0.24154 0.26932 0.0
C1630 C 0.33347 0.26256 0.3621 0.0
C1631 C 0.33067 0.27165 0.30948 0.0
H1632 H 0.48723 0.54957 0.12716 0.0
H1633 H 0.5467 0.50463 0.09751 0.0
H1634 H 0.52905 0.50043 1.00435 0.0
H1635 H 0.49646 0.50985 0.93002 0.0
H1636 H 0.43915 0.5565 0.95934 0.0
H1637 H 0.45578 0.55948 0.05311 0.0
C1638 C 0.49633 0.53888 0.10025 0.0
C1639 C 0.51836 0.52756 0.11924 0.0
C1640 C 0.48625 0.53672 0.04637 0.0
C1641 C 0.52992 0.51376 0.08376 0.0
C1642 C 0.51973 0.51126 0.03046 0.0
C1643 C 0.48766 0.52063 0.95703 0.0
C1644 C 0.46626 0.53272 0.9377 0.0
C1645 C 0.49791 0.52272 1.01107 0.0
C1646 C 0.4553 0.54676 0.9732 0.0
C1647 C 0.4649 0.54857 1.02695 0.0
H1648 H 0.16967 0.786 0.82977 0.0
H1649 H 0.20519 0.73666 0.92448 0.0
H1650 H 0.20517 0.71614 0.84248 0.0
H1651 H 0.19797 0.71283 0.74225 0.0
H1652 H 0.16043 0.76133 0.64782 0.0
H1653 H 0.15975 0.78184 0.72984 0.0
C1654 C 0.17797 0.77091 0.8321 0.0
C1655 C 0.18835 0.76316 0.88297 0.0
C1656 C 0.17811 0.75916 0.78435 0.0
C1657 C 0.19778 0.74321 0.88571 0.0
C1658 C 0.1979 0.73149 0.83871 0.0
C1659 C 0.18939 0.72778 0.73967 0.0
C1660 C 0.1792 0.7354 0.68858 0.0
C1661 C 0.18857 0.73938 0.78753 0.0
C1662 C 0.16831 0.75495 0.68636 0.0
C1663 C 0.16796 0.76674 0.73341 0.0
H1664 H 0.50947 0.93709 0.20343 0.0
H1665 H 0.43266 0.95679 0.25585 0.0
H1666 H 0.44716 0.95502 0.35224 0.0
H1667 H 0.4819 0.94727 0.42325 0.0
H1668 H 0.55796 0.92515 0.37148 0.0
H1669 H 0.54367 0.92801 0.2747 0.0
C1670 C 0.49595 0.94112 0.23595 0.0
C1671 C 0.47022 0.94822 0.22157 0.0
C1672 C 0.50434 0.93927 0.2921 0.0
C1673 C 0.45297 0.95281 0.26477 0.0
C1674 C 0.46117 0.95126 0.32037 0.0
C1675 C 0.4953 0.94291 0.39085 0.0
C1676 C 0.52103 0.93582 0.40523 0.0
C1677 C 0.48686 0.94456 0.33474 0.0
C1678 C 0.53803 0.93043 0.36219 0.0
C1679 C 0.52987 0.93217 0.30655 0.0
H1680 H 0.34277 0.27379 0.65856 0.0
H1681 H 0.36621 0.21327 0.70901 0.0
H1682 H 0.3743 0.224 0.80314 0.0
H1683 H 0.36981 0.24972 0.87276 0.0
H1684 H 0.3465 0.31026 0.82241 0.0
H1685 H 0.34403 0.30059 0.72599 0.0
C1686 C 0.35 0.26304 0.69007 0.0
C1687 C 0.3536 0.24274 0.67733 0.0
C1688 C 0.35469 0.26935 0.74388 0.0
C1689 C 0.3632 0.22896 0.71812 0.0
C1690 C 0.36779 0.23509 0.77187 0.0
C1691 C 0.36483 0.26091 0.84049 0.0
C1692 C 0.35785 0.28058 0.85453 0.0
C1693 C 0.36297 0.25513 0.78549 0.0
C1694 C 0.35172 0.29499 0.81241 0.0
C1695 C 0.35013 0.28943 0.75742 0.0
H1696 H 0.98443 0.06775 0.11673 0.0
H1697 H 0.94212 0.01188 0.10023 0.0
H1698 H 0.96092 0.00835 1.00798 0.0
H1699 H 0.98927 0.02137 0.93024 0.0
H1700 H 0.03071 0.07769 0.94623 0.0
H1701 H 0.0124 0.08087 0.03894 0.0
C1702 C 0.97929 0.05482 0.09291 0.0
C1703 C 0.9617 0.04014 0.1158 0.0
C1704 C 0.98998 0.05302 0.03907 0.0
C1705 C 0.95544 0.02347 0.08399 0.0
C1706 C 0.96625 0.02143 0.03099 0.0
C1707 C -0.00579 0.03438 0.95392 0.0
C1708 C 0.01138 0.04933 0.93067 0.0
C1709 C 0.98345 0.03616 1.00775 0.0
C1710 C 0.01754 0.066 0.96249 0.0
C1711 C 0.00707 0.06781 1.01583 0.0
H1712 H 0.22524 0.7692 0.22124 0.0
H1713 H 0.14902 0.74742 0.1688 0.0
H1714 H 0.14389 0.72842 0.25701 0.0
H1715 H 0.16043 0.71861 0.35125 0.0
H1716 H 0.23436 0.74339 0.4069 0.0
H1717 H 0.24095 0.76053 0.31648 0.0
C1718 C 0.20741 0.76043 0.22928 0.0
C1719 C 0.18746 0.75992 0.18824 0.0
C1720 C 0.20419 0.74999 0.28113 0.0
C1721 C 0.16463 0.74825 0.19949 0.0
C1722 C 0.16169 0.73732 0.25008 0.0
C1723 C 0.17803 0.72767 0.34341 0.0
C1724 C 0.19709 0.72946 0.38587 0.0
C1725 C 0.18124 0.73814 0.29152 0.0
C1726 C 0.21955 0.74157 0.37502 0.0
C1727 C 0.22329 0.75144 0.32322 0.0
H1728 H 0.5443 0.0632 0.44164 0.0
H1729 H 0.47504 0.04406 0.35315 0.0
H1730 H 0.4487 0.0448 0.43779 0.0
H1731 H 0.44547 0.04946 0.53977 0.0
H1732 H 0.51478 0.07 0.62583 0.0
H1733 H 0.5403 0.07018 0.54081 0.0
C1734 C 0.52343 0.05921 0.4408 0.0
C1735 C 0.51186 0.05354 0.39058 0.0
C1736 C 0.50818 0.05969 0.49005 0.0
C1737 C 0.48466 0.0485 0.39083 0.0
C1738 C 0.46951 0.04878 0.43961 0.0
C1739 C 0.46615 0.05378 0.54007 0.0
C1740 C 0.47813 0.05914 0.59035 0.0
C1741 C 0.48104 0.0541 0.48993 0.0
C1742 C 0.50482 0.06558 0.5885 0.0
C1743 C 0.51964 0.06565 0.53959 0.0
H1744 H 0.14396 0.29537 0.49314 0.0
H1745 H 0.08458 0.25341 0.44268 0.0
H1746 H 0.08492 0.23697 0.53499 0.0
H1747 H 0.10556 0.23226 0.62862 0.0
H1748 H 0.16861 0.27242 0.67394 0.0
H1749 H 0.16385 0.29127 0.58609 0.0
C1750 C 0.13121 0.28267 0.50232 0.0
C1751 C 0.11477 0.27555 0.46026 0.0
C1752 C 0.13248 0.27262 0.55497 0.0
C1753 C 0.09763 0.2593 0.4738 0.0
C1754 C 0.09795 0.24973 0.52671 0.0
C1755 C 0.11815 0.2452 0.6193 0.0
C1756 C 0.13746 0.25081 0.65823 0.0
C1757 C 0.11584 0.25587 0.56739 0.0
C1758 C 0.15367 0.2676 0.64501 0.0
C1759 C 0.15099 0.27848 0.59456 0.0
H1760 H 0.96268 0.938 0.93596 0.0
H1761 H 0.04086 0.9574 0.88493 0.0
H1762 H 0.02597 0.96055 0.78886 0.0
H1763 H 0.99054 0.95803 0.71788 0.0
H1764 H 0.913 0.93698 0.76773 0.0
H1765 H 0.92755 0.93444 0.86426 0.0
C1766 C 0.97646 0.94289 0.90381 0.0
C1767 C 0.00298 0.94739 0.91822 0.0
C1768 C 0.96774 0.94454 0.84783 0.0
C1769 C 0.02043 0.9537 0.87554 0.0
C1770 C 0.01188 0.95556 0.82028 0.0
C1771 C 0.9768 0.95294 0.74988 0.0
C1772 C 0.95041 0.94822 0.73519 0.0
C1773 C 0.98556 0.95107 0.80572 0.0
C1774 C 0.93319 0.94122 0.7775 0.0
C1775 C 0.94158 0.93964 0.83297 0.0
H1776 H 0.32908 0.73104 0.18192 0.0
H1777 H 0.35849 0.78889 0.12267 0.0
H1778 H 0.35835 0.77737 1.02757 0.0
H1779 H 0.34573 0.75167 0.96023 0.0
H1780 H 0.32364 0.69218 1.02074 0.0
H1781 H 0.32506 0.70329 0.11602 0.0
C1782 C 0.33582 0.74101 0.14822 0.0
C1783 C 0.34352 0.76091 0.15934 0.0
C1784 C 0.33658 0.73401 0.09375 0.0
C1785 C 0.35253 0.77354 0.11532 0.0
C1786 C 0.35244 0.76693 0.06087 0.0
C1787 C 0.34149 0.74105 0.99428 0.0
C1788 C 0.33209 0.72154 0.98303 0.0
C1789 C 0.34398 0.74731 0.04936 0.0
C1790 C 0.32827 0.70777 1.02789 0.0
C1791 C 0.32967 0.71405 0.08254 0.0
H1792 H 0.50869 0.04169 0.88799 0.0
H1793 H 0.44827 0.0839 0.93319 0.0
H1794 H 0.46755 0.08521 1.02626 0.0
H1795 H 0.50147 0.07384 0.09582 0.0
H1796 H 0.55857 0.02896 0.05197 0.0
H1797 H 0.54158 0.02975 0.9575 0.0
C1798 C 0.49984 0.05133 0.91802 0.0
C1799 C 0.47713 0.06285 0.90321 0.0
C1800 C 0.51084 0.05177 0.97174 0.0
C1801 C 0.46577 0.07498 0.94315 0.0
C1802 C 0.47684 0.07571 0.99648 0.0
C1803 C 0.51034 0.06436 0.06542 0.0
C1804 C 0.5321 0.05185 0.08083 0.0
C1805 C 0.49936 0.06412 1.01142 0.0
C1806 C 0.54275 0.03934 0.04104 0.0
C1807 C 0.53272 0.03961 0.98695 0.0
H1808 H 0.70794 0.70819 0.4985 0.0
H1809 H 0.63942 0.73813 0.42604 0.0
H1810 H 0.63196 0.7557 0.51091 0.0
H1811 H 0.64482 0.76329 0.60594 0.0
H1812 H 0.71279 0.73352 0.68056 0.0
H1813 H 0.72029 0.71527 0.59593 0.0
C1814 C 0.69122 0.71837 0.50159 0.0
C1815 C 0.67417 0.72165 0.4556 0.0
C1816 C 0.68691 0.72861 0.55126 0.0
C1817 C 0.65288 0.7352 0.46043 0.0
C1818 C 0.64854 0.74533 0.50916 0.0
C1819 C 0.66121 0.75275 0.6038 0.0
C1820 C 0.67815 0.74984 0.64981 0.0
C1821 C 0.66542 0.74226 0.55484 0.0
C1822 C 0.69937 0.73612 0.64596 0.0
C1823 C 0.70371 0.72565 0.59739 0.0
H1824 H 0.96964 0.92224 0.2261 0.0
H1825 H 0.04801 0.93959 0.27596 0.0
H1826 H 0.03264 0.94348 0.37074 0.0
H1827 H -0.00447 0.94469 0.4386 0.0
H1828 H 0.91725 0.92645 0.38845 0.0
H1829 H 0.93393 0.91936 0.29647 0.0
C1830 C 0.98352 0.92648 0.25791 0.0
C1831 C 0.01 0.93127 0.24309 0.0
C1832 C 0.97444 0.92827 0.31303 0.0
C1833 C 0.02753 0.93648 0.28544 0.0
C1834 C 0.01866 0.93859 0.33995 0.0
C1835 C 0.98218 0.93895 0.40775 0.0
C1836 C 0.95495 0.93644 0.42064 0.0
C1837 C 0.99194 0.93506 0.35411 0.0
C1838 C 0.93816 0.92876 0.37993 0.0
C1839 C 0.94775 0.92461 0.32711 0.0
H1840 H 0.88013 0.25984 0.9762 0.0
H1841 H 0.79679 0.27511 0.98092 0.0
H1842 H 0.79409 0.26315 0.07619 0.0
H1843 H 0.81455 0.24852 0.15819 0.0
H1844 H 0.89697 0.23114 0.15841 0.0
H1845 H 0.90093 0.24357 0.06134 0.0
C1846 C 0.8615 0.26055 0.99835 0.0
C1847 C 0.83885 0.26885 0.97162 0.0
C1848 C 0.85986 0.25319 0.05391 0.0
C1849 C 0.81471 0.26935 1.00054 0.0
C1850 C 0.81303 0.26235 0.05515 0.0
C1851 C 0.83345 0.24737 0.13718 0.0
C1852 C 0.85544 0.23899 0.1653 0.0
C1853 C 0.8354 0.25432 0.08217 0.0
C1854 C 0.87974 0.23755 0.13739 0.0
C1855 C 0.88197 0.24468 0.08203 0.0
H1856 H 0.49389 0.92068 0.71859 0.0
H1857 H 0.54108 0.97425 0.73643 0.0
H1858 H 0.52503 0.97711 0.83107 0.0
H1859 H 0.49735 0.96444 0.90957 0.0
H1860 H 0.44795 0.91215 0.89003 0.0
H1861 H 0.4649 0.90874 0.79602 0.0
C1862 C 0.50066 0.93297 0.74322 0.0
C1863 C 0.51908 0.94704 0.72043 0.0
C1864 C 0.4909 0.93474 0.79766 0.0
C1865 C 0.52733 0.963 0.75294 0.0
C1866 C 0.51804 0.96469 0.80717 0.0
C1867 C 0.49041 0.95221 0.88484 0.0
C1868 C 0.47157 0.9384 0.9073 0.0
C1869 C 0.49989 0.95061 0.83017 0.0
C1870 C 0.46251 0.9229 0.87414 0.0
C1871 C 0.4722 0.92097 0.82023 0.0
H1872 H 0.8093 0.72649 0.63952 0.0
H1873 H 0.82659 0.78729 0.68516 0.0
H1874 H 0.83482 0.77549 0.78027 0.0
H1875 H 0.83499 0.74839 0.85265 0.0
H1876 H 0.8187 0.68738 0.80971 0.0
H1877 H 0.81223 0.69855 0.71266 0.0
C1878 C 0.81505 0.73712 0.67022 0.0
C1879 C 0.8173 0.75788 0.65451 0.0
C1880 C 0.81981 0.73015 0.72589 0.0
C1881 C 0.82473 0.7713 0.69537 0.0
C1882 C 0.82953 0.76454 0.7501 0.0
C1883 C 0.83037 0.73742 0.82207 0.0
C1884 C 0.82672 0.71698 0.8393 0.0
C1885 C 0.82688 0.74405 0.76612 0.0
C1886 C 0.82097 0.70316 0.79837 0.0
C1887 C 0.81735 0.70963 0.74259 0.0
H1888 H 0.04365 0.03466 0.57117 0.0
H1889 H 0.9858 0.07362 0.64284 0.0
H1890 H 0.96099 0.07548 0.55644 0.0
H1891 H 0.95327 0.06423 0.462 0.0
H1892 H 0.00916 0.02382 0.39015 0.0
H1893 H 0.03703 0.02467 0.47328 0.0
C1894 C 0.02617 0.04408 0.5673 0.0
C1895 C 0.01697 0.05418 0.61402 0.0
C1896 C 0.0114 0.04485 0.5168 0.0
C1897 C 0.99355 0.06568 0.60812 0.0
C1898 C 0.9792 0.06677 0.55843 0.0
C1899 C 0.97167 0.05574 0.46424 0.0
C1900 C 0.9789 0.04393 0.4195 0.0
C1901 C 0.98752 0.05609 0.51277 0.0
C1902 C 0.00287 0.03299 0.42374 0.0
C1903 C 0.01898 0.03356 0.47139 0.0
H1904 H 0.63178 0.26515 0.15607 0.0
H1905 H 0.63142 0.20284 0.21408 0.0
H1906 H 0.62847 0.2131 0.30961 0.0
H1907 H 0.62884 0.23956 0.3771 0.0
H1908 H 0.63304 0.302 0.32176 0.0
H1909 H 0.63179 0.29208 0.22504 0.0
C1910 C 0.63059 0.25389 0.1897 0.0
C1911 C 0.63144 0.23324 0.17805 0.0
C1912 C 0.62991 0.25996 0.24503 0.0
C1913 C 0.63057 0.21879 0.22201 0.0
C1914 C 0.62898 0.22466 0.27666 0.0
C1915 C 0.62911 0.25104 0.3439 0.0
C1916 C 0.63106 0.27151 0.35654 0.0
C1917 C 0.62901 0.24516 0.28873 0.0
C1918 C 0.63177 0.28615 0.31302 0.0
C1919 C 0.63098 0.28046 0.25776 0.0
H1920 H 0.11936 0.50282 0.82912 0.0
H1921 H 0.10328 0.56281 0.88209 0.0
H1922 H 0.1056 0.55061 0.97917 0.0
H1923 H 0.11222 0.52263 0.04906 0.0
H1924 H 0.12354 0.46215 0.99497 0.0
H1925 H 0.12317 0.47467 0.89833 0.0
C1926 C 0.11655 0.51324 0.86198 0.0
C1927 C 0.11156 0.53377 0.84858 0.0
C1928 C 0.11713 0.50597 0.91745 0.0
C1929 C 0.10728 0.54699 0.89146 0.0
C1930 C 0.10865 0.54 0.9469 0.0
C1931 C 0.11487 0.51226 1.01601 0.0
C1932 C 0.11845 0.49152 0.02903 0.0
C1933 C 0.11366 0.51952 0.96044 0.0
C1934 C 0.12106 0.47817 0.98591 0.0
C1935 C 0.1208 0.48533 0.9307 0.0
H1936 H 0.7306 0.83616 0.04053 0.0
H1937 H 0.65572 0.80834 0.08356 0.0
H1938 H 0.66874 0.80636 0.18106 0.0
H1939 H 0.70211 0.8113 0.25414 0.0
H1940 H 0.77845 0.83651 0.21073 0.0
H1941 H 0.76429 0.84081 0.11395 0.0
C1942 C 0.71699 0.82996 0.07142 0.0
C1943 C 0.69198 0.82273 0.05476 0.0
C1944 C 0.72499 0.82831 0.12751 0.0
C1945 C 0.67489 0.81426 0.09521 0.0
C1946 C 0.6824 0.81305 0.15103 0.0
C1947 C 0.71555 0.81794 0.22359 0.0
C1948 C 0.74124 0.82381 0.23988 0.0
C1949 C 0.70747 0.81987 0.1677 0.0
C1950 C 0.75855 0.83201 0.19948 0.0
C1951 C 0.75044 0.83444 0.14406 0.0
H1952 H 0.35498 0.50377 0.5109 0.0
H1953 H 0.42536 0.54036 0.4898 0.0
H1954 H 0.43257 0.52704 0.39884 0.0
H1955 H 0.42057 0.50374 0.32748 0.0
H1956 H 0.34942 0.46794 0.3439 0.0
H1957 H 0.34079 0.4821 0.43447 0.0
C1958 C 0.37155 0.5091 0.48582 0.0
C1959 C 0.38962 0.52304 0.50718 0.0
C1960 C 0.37564 0.50131 0.43308 0.0
C1961 C 0.41112 0.52971 0.47438 0.0
C1962 C 0.41537 0.522 0.42241 0.0
C1963 C 0.40309 0.49905 0.35077 0.0
C1964 C 0.38576 0.48467 0.3294 0.0
C1965 C 0.39807 0.50754 0.40183 0.0
C1966 C 0.36308 0.47893 0.35971 0.0
C1967 C 0.35816 0.48706 0.41138 0.0
H1968 H 0.75642 0.17587 0.59243 0.0
H1969 H 0.78693 0.23622 0.60542 0.0
H1970 H 0.77047 0.23729 0.69975 0.0
H1971 H 0.74621 0.22166 0.77937 0.0
H1972 H 0.71285 0.16227 0.76581 0.0
H1973 H 0.73087 0.16044 0.67211 0.0
C1974 C 0.75942 0.18925 0.61591 0.0
C1975 C 0.77335 0.20585 0.59142 0.0
C1976 C 0.74904 0.19005 0.67056 0.0
C1977 C 0.77658 0.22313 0.62274 0.0
C1978 C 0.76701 0.22381 0.67702 0.0
C1979 C 0.74302 0.20823 0.75613 0.0
C1980 C 0.72838 0.192 0.78043 0.0
C1981 C 0.75312 0.20742 0.70152 0.0
C1982 C 0.72418 0.17493 0.74881 0.0
C1983 C 0.73448 0.1739 0.69491 0.0
H1984 H 0.88898 0.50836 0.54648 0.0
H1985 H 0.89991 0.44758 0.49416 0.0
H1986 H 0.89645 0.45953 0.39712 0.0
H1987 H 0.89059 0.48732 0.32761 0.0
H1988 H 0.88383 0.5485 0.3795 0.0
H1989 H 0.88543 0.53641 0.4767 0.0
C1990 C 0.89036 0.49771 0.51379 0.0
C1991 C 0.89425 0.47704 0.52729 0.0
C1992 C 0.88914 0.50481 0.45829 0.0
C1993 C 0.89671 0.46349 0.48464 0.0
C1994 C 0.89474 0.47035 0.42929 0.0
C1995 C 0.88921 0.498 0.36023 0.0
C1996 C 0.88669 0.51878 0.34657 0.0
C1997 C 0.89092 0.49096 0.41568 0.0
C1998 C 0.88562 0.53247 0.38913 0.0
C1999 C 0.88653 0.52554 0.44457 0.0
H2000 H 0.24793 0.21898 0.06552 0.0
H2001 H 0.1956 0.16861 0.09832 0.0
H2002 H 0.21422 0.16399 0.19176 0.0
H2003 H 0.2454 0.1746 0.26635 0.0
H2004 H 0.29673 0.22557 0.23246 0.0
H2005 H 0.2791 0.2293 0.13873 0.0
C2006 C 0.24061 0.20693 0.09292 0.0
C2007 C 0.22027 0.19412 0.07402 0.0
C2008 C 0.25149 0.20437 0.14718 0.0
C2009 C 0.21119 0.17868 0.11097 0.0
C2010 C 0.2219 0.17604 0.16478 0.0
C2011 C 0.25286 0.18643 0.23836 0.0
C2012 C 0.2728 0.19965 0.25721 0.0
C2013 C 0.24209 0.18879 0.1837 0.0
C2014 C 0.28174 0.21501 0.2198 0.0
C2015 C 0.2715 0.21724 0.1658 0.0
H2016 H 0.62844 0.47167 0.86493 0.0
H2017 H 0.58106 0.51934 0.78855 0.0
H2018 H 0.57846 0.5361 0.87581 0.0
H2019 H 0.58756 0.53669 0.97568 0.0
H2020 H 0.63747 0.49071 0.0521 0.0
H2021 H 0.64137 0.47416 0.96395 0.0
C2022 C 0.61787 0.48584 0.86736 0.0
C2023 C 0.60494 0.49413 0.81998 0.0
C2024 C 0.61683 0.49581 0.91805 0.0
C2025 C 0.59133 0.51257 0.82403 0.0
C2026 C 0.58971 0.52221 0.87416 0.0
C2027 C 0.59964 0.52323 0.9728 0.0
C2028 C 0.61221 0.515 1.0205 0.0
C2029 C 0.60212 0.51391 0.92164 0.0
C2030 C 0.62771 0.49749 1.016 0.0
C2031 C 0.62984 0.48791 0.96555 0.0
H2032 H 0.2475 0.84884 0.74714 0.0
H2033 H 0.22549 0.78593 0.76184 0.0
H2034 H 0.24489 0.78006 0.67256 0.0
H2035 H 0.26874 0.79203 0.59041 0.0
H2036 H 0.29043 0.85467 0.56963 0.0
H2037 H 0.27084 0.86135 0.66026 0.0
C2038 C 0.24676 0.83394 0.73044 0.0
C2039 C 0.23477 0.8179 0.76164 0.0
C2040 C 0.25815 0.83052 0.67783 0.0
C2041 C 0.23424 0.79865 0.73915 0.0
C2042 C 0.24552 0.79519 0.68788 0.0
C2043 C 0.26925 0.8072 0.60554 0.0
C2044 C 0.28122 0.82279 0.57319 0.0
C2045 C 0.25764 0.81091 0.65699 0.0
C2046 C 0.28145 0.84235 0.59362 0.0
C2047 C 0.27018 0.84615 0.64552 0.0
H2048 H 0.61297 0.99776 0.52195 0.0
H2049 H 0.60775 0.93674 0.468 0.0
H2050 H 0.60536 0.94943 0.37139 0.0
H2051 H 0.60488 0.97794 0.3028 0.0
H2052 H 0.60575 0.03899 0.35734 0.0
H2053 H 0.60911 0.02628 0.45387 0.0
C2054 C 0.61154 0.98722 0.48898 0.0
C2055 C 0.6108 0.96628 0.50189 0.0
C2056 C 0.60908 0.99468 0.43402 0.0
C2057 C 0.60841 0.95286 0.45894 0.0
C2058 C 0.60698 0.96013 0.40387 0.0
C2059 C 0.60578 0.98846 0.3359 0.0
C2060 C 0.60535 0.00939 0.32316 0.0
C2061 C 0.60726 0.98101 0.391 0.0
C2062 C 0.60602 0.02285 0.36627 0.0
C2063 C 0.60812 0.01557 0.42129 0.0
H2064 H 0.24582 0.2834 0.54543 0.0
H2065 H 0.18874 0.3305 0.56879 0.0
H2066 H 0.20617 0.33533 0.66196 0.0
H2067 H 0.23723 0.32547 0.7395 0.0
H2068 H 0.2928 0.27713 0.71615 0.0
H2069 H 0.27625 0.27323 0.62246 0.0
C2070 C 0.23693 0.29449 0.57118 0.0
C2071 C 0.21561 0.3063 0.5498 0.0
C2072 C 0.24689 0.29698 0.62555 0.0
C2073 C 0.20508 0.32112 0.5836 0.0
C2074 C 0.21503 0.32385 0.6373 0.0
C2075 C 0.24581 0.31418 0.71381 0.0
C2076 C 0.26659 0.30177 0.73546 0.0
C2077 C 0.23588 0.31179 0.65915 0.0
C2078 C 0.27709 0.28708 0.70111 0.0
C2079 C 0.26754 0.28477 0.64716 0.0
H2080 H 0.84743 0.00071 1.02116 0.0
H2081 H 0.91549 0.03861 0.98675 0.0
H2082 H 0.91995 0.02451 0.89584 0.0
H2083 H 0.90539 0.00099 0.82607 0.0
H2084 H 0.83569 0.9645 0.85516 0.0
H2085 H 0.83092 0.97838 0.94736 0.0
C2086 C 0.86301 0.00605 0.99343 0.0
C2087 C 0.88118 0.02073 1.01128 0.0
C2088 C 0.86525 0.99801 0.94009 0.0
C2089 C 0.90124 0.02738 0.97457 0.0
C2090 C 0.90386 0.01926 0.92238 0.0
C2091 C 0.8891 0.99603 0.85252 0.0
C2092 C 0.87104 0.98153 0.83369 0.0
C2093 C 0.88616 0.00446 0.90481 0.0
C2094 C 0.84992 0.97555 0.86847 0.0
C2095 C 0.8472 0.98353 0.92128 0.0
H2096 H 0.22546 0.69658 0.26981 0.0
H2097 H 0.19556 0.63577 0.26827 0.0
H2098 H 0.21557 0.63166 0.17671 0.0
H2099 H 0.24224 0.64569 0.09599 0.0
H2100 H 0.271 0.70688 0.10118 0.0
H2101 H 0.25127 0.7103 0.19172 0.0
C2102 C 0.22316 0.68239 0.24949 0.0
C2103 C 0.20884 0.66652 0.27615 0.0
C2104 C 0.2349 0.68013 0.1972 0.0
C2105 C 0.20626 0.6483 0.24884 0.0
C2106 C 0.21787 0.64593 0.19645 0.0
C2107 C 0.24439 0.65966 0.11728 0.0
C2108 C 0.25845 0.67594 0.09143 0.0
C2109 C 0.23243 0.66173 0.1701 0.0
C2110 C 0.26058 0.69402 0.11968 0.0
C2111 C 0.24915 0.69607 0.17167 0.0
H2112 H 0.37877 0.00811 1.01572 0.0
H2113 H 0.38772 0.94737 0.96162 0.0
H2114 H 0.39146 0.96032 0.86546 0.0
H2115 H 0.39227 0.98902 0.79721 0.0
H2116 H 0.38915 0.04987 0.85283 0.0
H2117 H 0.38373 0.03685 0.94864 0.0
C2118 C 0.38131 0.99767 0.98282 0.0
C2119 C 0.38258 0.97673 0.99561 0.0
C2120 C 0.38485 0.00532 0.92827 0.0
C2121 C 0.38649 0.96348 0.95272 0.0
C2122 C 0.38874 0.97091 0.89789 0.0
C2123 C 0.39045 -0.00057 0.83041 0.0
C2124 C 0.39071 0.02039 0.81809 0.0
C2125 C 0.38802 0.9918 0.88524 0.0
C2126 C 0.38892 0.03371 0.8614 0.0
C2127 C 0.38567 0.02625 0.91601 0.0
H2128 H 0.72127 0.6708 0.77042 0.0
H2129 H 0.79285 0.63833 0.73446 0.0
H2130 H 0.77734 0.63407 0.63938 0.0
H2131 H 0.74403 0.64095 0.56466 0.0
H2132 H 0.67396 0.67534 0.60055 0.0
H2133 H 0.68815 0.67745 0.69676 0.0
C2134 C 0.73338 0.66257 0.74201 0.0
C2135 C 0.75814 0.6547 0.76 0.0
C2136 C 0.72454 0.66058 0.687 0.0
C2137 C 0.77368 0.6444 0.72209 0.0
C2138 C 0.7648 0.64202 0.66756 0.0
C2139 C 0.73166 0.64861 0.5938 0.0
C2140 C 0.70766 0.6577 0.5753 0.0
C2141 C 0.74033 0.65018 0.64929 0.0
C2142 C 0.69227 0.66797 0.61353 0.0
C2143 C 0.70046 0.66926 0.66867 0.0
H2144 H 0.10867 0.96292 0.37005 0.0
H2145 H 0.07817 0.0168 0.2868 0.0
H2146 H 0.08138 0.03498 0.37202 0.0
H2147 H 0.09097 0.03546 0.47221 0.0
H2148 H 0.12247 0.98195 0.55542 0.0
H2149 H 0.12116 0.96412 0.46918 0.0
C2150 C 0.10304 0.97869 0.37049 0.0
C2151 C 0.0932 0.9884 0.32178 0.0
C2152 C 0.10517 0.98928 0.42004 0.0
C2153 C 0.08592 0.00888 0.32339 0.0
C2154 C 0.0877 0.01936 0.37232 0.0
C2155 C 0.09797 0.02002 0.47123 0.0
C2156 C 0.10688 0.01015 0.52046 0.0
C2157 C 0.09709 0.00972 0.42114 0.0
C2158 C 0.1156 0.99002 0.51829 0.0
C2159 C 0.11475 0.97972 0.46887 0.0
H2160 H 0.75813 0.30492 0.26264 0.0
H2161 H 0.6797 0.32292 0.20915 0.0
H2162 H 0.69545 0.32701 0.11357 0.0
H2163 H 0.73178 0.32523 0.04299 0.0
H2164 H 0.81032 0.30787 0.09769 0.0
H2165 H 0.79445 0.30376 0.19285 0.0
C2166 C 0.74441 0.30978 0.23021 0.0
C2167 C 0.71751 0.31362 0.24422 0.0
C2168 C 0.75378 0.31227 0.17454 0.0
C2169 C 0.7004 0.31993 0.20067 0.0
C2170 C 0.70948 0.32225 0.14551 0.0
C2171 C 0.74554 0.32074 0.07572 0.0
C2172 C 0.77255 0.3171 0.06205 0.0
C2173 C 0.73617 0.31849 0.13157 0.0
C2174 C 0.78965 0.31106 0.10594 0.0
C2175 C 0.78048 0.30862 0.16087 0.0
loop_
_geom_bond_atom_site_label_1
_geom_bond_atom_site_label_2
_geom_bond_distance
_geom_bond_site_symmetry_2
_ccdc_geom_bond_type
Tb0 O3 2.453 . S
Tb0 O4 2.596 . S
Tb0 O5 2.374 . S
Tb0 O13 2.343 . S
Tb0 O15 2.353 . S
Tb0 O17 2.427 . S
Tb0 O18 2.513 . S
C1 O5 1.251 . S
C1 O7 1.263 . S
Tb2 O4 2.343 . S
Tb2 O7 2.353 . S
Tb2 O10 2.427 . S
Tb2 O11 2.513 . S
Tb2 O12 2.453 . S
Tb2 O13 2.596 . S
Tb2 O14 2.374 . S
O3 Tb0 2.453 . S
O3 C19 1.245 . S
O4 Tb0 2.596 . S
O4 Tb2 2.343 . S
O4 C19 1.259 . S
O5 Tb0 2.374 . S
O5 C1 1.251 . S
C6 O10 1.275 . S
C6 O11 1.246 . S
O7 C1 1.263 . S
O7 Tb2 2.353 . S
C8 O12 1.245 . S
C8 O13 1.259 . S
C9 O14 1.250 . S
C9 O15 1.263 . S
O10 Tb2 2.427 . S
O10 C6 1.275 . S
O11 Tb2 2.513 . S
O11 C6 1.246 . S
O12 Tb2 2.453 . S
O12 C8 1.245 . S
O13 Tb0 2.343 . S
O13 Tb2 2.596 . S
O13 C8 1.259 . S
O14 Tb2 2.374 . S
O14 C9 1.250 . S
O15 Tb0 2.353 . S
O15 C9 1.263 . S
C16 O17 1.275 . S
C16 O18 1.246 . S
O17 Tb0 2.427 . S
O17 C16 1.275 . S
O18 Tb0 2.513 . S
O18 C16 1.246 . S
C19 O3 1.245 . S
C19 O4 1.259 . S
Tb20 O23 2.453 . S
Tb20 O24 2.596 . S
Tb20 O25 2.374 . S
Tb20 O33 2.343 . S
Tb20 O35 2.353 . S
Tb20 O37 2.427 . S
Tb20 O38 2.513 . S
C21 O25 1.251 . S
C21 O27 1.263 . S
Tb22 O24 2.343 . S
Tb22 O27 2.353 . S
Tb22 O30 2.427 . S
Tb22 O31 2.513 . S
Tb22 O32 2.453 . S
Tb22 O33 2.596 . S
Tb22 O34 2.374 . S
O23 Tb20 2.453 . S
O23 C39 1.245 . S
O24 Tb20 2.596 . S
O24 Tb22 2.343 . S
O24 C39 1.259 . S
O25 Tb20 2.374 . S
O25 C21 1.251 . S
C26 O30 1.275 . S
C26 O31 1.246 . S
O27 C21 1.263 . S
O27 Tb22 2.353 . S
C28 O32 1.245 . S
C28 O33 1.259 . S
C29 O34 1.250 . S
C29 O35 1.263 . S
O30 Tb22 2.427 . S
O30 C26 1.275 . S
O31 Tb22 2.513 . S
O31 C26 1.246 . S
O32 Tb22 2.453 . S
O32 C28 1.245 . S
O33 Tb20 2.343 . S
O33 Tb22 2.596 . S
O33 C28 1.259 . S
O34 Tb22 2.374 . S
O34 C29 1.250 . S
O35 Tb20 2.353 . S
O35 C29 1.263 . S
C36 O37 1.275 . S
C36 O38 1.246 . S
O37 Tb20 2.427 . S
O37 C36 1.275 . S
O38 Tb20 2.513 . S
O38 C36 1.246 . S
C39 O23 1.245 . S
C39 O24 1.259 . S
Tb40 O43 2.453 . S
Tb40 O44 2.596 . S
Tb40 O45 2.374 . S
Tb40 O53 2.343 . S
Tb40 O55 2.353 . S
Tb40 O57 2.427 . S
Tb40 O58 2.513 . S
C41 O45 1.251 . S
C41 O47 1.263 . S
Tb42 O44 2.343 . S
Tb42 O47 2.353 . S
Tb42 O50 2.427 . S
Tb42 O51 2.513 . S
Tb42 O52 2.453 . S
Tb42 O53 2.596 . S
Tb42 O54 2.374 . S
O43 Tb40 2.453 . S
O43 C59 1.245 . S
O44 Tb40 2.596 . S
O44 Tb42 2.343 . S
O44 C59 1.259 . S
O45 Tb40 2.374 . S
O45 C41 1.251 . S
C46 O50 1.275 . S
C46 O51 1.246 . S
O47 C41 1.263 . S
O47 Tb42 2.353 . S
C48 O52 1.245 . S
C48 O53 1.259 . S
C49 O54 1.250 . S
C49 O55 1.263 . S
O50 Tb42 2.427 . S
O50 C46 1.275 . S
O51 Tb42 2.513 . S
O51 C46 1.246 . S
O52 Tb42 2.453 . S
O52 C48 1.245 . S
O53 Tb40 2.343 . S
O53 Tb42 2.596 . S
O53 C48 1.259 . S
O54 Tb42 2.374 . S
O54 C49 1.250 . S
O55 Tb40 2.353 . S
O55 C49 1.263 . S
C56 O57 1.275 . S
C56 O58 1.246 . S
O57 Tb40 2.427 . S
O57 C56 1.275 . S
O58 Tb40 2.513 . S
O58 C56 1.246 . S
C59 O43 1.245 . S
C59 O44 1.259 . S
Tb60 O63 2.453 1_556 S
Tb60 O64 2.596 . S
Tb60 O65 2.374 . S
Tb60 O73 2.343 . S
Tb60 O75 2.353 . S
Tb60 O77 2.427 . S
Tb60 O78 2.513 . S
C61 O65 1.251 . S
C61 O67 1.263 . S
Tb62 O64 2.343 . S
Tb62 O67 2.353 . S
Tb62 O70 2.427 1_556 S
Tb62 O71 2.513 1_556 S
Tb62 O72 2.453 . S
Tb62 O73 2.596 . S
Tb62 O74 2.374 . S
O63 Tb60 2.453 1_554 S
O63 C79 1.245 . S
O64 Tb60 2.596 . S
O64 Tb62 2.343 . S
O64 C79 1.259 1_556 S
O65 Tb60 2.374 . S
O65 C61 1.251 . S
C66 O70 1.275 . S
C66 O71 1.246 . S
O67 C61 1.263 . S
O67 Tb62 2.353 . S
C68 O72 1.245 . S
C68 O73 1.259 . S
C69 O74 1.250 . S
C69 O75 1.263 . S
O70 Tb62 2.427 1_554 S
O70 C66 1.275 . S
O71 Tb62 2.513 1_554 S
O71 C66 1.246 . S
O72 Tb62 2.453 . S
O72 C68 1.245 . S
O73 Tb60 2.343 . S
O73 Tb62 2.596 . S
O73 C68 1.259 . S
O74 Tb62 2.374 . S
O74 C69 1.250 . S
O75 Tb60 2.353 . S
O75 C69 1.263 . S
C76 O77 1.275 . S
C76 O78 1.246 . S
O77 Tb60 2.427 . S
O77 C76 1.275 . S
O78 Tb60 2.513 . S
O78 C76 1.246 . S
C79 O63 1.245 . S
C79 O64 1.259 1_554 S
Tb80 O83 2.453 . S
Tb80 O84 2.596 . S
Tb80 O85 2.374 . S
Tb80 O93 2.343 . S
Tb80 O95 2.353 . S
Tb80 O97 2.427 . S
Tb80 O98 2.513 . S
C81 O85 1.251 . S
C81 O87 1.263 . S
Tb82 O84 2.343 . S
Tb82 O87 2.353 . S
Tb82 O90 2.427 . S
Tb82 O91 2.513 . S
Tb82 O92 2.453 . S
Tb82 O93 2.596 . S
Tb82 O94 2.374 . S
O83 Tb80 2.453 . S
O83 C99 1.245 . S
O84 Tb80 2.596 . S
O84 Tb82 2.343 . S
O84 C99 1.259 . S
O85 Tb80 2.374 . S
O85 C81 1.251 . S
C86 O90 1.275 . S
C86 O91 1.246 . S
O87 C81 1.263 . S
O87 Tb82 2.353 . S
C88 O92 1.245 . S
C88 O93 1.259 . S
C89 O94 1.250 . S
C89 O95 1.263 . S
O90 Tb82 2.427 . S
O90 C86 1.275 . S
O91 Tb82 2.513 . S
O91 C86 1.246 . S
O92 Tb82 2.453 . S
O92 C88 1.245 . S
O93 Tb80 2.343 . S
O93 Tb82 2.596 . S
O93 C88 1.259 . S
O94 Tb82 2.374 . S
O94 C89 1.250 . S
O95 Tb80 2.353 . S
O95 C89 1.263 . S
C96 O97 1.275 . S
C96 O98 1.246 . S
O97 Tb80 2.427 . S
O97 C96 1.275 . S
O98 Tb80 2.513 . S
O98 C96 1.246 . S
C99 O83 1.245 . S
C99 O84 1.259 . S
Tb100 O103 2.453 . S
Tb100 O104 2.596 . S
Tb100 O105 2.374 . S
Tb100 O113 2.343 . S
Tb100 O115 2.353 . S
Tb100 O117 2.427 . S
Tb100 O118 2.513 . S
C101 O105 1.251 . S
C101 O107 1.263 . S
Tb102 O104 2.343 . S
Tb102 O107 2.353 . S
Tb102 O110 2.427 . S
Tb102 O111 2.513 . S
Tb102 O112 2.453 . S
Tb102 O113 2.596 . S
Tb102 O114 2.374 . S
O103 Tb100 2.453 . S
O103 C119 1.245 . S
O104 Tb100 2.596 . S
O104 Tb102 2.343 . S
O104 C119 1.259 . S
O105 Tb100 2.374 . S
O105 C101 1.251 . S
C106 O110 1.275 . S
C106 O111 1.246 . S
O107 C101 1.263 . S
O107 Tb102 2.353 . S
C108 O112 1.245 . S
C108 O113 1.259 . S
C109 O114 1.250 . S
C109 O115 1.263 . S
O110 Tb102 2.427 . S
O110 C106 1.275 . S
O111 Tb102 2.513 . S
O111 C106 1.246 . S
O112 Tb102 2.453 . S
O112 C108 1.245 . S
O113 Tb100 2.343 . S
O113 Tb102 2.596 . S
O113 C108 1.259 . S
O114 Tb102 2.374 . S
O114 C109 1.250 . S
O115 Tb100 2.353 . S
O115 C109 1.263 . S
C116 O117 1.275 . S
C116 O118 1.246 . S
O117 Tb100 2.427 . S
O117 C116 1.275 . S
O118 Tb100 2.513 . S
O118 C116 1.246 . S
C119 O103 1.245 . S
C119 O104 1.259 . S
Tb120 O123 2.453 . S
Tb120 O124 2.596 . S
Tb120 O125 2.374 . S
Tb120 O133 2.343 . S
Tb120 O135 2.353 . S
Tb120 O137 2.427 . S
Tb120 O138 2.513 . S
C121 O125 1.251 . S
C121 O127 1.263 . S
Tb122 O124 2.343 . S
Tb122 O127 2.353 . S
Tb122 O130 2.427 1_554 S
Tb122 O131 2.513 1_554 S
Tb122 O132 2.453 . S
Tb122 O133 2.596 . S
Tb122 O134 2.374 . S
O123 Tb120 2.453 . S
O123 C139 1.245 . S
O124 Tb120 2.596 . S
O124 Tb122 2.343 . S
O124 C139 1.259 . S
O125 Tb120 2.374 . S
O125 C121 1.251 . S
C126 O130 1.275 . S
C126 O131 1.246 . S
O127 C121 1.263 . S
O127 Tb122 2.353 . S
C128 O132 1.245 . S
C128 O133 1.259 . S
C129 O134 1.250 . S
C129 O135 1.263 . S
O130 Tb122 2.427 1_556 S
O130 C126 1.275 . S
O131 Tb122 2.513 1_556 S
O131 C126 1.246 . S
O132 Tb122 2.453 . S
O132 C128 1.245 . S
O133 Tb120 2.343 . S
O133 Tb122 2.596 . S
O133 C128 1.259 . S
O134 Tb122 2.374 . S
O134 C129 1.250 . S
O135 Tb120 2.353 . S
O135 C129 1.263 . S
C136 O137 1.275 . S
C136 O138 1.246 . S
O137 Tb120 2.427 . S
O137 C136 1.275 . S
O138 Tb120 2.513 . S
O138 C136 1.246 . S
C139 O123 1.245 . S
C139 O124 1.259 . S
Tb140 O143 2.453 . S
Tb140 O144 2.596 . S
Tb140 O145 2.374 . S
Tb140 O153 2.343 . S
Tb140 O155 2.353 . S
Tb140 O157 2.427 . S
Tb140 O158 2.513 . S
C141 O145 1.251 . S
C141 O147 1.263 . S
Tb142 O144 2.343 . S
Tb142 O147 2.353 . S
Tb142 O150 2.427 . S
Tb142 O151 2.513 . S
Tb142 O152 2.453 . S
Tb142 O153 2.596 . S
Tb142 O154 2.374 . S
O143 Tb140 2.453 . S
O143 C159 1.245 . S
O144 Tb140 2.596 . S
O144 Tb142 2.343 . S
O144 C159 1.259 . S
O145 Tb140 2.374 . S
O145 C141 1.251 . S
C146 O150 1.275 . S
C146 O151 1.246 . S
O147 C141 1.263 . S
O147 Tb142 2.353 . S
C148 O152 1.245 . S
C148 O153 1.259 . S
C149 O154 1.250 . S
C149 O155 1.263 . S
O150 Tb142 2.427 . S
O150 C146 1.275 . S
O151 Tb142 2.513 . S
O151 C146 1.246 . S
O152 Tb142 2.453 . S
O152 C148 1.245 . S
O153 Tb140 2.343 . S
O153 Tb142 2.596 . S
O153 C148 1.259 . S
O154 Tb142 2.374 . S
O154 C149 1.250 . S
O155 Tb140 2.353 . S
O155 C149 1.263 . S
C156 O157 1.275 . S
C156 O158 1.246 . S
O157 Tb140 2.427 . S
O157 C156 1.275 . S
O158 Tb140 2.513 . S
O158 C156 1.246 . S
C159 O143 1.245 . S
C159 O144 1.259 . S
Tb160 O163 2.453 . S
Tb160 O164 2.596 . S
Tb160 O165 2.374 . S
Tb160 O173 2.343 . S
Tb160 O175 2.353 . S
Tb160 O177 2.427 . S
Tb160 O178 2.513 . S
C161 O165 1.251 . S
C161 O167 1.263 . S
Tb162 O164 2.343 . S
Tb162 O167 2.353 . S
Tb162 O170 2.427 . S
Tb162 O171 2.513 . S
Tb162 O172 2.453 . S
Tb162 O173 2.596 . S
Tb162 O174 2.374 . S
O163 Tb160 2.453 . S
O163 C179 1.245 . S
O164 Tb160 2.596 . S
O164 Tb162 2.343 . S
O164 C179 1.259 . S
O165 Tb160 2.374 . S
O165 C161 1.251 . S
C166 O170 1.275 . S
C166 O171 1.246 . S
O167 C161 1.263 . S
O167 Tb162 2.353 . S
C168 O172 1.245 . S
C168 O173 1.259 . S
C169 O174 1.250 . S
C169 O175 1.263 . S
O170 Tb162 2.427 . S
O170 C166 1.275 . S
O171 Tb162 2.513 . S
O171 C166 1.246 . S
O172 Tb162 2.453 . S
O172 C168 1.245 . S
O173 Tb160 2.343 . S
O173 Tb162 2.596 . S
O173 C168 1.259 . S
O174 Tb162 2.374 . S
O174 C169 1.250 . S
O175 Tb160 2.353 . S
O175 C169 1.263 . S
C176 O177 1.275 . S
C176 O178 1.246 . S
O177 Tb160 2.427 . S
O177 C176 1.275 . S
O178 Tb160 2.513 . S
O178 C176 1.246 . S
C179 O163 1.245 . S
C179 O164 1.259 . S
Tb180 O183 2.453 . S
Tb180 O184 2.596 . S
Tb180 O185 2.374 . S
Tb180 O193 2.343 . S
Tb180 O195 2.353 . S
Tb180 O197 2.427 . S
Tb180 O198 2.513 . S
C181 O185 1.251 . S
C181 O187 1.263 . S
Tb182 O184 2.343 . S
Tb182 O187 2.353 . S
Tb182 O190 2.427 . S
Tb182 O191 2.513 . S
Tb182 O192 2.453 . S
Tb182 O193 2.596 . S
Tb182 O194 2.374 . S
O183 Tb180 2.453 . S
O183 C199 1.245 . S
O184 Tb180 2.596 . S
O184 Tb182 2.343 . S
O184 C199 1.259 . S
O185 Tb180 2.374 . S
O185 C181 1.251 . S
C186 O190 1.275 . S
C186 O191 1.246 . S
O187 C181 1.263 . S
O187 Tb182 2.353 . S
C188 O192 1.245 . S
C188 O193 1.259 . S
C189 O194 1.250 . S
C189 O195 1.263 . S
O190 Tb182 2.427 . S
O190 C186 1.275 . S
O191 Tb182 2.513 . S
O191 C186 1.246 . S
O192 Tb182 2.453 . S
O192 C188 1.245 . S
O193 Tb180 2.343 . S
O193 Tb182 2.596 . S
O193 C188 1.259 . S
O194 Tb182 2.374 . S
O194 C189 1.250 . S
O195 Tb180 2.353 . S
O195 C189 1.263 . S
C196 O197 1.275 . S
C196 O198 1.246 . S
O197 Tb180 2.427 . S
O197 C196 1.275 . S
O198 Tb180 2.513 . S
O198 C196 1.246 . S
C199 O183 1.245 . S
C199 O184 1.259 . S
Tb200 O203 2.453 . S
Tb200 O204 2.596 . S
Tb200 O205 2.374 . S
Tb200 O213 2.343 . S
Tb200 O215 2.353 . S
Tb200 O217 2.427 . S
Tb200 O218 2.513 . S
C201 O205 1.251 . S
C201 O207 1.263 . S
Tb202 O204 2.343 . S
Tb202 O207 2.353 . S
Tb202 O210 2.427 . S
Tb202 O211 2.513 . S
Tb202 O212 2.453 . S
Tb202 O213 2.596 . S
Tb202 O214 2.374 . S
O203 Tb200 2.453 . S
O203 C219 1.245 . S
O204 Tb200 2.596 . S
O204 Tb202 2.343 . S
O204 C219 1.259 . S
O205 Tb200 2.374 . S
O205 C201 1.251 . S
C206 O210 1.275 . S
C206 O211 1.246 . S
O207 C201 1.263 . S
O207 Tb202 2.353 . S
C208 O212 1.245 . S
C208 O213 1.259 . S
C209 O214 1.250 . S
C209 O215 1.263 . S
O210 Tb202 2.427 . S
O210 C206 1.275 . S
O211 Tb202 2.513 . S
O211 C206 1.246 . S
O212 Tb202 2.453 . S
O212 C208 1.245 . S
O213 Tb200 2.343 . S
O213 Tb202 2.596 . S
O213 C208 1.259 . S
O214 Tb202 2.374 . S
O214 C209 1.250 . S
O215 Tb200 2.353 . S
O215 C209 1.263 . S
C216 O217 1.275 . S
C216 O218 1.246 . S
O217 Tb200 2.427 . S
O217 C216 1.275 . S
O218 Tb200 2.513 . S
O218 C216 1.246 . S
C219 O203 1.245 . S
C219 O204 1.259 . S
Tb220 O223 2.453 . S
Tb220 O224 2.596 . S
Tb220 O225 2.374 . S
Tb220 O233 2.343 . S
Tb220 O235 2.353 . S
Tb220 O237 2.427 . S
Tb220 O238 2.513 . S
C221 O225 1.251 . S
C221 O227 1.263 . S
Tb222 O224 2.343 . S
Tb222 O227 2.353 . S
Tb222 O230 2.427 . S
Tb222 O231 2.513 . S
Tb222 O232 2.453 . S
Tb222 O233 2.596 . S
Tb222 O234 2.374 . S
O223 Tb220 2.453 . S
O223 C239 1.245 . S
O224 Tb220 2.596 . S
O224 Tb222 2.343 . S
O224 C239 1.259 . S
O225 Tb220 2.374 . S
O225 C221 1.251 . S
C226 O230 1.275 . S
C226 O231 1.246 . S
O227 C221 1.263 . S
O227 Tb222 2.353 . S
C228 O232 1.245 . S
C228 O233 1.259 . S
C229 O234 1.250 . S
C229 O235 1.263 . S
O230 Tb222 2.427 . S
O230 C226 1.275 . S
O231 Tb222 2.513 . S
O231 C226 1.246 . S
O232 Tb222 2.453 . S
O232 C228 1.245 . S
O233 Tb220 2.343 . S
O233 Tb222 2.596 . S
O233 C228 1.259 . S
O234 Tb222 2.374 . S
O234 C229 1.250 . S
O235 Tb220 2.353 . S
O235 C229 1.263 . S
C236 O237 1.275 . S
C236 O238 1.246 . S
O237 Tb220 2.427 . S
O237 C236 1.275 . S
O238 Tb220 2.513 . S
O238 C236 1.246 . S
C239 O223 1.245 . S
C239 O224 1.259 . S
Tb240 O243 2.453 . S
Tb240 O244 2.596 . S
Tb240 O245 2.374 . S
Tb240 O253 2.343 . S
Tb240 O255 2.353 . S
Tb240 O257 2.427 . S
Tb240 O258 2.513 . S
C241 O245 1.251 . S
C241 O247 1.263 . S
Tb242 O244 2.343 . S
Tb242 O247 2.353 . S
Tb242 O250 2.427 . S
Tb242 O251 2.513 . S
Tb242 O252 2.453 . S
Tb242 O253 2.596 . S
Tb242 O254 2.374 . S
O243 Tb240 2.453 . S
O243 C259 1.245 . S
O244 Tb240 2.596 . S
O244 Tb242 2.343 . S
O244 C259 1.259 . S
O245 Tb240 2.374 . S
O245 C241 1.251 . S
C246 O250 1.275 . S
C246 O251 1.246 . S
O247 C241 1.263 . S
O247 Tb242 2.353 . S
C248 O252 1.245 . S
C248 O253 1.259 . S
C249 O254 1.250 . S
C249 O255 1.263 . S
O250 Tb242 2.427 . S
O250 C246 1.275 . S
O251 Tb242 2.513 . S
O251 C246 1.246 . S
O252 Tb242 2.453 . S
O252 C248 1.245 . S
O253 Tb240 2.343 . S
O253 Tb242 2.596 . S
O253 C248 1.259 . S
O254 Tb242 2.374 . S
O254 C249 1.250 . S
O255 Tb240 2.353 . S
O255 C249 1.263 . S
C256 O257 1.275 . S
C256 O258 1.246 . S
O257 Tb240 2.427 . S
O257 C256 1.275 . S
O258 Tb240 2.513 . S
O258 C256 1.246 . S
C259 O243 1.245 . S
C259 O244 1.259 . S
Tb260 O263 2.453 . S
Tb260 O264 2.596 . S
Tb260 O265 2.374 . S
Tb260 O273 2.343 . S
Tb260 O275 2.353 . S
Tb260 O277 2.427 . S
Tb260 O278 2.513 . S
C261 O265 1.251 . S
C261 O267 1.263 . S
Tb262 O264 2.343 . S
Tb262 O267 2.353 . S
Tb262 O270 2.427 . S
Tb262 O271 2.513 . S
Tb262 O272 2.453 . S
Tb262 O273 2.596 . S
Tb262 O274 2.374 . S
O263 Tb260 2.453 . S
O263 C279 1.245 . S
O264 Tb260 2.596 . S
O264 Tb262 2.343 . S
O264 C279 1.259 . S
O265 Tb260 2.374 . S
O265 C261 1.251 . S
C266 O270 1.275 . S
C266 O271 1.246 . S
O267 C261 1.263 . S
O267 Tb262 2.353 . S
C268 O272 1.245 . S
C268 O273 1.259 . S
C269 O274 1.250 . S
C269 O275 1.263 . S
O270 Tb262 2.427 . S
O270 C266 1.275 . S
O271 Tb262 2.513 . S
O271 C266 1.246 . S
O272 Tb262 2.453 . S
O272 C268 1.245 . S
O273 Tb260 2.343 . S
O273 Tb262 2.596 . S
O273 C268 1.259 . S
O274 Tb262 2.374 . S
O274 C269 1.250 . S
O275 Tb260 2.353 . S
O275 C269 1.263 . S
C276 O277 1.275 . S
C276 O278 1.246 . S
O277 Tb260 2.427 . S
O277 C276 1.275 . S
O278 Tb260 2.513 . S
O278 C276 1.246 . S
C279 O263 1.245 . S
C279 O264 1.259 . S
Tb280 O283 2.453 . S
Tb280 O284 2.596 . S
Tb280 O285 2.374 . S
Tb280 O293 2.343 . S
Tb280 O295 2.353 . S
Tb280 O297 2.427 . S
Tb280 O298 2.513 . S
C281 O285 1.251 . S
C281 O287 1.263 . S
Tb282 O284 2.343 . S
Tb282 O287 2.353 . S
Tb282 O290 2.427 . S
Tb282 O291 2.513 . S
Tb282 O292 2.453 . S
Tb282 O293 2.596 . S
Tb282 O294 2.374 . S
O283 Tb280 2.453 . S
O283 C299 1.245 . S
O284 Tb280 2.596 . S
O284 Tb282 2.343 . S
O284 C299 1.259 . S
O285 Tb280 2.374 . S
O285 C281 1.251 . S
C286 O290 1.275 . S
C286 O291 1.246 . S
O287 C281 1.263 . S
O287 Tb282 2.353 . S
C288 O292 1.245 . S
C288 O293 1.259 . S
C289 O294 1.250 . S
C289 O295 1.263 . S
O290 Tb282 2.427 . S
O290 C286 1.275 . S
O291 Tb282 2.513 . S
O291 C286 1.246 . S
O292 Tb282 2.453 . S
O292 C288 1.245 . S
O293 Tb280 2.343 . S
O293 Tb282 2.596 . S
O293 C288 1.259 . S
O294 Tb282 2.374 . S
O294 C289 1.250 . S
O295 Tb280 2.353 . S
O295 C289 1.263 . S
C296 O297 1.275 . S
C296 O298 1.246 . S
O297 Tb280 2.427 . S
O297 C296 1.275 . S
O298 Tb280 2.513 . S
O298 C296 1.246 . S
C299 O283 1.245 . S
C299 O284 1.259 . S
Tb300 O303 2.453 . S
Tb300 O304 2.596 . S
Tb300 O305 2.374 . S
Tb300 O313 2.343 . S
Tb300 O315 2.353 . S
Tb300 O317 2.427 1_556 S
Tb300 O318 2.513 1_556 S
C301 O305 1.251 . S
C301 O307 1.263 . S
Tb302 O304 2.343 . S
Tb302 O307 2.353 . S
Tb302 O310 2.427 . S
Tb302 O311 2.513 . S
Tb302 O312 2.453 . S
Tb302 O313 2.596 . S
Tb302 O314 2.374 . S
O303 Tb300 2.453 . S
O303 C319 1.245 . S
O304 Tb300 2.596 . S
O304 Tb302 2.343 . S
O304 C319 1.259 . S
O305 Tb300 2.374 . S
O305 C301 1.251 . S
C306 O310 1.275 . S
C306 O311 1.246 . S
O307 C301 1.263 . S
O307 Tb302 2.353 . S
C308 O312 1.245 1_554 S
C308 O313 1.259 1_554 S
C309 O314 1.250 . S
C309 O315 1.263 . S
O310 Tb302 2.427 . S
O310 C306 1.275 . S
O311 Tb302 2.513 . S
O311 C306 1.246 . S
O312 Tb302 2.453 . S
O312 C308 1.245 1_556 S
O313 Tb300 2.343 . S
O313 Tb302 2.596 . S
O313 C308 1.259 1_556 S
O314 Tb302 2.374 . S
O314 C309 1.250 . S
O315 Tb300 2.353 . S
O315 C309 1.263 . S
C316 O317 1.275 . S
C316 O318 1.246 . S
O317 Tb300 2.427 1_554 S
O317 C316 1.275 . S
O318 Tb300 2.513 1_554 S
O318 C316 1.246 . S
C319 O303 1.245 . S
C319 O304 1.259 . S
Tb320 O323 2.453 . S
Tb320 O324 2.596 . S
Tb320 O325 2.374 . S
Tb320 O333 2.343 . S
Tb320 O335 2.353 . S
Tb320 O337 2.427 . S
Tb320 O338 2.513 . S
C321 O325 1.251 . S
C321 O327 1.263 . S
Tb322 O324 2.343 . S
Tb322 O327 2.353 . S
Tb322 O330 2.427 . S
Tb322 O331 2.513 . S
Tb322 O332 2.453 . S
Tb322 O333 2.596 . S
Tb322 O334 2.374 . S
O323 Tb320 2.453 . S
O323 C339 1.245 . S
O324 Tb320 2.596 . S
O324 Tb322 2.343 . S
O324 C339 1.259 . S
O325 Tb320 2.374 . S
O325 C321 1.251 . S
C326 O330 1.275 . S
C326 O331 1.246 . S
O327 C321 1.263 . S
O327 Tb322 2.353 . S
C328 O332 1.245 . S
C328 O333 1.259 . S
C329 O334 1.250 . S
C329 O335 1.263 . S
O330 Tb322 2.427 . S
O330 C326 1.275 . S
O331 Tb322 2.513 . S
O331 C326 1.246 . S
O332 Tb322 2.453 . S
O332 C328 1.245 . S
O333 Tb320 2.343 . S
O333 Tb322 2.596 . S
O333 C328 1.259 . S
O334 Tb322 2.374 . S
O334 C329 1.250 . S
O335 Tb320 2.353 . S
O335 C329 1.263 . S
C336 O337 1.275 . S
C336 O338 1.246 . S
O337 Tb320 2.427 . S
O337 C336 1.275 . S
O338 Tb320 2.513 . S
O338 C336 1.246 . S
C339 O323 1.245 . S
C339 O324 1.259 . S
Tb340 O343 2.453 . S
Tb340 O344 2.596 . S
Tb340 O345 2.374 . S
Tb340 O353 2.343 . S
Tb340 O355 2.353 . S
Tb340 O357 2.427 . S
Tb340 O358 2.513 . S
C341 O345 1.251 . S
C341 O347 1.263 . S
Tb342 O344 2.343 . S
Tb342 O347 2.353 . S
Tb342 O350 2.427 1_556 S
Tb342 O351 2.513 1_556 S
Tb342 O352 2.453 . S
Tb342 O353 2.596 . S
Tb342 O354 2.374 . S
O343 Tb340 2.453 . S
O343 C359 1.245 1_556 S
O344 Tb340 2.596 . S
O344 Tb342 2.343 . S
O344 C359 1.259 1_556 S
O345 Tb340 2.374 . S
O345 C341 1.251 . S
C346 O350 1.275 . S
C346 O351 1.246 . S
O347 C341 1.263 . S
O347 Tb342 2.353 . S
C348 O352 1.245 . S
C348 O353 1.259 . S
C349 O354 1.250 . S
C349 O355 1.263 . S
O350 Tb342 2.427 1_554 S
O350 C346 1.275 . S
O351 Tb342 2.513 1_554 S
O351 C346 1.246 . S
O352 Tb342 2.453 . S
O352 C348 1.245 . S
O353 Tb340 2.343 . S
O353 Tb342 2.596 . S
O353 C348 1.259 . S
O354 Tb342 2.374 . S
O354 C349 1.250 . S
O355 Tb340 2.353 . S
O355 C349 1.263 . S
C356 O357 1.275 . S
C356 O358 1.246 . S
O357 Tb340 2.427 . S
O357 C356 1.275 . S
O358 Tb340 2.513 . S
O358 C356 1.246 . S
C359 O343 1.245 1_554 S
C359 O344 1.259 1_554 S
Tb360 O363 2.453 . S
Tb360 O364 2.596 . S
Tb360 O365 2.374 . S
Tb360 O373 2.343 . S
Tb360 O375 2.353 . S
Tb360 O377 2.427 . S
Tb360 O378 2.513 . S
C361 O365 1.251 . S
C361 O367 1.263 . S
Tb362 O364 2.343 . S
Tb362 O367 2.353 . S
Tb362 O370 2.427 . S
Tb362 O371 2.513 . S
Tb362 O372 2.453 . S
Tb362 O373 2.596 . S
Tb362 O374 2.374 . S
O363 Tb360 2.453 . S
O363 C379 1.245 . S
O364 Tb360 2.596 . S
O364 Tb362 2.343 . S
O364 C379 1.259 . S
O365 Tb360 2.374 . S
O365 C361 1.251 . S
C366 O370 1.275 . S
C366 O371 1.246 . S
O367 C361 1.263 . S
O367 Tb362 2.353 . S
C368 O372 1.245 . S
C368 O373 1.259 . S
C369 O374 1.250 . S
C369 O375 1.263 . S
O370 Tb362 2.427 . S
O370 C366 1.275 . S
O371 Tb362 2.513 . S
O371 C366 1.246 . S
O372 Tb362 2.453 . S
O372 C368 1.245 . S
O373 Tb360 2.343 . S
O373 Tb362 2.596 . S
O373 C368 1.259 . S
O374 Tb362 2.374 . S
O374 C369 1.250 . S
O375 Tb360 2.353 . S
O375 C369 1.263 . S
C376 O377 1.275 . S
C376 O378 1.246 . S
O377 Tb360 2.427 . S
O377 C376 1.275 . S
O378 Tb360 2.513 . S
O378 C376 1.246 . S
C379 O363 1.245 . S
C379 O364 1.259 . S
Tb380 O383 2.453 . S
Tb380 O384 2.596 . S
Tb380 O385 2.374 . S
Tb380 O393 2.343 . S
Tb380 O395 2.353 . S
Tb380 O397 2.427 . S
Tb380 O398 2.513 . S
C381 O385 1.251 . S
C381 O387 1.263 . S
Tb382 O384 2.343 . S
Tb382 O387 2.353 . S
Tb382 O390 2.427 . S
Tb382 O391 2.513 . S
Tb382 O392 2.453 . S
Tb382 O393 2.596 . S
Tb382 O394 2.374 . S
O383 Tb380 2.453 . S
O383 C399 1.245 . S
O384 Tb380 2.596 . S
O384 Tb382 2.343 . S
O384 C399 1.259 . S
O385 Tb380 2.374 . S
O385 C381 1.251 . S
C386 O390 1.275 . S
C386 O391 1.246 . S
O387 C381 1.263 . S
O387 Tb382 2.353 . S
C388 O392 1.245 . S
C388 O393 1.259 . S
C389 O394 1.250 . S
C389 O395 1.263 . S
O390 Tb382 2.427 . S
O390 C386 1.275 . S
O391 Tb382 2.513 . S
O391 C386 1.246 . S
O392 Tb382 2.453 . S
O392 C388 1.245 . S
O393 Tb380 2.343 . S
O393 Tb382 2.596 . S
O393 C388 1.259 . S
O394 Tb382 2.374 . S
O394 C389 1.250 . S
O395 Tb380 2.353 . S
O395 C389 1.263 . S
C396 O397 1.275 . S
C396 O398 1.246 . S
O397 Tb380 2.427 . S
O397 C396 1.275 . S
O398 Tb380 2.513 . S
O398 C396 1.246 . S
C399 O383 1.245 . S
C399 O384 1.259 . S
Tb400 O403 2.453 . S
Tb400 O404 2.596 . S
Tb400 O405 2.374 . S
Tb400 O413 2.343 . S
Tb400 O415 2.353 . S
Tb400 O417 2.427 . S
Tb400 O418 2.513 . S
C401 O405 1.251 . S
C401 O407 1.263 . S
Tb402 O404 2.343 . S
Tb402 O407 2.353 . S
Tb402 O410 2.427 . S
Tb402 O411 2.513 . S
Tb402 O412 2.453 . S
Tb402 O413 2.596 . S
Tb402 O414 2.374 . S
O403 Tb400 2.453 . S
O403 C419 1.245 . S
O404 Tb400 2.596 . S
O404 Tb402 2.343 . S
O404 C419 1.259 . S
O405 Tb400 2.374 . S
O405 C401 1.251 . S
C406 O410 1.275 . S
C406 O411 1.246 . S
O407 C401 1.263 . S
O407 Tb402 2.353 . S
C408 O412 1.245 . S
C408 O413 1.259 . S
C409 O414 1.250 . S
C409 O415 1.263 . S
O410 Tb402 2.427 . S
O410 C406 1.275 . S
O411 Tb402 2.513 . S
O411 C406 1.246 . S
O412 Tb402 2.453 . S
O412 C408 1.245 . S
O413 Tb400 2.343 . S
O413 Tb402 2.596 . S
O413 C408 1.259 . S
O414 Tb402 2.374 . S
O414 C409 1.250 . S
O415 Tb400 2.353 . S
O415 C409 1.263 . S
C416 O417 1.275 . S
C416 O418 1.246 . S
O417 Tb400 2.427 . S
O417 C416 1.275 . S
O418 Tb400 2.513 . S
O418 C416 1.246 . S
C419 O403 1.245 . S
C419 O404 1.259 . S
Tb420 O423 2.453 . S
Tb420 O424 2.596 . S
Tb420 O425 2.374 . S
Tb420 O433 2.343 . S
Tb420 O435 2.353 . S
Tb420 O437 2.427 . S
Tb420 O438 2.513 . S
C421 O425 1.251 . S
C421 O427 1.263 . S
Tb422 O424 2.343 . S
Tb422 O427 2.353 . S
Tb422 O430 2.427 . S
Tb422 O431 2.513 . S
Tb422 O432 2.453 . S
Tb422 O433 2.596 . S
Tb422 O434 2.374 . S
O423 Tb420 2.453 . S
O423 C439 1.245 . S
O424 Tb420 2.596 . S
O424 Tb422 2.343 . S
O424 C439 1.259 . S
O425 Tb420 2.374 . S
O425 C421 1.251 . S
C426 O430 1.275 . S
C426 O431 1.246 . S
O427 C421 1.263 . S
O427 Tb422 2.353 . S
C428 O432 1.245 . S
C428 O433 1.259 . S
C429 O434 1.250 . S
C429 O435 1.263 . S
O430 Tb422 2.427 . S
O430 C426 1.275 . S
O431 Tb422 2.513 . S
O431 C426 1.246 . S
O432 Tb422 2.453 . S
O432 C428 1.245 . S
O433 Tb420 2.343 . S
O433 Tb422 2.596 . S
O433 C428 1.259 . S
O434 Tb422 2.374 . S
O434 C429 1.250 . S
O435 Tb420 2.353 . S
O435 C429 1.263 . S
C436 O437 1.275 . S
C436 O438 1.246 . S
O437 Tb420 2.427 . S
O437 C436 1.275 . S
O438 Tb420 2.513 . S
O438 C436 1.246 . S
C439 O423 1.245 . S
C439 O424 1.259 . S
Tb440 O443 2.453 . S
Tb440 O444 2.596 . S
Tb440 O445 2.374 . S
Tb440 O453 2.343 . S
Tb440 O455 2.353 . S
Tb440 O457 2.427 . S
Tb440 O458 2.513 . S
C441 O445 1.251 . S
C441 O447 1.263 . S
Tb442 O444 2.343 . S
Tb442 O447 2.353 . S
Tb442 O450 2.427 . S
Tb442 O451 2.513 . S
Tb442 O452 2.453 . S
Tb442 O453 2.596 . S
Tb442 O454 2.374 . S
O443 Tb440 2.453 . S
O443 C459 1.245 . S
O444 Tb440 2.596 . S
O444 Tb442 2.343 . S
O444 C459 1.259 . S
O445 Tb440 2.374 . S
O445 C441 1.251 . S
C446 O450 1.275 . S
C446 O451 1.246 . S
O447 C441 1.263 . S
O447 Tb442 2.353 . S
C448 O452 1.245 . S
C448 O453 1.259 . S
C449 O454 1.250 . S
C449 O455 1.263 . S
O450 Tb442 2.427 . S
O450 C446 1.275 . S
O451 Tb442 2.513 . S
O451 C446 1.246 . S
O452 Tb442 2.453 . S
O452 C448 1.245 . S
O453 Tb440 2.343 . S
O453 Tb442 2.596 . S
O453 C448 1.259 . S
O454 Tb442 2.374 . S
O454 C449 1.250 . S
O455 Tb440 2.353 . S
O455 C449 1.263 . S
C456 O457 1.275 . S
C456 O458 1.246 . S
O457 Tb440 2.427 . S
O457 C456 1.275 . S
O458 Tb440 2.513 . S
O458 C456 1.246 . S
C459 O443 1.245 . S
C459 O444 1.259 . S
Tb460 O463 2.453 . S
Tb460 O464 2.596 . S
Tb460 O465 2.374 . S
Tb460 O473 2.343 . S
Tb460 O475 2.353 . S
Tb460 O477 2.427 . S
Tb460 O478 2.513 . S
C461 O465 1.251 . S
C461 O467 1.263 . S
Tb462 O464 2.343 . S
Tb462 O467 2.353 . S
Tb462 O470 2.427 . S
Tb462 O471 2.513 . S
Tb462 O472 2.453 . S
Tb462 O473 2.596 . S
Tb462 O474 2.374 . S
O463 Tb460 2.453 . S
O463 C479 1.245 . S
O464 Tb460 2.596 . S
O464 Tb462 2.343 . S
O464 C479 1.259 . S
O465 Tb460 2.374 . S
O465 C461 1.251 . S
C466 O470 1.275 . S
C466 O471 1.246 . S
O467 C461 1.263 . S
O467 Tb462 2.353 . S
C468 O472 1.245 . S
C468 O473 1.259 . S
C469 O474 1.250 . S
C469 O475 1.263 . S
O470 Tb462 2.427 . S
O470 C466 1.275 . S
O471 Tb462 2.513 . S
O471 C466 1.246 . S
O472 Tb462 2.453 . S
O472 C468 1.245 . S
O473 Tb460 2.343 . S
O473 Tb462 2.596 . S
O473 C468 1.259 . S
O474 Tb462 2.374 . S
O474 C469 1.250 . S
O475 Tb460 2.353 . S
O475 C469 1.263 . S
C476 O477 1.275 . S
C476 O478 1.246 . S
O477 Tb460 2.427 . S
O477 C476 1.275 . S
O478 Tb460 2.513 . S
O478 C476 1.246 . S
C479 O463 1.245 . S
C479 O464 1.259 . S
Tb480 O483 2.453 . S
Tb480 O484 2.596 . S
Tb480 O485 2.374 . S
Tb480 O493 2.343 . S
Tb480 O495 2.353 . S
Tb480 O497 2.427 . S
Tb480 O498 2.513 . S
C481 O485 1.251 . S
C481 O487 1.263 . S
Tb482 O484 2.343 . S
Tb482 O487 2.353 . S
Tb482 O490 2.427 . S
Tb482 O491 2.513 . S
Tb482 O492 2.453 . S
Tb482 O493 2.596 . S
Tb482 O494 2.374 . S
O483 Tb480 2.453 . S
O483 C499 1.245 . S
O484 Tb480 2.596 . S
O484 Tb482 2.343 . S
O484 C499 1.259 . S
O485 Tb480 2.374 . S
O485 C481 1.251 . S
C486 O490 1.275 . S
C486 O491 1.246 . S
O487 C481 1.263 . S
O487 Tb482 2.353 . S
C488 O492 1.245 . S
C488 O493 1.259 . S
C489 O494 1.250 . S
C489 O495 1.263 . S
O490 Tb482 2.427 . S
O490 C486 1.275 . S
O491 Tb482 2.513 . S
O491 C486 1.246 . S
O492 Tb482 2.453 . S
O492 C488 1.245 . S
O493 Tb480 2.343 . S
O493 Tb482 2.596 . S
O493 C488 1.259 . S
O494 Tb482 2.374 . S
O494 C489 1.250 . S
O495 Tb480 2.353 . S
O495 C489 1.263 . S
C496 O497 1.275 . S
C496 O498 1.246 . S
O497 Tb480 2.427 . S
O497 C496 1.275 . S
O498 Tb480 2.513 . S
O498 C496 1.246 . S
C499 O483 1.245 . S
C499 O484 1.259 . S
Tb500 O503 2.453 . S
Tb500 O504 2.596 . S
Tb500 O505 2.374 . S
Tb500 O513 2.343 . S
Tb500 O515 2.353 . S
Tb500 O517 2.427 . S
Tb500 O518 2.513 . S
C501 O505 1.251 . S
C501 O507 1.263 . S
Tb502 O504 2.343 . S
Tb502 O507 2.353 . S
Tb502 O510 2.427 . S
Tb502 O511 2.513 . S
Tb502 O512 2.453 . S
Tb502 O513 2.596 . S
Tb502 O514 2.374 . S
O503 Tb500 2.453 . S
O503 C519 1.245 . S
O504 Tb500 2.596 . S
O504 Tb502 2.343 . S
O504 C519 1.259 . S
O505 Tb500 2.374 . S
O505 C501 1.251 . S
C506 O510 1.275 . S
C506 O511 1.246 . S
O507 C501 1.263 . S
O507 Tb502 2.353 . S
C508 O512 1.245 . S
C508 O513 1.259 . S
C509 O514 1.250 . S
C509 O515 1.263 . S
O510 Tb502 2.427 . S
O510 C506 1.275 . S
O511 Tb502 2.513 . S
O511 C506 1.246 . S
O512 Tb502 2.453 . S
O512 C508 1.245 . S
O513 Tb500 2.343 . S
O513 Tb502 2.596 . S
O513 C508 1.259 . S
O514 Tb502 2.374 . S
O514 C509 1.250 . S
O515 Tb500 2.353 . S
O515 C509 1.263 . S
C516 O517 1.275 . S
C516 O518 1.246 . S
O517 Tb500 2.427 . S
O517 C516 1.275 . S
O518 Tb500 2.513 . S
O518 C516 1.246 . S
C519 O503 1.245 . S
C519 O504 1.259 . S
Tb520 O523 2.453 . S
Tb520 O524 2.596 . S
Tb520 O525 2.374 . S
Tb520 O533 2.343 . S
Tb520 O535 2.353 . S
Tb520 O537 2.427 1_554 S
Tb520 O538 2.513 1_554 S
C521 O525 1.251 . S
C521 O527 1.263 . S
Tb522 O524 2.343 . S
Tb522 O527 2.353 . S
Tb522 O530 2.427 . S
Tb522 O531 2.513 . S
Tb522 O532 2.453 . S
Tb522 O533 2.596 . S
Tb522 O534 2.374 . S
O523 Tb520 2.453 . S
O523 C539 1.245 . S
O524 Tb520 2.596 . S
O524 Tb522 2.343 . S
O524 C539 1.259 . S
O525 Tb520 2.374 . S
O525 C521 1.251 . S
C526 O530 1.275 . S
C526 O531 1.246 . S
O527 C521 1.263 . S
O527 Tb522 2.353 . S
C528 O532 1.245 . S
C528 O533 1.259 . S
C529 O534 1.250 . S
C529 O535 1.263 . S
O530 Tb522 2.427 . S
O530 C526 1.275 . S
O531 Tb522 2.513 . S
O531 C526 1.246 . S
O532 Tb522 2.453 . S
O532 C528 1.245 . S
O533 Tb520 2.343 . S
O533 Tb522 2.596 . S
O533 C528 1.259 . S
O534 Tb522 2.374 . S
O534 C529 1.250 . S
O535 Tb520 2.353 . S
O535 C529 1.263 . S
C536 O537 1.275 . S
C536 O538 1.246 . S
O537 Tb520 2.427 1_556 S
O537 C536 1.275 . S
O538 Tb520 2.513 1_556 S
O538 C536 1.246 . S
C539 O523 1.245 . S
C539 O524 1.259 . S
Tb540 O543 2.453 . S
Tb540 O544 2.596 . S
Tb540 O545 2.374 . S
Tb540 O553 2.343 . S
Tb540 O555 2.353 . S
Tb540 O557 2.427 . S
Tb540 O558 2.513 . S
C541 O545 1.251 . S
C541 O547 1.263 . S
Tb542 O544 2.343 . S
Tb542 O547 2.353 . S
Tb542 O550 2.427 . S
Tb542 O551 2.513 . S
Tb542 O552 2.453 . S
Tb542 O553 2.596 . S
Tb542 O554 2.374 . S
O543 Tb540 2.453 . S
O543 C559 1.245 . S
O544 Tb540 2.596 . S
O544 Tb542 2.343 . S
O544 C559 1.259 . S
O545 Tb540 2.374 . S
O545 C541 1.251 . S
C546 O550 1.275 . S
C546 O551 1.246 . S
O547 C541 1.263 . S
O547 Tb542 2.353 . S
C548 O552 1.245 . S
C548 O553 1.259 . S
C549 O554 1.250 . S
C549 O555 1.263 . S
O550 Tb542 2.427 . S
O550 C546 1.275 . S
O551 Tb542 2.513 . S
O551 C546 1.246 . S
O552 Tb542 2.453 . S
O552 C548 1.245 . S
O553 Tb540 2.343 . S
O553 Tb542 2.596 . S
O553 C548 1.259 . S
O554 Tb542 2.374 . S
O554 C549 1.250 . S
O555 Tb540 2.353 . S
O555 C549 1.263 . S
C556 O557 1.275 . S
C556 O558 1.246 . S
O557 Tb540 2.427 . S
O557 C556 1.275 . S
O558 Tb540 2.513 . S
O558 C556 1.246 . S
C559 O543 1.245 . S
C559 O544 1.259 . S
Tb560 O563 2.453 . S
Tb560 O564 2.596 . S
Tb560 O565 2.374 . S
Tb560 O573 2.343 . S
Tb560 O575 2.353 . S
Tb560 O577 2.427 . S
Tb560 O578 2.513 . S
C561 O565 1.251 . S
C561 O567 1.263 . S
Tb562 O564 2.343 . S
Tb562 O567 2.353 . S
Tb562 O570 2.427 . S
Tb562 O571 2.513 . S
Tb562 O572 2.453 . S
Tb562 O573 2.596 . S
Tb562 O574 2.374 . S
O563 Tb560 2.453 . S
O563 C579 1.245 . S
O564 Tb560 2.596 . S
O564 Tb562 2.343 . S
O564 C579 1.259 . S
O565 Tb560 2.374 . S
O565 C561 1.251 . S
C566 O570 1.275 . S
C566 O571 1.246 . S
O567 C561 1.263 . S
O567 Tb562 2.353 . S
C568 O572 1.245 . S
C568 O573 1.259 . S
C569 O574 1.250 . S
C569 O575 1.263 . S
O570 Tb562 2.427 . S
O570 C566 1.275 . S
O571 Tb562 2.513 . S
O571 C566 1.246 . S
O572 Tb562 2.453 . S
O572 C568 1.245 . S
O573 Tb560 2.343 . S
O573 Tb562 2.596 . S
O573 C568 1.259 . S
O574 Tb562 2.374 . S
O574 C569 1.250 . S
O575 Tb560 2.353 . S
O575 C569 1.263 . S
C576 O577 1.275 . S
C576 O578 1.246 . S
O577 Tb560 2.427 . S
O577 C576 1.275 . S
O578 Tb560 2.513 . S
O578 C576 1.246 . S
C579 O563 1.245 . S
C579 O564 1.259 . S
Tb580 O583 2.453 . S
Tb580 O584 2.596 . S
Tb580 O585 2.374 . S
Tb580 O593 2.343 . S
Tb580 O595 2.353 . S
Tb580 O597 2.427 1_556 S
Tb580 O598 2.513 1_556 S
C581 O585 1.251 . S
C581 O587 1.263 . S
Tb582 O584 2.343 . S
Tb582 O587 2.353 . S
Tb582 O590 2.427 . S
Tb582 O591 2.513 . S
Tb582 O592 2.453 1_556 S
Tb582 O593 2.596 . S
Tb582 O594 2.374 . S
O583 Tb580 2.453 . S
O583 C599 1.245 . S
O584 Tb580 2.596 . S
O584 Tb582 2.343 . S
O584 C599 1.259 . S
O585 Tb580 2.374 . S
O585 C581 1.251 . S
C586 O590 1.275 . S
C586 O591 1.246 . S
O587 C581 1.263 . S
O587 Tb582 2.353 . S
C588 O592 1.245 . S
C588 O593 1.259 1_554 S
C589 O594 1.250 . S
C589 O595 1.263 . S
O590 Tb582 2.427 . S
O590 C586 1.275 . S
O591 Tb582 2.513 . S
O591 C586 1.246 . S
O592 Tb582 2.453 1_554 S
O592 C588 1.245 . S
O593 Tb580 2.343 . S
O593 Tb582 2.596 . S
O593 C588 1.259 1_556 S
O594 Tb582 2.374 . S
O594 C589 1.250 . S
O595 Tb580 2.353 . S
O595 C589 1.263 . S
C596 O597 1.275 . S
C596 O598 1.246 . S
O597 Tb580 2.427 1_554 S
O597 C596 1.275 . S
O598 Tb580 2.513 1_554 S
O598 C596 1.246 . S
C599 O583 1.245 . S
C599 O584 1.259 . S
Tb600 O603 2.453 . S
Tb600 O604 2.596 . S
Tb600 O605 2.374 . S
Tb600 O613 2.343 . S
Tb600 O615 2.353 . S
Tb600 O617 2.427 . S
Tb600 O618 2.513 . S
C601 O605 1.251 . S
C601 O607 1.263 . S
Tb602 O604 2.343 . S
Tb602 O607 2.353 . S
Tb602 O610 2.427 . S
Tb602 O611 2.513 . S
Tb602 O612 2.453 . S
Tb602 O613 2.596 . S
Tb602 O614 2.374 . S
O603 Tb600 2.453 . S
O603 C619 1.245 . S
O604 Tb600 2.596 . S
O604 Tb602 2.343 . S
O604 C619 1.259 . S
O605 Tb600 2.374 . S
O605 C601 1.251 . S
C606 O610 1.275 . S
C606 O611 1.246 . S
O607 C601 1.263 . S
O607 Tb602 2.353 . S
C608 O612 1.245 . S
C608 O613 1.259 . S
C609 O614 1.250 . S
C609 O615 1.263 . S
O610 Tb602 2.427 . S
O610 C606 1.275 . S
O611 Tb602 2.513 . S
O611 C606 1.246 . S
O612 Tb602 2.453 . S
O612 C608 1.245 . S
O613 Tb600 2.343 . S
O613 Tb602 2.596 . S
O613 C608 1.259 . S
O614 Tb602 2.374 . S
O614 C609 1.250 . S
O615 Tb600 2.353 . S
O615 C609 1.263 . S
C616 O617 1.275 . S
C616 O618 1.246 . S
O617 Tb600 2.427 . S
O617 C616 1.275 . S
O618 Tb600 2.513 . S
O618 C616 1.246 . S
C619 O603 1.245 . S
C619 O604 1.259 . S
Tb620 O623 2.453 . S
Tb620 O624 2.596 . S
Tb620 O625 2.374 . S
Tb620 O633 2.343 . S
Tb620 O635 2.353 . S
Tb620 O637 2.427 . S
Tb620 O638 2.513 . S
C621 O625 1.251 . S
C621 O627 1.263 . S
Tb622 O624 2.343 . S
Tb622 O627 2.353 . S
Tb622 O630 2.427 . S
Tb622 O631 2.513 . S
Tb622 O632 2.453 . S
Tb622 O633 2.596 . S
Tb622 O634 2.374 . S
O623 Tb620 2.453 . S
O623 C639 1.245 . S
O624 Tb620 2.596 . S
O624 Tb622 2.343 . S
O624 C639 1.259 . S
O625 Tb620 2.374 . S
O625 C621 1.251 . S
C626 O630 1.275 . S
C626 O631 1.246 . S
O627 C621 1.263 . S
O627 Tb622 2.353 . S
C628 O632 1.245 . S
C628 O633 1.259 . S
C629 O634 1.250 . S
C629 O635 1.263 . S
O630 Tb622 2.427 . S
O630 C626 1.275 . S
O631 Tb622 2.513 . S
O631 C626 1.246 . S
O632 Tb622 2.453 . S
O632 C628 1.245 . S
O633 Tb620 2.343 . S
O633 Tb622 2.596 . S
O633 C628 1.259 . S
O634 Tb622 2.374 . S
O634 C629 1.250 . S
O635 Tb620 2.353 . S
O635 C629 1.263 . S
C636 O637 1.275 . S
C636 O638 1.246 . S
O637 Tb620 2.427 . S
O637 C636 1.275 . S
O638 Tb620 2.513 . S
O638 C636 1.246 . S
C639 O623 1.245 . S
C639 O624 1.259 . S
H640 C646 0.930 . S
H641 C649 0.930 . S
H642 C650 0.930 . S
H643 C651 0.930 . S
H644 C654 0.930 . S
H645 C655 0.930 . S
C646 H640 0.930 . S
C646 C647 1.355 . S
C646 C648 1.415 . S
C647 C646 1.355 . S
C647 C649 1.419 . S
C648 C646 1.415 . S
C648 C653 1.425 . S
C648 C655 1.409 . S
C649 H641 0.930 . S
C649 C647 1.419 . S
C649 C650 1.362 . S
C650 H642 0.930 . S
C650 C649 1.362 . S
C650 C653 1.409 . S
C651 H643 0.930 . S
C651 C652 1.355 . S
C651 C653 1.415 . S
C652 C651 1.355 . S
C652 C654 1.419 . S
C653 C648 1.425 . S
C653 C650 1.409 . S
C653 C651 1.415 . S
C654 H644 0.930 . S
C654 C652 1.419 . S
C654 C655 1.362 . S
C655 H645 0.930 . S
C655 C648 1.409 . S
C655 C654 1.362 . S
H656 C662 0.930 . S
H657 C665 0.930 . S
H658 C666 0.930 . S
H659 C667 0.930 . S
H660 C670 0.930 . S
H661 C671 0.930 . S
C662 H656 0.930 . S
C662 C663 1.355 . S
C662 C664 1.415 . S
C663 C662 1.355 . S
C663 C665 1.419 . S
C664 C662 1.415 . S
C664 C669 1.425 . S
C664 C671 1.409 . S
C665 H657 0.930 . S
C665 C663 1.419 . S
C665 C666 1.362 . S
C666 H658 0.930 . S
C666 C665 1.362 . S
C666 C669 1.409 . S
C667 H659 0.930 . S
C667 C668 1.355 . S
C667 C669 1.415 . S
C668 C667 1.355 . S
C668 C670 1.419 . S
C669 C664 1.425 . S
C669 C666 1.409 . S
C669 C667 1.415 . S
C670 H660 0.930 . S
C670 C668 1.419 . S
C670 C671 1.362 . S
C671 H661 0.930 . S
C671 C664 1.409 . S
C671 C670 1.362 . S
H672 C678 0.930 . S
H673 C681 0.930 . S
H674 C682 0.930 . S
H675 C683 0.930 . S
H676 C686 0.930 1_554 S
H677 C687 0.930 . S
C678 H672 0.930 . S
C678 C679 1.355 . S
C678 C680 1.415 . S
C679 C678 1.355 . S
C679 C681 1.419 . S
C680 C678 1.415 . S
C680 C685 1.425 . S
C680 C687 1.409 . S
C681 H673 0.930 . S
C681 C679 1.419 . S
C681 C682 1.362 . S
C682 H674 0.930 . S
C682 C681 1.362 . S
C682 C685 1.409 . S
C683 H675 0.930 . S
C683 C684 1.355 . S
C683 C685 1.415 . S
C684 C683 1.355 . S
C684 C686 1.419 . S
C685 C680 1.425 . S
C685 C682 1.409 . S
C685 C683 1.415 . S
C686 H676 0.930 1_556 S
C686 C684 1.419 . S
C686 C687 1.362 . S
C687 H677 0.930 . S
C687 C680 1.409 . S
C687 C686 1.362 . S
H688 C694 0.930 . S
H689 C697 0.930 . S
H690 C698 0.930 . S
H691 C699 0.930 . S
H692 C702 0.930 . S
H693 C703 0.930 . S
C694 H688 0.930 . S
C694 C695 1.355 . S
C694 C696 1.415 . S
C695 C694 1.355 . S
C695 C697 1.419 . S
C696 C694 1.415 . S
C696 C701 1.425 . S
C696 C703 1.409 . S
C697 H689 0.930 . S
C697 C695 1.419 . S
C697 C698 1.362 . S
C698 H690 0.930 . S
C698 C697 1.362 . S
C698 C701 1.409 . S
C699 H691 0.930 . S
C699 C700 1.355 . S
C699 C701 1.415 . S
C700 C699 1.355 . S
C700 C702 1.419 . S
C701 C696 1.425 . S
C701 C698 1.409 . S
C701 C699 1.415 . S
C702 H692 0.930 . S
C702 C700 1.419 . S
C702 C703 1.362 . S
C703 H693 0.930 . S
C703 C696 1.409 . S
C703 C702 1.362 . S
H704 C710 0.930 . S
H705 C713 0.930 1_554 S
H706 C714 0.930 . S
H707 C715 0.930 . S
H708 C718 0.930 . S
H709 C719 0.930 . S
C710 H704 0.930 . S
C710 C711 1.355 . S
C710 C712 1.415 . S
C711 C710 1.355 . S
C711 C713 1.419 . S
C712 C710 1.415 . S
C712 C717 1.425 . S
C712 C719 1.409 . S
C713 H705 0.930 1_556 S
C713 C711 1.419 . S
C713 C714 1.362 . S
C714 H706 0.930 . S
C714 C713 1.362 . S
C714 C717 1.409 . S
C715 H707 0.930 . S
C715 C716 1.355 . S
C715 C717 1.415 . S
C716 C715 1.355 . S
C716 C718 1.419 . S
C717 C712 1.425 . S
C717 C714 1.409 . S
C717 C715 1.415 . S
C718 H708 0.930 . S
C718 C716 1.419 . S
C718 C719 1.362 . S
C719 H709 0.930 . S
C719 C712 1.409 . S
C719 C718 1.362 . S
H720 C726 0.930 . S
H721 C729 0.930 . S
H722 C730 0.930 . S
H723 C731 0.930 . S
H724 C734 0.930 . S
H725 C735 0.930 . S
C726 H720 0.930 . S
C726 C727 1.355 . S
C726 C728 1.415 . S
C727 C726 1.355 . S
C727 C729 1.419 . S
C728 C726 1.415 . S
C728 C733 1.425 . S
C728 C735 1.409 . S
C729 H721 0.930 . S
C729 C727 1.419 . S
C729 C730 1.362 . S
C730 H722 0.930 . S
C730 C729 1.362 . S
C730 C733 1.409 . S
C731 H723 0.930 . S
C731 C732 1.355 . S
C731 C733 1.415 . S
C732 C731 1.355 . S
C732 C734 1.419 . S
C733 C728 1.425 . S
C733 C730 1.409 . S
C733 C731 1.415 . S
C734 H724 0.930 . S
C734 C732 1.419 . S
C734 C735 1.362 . S
C735 H725 0.930 . S
C735 C728 1.409 . S
C735 C734 1.362 . S
H736 C742 0.930 . S
H737 C745 0.930 . S
H738 C746 0.930 . S
H739 C747 0.930 . S
H740 C750 0.930 . S
H741 C751 0.930 . S
C742 H736 0.930 . S
C742 C743 1.355 . S
C742 C744 1.415 . S
C743 C742 1.355 . S
C743 C745 1.419 . S
C744 C742 1.415 . S
C744 C749 1.425 . S
C744 C751 1.409 . S
C745 H737 0.930 . S
C745 C743 1.419 . S
C745 C746 1.362 . S
C746 H738 0.930 . S
C746 C745 1.362 . S
C746 C749 1.409 . S
C747 H739 0.930 . S
C747 C748 1.355 . S
C747 C749 1.415 . S
C748 C747 1.355 . S
C748 C750 1.419 . S
C749 C744 1.425 . S
C749 C746 1.409 . S
C749 C747 1.415 . S
C750 H740 0.930 . S
C750 C748 1.419 . S
C750 C751 1.362 . S
C751 H741 0.930 . S
C751 C744 1.409 . S
C751 C750 1.362 . S
H752 C758 0.930 . S
H753 C761 0.930 . S
H754 C762 0.930 . S
H755 C763 0.930 . S
H756 C766 0.930 . S
H757 C767 0.930 . S
C758 H752 0.930 . S
C758 C759 1.355 . S
C758 C760 1.415 . S
C759 C758 1.355 . S
C759 C761 1.419 . S
C760 C758 1.415 . S
C760 C765 1.425 . S
C760 C767 1.409 . S
C761 H753 0.930 . S
C761 C759 1.419 . S
C761 C762 1.362 . S
C762 H754 0.930 . S
C762 C761 1.362 . S
C762 C765 1.409 . S
C763 H755 0.930 . S
C763 C764 1.355 . S
C763 C765 1.415 . S
C764 C763 1.355 . S
C764 C766 1.419 . S
C765 C760 1.425 . S
C765 C762 1.409 . S
C765 C763 1.415 . S
C766 H756 0.930 . S
C766 C764 1.419 . S
C766 C767 1.362 . S
C767 H757 0.930 . S
C767 C760 1.409 . S
C767 C766 1.362 . S
H768 C774 0.930 . S
H769 C777 0.930 1_554 S
H770 C778 0.930 . S
H771 C779 0.930 . S
H772 C782 0.930 . S
H773 C783 0.930 . S
C774 H768 0.930 . S
C774 C775 1.355 . S
C774 C776 1.415 . S
C775 C774 1.355 . S
C775 C777 1.419 . S
C776 C774 1.415 . S
C776 C781 1.425 1_545 S
C776 C783 1.409 . S
C777 H769 0.930 1_556 S
C777 C775 1.419 . S
C777 C778 1.362 1_545 S
C778 H770 0.930 . S
C778 C777 1.362 1_565 S
C778 C781 1.409 . S
C779 H771 0.930 . S
C779 C780 1.355 . S
C779 C781 1.415 . S
C780 C779 1.355 . S
C780 C782 1.419 . S
C781 C776 1.425 1_565 S
C781 C778 1.409 . S
C781 C779 1.415 . S
C782 H772 0.930 . S
C782 C780 1.419 . S
C782 C783 1.362 1_565 S
C783 H773 0.930 . S
C783 C776 1.409 . S
C783 C782 1.362 1_545 S
H784 C790 0.930 . S
H785 C793 0.930 . S
H786 C794 0.930 . S
H787 C795 0.930 . S
H788 C798 0.930 . S
H789 C799 0.930 . S
C790 H784 0.930 . S
C790 C791 1.355 . S
C790 C792 1.415 . S
C791 C790 1.355 . S
C791 C793 1.419 . S
C792 C790 1.415 . S
C792 C797 1.425 . S
C792 C799 1.409 . S
C793 H785 0.930 . S
C793 C791 1.419 . S
C793 C794 1.362 . S
C794 H786 0.930 . S
C794 C793 1.362 . S
C794 C797 1.409 . S
C795 H787 0.930 . S
C795 C796 1.355 . S
C795 C797 1.415 . S
C796 C795 1.355 . S
C796 C798 1.419 . S
C797 C792 1.425 . S
C797 C794 1.409 . S
C797 C795 1.415 . S
C798 H788 0.930 . S
C798 C796 1.419 . S
C798 C799 1.362 . S
C799 H789 0.930 . S
C799 C792 1.409 . S
C799 C798 1.362 . S
H800 C806 0.930 . S
H801 C809 0.931 1_565 S
H802 C810 0.930 . S
H803 C811 0.930 . S
H804 C814 0.929 . S
H805 C815 0.930 . S
C806 H800 0.930 . S
C806 C807 1.355 . S
C806 C808 1.415 . S
C807 C806 1.355 . S
C807 C809 1.414 . S
C808 C806 1.415 . S
C808 C813 1.425 1_545 S
C808 C815 1.409 . S
C809 H801 0.931 1_545 S
C809 C807 1.414 . S
C809 C810 1.366 1_545 S
C810 H802 0.930 . S
C810 C809 1.366 1_565 S
C810 C813 1.409 . S
C811 H803 0.930 . S
C811 C812 1.355 . S
C811 C813 1.415 . S
C812 C811 1.355 . S
C812 C814 1.423 1_565 S
C813 C808 1.425 1_565 S
C813 C810 1.409 . S
C813 C811 1.415 . S
C814 H804 0.929 . S
C814 C812 1.423 1_545 S
C814 C815 1.359 . S
C815 H805 0.930 . S
C815 C808 1.409 . S
C815 C814 1.359 . S
H816 C822 0.930 . S
H817 C825 0.930 . S
H818 C826 0.930 . S
H819 C827 0.930 . S
H820 C830 0.930 . S
H821 C831 0.930 . S
C822 H816 0.930 . S
C822 C823 1.355 . S
C822 C824 1.415 . S
C823 C822 1.355 . S
C823 C825 1.419 . S
C824 C822 1.415 . S
C824 C829 1.425 . S
C824 C831 1.409 . S
C825 H817 0.930 . S
C825 C823 1.419 . S
C825 C826 1.362 . S
C826 H818 0.930 . S
C826 C825 1.362 . S
C826 C829 1.409 . S
C827 H819 0.930 . S
C827 C828 1.355 . S
C827 C829 1.415 . S
C828 C827 1.355 . S
C828 C830 1.419 . S
C829 C824 1.425 . S
C829 C826 1.409 . S
C829 C827 1.415 . S
C830 H820 0.930 . S
C830 C828 1.419 . S
C830 C831 1.362 . S
C831 H821 0.930 . S
C831 C824 1.409 . S
C831 C830 1.362 . S
H832 C838 0.930 . S
H833 C841 0.930 . S
H834 C842 0.930 . S
H835 C843 0.930 . S
H836 C846 0.930 . S
H837 C847 0.930 . S
C838 H832 0.930 . S
C838 C839 1.355 . S
C838 C840 1.415 1_545 S
C839 C838 1.355 . S
C839 C841 1.419 . S
C840 C838 1.415 1_565 S
C840 C845 1.425 1_565 S
C840 C847 1.409 . S
C841 H833 0.930 . S
C841 C839 1.419 . S
C841 C842 1.362 . S
C842 H834 0.930 . S
C842 C841 1.362 . S
C842 C845 1.409 . S
C843 H835 0.930 . S
C843 C844 1.355 . S
C843 C845 1.415 1_565 S
C844 C843 1.355 . S
C844 C846 1.419 . S
C845 C840 1.425 1_545 S
C845 C842 1.409 . S
C845 C843 1.415 1_545 S
C846 H836 0.930 . S
C846 C844 1.419 . S
C846 C847 1.362 . S
C847 H837 0.930 . S
C847 C840 1.409 . S
C847 C846 1.362 . S
H848 C854 0.930 . S
H849 C857 0.930 . S
H850 C858 0.930 . S
H851 C859 0.930 . S
H852 C862 0.930 . S
H853 C863 0.930 . S
C854 H848 0.930 . S
C854 C855 1.355 . S
C854 C856 1.415 . S
C855 C854 1.355 . S
C855 C857 1.419 . S
C856 C854 1.415 . S
C856 C861 1.425 . S
C856 C863 1.409 . S
C857 H849 0.930 . S
C857 C855 1.419 . S
C857 C858 1.362 . S
C858 H850 0.930 . S
C858 C857 1.362 . S
C858 C861 1.409 . S
C859 H851 0.930 . S
C859 C860 1.355 . S
C859 C861 1.415 . S
C860 C859 1.355 . S
C860 C862 1.419 . S
C861 C856 1.425 . S
C861 C858 1.409 . S
C861 C859 1.415 . S
C862 H852 0.930 . S
C862 C860 1.419 . S
C862 C863 1.362 . S
C863 H853 0.930 . S
C863 C856 1.409 . S
C863 C862 1.362 . S
H864 C870 0.930 . S
H865 C873 0.930 1_554 S
H866 C874 0.930 . S
H867 C875 0.930 . S
H868 C878 0.930 . S
H869 C879 0.930 . S
C870 H864 0.930 . S
C870 C871 1.355 . S
C870 C872 1.415 . S
C871 C870 1.355 . S
C871 C873 1.419 1_565 S
C872 C870 1.415 . S
C872 C877 1.425 1_565 S
C872 C879 1.409 . S
C873 H865 0.930 1_556 S
C873 C871 1.419 1_545 S
C873 C874 1.362 . S
C874 H866 0.930 . S
C874 C873 1.362 . S
C874 C877 1.409 . S
C875 H867 0.930 . S
C875 C876 1.355 . S
C875 C877 1.415 . S
C876 C875 1.355 . S
C876 C878 1.419 1_545 S
C877 C872 1.425 1_545 S
C877 C874 1.409 . S
C877 C875 1.415 . S
C878 H868 0.930 . S
C878 C876 1.419 1_565 S
C878 C879 1.362 . S
C879 H869 0.930 . S
C879 C872 1.409 . S
C879 C878 1.362 . S
H880 C886 0.930 . S
H881 C889 0.930 . S
H882 C890 0.930 . S
H883 C891 0.930 . S
H884 C894 0.930 . S
H885 C895 0.930 . S
C886 H880 0.930 . S
C886 C887 1.355 . S
C886 C888 1.415 . S
C887 C886 1.355 . S
C887 C889 1.419 . S
C888 C886 1.415 . S
C888 C893 1.425 . S
C888 C895 1.409 . S
C889 H881 0.930 . S
C889 C887 1.419 . S
C889 C890 1.362 . S
C890 H882 0.930 . S
C890 C889 1.362 . S
C890 C893 1.409 . S
C891 H883 0.930 . S
C891 C892 1.355 . S
C891 C893 1.415 . S
C892 C891 1.355 . S
C892 C894 1.419 . S
C893 C888 1.425 . S
C893 C890 1.409 . S
C893 C891 1.415 . S
C894 H884 0.930 . S
C894 C892 1.419 . S
C894 C895 1.362 . S
C895 H885 0.930 . S
C895 C888 1.409 . S
C895 C894 1.362 . S
H896 C902 0.930 . S
H897 C905 0.930 . S
H898 C906 0.930 . S
H899 C907 0.930 . S
H900 C910 0.930 . S
H901 C911 0.930 . S
C902 H896 0.930 . S
C902 C903 1.355 . S
C902 C904 1.415 . S
C903 C902 1.355 . S
C903 C905 1.419 . S
C904 C902 1.415 . S
C904 C909 1.425 . S
C904 C911 1.409 . S
C905 H897 0.930 . S
C905 C903 1.419 . S
C905 C906 1.362 . S
C906 H898 0.930 . S
C906 C905 1.362 . S
C906 C909 1.409 . S
C907 H899 0.930 . S
C907 C908 1.355 . S
C907 C909 1.415 . S
C908 C907 1.355 . S
C908 C910 1.419 . S
C909 C904 1.425 . S
C909 C906 1.409 . S
C909 C907 1.415 . S
C910 H900 0.930 . S
C910 C908 1.419 . S
C910 C911 1.362 . S
C911 H901 0.930 . S
C911 C904 1.409 . S
C911 C910 1.362 . S
H912 C918 0.930 . S
H913 C921 0.930 . S
H914 C922 0.930 . S
H915 C923 0.930 . S
H916 C926 0.930 . S
H917 C927 0.930 . S
C918 H912 0.930 . S
C918 C919 1.355 . S
C918 C920 1.415 . S
C919 C918 1.355 . S
C919 C921 1.419 . S
C920 C918 1.415 . S
C920 C925 1.425 . S
C920 C927 1.409 . S
C921 H913 0.930 . S
C921 C919 1.419 . S
C921 C922 1.362 . S
C922 H914 0.930 . S
C922 C921 1.362 . S
C922 C925 1.409 . S
C923 H915 0.930 . S
C923 C924 1.355 . S
C923 C925 1.415 . S
C924 C923 1.355 . S
C924 C926 1.419 . S
C925 C920 1.425 . S
C925 C922 1.409 . S
C925 C923 1.415 . S
C926 H916 0.930 . S
C926 C924 1.419 . S
C926 C927 1.362 . S
C927 H917 0.930 . S
C927 C920 1.409 . S
C927 C926 1.362 . S
H928 C934 0.930 . S
H929 C937 0.930 . S
H930 C938 0.930 . S
H931 C939 0.930 . S
H932 C942 0.930 . S
H933 C943 0.930 . S
C934 H928 0.930 . S
C934 C935 1.355 . S
C934 C936 1.415 . S
C935 C934 1.355 . S
C935 C937 1.419 . S
C936 C934 1.415 . S
C936 C941 1.425 . S
C936 C943 1.409 . S
C937 H929 0.930 . S
C937 C935 1.419 . S
C937 C938 1.362 . S
C938 H930 0.930 . S
C938 C937 1.362 . S
C938 C941 1.409 . S
C939 H931 0.930 . S
C939 C940 1.355 . S
C939 C941 1.415 . S
C940 C939 1.355 . S
C940 C942 1.419 . S
C941 C936 1.425 . S
C941 C938 1.409 . S
C941 C939 1.415 . S
C942 H932 0.930 . S
C942 C940 1.419 . S
C942 C943 1.362 . S
C943 H933 0.930 . S
C943 C936 1.409 . S
C943 C942 1.362 . S
H944 C950 0.930 . S
H945 C953 0.930 . S
H946 C954 0.930 . S
H947 C955 0.930 . S
H948 C958 0.930 . S
H949 C959 0.930 . S
C950 H944 0.930 . S
C950 C951 1.355 1_554 S
C950 C952 1.415 . S
C951 C950 1.355 1_556 S
C951 C953 1.419 . S
C952 C950 1.415 . S
C952 C957 1.425 . S
C952 C959 1.409 . S
C953 H945 0.930 . S
C953 C951 1.419 . S
C953 C954 1.362 . S
C954 H946 0.930 . S
C954 C953 1.362 . S
C954 C957 1.409 1_556 S
C955 H947 0.930 . S
C955 C956 1.355 . S
C955 C957 1.415 . S
C956 C955 1.355 . S
C956 C958 1.419 . S
C957 C952 1.425 . S
C957 C954 1.409 1_554 S
C957 C955 1.415 . S
C958 H948 0.930 . S
C958 C956 1.419 . S
C958 C959 1.362 . S
C959 H949 0.930 . S
C959 C952 1.409 . S
C959 C958 1.362 . S
H960 C966 0.930 . S
H961 C969 0.930 . S
H962 C970 0.930 . S
H963 C971 0.930 . S
H964 C974 0.930 . S
H965 C975 0.930 . S
C966 H960 0.930 . S
C966 C967 1.355 . S
C966 C968 1.415 . S
C967 C966 1.355 . S
C967 C969 1.419 . S
C968 C966 1.415 . S
C968 C973 1.425 . S
C968 C975 1.409 . S
C969 H961 0.930 . S
C969 C967 1.419 . S
C969 C970 1.362 . S
C970 H962 0.930 . S
C970 C969 1.362 . S
C970 C973 1.409 . S
C971 H963 0.930 . S
C971 C972 1.355 . S
C971 C973 1.415 . S
C972 C971 1.355 . S
C972 C974 1.419 . S
C973 C968 1.425 . S
C973 C970 1.409 . S
C973 C971 1.415 . S
C974 H964 0.930 . S
C974 C972 1.419 . S
C974 C975 1.362 . S
C975 H965 0.930 . S
C975 C968 1.409 . S
C975 C974 1.362 . S
H976 C982 0.930 . S
H977 C985 0.930 . S
H978 C986 0.930 . S
H979 C987 0.930 . S
H980 C990 0.930 . S
H981 C991 0.930 . S
C982 H976 0.930 . S
C982 C983 1.355 . S
C982 C984 1.415 . S
C983 C982 1.355 . S
C983 C985 1.419 . S
C984 C982 1.415 . S
C984 C989 1.425 . S
C984 C991 1.409 . S
C985 H977 0.930 . S
C985 C983 1.419 . S
C985 C986 1.362 . S
C986 H978 0.930 . S
C986 C985 1.362 . S
C986 C989 1.409 . S
C987 H979 0.930 . S
C987 C988 1.355 . S
C987 C989 1.415 . S
C988 C987 1.355 . S
C988 C990 1.419 . S
C989 C984 1.425 . S
C989 C986 1.409 . S
C989 C987 1.415 . S
C990 H980 0.930 . S
C990 C988 1.419 . S
C990 C991 1.362 . S
C991 H981 0.930 . S
C991 C984 1.409 . S
C991 C990 1.362 . S
H992 C998 0.930 . S
H993 C1001 0.930 . S
H994 C1002 0.930 1_556 S
H995 C1003 0.930 . S
H996 C1006 0.930 . S
H997 C1007 0.930 . S
C998 H992 0.930 . S
C998 C999 1.355 . S
C998 C1000 1.415 . S
C999 C998 1.355 . S
C999 C1001 1.419 . S
C1000 C998 1.415 . S
C1000 C1005 1.425 . S
C1000 C1007 1.409 . S
C1001 H993 0.930 . S
C1001 C999 1.419 . S
C1001 C1002 1.362 . S
C1002 H994 0.930 1_554 S
C1002 C1001 1.362 . S
C1002 C1005 1.409 . S
C1003 H995 0.930 . S
C1003 C1004 1.355 . S
C1003 C1005 1.415 1_556 S
C1004 C1003 1.355 . S
C1004 C1006 1.419 . S
C1005 C1000 1.425 . S
C1005 C1002 1.409 . S
C1005 C1003 1.415 1_554 S
C1006 H996 0.930 . S
C1006 C1004 1.419 . S
C1006 C1007 1.362 1_556 S
C1007 H997 0.930 . S
C1007 C1000 1.409 . S
C1007 C1006 1.362 1_554 S
H1008 C1014 0.930 . S
H1009 C1017 0.930 . S
H1010 C1018 0.930 . S
H1011 C1019 0.930 . S
H1012 C1022 0.930 . S
H1013 C1023 0.930 . S
C1014 H1008 0.930 . S
C1014 C1015 1.355 . S
C1014 C1016 1.415 . S
C1015 C1014 1.355 . S
C1015 C1017 1.419 . S
C1016 C1014 1.415 . S
C1016 C1021 1.425 . S
C1016 C1023 1.409 . S
C1017 H1009 0.930 . S
C1017 C1015 1.419 . S
C1017 C1018 1.362 . S
C1018 H1010 0.930 . S
C1018 C1017 1.362 . S
C1018 C1021 1.409 . S
C1019 H1011 0.930 . S
C1019 C1020 1.355 . S
C1019 C1021 1.415 . S
C1020 C1019 1.355 . S
C1020 C1022 1.419 . S
C1021 C1016 1.425 . S
C1021 C1018 1.409 . S
C1021 C1019 1.415 . S
C1022 H1012 0.930 . S
C1022 C1020 1.419 . S
C1022 C1023 1.362 . S
C1023 H1013 0.930 . S
C1023 C1016 1.409 . S
C1023 C1022 1.362 . S
H1024 C1030 0.930 . S
H1025 C1033 0.930 . S
H1026 C1034 0.930 . S
H1027 C1035 0.930 . S
H1028 C1038 0.930 . S
H1029 C1039 0.930 . S
C1030 H1024 0.930 . S
C1030 C1031 1.355 . S
C1030 C1032 1.415 . S
C1031 C1030 1.355 . S
C1031 C1033 1.419 . S
C1032 C1030 1.415 . S
C1032 C1037 1.425 . S
C1032 C1039 1.409 . S
C1033 H1025 0.930 . S
C1033 C1031 1.419 . S
C1033 C1034 1.362 . S
C1034 H1026 0.930 . S
C1034 C1033 1.362 . S
C1034 C1037 1.409 . S
C1035 H1027 0.930 . S
C1035 C1036 1.355 1_554 S
C1035 C1037 1.415 . S
C1036 C1035 1.355 1_556 S
C1036 C1038 1.419 . S
C1037 C1032 1.425 . S
C1037 C1034 1.409 . S
C1037 C1035 1.415 . S
C1038 H1028 0.930 . S
C1038 C1036 1.419 . S
C1038 C1039 1.362 1_556 S
C1039 H1029 0.930 . S
C1039 C1032 1.409 . S
C1039 C1038 1.362 1_554 S
H1040 C1046 0.930 . S
H1041 C1049 0.930 . S
H1042 C1050 0.930 . S
H1043 C1051 0.930 . S
H1044 C1054 0.930 . S
H1045 C1055 0.930 . S
C1046 H1040 0.930 . S
C1046 C1047 1.355 . S
C1046 C1048 1.415 . S
C1047 C1046 1.355 . S
C1047 C1049 1.419 . S
C1048 C1046 1.415 . S
C1048 C1053 1.425 . S
C1048 C1055 1.409 . S
C1049 H1041 0.930 . S
C1049 C1047 1.419 . S
C1049 C1050 1.362 . S
C1050 H1042 0.930 . S
C1050 C1049 1.362 . S
C1050 C1053 1.409 . S
C1051 H1043 0.930 . S
C1051 C1052 1.355 . S
C1051 C1053 1.415 . S
C1052 C1051 1.355 . S
C1052 C1054 1.419 . S
C1053 C1048 1.425 . S
C1053 C1050 1.409 . S
C1053 C1051 1.415 . S
C1054 H1044 0.930 . S
C1054 C1052 1.419 . S
C1054 C1055 1.362 . S
C1055 H1045 0.930 . S
C1055 C1048 1.409 . S
C1055 C1054 1.362 . S
H1056 C1062 0.930 . S
H1057 C1065 0.930 . S
H1058 C1066 0.930 . S
H1059 C1067 0.930 . S
H1060 C1070 0.930 . S
H1061 C1071 0.930 . S
C1062 H1056 0.930 . S
C1062 C1063 1.355 . S
C1062 C1064 1.415 . S
C1063 C1062 1.355 . S
C1063 C1065 1.419 . S
C1064 C1062 1.415 . S
C1064 C1069 1.425 . S
C1064 C1071 1.409 . S
C1065 H1057 0.930 . S
C1065 C1063 1.419 . S
C1065 C1066 1.362 . S
C1066 H1058 0.930 . S
C1066 C1065 1.362 . S
C1066 C1069 1.409 . S
C1067 H1059 0.930 . S
C1067 C1068 1.355 . S
C1067 C1069 1.415 . S
C1068 C1067 1.355 . S
C1068 C1070 1.419 . S
C1069 C1064 1.425 . S
C1069 C1066 1.409 . S
C1069 C1067 1.415 . S
C1070 H1060 0.930 . S
C1070 C1068 1.419 . S
C1070 C1071 1.362 . S
C1071 H1061 0.930 . S
C1071 C1064 1.409 . S
C1071 C1070 1.362 . S
H1072 C1078 0.930 . S
H1073 C1081 0.930 . S
H1074 C1082 0.930 . S
H1075 C1083 0.930 . S
H1076 C1086 0.930 . S
H1077 C1087 0.930 . S
C1078 H1072 0.930 . S
C1078 C1079 1.355 . S
C1078 C1080 1.415 . S
C1079 C1078 1.355 . S
C1079 C1081 1.419 . S
C1080 C1078 1.415 . S
C1080 C1085 1.425 . S
C1080 C1087 1.409 . S
C1081 H1073 0.930 . S
C1081 C1079 1.419 . S
C1081 C1082 1.362 . S
C1082 H1074 0.930 . S
C1082 C1081 1.362 . S
C1082 C1085 1.409 . S
C1083 H1075 0.930 . S
C1083 C1084 1.355 . S
C1083 C1085 1.415 . S
C1084 C1083 1.355 . S
C1084 C1086 1.419 . S
C1085 C1080 1.425 . S
C1085 C1082 1.409 . S
C1085 C1083 1.415 . S
C1086 H1076 0.930 . S
C1086 C1084 1.419 . S
C1086 C1087 1.362 . S
C1087 H1077 0.930 . S
C1087 C1080 1.409 . S
C1087 C1086 1.362 . S
H1088 C1094 0.930 . S
H1089 C1097 0.930 . S
H1090 C1098 0.930 . S
H1091 C1099 0.930 . S
H1092 C1102 0.930 . S
H1093 C1103 0.930 . S
C1094 H1088 0.930 . S
C1094 C1095 1.355 . S
C1094 C1096 1.415 . S
C1095 C1094 1.355 . S
C1095 C1097 1.419 . S
C1096 C1094 1.415 . S
C1096 C1101 1.425 . S
C1096 C1103 1.409 . S
C1097 H1089 0.930 . S
C1097 C1095 1.419 . S
C1097 C1098 1.362 . S
C1098 H1090 0.930 . S
C1098 C1097 1.362 . S
C1098 C1101 1.409 . S
C1099 H1091 0.930 . S
C1099 C1100 1.355 . S
C1099 C1101 1.415 . S
C1100 C1099 1.355 . S
C1100 C1102 1.419 . S
C1101 C1096 1.425 . S
C1101 C1098 1.409 . S
C1101 C1099 1.415 . S
C1102 H1092 0.930 . S
C1102 C1100 1.419 . S
C1102 C1103 1.362 . S
C1103 H1093 0.930 . S
C1103 C1096 1.409 . S
C1103 C1102 1.362 . S
H1104 C1110 0.930 . S
H1105 C1113 0.930 . S
H1106 C1114 0.930 . S
H1107 C1115 0.930 . S
H1108 C1118 0.930 . S
H1109 C1119 0.930 . S
C1110 H1104 0.930 . S
C1110 C1111 1.355 . S
C1110 C1112 1.415 . S
C1111 C1110 1.355 . S
C1111 C1113 1.419 . S
C1112 C1110 1.415 . S
C1112 C1117 1.425 . S
C1112 C1119 1.409 . S
C1113 H1105 0.930 . S
C1113 C1111 1.419 . S
C1113 C1114 1.362 . S
C1114 H1106 0.930 . S
C1114 C1113 1.362 . S
C1114 C1117 1.409 . S
C1115 H1107 0.930 . S
C1115 C1116 1.355 . S
C1115 C1117 1.415 . S
C1116 C1115 1.355 . S
C1116 C1118 1.419 . S
C1117 C1112 1.425 . S
C1117 C1114 1.409 . S
C1117 C1115 1.415 . S
C1118 H1108 0.930 . S
C1118 C1116 1.419 . S
C1118 C1119 1.362 . S
C1119 H1109 0.930 . S
C1119 C1112 1.409 . S
C1119 C1118 1.362 . S
H1120 C1126 0.930 . S
H1121 C1129 0.930 . S
H1122 C1130 0.930 . S
H1123 C1131 0.930 . S
H1124 C1134 0.930 . S
H1125 C1135 0.930 . S
C1126 H1120 0.930 . S
C1126 C1127 1.355 . S
C1126 C1128 1.415 . S
C1127 C1126 1.355 . S
C1127 C1129 1.419 . S
C1128 C1126 1.415 . S
C1128 C1133 1.425 . S
C1128 C1135 1.409 . S
C1129 H1121 0.930 . S
C1129 C1127 1.419 . S
C1129 C1130 1.362 . S
C1130 H1122 0.930 . S
C1130 C1129 1.362 . S
C1130 C1133 1.409 . S
C1131 H1123 0.930 . S
C1131 C1132 1.355 . S
C1131 C1133 1.415 . S
C1132 C1131 1.355 . S
C1132 C1134 1.419 . S
C1133 C1128 1.425 . S
C1133 C1130 1.409 . S
C1133 C1131 1.415 . S
C1134 H1124 0.930 . S
C1134 C1132 1.419 . S
C1134 C1135 1.362 . S
C1135 H1125 0.930 . S
C1135 C1128 1.409 . S
C1135 C1134 1.362 . S
H1136 C1142 0.930 . S
H1137 C1145 0.930 . S
H1138 C1146 0.930 . S
H1139 C1147 0.930 1_556 S
H1140 C1150 0.930 . S
H1141 C1151 0.930 . S
C1142 H1136 0.930 . S
C1142 C1143 1.355 1_554 S
C1142 C1144 1.415 . S
C1143 C1142 1.355 1_556 S
C1143 C1145 1.419 . S
C1144 C1142 1.415 . S
C1144 C1149 1.425 1_554 S
C1144 C1151 1.409 . S
C1145 H1137 0.930 . S
C1145 C1143 1.419 . S
C1145 C1146 1.362 . S
C1146 H1138 0.930 . S
C1146 C1145 1.362 . S
C1146 C1149 1.409 . S
C1147 H1139 0.930 1_554 S
C1147 C1148 1.355 . S
C1147 C1149 1.415 1_554 S
C1148 C1147 1.355 . S
C1148 C1150 1.419 . S
C1149 C1144 1.425 1_556 S
C1149 C1146 1.409 . S
C1149 C1147 1.415 1_556 S
C1150 H1140 0.930 . S
C1150 C1148 1.419 . S
C1150 C1151 1.362 . S
C1151 H1141 0.930 . S
C1151 C1144 1.409 . S
C1151 C1150 1.362 . S
H1152 C1158 0.930 . S
H1153 C1161 0.930 . S
H1154 C1162 0.930 . S
H1155 C1163 0.930 . S
H1156 C1166 0.930 . S
H1157 C1167 0.930 . S
C1158 H1152 0.930 . S
C1158 C1159 1.355 . S
C1158 C1160 1.415 1_655 S
C1159 C1158 1.355 . S
C1159 C1161 1.419 . S
C1160 C1158 1.415 1_455 S
C1160 C1165 1.425 1_455 S
C1160 C1167 1.409 . S
C1161 H1153 0.930 . S
C1161 C1159 1.419 . S
C1161 C1162 1.362 . S
C1162 H1154 0.930 . S
C1162 C1161 1.362 . S
C1162 C1165 1.409 . S
C1163 H1155 0.930 . S
C1163 C1164 1.355 . S
C1163 C1165 1.415 1_455 S
C1164 C1163 1.355 . S
C1164 C1166 1.419 . S
C1165 C1160 1.425 1_655 S
C1165 C1162 1.409 . S
C1165 C1163 1.415 1_655 S
C1166 H1156 0.930 . S
C1166 C1164 1.419 . S
C1166 C1167 1.362 . S
C1167 H1157 0.930 . S
C1167 C1160 1.409 . S
C1167 C1166 1.362 . S
H1168 C1174 0.930 . S
H1169 C1177 0.930 . S
H1170 C1178 0.930 . S
H1171 C1179 0.930 . S
H1172 C1182 0.930 . S
H1173 C1183 0.930 . S
C1174 H1168 0.930 . S
C1174 C1175 1.355 . S
C1174 C1176 1.415 . S
C1175 C1174 1.355 . S
C1175 C1177 1.419 . S
C1176 C1174 1.415 . S
C1176 C1181 1.425 . S
C1176 C1183 1.409 . S
C1177 H1169 0.930 . S
C1177 C1175 1.419 . S
C1177 C1178 1.362 . S
C1178 H1170 0.930 . S
C1178 C1177 1.362 . S
C1178 C1181 1.409 . S
C1179 H1171 0.930 . S
C1179 C1180 1.355 . S
C1179 C1181 1.415 . S
C1180 C1179 1.355 . S
C1180 C1182 1.419 . S
C1181 C1176 1.425 . S
C1181 C1178 1.409 . S
C1181 C1179 1.415 . S
C1182 H1172 0.930 . S
C1182 C1180 1.419 . S
C1182 C1183 1.362 . S
C1183 H1173 0.930 . S
C1183 C1176 1.409 . S
C1183 C1182 1.362 . S
H1184 C1190 0.930 . S
H1185 C1193 0.930 . S
H1186 C1194 0.930 . S
H1187 C1195 0.930 . S
H1188 C1198 0.930 . S
H1189 C1199 0.930 . S
C1190 H1184 0.930 . S
C1190 C1191 1.355 . S
C1190 C1192 1.415 . S
C1191 C1190 1.355 . S
C1191 C1193 1.419 . S
C1192 C1190 1.415 . S
C1192 C1197 1.425 . S
C1192 C1199 1.409 . S
C1193 H1185 0.930 . S
C1193 C1191 1.419 . S
C1193 C1194 1.362 . S
C1194 H1186 0.930 . S
C1194 C1193 1.362 . S
C1194 C1197 1.409 . S
C1195 H1187 0.930 . S
C1195 C1196 1.355 . S
C1195 C1197 1.415 . S
C1196 C1195 1.355 . S
C1196 C1198 1.419 . S
C1197 C1192 1.425 . S
C1197 C1194 1.409 . S
C1197 C1195 1.415 . S
C1198 H1188 0.930 . S
C1198 C1196 1.419 . S
C1198 C1199 1.362 . S
C1199 H1189 0.930 . S
C1199 C1192 1.409 . S
C1199 C1198 1.362 . S
H1200 C1206 0.930 . S
H1201 C1209 0.930 . S
H1202 C1210 0.930 . S
H1203 C1211 0.930 . S
H1204 C1214 0.930 . S
H1205 C1215 0.930 . S
C1206 H1200 0.930 . S
C1206 C1207 1.355 . S
C1206 C1208 1.415 . S
C1207 C1206 1.355 . S
C1207 C1209 1.419 . S
C1208 C1206 1.415 . S
C1208 C1213 1.425 . S
C1208 C1215 1.409 . S
C1209 H1201 0.930 . S
C1209 C1207 1.419 . S
C1209 C1210 1.362 . S
C1210 H1202 0.930 . S
C1210 C1209 1.362 . S
C1210 C1213 1.409 . S
C1211 H1203 0.930 . S
C1211 C1212 1.355 . S
C1211 C1213 1.415 . S
C1212 C1211 1.355 . S
C1212 C1214 1.419 . S
C1213 C1208 1.425 . S
C1213 C1210 1.409 . S
C1213 C1211 1.415 . S
C1214 H1204 0.930 . S
C1214 C1212 1.419 . S
C1214 C1215 1.362 . S
C1215 H1205 0.930 . S
C1215 C1208 1.409 . S
C1215 C1214 1.362 . S
H1216 C1222 0.933 . S
H1217 C1225 0.930 . S
H1218 C1226 0.930 . S
H1219 C1227 0.933 . S
H1220 C1230 0.930 . S
H1221 C1231 0.930 . S
C1222 H1216 0.933 . S
C1222 C1223 1.355 . S
C1222 C1224 1.415 1_655 S
C1223 C1222 1.355 . S
C1223 C1225 1.419 . S
C1224 C1222 1.415 1_455 S
C1224 C1229 1.425 1_455 S
C1224 C1231 1.409 . S
C1225 H1217 0.930 . S
C1225 C1223 1.419 . S
C1225 C1226 1.362 . S
C1226 H1218 0.930 . S
C1226 C1225 1.362 . S
C1226 C1229 1.409 . S
C1227 H1219 0.933 . S
C1227 C1228 1.355 . S
C1227 C1229 1.415 1_455 S
C1228 C1227 1.355 . S
C1228 C1230 1.419 . S
C1229 C1224 1.425 1_655 S
C1229 C1226 1.409 . S
C1229 C1227 1.415 1_655 S
C1230 H1220 0.930 . S
C1230 C1228 1.419 . S
C1230 C1231 1.362 . S
C1231 H1221 0.930 . S
C1231 C1224 1.409 . S
C1231 C1230 1.362 . S
H1232 C1238 0.930 . S
H1233 C1241 0.930 . S
H1234 C1242 0.930 . S
H1235 C1243 0.930 . S
H1236 C1246 0.930 . S
H1237 C1247 0.930 . S
C1238 H1232 0.930 . S
C1238 C1239 1.355 . S
C1238 C1240 1.415 . S
C1239 C1238 1.355 . S
C1239 C1241 1.419 . S
C1240 C1238 1.415 . S
C1240 C1245 1.425 . S
C1240 C1247 1.409 . S
C1241 H1233 0.930 . S
C1241 C1239 1.419 . S
C1241 C1242 1.362 . S
C1242 H1234 0.930 . S
C1242 C1241 1.362 . S
C1242 C1245 1.409 . S
C1243 H1235 0.930 . S
C1243 C1244 1.355 . S
C1243 C1245 1.415 . S
C1244 C1243 1.355 . S
C1244 C1246 1.419 . S
C1245 C1240 1.425 . S
C1245 C1242 1.409 . S
C1245 C1243 1.415 . S
C1246 H1236 0.930 . S
C1246 C1244 1.419 . S
C1246 C1247 1.362 . S
C1247 H1237 0.930 . S
C1247 C1240 1.409 . S
C1247 C1246 1.362 . S
H1248 C1254 0.930 . S
H1249 C1257 0.930 . S
H1250 C1258 0.930 . S
H1251 C1259 0.930 . S
H1252 C1262 0.930 . S
H1253 C1263 0.930 . S
C1254 H1248 0.930 . S
C1254 C1255 1.355 . S
C1254 C1256 1.415 . S
C1255 C1254 1.355 . S
C1255 C1257 1.419 . S
C1256 C1254 1.415 . S
C1256 C1261 1.425 . S
C1256 C1263 1.409 . S
C1257 H1249 0.930 . S
C1257 C1255 1.419 . S
C1257 C1258 1.362 . S
C1258 H1250 0.930 . S
C1258 C1257 1.362 . S
C1258 C1261 1.409 . S
C1259 H1251 0.930 . S
C1259 C1260 1.355 . S
C1259 C1261 1.415 . S
C1260 C1259 1.355 . S
C1260 C1262 1.419 . S
C1261 C1256 1.425 . S
C1261 C1258 1.409 . S
C1261 C1259 1.415 . S
C1262 H1252 0.930 . S
C1262 C1260 1.419 . S
C1262 C1263 1.362 . S
C1263 H1253 0.930 . S
C1263 C1256 1.409 . S
C1263 C1262 1.362 . S
H1264 C1270 0.930 . S
H1265 C1273 0.930 . S
H1266 C1274 0.930 . S
H1267 C1275 0.930 . S
H1268 C1278 0.930 . S
H1269 C1279 0.930 . S
C1270 H1264 0.930 . S
C1270 C1271 1.355 . S
C1270 C1272 1.415 . S
C1271 C1270 1.355 . S
C1271 C1273 1.419 . S
C1272 C1270 1.415 . S
C1272 C1277 1.425 . S
C1272 C1279 1.409 . S
C1273 H1265 0.930 . S
C1273 C1271 1.419 . S
C1273 C1274 1.362 . S
C1274 H1266 0.930 . S
C1274 C1273 1.362 . S
C1274 C1277 1.409 . S
C1275 H1267 0.930 . S
C1275 C1276 1.355 . S
C1275 C1277 1.415 . S
C1276 C1275 1.355 . S
C1276 C1278 1.419 . S
C1277 C1272 1.425 . S
C1277 C1274 1.409 . S
C1277 C1275 1.415 . S
C1278 H1268 0.930 . S
C1278 C1276 1.419 . S
C1278 C1279 1.362 . S
C1279 H1269 0.930 . S
C1279 C1272 1.409 . S
C1279 C1278 1.362 . S
H1280 C1286 0.930 . S
H1281 C1289 0.930 . S
H1282 C1290 0.930 . S
H1283 C1291 0.930 . S
H1284 C1294 0.930 . S
H1285 C1295 0.930 . S
C1286 H1280 0.930 . S
C1286 C1287 1.355 . S
C1286 C1288 1.415 . S
C1287 C1286 1.355 . S
C1287 C1289 1.419 . S
C1288 C1286 1.415 . S
C1288 C1293 1.425 . S
C1288 C1295 1.409 . S
C1289 H1281 0.930 . S
C1289 C1287 1.419 . S
C1289 C1290 1.362 . S
C1290 H1282 0.930 . S
C1290 C1289 1.362 . S
C1290 C1293 1.409 . S
C1291 H1283 0.930 . S
C1291 C1292 1.355 . S
C1291 C1293 1.415 . S
C1292 C1291 1.355 . S
C1292 C1294 1.419 . S
C1293 C1288 1.425 . S
C1293 C1290 1.409 . S
C1293 C1291 1.415 . S
C1294 H1284 0.930 . S
C1294 C1292 1.419 . S
C1294 C1295 1.362 . S
C1295 H1285 0.930 . S
C1295 C1288 1.409 . S
C1295 C1294 1.362 . S
H1296 C1302 0.930 . S
H1297 C1305 0.930 . S
H1298 C1306 0.930 . S
H1299 C1307 0.930 . S
H1300 C1310 0.930 . S
H1301 C1311 0.930 . S
C1302 H1296 0.930 . S
C1302 C1303 1.355 . S
C1302 C1304 1.415 . S
C1303 C1302 1.355 . S
C1303 C1305 1.419 . S
C1304 C1302 1.415 . S
C1304 C1309 1.425 . S
C1304 C1311 1.409 . S
C1305 H1297 0.930 . S
C1305 C1303 1.419 . S
C1305 C1306 1.362 . S
C1306 H1298 0.930 . S
C1306 C1305 1.362 . S
C1306 C1309 1.409 . S
C1307 H1299 0.930 . S
C1307 C1308 1.355 . S
C1307 C1309 1.415 . S
C1308 C1307 1.355 . S
C1308 C1310 1.419 . S
C1309 C1304 1.425 . S
C1309 C1306 1.409 . S
C1309 C1307 1.415 . S
C1310 H1300 0.930 . S
C1310 C1308 1.419 . S
C1310 C1311 1.362 . S
C1311 H1301 0.930 . S
C1311 C1304 1.409 . S
C1311 C1310 1.362 . S
H1312 C1318 0.930 . S
H1313 C1321 0.930 . S
H1314 C1322 0.930 . S
H1315 C1323 0.930 . S
H1316 C1326 0.930 . S
H1317 C1327 0.930 . S
C1318 H1312 0.930 . S
C1318 C1319 1.355 . S
C1318 C1320 1.415 . S
C1319 C1318 1.355 . S
C1319 C1321 1.419 . S
C1320 C1318 1.415 . S
C1320 C1325 1.425 . S
C1320 C1327 1.409 . S
C1321 H1313 0.930 . S
C1321 C1319 1.419 . S
C1321 C1322 1.362 . S
C1322 H1314 0.930 . S
C1322 C1321 1.362 . S
C1322 C1325 1.409 . S
C1323 H1315 0.930 . S
C1323 C1324 1.355 . S
C1323 C1325 1.415 . S
C1324 C1323 1.355 . S
C1324 C1326 1.419 . S
C1325 C1320 1.425 . S
C1325 C1322 1.409 . S
C1325 C1323 1.415 . S
C1326 H1316 0.930 . S
C1326 C1324 1.419 . S
C1326 C1327 1.362 . S
C1327 H1317 0.930 . S
C1327 C1320 1.409 . S
C1327 C1326 1.362 . S
H1328 C1334 0.930 . S
H1329 C1337 0.930 . S
H1330 C1338 0.930 . S
H1331 C1339 0.930 . S
H1332 C1342 0.930 . S
H1333 C1343 0.930 . S
C1334 H1328 0.930 . S
C1334 C1335 1.355 . S
C1334 C1336 1.415 . S
C1335 C1334 1.355 . S
C1335 C1337 1.419 . S
C1336 C1334 1.415 . S
C1336 C1341 1.425 . S
C1336 C1343 1.409 . S
C1337 H1329 0.930 . S
C1337 C1335 1.419 . S
C1337 C1338 1.362 . S
C1338 H1330 0.930 . S
C1338 C1337 1.362 . S
C1338 C1341 1.409 . S
C1339 H1331 0.930 . S
C1339 C1340 1.355 . S
C1339 C1341 1.415 . S
C1340 C1339 1.355 . S
C1340 C1342 1.419 . S
C1341 C1336 1.425 . S
C1341 C1338 1.409 . S
C1341 C1339 1.415 . S
C1342 H1332 0.930 . S
C1342 C1340 1.419 . S
C1342 C1343 1.362 . S
C1343 H1333 0.930 . S
C1343 C1336 1.409 . S
C1343 C1342 1.362 . S
H1344 C1350 0.903 1_565 S
H1345 C1353 0.930 . S
H1346 C1354 0.930 . S
H1347 C1355 0.901 1_545 S
H1348 C1358 0.930 . S
H1349 C1359 0.930 . S
C1350 H1344 0.903 1_545 S
C1350 C1351 1.400 . S
C1350 C1352 1.398 1_545 S
C1351 C1350 1.400 . S
C1351 C1353 1.419 . S
C1352 C1350 1.398 1_565 S
C1352 C1357 1.425 1_565 S
C1352 C1359 1.409 . S
C1353 H1345 0.930 . S
C1353 C1351 1.419 . S
C1353 C1354 1.362 . S
C1354 H1346 0.930 . S
C1354 C1353 1.362 . S
C1354 C1357 1.409 . S
C1355 H1347 0.901 1_565 S
C1355 C1356 1.402 . S
C1355 C1357 1.397 1_565 S
C1356 C1355 1.402 . S
C1356 C1358 1.419 . S
C1357 C1352 1.425 1_545 S
C1357 C1354 1.409 . S
C1357 C1355 1.397 1_545 S
C1358 H1348 0.930 . S
C1358 C1356 1.419 . S
C1358 C1359 1.362 . S
C1359 H1349 0.930 . S
C1359 C1352 1.409 . S
C1359 C1358 1.362 . S
H1360 C1366 0.930 . S
H1361 C1369 0.930 . S
H1362 C1370 0.930 . S
H1363 C1371 0.930 . S
H1364 C1374 0.930 . S
H1365 C1375 0.930 . S
C1366 H1360 0.930 . S
C1366 C1367 1.355 1_545 S
C1366 C1368 1.415 . S
C1367 C1366 1.355 1_565 S
C1367 C1369 1.419 . S
C1368 C1366 1.415 . S
C1368 C1373 1.425 1_445 S
C1368 C1375 1.409 1_455 S
C1369 H1361 0.930 . S
C1369 C1367 1.419 . S
C1369 C1370 1.362 . S
C1370 H1362 0.930 . S
C1370 C1369 1.362 . S
C1370 C1373 1.409 1_455 S
C1371 H1363 0.930 . S
C1371 C1372 1.355 1_565 S
C1371 C1373 1.415 . S
C1372 C1371 1.355 1_545 S
C1372 C1374 1.419 . S
C1373 C1368 1.425 1_665 S
C1373 C1370 1.409 1_655 S
C1373 C1371 1.415 . S
C1374 H1364 0.930 . S
C1374 C1372 1.419 . S
C1374 C1375 1.362 . S
C1375 H1365 0.930 . S
C1375 C1368 1.409 1_655 S
C1375 C1374 1.362 . S
H1376 C1382 0.930 . S
H1377 C1385 0.930 . S
H1378 C1386 0.930 . S
H1379 C1387 0.930 . S
H1380 C1390 0.930 . S
H1381 C1391 0.930 . S
C1382 H1376 0.930 . S
C1382 C1383 1.355 . S
C1382 C1384 1.415 . S
C1383 C1382 1.355 . S
C1383 C1385 1.419 . S
C1384 C1382 1.415 . S
C1384 C1389 1.425 1_565 S
C1384 C1391 1.409 1_565 S
C1385 H1377 0.930 . S
C1385 C1383 1.419 . S
C1385 C1386 1.362 . S
C1386 H1378 0.930 . S
C1386 C1385 1.362 . S
C1386 C1389 1.409 1_565 S
C1387 H1379 0.930 . S
C1387 C1388 1.355 . S
C1387 C1389 1.415 . S
C1388 C1387 1.355 . S
C1388 C1390 1.419 . S
C1389 C1384 1.425 1_545 S
C1389 C1386 1.409 1_545 S
C1389 C1387 1.415 . S
C1390 H1380 0.930 . S
C1390 C1388 1.419 . S
C1390 C1391 1.362 . S
C1391 H1381 0.930 . S
C1391 C1384 1.409 1_545 S
C1391 C1390 1.362 . S
H1392 C1398 0.930 . S
H1393 C1401 0.930 . S
H1394 C1402 0.930 1_455 S
H1395 C1403 0.930 . S
H1396 C1406 0.930 . S
H1397 C1407 0.930 1_655 S
C1398 H1392 0.930 . S
C1398 C1399 1.355 1_545 S
C1398 C1400 1.415 . S
C1399 C1398 1.355 1_565 S
C1399 C1401 1.419 . S
C1400 C1398 1.415 . S
C1400 C1405 1.425 1_645 S
C1400 C1407 1.409 1_655 S
C1401 H1393 0.930 . S
C1401 C1399 1.419 . S
C1401 C1402 1.362 . S
C1402 H1394 0.930 1_655 S
C1402 C1401 1.362 . S
C1402 C1405 1.409 1_655 S
C1403 H1395 0.930 . S
C1403 C1404 1.355 1_565 S
C1403 C1405 1.415 . S
C1404 C1403 1.355 1_545 S
C1404 C1406 1.419 . S
C1405 C1400 1.425 1_465 S
C1405 C1402 1.409 1_455 S
C1405 C1403 1.415 . S
C1406 H1396 0.930 . S
C1406 C1404 1.419 . S
C1406 C1407 1.362 . S
C1407 H1397 0.930 1_455 S
C1407 C1400 1.409 1_455 S
C1407 C1406 1.362 . S
H1408 C1414 0.930 . S
H1409 C1417 0.930 . S
H1410 C1418 0.930 . S
H1411 C1419 0.930 . S
H1412 C1422 0.930 . S
H1413 C1423 0.930 . S
C1414 H1408 0.930 . S
C1414 C1415 1.355 . S
C1414 C1416 1.415 . S
C1415 C1414 1.355 . S
C1415 C1417 1.419 1_455 S
C1416 C1414 1.415 . S
C1416 C1421 1.425 1_455 S
C1416 C1423 1.409 . S
C1417 H1409 0.930 . S
C1417 C1415 1.419 1_655 S
C1417 C1418 1.362 . S
C1418 H1410 0.930 . S
C1418 C1417 1.362 . S
C1418 C1421 1.409 . S
C1419 H1411 0.930 . S
C1419 C1420 1.355 . S
C1419 C1421 1.415 . S
C1420 C1419 1.355 . S
C1420 C1422 1.419 . S
C1421 C1416 1.425 1_655 S
C1421 C1418 1.409 . S
C1421 C1419 1.415 . S
C1422 H1412 0.930 . S
C1422 C1420 1.419 . S
C1422 C1423 1.362 1_655 S
C1423 H1413 0.930 . S
C1423 C1416 1.409 . S
C1423 C1422 1.362 1_455 S
H1424 C1430 0.930 . S
H1425 C1433 0.930 . S
H1426 C1434 0.930 . S
H1427 C1435 0.930 . S
H1428 C1438 0.930 . S
H1429 C1439 0.930 . S
C1430 H1424 0.930 . S
C1430 C1431 1.355 . S
C1430 C1432 1.415 . S
C1431 C1430 1.355 . S
C1431 C1433 1.419 . S
C1432 C1430 1.415 . S
C1432 C1437 1.425 . S
C1432 C1439 1.409 . S
C1433 H1425 0.930 . S
C1433 C1431 1.419 . S
C1433 C1434 1.362 . S
C1434 H1426 0.930 . S
C1434 C1433 1.362 . S
C1434 C1437 1.409 . S
C1435 H1427 0.930 . S
C1435 C1436 1.355 . S
C1435 C1437 1.415 . S
C1436 C1435 1.355 . S
C1436 C1438 1.419 . S
C1437 C1432 1.425 . S
C1437 C1434 1.409 . S
C1437 C1435 1.415 . S
C1438 H1428 0.930 . S
C1438 C1436 1.419 . S
C1438 C1439 1.362 . S
C1439 H1429 0.930 . S
C1439 C1432 1.409 . S
C1439 C1438 1.362 . S
H1440 C1446 0.930 . S
H1441 C1449 0.930 . S
H1442 C1450 0.930 . S
H1443 C1451 0.930 . S
H1444 C1454 0.930 . S
H1445 C1455 0.930 . S
C1446 H1440 0.930 . S
C1446 C1447 1.355 . S
C1446 C1448 1.415 . S
C1447 C1446 1.355 . S
C1447 C1449 1.419 . S
C1448 C1446 1.415 . S
C1448 C1453 1.425 . S
C1448 C1455 1.409 . S
C1449 H1441 0.930 . S
C1449 C1447 1.419 . S
C1449 C1450 1.362 . S
C1450 H1442 0.930 . S
C1450 C1449 1.362 . S
C1450 C1453 1.409 . S
C1451 H1443 0.930 . S
C1451 C1452 1.355 . S
C1451 C1453 1.415 . S
C1452 C1451 1.355 . S
C1452 C1454 1.419 . S
C1453 C1448 1.425 . S
C1453 C1450 1.409 . S
C1453 C1451 1.415 . S
C1454 H1444 0.930 . S
C1454 C1452 1.419 . S
C1454 C1455 1.362 . S
C1455 H1445 0.930 . S
C1455 C1448 1.409 . S
C1455 C1454 1.362 . S
H1456 C1462 0.930 . S
H1457 C1465 0.930 . S
H1458 C1466 0.930 . S
H1459 C1467 0.930 . S
H1460 C1470 0.930 . S
H1461 C1471 0.930 . S
C1462 H1456 0.930 . S
C1462 C1463 1.355 . S
C1462 C1464 1.415 . S
C1463 C1462 1.355 . S
C1463 C1465 1.419 . S
C1464 C1462 1.415 . S
C1464 C1469 1.425 . S
C1464 C1471 1.409 . S
C1465 H1457 0.930 . S
C1465 C1463 1.419 . S
C1465 C1466 1.362 . S
C1466 H1458 0.930 . S
C1466 C1465 1.362 . S
C1466 C1469 1.409 . S
C1467 H1459 0.930 . S
C1467 C1468 1.355 . S
C1467 C1469 1.415 . S
C1468 C1467 1.355 . S
C1468 C1470 1.419 . S
C1469 C1464 1.425 . S
C1469 C1466 1.409 . S
C1469 C1467 1.415 . S
C1470 H1460 0.930 . S
C1470 C1468 1.419 . S
C1470 C1471 1.362 . S
C1471 H1461 0.930 . S
C1471 C1464 1.409 . S
C1471 C1470 1.362 . S
H1472 C1478 0.930 . S
H1473 C1481 0.930 . S
H1474 C1482 0.930 . S
H1475 C1483 0.930 . S
H1476 C1486 0.930 . S
H1477 C1487 0.930 . S
C1478 H1472 0.930 . S
C1478 C1479 1.355 1_556 S
C1478 C1480 1.415 . S
C1479 C1478 1.355 1_554 S
C1479 C1481 1.419 . S
C1480 C1478 1.415 . S
C1480 C1485 1.425 1_655 S
C1480 C1487 1.409 . S
C1481 H1473 0.930 . S
C1481 C1479 1.419 . S
C1481 C1482 1.362 1_654 S
C1482 H1474 0.930 . S
C1482 C1481 1.362 1_456 S
C1482 C1485 1.409 . S
C1483 H1475 0.930 . S
C1483 C1484 1.355 . S
C1483 C1485 1.415 . S
C1484 C1483 1.355 . S
C1484 C1486 1.419 1_455 S
C1485 C1480 1.425 1_455 S
C1485 C1482 1.409 . S
C1485 C1483 1.415 . S
C1486 H1476 0.930 . S
C1486 C1484 1.419 1_655 S
C1486 C1487 1.362 . S
C1487 H1477 0.930 . S
C1487 C1480 1.409 . S
C1487 C1486 1.362 . S
H1488 C1494 0.930 . S
H1489 C1497 0.930 . S
H1490 C1498 0.930 . S
H1491 C1499 0.930 . S
H1492 C1502 0.930 . S
H1493 C1503 0.930 1_556 S
C1494 H1488 0.930 . S
C1494 C1495 1.355 . S
C1494 C1496 1.415 . S
C1495 C1494 1.355 . S
C1495 C1497 1.419 . S
C1496 C1494 1.415 . S
C1496 C1501 1.425 . S
C1496 C1503 1.409 . S
C1497 H1489 0.930 . S
C1497 C1495 1.419 . S
C1497 C1498 1.362 . S
C1498 H1490 0.930 . S
C1498 C1497 1.362 . S
C1498 C1501 1.409 . S
C1499 H1491 0.930 . S
C1499 C1500 1.355 1_554 S
C1499 C1501 1.415 . S
C1500 C1499 1.355 1_556 S
C1500 C1502 1.419 . S
C1501 C1496 1.425 . S
C1501 C1498 1.409 . S
C1501 C1499 1.415 . S
C1502 H1492 0.930 . S
C1502 C1500 1.419 . S
C1502 C1503 1.362 1_556 S
C1503 H1493 0.930 1_554 S
C1503 C1496 1.409 . S
C1503 C1502 1.362 1_554 S
H1504 C1510 0.930 . S
H1505 C1513 0.930 . S
H1506 C1514 0.930 . S
H1507 C1515 0.930 . S
H1508 C1518 0.930 . S
H1509 C1519 0.930 . S
C1510 H1504 0.930 . S
C1510 C1511 1.355 . S
C1510 C1512 1.415 . S
C1511 C1510 1.355 . S
C1511 C1513 1.419 . S
C1512 C1510 1.415 . S
C1512 C1517 1.425 . S
C1512 C1519 1.409 . S
C1513 H1505 0.930 . S
C1513 C1511 1.419 . S
C1513 C1514 1.362 . S
C1514 H1506 0.930 . S
C1514 C1513 1.362 . S
C1514 C1517 1.409 . S
C1515 H1507 0.930 . S
C1515 C1516 1.355 . S
C1515 C1517 1.415 . S
C1516 C1515 1.355 . S
C1516 C1518 1.419 . S
C1517 C1512 1.425 . S
C1517 C1514 1.409 . S
C1517 C1515 1.415 . S
C1518 H1508 0.930 . S
C1518 C1516 1.419 . S
C1518 C1519 1.362 . S
C1519 H1509 0.930 . S
C1519 C1512 1.409 . S
C1519 C1518 1.362 . S
H1520 C1526 0.930 . S
H1521 C1529 0.930 . S
H1522 C1530 0.930 . S
H1523 C1531 0.930 . S
H1524 C1534 0.930 . S
H1525 C1535 0.930 . S
C1526 H1520 0.930 . S
C1526 C1527 1.355 . S
C1526 C1528 1.415 . S
C1527 C1526 1.355 . S
C1527 C1529 1.419 . S
C1528 C1526 1.415 . S
C1528 C1533 1.425 . S
C1528 C1535 1.409 . S
C1529 H1521 0.930 . S
C1529 C1527 1.419 . S
C1529 C1530 1.362 . S
C1530 H1522 0.930 . S
C1530 C1529 1.362 . S
C1530 C1533 1.409 . S
C1531 H1523 0.930 . S
C1531 C1532 1.355 . S
C1531 C1533 1.415 . S
C1532 C1531 1.355 . S
C1532 C1534 1.419 . S
C1533 C1528 1.425 . S
C1533 C1530 1.409 . S
C1533 C1531 1.415 . S
C1534 H1524 0.930 . S
C1534 C1532 1.419 . S
C1534 C1535 1.362 . S
C1535 H1525 0.930 . S
C1535 C1528 1.409 . S
C1535 C1534 1.362 . S
H1536 C1542 0.930 1_655 S
H1537 C1545 0.930 . S
H1538 C1546 0.930 . S
H1539 C1547 0.930 . S
H1540 C1550 0.930 . S
H1541 C1551 0.930 . S
C1542 H1536 0.930 1_455 S
C1542 C1543 1.355 . S
C1542 C1544 1.415 1_455 S
C1543 C1542 1.355 . S
C1543 C1545 1.419 . S
C1544 C1542 1.415 1_655 S
C1544 C1549 1.425 1_655 S
C1544 C1551 1.409 . S
C1545 H1537 0.930 . S
C1545 C1543 1.419 . S
C1545 C1546 1.362 . S
C1546 H1538 0.930 . S
C1546 C1545 1.362 . S
C1546 C1549 1.409 . S
C1547 H1539 0.930 . S
C1547 C1548 1.355 1_455 S
C1547 C1549 1.415 . S
C1548 C1547 1.355 1_655 S
C1548 C1550 1.419 . S
C1549 C1544 1.425 1_455 S
C1549 C1546 1.409 . S
C1549 C1547 1.415 . S
C1550 H1540 0.930 . S
C1550 C1548 1.419 . S
C1550 C1551 1.362 . S
C1551 H1541 0.930 . S
C1551 C1544 1.409 . S
C1551 C1550 1.362 . S
H1552 C1558 0.930 . S
H1553 C1561 0.930 . S
H1554 C1562 0.930 . S
H1555 C1563 0.930 1_556 S
H1556 C1566 0.930 . S
H1557 C1567 0.930 . S
C1558 H1552 0.930 . S
C1558 C1559 1.355 . S
C1558 C1560 1.415 . S
C1559 C1558 1.355 . S
C1559 C1561 1.419 . S
C1560 C1558 1.415 . S
C1560 C1565 1.425 . S
C1560 C1567 1.409 . S
C1561 H1553 0.930 . S
C1561 C1559 1.419 . S
C1561 C1562 1.362 . S
C1562 H1554 0.930 . S
C1562 C1561 1.362 . S
C1562 C1565 1.409 . S
C1563 H1555 0.930 1_554 S
C1563 C1564 1.355 1_554 S
C1563 C1565 1.415 . S
C1564 C1563 1.355 1_556 S
C1564 C1566 1.419 1_556 S
C1565 C1560 1.425 . S
C1565 C1562 1.409 . S
C1565 C1563 1.415 . S
C1566 H1556 0.930 . S
C1566 C1564 1.419 1_554 S
C1566 C1567 1.362 . S
C1567 H1557 0.930 . S
C1567 C1560 1.409 . S
C1567 C1566 1.362 . S
H1568 C1574 0.930 . S
H1569 C1577 0.930 . S
H1570 C1578 0.930 . S
H1571 C1579 0.930 . S
H1572 C1582 0.930 . S
H1573 C1583 0.930 . S
C1574 H1568 0.930 . S
C1574 C1575 1.355 . S
C1574 C1576 1.415 . S
C1575 C1574 1.355 . S
C1575 C1577 1.419 . S
C1576 C1574 1.415 . S
C1576 C1581 1.425 . S
C1576 C1583 1.409 . S
C1577 H1569 0.930 . S
C1577 C1575 1.419 . S
C1577 C1578 1.362 . S
C1578 H1570 0.930 . S
C1578 C1577 1.362 . S
C1578 C1581 1.409 . S
C1579 H1571 0.930 . S
C1579 C1580 1.355 . S
C1579 C1581 1.415 . S
C1580 C1579 1.355 . S
C1580 C1582 1.419 . S
C1581 C1576 1.425 . S
C1581 C1578 1.409 . S
C1581 C1579 1.415 . S
C1582 H1572 0.930 . S
C1582 C1580 1.419 . S
C1582 C1583 1.362 . S
C1583 H1573 0.930 . S
C1583 C1576 1.409 . S
C1583 C1582 1.362 . S
H1584 C1590 0.930 . S
H1585 C1593 0.930 . S
H1586 C1594 0.930 . S
H1587 C1595 0.930 . S
H1588 C1598 0.930 . S
H1589 C1599 0.930 . S
C1590 H1584 0.930 . S
C1590 C1591 1.355 . S
C1590 C1592 1.415 . S
C1591 C1590 1.355 . S
C1591 C1593 1.419 . S
C1592 C1590 1.415 . S
C1592 C1597 1.425 . S
C1592 C1599 1.409 . S
C1593 H1585 0.930 . S
C1593 C1591 1.419 . S
C1593 C1594 1.362 . S
C1594 H1586 0.930 . S
C1594 C1593 1.362 . S
C1594 C1597 1.409 . S
C1595 H1587 0.930 . S
C1595 C1596 1.355 . S
C1595 C1597 1.415 . S
C1596 C1595 1.355 . S
C1596 C1598 1.419 . S
C1597 C1592 1.425 . S
C1597 C1594 1.409 . S
C1597 C1595 1.415 . S
C1598 H1588 0.930 . S
C1598 C1596 1.419 . S
C1598 C1599 1.362 . S
C1599 H1589 0.930 . S
C1599 C1592 1.409 . S
C1599 C1598 1.362 . S
H1600 C1606 0.930 . S
H1601 C1609 0.930 . S
H1602 C1610 0.930 . S
H1603 C1611 0.930 . S
H1604 C1614 0.930 . S
H1605 C1615 0.930 . S
C1606 H1600 0.930 . S
C1606 C1607 1.355 . S
C1606 C1608 1.415 . S
C1607 C1606 1.355 . S
C1607 C1609 1.419 . S
C1608 C1606 1.415 . S
C1608 C1613 1.425 1_455 S
C1608 C1615 1.409 . S
C1609 H1601 0.930 . S
C1609 C1607 1.419 . S
C1609 C1610 1.362 1_455 S
C1610 H1602 0.930 . S
C1610 C1609 1.362 1_655 S
C1610 C1613 1.409 . S
C1611 H1603 0.930 . S
C1611 C1612 1.355 . S
C1611 C1613 1.415 . S
C1612 C1611 1.355 . S
C1612 C1614 1.419 . S
C1613 C1608 1.425 1_655 S
C1613 C1610 1.409 . S
C1613 C1611 1.415 . S
C1614 H1604 0.930 . S
C1614 C1612 1.419 . S
C1614 C1615 1.362 1_655 S
C1615 H1605 0.930 . S
C1615 C1608 1.409 . S
C1615 C1614 1.362 1_455 S
H1616 C1622 0.930 . S
H1617 C1625 0.930 . S
H1618 C1626 0.930 . S
H1619 C1627 0.930 . S
H1620 C1630 0.930 . S
H1621 C1631 0.930 . S
C1622 H1616 0.930 . S
C1622 C1623 1.355 . S
C1622 C1624 1.415 . S
C1623 C1622 1.355 . S
C1623 C1625 1.419 . S
C1624 C1622 1.415 . S
C1624 C1629 1.425 . S
C1624 C1631 1.409 . S
C1625 H1617 0.930 . S
C1625 C1623 1.419 . S
C1625 C1626 1.362 . S
C1626 H1618 0.930 . S
C1626 C1625 1.362 . S
C1626 C1629 1.409 . S
C1627 H1619 0.930 . S
C1627 C1628 1.355 . S
C1627 C1629 1.415 . S
C1628 C1627 1.355 . S
C1628 C1630 1.419 . S
C1629 C1624 1.425 . S
C1629 C1626 1.409 . S
C1629 C1627 1.415 . S
C1630 H1620 0.930 . S
C1630 C1628 1.419 . S
C1630 C1631 1.362 . S
C1631 H1621 0.930 . S
C1631 C1624 1.409 . S
C1631 C1630 1.362 . S
H1632 C1638 0.930 . S
H1633 C1641 0.930 . S
H1634 C1642 0.930 . S
H1635 C1643 0.930 . S
H1636 C1646 0.930 . S
H1637 C1647 0.930 . S
C1638 H1632 0.930 . S
C1638 C1639 1.355 . S
C1638 C1640 1.415 1_554 S
C1639 C1638 1.355 . S
C1639 C1641 1.419 . S
C1640 C1638 1.415 1_556 S
C1640 C1645 1.425 . S
C1640 C1647 1.409 . S
C1641 H1633 0.930 . S
C1641 C1639 1.419 . S
C1641 C1642 1.362 1_554 S
C1642 H1634 0.930 . S
C1642 C1641 1.362 1_556 S
C1642 C1645 1.409 . S
C1643 H1635 0.930 . S
C1643 C1644 1.355 . S
C1643 C1645 1.415 . S
C1644 C1643 1.355 . S
C1644 C1646 1.419 . S
C1645 C1640 1.425 . S
C1645 C1642 1.409 . S
C1645 C1643 1.415 . S
C1646 H1636 0.930 . S
C1646 C1644 1.419 . S
C1646 C1647 1.362 . S
C1647 H1637 0.930 . S
C1647 C1640 1.409 . S
C1647 C1646 1.362 . S
H1648 C1654 0.930 . S
H1649 C1657 0.930 . S
H1650 C1658 0.930 . S
H1651 C1659 0.930 . S
H1652 C1662 0.930 . S
H1653 C1663 0.930 . S
C1654 H1648 0.930 . S
C1654 C1655 1.355 . S
C1654 C1656 1.415 . S
C1655 C1654 1.355 . S
C1655 C1657 1.419 . S
C1656 C1654 1.415 . S
C1656 C1661 1.425 . S
C1656 C1663 1.409 . S
C1657 H1649 0.930 . S
C1657 C1655 1.419 . S
C1657 C1658 1.362 . S
C1658 H1650 0.930 . S
C1658 C1657 1.362 . S
C1658 C1661 1.409 . S
C1659 H1651 0.930 . S
C1659 C1660 1.355 . S
C1659 C1661 1.415 . S
C1660 C1659 1.355 . S
C1660 C1662 1.419 . S
C1661 C1656 1.425 . S
C1661 C1658 1.409 . S
C1661 C1659 1.415 . S
C1662 H1652 0.930 . S
C1662 C1660 1.419 . S
C1662 C1663 1.362 . S
C1663 H1653 0.930 . S
C1663 C1656 1.409 . S
C1663 C1662 1.362 . S
H1664 C1670 0.930 . S
H1665 C1673 0.930 . S
H1666 C1674 0.930 . S
H1667 C1675 0.930 . S
H1668 C1678 0.930 . S
H1669 C1679 0.930 . S
C1670 H1664 0.930 . S
C1670 C1671 1.355 . S
C1670 C1672 1.415 . S
C1671 C1670 1.355 . S
C1671 C1673 1.419 . S
C1672 C1670 1.415 . S
C1672 C1677 1.425 . S
C1672 C1679 1.409 . S
C1673 H1665 0.930 . S
C1673 C1671 1.419 . S
C1673 C1674 1.362 . S
C1674 H1666 0.930 . S
C1674 C1673 1.362 . S
C1674 C1677 1.409 . S
C1675 H1667 0.930 . S
C1675 C1676 1.355 . S
C1675 C1677 1.415 . S
C1676 C1675 1.355 . S
C1676 C1678 1.419 . S
C1677 C1672 1.425 . S
C1677 C1674 1.409 . S
C1677 C1675 1.415 . S
C1678 H1668 0.930 . S
C1678 C1676 1.419 . S
C1678 C1679 1.362 . S
C1679 H1669 0.930 . S
C1679 C1672 1.409 . S
C1679 C1678 1.362 . S
H1680 C1686 0.930 . S
H1681 C1689 0.930 . S
H1682 C1690 0.930 . S
H1683 C1691 0.930 . S
H1684 C1694 0.930 . S
H1685 C1695 0.930 . S
C1686 H1680 0.930 . S
C1686 C1687 1.355 . S
C1686 C1688 1.415 . S
C1687 C1686 1.355 . S
C1687 C1689 1.419 . S
C1688 C1686 1.415 . S
C1688 C1693 1.425 . S
C1688 C1695 1.409 . S
C1689 H1681 0.930 . S
C1689 C1687 1.419 . S
C1689 C1690 1.362 . S
C1690 H1682 0.930 . S
C1690 C1689 1.362 . S
C1690 C1693 1.409 . S
C1691 H1683 0.930 . S
C1691 C1692 1.355 . S
C1691 C1693 1.415 . S
C1692 C1691 1.355 . S
C1692 C1694 1.419 . S
C1693 C1688 1.425 . S
C1693 C1690 1.409 . S
C1693 C1691 1.415 . S
C1694 H1684 0.930 . S
C1694 C1692 1.419 . S
C1694 C1695 1.362 . S
C1695 H1685 0.930 . S
C1695 C1688 1.409 . S
C1695 C1694 1.362 . S
H1696 C1702 0.931 . S
H1697 C1705 0.930 . S
H1698 C1706 0.930 . S
H1699 C1707 0.930 . S
H1700 C1710 0.931 . S
H1701 C1711 0.930 . S
C1702 H1696 0.931 . S
C1702 C1703 1.348 1_556 S
C1702 C1704 1.420 . S
C1703 C1702 1.348 1_554 S
C1703 C1705 1.419 . S
C1704 C1702 1.420 . S
C1704 C1709 1.425 1_655 S
C1704 C1711 1.409 . S
C1705 H1697 0.930 . S
C1705 C1703 1.419 . S
C1705 C1706 1.362 1_655 S
C1706 H1698 0.930 . S
C1706 C1705 1.362 1_455 S
C1706 C1709 1.409 1_554 S
C1707 H1699 0.930 . S
C1707 C1708 1.355 . S
C1707 C1709 1.415 . S
C1708 C1707 1.355 . S
C1708 C1710 1.406 1_455 S
C1709 C1704 1.425 1_455 S
C1709 C1706 1.409 1_556 S
C1709 C1707 1.415 . S
C1710 H1700 0.931 . S
C1710 C1708 1.406 1_655 S
C1710 C1711 1.374 . S
C1711 H1701 0.930 . S
C1711 C1704 1.409 . S
C1711 C1710 1.374 . S
H1712 C1718 0.930 . S
H1713 C1721 0.930 . S
H1714 C1722 0.930 . S
H1715 C1723 0.930 . S
H1716 C1726 0.930 . S
H1717 C1727 0.930 . S
C1718 H1712 0.930 . S
C1718 C1719 1.355 . S
C1718 C1720 1.415 . S
C1719 C1718 1.355 . S
C1719 C1721 1.419 . S
C1720 C1718 1.415 . S
C1720 C1725 1.425 . S
C1720 C1727 1.409 . S
C1721 H1713 0.930 . S
C1721 C1719 1.419 . S
C1721 C1722 1.362 . S
C1722 H1714 0.930 . S
C1722 C1721 1.362 . S
C1722 C1725 1.409 . S
C1723 H1715 0.930 . S
C1723 C1724 1.355 . S
C1723 C1725 1.415 . S
C1724 C1723 1.355 . S
C1724 C1726 1.419 . S
C1725 C1720 1.425 . S
C1725 C1722 1.409 . S
C1725 C1723 1.415 . S
C1726 H1716 0.930 . S
C1726 C1724 1.419 . S
C1726 C1727 1.362 . S
C1727 H1717 0.930 . S
C1727 C1720 1.409 . S
C1727 C1726 1.362 . S
H1728 C1734 0.930 . S
H1729 C1737 0.930 . S
H1730 C1738 0.930 . S
H1731 C1739 0.930 . S
H1732 C1742 0.930 . S
H1733 C1743 0.930 . S
C1734 H1728 0.930 . S
C1734 C1735 1.355 . S
C1734 C1736 1.415 . S
C1735 C1734 1.355 . S
C1735 C1737 1.419 . S
C1736 C1734 1.415 . S
C1736 C1741 1.425 . S
C1736 C1743 1.409 . S
C1737 H1729 0.930 . S
C1737 C1735 1.419 . S
C1737 C1738 1.362 . S
C1738 H1730 0.930 . S
C1738 C1737 1.362 . S
C1738 C1741 1.409 . S
C1739 H1731 0.930 . S
C1739 C1740 1.355 . S
C1739 C1741 1.415 . S
C1740 C1739 1.355 . S
C1740 C1742 1.419 . S
C1741 C1736 1.425 . S
C1741 C1738 1.409 . S
C1741 C1739 1.415 . S
C1742 H1732 0.930 . S
C1742 C1740 1.419 . S
C1742 C1743 1.362 . S
C1743 H1733 0.930 . S
C1743 C1736 1.409 . S
C1743 C1742 1.362 . S
H1744 C1750 0.930 . S
H1745 C1753 0.930 . S
H1746 C1754 0.930 . S
H1747 C1755 0.930 . S
H1748 C1758 0.930 . S
H1749 C1759 0.930 . S
C1750 H1744 0.930 . S
C1750 C1751 1.355 . S
C1750 C1752 1.415 . S
C1751 C1750 1.355 . S
C1751 C1753 1.419 . S
C1752 C1750 1.415 . S
C1752 C1757 1.425 . S
C1752 C1759 1.409 . S
C1753 H1745 0.930 . S
C1753 C1751 1.419 . S
C1753 C1754 1.362 . S
C1754 H1746 0.930 . S
C1754 C1753 1.362 . S
C1754 C1757 1.409 . S
C1755 H1747 0.930 . S
C1755 C1756 1.355 . S
C1755 C1757 1.415 . S
C1756 C1755 1.355 . S
C1756 C1758 1.419 . S
C1757 C1752 1.425 . S
C1757 C1754 1.409 . S
C1757 C1755 1.415 . S
C1758 H1748 0.930 . S
C1758 C1756 1.419 . S
C1758 C1759 1.362 . S
C1759 H1749 0.930 . S
C1759 C1752 1.409 . S
C1759 C1758 1.362 . S
H1760 C1766 0.930 1_655 S
H1761 C1769 0.930 . S
H1762 C1770 0.930 . S
H1763 C1771 0.930 . S
H1764 C1774 0.930 . S
H1765 C1775 0.930 . S
C1766 H1760 0.930 1_455 S
C1766 C1767 1.355 . S
C1766 C1768 1.415 1_455 S
C1767 C1766 1.355 . S
C1767 C1769 1.419 . S
C1768 C1766 1.415 1_655 S
C1768 C1773 1.443 . S
C1768 C1775 1.409 . S
C1769 H1761 0.930 . S
C1769 C1767 1.419 . S
C1769 C1770 1.362 . S
C1770 H1762 0.930 . S
C1770 C1769 1.362 . S
C1770 C1773 1.372 1_455 S
C1771 H1763 0.930 . S
C1771 C1772 1.355 . S
C1771 C1773 1.436 . S
C1772 C1771 1.355 . S
C1772 C1774 1.419 . S
C1773 C1768 1.443 . S
C1773 C1770 1.372 1_655 S
C1773 C1771 1.436 . S
C1774 H1764 0.930 . S
C1774 C1772 1.419 . S
C1774 C1775 1.362 . S
C1775 H1765 0.930 . S
C1775 C1768 1.409 . S
C1775 C1774 1.362 . S
H1776 C1782 0.930 . S
H1777 C1785 0.930 . S
H1778 C1786 0.930 . S
H1779 C1787 0.930 1_556 S
H1780 C1790 0.930 . S
H1781 C1791 0.930 . S
C1782 H1776 0.930 . S
C1782 C1783 1.355 . S
C1782 C1784 1.415 . S
C1783 C1782 1.355 . S
C1783 C1785 1.419 . S
C1784 C1782 1.415 . S
C1784 C1789 1.425 . S
C1784 C1791 1.409 . S
C1785 H1777 0.930 . S
C1785 C1783 1.419 . S
C1785 C1786 1.362 . S
C1786 H1778 0.930 . S
C1786 C1785 1.362 . S
C1786 C1789 1.409 . S
C1787 H1779 0.930 1_554 S
C1787 C1788 1.355 1_554 S
C1787 C1789 1.415 . S
C1788 C1787 1.355 1_556 S
C1788 C1790 1.419 1_556 S
C1789 C1784 1.425 . S
C1789 C1786 1.409 . S
C1789 C1787 1.415 . S
C1790 H1780 0.930 . S
C1790 C1788 1.419 1_554 S
C1790 C1791 1.362 . S
C1791 H1781 0.930 . S
C1791 C1784 1.409 . S
C1791 C1790 1.362 . S
H1792 C1798 0.930 . S
H1793 C1801 0.930 . S
H1794 C1802 0.930 . S
H1795 C1803 0.930 1_554 S
H1796 C1806 0.930 . S
H1797 C1807 0.930 . S
C1798 H1792 0.930 . S
C1798 C1799 1.355 . S
C1798 C1800 1.415 . S
C1799 C1798 1.355 . S
C1799 C1801 1.419 . S
C1800 C1798 1.415 . S
C1800 C1805 1.425 . S
C1800 C1807 1.409 . S
C1801 H1793 0.930 . S
C1801 C1799 1.419 . S
C1801 C1802 1.362 . S
C1802 H1794 0.930 . S
C1802 C1801 1.362 . S
C1802 C1805 1.409 . S
C1803 H1795 0.930 1_556 S
C1803 C1804 1.355 1_556 S
C1803 C1805 1.415 . S
C1804 C1803 1.355 1_554 S
C1804 C1806 1.419 1_554 S
C1805 C1800 1.425 . S
C1805 C1802 1.409 . S
C1805 C1803 1.415 . S
C1806 H1796 0.930 . S
C1806 C1804 1.419 1_556 S
C1806 C1807 1.362 . S
C1807 H1797 0.930 . S
C1807 C1800 1.409 . S
C1807 C1806 1.362 . S
H1808 C1814 0.930 . S
H1809 C1817 0.930 . S
H1810 C1818 0.930 . S
H1811 C1819 0.930 . S
H1812 C1822 0.930 . S
H1813 C1823 0.930 . S
C1814 H1808 0.930 . S
C1814 C1815 1.355 . S
C1814 C1816 1.415 . S
C1815 C1814 1.355 . S
C1815 C1817 1.419 . S
C1816 C1814 1.415 . S
C1816 C1821 1.425 . S
C1816 C1823 1.409 . S
C1817 H1809 0.930 . S
C1817 C1815 1.419 . S
C1817 C1818 1.362 . S
C1818 H1810 0.930 . S
C1818 C1817 1.362 . S
C1818 C1821 1.409 . S
C1819 H1811 0.930 . S
C1819 C1820 1.355 . S
C1819 C1821 1.415 . S
C1820 C1819 1.355 . S
C1820 C1822 1.419 . S
C1821 C1816 1.425 . S
C1821 C1818 1.409 . S
C1821 C1819 1.415 . S
C1822 H1812 0.930 . S
C1822 C1820 1.419 . S
C1822 C1823 1.362 . S
C1823 H1813 0.930 . S
C1823 C1816 1.409 . S
C1823 C1822 1.362 . S
H1824 C1830 0.930 . S
H1825 C1833 0.930 . S
H1826 C1834 0.930 . S
H1827 C1835 0.930 . S
H1828 C1838 0.930 . S
H1829 C1839 0.930 . S
C1830 H1824 0.930 . S
C1830 C1831 1.355 . S
C1830 C1832 1.398 1_455 S
C1831 C1830 1.355 . S
C1831 C1833 1.419 . S
C1832 C1830 1.398 1_655 S
C1832 C1837 1.405 1_655 S
C1832 C1839 1.446 . S
C1833 H1825 0.930 . S
C1833 C1831 1.419 . S
C1833 C1834 1.362 . S
C1834 H1826 0.930 . S
C1834 C1833 1.362 . S
C1834 C1837 1.409 . S
C1835 H1827 0.930 . S
C1835 C1836 1.355 1_455 S
C1835 C1837 1.415 . S
C1836 C1835 1.355 1_655 S
C1836 C1838 1.419 . S
C1837 C1832 1.405 1_455 S
C1837 C1834 1.409 . S
C1837 C1835 1.415 . S
C1838 H1828 0.930 . S
C1838 C1836 1.419 . S
C1838 C1839 1.362 . S
C1839 H1829 0.930 . S
C1839 C1832 1.446 . S
C1839 C1838 1.362 . S
H1840 C1846 0.930 . S
H1841 C1849 0.930 . S
H1842 C1850 0.930 . S
H1843 C1851 0.930 . S
H1844 C1854 0.930 . S
H1845 C1855 0.930 . S
C1846 H1840 0.930 . S
C1846 C1847 1.355 1_554 S
C1846 C1848 1.415 . S
C1847 C1846 1.355 1_556 S
C1847 C1849 1.419 . S
C1848 C1846 1.415 . S
C1848 C1853 1.425 . S
C1848 C1855 1.409 . S
C1849 H1841 0.930 . S
C1849 C1847 1.419 . S
C1849 C1850 1.362 1_556 S
C1850 H1842 0.930 . S
C1850 C1849 1.362 1_554 S
C1850 C1853 1.409 . S
C1851 H1843 0.930 . S
C1851 C1852 1.355 . S
C1851 C1853 1.415 . S
C1852 C1851 1.355 . S
C1852 C1854 1.419 . S
C1853 C1848 1.425 . S
C1853 C1850 1.409 . S
C1853 C1851 1.415 . S
C1854 H1844 0.930 . S
C1854 C1852 1.419 . S
C1854 C1855 1.362 . S
C1855 H1845 0.930 . S
C1855 C1848 1.409 . S
C1855 C1854 1.362 . S
H1856 C1862 0.930 . S
H1857 C1865 0.930 . S
H1858 C1866 0.930 . S
H1859 C1867 0.930 . S
H1860 C1870 0.930 . S
H1861 C1871 0.930 . S
C1862 H1856 0.930 . S
C1862 C1863 1.355 . S
C1862 C1864 1.415 . S
C1863 C1862 1.355 . S
C1863 C1865 1.419 . S
C1864 C1862 1.415 . S
C1864 C1869 1.425 . S
C1864 C1871 1.409 . S
C1865 H1857 0.930 . S
C1865 C1863 1.419 . S
C1865 C1866 1.362 . S
C1866 H1858 0.930 . S
C1866 C1865 1.362 . S
C1866 C1869 1.409 . S
C1867 H1859 0.930 . S
C1867 C1868 1.355 . S
C1867 C1869 1.415 . S
C1868 C1867 1.355 . S
C1868 C1870 1.419 . S
C1869 C1864 1.425 . S
C1869 C1866 1.409 . S
C1869 C1867 1.415 . S
C1870 H1860 0.930 . S
C1870 C1868 1.419 . S
C1870 C1871 1.362 . S
C1871 H1861 0.930 . S
C1871 C1864 1.409 . S
C1871 C1870 1.362 . S
H1872 C1878 0.930 . S
H1873 C1881 0.930 . S
H1874 C1882 0.930 . S
H1875 C1883 0.930 . S
H1876 C1886 0.930 . S
H1877 C1887 0.930 . S
C1878 H1872 0.930 . S
C1878 C1879 1.355 . S
C1878 C1880 1.415 . S
C1879 C1878 1.355 . S
C1879 C1881 1.419 . S
C1880 C1878 1.415 . S
C1880 C1885 1.425 . S
C1880 C1887 1.409 . S
C1881 H1873 0.930 . S
C1881 C1879 1.419 . S
C1881 C1882 1.362 . S
C1882 H1874 0.930 . S
C1882 C1881 1.362 . S
C1882 C1885 1.409 . S
C1883 H1875 0.930 . S
C1883 C1884 1.355 . S
C1883 C1885 1.415 . S
C1884 C1883 1.355 . S
C1884 C1886 1.419 . S
C1885 C1880 1.425 . S
C1885 C1882 1.409 . S
C1885 C1883 1.415 . S
C1886 H1876 0.930 . S
C1886 C1884 1.419 . S
C1886 C1887 1.362 . S
C1887 H1877 0.930 . S
C1887 C1880 1.409 . S
C1887 C1886 1.362 . S
H1888 C1894 0.930 . S
H1889 C1897 0.930 . S
H1890 C1898 0.930 . S
H1891 C1899 0.930 . S
H1892 C1902 0.930 . S
H1893 C1903 0.930 . S
C1894 H1888 0.930 . S
C1894 C1895 1.355 . S
C1894 C1896 1.415 . S
C1895 C1894 1.355 . S
C1895 C1897 1.419 . S
C1896 C1894 1.415 . S
C1896 C1901 1.425 1_455 S
C1896 C1903 1.409 . S
C1897 H1889 0.930 . S
C1897 C1895 1.419 . S
C1897 C1898 1.362 1_455 S
C1898 H1890 0.930 . S
C1898 C1897 1.362 1_655 S
C1898 C1901 1.409 . S
C1899 H1891 0.930 . S
C1899 C1900 1.355 . S
C1899 C1901 1.415 . S
C1900 C1899 1.355 . S
C1900 C1902 1.419 1_655 S
C1901 C1896 1.425 1_655 S
C1901 C1898 1.409 . S
C1901 C1899 1.415 . S
C1902 H1892 0.930 . S
C1902 C1900 1.419 1_455 S
C1902 C1903 1.362 . S
C1903 H1893 0.930 . S
C1903 C1896 1.409 . S
C1903 C1902 1.362 . S
H1904 C1910 0.930 . S
H1905 C1913 0.930 . S
H1906 C1914 0.930 . S
H1907 C1915 0.930 . S
H1908 C1918 0.930 . S
H1909 C1919 0.930 . S
C1910 H1904 0.930 . S
C1910 C1911 1.355 . S
C1910 C1912 1.415 . S
C1911 C1910 1.355 . S
C1911 C1913 1.419 . S
C1912 C1910 1.415 . S
C1912 C1917 1.425 . S
C1912 C1919 1.409 . S
C1913 H1905 0.930 . S
C1913 C1911 1.419 . S
C1913 C1914 1.362 . S
C1914 H1906 0.930 . S
C1914 C1913 1.362 . S
C1914 C1917 1.409 . S
C1915 H1907 0.930 . S
C1915 C1916 1.355 . S
C1915 C1917 1.415 . S
C1916 C1915 1.355 . S
C1916 C1918 1.419 . S
C1917 C1912 1.425 . S
C1917 C1914 1.409 . S
C1917 C1915 1.415 . S
C1918 H1908 0.930 . S
C1918 C1916 1.419 . S
C1918 C1919 1.362 . S
C1919 H1909 0.930 . S
C1919 C1912 1.409 . S
C1919 C1918 1.362 . S
H1920 C1926 0.930 . S
H1921 C1929 0.930 . S
H1922 C1930 0.930 . S
H1923 C1931 0.930 . S
H1924 C1934 0.930 . S
H1925 C1935 0.930 . S
C1926 H1920 0.930 . S
C1926 C1927 1.355 . S
C1926 C1928 1.415 . S
C1927 C1926 1.355 . S
C1927 C1929 1.419 . S
C1928 C1926 1.415 . S
C1928 C1933 1.425 . S
C1928 C1935 1.409 . S
C1929 H1921 0.930 . S
C1929 C1927 1.419 . S
C1929 C1930 1.362 . S
C1930 H1922 0.930 . S
C1930 C1929 1.362 . S
C1930 C1933 1.409 . S
C1931 H1923 0.930 . S
C1931 C1932 1.355 . S
C1931 C1933 1.415 . S
C1932 C1931 1.355 . S
C1932 C1934 1.419 . S
C1933 C1928 1.425 . S
C1933 C1930 1.409 . S
C1933 C1931 1.415 . S
C1934 H1924 0.930 . S
C1934 C1932 1.419 . S
C1934 C1935 1.362 . S
C1935 H1925 0.930 . S
C1935 C1928 1.409 . S
C1935 C1934 1.362 . S
H1936 C1942 0.930 . S
H1937 C1945 0.930 . S
H1938 C1946 0.930 . S
H1939 C1947 0.930 . S
H1940 C1950 0.930 . S
H1941 C1951 0.930 . S
C1942 H1936 0.930 . S
C1942 C1943 1.355 . S
C1942 C1944 1.415 . S
C1943 C1942 1.355 . S
C1943 C1945 1.419 . S
C1944 C1942 1.415 . S
C1944 C1949 1.425 . S
C1944 C1951 1.409 . S
C1945 H1937 0.930 . S
C1945 C1943 1.419 . S
C1945 C1946 1.362 . S
C1946 H1938 0.930 . S
C1946 C1945 1.362 . S
C1946 C1949 1.409 . S
C1947 H1939 0.930 . S
C1947 C1948 1.355 . S
C1947 C1949 1.415 . S
C1948 C1947 1.355 . S
C1948 C1950 1.419 . S
C1949 C1944 1.425 . S
C1949 C1946 1.409 . S
C1949 C1947 1.415 . S
C1950 H1940 0.930 . S
C1950 C1948 1.419 . S
C1950 C1951 1.362 . S
C1951 H1941 0.930 . S
C1951 C1944 1.409 . S
C1951 C1950 1.362 . S
H1952 C1958 0.930 . S
H1953 C1961 0.930 . S
H1954 C1962 0.930 . S
H1955 C1963 0.930 . S
H1956 C1966 0.930 . S
H1957 C1967 0.930 . S
C1958 H1952 0.930 . S
C1958 C1959 1.355 . S
C1958 C1960 1.415 . S
C1959 C1958 1.355 . S
C1959 C1961 1.419 . S
C1960 C1958 1.415 . S
C1960 C1965 1.425 . S
C1960 C1967 1.409 . S
C1961 H1953 0.930 . S
C1961 C1959 1.419 . S
C1961 C1962 1.362 . S
C1962 H1954 0.930 . S
C1962 C1961 1.362 . S
C1962 C1965 1.409 . S
C1963 H1955 0.930 . S
C1963 C1964 1.355 . S
C1963 C1965 1.415 . S
C1964 C1963 1.355 . S
C1964 C1966 1.419 . S
C1965 C1960 1.425 . S
C1965 C1962 1.409 . S
C1965 C1963 1.415 . S
C1966 H1956 0.930 . S
C1966 C1964 1.419 . S
C1966 C1967 1.362 . S
C1967 H1957 0.930 . S
C1967 C1960 1.409 . S
C1967 C1966 1.362 . S
H1968 C1974 0.930 . S
H1969 C1977 0.930 . S
H1970 C1978 0.930 . S
H1971 C1979 0.930 . S
H1972 C1982 0.930 . S
H1973 C1983 0.930 . S
C1974 H1968 0.930 . S
C1974 C1975 1.355 . S
C1974 C1976 1.415 . S
C1975 C1974 1.355 . S
C1975 C1977 1.419 . S
C1976 C1974 1.415 . S
C1976 C1981 1.425 . S
C1976 C1983 1.409 . S
C1977 H1969 0.930 . S
C1977 C1975 1.419 . S
C1977 C1978 1.362 . S
C1978 H1970 0.930 . S
C1978 C1977 1.362 . S
C1978 C1981 1.409 . S
C1979 H1971 0.930 . S
C1979 C1980 1.355 . S
C1979 C1981 1.415 . S
C1980 C1979 1.355 . S
C1980 C1982 1.419 . S
C1981 C1976 1.425 . S
C1981 C1978 1.409 . S
C1981 C1979 1.415 . S
C1982 H1972 0.930 . S
C1982 C1980 1.419 . S
C1982 C1983 1.362 . S
C1983 H1973 0.930 . S
C1983 C1976 1.409 . S
C1983 C1982 1.362 . S
H1984 C1990 0.930 . S
H1985 C1993 0.930 . S
H1986 C1994 0.930 . S
H1987 C1995 0.930 . S
H1988 C1998 0.930 . S
H1989 C1999 0.930 . S
C1990 H1984 0.930 . S
C1990 C1991 1.355 . S
C1990 C1992 1.415 . S
C1991 C1990 1.355 . S
C1991 C1993 1.419 . S
C1992 C1990 1.415 . S
C1992 C1997 1.425 . S
C1992 C1999 1.409 . S
C1993 H1985 0.930 . S
C1993 C1991 1.419 . S
C1993 C1994 1.362 . S
C1994 H1986 0.930 . S
C1994 C1993 1.362 . S
C1994 C1997 1.409 . S
C1995 H1987 0.930 . S
C1995 C1996 1.355 . S
C1995 C1997 1.415 . S
C1996 C1995 1.355 . S
C1996 C1998 1.419 . S
C1997 C1992 1.425 . S
C1997 C1994 1.409 . S
C1997 C1995 1.415 . S
C1998 H1988 0.930 . S
C1998 C1996 1.419 . S
C1998 C1999 1.362 . S
C1999 H1989 0.930 . S
C1999 C1992 1.409 . S
C1999 C1998 1.362 . S
H2000 C2006 0.930 . S
H2001 C2009 0.930 . S
H2002 C2010 0.930 . S
H2003 C2011 0.930 . S
H2004 C2014 0.930 . S
H2005 C2015 0.930 . S
C2006 H2000 0.930 . S
C2006 C2007 1.355 . S
C2006 C2008 1.415 . S
C2007 C2006 1.355 . S
C2007 C2009 1.419 . S
C2008 C2006 1.415 . S
C2008 C2013 1.425 . S
C2008 C2015 1.409 . S
C2009 H2001 0.930 . S
C2009 C2007 1.419 . S
C2009 C2010 1.362 . S
C2010 H2002 0.930 . S
C2010 C2009 1.362 . S
C2010 C2013 1.409 . S
C2011 H2003 0.930 . S
C2011 C2012 1.355 . S
C2011 C2013 1.415 . S
C2012 C2011 1.355 . S
C2012 C2014 1.419 . S
C2013 C2008 1.425 . S
C2013 C2010 1.409 . S
C2013 C2011 1.415 . S
C2014 H2004 0.930 . S
C2014 C2012 1.419 . S
C2014 C2015 1.362 . S
C2015 H2005 0.930 . S
C2015 C2008 1.409 . S
C2015 C2014 1.362 . S
H2016 C2022 0.930 . S
H2017 C2025 0.930 . S
H2018 C2026 0.930 . S
H2019 C2027 0.930 . S
H2020 C2030 0.930 . S
H2021 C2031 0.930 . S
C2022 H2016 0.930 . S
C2022 C2023 1.355 . S
C2022 C2024 1.415 . S
C2023 C2022 1.355 . S
C2023 C2025 1.419 . S
C2024 C2022 1.415 . S
C2024 C2029 1.425 . S
C2024 C2031 1.409 . S
C2025 H2017 0.930 . S
C2025 C2023 1.419 . S
C2025 C2026 1.362 . S
C2026 H2018 0.930 . S
C2026 C2025 1.362 . S
C2026 C2029 1.409 . S
C2027 H2019 0.930 . S
C2027 C2028 1.355 . S
C2027 C2029 1.415 . S
C2028 C2027 1.355 . S
C2028 C2030 1.419 . S
C2029 C2024 1.425 . S
C2029 C2026 1.409 . S
C2029 C2027 1.415 . S
C2030 H2020 0.930 . S
C2030 C2028 1.419 . S
C2030 C2031 1.362 . S
C2031 H2021 0.930 . S
C2031 C2024 1.409 . S
C2031 C2030 1.362 . S
H2032 C2038 0.930 . S
H2033 C2041 0.930 . S
H2034 C2042 0.930 . S
H2035 C2043 0.930 . S
H2036 C2046 0.930 . S
H2037 C2047 0.930 . S
C2038 H2032 0.930 . S
C2038 C2039 1.355 . S
C2038 C2040 1.415 . S
C2039 C2038 1.355 . S
C2039 C2041 1.419 . S
C2040 C2038 1.415 . S
C2040 C2045 1.425 . S
C2040 C2047 1.409 . S
C2041 H2033 0.930 . S
C2041 C2039 1.419 . S
C2041 C2042 1.362 . S
C2042 H2034 0.930 . S
C2042 C2041 1.362 . S
C2042 C2045 1.409 . S
C2043 H2035 0.930 . S
C2043 C2044 1.355 . S
C2043 C2045 1.415 . S
C2044 C2043 1.355 . S
C2044 C2046 1.419 . S
C2045 C2040 1.425 . S
C2045 C2042 1.409 . S
C2045 C2043 1.415 . S
C2046 H2036 0.930 . S
C2046 C2044 1.419 . S
C2046 C2047 1.362 . S
C2047 H2037 0.930 . S
C2047 C2040 1.409 . S
C2047 C2046 1.362 . S
H2048 C2054 0.930 . S
H2049 C2057 0.930 . S
H2050 C2058 0.930 . S
H2051 C2059 0.930 . S
H2052 C2062 0.930 . S
H2053 C2063 0.930 . S
C2054 H2048 0.930 . S
C2054 C2055 1.355 . S
C2054 C2056 1.441 . S
C2055 C2054 1.355 . S
C2055 C2057 1.419 . S
C2056 C2054 1.441 . S
C2056 C2061 1.422 1_565 S
C2056 C2063 1.388 1_565 S
C2057 H2049 0.930 . S
C2057 C2055 1.419 . S
C2057 C2058 1.362 . S
C2058 H2050 0.930 . S
C2058 C2057 1.362 . S
C2058 C2061 1.388 1_565 S
C2059 H2051 0.930 . S
C2059 C2060 1.355 . S
C2059 C2061 1.440 . S
C2060 C2059 1.355 . S
C2060 C2062 1.419 . S
C2061 C2056 1.422 1_545 S
C2061 C2058 1.388 1_545 S
C2061 C2059 1.440 . S
C2062 H2052 0.930 . S
C2062 C2060 1.419 . S
C2062 C2063 1.362 . S
C2063 H2053 0.930 . S
C2063 C2056 1.388 1_545 S
C2063 C2062 1.362 . S
H2064 C2070 0.930 . S
H2065 C2073 0.930 . S
H2066 C2074 0.930 . S
H2067 C2075 0.930 . S
H2068 C2078 0.930 . S
H2069 C2079 0.930 . S
C2070 H2064 0.930 . S
C2070 C2071 1.355 . S
C2070 C2072 1.415 . S
C2071 C2070 1.355 . S
C2071 C2073 1.419 . S
C2072 C2070 1.415 . S
C2072 C2077 1.425 . S
C2072 C2079 1.409 . S
C2073 H2065 0.930 . S
C2073 C2071 1.419 . S
C2073 C2074 1.362 . S
C2074 H2066 0.930 . S
C2074 C2073 1.362 . S
C2074 C2077 1.409 . S
C2075 H2067 0.930 . S
C2075 C2076 1.355 . S
C2075 C2077 1.415 . S
C2076 C2075 1.355 . S
C2076 C2078 1.419 . S
C2077 C2072 1.425 . S
C2077 C2074 1.409 . S
C2077 C2075 1.415 . S
C2078 H2068 0.930 . S
C2078 C2076 1.419 . S
C2078 C2079 1.362 . S
C2079 H2069 0.930 . S
C2079 C2072 1.409 . S
C2079 C2078 1.362 . S
H2080 C2086 0.930 . S
H2081 C2089 0.930 . S
H2082 C2090 0.930 . S
H2083 C2091 0.930 . S
H2084 C2094 0.930 . S
H2085 C2095 0.930 . S
C2086 H2080 0.930 . S
C2086 C2087 1.355 1_565 S
C2086 C2088 1.415 . S
C2087 C2086 1.355 1_545 S
C2087 C2089 1.419 . S
C2088 C2086 1.415 . S
C2088 C2093 1.425 1_565 S
C2088 C2095 1.409 . S
C2089 H2081 0.930 . S
C2089 C2087 1.419 . S
C2089 C2090 1.362 . S
C2090 H2082 0.930 . S
C2090 C2089 1.362 . S
C2090 C2093 1.409 . S
C2091 H2083 0.930 . S
C2091 C2092 1.355 1_545 S
C2091 C2093 1.415 . S
C2092 C2091 1.355 1_565 S
C2092 C2094 1.419 . S
C2093 C2088 1.425 1_545 S
C2093 C2090 1.409 . S
C2093 C2091 1.415 . S
C2094 H2084 0.930 . S
C2094 C2092 1.419 . S
C2094 C2095 1.362 . S
C2095 H2085 0.930 . S
C2095 C2088 1.409 . S
C2095 C2094 1.362 . S
H2096 C2102 0.930 . S
H2097 C2105 0.930 . S
H2098 C2106 0.930 . S
H2099 C2107 0.930 . S
H2100 C2110 0.930 . S
H2101 C2111 0.930 . S
C2102 H2096 0.930 . S
C2102 C2103 1.355 . S
C2102 C2104 1.415 . S
C2103 C2102 1.355 . S
C2103 C2105 1.419 . S
C2104 C2102 1.415 . S
C2104 C2109 1.425 . S
C2104 C2111 1.409 . S
C2105 H2097 0.930 . S
C2105 C2103 1.419 . S
C2105 C2106 1.362 . S
C2106 H2098 0.930 . S
C2106 C2105 1.362 . S
C2106 C2109 1.409 . S
C2107 H2099 0.930 . S
C2107 C2108 1.355 . S
C2107 C2109 1.415 . S
C2108 C2107 1.355 . S
C2108 C2110 1.419 . S
C2109 C2104 1.425 . S
C2109 C2106 1.409 . S
C2109 C2107 1.415 . S
C2110 H2100 0.930 . S
C2110 C2108 1.419 . S
C2110 C2111 1.362 . S
C2111 H2101 0.930 . S
C2111 C2104 1.409 . S
C2111 C2110 1.362 . S
H2112 C2118 0.930 1_545 S
H2113 C2121 0.930 . S
H2114 C2122 0.930 . S
H2115 C2123 0.930 1_565 S
H2116 C2126 0.930 . S
H2117 C2127 0.930 . S
C2118 H2112 0.930 1_565 S
C2118 C2119 1.355 . S
C2118 C2120 1.415 1_565 S
C2119 C2118 1.355 . S
C2119 C2121 1.419 . S
C2120 C2118 1.415 1_545 S
C2120 C2125 1.425 1_545 S
C2120 C2127 1.409 . S
C2121 H2113 0.930 . S
C2121 C2119 1.419 . S
C2121 C2122 1.362 . S
C2122 H2114 0.930 . S
C2122 C2121 1.362 . S
C2122 C2125 1.409 . S
C2123 H2115 0.930 1_545 S
C2123 C2124 1.355 . S
C2123 C2125 1.415 1_545 S
C2124 C2123 1.355 . S
C2124 C2126 1.419 . S
C2125 C2120 1.425 1_565 S
C2125 C2122 1.409 . S
C2125 C2123 1.415 1_565 S
C2126 H2116 0.930 . S
C2126 C2124 1.419 . S
C2126 C2127 1.362 . S
C2127 H2117 0.930 . S
C2127 C2120 1.409 . S
C2127 C2126 1.362 . S
H2128 C2134 0.930 . S
H2129 C2137 0.930 . S
H2130 C2138 0.930 . S
H2131 C2139 0.930 . S
H2132 C2142 0.930 . S
H2133 C2143 0.930 . S
C2134 H2128 0.930 . S
C2134 C2135 1.355 . S
C2134 C2136 1.415 . S
C2135 C2134 1.355 . S
C2135 C2137 1.419 . S
C2136 C2134 1.415 . S
C2136 C2141 1.425 . S
C2136 C2143 1.409 . S
C2137 H2129 0.930 . S
C2137 C2135 1.419 . S
C2137 C2138 1.362 . S
C2138 H2130 0.930 . S
C2138 C2137 1.362 . S
C2138 C2141 1.409 . S
C2139 H2131 0.930 . S
C2139 C2140 1.355 . S
C2139 C2141 1.415 . S
C2140 C2139 1.355 . S
C2140 C2142 1.419 . S
C2141 C2136 1.425 . S
C2141 C2138 1.409 . S
C2141 C2139 1.415 . S
C2142 H2132 0.930 . S
C2142 C2140 1.419 . S
C2142 C2143 1.362 . S
C2143 H2133 0.930 . S
C2143 C2136 1.409 . S
C2143 C2142 1.362 . S
H2144 C2150 0.930 . S
H2145 C2153 0.930 . S
H2146 C2154 0.930 . S
H2147 C2155 0.930 . S
H2148 C2158 0.930 . S
H2149 C2159 0.930 . S
C2150 H2144 0.930 . S
C2150 C2151 1.355 . S
C2150 C2152 1.415 . S
C2151 C2150 1.355 . S
C2151 C2153 1.419 1_565 S
C2152 C2150 1.415 . S
C2152 C2157 1.425 1_565 S
C2152 C2159 1.409 . S
C2153 H2145 0.930 . S
C2153 C2151 1.419 1_545 S
C2153 C2154 1.362 . S
C2154 H2146 0.930 . S
C2154 C2153 1.362 . S
C2154 C2157 1.409 . S
C2155 H2147 0.930 . S
C2155 C2156 1.355 . S
C2155 C2157 1.415 . S
C2156 C2155 1.355 . S
C2156 C2158 1.419 1_545 S
C2157 C2152 1.425 1_545 S
C2157 C2154 1.409 . S
C2157 C2155 1.415 . S
C2158 H2148 0.930 . S
C2158 C2156 1.419 1_565 S
C2158 C2159 1.362 . S
C2159 H2149 0.930 . S
C2159 C2152 1.409 . S
C2159 C2158 1.362 . S
H2160 C2166 0.930 . S
H2161 C2169 0.930 . S
H2162 C2170 0.930 . S
H2163 C2171 0.930 . S
H2164 C2174 0.930 . S
H2165 C2175 0.930 . S
C2166 H2160 0.930 . S
C2166 C2167 1.355 . S
C2166 C2168 1.415 . S
C2167 C2166 1.355 . S
C2167 C2169 1.419 . S
C2168 C2166 1.415 . S
C2168 C2173 1.425 . S
C2168 C2175 1.409 . S
C2169 H2161 0.930 . S
C2169 C2167 1.419 . S
C2169 C2170 1.362 . S
C2170 H2162 0.930 . S
C2170 C2169 1.362 . S
C2170 C2173 1.409 . S
C2171 H2163 0.930 . S
C2171 C2172 1.355 . S
C2171 C2173 1.415 . S
C2172 C2171 1.355 . S
C2172 C2174 1.419 . S
C2173 C2168 1.425 . S
C2173 C2170 1.409 . S
C2173 C2171 1.415 . S
C2174 H2164 0.930 . S
C2174 C2172 1.419 . S
C2174 C2175 1.362 . S
C2175 H2165 0.930 . S
C2175 C2168 1.409 . S
C2175 C2174 1.362 . S
C647 C16 1.074 . S
C652 C96 1.081 . S
C663 C119 1.137 . S
C668 C39 1.131 . S
C679 C59 0.896 . S
C684 C139 0.898 1_556 S
C695 C159 1.076 . S
C700 C79 1.101 . S
C711 C166 0.977 1_556 S
C716 C246 0.973 . S
C727 C188 1.025 . S
C732 C268 1.016 . S
C743 C288 0.934 . S
C748 C208 0.916 . S
C759 C228 1.009 . S
C764 C308 1.011 . S
C775 C416 0.972 1_556 S
C780 C336 0.975 . S
C791 C359 1.095 . S
C796 C439 1.076 . S
C807 C379 0.913 . S
C812 C459 0.929 . S
C823 C399 1.036 . S
C828 C479 1.053 . S
C839 C486 1.080 . S
C844 C566 1.071 . S
C855 C588 1.026 . S
C860 C508 1.041 . S
C871 C528 0.899 1_556 S
C876 C608 0.896 . S
C887 C628 1.115 . S
C892 C548 1.131 . S
C903 C421 1.283 . S
C908 C9 1.278 . S
C919 C441 1.353 . S
C924 C21 1.378 . S
C935 C461 1.384 . S
C940 C41 1.382 . S
C951 C61 1.284 . S
C956 C409 1.289 . S
C967 C89 1.270 . S
C972 C381 1.273 . S
C983 C329 1.272 . S
C988 C101 1.276 . S
C999 C121 1.380 . S
C1004 C341 1.384 . S
C1015 C141 1.376 . S
C1020 C361 1.335 . S
C1031 C161 1.293 . S
C1036 C589 1.293 . S
C1047 C609 1.347 . S
C1052 C189 1.382 . S
C1063 C629 1.379 . S
C1068 C209 1.328 . S
C1079 C229 1.265 . S
C1084 C561 1.265 . S
C1095 C241 1.292 . S
C1100 C549 1.292 . S
C1111 C269 1.263 . S
C1116 C481 1.265 . S
C1127 C289 1.324 . S
C1132 C509 1.378 . S
C1143 C309 1.379 . S
C1148 C529 1.364 . S
C1159 C169 0.878 . S
C1164 C1 0.878 . S
C1175 C29 0.694 . S
C1180 C501 0.694 . S
C1191 C201 0.767 . S
C1196 C49 0.767 . S
C1207 C69 0.777 . S
C1212 C541 0.777 . S
C1223 C249 0.915 . S
C1228 C81 0.915 . S
C1239 C581 0.657 . S
C1244 C109 0.657 . S
C1255 C129 0.714 . S
C1260 C281 0.714 . S
C1271 C149 0.697 . S
C1276 C621 0.697 . S
C1287 C349 0.699 . S
C1292 C181 0.699 . S
C1303 C389 0.760 . S
C1308 C221 0.760 . S
C1319 C261 0.688 . S
C1324 C429 0.688 . S
C1335 C469 0.694 . S
C1340 C301 0.694 . S
C1351 C489 0.898 . S
C1356 C321 0.898 . S
C1367 C521 0.635 . S
C1372 C369 0.635 . S
C1383 C569 1.046 . S
C1388 C401 1.046 . S
C1399 C449 0.630 . S
C1404 C601 0.630 . S
C1415 C6 1.509 1_556 S
C1420 C259 1.456 . S
C1431 C596 1.641 . S
C1436 C28 1.637 . S
C1447 C296 1.675 . S
C1452 C48 1.664 . S
C1463 C68 1.664 . S
C1468 C636 1.657 . S
C1479 C179 1.435 . S
C1484 C86 1.502 . S
C1495 C516 1.628 . S
C1500 C108 1.630 . S
C1511 C216 1.715 . S
C1516 C128 1.701 . S
C1527 C556 1.659 . S
C1532 C148 1.651 . S
C1543 C88 1.522 . S
C1548 C176 1.565 . S
C1559 C426 1.671 . S
C1564 C199 1.662 . S
C1575 C126 1.730 . S
C1580 C219 1.727 . S
C1591 C239 1.631 . S
C1596 C466 1.631 . S
C1607 C8 1.469 . S
C1612 C256 1.516 . S
C1623 C346 1.647 . S
C1628 C279 1.654 . S
C1639 C299 1.714 . S
C1644 C46 1.713 . S
C1655 C319 1.637 . S
C1660 C386 1.640 . S
C1671 C579 1.522 . S
C1676 C326 1.561 . S
C1687 C276 1.678 . S
C1692 C348 1.681 . S
C1703 C368 1.687 . S
C1708 C616 1.688 . S
C1719 C316 1.666 . S
C1724 C388 1.662 . S
C1735 C406 1.502 . S
C1740 C499 1.433 . S
C1751 C428 1.648 . S
C1756 C196 1.642 . S
C1767 C536 1.732 . S
C1772 C448 1.723 . S
C1783 C236 1.694 . S
C1788 C468 1.687 . S
C1799 C496 1.564 . S
C1804 C408 1.523 . S
C1815 C519 1.669 . S
C1820 C106 1.678 . S
C1831 C539 1.727 . S
C1836 C446 1.731 . S
C1847 C559 1.652 . S
C1852 C146 1.646 . S
C1863 C328 1.464 . S
C1868 C576 1.541 1_556 S
C1879 C26 1.683 . S
C1884 C599 1.681 . S
C1895 C619 1.663 . S
C1900 C366 1.673 . S
C1911 C66 1.698 . S
C1916 C639 1.698 . S
C1927 C99 2.344 . S
C1932 C19 2.339 1_556 S
C1943 C116 1.790 1_554 S
C1948 C36 1.797 . S
C1959 C56 1.774 . S
C1964 C136 1.782 . S
C1975 C156 1.798 . S
C1980 C76 1.799 . S
C1991 C248 2.342 . S
C1996 C168 2.342 . S
C2007 C186 1.798 1_554 S
C2012 C266 1.795 . S
C2023 C206 1.756 . S
C2028 C286 1.769 1_556 S
C2039 C306 1.793 . S
C2044 C226 1.799 . S
C2055 C339 2.327 . S
C2060 C419 2.312 . S
C2071 C436 1.791 . S
C2076 C356 1.778 . S
C2087 C376 1.780 1_556 S
C2092 C456 1.783 . S
C2103 C396 1.794 . S
C2108 C476 1.782 1_554 S
C2119 C568 2.337 1_556 S
C2124 C488 2.344 . S
C2135 C586 1.798 . S
C2140 C506 1.798 . S
C2151 C526 1.738 . S
C2156 C606 1.745 . S
C2167 C626 1.784 . S
C2172 C546 1.774 1_554 S
