# Generated by pormake.
# Topology wka, (5)-cn, num edge types: 1
# Building blocks:
#     Node 0, Type 0, BuildingBlock: BEQFEK_clean_sbu_0, # of connection points: 5
#     Node 1, Type 0, BuildingBlock: BEQFEK_clean_sbu_0, # of connection points: 5
#     Node 2, Type 0, BuildingBlock: BEQFEK_clean_sbu_0, # of connection points: 5
#     Node 3, Type 0, BuildingBlock: BEQFEK_clean_sbu_0, # of connection points: 5
#     Node 4, Type 0, BuildingBlock: BEQFEK_clean_sbu_0, # of connection points: 5
#     Node 5, Type 0, BuildingBlock: BEQFEK_clean_sbu_0, # of connection points: 5
#     Node 6, Type 0, BuildingBlock: BEQFEK_clean_sbu_0, # of connection points: 5
#     Node 7, Type 0, BuildingBlock: BEQFEK_clean_sbu_0, # of connection points: 5
#     Node 8, Type 0, BuildingBlock: BEQFEK_clean_sbu_0, # of connection points: 5
#     Node 9, Type 0, BuildingBlock: BEQFEK_clean_sbu_0, # of connection points: 5
#     Node 10, Type 0, BuildingBlock: BEQFEK_clean_sbu_0, # of connection points: 5
#     Node 11, Type 0, BuildingBlock: BEQFEK_clean_sbu_0, # of connection points: 5
#     Edge 12, Type (0, 0), BuildingBlock: UVAHIK_clean_linker_0, # of connection points: 2
#     Edge 13, Type (0, 0), BuildingBlock: UVAHIK_clean_linker_0, # of connection points: 2
#     Edge 14, Type (0, 0), BuildingBlock: UVAHIK_clean_linker_0, # of connection points: 2
#     Edge 15, Type (0, 0), BuildingBlock: UVAHIK_clean_linker_0, # of connection points: 2
#     Edge 16, Type (0, 0), BuildingBlock: UVAHIK_clean_linker_0, # of connection points: 2
#     Edge 17, Type (0, 0), BuildingBlock: UVAHIK_clean_linker_0, # of connection points: 2
#     Edge 18, Type (0, 0), BuildingBlock: UVAHIK_clean_linker_0, # of connection points: 2
#     Edge 19, Type (0, 0), BuildingBlock: UVAHIK_clean_linker_0, # of connection points: 2
#     Edge 20, Type (0, 0), BuildingBlock: UVAHIK_clean_linker_0, # of connection points: 2
#     Edge 21, Type (0, 0), BuildingBlock: UVAHIK_clean_linker_0, # of connection points: 2
#     Edge 22, Type (0, 0), BuildingBlock: UVAHIK_clean_linker_0, # of connection points: 2
#     Edge 23, Type (0, 0), BuildingBlock: UVAHIK_clean_linker_0, # of connection points: 2
#     Edge 24, Type (0, 0), BuildingBlock: UVAHIK_clean_linker_0, # of connection points: 2
#     Edge 25, Type (0, 0), BuildingBlock: UVAHIK_clean_linker_0, # of connection points: 2
#     Edge 26, Type (0, 0), BuildingBlock: UVAHIK_clean_linker_0, # of connection points: 2
#     Edge 27, Type (0, 0), BuildingBlock: UVAHIK_clean_linker_0, # of connection points: 2
#     Edge 28, Type (0, 0), BuildingBlock: UVAHIK_clean_linker_0, # of connection points: 2
#     Edge 29, Type (0, 0), BuildingBlock: UVAHIK_clean_linker_0, # of connection points: 2
#     Edge 30, Type (0, 0), BuildingBlock: UVAHIK_clean_linker_0, # of connection points: 2
#     Edge 31, Type (0, 0), BuildingBlock: UVAHIK_clean_linker_0, # of connection points: 2
#     Edge 32, Type (0, 0), BuildingBlock: UVAHIK_clean_linker_0, # of connection points: 2
#     Edge 33, Type (0, 0), BuildingBlock: UVAHIK_clean_linker_0, # of connection points: 2
#     Edge 34, Type (0, 0), BuildingBlock: UVAHIK_clean_linker_0, # of connection points: 2
#     Edge 35, Type (0, 0), BuildingBlock: UVAHIK_clean_linker_0, # of connection points: 2
#     Edge 36, Type (0, 0), BuildingBlock: UVAHIK_clean_linker_0, # of connection points: 2
#     Edge 37, Type (0, 0), BuildingBlock: UVAHIK_clean_linker_0, # of connection points: 2
#     Edge 38, Type (0, 0), BuildingBlock: UVAHIK_clean_linker_0, # of connection points: 2
#     Edge 39, Type (0, 0), BuildingBlock: UVAHIK_clean_linker_0, # of connection points: 2
#     Edge 40, Type (0, 0), BuildingBlock: UVAHIK_clean_linker_0, # of connection points: 2
#     Edge 41, Type (0, 0), BuildingBlock: UVAHIK_clean_linker_0, # of connection points: 2
# Relax obj value: 0.360
# Max RMSD: 0.223
# Mean RMSD: 0.223
data_MOF--net-wka--node1-BEQFEK_clean_sbu_0--edge1-UVAHIK_clean_linker_0
_symmetry_space_group_name_H-M    P1
_symmetry_Int_Tables_number       1
_symmetry_cell_setting            triclinic
loop_
_symmetry_equiv_pos_as_xyz
'x, y, z'
_cell_length_a     87.781719
_cell_length_b     87.789245
_cell_length_c     21.708968
_cell_angle_alpha  90.023537
_cell_angle_beta   89.997407
_cell_angle_gamma 120.00858
loop_
_atom_site_label
_atom_site_type_symbol
_atom_site_fract_x
_atom_site_fract_y
_atom_site_fract_z
_atom_type_partial_charge
Co0 Co 0.11325 0.4462 0.98988 0.0
Co1 Co 0.0952 0.43747 0.11865 0.0
C2 C 0.07536 0.41773 0.00997 0.0
O3 O 0.08877 0.42769 0.97799 0.0
O4 O 0.07562 0.4193 0.06819 0.0
C5 C 0.12016 0.42974 0.89789 0.0
O6 O 0.11345 0.41781 0.94159 0.0
C7 C 0.08151 0.41856 0.23395 0.0
C8 C 0.08524 0.43989 0.29703 0.0
C9 C 0.08001 0.42216 0.29517 0.0
N10 N 0.08769 0.43354 0.20173 0.0
N11 N 0.08951 0.44617 0.23934 0.0
C12 C 0.07664 0.40116 0.20544 0.0
H13 H 0.08704 0.40263 0.17296 0.0
H14 H 0.07408 0.39099 0.24052 0.0
H15 H 0.06448 0.39668 0.17789 0.0
C16 C 0.13954 0.44115 0.05762 0.0
N17 N 0.12401 0.44071 0.05478 0.0
N18 N 0.11663 0.43702 0.10966 0.0
C19 C 0.12752 0.43532 0.1495 0.0
C20 C 0.14217 0.43758 0.11738 0.0
C21 C 0.15246 0.44665 0.00572 0.0
H22 H 0.15149 0.45643 0.97616 0.0
H23 H 0.14947 0.43495 0.97744 0.0
H24 H 0.16612 0.45238 0.0233 0.0
O25 O 0.11392 0.46876 0.0065 0.0
O26 O 0.10001 0.46144 0.0968 0.0
H27 H 0.11983 0.44106 0.23633 0.0
H28 H 0.13646 0.43477 0.24226 0.0
C29 C 0.12444 0.43235 0.21733 0.0
H30 H 0.11424 0.4185 0.22539 0.0
H31 H 0.09441 0.45923 0.22617 0.0
O32 O 0.12338 0.44528 0.90978 0.0
C33 C 0.10757 0.47246 0.05329 0.0
Co34 Co 0.66549 0.11372 0.15968 0.0
Co35 Co 0.65579 0.09497 0.28738 0.0
C36 C 0.6563 0.07577 0.17802 0.0
O37 O 0.6598 0.08933 0.14684 0.0
O38 O 0.65472 0.07569 0.2362 0.0
C39 C 0.68908 0.1212 0.06775 0.0
O40 O 0.69451 0.11459 0.11115 0.0
C41 C 0.66016 0.08061 0.40299 0.0
C42 C 0.64306 0.08526 0.46552 0.0
C43 C 0.65507 0.0794 0.46416 0.0
N44 N 0.65184 0.08727 0.37036 0.0
N45 N 0.6413 0.08961 0.40767 0.0
C46 C 0.67224 0.07509 0.37499 0.0
H47 H 0.68042 0.08451 0.33857 0.0
H48 H 0.68062 0.07366 0.41001 0.0
H49 H 0.66413 0.06214 0.35232 0.0
C50 C 0.69637 0.13991 0.22965 0.0
N51 N 0.6814 0.12431 0.22554 0.0
N52 N 0.67767 0.1165 0.27967 0.0
C53 C 0.69023 0.12708 0.32019 0.0
C54 C 0.70253 0.14213 0.2895 0.0
C55 C 0.70372 0.15318 0.17881 0.0
H56 H 0.69297 0.15208 0.14892 0.0
H57 H 0.71277 0.15068 0.15052 0.0
H58 H 0.71125 0.16674 0.19754 0.0
O59 O 0.64345 0.11406 0.17556 0.0
O60 O 0.63657 0.0997 0.26494 0.0
H61 H 0.67751 0.11911 0.40807 0.0
H62 H 0.70091 0.13417 0.41289 0.0
C63 C 0.69044 0.12296 0.38695 0.0
H64 H 0.69297 0.11188 0.39094 0.0
H65 H 0.63358 0.09498 0.39422 0.0
O66 O 0.67666 0.12423 0.08011 0.0
C67 C 0.63319 0.10739 0.22166 0.0
Co68 Co 0.55117 0.66633 0.33142 0.0
Co69 Co 0.55969 0.65607 0.45907 0.0
C70 C 0.57916 0.65617 0.34918 0.0
O71 O 0.56941 0.66014 0.31824 0.0
O72 O 0.57749 0.65431 0.40726 0.0
C73 C 0.5677 0.68975 0.23948 0.0
O74 O 0.57971 0.69487 0.2829 0.0
C75 C 0.57858 0.66082 0.57436 0.0
C76 C 0.55719 0.64288 0.63658 0.0
C77 C 0.57491 0.65548 0.63535 0.0
N78 N 0.56364 0.65209 0.54174 0.0
N79 N 0.55099 0.64106 0.57883 0.0
C80 C 0.59599 0.67353 0.5464 0.0
H81 H 0.60011 0.66615 0.51558 0.0
H82 H 0.5947 0.68317 0.51711 0.0
H83 H 0.60633 0.68037 0.58179 0.0
C84 C 0.55677 0.69749 0.40132 0.0
N85 N 0.55706 0.68235 0.39719 0.0
N86 N 0.56055 0.67823 0.45169 0.0
C87 C 0.56218 0.69057 0.49263 0.0
C88 C 0.56017 0.70326 0.4616 0.0
C89 C 0.55139 0.70525 0.3502 0.0
H90 H 0.54146 0.69469 0.32043 0.0
H91 H 0.5631 0.71388 0.32187 0.0
H92 H 0.54591 0.71332 0.36852 0.0
O93 O 0.52838 0.64464 0.34798 0.0
O94 O 0.5355 0.6374 0.4374 0.0
H95 H 0.55578 0.67624 0.57774 0.0
H96 H 0.56165 0.69898 0.5862 0.0
C97 C 0.56451 0.68978 0.56062 0.0
H98 H 0.57833 0.69357 0.57011 0.0
H99 H 0.53796 0.63292 0.56533 0.0
O100 O 0.5521 0.67764 0.25184 0.0
C101 C 0.52447 0.63439 0.39428 0.0
Co102 Co 0.88402 0.55182 0.48936 0.0
Co103 Co 0.90232 0.56061 0.6177 0.0
C104 C 0.92184 0.5804 0.50836 0.0
O105 O 0.90843 0.57038 0.47651 0.0
O106 O 0.92164 0.57881 0.56652 0.0
C107 C 0.87716 0.56809 0.39681 0.0
O108 O 0.88428 0.58021 0.43981 0.0
C109 C 0.91533 0.57989 0.73263 0.0
C110 C 0.91404 0.55942 0.79504 0.0
C111 C 0.91756 0.57668 0.79359 0.0
N112 N 0.9103 0.5651 0.70023 0.0
N113 N 0.90997 0.55303 0.7374 0.0
C114 C 0.9183 0.59676 0.70467 0.0
H115 H 0.90599 0.59481 0.68325 0.0
H116 H 0.92319 0.60754 0.73906 0.0
H117 H 0.92813 0.60063 0.66715 0.0
C118 C 0.85748 0.55627 0.55849 0.0
N119 N 0.87322 0.55715 0.55487 0.0
N120 N 0.88063 0.56063 0.60971 0.0
C121 C 0.86955 0.56171 0.65036 0.0
C122 C 0.85474 0.55932 0.61904 0.0
C123 C 0.84539 0.55251 0.50473 0.0
H124 H 0.84519 0.54201 0.47572 0.0
H125 H 0.85033 0.56457 0.47646 0.0
H126 H 0.83182 0.54858 0.51897 0.0
O127 O 0.88359 0.52934 0.50617 0.0
O128 O 0.89769 0.53672 0.59619 0.0
H129 H 0.87828 0.55505 0.73341 0.0
H130 H 0.85861 0.55639 0.74222 0.0
C131 C 0.87159 0.5623 0.71894 0.0
H132 H 0.87938 0.57616 0.73403 0.0
H133 H 0.90617 0.5402 0.72403 0.0
O134 O 0.87366 0.5525 0.40941 0.0
C135 C 0.89006 0.52567 0.55275 0.0
Co136 Co 0.33158 0.88468 0.66016 0.0
Co137 Co 0.34052 0.90313 0.78832 0.0
C138 C 0.34029 0.92245 0.67885 0.0
O139 O 0.33709 0.90902 0.64739 0.0
O140 O 0.34161 0.92239 0.73708 0.0
C141 C 0.30813 0.87716 0.56809 0.0
O142 O 0.30268 0.8837 0.61165 0.0
C143 C 0.33469 0.91652 0.90346 0.0
C144 C 0.35316 0.91407 0.96616 0.0
C145 C 0.34 0.91842 0.96454 0.0
N146 N 0.344 0.91092 0.87113 0.0
N147 N 0.35531 0.90987 0.9085 0.0
C148 C 0.32148 0.92046 0.87515 0.0
H149 H 0.32855 0.93223 0.84531 0.0
H150 H 0.31241 0.90947 0.84483 0.0
H151 H 0.31403 0.92321 0.91037 0.0
C152 C 0.30077 0.85792 0.72871 0.0
N153 N 0.31546 0.87378 0.72529 0.0
N154 N 0.31878 0.8815 0.77961 0.0
C155 C 0.30616 0.87062 0.81937 0.0
C156 C 0.29429 0.85558 0.78802 0.0
C157 C 0.29354 0.84495 0.67689 0.0
H158 H 0.30441 0.84593 0.64802 0.0
H159 H 0.28499 0.84796 0.64783 0.0
H160 H 0.28549 0.83131 0.69421 0.0
O161 O 0.35366 0.88451 0.67724 0.0
O162 O 0.35994 0.89858 0.76722 0.0
H163 H 0.31994 0.8792 0.90548 0.0
H164 H 0.2979 0.86077 0.91184 0.0
C165 C 0.30636 0.87336 0.88747 0.0
H166 H 0.3012 0.88231 0.89724 0.0
H167 H 0.36392 0.90554 0.89523 0.0
O168 O 0.32063 0.87422 0.58022 0.0
C169 C 0.36363 0.89107 0.72413 0.0
Co170 Co 0.44352 0.33101 0.83311 0.0
Co171 Co 0.43753 0.342 0.96344 0.0
C172 C 0.41709 0.34274 0.85714 0.0
O173 O 0.42545 0.33771 0.82311 0.0
O174 O 0.42015 0.34509 0.91453 0.0
C175 C 0.42596 0.30751 0.74196 0.0
O176 O 0.41412 0.30283 0.78579 0.0
C177 C 0.41922 0.33746 0.07929 0.0
C178 C 0.44094 0.35442 0.14219 0.0
C179 C 0.42306 0.34236 0.14056 0.0
N180 N 0.4342 0.34589 0.04679 0.0
N181 N 0.44707 0.35633 0.08428 0.0
C182 C 0.40165 0.32532 0.0511 0.0
H183 H 0.40224 0.31483 0.02458 0.0
H184 H 0.39106 0.31948 0.08617 0.0
H185 H 0.39842 0.33286 0.01774 0.0
C186 C 0.43795 0.29963 0.90164 0.0
N187 N 0.43799 0.31496 0.89859 0.0
N188 N 0.43549 0.3194 0.95406 0.0
C189 C 0.43417 0.30708 0.99447 0.0
C190 C 0.43535 0.29407 0.96222 0.0
C191 C 0.44248 0.29156 0.8491 0.0
H192 H 0.45235 0.30198 0.81874 0.0
H193 H 0.43043 0.28323 0.82183 0.0
H194 H 0.44774 0.28315 0.86584 0.0
O195 O 0.46689 0.35245 0.84746 0.0
O196 O 0.46172 0.35986 0.94011 0.0
H197 H 0.44274 0.32177 0.07874 0.0
H198 H 0.43568 0.29872 0.08729 0.0
C199 C 0.43313 0.30831 0.06297 0.0
H200 H 0.41975 0.3054 0.0756 0.0
H201 H 0.46017 0.36413 0.07085 0.0
O202 O 0.4417 0.31946 0.75336 0.0
C203 C 0.47191 0.36258 0.89446 0.0
Co204 Co 0.55311 0.88398 0.83525 0.0
Co205 Co 0.56116 0.90299 0.70813 0.0
C206 C 0.58184 0.9217 0.81758 0.0
O207 O 0.57209 0.90805 0.84871 0.0
O208 O 0.57964 0.92205 0.75989 0.0
C209 C 0.5693 0.87646 0.92685 0.0
O210 O 0.58149 0.88359 0.88411 0.0
C211 C 0.57998 0.91599 0.59245 0.0
C212 C 0.55947 0.91532 0.53181 0.0
C213 C 0.57655 0.91832 0.53184 0.0
N214 N 0.56544 0.91134 0.62594 0.0
N215 N 0.55336 0.91139 0.58983 0.0
C216 C 0.59679 0.91836 0.61893 0.0
H217 H 0.59504 0.90547 0.63321 0.0
H218 H 0.60778 0.92471 0.58546 0.0
H219 H 0.6002 0.92662 0.66095 0.0
C220 C 0.55664 0.8576 0.76215 0.0
N221 N 0.55787 0.87345 0.76778 0.0
N222 N 0.56088 0.88106 0.71337 0.0
C223 C 0.56118 0.86994 0.67095 0.0
C224 C 0.55885 0.85494 0.70064 0.0
C225 C 0.5532 0.84529 0.81494 0.0
H226 H 0.54263 0.84471 0.84456 0.0
H227 H 0.56532 0.85034 0.84301 0.0
H228 H 0.54956 0.83187 0.79969 0.0
O229 O 0.53077 0.8841 0.82115 0.0
O230 O 0.53745 0.8985 0.73175 0.0
H231 H 0.55357 0.87909 0.59115 0.0
H232 H 0.55405 0.85905 0.57925 0.0
C233 C 0.56069 0.87204 0.60264 0.0
H234 H 0.57429 0.87948 0.58476 0.0
H235 H 0.54068 0.90789 0.60412 0.0
O236 O 0.55376 0.87308 0.91399 0.0
C237 C 0.52678 0.89077 0.77605 0.0
Co238 Co 0.66819 0.5519 -0.00278 0.0
Co239 Co 0.65638 0.56016 0.87273 0.0
C240 C 0.65668 0.57896 0.98505 0.0
O241 O 0.66128 0.56951 0.01479 0.0
O242 O 0.65462 0.57742 0.92703 0.0
C243 C 0.69151 0.56767 0.09104 0.0
O244 O 0.69679 0.58043 0.05043 0.0
C245 C 0.65937 0.5791 0.75891 0.0
C246 C 0.63958 0.55794 0.70004 0.0
C247 C 0.65244 0.57556 0.69983 0.0
N248 N 0.65117 0.56419 0.7919 0.0
N249 N 0.63909 0.55168 0.75691 0.0
C250 C 0.67296 0.59643 0.78502 0.0
H251 H 0.6808 0.59445 0.82094 0.0
H252 H 0.68166 0.6055 0.74879 0.0
H253 H 0.66612 0.60268 0.8076 0.0
C254 C 0.69924 0.55897 0.92323 0.0
N255 N 0.6838 0.55855 0.9298 0.0
N256 N 0.67893 0.56181 0.87631 0.0
C257 C 0.69108 0.56403 0.83361 0.0
C258 C 0.70442 0.56263 0.86239 0.0
C259 C 0.70788 0.55402 0.97257 0.0
H260 H 0.69779 0.54359 0.00232 0.0
H261 H 0.71616 0.56573 0.00141 0.0
H262 H 0.71644 0.54933 0.95252 0.0
O263 O 0.64681 0.52887 0.98141 0.0
O264 O 0.63827 0.53573 0.89436 0.0
H265 H 0.67589 0.55783 0.7504 0.0
H266 H 0.69854 0.56371 0.73861 0.0
C267 C 0.68959 0.56651 0.76613 0.0
H268 H 0.69332 0.58037 0.75771 0.0
H269 H 0.63097 0.53869 0.77115 0.0
O270 O 0.67985 0.55223 0.07496 0.0
C271 C 0.636 0.52475 0.93675 0.0
Co272 Co 0.11408 0.66841 0.16698 0.0
Co273 Co 0.09474 0.65806 0.04022 0.0
C274 C 0.07632 0.65981 0.1503 0.0
O275 O 0.09002 0.66347 0.18082 0.0
O276 O 0.07579 0.65746 0.09243 0.0
C277 C 0.12212 0.69225 0.25858 0.0
O278 O 0.1155 0.69774 0.21544 0.0
C279 C 0.08102 0.6632 0.92455 0.0
C280 C 0.08299 0.64412 0.8636 0.0
C281 C 0.07897 0.65752 0.86384 0.0
N282 N 0.08645 0.65392 0.95788 0.0
N283 N 0.08717 0.64223 0.92156 0.0
C284 C 0.07748 0.67684 0.95151 0.0
H285 H 0.08936 0.68709 0.97543 0.0
H286 H 0.07304 0.68288 0.91611 0.0
H287 H 0.06705 0.67054 0.98699 0.0
C288 C 0.14045 0.69841 0.09449 0.0
N289 N 0.12459 0.6838 0.09992 0.0
N290 N 0.11661 0.6798 0.04603 0.0
C291 C 0.12736 0.69185 0.00441 0.0
C292 C 0.14257 0.70409 0.03412 0.0
C293 C 0.15354 0.70636 0.14573 0.0
H294 H 0.15299 0.69586 0.17563 0.0
H295 H 0.15023 0.71484 0.17397 0.0
H296 H 0.1671 0.71464 0.12798 0.0
O297 O 0.11381 0.64599 0.15213 0.0
O298 O 0.09924 0.63873 0.06309 0.0
H299 H 0.11812 0.67674 0.92099 0.0
H300 H 0.13711 0.69826 0.91108 0.0
C301 C 0.12449 0.69061 0.93622 0.0
H302 H 0.11602 0.69618 0.9242 0.0
H303 H 0.09136 0.63356 0.93568 0.0
O304 O 0.12507 0.67979 0.24587 0.0
C305 C 0.10697 0.6355 0.10668 0.0
Co306 Co 0.44361 0.1138 0.33518 0.0
Co307 Co 0.4347 0.09455 0.20831 0.0
C308 C 0.41435 0.0762 0.31848 0.0
O309 O 0.42444 0.08983 0.34922 0.0
O310 O 0.41621 0.07574 0.26063 0.0
C311 C 0.42786 0.1217 0.42714 0.0
O312 O 0.41566 0.11481 0.38436 0.0
C313 C 0.41562 0.08149 0.09289 0.0
C314 C 0.43598 0.08187 0.03215 0.0
C315 C 0.41894 0.079 0.0323 0.0
N316 N 0.43018 0.0861 0.12623 0.0
N317 N 0.44216 0.08587 0.09006 0.0
C318 C 0.39888 0.07925 0.11954 0.0
H319 H 0.39522 0.07058 0.16056 0.0
H320 H 0.40086 0.0921 0.13558 0.0
H321 H 0.38795 0.07337 0.08568 0.0
C322 C 0.44026 0.14037 0.26249 0.0
N323 N 0.43881 0.12442 0.26801 0.0
N324 N 0.43536 0.11667 0.21375 0.0
C325 C 0.43496 0.12777 0.17153 0.0
C326 C 0.4377 0.14293 0.20122 0.0
C327 C 0.4442 0.15284 0.31514 0.0
H328 H 0.43218 0.14819 0.34353 0.0
H329 H 0.44822 0.16635 0.2997 0.0
H330 H 0.45467 0.15311 0.3445 0.0
O331 O 0.46575 0.11334 0.32004 0.0
O332 O 0.45834 0.09874 0.23098 0.0
H333 H 0.44149 0.13837 0.07934 0.0
H334 H 0.42116 0.11811 0.08655 0.0
C335 C 0.4349 0.12545 0.10317 0.0
H336 H 0.44178 0.11822 0.09084 0.0
H337 H 0.45483 0.08929 0.10424 0.0
O338 O 0.44331 0.12482 0.41414 0.0
C339 C 0.46932 0.10643 0.27455 0.0
Co340 Co 0.32813 0.44355 0.49267 0.0
Co341 Co 0.34148 0.4375 0.36759 0.0
C342 C 0.3404 0.41736 0.47821 0.0
O343 O 0.33462 0.4256 0.50924 0.0
O344 O 0.34374 0.4204 0.42121 0.0
C345 C 0.30455 0.42724 0.58563 0.0
O346 O 0.30005 0.41437 0.54595 0.0
C347 C 0.33795 0.41887 0.25316 0.0
C348 C 0.35901 0.43946 0.19621 0.0
C349 C 0.34515 0.42226 0.19454 0.0
N350 N 0.34689 0.43349 0.2872 0.0
N351 N 0.35973 0.44563 0.25343 0.0
C352 C 0.32314 0.40194 0.27741 0.0
H353 H 0.31141 0.40329 0.28558 0.0
H354 H 0.31971 0.39091 0.24497 0.0
H355 H 0.32695 0.3989 0.3225 0.0
C356 C 0.29812 0.43805 0.41596 0.0
N357 N 0.31319 0.43777 0.42357 0.0
N358 N 0.31884 0.43571 0.36973 0.0
C359 C 0.30767 0.43513 0.32567 0.0
C360 C 0.29409 0.4363 0.3537 0.0
C361 C 0.28824 0.44062 0.46745 0.0
H362 H 0.29742 0.45216 0.49555 0.0
H363 H 0.28251 0.42885 0.49749 0.0
H364 H 0.27727 0.44234 0.45092 0.0
O365 O 0.34986 0.46684 0.4801 0.0
O366 O 0.35908 0.46174 0.39097 0.0
H367 H 0.30545 0.44382 0.2348 0.0
H368 H 0.30552 0.4235 0.23719 0.0
C369 C 0.31141 0.43677 0.25791 0.0
H370 H 0.32575 0.44402 0.24923 0.0
H371 H 0.36851 0.45835 0.26868 0.0
O372 O 0.31586 0.4428 0.5694 0.0
C373 C 0.36088 0.4719 0.43572 0.0
Co374 Co 0.88296 0.32945 0.66738 0.0
Co375 Co 0.90234 0.34007 0.5407 0.0
C376 C 0.92098 0.3387 0.65039 0.0
O377 O 0.9072 0.33486 0.68073 0.0
O378 O 0.92153 0.34101 0.59246 0.0
C379 C 0.8754 0.30565 0.75887 0.0
O380 O 0.882 0.30023 0.71543 0.0
C381 C 0.91714 0.33648 0.42469 0.0
C382 C 0.91233 0.35369 0.36334 0.0
C383 C 0.91835 0.34179 0.36379 0.0
N384 N 0.91031 0.34452 0.45798 0.0
N385 N 0.90788 0.35514 0.42138 0.0
C386 C 0.92281 0.32442 0.45186 0.0
H387 H 0.91296 0.31545 0.48579 0.0
H388 H 0.92522 0.31686 0.41606 0.0
H389 H 0.93526 0.33249 0.4775 0.0
C390 C 0.85718 0.299 0.595 0.0
N391 N 0.87273 0.31397 0.60037 0.0
N392 N 0.88078 0.31807 0.54664 0.0
C393 C 0.87037 0.30577 0.50506 0.0
C394 C 0.85522 0.29324 0.53467 0.0
C395 C 0.84374 0.29128 0.64521 0.0
H396 H 0.84467 0.30182 0.67585 0.0
H397 H 0.84623 0.28213 0.67292 0.0
H398 H 0.83025 0.28378 0.62589 0.0
O399 O 0.8827 0.3516 0.65292 0.0
O400 O 0.8974 0.35906 0.56421 0.0
H401 H 0.87852 0.31913 0.41833 0.0
H402 H 0.86358 0.29575 0.41148 0.0
C403 C 0.87469 0.30608 0.43823 0.0
H404 H 0.88584 0.30367 0.43379 0.0
H405 H 0.90236 0.36269 0.43541 0.0
O406 O 0.87222 0.31796 0.74637 0.0
C407 C 0.8895 0.36214 0.60759 0.0
C408 C 0.10611 0.61092 0.04585 0.0
C409 C 0.10829 0.61938 0.10289 0.0
C410 C 0.10734 0.59571 0.0415 0.0
C411 C 0.10089 0.55784 0.12897 0.0
H412 H 0.12992 0.5533 0.00383 0.0
C413 C 0.1081 0.49637 0.11699 0.0
C414 C 0.10913 0.48997 0.05872 0.0
C415 C 0.10912 0.51267 0.123 0.0
C416 C 0.12154 0.55423 0.03847 0.0
H417 H 0.11346 0.6185 0.20012 0.0
H418 H 0.11518 0.59154 0.19261 0.0
H419 H 0.12955 0.58082 0.01347 0.0
H420 H 0.11213 0.49569 0.96097 0.0
H421 H 0.11321 0.52391 0.971 0.0
H422 H 0.09226 0.53116 0.15267 0.0
C423 C 0.11266 0.59686 0.15134 0.0
C424 C 0.12144 0.57004 0.04418 0.0
C425 C 0.11173 0.61228 0.15556 0.0
C426 C 0.11137 0.50032 0.0065 0.0
C427 C 0.11209 0.51655 0.0124 0.0
C428 C 0.10077 0.54195 0.12268 0.0
C429 C 0.11051 0.58848 0.09421 0.0
C430 C 0.11112 0.57197 0.08949 0.0
C431 C 0.11087 0.5229 0.07077 0.0
C432 C 0.11111 0.53991 0.07739 0.0
H433 H 0.10355 0.6161 0.00431 0.0
H434 H 0.10548 0.58941 -0.00297 0.0
H435 H 0.09262 0.55893 0.1637 0.0
H436 H 0.10663 0.48883 0.15827 0.0
H437 H 0.1086 0.51726 0.16882 0.0
C438 C 0.49306 0.10614 0.21249 0.0
C439 C 0.48673 0.1077 0.2702 0.0
C440 C 0.50936 0.10713 0.20726 0.0
C441 C 0.55115 0.12075 0.29176 0.0
H442 H 0.55609 0.09126 0.16945 0.0
C443 C 0.609 0.10689 0.2839 0.0
C444 C 0.61709 0.10873 0.22631 0.0
C445 C 0.59366 0.10785 0.2889 0.0
C446 C 0.55493 0.09968 0.20336 0.0
H447 H 0.49255 0.1116 0.3678 0.0
H448 H 0.5208 0.11264 0.35921 0.0
H449 H 0.52803 0.09029 0.18067 0.0
H450 H 0.61547 0.11311 0.12884 0.0
H451 H 0.58828 0.11437 0.1375 0.0
H452 H 0.578 0.12954 0.31576 0.0
C453 C 0.51337 0.1111 0.31761 0.0
C454 C 0.53887 0.09921 0.20976 0.0
C455 C 0.49712 0.1104 0.3227 0.0
C456 C 0.60955 0.11166 0.1738 0.0
C457 C 0.59399 0.11231 0.17869 0.0
C458 C 0.56714 0.121 0.28597 0.0
C459 C 0.51966 0.10941 0.25977 0.0
C460 C 0.53677 0.1098 0.25383 0.0
C461 C 0.58592 0.1104 0.23631 0.0
C462 C 0.56917 0.11051 0.24157 0.0
H463 H 0.48549 0.10432 0.17096 0.0
H464 H 0.51391 0.10625 0.16176 0.0
H465 H 0.55017 0.1293 0.32548 0.0
H466 H 0.61455 0.10473 0.32531 0.0
H467 H 0.58762 0.10621 0.33376 0.0
C468 C 0.38444 0.49749 0.37859 0.0
C469 C 0.37612 0.48998 0.43483 0.0
C470 C 0.3993 0.51422 0.37694 0.0
C471 C 0.43701 0.54392 0.46796 0.0
H472 H 0.44241 0.57917 0.34868 0.0
C473 C 0.50035 0.61126 0.45804 0.0
C474 C 0.50666 0.61886 0.39991 0.0
C475 C 0.48368 0.59648 0.4643 0.0
C476 C 0.44122 0.5694 0.38174 0.0
H477 H 0.37671 0.49421 0.53339 0.0
H478 H 0.40313 0.52348 0.53058 0.0
H479 H 0.41437 0.55173 0.35672 0.0
H480 H 0.50038 0.61696 0.3027 0.0
H481 H 0.47148 0.59065 0.31307 0.0
H482 H 0.46395 0.56102 0.4913 0.0
C483 C 0.39795 0.51636 0.48785 0.0
C484 C 0.42512 0.55376 0.38662 0.0
C485 C 0.38284 0.49968 0.48941 0.0
C486 C 0.49585 0.61142 0.34811 0.0
C487 C 0.47923 0.5964 0.35422 0.0
C488 C 0.45318 0.55943 0.46251 0.0
C489 C 0.40634 0.52372 0.43156 0.0
C490 C 0.42291 0.54084 0.42955 0.0
C491 C 0.47297 0.58868 0.41244 0.0
C492 C 0.45555 0.57236 0.41912 0.0
H493 H 0.37951 0.49039 0.33566 0.0
H494 H 0.4056 0.51953 0.33303 0.0
H495 H 0.43572 0.53404 0.50076 0.0
H496 H 0.50825 0.61684 0.49906 0.0
H497 H 0.4792 0.59122 0.51003 0.0
C498 C 0.88989 0.38642 0.54651 0.0
C499 C 0.88798 0.37814 0.60372 0.0
C500 C 0.88867 0.40163 0.5421 0.0
C501 C 0.89591 0.43985 0.62893 0.0
H502 H 0.86664 0.4445 0.50506 0.0
C503 C 0.88965 0.50185 0.61652 0.0
C504 C 0.88844 0.50813 0.55825 0.0
C505 C 0.88845 0.48548 0.62271 0.0
C506 C 0.87509 0.44354 0.53933 0.0
H507 H 0.88323 0.37928 0.70117 0.0
H508 H 0.88153 0.40626 0.69356 0.0
H509 H 0.8666 0.41678 0.51511 0.0
H510 H 0.88495 0.50214 0.46072 0.0
H511 H 0.88356 0.47377 0.47104 0.0
H512 H 0.90503 0.46669 0.65177 0.0
C513 C 0.88383 0.4008 0.6522 0.0
C514 C 0.87494 0.42761 0.5453 0.0
C515 C 0.88475 0.38537 0.65649 0.0
C516 C 0.88587 0.49761 0.50623 0.0
C517 C 0.88496 0.4813 0.5123 0.0
C518 C 0.89627 0.45585 0.62237 0.0
C519 C 0.88578 0.40904 0.59492 0.0
C520 C 0.88535 0.42564 0.59016 0.0
C521 C 0.88633 0.47506 0.57068 0.0
C522 C 0.88585 0.45793 0.57752 0.0
H523 H 0.89228 0.38113 0.5049 0.0
H524 H 0.89035 0.40781 0.49751 0.0
H525 H 0.90426 0.43873 0.66326 0.0
H526 H 0.89137 0.50953 0.65768 0.0
H527 H 0.8891 0.48099 0.66855 0.0
C528 C 0.38724 0.89119 0.78859 0.0
C529 C 0.37966 0.88965 0.73026 0.0
C530 C 0.40241 0.88999 0.7952 0.0
C531 C 0.4306 0.8759 0.71312 0.0
H532 H 0.46509 0.90568 0.83477 0.0
C533 C 0.50252 0.8909 0.71654 0.0
C534 C 0.50923 0.88925 0.7734 0.0
C535 C 0.48605 0.88963 0.71316 0.0
C536 C 0.45548 0.89716 0.80112 0.0
H537 H 0.38204 0.88566 0.63304 0.0
H538 H 0.40899 0.88428 0.64406 0.0
H539 H 0.43788 0.90645 0.82375 0.0
H540 H 0.50394 0.88494 0.8713 0.0
H541 H 0.47518 0.88315 0.86545 0.0
H542 H 0.44874 0.86724 0.68901 0.0
C543 C 0.40294 0.88591 0.68509 0.0
C544 C 0.43983 0.89753 0.79482 0.0
C545 C 0.38755 0.88682 0.67861 0.0
C546 C 0.49909 0.88625 0.82687 0.0
C547 C 0.48271 0.88529 0.82359 0.0
C548 C 0.44638 0.87575 0.71882 0.0
C549 C 0.4106 0.88753 0.74352 0.0
C550 C 0.42718 0.88693 0.75065 0.0
C551 C 0.47606 0.88695 0.76664 0.0
C552 C 0.45897 0.88641 0.76276 0.0
H553 H 0.38133 0.89313 0.82947 0.0
H554 H 0.40763 0.89088 0.84109 0.0
H555 H 0.42106 0.86729 0.67948 0.0
H556 H 0.50995 0.89311 0.67441 0.0
H557 H 0.48128 0.8911 0.66879 0.0
C558 C 0.61169 0.50052 0.87659 0.0
C559 C 0.6205 0.50686 0.93304 0.0
C560 C 0.59672 0.48388 0.87277 0.0
C561 C 0.55994 0.4523 0.96419 0.0
H562 H 0.55318 0.41921 0.834 0.0
C563 C 0.49754 0.38455 0.95556 0.0
C564 C 0.49 0.37773 0.89777 0.0
C565 C 0.51425 0.39934 0.95998 0.0
C566 C 0.55475 0.42838 0.87018 0.0
H567 H 0.62064 0.50061 0.02959 0.0
H568 H 0.59414 0.47157 0.02306 0.0
H569 H 0.58108 0.44686 0.84186 0.0
H570 H 0.49418 0.38086 0.79918 0.0
H571 H 0.52322 0.40722 0.80663 0.0
H572 H 0.53352 0.43441 0.99131 0.0
C573 C 0.59897 0.47952 0.98182 0.0
C574 C 0.57077 0.44415 0.87485 0.0
C575 C 0.61414 0.49609 0.98549 0.0
C576 C 0.49969 0.38582 0.84433 0.0
C577 C 0.51637 0.40087 0.84872 0.0
C578 C 0.54386 0.43669 0.95906 0.0
C579 C 0.59009 0.47332 0.92545 0.0
C580 C 0.57349 0.45624 0.92191 0.0
C581 C 0.52377 0.40794 0.9067 0.0
C582 C 0.54104 0.42449 0.91204 0.0
H583 H 0.61632 0.50844 0.83522 0.0
H584 H 0.59004 0.47947 0.82888 0.0
H585 H 0.56159 0.46155 0.00026 0.0
H586 H 0.49051 0.37843 -0.00232 0.0
H587 H 0.51966 0.40405 0.00541 0.0
C588 C 0.04351 0.39387 0.00905 0.0
C589 C 0.05929 0.4046 0.97741 0.0
C590 C 0.02817 0.38256 0.97644 0.0
C591 C 0.01171 0.36332 0.82 0.0
H592 H 0.96995 0.36426 0.87184 0.0
C593 C 0.9535 0.35006 0.65947 0.0
C594 C 0.93653 0.34108 0.68499 0.0
C595 C 0.96821 0.35422 0.69616 0.0
C596 C 0.98141 0.36362 0.8572 0.0
H597 H 0.0715 0.41122 0.88683 0.0
H598 H 0.04493 0.39209 0.83064 0.0
H599 H 0.99601 0.37777 0.93651 0.0
H600 H 0.92158 0.32814 0.76747 0.0
H601 H 0.94712 0.33538 0.83076 0.0
H602 H 0.99717 0.34985 0.73907 0.0
C603 C 0.0443 0.39208 0.88046 0.0
C604 C 0.99635 0.3713 0.89448 0.0
C605 C 0.05956 0.40326 0.91287 0.0
C606 C 0.9345 0.33538 0.74659 0.0
C607 C 0.94912 0.33953 0.78301 0.0
C608 C 0.99678 0.35577 0.78238 0.0
C609 C 0.02833 0.3818 0.91161 0.0
C610 C 0.01181 0.37155 0.87585 0.0
C611 C 0.96614 0.34945 0.7588 0.0
C612 C 0.98157 0.35608 0.80025 0.0
H613 H 0.04291 0.39448 0.05877 0.0
H614 H 0.01614 0.37461 0.00194 0.0
H615 H 0.02329 0.363 0.80475 0.0
H616 H 0.95547 0.35455 0.61214 0.0
H617 H 0.98121 0.36194 0.67637 0.0
C618 C 0.60271 0.9543 0.82544 0.0
C619 C 0.59524 0.93738 0.85105 0.0
C620 C 0.6133 0.96913 0.86161 0.0
C621 C 0.61775 0.98225 0.02276 0.0
H622 H 0.65927 0.02482 0.96862 0.0
C623 C 0.64897 0.04413 0.17548 0.0
C624 C 0.65356 0.0599 0.14452 0.0
C625 C 0.64516 0.02897 0.14217 0.0
C626 C 0.64763 0.01305 0.98435 0.0
H627 H 0.59427 0.92264 0.93285 0.0
H628 H 0.61266 0.94837 0.99524 0.0
H629 H 0.64656 0.99875 0.90272 0.0
H630 H 0.65853 0.07227 0.05436 0.0
H631 H 0.65141 0.04596 -0.00305 0.0
H632 H 0.61818 0.99658 0.10279 0.0
C633 C 0.61006 0.95024 0.94788 0.0
C634 C 0.6404 0.99814 0.9466 0.0
C635 C 0.59953 0.93552 0.91198 0.0
C636 C 0.65492 0.06034 0.07989 0.0
C637 C 0.65102 0.04523 0.04676 0.0
C638 C 0.62485 0.99716 0.06015 0.0
C639 C 0.61657 0.9672 0.92378 0.0
C640 C 0.62525 0.98267 0.96514 0.0
C641 C 0.6458 0.02927 0.07729 0.0
C642 C 0.6397 0.01285 0.04099 0.0
H643 H 0.59968 0.95614 0.7786 0.0
H644 H 0.61813 0.98208 0.84193 0.0
H645 H 0.60591 0.97058 0.03792 0.0
H646 H 0.64799 0.04341 0.22525 0.0
H647 H 0.64146 0.01694 0.1672 0.0
C648 C 0.59976 0.64409 0.34167 0.0
C649 C 0.59207 0.65324 0.31522 0.0
C650 C 0.61014 0.63953 0.3057 0.0
C651 C 0.61412 0.6297 0.14514 0.0
H652 H 0.65671 0.63059 0.19813 0.0
C653 C 0.6476 0.60195 0.99004 0.0
C654 C 0.65309 0.59132 0.0199 0.0
C655 C 0.64298 0.61253 0.02437 0.0
C656 C 0.64477 0.63016 0.18279 0.0
H657 H 0.59042 0.66605 0.23181 0.0
H658 H 0.60843 0.65815 0.16985 0.0
H659 H 0.64342 0.64339 0.264 0.0
H660 H 0.65877 0.58409 0.1092 0.0
H661 H 0.65028 0.60199 0.16848 0.0
H662 H 0.61491 0.61591 0.06536 0.0
C663 C 0.60616 0.65415 0.21774 0.0
C664 C 0.6372 0.63751 0.22052 0.0
C665 C 0.59585 0.65867 0.25341 0.0
C666 C 0.65449 0.59202 0.08454 0.0
C667 C 0.64978 0.60247 0.11871 0.0
C668 C 0.62157 0.62224 0.10776 0.0
C669 C 0.61298 0.64409 0.2429 0.0
C670 C 0.62172 0.63721 0.20223 0.0
C671 C 0.64368 0.61263 0.08922 0.0
C672 C 0.63687 0.62218 0.12637 0.0
H673 H 0.59715 0.6398 0.3892 0.0
H674 H 0.61523 0.63173 0.32622 0.0
H675 H 0.60203 0.62904 0.13024 0.0
H676 H 0.64654 0.60185 0.94031 0.0
H677 H 0.63862 0.62045 0.00011 0.0
C678 C 0.9536 0.60446 0.5075 0.0
C679 C 0.93787 0.5936 0.47578 0.0
C680 C 0.96891 0.61586 0.47497 0.0
C681 C 0.9854 0.63506 0.31859 0.0
H682 H 0.02731 0.63455 0.37125 0.0
C683 C 0.04383 0.64861 0.15891 0.0
C684 C 0.06078 0.65757 0.18462 0.0
C685 C 0.02909 0.64447 0.19541 0.0
C686 C 0.01581 0.63508 0.35639 0.0
H687 H 0.92571 0.58681 0.38514 0.0
H688 H 0.95226 0.60609 0.32905 0.0
H689 H 0.0012 0.62089 0.43556 0.0
H690 H 0.07567 0.67052 0.2672 0.0
H691 H 0.05009 0.66334 0.33016 0.0
H692 H -4e-05 0.64859 0.23781 0.0
C693 C 0.95286 0.60614 0.37888 0.0
C694 C 0.00083 0.6273 0.39345 0.0
C695 C 0.93762 0.59488 0.41122 0.0
C696 C 0.06277 0.66329 0.24618 0.0
C697 C 0.04812 0.65918 0.28242 0.0
C698 C 0.00037 0.64272 0.28119 0.0
C699 C 0.96879 0.61656 0.41013 0.0
C700 C 0.98532 0.62689 0.37453 0.0
C701 C 0.03111 0.64925 0.25804 0.0
C702 C 0.01564 0.64257 0.29935 0.0
H703 H 0.95419 0.60391 0.55723 0.0
H704 H 0.98091 0.62391 0.50055 0.0
H705 H 0.97377 0.63526 0.30311 0.0
H706 H 0.04189 0.64409 0.1116 0.0
H707 H 0.01611 0.63675 0.17547 0.0
C708 C 0.39313 0.0437 0.32706 0.0
C709 C 0.40095 0.06067 0.35253 0.0
C710 C 0.38252 0.02899 0.3636 0.0
C711 C 0.37849 0.01602 0.52493 0.0
H712 H 0.33676 0.97353 0.47144 0.0
C713 C 0.34748 0.95405 0.67704 0.0
C714 C 0.34293 0.93833 0.64572 0.0
C715 C 0.35121 0.96924 0.64409 0.0
C716 C 0.34844 0.98529 0.48699 0.0
H717 H 0.40253 0.07563 0.43451 0.0
H718 H 0.38409 0.05007 0.49754 0.0
H719 H 0.34937 -0.00038 0.40568 0.0
H720 H 0.33793 0.92606 0.55533 0.0
H721 H 0.34486 0.95241 0.49852 0.0
H722 H 0.37819 0.00165 0.60463 0.0
C723 C 0.38644 0.04807 0.45001 0.0
C724 C 0.35563 0.0002 0.44932 0.0
C725 C 0.39699 0.0627 0.41375 0.0
C726 C 0.34151 0.93796 0.58112 0.0
C727 C 0.34531 0.95308 0.54835 0.0
C728 C 0.37143 0.00111 0.56225 0.0
C729 C 0.37957 0.03105 0.426 0.0
C730 C 0.37088 0.01563 0.46756 0.0
C731 C 0.3505 0.969 0.57923 0.0
C732 C 0.35651 0.98544 0.54326 0.0
H733 H 0.39589 0.04174 0.28001 0.0
H734 H 0.37743 0.01599 0.34395 0.0
H735 H 0.39041 0.02766 0.53986 0.0
H736 H 0.34852 0.95472 0.7268 0.0
H737 H 0.35491 0.98123 0.66937 0.0
C738 C 0.40249 0.36087 0.84798 0.0
C739 C 0.4044 0.34674 0.82754 0.0
C740 C 0.39288 0.36652 0.81288 0.0
C741 C 0.35953 0.35471 0.69397 0.0
H742 H 0.3882 0.40268 0.63583 0.0
C743 C 0.3352 0.39682 0.56517 0.0
C744 C 0.34444 0.40512 0.51107 0.0
C745 C 0.34062 0.38738 0.60202 0.0
C746 C 0.3801 0.38926 0.65166 0.0
H747 H 0.3968 0.32663 0.75733 0.0
H748 H 0.37953 0.33617 0.69729 0.0
H749 H 0.40034 0.39076 0.71077 0.0
H750 H 0.36612 0.40953 0.45174 0.0
H751 H 0.37595 0.39339 0.51753 0.0
H752 H 0.33916 0.35338 0.63545 0.0
C753 C 0.38565 0.343 0.73973 0.0
C754 C 0.38694 0.38254 0.69489 0.0
C755 C 0.39557 0.33761 0.77393 0.0
C756 C 0.35873 0.40318 0.49302 0.0
C757 C 0.3644 0.39406 0.53068 0.0
C758 C 0.35253 0.36158 0.65166 0.0
C759 C 0.38471 0.35783 0.75786 0.0
C760 C 0.37677 0.36519 0.71607 0.0
C761 C 0.35558 0.38641 0.58602 0.0
C762 C 0.36286 0.37885 0.62974 0.0
H763 H 0.40925 0.36816 0.88897 0.0
H764 H 0.39226 0.37799 0.82765 0.0
H765 H 0.35151 0.34126 0.70956 0.0
H766 H 0.32409 0.39809 0.58003 0.0
H767 H 0.33368 0.38164 0.64463 0.0
C768 C 0.16202 0.42502 0.11858 0.0
C769 C 0.15772 0.43733 0.14129 0.0
C770 C 0.17702 0.42499 0.13979 0.0
C771 C 0.20924 0.44126 0.26795 0.0
H772 H 0.23739 0.43139 0.15456 0.0
C773 C 0.27706 0.45163 0.3346 0.0
C774 C 0.27964 0.43736 0.32316 0.0
C775 C 0.26261 0.45196 0.30946 0.0
C776 C 0.22958 0.43406 0.18672 0.0
H777 H 0.16573 0.45964 0.20176 0.0
H778 H 0.1922 0.45992 0.2383 0.0
H779 H 0.21111 0.4313 0.11717 0.0
H780 H 0.27009 0.41288 0.27344 0.0
H781 H 0.24476 0.4135 0.22849 0.0
H782 H 0.2279 0.44429 0.3372 0.0
C783 C 0.18378 0.4499 0.20561 0.0
C784 C 0.2145 0.43395 0.16547 0.0
C785 C 0.16869 0.44981 0.18473 0.0
C786 C 0.26818 0.42392 0.28326 0.0
C787 C 0.25378 0.42431 0.25757 0.0
C788 C 0.2244 0.44154 0.28899 0.0
C789 C 0.18811 0.43746 0.18349 0.0
C790 C 0.20414 0.43754 0.20587 0.0
C791 C 0.25067 0.43815 0.27155 0.0
C792 C 0.23471 0.43795 0.2486 0.0
H793 H 0.15369 0.41535 0.0847 0.0
H794 H 0.17981 0.41508 0.12238 0.0
H795 H 0.20141 0.44373 0.30062 0.0
H796 H 0.2861 0.46241 0.36374 0.0
H797 H 0.26072 0.46297 0.31988 0.0
C798 C 0.73478 0.1631 0.28759 0.0
C799 C 0.71832 0.15749 0.3147 0.0
C800 C 0.74979 0.17771 0.31097 0.0
C801 C 0.76709 0.20481 0.45072 0.0
H802 H 0.8016 0.23917 0.33881 0.0
C803 C 0.83421 0.261 0.53396 0.0
C804 C 0.83994 0.27763 0.50814 0.0
C805 C 0.81953 0.24619 0.50989 0.0
C806 C 0.79203 0.22973 0.37061 0.0
H807 H 0.70431 0.16292 0.3854 0.0
H808 H 0.73058 0.18848 0.42678 0.0
H809 H 0.7754 0.21367 0.29747 0.0
H810 H 0.8347 0.29213 0.43884 0.0
H811 H 0.80902 0.2662 0.39625 0.0
H812 H 0.78355 0.22102 0.52387 0.0
C813 C 0.73199 0.18141 0.38835 0.0
C814 C 0.77713 0.21505 0.34696 0.0
C815 C 0.71698 0.16682 0.36482 0.0
C816 C 0.83071 0.27932 0.45842 0.0
C817 C 0.81605 0.26452 0.4342 0.0
C818 C 0.782 0.21946 0.47437 0.0
C819 C 0.74856 0.18698 0.36175 0.0
C820 C 0.76448 0.20246 0.38678 0.0
C821 C 0.8103 0.24779 0.45973 0.0
C822 C 0.7946 0.2321 0.43456 0.0
H823 H 0.73603 0.15607 0.24868 0.0
H824 H 0.7624 0.18161 0.28983 0.0
H825 H 0.75765 0.19523 0.48253 0.0
H826 H 0.84117 0.25948 0.57253 0.0
H827 H 0.81552 0.23346 0.53016 0.0
C828 C 0.54369 0.82254 0.68155 0.0
C829 C 0.55818 0.83938 0.67205 0.0
C830 C 0.54358 0.8078 0.65695 0.0
C831 C 0.56271 0.79331 0.53662 0.0
H832 H 0.55147 0.75445 0.64749 0.0
C833 C 0.57277 0.73561 0.46711 0.0
C834 C 0.56017 0.71877 0.48703 0.0
C835 C 0.5725 0.75039 0.48931 0.0
C836 C 0.55439 0.76506 0.61564 0.0
H837 H 0.5834 0.85433 0.62679 0.0
H838 H 0.58314 0.82849 0.58277 0.0
H839 H 0.5505 0.78011 0.68501 0.0
H840 H 0.5371 0.70382 0.54357 0.0
H841 H 0.53629 0.7296 0.58179 0.0
H842 H 0.56633 0.77821 0.46691 0.0
C843 C 0.57199 0.82666 0.60987 0.0
C844 C 0.55387 0.77976 0.63722 0.0
C845 C 0.57217 0.84139 0.63506 0.0
C846 C 0.54714 0.71679 0.52875 0.0
C847 C 0.54674 0.73155 0.55059 0.0
C848 C 0.56307 0.77852 0.51482 0.0
C849 C 0.55781 0.80971 0.62146 0.0
C850 C 0.55807 0.79403 0.59797 0.0
C851 C 0.55942 0.74854 0.53114 0.0
C852 C 0.55896 0.76424 0.55414 0.0
H853 H 0.5325 0.82078 0.70824 0.0
H854 H 0.53234 0.79489 0.66552 0.0
H855 H 0.56584 0.80409 0.50529 0.0
H856 H 0.58286 0.73731 0.43454 0.0
H857 H 0.58261 0.76327 0.47403 0.0
C858 C 0.73681 0.5761 0.85229 0.0
C859 C 0.71991 0.56313 0.83434 0.0
C860 C 0.75158 0.57615 0.82821 0.0
C861 C 0.76576 0.55767 0.70119 0.0
H862 H 0.80549 0.56992 0.80907 0.0
C863 C 0.82236 0.54525 0.63727 0.0
C864 C 0.83939 0.55956 0.64543 0.0
C865 C 0.80786 0.54584 0.66074 0.0
C866 C 0.79453 0.56659 0.77837 0.0
H867 H 0.70484 0.5398 0.77905 0.0
H868 H 0.73059 0.53953 0.73765 0.0
H869 H 0.77989 0.57074 0.84846 0.0
H870 H 0.85489 0.5853 0.68678 0.0
H871 H 0.82949 0.58626 0.72896 0.0
H872 H 0.78033 0.55314 0.6316 0.0
C873 C 0.7326 0.55003 0.76872 0.0
C874 C 0.77989 0.56713 0.80076 0.0
C875 C 0.71786 0.55012 0.7924 0.0
C876 C 0.84181 0.57417 0.67959 0.0
C877 C 0.82733 0.5747 0.70371 0.0
C878 C 0.78032 0.55695 0.67906 0.0
C879 C 0.74965 0.56302 0.78646 0.0
C880 C 0.76533 0.56268 0.76242 0.0
C881 C 0.81021 0.56062 0.69381 0.0
C882 C 0.79482 0.5614 0.71745 0.0
H883 H 0.73857 0.58619 0.88499 0.0
H884 H 0.7645 0.5865 0.8422 0.0
H885 H 0.75493 0.55447 0.67005 0.0
H886 H 0.82027 0.53359 0.61289 0.0
H887 H 0.79482 0.53468 0.65355 0.0
C888 C 0.26384 0.84103 0.82907 0.0
C889 C 0.27878 0.84007 0.8133 0.0
C890 C 0.24893 0.82623 0.85202 0.0
C891 C 0.22818 0.7776 0.86265 0.0
H892 H 0.1997 0.78296 0.98791 0.0
C893 C 0.17403 0.71972 0.00211 0.0
C894 C 0.15791 0.71932 0.0066 0.0
C895 C 0.18862 0.73433 0.97663 0.0
C896 C 0.20748 0.78132 0.95259 0.0
H897 H 0.29047 0.82348 0.81035 0.0
H898 H 0.26466 0.79766 0.85258 0.0
H899 H 0.22585 0.80889 0.94895 0.0
H900 H 0.14398 0.7333 0.98745 0.0
H901 H 0.16968 0.75916 0.94368 0.0
H902 H 0.20997 0.74991 0.86799 0.0
C903 C 0.26408 0.80956 0.84548 0.0
C904 C 0.22243 0.79616 0.93004 0.0
C905 C 0.27889 0.82432 0.82177 0.0
C906 C 0.15641 0.73352 0.98465 0.0
C907 C 0.17105 0.74824 0.95994 0.0
C908 C 0.21337 0.76275 0.88586 0.0
C909 C 0.24885 0.81029 0.86049 0.0
C910 C 0.23296 0.79449 0.88469 0.0
C911 C 0.18729 0.74878 0.95589 0.0
C912 C 0.20289 0.7645 0.93092 0.0
H913 H 0.26362 0.85317 0.82273 0.0
H914 H 0.23738 0.82724 0.86217 0.0
H915 H 0.23576 0.77583 0.82689 0.0
H916 H 0.17531 0.70875 0.01839 0.0
H917 H 0.20103 0.73449 0.97418 0.0
C918 C 0.45299 0.17527 0.18081 0.0
C919 C 0.43831 0.15847 0.17279 0.0
C920 C 0.45311 0.18999 0.15594 0.0
C921 C 0.43318 0.20411 0.03705 0.0
H922 H 0.44615 0.24389 0.14546 0.0
C923 C 0.4228 0.26172 0.96882 0.0
C924 C 0.43571 0.27865 0.98682 0.0
C925 C 0.4233 0.24703 0.99067 0.0
C926 C 0.44274 0.23302 0.11426 0.0
H927 H 0.4127 0.14355 0.13006 0.0
H928 H 0.41295 0.16933 0.08572 0.0
H929 H 0.44716 0.2183 0.18347 0.0
H930 H 0.45959 0.29385 0.03928 0.0
H931 H 0.46077 0.26822 0.07693 0.0
H932 H 0.42897 0.21886 0.96753 0.0
C933 C 0.42427 0.17116 0.11176 0.0
C934 C 0.44329 0.21835 0.13612 0.0
C935 C 0.42409 0.15646 0.13717 0.0
C936 C 0.44931 0.28081 0.02603 0.0
C937 C 0.44993 0.26614 0.04755 0.0
C938 C 0.43278 0.21885 0.01496 0.0
C939 C 0.43867 0.18808 0.12172 0.0
C940 C 0.43846 0.20375 0.0978 0.0
C941 C 0.4369 0.24906 0.03025 0.0
C942 C 0.4375 0.23345 0.0534 0.0
H943 H 0.46435 0.17702 0.2064 0.0
H944 H 0.46452 0.20287 0.16326 0.0
H945 H 0.42956 0.19308 0.00638 0.0
H946 H 0.41227 0.25988 0.93815 0.0
H947 H 0.41294 0.23408 0.97706 0.0
C948 C 0.09013 0.40465 0.35483 0.0
C949 C 0.07917 0.412 0.3503 0.0
C950 C 0.09355 0.39978 0.41208 0.0
C951 C 0.11132 0.41135 0.537 0.0
H952 H 0.07941 0.39102 0.67511 0.0
C953 C 0.12653 0.43647 0.78574 0.0
C954 C 0.12006 0.42412 0.83378 0.0
C955 C 0.1232 0.43086 0.72451 0.0
C956 C 0.08849 0.39644 0.63682 0.0
H957 H 0.06218 0.41884 0.40076 0.0
H958 H 0.06792 0.4101 0.50095 0.0
H959 H 0.06762 0.38626 0.57037 0.0
H960 H 0.1062 0.3962 0.85535 0.0
H961 H 0.10016 0.38653 0.74846 0.0
H962 H 0.13208 0.42252 0.60372 0.0
C963 C 0.07379 0.40798 0.4603 0.0
C964 C 0.08174 0.39378 0.57709 0.0
C965 C 0.07052 0.41302 0.4031 0.0
C966 C 0.1113 0.40607 0.81939 0.0
C967 C 0.10778 0.40049 0.75828 0.0
C968 C 0.11805 0.41422 0.59675 0.0
C969 C 0.086 0.40214 0.4656 0.0
C970 C 0.09306 0.40164 0.52686 0.0
C971 C 0.11321 0.41284 0.71049 0.0
C972 C 0.10664 0.40721 0.64721 0.0
H973 H 0.09732 0.40409 0.31526 0.0
H974 H 0.10299 0.39529 0.41506 0.0
H975 H 0.12034 0.41774 0.49911 0.0
H976 H 0.13337 0.45045 0.79543 0.0
H977 H 0.12745 0.44065 0.68836 0.0
C978 C 0.70342 0.11206 0.98834 0.0
C979 C 0.69428 0.12093 0.00329 0.0
C980 C 0.70507 0.10827 0.92712 0.0
C981 C 0.70086 0.11807 0.76577 0.0
H982 H 0.67826 0.06758 0.74083 0.0
C983 C 0.65453 0.07006 0.57241 0.0
C984 C 0.66428 0.07855 0.51958 0.0
C985 C 0.66275 0.07349 0.62986 0.0
C986 C 0.68487 0.08171 0.74716 0.0
H987 H 0.68112 0.13418 0.96569 0.0
H988 H 0.68431 0.12784 0.85841 0.0
H989 H 0.68555 0.07963 0.84523 0.0
H990 H 0.69041 0.09661 0.48486 0.0
H991 H 0.70472 0.10254 0.58502 0.0
H992 H 0.69945 0.12012 0.66807 0.0
C993 C 0.69003 0.12368 0.89423 0.0
C994 C 0.68911 0.08861 0.80668 0.0
C995 C 0.68815 0.12726 0.95558 0.0
C996 C 0.6826 0.08952 0.52442 0.0
C997 C 0.69079 0.0931 0.5819 0.0
C998 C 0.69686 0.1112 0.70622 0.0
C999 C 0.69789 0.11357 0.87975 0.0
C1000 C 0.69659 0.1068 0.81655 0.0
C1001 C 0.6808 0.08571 0.63535 0.0
C1002 C 0.68829 0.09292 0.69659 0.0
H1003 H 0.70837 0.10705 0.02401 0.0
H1004 H 0.7113 0.10058 0.91695 0.0
H1005 H 0.70666 0.13213 0.77233 0.0
H1006 H 0.64036 0.06174 0.56985 0.0
H1007 H 0.6547 0.06774 0.67046 0.0
C1008 C 0.58351 0.65478 0.74381 0.0
C1009 C 0.58492 0.66461 0.69102 0.0
C1010 C 0.5884 0.66297 0.80129 0.0
C1011 C 0.58557 0.69748 0.87801 0.0
H1012 H 0.60528 0.68542 0.01676 0.0
C1013 C 0.59128 0.70363 0.16024 0.0
C1014 C 0.57326 0.69488 0.17507 0.0
C1015 C 0.5967 0.70522 0.09904 0.0
C1016 C 0.60002 0.68919 0.97829 0.0
H1017 H 0.59345 0.69085 0.65643 0.0
H1018 H 0.60197 0.70509 0.75669 0.0
H1019 H 0.60986 0.67807 0.91224 0.0
H1020 H 0.54687 0.68235 0.13732 0.0
H1021 H 0.55639 0.68542 0.03007 0.0
H1022 H 0.57478 0.70758 0.94432 0.0
C1023 C 0.59725 0.69111 0.75349 0.0
C1024 C 0.60257 0.68491 0.91869 0.0
C1025 C 0.59254 0.68296 0.69596 0.0
C1026 C 0.56083 0.68908 0.12729 0.0
C1027 C 0.56628 0.6909 0.06596 0.0
C1028 C 0.58281 0.70153 0.93764 0.0
C1029 C 0.59449 0.68106 0.80689 0.0
C1030 C 0.59497 0.6886 0.86821 0.0
C1031 C 0.58423 0.69837 0.05157 0.0
C1032 C 0.58961 0.69699 0.98833 0.0
H1033 H 0.5775 0.6406 0.74119 0.0
H1034 H 0.58599 0.65488 0.84183 0.0
H1035 H 0.57937 0.70028 0.83993 0.0
H1036 H 0.60122 0.70832 0.19596 0.0
H1037 H 0.61061 0.71115 0.08895 0.0
C1038 C 0.90629 0.59325 0.85336 0.0
C1039 C 0.91774 0.58645 0.84903 0.0
C1040 C 0.9025 0.59781 0.91058 0.0
C1041 C 0.88477 0.58578 0.03559 0.0
H1042 H 0.91654 0.60728 0.17343 0.0
C1043 C 0.87053 0.56102 0.28489 0.0
C1044 C 0.87683 0.57346 0.33268 0.0
C1045 C 0.87354 0.56653 0.22353 0.0
C1046 C 0.90748 0.60151 0.13522 0.0
H1047 H 0.93527 0.58042 0.89987 0.0
H1048 H 0.92889 0.58866 -7e-05 0.0
H1049 H 0.92831 0.61226 0.06869 0.0
H1050 H 0.8899 0.6014 0.35372 0.0
H1051 H 0.89537 0.61091 0.24665 0.0
H1052 H 0.86409 0.57407 0.10245 0.0
C1053 C 0.92288 0.59051 0.95917 0.0
C1054 C 0.91423 0.60431 0.07549 0.0
C1055 C 0.9265 0.58575 0.90203 0.0
C1056 C 0.88499 0.59146 0.31796 0.0
C1057 C 0.88819 0.59695 0.25673 0.0
C1058 C 0.87806 0.58279 0.09537 0.0
C1059 C 0.91021 0.59576 0.96421 0.0
C1060 C 0.90299 0.59605 0.02537 0.0
C1061 C 0.88301 0.58455 0.20915 0.0
C1062 C 0.88942 0.59022 0.14575 0.0
H1063 H 0.89907 0.59364 0.81363 0.0
H1064 H 0.89272 0.60186 0.91338 0.0
H1065 H 0.87583 0.57908 -0.00223 0.0
H1066 H 0.86413 0.54707 0.29482 0.0
H1067 H 0.8695 0.5567 0.18755 0.0
C1068 C 0.30889 0.87105 0.45584 0.0
C1069 C 0.30266 0.87719 0.50385 0.0
C1070 C 0.3066 0.87436 0.3946 0.0
C1071 C 0.29495 0.87922 0.2667 0.0
H1072 H 0.31604 0.92954 0.24077 0.0
C1073 C 0.31232 0.90739 0.02481 0.0
C1074 C 0.33055 0.91886 0.01994 0.0
C1075 C 0.30411 0.90368 0.08226 0.0
C1076 C 0.30984 0.91545 0.24737 0.0
H1077 H 0.28798 0.89044 0.5253 0.0
H1078 H 0.28434 0.89644 0.41843 0.0
H1079 H 0.30935 0.91767 0.34543 0.0
H1080 H 0.35424 0.93646 0.07007 0.0
H1081 H 0.33987 0.9302 0.17057 0.0
H1082 H 0.29623 0.87706 0.16901 0.0
C1083 C 0.29097 0.88911 0.42827 0.0
C1084 C 0.30594 0.90864 0.30706 0.0
C1085 C 0.29303 0.8856 0.48938 0.0
C1086 C 0.34014 0.92771 0.07265 0.0
C1087 C 0.3319 0.92415 0.13005 0.0
C1088 C 0.29862 0.88599 0.207 0.0
C1089 C 0.29822 0.88401 0.38053 0.0
C1090 C 0.29904 0.89055 0.31728 0.0
C1091 C 0.314 0.91145 0.13564 0.0
C1092 C 0.30666 0.90422 0.197 0.0
H1093 H 0.31629 0.86449 0.46558 0.0
H1094 H 0.3124 0.87037 0.35849 0.0
H1095 H 0.28959 0.86523 0.27354 0.0
H1096 H 0.30465 0.90006 0.98533 0.0
H1097 H 0.29029 0.89388 0.08544 0.0
C1098 C 0.40218 0.29341 0.66346 0.0
C1099 C 0.4202 0.30184 0.67808 0.0
C1100 C 0.39672 0.29141 0.60221 0.0
C1101 C 0.41052 0.29386 0.4409 0.0
H1102 H 0.3857 0.3195 0.41351 0.0
C1103 C 0.41438 0.34297 0.249 0.0
C1104 C 0.41269 0.33326 0.19559 0.0
C1105 C 0.40864 0.33448 0.30564 0.0
C1106 C 0.39232 0.31202 0.4205 0.0
H1107 H 0.4465 0.31324 0.64018 0.0
H1108 H 0.43692 0.30948 0.53293 0.0
H1109 H 0.38915 0.3115 0.51832 0.0
H1110 H 0.40288 0.30698 0.15892 0.0
H1111 H 0.39296 0.2922 0.25787 0.0
H1112 H 0.41451 0.29521 0.34347 0.0
C1113 C 0.42705 0.30457 0.56895 0.0
C1114 C 0.39423 0.30737 0.48026 0.0
C1115 C 0.43255 0.3068 0.63028 0.0
C1116 C 0.40406 0.31481 0.199 0.0
C1117 C 0.39851 0.30633 0.25573 0.0
C1118 C 0.40839 0.29829 0.38108 0.0
C1119 C 0.40916 0.29751 0.55456 0.0
C1120 C 0.40393 0.29885 0.49108 0.0
C1121 C 0.40141 0.31616 0.3098 0.0
C1122 C 0.39987 0.30801 0.37065 0.0
H1123 H 0.39231 0.28936 0.69927 0.0
H1124 H 0.38285 0.28582 0.59212 0.0
H1125 H 0.418 0.28726 0.44821 0.0
H1126 H 0.42115 0.35721 0.24752 0.0
H1127 H 0.4112 0.34239 0.34677 0.0
C1128 C 0.59255 0.88525 0.00689 0.0
C1129 C 0.57458 0.87639 0.9913 0.0
C1130 C 0.59779 0.88875 0.06833 0.0
C1131 C 0.5832 0.87847 0.22922 0.0
H1132 H 0.61105 0.92892 0.25529 0.0
C1133 C 0.58476 0.92671 0.42238 0.0
C1134 C 0.58594 0.91828 0.47555 0.0
C1135 C 0.58939 0.92303 0.36508 0.0
C1136 C 0.60353 0.9148 0.24867 0.0
H1137 H 0.54805 0.86281 0.02792 0.0
H1138 H 0.55725 0.8687 0.13559 0.0
H1139 H 0.60669 0.91705 0.15078 0.0
H1140 H 0.59381 0.9001 0.5108 0.0
H1141 H 0.60184 0.8937 0.41087 0.0
H1142 H 0.57933 0.87627 0.32676 0.0
C1143 C 0.56724 0.87305 0.10011 0.0
C1144 C 0.60111 0.908 0.18907 0.0
C1145 C 0.56198 0.86974 0.03853 0.0
C1146 C 0.59303 0.90707 0.47103 0.0
C1147 C 0.59747 0.90324 0.41367 0.0
C1148 C 0.58582 0.88525 0.28887 0.0
C1149 C 0.58517 0.8832 0.11529 0.0
C1150 C 0.59042 0.88983 0.17874 0.0
C1151 C 0.59502 0.91065 0.36001 0.0
C1152 C 0.59551 0.90352 0.29887 0.0
H1153 H 0.60262 0.89048 0.97159 0.0
H1154 H 0.61169 0.89647 0.07903 0.0
H1155 H 0.57495 0.86443 0.22231 0.0
H1156 H 0.57922 0.93529 0.42463 0.0
H1157 H 0.58723 0.92882 0.3243 0.0
C1158 C 0.70267 0.58974 0.17609 0.0
C1159 C 0.69481 0.57208 0.15707 0.0
C1160 C 0.70144 0.59386 0.23734 0.0
C1161 C 0.67038 0.5738 0.36318 0.0
H1162 H 0.70444 0.61294 0.4617 0.0
C1163 C 0.67808 0.59119 0.62994 0.0
C1164 C 0.66033 0.5854 0.64278 0.0
C1165 C 0.68428 0.59487 0.56953 0.0
C1166 C 0.69478 0.60203 0.43444 0.0
H1167 H 0.68151 0.545 0.18851 0.0
H1168 H 0.67974 0.55222 0.29567 0.0
H1169 H 0.71307 0.60707 0.36097 0.0
H1170 H 0.63559 0.58058 0.60427 0.0
H1171 H 0.64653 0.58757 0.49865 0.0
H1172 H 0.65225 0.56827 0.43646 0.0
C1173 C 0.6863 0.56285 0.26281 0.0
C1174 C 0.69972 0.59868 0.37694 0.0
C1175 C 0.68744 0.55872 0.20158 0.0
C1176 C 0.64935 0.58509 0.59538 0.0
C1177 C 0.65558 0.58893 0.535 0.0
C1178 C 0.66546 0.57715 0.42021 0.0
C1179 C 0.69246 0.58038 0.28052 0.0
C1180 C 0.68762 0.58431 0.34137 0.0
C1181 C 0.67279 0.59275 0.52103 0.0
C1182 C 0.67763 0.59115 0.45692 0.0
H1183 H 0.70858 0.60037 0.14296 0.0
H1184 H 0.70637 0.60749 0.24973 0.0
H1185 H 0.66063 0.5629 0.33614 0.0
H1186 H 0.68673 0.5911 0.66521 0.0
H1187 H 0.69755 0.59764 0.56038 0.0
C1188 C 0.1282 0.69115 0.37065 0.0
C1189 C 0.12179 0.69728 0.32321 0.0
C1190 C 0.12454 0.69282 0.43211 0.0
C1191 C 0.08925 0.69142 0.51999 0.0
H1192 H 0.12073 0.70173 0.65876 0.0
C1193 C 0.08983 0.68504 0.80245 0.0
C1194 C 0.07868 0.66676 0.80753 0.0
C1195 C 0.09364 0.69314 0.7448 0.0
C1196 C 0.11181 0.69913 0.62056 0.0
H1197 H 0.10766 0.71116 0.30315 0.0
H1198 H 0.10106 0.71374 0.41036 0.0
H1199 H 0.13277 0.70906 0.55457 0.0
H1200 H 0.06175 0.64284 0.7573 0.0
H1201 H 0.06818 0.65703 0.65644 0.0
H1202 H 0.0682 0.68049 0.5857 0.0
C1203 C 0.10888 0.70766 0.3999 0.0
C1204 C 0.11871 0.7032 0.56105 0.0
C1205 C 0.11274 0.70622 0.33859 0.0
C1206 C 0.07026 0.65698 0.7546 0.0
C1207 C 0.07393 0.66511 0.69699 0.0
C1208 C 0.08233 0.68712 0.57946 0.0
C1209 C 0.11426 0.70047 0.44697 0.0
C1210 C 0.10745 0.69897 0.5102 0.0
C1211 C 0.08629 0.68311 0.69137 0.0
C1212 C 0.09352 0.69054 0.6301 0.0
H1213 H 0.13524 0.68426 0.36021 0.0
H1214 H 0.12877 0.68709 0.46767 0.0
H1215 H 0.08028 0.68788 0.4814 0.0
H1216 H 0.0968 0.69291 0.84206 0.0
H1217 H 0.10317 0.70705 0.7416 0.0
C1218 C 0.4352 0.12803 0.53904 0.0
C1219 C 0.42262 0.12172 0.49169 0.0
C1220 C 0.42988 0.12466 0.60056 0.0
C1221 C 0.41385 0.11942 0.72956 0.0
H1222 H 0.38498 0.06904 0.75492 0.0
C1223 C 0.40288 0.09063 0.97117 0.0
C1224 C 0.4096 0.07912 0.97599 0.0
C1225 C 0.39867 0.0946 0.91366 0.0
C1226 C 0.39279 0.08315 0.74849 0.0
H1227 H 0.3946 0.10817 0.47179 0.0
H1228 H 0.38544 0.10209 0.57909 0.0
H1229 H 0.38982 0.08103 0.65051 0.0
H1230 H 0.41589 0.06172 0.92545 0.0
H1231 H 0.40828 0.06845 0.82485 0.0
H1232 H 0.41751 0.12148 0.82721 0.0
C1233 C 0.39935 0.10958 0.56853 0.0
C1234 C 0.3955 0.09002 0.68895 0.0
C1235 C 0.40465 0.11314 0.50716 0.0
C1236 C 0.41062 0.07053 0.92296 0.0
C1237 C 0.40622 0.07436 0.8655 0.0
C1238 C 0.41095 0.11258 0.78915 0.0
C1239 C 0.41192 0.1148 0.61556 0.0
C1240 C 0.40652 0.10815 0.6789 0.0
C1241 C 0.40101 0.08705 0.86013 0.0
C1242 C 0.40088 0.09433 0.79892 0.0
H1243 H 0.44913 0.13473 0.52853 0.0
H1244 H 0.43984 0.12875 0.6361 0.0
H1245 H 0.42236 0.13344 0.72287 0.0
H1246 H 0.40223 0.09772 0.01085 0.0
H1247 H 0.39462 0.10438 0.91063 0.0
C1248 C 0.29336 0.40561 0.67181 0.0
C1249 C 0.30054 0.42309 0.65148 0.0
C1250 C 0.29422 0.40201 0.7339 0.0
C1251 C 0.32432 0.42419 0.85992 0.0
H1252 H 0.29219 0.38398 0.95848 0.0
C1253 C 0.31911 0.40614 0.12613 0.0
C1254 C 0.33712 0.41277 0.13695 0.0
C1255 C 0.3125 0.40249 0.0662 0.0
C1256 C 0.3013 0.39521 0.93122 0.0
H1257 H 0.312 0.45023 0.68099 0.0
H1258 H 0.31312 0.4439 0.78964 0.0
H1259 H 0.28265 0.38897 0.85799 0.0
H1260 H 0.36192 0.41885 0.09528 0.0
H1261 H 0.35028 0.41193 0.99058 0.0
H1262 H 0.34282 0.43081 0.93268 0.0
C1263 C 0.30739 0.43305 0.75727 0.0
C1264 C 0.29584 0.39807 0.87393 0.0
C1265 C 0.30666 0.43667 0.69517 0.0
C1266 C 0.348 0.41383 0.08794 0.0
C1267 C 0.34136 0.40999 0.02812 0.0
C1268 C 0.32976 0.42133 0.91667 0.0
C1269 C 0.30214 0.41583 0.77656 0.0
C1270 C 0.30726 0.41274 0.83817 0.0
C1271 C 0.32382 0.4054 0.01632 0.0
C1272 C 0.31832 0.40688 0.95318 0.0
H1273 H 0.2884 0.39481 0.63928 0.0
H1274 H 0.29001 0.38861 0.74748 0.0
H1275 H 0.33359 0.43537 0.83279 0.0
H1276 H 0.31044 0.40543 0.16279 0.0
H1277 H 0.29895 0.39904 0.05865 0.0
C1278 C 0.90886 0.31454 0.30238 0.0
C1279 C 0.91937 0.3329 0.30769 0.0
C1280 C 0.90541 0.3065 0.24463 0.0
C1281 C 0.9166 0.31308 0.07919 0.0
H1282 H 0.86601 0.28917 0.05491 0.0
C1283 C 0.86949 0.30671 0.87111 0.0
C1284 C 0.87619 0.30092 0.82354 0.0
C1285 C 0.87348 0.30539 0.93247 0.0
C1286 C 0.88013 0.29558 0.06121 0.0
H1287 H 0.93549 0.35709 0.25782 0.0
H1288 H 0.92969 0.34302 0.15675 0.0
H1289 H 0.87809 0.29687 0.15898 0.0
H1290 H 0.89129 0.28806 0.80315 0.0
H1291 H 0.89847 0.2861 0.9102 0.0
H1292 H 0.91863 0.31247 0.98105 0.0
C1293 C 0.92422 0.33483 0.19719 0.0
C1294 C 0.88705 0.29987 0.12065 0.0
C1295 C 0.92753 0.34289 0.25492 0.0
C1296 C 0.88594 0.29269 0.83871 0.0
C1297 C 0.89015 0.29162 0.89992 0.0
C1298 C 0.90966 0.30856 0.01977 0.0
C1299 C 0.91244 0.31668 0.19133 0.0
C1300 C 0.90536 0.30915 0.13 0.0
C1301 C 0.8844 0.29845 0.9471 0.0
C1302 C 0.89139 0.30028 0.01022 0.0
H1303 H 0.90203 0.30652 0.34188 0.0
H1304 H 0.89632 0.29248 0.24126 0.0
H1305 H 0.93075 0.32023 0.08526 0.0
H1306 H 0.86191 0.31306 0.86082 0.0
H1307 H 0.86897 0.31083 0.96813 0.0
loop_
_geom_bond_atom_site_label_1
_geom_bond_atom_site_label_2
_geom_bond_distance
_geom_bond_site_symmetry_2
_ccdc_geom_bond_type
Co0 O3 1.970 . S
Co0 N17 1.989 . S
Co0 O25 1.967 . S
Co0 O32 1.920 1_554 S
Co1 O4 1.966 . S
Co1 N10 2.022 . S
Co1 N18 1.993 . S
Co1 O26 1.941 . S
C2 O3 1.258 . S
C2 O4 1.263 . S
O3 Co0 1.970 . S
O3 C2 1.258 . S
O4 Co1 1.966 . S
O4 C2 1.263 . S
C5 O6 1.235 . S
C5 O32 1.289 . S
O6 C5 1.235 . S
C7 C9 1.400 . S
C7 N10 1.351 . S
C7 C12 1.501 . S
C8 C9 1.387 . S
C8 N11 1.341 . S
C9 C7 1.400 . S
C9 C8 1.387 . S
N10 Co1 2.022 . S
N10 C7 1.351 . S
N10 N11 1.365 . S
N11 C8 1.341 . S
N11 N10 1.365 . S
N11 H31 0.862 . S
C12 C7 1.501 . S
C12 H13 0.961 . S
C12 H14 0.961 . S
C12 H15 0.960 . S
H13 C12 0.961 . S
H14 C12 0.961 . S
H15 C12 0.960 . S
C16 N17 1.342 . S
C16 C20 1.401 . S
C16 C21 1.499 1_554 S
N17 Co0 1.989 . S
N17 C16 1.342 . S
N17 N18 1.388 . S
N18 Co1 1.993 . S
N18 N17 1.388 . S
N18 C19 1.346 . S
C19 N18 1.346 . S
C19 C20 1.396 . S
C19 C29 1.510 . S
C20 C16 1.401 . S
C20 C19 1.396 . S
C21 C16 1.499 1_556 S
C21 H22 0.959 . S
C21 H23 0.960 . S
C21 H24 0.961 . S
H22 C21 0.959 . S
H23 C21 0.960 . S
H24 C21 0.961 . S
O25 Co0 1.967 . S
O25 C33 1.258 . S
O26 Co1 1.941 . S
O26 C33 1.266 . S
H27 C29 0.959 . S
H28 C29 0.961 . S
C29 C19 1.510 . S
C29 H27 0.959 . S
C29 H28 0.961 . S
C29 H30 0.960 . S
H30 C29 0.960 . S
H31 N11 0.862 . S
O32 Co0 1.920 1_556 S
O32 C5 1.289 . S
C33 O25 1.258 . S
C33 O26 1.266 . S
Co34 O37 1.970 . S
Co34 N51 1.989 . S
Co34 O59 1.967 . S
Co34 O66 1.920 . S
Co35 O38 1.966 . S
Co35 N44 2.022 . S
Co35 N52 1.993 . S
Co35 O60 1.941 . S
C36 O37 1.258 . S
C36 O38 1.263 . S
O37 Co34 1.970 . S
O37 C36 1.258 . S
O38 Co35 1.966 . S
O38 C36 1.263 . S
C39 O40 1.235 . S
C39 O66 1.289 . S
O40 C39 1.235 . S
C41 C43 1.400 . S
C41 N44 1.351 . S
C41 C46 1.501 . S
C42 C43 1.387 . S
C42 N45 1.341 . S
C43 C41 1.400 . S
C43 C42 1.387 . S
N44 Co35 2.022 . S
N44 C41 1.351 . S
N44 N45 1.365 . S
N45 C42 1.341 . S
N45 N44 1.365 . S
N45 H65 0.862 . S
C46 C41 1.501 . S
C46 H47 0.961 . S
C46 H48 0.961 . S
C46 H49 0.960 . S
H47 C46 0.961 . S
H48 C46 0.961 . S
H49 C46 0.960 . S
C50 N51 1.342 . S
C50 C54 1.401 . S
C50 C55 1.499 . S
N51 Co34 1.989 . S
N51 C50 1.342 . S
N51 N52 1.388 . S
N52 Co35 1.993 . S
N52 N51 1.388 . S
N52 C53 1.346 . S
C53 N52 1.346 . S
C53 C54 1.396 . S
C53 C63 1.510 . S
C54 C50 1.401 . S
C54 C53 1.396 . S
C55 C50 1.499 . S
C55 H56 0.959 . S
C55 H57 0.960 . S
C55 H58 0.961 . S
H56 C55 0.959 . S
H57 C55 0.960 . S
H58 C55 0.961 . S
O59 Co34 1.967 . S
O59 C67 1.258 . S
O60 Co35 1.941 . S
O60 C67 1.266 . S
H61 C63 0.959 . S
H62 C63 0.961 . S
C63 C53 1.510 . S
C63 H61 0.959 . S
C63 H62 0.961 . S
C63 H64 0.960 . S
H64 C63 0.960 . S
H65 N45 0.862 . S
O66 Co34 1.920 . S
O66 C39 1.289 . S
C67 O59 1.258 . S
C67 O60 1.266 . S
Co68 O71 1.970 . S
Co68 N85 1.989 . S
Co68 O93 1.967 . S
Co68 O100 1.920 . S
Co69 O72 1.966 . S
Co69 N78 2.022 . S
Co69 N86 1.993 . S
Co69 O94 1.941 . S
C70 O71 1.258 . S
C70 O72 1.263 . S
O71 Co68 1.970 . S
O71 C70 1.258 . S
O72 Co69 1.966 . S
O72 C70 1.263 . S
C73 O74 1.235 . S
C73 O100 1.289 . S
O74 C73 1.235 . S
C75 C77 1.400 . S
C75 N78 1.351 . S
C75 C80 1.501 . S
C76 C77 1.387 . S
C76 N79 1.341 . S
C77 C75 1.400 . S
C77 C76 1.387 . S
N78 Co69 2.022 . S
N78 C75 1.351 . S
N78 N79 1.365 . S
N79 C76 1.341 . S
N79 N78 1.365 . S
N79 H99 0.862 . S
C80 C75 1.501 . S
C80 H81 0.961 . S
C80 H82 0.961 . S
C80 H83 0.960 . S
H81 C80 0.961 . S
H82 C80 0.961 . S
H83 C80 0.960 . S
C84 N85 1.342 . S
C84 C88 1.401 . S
C84 C89 1.499 . S
N85 Co68 1.989 . S
N85 C84 1.342 . S
N85 N86 1.388 . S
N86 Co69 1.993 . S
N86 N85 1.388 . S
N86 C87 1.346 . S
C87 N86 1.346 . S
C87 C88 1.396 . S
C87 C97 1.510 . S
C88 C84 1.401 . S
C88 C87 1.396 . S
C89 C84 1.499 . S
C89 H90 0.959 . S
C89 H91 0.960 . S
C89 H92 0.961 . S
H90 C89 0.959 . S
H91 C89 0.960 . S
H92 C89 0.961 . S
O93 Co68 1.967 . S
O93 C101 1.258 . S
O94 Co69 1.941 . S
O94 C101 1.266 . S
H95 C97 0.959 . S
H96 C97 0.961 . S
C97 C87 1.510 . S
C97 H95 0.959 . S
C97 H96 0.961 . S
C97 H98 0.960 . S
H98 C97 0.960 . S
H99 N79 0.862 . S
O100 Co68 1.920 . S
O100 C73 1.289 . S
C101 O93 1.258 . S
C101 O94 1.266 . S
Co102 O105 1.970 . S
Co102 N119 1.989 . S
Co102 O127 1.967 . S
Co102 O134 1.920 . S
Co103 O106 1.966 . S
Co103 N112 2.022 . S
Co103 N120 1.993 . S
Co103 O128 1.941 . S
C104 O105 1.258 . S
C104 O106 1.263 . S
O105 Co102 1.970 . S
O105 C104 1.258 . S
O106 Co103 1.966 . S
O106 C104 1.263 . S
C107 O108 1.235 . S
C107 O134 1.289 . S
O108 C107 1.235 . S
C109 C111 1.400 . S
C109 N112 1.351 . S
C109 C114 1.501 . S
C110 C111 1.387 . S
C110 N113 1.341 . S
C111 C109 1.400 . S
C111 C110 1.387 . S
N112 Co103 2.022 . S
N112 C109 1.351 . S
N112 N113 1.365 . S
N113 C110 1.341 . S
N113 N112 1.365 . S
N113 H133 0.862 . S
C114 C109 1.501 . S
C114 H115 0.961 . S
C114 H116 0.961 . S
C114 H117 0.960 . S
H115 C114 0.961 . S
H116 C114 0.961 . S
H117 C114 0.960 . S
C118 N119 1.342 . S
C118 C122 1.401 . S
C118 C123 1.499 . S
N119 Co102 1.989 . S
N119 C118 1.342 . S
N119 N120 1.388 . S
N120 Co103 1.993 . S
N120 N119 1.388 . S
N120 C121 1.346 . S
C121 N120 1.346 . S
C121 C122 1.396 . S
C121 C131 1.510 . S
C122 C118 1.401 . S
C122 C121 1.396 . S
C123 C118 1.499 . S
C123 H124 0.959 . S
C123 H125 0.960 . S
C123 H126 0.961 . S
H124 C123 0.959 . S
H125 C123 0.960 . S
H126 C123 0.961 . S
O127 Co102 1.967 . S
O127 C135 1.258 . S
O128 Co103 1.941 . S
O128 C135 1.266 . S
H129 C131 0.959 . S
H130 C131 0.961 . S
C131 C121 1.510 . S
C131 H129 0.959 . S
C131 H130 0.961 . S
C131 H132 0.960 . S
H132 C131 0.960 . S
H133 N113 0.862 . S
O134 Co102 1.920 . S
O134 C107 1.289 . S
C135 O127 1.258 . S
C135 O128 1.266 . S
Co136 O139 1.970 . S
Co136 N153 1.989 . S
Co136 O161 1.967 . S
Co136 O168 1.920 . S
Co137 O140 1.966 . S
Co137 N146 2.022 . S
Co137 N154 1.993 . S
Co137 O162 1.941 . S
C138 O139 1.258 . S
C138 O140 1.263 . S
O139 Co136 1.970 . S
O139 C138 1.258 . S
O140 Co137 1.966 . S
O140 C138 1.263 . S
C141 O142 1.235 . S
C141 O168 1.289 . S
O142 C141 1.235 . S
C143 C145 1.387 1_556 S
C143 N146 1.351 . S
C143 C148 1.501 . S
C144 C145 1.389 . S
C144 N147 1.341 1_554 S
C145 C143 1.387 1_554 S
C145 C144 1.389 . S
N146 Co137 2.022 . S
N146 C143 1.351 . S
N146 N147 1.365 . S
N147 C144 1.341 1_556 S
N147 N146 1.365 . S
N147 H167 0.862 . S
C148 C143 1.501 . S
C148 H149 0.961 . S
C148 H150 0.961 . S
C148 H151 0.960 . S
H149 C148 0.961 . S
H150 C148 0.961 . S
H151 C148 0.960 . S
C152 N153 1.342 . S
C152 C156 1.401 . S
C152 C157 1.499 . S
N153 Co136 1.989 . S
N153 C152 1.342 . S
N153 N154 1.388 . S
N154 Co137 1.993 . S
N154 N153 1.388 . S
N154 C155 1.346 . S
C155 N154 1.346 . S
C155 C156 1.396 . S
C155 C165 1.510 . S
C156 C152 1.401 . S
C156 C155 1.396 . S
C157 C152 1.499 . S
C157 H158 0.959 . S
C157 H159 0.960 . S
C157 H160 0.961 . S
H158 C157 0.959 . S
H159 C157 0.960 . S
H160 C157 0.961 . S
O161 Co136 1.967 . S
O161 C169 1.258 . S
O162 Co137 1.941 . S
O162 C169 1.266 . S
H163 C165 0.959 . S
H164 C165 0.961 . S
C165 C155 1.510 . S
C165 H163 0.959 . S
C165 H164 0.961 . S
C165 H166 0.960 . S
H166 C165 0.960 . S
H167 N147 0.862 . S
O168 Co136 1.920 . S
O168 C141 1.289 . S
C169 O161 1.258 . S
C169 O162 1.266 . S
Co170 O173 1.970 . S
Co170 N187 1.989 . S
Co170 O195 1.967 . S
Co170 O202 1.920 . S
Co171 O174 1.966 . S
Co171 N180 2.022 1_556 S
Co171 N188 1.993 . S
Co171 O196 1.941 . S
C172 O173 1.258 . S
C172 O174 1.263 . S
O173 Co170 1.970 . S
O173 C172 1.258 . S
O174 Co171 1.966 . S
O174 C172 1.263 . S
C175 O176 1.235 . S
C175 O202 1.289 . S
O176 C175 1.235 . S
C177 C179 1.400 . S
C177 N180 1.351 . S
C177 C182 1.501 . S
C178 C179 1.387 . S
C178 N181 1.341 . S
C179 C177 1.400 . S
C179 C178 1.387 . S
N180 Co171 2.022 1_554 S
N180 C177 1.351 . S
N180 N181 1.365 . S
N181 C178 1.341 . S
N181 N180 1.365 . S
N181 H201 0.862 . S
C182 C177 1.501 . S
C182 H183 0.961 . S
C182 H184 0.961 . S
C182 H185 0.960 . S
H183 C182 0.961 . S
H184 C182 0.961 . S
H185 C182 0.960 . S
C186 N187 1.342 . S
C186 C190 1.401 . S
C186 C191 1.499 . S
N187 Co170 1.989 . S
N187 C186 1.342 . S
N187 N188 1.388 . S
N188 Co171 1.993 . S
N188 N187 1.388 . S
N188 C189 1.346 . S
C189 N188 1.346 . S
C189 C190 1.396 . S
C189 C199 1.510 1_556 S
C190 C186 1.401 . S
C190 C189 1.396 . S
C191 C186 1.499 . S
C191 H192 0.959 . S
C191 H193 0.960 . S
C191 H194 0.961 . S
H192 C191 0.959 . S
H193 C191 0.960 . S
H194 C191 0.961 . S
O195 Co170 1.967 . S
O195 C203 1.258 . S
O196 Co171 1.941 . S
O196 C203 1.266 . S
H197 C199 0.959 . S
H198 C199 0.961 . S
C199 C189 1.510 1_554 S
C199 H197 0.959 . S
C199 H198 0.961 . S
C199 H200 0.960 . S
H200 C199 0.960 . S
H201 N181 0.862 . S
O202 Co170 1.920 . S
O202 C175 1.289 . S
C203 O195 1.258 . S
C203 O196 1.266 . S
Co204 O207 1.970 . S
Co204 N221 1.989 . S
Co204 O229 1.967 . S
Co204 O236 1.920 . S
Co205 O208 1.966 . S
Co205 N214 2.022 . S
Co205 N222 1.993 . S
Co205 O230 1.941 . S
C206 O207 1.258 . S
C206 O208 1.263 . S
O207 Co204 1.970 . S
O207 C206 1.258 . S
O208 Co205 1.966 . S
O208 C206 1.263 . S
C209 O210 1.235 . S
C209 O236 1.289 . S
O210 C209 1.235 . S
C211 C213 1.400 . S
C211 N214 1.351 . S
C211 C216 1.501 . S
C212 C213 1.387 . S
C212 N215 1.341 . S
C213 C211 1.400 . S
C213 C212 1.387 . S
N214 Co205 2.022 . S
N214 C211 1.351 . S
N214 N215 1.365 . S
N215 C212 1.341 . S
N215 N214 1.365 . S
N215 H235 0.862 . S
C216 C211 1.501 . S
C216 H217 0.961 . S
C216 H218 0.961 . S
C216 H219 0.960 . S
H217 C216 0.961 . S
H218 C216 0.961 . S
H219 C216 0.960 . S
C220 N221 1.342 . S
C220 C224 1.401 . S
C220 C225 1.499 . S
N221 Co204 1.989 . S
N221 C220 1.342 . S
N221 N222 1.388 . S
N222 Co205 1.993 . S
N222 N221 1.388 . S
N222 C223 1.346 . S
C223 N222 1.346 . S
C223 C224 1.396 . S
C223 C233 1.510 . S
C224 C220 1.401 . S
C224 C223 1.396 . S
C225 C220 1.499 . S
C225 H226 0.959 . S
C225 H227 0.960 . S
C225 H228 0.961 . S
H226 C225 0.959 . S
H227 C225 0.960 . S
H228 C225 0.961 . S
O229 Co204 1.967 . S
O229 C237 1.258 . S
O230 Co205 1.941 . S
O230 C237 1.266 . S
H231 C233 0.959 . S
H232 C233 0.961 . S
C233 C223 1.510 . S
C233 H231 0.959 . S
C233 H232 0.961 . S
C233 H234 0.960 . S
H234 C233 0.960 . S
H235 N215 0.862 . S
O236 Co204 1.920 . S
O236 C209 1.289 . S
C237 O229 1.258 . S
C237 O230 1.266 . S
Co238 O241 1.970 . S
Co238 N255 1.989 . S
Co238 O263 1.967 . S
Co238 O270 1.920 1_556 S
Co239 O242 1.966 . S
Co239 N248 2.022 . S
Co239 N256 1.993 . S
Co239 O264 1.941 . S
C240 O241 1.258 . S
C240 O242 1.263 . S
O241 Co238 1.970 . S
O241 C240 1.258 . S
O242 Co239 1.966 . S
O242 C240 1.263 . S
C243 O244 1.235 . S
C243 O270 1.289 . S
O244 C243 1.235 . S
C245 C247 1.400 . S
C245 N248 1.351 . S
C245 C250 1.501 . S
C246 C247 1.387 . S
C246 N249 1.341 . S
C247 C245 1.400 . S
C247 C246 1.387 . S
N248 Co239 2.022 . S
N248 C245 1.351 . S
N248 N249 1.365 . S
N249 C246 1.341 . S
N249 N248 1.365 . S
N249 H269 0.862 . S
C250 C245 1.501 . S
C250 H251 0.961 . S
C250 H252 0.961 . S
C250 H253 0.960 . S
H251 C250 0.961 . S
H252 C250 0.961 . S
H253 C250 0.960 . S
C254 N255 1.342 . S
C254 C258 1.401 . S
C254 C259 1.499 1_556 S
N255 Co238 1.989 . S
N255 C254 1.342 . S
N255 N256 1.388 . S
N256 Co239 1.993 . S
N256 N255 1.388 . S
N256 C257 1.346 . S
C257 N256 1.346 . S
C257 C258 1.396 . S
C257 C267 1.510 . S
C258 C254 1.401 . S
C258 C257 1.396 . S
C259 C254 1.499 1_554 S
C259 H260 0.959 . S
C259 H261 0.960 . S
C259 H262 0.961 . S
H260 C259 0.959 . S
H261 C259 0.960 . S
H262 C259 0.961 . S
O263 Co238 1.967 . S
O263 C271 1.258 . S
O264 Co239 1.941 . S
O264 C271 1.266 . S
H265 C267 0.959 . S
H266 C267 0.961 . S
C267 C257 1.510 . S
C267 H265 0.959 . S
C267 H266 0.961 . S
C267 H268 0.960 . S
H268 C267 0.960 . S
H269 N249 0.862 . S
O270 Co238 1.920 1_554 S
O270 C243 1.289 . S
C271 O263 1.258 . S
C271 O264 1.266 . S
Co272 O275 1.970 . S
Co272 N289 1.989 . S
Co272 O297 1.967 . S
Co272 O304 1.920 . S
Co273 O276 1.966 . S
Co273 N282 2.022 1_554 S
Co273 N290 1.993 . S
Co273 O298 1.941 . S
C274 O275 1.258 . S
C274 O276 1.263 . S
O275 Co272 1.970 . S
O275 C274 1.258 . S
O276 Co273 1.966 . S
O276 C274 1.263 . S
C277 O278 1.235 . S
C277 O304 1.289 . S
O278 C277 1.235 . S
C279 C281 1.400 . S
C279 N282 1.351 . S
C279 C284 1.501 . S
C280 C281 1.387 . S
C280 N283 1.341 . S
C281 C279 1.400 . S
C281 C280 1.387 . S
N282 Co273 2.022 1_556 S
N282 C279 1.351 . S
N282 N283 1.365 . S
N283 C280 1.341 . S
N283 N282 1.365 . S
N283 H303 0.862 . S
C284 C279 1.501 . S
C284 H285 0.961 . S
C284 H286 0.961 . S
C284 H287 0.960 . S
H285 C284 0.961 . S
H286 C284 0.961 . S
H287 C284 0.960 . S
C288 N289 1.342 . S
C288 C292 1.401 . S
C288 C293 1.499 . S
N289 Co272 1.989 . S
N289 C288 1.342 . S
N289 N290 1.388 . S
N290 Co273 1.993 . S
N290 N289 1.388 . S
N290 C291 1.346 . S
C291 N290 1.346 . S
C291 C292 1.396 . S
C291 C301 1.510 1_554 S
C292 C288 1.401 . S
C292 C291 1.396 . S
C293 C288 1.499 . S
C293 H294 0.959 . S
C293 H295 0.960 . S
C293 H296 0.961 . S
H294 C293 0.959 . S
H295 C293 0.960 . S
H296 C293 0.961 . S
O297 Co272 1.967 . S
O297 C305 1.258 . S
O298 Co273 1.941 . S
O298 C305 1.266 . S
H299 C301 0.959 . S
H300 C301 0.961 . S
C301 C291 1.510 1_556 S
C301 H299 0.959 . S
C301 H300 0.961 . S
C301 H302 0.960 . S
H302 C301 0.960 . S
H303 N283 0.862 . S
O304 Co272 1.920 . S
O304 C277 1.289 . S
C305 O297 1.258 . S
C305 O298 1.266 . S
Co306 O309 1.970 . S
Co306 N323 1.989 . S
Co306 O331 1.967 . S
Co306 O338 1.920 . S
Co307 O310 1.966 . S
Co307 N316 2.022 . S
Co307 N324 1.993 . S
Co307 O332 1.941 . S
C308 O309 1.258 . S
C308 O310 1.263 . S
O309 Co306 1.970 . S
O309 C308 1.258 . S
O310 Co307 1.966 . S
O310 C308 1.263 . S
C311 O312 1.235 . S
C311 O338 1.289 . S
O312 C311 1.235 . S
C313 C315 1.393 1_554 S
C313 N316 1.351 . S
C313 C318 1.501 . S
C314 C315 1.388 . S
C314 N317 1.341 1_556 S
C315 C313 1.393 1_556 S
C315 C314 1.388 . S
N316 Co307 2.022 . S
N316 C313 1.351 . S
N316 N317 1.365 . S
N317 C314 1.341 1_554 S
N317 N316 1.365 . S
N317 H337 0.862 . S
C318 C313 1.501 . S
C318 H319 0.961 . S
C318 H320 0.961 . S
C318 H321 0.960 . S
H319 C318 0.961 . S
H320 C318 0.961 . S
H321 C318 0.960 . S
C322 N323 1.342 . S
C322 C326 1.401 . S
C322 C327 1.499 . S
N323 Co306 1.989 . S
N323 C322 1.342 . S
N323 N324 1.388 . S
N324 Co307 1.993 . S
N324 N323 1.388 . S
N324 C325 1.346 . S
C325 N324 1.346 . S
C325 C326 1.396 . S
C325 C335 1.510 . S
C326 C322 1.401 . S
C326 C325 1.396 . S
C327 C322 1.499 . S
C327 H328 0.959 . S
C327 H329 0.960 . S
C327 H330 0.961 . S
H328 C327 0.959 . S
H329 C327 0.960 . S
H330 C327 0.961 . S
O331 Co306 1.967 . S
O331 C339 1.258 . S
O332 Co307 1.941 . S
O332 C339 1.266 . S
H333 C335 0.959 . S
H334 C335 0.961 . S
C335 C325 1.510 . S
C335 H333 0.959 . S
C335 H334 0.961 . S
C335 H336 0.960 . S
H336 C335 0.960 . S
H337 N317 0.862 . S
O338 Co306 1.920 . S
O338 C311 1.289 . S
C339 O331 1.258 . S
C339 O332 1.266 . S
Co340 O343 1.970 . S
Co340 N357 1.989 . S
Co340 O365 1.967 . S
Co340 O372 1.920 . S
Co341 O344 1.966 . S
Co341 N350 2.022 . S
Co341 N358 1.993 . S
Co341 O366 1.941 . S
C342 O343 1.258 . S
C342 O344 1.263 . S
O343 Co340 1.970 . S
O343 C342 1.258 . S
O344 Co341 1.966 . S
O344 C342 1.263 . S
C345 O346 1.235 . S
C345 O372 1.289 . S
O346 C345 1.235 . S
C347 C349 1.400 . S
C347 N350 1.351 . S
C347 C352 1.501 . S
C348 C349 1.387 . S
C348 N351 1.341 . S
C349 C347 1.400 . S
C349 C348 1.387 . S
N350 Co341 2.022 . S
N350 C347 1.351 . S
N350 N351 1.365 . S
N351 C348 1.341 . S
N351 N350 1.365 . S
N351 H371 0.862 . S
C352 C347 1.501 . S
C352 H353 0.961 . S
C352 H354 0.961 . S
C352 H355 0.960 . S
H353 C352 0.961 . S
H354 C352 0.961 . S
H355 C352 0.960 . S
C356 N357 1.342 . S
C356 C360 1.401 . S
C356 C361 1.499 . S
N357 Co340 1.989 . S
N357 C356 1.342 . S
N357 N358 1.388 . S
N358 Co341 1.993 . S
N358 N357 1.388 . S
N358 C359 1.346 . S
C359 N358 1.346 . S
C359 C360 1.396 . S
C359 C369 1.510 . S
C360 C356 1.401 . S
C360 C359 1.396 . S
C361 C356 1.499 . S
C361 H362 0.959 . S
C361 H363 0.960 . S
C361 H364 0.961 . S
H362 C361 0.959 . S
H363 C361 0.960 . S
H364 C361 0.961 . S
O365 Co340 1.967 . S
O365 C373 1.258 . S
O366 Co341 1.941 . S
O366 C373 1.266 . S
H367 C369 0.959 . S
H368 C369 0.961 . S
C369 C359 1.510 . S
C369 H367 0.959 . S
C369 H368 0.961 . S
C369 H370 0.960 . S
H370 C369 0.960 . S
H371 N351 0.862 . S
O372 Co340 1.920 . S
O372 C345 1.289 . S
C373 O365 1.258 . S
C373 O366 1.266 . S
Co374 O377 1.970 . S
Co374 N391 1.989 . S
Co374 O399 1.967 . S
Co374 O406 1.920 . S
Co375 O378 1.966 . S
Co375 N384 2.022 . S
Co375 N392 1.993 . S
Co375 O400 1.941 . S
C376 O377 1.258 . S
C376 O378 1.263 . S
O377 Co374 1.970 . S
O377 C376 1.258 . S
O378 Co375 1.966 . S
O378 C376 1.263 . S
C379 O380 1.235 . S
C379 O406 1.289 . S
O380 C379 1.235 . S
C381 C383 1.400 . S
C381 N384 1.351 . S
C381 C386 1.501 . S
C382 C383 1.387 . S
C382 N385 1.341 . S
C383 C381 1.400 . S
C383 C382 1.387 . S
N384 Co375 2.022 . S
N384 C381 1.351 . S
N384 N385 1.365 . S
N385 C382 1.341 . S
N385 N384 1.365 . S
N385 H405 0.862 . S
C386 C381 1.501 . S
C386 H387 0.961 . S
C386 H388 0.961 . S
C386 H389 0.960 . S
H387 C386 0.961 . S
H388 C386 0.961 . S
H389 C386 0.960 . S
C390 N391 1.342 . S
C390 C394 1.401 . S
C390 C395 1.499 . S
N391 Co374 1.989 . S
N391 C390 1.342 . S
N391 N392 1.388 . S
N392 Co375 1.993 . S
N392 N391 1.388 . S
N392 C393 1.346 . S
C393 N392 1.346 . S
C393 C394 1.396 . S
C393 C403 1.510 . S
C394 C390 1.401 . S
C394 C393 1.396 . S
C395 C390 1.499 . S
C395 H396 0.959 . S
C395 H397 0.960 . S
C395 H398 0.961 . S
H396 C395 0.959 . S
H397 C395 0.960 . S
H398 C395 0.961 . S
O399 Co374 1.967 . S
O399 C407 1.258 . S
O400 Co375 1.941 . S
O400 C407 1.266 . S
H401 C403 0.959 . S
H402 C403 0.961 . S
C403 C393 1.510 . S
C403 H401 0.959 . S
C403 H402 0.961 . S
C403 H404 0.960 . S
H404 C403 0.960 . S
H405 N385 0.862 . S
O406 Co374 1.920 . S
O406 C379 1.289 . S
C407 O399 1.258 . S
C407 O400 1.266 . S
C408 C409 1.349 . S
C408 C410 1.327 . S
C408 H433 0.950 . S
C409 C408 1.349 . S
C409 C425 1.349 . S
C410 C408 1.327 . S
C410 C429 1.429 . S
C410 H434 0.950 . S
C411 C428 1.574 . S
C411 C430 1.368 . S
C411 H435 0.949 . S
H412 C416 0.950 . S
C413 C414 1.349 . S
C413 C415 1.327 . S
C413 H436 0.950 . S
C414 C413 1.349 . S
C414 C426 1.349 . S
C415 C413 1.327 . S
C415 C431 1.429 . S
C415 H437 0.950 . S
C416 H412 0.950 . S
C416 C424 1.574 . S
C416 C432 1.368 . S
H417 C425 0.950 . S
H418 C423 0.950 . S
H419 C424 0.949 . S
H420 C426 0.950 1_556 S
H421 C427 0.950 1_556 S
H422 C428 0.949 . S
C423 H418 0.950 . S
C423 C425 1.327 . S
C423 C429 1.429 . S
C424 C416 1.574 . S
C424 H419 0.949 . S
C424 C430 1.368 . S
C425 C409 1.349 . S
C425 H417 0.950 . S
C425 C423 1.327 . S
C426 C414 1.349 . S
C426 H420 0.950 1_554 S
C426 C427 1.327 . S
C427 H421 0.950 1_554 S
C427 C426 1.327 . S
C427 C431 1.429 . S
C428 C411 1.574 . S
C428 H422 0.949 . S
C428 C432 1.368 . S
C429 C410 1.429 . S
C429 C423 1.429 . S
C429 C430 1.523 . S
C430 C411 1.368 . S
C430 C424 1.368 . S
C430 C429 1.523 . S
C431 C415 1.429 . S
C431 C427 1.429 . S
C431 C432 1.523 . S
C432 C416 1.368 . S
C432 C428 1.368 . S
C432 C431 1.523 . S
H433 C408 0.950 . S
H434 C410 0.950 . S
H435 C411 0.949 . S
H436 C413 0.950 . S
H437 C415 0.950 . S
C438 C439 1.349 . S
C438 C440 1.327 . S
C438 H463 0.950 . S
C439 C438 1.349 . S
C439 C455 1.349 . S
C440 C438 1.327 . S
C440 C459 1.429 . S
C440 H464 0.950 . S
C441 C458 1.574 . S
C441 C460 1.368 . S
C441 H465 0.949 . S
H442 C446 0.949 . S
C443 C444 1.349 . S
C443 C445 1.327 . S
C443 H466 0.950 . S
C444 C443 1.349 . S
C444 C456 1.349 . S
C445 C443 1.327 . S
C445 C461 1.429 . S
C445 H467 0.950 . S
C446 H442 0.949 . S
C446 C454 1.574 . S
C446 C462 1.368 . S
H447 C455 0.950 . S
H448 C453 0.950 . S
H449 C454 0.949 . S
H450 C456 0.950 . S
H451 C457 0.950 . S
H452 C458 0.949 . S
C453 H448 0.950 . S
C453 C455 1.327 . S
C453 C459 1.429 . S
C454 C446 1.574 . S
C454 H449 0.949 . S
C454 C460 1.368 . S
C455 C439 1.349 . S
C455 H447 0.950 . S
C455 C453 1.327 . S
C456 C444 1.349 . S
C456 H450 0.950 . S
C456 C457 1.327 . S
C457 H451 0.950 . S
C457 C456 1.327 . S
C457 C461 1.429 . S
C458 C441 1.574 . S
C458 H452 0.949 . S
C458 C462 1.368 . S
C459 C440 1.429 . S
C459 C453 1.429 . S
C459 C460 1.523 . S
C460 C441 1.368 . S
C460 C454 1.368 . S
C460 C459 1.523 . S
C461 C445 1.429 . S
C461 C457 1.429 . S
C461 C462 1.523 . S
C462 C446 1.368 . S
C462 C458 1.368 . S
C462 C461 1.523 . S
H463 C438 0.950 . S
H464 C440 0.950 . S
H465 C441 0.949 . S
H466 C443 0.950 . S
H467 C445 0.950 . S
C468 C469 1.349 . S
C468 C470 1.327 . S
C468 H493 0.950 . S
C469 C468 1.349 . S
C469 C485 1.349 . S
C470 C468 1.327 . S
C470 C489 1.429 . S
C470 H494 0.950 . S
C471 C488 1.574 . S
C471 C490 1.368 . S
C471 H495 0.949 . S
H472 C476 0.949 . S
C473 C474 1.349 . S
C473 C475 1.327 . S
C473 H496 0.950 . S
C474 C473 1.349 . S
C474 C486 1.349 . S
C475 C473 1.327 . S
C475 C491 1.429 . S
C475 H497 0.950 . S
C476 H472 0.949 . S
C476 C484 1.574 . S
C476 C492 1.368 . S
H477 C485 0.950 . S
H478 C483 0.950 . S
H479 C484 0.949 . S
H480 C486 0.950 . S
H481 C487 0.950 . S
H482 C488 0.949 . S
C483 H478 0.950 . S
C483 C485 1.327 . S
C483 C489 1.429 . S
C484 C476 1.574 . S
C484 H479 0.949 . S
C484 C490 1.368 . S
C485 C469 1.349 . S
C485 H477 0.950 . S
C485 C483 1.327 . S
C486 C474 1.349 . S
C486 H480 0.950 . S
C486 C487 1.327 . S
C487 H481 0.950 . S
C487 C486 1.327 . S
C487 C491 1.429 . S
C488 C471 1.574 . S
C488 H482 0.949 . S
C488 C492 1.368 . S
C489 C470 1.429 . S
C489 C483 1.429 . S
C489 C490 1.523 . S
C490 C471 1.368 . S
C490 C484 1.368 . S
C490 C489 1.523 . S
C491 C475 1.429 . S
C491 C487 1.429 . S
C491 C492 1.523 . S
C492 C476 1.368 . S
C492 C488 1.368 . S
C492 C491 1.523 . S
H493 C468 0.950 . S
H494 C470 0.950 . S
H495 C471 0.949 . S
H496 C473 0.950 . S
H497 C475 0.950 . S
C498 C499 1.349 . S
C498 C500 1.327 . S
C498 H523 0.950 . S
C499 C498 1.349 . S
C499 C515 1.349 . S
C500 C498 1.327 . S
C500 C519 1.429 . S
C500 H524 0.950 . S
C501 C518 1.574 . S
C501 C520 1.368 . S
C501 H525 0.949 . S
H502 C506 0.949 . S
C503 C504 1.349 . S
C503 C505 1.327 . S
C503 H526 0.950 . S
C504 C503 1.349 . S
C504 C516 1.349 . S
C505 C503 1.327 . S
C505 C521 1.429 . S
C505 H527 0.950 . S
C506 H502 0.949 . S
C506 C514 1.574 . S
C506 C522 1.368 . S
H507 C515 0.950 . S
H508 C513 0.950 . S
H509 C514 0.949 . S
H510 C516 0.950 . S
H511 C517 0.950 . S
H512 C518 0.949 . S
C513 H508 0.950 . S
C513 C515 1.327 . S
C513 C519 1.429 . S
C514 C506 1.574 . S
C514 H509 0.949 . S
C514 C520 1.368 . S
C515 C499 1.349 . S
C515 H507 0.950 . S
C515 C513 1.327 . S
C516 C504 1.349 . S
C516 H510 0.950 . S
C516 C517 1.327 . S
C517 H511 0.950 . S
C517 C516 1.327 . S
C517 C521 1.429 . S
C518 C501 1.574 . S
C518 H512 0.949 . S
C518 C522 1.368 . S
C519 C500 1.429 . S
C519 C513 1.429 . S
C519 C520 1.523 . S
C520 C501 1.368 . S
C520 C514 1.368 . S
C520 C519 1.523 . S
C521 C505 1.429 . S
C521 C517 1.429 . S
C521 C522 1.523 . S
C522 C506 1.368 . S
C522 C518 1.368 . S
C522 C521 1.523 . S
H523 C498 0.950 . S
H524 C500 0.950 . S
H525 C501 0.949 . S
H526 C503 0.950 . S
H527 C505 0.950 . S
C528 C529 1.349 . S
C528 C530 1.327 . S
C528 H553 0.950 . S
C529 C528 1.349 . S
C529 C545 1.349 . S
C530 C528 1.327 . S
C530 C549 1.429 . S
C530 H554 0.950 . S
C531 C548 1.574 . S
C531 C550 1.368 . S
C531 H555 0.949 . S
H532 C536 0.949 . S
C533 C534 1.349 . S
C533 C535 1.327 . S
C533 H556 0.950 . S
C534 C533 1.349 . S
C534 C546 1.349 . S
C535 C533 1.327 . S
C535 C551 1.429 . S
C535 H557 0.950 . S
C536 H532 0.949 . S
C536 C544 1.574 . S
C536 C552 1.368 . S
H537 C545 0.950 . S
H538 C543 0.950 . S
H539 C544 0.949 . S
H540 C546 0.950 . S
H541 C547 0.950 . S
H542 C548 0.949 . S
C543 H538 0.950 . S
C543 C545 1.327 . S
C543 C549 1.429 . S
C544 C536 1.574 . S
C544 H539 0.949 . S
C544 C550 1.368 . S
C545 C529 1.349 . S
C545 H537 0.950 . S
C545 C543 1.327 . S
C546 C534 1.349 . S
C546 H540 0.950 . S
C546 C547 1.327 . S
C547 H541 0.950 . S
C547 C546 1.327 . S
C547 C551 1.429 . S
C548 C531 1.574 . S
C548 H542 0.949 . S
C548 C552 1.368 . S
C549 C530 1.429 . S
C549 C543 1.429 . S
C549 C550 1.523 . S
C550 C531 1.368 . S
C550 C544 1.368 . S
C550 C549 1.523 . S
C551 C535 1.429 . S
C551 C547 1.429 . S
C551 C552 1.523 . S
C552 C536 1.368 . S
C552 C548 1.368 . S
C552 C551 1.523 . S
H553 C528 0.950 . S
H554 C530 0.950 . S
H555 C531 0.949 . S
H556 C533 0.950 . S
H557 C535 0.950 . S
C558 C559 1.349 . S
C558 C560 1.327 . S
C558 H583 0.950 . S
C559 C558 1.349 . S
C559 C575 1.349 . S
C560 C558 1.327 . S
C560 C579 1.429 . S
C560 H584 0.950 . S
C561 C578 1.574 . S
C561 C580 1.368 . S
C561 H585 0.949 . S
H562 C566 0.949 . S
C563 C564 1.349 . S
C563 C565 1.327 . S
C563 H586 0.950 . S
C564 C563 1.349 . S
C564 C576 1.349 . S
C565 C563 1.327 . S
C565 C581 1.429 . S
C565 H587 0.950 . S
C566 H562 0.949 . S
C566 C574 1.574 . S
C566 C582 1.368 . S
H567 C575 0.950 1_554 S
H568 C573 0.950 1_554 S
H569 C574 0.949 . S
H570 C576 0.950 . S
H571 C577 0.950 . S
H572 C578 0.949 . S
C573 H568 0.950 1_556 S
C573 C575 1.327 . S
C573 C579 1.429 . S
C574 C566 1.574 . S
C574 H569 0.949 . S
C574 C580 1.368 . S
C575 C559 1.349 . S
C575 H567 0.950 1_556 S
C575 C573 1.327 . S
C576 C564 1.349 . S
C576 H570 0.950 . S
C576 C577 1.327 . S
C577 H571 0.950 . S
C577 C576 1.327 . S
C577 C581 1.429 . S
C578 C561 1.574 . S
C578 H572 0.949 . S
C578 C582 1.368 . S
C579 C560 1.429 . S
C579 C573 1.429 . S
C579 C580 1.523 . S
C580 C561 1.368 . S
C580 C574 1.368 . S
C580 C579 1.523 . S
C581 C565 1.429 . S
C581 C577 1.429 . S
C581 C582 1.523 . S
C582 C566 1.368 . S
C582 C578 1.368 . S
C582 C581 1.523 . S
H583 C558 0.950 . S
H584 C560 0.950 . S
H585 C561 0.949 . S
H586 C563 0.950 . S
H587 C565 0.950 . S
C588 C589 1.349 . S
C588 C590 1.327 1_554 S
C588 H613 0.950 . S
C589 C588 1.349 . S
C589 C605 1.349 1_554 S
C590 C588 1.327 1_556 S
C590 C609 1.429 . S
C590 H614 0.950 1_556 S
C591 C608 1.574 . S
C591 C610 1.368 . S
C591 H615 0.949 . S
H592 C596 0.949 . S
C593 C594 1.349 . S
C593 C595 1.327 . S
C593 H616 0.950 . S
C594 C593 1.349 . S
C594 C606 1.349 . S
C595 C593 1.327 . S
C595 C611 1.429 . S
C595 H617 0.950 . S
C596 H592 0.949 . S
C596 C604 1.574 . S
C596 C612 1.368 . S
H597 C605 0.950 . S
H598 C603 0.950 . S
H599 C604 0.949 . S
H600 C606 0.950 . S
H601 C607 0.950 . S
H602 C608 0.949 . S
C603 H598 0.950 . S
C603 C605 1.327 . S
C603 C609 1.429 . S
C604 C596 1.574 . S
C604 H599 0.949 . S
C604 C610 1.368 1_655 S
C605 C589 1.349 1_556 S
C605 H597 0.950 . S
C605 C603 1.327 . S
C606 C594 1.349 . S
C606 H600 0.950 . S
C606 C607 1.327 . S
C607 H601 0.950 . S
C607 C606 1.327 . S
C607 C611 1.429 . S
C608 C591 1.574 . S
C608 H602 0.949 . S
C608 C612 1.368 1_455 S
C609 C590 1.429 . S
C609 C603 1.429 . S
C609 C610 1.523 . S
C610 C591 1.368 . S
C610 C604 1.368 1_455 S
C610 C609 1.523 . S
C611 C595 1.429 . S
C611 C607 1.429 . S
C611 C612 1.523 . S
C612 C596 1.368 . S
C612 C608 1.368 1_655 S
C612 C611 1.523 . S
H613 C588 0.950 . S
H614 C590 0.950 1_554 S
H615 C591 0.949 . S
H616 C593 0.950 . S
H617 C595 0.950 . S
C618 C619 1.349 . S
C618 C620 1.327 . S
C618 H643 0.950 . S
C619 C618 1.349 . S
C619 C635 1.349 . S
C620 C618 1.327 . S
C620 C639 1.429 . S
C620 H644 0.950 . S
C621 C638 1.571 . S
C621 C640 1.368 1_554 S
C621 H645 0.949 . S
H622 C626 0.949 . S
C623 C624 1.349 . S
C623 C625 1.327 . S
C623 H646 0.950 . S
C624 C623 1.349 . S
C624 C636 1.349 . S
C625 C623 1.327 . S
C625 C641 1.429 . S
C625 H647 0.950 . S
C626 H622 0.949 . S
C626 C634 1.571 . S
C626 C642 1.368 1_556 S
H627 C635 0.950 . S
H628 C633 0.950 . S
H629 C634 0.951 1_565 S
H630 C636 0.950 . S
H631 C637 0.950 . S
H632 C638 0.951 1_545 S
C633 H628 0.950 . S
C633 C635 1.327 . S
C633 C639 1.429 . S
C634 C626 1.571 . S
C634 H629 0.951 1_545 S
C634 C640 1.372 1_545 S
C635 C619 1.349 . S
C635 H627 0.950 . S
C635 C633 1.327 . S
C636 C624 1.349 . S
C636 H630 0.950 . S
C636 C637 1.327 . S
C637 H631 0.950 . S
C637 C636 1.327 . S
C637 C641 1.429 . S
C638 C621 1.571 . S
C638 H632 0.951 1_565 S
C638 C642 1.373 1_565 S
C639 C620 1.429 . S
C639 C633 1.429 . S
C639 C640 1.523 . S
C640 C621 1.368 1_556 S
C640 C634 1.372 1_565 S
C640 C639 1.523 . S
C641 C625 1.429 . S
C641 C637 1.429 . S
C641 C642 1.523 . S
C642 C626 1.368 1_554 S
C642 C638 1.373 1_545 S
C642 C641 1.523 . S
H643 C618 0.950 . S
H644 C620 0.950 . S
H645 C621 0.949 . S
H646 C623 0.950 . S
H647 C625 0.950 . S
C648 C649 1.349 . S
C648 C650 1.327 . S
C648 H673 0.950 . S
C649 C648 1.349 . S
C649 C665 1.349 . S
C650 C648 1.327 . S
C650 C669 1.429 . S
C650 H674 0.950 . S
C651 C668 1.574 . S
C651 C670 1.368 . S
C651 H675 0.949 . S
H652 C656 0.949 . S
C653 C654 1.349 . S
C653 C655 1.327 1_556 S
C653 H676 0.950 . S
C654 C653 1.349 . S
C654 C666 1.349 1_556 S
C655 C653 1.327 1_554 S
C655 C671 1.429 . S
C655 H677 0.950 . S
C656 H652 0.949 . S
C656 C664 1.574 . S
C656 C672 1.368 . S
H657 C665 0.950 . S
H658 C663 0.950 . S
H659 C664 0.949 . S
H660 C666 0.950 . S
H661 C667 0.950 . S
H662 C668 0.949 . S
C663 H658 0.950 . S
C663 C665 1.327 . S
C663 C669 1.429 . S
C664 C656 1.574 . S
C664 H659 0.949 . S
C664 C670 1.368 . S
C665 C649 1.349 . S
C665 H657 0.950 . S
C665 C663 1.327 . S
C666 C654 1.349 1_554 S
C666 H660 0.950 . S
C666 C667 1.327 . S
C667 H661 0.950 . S
C667 C666 1.327 . S
C667 C671 1.429 . S
C668 C651 1.574 . S
C668 H662 0.949 . S
C668 C672 1.368 . S
C669 C650 1.429 . S
C669 C663 1.429 . S
C669 C670 1.523 . S
C670 C651 1.368 . S
C670 C664 1.368 . S
C670 C669 1.523 . S
C671 C655 1.429 . S
C671 C667 1.429 . S
C671 C672 1.523 . S
C672 C656 1.368 . S
C672 C668 1.368 . S
C672 C671 1.523 . S
H673 C648 0.950 . S
H674 C650 0.950 . S
H675 C651 0.949 . S
H676 C653 0.950 . S
H677 C655 0.950 . S
C678 C679 1.349 . S
C678 C680 1.327 . S
C678 H703 0.950 . S
C679 C678 1.349 . S
C679 C695 1.349 . S
C680 C678 1.327 . S
C680 C699 1.429 . S
C680 H704 0.950 . S
C681 C698 1.574 . S
C681 C700 1.368 . S
C681 H705 0.949 . S
H682 C686 0.949 . S
C683 C684 1.349 . S
C683 C685 1.327 . S
C683 H706 0.950 . S
C684 C683 1.349 . S
C684 C696 1.349 . S
C685 C683 1.327 . S
C685 C701 1.429 . S
C685 H707 0.950 . S
C686 H682 0.949 . S
C686 C694 1.574 . S
C686 C702 1.368 . S
H687 C695 0.950 . S
H688 C693 0.950 . S
H689 C694 0.949 . S
H690 C696 0.950 . S
H691 C697 0.950 . S
H692 C698 0.949 . S
C693 H688 0.950 . S
C693 C695 1.327 . S
C693 C699 1.429 . S
C694 C686 1.574 . S
C694 H689 0.949 . S
C694 C700 1.368 1_455 S
C695 C679 1.349 . S
C695 H687 0.950 . S
C695 C693 1.327 . S
C696 C684 1.349 . S
C696 H690 0.950 . S
C696 C697 1.327 . S
C697 H691 0.950 . S
C697 C696 1.327 . S
C697 C701 1.429 . S
C698 C681 1.574 . S
C698 H692 0.949 . S
C698 C702 1.368 1_655 S
C699 C680 1.429 . S
C699 C693 1.429 . S
C699 C700 1.523 . S
C700 C681 1.368 . S
C700 C694 1.368 1_655 S
C700 C699 1.523 . S
C701 C685 1.429 . S
C701 C697 1.429 . S
C701 C702 1.523 . S
C702 C686 1.368 . S
C702 C698 1.368 1_455 S
C702 C701 1.523 . S
H703 C678 0.950 . S
H704 C680 0.950 . S
H705 C681 0.949 . S
H706 C683 0.950 . S
H707 C685 0.950 . S
C708 C709 1.349 . S
C708 C710 1.327 . S
C708 H733 0.950 . S
C709 C708 1.349 . S
C709 C725 1.349 . S
C710 C708 1.327 . S
C710 C729 1.429 . S
C710 H734 0.950 . S
C711 C728 1.574 . S
C711 C730 1.368 . S
C711 H735 0.949 . S
H712 C716 0.949 . S
C713 C714 1.349 . S
C713 C715 1.327 . S
C713 H736 0.950 . S
C714 C713 1.349 . S
C714 C726 1.349 . S
C715 C713 1.327 . S
C715 C731 1.429 . S
C715 H737 0.950 . S
C716 H712 0.949 . S
C716 C724 1.574 . S
C716 C732 1.368 . S
H717 C725 0.950 . S
H718 C723 0.950 . S
H719 C724 0.949 . S
H720 C726 0.950 . S
H721 C727 0.950 . S
H722 C728 0.949 . S
C723 H718 0.950 . S
C723 C725 1.327 . S
C723 C729 1.429 . S
C724 C716 1.574 . S
C724 H719 0.949 . S
C724 C730 1.368 1_565 S
C725 C709 1.349 . S
C725 H717 0.950 . S
C725 C723 1.327 . S
C726 C714 1.349 . S
C726 H720 0.950 . S
C726 C727 1.327 . S
C727 H721 0.950 . S
C727 C726 1.327 . S
C727 C731 1.429 . S
C728 C711 1.574 . S
C728 H722 0.949 . S
C728 C732 1.368 1_545 S
C729 C710 1.429 . S
C729 C723 1.429 . S
C729 C730 1.523 . S
C730 C711 1.368 . S
C730 C724 1.368 1_545 S
C730 C729 1.523 . S
C731 C715 1.429 . S
C731 C727 1.429 . S
C731 C732 1.523 . S
C732 C716 1.368 . S
C732 C728 1.368 1_565 S
C732 C731 1.523 . S
H733 C708 0.950 . S
H734 C710 0.950 . S
H735 C711 0.949 . S
H736 C713 0.950 . S
H737 C715 0.950 . S
C738 C739 1.349 . S
C738 C740 1.327 . S
C738 H763 0.950 . S
C739 C738 1.349 . S
C739 C755 1.349 . S
C740 C738 1.327 . S
C740 C759 1.429 . S
C740 H764 0.950 . S
C741 C758 1.574 . S
C741 C760 1.368 . S
C741 H765 0.949 . S
H742 C746 0.949 . S
C743 C744 1.349 . S
C743 C745 1.327 . S
C743 H766 0.950 . S
C744 C743 1.349 . S
C744 C756 1.349 . S
C745 C743 1.327 . S
C745 C761 1.429 . S
C745 H767 0.950 . S
C746 H742 0.949 . S
C746 C754 1.574 . S
C746 C762 1.368 . S
H747 C755 0.950 . S
H748 C753 0.950 . S
H749 C754 0.949 . S
H750 C756 0.950 . S
H751 C757 0.950 . S
H752 C758 0.949 . S
C753 H748 0.950 . S
C753 C755 1.327 . S
C753 C759 1.429 . S
C754 C746 1.574 . S
C754 H749 0.949 . S
C754 C760 1.368 . S
C755 C739 1.349 . S
C755 H747 0.950 . S
C755 C753 1.327 . S
C756 C744 1.349 . S
C756 H750 0.950 . S
C756 C757 1.327 . S
C757 H751 0.950 . S
C757 C756 1.327 . S
C757 C761 1.429 . S
C758 C741 1.574 . S
C758 H752 0.949 . S
C758 C762 1.368 . S
C759 C740 1.429 . S
C759 C753 1.429 . S
C759 C760 1.523 . S
C760 C741 1.368 . S
C760 C754 1.368 . S
C760 C759 1.523 . S
C761 C745 1.429 . S
C761 C757 1.429 . S
C761 C762 1.523 . S
C762 C746 1.368 . S
C762 C758 1.368 . S
C762 C761 1.523 . S
H763 C738 0.950 . S
H764 C740 0.950 . S
H765 C741 0.949 . S
H766 C743 0.950 . S
H767 C745 0.950 . S
C768 C769 1.349 . S
C768 C770 1.327 . S
C768 H793 0.950 . S
C769 C768 1.349 . S
C769 C785 1.349 . S
C770 C768 1.327 . S
C770 C789 1.429 . S
C770 H794 0.950 . S
C771 C788 1.574 . S
C771 C790 1.368 . S
C771 H795 0.949 . S
H772 C776 0.949 . S
C773 C774 1.349 . S
C773 C775 1.327 . S
C773 H796 0.950 . S
C774 C773 1.349 . S
C774 C786 1.349 . S
C775 C773 1.327 . S
C775 C791 1.429 . S
C775 H797 0.950 . S
C776 H772 0.949 . S
C776 C784 1.574 . S
C776 C792 1.368 . S
H777 C785 0.950 . S
H778 C783 0.950 . S
H779 C784 0.949 . S
H780 C786 0.950 . S
H781 C787 0.950 . S
H782 C788 0.949 . S
C783 H778 0.950 . S
C783 C785 1.327 . S
C783 C789 1.429 . S
C784 C776 1.574 . S
C784 H779 0.949 . S
C784 C790 1.368 . S
C785 C769 1.349 . S
C785 H777 0.950 . S
C785 C783 1.327 . S
C786 C774 1.349 . S
C786 H780 0.950 . S
C786 C787 1.327 . S
C787 H781 0.950 . S
C787 C786 1.327 . S
C787 C791 1.429 . S
C788 C771 1.574 . S
C788 H782 0.949 . S
C788 C792 1.368 . S
C789 C770 1.429 . S
C789 C783 1.429 . S
C789 C790 1.523 . S
C790 C771 1.368 . S
C790 C784 1.368 . S
C790 C789 1.523 . S
C791 C775 1.429 . S
C791 C787 1.429 . S
C791 C792 1.523 . S
C792 C776 1.368 . S
C792 C788 1.368 . S
C792 C791 1.523 . S
H793 C768 0.950 . S
H794 C770 0.950 . S
H795 C771 0.949 . S
H796 C773 0.950 . S
H797 C775 0.950 . S
C798 C799 1.349 . S
C798 C800 1.327 . S
C798 H823 0.950 . S
C799 C798 1.349 . S
C799 C815 1.349 . S
C800 C798 1.327 . S
C800 C819 1.429 . S
C800 H824 0.950 . S
C801 C818 1.574 . S
C801 C820 1.368 . S
C801 H825 0.949 . S
H802 C806 0.949 . S
C803 C804 1.349 . S
C803 C805 1.327 . S
C803 H826 0.950 . S
C804 C803 1.349 . S
C804 C816 1.349 . S
C805 C803 1.327 . S
C805 C821 1.429 . S
C805 H827 0.950 . S
C806 H802 0.949 . S
C806 C814 1.574 . S
C806 C822 1.368 . S
H807 C815 0.950 . S
H808 C813 0.950 . S
H809 C814 0.949 . S
H810 C816 0.950 . S
H811 C817 0.950 . S
H812 C818 0.949 . S
C813 H808 0.950 . S
C813 C815 1.327 . S
C813 C819 1.429 . S
C814 C806 1.574 . S
C814 H809 0.949 . S
C814 C820 1.368 . S
C815 C799 1.349 . S
C815 H807 0.950 . S
C815 C813 1.327 . S
C816 C804 1.349 . S
C816 H810 0.950 . S
C816 C817 1.327 . S
C817 H811 0.950 . S
C817 C816 1.327 . S
C817 C821 1.429 . S
C818 C801 1.574 . S
C818 H812 0.949 . S
C818 C822 1.368 . S
C819 C800 1.429 . S
C819 C813 1.429 . S
C819 C820 1.523 . S
C820 C801 1.368 . S
C820 C814 1.368 . S
C820 C819 1.523 . S
C821 C805 1.429 . S
C821 C817 1.429 . S
C821 C822 1.523 . S
C822 C806 1.368 . S
C822 C818 1.368 . S
C822 C821 1.523 . S
H823 C798 0.950 . S
H824 C800 0.950 . S
H825 C801 0.949 . S
H826 C803 0.950 . S
H827 C805 0.950 . S
C828 C829 1.349 . S
C828 C830 1.327 . S
C828 H853 0.950 . S
C829 C828 1.349 . S
C829 C845 1.349 . S
C830 C828 1.327 . S
C830 C849 1.429 . S
C830 H854 0.950 . S
C831 C848 1.574 . S
C831 C850 1.368 . S
C831 H855 0.949 . S
H832 C836 0.949 . S
C833 C834 1.349 . S
C833 C835 1.327 . S
C833 H856 0.950 . S
C834 C833 1.349 . S
C834 C846 1.349 . S
C835 C833 1.327 . S
C835 C851 1.429 . S
C835 H857 0.950 . S
C836 H832 0.949 . S
C836 C844 1.574 . S
C836 C852 1.368 . S
H837 C845 0.950 . S
H838 C843 0.950 . S
H839 C844 0.949 . S
H840 C846 0.950 . S
H841 C847 0.950 . S
H842 C848 0.949 . S
C843 H838 0.950 . S
C843 C845 1.327 . S
C843 C849 1.429 . S
C844 C836 1.574 . S
C844 H839 0.949 . S
C844 C850 1.368 . S
C845 C829 1.349 . S
C845 H837 0.950 . S
C845 C843 1.327 . S
C846 C834 1.349 . S
C846 H840 0.950 . S
C846 C847 1.327 . S
C847 H841 0.950 . S
C847 C846 1.327 . S
C847 C851 1.429 . S
C848 C831 1.574 . S
C848 H842 0.949 . S
C848 C852 1.368 . S
C849 C830 1.429 . S
C849 C843 1.429 . S
C849 C850 1.523 . S
C850 C831 1.368 . S
C850 C844 1.368 . S
C850 C849 1.523 . S
C851 C835 1.429 . S
C851 C847 1.429 . S
C851 C852 1.523 . S
C852 C836 1.368 . S
C852 C848 1.368 . S
C852 C851 1.523 . S
H853 C828 0.950 . S
H854 C830 0.950 . S
H855 C831 0.949 . S
H856 C833 0.950 . S
H857 C835 0.950 . S
C858 C859 1.349 . S
C858 C860 1.327 . S
C858 H883 0.950 . S
C859 C858 1.349 . S
C859 C875 1.349 . S
C860 C858 1.327 . S
C860 C879 1.429 . S
C860 H884 0.950 . S
C861 C878 1.574 . S
C861 C880 1.368 . S
C861 H885 0.949 . S
H862 C866 0.949 . S
C863 C864 1.349 . S
C863 C865 1.327 . S
C863 H886 0.950 . S
C864 C863 1.349 . S
C864 C876 1.349 . S
C865 C863 1.327 . S
C865 C881 1.429 . S
C865 H887 0.950 . S
C866 H862 0.949 . S
C866 C874 1.574 . S
C866 C882 1.368 . S
H867 C875 0.950 . S
H868 C873 0.950 . S
H869 C874 0.949 . S
H870 C876 0.950 . S
H871 C877 0.950 . S
H872 C878 0.949 . S
C873 H868 0.950 . S
C873 C875 1.327 . S
C873 C879 1.429 . S
C874 C866 1.574 . S
C874 H869 0.949 . S
C874 C880 1.368 . S
C875 C859 1.349 . S
C875 H867 0.950 . S
C875 C873 1.327 . S
C876 C864 1.349 . S
C876 H870 0.950 . S
C876 C877 1.327 . S
C877 H871 0.950 . S
C877 C876 1.327 . S
C877 C881 1.429 . S
C878 C861 1.574 . S
C878 H872 0.949 . S
C878 C882 1.368 . S
C879 C860 1.429 . S
C879 C873 1.429 . S
C879 C880 1.523 . S
C880 C861 1.368 . S
C880 C874 1.368 . S
C880 C879 1.523 . S
C881 C865 1.429 . S
C881 C877 1.429 . S
C881 C882 1.523 . S
C882 C866 1.368 . S
C882 C878 1.368 . S
C882 C881 1.523 . S
H883 C858 0.950 . S
H884 C860 0.950 . S
H885 C861 0.949 . S
H886 C863 0.950 . S
H887 C865 0.950 . S
C888 C889 1.349 . S
C888 C890 1.327 . S
C888 H913 0.950 . S
C889 C888 1.349 . S
C889 C905 1.349 . S
C890 C888 1.327 . S
C890 C909 1.429 . S
C890 H914 0.950 . S
C891 C908 1.574 . S
C891 C910 1.368 . S
C891 H915 0.949 . S
H892 C896 0.949 . S
C893 C894 1.349 . S
C893 C895 1.327 1_554 S
C893 H916 0.950 . S
C894 C893 1.349 . S
C894 C906 1.349 . S
C895 C893 1.327 1_556 S
C895 C911 1.429 . S
C895 H917 0.950 . S
C896 H892 0.949 . S
C896 C904 1.574 . S
C896 C912 1.368 . S
H897 C905 0.950 . S
H898 C903 0.950 . S
H899 C904 0.949 . S
H900 C906 0.950 . S
H901 C907 0.950 . S
H902 C908 0.949 . S
C903 H898 0.950 . S
C903 C905 1.327 . S
C903 C909 1.429 . S
C904 C896 1.574 . S
C904 H899 0.949 . S
C904 C910 1.368 . S
C905 C889 1.349 . S
C905 H897 0.950 . S
C905 C903 1.327 . S
C906 C894 1.349 . S
C906 H900 0.950 . S
C906 C907 1.327 1_554 S
C907 H901 0.950 . S
C907 C906 1.327 1_556 S
C907 C911 1.429 . S
C908 C891 1.574 . S
C908 H902 0.949 . S
C908 C912 1.368 . S
C909 C890 1.429 . S
C909 C903 1.429 . S
C909 C910 1.523 . S
C910 C891 1.368 . S
C910 C904 1.368 . S
C910 C909 1.523 . S
C911 C895 1.429 . S
C911 C907 1.429 . S
C911 C912 1.523 . S
C912 C896 1.368 . S
C912 C908 1.368 . S
C912 C911 1.523 . S
H913 C888 0.950 . S
H914 C890 0.950 . S
H915 C891 0.949 . S
H916 C893 0.950 . S
H917 C895 0.950 . S
C918 C919 1.349 . S
C918 C920 1.327 . S
C918 H943 0.950 . S
C919 C918 1.349 . S
C919 C935 1.349 . S
C920 C918 1.327 . S
C920 C939 1.429 . S
C920 H944 0.950 . S
C921 C938 1.574 . S
C921 C940 1.368 . S
C921 H945 0.949 . S
H922 C926 0.949 . S
C923 C924 1.349 . S
C923 C925 1.327 . S
C923 H946 0.950 . S
C924 C923 1.349 . S
C924 C936 1.349 1_556 S
C925 C923 1.327 . S
C925 C941 1.429 1_556 S
C925 H947 0.950 . S
C926 H922 0.949 . S
C926 C934 1.574 . S
C926 C942 1.368 . S
H927 C935 0.950 . S
H928 C933 0.950 . S
H929 C934 0.949 . S
H930 C936 0.950 . S
H931 C937 0.950 . S
H932 C938 0.949 1_556 S
C933 H928 0.950 . S
C933 C935 1.327 . S
C933 C939 1.429 . S
C934 C926 1.574 . S
C934 H929 0.949 . S
C934 C940 1.368 . S
C935 C919 1.349 . S
C935 H927 0.950 . S
C935 C933 1.327 . S
C936 C924 1.349 1_554 S
C936 H930 0.950 . S
C936 C937 1.327 . S
C937 H931 0.950 . S
C937 C936 1.327 . S
C937 C941 1.429 . S
C938 C921 1.574 . S
C938 H932 0.949 1_554 S
C938 C942 1.368 . S
C939 C920 1.429 . S
C939 C933 1.429 . S
C939 C940 1.523 . S
C940 C921 1.368 . S
C940 C934 1.368 . S
C940 C939 1.523 . S
C941 C925 1.429 1_554 S
C941 C937 1.429 . S
C941 C942 1.523 . S
C942 C926 1.368 . S
C942 C938 1.368 . S
C942 C941 1.523 . S
H943 C918 0.950 . S
H944 C920 0.950 . S
H945 C921 0.949 . S
H946 C923 0.950 . S
H947 C925 0.950 . S
C948 C949 1.349 . S
C948 C950 1.327 . S
C948 H973 0.950 . S
C949 C948 1.349 . S
C949 C965 1.349 . S
C950 C948 1.327 . S
C950 C969 1.429 . S
C950 H974 0.950 . S
C951 C968 1.574 . S
C951 C970 1.368 . S
C951 H975 0.949 . S
H952 C956 0.949 . S
C953 C954 1.349 . S
C953 C955 1.327 . S
C953 H976 0.950 . S
C954 C953 1.349 . S
C954 C966 1.349 . S
C955 C953 1.327 . S
C955 C971 1.429 . S
C955 H977 0.950 . S
C956 H952 0.949 . S
C956 C964 1.574 . S
C956 C972 1.368 . S
H957 C965 0.950 . S
H958 C963 0.950 . S
H959 C964 0.949 . S
H960 C966 0.950 . S
H961 C967 0.950 . S
H962 C968 0.949 . S
C963 H958 0.950 . S
C963 C965 1.327 . S
C963 C969 1.429 . S
C964 C956 1.574 . S
C964 H959 0.949 . S
C964 C970 1.368 . S
C965 C949 1.349 . S
C965 H957 0.950 . S
C965 C963 1.327 . S
C966 C954 1.349 . S
C966 H960 0.950 . S
C966 C967 1.327 . S
C967 H961 0.950 . S
C967 C966 1.327 . S
C967 C971 1.429 . S
C968 C951 1.574 . S
C968 H962 0.949 . S
C968 C972 1.368 . S
C969 C950 1.429 . S
C969 C963 1.429 . S
C969 C970 1.523 . S
C970 C951 1.368 . S
C970 C964 1.368 . S
C970 C969 1.523 . S
C971 C955 1.429 . S
C971 C967 1.429 . S
C971 C972 1.523 . S
C972 C956 1.368 . S
C972 C968 1.368 . S
C972 C971 1.523 . S
H973 C948 0.950 . S
H974 C950 0.950 . S
H975 C951 0.949 . S
H976 C953 0.950 . S
H977 C955 0.950 . S
C978 C979 1.349 1_556 S
C978 C980 1.327 . S
C978 H1003 0.950 1_556 S
C979 C978 1.349 1_554 S
C979 C995 1.349 . S
C980 C978 1.327 . S
C980 C999 1.429 . S
C980 H1004 0.950 . S
C981 C998 1.574 . S
C981 C1000 1.368 . S
C981 H1005 0.949 . S
H982 C986 0.949 . S
C983 C984 1.349 . S
C983 C985 1.327 . S
C983 H1006 0.950 . S
C984 C983 1.349 . S
C984 C996 1.349 . S
C985 C983 1.327 . S
C985 C1001 1.429 . S
C985 H1007 0.950 . S
C986 H982 0.949 . S
C986 C994 1.574 . S
C986 C1002 1.368 . S
H987 C995 0.950 . S
H988 C993 0.950 . S
H989 C994 0.949 . S
H990 C996 0.950 . S
H991 C997 0.950 . S
H992 C998 0.949 . S
C993 H988 0.950 . S
C993 C995 1.327 1_556 S
C993 C999 1.429 . S
C994 C986 1.574 . S
C994 H989 0.949 . S
C994 C1000 1.368 . S
C995 C979 1.349 . S
C995 H987 0.950 . S
C995 C993 1.327 1_554 S
C996 C984 1.349 . S
C996 H990 0.950 . S
C996 C997 1.327 . S
C997 H991 0.950 . S
C997 C996 1.327 . S
C997 C1001 1.429 . S
C998 C981 1.574 . S
C998 H992 0.949 . S
C998 C1002 1.368 . S
C999 C980 1.429 . S
C999 C993 1.429 . S
C999 C1000 1.523 . S
C1000 C981 1.368 . S
C1000 C994 1.368 . S
C1000 C999 1.523 . S
C1001 C985 1.429 . S
C1001 C997 1.429 . S
C1001 C1002 1.523 . S
C1002 C986 1.368 . S
C1002 C998 1.368 . S
C1002 C1001 1.523 . S
H1003 C978 0.950 1_554 S
H1004 C980 0.950 . S
H1005 C981 0.949 . S
H1006 C983 0.950 . S
H1007 C985 0.950 . S
C1008 C1009 1.349 . S
C1008 C1010 1.327 . S
C1008 H1033 0.950 . S
C1009 C1008 1.349 . S
C1009 C1025 1.349 . S
C1010 C1008 1.327 . S
C1010 C1029 1.429 . S
C1010 H1034 0.950 . S
C1011 C1028 1.574 . S
C1011 C1030 1.368 . S
C1011 H1035 0.949 . S
H1012 C1016 0.949 1_554 S
C1013 C1014 1.349 . S
C1013 C1015 1.327 . S
C1013 H1036 0.950 . S
C1014 C1013 1.349 . S
C1014 C1026 1.349 . S
C1015 C1013 1.327 . S
C1015 C1031 1.429 . S
C1015 H1037 0.950 . S
C1016 H1012 0.949 1_556 S
C1016 C1024 1.574 . S
C1016 C1032 1.368 . S
H1017 C1025 0.950 . S
H1018 C1023 0.950 . S
H1019 C1024 0.949 . S
H1020 C1026 0.950 . S
H1021 C1027 0.950 . S
H1022 C1028 0.949 . S
C1023 H1018 0.950 . S
C1023 C1025 1.327 . S
C1023 C1029 1.429 . S
C1024 C1016 1.574 . S
C1024 H1019 0.949 . S
C1024 C1030 1.368 . S
C1025 C1009 1.349 . S
C1025 H1017 0.950 . S
C1025 C1023 1.327 . S
C1026 C1014 1.349 . S
C1026 H1020 0.950 . S
C1026 C1027 1.327 . S
C1027 H1021 0.950 . S
C1027 C1026 1.327 . S
C1027 C1031 1.429 . S
C1028 C1011 1.574 . S
C1028 H1022 0.949 . S
C1028 C1032 1.368 . S
C1029 C1010 1.429 . S
C1029 C1023 1.429 . S
C1029 C1030 1.523 . S
C1030 C1011 1.368 . S
C1030 C1024 1.368 . S
C1030 C1029 1.523 . S
C1031 C1015 1.429 . S
C1031 C1027 1.429 . S
C1031 C1032 1.523 1_554 S
C1032 C1016 1.368 . S
C1032 C1028 1.368 . S
C1032 C1031 1.523 1_556 S
H1033 C1008 0.950 . S
H1034 C1010 0.950 . S
H1035 C1011 0.949 . S
H1036 C1013 0.950 . S
H1037 C1015 0.950 . S
C1038 C1039 1.349 . S
C1038 C1040 1.327 . S
C1038 H1063 0.950 . S
C1039 C1038 1.349 . S
C1039 C1055 1.349 . S
C1040 C1038 1.327 . S
C1040 C1059 1.429 . S
C1040 H1064 0.950 . S
C1041 C1058 1.574 . S
C1041 C1060 1.368 . S
C1041 H1065 0.949 . S
H1042 C1046 0.949 . S
C1043 C1044 1.349 . S
C1043 C1045 1.327 . S
C1043 H1066 0.950 . S
C1044 C1043 1.349 . S
C1044 C1056 1.349 . S
C1045 C1043 1.327 . S
C1045 C1061 1.429 . S
C1045 H1067 0.950 . S
C1046 H1042 0.949 . S
C1046 C1054 1.574 . S
C1046 C1062 1.368 . S
H1047 C1055 0.950 . S
H1048 C1053 0.950 . S
H1049 C1054 0.949 . S
H1050 C1056 0.950 . S
H1051 C1057 0.950 . S
H1052 C1058 0.949 . S
C1053 H1048 0.950 . S
C1053 C1055 1.327 . S
C1053 C1059 1.429 . S
C1054 C1046 1.574 . S
C1054 H1049 0.949 . S
C1054 C1060 1.368 . S
C1055 C1039 1.349 . S
C1055 H1047 0.950 . S
C1055 C1053 1.327 . S
C1056 C1044 1.349 . S
C1056 H1050 0.950 . S
C1056 C1057 1.327 . S
C1057 H1051 0.950 . S
C1057 C1056 1.327 . S
C1057 C1061 1.429 . S
C1058 C1041 1.574 . S
C1058 H1052 0.949 . S
C1058 C1062 1.368 . S
C1059 C1040 1.429 . S
C1059 C1053 1.429 . S
C1059 C1060 1.523 1_556 S
C1060 C1041 1.368 . S
C1060 C1054 1.368 . S
C1060 C1059 1.523 1_554 S
C1061 C1045 1.429 . S
C1061 C1057 1.429 . S
C1061 C1062 1.523 . S
C1062 C1046 1.368 . S
C1062 C1058 1.368 . S
C1062 C1061 1.523 . S
H1063 C1038 0.950 . S
H1064 C1040 0.950 . S
H1065 C1041 0.949 . S
H1066 C1043 0.950 . S
H1067 C1045 0.950 . S
C1068 C1069 1.349 . S
C1068 C1070 1.327 . S
C1068 H1093 0.950 . S
C1069 C1068 1.349 . S
C1069 C1085 1.349 . S
C1070 C1068 1.327 . S
C1070 C1089 1.429 . S
C1070 H1094 0.950 . S
C1071 C1088 1.574 . S
C1071 C1090 1.368 . S
C1071 H1095 0.949 . S
H1072 C1076 0.949 . S
C1073 C1074 1.349 . S
C1073 C1075 1.327 . S
C1073 H1096 0.950 . S
C1074 C1073 1.349 . S
C1074 C1086 1.349 . S
C1075 C1073 1.327 . S
C1075 C1091 1.429 . S
C1075 H1097 0.950 . S
C1076 H1072 0.949 . S
C1076 C1084 1.574 . S
C1076 C1092 1.368 . S
H1077 C1085 0.950 . S
H1078 C1083 0.950 . S
H1079 C1084 0.949 . S
H1080 C1086 0.950 . S
H1081 C1087 0.950 . S
H1082 C1088 0.949 . S
C1083 H1078 0.950 . S
C1083 C1085 1.327 . S
C1083 C1089 1.429 . S
C1084 C1076 1.574 . S
C1084 H1079 0.949 . S
C1084 C1090 1.368 . S
C1085 C1069 1.349 . S
C1085 H1077 0.950 . S
C1085 C1083 1.327 . S
C1086 C1074 1.349 . S
C1086 H1080 0.950 . S
C1086 C1087 1.327 . S
C1087 H1081 0.950 . S
C1087 C1086 1.327 . S
C1087 C1091 1.429 . S
C1088 C1071 1.574 . S
C1088 H1082 0.949 . S
C1088 C1092 1.368 . S
C1089 C1070 1.429 . S
C1089 C1083 1.429 . S
C1089 C1090 1.523 . S
C1090 C1071 1.368 . S
C1090 C1084 1.368 . S
C1090 C1089 1.523 . S
C1091 C1075 1.429 . S
C1091 C1087 1.429 . S
C1091 C1092 1.523 . S
C1092 C1076 1.368 . S
C1092 C1088 1.368 . S
C1092 C1091 1.523 . S
H1093 C1068 0.950 . S
H1094 C1070 0.950 . S
H1095 C1071 0.949 . S
H1096 C1073 0.950 . S
H1097 C1075 0.950 . S
C1098 C1099 1.349 . S
C1098 C1100 1.327 . S
C1098 H1123 0.950 . S
C1099 C1098 1.349 . S
C1099 C1115 1.349 . S
C1100 C1098 1.327 . S
C1100 C1119 1.429 . S
C1100 H1124 0.950 . S
C1101 C1118 1.574 . S
C1101 C1120 1.368 . S
C1101 H1125 0.949 . S
H1102 C1106 0.949 . S
C1103 C1104 1.349 . S
C1103 C1105 1.327 . S
C1103 H1126 0.950 . S
C1104 C1103 1.349 . S
C1104 C1116 1.349 . S
C1105 C1103 1.327 . S
C1105 C1121 1.429 . S
C1105 H1127 0.950 . S
C1106 H1102 0.949 . S
C1106 C1114 1.574 . S
C1106 C1122 1.368 . S
H1107 C1115 0.950 . S
H1108 C1113 0.950 . S
H1109 C1114 0.949 . S
H1110 C1116 0.950 . S
H1111 C1117 0.950 . S
H1112 C1118 0.949 . S
C1113 H1108 0.950 . S
C1113 C1115 1.327 . S
C1113 C1119 1.429 . S
C1114 C1106 1.574 . S
C1114 H1109 0.949 . S
C1114 C1120 1.368 . S
C1115 C1099 1.349 . S
C1115 H1107 0.950 . S
C1115 C1113 1.327 . S
C1116 C1104 1.349 . S
C1116 H1110 0.950 . S
C1116 C1117 1.327 . S
C1117 H1111 0.950 . S
C1117 C1116 1.327 . S
C1117 C1121 1.429 . S
C1118 C1101 1.574 . S
C1118 H1112 0.949 . S
C1118 C1122 1.368 . S
C1119 C1100 1.429 . S
C1119 C1113 1.429 . S
C1119 C1120 1.523 . S
C1120 C1101 1.368 . S
C1120 C1114 1.368 . S
C1120 C1119 1.523 . S
C1121 C1105 1.429 . S
C1121 C1117 1.429 . S
C1121 C1122 1.523 . S
C1122 C1106 1.368 . S
C1122 C1118 1.368 . S
C1122 C1121 1.523 . S
H1123 C1098 0.950 . S
H1124 C1100 0.950 . S
H1125 C1101 0.949 . S
H1126 C1103 0.950 . S
H1127 C1105 0.950 . S
C1128 C1129 1.349 1_554 S
C1128 C1130 1.327 . S
C1128 H1153 0.950 1_554 S
C1129 C1128 1.349 1_556 S
C1129 C1145 1.349 1_556 S
C1130 C1128 1.327 . S
C1130 C1149 1.429 . S
C1130 H1154 0.950 . S
C1131 C1148 1.574 . S
C1131 C1150 1.368 . S
C1131 H1155 0.949 . S
H1132 C1136 0.949 . S
C1133 C1134 1.349 . S
C1133 C1135 1.327 . S
C1133 H1156 0.950 . S
C1134 C1133 1.349 . S
C1134 C1146 1.349 . S
C1135 C1133 1.327 . S
C1135 C1151 1.429 . S
C1135 H1157 0.950 . S
C1136 H1132 0.949 . S
C1136 C1144 1.574 . S
C1136 C1152 1.368 . S
H1137 C1145 0.950 1_556 S
H1138 C1143 0.950 . S
H1139 C1144 0.949 . S
H1140 C1146 0.950 . S
H1141 C1147 0.950 . S
H1142 C1148 0.949 . S
C1143 H1138 0.950 . S
C1143 C1145 1.327 . S
C1143 C1149 1.429 . S
C1144 C1136 1.574 . S
C1144 H1139 0.949 . S
C1144 C1150 1.368 . S
C1145 C1129 1.349 1_554 S
C1145 H1137 0.950 1_554 S
C1145 C1143 1.327 . S
C1146 C1134 1.349 . S
C1146 H1140 0.950 . S
C1146 C1147 1.327 . S
C1147 H1141 0.950 . S
C1147 C1146 1.327 . S
C1147 C1151 1.429 . S
C1148 C1131 1.574 . S
C1148 H1142 0.949 . S
C1148 C1152 1.368 . S
C1149 C1130 1.429 . S
C1149 C1143 1.429 . S
C1149 C1150 1.523 . S
C1150 C1131 1.368 . S
C1150 C1144 1.368 . S
C1150 C1149 1.523 . S
C1151 C1135 1.429 . S
C1151 C1147 1.429 . S
C1151 C1152 1.523 . S
C1152 C1136 1.368 . S
C1152 C1148 1.368 . S
C1152 C1151 1.523 . S
H1153 C1128 0.950 1_556 S
H1154 C1130 0.950 . S
H1155 C1131 0.949 . S
H1156 C1133 0.950 . S
H1157 C1135 0.950 . S
C1158 C1159 1.349 . S
C1158 C1160 1.327 . S
C1158 H1183 0.950 . S
C1159 C1158 1.349 . S
C1159 C1175 1.349 . S
C1160 C1158 1.327 . S
C1160 C1179 1.429 . S
C1160 H1184 0.950 . S
C1161 C1178 1.574 . S
C1161 C1180 1.368 . S
C1161 H1185 0.949 . S
H1162 C1166 0.949 . S
C1163 C1164 1.349 . S
C1163 C1165 1.327 . S
C1163 H1186 0.950 . S
C1164 C1163 1.349 . S
C1164 C1176 1.349 . S
C1165 C1163 1.327 . S
C1165 C1181 1.429 . S
C1165 H1187 0.950 . S
C1166 H1162 0.949 . S
C1166 C1174 1.574 . S
C1166 C1182 1.368 . S
H1167 C1175 0.950 . S
H1168 C1173 0.950 . S
H1169 C1174 0.949 . S
H1170 C1176 0.950 . S
H1171 C1177 0.950 . S
H1172 C1178 0.949 . S
C1173 H1168 0.950 . S
C1173 C1175 1.327 . S
C1173 C1179 1.429 . S
C1174 C1166 1.574 . S
C1174 H1169 0.949 . S
C1174 C1180 1.368 . S
C1175 C1159 1.349 . S
C1175 H1167 0.950 . S
C1175 C1173 1.327 . S
C1176 C1164 1.349 . S
C1176 H1170 0.950 . S
C1176 C1177 1.327 . S
C1177 H1171 0.950 . S
C1177 C1176 1.327 . S
C1177 C1181 1.429 . S
C1178 C1161 1.574 . S
C1178 H1172 0.949 . S
C1178 C1182 1.368 . S
C1179 C1160 1.429 . S
C1179 C1173 1.429 . S
C1179 C1180 1.523 . S
C1180 C1161 1.368 . S
C1180 C1174 1.368 . S
C1180 C1179 1.523 . S
C1181 C1165 1.429 . S
C1181 C1177 1.429 . S
C1181 C1182 1.523 . S
C1182 C1166 1.368 . S
C1182 C1178 1.368 . S
C1182 C1181 1.523 . S
H1183 C1158 0.950 . S
H1184 C1160 0.950 . S
H1185 C1161 0.949 . S
H1186 C1163 0.950 . S
H1187 C1165 0.950 . S
C1188 C1189 1.349 . S
C1188 C1190 1.327 . S
C1188 H1213 0.950 . S
C1189 C1188 1.349 . S
C1189 C1205 1.349 . S
C1190 C1188 1.327 . S
C1190 C1209 1.429 . S
C1190 H1214 0.950 . S
C1191 C1208 1.574 . S
C1191 C1210 1.368 . S
C1191 H1215 0.949 . S
H1192 C1196 0.949 . S
C1193 C1194 1.349 . S
C1193 C1195 1.327 . S
C1193 H1216 0.950 . S
C1194 C1193 1.349 . S
C1194 C1206 1.349 . S
C1195 C1193 1.327 . S
C1195 C1211 1.429 . S
C1195 H1217 0.950 . S
C1196 H1192 0.949 . S
C1196 C1204 1.574 . S
C1196 C1212 1.368 . S
H1197 C1205 0.950 . S
H1198 C1203 0.950 . S
H1199 C1204 0.949 . S
H1200 C1206 0.950 . S
H1201 C1207 0.950 . S
H1202 C1208 0.949 . S
C1203 H1198 0.950 . S
C1203 C1205 1.327 . S
C1203 C1209 1.429 . S
C1204 C1196 1.574 . S
C1204 H1199 0.949 . S
C1204 C1210 1.368 . S
C1205 C1189 1.349 . S
C1205 H1197 0.950 . S
C1205 C1203 1.327 . S
C1206 C1194 1.349 . S
C1206 H1200 0.950 . S
C1206 C1207 1.327 . S
C1207 H1201 0.950 . S
C1207 C1206 1.327 . S
C1207 C1211 1.429 . S
C1208 C1191 1.574 . S
C1208 H1202 0.949 . S
C1208 C1212 1.368 . S
C1209 C1190 1.429 . S
C1209 C1203 1.429 . S
C1209 C1210 1.523 . S
C1210 C1191 1.368 . S
C1210 C1204 1.368 . S
C1210 C1209 1.523 . S
C1211 C1195 1.429 . S
C1211 C1207 1.429 . S
C1211 C1212 1.523 . S
C1212 C1196 1.368 . S
C1212 C1208 1.368 . S
C1212 C1211 1.523 . S
H1213 C1188 0.950 . S
H1214 C1190 0.950 . S
H1215 C1191 0.949 . S
H1216 C1193 0.950 . S
H1217 C1195 0.950 . S
C1218 C1219 1.349 . S
C1218 C1220 1.327 . S
C1218 H1243 0.950 . S
C1219 C1218 1.349 . S
C1219 C1235 1.349 . S
C1220 C1218 1.327 . S
C1220 C1239 1.429 . S
C1220 H1244 0.950 . S
C1221 C1238 1.574 . S
C1221 C1240 1.368 . S
C1221 H1245 0.949 . S
H1222 C1226 0.949 . S
C1223 C1224 1.349 . S
C1223 C1225 1.327 . S
C1223 H1246 0.950 . S
C1224 C1223 1.349 . S
C1224 C1236 1.349 . S
C1225 C1223 1.327 . S
C1225 C1241 1.429 . S
C1225 H1247 0.950 . S
C1226 H1222 0.949 . S
C1226 C1234 1.574 . S
C1226 C1242 1.368 . S
H1227 C1235 0.950 . S
H1228 C1233 0.950 . S
H1229 C1234 0.949 . S
H1230 C1236 0.950 . S
H1231 C1237 0.950 . S
H1232 C1238 0.949 . S
C1233 H1228 0.950 . S
C1233 C1235 1.327 . S
C1233 C1239 1.429 . S
C1234 C1226 1.574 . S
C1234 H1229 0.949 . S
C1234 C1240 1.368 . S
C1235 C1219 1.349 . S
C1235 H1227 0.950 . S
C1235 C1233 1.327 . S
C1236 C1224 1.349 . S
C1236 H1230 0.950 . S
C1236 C1237 1.327 . S
C1237 H1231 0.950 . S
C1237 C1236 1.327 . S
C1237 C1241 1.429 . S
C1238 C1221 1.574 . S
C1238 H1232 0.949 . S
C1238 C1242 1.368 . S
C1239 C1220 1.429 . S
C1239 C1233 1.429 . S
C1239 C1240 1.523 . S
C1240 C1221 1.368 . S
C1240 C1234 1.368 . S
C1240 C1239 1.523 . S
C1241 C1225 1.429 . S
C1241 C1237 1.429 . S
C1241 C1242 1.523 . S
C1242 C1226 1.368 . S
C1242 C1238 1.368 . S
C1242 C1241 1.523 . S
H1243 C1218 0.950 . S
H1244 C1220 0.950 . S
H1245 C1221 0.949 . S
H1246 C1223 0.950 . S
H1247 C1225 0.950 . S
C1248 C1249 1.349 . S
C1248 C1250 1.327 . S
C1248 H1273 0.950 . S
C1249 C1248 1.349 . S
C1249 C1265 1.349 . S
C1250 C1248 1.327 . S
C1250 C1269 1.429 . S
C1250 H1274 0.950 . S
C1251 C1268 1.574 . S
C1251 C1270 1.368 . S
C1251 H1275 0.949 . S
H1252 C1256 0.949 . S
C1253 C1254 1.349 . S
C1253 C1255 1.327 . S
C1253 H1276 0.950 . S
C1254 C1253 1.349 . S
C1254 C1266 1.349 . S
C1255 C1253 1.327 . S
C1255 C1271 1.429 . S
C1255 H1277 0.950 . S
C1256 H1252 0.949 . S
C1256 C1264 1.574 . S
C1256 C1272 1.368 . S
H1257 C1265 0.950 . S
H1258 C1263 0.950 . S
H1259 C1264 0.949 . S
H1260 C1266 0.950 . S
H1261 C1267 0.950 . S
H1262 C1268 0.949 . S
C1263 H1258 0.950 . S
C1263 C1265 1.327 . S
C1263 C1269 1.429 . S
C1264 C1256 1.574 . S
C1264 H1259 0.949 . S
C1264 C1270 1.368 . S
C1265 C1249 1.349 . S
C1265 H1257 0.950 . S
C1265 C1263 1.327 . S
C1266 C1254 1.349 . S
C1266 H1260 0.950 . S
C1266 C1267 1.327 . S
C1267 H1261 0.950 . S
C1267 C1266 1.327 . S
C1267 C1271 1.429 . S
C1268 C1251 1.574 . S
C1268 H1262 0.949 . S
C1268 C1272 1.368 . S
C1269 C1250 1.429 . S
C1269 C1263 1.429 . S
C1269 C1270 1.523 . S
C1270 C1251 1.368 . S
C1270 C1264 1.368 . S
C1270 C1269 1.523 . S
C1271 C1255 1.429 . S
C1271 C1267 1.429 . S
C1271 C1272 1.523 1_554 S
C1272 C1256 1.368 . S
C1272 C1268 1.368 . S
C1272 C1271 1.523 1_556 S
H1273 C1248 0.950 . S
H1274 C1250 0.950 . S
H1275 C1251 0.949 . S
H1276 C1253 0.950 . S
H1277 C1255 0.950 . S
C1278 C1279 1.349 . S
C1278 C1280 1.327 . S
C1278 H1303 0.950 . S
C1279 C1278 1.349 . S
C1279 C1295 1.349 . S
C1280 C1278 1.327 . S
C1280 C1299 1.429 . S
C1280 H1304 0.950 . S
C1281 C1298 1.574 . S
C1281 C1300 1.368 . S
C1281 H1305 0.949 . S
H1282 C1286 0.949 . S
C1283 C1284 1.349 . S
C1283 C1285 1.327 . S
C1283 H1306 0.950 . S
C1284 C1283 1.349 . S
C1284 C1296 1.349 . S
C1285 C1283 1.327 . S
C1285 C1301 1.429 . S
C1285 H1307 0.950 . S
C1286 H1282 0.949 . S
C1286 C1294 1.574 . S
C1286 C1302 1.368 . S
H1287 C1295 0.950 . S
H1288 C1293 0.950 . S
H1289 C1294 0.949 . S
H1290 C1296 0.950 . S
H1291 C1297 0.950 . S
H1292 C1298 0.949 1_556 S
C1293 H1288 0.950 . S
C1293 C1295 1.327 . S
C1293 C1299 1.429 . S
C1294 C1286 1.574 . S
C1294 H1289 0.949 . S
C1294 C1300 1.368 . S
C1295 C1279 1.349 . S
C1295 H1287 0.950 . S
C1295 C1293 1.327 . S
C1296 C1284 1.349 . S
C1296 H1290 0.950 . S
C1296 C1297 1.327 . S
C1297 H1291 0.950 . S
C1297 C1296 1.327 . S
C1297 C1301 1.429 . S
C1298 C1281 1.574 . S
C1298 H1292 0.949 1_554 S
C1298 C1302 1.368 . S
C1299 C1280 1.429 . S
C1299 C1293 1.429 . S
C1299 C1300 1.523 . S
C1300 C1281 1.368 . S
C1300 C1294 1.368 . S
C1300 C1299 1.523 . S
C1301 C1285 1.429 . S
C1301 C1297 1.429 . S
C1301 C1302 1.523 1_556 S
C1302 C1286 1.368 . S
C1302 C1298 1.368 . S
C1302 C1301 1.523 1_554 S
H1303 C1278 0.950 . S
H1304 C1280 0.950 . S
H1305 C1281 0.949 . S
H1306 C1283 0.950 . S
H1307 C1285 0.950 . S
C409 C305 1.530 . S
C414 C33 1.530 . S
C439 C339 1.530 . S
C444 C67 1.530 . S
C469 C373 1.530 . S
C474 C101 1.530 . S
C499 C407 1.530 . S
C504 C135 1.530 . S
C529 C169 1.530 . S
C534 C237 1.530 . S
C559 C271 1.530 . S
C564 C203 1.530 . S
C589 C2 1.657 . S
C594 C376 1.657 . S
C619 C206 1.657 . S
C624 C36 1.657 . S
C649 C70 1.658 . S
C654 C240 1.658 . S
C679 C104 1.657 . S
C684 C274 1.657 . S
C709 C308 1.657 . S
C714 C138 1.657 . S
C739 C172 1.657 . S
C744 C342 1.657 . S
C769 C20 1.573 . S
C774 C360 1.573 . S
C799 C54 1.572 . S
C804 C394 1.572 . S
C829 C224 1.573 . S
C834 C88 1.573 . S
C859 C258 1.573 . S
C864 C122 1.573 . S
C889 C156 1.572 . S
C894 C292 1.572 . S
C919 C326 1.573 . S
C924 C190 1.573 . S
C949 C9 0.690 . S
C954 C5 0.648 . S
C979 C39 0.648 . S
C984 C43 0.690 . S
C1009 C77 0.690 . S
C1014 C73 0.648 . S
C1039 C111 0.690 . S
C1044 C107 0.648 . S
C1069 C141 0.648 . S
C1074 C145 0.698 . S
C1099 C175 0.648 . S
C1104 C179 0.690 . S
C1129 C209 0.648 . S
C1134 C213 0.690 . S
C1159 C243 0.648 . S
C1164 C247 0.690 . S
C1189 C277 0.648 . S
C1194 C281 0.690 . S
C1219 C311 0.648 . S
C1224 C315 0.695 . S
C1249 C345 0.648 . S
C1254 C349 0.690 . S
C1279 C383 0.690 . S
C1284 C379 0.648 . S
