# Generated by pormake.
# Topology atn, (4)-cn, num edge types: 1
# Building blocks:
#     Node 0, Type 0, BuildingBlock: QUQFOY_clean_sbu_1, # of connection points: 4
#     Node 1, Type 0, BuildingBlock: QUQFOY_clean_sbu_1, # of connection points: 4
#     Node 2, Type 0, BuildingBlock: QUQFOY_clean_sbu_1, # of connection points: 4
#     Node 3, Type 0, BuildingBlock: QUQFOY_clean_sbu_1, # of connection points: 4
#     Node 4, Type 0, BuildingBlock: QUQFOY_clean_sbu_1, # of connection points: 4
#     Node 5, Type 0, BuildingBlock: QUQFOY_clean_sbu_1, # of connection points: 4
#     Node 6, Type 0, BuildingBlock: QUQFOY_clean_sbu_1, # of connection points: 4
#     Node 7, Type 0, BuildingBlock: QUQFOY_clean_sbu_1, # of connection points: 4
#     Node 8, Type 0, BuildingBlock: QUQFOY_clean_sbu_1, # of connection points: 4
#     Node 9, Type 0, BuildingBlock: QUQFOY_clean_sbu_1, # of connection points: 4
#     Node 10, Type 0, BuildingBlock: QUQFOY_clean_sbu_1, # of connection points: 4
#     Node 11, Type 0, BuildingBlock: QUQFOY_clean_sbu_1, # of connection points: 4
#     Node 12, Type 0, BuildingBlock: QUQFOY_clean_sbu_1, # of connection points: 4
#     Node 13, Type 0, BuildingBlock: QUQFOY_clean_sbu_1, # of connection points: 4
#     Node 14, Type 0, BuildingBlock: QUQFOY_clean_sbu_1, # of connection points: 4
#     Node 15, Type 0, BuildingBlock: QUQFOY_clean_sbu_1, # of connection points: 4
#     Edge 16, Type (0, 0), BuildingBlock: UVAHIK_clean_linker_0, # of connection points: 2
#     Edge 17, Type (0, 0), BuildingBlock: UVAHIK_clean_linker_0, # of connection points: 2
#     Edge 18, Type (0, 0), BuildingBlock: UVAHIK_clean_linker_0, # of connection points: 2
#     Edge 19, Type (0, 0), BuildingBlock: UVAHIK_clean_linker_0, # of connection points: 2
#     Edge 20, Type (0, 0), BuildingBlock: UVAHIK_clean_linker_0, # of connection points: 2
#     Edge 21, Type (0, 0), BuildingBlock: UVAHIK_clean_linker_0, # of connection points: 2
#     Edge 22, Type (0, 0), BuildingBlock: UVAHIK_clean_linker_0, # of connection points: 2
#     Edge 23, Type (0, 0), BuildingBlock: UVAHIK_clean_linker_0, # of connection points: 2
#     Edge 24, Type (0, 0), BuildingBlock: UVAHIK_clean_linker_0, # of connection points: 2
#     Edge 25, Type (0, 0), BuildingBlock: UVAHIK_clean_linker_0, # of connection points: 2
#     Edge 26, Type (0, 0), BuildingBlock: UVAHIK_clean_linker_0, # of connection points: 2
#     Edge 27, Type (0, 0), BuildingBlock: UVAHIK_clean_linker_0, # of connection points: 2
#     Edge 28, Type (0, 0), BuildingBlock: UVAHIK_clean_linker_0, # of connection points: 2
#     Edge 29, Type (0, 0), BuildingBlock: UVAHIK_clean_linker_0, # of connection points: 2
#     Edge 30, Type (0, 0), BuildingBlock: UVAHIK_clean_linker_0, # of connection points: 2
#     Edge 31, Type (0, 0), BuildingBlock: UVAHIK_clean_linker_0, # of connection points: 2
#     Edge 32, Type (0, 0), BuildingBlock: UVAHIK_clean_linker_0, # of connection points: 2
#     Edge 33, Type (0, 0), BuildingBlock: UVAHIK_clean_linker_0, # of connection points: 2
#     Edge 34, Type (0, 0), BuildingBlock: UVAHIK_clean_linker_0, # of connection points: 2
#     Edge 35, Type (0, 0), BuildingBlock: UVAHIK_clean_linker_0, # of connection points: 2
#     Edge 36, Type (0, 0), BuildingBlock: UVAHIK_clean_linker_0, # of connection points: 2
#     Edge 37, Type (0, 0), BuildingBlock: UVAHIK_clean_linker_0, # of connection points: 2
#     Edge 38, Type (0, 0), BuildingBlock: UVAHIK_clean_linker_0, # of connection points: 2
#     Edge 39, Type (0, 0), BuildingBlock: UVAHIK_clean_linker_0, # of connection points: 2
#     Edge 40, Type (0, 0), BuildingBlock: UVAHIK_clean_linker_0, # of connection points: 2
#     Edge 41, Type (0, 0), BuildingBlock: UVAHIK_clean_linker_0, # of connection points: 2
#     Edge 42, Type (0, 0), BuildingBlock: UVAHIK_clean_linker_0, # of connection points: 2
#     Edge 43, Type (0, 0), BuildingBlock: UVAHIK_clean_linker_0, # of connection points: 2
#     Edge 44, Type (0, 0), BuildingBlock: UVAHIK_clean_linker_0, # of connection points: 2
#     Edge 45, Type (0, 0), BuildingBlock: UVAHIK_clean_linker_0, # of connection points: 2
#     Edge 46, Type (0, 0), BuildingBlock: UVAHIK_clean_linker_0, # of connection points: 2
#     Edge 47, Type (0, 0), BuildingBlock: UVAHIK_clean_linker_0, # of connection points: 2
# Relax obj value: 0.042
# Max RMSD: 0.086
# Mean RMSD: 0.086
data_MOF--net-atn--node1-QUQFOY_clean_sbu_1--edge1-UVAHIK_clean_linker_0
_symmetry_space_group_name_H-M    P1
_symmetry_Int_Tables_number       1
_symmetry_cell_setting            triclinic
loop_
_symmetry_equiv_pos_as_xyz
'x, y, z'
_cell_length_a     79.353244
_cell_length_b     79.333493
_cell_length_c     36.97067
_cell_angle_alpha  89.952609
_cell_angle_beta   90.009308
_cell_angle_gamma 89.993896
loop_
_atom_site_label
_atom_site_type_symbol
_atom_site_fract_x
_atom_site_fract_y
_atom_site_fract_z
_atom_type_partial_charge
O0 O 0.18797 0.37627 0.08339 0.0
Cd1 Cd 0.20405 0.38137 0.04102 0.0
Cd2 Cd 0.18402 0.35766 0.00972 0.0
O3 O 0.1698 0.35941 0.05649 0.0
O4 O 0.21514 0.40247 0.05766 0.0
O5 O 0.19947 0.40117 0.00823 0.0
C6 C 0.20827 0.41006 0.0306 0.0
C7 C 0.17174 0.35831 0.95221 0.0
C8 C 0.1746 0.36747 0.08437 0.0
C9 C 0.22083 0.34913 0.02161 0.0
O10 O 0.20613 0.34405 0.0133 0.0
O11 O 0.22319 0.36429 0.03145 0.0
O12 O 0.17051 0.34526 0.97288 0.0
O13 O 0.17937 0.37143 0.96488 0.0
O14 O 0.62387 0.19502 0.08263 0.0
Cd15 Cd 0.61934 0.20731 0.03444 0.0
Cd16 Cd 0.64259 0.18554 0.01126 0.0
O17 O 0.63916 0.17409 0.06111 0.0
O18 O 0.59765 0.21944 0.04169 0.0
O19 O 0.60063 0.19816 1.00348 0.0
C20 C 0.59098 0.20917 0.01879 0.0
C21 C 0.64192 0.17104 0.95627 0.0
C22 C 0.63163 0.18117 0.08743 0.0
C23 C 0.65196 0.22227 0.012 0.0
O24 O 0.65709 0.20711 0.01044 0.0
O25 O 0.63653 0.22538 0.01828 0.0
O26 O 0.65454 0.16972 0.97812 0.0
O27 O 0.62913 0.17989 0.96667 0.0
O28 O 0.81231 0.62473 0.08397 0.0
Cd29 Cd 0.79704 0.62026 0.03997 0.0
Cd30 Cd 0.81797 0.64337 0.01064 0.0
O31 O 0.83161 0.64061 0.05804 0.0
O32 O 0.78521 0.59924 0.05469 0.0
O33 O 0.80206 0.60063 1.00712 0.0
C34 C 0.79264 0.59171 0.02827 0.0
C35 C 0.83054 0.64151 0.9536 0.0
C36 C 0.82607 0.63286 0.08571 0.0
C37 C 0.78151 0.65318 0.0201 0.0
O38 O 0.79648 0.65801 0.01343 0.0
O39 O 0.77862 0.63794 0.02887 0.0
O40 O 0.83297 0.65437 0.97429 0.0
O41 O 0.8214 0.62929 0.9659 0.0
O42 O 0.37709 0.80733 0.08239 0.0
Cd43 Cd 0.38239 0.79515 0.03448 0.0
Cd44 Cd 0.3591 0.81668 0.00995 0.0
O45 O 0.36154 0.82794 0.06024 0.0
O46 O 0.40404 0.7831 0.04318 0.0
O47 O 0.40151 0.80436 1.00472 0.0
C48 C 0.41097 0.79337 0.02063 0.0
C49 C 0.36083 0.83143 0.95533 0.0
C50 C 0.36894 0.82096 0.08689 0.0
C51 C 0.35025 0.77982 0.00972 0.0
O52 O 0.34494 0.79491 0.00766 0.0
O53 O 0.3656 0.77692 0.01727 0.0
O54 O 0.34773 0.83253 0.97586 0.0
O55 O 0.37344 0.82261 0.96685 0.0
O56 O 0.18963 0.62421 0.94984 0.0
Cd57 Cd 0.20512 0.61968 0.99352 0.0
Cd58 Cd 0.18487 0.64421 0.02126 0.0
O59 O 0.17128 0.64185 0.97372 0.0
O60 O 0.21648 0.59851 0.97823 0.0
O61 O 0.20022 0.60007 0.02668 0.0
C62 C 0.2093 0.59106 1.00508 0.0
C63 C 0.17211 0.64408 0.07828 0.0
C64 C 0.17641 0.63315 0.94702 0.0
C65 C 0.2219 0.65217 0.01139 0.0
O66 O 0.20714 0.65757 0.01804 0.0
O67 O 0.22423 0.63679 1.00318 0.0
O68 O 0.17102 0.65693 0.05701 0.0
O69 O 0.17986 0.63085 0.06645 0.0
O70 O 0.37677 0.19441 0.95139 0.0
Cd71 Cd 0.38152 0.20634 0.99983 0.0
Cd72 Cd 0.3586 0.18438 0.02314 0.0
O73 O 0.36203 0.17314 0.97311 0.0
O74 O 0.40289 0.21897 0.99186 0.0
O75 O 0.4008 0.19729 0.02933 0.0
C76 C 0.41004 0.2086 0.01389 0.0
C77 C 0.36124 0.17017 0.07815 0.0
C78 C 0.36923 0.18045 0.94664 0.0
C79 C 0.34873 0.22078 0.02363 0.0
O80 O 0.34359 0.20561 0.02456 0.0
O81 O 0.36416 0.22396 0.01742 0.0
O82 O 0.34841 0.16775 0.0573 0.0
O83 O 0.37305 0.18009 0.06682 0.0
O84 O 0.81279 0.37705 0.94858 0.0
Cd85 Cd 0.79734 0.38203 0.99206 0.0
Cd86 Cd 0.81768 0.35853 0.02242 0.0
O87 O 0.83151 0.36069 0.97513 0.0
O88 O 0.78588 0.40311 0.97632 0.0
O89 O 0.80234 0.40182 0.02454 0.0
C90 C 0.79315 0.4107 1.00285 0.0
C91 C 0.8302 0.36024 0.07957 0.0
C92 C 0.82631 0.36851 0.94724 0.0
C93 C 0.78104 0.34953 0.0124 0.0
O94 O 0.79586 0.3444 0.01961 0.0
O95 O 0.77853 0.36476 1.00309 0.0
O96 O 0.83233 0.34727 0.05907 0.0
O97 O 0.82138 0.37265 0.06703 0.0
O98 O 0.62452 0.80797 0.95074 0.0
Cd99 Cd 0.62034 0.7959 0.99929 0.0
Cd100 Cd 0.64322 0.81805 0.02184 0.0
O101 O 0.63925 0.82933 0.97198 0.0
O102 O 0.59896 0.78313 0.99229 0.0
O103 O 0.60131 0.80478 0.02972 0.0
C104 C 0.59197 0.79344 0.01466 0.0
C105 C 0.64069 0.83207 0.07706 0.0
C106 C 0.63188 0.82201 0.94577 0.0
C107 C 0.6535 0.78176 0.02169 0.0
O108 O 0.65847 0.79698 0.02262 0.0
O109 O 0.63805 0.77842 0.01599 0.0
O110 O 0.65338 0.83472 0.05594 0.0
O111 O 0.62896 0.82203 0.06591 0.0
O112 O 0.6884 0.87618 0.583 0.0
Cd113 Cd 0.70364 0.88121 0.53917 0.0
Cd114 Cd 0.68268 0.85852 0.5087 0.0
O115 O 0.66919 0.8604 0.55647 0.0
O116 O 0.71535 0.90223 0.55437 0.0
O117 O 0.69839 0.90102 0.50693 0.0
C118 C 0.70783 0.90986 0.52815 0.0
C119 C 0.67027 0.86177 0.45182 0.0
C120 C 0.67472 0.86789 0.58447 0.0
C121 C 0.71918 0.84865 0.51681 0.0
O122 O 0.7042 0.84392 0.50995 0.0
O123 O 0.72207 0.86371 0.52682 0.0
O124 O 0.66774 0.84842 0.47106 0.0
O125 O 0.67933 0.87367 0.46564 0.0
O126 O 0.12394 0.69323 0.58437 0.0
Cd127 Cd 0.1189 0.70732 0.53878 0.0
Cd128 Cd 0.14224 0.68611 0.51121 0.0
O129 O 0.13948 0.67328 0.55968 0.0
O130 O 0.09778 0.71943 0.5515 0.0
O131 O 0.09922 0.7006 0.50756 0.0
C132 C 0.09026 0.71085 0.52672 0.0
C133 C 0.14201 0.67258 0.455 0.0
C134 C 0.13198 0.67943 0.58708 0.0
C135 C 0.15129 0.72299 0.51691 0.0
O136 O 0.15638 0.70795 0.51241 0.0
O137 O 0.13599 0.72586 0.52494 0.0
O138 O 0.15467 0.67132 0.47671 0.0
O139 O 0.12895 0.68085 0.46607 0.0
O140 O 0.31196 0.12624 0.58323 0.0
Cd141 Cd 0.29749 0.12111 0.53827 0.0
Cd142 Cd 0.31822 0.1441 0.50912 0.0
O143 O 0.33136 0.14203 0.55731 0.0
O144 O 0.28557 0.0999 0.55144 0.0
O145 O 0.30398 0.10149 0.50668 0.0
C146 C 0.29396 0.09245 0.52625 0.0
C147 C 0.33087 0.14081 0.45253 0.0
C148 C 0.32561 0.13457 0.58517 0.0
C149 C 0.28169 0.15358 0.51594 0.0
O150 O 0.29666 0.15863 0.51012 0.0
O151 O 0.27896 0.13835 0.52498 0.0
O152 O 0.33335 0.15416 0.47175 0.0
O153 O 0.32171 0.12894 0.46622 0.0
O154 O 0.87745 0.30813 0.58239 0.0
Cd155 Cd 0.88171 0.29564 0.53437 0.0
Cd156 Cd 0.8583 0.31719 0.51149 0.0
O157 O 0.86226 0.32909 0.56066 0.0
O158 O 0.90318 0.28312 0.54213 0.0
O159 O 0.90069 0.3043 0.5035 0.0
C160 C 0.9101 0.2932 0.51918 0.0
C161 C 0.86094 0.33028 0.45521 0.0
C162 C 0.86987 0.32208 0.587 0.0
C163 C 0.84868 0.28075 0.5136 0.0
O164 O 0.84341 0.29587 0.51231 0.0
O165 O 0.86423 0.27773 0.51875 0.0
O166 O 0.84811 0.33316 0.47578 0.0
O167 O 0.87273 0.3206 0.46751 0.0
O168 O 0.68925 0.12524 0.44858 0.0
Cd169 Cd 0.70482 0.11968 0.49158 0.0
Cd170 Cd 0.68439 0.14304 0.52319 0.0
O171 O 0.67077 0.14175 0.4755 0.0
O172 O 0.71581 0.09842 0.47553 0.0
O173 O 0.69951 0.09993 0.52397 0.0
C174 C 0.70848 0.09092 0.50215 0.0
C175 C 0.67137 0.1425 0.57998 0.0
C176 C 0.67588 0.13404 0.44742 0.0
C177 C 0.72141 0.15159 0.51381 0.0
O178 O 0.70662 0.15653 0.52164 0.0
O179 O 0.7239 0.13658 0.50302 0.0
O180 O 0.6705 0.15554 0.55923 0.0
O181 O 0.679 0.12929 0.5677 0.0
O182 O 0.87698 0.69179 0.4504 0.0
Cd183 Cd 0.88069 0.7055 0.49705 0.0
Cd184 Cd 0.85746 0.68374 0.52115 0.0
O185 O 0.86131 0.67131 0.4726 0.0
O186 O 0.90154 0.71853 0.48626 0.0
O187 O 0.90022 0.6991 0.52906 0.0
C188 C 0.90907 0.70985 0.51091 0.0
C189 C 0.86041 0.67107 0.57778 0.0
C190 C 0.86929 0.67788 0.44626 0.0
C191 C 0.84725 0.72006 0.51657 0.0
O192 O 0.84231 0.70487 0.5196 0.0
O193 O 0.86269 0.72328 0.51046 0.0
O194 O 0.84752 0.66799 0.55752 0.0
O195 O 0.87208 0.68078 0.56502 0.0
O196 O 0.31096 0.87665 0.45007 0.0
Cd197 Cd 0.29661 0.88235 0.49493 0.0
Cd198 Cd 0.31706 0.85893 0.52446 0.0
O199 O 0.32994 0.86028 0.47584 0.0
O200 O 0.28514 0.90372 0.4812 0.0
O201 O 0.30343 0.90198 0.52618 0.0
C202 C 0.29359 0.91112 0.50636 0.0
C203 C 0.3307 0.86049 0.58046 0.0
C204 C 0.32431 0.86786 0.448 0.0
C205 C 0.28008 0.8505 0.51815 0.0
O206 O 0.29495 0.84525 0.52424 0.0
O207 O 0.27761 0.86567 0.50845 0.0
O208 O 0.33164 0.84719 0.5605 0.0
O209 O 0.32256 0.87333 0.56781 0.0
O210 O 0.12341 0.30776 0.44933 0.0
Cd211 Cd 0.11931 0.29532 0.49749 0.0
Cd212 Cd 0.14251 0.31729 0.51999 0.0
O213 O 0.13854 0.32887 0.47049 0.0
O214 O 0.09788 0.28276 0.49014 0.0
O215 O 0.10042 0.304 0.52858 0.0
C216 C 0.091 0.29285 0.5131 0.0
C217 C 0.14194 0.33148 0.5753 0.0
C218 C 0.13092 0.32173 0.44438 0.0
C219 C 0.1523 0.28069 0.51848 0.0
O220 O 0.15729 0.2959 0.51985 0.0
O221 O 0.13683 0.27743 0.51298 0.0
O222 O 0.15441 0.33311 0.55317 0.0
O223 O 0.12922 0.3225 0.56502 0.0
C224 C 0.21496 0.56264 0.97919 0.0
C225 C 0.21064 0.57258 0.00919 0.0
C226 C 0.21527 0.5451 0.98181 0.0
C227 C 0.20033 0.5097 0.04018 0.0
H228 H 0.23088 0.48375 0.98009 0.0
C229 C 0.21351 0.43837 0.05751 0.0
C230 C 0.20967 0.42855 0.02696 0.0
C231 C 0.2139 0.45593 0.05517 0.0
C232 C 0.22225 0.49089 0.99685 0.0
H233 H 0.20369 0.572 0.06579 0.0
H234 H 0.20511 0.54136 0.07112 0.0
H235 H 0.23187 0.51447 0.97822 0.0
H236 H 0.20361 0.42936 0.96982 0.0
H237 H 0.20495 0.46025 0.96546 0.0
H238 H 0.19134 0.4859 0.05987 0.0
C239 C 0.20766 0.54704 0.04507 0.0
C240 C 0.2227 0.5085 0.9957 0.0
C241 C 0.20699 0.56463 0.04218 0.0
C242 C 0.2066 0.43663 0.99377 0.0
C243 C 0.20739 0.45423 0.99125 0.0
C244 C 0.20017 0.4921 0.04189 0.0
C245 C 0.21163 0.53699 0.01477 0.0
C246 C 0.21164 0.51819 0.01712 0.0
C247 C 0.21084 0.46399 0.02207 0.0
C248 C 0.21103 0.48258 0.02005 0.0
H249 H 0.21763 0.56839 0.95323 0.0
H250 H 0.21798 0.53793 0.95761 0.0
H251 H 0.19136 0.51659 0.05653 0.0
H252 H 0.21583 0.43252 0.08352 0.0
H253 H 0.21666 0.46323 0.07921 0.0
C254 C 0.43751 0.22389 0.01227 0.0
C255 C 0.4285 0.20898 0.01878 0.0
C256 C 0.45511 0.22389 0.01272 0.0
C257 C 0.49263 0.19763 0.03764 0.0
H258 H 0.51516 0.22791 0.97087 0.0
C259 C 0.56404 0.19444 1.00351 0.0
C260 C 0.57261 0.20934 0.01263 0.0
C261 C 0.54641 0.19413 1.00254 0.0
C262 C 0.50899 0.21939 0.98957 0.0
H263 H 0.43075 0.18241 0.03134 0.0
H264 H 0.46143 0.18215 0.03052 0.0
H265 H 0.48449 0.22774 0.97397 0.0
H266 H 0.56959 0.23574 0.02625 0.0
H267 H 0.53878 0.23533 0.02305 0.0
H268 H 0.51736 0.18892 0.05199 0.0
C269 C 0.45503 0.19403 0.02622 0.0
C270 C 0.49141 0.21939 0.99174 0.0
C271 C 0.4374 0.19413 0.02662 0.0
C272 C 0.56329 0.22409 0.01914 0.0
C273 C 0.54571 0.22387 0.01729 0.0
C274 C 0.51021 0.19738 0.03484 0.0
C275 C 0.46416 0.20887 0.01873 0.0
C276 C 0.48295 0.20864 0.01612 0.0
C277 C 0.53713 0.20882 0.00976 0.0
C278 C 0.51852 0.20837 0.01104 0.0
H279 H 0.43094 0.23555 1.00642 0.0
H280 H 0.46158 0.2357 0.00797 0.0
H281 H 0.48671 0.18937 0.05718 0.0
H282 H 0.57092 0.18286 0.99867 0.0
H283 H 0.54001 0.1824 0.99655 0.0
C284 C 0.78753 0.43904 0.97638 0.0
C285 C 0.79176 0.42919 1.00661 0.0
C286 C 0.78712 0.45659 0.97877 0.0
C287 C 0.80141 0.49222 0.03729 0.0
H288 H 0.77101 0.51784 0.9761 0.0
C289 C 0.7867 0.56331 0.05417 0.0
C290 C 0.79126 0.57323 0.02421 0.0
C291 C 0.78648 0.54576 0.05164 0.0
C292 C 0.77959 0.51079 0.99317 0.0
H293 H 0.79845 0.42993 0.06335 0.0
H294 H 0.79683 0.46056 0.06826 0.0
H295 H 0.77039 0.48712 0.97424 0.0
H296 H 0.79874 0.57261 0.96784 0.0
H297 H 0.79768 0.54172 0.96308 0.0
H298 H 0.80994 0.51613 0.0573 0.0
C299 C 0.79444 0.45482 0.04221 0.0
C300 C 0.77936 0.49318 0.99203 0.0
C301 C 0.79523 0.43723 0.03957 0.0
C302 C 0.79518 0.56526 0.99134 0.0
C303 C 0.79456 0.54766 0.98859 0.0
C304 C 0.80134 0.50982 0.03899 0.0
C305 C 0.79055 0.46479 0.0117 0.0
C306 C 0.79036 0.4836 0.01387 0.0
C307 C 0.79044 0.5378 0.01889 0.0
C308 C 0.79052 0.51922 0.01678 0.0
H309 H 0.785 0.43321 0.95045 0.0
H310 H 0.78448 0.46369 0.95441 0.0
H311 H 0.81033 0.48543 0.05398 0.0
H312 H 0.78373 0.56908 0.07994 0.0
H313 H 0.78321 0.53837 0.07528 0.0
C314 C 0.5647 0.80781 0.02855 0.0
C315 C 0.57356 0.793 0.02029 0.0
C316 C 0.54706 0.8079 0.02873 0.0
C317 C 0.51052 0.78262 0.99493 0.0
H318 H 0.48486 0.81312 0.05556 0.0
C319 C 0.4386 0.77835 0.02221 0.0
C320 C 0.4294 0.79314 0.01531 0.0
C321 C 0.45619 0.77845 0.02077 0.0
C322 C 0.49193 0.80463 0.03833 0.0
H323 H 0.57107 0.76646 0.00787 0.0
H324 H 0.54044 0.76626 0.01043 0.0
H325 H 0.51552 0.81252 0.0604 0.0
H326 H 0.43133 0.8196 1.00121 0.0
H327 H 0.46225 0.81987 0.99982 0.0
H328 H 0.48668 0.77425 0.97427 0.0
C329 C 0.54693 0.77806 0.01506 0.0
C330 C 0.50951 0.80431 0.04092 0.0
C331 C 0.56453 0.77809 0.01403 0.0
C332 C 0.43811 0.80799 1.00635 0.0
C333 C 0.45575 0.80819 1.0058 0.0
C334 C 0.49294 0.7827 0.99296 0.0
C335 C 0.5379 0.79306 0.02142 0.0
C336 C 0.51909 0.7933 0.01922 0.0
C337 C 0.4649 0.79344 0.01326 0.0
C338 C 0.48352 0.79373 0.01455 0.0
H339 H 0.57136 0.81954 0.03311 0.0
H340 H 0.54068 0.81976 0.03329 0.0
H341 H 0.51735 0.77428 0.97701 0.0
H342 H 0.4322 0.76674 0.0292 0.0
H343 H 0.46302 0.76695 0.0267 0.0
C344 C 0.70624 0.06443 0.53905 0.0
C345 C 0.70964 0.07241 0.50597 0.0
C346 C 0.70689 0.04683 0.54182 0.0
C347 C 0.72149 0.00832 0.49169 0.0
H348 H 0.69108 0.98563 0.5578 0.0
C349 C 0.70536 0.93639 0.49139 0.0
C350 C 0.70922 0.92835 0.52426 0.0
C351 C 0.70607 0.95399 0.48869 0.0
C352 C 0.69963 0.99187 0.53927 0.0
H353 H 0.71609 0.06828 0.44971 0.0
H354 H 0.71637 0.03779 0.4539 0.0
H355 H 0.69087 0.01633 0.55424 0.0
H356 H 0.71669 0.93239 0.58005 0.0
H357 H 0.71736 0.96311 0.57548 0.0
H358 H 0.7296 0.98359 0.47579 0.0
C359 C 0.7139 0.04494 0.47825 0.0
C360 C 0.69967 0.00947 0.53742 0.0
C361 C 0.71363 0.06249 0.47573 0.0
C362 C 0.71377 0.93821 0.55429 0.0
C363 C 0.71407 0.95577 0.55181 0.0
C364 C 0.72115 0.99071 0.49298 0.0
C365 C 0.71056 0.03681 0.51133 0.0
C366 C 0.71064 0.01799 0.51368 0.0
C367 C 0.71022 0.96378 0.51904 0.0
C368 C 0.71028 0.98237 0.51689 0.0
H369 H 0.7032 0.07179 0.56285 0.0
H370 H 0.70458 0.04115 0.56797 0.0
H371 H 0.73041 0.01431 0.47366 0.0
H372 H 0.70181 0.92909 0.46785 0.0
H373 H 0.70302 0.95997 0.46316 0.0
C374 C 0.93663 0.72343 0.49615 0.0
C375 C 0.92749 0.71145 0.51613 0.0
C376 C 0.95419 0.72399 0.49809 0.0
C377 C 0.99086 0.69738 0.51946 0.0
H378 H 0.01487 0.73995 0.51952 0.0
C379 C 0.06303 0.70118 0.49893 0.0
C380 C 0.07176 0.7121 0.52225 0.0
C381 C 0.04541 0.70151 0.49737 0.0
C382 C 0.00836 0.72795 0.51967 0.0
H383 H 0.9296 0.69093 0.55465 0.0
H384 H 0.96035 0.69201 0.55835 0.0
H385 H 0.98417 0.73983 0.52138 0.0
H386 H 0.06885 0.73221 0.56154 0.0
H387 H 0.03825 0.73273 0.55888 0.0
H388 H 0.01508 0.6855 0.51836 0.0
C389 C 0.95389 0.70084 0.5408 0.0
C390 C 0.99076 0.72788 0.52044 0.0
C391 C 0.93628 0.70031 0.53892 0.0
C392 C 0.06253 0.72364 0.54322 0.0
C393 C 0.04496 0.724 0.54159 0.0
C394 C 0.00848 0.69744 0.51862 0.0
C395 C 0.96306 0.71256 0.52004 0.0
C396 C 0.98179 0.7126 0.52034 0.0
C397 C 0.03617 0.71281 0.51897 0.0
C398 C 0.01743 0.71273 0.51875 0.0
H399 H 0.93026 0.73218 0.47826 0.0
H400 H 0.96085 0.73305 0.48148 0.0
H401 H 0.98433 0.68539 0.5189 0.0
H402 H 0.06978 0.69214 0.48244 0.0
H403 H 0.03901 0.69288 0.47931 0.0
C404 C 0.2823 0.06444 0.54452 0.0
C405 C 0.29281 0.07394 0.5217 0.0
C406 C 0.28214 0.04687 0.54258 0.0
C407 C 0.29286 0.01093 0.48377 0.0
H408 H 0.29266 0.98585 0.57393 0.0
C409 C 0.28219 0.93919 0.48777 0.0
C410 C 0.29263 0.92965 0.5107 0.0
C411 C 0.28211 0.95676 0.48966 0.0
C412 C 0.29283 0.99267 0.54853 0.0
H413 H 0.31113 0.07244 0.47831 0.0
H414 H 0.31085 0.04167 0.4749 0.0
H415 H 0.29292 0.0166 0.57519 0.0
H416 H 0.31092 0.93109 0.55417 0.0
H417 H 0.31078 0.96187 0.55748 0.0
H418 H 0.29299 0.987 0.45711 0.0
C419 C 0.30267 0.04786 0.4942 0.0
C420 C 0.29279 0.01028 0.54923 0.0
C421 C 0.30286 0.06548 0.4962 0.0
C422 C 0.3027 0.93807 0.5362 0.0
C423 C 0.30259 0.9557 0.53815 0.0
C424 C 0.29283 0.99331 0.48307 0.0
C425 C 0.29247 0.03835 0.51773 0.0
C426 C 0.29274 0.01962 0.51686 0.0
C427 C 0.29245 0.96524 0.51455 0.0
C428 C 0.29275 0.98397 0.51544 0.0
H429 H 0.27435 0.07055 0.5644 0.0
H430 H 0.27391 0.03993 0.56064 0.0
H431 H 0.29272 0.01774 0.45837 0.0
H432 H 0.27422 0.93311 0.46789 0.0
H433 H 0.27393 0.96372 0.47156 0.0
C434 C 0.06374 0.30719 0.52728 0.0
C435 C 0.07261 0.2924 0.51892 0.0
C436 C 0.04611 0.30726 0.52742 0.0
C437 C 0.00962 0.282 0.49324 0.0
H438 H 0.98387 0.31246 0.55378 0.0
C439 C 0.93761 0.27794 0.52051 0.0
C440 C 0.9285 0.29276 0.51342 0.0
C441 C 0.95521 0.27794 0.51898 0.0
C442 C 0.99096 0.30398 0.53658 0.0
H443 H 0.07014 0.26586 0.50632 0.0
H444 H 0.03951 0.26564 0.50885 0.0
H445 H 0.01452 0.31185 0.55888 0.0
H446 H 0.93056 0.31915 0.4988 0.0
H447 H 0.96147 0.31924 0.49726 0.0
H448 H 0.98581 0.27365 0.47237 0.0
C449 C 0.04599 0.27744 0.51357 0.0
C450 C 0.00854 0.30365 0.53932 0.0
C451 C 0.06359 0.27749 0.51256 0.0
C452 C 0.93728 0.30752 0.50408 0.0
C453 C 0.95491 0.30762 0.50345 0.0
C454 C 0.99204 0.28208 0.49114 0.0
C455 C 0.03696 0.29243 0.51998 0.0
C456 C 0.01815 0.29266 0.51765 0.0
C457 C 0.96399 0.29286 0.51121 0.0
C458 C 0.98259 0.29311 0.51268 0.0
H459 H 0.0704 0.31891 0.53189 0.0
H460 H 0.03972 0.31912 0.53202 0.0
H461 H 0.01648 0.27367 0.47535 0.0
H462 H 0.93115 0.2664 0.5278 0.0
H463 H 0.96198 0.26643 0.52514 0.0
C464 C 0.25169 0.34232 0.02734 0.0
C465 C 0.235 0.33696 0.02164 0.0
C466 C 0.26484 0.33056 0.02921 0.0
C467 C 0.27283 0.28614 0.0506 0.0
H468 H 0.31408 0.29162 0.99569 0.0
C469 C 0.31914 0.23136 0.02953 0.0
C470 C 0.3365 0.23476 0.02798 0.0
C471 C 0.30747 0.2445 0.03134 0.0
C472 C 0.30278 0.29002 0.01172 0.0
H473 H 0.21911 0.31504 0.01295 0.0
H474 H 0.24197 0.29467 0.01646 0.0
H475 H 0.29248 0.31354 0.99343 0.0
H476 H 0.35523 0.25468 0.0281 0.0
H477 H 0.33484 0.27763 0.03209 0.0
H478 H 0.28301 0.26275 0.06916 0.0
C479 C 0.24487 0.30793 0.01966 0.0
C480 C 0.29039 0.30256 0.0103 0.0
C481 C 0.2318 0.31964 0.01739 0.0
C482 C 0.34194 0.25162 0.02909 0.0
C483 C 0.33024 0.26479 0.03114 0.0
C484 C 0.28524 0.2737 0.05231 0.0
C485 C 0.2615 0.31324 0.02589 0.0
C486 C 0.27518 0.30059 0.02923 0.0
C487 C 0.31284 0.26139 0.03195 0.0
C488 C 0.30025 0.27532 0.03238 0.0
H489 H 0.25459 0.35556 0.03068 0.0
H490 H 0.27754 0.33499 0.03411 0.0
H491 H 0.26134 0.28444 0.066 0.0
H492 H 0.31448 0.21853 0.02852 0.0
H493 H 0.29418 0.24138 0.03129 0.0
C494 C 0.76999 0.32004 0.01631 0.0
C495 C 0.76683 0.33741 0.01305 0.0
C496 C 0.7568 0.30843 0.01461 0.0
C497 C 0.71135 0.30333 0.02702 0.0
H498 H 0.71744 0.26417 0.96567 0.0
C499 C 0.65896 0.25315 0.00835 0.0
C500 C 0.66425 0.23623 0.00817 0.0
C501 C 0.67077 0.26624 1.00653 0.0
C502 C 0.71558 0.27493 0.98323 0.0
H503 H 0.74721 0.35622 1.00641 0.0
H504 H 0.72408 0.33585 1.00394 0.0
H505 H 0.73941 0.28556 0.96856 0.0
H506 H 0.68612 0.21984 1.00567 0.0
H507 H 0.70659 0.24251 1.00328 0.0
H508 H 0.68772 0.29248 0.04251 0.0
C509 C 0.73684 0.33129 0.00765 0.0
C510 C 0.72816 0.2872 0.98479 0.0
C511 C 0.75008 0.34293 0.00895 0.0
C512 C 0.68157 0.23271 1.00567 0.0
C513 C 0.69334 0.24575 1.00406 0.0
C514 C 0.69879 0.29095 0.02572 0.0
C515 C 0.74011 0.31391 0.00995 0.0
C516 C 0.72628 0.30141 1.00703 0.0
C517 C 0.68812 0.26269 1.00462 0.0
C518 C 0.70086 0.27648 1.00415 0.0
H519 H 0.78272 0.31533 0.01951 0.0
H520 H 0.75966 0.29513 0.01698 0.0
H521 H 0.70961 0.31412 0.04455 0.0
H522 H 0.64571 0.25631 0.01015 0.0
H523 H 0.66629 0.27913 1.00655 0.0
C524 C 0.77111 0.68291 0.01582 0.0
C525 C 0.76758 0.66562 0.01943 0.0
C526 C 0.75817 0.69481 0.01745 0.0
C527 C 0.71266 0.70063 1.00593 0.0
H528 H 0.71979 0.74023 0.06544 0.0
C529 C 0.6607 0.75097 0.02614 0.0
C530 C 0.66592 0.7679 0.02544 0.0
C531 C 0.67256 0.73793 0.02764 0.0
C532 C 0.71764 0.72935 0.04839 0.0
H533 H 0.74757 0.64728 0.02667 0.0
H534 H 0.72492 0.66816 0.0291 0.0
H535 H 0.7415 0.71857 0.06238 0.0
H536 H 0.68774 0.78439 0.02614 0.0
H537 H 0.70834 0.76176 0.02804 0.0
H538 H 0.68897 0.71157 0.99121 0.0
C539 C 0.73775 0.67243 0.02512 0.0
C540 C 0.73008 0.71693 0.04671 0.0
C541 C 0.75073 0.66049 0.02384 0.0
C542 C 0.68325 0.7715 0.02683 0.0
C543 C 0.69509 0.75849 0.02813 0.0
C544 C 0.70025 0.71314 0.00737 0.0
C545 C 0.74138 0.68972 0.02241 0.0
C546 C 0.7278 0.70252 0.02519 0.0
C547 C 0.68992 0.74153 0.02834 0.0
C548 C 0.70266 0.72774 0.02835 0.0
H549 H 0.78392 0.68732 0.01236 0.0
H550 H 0.76132 0.70804 0.01475 0.0
H551 H 0.71062 0.68971 0.98892 0.0
H552 H 0.64744 0.74775 0.02523 0.0
H553 H 0.66811 0.72503 0.0283 0.0
C554 C 0.23316 0.68159 0.01354 0.0
C555 C 0.23622 0.66416 0.01134 0.0
C556 C 0.24642 0.69308 0.01121 0.0
C557 C 0.29175 0.69822 0.02406 0.0
H558 H 0.28591 0.7367 0.96051 0.0
C559 C 0.34375 0.74884 1.00605 0.0
C560 C 0.33823 0.76568 1.00515 0.0
C561 C 0.33216 0.73557 1.00385 0.0
C562 C 0.28771 0.72613 0.97865 0.0
H563 H 0.25571 0.64514 1.00589 0.0
H564 H 0.27898 0.66536 1.00235 0.0
H565 H 0.26405 0.71521 0.96372 0.0
H566 H 0.31619 0.78175 1.00082 0.0
H567 H 0.29607 0.75879 0.99777 0.0
H568 H 0.31517 0.70939 0.03991 0.0
C569 C 0.26625 0.67003 1.00569 0.0
C570 C 0.27519 0.7138 0.98039 0.0
C571 C 0.25293 0.65849 0.00763 0.0
C572 C 0.32091 0.76895 1.00141 0.0
C573 C 0.30935 0.75573 0.99942 0.0
C574 C 0.30424 0.71066 0.0226 0.0
C575 C 0.26308 0.68745 1.00695 0.0
C576 C 0.27696 0.69985 1.00349 0.0
C577 C 0.31479 0.73887 1.00083 0.0
C578 C 0.30224 0.72491 1.00027 0.0
H579 H 0.22047 0.68642 0.01643 0.0
H580 H 0.24364 0.70643 0.01279 0.0
H581 H 0.2934 0.68763 0.04224 0.0
H582 H 0.35702 0.74588 0.00879 0.0
H583 H 0.33681 0.72275 1.00453 0.0
C584 C 0.81745 0.73038 0.51821 0.0
C585 C 0.8348 0.73395 0.51832 0.0
C586 C 0.80563 0.74342 0.51746 0.0
C587 C 0.79927 0.78815 0.53794 0.0
H588 H 0.76245 0.78439 0.46944 0.0
C589 C 0.75001 0.84136 0.51894 0.0
C590 C 0.73315 0.83631 0.51442 0.0
C591 C 0.76305 0.82949 0.51796 0.0
C592 C 0.77252 0.78558 0.48902 0.0
H593 H 0.85332 0.75408 0.51876 0.0
H594 H 0.83258 0.77688 0.5179 0.0
H595 H 0.78386 0.76243 0.47194 0.0
H596 H 0.71683 0.81477 0.5053 0.0
H597 H 0.73941 0.79414 0.5044 0.0
H598 H 0.78773 0.81109 0.55569 0.0
C599 C 0.82819 0.76395 0.51825 0.0
C600 C 0.78481 0.773 0.49037 0.0
C601 C 0.84005 0.75089 0.51862 0.0
C602 C 0.72967 0.81915 0.50864 0.0
C603 C 0.74266 0.8073 0.5079 0.0
C604 C 0.78687 0.80069 0.53684 0.0
C605 C 0.81087 0.76033 0.51716 0.0
C606 C 0.79822 0.77406 0.51506 0.0
C607 C 0.75953 0.81228 0.51262 0.0
C608 C 0.77324 0.79947 0.51259 0.0
H609 H 0.81295 0.71749 0.518 0.0
H610 H 0.79235 0.74026 0.51713 0.0
H611 H 0.80941 0.78924 0.5574 0.0
H612 H 0.75314 0.85449 0.52333 0.0
H613 H 0.77591 0.83382 0.5212 0.0
C614 C 0.24904 0.84407 0.51672 0.0
C615 C 0.2658 0.8385 0.52007 0.0
C616 C 0.23574 0.83247 0.516 0.0
C617 C 0.22692 0.78867 0.49202 0.0
H618 H 0.18703 0.79303 0.55183 0.0
C619 C 0.1808 0.7337 0.51083 0.0
C620 C 0.16349 0.73708 0.51424 0.0
C621 C 0.19249 0.74682 0.50997 0.0
C622 C 0.19794 0.79176 0.53447 0.0
H623 H 0.28167 0.81637 0.52609 0.0
H624 H 0.25854 0.79624 0.52449 0.0
H625 H 0.20884 0.81478 0.55406 0.0
H626 H 0.14488 0.757 0.51877 0.0
H627 H 0.16532 0.77999 0.51638 0.0
H628 H 0.21613 0.76586 0.47201 0.0
C629 C 0.2557 0.80956 0.52228 0.0
C630 C 0.21044 0.80419 0.53589 0.0
C631 C 0.26893 0.82112 0.52343 0.0
C632 C 0.15813 0.75396 0.51624 0.0
C633 C 0.16986 0.76713 0.5151 0.0
C634 C 0.21438 0.77637 0.4903 0.0
C635 C 0.239 0.81508 0.51813 0.0
C636 C 0.22518 0.80259 0.51515 0.0
C637 C 0.18721 0.76371 0.51213 0.0
C638 C 0.19987 0.77757 0.51199 0.0
H639 H 0.24619 0.85737 0.51415 0.0
H640 H 0.22297 0.83704 0.51273 0.0
H641 H 0.23802 0.7873 0.47522 0.0
H642 H 0.1854 0.72086 0.5095 0.0
H643 H 0.20575 0.74366 0.50839 0.0
C644 C 0.27084 0.18311 0.51074 0.0
C645 C 0.26756 0.16577 0.51433 0.0
C646 C 0.25771 0.1948 0.51201 0.0
C647 C 0.21216 0.20012 0.5 0.0
H648 H 0.2186 0.23928 0.56117 0.0
C649 C 0.15963 0.24987 0.52142 0.0
C650 C 0.16476 0.26684 0.52154 0.0
C651 C 0.17157 0.23689 0.52245 0.0
C652 C 0.21664 0.22852 0.54365 0.0
H653 H 0.24779 0.14711 0.52091 0.0
H654 H 0.2248 0.16763 0.52271 0.0
H655 H 0.24058 0.21793 0.55761 0.0
H656 H 0.1865 0.28343 0.5231 0.0
H657 H 0.2072 0.26094 0.52418 0.0
H658 H 0.18839 0.21089 0.48533 0.0
C659 C 0.23759 0.1721 0.51905 0.0
C660 C 0.22924 0.21628 0.54168 0.0
C661 C 0.25076 0.16038 0.51813 0.0
C662 C 0.18207 0.27052 0.52318 0.0
C663 C 0.19397 0.25758 0.52402 0.0
C664 C 0.19959 0.21246 0.50172 0.0
C665 C 0.24097 0.18945 0.51659 0.0
C666 C 0.22722 0.20204 0.51956 0.0
C667 C 0.18891 0.24059 0.52351 0.0
C668 C 0.20176 0.22692 0.52328 0.0
H669 H 0.28361 0.18772 0.50771 0.0
H670 H 0.26067 0.20809 0.50951 0.0
H671 H 0.21032 0.1893 0.48257 0.0
H672 H 0.14639 0.2466 0.52027 0.0
H673 H 0.16721 0.22396 0.52252 0.0
C674 C 0.81907 0.26988 0.51292 0.0
C675 C 0.83647 0.26665 0.51132 0.0
C676 C 0.80751 0.25662 0.51361 0.0
C677 C 0.80137 0.21216 0.49078 0.0
H678 H 0.76608 0.21441 0.56316 0.0
C679 C 0.7523 0.15861 0.50965 0.0
C680 C 0.73559 0.16371 0.51603 0.0
C681 C 0.76547 0.17036 0.51053 0.0
C682 C 0.77572 0.21365 0.54251 0.0
H683 H 0.85534 0.2469 0.50802 0.0
H684 H 0.83502 0.2237 0.50875 0.0
H685 H 0.78725 0.23657 0.56029 0.0
H686 H 0.71966 0.18521 0.52833 0.0
H687 H 0.7424 0.2056 0.52908 0.0
H688 H 0.78959 0.18945 0.47233 0.0
C689 C 0.83041 0.23654 0.50964 0.0
C690 C 0.78787 0.22634 0.54096 0.0
C691 C 0.84202 0.24983 0.50933 0.0
C692 C 0.73238 0.18078 0.52354 0.0
C693 C 0.74548 0.1925 0.5242 0.0
C694 C 0.78909 0.1995 0.4921 0.0
C695 C 0.81306 0.23982 0.51238 0.0
C696 C 0.8007 0.22584 0.51482 0.0
C697 C 0.76219 0.18748 0.51768 0.0
C698 C 0.77598 0.20021 0.5177 0.0
H699 H 0.81434 0.28267 0.51444 0.0
H700 H 0.79419 0.25952 0.51523 0.0
H701 H 0.81109 0.21151 0.47025 0.0
H702 H 0.75522 0.14555 0.50386 0.0
H703 H 0.77821 0.16601 0.5058 0.0
C704 C 0.12235 0.32145 0.37921 0.0
C705 C 0.13147 0.32905 0.40748 0.0
C706 C 0.12397 0.32724 0.34371 0.0
C707 C 0.13926 0.36282 0.28747 0.0
H708 H 0.14574 0.32797 0.21529 0.0
C709 C 0.1708 0.37497 0.14958 0.0
C710 C 0.16553 0.36568 0.11923 0.0
C711 C 0.16384 0.37192 0.18362 0.0
C712 C 0.14362 0.33789 0.23488 0.0
H713 H 0.14895 0.34914 0.42068 0.0
H714 H 0.15192 0.35914 0.35853 0.0
H715 H 0.13895 0.3201 0.27715 0.0
H716 H 0.1481 0.34649 0.10062 0.0
H717 H 0.13578 0.34128 0.16016 0.0
H718 H 0.1443 0.38059 0.24518 0.0
C719 C 0.14339 0.34878 0.36395 0.0
C720 C 0.13975 0.33337 0.27043 0.0
C721 C 0.14176 0.343 0.39957 0.0
C722 C 0.15251 0.35382 0.12344 0.0
C723 C 0.14554 0.35075 0.15761 0.0
C724 C 0.14311 0.36734 0.25183 0.0
C725 C 0.13476 0.34075 0.33552 0.0
C726 C 0.13774 0.34576 0.29727 0.0
C727 C 0.15139 0.35951 0.18823 0.0
C728 C 0.14557 0.35491 0.22521 0.0
H729 H 0.11418 0.31078 0.38433 0.0
H730 H 0.11692 0.32097 0.32256 0.0
H731 H 0.13755 0.37267 0.30739 0.0
H732 H 0.18076 0.38425 0.14736 0.0
H733 H 0.16879 0.37878 0.2066 0.0
C734 C 0.65411 0.14807 0.40811 0.0
C735 C 0.66712 0.13619 0.41227 0.0
C736 C 0.64733 0.15139 0.37386 0.0
C737 C 0.64519 0.13529 0.2793 0.0
H738 H 0.64072 0.18261 0.25491 0.0
C739 C 0.64299 0.16001 0.1319 0.0
C740 C 0.63256 0.1739 0.12435 0.0
C741 C 0.64492 0.15421 0.16744 0.0
C742 C 0.64162 0.16932 0.26136 0.0
H743 H 0.68261 0.11792 0.38388 0.0
H744 H 0.67095 0.12382 0.3245 0.0
H745 H 0.64763 0.17452 0.3166 0.0
H746 H 0.61537 0.19209 0.14814 0.0
H747 H 0.6186 0.18186 0.20978 0.0
H748 H 0.63955 0.13016 0.2237 0.0
C749 C 0.66586 0.1305 0.34759 0.0
C750 C 0.64556 0.16468 0.29682 0.0
C751 C 0.67264 0.1272 0.38171 0.0
C752 C 0.62364 0.18145 0.15296 0.0
C753 C 0.62555 0.17565 0.18839 0.0
C754 C 0.64125 0.13994 0.24378 0.0
C755 C 0.65337 0.14288 0.34309 0.0
C756 C 0.64761 0.14762 0.30615 0.0
C757 C 0.63644 0.16216 0.19618 0.0
C758 C 0.63961 0.15703 0.2343 0.0
H759 H 0.64952 0.15518 0.43107 0.0
H760 H 0.63754 0.16084 0.37139 0.0
H761 H 0.64646 0.12203 0.28569 0.0
H762 H 0.65005 0.15391 0.11053 0.0
H763 H 0.65352 0.14388 0.17253 0.0
C764 C 0.85776 0.65671 0.40206 0.0
C765 C 0.8688 0.67008 0.40983 0.0
C766 C 0.85605 0.65075 0.36659 0.0
C767 C 0.86133 0.66543 0.2728 0.0
H768 H 0.85365 0.61854 0.24839 0.0
C769 C 0.84852 0.64526 0.12571 0.0
C770 C 0.8348 0.63427 0.12107 0.0
C771 C 0.85532 0.64802 0.16015 0.0
C772 C 0.85573 0.6317 0.2548 0.0
H773 H 0.88743 0.687 0.38673 0.0
H774 H 0.8846 0.6765 0.32528 0.0
H775 H 0.86051 0.62624 0.31067 0.0
H776 H 0.81806 0.6169 0.14881 0.0
H777 H 0.82974 0.62184 0.20855 0.0
H778 H 0.85614 0.671 0.21734 0.0
C779 C 0.87698 0.67085 0.34636 0.0
C780 C 0.85963 0.6361 0.29048 0.0
C781 C 0.87865 0.67681 0.38168 0.0
C782 C 0.82858 0.62551 0.15135 0.0
C783 C 0.83537 0.62825 0.18568 0.0
C784 C 0.85741 0.66104 0.2372 0.0
C785 C 0.86538 0.65802 0.3382 0.0
C786 C 0.8623 0.65305 0.29997 0.0
C787 C 0.84858 0.63981 0.19067 0.0
C788 C 0.85435 0.64415 0.22782 0.0
H789 H 0.84998 0.65124 0.42309 0.0
H790 H 0.84692 0.64093 0.3612 0.0
H791 H 0.86301 0.67864 0.27924 0.0
H792 H 0.85367 0.65216 0.10296 0.0
H793 H 0.86567 0.65682 0.16298 0.0
C794 C 0.32645 0.87438 0.38186 0.0
C795 C 0.33249 0.86557 0.41226 0.0
C796 C 0.33282 0.87102 0.3474 0.0
C797 C 0.35309 0.8664 0.27836 0.0
H798 H 0.35817 0.81914 0.25421 0.0
C799 C 0.35666 0.84179 0.13092 0.0
C800 C 0.36741 0.8281 0.12383 0.0
C801 C 0.35425 0.84749 0.16639 0.0
C802 C 0.35708 0.83242 0.26058 0.0
H803 H 0.35052 0.84682 0.43035 0.0
H804 H 0.36175 0.84105 0.3701 0.0
H805 H 0.35116 0.82717 0.31588 0.0
H806 H 0.38461 0.81014 0.14841 0.0
H807 H 0.38056 0.82019 0.2099 0.0
H808 H 0.35873 0.87159 0.22276 0.0
C809 C 0.3519 0.8504 0.37297 0.0
C810 C 0.35308 0.83702 0.29601 0.0
C811 C 0.34554 0.85379 0.40753 0.0
C812 C 0.37612 0.82063 0.15285 0.0
C813 C 0.37373 0.82633 0.1882 0.0
C814 C 0.3571 0.86179 0.24286 0.0
C815 C 0.34539 0.85877 0.34242 0.0
C816 C 0.35089 0.85406 0.30529 0.0
C817 C 0.36255 0.83963 0.19551 0.0
C818 C 0.35902 0.84472 0.23349 0.0
H819 H 0.31643 0.88357 0.38447 0.0
H820 H 0.3274 0.87758 0.32448 0.0
H821 H 0.35169 0.87966 0.2847 0.0
H822 H 0.34974 0.84783 0.10922 0.0
H823 H 0.34544 0.85768 0.17109 0.0
C824 C 0.12555 0.67851 0.65336 0.0
C825 C 0.13338 0.67121 0.62302 0.0
C826 C 0.12805 0.67184 0.68791 0.0
C827 C 0.15887 0.64683 0.73932 0.0
H828 H 0.12438 0.64761 0.81368 0.0
C829 C 0.17302 0.62361 0.88299 0.0
C830 C 0.16797 0.63431 0.91131 0.0
C831 C 0.16689 0.62597 0.84798 0.0
C832 C 0.13415 0.64739 0.79322 0.0
H833 H 0.14939 0.65069 0.60516 0.0
H834 H 0.15358 0.6389 0.66553 0.0
H835 H 0.11711 0.6552 0.75152 0.0
H836 H 0.15178 0.65534 0.92531 0.0
H837 H 0.14113 0.65954 0.86391 0.0
H838 H 0.17596 0.63929 0.78096 0.0
C839 C 0.14573 0.64999 0.66258 0.0
C840 C 0.13 0.65173 0.75761 0.0
C841 C 0.14325 0.65668 0.62793 0.0
C842 C 0.15593 0.64688 0.90413 0.0
C843 C 0.1498 0.64926 0.86895 0.0
C844 C 0.163 0.64245 0.77482 0.0
C845 C 0.13841 0.65768 0.69307 0.0
C846 C 0.14236 0.65169 0.7303 0.0
C847 C 0.15556 0.63909 0.84032 0.0
C848 C 0.15074 0.64283 0.80228 0.0
H849 H 0.11783 0.6897 0.65065 0.0
H850 H 0.12237 0.67823 0.71074 0.0
H851 H 0.16879 0.64697 0.71922 0.0
H852 H 0.18213 0.61366 0.8876 0.0
H853 H 0.17131 0.6177 0.8267 0.0
C854 C 0.32787 0.12775 0.65114 0.0
C855 C 0.33398 0.13654 0.62079 0.0
C856 C 0.33438 0.1309 0.68557 0.0
C857 C 0.35481 0.13515 0.75455 0.0
H858 H 0.36005 0.18235 0.77904 0.0
C859 C 0.3576 0.15949 0.90213 0.0
C860 C 0.36814 0.17329 0.90966 0.0
C861 C 0.35552 0.15381 0.86657 0.0
C862 C 0.35894 0.16909 0.77258 0.0
H863 H 0.3523 0.15501 0.60272 0.0
H864 H 0.36376 0.16043 0.66292 0.0
H865 H 0.3532 0.17444 0.71724 0.0
H866 H 0.38538 0.19143 0.88583 0.0
H867 H 0.38194 0.18137 0.82415 0.0
H868 H 0.36026 0.12985 0.81018 0.0
C869 C 0.35375 0.15125 0.66004 0.0
C870 C 0.35502 0.16455 0.73707 0.0
C871 C 0.34726 0.14806 0.62551 0.0
C872 C 0.37702 0.18087 0.88101 0.0
C873 C 0.37499 0.17516 0.84556 0.0
C874 C 0.35875 0.13969 0.79012 0.0
C875 C 0.34716 0.14294 0.69056 0.0
C876 C 0.35273 0.14754 0.72768 0.0
C877 C 0.36398 0.16177 0.83778 0.0
C878 C 0.3607 0.15674 0.79964 0.0
H879 H 0.31767 0.11876 0.64853 0.0
H880 H 0.3289 0.12439 0.70847 0.0
H881 H 0.35332 0.12191 0.7481 0.0
H882 H 0.35056 0.15339 0.92354 0.0
H883 H 0.34682 0.14356 0.86151 0.0
C884 C 0.82941 0.37566 0.88161 0.0
C885 C 0.83512 0.36667 0.91206 0.0
C886 C 0.83618 0.37255 0.8474 0.0
C887 C 0.85686 0.33872 0.79637 0.0
H888 H 0.86206 0.37333 0.72304 0.0
C889 C 0.87833 0.32213 0.65225 0.0
C890 C 0.86916 0.32951 0.62378 0.0
C891 C 0.87657 0.32799 0.68765 0.0
C892 C 0.86058 0.36352 0.74318 0.0
H893 H 0.85307 0.34794 0.93059 0.0
H894 H 0.86504 0.34263 0.87079 0.0
H895 H 0.85524 0.38135 0.78513 0.0
H896 H 0.8514 0.3493 0.61013 0.0
H897 H 0.84816 0.35942 0.67209 0.0
H898 H 0.86183 0.32087 0.75445 0.0
C899 C 0.85511 0.35191 0.8734 0.0
C900 C 0.8567 0.36811 0.77876 0.0
C901 C 0.84833 0.35504 0.90771 0.0
C902 C 0.85865 0.34333 0.6314 0.0
C903 C 0.85686 0.34918 0.66692 0.0
C904 C 0.86075 0.33414 0.76086 0.0
C905 C 0.84886 0.36038 0.84272 0.0
C906 C 0.85457 0.35574 0.80569 0.0
C907 C 0.86555 0.34136 0.69556 0.0
C908 C 0.86246 0.34646 0.73372 0.0
H909 H 0.81928 0.38475 0.88391 0.0
H910 H 0.83094 0.37919 0.8244 0.0
H911 H 0.85501 0.32884 0.81621 0.0
H912 H 0.88668 0.31157 0.64736 0.0
H913 H 0.88369 0.32189 0.70895 0.0
C914 C 0.64294 0.84313 0.90089 0.0
C915 C 0.63258 0.82923 0.90878 0.0
C916 C 0.6447 0.84886 0.86526 0.0
C917 C 0.64089 0.83352 0.7715 0.0
H918 H 0.64613 0.88072 0.74668 0.0
C919 C 0.65284 0.8544 0.62434 0.0
C920 C 0.66608 0.866 0.61981 0.0
C921 C 0.64618 0.85126 0.65875 0.0
C922 C 0.64474 0.86748 0.75321 0.0
H923 H 0.61532 0.81098 0.88554 0.0
H924 H 0.61822 0.82109 0.82374 0.0
H925 H 0.63938 0.87277 0.80886 0.0
H926 H 0.68207 0.88399 0.64772 0.0
H927 H 0.67057 0.87842 0.70742 0.0
H928 H 0.64658 0.82817 0.71616 0.0
C929 C 0.62526 0.82736 0.84492 0.0
C930 C 0.6409 0.86293 0.78885 0.0
C931 C 0.62354 0.82161 0.88044 0.0
C932 C 0.67193 0.87492 0.65018 0.0
C933 C 0.66525 0.87182 0.68448 0.0
C934 C 0.64471 0.83806 0.73592 0.0
C935 C 0.63611 0.84083 0.83676 0.0
C936 C 0.63913 0.84588 0.79851 0.0
C937 C 0.65254 0.85969 0.68933 0.0
C938 C 0.64689 0.85508 0.72642 0.0
H939 H 0.6501 0.84928 0.92205 0.0
H940 H 0.65328 0.85918 0.85991 0.0
H941 H 0.63989 0.82025 0.77806 0.0
H942 H 0.648 0.84735 0.60152 0.0
H943 H 0.63623 0.842 0.66152 0.0
C944 C 0.87262 0.67147 0.6404 0.0
C945 C 0.86103 0.66475 0.61552 0.0
C946 C 0.87174 0.66713 0.67707 0.0
C947 C 0.85441 0.6362 0.74214 0.0
H948 H 0.85371 0.67415 0.80804 0.0
C949 C 0.83024 0.63073 0.88975 0.0
C950 C 0.83715 0.64145 0.9161 0.0
C951 C 0.83508 0.63219 0.85344 0.0
C952 C 0.85422 0.66332 0.7903 0.0
H953 H 0.83998 0.64755 0.60938 0.0
H954 H 0.8386 0.63985 0.67324 0.0
H955 H 0.85919 0.67887 0.74419 0.0
H956 H 0.85527 0.66143 0.9254 0.0
H957 H 0.86418 0.66354 0.8626 0.0
H958 H 0.84947 0.62061 0.78825 0.0
C959 C 0.84833 0.6485 0.66442 0.0
C960 C 0.85732 0.66606 0.75355 0.0
C961 C 0.84908 0.65297 0.62784 0.0
C962 C 0.84957 0.65309 0.90568 0.0
C963 C 0.85458 0.6544 0.86953 0.0
C964 C 0.85148 0.6334 0.77904 0.0
C965 C 0.85939 0.65583 0.68959 0.0
C966 C 0.85729 0.65257 0.72898 0.0
C967 C 0.8471 0.64428 0.84269 0.0
C968 C 0.85118 0.64696 0.80362 0.0
H969 H 0.88198 0.68057 0.63182 0.0
H970 H 0.88056 0.67285 0.69577 0.0
H971 H 0.85444 0.62553 0.72387 0.0
H972 H 0.82057 0.62169 0.89691 0.0
H973 H 0.82888 0.62428 0.83365 0.0
C974 C 0.33791 0.87512 0.63885 0.0
C975 C 0.33771 0.86042 0.61766 0.0
C976 C 0.3432 0.87453 0.67502 0.0
C977 C 0.3645 0.8465 0.74301 0.0
H978 H 0.33912 0.87316 0.81179 0.0
C979 C 0.37522 0.83871 0.89673 0.0
C980 C 0.3607 0.83883 0.91847 0.0
C981 C 0.37446 0.84403 0.86059 0.0
C982 C 0.34629 0.86552 0.79304 0.0
H983 H 0.3432 0.83364 0.61772 0.0
H984 H 0.35181 0.83248 0.68055 0.0
H985 H 0.33407 0.87675 0.74749 0.0
H986 H 0.33409 0.84504 0.91952 0.0
H987 H 0.33261 0.8537 0.85673 0.0
H988 H 0.37588 0.83444 0.78855 0.0
C989 C 0.34837 0.8446 0.66932 0.0
C990 C 0.34358 0.86779 0.75595 0.0
C991 C 0.34329 0.84524 0.63316 0.0
C992 C 0.34555 0.84488 0.90363 0.0
C993 C 0.34474 0.84997 0.86749 0.0
C994 C 0.36704 0.84406 0.7801 0.0
C995 C 0.34823 0.85919 0.69098 0.0
C996 C 0.35241 0.85807 0.73037 0.0
C997 C 0.35911 0.84938 0.8452 0.0
C998 C 0.35773 0.8533 0.80571 0.0
H999 H 0.33376 0.88704 0.62767 0.0
H1000 H 0.34318 0.8861 0.69054 0.0
H1001 H 0.37185 0.83903 0.72427 0.0
H1002 H 0.38711 0.83421 0.9074 0.0
H1003 H 0.38589 0.8437 0.84462 0.0
C1004 C 0.12915 0.33774 0.63616 0.0
C1005 C 0.14304 0.33833 0.61255 0.0
C1006 C 0.13098 0.34225 0.67263 0.0
C1007 C 0.16227 0.34074 0.74333 0.0
H1008 H 0.13388 0.37138 0.79786 0.0
C1009 C 0.16172 0.34196 0.89862 0.0
C1010 C 0.16569 0.35761 0.91429 0.0
C1011 C 0.15773 0.34081 0.86192 0.0
C1012 C 0.14188 0.36282 0.78285 0.0
H1013 H 0.16957 0.34473 0.60846 0.0
H1014 H 0.17277 0.3522 0.67204 0.0
H1015 H 0.12921 0.36771 0.73247 0.0
H1016 H 0.16782 0.38444 0.904 0.0
H1017 H 0.16036 0.38241 0.83966 0.0
H1018 H 0.17467 0.33547 0.79354 0.0
C1019 C 0.16048 0.34835 0.6623 0.0
C1020 C 0.13917 0.36068 0.74563 0.0
C1021 C 0.1586 0.34413 0.62585 0.0
C1022 C 0.16485 0.3722 0.8927 0.0
C1023 C 0.16054 0.37107 0.85598 0.0
C1024 C 0.16473 0.34261 0.7805 0.0
C1025 C 0.14679 0.34715 0.68619 0.0
C1026 C 0.14942 0.34967 0.72554 0.0
C1027 C 0.15732 0.35529 0.84014 0.0
C1028 C 0.15459 0.35366 0.80062 0.0
H1029 H 0.117 0.33334 0.62674 0.0
H1030 H 0.12025 0.34116 0.69057 0.0
H1031 H 0.17026 0.33208 0.72854 0.0
H1032 H 0.16226 0.33047 0.91441 0.0
H1033 H 0.1552 0.32852 0.85038 0.0
C1034 C 0.65849 0.15833 0.90566 0.0
C1035 C 0.64293 0.16403 0.91915 0.0
C1036 C 0.66025 0.15395 0.86927 0.0
C1037 C 0.63872 0.141 0.78662 0.0
H1038 H 0.67379 0.1663 0.73755 0.0
C1039 C 0.66425 0.12885 0.63964 0.0
C1040 C 0.66505 0.14333 0.61769 0.0
C1041 C 0.65987 0.13017 0.6763 0.0
C1042 C 0.66397 0.15914 0.75091 0.0
H1043 H 0.61677 0.16867 0.90538 0.0
H1044 H 0.61981 0.16058 0.84166 0.0
H1045 H 0.66957 0.17 0.80251 0.0
H1046 H 0.66142 0.17045 0.61685 0.0
H1047 H 0.65423 0.17271 0.68075 0.0
H1048 H 0.63336 0.12995 0.73474 0.0
C1049 C 0.63064 0.15969 0.85941 0.0
C1050 C 0.66161 0.16118 0.78806 0.0
C1051 C 0.62893 0.16435 0.89581 0.0
C1052 C 0.66092 0.15904 0.63291 0.0
C1053 C 0.65686 0.16037 0.66954 0.0
C1054 C 0.64132 0.13868 0.74941 0.0
C1055 C 0.64644 0.1549 0.84563 0.0
C1056 C 0.64893 0.15222 0.80628 0.0
C1057 C 0.65654 0.14601 0.69172 0.0
C1058 C 0.65388 0.14787 0.73121 0.0
H1059 H 0.66955 0.15793 0.92283 0.0
H1060 H 0.67253 0.15019 0.85936 0.0
H1061 H 0.62888 0.13393 0.80011 0.0
H1062 H 0.66735 0.11658 0.6287 0.0
H1063 H 0.65977 0.11892 0.69292 0.0
C1064 C 0.84924 0.34843 0.40556 0.0
C1065 C 0.86135 0.33674 0.41754 0.0
C1066 C 0.84829 0.35296 0.36901 0.0
C1067 C 0.85696 0.33554 0.27966 0.0
H1068 H 0.84906 0.38101 0.24508 0.0
C1069 C 0.84909 0.3485 0.12758 0.0
C1070 C 0.83677 0.36025 0.1171 0.0
C1071 C 0.85408 0.34717 0.16373 0.0
C1072 C 0.85107 0.3682 0.25426 0.0
H1073 H 0.88236 0.32113 0.40069 0.0
H1074 H 0.88059 0.32893 0.33685 0.0
H1075 H 0.85414 0.37606 0.30943 0.0
H1076 H 0.82035 0.38015 0.13622 0.0
H1077 H 0.8286 0.3775 0.19952 0.0
H1078 H 0.85323 0.32746 0.22521 0.0
C1079 C 0.87181 0.33455 0.35577 0.0
C1080 C 0.85407 0.3654 0.29114 0.0
C1081 C 0.87289 0.33017 0.39238 0.0
C1082 C 0.82994 0.37103 0.14342 0.0
C1083 C 0.83475 0.36953 0.17976 0.0
C1084 C 0.85377 0.33829 0.24295 0.0
C1085 C 0.8593 0.34576 0.34357 0.0
C1086 C 0.857 0.34902 0.30424 0.0
C1087 C 0.84667 0.35736 0.19055 0.0
C1088 C 0.85073 0.35466 0.22965 0.0
H1089 H 0.84017 0.35374 0.42424 0.0
H1090 H 0.83845 0.36154 0.36043 0.0
H1091 H 0.85886 0.32273 0.28899 0.0
H1092 H 0.85473 0.34012 0.10787 0.0
H1093 H 0.86362 0.33796 0.17067 0.0
C1094 C 0.65181 0.85199 0.12389 0.0
C1095 C 0.64043 0.83922 0.11408 0.0
C1096 C 0.65307 0.85732 0.15984 0.0
C1097 C 0.63238 0.85422 0.25077 0.0
H1098 H 0.67782 0.86248 0.28506 0.0
C1099 C 0.6524 0.85068 0.40126 0.0
C1100 C 0.66397 0.8627 0.41411 0.0
C1101 C 0.64788 0.85029 0.3647 0.0
C1102 C 0.66501 0.86047 0.27585 0.0
H1103 H 0.62103 0.82243 0.13417 0.0
H1104 H 0.62353 0.83132 0.19696 0.0
H1105 H 0.67299 0.85718 0.22116 0.0
H1106 H 0.67942 0.88409 0.39882 0.0
H1107 H 0.67163 0.88327 0.33481 0.0
H1108 H 0.62463 0.85681 0.3061 0.0
C1109 C 0.63127 0.83753 0.17688 0.0
C1110 C 0.6622 0.85747 0.23908 0.0
C1111 C 0.62987 0.83236 0.1408 0.0
C1112 C 0.67047 0.87469 0.3898 0.0
C1113 C 0.66609 0.87415 0.35312 0.0
C1114 C 0.63524 0.85704 0.28767 0.0
C1115 C 0.64314 0.84986 0.18705 0.0
C1116 C 0.64586 0.85415 0.22599 0.0
C1117 C 0.65496 0.86177 0.34007 0.0
C1118 C 0.65161 0.86006 0.30064 0.0
H1119 H 0.66003 0.85764 0.10388 0.0
H1120 H 0.66205 0.86714 0.16634 0.0
H1121 H 0.61959 0.85203 0.24174 0.0
H1122 H 0.64715 0.84128 0.41928 0.0
H1123 H 0.63937 0.84052 0.35546 0.0
C1124 C 0.1589 0.66097 0.40367 0.0
C1125 C 0.14319 0.66604 0.4175 0.0
C1126 C 0.16071 0.65684 0.36716 0.0
C1127 C 0.13941 0.64318 0.28488 0.0
H1128 H 0.17371 0.66931 0.23533 0.0
C1129 C 0.16516 0.63079 0.13839 0.0
C1130 C 0.16583 0.64513 0.116 0.0
C1131 C 0.16072 0.6323 0.17498 0.0
C1132 C 0.16409 0.66193 0.24881 0.0
H1133 H 0.11686 0.66988 0.40413 0.0
H1134 H 0.12 0.66221 0.34017 0.0
H1135 H 0.16936 0.67316 0.30022 0.0
H1136 H 0.16192 0.6722 0.11432 0.0
H1137 H 0.1546 0.6748 0.1781 0.0
H1138 H 0.1344 0.63174 0.23324 0.0
C1139 C 0.1309 0.66163 0.35776 0.0
C1140 C 0.16167 0.66406 0.28592 0.0
C1141 C 0.12913 0.66605 0.3943 0.0
C1142 C 0.16152 0.66089 0.13073 0.0
C1143 C 0.15739 0.66242 0.1673 0.0
C1144 C 0.14208 0.64079 0.24772 0.0
C1145 C 0.14681 0.6574 0.34371 0.0
C1146 C 0.14927 0.65477 0.30433 0.0
C1147 C 0.15718 0.6482 0.18991 0.0
C1148 C 0.15437 0.65026 0.22933 0.0
H1149 H 0.17 0.66082 0.42072 0.0
H1150 H 0.17308 0.6535 0.35705 0.0
H1151 H 0.1298 0.63585 0.29852 0.0
H1152 H 0.16839 0.61847 0.12784 0.0
H1153 H 0.16071 0.62115 0.19192 0.0
C1154 C 0.33097 0.12776 0.3907 0.0
C1155 C 0.33732 0.13982 0.41495 0.0
C1156 C 0.33548 0.12821 0.35409 0.0
C1157 C 0.36649 0.14527 0.28889 0.0
H1158 H 0.32891 0.14496 0.22192 0.0
C1159 C 0.37213 0.16979 0.14184 0.0
C1160 C 0.36157 0.16294 0.11512 0.0
C1161 C 0.3707 0.1646 0.17792 0.0
C1162 C 0.33965 0.14472 0.23996 0.0
H1163 H 0.35406 0.1613 0.42015 0.0
H1164 H 0.36209 0.16194 0.35645 0.0
H1165 H 0.32393 0.13976 0.2858 0.0
H1166 H 0.34198 0.14452 0.10488 0.0
H1167 H 0.33995 0.13498 0.16734 0.0
H1168 H 0.38225 0.15023 0.2431 0.0
C1169 C 0.35358 0.15217 0.36568 0.0
C1170 C 0.33675 0.14178 0.27672 0.0
C1171 C 0.34891 0.15184 0.40216 0.0
C1172 C 0.35019 0.15016 0.1249 0.0
C1173 C 0.34893 0.1448 0.16085 0.0
C1174 C 0.36944 0.14802 0.25199 0.0
C1175 C 0.34662 0.1406 0.34108 0.0
C1176 C 0.35008 0.14225 0.30168 0.0
C1177 C 0.35882 0.15228 0.18809 0.0
C1178 C 0.35602 0.14803 0.22704 0.0
H1179 H 0.32201 0.11834 0.39967 0.0
H1180 H 0.33004 0.11904 0.33582 0.0
H1181 H 0.37704 0.14556 0.30746 0.0
H1182 H 0.38095 0.17974 0.13521 0.0
H1183 H 0.37843 0.17083 0.19802 0.0
loop_
_geom_bond_atom_site_label_1
_geom_bond_atom_site_label_2
_geom_bond_distance
_geom_bond_site_symmetry_2
_ccdc_geom_bond_type
O0 Cd1 2.223 . S
O0 C8 1.315 . S
Cd1 O0 2.223 . S
Cd1 O4 2.297 . S
Cd1 O5 2.453 . S
Cd1 O11 2.240 1_554 S
Cd2 O3 2.240 1_556 S
Cd2 O10 2.223 1_556 S
Cd2 O12 2.297 . S
Cd2 O13 2.439 . S
O3 Cd2 2.240 1_554 S
O3 C8 1.279 . S
O4 Cd1 2.297 . S
O4 C6 1.247 . S
O5 Cd1 2.453 . S
O5 C6 1.232 . S
C6 O4 1.247 . S
C6 O5 1.232 . S
C7 O12 1.247 . S
C7 O13 1.208 . S
C8 O0 1.315 . S
C8 O3 1.279 . S
C9 O10 1.315 . S
C9 O11 1.279 1_554 S
O10 Cd2 2.223 1_554 S
O10 C9 1.315 . S
O11 Cd1 2.240 1_556 S
O11 C9 1.279 1_556 S
O12 Cd2 2.297 . S
O12 C7 1.247 . S
O13 Cd2 2.439 . S
O13 C7 1.208 . S
O14 Cd15 2.223 . S
O14 C22 1.315 . S
Cd15 O14 2.223 . S
Cd15 O18 2.297 . S
Cd15 O19 2.453 . S
Cd15 O25 2.240 1_554 S
Cd16 O17 2.240 1_556 S
Cd16 O24 2.223 1_556 S
Cd16 O26 2.297 . S
Cd16 O27 2.439 . S
O17 Cd16 2.240 1_554 S
O17 C22 1.279 . S
O18 Cd15 2.297 . S
O18 C20 1.247 . S
O19 Cd15 2.453 . S
O19 C20 1.232 . S
C20 O18 1.247 . S
C20 O19 1.232 . S
C21 O26 1.247 . S
C21 O27 1.208 . S
C22 O14 1.315 . S
C22 O17 1.279 . S
C23 O24 1.315 . S
C23 O25 1.279 1_554 S
O24 Cd16 2.223 1_554 S
O24 C23 1.315 . S
O25 Cd15 2.240 1_556 S
O25 C23 1.279 1_556 S
O26 Cd16 2.297 . S
O26 C21 1.247 . S
O27 Cd16 2.439 . S
O27 C21 1.208 . S
O28 Cd29 2.223 . S
O28 C36 1.315 . S
Cd29 O28 2.223 . S
Cd29 O32 2.297 . S
Cd29 O33 2.453 . S
Cd29 O39 2.240 1_554 S
Cd30 O31 2.240 1_556 S
Cd30 O38 2.223 1_556 S
Cd30 O40 2.297 . S
Cd30 O41 2.439 . S
O31 Cd30 2.240 1_554 S
O31 C36 1.279 . S
O32 Cd29 2.297 . S
O32 C34 1.247 . S
O33 Cd29 2.453 . S
O33 C34 1.232 . S
C34 O32 1.247 . S
C34 O33 1.232 . S
C35 O40 1.247 . S
C35 O41 1.208 . S
C36 O28 1.315 . S
C36 O31 1.279 . S
C37 O38 1.315 . S
C37 O39 1.279 1_554 S
O38 Cd30 2.223 1_554 S
O38 C37 1.315 . S
O39 Cd29 2.240 1_556 S
O39 C37 1.279 1_556 S
O40 Cd30 2.297 . S
O40 C35 1.247 . S
O41 Cd30 2.439 . S
O41 C35 1.208 . S
O42 Cd43 2.223 . S
O42 C50 1.315 . S
Cd43 O42 2.223 . S
Cd43 O46 2.297 . S
Cd43 O47 2.453 . S
Cd43 O53 2.240 1_554 S
Cd44 O45 2.240 1_556 S
Cd44 O52 2.223 1_556 S
Cd44 O54 2.297 . S
Cd44 O55 2.439 . S
O45 Cd44 2.240 1_554 S
O45 C50 1.279 . S
O46 Cd43 2.297 . S
O46 C48 1.247 . S
O47 Cd43 2.453 . S
O47 C48 1.232 . S
C48 O46 1.247 . S
C48 O47 1.232 . S
C49 O54 1.247 . S
C49 O55 1.208 . S
C50 O42 1.315 . S
C50 O45 1.279 . S
C51 O52 1.315 . S
C51 O53 1.279 1_554 S
O52 Cd44 2.223 1_554 S
O52 C51 1.315 . S
O53 Cd43 2.240 1_556 S
O53 C51 1.279 1_556 S
O54 Cd44 2.297 . S
O54 C49 1.247 . S
O55 Cd44 2.439 . S
O55 C49 1.208 . S
O56 Cd57 2.223 . S
O56 C64 1.315 . S
Cd57 O56 2.223 . S
Cd57 O60 2.297 . S
Cd57 O61 2.439 1_556 S
Cd57 O67 2.240 1_556 S
Cd58 O59 2.240 1_554 S
Cd58 O66 2.223 . S
Cd58 O68 2.297 . S
Cd58 O69 2.439 . S
O59 Cd58 2.240 1_556 S
O59 C64 1.279 . S
O60 Cd57 2.297 . S
O60 C62 1.247 . S
O61 Cd57 2.439 1_554 S
O61 C62 1.208 1_554 S
C62 O60 1.247 . S
C62 O61 1.208 1_556 S
C63 O68 1.247 . S
C63 O69 1.208 . S
C64 O56 1.315 . S
C64 O59 1.279 . S
C65 O66 1.315 . S
C65 O67 1.279 . S
O66 Cd58 2.223 . S
O66 C65 1.315 . S
O67 Cd57 2.240 1_554 S
O67 C65 1.279 . S
O68 Cd58 2.297 . S
O68 C63 1.247 . S
O69 Cd58 2.439 . S
O69 C63 1.208 . S
O70 Cd71 2.223 . S
O70 C78 1.315 . S
Cd71 O70 2.223 . S
Cd71 O74 2.297 . S
Cd71 O75 2.439 1_556 S
Cd71 O81 2.240 1_556 S
Cd72 O73 2.240 1_554 S
Cd72 O80 2.223 . S
Cd72 O82 2.297 . S
Cd72 O83 2.439 . S
O73 Cd72 2.240 1_556 S
O73 C78 1.279 . S
O74 Cd71 2.297 . S
O74 C76 1.247 . S
O75 Cd71 2.439 1_554 S
O75 C76 1.208 1_554 S
C76 O74 1.247 . S
C76 O75 1.208 1_556 S
C77 O82 1.247 . S
C77 O83 1.208 . S
C78 O70 1.315 . S
C78 O73 1.279 . S
C79 O80 1.315 . S
C79 O81 1.279 . S
O80 Cd72 2.223 . S
O80 C79 1.315 . S
O81 Cd71 2.240 1_554 S
O81 C79 1.279 . S
O82 Cd72 2.297 . S
O82 C77 1.247 . S
O83 Cd72 2.439 . S
O83 C77 1.208 . S
O84 Cd85 2.223 . S
O84 C92 1.315 . S
Cd85 O84 2.223 . S
Cd85 O88 2.297 . S
Cd85 O89 2.439 1_556 S
Cd85 O95 2.240 1_556 S
Cd86 O87 2.240 1_554 S
Cd86 O94 2.223 . S
Cd86 O96 2.297 . S
Cd86 O97 2.439 . S
O87 Cd86 2.240 1_556 S
O87 C92 1.279 . S
O88 Cd85 2.297 . S
O88 C90 1.247 . S
O89 Cd85 2.439 1_554 S
O89 C90 1.208 1_554 S
C90 O88 1.247 . S
C90 O89 1.208 1_556 S
C91 O96 1.247 . S
C91 O97 1.208 . S
C92 O84 1.315 . S
C92 O87 1.279 . S
C93 O94 1.315 . S
C93 O95 1.279 . S
O94 Cd86 2.223 . S
O94 C93 1.315 . S
O95 Cd85 2.240 1_554 S
O95 C93 1.279 . S
O96 Cd86 2.297 . S
O96 C91 1.247 . S
O97 Cd86 2.439 . S
O97 C91 1.208 . S
O98 Cd99 2.223 . S
O98 C106 1.315 . S
Cd99 O98 2.223 . S
Cd99 O102 2.297 . S
Cd99 O103 2.439 1_556 S
Cd99 O109 2.240 1_556 S
Cd100 O101 2.240 1_554 S
Cd100 O108 2.223 . S
Cd100 O110 2.297 . S
Cd100 O111 2.439 . S
O101 Cd100 2.240 1_556 S
O101 C106 1.279 . S
O102 Cd99 2.297 . S
O102 C104 1.247 . S
O103 Cd99 2.439 1_554 S
O103 C104 1.208 1_554 S
C104 O102 1.247 . S
C104 O103 1.208 1_556 S
C105 O110 1.247 . S
C105 O111 1.208 . S
C106 O98 1.315 . S
C106 O101 1.279 . S
C107 O108 1.315 . S
C107 O109 1.279 . S
O108 Cd100 2.223 . S
O108 C107 1.315 . S
O109 Cd99 2.240 1_554 S
O109 C107 1.279 . S
O110 Cd100 2.297 . S
O110 C105 1.247 . S
O111 Cd100 2.439 . S
O111 C105 1.208 . S
O112 Cd113 2.223 . S
O112 C120 1.315 . S
Cd113 O112 2.223 . S
Cd113 O116 2.297 . S
Cd113 O117 2.439 . S
Cd113 O123 2.240 . S
Cd114 O115 2.240 . S
Cd114 O122 2.223 . S
Cd114 O124 2.297 . S
Cd114 O125 2.439 . S
O115 Cd114 2.240 . S
O115 C120 1.279 . S
O116 Cd113 2.297 . S
O116 C118 1.247 . S
O117 Cd113 2.439 . S
O117 C118 1.208 . S
C118 O116 1.247 . S
C118 O117 1.208 . S
C119 O124 1.247 . S
C119 O125 1.208 . S
C120 O112 1.315 . S
C120 O115 1.279 . S
C121 O122 1.315 . S
C121 O123 1.279 . S
O122 Cd114 2.223 . S
O122 C121 1.315 . S
O123 Cd113 2.240 . S
O123 C121 1.279 . S
O124 Cd114 2.297 . S
O124 C119 1.247 . S
O125 Cd114 2.439 . S
O125 C119 1.208 . S
O126 Cd127 2.223 . S
O126 C134 1.315 . S
Cd127 O126 2.223 . S
Cd127 O130 2.297 . S
Cd127 O131 2.439 . S
Cd127 O137 2.240 . S
Cd128 O129 2.240 . S
Cd128 O136 2.223 . S
Cd128 O138 2.297 . S
Cd128 O139 2.439 . S
O129 Cd128 2.240 . S
O129 C134 1.279 . S
O130 Cd127 2.297 . S
O130 C132 1.247 . S
O131 Cd127 2.439 . S
O131 C132 1.208 . S
C132 O130 1.247 . S
C132 O131 1.208 . S
C133 O138 1.247 . S
C133 O139 1.208 . S
C134 O126 1.315 . S
C134 O129 1.279 . S
C135 O136 1.315 . S
C135 O137 1.279 . S
O136 Cd128 2.223 . S
O136 C135 1.315 . S
O137 Cd127 2.240 . S
O137 C135 1.279 . S
O138 Cd128 2.297 . S
O138 C133 1.247 . S
O139 Cd128 2.439 . S
O139 C133 1.208 . S
O140 Cd141 2.223 . S
O140 C148 1.315 . S
Cd141 O140 2.223 . S
Cd141 O144 2.297 . S
Cd141 O145 2.439 . S
Cd141 O151 2.240 . S
Cd142 O143 2.240 . S
Cd142 O150 2.223 . S
Cd142 O152 2.297 . S
Cd142 O153 2.439 . S
O143 Cd142 2.240 . S
O143 C148 1.279 . S
O144 Cd141 2.297 . S
O144 C146 1.247 . S
O145 Cd141 2.439 . S
O145 C146 1.208 . S
C146 O144 1.247 . S
C146 O145 1.208 . S
C147 O152 1.247 . S
C147 O153 1.208 . S
C148 O140 1.315 . S
C148 O143 1.279 . S
C149 O150 1.315 . S
C149 O151 1.279 . S
O150 Cd142 2.223 . S
O150 C149 1.315 . S
O151 Cd141 2.240 . S
O151 C149 1.279 . S
O152 Cd142 2.297 . S
O152 C147 1.247 . S
O153 Cd142 2.439 . S
O153 C147 1.208 . S
O154 Cd155 2.223 . S
O154 C162 1.315 . S
Cd155 O154 2.223 . S
Cd155 O158 2.297 . S
Cd155 O159 2.439 . S
Cd155 O165 2.240 . S
Cd156 O157 2.240 . S
Cd156 O164 2.223 . S
Cd156 O166 2.297 . S
Cd156 O167 2.439 . S
O157 Cd156 2.240 . S
O157 C162 1.279 . S
O158 Cd155 2.297 . S
O158 C160 1.247 . S
O159 Cd155 2.439 . S
O159 C160 1.208 . S
C160 O158 1.247 . S
C160 O159 1.208 . S
C161 O166 1.247 . S
C161 O167 1.208 . S
C162 O154 1.315 . S
C162 O157 1.279 . S
C163 O164 1.315 . S
C163 O165 1.279 . S
O164 Cd156 2.223 . S
O164 C163 1.315 . S
O165 Cd155 2.240 . S
O165 C163 1.279 . S
O166 Cd156 2.297 . S
O166 C161 1.247 . S
O167 Cd156 2.439 . S
O167 C161 1.208 . S
O168 Cd169 2.223 . S
O168 C176 1.315 . S
Cd169 O168 2.223 . S
Cd169 O172 2.297 . S
Cd169 O173 2.439 . S
Cd169 O179 2.240 . S
Cd170 O171 2.240 . S
Cd170 O178 2.223 . S
Cd170 O180 2.297 . S
Cd170 O181 2.439 . S
O171 Cd170 2.240 . S
O171 C176 1.279 . S
O172 Cd169 2.297 . S
O172 C174 1.247 . S
O173 Cd169 2.439 . S
O173 C174 1.208 . S
C174 O172 1.247 . S
C174 O173 1.208 . S
C175 O180 1.247 . S
C175 O181 1.208 . S
C176 O168 1.315 . S
C176 O171 1.279 . S
C177 O178 1.315 . S
C177 O179 1.279 . S
O178 Cd170 2.223 . S
O178 C177 1.315 . S
O179 Cd169 2.240 . S
O179 C177 1.279 . S
O180 Cd170 2.297 . S
O180 C175 1.247 . S
O181 Cd170 2.439 . S
O181 C175 1.208 . S
O182 Cd183 2.223 . S
O182 C190 1.315 . S
Cd183 O182 2.223 . S
Cd183 O186 2.297 . S
Cd183 O187 2.439 . S
Cd183 O193 2.240 . S
Cd184 O185 2.240 . S
Cd184 O192 2.223 . S
Cd184 O194 2.297 . S
Cd184 O195 2.439 . S
O185 Cd184 2.240 . S
O185 C190 1.279 . S
O186 Cd183 2.297 . S
O186 C188 1.247 . S
O187 Cd183 2.439 . S
O187 C188 1.208 . S
C188 O186 1.247 . S
C188 O187 1.208 . S
C189 O194 1.247 . S
C189 O195 1.208 . S
C190 O182 1.315 . S
C190 O185 1.279 . S
C191 O192 1.315 . S
C191 O193 1.279 . S
O192 Cd184 2.223 . S
O192 C191 1.315 . S
O193 Cd183 2.240 . S
O193 C191 1.279 . S
O194 Cd184 2.297 . S
O194 C189 1.247 . S
O195 Cd184 2.439 . S
O195 C189 1.208 . S
O196 Cd197 2.223 . S
O196 C204 1.315 . S
Cd197 O196 2.223 . S
Cd197 O200 2.297 . S
Cd197 O201 2.439 . S
Cd197 O207 2.240 . S
Cd198 O199 2.240 . S
Cd198 O206 2.223 . S
Cd198 O208 2.297 . S
Cd198 O209 2.439 . S
O199 Cd198 2.240 . S
O199 C204 1.279 . S
O200 Cd197 2.297 . S
O200 C202 1.247 . S
O201 Cd197 2.439 . S
O201 C202 1.208 . S
C202 O200 1.247 . S
C202 O201 1.208 . S
C203 O208 1.247 . S
C203 O209 1.208 . S
C204 O196 1.315 . S
C204 O199 1.279 . S
C205 O206 1.315 . S
C205 O207 1.279 . S
O206 Cd198 2.223 . S
O206 C205 1.315 . S
O207 Cd197 2.240 . S
O207 C205 1.279 . S
O208 Cd198 2.297 . S
O208 C203 1.247 . S
O209 Cd198 2.439 . S
O209 C203 1.208 . S
O210 Cd211 2.223 . S
O210 C218 1.315 . S
Cd211 O210 2.223 . S
Cd211 O214 2.297 . S
Cd211 O215 2.439 . S
Cd211 O221 2.240 . S
Cd212 O213 2.240 . S
Cd212 O220 2.223 . S
Cd212 O222 2.297 . S
Cd212 O223 2.439 . S
O213 Cd212 2.240 . S
O213 C218 1.279 . S
O214 Cd211 2.297 . S
O214 C216 1.247 . S
O215 Cd211 2.439 . S
O215 C216 1.208 . S
C216 O214 1.247 . S
C216 O215 1.208 . S
C217 O222 1.247 . S
C217 O223 1.208 . S
C218 O210 1.315 . S
C218 O213 1.279 . S
C219 O220 1.315 . S
C219 O221 1.279 . S
O220 Cd212 2.223 . S
O220 C219 1.315 . S
O221 Cd211 2.240 . S
O221 C219 1.279 . S
O222 Cd212 2.297 . S
O222 C217 1.247 . S
O223 Cd212 2.439 . S
O223 C217 1.208 . S
C224 C225 1.349 . S
C224 C226 1.327 . S
C224 H249 0.950 . S
C225 C224 1.349 . S
C225 C241 1.349 1_556 S
C226 C224 1.327 . S
C226 C245 1.429 1_556 S
C226 H250 0.950 . S
C227 C244 1.574 . S
C227 C246 1.368 . S
C227 H251 0.949 . S
H228 C232 0.949 . S
C229 C230 1.349 . S
C229 C231 1.327 . S
C229 H252 0.950 . S
C230 C229 1.349 . S
C230 C242 1.349 1_554 S
C231 C229 1.327 . S
C231 C247 1.429 . S
C231 H253 0.950 . S
C232 H228 0.949 . S
C232 C240 1.574 . S
C232 C248 1.368 1_556 S
H233 C241 0.950 . S
H234 C239 0.950 . S
H235 C240 0.949 . S
H236 C242 0.950 . S
H237 C243 0.950 . S
H238 C244 0.949 . S
C239 H234 0.950 . S
C239 C241 1.327 . S
C239 C245 1.429 . S
C240 C232 1.574 . S
C240 H235 0.949 . S
C240 C246 1.368 1_556 S
C241 C225 1.349 1_554 S
C241 H233 0.950 . S
C241 C239 1.327 . S
C242 C230 1.349 1_556 S
C242 H236 0.950 . S
C242 C243 1.327 . S
C243 H237 0.950 . S
C243 C242 1.327 . S
C243 C247 1.429 1_556 S
C244 C227 1.574 . S
C244 H238 0.949 . S
C244 C248 1.368 . S
C245 C226 1.429 1_554 S
C245 C239 1.429 . S
C245 C246 1.523 . S
C246 C227 1.368 . S
C246 C240 1.368 1_554 S
C246 C245 1.523 . S
C247 C231 1.429 . S
C247 C243 1.429 1_554 S
C247 C248 1.523 . S
C248 C232 1.368 1_554 S
C248 C244 1.368 . S
C248 C247 1.523 . S
H249 C224 0.950 . S
H250 C226 0.950 . S
H251 C227 0.949 . S
H252 C229 0.950 . S
H253 C231 0.950 . S
C254 C255 1.349 1_554 S
C254 C256 1.327 . S
C254 H279 0.950 . S
C255 C254 1.349 1_556 S
C255 C271 1.349 . S
C256 C254 1.327 . S
C256 C275 1.429 . S
C256 H280 0.950 . S
C257 C274 1.574 . S
C257 C276 1.368 1_556 S
C257 H281 0.949 . S
H258 C262 0.949 . S
C259 C260 1.358 . S
C259 C261 1.326 1_554 S
C259 H282 0.942 1_554 S
C260 C259 1.358 . S
C260 C272 1.349 . S
C261 C259 1.326 1_556 S
C261 C277 1.429 1_556 S
C261 H283 0.950 . S
C262 H258 0.949 . S
C262 C270 1.574 . S
C262 C278 1.368 . S
H263 C271 0.950 . S
H264 C269 0.950 . S
H265 C270 0.949 . S
H266 C272 0.950 . S
H267 C273 0.950 . S
H268 C274 0.949 . S
C269 H264 0.950 . S
C269 C271 1.327 . S
C269 C275 1.429 1_556 S
C270 C262 1.574 . S
C270 H265 0.949 . S
C270 C276 1.368 . S
C271 C255 1.349 . S
C271 H263 0.950 . S
C271 C269 1.327 . S
C272 C260 1.349 . S
C272 H266 0.950 . S
C272 C273 1.327 . S
C273 H267 0.950 . S
C273 C272 1.327 . S
C273 C277 1.429 . S
C274 C257 1.574 . S
C274 H268 0.949 . S
C274 C278 1.368 1_556 S
C275 C256 1.429 . S
C275 C269 1.429 1_554 S
C275 C276 1.523 . S
C276 C257 1.368 1_554 S
C276 C270 1.368 . S
C276 C275 1.523 . S
C277 C261 1.429 1_554 S
C277 C273 1.429 . S
C277 C278 1.523 . S
C278 C262 1.368 . S
C278 C274 1.368 1_554 S
C278 C277 1.523 . S
H279 C254 0.950 . S
H280 C256 0.950 . S
H281 C257 0.949 . S
H282 C259 0.942 1_556 S
H283 C261 0.950 . S
C284 C285 1.349 . S
C284 C286 1.327 . S
C284 H309 0.950 . S
C285 C284 1.349 . S
C285 C301 1.349 1_556 S
C286 C284 1.327 . S
C286 C305 1.429 1_556 S
C286 H310 0.950 . S
C287 C304 1.574 . S
C287 C306 1.368 . S
C287 H311 0.949 . S
H288 C292 0.949 . S
C289 C290 1.349 . S
C289 C291 1.327 . S
C289 H312 0.950 . S
C290 C289 1.349 . S
C290 C302 1.349 1_554 S
C291 C289 1.327 . S
C291 C307 1.429 . S
C291 H313 0.950 . S
C292 H288 0.949 . S
C292 C300 1.574 . S
C292 C308 1.368 1_556 S
H293 C301 0.950 . S
H294 C299 0.950 . S
H295 C300 0.949 . S
H296 C302 0.950 . S
H297 C303 0.950 . S
H298 C304 0.949 . S
C299 H294 0.950 . S
C299 C301 1.327 . S
C299 C305 1.429 . S
C300 C292 1.574 . S
C300 H295 0.949 . S
C300 C306 1.368 1_556 S
C301 C285 1.349 1_554 S
C301 H293 0.950 . S
C301 C299 1.327 . S
C302 C290 1.349 1_556 S
C302 H296 0.950 . S
C302 C303 1.327 . S
C303 H297 0.950 . S
C303 C302 1.327 . S
C303 C307 1.429 1_556 S
C304 C287 1.574 . S
C304 H298 0.949 . S
C304 C308 1.368 . S
C305 C286 1.429 1_554 S
C305 C299 1.429 . S
C305 C306 1.523 . S
C306 C287 1.368 . S
C306 C300 1.368 1_554 S
C306 C305 1.523 . S
C307 C291 1.429 . S
C307 C303 1.429 1_554 S
C307 C308 1.523 . S
C308 C292 1.368 1_554 S
C308 C304 1.368 . S
C308 C307 1.523 . S
H309 C284 0.950 . S
H310 C286 0.950 . S
H311 C287 0.949 . S
H312 C289 0.950 . S
H313 C291 0.950 . S
C314 C315 1.349 . S
C314 C316 1.327 . S
C314 H339 0.950 . S
C315 C314 1.349 . S
C315 C331 1.349 1_556 S
C316 C314 1.327 . S
C316 C335 1.429 1_556 S
C316 H340 0.950 . S
C317 C334 1.574 . S
C317 C336 1.368 . S
C317 H341 0.949 . S
H318 C322 0.949 . S
C319 C320 1.349 . S
C319 C321 1.327 . S
C319 H342 0.950 . S
C320 C319 1.349 . S
C320 C332 1.358 . S
C321 C319 1.327 . S
C321 C337 1.429 . S
C321 H343 0.950 . S
C322 H318 0.949 . S
C322 C330 1.574 . S
C322 C338 1.368 1_556 S
H323 C331 0.950 . S
H324 C329 0.950 . S
H325 C330 0.949 . S
H326 C332 0.942 1_556 S
H327 C333 0.950 . S
H328 C334 0.949 . S
C329 H324 0.950 . S
C329 C331 1.327 . S
C329 C335 1.429 . S
C330 C322 1.574 . S
C330 H325 0.949 . S
C330 C336 1.368 1_556 S
C331 C315 1.349 1_554 S
C331 H323 0.950 . S
C331 C329 1.327 . S
C332 C320 1.358 . S
C332 H326 0.942 1_554 S
C332 C333 1.326 1_554 S
C333 H327 0.950 . S
C333 C332 1.326 1_556 S
C333 C337 1.429 1_556 S
C334 C317 1.574 . S
C334 H328 0.949 . S
C334 C338 1.368 . S
C335 C316 1.429 1_554 S
C335 C329 1.429 . S
C335 C336 1.523 . S
C336 C317 1.368 . S
C336 C330 1.368 1_554 S
C336 C335 1.523 . S
C337 C321 1.429 . S
C337 C333 1.429 1_554 S
C337 C338 1.523 . S
C338 C322 1.368 1_554 S
C338 C334 1.368 . S
C338 C337 1.523 . S
H339 C314 0.950 . S
H340 C316 0.950 . S
H341 C317 0.949 . S
H342 C319 0.950 . S
H343 C321 0.950 . S
C344 C345 1.349 . S
C344 C346 1.327 . S
C344 H369 0.950 . S
C345 C344 1.349 . S
C345 C361 1.349 . S
C346 C344 1.327 . S
C346 C365 1.429 . S
C346 H370 0.950 . S
C347 C364 1.574 1_545 S
C347 C366 1.368 . S
C347 H371 0.949 . S
H348 C352 0.949 . S
C349 C350 1.349 . S
C349 C351 1.327 . S
C349 H372 0.950 . S
C350 C349 1.349 . S
C350 C362 1.349 . S
C351 C349 1.327 . S
C351 C367 1.429 . S
C351 H373 0.950 . S
C352 H348 0.949 . S
C352 C360 1.574 1_565 S
C352 C368 1.368 . S
H353 C361 0.950 . S
H354 C359 0.950 . S
H355 C360 0.949 . S
H356 C362 0.950 . S
H357 C363 0.950 . S
H358 C364 0.949 . S
C359 H354 0.950 . S
C359 C361 1.327 . S
C359 C365 1.429 . S
C360 C352 1.574 1_545 S
C360 H355 0.949 . S
C360 C366 1.368 . S
C361 C345 1.349 . S
C361 H353 0.950 . S
C361 C359 1.327 . S
C362 C350 1.349 . S
C362 H356 0.950 . S
C362 C363 1.327 . S
C363 H357 0.950 . S
C363 C362 1.327 . S
C363 C367 1.429 . S
C364 C347 1.574 1_565 S
C364 H358 0.949 . S
C364 C368 1.368 . S
C365 C346 1.429 . S
C365 C359 1.429 . S
C365 C366 1.523 . S
C366 C347 1.368 . S
C366 C360 1.368 . S
C366 C365 1.523 . S
C367 C351 1.429 . S
C367 C363 1.429 . S
C367 C368 1.523 . S
C368 C352 1.368 . S
C368 C364 1.368 . S
C368 C367 1.523 . S
H369 C344 0.950 . S
H370 C346 0.950 . S
H371 C347 0.949 . S
H372 C349 0.950 . S
H373 C351 0.950 . S
C374 C375 1.349 . S
C374 C376 1.327 . S
C374 H399 0.950 . S
C375 C374 1.349 . S
C375 C391 1.349 . S
C376 C374 1.327 . S
C376 C395 1.429 . S
C376 H400 0.950 . S
C377 C394 1.574 1_655 S
C377 C396 1.368 . S
C377 H401 0.949 . S
H378 C382 0.949 . S
C379 C380 1.349 . S
C379 C381 1.327 . S
C379 H402 0.950 . S
C380 C379 1.349 . S
C380 C392 1.349 . S
C381 C379 1.327 . S
C381 C397 1.429 . S
C381 H403 0.950 . S
C382 H378 0.949 . S
C382 C390 1.574 1_455 S
C382 C398 1.368 . S
H383 C391 0.950 . S
H384 C389 0.950 . S
H385 C390 0.949 . S
H386 C392 0.950 . S
H387 C393 0.950 . S
H388 C394 0.949 . S
C389 H384 0.950 . S
C389 C391 1.327 . S
C389 C395 1.429 . S
C390 C382 1.574 1_655 S
C390 H385 0.949 . S
C390 C396 1.368 . S
C391 C375 1.349 . S
C391 H383 0.950 . S
C391 C389 1.327 . S
C392 C380 1.349 . S
C392 H386 0.950 . S
C392 C393 1.327 . S
C393 H387 0.950 . S
C393 C392 1.327 . S
C393 C397 1.429 . S
C394 C377 1.574 1_455 S
C394 H388 0.949 . S
C394 C398 1.368 . S
C395 C376 1.429 . S
C395 C389 1.429 . S
C395 C396 1.523 . S
C396 C377 1.368 . S
C396 C390 1.368 . S
C396 C395 1.523 . S
C397 C381 1.429 . S
C397 C393 1.429 . S
C397 C398 1.523 . S
C398 C382 1.368 . S
C398 C394 1.368 . S
C398 C397 1.523 . S
H399 C374 0.950 . S
H400 C376 0.950 . S
H401 C377 0.949 . S
H402 C379 0.950 . S
H403 C381 0.950 . S
C404 C405 1.349 . S
C404 C406 1.327 . S
C404 H429 0.950 . S
C405 C404 1.349 . S
C405 C421 1.349 . S
C406 C404 1.327 . S
C406 C425 1.429 . S
C406 H430 0.950 . S
C407 C424 1.574 1_545 S
C407 C426 1.368 . S
C407 H431 0.949 . S
H408 C412 0.949 . S
C409 C410 1.349 . S
C409 C411 1.327 . S
C409 H432 0.950 . S
C410 C409 1.349 . S
C410 C422 1.349 . S
C411 C409 1.327 . S
C411 C427 1.429 . S
C411 H433 0.950 . S
C412 H408 0.949 . S
C412 C420 1.574 1_565 S
C412 C428 1.368 . S
H413 C421 0.950 . S
H414 C419 0.950 . S
H415 C420 0.949 . S
H416 C422 0.950 . S
H417 C423 0.950 . S
H418 C424 0.949 . S
C419 H414 0.950 . S
C419 C421 1.327 . S
C419 C425 1.429 . S
C420 C412 1.574 1_545 S
C420 H415 0.949 . S
C420 C426 1.368 . S
C421 C405 1.349 . S
C421 H413 0.950 . S
C421 C419 1.327 . S
C422 C410 1.349 . S
C422 H416 0.950 . S
C422 C423 1.327 . S
C423 H417 0.950 . S
C423 C422 1.327 . S
C423 C427 1.429 . S
C424 C407 1.574 1_565 S
C424 H418 0.949 . S
C424 C428 1.368 . S
C425 C406 1.429 . S
C425 C419 1.429 . S
C425 C426 1.523 . S
C426 C407 1.368 . S
C426 C420 1.368 . S
C426 C425 1.523 . S
C427 C411 1.429 . S
C427 C423 1.429 . S
C427 C428 1.523 . S
C428 C412 1.368 . S
C428 C424 1.368 . S
C428 C427 1.523 . S
H429 C404 0.950 . S
H430 C406 0.950 . S
H431 C407 0.949 . S
H432 C409 0.950 . S
H433 C411 0.950 . S
C434 C435 1.349 . S
C434 C436 1.327 . S
C434 H459 0.950 . S
C435 C434 1.349 . S
C435 C451 1.349 . S
C436 C434 1.327 . S
C436 C455 1.429 . S
C436 H460 0.950 . S
C437 C454 1.574 1_455 S
C437 C456 1.368 . S
C437 H461 0.949 . S
H438 C442 0.949 . S
C439 C440 1.349 . S
C439 C441 1.327 . S
C439 H462 0.950 . S
C440 C439 1.349 . S
C440 C452 1.349 . S
C441 C439 1.327 . S
C441 C457 1.429 . S
C441 H463 0.950 . S
C442 H438 0.949 . S
C442 C450 1.574 1_655 S
C442 C458 1.368 . S
H443 C451 0.950 . S
H444 C449 0.950 . S
H445 C450 0.949 . S
H446 C452 0.950 . S
H447 C453 0.950 . S
H448 C454 0.949 . S
C449 H444 0.950 . S
C449 C451 1.327 . S
C449 C455 1.429 . S
C450 C442 1.574 1_455 S
C450 H445 0.949 . S
C450 C456 1.368 . S
C451 C435 1.349 . S
C451 H443 0.950 . S
C451 C449 1.327 . S
C452 C440 1.349 . S
C452 H446 0.950 . S
C452 C453 1.327 . S
C453 H447 0.950 . S
C453 C452 1.327 . S
C453 C457 1.429 . S
C454 C437 1.574 1_655 S
C454 H448 0.949 . S
C454 C458 1.368 . S
C455 C436 1.429 . S
C455 C449 1.429 . S
C455 C456 1.523 . S
C456 C437 1.368 . S
C456 C450 1.368 . S
C456 C455 1.523 . S
C457 C441 1.429 . S
C457 C453 1.429 . S
C457 C458 1.523 . S
C458 C442 1.368 . S
C458 C454 1.368 . S
C458 C457 1.523 . S
H459 C434 0.950 . S
H460 C436 0.950 . S
H461 C437 0.949 . S
H462 C439 0.950 . S
H463 C441 0.950 . S
C464 C465 1.349 1_556 S
C464 C466 1.327 . S
C464 H489 0.950 . S
C465 C464 1.349 1_554 S
C465 C481 1.349 . S
C466 C464 1.327 . S
C466 C485 1.429 1_556 S
C466 H490 0.950 . S
C467 C484 1.574 . S
C467 C486 1.368 . S
C467 H491 0.949 . S
H468 C472 0.949 . S
C469 C470 1.349 . S
C469 C471 1.327 . S
C469 H492 0.950 . S
C470 C469 1.349 . S
C470 C482 1.349 1_554 S
C471 C469 1.327 . S
C471 C487 1.429 . S
C471 H493 0.950 . S
C472 H468 0.949 . S
C472 C480 1.574 . S
C472 C488 1.368 1_556 S
H473 C481 0.950 . S
H474 C479 0.950 . S
H475 C480 0.949 . S
H476 C482 0.950 . S
H477 C483 0.950 . S
H478 C484 0.949 . S
C479 H474 0.950 . S
C479 C481 1.327 . S
C479 C485 1.429 . S
C480 C472 1.574 . S
C480 H475 0.949 . S
C480 C486 1.368 1_556 S
C481 C465 1.349 . S
C481 H473 0.950 . S
C481 C479 1.327 . S
C482 C470 1.349 1_556 S
C482 H476 0.950 . S
C482 C483 1.327 . S
C483 H477 0.950 . S
C483 C482 1.327 . S
C483 C487 1.429 1_556 S
C484 C467 1.574 . S
C484 H478 0.949 . S
C484 C488 1.368 . S
C485 C466 1.429 1_554 S
C485 C479 1.429 . S
C485 C486 1.523 . S
C486 C467 1.368 . S
C486 C480 1.368 1_554 S
C486 C485 1.523 . S
C487 C471 1.429 . S
C487 C483 1.429 1_554 S
C487 C488 1.523 . S
C488 C472 1.368 1_554 S
C488 C484 1.368 . S
C488 C487 1.523 . S
H489 C464 0.950 . S
H490 C466 0.950 . S
H491 C467 0.949 . S
H492 C469 0.950 . S
H493 C471 0.950 . S
C494 C495 1.349 1_556 S
C494 C496 1.327 . S
C494 H519 0.950 . S
C495 C494 1.349 1_554 S
C495 C511 1.349 . S
C496 C494 1.327 . S
C496 C515 1.429 1_556 S
C496 H520 0.950 . S
C497 C514 1.574 . S
C497 C516 1.368 . S
C497 H521 0.949 . S
H498 C502 0.949 . S
C499 C500 1.349 . S
C499 C501 1.327 . S
C499 H522 0.950 . S
C500 C499 1.349 . S
C500 C512 1.349 1_554 S
C501 C499 1.327 . S
C501 C517 1.429 . S
C501 H523 0.950 . S
C502 H498 0.949 . S
C502 C510 1.574 . S
C502 C518 1.368 1_556 S
H503 C511 0.950 . S
H504 C509 0.950 . S
H505 C510 0.949 . S
H506 C512 0.950 . S
H507 C513 0.950 . S
H508 C514 0.949 . S
C509 H504 0.950 . S
C509 C511 1.327 . S
C509 C515 1.429 . S
C510 C502 1.574 . S
C510 H505 0.949 . S
C510 C516 1.368 1_556 S
C511 C495 1.349 . S
C511 H503 0.950 . S
C511 C509 1.327 . S
C512 C500 1.349 1_556 S
C512 H506 0.950 . S
C512 C513 1.327 . S
C513 H507 0.950 . S
C513 C512 1.327 . S
C513 C517 1.429 1_556 S
C514 C497 1.574 . S
C514 H508 0.949 . S
C514 C518 1.368 . S
C515 C496 1.429 1_554 S
C515 C509 1.429 . S
C515 C516 1.523 . S
C516 C497 1.368 . S
C516 C510 1.368 1_554 S
C516 C515 1.523 . S
C517 C501 1.429 . S
C517 C513 1.429 1_554 S
C517 C518 1.523 . S
C518 C502 1.368 1_554 S
C518 C514 1.368 . S
C518 C517 1.523 . S
H519 C494 0.950 . S
H520 C496 0.950 . S
H521 C497 0.949 . S
H522 C499 0.950 . S
H523 C501 0.950 . S
C524 C525 1.349 . S
C524 C526 1.327 . S
C524 H549 0.950 . S
C525 C524 1.349 . S
C525 C541 1.349 1_554 S
C526 C524 1.327 . S
C526 C545 1.429 . S
C526 H550 0.950 . S
C527 C544 1.574 . S
C527 C546 1.368 1_556 S
C527 H551 0.949 . S
H528 C532 0.949 . S
C529 C530 1.349 1_556 S
C529 C531 1.327 . S
C529 H552 0.950 . S
C530 C529 1.349 1_554 S
C530 C542 1.349 . S
C531 C529 1.327 . S
C531 C547 1.429 1_556 S
C531 H553 0.950 . S
C532 H528 0.949 . S
C532 C540 1.574 . S
C532 C548 1.368 . S
H533 C541 0.950 . S
H534 C539 0.950 . S
H535 C540 0.949 . S
H536 C542 0.950 . S
H537 C543 0.950 . S
H538 C544 0.949 . S
C539 H534 0.950 . S
C539 C541 1.327 . S
C539 C545 1.429 1_556 S
C540 C532 1.574 . S
C540 H535 0.949 . S
C540 C546 1.368 . S
C541 C525 1.349 1_556 S
C541 H533 0.950 . S
C541 C539 1.327 . S
C542 C530 1.349 . S
C542 H536 0.950 . S
C542 C543 1.327 . S
C543 H537 0.950 . S
C543 C542 1.327 . S
C543 C547 1.429 . S
C544 C527 1.574 . S
C544 H538 0.949 . S
C544 C548 1.368 1_556 S
C545 C526 1.429 . S
C545 C539 1.429 1_554 S
C545 C546 1.523 . S
C546 C527 1.368 1_554 S
C546 C540 1.368 . S
C546 C545 1.523 . S
C547 C531 1.429 1_554 S
C547 C543 1.429 . S
C547 C548 1.523 . S
C548 C532 1.368 . S
C548 C544 1.368 1_554 S
C548 C547 1.523 . S
H549 C524 0.950 . S
H550 C526 0.950 . S
H551 C527 0.949 . S
H552 C529 0.950 . S
H553 C531 0.950 . S
C554 C555 1.349 1_556 S
C554 C556 1.327 . S
C554 H579 0.950 . S
C555 C554 1.349 1_554 S
C555 C571 1.349 . S
C556 C554 1.327 . S
C556 C575 1.429 1_556 S
C556 H580 0.950 . S
C557 C574 1.574 . S
C557 C576 1.368 . S
C557 H581 0.949 . S
H558 C562 0.949 . S
C559 C560 1.349 . S
C559 C561 1.327 . S
C559 H582 0.950 . S
C560 C559 1.349 . S
C560 C572 1.349 1_554 S
C561 C559 1.327 . S
C561 C577 1.429 . S
C561 H583 0.950 . S
C562 H558 0.949 . S
C562 C570 1.574 . S
C562 C578 1.368 1_556 S
H563 C571 0.950 . S
H564 C569 0.950 . S
H565 C570 0.949 . S
H566 C572 0.950 . S
H567 C573 0.950 . S
H568 C574 0.949 . S
C569 H564 0.950 . S
C569 C571 1.327 . S
C569 C575 1.429 . S
C570 C562 1.574 . S
C570 H565 0.949 . S
C570 C576 1.368 1_556 S
C571 C555 1.349 . S
C571 H563 0.950 . S
C571 C569 1.327 . S
C572 C560 1.349 1_556 S
C572 H566 0.950 . S
C572 C573 1.327 . S
C573 H567 0.950 . S
C573 C572 1.327 . S
C573 C577 1.429 1_556 S
C574 C557 1.574 . S
C574 H568 0.949 . S
C574 C578 1.368 . S
C575 C556 1.429 1_554 S
C575 C569 1.429 . S
C575 C576 1.523 . S
C576 C557 1.368 . S
C576 C570 1.368 1_554 S
C576 C575 1.523 . S
C577 C561 1.429 . S
C577 C573 1.429 1_554 S
C577 C578 1.523 . S
C578 C562 1.368 1_554 S
C578 C574 1.368 . S
C578 C577 1.523 . S
H579 C554 0.950 . S
H580 C556 0.950 . S
H581 C557 0.949 . S
H582 C559 0.950 . S
H583 C561 0.950 . S
C584 C585 1.349 . S
C584 C586 1.327 . S
C584 H609 0.950 . S
C585 C584 1.349 . S
C585 C601 1.349 . S
C586 C584 1.327 . S
C586 C605 1.429 . S
C586 H610 0.950 . S
C587 C604 1.574 . S
C587 C606 1.368 . S
C587 H611 0.949 . S
H588 C592 0.949 . S
C589 C590 1.349 . S
C589 C591 1.327 . S
C589 H612 0.950 . S
C590 C589 1.349 . S
C590 C602 1.349 . S
C591 C589 1.327 . S
C591 C607 1.429 . S
C591 H613 0.950 . S
C592 H588 0.949 . S
C592 C600 1.574 . S
C592 C608 1.368 . S
H593 C601 0.950 . S
H594 C599 0.950 . S
H595 C600 0.949 . S
H596 C602 0.950 . S
H597 C603 0.950 . S
H598 C604 0.949 . S
C599 H594 0.950 . S
C599 C601 1.327 . S
C599 C605 1.429 . S
C600 C592 1.574 . S
C600 H595 0.949 . S
C600 C606 1.368 . S
C601 C585 1.349 . S
C601 H593 0.950 . S
C601 C599 1.327 . S
C602 C590 1.349 . S
C602 H596 0.950 . S
C602 C603 1.327 . S
C603 H597 0.950 . S
C603 C602 1.327 . S
C603 C607 1.429 . S
C604 C587 1.574 . S
C604 H598 0.949 . S
C604 C608 1.368 . S
C605 C586 1.429 . S
C605 C599 1.429 . S
C605 C606 1.523 . S
C606 C587 1.368 . S
C606 C600 1.368 . S
C606 C605 1.523 . S
C607 C591 1.429 . S
C607 C603 1.429 . S
C607 C608 1.523 . S
C608 C592 1.368 . S
C608 C604 1.368 . S
C608 C607 1.523 . S
H609 C584 0.950 . S
H610 C586 0.950 . S
H611 C587 0.949 . S
H612 C589 0.950 . S
H613 C591 0.950 . S
C614 C615 1.349 . S
C614 C616 1.327 . S
C614 H639 0.950 . S
C615 C614 1.349 . S
C615 C631 1.349 . S
C616 C614 1.327 . S
C616 C635 1.429 . S
C616 H640 0.950 . S
C617 C634 1.574 . S
C617 C636 1.368 . S
C617 H641 0.949 . S
H618 C622 0.949 . S
C619 C620 1.349 . S
C619 C621 1.327 . S
C619 H642 0.950 . S
C620 C619 1.349 . S
C620 C632 1.349 . S
C621 C619 1.327 . S
C621 C637 1.429 . S
C621 H643 0.950 . S
C622 H618 0.949 . S
C622 C630 1.574 . S
C622 C638 1.368 . S
H623 C631 0.950 . S
H624 C629 0.950 . S
H625 C630 0.949 . S
H626 C632 0.950 . S
H627 C633 0.950 . S
H628 C634 0.949 . S
C629 H624 0.950 . S
C629 C631 1.327 . S
C629 C635 1.429 . S
C630 C622 1.574 . S
C630 H625 0.949 . S
C630 C636 1.368 . S
C631 C615 1.349 . S
C631 H623 0.950 . S
C631 C629 1.327 . S
C632 C620 1.349 . S
C632 H626 0.950 . S
C632 C633 1.327 . S
C633 H627 0.950 . S
C633 C632 1.327 . S
C633 C637 1.429 . S
C634 C617 1.574 . S
C634 H628 0.949 . S
C634 C638 1.368 . S
C635 C616 1.429 . S
C635 C629 1.429 . S
C635 C636 1.523 . S
C636 C617 1.368 . S
C636 C630 1.368 . S
C636 C635 1.523 . S
C637 C621 1.429 . S
C637 C633 1.429 . S
C637 C638 1.523 . S
C638 C622 1.368 . S
C638 C634 1.368 . S
C638 C637 1.523 . S
H639 C614 0.950 . S
H640 C616 0.950 . S
H641 C617 0.949 . S
H642 C619 0.950 . S
H643 C621 0.950 . S
C644 C645 1.349 . S
C644 C646 1.327 . S
C644 H669 0.950 . S
C645 C644 1.349 . S
C645 C661 1.349 . S
C646 C644 1.327 . S
C646 C665 1.429 . S
C646 H670 0.950 . S
C647 C664 1.574 . S
C647 C666 1.368 . S
C647 H671 0.949 . S
H648 C652 0.949 . S
C649 C650 1.349 . S
C649 C651 1.327 . S
C649 H672 0.950 . S
C650 C649 1.349 . S
C650 C662 1.349 . S
C651 C649 1.327 . S
C651 C667 1.429 . S
C651 H673 0.950 . S
C652 H648 0.949 . S
C652 C660 1.574 . S
C652 C668 1.368 . S
H653 C661 0.950 . S
H654 C659 0.950 . S
H655 C660 0.949 . S
H656 C662 0.950 . S
H657 C663 0.950 . S
H658 C664 0.949 . S
C659 H654 0.950 . S
C659 C661 1.327 . S
C659 C665 1.429 . S
C660 C652 1.574 . S
C660 H655 0.949 . S
C660 C666 1.368 . S
C661 C645 1.349 . S
C661 H653 0.950 . S
C661 C659 1.327 . S
C662 C650 1.349 . S
C662 H656 0.950 . S
C662 C663 1.327 . S
C663 H657 0.950 . S
C663 C662 1.327 . S
C663 C667 1.429 . S
C664 C647 1.574 . S
C664 H658 0.949 . S
C664 C668 1.368 . S
C665 C646 1.429 . S
C665 C659 1.429 . S
C665 C666 1.523 . S
C666 C647 1.368 . S
C666 C660 1.368 . S
C666 C665 1.523 . S
C667 C651 1.429 . S
C667 C663 1.429 . S
C667 C668 1.523 . S
C668 C652 1.368 . S
C668 C664 1.368 . S
C668 C667 1.523 . S
H669 C644 0.950 . S
H670 C646 0.950 . S
H671 C647 0.949 . S
H672 C649 0.950 . S
H673 C651 0.950 . S
C674 C675 1.349 . S
C674 C676 1.327 . S
C674 H699 0.950 . S
C675 C674 1.349 . S
C675 C691 1.349 . S
C676 C674 1.327 . S
C676 C695 1.429 . S
C676 H700 0.950 . S
C677 C694 1.574 . S
C677 C696 1.368 . S
C677 H701 0.949 . S
H678 C682 0.949 . S
C679 C680 1.349 . S
C679 C681 1.327 . S
C679 H702 0.950 . S
C680 C679 1.349 . S
C680 C692 1.349 . S
C681 C679 1.327 . S
C681 C697 1.429 . S
C681 H703 0.950 . S
C682 H678 0.949 . S
C682 C690 1.574 . S
C682 C698 1.368 . S
H683 C691 0.950 . S
H684 C689 0.950 . S
H685 C690 0.949 . S
H686 C692 0.950 . S
H687 C693 0.950 . S
H688 C694 0.949 . S
C689 H684 0.950 . S
C689 C691 1.327 . S
C689 C695 1.429 . S
C690 C682 1.574 . S
C690 H685 0.949 . S
C690 C696 1.368 . S
C691 C675 1.349 . S
C691 H683 0.950 . S
C691 C689 1.327 . S
C692 C680 1.349 . S
C692 H686 0.950 . S
C692 C693 1.327 . S
C693 H687 0.950 . S
C693 C692 1.327 . S
C693 C697 1.429 . S
C694 C677 1.574 . S
C694 H688 0.949 . S
C694 C698 1.368 . S
C695 C676 1.429 . S
C695 C689 1.429 . S
C695 C696 1.523 . S
C696 C677 1.368 . S
C696 C690 1.368 . S
C696 C695 1.523 . S
C697 C681 1.429 . S
C697 C693 1.429 . S
C697 C698 1.523 . S
C698 C682 1.368 . S
C698 C694 1.368 . S
C698 C697 1.523 . S
H699 C674 0.950 . S
H700 C676 0.950 . S
H701 C677 0.949 . S
H702 C679 0.950 . S
H703 C681 0.950 . S
C704 C705 1.349 . S
C704 C706 1.327 . S
C704 H729 0.950 . S
C705 C704 1.349 . S
C705 C721 1.349 . S
C706 C704 1.327 . S
C706 C725 1.429 . S
C706 H730 0.950 . S
C707 C724 1.574 . S
C707 C726 1.368 . S
C707 H731 0.949 . S
H708 C712 0.949 . S
C709 C710 1.349 . S
C709 C711 1.327 . S
C709 H732 0.950 . S
C710 C709 1.349 . S
C710 C722 1.349 . S
C711 C709 1.327 . S
C711 C727 1.429 . S
C711 H733 0.950 . S
C712 H708 0.949 . S
C712 C720 1.574 . S
C712 C728 1.368 . S
H713 C721 0.950 . S
H714 C719 0.950 . S
H715 C720 0.949 . S
H716 C722 0.950 . S
H717 C723 0.950 . S
H718 C724 0.949 . S
C719 H714 0.950 . S
C719 C721 1.327 . S
C719 C725 1.429 . S
C720 C712 1.574 . S
C720 H715 0.949 . S
C720 C726 1.368 . S
C721 C705 1.349 . S
C721 H713 0.950 . S
C721 C719 1.327 . S
C722 C710 1.349 . S
C722 H716 0.950 . S
C722 C723 1.327 . S
C723 H717 0.950 . S
C723 C722 1.327 . S
C723 C727 1.429 . S
C724 C707 1.574 . S
C724 H718 0.949 . S
C724 C728 1.368 . S
C725 C706 1.429 . S
C725 C719 1.429 . S
C725 C726 1.523 . S
C726 C707 1.368 . S
C726 C720 1.368 . S
C726 C725 1.523 . S
C727 C711 1.429 . S
C727 C723 1.429 . S
C727 C728 1.523 . S
C728 C712 1.368 . S
C728 C724 1.368 . S
C728 C727 1.523 . S
H729 C704 0.950 . S
H730 C706 0.950 . S
H731 C707 0.949 . S
H732 C709 0.950 . S
H733 C711 0.950 . S
C734 C735 1.349 . S
C734 C736 1.327 . S
C734 H759 0.950 . S
C735 C734 1.349 . S
C735 C751 1.349 . S
C736 C734 1.327 . S
C736 C755 1.429 . S
C736 H760 0.950 . S
C737 C754 1.574 . S
C737 C756 1.368 . S
C737 H761 0.949 . S
H738 C742 0.949 . S
C739 C740 1.349 . S
C739 C741 1.327 . S
C739 H762 0.950 . S
C740 C739 1.349 . S
C740 C752 1.349 . S
C741 C739 1.327 . S
C741 C757 1.429 . S
C741 H763 0.950 . S
C742 H738 0.949 . S
C742 C750 1.574 . S
C742 C758 1.368 . S
H743 C751 0.950 . S
H744 C749 0.950 . S
H745 C750 0.949 . S
H746 C752 0.950 . S
H747 C753 0.950 . S
H748 C754 0.949 . S
C749 H744 0.950 . S
C749 C751 1.327 . S
C749 C755 1.429 . S
C750 C742 1.574 . S
C750 H745 0.949 . S
C750 C756 1.368 . S
C751 C735 1.349 . S
C751 H743 0.950 . S
C751 C749 1.327 . S
C752 C740 1.349 . S
C752 H746 0.950 . S
C752 C753 1.327 . S
C753 H747 0.950 . S
C753 C752 1.327 . S
C753 C757 1.429 . S
C754 C737 1.574 . S
C754 H748 0.949 . S
C754 C758 1.368 . S
C755 C736 1.429 . S
C755 C749 1.429 . S
C755 C756 1.523 . S
C756 C737 1.368 . S
C756 C750 1.368 . S
C756 C755 1.523 . S
C757 C741 1.429 . S
C757 C753 1.429 . S
C757 C758 1.523 . S
C758 C742 1.368 . S
C758 C754 1.368 . S
C758 C757 1.523 . S
H759 C734 0.950 . S
H760 C736 0.950 . S
H761 C737 0.949 . S
H762 C739 0.950 . S
H763 C741 0.950 . S
C764 C765 1.349 . S
C764 C766 1.327 . S
C764 H789 0.950 . S
C765 C764 1.349 . S
C765 C781 1.349 . S
C766 C764 1.327 . S
C766 C785 1.429 . S
C766 H790 0.950 . S
C767 C784 1.574 . S
C767 C786 1.368 . S
C767 H791 0.949 . S
H768 C772 0.949 . S
C769 C770 1.349 . S
C769 C771 1.327 . S
C769 H792 0.950 . S
C770 C769 1.349 . S
C770 C782 1.349 . S
C771 C769 1.327 . S
C771 C787 1.429 . S
C771 H793 0.950 . S
C772 H768 0.949 . S
C772 C780 1.574 . S
C772 C788 1.368 . S
H773 C781 0.950 . S
H774 C779 0.950 . S
H775 C780 0.949 . S
H776 C782 0.950 . S
H777 C783 0.950 . S
H778 C784 0.949 . S
C779 H774 0.950 . S
C779 C781 1.327 . S
C779 C785 1.429 . S
C780 C772 1.574 . S
C780 H775 0.949 . S
C780 C786 1.368 . S
C781 C765 1.349 . S
C781 H773 0.950 . S
C781 C779 1.327 . S
C782 C770 1.349 . S
C782 H776 0.950 . S
C782 C783 1.327 . S
C783 H777 0.950 . S
C783 C782 1.327 . S
C783 C787 1.429 . S
C784 C767 1.574 . S
C784 H778 0.949 . S
C784 C788 1.368 . S
C785 C766 1.429 . S
C785 C779 1.429 . S
C785 C786 1.523 . S
C786 C767 1.368 . S
C786 C780 1.368 . S
C786 C785 1.523 . S
C787 C771 1.429 . S
C787 C783 1.429 . S
C787 C788 1.523 . S
C788 C772 1.368 . S
C788 C784 1.368 . S
C788 C787 1.523 . S
H789 C764 0.950 . S
H790 C766 0.950 . S
H791 C767 0.949 . S
H792 C769 0.950 . S
H793 C771 0.950 . S
C794 C795 1.349 . S
C794 C796 1.327 . S
C794 H819 0.950 . S
C795 C794 1.349 . S
C795 C811 1.349 . S
C796 C794 1.327 . S
C796 C815 1.429 . S
C796 H820 0.950 . S
C797 C814 1.574 . S
C797 C816 1.368 . S
C797 H821 0.949 . S
H798 C802 0.949 . S
C799 C800 1.349 . S
C799 C801 1.327 . S
C799 H822 0.950 . S
C800 C799 1.349 . S
C800 C812 1.349 . S
C801 C799 1.327 . S
C801 C817 1.429 . S
C801 H823 0.950 . S
C802 H798 0.949 . S
C802 C810 1.574 . S
C802 C818 1.368 . S
H803 C811 0.950 . S
H804 C809 0.950 . S
H805 C810 0.949 . S
H806 C812 0.950 . S
H807 C813 0.950 . S
H808 C814 0.949 . S
C809 H804 0.950 . S
C809 C811 1.327 . S
C809 C815 1.429 . S
C810 C802 1.574 . S
C810 H805 0.949 . S
C810 C816 1.368 . S
C811 C795 1.349 . S
C811 H803 0.950 . S
C811 C809 1.327 . S
C812 C800 1.349 . S
C812 H806 0.950 . S
C812 C813 1.327 . S
C813 H807 0.950 . S
C813 C812 1.327 . S
C813 C817 1.429 . S
C814 C797 1.574 . S
C814 H808 0.949 . S
C814 C818 1.368 . S
C815 C796 1.429 . S
C815 C809 1.429 . S
C815 C816 1.523 . S
C816 C797 1.368 . S
C816 C810 1.368 . S
C816 C815 1.523 . S
C817 C801 1.429 . S
C817 C813 1.429 . S
C817 C818 1.523 . S
C818 C802 1.368 . S
C818 C814 1.368 . S
C818 C817 1.523 . S
H819 C794 0.950 . S
H820 C796 0.950 . S
H821 C797 0.949 . S
H822 C799 0.950 . S
H823 C801 0.950 . S
C824 C825 1.349 . S
C824 C826 1.327 . S
C824 H849 0.950 . S
C825 C824 1.349 . S
C825 C841 1.349 . S
C826 C824 1.327 . S
C826 C845 1.429 . S
C826 H850 0.950 . S
C827 C844 1.574 . S
C827 C846 1.368 . S
C827 H851 0.949 . S
H828 C832 0.949 . S
C829 C830 1.349 . S
C829 C831 1.327 . S
C829 H852 0.950 . S
C830 C829 1.349 . S
C830 C842 1.349 . S
C831 C829 1.327 . S
C831 C847 1.429 . S
C831 H853 0.950 . S
C832 H828 0.949 . S
C832 C840 1.574 . S
C832 C848 1.368 . S
H833 C841 0.950 . S
H834 C839 0.950 . S
H835 C840 0.949 . S
H836 C842 0.950 . S
H837 C843 0.950 . S
H838 C844 0.949 . S
C839 H834 0.950 . S
C839 C841 1.327 . S
C839 C845 1.429 . S
C840 C832 1.574 . S
C840 H835 0.949 . S
C840 C846 1.368 . S
C841 C825 1.349 . S
C841 H833 0.950 . S
C841 C839 1.327 . S
C842 C830 1.349 . S
C842 H836 0.950 . S
C842 C843 1.327 . S
C843 H837 0.950 . S
C843 C842 1.327 . S
C843 C847 1.429 . S
C844 C827 1.574 . S
C844 H838 0.949 . S
C844 C848 1.368 . S
C845 C826 1.429 . S
C845 C839 1.429 . S
C845 C846 1.523 . S
C846 C827 1.368 . S
C846 C840 1.368 . S
C846 C845 1.523 . S
C847 C831 1.429 . S
C847 C843 1.429 . S
C847 C848 1.523 . S
C848 C832 1.368 . S
C848 C844 1.368 . S
C848 C847 1.523 . S
H849 C824 0.950 . S
H850 C826 0.950 . S
H851 C827 0.949 . S
H852 C829 0.950 . S
H853 C831 0.950 . S
C854 C855 1.349 . S
C854 C856 1.327 . S
C854 H879 0.950 . S
C855 C854 1.349 . S
C855 C871 1.349 . S
C856 C854 1.327 . S
C856 C875 1.429 . S
C856 H880 0.950 . S
C857 C874 1.574 . S
C857 C876 1.368 . S
C857 H881 0.949 . S
H858 C862 0.949 . S
C859 C860 1.349 . S
C859 C861 1.327 . S
C859 H882 0.950 . S
C860 C859 1.349 . S
C860 C872 1.349 . S
C861 C859 1.327 . S
C861 C877 1.429 . S
C861 H883 0.950 . S
C862 H858 0.949 . S
C862 C870 1.574 . S
C862 C878 1.368 . S
H863 C871 0.950 . S
H864 C869 0.950 . S
H865 C870 0.949 . S
H866 C872 0.950 . S
H867 C873 0.950 . S
H868 C874 0.949 . S
C869 H864 0.950 . S
C869 C871 1.327 . S
C869 C875 1.429 . S
C870 C862 1.574 . S
C870 H865 0.949 . S
C870 C876 1.368 . S
C871 C855 1.349 . S
C871 H863 0.950 . S
C871 C869 1.327 . S
C872 C860 1.349 . S
C872 H866 0.950 . S
C872 C873 1.327 . S
C873 H867 0.950 . S
C873 C872 1.327 . S
C873 C877 1.429 . S
C874 C857 1.574 . S
C874 H868 0.949 . S
C874 C878 1.368 . S
C875 C856 1.429 . S
C875 C869 1.429 . S
C875 C876 1.523 . S
C876 C857 1.368 . S
C876 C870 1.368 . S
C876 C875 1.523 . S
C877 C861 1.429 . S
C877 C873 1.429 . S
C877 C878 1.523 . S
C878 C862 1.368 . S
C878 C874 1.368 . S
C878 C877 1.523 . S
H879 C854 0.950 . S
H880 C856 0.950 . S
H881 C857 0.949 . S
H882 C859 0.950 . S
H883 C861 0.950 . S
C884 C885 1.349 . S
C884 C886 1.327 . S
C884 H909 0.950 . S
C885 C884 1.349 . S
C885 C901 1.349 . S
C886 C884 1.327 . S
C886 C905 1.429 . S
C886 H910 0.950 . S
C887 C904 1.574 . S
C887 C906 1.368 . S
C887 H911 0.949 . S
H888 C892 0.949 . S
C889 C890 1.349 . S
C889 C891 1.327 . S
C889 H912 0.950 . S
C890 C889 1.349 . S
C890 C902 1.349 . S
C891 C889 1.327 . S
C891 C907 1.429 . S
C891 H913 0.950 . S
C892 H888 0.949 . S
C892 C900 1.574 . S
C892 C908 1.368 . S
H893 C901 0.950 . S
H894 C899 0.950 . S
H895 C900 0.949 . S
H896 C902 0.950 . S
H897 C903 0.950 . S
H898 C904 0.949 . S
C899 H894 0.950 . S
C899 C901 1.327 . S
C899 C905 1.429 . S
C900 C892 1.574 . S
C900 H895 0.949 . S
C900 C906 1.368 . S
C901 C885 1.349 . S
C901 H893 0.950 . S
C901 C899 1.327 . S
C902 C890 1.349 . S
C902 H896 0.950 . S
C902 C903 1.327 . S
C903 H897 0.950 . S
C903 C902 1.327 . S
C903 C907 1.429 . S
C904 C887 1.574 . S
C904 H898 0.949 . S
C904 C908 1.368 . S
C905 C886 1.429 . S
C905 C899 1.429 . S
C905 C906 1.523 . S
C906 C887 1.368 . S
C906 C900 1.368 . S
C906 C905 1.523 . S
C907 C891 1.429 . S
C907 C903 1.429 . S
C907 C908 1.523 . S
C908 C892 1.368 . S
C908 C904 1.368 . S
C908 C907 1.523 . S
H909 C884 0.950 . S
H910 C886 0.950 . S
H911 C887 0.949 . S
H912 C889 0.950 . S
H913 C891 0.950 . S
C914 C915 1.349 . S
C914 C916 1.327 . S
C914 H939 0.950 . S
C915 C914 1.349 . S
C915 C931 1.349 . S
C916 C914 1.327 . S
C916 C935 1.429 . S
C916 H940 0.950 . S
C917 C934 1.574 . S
C917 C936 1.368 . S
C917 H941 0.949 . S
H918 C922 0.949 . S
C919 C920 1.349 . S
C919 C921 1.327 . S
C919 H942 0.950 . S
C920 C919 1.349 . S
C920 C932 1.349 . S
C921 C919 1.327 . S
C921 C937 1.429 . S
C921 H943 0.950 . S
C922 H918 0.949 . S
C922 C930 1.574 . S
C922 C938 1.368 . S
H923 C931 0.950 . S
H924 C929 0.950 . S
H925 C930 0.949 . S
H926 C932 0.950 . S
H927 C933 0.950 . S
H928 C934 0.949 . S
C929 H924 0.950 . S
C929 C931 1.327 . S
C929 C935 1.429 . S
C930 C922 1.574 . S
C930 H925 0.949 . S
C930 C936 1.368 . S
C931 C915 1.349 . S
C931 H923 0.950 . S
C931 C929 1.327 . S
C932 C920 1.349 . S
C932 H926 0.950 . S
C932 C933 1.327 . S
C933 H927 0.950 . S
C933 C932 1.327 . S
C933 C937 1.429 . S
C934 C917 1.574 . S
C934 H928 0.949 . S
C934 C938 1.368 . S
C935 C916 1.429 . S
C935 C929 1.429 . S
C935 C936 1.523 . S
C936 C917 1.368 . S
C936 C930 1.368 . S
C936 C935 1.523 . S
C937 C921 1.429 . S
C937 C933 1.429 . S
C937 C938 1.523 . S
C938 C922 1.368 . S
C938 C934 1.368 . S
C938 C937 1.523 . S
H939 C914 0.950 . S
H940 C916 0.950 . S
H941 C917 0.949 . S
H942 C919 0.950 . S
H943 C921 0.950 . S
C944 C945 1.349 . S
C944 C946 1.327 . S
C944 H969 0.950 . S
C945 C944 1.349 . S
C945 C961 1.349 . S
C946 C944 1.327 . S
C946 C965 1.429 . S
C946 H970 0.950 . S
C947 C964 1.574 . S
C947 C966 1.368 . S
C947 H971 0.949 . S
H948 C952 0.949 . S
C949 C950 1.349 . S
C949 C951 1.327 . S
C949 H972 0.950 . S
C950 C949 1.349 . S
C950 C962 1.349 . S
C951 C949 1.327 . S
C951 C967 1.429 . S
C951 H973 0.950 . S
C952 H948 0.949 . S
C952 C960 1.574 . S
C952 C968 1.368 . S
H953 C961 0.950 . S
H954 C959 0.950 . S
H955 C960 0.949 . S
H956 C962 0.950 . S
H957 C963 0.950 . S
H958 C964 0.949 . S
C959 H954 0.950 . S
C959 C961 1.327 . S
C959 C965 1.429 . S
C960 C952 1.574 . S
C960 H955 0.949 . S
C960 C966 1.368 . S
C961 C945 1.349 . S
C961 H953 0.950 . S
C961 C959 1.327 . S
C962 C950 1.349 . S
C962 H956 0.950 . S
C962 C963 1.327 . S
C963 H957 0.950 . S
C963 C962 1.327 . S
C963 C967 1.429 . S
C964 C947 1.574 . S
C964 H958 0.949 . S
C964 C968 1.368 . S
C965 C946 1.429 . S
C965 C959 1.429 . S
C965 C966 1.523 . S
C966 C947 1.368 . S
C966 C960 1.368 . S
C966 C965 1.523 . S
C967 C951 1.429 . S
C967 C963 1.429 . S
C967 C968 1.523 . S
C968 C952 1.368 . S
C968 C964 1.368 . S
C968 C967 1.523 . S
H969 C944 0.950 . S
H970 C946 0.950 . S
H971 C947 0.949 . S
H972 C949 0.950 . S
H973 C951 0.950 . S
C974 C975 1.349 . S
C974 C976 1.327 . S
C974 H999 0.950 . S
C975 C974 1.349 . S
C975 C991 1.349 . S
C976 C974 1.327 . S
C976 C995 1.429 . S
C976 H1000 0.950 . S
C977 C994 1.574 . S
C977 C996 1.368 . S
C977 H1001 0.949 . S
H978 C982 0.949 . S
C979 C980 1.349 . S
C979 C981 1.327 . S
C979 H1002 0.950 . S
C980 C979 1.349 . S
C980 C992 1.349 . S
C981 C979 1.327 . S
C981 C997 1.429 . S
C981 H1003 0.950 . S
C982 H978 0.949 . S
C982 C990 1.574 . S
C982 C998 1.368 . S
H983 C991 0.950 . S
H984 C989 0.950 . S
H985 C990 0.949 . S
H986 C992 0.950 . S
H987 C993 0.950 . S
H988 C994 0.949 . S
C989 H984 0.950 . S
C989 C991 1.327 . S
C989 C995 1.429 . S
C990 C982 1.574 . S
C990 H985 0.949 . S
C990 C996 1.368 . S
C991 C975 1.349 . S
C991 H983 0.950 . S
C991 C989 1.327 . S
C992 C980 1.349 . S
C992 H986 0.950 . S
C992 C993 1.327 . S
C993 H987 0.950 . S
C993 C992 1.327 . S
C993 C997 1.429 . S
C994 C977 1.574 . S
C994 H988 0.949 . S
C994 C998 1.368 . S
C995 C976 1.429 . S
C995 C989 1.429 . S
C995 C996 1.523 . S
C996 C977 1.368 . S
C996 C990 1.368 . S
C996 C995 1.523 . S
C997 C981 1.429 . S
C997 C993 1.429 . S
C997 C998 1.523 . S
C998 C982 1.368 . S
C998 C994 1.368 . S
C998 C997 1.523 . S
H999 C974 0.950 . S
H1000 C976 0.950 . S
H1001 C977 0.949 . S
H1002 C979 0.950 . S
H1003 C981 0.950 . S
C1004 C1005 1.349 . S
C1004 C1006 1.327 . S
C1004 H1029 0.950 . S
C1005 C1004 1.349 . S
C1005 C1021 1.349 . S
C1006 C1004 1.327 . S
C1006 C1025 1.429 . S
C1006 H1030 0.950 . S
C1007 C1024 1.574 . S
C1007 C1026 1.368 . S
C1007 H1031 0.949 . S
H1008 C1012 0.949 . S
C1009 C1010 1.349 . S
C1009 C1011 1.327 . S
C1009 H1032 0.950 . S
C1010 C1009 1.349 . S
C1010 C1022 1.349 . S
C1011 C1009 1.327 . S
C1011 C1027 1.429 . S
C1011 H1033 0.950 . S
C1012 H1008 0.949 . S
C1012 C1020 1.574 . S
C1012 C1028 1.368 . S
H1013 C1021 0.950 . S
H1014 C1019 0.950 . S
H1015 C1020 0.949 . S
H1016 C1022 0.950 . S
H1017 C1023 0.950 . S
H1018 C1024 0.949 . S
C1019 H1014 0.950 . S
C1019 C1021 1.327 . S
C1019 C1025 1.429 . S
C1020 C1012 1.574 . S
C1020 H1015 0.949 . S
C1020 C1026 1.368 . S
C1021 C1005 1.349 . S
C1021 H1013 0.950 . S
C1021 C1019 1.327 . S
C1022 C1010 1.349 . S
C1022 H1016 0.950 . S
C1022 C1023 1.327 . S
C1023 H1017 0.950 . S
C1023 C1022 1.327 . S
C1023 C1027 1.429 . S
C1024 C1007 1.574 . S
C1024 H1018 0.949 . S
C1024 C1028 1.368 . S
C1025 C1006 1.429 . S
C1025 C1019 1.429 . S
C1025 C1026 1.523 . S
C1026 C1007 1.368 . S
C1026 C1020 1.368 . S
C1026 C1025 1.523 . S
C1027 C1011 1.429 . S
C1027 C1023 1.429 . S
C1027 C1028 1.523 . S
C1028 C1012 1.368 . S
C1028 C1024 1.368 . S
C1028 C1027 1.523 . S
H1029 C1004 0.950 . S
H1030 C1006 0.950 . S
H1031 C1007 0.949 . S
H1032 C1009 0.950 . S
H1033 C1011 0.950 . S
C1034 C1035 1.349 . S
C1034 C1036 1.327 . S
C1034 H1059 0.950 . S
C1035 C1034 1.349 . S
C1035 C1051 1.349 . S
C1036 C1034 1.327 . S
C1036 C1055 1.429 . S
C1036 H1060 0.950 . S
C1037 C1054 1.574 . S
C1037 C1056 1.368 . S
C1037 H1061 0.949 . S
H1038 C1042 0.949 . S
C1039 C1040 1.349 . S
C1039 C1041 1.327 . S
C1039 H1062 0.950 . S
C1040 C1039 1.349 . S
C1040 C1052 1.349 . S
C1041 C1039 1.327 . S
C1041 C1057 1.429 . S
C1041 H1063 0.950 . S
C1042 H1038 0.949 . S
C1042 C1050 1.574 . S
C1042 C1058 1.368 . S
H1043 C1051 0.950 . S
H1044 C1049 0.950 . S
H1045 C1050 0.949 . S
H1046 C1052 0.950 . S
H1047 C1053 0.950 . S
H1048 C1054 0.949 . S
C1049 H1044 0.950 . S
C1049 C1051 1.327 . S
C1049 C1055 1.429 . S
C1050 C1042 1.574 . S
C1050 H1045 0.949 . S
C1050 C1056 1.368 . S
C1051 C1035 1.349 . S
C1051 H1043 0.950 . S
C1051 C1049 1.327 . S
C1052 C1040 1.349 . S
C1052 H1046 0.950 . S
C1052 C1053 1.327 . S
C1053 H1047 0.950 . S
C1053 C1052 1.327 . S
C1053 C1057 1.429 . S
C1054 C1037 1.574 . S
C1054 H1048 0.949 . S
C1054 C1058 1.368 . S
C1055 C1036 1.429 . S
C1055 C1049 1.429 . S
C1055 C1056 1.523 . S
C1056 C1037 1.368 . S
C1056 C1050 1.368 . S
C1056 C1055 1.523 . S
C1057 C1041 1.429 . S
C1057 C1053 1.429 . S
C1057 C1058 1.523 . S
C1058 C1042 1.368 . S
C1058 C1054 1.368 . S
C1058 C1057 1.523 . S
H1059 C1034 0.950 . S
H1060 C1036 0.950 . S
H1061 C1037 0.949 . S
H1062 C1039 0.950 . S
H1063 C1041 0.950 . S
C1064 C1065 1.349 . S
C1064 C1066 1.327 . S
C1064 H1089 0.950 . S
C1065 C1064 1.349 . S
C1065 C1081 1.349 . S
C1066 C1064 1.327 . S
C1066 C1085 1.429 . S
C1066 H1090 0.950 . S
C1067 C1084 1.574 . S
C1067 C1086 1.368 . S
C1067 H1091 0.949 . S
H1068 C1072 0.949 . S
C1069 C1070 1.349 . S
C1069 C1071 1.327 . S
C1069 H1092 0.950 . S
C1070 C1069 1.349 . S
C1070 C1082 1.349 . S
C1071 C1069 1.327 . S
C1071 C1087 1.429 . S
C1071 H1093 0.950 . S
C1072 H1068 0.949 . S
C1072 C1080 1.574 . S
C1072 C1088 1.368 . S
H1073 C1081 0.950 . S
H1074 C1079 0.950 . S
H1075 C1080 0.949 . S
H1076 C1082 0.950 . S
H1077 C1083 0.950 . S
H1078 C1084 0.949 . S
C1079 H1074 0.950 . S
C1079 C1081 1.327 . S
C1079 C1085 1.429 . S
C1080 C1072 1.574 . S
C1080 H1075 0.949 . S
C1080 C1086 1.368 . S
C1081 C1065 1.349 . S
C1081 H1073 0.950 . S
C1081 C1079 1.327 . S
C1082 C1070 1.349 . S
C1082 H1076 0.950 . S
C1082 C1083 1.327 . S
C1083 H1077 0.950 . S
C1083 C1082 1.327 . S
C1083 C1087 1.429 . S
C1084 C1067 1.574 . S
C1084 H1078 0.949 . S
C1084 C1088 1.368 . S
C1085 C1066 1.429 . S
C1085 C1079 1.429 . S
C1085 C1086 1.523 . S
C1086 C1067 1.368 . S
C1086 C1080 1.368 . S
C1086 C1085 1.523 . S
C1087 C1071 1.429 . S
C1087 C1083 1.429 . S
C1087 C1088 1.523 . S
C1088 C1072 1.368 . S
C1088 C1084 1.368 . S
C1088 C1087 1.523 . S
H1089 C1064 0.950 . S
H1090 C1066 0.950 . S
H1091 C1067 0.949 . S
H1092 C1069 0.950 . S
H1093 C1071 0.950 . S
C1094 C1095 1.349 . S
C1094 C1096 1.327 . S
C1094 H1119 0.950 . S
C1095 C1094 1.349 . S
C1095 C1111 1.349 . S
C1096 C1094 1.327 . S
C1096 C1115 1.429 . S
C1096 H1120 0.950 . S
C1097 C1114 1.574 . S
C1097 C1116 1.368 . S
C1097 H1121 0.949 . S
H1098 C1102 0.949 . S
C1099 C1100 1.349 . S
C1099 C1101 1.327 . S
C1099 H1122 0.950 . S
C1100 C1099 1.349 . S
C1100 C1112 1.349 . S
C1101 C1099 1.327 . S
C1101 C1117 1.429 . S
C1101 H1123 0.950 . S
C1102 H1098 0.949 . S
C1102 C1110 1.574 . S
C1102 C1118 1.368 . S
H1103 C1111 0.950 . S
H1104 C1109 0.950 . S
H1105 C1110 0.949 . S
H1106 C1112 0.950 . S
H1107 C1113 0.950 . S
H1108 C1114 0.949 . S
C1109 H1104 0.950 . S
C1109 C1111 1.327 . S
C1109 C1115 1.429 . S
C1110 C1102 1.574 . S
C1110 H1105 0.949 . S
C1110 C1116 1.368 . S
C1111 C1095 1.349 . S
C1111 H1103 0.950 . S
C1111 C1109 1.327 . S
C1112 C1100 1.349 . S
C1112 H1106 0.950 . S
C1112 C1113 1.327 . S
C1113 H1107 0.950 . S
C1113 C1112 1.327 . S
C1113 C1117 1.429 . S
C1114 C1097 1.574 . S
C1114 H1108 0.949 . S
C1114 C1118 1.368 . S
C1115 C1096 1.429 . S
C1115 C1109 1.429 . S
C1115 C1116 1.523 . S
C1116 C1097 1.368 . S
C1116 C1110 1.368 . S
C1116 C1115 1.523 . S
C1117 C1101 1.429 . S
C1117 C1113 1.429 . S
C1117 C1118 1.523 . S
C1118 C1102 1.368 . S
C1118 C1114 1.368 . S
C1118 C1117 1.523 . S
H1119 C1094 0.950 . S
H1120 C1096 0.950 . S
H1121 C1097 0.949 . S
H1122 C1099 0.950 . S
H1123 C1101 0.950 . S
C1124 C1125 1.349 . S
C1124 C1126 1.327 . S
C1124 H1149 0.950 . S
C1125 C1124 1.349 . S
C1125 C1141 1.349 . S
C1126 C1124 1.327 . S
C1126 C1145 1.429 . S
C1126 H1150 0.950 . S
C1127 C1144 1.574 . S
C1127 C1146 1.368 . S
C1127 H1151 0.949 . S
H1128 C1132 0.949 . S
C1129 C1130 1.349 . S
C1129 C1131 1.327 . S
C1129 H1152 0.950 . S
C1130 C1129 1.349 . S
C1130 C1142 1.349 . S
C1131 C1129 1.327 . S
C1131 C1147 1.429 . S
C1131 H1153 0.950 . S
C1132 H1128 0.949 . S
C1132 C1140 1.574 . S
C1132 C1148 1.368 . S
H1133 C1141 0.950 . S
H1134 C1139 0.950 . S
H1135 C1140 0.949 . S
H1136 C1142 0.950 . S
H1137 C1143 0.950 . S
H1138 C1144 0.949 . S
C1139 H1134 0.950 . S
C1139 C1141 1.327 . S
C1139 C1145 1.429 . S
C1140 C1132 1.574 . S
C1140 H1135 0.949 . S
C1140 C1146 1.368 . S
C1141 C1125 1.349 . S
C1141 H1133 0.950 . S
C1141 C1139 1.327 . S
C1142 C1130 1.349 . S
C1142 H1136 0.950 . S
C1142 C1143 1.327 . S
C1143 H1137 0.950 . S
C1143 C1142 1.327 . S
C1143 C1147 1.429 . S
C1144 C1127 1.574 . S
C1144 H1138 0.949 . S
C1144 C1148 1.368 . S
C1145 C1126 1.429 . S
C1145 C1139 1.429 . S
C1145 C1146 1.523 . S
C1146 C1127 1.368 . S
C1146 C1140 1.368 . S
C1146 C1145 1.523 . S
C1147 C1131 1.429 . S
C1147 C1143 1.429 . S
C1147 C1148 1.523 . S
C1148 C1132 1.368 . S
C1148 C1144 1.368 . S
C1148 C1147 1.523 . S
H1149 C1124 0.950 . S
H1150 C1126 0.950 . S
H1151 C1127 0.949 . S
H1152 C1129 0.950 . S
H1153 C1131 0.950 . S
C1154 C1155 1.349 . S
C1154 C1156 1.327 . S
C1154 H1179 0.950 . S
C1155 C1154 1.349 . S
C1155 C1171 1.349 . S
C1156 C1154 1.327 . S
C1156 C1175 1.429 . S
C1156 H1180 0.950 . S
C1157 C1174 1.574 . S
C1157 C1176 1.368 . S
C1157 H1181 0.949 . S
H1158 C1162 0.949 . S
C1159 C1160 1.349 . S
C1159 C1161 1.327 . S
C1159 H1182 0.950 . S
C1160 C1159 1.349 . S
C1160 C1172 1.349 . S
C1161 C1159 1.327 . S
C1161 C1177 1.429 . S
C1161 H1183 0.950 . S
C1162 H1158 0.949 . S
C1162 C1170 1.574 . S
C1162 C1178 1.368 . S
H1163 C1171 0.950 . S
H1164 C1169 0.950 . S
H1165 C1170 0.949 . S
H1166 C1172 0.950 . S
H1167 C1173 0.950 . S
H1168 C1174 0.949 . S
C1169 H1164 0.950 . S
C1169 C1171 1.327 . S
C1169 C1175 1.429 . S
C1170 C1162 1.574 . S
C1170 H1165 0.949 . S
C1170 C1176 1.368 . S
C1171 C1155 1.349 . S
C1171 H1163 0.950 . S
C1171 C1169 1.327 . S
C1172 C1160 1.349 . S
C1172 H1166 0.950 . S
C1172 C1173 1.327 . S
C1173 H1167 0.950 . S
C1173 C1172 1.327 . S
C1173 C1177 1.429 . S
C1174 C1157 1.574 . S
C1174 H1168 0.949 . S
C1174 C1178 1.368 . S
C1175 C1156 1.429 . S
C1175 C1169 1.429 . S
C1175 C1176 1.523 . S
C1176 C1157 1.368 . S
C1176 C1170 1.368 . S
C1176 C1175 1.523 . S
C1177 C1161 1.429 . S
C1177 C1173 1.429 . S
C1177 C1178 1.523 . S
C1178 C1162 1.368 . S
C1178 C1174 1.368 . S
C1178 C1177 1.523 . S
H1179 C1154 0.950 . S
H1180 C1156 0.950 . S
H1181 C1157 0.949 . S
H1182 C1159 0.950 . S
H1183 C1161 0.950 . S
C225 C62 1.544 . S
C230 C6 1.544 . S
C255 C76 1.544 . S
C260 C20 1.544 . S
C285 C90 1.544 . S
C290 C34 1.544 . S
C315 C104 1.544 . S
C320 C48 1.544 . S
C345 C174 1.544 . S
C350 C118 1.544 . S
C375 C188 1.544 . S
C380 C132 1.544 . S
C405 C146 1.544 . S
C410 C202 1.544 . S
C435 C216 1.544 . S
C440 C160 1.544 . S
C465 C9 1.525 . S
C470 C79 1.525 . S
C495 C93 1.525 . S
C500 C23 1.525 . S
C525 C37 1.525 . S
C530 C107 1.525 . S
C555 C65 1.525 . S
C560 C51 1.525 . S
C585 C191 1.525 . S
C590 C121 1.525 . S
C615 C205 1.525 . S
C620 C135 1.525 . S
C645 C149 1.525 . S
C650 C219 1.525 . S
C675 C163 1.525 . S
C680 C177 1.525 . S
C705 C218 2.017 . S
C710 C8 2.017 . S
C735 C176 2.017 . S
C740 C22 2.017 . S
C765 C190 2.017 . S
C770 C36 2.017 . S
C795 C204 2.017 . S
C800 C50 2.017 . S
C825 C134 2.017 . S
C830 C64 2.017 . S
C855 C148 2.017 . S
C860 C78 2.017 . S
C885 C92 2.017 . S
C890 C162 2.017 . S
C915 C106 2.017 . S
C920 C120 2.017 . S
C945 C189 0.916 . S
C950 C35 0.916 . S
C975 C203 0.916 . S
C980 C49 0.916 . S
C1005 C217 0.916 . S
C1010 C7 0.916 . S
C1035 C21 0.916 . S
C1040 C175 0.916 . S
C1065 C161 0.916 . S
C1070 C91 0.916 . S
C1095 C105 0.916 . S
C1100 C119 0.916 . S
C1125 C133 0.916 . S
C1130 C63 0.916 . S
C1155 C147 0.916 . S
C1160 C77 0.916 . S
