# Generated by pormake.
# Topology rkf, (6)-cn, num edge types: 1
# Building blocks:
#     Node 0, Type 0, BuildingBlock: PAMTOO_clean_sbu_0, # of connection points: 6
#     Node 1, Type 0, BuildingBlock: PAMTOO_clean_sbu_0, # of connection points: 6
#     Node 2, Type 0, BuildingBlock: PAMTOO_clean_sbu_0, # of connection points: 6
#     Node 3, Type 0, BuildingBlock: PAMTOO_clean_sbu_0, # of connection points: 6
#     Node 4, Type 0, BuildingBlock: PAMTOO_clean_sbu_0, # of connection points: 6
#     Node 5, Type 0, BuildingBlock: PAMTOO_clean_sbu_0, # of connection points: 6
#     Edge 6, Type (0, 0), BuildingBlock: UVAHIK_clean_linker_0, # of connection points: 2
#     Edge 7, Type (0, 0), BuildingBlock: UVAHIK_clean_linker_0, # of connection points: 2
#     Edge 8, Type (0, 0), BuildingBlock: UVAHIK_clean_linker_0, # of connection points: 2
#     Edge 9, Type (0, 0), BuildingBlock: UVAHIK_clean_linker_0, # of connection points: 2
#     Edge 10, Type (0, 0), BuildingBlock: UVAHIK_clean_linker_0, # of connection points: 2
#     Edge 11, Type (0, 0), BuildingBlock: UVAHIK_clean_linker_0, # of connection points: 2
#     Edge 12, Type (0, 0), BuildingBlock: UVAHIK_clean_linker_0, # of connection points: 2
#     Edge 13, Type (0, 0), BuildingBlock: UVAHIK_clean_linker_0, # of connection points: 2
#     Edge 14, Type (0, 0), BuildingBlock: UVAHIK_clean_linker_0, # of connection points: 2
#     Edge 15, Type (0, 0), BuildingBlock: UVAHIK_clean_linker_0, # of connection points: 2
#     Edge 16, Type (0, 0), BuildingBlock: UVAHIK_clean_linker_0, # of connection points: 2
#     Edge 17, Type (0, 0), BuildingBlock: UVAHIK_clean_linker_0, # of connection points: 2
#     Edge 18, Type (0, 0), BuildingBlock: UVAHIK_clean_linker_0, # of connection points: 2
#     Edge 19, Type (0, 0), BuildingBlock: UVAHIK_clean_linker_0, # of connection points: 2
#     Edge 20, Type (0, 0), BuildingBlock: UVAHIK_clean_linker_0, # of connection points: 2
#     Edge 21, Type (0, 0), BuildingBlock: UVAHIK_clean_linker_0, # of connection points: 2
#     Edge 22, Type (0, 0), BuildingBlock: UVAHIK_clean_linker_0, # of connection points: 2
#     Edge 23, Type (0, 0), BuildingBlock: UVAHIK_clean_linker_0, # of connection points: 2
# Relax obj value: 0.618
# Max RMSD: 0.272
# Mean RMSD: 0.272
data_MOF--net-rkf--node1-PAMTOO_clean_sbu_0--edge1-UVAHIK_clean_linker_0
_symmetry_space_group_name_H-M    P1
_symmetry_Int_Tables_number       1
_symmetry_cell_setting            triclinic
loop_
_symmetry_equiv_pos_as_xyz
'x, y, z'
_cell_length_a     32.758014
_cell_length_b     32.360383
_cell_length_c     57.240408
_cell_angle_alpha  89.946942
_cell_angle_beta   89.907413
_cell_angle_gamma 120.12344
loop_
_atom_site_label
_atom_site_type_symbol
_atom_site_fract_x
_atom_site_fract_y
_atom_site_fract_z
_atom_type_partial_charge
Dy0 Dy 0.19125 0.03941 0.12657 0.0
Dy1 Dy 0.23884 0.15219 0.11037 0.0
C2 C 0.13308 0.07587 0.09889 0.0
O3 O 0.19929 0.03889 1.08708 0.0
O4 O 0.23386 0.11771 1.07539 0.0
O5 O 0.13478 0.97497 0.14179 0.0
O6 O 0.19226 0.97344 0.12352 0.0
O7 O 0.29683 0.13495 0.11183 0.0
O8 O 0.26577 0.07337 0.13804 0.0
O9 O 0.2113 0.14816 0.14717 0.0
O10 O 0.19785 0.07567 0.16118 0.0
O11 O 0.30157 0.22128 0.11317 0.0
O12 O 0.239 0.21472 0.09686 0.0
C13 C 0.21512 0.0718 1.07046 0.0
O14 O 0.13438 0.05528 0.11833 0.0
O15 O 0.1695 0.11632 0.0923 0.0
C16 C 0.15494 0.91704 0.15376 0.0
C17 C 0.14818 0.84852 0.18637 0.0
C18 C 0.14499 0.88839 0.19369 0.0
C19 C 0.14851 0.92241 0.17756 0.0
C20 C 0.15988 0.87839 0.1465 0.0
C21 C 0.15668 0.84449 0.16264 0.0
C22 C 0.15409 0.94953 0.13604 0.0
C23 C 0.3019 0.10731 0.12686 0.0
C24 C 0.20241 0.11812 0.16466 0.0
C25 C 0.3124 0.26984 1.0807 0.0
C26 C 0.35864 0.31812 1.0395 0.0
C27 C 0.35555 0.27445 1.04539 0.0
C28 C 0.33237 0.25037 1.06576 0.0
C29 C 0.31749 0.31446 1.07558 0.0
C30 C 0.34046 0.33849 1.05512 0.0
C31 C 0.28396 0.24242 0.10081 0.0
H32 H 0.13764 0.89232 0.21174 0.0
H33 H 0.1448 0.95206 0.18363 0.0
H34 H 0.16508 0.87378 0.12819 0.0
H35 H 0.15989 0.81462 0.15646 0.0
H36 H 0.36952 0.25805 1.03381 0.0
H37 H 0.32877 0.21584 1.06949 0.0
H38 H 0.30216 0.32986 1.08695 0.0
H39 H 0.34151 0.37165 1.05093 0.0
Dy40 Dy 0.14483 0.32717 0.44354 0.0
Dy41 Dy 0.16795 0.24346 0.45768 0.0
C42 C 0.0729 0.22048 0.43016 0.0
O43 O 0.13755 0.32009 0.48301 0.0
O44 O 0.12418 0.24409 0.48798 0.0
O45 O 0.0984 0.35503 0.4368 0.0
O46 O 0.17353 0.40326 0.43948 0.0
O47 O 0.22595 0.31288 0.47155 0.0
O48 O 0.22194 0.35499 0.44107 0.0
O49 O 0.18826 0.25866 0.41945 0.0
O50 O 0.1523 0.30088 0.40781 0.0
O51 O 0.21917 0.22033 0.45658 0.0
O52 O 0.15049 0.17506 0.47249 0.0
C53 C 0.12247 0.28134 0.49598 0.0
O54 O 0.07668 0.26025 0.438 0.0
O55 O 0.10518 0.20873 0.43442 0.0
C56 C 0.1313 0.42361 0.41336 0.0
C57 C 0.12046 0.4664 0.37283 0.0
C58 C 0.12736 0.42686 0.37124 0.0
C59 C 0.13283 0.40577 0.39132 0.0
C60 C 0.12613 0.46392 0.41514 0.0
C61 C 0.12078 0.48526 0.39501 0.0
C62 C 0.13281 0.39889 0.43446 0.0
C63 C 0.24598 0.35071 0.45811 0.0
C64 C 0.17355 0.27632 0.40275 0.0
C65 C 0.21492 0.16757 0.4859 0.0
C66 C 0.25925 0.14048 0.51978 0.0
C67 C 0.25565 0.12513 0.49652 0.0
C68 C 0.23364 0.13855 0.47977 0.0
C69 C 0.21921 0.18399 0.50893 0.0
C70 C 0.24122 0.17048 0.52578 0.0
C71 C 0.192 0.18066 0.46774 0.0
H72 H 0.12629 0.41064 0.35455 0.0
H73 H 0.13673 0.37456 0.38968 0.0
H74 H 0.12508 0.47817 0.43212 0.0
H75 H 0.11588 0.5158 0.39682 0.0
H76 H 0.26978 0.10264 0.49127 0.0
H77 H 0.23106 0.12607 0.46197 0.0
H78 H 0.20522 0.20679 0.51387 0.0
H79 H 0.24304 0.18249 0.5436 0.0
Dy80 Dy 0.97575 0.28526 0.78964 0.0
Dy81 Dy 0.86478 0.21277 0.77566 0.0
C82 C 0.94263 0.18382 0.77223 0.0
O83 O 0.97829 0.28056 0.75049 0.0
O84 O 0.89956 0.24235 0.7402 0.0
O85 O 0.04882 0.3051 0.78581 0.0
O86 O 0.02931 0.34819 0.80714 0.0
O87 O 0.87273 0.27978 0.79142 0.0
O88 O 0.94581 0.32946 0.77722 0.0
O89 O 0.87089 0.1927 0.81268 0.0
O90 O 0.93851 0.2601 0.82475 0.0
O91 O 0.79968 0.20731 0.76437 0.0
O92 O 0.80138 0.1435 0.77474 0.0
C93 C 0.94501 0.26457 0.73443 0.0
O94 O 0.95759 0.20951 0.79122 0.0
O95 O 0.90596 0.18063 0.76142 0.0
C96 C 0.10165 0.35168 0.81543 0.0
C97 C 0.17668 0.37205 0.84584 0.0
C98 C 0.13001 0.33782 0.85198 0.0
C99 C 0.09268 0.32764 0.83684 0.0
C100 C 0.148 0.38543 0.80916 0.0
C101 C 0.18528 0.39557 0.82422 0.0
C102 C 0.06361 0.34249 0.79922 0.0
C103 C 0.90511 0.32239 0.78458 0.0
C104 C 0.89947 0.21932 0.82951 0.0
C105 C 0.74421 0.1353 0.74713 0.0
C106 C 0.68299 0.09257 0.70914 0.0
C107 C 0.66555 0.09836 0.73059 0.0
C108 C 0.69603 0.11964 0.74943 0.0
C109 C 0.7618 0.12901 0.72595 0.0
C110 C 0.73137 0.10759 0.70712 0.0
C111 C 0.77588 0.16088 0.7665 0.0
H112 H 0.12242 0.31866 0.8684 0.0
H113 H 0.05699 0.30121 0.84182 0.0
H114 H 0.15534 0.40423 0.79263 0.0
H115 H 0.22071 0.42241 0.81912 0.0
H116 H 0.62864 0.08751 0.73264 0.0
H117 H 0.68212 0.12472 0.76569 0.0
H118 H 0.79905 0.14117 0.72393 0.0
H119 H 0.74574 0.1028 0.69097 0.0
Dy120 Dy 0.71873 0.95825 0.11166 0.0
Dy121 Dy 0.80296 0.06642 0.12502 0.0
C122 C 0.82241 0.98965 0.10098 0.0
O123 O 0.72483 0.95735 0.15113 0.0
O124 O 0.79929 0.0218 0.15629 0.0
O125 O 0.69499 0.88695 0.0993 0.0
O126 O 0.64405 0.90604 0.11144 0.0
O127 O 0.735 0.05767 0.13842 0.0
O128 O 0.69097 0.00817 0.10918 0.0
O129 O 0.78573 0.0715 1.08724 0.0
O130 O 0.74532 -0.0074 1.07597 0.0
O131 O 0.82846 0.14166 0.12207 0.0
O132 O 0.87044 0.11692 0.1402 0.0
C133 C 0.76265 0.98218 0.16426 0.0
O134 O 0.78616 0.95819 0.11302 0.0
O135 O 0.83443 0.03484 0.1016 0.0
C136 C 0.62303 0.85298 1.07969 0.0
C137 C 0.58182 0.80874 1.03696 0.0
C138 C 0.61556 0.85784 1.03784 0.0
C139 C 0.63578 0.87973 1.059 0.0
C140 C 0.58741 0.80489 1.07929 0.0
C141 C 0.5667 0.78293 1.05808 0.0
C142 C 0.65045 0.87393 0.10099 0.0
C143 C 0.69727 0.03946 0.12527 0.0
C144 C 0.76831 0.03868 1.07071 0.0
C145 C 0.87738 0.19117 0.15217 0.0
C146 C 0.90233 0.26626 0.18424 0.0
C147 C 0.88644 0.26855 0.16177 0.0
C148 C 0.87432 0.23151 0.1459 0.0
C149 C 0.89285 0.1885 0.17467 0.0
C150 C 0.90525 0.22573 0.19054 0.0
C151 C 0.866 0.15366 0.13457 0.0
H152 H 0.62894 0.87893 1.02205 0.0
H153 H 0.6633 0.91694 1.05903 0.0
H154 H 0.57708 0.78384 0.09519 0.0
H155 H 0.54035 0.74532 1.05812 0.0
H156 H 0.88331 0.29896 0.15644 0.0
H157 H 0.86278 0.23458 0.12857 0.0
H158 H 0.89595 0.15805 0.17996 0.0
H159 H 0.91817 0.2232 0.20758 0.0
Dy160 Dy 0.79487 0.8528 0.45753 0.0
Dy161 Dy 0.82788 0.77559 0.44123 0.0
C162 C 0.88567 0.88323 0.42849 0.0
O163 O 0.78605 0.84973 0.41856 0.0
O164 O 0.79775 0.78785 0.4074 0.0
O165 O 0.80771 0.91238 0.4796 0.0
O166 O 0.75712 0.89032 0.45143 0.0
O167 O 0.7565 0.73129 0.45735 0.0
O168 O 0.72814 0.78343 0.4606 0.0
O169 O 0.85869 0.80379 0.47733 0.0
O170 O 0.80545 0.82384 0.4913 0.0
O171 O 0.81079 0.70504 0.43038 0.0
O172 O 0.88296 0.75744 0.4396 0.0
C173 C 0.78648 0.82106 0.40235 0.0
O174 O 0.87158 0.88592 0.44954 0.0
O175 O 0.87366 0.8409 0.42052 0.0
C176 C 0.73782 0.91616 0.48608 0.0
C177 C 0.66805 0.91188 0.5166 0.0
C178 C 0.71272 0.923 0.52509 0.0
C179 C 0.7472 0.92512 0.51002 0.0
C180 C 0.69355 0.90614 0.47747 0.0
C181 C 0.65896 0.90389 0.49259 0.0
C182 C 0.77349 0.91626 0.47018 0.0
C183 C 0.72222 0.74025 0.46151 0.0
C184 C 0.83937 0.81406 0.49505 0.0
C185 C 0.87231 0.69943 0.41125 0.0
C186 C 0.90764 0.67018 0.37366 0.0
C187 C 0.86126 0.6621 0.37318 0.0
C188 C 0.84378 0.67665 0.39176 0.0
C189 C 0.91809 0.70623 0.41207 0.0
C190 C 0.93568 0.69197 0.39344 0.0
C191 C 0.85464 0.71492 0.43116 0.0
H192 H 0.72135 0.93071 0.54342 0.0
H193 H 0.78112 0.93361 0.51718 0.0
H194 H 0.68539 0.89954 0.45904 0.0
H195 H 0.62497 0.89537 0.48552 0.0
H196 H 0.83853 0.64485 0.35834 0.0
H197 H 0.80807 0.67028 0.39072 0.0
H198 H 0.94055 0.7232 0.42704 0.0
H199 H 0.97177 0.6994 0.39425 0.0
Dy200 Dy 0.08013 0.86194 0.77925 0.0
Dy201 Dy -0.00243 0.88736 0.78884 0.0
C202 C 0.09775 0.96423 0.76722 0.0
O203 O 0.09786 0.90083 0.8142 0.0
O204 O 0.02373 0.88402 0.82472 0.0
O205 O 0.1531 0.88058 0.78168 0.0
O206 O 0.1011 0.8117 0.76772 0.0
O207 O 0.96352 0.80746 0.7884 0.0
O208 O 0.02697 0.80396 0.80177 0.0
O209 O 0.00391 0.8898 0.74988 0.0
O210 O 0.03603 0.84165 0.74564 0.0
O211 O 0.92971 0.878 0.77959 0.0
O212 O 0.96925 0.92501 0.80806 0.0
C213 C 0.06803 0.89922 0.83026 0.0
O214 O 0.10389 0.92947 0.76003 0.0
O215 O 0.06418 0.95693 0.78217 0.0
C216 C 0.17654 0.85232 0.74984 0.0
C217 C 0.23785 0.88997 0.71123 0.0
C218 C 0.18865 0.86651 0.70812 0.0
C219 C 0.1583 0.84812 0.72724 0.0
C220 C 0.22543 0.87285 0.75285 0.0
C221 C 0.25592 0.89168 0.73368 0.0
C222 C 0.14599 0.84255 0.77039 0.0
C223 C -0.01837 0.78346 0.79797 0.0
C224 C 0.01334 0.86235 0.73673 0.0
C225 C 0.88611 0.88114 0.81192 0.0
C226 C 0.80688 0.83933 0.84176 0.0
C227 C 0.81057 0.81293 0.82327 0.0
C228 C 0.84994 0.83356 0.80853 0.0
C229 C 0.88163 0.90791 0.82995 0.0
C230 C 0.8425 0.88716 0.8448 0.0
C231 C 0.9289 0.90313 0.79716 0.0
H232 H 0.17359 0.86534 0.69112 0.0
H233 H 0.12077 0.83311 0.72446 0.0
H234 H 0.24017 0.87672 0.77018 0.0
H235 H 0.29366 0.90941 0.73656 0.0
H236 H 0.78375 0.77591 0.82067 0.0
H237 H 0.85229 0.81194 0.79474 0.0
H238 H 0.90878 0.94473 0.83277 0.0
H239 H 0.8402 0.90848 0.85877 0.0
C240 C 0.82043 0.9241 1.07679 0.0
C241 C 0.84104 0.97304 1.08195 0.0
C242 C 0.83697 0.90889 1.05803 0.0
C243 C 0.93348 0.95844 1.01264 0.0
H244 H 0.97537 0.89361 1.05436 0.0
C245 C 0.0846 0.06554 1.06348 0.0
C246 C 0.10026 0.04582 1.08055 0.0
C247 C 0.05483 0.03679 1.04567 0.0
C248 C 0.96482 0.9114 1.04179 0.0
H249 H 0.89233 0.04445 1.07032 0.0
H250 H 0.92271 0.01849 1.03878 0.0
H251 H 0.89408 0.87069 1.05369 0.0
H252 H 0.10316 0.98268 1.09059 0.0
H253 H 0.05372 0.93335 1.05894 0.0
H254 H 0.00567 0.00243 1.0025 0.0
C255 C 0.89306 0.99134 1.04861 0.0
C256 C 0.91718 0.89772 1.04131 0.0
C257 C 0.87649 0.00644 1.06722 0.0
C258 C 0.0895 -0.00182 1.07828 0.0
C259 C 0.0615 0.97 1.05993 0.0
C260 C 0.98131 0.97212 1.01301 0.0
C261 C 0.87475 0.94228 1.04422 0.0
C262 C 0.90352 0.92756 1.03018 0.0
C263 C 0.04123 0.98789 1.04417 0.0
C264 C -0.00203 0.95437 1.03083 0.0
H265 H 0.79189 0.89744 1.08737 0.0
H266 H 0.82187 0.87092 1.0551 0.0
H267 H 0.92269 0.97927 1.00222 0.0
H268 H 0.09394 0.10271 1.06442 0.0
H269 H 0.04023 0.05255 1.03414 0.0
C270 C 0.88862 0.95938 0.41848 0.0
C271 C 0.89227 0.92006 0.41118 0.0
C272 C 0.88434 0.98882 0.40219 0.0
C273 C 0.9225 0.03605 0.34498 0.0
H274 H 0.88178 0.1143 0.37694 0.0
C275 C 0.04027 0.15744 0.3998 0.0
C276 C 0.03772 0.19376 0.41183 0.0
C277 C 0.01084 0.1347 0.381 0.0
C278 C 0.89257 0.09337 0.36662 0.0
H279 H 0.89623 0.88194 0.38083 0.0
H280 H 0.88996 0.93461 0.35219 0.0
H281 H 0.834 0.02834 0.37907 0.0
H282 H 0.00338 0.23627 0.41279 0.0
H283 H 0.94973 0.19442 0.38028 0.0
H284 H -0.01796 0.10121 0.33349 0.0
C285 C 0.88937 0.94184 0.37062 0.0
C286 C 0.86519 0.04367 0.36807 0.0
C287 C 0.89373 0.91219 0.38705 0.0
C288 C 0.00549 0.20761 0.40418 0.0
C289 C 0.97538 0.18431 0.38531 0.0
C290 C 0.94833 0.08571 0.34243 0.0
C291 C 0.8837 0.98004 0.37803 0.0
C292 C 0.88543 0.01606 0.36132 0.0
C293 C 0.97733 0.14711 0.37362 0.0
C294 C 0.93878 0.11377 0.35782 0.0
H295 H 0.88755 0.96672 0.43686 0.0
H296 H 0.88255 0.01925 0.40874 0.0
H297 H 0.93736 0.01541 0.33793 0.0
H298 H 0.06514 0.14627 0.40485 0.0
H299 H 0.01298 0.10543 0.37314 0.0
C300 C 0.13556 0.01378 0.73184 0.0
C301 C 0.12425 0.01098 0.75572 0.0
C302 C 0.14866 0.05575 0.71934 0.0
C303 C 0.16208 0.17661 0.72591 0.0
H304 H 0.03607 0.11087 0.69983 0.0
C305 C 0.01806 0.18337 0.76983 0.0
C306 C 0.97693 0.17647 0.75881 0.0
C307 C 0.05439 0.18427 0.75685 0.0
C308 C 0.07196 0.13102 0.7062 0.0
H309 H 0.12477 0.05101 0.78605 0.0
H310 H 0.14808 0.12415 0.76459 0.0
H311 H 0.08444 0.07432 0.69771 0.0
H312 H 0.94167 0.16523 0.72535 0.0
H313 H 0.00517 0.16564 0.70264 0.0
H314 H 0.14721 0.23095 0.73667 0.0
C315 C 0.14668 0.09438 0.75523 0.0
C316 C 0.10009 0.11004 0.70487 0.0
C317 C 0.13253 0.05223 0.76756 0.0
C318 C 0.97268 0.16989 0.73443 0.0
C319 C 0.00928 0.17089 0.72136 0.0
C320 C 0.13418 0.19794 0.727 0.0
C321 C 0.15128 0.09543 0.73072 0.0
C322 C 0.1423 0.12955 0.7177 0.0
C323 C 0.05067 0.17835 0.73244 0.0
C324 C 0.08675 0.17211 0.71985 0.0
H325 H 0.12976 0.98231 0.72237 0.0
H326 H 0.1519 0.05559 0.70051 0.0
H327 H 0.19536 0.19317 0.73519 0.0
H328 H 0.02254 0.18873 0.78854 0.0
H329 H 0.08493 0.18824 0.76614 0.0
C330 C 0.35749 0.30853 0.99626 0.0
C331 C 0.37405 0.33874 1.0158 0.0
C332 C 0.36159 0.32744 0.97396 0.0
C333 C 0.37014 0.37248 0.9272 0.0
H334 H 0.32024 0.45825 0.93257 0.0
C335 C 0.2592 0.38937 0.85376 0.0
C336 C 0.21619 0.38365 0.86204 0.0
C337 C 0.29576 0.39877 0.86928 0.0
C338 C 0.33453 0.43463 0.93069 0.0
H339 H 0.41321 0.41261 1.02699 0.0
H340 H 0.42059 0.44587 0.98783 0.0
H341 H 0.35941 0.44687 0.96577 0.0
H342 H 0.17852 0.3853 0.89286 0.0
H343 H 0.24143 0.40028 0.91994 0.0
H344 H 0.34084 0.35672 0.89282 0.0
C345 C 0.40346 0.40746 0.98987 0.0
C346 C 0.35772 0.42861 0.94964 0.0
C347 C 0.39917 0.38845 1.01228 0.0
C348 C 0.21097 0.38884 0.88601 0.0
C349 C 0.24742 0.39828 0.90147 0.0
C350 C 0.34647 0.37816 0.90829 0.0
C351 C 0.38239 0.37704 0.97064 0.0
C352 C 0.37318 0.3952 0.9486 0.0
C353 C 0.29006 0.40288 0.89334 0.0
C354 C 0.32597 0.40712 0.91041 0.0
H355 H 0.33762 0.27007 0.99831 0.0
H356 H 0.34443 0.30273 0.95971 0.0
H357 H 0.38272 0.34739 0.92564 0.0
H358 H 0.26414 0.38535 0.83536 0.0
H359 H 0.3282 0.40217 0.86251 0.0
C360 C 0.12776 0.48347 0.32989 0.0
C361 C 0.10774 0.48372 0.35155 0.0
C362 C 0.10677 0.48593 0.30917 0.0
C363 C -0.01439 0.44563 0.29124 0.0
H364 H 0.04395 0.45874 0.23071 0.0
C365 C 0.90717 0.29762 0.22474 0.0
C366 C 0.91728 0.30656 0.20083 0.0
C367 C 0.92516 0.33515 0.2407 0.0
C368 C 0.02663 0.45565 0.24727 0.0
H369 H 0.05435 0.49429 0.3685 0.0
H370 H 0.01924 0.50108 0.33238 0.0
H371 H 0.09155 0.50681 0.26318 0.0
H372 H 0.95223 0.36239 0.17476 0.0
H373 H -0.01738 0.42811 0.20262 0.0
H374 H 0.9208 0.39429 0.27538 0.0
C375 C 0.04983 0.49666 0.33133 0.0
C376 C 0.05419 0.48288 0.26604 0.0
C377 C 0.07039 0.49335 0.3521 0.0
C378 C 0.94364 0.35422 0.19308 0.0
C379 C 0.96142 0.39192 0.20907 0.0
C380 C 0.95793 0.41919 0.27239 0.0
C381 C 0.06564 0.48946 0.30966 0.0
C382 C 0.03474 0.47543 0.28864 0.0
C383 C 0.95341 0.38275 0.23314 0.0
C384 C 0.97881 0.42123 0.25065 0.0
H385 H 0.15754 0.47768 0.32888 0.0
H386 H 0.12044 0.48045 0.29297 0.0
H387 H 0.96888 0.43891 0.30822 0.0
H388 H 0.88624 0.26142 0.23125 0.0
H389 H 0.91875 0.32643 0.2591 0.0
C390 C 0.66698 0.09 0.66639 0.0
C391 C 0.65121 0.07124 0.68882 0.0
C392 C 0.63979 0.06705 0.64685 0.0
C393 C 0.55463 0.94569 0.62892 0.0
H394 H 0.58446 0.0123 0.5696 0.0
C395 C 0.62744 0.89141 0.55537 0.0
C396 C 0.63214 0.91056 0.53288 0.0
C397 C 0.60117 0.89853 0.57237 0.0
C398 C 0.57408 -0.00767 0.58581 0.0
H399 H 0.59273 0.01575 0.70856 0.0
H400 H 0.54452 0.97605 0.67434 0.0
H401 H 0.58998 0.0551 0.60509 0.0
H402 H 0.6081 0.947 0.50969 0.0
H403 H 0.56068 0.95803 0.5392 0.0
H404 H 0.53887 0.88293 0.60965 0.0
C405 C 0.57846 0.00804 0.67183 0.0
C406 C 0.57805 0.01731 0.60632 0.0
C407 C 0.60597 0.03095 0.69145 0.0
C408 C 0.60562 0.93227 0.52698 0.0
C409 C 0.57872 0.93894 0.54397 0.0
C410 C 0.54936 0.92036 0.60834 0.0
C411 C 0.59577 0.02489 0.64922 0.0
C412 C 0.57282 -0.00464 0.62818 0.0
C413 C 0.57839 0.92457 0.56723 0.0
C414 C 0.56355 0.94451 0.58679 0.0
H415 H 0.70116 0.12168 0.66382 0.0
H416 H 0.65492 0.08097 0.62983 0.0
H417 H 0.54922 0.9271 0.64537 0.0
H418 H 0.64632 0.8732 0.56025 0.0
H419 H 0.60225 0.88692 0.58997 0.0
C420 C 0.56619 0.73954 1.01124 0.0
C421 C 0.56872 0.78398 1.01395 0.0
C422 C 0.56856 0.72304 0.98903 0.0
C423 C 0.58675 0.75839 0.9254 0.0
H424 H 0.68755 0.72947 0.93201 0.0
C425 C 0.72033 0.78889 0.85098 0.0
C426 C 0.76728 0.81658 0.8586 0.0
C427 C 0.68327 0.76862 0.8672 0.0
C428 C 0.65911 0.73705 0.92979 0.0
H429 H 0.56732 0.84159 0.99525 0.0
H430 H 0.57472 0.81478 0.95685 0.0
H431 H 0.63793 0.71988 0.96522 0.0
H432 H 0.81247 0.8434 0.889 0.0
H433 H 0.74825 0.80857 0.91717 0.0
H434 H 0.61152 0.77976 0.89033 0.0
C435 C 0.57063 0.7922 0.97167 0.0
C436 C 0.62999 0.7309 0.9488 0.0
C437 C 0.5672 0.80815 0.99384 0.0
C438 C 0.7766 0.8227 0.88264 0.0
C439 C 0.73982 0.80218 0.89876 0.0
C440 C 0.61628 0.76489 0.90636 0.0
C441 C 0.57466 0.75114 0.96913 0.0
C442 C 0.59503 0.74395 0.94726 0.0
C443 C 0.69276 0.77511 0.89126 0.0
C444 C 0.65431 0.75672 0.90884 0.0
H445 H 0.56681 0.71946 1.02623 0.0
H446 H 0.56975 0.69028 0.98766 0.0
H447 H 0.55946 0.76768 0.9234 0.0
H448 H 0.71226 0.78377 0.8325 0.0
H449 H 0.6473 0.748 0.86097 0.0
C450 C 0.96001 0.6429 0.35525 0.0
C451 C 0.92811 0.65977 0.35288 0.0
C452 C -0.01579 0.63983 0.33577 0.0
C453 C 0.05776 0.68349 0.29707 0.0
H454 H 0.00662 0.66963 0.23475 0.0
C455 C 0.1518 0.81977 0.2266 0.0
C456 C 0.13797 0.80938 0.20314 0.0
C457 C 0.13321 0.78371 0.24344 0.0
C458 C 0.02191 0.67257 0.25184 0.0
H459 H 0.89511 0.6845 0.328 0.0
H460 H 0.93691 0.67933 0.29437 0.0
H461 H 0.95357 0.63276 0.26746 0.0
H462 H 0.09808 0.75189 0.17857 0.0
H463 H 0.06727 0.68879 0.2078 0.0
H464 H 0.1261 0.7244 0.28151 0.0
C465 C 0.94284 0.66754 0.31108 0.0
C466 C -0.00877 0.65181 0.2707 0.0
C467 C 0.91884 0.67069 0.33047 0.0
C468 C 0.10936 0.76133 0.19651 0.0
C469 C 0.09122 0.7251 0.21334 0.0
C470 C 0.08855 0.70371 0.27814 0.0
C471 C 0.97683 0.65344 0.31356 0.0
C472 C 0.00867 0.66013 0.29364 0.0
C473 C 0.10074 0.73622 0.23717 0.0
C474 C 0.07079 0.70151 0.25553 0.0
H475 H 0.96727 0.63338 0.37226 0.0
H476 H 0.00984 0.6284 0.33821 0.0
H477 H 0.07249 0.69019 0.3145 0.0
H478 H 0.17485 0.85625 0.2322 0.0
H479 H 0.14148 0.79402 0.26156 0.0
C480 C 0.25966 0.90042 0.6688 0.0
C481 C 0.2693 0.9183 0.6917 0.0
C482 C 0.28084 0.93098 0.6498 0.0
C483 C 0.33274 0.00294 0.61122 0.0
H484 H 0.30995 0.10852 0.61988 0.0
C485 C 0.26776 0.07498 0.53807 0.0
C486 C 0.27952 0.12313 0.53786 0.0
C487 C 0.28385 0.05738 0.55588 0.0
C488 C 0.31783 0.08014 0.61716 0.0
H489 H 0.31227 0.98115 0.71275 0.0
H490 H 0.34975 0.03432 0.67958 0.0
H491 H 0.31041 0.06325 0.6535 0.0
H492 H 0.31939 0.19118 0.55553 0.0
H493 H 0.34754 0.16032 0.58681 0.0
H494 H 0.33775 0.01859 0.57463 0.0
C495 C 0.3253 -0.00316 0.67631 0.0
C496 C 0.31815 0.0541 0.63651 0.0
C497 C 0.30413 0.96625 0.69531 0.0
C498 C 0.30914 0.15373 0.55544 0.0
C499 C 0.32537 0.13609 0.57329 0.0
C500 C 0.33259 0.02915 0.59183 0.0
C501 C 0.31204 0.98002 0.65337 0.0
C502 C 0.3236 0.01397 0.63366 0.0
C503 C 0.31217 0.08749 0.57393 0.0
C504 C 0.32304 0.06671 0.59451 0.0
H505 H 0.23341 0.86346 0.66552 0.0
H506 H 0.26969 0.91684 0.63237 0.0
H507 H 0.33774 0.97265 0.60854 0.0
H508 H 0.24445 0.05029 0.52498 0.0
H509 H 0.27211 0.01957 0.55606 0.0
C510 C 0.35462 0.08114 0.14516 0.0
C511 C 0.34903 0.1125 0.13026 0.0
C512 C 0.39823 0.08353 0.14703 0.0
C513 C 0.50513 0.11977 0.11269 0.0
H514 H 0.54908 0.08986 0.16966 0.0
C515 C 0.62507 0.03923 0.11148 0.0
C516 C 0.66241 0.05552 0.12752 0.0
C517 C 0.59211 0.05427 0.11303 0.0
C518 C 0.53767 0.09896 0.15369 0.0
H519 H 0.38553 0.17252 0.10649 0.0
H520 H 0.46175 0.17678 0.10988 0.0
H521 H 0.48231 0.10376 0.17118 0.0
H522 H 0.69435 0.10037 0.15787 0.0
H523 H 0.63601 0.12652 0.16068 0.0
H524 H 0.55985 0.11422 0.09515 0.0
C525 C 0.43216 0.14991 0.11985 0.0
C526 C 0.4992 0.10645 0.15451 0.0
C527 C 0.3885 0.14753 0.11796 0.0
C528 C 0.66594 0.08717 0.14526 0.0
C529 C 0.63257 0.10205 0.1469 0.0
C530 C 0.54343 0.11221 0.11188 0.0
C531 C 0.43728 0.11735 0.13407 0.0
C532 C 0.48181 0.11579 0.13392 0.0
C533 C 0.59549 0.08589 0.13069 0.0
C534 C 0.55929 0.10045 0.13225 0.0
H535 H 0.32501 0.05379 0.15494 0.0
H536 H 0.40078 0.05751 0.1579 0.0
H537 H 0.49246 0.12651 0.09648 0.0
H538 H 0.62115 0.01477 0.0976 0.0
H539 H 0.56344 0.04047 0.10054 0.0
C540 C 0.31709 0.42613 0.44526 0.0
C541 C 0.29552 0.38891 0.46168 0.0
C542 C 0.36313 0.46339 0.44854 0.0
C543 C 0.47399 0.49821 0.47986 0.0
H544 H 0.50204 0.62497 0.46102 0.0
C545 C 0.66363 0.65244 0.46236 0.0
C546 C 0.67452 0.69963 0.46676 0.0
C547 C 0.61764 0.61437 0.46541 0.0
C548 C 0.4949 0.59006 0.46676 0.0
H549 H 0.30574 0.36131 0.49432 0.0
H550 H 0.38657 0.42722 0.50024 0.0
H551 H 0.42128 0.55926 0.45982 0.0
H552 H 0.64608 0.74353 0.47902 0.0
H553 H 0.56622 0.67711 0.4849 0.0
H554 H 0.54779 0.52939 0.48708 0.0
C555 C 0.36772 0.42713 0.4847 0.0
C556 C 0.44854 0.55213 0.46573 0.0
C557 C 0.32141 0.38949 0.48136 0.0
C558 C 0.6388 0.70768 0.47519 0.0
C559 C 0.59291 0.66956 0.47846 0.0
C560 C 0.5205 0.53633 0.48102 0.0
C561 C 0.38889 0.46477 0.46841 0.0
C562 C 0.43763 0.50555 0.47176 0.0
C563 C 0.58149 0.62251 0.47314 0.0
C564 C 0.53165 0.5826 0.47408 0.0
H565 H 0.29843 0.42666 0.42976 0.0
H566 H 0.37865 0.49107 0.43532 0.0
H567 H 0.46684 0.46277 0.48458 0.0
H568 H 0.69025 0.64493 0.45578 0.0
H569 H 0.61014 0.57878 0.46083 0.0
C570 C 0.86086 0.36151 0.79999 0.0
C571 C 0.89686 0.36327 0.78586 0.0
C572 C 0.85538 0.40162 0.80204 0.0
C573 C 0.88514 0.5156 0.77339 0.0
H574 H 0.88964 0.56345 0.83598 0.0
C575 C 0.91268 0.70345 0.7878 0.0
C576 C 0.9527 0.73132 0.80161 0.0
C577 C 0.8914 0.65356 0.78786 0.0
C578 C 0.88772 0.55022 0.8184 0.0
H579 H 0.95416 0.4077 0.76218 0.0
H580 H 0.94423 0.47709 0.76555 0.0
H581 H 0.87994 0.48399 0.83062 0.0
H582 H -0.00074 0.72894 0.82776 0.0
H583 H 0.96195 0.64228 0.82809 0.0
H584 H 0.89526 0.58257 0.76113 0.0
C585 C 0.9203 0.44491 0.77506 0.0
C586 C 0.8819 0.50468 0.81534 0.0
C587 C 0.92623 0.40526 0.7733 0.0
C588 C 0.96864 0.70837 0.81683 0.0
C589 C 0.94703 0.65865 0.81713 0.0
C590 C 0.89049 0.56088 0.77644 0.0
C591 C 0.88521 0.44375 0.78964 0.0
C592 C 0.8823 0.48769 0.79281 0.0
C593 C 0.90933 0.63079 0.80202 0.0
C594 C 0.89353 0.57936 0.79898 0.0
H595 H 0.83773 0.32963 0.80989 0.0
H596 H 0.82804 0.39981 0.81339 0.0
H597 H 0.88512 0.50315 0.75582 0.0
H598 H 0.89968 0.72019 0.77587 0.0
H599 H 0.86217 0.63291 0.77615 0.0
C600 C 0.20806 0.18066 0.1935 0.0
C601 C 0.19761 0.13344 0.18906 0.0
C602 C 0.20461 0.19578 0.21616 0.0
C603 C 0.19499 0.16098 0.28016 0.0
H604 H 0.16677 0.26296 0.28789 0.0
C605 C 0.2078 0.24577 0.37196 0.0
C606 C 0.17805 0.2641 0.3777 0.0
C607 C 0.20969 0.23052 0.34912 0.0
C608 C 0.17425 0.2341 0.28631 0.0
H609 H 0.17465 0.06514 0.20578 0.0
H610 H 0.16748 0.09082 0.24496 0.0
H611 H 0.16881 0.23409 0.24896 0.0
H612 H 0.12649 0.28007 0.36321 0.0
H613 H 0.12896 0.25284 0.32364 0.0
H614 H 0.19871 0.15974 0.31752 0.0
C615 C 0.17946 0.11686 0.23098 0.0
C616 C 0.17618 0.2178 0.26365 0.0
C617 C 0.18325 0.10181 0.20827 0.0
C618 C 0.15043 0.26693 0.35958 0.0
C619 C 0.15196 0.25119 0.33669 0.0
C620 C 0.19279 0.17707 0.30281 0.0
C621 C 0.19019 0.1643 0.23548 0.0
C622 C 0.18691 0.18105 0.26 0.0
C623 C 0.18143 0.23227 0.33096 0.0
C624 C 0.18271 0.21428 0.30645 0.0
H625 H 0.21959 0.20651 0.17942 0.0
H626 H 0.21424 0.23275 0.21849 0.0
H627 H 0.20387 0.1331 0.27857 0.0
H628 H 0.2298 0.24294 0.38523 0.0
H629 H 0.23381 0.21752 0.34578 0.0
C630 C 0.08494 0.23826 0.53427 0.0
C631 C 0.10333 0.27978 0.52029 0.0
C632 C 0.06655 0.23665 0.55682 0.0
C633 C 0.06711 0.31567 0.60542 0.0
H634 H 0.96007 0.19894 0.62869 0.0
C635 C 0.00874 0.29481 0.70323 0.0
C636 C 0.96038 0.26833 0.70916 0.0
C637 C 0.02455 0.29628 0.68018 0.0
C638 C -0.01024 0.23208 0.62253 0.0
H639 H 0.11623 0.35234 0.51977 0.0
H640 H 0.08442 0.34961 0.5587 0.0
H641 H -0.00991 0.20128 0.58929 0.0
H642 H 0.89095 0.22212 0.69468 0.0
H643 H 0.91838 0.22492 0.65445 0.0
H644 H 0.06661 0.34665 0.63848 0.0
C645 C 0.08453 0.31814 0.55239 0.0
C646 C 0.00751 0.23328 0.59984 0.0
C647 C 0.1027 0.31967 0.52981 0.0
C648 C 0.92836 0.24336 0.69098 0.0
C649 C 0.94429 0.2446 0.66782 0.0
C650 C 0.04958 0.31439 0.62811 0.0
C651 C 0.06599 0.27659 0.5664 0.0
C652 C 0.04662 0.27512 0.59079 0.0
C653 C -0.00721 0.27112 0.66195 0.0
C654 C 0.0106 0.27255 0.63721 0.0
H655 H 0.08466 0.20668 0.5278 0.0
H656 H 0.05338 0.20408 0.5669 0.0
H657 H 0.09744 0.34857 0.59951 0.0
H658 H 0.03492 0.31426 0.71653 0.0
H659 H 0.06214 0.31649 0.67682 0.0
C660 C 0.91909 0.22233 0.87302 0.0
C661 C 0.88683 0.20168 0.85446 0.0
C662 C 0.90678 0.20448 0.89611 0.0
C663 C 0.8141 0.09751 0.9308 0.0
H664 H 0.87143 0.18183 0.98351 0.0
C665 C 0.77571 0.02466 1.02734 0.0
C666 C 0.77832 0.05519 1.04555 0.0
C667 C 0.78897 0.0418 1.00421 0.0
C668 C 0.85432 0.15749 0.96915 0.0
H669 H 0.8155 0.14601 0.84635 0.0
H670 H 0.79379 0.11636 0.88602 0.0
H671 H 0.89329 0.21302 0.94409 0.0
H672 H 0.79624 0.12802 1.05302 0.0
H673 H 0.81723 0.15712 1.01318 0.0
H674 H 0.77373 0.04243 0.95583 0.0
C675 C 0.8293 0.14544 0.88294 0.0
C676 C 0.86768 0.17549 0.94621 0.0
C677 C 0.84174 0.16292 0.85992 0.0
C678 C 0.7938 0.10317 1.03967 0.0
C679 C 0.80648 0.12014 1.01659 0.0
C680 C 0.80044 0.07961 0.95373 0.0
C681 C 0.86154 0.16552 0.90161 0.0
C682 C 0.84779 0.14599 0.92645 0.0
C683 C 0.80496 0.09009 0.99831 0.0
C684 C 0.82008 0.10918 0.97349 0.0
H685 H 0.95424 0.25198 0.8697 0.0
H686 H 0.93331 0.22099 0.90956 0.0
H687 H 0.79818 0.0728 0.91645 0.0
H688 H 0.76464 0.98767 1.03105 0.0
H689 H 0.78767 0.01713 0.99109 0.0
C690 C 0.72831 0.92019 0.19712 0.0
C691 C 0.76443 0.96467 0.18865 0.0
C692 C 0.73063 0.90349 0.21965 0.0
C693 C 0.79114 0.94474 0.27812 0.0
H694 H 0.742 0.80969 0.28919 0.0
C695 C 0.76954 0.86873 0.37262 0.0
C696 C 0.77981 0.83199 0.3773 0.0
C697 C 0.76793 0.88351 0.34967 0.0
C698 C 0.75624 0.84761 0.2865 0.0
H699 H 0.83156 0.02615 0.19807 0.0
H700 H 0.83556 -0.0026 0.23696 0.0
H701 H 0.73918 0.83799 0.2499 0.0
H702 H 0.79576 0.78181 0.36048 0.0
H703 H 0.79202 0.80692 0.32035 0.0
H704 H 0.8086 0.95451 0.31461 0.0
C705 C 0.805 0.97529 0.22628 0.0
C706 C 0.75411 0.86395 0.26384 0.0
C707 C 0.80282 0.99184 0.20372 0.0
C708 C 0.78727 0.80979 0.35785 0.0
C709 C 0.78519 0.82438 0.3347 0.0
C710 C 0.79294 0.9284 0.30077 0.0
C711 C 0.76902 0.93068 0.23476 0.0
C712 C 0.77145 0.9129 0.25914 0.0
C713 C 0.7761 0.86205 0.33017 0.0
C714 C 0.77533 0.87944 0.30551 0.0
H715 H 0.69808 0.89793 0.18626 0.0
H716 H 0.70174 0.86932 0.22532 0.0
H717 H 0.80461 0.98259 0.27563 0.0
H718 H 0.76365 0.88721 0.38683 0.0
H719 H 0.76007 0.91197 0.34727 0.0
C720 C 0.8423 0.83448 0.53826 0.0
C721 C 0.85763 0.81692 0.51968 0.0
C722 C 0.86012 0.83858 0.56111 0.0
C723 C 0.92371 0.7964 0.60089 0.0
H724 H 0.94588 0.90568 0.63798 0.0
C725 C 0.01067 0.83237 0.69477 0.0
C726 C -0.00275 0.8554 0.71148 0.0
C727 C -0.00482 0.8272 0.67125 0.0
C728 C 0.93933 0.87432 0.62822 0.0
H729 H 0.90411 0.78942 0.51134 0.0
H730 H 0.9348 0.79622 0.55101 0.0
H731 H 0.91571 0.89704 0.59848 0.0
H732 H 0.95565 0.89004 0.71589 0.0
H733 H 0.92829 0.88017 0.67597 0.0
H734 H 0.94686 0.77338 0.6308 0.0
C735 C 0.90871 0.80678 0.54793 0.0
C736 C 0.92192 0.86943 0.60526 0.0
C737 C 0.89117 0.80308 0.52498 0.0
C738 C 0.96749 0.87251 0.70379 0.0
C739 C 0.95188 0.86712 0.68051 0.0
C740 C 0.94085 0.80109 0.62401 0.0
C741 C 0.89383 0.82496 0.56646 0.0
C742 C 0.91343 0.83026 0.5911 0.0
C743 C 0.96554 0.84472 0.66356 0.0
C744 C 0.94872 0.84002 0.6383 0.0
H745 H 0.81659 0.84557 0.53516 0.0
H746 H 0.84695 0.8521 0.5747 0.0
H747 H 0.91747 0.76542 0.59086 0.0
H748 H 0.03356 0.81872 0.69979 0.0
H749 H 0.00719 0.81008 0.65902 0.0
C750 C 0.05543 0.9228 0.87092 0.0
C751 C 0.08452 0.91612 0.85497 0.0
C752 C 0.07084 0.9399 0.89376 0.0
C753 C 0.15867 0.95414 0.93977 0.0
H754 H 0.12708 0.04417 0.96706 0.0
C755 C 0.18934 0.00748 1.03914 0.0
C756 C 0.20553 0.05551 1.04524 0.0
C757 C 0.17629 0.99113 1.01598 0.0
C758 C 0.13656 0.01924 0.95978 0.0
H759 H 0.1532 0.92231 0.8513 0.0
H760 H 0.17974 0.95133 0.89108 0.0
H761 H 0.10166 0.01498 0.92733 0.0
H762 H 0.21981 0.12361 1.03102 0.0
H763 H 0.19697 0.09523 0.99092 0.0
H764 H 0.19337 0.95826 0.97231 0.0
C765 C 0.14475 0.94332 0.88588 0.0
C766 C 0.12146 0.00199 0.9369 0.0
C767 C 0.12954 0.92677 0.86289 0.0
C768 C 0.20819 0.08656 1.02721 0.0
C769 C 0.19451 0.07004 1.0041 0.0
C770 C 0.1732 0.97089 0.96278 0.0
C771 C 0.11582 0.95054 0.90176 0.0
C772 C 0.13226 0.96915 0.92638 0.0
C773 C 0.17815 0.02194 0.99801 0.0
C774 C 0.16259 0.00392 0.97324 0.0
H775 H 0.02058 0.91524 0.86572 0.0
H776 H 0.04703 0.94423 0.9053 0.0
H777 H 0.16755 0.92869 0.93261 0.0
H778 H 0.18608 0.98207 1.05238 0.0
H779 H 0.16348 0.95379 1.0123 0.0
loop_
_geom_bond_atom_site_label_1
_geom_bond_atom_site_label_2
_geom_bond_distance
_geom_bond_site_symmetry_2
_ccdc_geom_bond_type
Dy0 O3 2.315 . S
Dy0 O5 2.395 . S
Dy0 O6 2.379 . S
Dy0 O8 2.339 . S
Dy0 O10 2.298 1_565 S
Dy0 O14 2.275 . S
Dy0 C22 2.738 . S
Dy1 O4 2.298 1_554 S
Dy1 O7 2.275 . S
Dy1 O9 2.307 . S
Dy1 O11 2.395 1_554 S
Dy1 O12 2.379 1_554 S
Dy1 O15 2.339 . S
Dy1 C31 2.738 1_554 S
C2 O14 1.254 1_545 S
C2 O15 1.257 . S
O3 Dy0 2.315 . S
O3 C13 1.259 1_554 S
O4 Dy1 2.298 1_556 S
O4 C13 1.236 1_545 S
O5 Dy0 2.395 . S
O5 C22 1.255 . S
O6 Dy0 2.379 . S
O6 C22 1.249 . S
O7 Dy1 2.275 . S
O7 C23 1.254 . S
O8 Dy0 2.339 . S
O8 C23 1.257 1_565 S
O9 Dy1 2.307 . S
O9 C24 1.266 . S
O10 Dy0 2.298 1_545 S
O10 C24 1.236 . S
O11 Dy1 2.395 1_556 S
O11 C31 1.255 . S
O12 Dy1 2.379 1_556 S
O12 C31 1.249 . S
C13 O3 1.259 1_556 S
C13 O4 1.236 1_565 S
O14 Dy0 2.275 . S
O14 C2 1.254 1_565 S
O15 Dy1 2.339 . S
O15 C2 1.257 . S
C16 C19 1.344 . S
C16 C20 1.328 . S
C16 C22 1.516 . S
C17 C18 1.304 . S
C17 C21 1.323 . S
C18 C17 1.304 . S
C18 C19 1.371 . S
C18 H32 0.930 . S
C19 C16 1.344 . S
C19 C18 1.371 . S
C19 H33 0.931 . S
C20 C16 1.328 . S
C20 C21 1.433 . S
C20 H34 0.931 . S
C21 C17 1.323 . S
C21 C20 1.433 . S
C21 H35 0.933 . S
C22 Dy0 2.738 . S
C22 O5 1.255 . S
C22 O6 1.249 . S
C22 C16 1.516 . S
C23 O7 1.254 . S
C23 O8 1.257 1_545 S
C24 O9 1.266 . S
C24 O10 1.236 . S
C25 C28 1.344 . S
C25 C29 1.328 . S
C25 C31 1.516 . S
C26 C27 1.304 . S
C26 C30 1.323 . S
C27 C26 1.304 . S
C27 C28 1.371 . S
C27 H36 0.930 . S
C28 C25 1.344 . S
C28 C27 1.371 . S
C28 H37 0.931 . S
C29 C25 1.328 . S
C29 C30 1.433 . S
C29 H38 0.931 . S
C30 C26 1.323 . S
C30 C29 1.433 . S
C30 H39 0.933 . S
C31 Dy1 2.738 1_556 S
C31 O11 1.255 . S
C31 O12 1.249 . S
C31 C25 1.516 . S
H32 C18 0.930 . S
H33 C19 0.931 . S
H34 C20 0.931 . S
H35 C21 0.933 . S
H36 C27 0.930 . S
H37 C28 0.931 . S
H38 C29 0.931 . S
H39 C30 0.933 . S
Dy40 O43 2.307 . S
Dy40 O45 2.395 . S
Dy40 O46 2.379 . S
Dy40 O48 2.339 . S
Dy40 O50 2.298 . S
Dy40 O54 2.275 . S
Dy40 C62 2.738 . S
Dy41 O44 2.298 . S
Dy41 O47 2.275 . S
Dy41 O49 2.307 . S
Dy41 O51 2.395 . S
Dy41 O52 2.379 . S
Dy41 O55 2.339 . S
Dy41 C71 2.738 . S
C42 O54 1.254 . S
C42 O55 1.257 . S
O43 Dy40 2.307 . S
O43 C53 1.266 . S
O44 Dy41 2.298 . S
O44 C53 1.236 . S
O45 Dy40 2.395 . S
O45 C62 1.255 . S
O46 Dy40 2.379 . S
O46 C62 1.249 . S
O47 Dy41 2.275 . S
O47 C63 1.254 . S
O48 Dy40 2.339 . S
O48 C63 1.257 . S
O49 Dy41 2.307 . S
O49 C64 1.266 . S
O50 Dy40 2.298 . S
O50 C64 1.236 . S
O51 Dy41 2.395 . S
O51 C71 1.255 . S
O52 Dy41 2.379 . S
O52 C71 1.249 . S
C53 O43 1.266 . S
C53 O44 1.236 . S
O54 Dy40 2.275 . S
O54 C42 1.254 . S
O55 Dy41 2.339 . S
O55 C42 1.257 . S
C56 C59 1.344 . S
C56 C60 1.328 . S
C56 C62 1.516 . S
C57 C58 1.304 . S
C57 C61 1.323 . S
C58 C57 1.304 . S
C58 C59 1.371 . S
C58 H72 0.930 . S
C59 C56 1.344 . S
C59 C58 1.371 . S
C59 H73 0.931 . S
C60 C56 1.328 . S
C60 C61 1.433 . S
C60 H74 0.931 . S
C61 C57 1.323 . S
C61 C60 1.433 . S
C61 H75 0.933 . S
C62 Dy40 2.738 . S
C62 O45 1.255 . S
C62 O46 1.249 . S
C62 C56 1.516 . S
C63 O47 1.254 . S
C63 O48 1.257 . S
C64 O49 1.266 . S
C64 O50 1.236 . S
C65 C68 1.344 . S
C65 C69 1.328 . S
C65 C71 1.516 . S
C66 C67 1.304 . S
C66 C70 1.323 . S
C67 C66 1.304 . S
C67 C68 1.371 . S
C67 H76 0.930 . S
C68 C65 1.344 . S
C68 C67 1.371 . S
C68 H77 0.931 . S
C69 C65 1.328 . S
C69 C70 1.433 . S
C69 H78 0.931 . S
C70 C66 1.323 . S
C70 C69 1.433 . S
C70 H79 0.933 . S
C71 Dy41 2.738 . S
C71 O51 1.255 . S
C71 O52 1.249 . S
C71 C65 1.516 . S
H72 C58 0.930 . S
H73 C59 0.931 . S
H74 C60 0.931 . S
H75 C61 0.933 . S
H76 C67 0.930 . S
H77 C68 0.931 . S
H78 C69 0.931 . S
H79 C70 0.933 . S
Dy80 O83 2.307 . S
Dy80 O85 2.395 . S
Dy80 O86 2.379 . S
Dy80 O88 2.339 . S
Dy80 O90 2.298 . S
Dy80 O94 2.275 . S
Dy80 C102 2.738 . S
Dy81 O84 2.298 1_655 S
Dy81 O87 2.275 1_655 S
Dy81 O89 2.307 . S
Dy81 O91 2.395 . S
Dy81 O92 2.379 . S
Dy81 O95 2.339 1_655 S
Dy81 C111 2.738 . S
C82 O94 1.254 . S
C82 O95 1.257 . S
O83 Dy80 2.307 . S
O83 C93 1.266 . S
O84 Dy81 2.298 1_455 S
O84 C93 1.236 . S
O85 Dy80 2.395 . S
O85 C102 1.255 . S
O86 Dy80 2.379 . S
O86 C102 1.249 . S
O87 Dy81 2.275 1_455 S
O87 C103 1.254 . S
O88 Dy80 2.339 . S
O88 C103 1.257 . S
O89 Dy81 2.307 . S
O89 C104 1.266 1_655 S
O90 Dy80 2.298 . S
O90 C104 1.236 . S
O91 Dy81 2.395 . S
O91 C111 1.255 . S
O92 Dy81 2.379 . S
O92 C111 1.249 . S
C93 O83 1.266 . S
C93 O84 1.236 . S
O94 Dy80 2.275 . S
O94 C82 1.254 . S
O95 Dy81 2.339 1_455 S
O95 C82 1.257 . S
C96 C99 1.344 . S
C96 C100 1.328 . S
C96 C102 1.516 . S
C97 C98 1.304 . S
C97 C101 1.323 . S
C98 C97 1.304 . S
C98 C99 1.371 . S
C98 H112 0.930 . S
C99 C96 1.344 . S
C99 C98 1.371 . S
C99 H113 0.931 . S
C100 C96 1.328 . S
C100 C101 1.433 . S
C100 H114 0.931 . S
C101 C97 1.323 . S
C101 C100 1.433 . S
C101 H115 0.933 . S
C102 Dy80 2.738 . S
C102 O85 1.255 . S
C102 O86 1.249 . S
C102 C96 1.516 . S
C103 O87 1.254 . S
C103 O88 1.257 . S
C104 O89 1.266 1_455 S
C104 O90 1.236 . S
C105 C108 1.344 . S
C105 C109 1.328 . S
C105 C111 1.516 . S
C106 C107 1.304 . S
C106 C110 1.323 . S
C107 C106 1.304 . S
C107 C108 1.371 . S
C107 H116 0.930 . S
C108 C105 1.344 . S
C108 C107 1.371 . S
C108 H117 0.931 . S
C109 C105 1.328 . S
C109 C110 1.433 . S
C109 H118 0.931 . S
C110 C106 1.323 . S
C110 C109 1.433 . S
C110 H119 0.933 . S
C111 Dy81 2.738 . S
C111 O91 1.255 . S
C111 O92 1.249 . S
C111 C105 1.516 . S
H112 C98 0.930 . S
H113 C99 0.931 . S
H114 C100 0.931 . S
H115 C101 0.933 . S
H116 C107 0.930 . S
H117 C108 0.931 . S
H118 C109 0.931 . S
H119 C110 0.933 . S
Dy120 O123 2.304 1_556 S
Dy120 O125 2.397 . S
Dy120 O126 2.381 . S
Dy120 O128 2.338 1_556 S
Dy120 O130 2.300 1_565 S
Dy120 O134 2.274 1_556 S
Dy120 C142 2.741 . S
Dy121 O124 2.298 . S
Dy121 O127 2.275 . S
Dy121 O129 2.307 1_554 S
Dy121 O131 2.395 . S
Dy121 O132 2.379 . S
Dy121 O135 2.339 . S
Dy121 C151 2.738 . S
C122 O134 1.254 1_545 S
C122 O135 1.257 . S
O123 Dy120 2.304 1_554 S
O123 C133 1.266 . S
O124 Dy121 2.298 . S
O124 C133 1.236 1_545 S
O125 Dy120 2.397 . S
O125 C142 1.255 . S
O126 Dy120 2.381 . S
O126 C142 1.249 . S
O127 Dy121 2.275 . S
O127 C143 1.254 . S
O128 Dy120 2.338 1_554 S
O128 C143 1.257 1_565 S
O129 Dy121 2.307 1_556 S
O129 C144 1.266 . S
O130 Dy120 2.300 1_545 S
O130 C144 1.236 . S
O131 Dy121 2.395 . S
O131 C151 1.255 . S
O132 Dy121 2.379 . S
O132 C151 1.249 . S
C133 O123 1.266 . S
C133 O124 1.236 1_565 S
O134 Dy120 2.274 1_554 S
O134 C122 1.254 1_565 S
O135 Dy121 2.339 . S
O135 C122 1.257 . S
C136 C139 1.344 . S
C136 C140 1.328 . S
C136 C142 1.516 . S
C137 C138 1.304 . S
C137 C141 1.323 . S
C138 C137 1.304 . S
C138 C139 1.371 . S
C138 H152 0.930 . S
C139 C136 1.344 . S
C139 C138 1.371 . S
C139 H153 0.931 . S
C140 C136 1.328 . S
C140 C141 1.433 . S
C140 H154 0.931 . S
C141 C137 1.323 . S
C141 C140 1.433 . S
C141 H155 0.933 . S
C142 Dy120 2.741 . S
C142 O125 1.255 . S
C142 O126 1.249 . S
C142 C136 1.516 . S
C143 O127 1.254 . S
C143 O128 1.257 1_545 S
C144 O129 1.266 . S
C144 O130 1.236 . S
C145 C148 1.344 . S
C145 C149 1.328 . S
C145 C151 1.516 . S
C146 C147 1.304 . S
C146 C150 1.323 . S
C147 C146 1.304 . S
C147 C148 1.371 . S
C147 H156 0.930 . S
C148 C145 1.344 . S
C148 C147 1.371 . S
C148 H157 0.931 . S
C149 C145 1.328 . S
C149 C150 1.433 . S
C149 H158 0.931 . S
C150 C146 1.323 . S
C150 C149 1.433 . S
C150 H159 0.933 . S
C151 Dy121 2.738 . S
C151 O131 1.255 . S
C151 O132 1.249 . S
C151 C145 1.516 . S
H152 C138 0.930 . S
H153 C139 0.931 . S
H154 C140 0.931 . S
H155 C141 0.933 . S
H156 C147 0.930 . S
H157 C148 0.931 . S
H158 C149 0.931 . S
H159 C150 0.933 . S
Dy160 O163 2.307 . S
Dy160 O165 2.395 . S
Dy160 O166 2.379 . S
Dy160 O168 2.339 . S
Dy160 O170 2.298 . S
Dy160 O174 2.275 . S
Dy160 C182 2.738 . S
Dy161 O164 2.298 . S
Dy161 O167 2.275 . S
Dy161 O169 2.307 . S
Dy161 O171 2.395 . S
Dy161 O172 2.379 . S
Dy161 O175 2.339 . S
Dy161 C191 2.738 . S
C162 O174 1.254 . S
C162 O175 1.257 . S
O163 Dy160 2.307 . S
O163 C173 1.266 . S
O164 Dy161 2.298 . S
O164 C173 1.236 . S
O165 Dy160 2.395 . S
O165 C182 1.255 . S
O166 Dy160 2.379 . S
O166 C182 1.249 . S
O167 Dy161 2.275 . S
O167 C183 1.254 . S
O168 Dy160 2.339 . S
O168 C183 1.257 . S
O169 Dy161 2.307 . S
O169 C184 1.266 . S
O170 Dy160 2.298 . S
O170 C184 1.236 . S
O171 Dy161 2.395 . S
O171 C191 1.255 . S
O172 Dy161 2.379 . S
O172 C191 1.249 . S
C173 O163 1.266 . S
C173 O164 1.236 . S
O174 Dy160 2.275 . S
O174 C162 1.254 . S
O175 Dy161 2.339 . S
O175 C162 1.257 . S
C176 C179 1.344 . S
C176 C180 1.328 . S
C176 C182 1.516 . S
C177 C178 1.304 . S
C177 C181 1.323 . S
C178 C177 1.304 . S
C178 C179 1.371 . S
C178 H192 0.930 . S
C179 C176 1.344 . S
C179 C178 1.371 . S
C179 H193 0.931 . S
C180 C176 1.328 . S
C180 C181 1.433 . S
C180 H194 0.931 . S
C181 C177 1.323 . S
C181 C180 1.433 . S
C181 H195 0.933 . S
C182 Dy160 2.738 . S
C182 O165 1.255 . S
C182 O166 1.249 . S
C182 C176 1.516 . S
C183 O167 1.254 . S
C183 O168 1.257 . S
C184 O169 1.266 . S
C184 O170 1.236 . S
C185 C188 1.344 . S
C185 C189 1.328 . S
C185 C191 1.516 . S
C186 C187 1.304 . S
C186 C190 1.323 . S
C187 C186 1.304 . S
C187 C188 1.371 . S
C187 H196 0.930 . S
C188 C185 1.344 . S
C188 C187 1.371 . S
C188 H197 0.931 . S
C189 C185 1.328 . S
C189 C190 1.433 . S
C189 H198 0.931 . S
C190 C186 1.323 . S
C190 C189 1.433 . S
C190 H199 0.933 . S
C191 Dy161 2.738 . S
C191 O171 1.255 . S
C191 O172 1.249 . S
C191 C185 1.516 . S
H192 C178 0.930 . S
H193 C179 0.931 . S
H194 C180 0.931 . S
H195 C181 0.933 . S
H196 C187 0.930 . S
H197 C188 0.931 . S
H198 C189 0.931 . S
H199 C190 0.933 . S
Dy200 O203 2.307 . S
Dy200 O205 2.395 . S
Dy200 O206 2.379 . S
Dy200 O208 2.339 . S
Dy200 O210 2.298 . S
Dy200 O214 2.275 . S
Dy200 C222 2.738 . S
Dy201 O204 2.298 1_655 S
Dy201 O207 2.275 1_655 S
Dy201 O209 2.307 . S
Dy201 O211 2.395 . S
Dy201 O212 2.379 . S
Dy201 O215 2.339 1_655 S
Dy201 C231 2.738 . S
C202 O214 1.254 . S
C202 O215 1.257 . S
O203 Dy200 2.307 . S
O203 C213 1.266 . S
O204 Dy201 2.298 1_455 S
O204 C213 1.236 . S
O205 Dy200 2.395 . S
O205 C222 1.255 . S
O206 Dy200 2.379 . S
O206 C222 1.249 . S
O207 Dy201 2.275 1_455 S
O207 C223 1.254 . S
O208 Dy200 2.339 . S
O208 C223 1.257 . S
O209 Dy201 2.307 . S
O209 C224 1.266 1_655 S
O210 Dy200 2.298 . S
O210 C224 1.236 . S
O211 Dy201 2.395 . S
O211 C231 1.255 . S
O212 Dy201 2.379 . S
O212 C231 1.249 . S
C213 O203 1.266 . S
C213 O204 1.236 . S
O214 Dy200 2.275 . S
O214 C202 1.254 . S
O215 Dy201 2.339 1_455 S
O215 C202 1.257 . S
C216 C219 1.344 . S
C216 C220 1.328 . S
C216 C222 1.516 . S
C217 C218 1.304 . S
C217 C221 1.323 . S
C218 C217 1.304 . S
C218 C219 1.371 . S
C218 H232 0.930 . S
C219 C216 1.344 . S
C219 C218 1.371 . S
C219 H233 0.931 . S
C220 C216 1.328 . S
C220 C221 1.433 . S
C220 H234 0.931 . S
C221 C217 1.323 . S
C221 C220 1.433 . S
C221 H235 0.933 . S
C222 Dy200 2.738 . S
C222 O205 1.255 . S
C222 O206 1.249 . S
C222 C216 1.516 . S
C223 O207 1.254 . S
C223 O208 1.257 . S
C224 O209 1.266 1_455 S
C224 O210 1.236 . S
C225 C228 1.344 . S
C225 C229 1.328 . S
C225 C231 1.516 . S
C226 C227 1.304 . S
C226 C230 1.323 . S
C227 C226 1.304 . S
C227 C228 1.371 . S
C227 H236 0.930 . S
C228 C225 1.344 . S
C228 C227 1.371 . S
C228 H237 0.931 . S
C229 C225 1.328 . S
C229 C230 1.433 . S
C229 H238 0.931 . S
C230 C226 1.323 . S
C230 C229 1.433 . S
C230 H239 0.933 . S
C231 Dy201 2.738 . S
C231 O211 1.255 . S
C231 O212 1.249 . S
C231 C225 1.516 . S
H232 C218 0.930 . S
H233 C219 0.931 . S
H234 C220 0.931 . S
H235 C221 0.933 . S
H236 C227 0.930 . S
H237 C228 0.931 . S
H238 C229 0.931 . S
H239 C230 0.933 . S
C240 C241 1.349 1_565 S
C240 C242 1.327 . S
C240 H265 0.950 1_554 S
C241 C240 1.349 1_545 S
C241 C257 1.349 . S
C242 C240 1.327 . S
C242 C261 1.429 1_565 S
C242 H266 0.950 1_554 S
C243 C260 1.574 1_655 S
C243 C262 1.368 . S
C243 H267 0.949 . S
H244 C248 0.949 . S
C245 C246 1.349 . S
C245 C247 1.327 . S
C245 H268 0.950 . S
C246 C245 1.349 . S
C246 C258 1.349 1_545 S
C247 C245 1.327 . S
C247 C263 1.429 . S
C247 H269 0.950 . S
C248 H244 0.949 . S
C248 C256 1.574 . S
C248 C264 1.368 1_665 S
H249 C257 0.950 . S
H250 C255 0.950 . S
H251 C256 0.949 1_556 S
H252 C258 0.950 . S
H253 C259 0.950 . S
H254 C260 0.949 . S
C255 H250 0.950 . S
C255 C257 1.327 . S
C255 C261 1.429 . S
C256 C248 1.574 . S
C256 H251 0.949 1_554 S
C256 C262 1.368 1_565 S
C257 C241 1.349 . S
C257 H249 0.950 . S
C257 C255 1.327 . S
C258 C246 1.349 1_565 S
C258 H252 0.950 . S
C258 C259 1.327 . S
C259 H253 0.950 . S
C259 C258 1.327 . S
C259 C263 1.429 1_565 S
C260 C243 1.574 1_455 S
C260 H254 0.949 . S
C260 C264 1.368 . S
C261 C242 1.429 1_545 S
C261 C255 1.429 . S
C261 C262 1.523 . S
C262 C243 1.368 . S
C262 C256 1.368 1_545 S
C262 C261 1.523 . S
C263 C247 1.429 . S
C263 C259 1.429 1_545 S
C263 C264 1.523 . S
C264 C248 1.368 1_445 S
C264 C260 1.368 . S
C264 C263 1.523 . S
H265 C240 0.950 1_556 S
H266 C242 0.950 1_556 S
H267 C243 0.949 . S
H268 C245 0.950 . S
H269 C247 0.950 . S
C270 C271 1.349 . S
C270 C272 1.327 . S
C270 H295 0.950 . S
C271 C270 1.349 . S
C271 C287 1.349 . S
C272 C270 1.327 . S
C272 C291 1.429 . S
C272 H296 0.954 . S
C273 C290 1.574 1_655 S
C273 C292 1.368 . S
C273 H297 0.949 . S
H274 C278 0.949 . S
C275 C276 1.349 . S
C275 C277 1.327 . S
C275 H298 0.950 . S
C276 C275 1.349 . S
C276 C288 1.349 . S
C277 C275 1.327 . S
C277 C293 1.429 . S
C277 H299 0.950 . S
C278 H274 0.949 . S
C278 C286 1.574 . S
C278 C294 1.368 1_655 S
H279 C287 0.950 . S
H280 C285 0.950 . S
H281 C286 0.949 . S
H282 C288 0.950 . S
H283 C289 0.950 . S
H284 C290 0.949 . S
C285 H280 0.950 . S
C285 C287 1.327 . S
C285 C291 1.428 . S
C286 C278 1.574 . S
C286 H281 0.949 . S
C286 C292 1.368 . S
C287 C271 1.349 . S
C287 H279 0.950 . S
C287 C285 1.327 . S
C288 C276 1.349 . S
C288 H282 0.950 . S
C288 C289 1.327 . S
C289 H283 0.950 . S
C289 C288 1.327 . S
C289 C293 1.429 . S
C290 C273 1.574 1_455 S
C290 H284 0.949 . S
C290 C294 1.368 . S
C291 C272 1.429 . S
C291 C285 1.428 . S
C291 C292 1.524 1_565 S
C292 C273 1.368 . S
C292 C286 1.368 . S
C292 C291 1.524 1_545 S
C293 C277 1.429 . S
C293 C289 1.429 . S
C293 C294 1.523 . S
C294 C278 1.368 1_455 S
C294 C290 1.368 . S
C294 C293 1.523 . S
H295 C270 0.950 . S
H296 C272 0.954 . S
H297 C273 0.949 . S
H298 C275 0.950 . S
H299 C277 0.950 . S
C300 C301 1.349 . S
C300 C302 1.327 . S
C300 H325 0.950 . S
C301 C300 1.349 . S
C301 C317 1.349 . S
C302 C300 1.327 . S
C302 C321 1.430 1_565 S
C302 H326 0.950 1_565 S
C303 C320 1.574 . S
C303 C322 1.368 . S
C303 H327 0.949 . S
H304 C308 0.949 . S
C305 C306 1.349 . S
C305 C307 1.327 . S
C305 H328 0.950 . S
C306 C305 1.349 . S
C306 C318 1.349 . S
C307 C305 1.327 . S
C307 C323 1.429 . S
C307 H329 0.950 . S
C308 H304 0.949 . S
C308 C316 1.574 . S
C308 C324 1.368 . S
H309 C317 0.950 . S
H310 C315 0.950 . S
H311 C316 0.949 . S
H312 C318 0.950 . S
H313 C319 0.950 . S
H314 C320 0.949 . S
C315 H310 0.950 . S
C315 C317 1.327 . S
C315 C321 1.430 1_565 S
C316 C308 1.574 . S
C316 H311 0.949 . S
C316 C322 1.368 . S
C317 C301 1.349 . S
C317 H309 0.950 . S
C317 C315 1.327 . S
C318 C306 1.349 . S
C318 H312 0.950 . S
C318 C319 1.327 . S
C319 H313 0.950 . S
C319 C318 1.327 . S
C319 C323 1.429 . S
C320 C303 1.574 . S
C320 H314 0.949 . S
C320 C324 1.368 . S
C321 C302 1.430 1_545 S
C321 C315 1.430 1_545 S
C321 C322 1.520 . S
C322 C303 1.368 . S
C322 C316 1.368 . S
C322 C321 1.520 . S
C323 C307 1.429 . S
C323 C319 1.429 . S
C323 C324 1.523 . S
C324 C308 1.368 . S
C324 C320 1.368 . S
C324 C323 1.523 . S
H325 C300 0.950 . S
H326 C302 0.950 1_545 S
H327 C303 0.949 . S
H328 C305 0.950 . S
H329 C307 0.950 . S
C330 C331 1.349 . S
C330 C332 1.327 . S
C330 H355 0.950 . S
C331 C330 1.349 . S
C331 C347 1.349 . S
C332 C330 1.327 . S
C332 C351 1.429 . S
C332 H356 0.950 . S
C333 C350 1.574 . S
C333 C352 1.368 . S
C333 H357 0.949 . S
H334 C338 0.949 . S
C335 C336 1.349 . S
C335 C337 1.327 . S
C335 H358 0.950 . S
C336 C335 1.349 . S
C336 C348 1.349 . S
C337 C335 1.327 . S
C337 C353 1.429 . S
C337 H359 0.950 . S
C338 H334 0.949 . S
C338 C346 1.574 . S
C338 C354 1.368 . S
H339 C347 0.950 . S
H340 C345 0.950 . S
H341 C346 0.949 . S
H342 C348 0.950 . S
H343 C349 0.950 . S
H344 C350 0.949 . S
C345 H340 0.950 . S
C345 C347 1.327 . S
C345 C351 1.429 . S
C346 C338 1.574 . S
C346 H341 0.949 . S
C346 C352 1.368 . S
C347 C331 1.349 . S
C347 H339 0.950 . S
C347 C345 1.327 . S
C348 C336 1.349 . S
C348 H342 0.950 . S
C348 C349 1.327 . S
C349 H343 0.950 . S
C349 C348 1.327 . S
C349 C353 1.429 . S
C350 C333 1.574 . S
C350 H344 0.949 . S
C350 C354 1.368 . S
C351 C332 1.429 . S
C351 C345 1.429 . S
C351 C352 1.523 . S
C352 C333 1.368 . S
C352 C346 1.368 . S
C352 C351 1.523 . S
C353 C337 1.429 . S
C353 C349 1.429 . S
C353 C354 1.523 . S
C354 C338 1.368 . S
C354 C350 1.368 . S
C354 C353 1.523 . S
H355 C330 0.950 . S
H356 C332 0.950 . S
H357 C333 0.949 . S
H358 C335 0.950 . S
H359 C337 0.950 . S
C360 C361 1.349 . S
C360 C362 1.327 . S
C360 H385 0.950 . S
C361 C360 1.349 . S
C361 C377 1.349 . S
C362 C360 1.327 . S
C362 C381 1.429 . S
C362 H386 0.950 . S
C363 C380 1.574 . S
C363 C382 1.368 . S
C363 H387 0.949 . S
H364 C368 0.949 . S
C365 C366 1.349 . S
C365 C367 1.327 . S
C365 H388 0.950 . S
C366 C365 1.349 . S
C366 C378 1.349 . S
C367 C365 1.327 . S
C367 C383 1.429 . S
C367 H389 0.950 . S
C368 H364 0.949 . S
C368 C376 1.574 1_655 S
C368 C384 1.368 . S
H369 C377 0.950 . S
H370 C375 0.950 1_655 S
H371 C376 0.949 . S
H372 C378 0.950 . S
H373 C379 0.950 . S
H374 C380 0.949 . S
C375 H370 0.950 1_455 S
C375 C377 1.327 . S
C375 C381 1.429 . S
C376 C368 1.574 1_455 S
C376 H371 0.949 . S
C376 C382 1.368 1_455 S
C377 C361 1.349 . S
C377 H369 0.950 . S
C377 C375 1.327 . S
C378 C366 1.349 . S
C378 H372 0.950 . S
C378 C379 1.327 . S
C379 H373 0.950 . S
C379 C378 1.327 . S
C379 C383 1.429 . S
C380 C363 1.574 . S
C380 H374 0.949 . S
C380 C384 1.368 . S
C381 C362 1.429 . S
C381 C375 1.429 . S
C381 C382 1.523 1_455 S
C382 C363 1.368 . S
C382 C376 1.368 1_655 S
C382 C381 1.523 1_655 S
C383 C367 1.429 . S
C383 C379 1.429 . S
C383 C384 1.523 . S
C384 C368 1.368 . S
C384 C380 1.368 . S
C384 C383 1.523 . S
H385 C360 0.950 . S
H386 C362 0.950 . S
H387 C363 0.949 . S
H388 C365 0.950 . S
H389 C367 0.950 . S
C390 C391 1.349 . S
C390 C392 1.327 . S
C390 H415 0.950 . S
C391 C390 1.349 . S
C391 C407 1.349 . S
C392 C390 1.327 . S
C392 C411 1.429 . S
C392 H416 0.950 . S
C393 C410 1.574 . S
C393 C412 1.368 . S
C393 H417 0.949 . S
H394 C398 0.949 . S
C395 C396 1.349 . S
C395 C397 1.327 . S
C395 H418 0.950 . S
C396 C395 1.349 . S
C396 C408 1.349 . S
C397 C395 1.327 . S
C397 C413 1.429 1_565 S
C397 H419 0.950 . S
C398 H394 0.949 . S
C398 C406 1.574 . S
C398 C414 1.368 . S
H399 C407 0.950 . S
H400 C405 0.950 . S
H401 C406 0.949 . S
H402 C408 0.950 . S
H403 C409 0.950 . S
H404 C410 0.949 . S
C405 H400 0.950 . S
C405 C407 1.327 . S
C405 C411 1.429 . S
C406 C398 1.574 . S
C406 H401 0.949 . S
C406 C412 1.368 . S
C407 C391 1.349 . S
C407 H399 0.950 . S
C407 C405 1.327 . S
C408 C396 1.349 . S
C408 H402 0.950 . S
C408 C409 1.327 1_565 S
C409 H403 0.950 . S
C409 C408 1.327 1_545 S
C409 C413 1.429 . S
C410 C393 1.574 . S
C410 H404 0.949 . S
C410 C414 1.368 . S
C411 C392 1.429 . S
C411 C405 1.429 . S
C411 C412 1.523 . S
C412 C393 1.368 . S
C412 C406 1.368 . S
C412 C411 1.523 . S
C413 C397 1.429 1_545 S
C413 C409 1.429 . S
C413 C414 1.523 . S
C414 C398 1.368 . S
C414 C410 1.368 . S
C414 C413 1.523 . S
H415 C390 0.950 . S
H416 C392 0.950 . S
H417 C393 0.949 . S
H418 C395 0.950 . S
H419 C397 0.950 . S
C420 C421 1.349 . S
C420 C422 1.327 . S
C420 H445 0.950 . S
C421 C420 1.349 . S
C421 C437 1.349 . S
C422 C420 1.327 . S
C422 C441 1.429 . S
C422 H446 0.950 . S
C423 C440 1.574 . S
C423 C442 1.368 . S
C423 H447 0.949 . S
H424 C428 0.949 . S
C425 C426 1.349 . S
C425 C427 1.327 . S
C425 H448 0.950 . S
C426 C425 1.349 . S
C426 C438 1.349 . S
C427 C425 1.327 . S
C427 C443 1.429 . S
C427 H449 0.950 . S
C428 H424 0.949 . S
C428 C436 1.574 . S
C428 C444 1.368 . S
H429 C437 0.950 . S
H430 C435 0.950 . S
H431 C436 0.949 . S
H432 C438 0.950 . S
H433 C439 0.950 . S
H434 C440 0.949 . S
C435 H430 0.950 . S
C435 C437 1.327 . S
C435 C441 1.429 . S
C436 C428 1.574 . S
C436 H431 0.949 . S
C436 C442 1.368 . S
C437 C421 1.349 . S
C437 H429 0.950 . S
C437 C435 1.327 . S
C438 C426 1.349 . S
C438 H432 0.950 . S
C438 C439 1.327 . S
C439 H433 0.950 . S
C439 C438 1.327 . S
C439 C443 1.429 . S
C440 C423 1.574 . S
C440 H434 0.949 . S
C440 C444 1.368 . S
C441 C422 1.429 . S
C441 C435 1.429 . S
C441 C442 1.523 . S
C442 C423 1.368 . S
C442 C436 1.368 . S
C442 C441 1.523 . S
C443 C427 1.429 . S
C443 C439 1.429 . S
C443 C444 1.523 . S
C444 C428 1.368 . S
C444 C440 1.368 . S
C444 C443 1.523 . S
H445 C420 0.950 . S
H446 C422 0.950 . S
H447 C423 0.949 . S
H448 C425 0.950 . S
H449 C427 0.950 . S
C450 C451 1.349 . S
C450 C452 1.327 . S
C450 H475 0.950 . S
C451 C450 1.349 . S
C451 C467 1.349 . S
C452 C450 1.327 . S
C452 C471 1.429 . S
C452 H476 0.950 . S
C453 C470 1.572 1_655 S
C453 C472 1.368 . S
C453 H477 0.949 . S
H454 C458 0.949 . S
C455 C456 1.349 . S
C455 C457 1.327 . S
C455 H478 0.950 . S
C456 C455 1.349 . S
C456 C468 1.349 . S
C457 C455 1.327 . S
C457 C473 1.429 . S
C457 H479 0.950 . S
C458 H454 0.949 . S
C458 C466 1.574 . S
C458 C474 1.368 . S
H459 C467 0.950 . S
H460 C465 0.950 . S
H461 C466 0.949 . S
H462 C468 0.950 . S
H463 C469 0.950 . S
H464 C470 0.950 . S
C465 H460 0.950 . S
C465 C467 1.327 . S
C465 C471 1.429 . S
C466 C458 1.574 . S
C466 H461 0.949 . S
C466 C472 1.368 . S
C467 C451 1.349 . S
C467 H459 0.950 . S
C467 C465 1.327 . S
C468 C456 1.349 . S
C468 H462 0.950 . S
C468 C469 1.327 . S
C469 H463 0.950 . S
C469 C468 1.327 . S
C469 C473 1.429 . S
C470 C453 1.572 1_455 S
C470 H464 0.950 . S
C470 C474 1.369 1_455 S
C471 C452 1.429 . S
C471 C465 1.429 . S
C471 C472 1.523 . S
C472 C453 1.368 . S
C472 C466 1.368 . S
C472 C471 1.523 . S
C473 C457 1.429 . S
C473 C469 1.429 . S
C473 C474 1.523 1_455 S
C474 C458 1.368 . S
C474 C470 1.369 1_655 S
C474 C473 1.523 1_655 S
H475 C450 0.950 . S
H476 C452 0.950 . S
H477 C453 0.949 . S
H478 C455 0.950 . S
H479 C457 0.950 . S
C480 C481 1.349 . S
C480 C482 1.327 1_565 S
C480 H505 0.950 . S
C481 C480 1.349 . S
C481 C497 1.349 . S
C482 C480 1.327 1_545 S
C482 C501 1.429 . S
C482 H506 0.950 . S
C483 C500 1.574 . S
C483 C502 1.368 . S
C483 H507 0.949 . S
H484 C488 0.949 . S
C485 C486 1.349 . S
C485 C487 1.327 . S
C485 H508 0.950 . S
C486 C485 1.349 . S
C486 C498 1.349 . S
C487 C485 1.327 . S
C487 C503 1.429 . S
C487 H509 0.950 . S
C488 H484 0.949 . S
C488 C496 1.574 . S
C488 C504 1.368 . S
H489 C497 0.950 . S
H490 C495 0.950 . S
H491 C496 0.949 . S
H492 C498 0.950 . S
H493 C499 0.950 . S
H494 C500 0.949 . S
C495 H490 0.950 . S
C495 C497 1.327 1_545 S
C495 C501 1.429 . S
C496 C488 1.574 . S
C496 H491 0.949 . S
C496 C502 1.368 . S
C497 C481 1.349 . S
C497 H489 0.950 . S
C497 C495 1.327 1_565 S
C498 C486 1.349 . S
C498 H492 0.950 . S
C498 C499 1.327 . S
C499 H493 0.950 . S
C499 C498 1.327 . S
C499 C503 1.429 . S
C500 C483 1.574 . S
C500 H494 0.949 . S
C500 C504 1.368 . S
C501 C482 1.429 . S
C501 C495 1.429 . S
C501 C502 1.523 . S
C502 C483 1.368 . S
C502 C496 1.368 . S
C502 C501 1.523 . S
C503 C487 1.429 . S
C503 C499 1.429 . S
C503 C504 1.523 . S
C504 C488 1.368 . S
C504 C500 1.368 . S
C504 C503 1.523 . S
H505 C480 0.950 . S
H506 C482 0.950 . S
H507 C483 0.949 . S
H508 C485 0.950 . S
H509 C487 0.950 . S
C510 C511 1.349 . S
C510 C512 1.327 . S
C510 H535 0.950 . S
C511 C510 1.349 . S
C511 C527 1.349 1_545 S
C512 C510 1.327 . S
C512 C531 1.429 . S
C512 H536 0.950 . S
C513 C530 1.574 . S
C513 C532 1.368 1_565 S
C513 H537 0.949 1_554 S
H514 C518 0.949 . S
C515 C516 1.349 1_565 S
C515 C517 1.327 . S
C515 H538 0.950 . S
C516 C515 1.349 1_545 S
C516 C528 1.349 . S
C517 C515 1.327 . S
C517 C533 1.429 1_565 S
C517 H539 0.952 1_554 S
C518 H514 0.949 . S
C518 C526 1.574 . S
C518 C534 1.368 . S
H519 C527 0.950 1_556 S
H520 C525 0.950 1_556 S
H521 C526 0.949 . S
H522 C528 0.950 . S
H523 C529 0.950 . S
H524 C530 0.926 1_556 S
C525 H520 0.950 1_554 S
C525 C527 1.327 . S
C525 C531 1.429 1_565 S
C526 C518 1.574 . S
C526 H521 0.949 . S
C526 C532 1.368 . S
C527 C511 1.349 1_565 S
C527 H519 0.950 1_554 S
C527 C525 1.327 . S
C528 C516 1.349 . S
C528 H522 0.950 . S
C528 C529 1.327 . S
C529 H523 0.950 . S
C529 C528 1.327 . S
C529 C533 1.429 . S
C530 C513 1.574 . S
C530 H524 0.926 1_554 S
C530 C534 1.368 1_565 S
C531 C512 1.429 . S
C531 C525 1.429 1_545 S
C531 C532 1.523 . S
C532 C513 1.368 1_545 S
C532 C526 1.368 . S
C532 C531 1.523 . S
C533 C517 1.429 1_545 S
C533 C529 1.429 . S
C533 C534 1.523 . S
C534 C518 1.368 . S
C534 C530 1.368 1_545 S
C534 C533 1.523 . S
H535 C510 0.950 . S
H536 C512 0.950 . S
H537 C513 0.949 1_556 S
H538 C515 0.950 . S
H539 C517 0.952 1_556 S
C540 C541 1.349 . S
C540 C542 1.327 . S
C540 H565 0.950 . S
C541 C540 1.349 . S
C541 C557 1.349 . S
C542 C540 1.327 . S
C542 C561 1.429 . S
C542 H566 0.950 . S
C543 C560 1.574 . S
C543 C562 1.368 . S
C543 H567 0.949 . S
H544 C548 0.949 . S
C545 C546 1.349 . S
C545 C547 1.327 . S
C545 H568 0.950 . S
C546 C545 1.349 . S
C546 C558 1.349 . S
C547 C545 1.327 . S
C547 C563 1.429 . S
C547 H569 0.950 . S
C548 H544 0.949 . S
C548 C556 1.574 . S
C548 C564 1.368 . S
H549 C557 0.950 . S
H550 C555 0.950 . S
H551 C556 0.949 . S
H552 C558 0.950 . S
H553 C559 0.950 . S
H554 C560 0.949 . S
C555 H550 0.950 . S
C555 C557 1.327 . S
C555 C561 1.429 . S
C556 C548 1.574 . S
C556 H551 0.949 . S
C556 C562 1.368 . S
C557 C541 1.349 . S
C557 H549 0.950 . S
C557 C555 1.327 . S
C558 C546 1.349 . S
C558 H552 0.950 . S
C558 C559 1.327 . S
C559 H553 0.950 . S
C559 C558 1.327 . S
C559 C563 1.429 . S
C560 C543 1.574 . S
C560 H554 0.949 . S
C560 C564 1.368 . S
C561 C542 1.429 . S
C561 C555 1.429 . S
C561 C562 1.523 . S
C562 C543 1.368 . S
C562 C556 1.368 . S
C562 C561 1.523 . S
C563 C547 1.429 . S
C563 C559 1.429 . S
C563 C564 1.523 . S
C564 C548 1.368 . S
C564 C560 1.368 . S
C564 C563 1.523 . S
H565 C540 0.950 . S
H566 C542 0.950 . S
H567 C543 0.949 . S
H568 C545 0.950 . S
H569 C547 0.950 . S
C570 C571 1.349 . S
C570 C572 1.327 . S
C570 H595 0.950 . S
C571 C570 1.349 . S
C571 C587 1.349 . S
C572 C570 1.327 . S
C572 C591 1.429 . S
C572 H596 0.950 . S
C573 C590 1.574 . S
C573 C592 1.368 . S
C573 H597 0.949 . S
H574 C578 0.949 . S
C575 C576 1.349 . S
C575 C577 1.327 . S
C575 H598 0.950 . S
C576 C575 1.349 . S
C576 C588 1.349 . S
C577 C575 1.327 . S
C577 C593 1.429 . S
C577 H599 0.950 . S
C578 H574 0.949 . S
C578 C586 1.574 . S
C578 C594 1.368 . S
H579 C587 0.950 . S
H580 C585 0.950 . S
H581 C586 0.949 . S
H582 C588 0.950 . S
H583 C589 0.950 . S
H584 C590 0.949 . S
C585 H580 0.950 . S
C585 C587 1.327 . S
C585 C591 1.429 . S
C586 C578 1.574 . S
C586 H581 0.949 . S
C586 C592 1.368 . S
C587 C571 1.349 . S
C587 H579 0.950 . S
C587 C585 1.327 . S
C588 C576 1.349 . S
C588 H582 0.950 . S
C588 C589 1.327 . S
C589 H583 0.950 . S
C589 C588 1.327 . S
C589 C593 1.429 . S
C590 C573 1.574 . S
C590 H584 0.949 . S
C590 C594 1.368 . S
C591 C572 1.429 . S
C591 C585 1.429 . S
C591 C592 1.523 . S
C592 C573 1.368 . S
C592 C586 1.368 . S
C592 C591 1.523 . S
C593 C577 1.429 . S
C593 C589 1.429 . S
C593 C594 1.523 . S
C594 C578 1.368 . S
C594 C590 1.368 . S
C594 C593 1.523 . S
H595 C570 0.950 . S
H596 C572 0.950 . S
H597 C573 0.949 . S
H598 C575 0.950 . S
H599 C577 0.950 . S
C600 C601 1.349 . S
C600 C602 1.327 . S
C600 H625 0.950 . S
C601 C600 1.349 . S
C601 C617 1.349 . S
C602 C600 1.327 . S
C602 C621 1.429 . S
C602 H626 0.950 . S
C603 C620 1.574 . S
C603 C622 1.368 . S
C603 H627 0.949 . S
H604 C608 0.949 . S
C605 C606 1.349 . S
C605 C607 1.327 . S
C605 H628 0.950 . S
C606 C605 1.349 . S
C606 C618 1.349 . S
C607 C605 1.327 . S
C607 C623 1.429 . S
C607 H629 0.950 . S
C608 H604 0.949 . S
C608 C616 1.574 . S
C608 C624 1.368 . S
H609 C617 0.950 . S
H610 C615 0.950 . S
H611 C616 0.949 . S
H612 C618 0.950 . S
H613 C619 0.950 . S
H614 C620 0.949 . S
C615 H610 0.950 . S
C615 C617 1.327 . S
C615 C621 1.429 . S
C616 C608 1.574 . S
C616 H611 0.949 . S
C616 C622 1.368 . S
C617 C601 1.349 . S
C617 H609 0.950 . S
C617 C615 1.327 . S
C618 C606 1.349 . S
C618 H612 0.950 . S
C618 C619 1.327 . S
C619 H613 0.950 . S
C619 C618 1.327 . S
C619 C623 1.429 . S
C620 C603 1.574 . S
C620 H614 0.949 . S
C620 C624 1.368 . S
C621 C602 1.429 . S
C621 C615 1.429 . S
C621 C622 1.523 . S
C622 C603 1.368 . S
C622 C616 1.368 . S
C622 C621 1.523 . S
C623 C607 1.429 . S
C623 C619 1.429 . S
C623 C624 1.523 . S
C624 C608 1.368 . S
C624 C620 1.368 . S
C624 C623 1.523 . S
H625 C600 0.950 . S
H626 C602 0.950 . S
H627 C603 0.949 . S
H628 C605 0.950 . S
H629 C607 0.950 . S
C630 C631 1.349 . S
C630 C632 1.327 . S
C630 H655 0.950 . S
C631 C630 1.349 . S
C631 C647 1.349 . S
C632 C630 1.327 . S
C632 C651 1.429 . S
C632 H656 0.950 . S
C633 C650 1.574 . S
C633 C652 1.368 . S
C633 H657 0.949 . S
H634 C638 0.949 . S
C635 C636 1.349 . S
C635 C637 1.327 . S
C635 H658 0.950 . S
C636 C635 1.349 . S
C636 C648 1.349 . S
C637 C635 1.327 . S
C637 C653 1.429 . S
C637 H659 0.950 . S
C638 H634 0.949 . S
C638 C646 1.574 . S
C638 C654 1.368 . S
H639 C647 0.950 . S
H640 C645 0.950 . S
H641 C646 0.949 . S
H642 C648 0.950 . S
H643 C649 0.950 . S
H644 C650 0.949 . S
C645 H640 0.950 . S
C645 C647 1.327 . S
C645 C651 1.429 . S
C646 C638 1.574 . S
C646 H641 0.949 . S
C646 C652 1.368 . S
C647 C631 1.349 . S
C647 H639 0.950 . S
C647 C645 1.327 . S
C648 C636 1.349 . S
C648 H642 0.950 . S
C648 C649 1.327 . S
C649 H643 0.950 . S
C649 C648 1.327 . S
C649 C653 1.429 . S
C650 C633 1.574 . S
C650 H644 0.949 . S
C650 C654 1.368 . S
C651 C632 1.429 . S
C651 C645 1.429 . S
C651 C652 1.523 . S
C652 C633 1.368 . S
C652 C646 1.368 . S
C652 C651 1.523 . S
C653 C637 1.429 . S
C653 C649 1.429 . S
C653 C654 1.523 . S
C654 C638 1.368 . S
C654 C650 1.368 . S
C654 C653 1.523 . S
H655 C630 0.950 . S
H656 C632 0.950 . S
H657 C633 0.949 . S
H658 C635 0.950 . S
H659 C637 0.950 . S
C660 C661 1.349 . S
C660 C662 1.327 . S
C660 H685 0.950 . S
C661 C660 1.349 . S
C661 C677 1.349 . S
C662 C660 1.327 . S
C662 C681 1.429 . S
C662 H686 0.950 . S
C663 C680 1.574 . S
C663 C682 1.368 . S
C663 H687 0.949 . S
H664 C668 0.949 . S
C665 C666 1.349 . S
C665 C667 1.327 . S
C665 H688 0.950 . S
C666 C665 1.349 . S
C666 C678 1.349 . S
C667 C665 1.327 . S
C667 C683 1.429 . S
C667 H689 0.950 . S
C668 H664 0.949 . S
C668 C676 1.574 . S
C668 C684 1.368 . S
H669 C677 0.950 . S
H670 C675 0.950 . S
H671 C676 0.949 . S
H672 C678 0.950 . S
H673 C679 0.950 . S
H674 C680 0.949 . S
C675 H670 0.950 . S
C675 C677 1.327 . S
C675 C681 1.429 . S
C676 C668 1.574 . S
C676 H671 0.949 . S
C676 C682 1.368 . S
C677 C661 1.349 . S
C677 H669 0.950 . S
C677 C675 1.327 . S
C678 C666 1.349 . S
C678 H672 0.950 . S
C678 C679 1.327 . S
C679 H673 0.950 . S
C679 C678 1.327 . S
C679 C683 1.429 . S
C680 C663 1.574 . S
C680 H674 0.949 . S
C680 C684 1.368 . S
C681 C662 1.429 . S
C681 C675 1.429 . S
C681 C682 1.523 . S
C682 C663 1.368 . S
C682 C676 1.368 . S
C682 C681 1.523 . S
C683 C667 1.429 . S
C683 C679 1.429 . S
C683 C684 1.523 . S
C684 C668 1.368 . S
C684 C680 1.368 . S
C684 C683 1.523 . S
H685 C660 0.950 . S
H686 C662 0.950 . S
H687 C663 0.949 . S
H688 C665 0.950 . S
H689 C667 0.950 . S
C690 C691 1.349 . S
C690 C692 1.327 . S
C690 H715 0.950 . S
C691 C690 1.349 . S
C691 C707 1.349 . S
C692 C690 1.327 . S
C692 C711 1.429 . S
C692 H716 0.950 . S
C693 C710 1.574 . S
C693 C712 1.368 . S
C693 H717 0.949 . S
H694 C698 0.949 . S
C695 C696 1.349 . S
C695 C697 1.327 . S
C695 H718 0.950 . S
C696 C695 1.349 . S
C696 C708 1.349 . S
C697 C695 1.327 . S
C697 C713 1.429 . S
C697 H719 0.950 . S
C698 H694 0.949 . S
C698 C706 1.574 . S
C698 C714 1.368 . S
H699 C707 0.950 . S
H700 C705 0.950 . S
H701 C706 0.949 . S
H702 C708 0.950 . S
H703 C709 0.950 . S
H704 C710 0.949 . S
C705 H700 0.950 . S
C705 C707 1.327 . S
C705 C711 1.429 . S
C706 C698 1.574 . S
C706 H701 0.949 . S
C706 C712 1.368 . S
C707 C691 1.349 . S
C707 H699 0.950 . S
C707 C705 1.327 . S
C708 C696 1.349 . S
C708 H702 0.950 . S
C708 C709 1.327 . S
C709 H703 0.950 . S
C709 C708 1.327 . S
C709 C713 1.429 . S
C710 C693 1.574 . S
C710 H704 0.949 . S
C710 C714 1.368 . S
C711 C692 1.429 . S
C711 C705 1.429 . S
C711 C712 1.523 . S
C712 C693 1.368 . S
C712 C706 1.368 . S
C712 C711 1.523 . S
C713 C697 1.429 . S
C713 C709 1.429 . S
C713 C714 1.523 . S
C714 C698 1.368 . S
C714 C710 1.368 . S
C714 C713 1.523 . S
H715 C690 0.950 . S
H716 C692 0.950 . S
H717 C693 0.949 . S
H718 C695 0.950 . S
H719 C697 0.950 . S
C720 C721 1.349 . S
C720 C722 1.327 . S
C720 H745 0.950 . S
C721 C720 1.349 . S
C721 C737 1.349 . S
C722 C720 1.327 . S
C722 C741 1.429 . S
C722 H746 0.950 . S
C723 C740 1.574 . S
C723 C742 1.368 . S
C723 H747 0.949 . S
H724 C728 0.949 . S
C725 C726 1.349 . S
C725 C727 1.327 . S
C725 H748 0.950 . S
C726 C725 1.349 . S
C726 C738 1.349 . S
C727 C725 1.327 . S
C727 C743 1.429 . S
C727 H749 0.950 . S
C728 H724 0.949 . S
C728 C736 1.574 . S
C728 C744 1.368 . S
H729 C737 0.950 . S
H730 C735 0.950 . S
H731 C736 0.949 . S
H732 C738 0.950 . S
H733 C739 0.950 . S
H734 C740 0.949 . S
C735 H730 0.950 . S
C735 C737 1.327 . S
C735 C741 1.429 . S
C736 C728 1.574 . S
C736 H731 0.949 . S
C736 C742 1.368 . S
C737 C721 1.349 . S
C737 H729 0.950 . S
C737 C735 1.327 . S
C738 C726 1.349 . S
C738 H732 0.950 . S
C738 C739 1.327 . S
C739 H733 0.950 . S
C739 C738 1.327 . S
C739 C743 1.429 . S
C740 C723 1.574 . S
C740 H734 0.949 . S
C740 C744 1.368 . S
C741 C722 1.429 . S
C741 C735 1.429 . S
C741 C742 1.523 . S
C742 C723 1.368 . S
C742 C736 1.368 . S
C742 C741 1.523 . S
C743 C727 1.429 . S
C743 C739 1.429 . S
C743 C744 1.523 . S
C744 C728 1.368 . S
C744 C740 1.368 . S
C744 C743 1.523 . S
H745 C720 0.950 . S
H746 C722 0.950 . S
H747 C723 0.949 . S
H748 C725 0.950 . S
H749 C727 0.950 . S
C750 C751 1.349 . S
C750 C752 1.327 . S
C750 H775 0.950 . S
C751 C750 1.349 . S
C751 C767 1.349 . S
C752 C750 1.327 . S
C752 C771 1.429 . S
C752 H776 0.950 . S
C753 C770 1.574 . S
C753 C772 1.368 . S
C753 H777 0.949 . S
H754 C758 0.949 . S
C755 C756 1.349 . S
C755 C757 1.327 . S
C755 H778 0.950 . S
C756 C755 1.349 . S
C756 C768 1.349 . S
C757 C755 1.327 . S
C757 C773 1.429 . S
C757 H779 0.950 . S
C758 H754 0.949 . S
C758 C766 1.574 . S
C758 C774 1.368 . S
H759 C767 0.950 . S
H760 C765 0.950 . S
H761 C766 0.949 . S
H762 C768 0.950 . S
H763 C769 0.950 . S
H764 C770 0.949 . S
C765 H760 0.950 . S
C765 C767 1.327 . S
C765 C771 1.429 . S
C766 C758 1.574 . S
C766 H761 0.949 . S
C766 C772 1.368 . S
C767 C751 1.349 . S
C767 H759 0.950 . S
C767 C765 1.327 . S
C768 C756 1.349 . S
C768 H762 0.950 . S
C768 C769 1.327 . S
C769 H763 0.950 . S
C769 C768 1.327 . S
C769 C773 1.429 . S
C770 C753 1.574 . S
C770 H764 0.949 . S
C770 C774 1.368 . S
C771 C752 1.429 . S
C771 C765 1.429 . S
C771 C772 1.523 . S
C772 C753 1.368 . S
C772 C766 1.368 . S
C772 C771 1.523 . S
C773 C757 1.429 . S
C773 C769 1.429 . S
C773 C774 1.523 . S
C774 C758 1.368 . S
C774 C770 1.368 . S
C774 C773 1.523 . S
H775 C750 0.950 . S
H776 C752 0.950 . S
H777 C753 0.949 . S
H778 C755 0.950 . S
H779 C757 0.950 . S
C241 C122 0.887 . S
C246 C2 0.887 . S
C271 C162 0.886 . S
C276 C42 0.886 . S
C301 C202 0.887 . S
C306 C82 0.887 . S
C331 C26 0.485 . S
C336 C97 0.577 . S
C361 C57 0.577 . S
C366 C146 0.485 . S
C391 C106 0.485 . S
C396 C177 0.577 . S
C421 C137 0.577 . S
C426 C226 0.485 . S
C451 C186 0.485 . S
C456 C17 0.577 . S
C481 C217 0.577 . S
C486 C66 0.485 . S
C511 C23 0.489 . S
C516 C143 0.488 . S
C541 C63 0.489 . S
C546 C183 0.489 . S
C571 C103 0.490 . S
C576 C223 0.489 . S
C601 C24 4.005 . S
C606 C64 4.005 . S
C631 C53 3.607 . S
C636 C93 3.607 . S
C661 C104 4.005 1_655 S
C666 C144 4.005 . S
C691 C133 3.607 . S
C696 C173 3.607 . S
C721 C184 4.005 . S
C726 C224 4.005 1_655 S
C751 C213 3.607 . S
C756 C13 3.607 . S
