# Generated by pormake.
# Topology umm, (4)-cn, num edge types: 1
# Building blocks:
#     Node 0, Type 0, BuildingBlock: MUDLON_clean_sbu_0, # of connection points: 4
#     Node 1, Type 0, BuildingBlock: MUDLON_clean_sbu_0, # of connection points: 4
#     Node 2, Type 0, BuildingBlock: MUDLON_clean_sbu_0, # of connection points: 4
#     Node 3, Type 0, BuildingBlock: MUDLON_clean_sbu_0, # of connection points: 4
#     Node 4, Type 0, BuildingBlock: MUDLON_clean_sbu_0, # of connection points: 4
#     Node 5, Type 0, BuildingBlock: MUDLON_clean_sbu_0, # of connection points: 4
#     Node 6, Type 0, BuildingBlock: MUDLON_clean_sbu_0, # of connection points: 4
#     Node 7, Type 0, BuildingBlock: MUDLON_clean_sbu_0, # of connection points: 4
#     Node 8, Type 0, BuildingBlock: MUDLON_clean_sbu_0, # of connection points: 4
#     Node 9, Type 0, BuildingBlock: MUDLON_clean_sbu_0, # of connection points: 4
#     Node 10, Type 0, BuildingBlock: MUDLON_clean_sbu_0, # of connection points: 4
#     Node 11, Type 0, BuildingBlock: MUDLON_clean_sbu_0, # of connection points: 4
#     Edge 12, Type (0, 0), BuildingBlock: KIFKEQ_clean_linker_1, # of connection points: 2
#     Edge 13, Type (0, 0), BuildingBlock: KIFKEQ_clean_linker_1, # of connection points: 2
#     Edge 14, Type (0, 0), BuildingBlock: KIFKEQ_clean_linker_1, # of connection points: 2
#     Edge 15, Type (0, 0), BuildingBlock: KIFKEQ_clean_linker_1, # of connection points: 2
#     Edge 16, Type (0, 0), BuildingBlock: KIFKEQ_clean_linker_1, # of connection points: 2
#     Edge 17, Type (0, 0), BuildingBlock: KIFKEQ_clean_linker_1, # of connection points: 2
#     Edge 18, Type (0, 0), BuildingBlock: KIFKEQ_clean_linker_1, # of connection points: 2
#     Edge 19, Type (0, 0), BuildingBlock: KIFKEQ_clean_linker_1, # of connection points: 2
#     Edge 20, Type (0, 0), BuildingBlock: KIFKEQ_clean_linker_1, # of connection points: 2
#     Edge 21, Type (0, 0), BuildingBlock: KIFKEQ_clean_linker_1, # of connection points: 2
#     Edge 22, Type (0, 0), BuildingBlock: KIFKEQ_clean_linker_1, # of connection points: 2
#     Edge 23, Type (0, 0), BuildingBlock: KIFKEQ_clean_linker_1, # of connection points: 2
#     Edge 24, Type (0, 0), BuildingBlock: KIFKEQ_clean_linker_1, # of connection points: 2
#     Edge 25, Type (0, 0), BuildingBlock: KIFKEQ_clean_linker_1, # of connection points: 2
#     Edge 26, Type (0, 0), BuildingBlock: KIFKEQ_clean_linker_1, # of connection points: 2
#     Edge 27, Type (0, 0), BuildingBlock: KIFKEQ_clean_linker_1, # of connection points: 2
#     Edge 28, Type (0, 0), BuildingBlock: KIFKEQ_clean_linker_1, # of connection points: 2
#     Edge 29, Type (0, 0), BuildingBlock: KIFKEQ_clean_linker_1, # of connection points: 2
#     Edge 30, Type (0, 0), BuildingBlock: KIFKEQ_clean_linker_1, # of connection points: 2
#     Edge 31, Type (0, 0), BuildingBlock: KIFKEQ_clean_linker_1, # of connection points: 2
#     Edge 32, Type (0, 0), BuildingBlock: KIFKEQ_clean_linker_1, # of connection points: 2
#     Edge 33, Type (0, 0), BuildingBlock: KIFKEQ_clean_linker_1, # of connection points: 2
#     Edge 34, Type (0, 0), BuildingBlock: KIFKEQ_clean_linker_1, # of connection points: 2
#     Edge 35, Type (0, 0), BuildingBlock: KIFKEQ_clean_linker_1, # of connection points: 2
# Relax obj value: 0.065
# Max RMSD: 0.172
# Mean RMSD: 0.172
data_MOF--net-umm--node1-MUDLON_clean_sbu_0--edge1-KIFKEQ_clean_linker_1
_symmetry_space_group_name_H-M    P1
_symmetry_Int_Tables_number       1
_symmetry_cell_setting            triclinic
loop_
_symmetry_equiv_pos_as_xyz
'x, y, z'
_cell_length_a     59.287305
_cell_length_b     59.286172
_cell_length_c     30.075346
_cell_angle_alpha  90.068189
_cell_angle_beta   89.905826
_cell_angle_gamma 120.15359
loop_
_atom_site_label
_atom_site_type_symbol
_atom_site_fract_x
_atom_site_fract_y
_atom_site_fract_z
_atom_type_partial_charge
Mg0 Mg 0.40868 0.54914 0.10165 0.0
C1 C 0.45557 0.54451 0.09596 0.0
O2 O 0.46398 0.56937 0.08895 0.0
C3 C 0.35206 0.53319 0.10448 0.0
O4 O 0.36206 0.55382 0.13041 0.0
C5 C 0.40852 0.55744 0.1991 0.0
O6 O 0.39421 0.53195 0.19544 0.0
O7 O 0.4172 0.57096 0.16379 0.0
O8 O 0.43128 0.52932 0.10281 0.0
O9 O 0.42132 0.57259 0.04146 0.0
C10 C 0.41247 0.55858 1.00668 0.0
O11 O 0.39755 0.53323 1.01147 0.0
O12 O 0.36678 0.52477 0.0907 0.0
Mg13 Mg 0.87351 0.40862 0.42432 0.0
C14 C 0.92368 0.45727 0.42476 0.0
O15 O 0.90595 0.46436 0.42305 0.0
C16 C 0.83442 0.35127 0.4257 0.0
O17 O 0.82399 0.35987 0.45488 0.0
C18 C 0.86454 0.40705 0.52192 0.0
O19 O 0.87649 0.39355 0.51773 0.0
O20 O 0.85932 0.4156 0.48692 0.0
O21 O 0.91601 0.43299 0.4262 0.0
O22 O 0.8619 0.42093 0.36484 0.0
C23 C 0.87523 0.42142 0.33125 0.0
O24 O 0.89406 0.41615 0.33718 0.0
O25 O 0.85699 0.3671 0.41039 0.0
Mg26 Mg 0.48644 0.86512 0.76861 0.0
C27 C 0.49086 0.91663 0.76233 0.0
O28 O 0.46622 0.90012 0.75351 0.0
C29 C 0.50369 0.82536 0.77022 0.0
O30 O 0.48349 0.81423 0.79705 0.0
C31 C 0.47831 0.85643 0.86607 0.0
O32 O 0.50382 0.86809 0.86229 0.0
O33 O 0.46473 0.8513 0.83082 0.0
O34 O 0.50589 0.90759 0.77051 0.0
O35 O 0.46303 0.85422 0.70838 0.0
C36 C 0.47721 0.86006 0.67367 0.0
O37 O 0.5026 0.87114 0.67863 0.0
O38 O 0.51134 0.8484 0.7566 0.0
Mg39 Mg 0.63393 0.47832 0.09809 0.0
C40 C 0.58649 0.48225 0.09359 0.0
O41 O 0.57819 0.45745 0.08614 0.0
C42 C 0.69094 0.49558 0.09848 0.0
O43 O 0.68169 0.47488 0.12412 0.0
C44 C 0.63481 0.47023 0.19557 0.0
O45 O 0.64861 0.49575 0.19197 0.0
O46 O 0.62627 0.45668 0.16025 0.0
O47 O 0.61078 0.49754 0.10018 0.0
O48 O 0.62132 0.45469 0.03805 0.0
C49 C 0.62962 0.46866 1.00315 0.0
O50 O 0.64391 0.4941 1.00774 0.0
O51 O 0.67561 0.5035 0.08592 0.0
Mg52 Mg 0.17272 0.62152 0.43755 0.0
C53 C 0.11419 0.59803 0.41432 0.0
O54 O 0.12305 0.61429 0.38059 0.0
C55 C 0.21116 0.67913 0.43631 0.0
O56 O 0.22224 0.67129 0.46549 0.0
C57 C 0.18198 0.62515 0.53538 0.0
O58 O 0.1697 0.63825 0.5302 0.0
O59 O 0.18734 0.61618 0.50097 0.0
O60 O 0.13026 0.59815 0.44241 0.0
O61 O 0.18523 0.60851 0.37958 0.0
C62 C 0.16884 0.58973 0.3556 0.0
O63 O 0.14481 0.57534 0.37005 0.0
O64 O 0.1886 0.66271 0.42177 0.0
Mg65 Mg 0.55608 0.16117 0.7656 0.0
C66 C 0.55265 0.10998 0.76481 0.0
O67 O 0.5777 0.12675 0.76048 0.0
C68 C 0.53481 0.1981 0.7665 0.0
O69 O 0.55167 0.20818 0.79921 0.0
C70 C 0.56146 0.16798 0.86407 0.0
O71 O 0.53606 0.15355 0.85911 0.0
O72 O 0.57577 0.17542 0.82943 0.0
O73 O 0.537 0.11873 0.76817 0.0
O74 O 0.58216 0.17172 0.70848 0.0
C75 C 0.5841 0.18878 0.68064 0.0
O76 O 0.57303 0.20265 0.6898 0.0
O77 O 0.53064 0.17673 0.74926 0.0
Mg78 Mg 0.48672 0.62582 0.60193 0.0
C79 C 0.4908 0.57851 0.60631 0.0
O80 O 0.46598 0.57017 0.61358 0.0
C81 C 0.50423 0.68298 0.60056 0.0
O82 O 0.48429 0.674 0.57324 0.0
C83 C 0.47879 0.62653 0.50445 0.0
O84 O 0.50432 0.64012 0.50813 0.0
O85 O 0.46517 0.61817 0.53973 0.0
O86 O 0.50609 0.60281 0.59986 0.0
O87 O 0.46303 0.61303 0.66189 0.0
C88 C 0.47703 0.62119 0.69675 0.0
O89 O 0.50247 0.63538 0.69208 0.0
O90 O 0.51165 0.66749 0.61441 0.0
Mg91 Mg 0.8723 0.47967 0.9282 0.0
C92 C 0.92372 0.48332 0.93264 0.0
O93 O 0.90712 0.45838 0.9387 0.0
C94 C 0.83533 0.50086 0.92587 0.0
O95 O 0.82483 0.48309 0.89453 0.0
C96 C 0.86502 0.47383 0.82989 0.0
O97 O 0.87803 0.49931 0.83469 0.0
O98 O 0.85863 0.45963 0.86456 0.0
O99 O 0.91479 0.49866 0.92682 0.0
O100 O 0.86093 0.45385 0.98579 0.0
C101 C 0.84514 0.4539 1.01448 0.0
O102 O 0.83293 0.46671 1.00578 0.0
O103 O 0.857 0.50561 0.94254 0.0
Mg104 Mg 0.40952 0.86635 0.26909 0.0
C105 C 0.45558 0.91839 0.25771 0.0
O106 O 0.4642 0.9022 0.25 0.0
C107 C 0.3529 0.82478 0.268 0.0
O108 O 0.36264 0.8145 0.24078 0.0
C109 C 0.40919 0.85771 0.17154 0.0
O110 O 0.39536 0.86936 0.1751 0.0
O111 O 0.41759 0.85267 0.20689 0.0
O112 O 0.43147 0.9089 0.26668 0.0
O113 O 0.42329 0.85651 0.32883 0.0
C114 C 0.41464 0.86171 0.36383 0.0
O115 O 0.39959 0.87194 0.35939 0.0
O116 O 0.36768 0.84795 0.28188 0.0
Mg117 Mg 0.55716 0.40033 0.59844 0.0
C118 C 0.55293 0.4475 0.60413 0.0
O119 O 0.57774 0.45581 0.6114 0.0
C120 C 0.54054 0.34353 0.59684 0.0
O121 O 0.56147 0.35324 0.57163 0.0
C122 C 0.56541 0.39986 0.50093 0.0
O123 O 0.53991 0.38566 0.50459 0.0
O124 O 0.57892 0.40852 0.53623 0.0
O125 O 0.53769 0.42324 0.59712 0.0
O126 O 0.58065 0.41283 0.65859 0.0
C127 C 0.56665 0.40415 0.69344 0.0
O128 O 0.54126 0.38944 0.68876 0.0
O129 O 0.53224 0.35852 0.60968 0.0
Mg130 Mg 0.16917 0.55179 0.94197 0.0
C131 C 0.11747 0.54713 0.94182 0.0
O132 O 0.13374 0.57202 0.94919 0.0
C133 C 0.20719 0.53181 0.93976 0.0
O134 O 0.21751 0.54966 0.90854 0.0
C135 C 0.1787 0.55939 0.84478 0.0
O136 O 0.16598 0.53387 0.84898 0.0
O137 O 0.18419 0.57326 0.87979 0.0
O138 O 0.12675 0.53201 0.93688 0.0
O139 O 0.17779 0.57533 1.00193 0.0
C140 C 0.19628 0.5788 0.02769 0.0
O141 O 0.21302 0.57191 1.0141 0.0
O142 O 0.18542 0.52671 0.95659 0.0
Mg143 Mg 0.63074 0.16487 0.26905 0.0
C144 C 0.58456 0.1128 0.25805 0.0
O145 O 0.57603 0.12898 0.2497 0.0
C146 C 0.68719 0.20663 0.26516 0.0
O147 O 0.67658 0.21728 0.24096 0.0
C148 C 0.63099 0.17401 0.17191 0.0
O149 O 0.64656 0.16432 0.1756 0.0
O150 O 0.62147 0.1778 0.2072 0.0
O151 O 0.6086 0.12229 0.26743 0.0
O152 O 0.61892 0.17555 0.33048 0.0
C153 C 0.6297 0.17186 0.36412 0.0
O154 O 0.64513 0.16222 0.35757 0.0
O155 O 0.67293 0.18316 0.27808 0.0
H156 H 0.44126 0.60906 0.2199 0.0
H157 H 0.39292 0.53338 0.2797 0.0
H158 H 0.45614 0.62803 0.29369 0.0
H159 H 0.40815 0.55214 0.35301 0.0
H160 H 0.42696 0.59525 0.48361 0.0
H161 H 0.40786 0.58081 0.4098 0.0
H162 H 0.48417 0.62667 0.35052 0.0
H163 H 0.50307 0.64149 0.42385 0.0
C164 C 0.43366 0.5965 0.24874 0.0
C165 C 0.41602 0.56966 0.2438 0.0
C166 C 0.4423 0.60735 0.29106 0.0
C167 C 0.43347 0.59161 0.3294 0.0
C168 C 0.41515 0.56494 0.3244 0.0
C169 C 0.40655 0.55413 0.2822 0.0
C170 C 0.43959 0.60249 0.45477 0.0
C171 C 0.46658 0.6194 0.45974 0.0
C172 C 0.42867 0.5941 0.41245 0.0
C173 C 0.44448 0.60244 0.37412 0.0
C174 C 0.47132 0.62006 0.37913 0.0
C175 C 0.48221 0.62842 0.42134 0.0
H176 H 0.87207 0.39018 0.60189 0.0
H177 H 0.84591 0.43972 0.54395 0.0
H178 H 0.86828 0.40462 0.67579 0.0
H179 H 0.84164 0.45387 0.61831 0.0
H180 H 0.87557 0.49924 0.75028 0.0
H181 H 0.87147 0.48113 0.67618 0.0
H182 H 0.83872 0.40392 0.7324 0.0
H183 H 0.84328 0.42218 0.80695 0.0
C184 C 0.86515 0.40391 0.60491 0.0
C185 C 0.85949 0.41394 0.56688 0.0
C186 C 0.86279 0.41205 0.64744 0.0
C187 C 0.85474 0.4305 0.65311 0.0
C188 C 0.84822 0.43989 0.61513 0.0
C189 C 0.85052 0.43167 0.5725 0.0
C190 C 0.86726 0.47835 0.74692 0.0
C191 C 0.85996 0.4622 0.78468 0.0
C192 C 0.86473 0.46793 0.70428 0.0
C193 C 0.85486 0.44106 0.69822 0.0
C194 C 0.84673 0.42475 0.73589 0.0
C195 C 0.84921 0.4352 0.77863 0.0
H196 H 0.42664 0.83681 0.88717 0.0
H197 H 0.50253 0.86545 0.94655 0.0
H198 H 0.40773 0.83275 0.96105 0.0
H199 H 0.48384 0.86195 0.01994 0.0
H200 H 0.44096 0.8378 0.1509 0.0
H201 H 0.45546 0.83306 0.07714 0.0
H202 H 0.40887 0.86226 0.01755 0.0
H203 H 0.39401 0.86643 0.09084 0.0
C204 C 0.43925 0.84205 0.91594 0.0
C205 C 0.46613 0.85162 0.91084 0.0
C206 C 0.42845 0.83987 0.95831 0.0
C207 C 0.44426 0.84717 0.99655 0.0
C208 C 0.47097 0.85585 0.99142 0.0
C209 C 0.48175 0.85804 0.94916 0.0
C210 C 0.43358 0.84291 0.12201 0.0
C211 C 0.41645 0.85265 0.12687 0.0
C212 C 0.442 0.84033 0.07971 0.0
C213 C 0.43345 0.84741 0.0413 0.0
C214 C 0.41563 0.85632 0.04622 0.0
C215 C 0.40725 0.8589 0.08841 0.0
H216 H 0.6032 0.41841 0.2163 0.0
H217 H 0.64995 0.49435 0.27624 0.0
H218 H 0.58866 0.39924 0.29007 0.0
H219 H 0.63504 0.47539 0.34954 0.0
H220 H 0.61709 0.43234 0.48008 0.0
H221 H 0.63611 0.44721 0.40628 0.0
H222 H 0.56016 0.39963 0.34701 0.0
H223 H 0.54135 0.3844 0.42032 0.0
C224 C 0.61053 0.43099 0.24517 0.0
C225 C 0.62761 0.45795 0.24026 0.0
C226 C 0.60208 0.42003 0.28748 0.0
C227 C 0.61054 0.43577 0.32586 0.0
C228 C 0.62834 0.46258 0.3209 0.0
C229 C 0.63676 0.47351 0.2787 0.0
C230 C 0.60453 0.42482 0.45124 0.0
C231 C 0.57766 0.4073 0.45621 0.0
C232 C 0.6154 0.43346 0.40892 0.0
C233 C 0.59967 0.42475 0.37059 0.0
C234 C 0.57296 0.40654 0.37561 0.0
C235 C 0.56212 0.39794 0.41782 0.0
H236 H 0.17297 0.64192 0.61443 0.0
H237 H 0.20209 0.59406 0.55946 0.0
H238 H 0.17638 0.6281 0.68897 0.0
H239 H 0.20601 0.58059 0.63446 0.0
H240 H 0.17073 0.53455 0.76508 0.0
H241 H 0.17578 0.55278 0.69098 0.0
H242 H 0.20498 0.62947 0.74768 0.0
H243 H 0.19942 0.61104 0.82232 0.0
C244 C 0.18048 0.62873 0.61825 0.0
C245 C 0.18702 0.61891 0.58083 0.0
C246 C 0.18262 0.62094 0.66116 0.0
C247 C 0.19134 0.6031 0.66785 0.0
C248 C 0.19886 0.59406 0.63051 0.0
C249 C 0.19675 0.6019 0.5875 0.0
C250 C 0.17847 0.55536 0.76186 0.0
C251 C 0.18446 0.57129 0.79976 0.0
C252 C 0.18157 0.56587 0.71921 0.0
C253 C 0.19072 0.59261 0.71321 0.0
C254 C 0.19756 0.60873 0.75108 0.0
C255 C 0.19451 0.5982 0.79387 0.0
H256 H 0.59426 0.18756 0.15052 0.0
H257 H 0.64978 0.16942 0.09164 0.0
H258 H 0.579 0.19032 0.07632 0.0
H259 H 0.63427 0.17165 0.01795 0.0
H260 H 0.61328 0.19372 0.88738 0.0
H261 H 0.63171 0.1995 0.96196 0.0
H262 H 0.55401 0.15995 0.01768 0.0
H263 H 0.53569 0.15466 0.94355 0.0
C264 C 0.60337 0.18439 0.12181 0.0
C265 C 0.62315 0.17812 0.12711 0.0
C266 C 0.59452 0.18581 0.07926 0.0
C267 C 0.6053 0.18108 0.04105 0.0
C268 C 0.6257 0.17572 0.04646 0.0
C269 C 0.63448 0.17425 0.08888 0.0
C270 C 0.60016 0.18653 0.9156 0.0
C271 C 0.573 0.17357 0.90937 0.0
C272 C 0.61071 0.18972 0.95837 0.0
C273 C 0.59436 0.18007 0.99593 0.0
C274 C 0.56723 0.16791 0.9897 0.0
C275 C 0.55671 0.16471 0.94702 0.0
H276 H 0.33204 0.50422 0.02854 0.0
H277 H 0.3135 0.54176 0.13405 0.0
H278 H 0.293 0.49655 0.98824 0.0
H279 H 0.27466 0.53414 0.09384 0.0
H280 H 0.1999 0.50877 0.02159 0.0
H281 H 0.23124 0.50183 0.06326 0.0
H282 H 0.2831 0.52789 0.95003 0.0
H283 H 0.25183 0.53476 0.90838 0.0
C284 C 0.31931 0.51024 0.04369 0.0
C285 C 0.32599 0.52378 0.08439 0.0
C286 C 0.29705 0.50601 0.02042 0.0
C287 C 0.28083 0.51491 0.03764 0.0
C288 C 0.28659 0.52684 0.07976 0.0
C289 C 0.30896 0.53133 0.10274 0.0
C290 C 0.21768 0.51238 1.00517 0.0
C291 C 0.22345 0.52254 0.96173 0.0
C292 C 0.23572 0.50857 0.02919 0.0
C293 C 0.25976 0.51452 1.01013 0.0
C294 C 0.26469 0.52292 0.96564 0.0
C295 C 0.2468 0.52699 0.9418 0.0
H296 H 0.84097 0.33458 0.34414 0.0
H297 H 0.7896 0.31019 0.45803 0.0
H298 H 0.80885 0.29605 0.30326 0.0
H299 H 0.75766 0.27175 0.4173 0.0
H300 H 0.70792 0.19808 0.34037 0.0
H301 H 0.74741 0.22975 0.37961 0.0
H302 H 0.76486 0.28531 0.27381 0.0
H303 H 0.72546 0.2538 0.23475 0.0
C304 C 0.82316 0.32066 0.36089 0.0
C305 C 0.81776 0.32554 0.40428 0.0
C306 C 0.80469 0.29869 0.33733 0.0
C307 C 0.78062 0.28094 0.3569 0.0
C308 C 0.77606 0.28491 0.40134 0.0
C309 C 0.79434 0.30702 0.42465 0.0
C310 C 0.72054 0.2168 0.32494 0.0
C311 C 0.71347 0.22348 0.28452 0.0
C312 C 0.74306 0.235 0.34759 0.0
C313 C 0.75919 0.2601 0.32998 0.0
C314 C 0.753 0.26609 0.28814 0.0
C315 C 0.73034 0.24806 0.26583 0.0
H316 H 0.53075 0.83475 0.69197 0.0
H317 H 0.4974 0.77893 0.79902 0.0
H318 H 0.53832 0.8039 0.64971 0.0
H319 H 0.50504 0.74823 0.75689 0.0
H320 H 0.53058 0.70035 0.67941 0.0
H321 H 0.53787 0.73866 0.72182 0.0
H322 H 0.50574 0.76155 0.61387 0.0
H323 H 0.49838 0.72333 0.57158 0.0
C324 C 0.52569 0.8162 0.70702 0.0
C325 C 0.51329 0.80921 0.74876 0.0
C326 C 0.52987 0.79847 0.68265 0.0
C327 C 0.52211 0.77355 0.69979 0.0
C328 C 0.51143 0.76733 0.74285 0.0
C329 C 0.50694 0.78489 0.76694 0.0
C330 C 0.52571 0.71392 0.66424 0.0
C331 C 0.51371 0.70869 0.62222 0.0
C332 C 0.52973 0.73577 0.68869 0.0
C333 C 0.52221 0.75303 0.67137 0.0
C334 C 0.51194 0.74876 0.62807 0.0
C335 C 0.50761 0.72677 0.60388 0.0
H336 H 0.70947 0.52497 0.02263 0.0
H337 H 0.73064 0.48816 0.1253 0.0
H338 H 0.74834 0.53385 0.9803 0.0
H339 H 0.76934 0.49698 0.08309 0.0
H340 H 0.84341 0.52419 1.00767 0.0
H341 H 0.81207 0.53028 0.05127 0.0
H342 H 0.75883 0.50337 0.94016 0.0
H343 H 0.79008 0.49731 0.89656 0.0
C344 C 0.72274 0.51937 0.03673 0.0
C345 C 0.71686 0.50568 0.07722 0.0
C346 C 0.74491 0.52429 1.0123 0.0
C347 C 0.76184 0.51596 0.02814 0.0
C348 C 0.75685 0.50387 0.07006 0.0
C349 C 0.73457 0.49869 0.09419 0.0
C350 C 0.82531 0.52023 0.9921 0.0
C351 C 0.81914 0.51 0.94872 0.0
C352 C 0.80728 0.52355 0.01725 0.0
C353 C 0.78285 0.51706 0.99937 0.0
C354 C 0.77753 0.50872 0.95487 0.0
C355 C 0.79542 0.50514 0.92991 0.0
H356 H 0.20223 0.69532 0.35618 0.0
H357 H 0.25646 0.72074 0.46591 0.0
H358 H 0.23279 0.73404 0.31399 0.0
H359 H 0.28688 0.75932 0.42385 0.0
H360 H 0.33398 0.8329 0.346 0.0
H361 H 0.29571 0.80091 0.38756 0.0
H362 H 0.2759 0.7457 0.28022 0.0
H363 H 0.31405 0.77756 0.23877 0.0
C364 C 0.22036 0.70947 0.37176 0.0
C365 C 0.227 0.70483 0.41431 0.0
C366 C 0.23794 0.73156 0.34744 0.0
C367 C 0.26236 0.74966 0.3654 0.0
C368 C 0.26817 0.74589 0.40912 0.0
C369 C 0.25077 0.72369 0.43319 0.0
C370 C 0.32109 0.81418 0.33078 0.0
C371 C 0.32718 0.80771 0.28917 0.0
C372 C 0.29927 0.79579 0.35475 0.0
C373 C 0.28287 0.77069 0.33737 0.0
C374 C 0.28799 0.76491 0.29446 0.0
C375 C 0.30995 0.78314 0.27076 0.0
H376 H 0.53725 0.24273 0.79673 0.0
H377 H 0.51315 0.19092 0.68348 0.0
H378 H 0.5314 0.27418 0.75357 0.0
H379 H 0.50722 0.22243 0.64033 0.0
H380 H 0.54907 0.3046 0.56938 0.0
H381 H 0.54028 0.26564 0.6105 0.0
H382 H 0.50131 0.28466 0.71272 0.0
H383 H 0.51019 0.32382 0.67152 0.0
C384 C 0.53009 0.23776 0.76297 0.0
C385 C 0.52593 0.21441 0.74349 0.0
C386 C 0.52661 0.25576 0.73825 0.0
C387 C 0.51909 0.25093 0.69334 0.0
C388 C 0.51332 0.22685 0.67469 0.0
C389 C 0.51655 0.20871 0.69957 0.0
C390 C 0.5381 0.30019 0.60012 0.0
C391 C 0.53052 0.31744 0.6173 0.0
C392 C 0.53294 0.27775 0.62362 0.0
C393 C 0.52026 0.27213 0.66509 0.0
C394 C 0.51134 0.28859 0.68108 0.0
C395 C 0.51627 0.31093 0.65729 0.0
H396 H 0.50693 0.57158 0.07285 0.0
H397 H 0.44701 0.49599 0.11932 0.0
H398 H 0.53833 0.55669 0.07276 0.0
H399 H 0.47877 0.48122 0.12059 0.0
H400 H 0.53498 0.45504 0.07148 0.0
H401 H 0.50349 0.46983 0.07252 0.0
H402 H 0.56314 0.54528 0.12019 0.0
H403 H 0.59497 0.53063 0.11778 0.0
C404 C 0.50046 0.55178 0.08336 0.0
C405 C 0.4744 0.53496 0.09605 0.0
C406 C 0.51859 0.54329 0.08362 0.0
C407 C 0.51123 0.51777 0.09685 0.0
C408 C 0.48511 0.50091 0.10963 0.0
C409 C 0.46689 0.50939 0.10911 0.0
C410 C 0.54144 0.47481 0.08219 0.0
C411 C 0.56756 0.49168 0.09447 0.0
C412 C 0.52326 0.48324 0.0831 0.0
C413 C 0.53064 0.50874 0.09657 0.0
C414 C 0.55679 0.52561 0.10903 0.0
C415 C 0.57506 0.5172 0.10785 0.0
H416 H 0.96646 0.45093 0.43297 0.0
H417 H 0.94453 0.50966 0.41479 0.0
H418 H 1.01256 0.48498 0.43088 0.0
H419 H 0.99024 0.5434 0.4131 0.0
H420 H 0.07408 0.59282 0.36197 0.0
H421 H 0.0284 0.55839 0.36444 0.0
H422 H 0.04502 0.52286 0.47535 0.0
H423 H 0.09076 0.55717 0.47274 0.0
C424 C 0.97143 0.47104 0.42861 0.0
C425 C 0.95177 0.47751 0.42399 0.0
C426 C 0.99783 0.49057 0.42763 0.0
C427 C 1.00509 0.51693 0.42166 0.0
C428 C 0.98537 0.5233 0.41712 0.0
C429 C 0.95911 0.50389 0.41837 0.0
C430 C 0.068 0.57775 0.38703 0.0
C431 C 0.08612 0.57785 0.41722 0.0
C432 C 0.04178 0.55803 0.38852 0.0
C433 C 0.03305 0.53782 0.42006 0.0
C434 C 0.05115 0.53795 0.45031 0.0
C435 C 0.07734 0.55777 0.44903 0.0
H436 H 0.50339 0.06945 0.78323 0.0
H437 H 0.58092 0.08626 0.74755 0.0
H438 H 0.48877 0.0229 0.78452 0.0
H439 H 0.56622 0.03994 0.74735 0.0
H440 H 0.53823 0.95645 0.79118 0.0
H441 H 0.5528 1.00297 0.79384 0.0
H442 H 0.47955 0.98744 0.73651 0.0
H443 H 0.46478 0.9411 0.73528 0.0
C444 C 0.51727 0.06322 0.77542 0.0
C445 C 0.54331 0.0816 0.76532 0.0
C446 C 0.50888 0.0365 0.77593 0.0
C447 C 0.52631 0.02754 0.76604 0.0
C448 C 0.55234 0.04603 0.75592 0.0
C449 C 0.56073 0.07267 0.75571 0.0
C450 C 0.52528 0.96301 0.77916 0.0
C451 C 0.50035 0.94504 0.76309 0.0
C452 C 0.53365 0.98971 0.78049 0.0
C453 C 0.51734 0.99908 0.76546 0.0
C454 C 0.49247 0.98101 0.74916 0.0
C455 C 0.48407 0.95437 0.74814 0.0
H456 H 0.53925 0.58706 0.58239 0.0
H457 H 0.46357 0.52698 0.62829 0.0
H458 H 0.55392 0.55524 0.58002 0.0
H459 H 0.47838 0.4955 0.6273 0.0
H460 H 0.50454 0.43909 0.58042 0.0
H461 H 0.48984 0.47091 0.57912 0.0
H462 H 0.56522 0.5303 0.62743 0.0
H463 H 0.58004 0.49884 0.62738 0.0
C464 C 0.52581 0.56713 0.59224 0.0
C465 C 0.50025 0.5596 0.60549 0.0
C466 C 0.53423 0.54887 0.59109 0.0
C467 C 0.51733 0.5227 0.60343 0.0
C468 C 0.49181 0.5153 0.61679 0.0
C469 C 0.48337 0.53347 0.61768 0.0
C470 C 0.51793 0.45895 0.59073 0.0
C471 C 0.54345 0.46639 0.60395 0.0
C472 C 0.5095 0.4772 0.59019 0.0
C473 C 0.52635 0.50328 0.60312 0.0
C474 C 0.55183 0.51059 0.61647 0.0
C475 C 0.56028 0.49242 0.61676 0.0
H476 H 0.07813 0.49868 0.91607 0.0
H477 H 0.09244 0.57373 0.96241 0.0
H478 H 0.03152 0.48354 0.91158 0.0
H479 H 0.04604 0.55845 0.95944 0.0
H480 H 0.96397 0.53204 0.9105 0.0
H481 H 1.01061 0.54709 0.91045 0.0
H482 H 0.9943 0.47136 0.95683 0.0
H483 H 0.94787 0.45618 0.95537 0.0
C484 C 0.07132 0.51188 0.92556 0.0
C485 C 0.08903 0.5374 0.93955 0.0
C486 C 0.04457 0.50319 0.9232 0.0
C487 C 0.03489 0.51977 0.93509 0.0
C488 C 0.05271 0.54526 0.94919 0.0
C489 C 0.07939 0.55397 0.95123 0.0
C490 C 0.97038 0.51863 0.9206 0.0
C491 C 0.95217 0.49292 0.93291 0.0
C492 C 0.99715 0.52727 0.9208 0.0
C493 C 1.00635 0.51046 0.93365 0.0
C494 C 0.98803 0.48476 0.94597 0.0
C495 C 0.96133 0.4761 0.94545 0.0
H496 H 0.50692 0.94345 0.23404 0.0
H497 H 0.44639 0.95804 0.28024 0.0
H498 H 0.53793 0.99003 0.23392 0.0
H499 H 0.47772 1.00484 0.28124 0.0
H500 H 0.53347 0.08772 0.23304 0.0
H501 H 0.50246 0.04115 0.23271 0.0
H502 H 0.56213 0.02638 0.28265 0.0
H503 H 0.59348 0.07317 0.28186 0.0
C504 C 0.50021 0.9566 0.24436 0.0
C505 C 0.4741 0.94696 0.25712 0.0
C506 C 0.51812 0.98338 0.24461 0.0
C507 C 0.51046 1.0013 0.25776 0.0
C508 C 0.48428 0.99166 0.27039 0.0
C509 C 0.4663 0.96481 0.27 0.0
C510 C 0.54006 0.07458 0.24391 0.0
C511 C 0.56603 0.08423 0.25745 0.0
C512 C 0.52215 0.04781 0.24403 0.0
C513 C 0.52966 0.02989 0.25784 0.0
C514 C 0.55569 0.03954 0.27128 0.0
C515 C 0.57368 0.0664 0.27101 0.0
H516 H 0.5028 0.63702 0.77554 0.0
H517 H 0.42555 0.59007 0.72044 0.0
H518 H 0.4853 0.62388 0.84999 0.0
H519 H 0.40781 0.57734 0.7956 0.0
H520 H 0.39542 0.53285 0.928 0.0
H521 H 0.40914 0.54992 0.85346 0.0
H522 H 0.45866 0.62702 0.90754 0.0
H523 H 0.44534 0.60968 0.98277 0.0
C524 C 0.48198 0.62409 0.77932 0.0
C525 C 0.4656 0.61438 0.74195 0.0
C526 C 0.4719 0.61676 0.82218 0.0
C527 C 0.44514 0.59953 0.82889 0.0
C528 C 0.42858 0.5904 0.79157 0.0
C529 C 0.43871 0.59775 0.74852 0.0
C530 C 0.40912 0.5535 0.92413 0.0
C531 C 0.4195 0.56987 0.96143 0.0
C532 C 0.4168 0.56334 0.88121 0.0
C533 C 0.43505 0.58983 0.8744 0.0
C534 C 0.44482 0.60642 0.91166 0.0
C535 C 0.43712 0.59654 0.95475 0.0
H536 H 0.90635 0.43426 0.25852 0.0
H537 H 0.83015 0.41855 0.30086 0.0
H538 H 0.8961 0.43923 0.18244 0.0
H539 H 0.81937 0.42259 0.22385 0.0
H540 H 0.82333 0.46197 0.08844 0.0
H541 H 0.82891 0.45311 0.16529 0.0
H542 H 0.8707 0.41481 0.1211 0.0
H543 H 0.86604 0.4247 0.04421 0.0
C544 C 0.8873 0.43175 0.25149 0.0
C545 C 0.86905 0.42599 0.2857 0.0
C546 C 0.88129 0.43432 0.20767 0.0
C547 C 0.85672 0.43088 0.19668 0.0
C548 C 0.83854 0.4255 0.23108 0.0
C549 C 0.84469 0.42319 0.27521 0.0
C550 C 0.83339 0.45132 0.09503 0.0
C551 C 0.84453 0.44432 0.06017 0.0
C552 C 0.83652 0.44615 0.13924 0.0
C553 C 0.85065 0.43363 0.1496 0.0
C554 C 0.86033 0.42515 0.11447 0.0
C555 C 0.85744 0.43057 0.0703 0.0
H556 H 0.50334 0.87 0.59516 0.0
H557 H 0.42602 0.84068 0.64941 0.0
H558 H 0.48643 0.86669 0.52058 0.0
H559 H 0.40886 0.8367 0.57412 0.0
H560 H 0.39819 0.87072 0.44285 0.0
H561 H 0.41142 0.86649 0.51719 0.0
H562 H 0.45968 0.83783 0.46212 0.0
H563 H 0.44684 0.84272 0.38708 0.0
C564 C 0.48262 0.86253 0.59116 0.0
C565 C 0.46606 0.85585 0.62834 0.0
C566 C 0.47288 0.8604 0.54821 0.0
C567 C 0.44629 0.85148 0.54125 0.0
C568 C 0.42952 0.84398 0.57836 0.0
C569 C 0.43931 0.84614 0.62149 0.0
C570 C 0.41153 0.86337 0.44645 0.0
C571 C 0.42167 0.8573 0.40893 0.0
C572 C 0.41892 0.8607 0.48925 0.0
C573 C 0.43663 0.85183 0.49575 0.0
C574 C 0.44624 0.84503 0.45826 0.0
C575 C 0.43883 0.84774 0.41528 0.0
H576 H 0.54094 0.38733 0.77223 0.0
H577 H 0.61783 0.43672 0.71717 0.0
H578 H 0.5581 0.40101 0.84669 0.0
H579 H 0.63526 0.45 0.79233 0.0
H580 H 0.64569 0.49434 0.92426 0.0
H581 H 0.63247 0.47682 0.84986 0.0
H582 H 0.5854 0.39945 0.90451 0.0
H583 H 0.59821 0.41721 0.97961 0.0
C584 C 0.56162 0.4009 0.77602 0.0
C585 C 0.57798 0.41114 0.73865 0.0
C586 C 0.57152 0.40856 0.81889 0.0
C587 C 0.59806 0.42665 0.82561 0.0
C588 C 0.61463 0.43628 0.7883 0.0
C589 C 0.6047 0.4286 0.74524 0.0
C590 C 0.63264 0.47354 0.92055 0.0
C591 C 0.6228 0.4572 0.95798 0.0
C592 C 0.62524 0.46345 0.87771 0.0
C593 C 0.60784 0.43673 0.87109 0.0
C594 C 0.59859 0.4202 0.90847 0.0
C595 C 0.606 0.43033 0.95149 0.0
H596 H 0.15915 0.58522 0.07058 0.0
H597 H 0.2315 0.58588 0.09283 0.0
H598 H 0.15429 0.58825 0.15047 0.0
H599 H 0.22648 0.58884 0.17292 0.0
H600 H 0.216 0.61759 0.31288 0.0
H601 H 0.22462 0.61749 0.23331 0.0
H602 H 0.14474 0.55682 0.21281 0.0
H603 H 0.13605 0.55687 0.29191 0.0
C604 C 0.17424 0.58642 0.0924 0.0
C605 C 0.19563 0.58511 0.07525 0.0
C606 C 0.17131 0.58791 0.13823 0.0
C607 C 0.18978 0.58832 0.168 0.0
C608 C 0.21192 0.58852 0.15081 0.0
C609 C 0.21477 0.58683 0.10491 0.0
C610 C 0.20037 0.60398 0.29148 0.0
C611 C 0.17529 0.58732 0.3088 0.0
C612 C 0.20533 0.60396 0.24592 0.0
C613 C 0.18525 0.58746 0.21674 0.0
C614 C 0.16047 0.57015 0.23433 0.0
C615 C 0.15557 0.57001 0.2798 0.0
H616 H 0.58848 0.22091 0.61181 0.0
H617 H 0.60316 0.15877 0.6469 0.0
H618 H 0.60122 0.21933 0.53522 0.0
H619 H 0.6153 0.15681 0.57032 0.0
H620 H 0.6561 0.1729 0.43851 0.0
H621 H 0.64787 0.18001 0.51484 0.0
H622 H 0.58439 0.19054 0.47098 0.0
H623 H 0.59313 0.18402 0.39385 0.0
C624 C 0.59465 0.20707 0.60332 0.0
C625 C 0.59478 0.18995 0.63555 0.0
C626 C 0.60172 0.20601 0.55928 0.0
C627 C 0.60912 0.18784 0.54646 0.0
C628 C 0.61 0.17127 0.57905 0.0
C629 C 0.60297 0.17234 0.62304 0.0
C630 C 0.64042 0.17683 0.44498 0.0
C631 C 0.6251 0.17766 0.41007 0.0
C632 C 0.63564 0.1808 0.48889 0.0
C633 C 0.6153 0.18558 0.49921 0.0
C634 C 0.60037 0.18712 0.46419 0.0
C635 C 0.60526 0.18326 0.42001 0.0
loop_
_geom_bond_atom_site_label_1
_geom_bond_atom_site_label_2
_geom_bond_distance
_geom_bond_site_symmetry_2
_ccdc_geom_bond_type
Mg0 O7 2.141 . S
Mg0 O8 2.048 . S
Mg0 O9 2.048 . S
Mg0 O12 2.141 . S
C1 O2 1.313 . S
C1 O8 1.195 . S
O2 C1 1.313 . S
C3 O4 1.245 . S
C3 O12 1.289 . S
O4 C3 1.245 . S
C5 O6 1.245 . S
C5 O7 1.289 . S
O6 C5 1.245 . S
O7 Mg0 2.141 . S
O7 C5 1.289 . S
O8 Mg0 2.048 . S
O8 C1 1.195 . S
O9 Mg0 2.048 . S
O9 C10 1.195 1_554 S
C10 O9 1.195 1_556 S
C10 O11 1.313 . S
O11 C10 1.313 . S
O12 Mg0 2.141 . S
O12 C3 1.289 . S
Mg13 O20 2.141 . S
Mg13 O21 2.048 . S
Mg13 O22 2.048 . S
Mg13 O25 2.141 . S
C14 O15 1.313 . S
C14 O21 1.195 . S
O15 C14 1.313 . S
C16 O17 1.245 . S
C16 O25 1.289 . S
O17 C16 1.245 . S
C18 O19 1.245 . S
C18 O20 1.289 . S
O19 C18 1.245 . S
O20 Mg13 2.141 . S
O20 C18 1.289 . S
O21 Mg13 2.048 . S
O21 C14 1.195 . S
O22 Mg13 2.048 . S
O22 C23 1.195 . S
C23 O22 1.195 . S
C23 O24 1.313 . S
O24 C23 1.313 . S
O25 Mg13 2.141 . S
O25 C16 1.289 . S
Mg26 O33 2.141 . S
Mg26 O34 2.048 . S
Mg26 O35 2.048 . S
Mg26 O38 2.141 . S
C27 O28 1.313 . S
C27 O34 1.195 . S
O28 C27 1.313 . S
C29 O30 1.245 . S
C29 O38 1.289 . S
O30 C29 1.245 . S
C31 O32 1.245 . S
C31 O33 1.289 . S
O32 C31 1.245 . S
O33 Mg26 2.141 . S
O33 C31 1.289 . S
O34 Mg26 2.048 . S
O34 C27 1.195 . S
O35 Mg26 2.048 . S
O35 C36 1.195 . S
C36 O35 1.195 . S
C36 O37 1.313 . S
O37 C36 1.313 . S
O38 Mg26 2.141 . S
O38 C29 1.289 . S
Mg39 O46 2.141 . S
Mg39 O47 2.048 . S
Mg39 O48 2.048 . S
Mg39 O51 2.141 . S
C40 O41 1.313 . S
C40 O47 1.195 . S
O41 C40 1.313 . S
C42 O43 1.245 . S
C42 O51 1.289 . S
O43 C42 1.245 . S
C44 O45 1.245 . S
C44 O46 1.289 . S
O45 C44 1.245 . S
O46 Mg39 2.141 . S
O46 C44 1.289 . S
O47 Mg39 2.048 . S
O47 C40 1.195 . S
O48 Mg39 2.048 . S
O48 C49 1.195 1_554 S
C49 O48 1.195 1_556 S
C49 O50 1.313 . S
O50 C49 1.313 . S
O51 Mg39 2.141 . S
O51 C42 1.289 . S
Mg52 O59 2.141 . S
Mg52 O60 2.048 . S
Mg52 O61 2.048 . S
Mg52 O64 2.141 . S
C53 O54 1.313 . S
C53 O60 1.195 . S
O54 C53 1.313 . S
C55 O56 1.245 . S
C55 O64 1.289 . S
O56 C55 1.245 . S
C57 O58 1.245 . S
C57 O59 1.289 . S
O58 C57 1.245 . S
O59 Mg52 2.141 . S
O59 C57 1.289 . S
O60 Mg52 2.048 . S
O60 C53 1.195 . S
O61 Mg52 2.048 . S
O61 C62 1.195 . S
C62 O61 1.195 . S
C62 O63 1.313 . S
O63 C62 1.313 . S
O64 Mg52 2.141 . S
O64 C55 1.289 . S
Mg65 O72 2.141 . S
Mg65 O73 2.048 . S
Mg65 O74 2.048 . S
Mg65 O77 2.141 . S
C66 O67 1.313 . S
C66 O73 1.195 . S
O67 C66 1.313 . S
C68 O69 1.245 . S
C68 O77 1.289 . S
O69 C68 1.245 . S
C70 O71 1.245 . S
C70 O72 1.289 . S
O71 C70 1.245 . S
O72 Mg65 2.141 . S
O72 C70 1.289 . S
O73 Mg65 2.048 . S
O73 C66 1.195 . S
O74 Mg65 2.048 . S
O74 C75 1.195 . S
C75 O74 1.195 . S
C75 O76 1.313 . S
O76 C75 1.313 . S
O77 Mg65 2.141 . S
O77 C68 1.289 . S
Mg78 O85 2.141 . S
Mg78 O86 2.048 . S
Mg78 O87 2.048 . S
Mg78 O90 2.141 . S
C79 O80 1.313 . S
C79 O86 1.195 . S
O80 C79 1.313 . S
C81 O82 1.245 . S
C81 O90 1.289 . S
O82 C81 1.245 . S
C83 O84 1.245 . S
C83 O85 1.289 . S
O84 C83 1.245 . S
O85 Mg78 2.141 . S
O85 C83 1.289 . S
O86 Mg78 2.048 . S
O86 C79 1.195 . S
O87 Mg78 2.048 . S
O87 C88 1.195 . S
C88 O87 1.195 . S
C88 O89 1.313 . S
O89 C88 1.313 . S
O90 Mg78 2.141 . S
O90 C81 1.289 . S
Mg91 O98 2.141 . S
Mg91 O99 2.048 . S
Mg91 O100 2.048 . S
Mg91 O103 2.141 . S
C92 O93 1.313 . S
C92 O99 1.195 . S
O93 C92 1.313 . S
C94 O95 1.245 . S
C94 O103 1.289 . S
O95 C94 1.245 . S
C96 O97 1.245 . S
C96 O98 1.289 . S
O97 C96 1.245 . S
O98 Mg91 2.141 . S
O98 C96 1.289 . S
O99 Mg91 2.048 . S
O99 C92 1.195 . S
O100 Mg91 2.048 . S
O100 C101 1.195 1_556 S
C101 O100 1.195 1_554 S
C101 O102 1.313 . S
O102 C101 1.313 . S
O103 Mg91 2.141 . S
O103 C94 1.289 . S
Mg104 O111 2.141 . S
Mg104 O112 2.048 . S
Mg104 O113 2.048 . S
Mg104 O116 2.141 . S
C105 O106 1.313 . S
C105 O112 1.195 . S
O106 C105 1.313 . S
C107 O108 1.245 . S
C107 O116 1.289 . S
O108 C107 1.245 . S
C109 O110 1.245 . S
C109 O111 1.289 . S
O110 C109 1.245 . S
O111 Mg104 2.141 . S
O111 C109 1.289 . S
O112 Mg104 2.048 . S
O112 C105 1.195 . S
O113 Mg104 2.048 . S
O113 C114 1.195 . S
C114 O113 1.195 . S
C114 O115 1.313 . S
O115 C114 1.313 . S
O116 Mg104 2.141 . S
O116 C107 1.289 . S
Mg117 O124 2.141 . S
Mg117 O125 2.048 . S
Mg117 O126 2.048 . S
Mg117 O129 2.141 . S
C118 O119 1.313 . S
C118 O125 1.195 . S
O119 C118 1.313 . S
C120 O121 1.245 . S
C120 O129 1.289 . S
O121 C120 1.245 . S
C122 O123 1.245 . S
C122 O124 1.289 . S
O123 C122 1.245 . S
O124 Mg117 2.141 . S
O124 C122 1.289 . S
O125 Mg117 2.048 . S
O125 C118 1.195 . S
O126 Mg117 2.048 . S
O126 C127 1.195 . S
C127 O126 1.195 . S
C127 O128 1.313 . S
O128 C127 1.313 . S
O129 Mg117 2.141 . S
O129 C120 1.289 . S
Mg130 O137 2.141 . S
Mg130 O138 2.048 . S
Mg130 O139 2.048 . S
Mg130 O142 2.141 . S
C131 O132 1.313 . S
C131 O138 1.195 . S
O132 C131 1.313 . S
C133 O134 1.245 . S
C133 O142 1.289 . S
O134 C133 1.245 . S
C135 O136 1.245 . S
C135 O137 1.289 . S
O136 C135 1.245 . S
O137 Mg130 2.141 . S
O137 C135 1.289 . S
O138 Mg130 2.048 . S
O138 C131 1.195 . S
O139 Mg130 2.048 . S
O139 C140 1.195 1_556 S
C140 O139 1.195 1_554 S
C140 O141 1.313 . S
O141 C140 1.313 . S
O142 Mg130 2.141 . S
O142 C133 1.289 . S
Mg143 O150 2.141 . S
Mg143 O151 2.048 . S
Mg143 O152 2.048 . S
Mg143 O155 2.141 . S
C144 O145 1.313 . S
C144 O151 1.195 . S
O145 C144 1.313 . S
C146 O147 1.245 . S
C146 O155 1.289 . S
O147 C146 1.245 . S
C148 O149 1.245 . S
C148 O150 1.289 . S
O149 C148 1.245 . S
O150 Mg143 2.141 . S
O150 C148 1.289 . S
O151 Mg143 2.048 . S
O151 C144 1.195 . S
O152 Mg143 2.048 . S
O152 C153 1.195 . S
C153 O152 1.195 . S
C153 O154 1.313 . S
O154 C153 1.313 . S
O155 Mg143 2.141 . S
O155 C146 1.289 . S
H156 C164 0.950 . S
H157 C169 0.950 . S
H158 C166 0.950 . S
H159 C168 0.950 . S
H160 C170 0.950 . S
H161 C172 0.950 . S
H162 C174 0.950 . S
H163 C175 0.950 . S
C164 H156 0.950 . S
C164 C165 1.386 . S
C164 C166 1.391 . S
C165 C164 1.386 . S
C165 C169 1.393 . S
C166 H158 0.950 . S
C166 C164 1.391 . S
C166 C167 1.400 . S
C167 C166 1.400 . S
C167 C168 1.398 . S
C167 C173 1.491 . S
C168 H159 0.950 . S
C168 C167 1.398 . S
C168 C169 1.391 . S
C169 H157 0.950 . S
C169 C165 1.393 . S
C169 C168 1.391 . S
C170 H160 0.950 . S
C170 C171 1.386 . S
C170 C172 1.391 . S
C171 C170 1.386 . S
C171 C175 1.393 . S
C172 H161 0.950 . S
C172 C170 1.391 . S
C172 C173 1.400 . S
C173 C167 1.491 . S
C173 C172 1.400 . S
C173 C174 1.398 . S
C174 H162 0.950 . S
C174 C173 1.398 . S
C174 C175 1.391 . S
C175 H163 0.950 . S
C175 C171 1.393 . S
C175 C174 1.391 . S
H176 C184 0.950 . S
H177 C189 0.950 . S
H178 C186 0.950 . S
H179 C188 0.950 . S
H180 C190 0.950 . S
H181 C192 0.950 . S
H182 C194 0.950 . S
H183 C195 0.950 . S
C184 H176 0.950 . S
C184 C185 1.386 . S
C184 C186 1.391 . S
C185 C184 1.386 . S
C185 C189 1.393 . S
C186 H178 0.950 . S
C186 C184 1.391 . S
C186 C187 1.400 . S
C187 C186 1.400 . S
C187 C188 1.398 . S
C187 C193 1.491 . S
C188 H179 0.950 . S
C188 C187 1.398 . S
C188 C189 1.391 . S
C189 H177 0.950 . S
C189 C185 1.393 . S
C189 C188 1.391 . S
C190 H180 0.950 . S
C190 C191 1.386 . S
C190 C192 1.391 . S
C191 C190 1.386 . S
C191 C195 1.393 . S
C192 H181 0.950 . S
C192 C190 1.391 . S
C192 C193 1.400 . S
C193 C187 1.491 . S
C193 C192 1.400 . S
C193 C194 1.398 . S
C194 H182 0.950 . S
C194 C193 1.398 . S
C194 C195 1.391 . S
C195 H183 0.950 . S
C195 C191 1.393 . S
C195 C194 1.391 . S
H196 C204 0.950 . S
H197 C209 0.950 . S
H198 C206 0.950 . S
H199 C208 0.950 . S
H200 C210 0.950 . S
H201 C212 0.950 . S
H202 C214 0.950 . S
H203 C215 0.950 . S
C204 H196 0.950 . S
C204 C205 1.386 . S
C204 C206 1.391 . S
C205 C204 1.386 . S
C205 C209 1.393 . S
C206 H198 0.950 . S
C206 C204 1.391 . S
C206 C207 1.400 . S
C207 C206 1.400 . S
C207 C208 1.398 . S
C207 C213 1.491 1_556 S
C208 H199 0.950 . S
C208 C207 1.398 . S
C208 C209 1.391 . S
C209 H197 0.950 . S
C209 C205 1.393 . S
C209 C208 1.391 . S
C210 H200 0.950 . S
C210 C211 1.386 . S
C210 C212 1.391 . S
C211 C210 1.386 . S
C211 C215 1.393 . S
C212 H201 0.950 . S
C212 C210 1.391 . S
C212 C213 1.400 . S
C213 C207 1.491 1_554 S
C213 C212 1.400 . S
C213 C214 1.398 . S
C214 H202 0.950 . S
C214 C213 1.398 . S
C214 C215 1.391 . S
C215 H203 0.950 . S
C215 C211 1.393 . S
C215 C214 1.391 . S
H216 C224 0.950 . S
H217 C229 0.950 . S
H218 C226 0.950 . S
H219 C228 0.950 . S
H220 C230 0.950 . S
H221 C232 0.950 . S
H222 C234 0.950 . S
H223 C235 0.950 . S
C224 H216 0.950 . S
C224 C225 1.386 . S
C224 C226 1.391 . S
C225 C224 1.386 . S
C225 C229 1.393 . S
C226 H218 0.950 . S
C226 C224 1.391 . S
C226 C227 1.400 . S
C227 C226 1.400 . S
C227 C228 1.398 . S
C227 C233 1.491 . S
C228 H219 0.950 . S
C228 C227 1.398 . S
C228 C229 1.391 . S
C229 H217 0.950 . S
C229 C225 1.393 . S
C229 C228 1.391 . S
C230 H220 0.950 . S
C230 C231 1.386 . S
C230 C232 1.391 . S
C231 C230 1.386 . S
C231 C235 1.393 . S
C232 H221 0.950 . S
C232 C230 1.391 . S
C232 C233 1.400 . S
C233 C227 1.491 . S
C233 C232 1.400 . S
C233 C234 1.398 . S
C234 H222 0.950 . S
C234 C233 1.398 . S
C234 C235 1.391 . S
C235 H223 0.950 . S
C235 C231 1.393 . S
C235 C234 1.391 . S
H236 C244 0.950 . S
H237 C249 0.950 . S
H238 C246 0.950 . S
H239 C248 0.950 . S
H240 C250 0.950 . S
H241 C252 0.950 . S
H242 C254 0.950 . S
H243 C255 0.950 . S
C244 H236 0.950 . S
C244 C245 1.386 . S
C244 C246 1.391 . S
C245 C244 1.386 . S
C245 C249 1.393 . S
C246 H238 0.950 . S
C246 C244 1.391 . S
C246 C247 1.400 . S
C247 C246 1.400 . S
C247 C248 1.398 . S
C247 C253 1.491 . S
C248 H239 0.950 . S
C248 C247 1.398 . S
C248 C249 1.391 . S
C249 H237 0.950 . S
C249 C245 1.393 . S
C249 C248 1.391 . S
C250 H240 0.950 . S
C250 C251 1.386 . S
C250 C252 1.391 . S
C251 C250 1.386 . S
C251 C255 1.393 . S
C252 H241 0.950 . S
C252 C250 1.391 . S
C252 C253 1.400 . S
C253 C247 1.491 . S
C253 C252 1.400 . S
C253 C254 1.398 . S
C254 H242 0.950 . S
C254 C253 1.398 . S
C254 C255 1.391 . S
C255 H243 0.950 . S
C255 C251 1.393 . S
C255 C254 1.391 . S
H256 C264 0.950 . S
H257 C269 0.950 . S
H258 C266 0.950 . S
H259 C268 0.950 . S
H260 C270 0.950 . S
H261 C272 0.950 . S
H262 C274 0.950 . S
H263 C275 0.950 . S
C264 H256 0.950 . S
C264 C265 1.386 . S
C264 C266 1.391 . S
C265 C264 1.386 . S
C265 C269 1.393 . S
C266 H258 0.950 . S
C266 C264 1.391 . S
C266 C267 1.400 . S
C267 C266 1.400 . S
C267 C268 1.398 . S
C267 C273 1.491 1_554 S
C268 H259 0.950 . S
C268 C267 1.398 . S
C268 C269 1.391 . S
C269 H257 0.950 . S
C269 C265 1.393 . S
C269 C268 1.391 . S
C270 H260 0.950 . S
C270 C271 1.386 . S
C270 C272 1.391 . S
C271 C270 1.386 . S
C271 C275 1.393 . S
C272 H261 0.950 . S
C272 C270 1.391 . S
C272 C273 1.400 . S
C273 C267 1.491 1_556 S
C273 C272 1.400 . S
C273 C274 1.398 . S
C274 H262 0.950 . S
C274 C273 1.398 . S
C274 C275 1.391 . S
C275 H263 0.950 . S
C275 C271 1.393 . S
C275 C274 1.391 . S
H276 C284 0.950 . S
H277 C289 0.950 . S
H278 C286 0.950 . S
H279 C288 0.950 . S
H280 C290 0.950 . S
H281 C292 0.950 . S
H282 C294 0.950 . S
H283 C295 0.950 . S
C284 H276 0.950 . S
C284 C285 1.386 . S
C284 C286 1.391 . S
C285 C284 1.386 . S
C285 C289 1.393 . S
C286 H278 0.950 . S
C286 C284 1.391 . S
C286 C287 1.400 . S
C287 C286 1.400 . S
C287 C288 1.398 . S
C287 C293 1.491 1_554 S
C288 H279 0.950 . S
C288 C287 1.398 . S
C288 C289 1.391 . S
C289 H277 0.950 . S
C289 C285 1.393 . S
C289 C288 1.391 . S
C290 H280 0.950 . S
C290 C291 1.386 . S
C290 C292 1.391 . S
C291 C290 1.386 . S
C291 C295 1.393 . S
C292 H281 0.950 . S
C292 C290 1.391 . S
C292 C293 1.400 . S
C293 C287 1.491 1_556 S
C293 C292 1.400 . S
C293 C294 1.398 . S
C294 H282 0.950 . S
C294 C293 1.398 . S
C294 C295 1.391 . S
C295 H283 0.950 . S
C295 C291 1.393 . S
C295 C294 1.391 . S
H296 C304 0.950 . S
H297 C309 0.950 . S
H298 C306 0.950 . S
H299 C308 0.950 . S
H300 C310 0.950 . S
H301 C312 0.950 . S
H302 C314 0.950 . S
H303 C315 0.950 . S
C304 H296 0.950 . S
C304 C305 1.386 . S
C304 C306 1.391 . S
C305 C304 1.386 . S
C305 C309 1.393 . S
C306 H298 0.950 . S
C306 C304 1.391 . S
C306 C307 1.400 . S
C307 C306 1.400 . S
C307 C308 1.398 . S
C307 C313 1.491 . S
C308 H299 0.950 . S
C308 C307 1.398 . S
C308 C309 1.391 . S
C309 H297 0.950 . S
C309 C305 1.393 . S
C309 C308 1.391 . S
C310 H300 0.950 . S
C310 C311 1.386 . S
C310 C312 1.391 . S
C311 C310 1.386 . S
C311 C315 1.393 . S
C312 H301 0.950 . S
C312 C310 1.391 . S
C312 C313 1.400 . S
C313 C307 1.491 . S
C313 C312 1.400 . S
C313 C314 1.398 . S
C314 H302 0.950 . S
C314 C313 1.398 . S
C314 C315 1.391 . S
C315 H303 0.950 . S
C315 C311 1.393 . S
C315 C314 1.391 . S
H316 C324 0.950 . S
H317 C329 0.950 . S
H318 C326 0.950 . S
H319 C328 0.950 . S
H320 C330 0.950 . S
H321 C332 0.950 . S
H322 C334 0.950 . S
H323 C335 0.950 . S
C324 H316 0.950 . S
C324 C325 1.386 . S
C324 C326 1.391 . S
C325 C324 1.386 . S
C325 C329 1.393 . S
C326 H318 0.950 . S
C326 C324 1.391 . S
C326 C327 1.400 . S
C327 C326 1.400 . S
C327 C328 1.398 . S
C327 C333 1.491 . S
C328 H319 0.950 . S
C328 C327 1.398 . S
C328 C329 1.391 . S
C329 H317 0.950 . S
C329 C325 1.393 . S
C329 C328 1.391 . S
C330 H320 0.950 . S
C330 C331 1.386 . S
C330 C332 1.391 . S
C331 C330 1.386 . S
C331 C335 1.393 . S
C332 H321 0.950 . S
C332 C330 1.391 . S
C332 C333 1.400 . S
C333 C327 1.491 . S
C333 C332 1.400 . S
C333 C334 1.398 . S
C334 H322 0.950 . S
C334 C333 1.398 . S
C334 C335 1.391 . S
C335 H323 0.950 . S
C335 C331 1.393 . S
C335 C334 1.391 . S
H336 C344 0.950 . S
H337 C349 0.950 1_556 S
H338 C346 0.950 . S
H339 C348 0.950 . S
H340 C350 0.950 . S
H341 C352 0.950 . S
H342 C354 0.950 . S
H343 C355 0.950 1_554 S
C344 H336 0.950 . S
C344 C345 1.386 . S
C344 C346 1.391 . S
C345 C344 1.386 . S
C345 C349 1.393 . S
C346 H338 0.950 . S
C346 C344 1.391 . S
C346 C347 1.400 . S
C347 C346 1.400 . S
C347 C348 1.398 1_554 S
C347 C353 1.491 1_554 S
C348 H339 0.950 . S
C348 C347 1.398 1_556 S
C348 C349 1.391 1_556 S
C349 H337 0.950 1_554 S
C349 C345 1.393 . S
C349 C348 1.391 1_554 S
C350 H340 0.950 . S
C350 C351 1.386 . S
C350 C352 1.391 . S
C351 C350 1.386 . S
C351 C355 1.393 . S
C352 H341 0.950 . S
C352 C350 1.391 . S
C352 C353 1.400 . S
C353 C347 1.491 1_556 S
C353 C352 1.400 . S
C353 C354 1.398 1_556 S
C354 H342 0.950 . S
C354 C353 1.398 1_554 S
C354 C355 1.391 1_554 S
C355 H343 0.950 1_556 S
C355 C351 1.393 . S
C355 C354 1.391 1_556 S
H356 C364 0.950 . S
H357 C369 0.950 . S
H358 C366 0.950 . S
H359 C368 0.950 . S
H360 C370 0.950 . S
H361 C372 0.950 . S
H362 C374 0.950 . S
H363 C375 0.950 . S
C364 H356 0.950 . S
C364 C365 1.386 . S
C364 C366 1.391 . S
C365 C364 1.386 . S
C365 C369 1.393 . S
C366 H358 0.950 . S
C366 C364 1.391 . S
C366 C367 1.400 . S
C367 C366 1.400 . S
C367 C368 1.398 . S
C367 C373 1.491 . S
C368 H359 0.950 . S
C368 C367 1.398 . S
C368 C369 1.391 . S
C369 H357 0.950 . S
C369 C365 1.393 . S
C369 C368 1.391 . S
C370 H360 0.950 . S
C370 C371 1.386 . S
C370 C372 1.391 . S
C371 C370 1.386 . S
C371 C375 1.393 . S
C372 H361 0.950 . S
C372 C370 1.391 . S
C372 C373 1.400 . S
C373 C367 1.491 . S
C373 C372 1.400 . S
C373 C374 1.398 . S
C374 H362 0.950 . S
C374 C373 1.398 . S
C374 C375 1.391 . S
C375 H363 0.950 . S
C375 C371 1.393 . S
C375 C374 1.391 . S
H376 C384 0.950 . S
H377 C389 0.950 . S
H378 C386 0.950 . S
H379 C388 0.950 . S
H380 C390 0.950 . S
H381 C392 0.950 . S
H382 C394 0.950 . S
H383 C395 0.950 . S
C384 H376 0.950 . S
C384 C385 1.386 . S
C384 C386 1.391 . S
C385 C384 1.386 . S
C385 C389 1.393 . S
C386 H378 0.950 . S
C386 C384 1.391 . S
C386 C387 1.400 . S
C387 C386 1.400 . S
C387 C388 1.398 . S
C387 C393 1.491 . S
C388 H379 0.950 . S
C388 C387 1.398 . S
C388 C389 1.391 . S
C389 H377 0.950 . S
C389 C385 1.393 . S
C389 C388 1.391 . S
C390 H380 0.950 . S
C390 C391 1.386 . S
C390 C392 1.391 . S
C391 C390 1.386 . S
C391 C395 1.393 . S
C392 H381 0.950 . S
C392 C390 1.391 . S
C392 C393 1.400 . S
C393 C387 1.491 . S
C393 C392 1.400 . S
C393 C394 1.398 . S
C394 H382 0.950 . S
C394 C393 1.398 . S
C394 C395 1.391 . S
C395 H383 0.950 . S
C395 C391 1.393 . S
C395 C394 1.391 . S
H396 C404 0.950 . S
H397 C409 0.950 . S
H398 C406 0.950 . S
H399 C408 0.950 . S
H400 C410 0.950 . S
H401 C412 0.950 . S
H402 C414 0.950 . S
H403 C415 0.950 . S
C404 H396 0.950 . S
C404 C405 1.386 . S
C404 C406 1.391 . S
C405 C404 1.386 . S
C405 C409 1.393 . S
C406 H398 0.950 . S
C406 C404 1.391 . S
C406 C407 1.400 . S
C407 C406 1.400 . S
C407 C408 1.398 . S
C407 C413 1.491 . S
C408 H399 0.950 . S
C408 C407 1.398 . S
C408 C409 1.391 . S
C409 H397 0.950 . S
C409 C405 1.393 . S
C409 C408 1.391 . S
C410 H400 0.950 . S
C410 C411 1.386 . S
C410 C412 1.391 . S
C411 C410 1.386 . S
C411 C415 1.393 . S
C412 H401 0.950 . S
C412 C410 1.391 . S
C412 C413 1.400 . S
C413 C407 1.491 . S
C413 C412 1.400 . S
C413 C414 1.398 . S
C414 H402 0.950 . S
C414 C413 1.398 . S
C414 C415 1.391 . S
C415 H403 0.950 . S
C415 C411 1.393 . S
C415 C414 1.391 . S
H416 C424 0.950 . S
H417 C429 0.950 . S
H418 C426 0.950 . S
H419 C428 0.950 . S
H420 C430 0.950 . S
H421 C432 0.950 . S
H422 C434 0.950 . S
H423 C435 0.950 . S
C424 H416 0.950 . S
C424 C425 1.386 . S
C424 C426 1.391 . S
C425 C424 1.386 . S
C425 C429 1.393 . S
C426 H418 0.950 . S
C426 C424 1.391 . S
C426 C427 1.400 . S
C427 C426 1.400 . S
C427 C428 1.398 . S
C427 C433 1.491 1_655 S
C428 H419 0.950 . S
C428 C427 1.398 . S
C428 C429 1.391 . S
C429 H417 0.950 . S
C429 C425 1.393 . S
C429 C428 1.391 . S
C430 H420 0.950 . S
C430 C431 1.386 . S
C430 C432 1.391 . S
C431 C430 1.386 . S
C431 C435 1.393 . S
C432 H421 0.950 . S
C432 C430 1.391 . S
C432 C433 1.400 . S
C433 C427 1.491 1_455 S
C433 C432 1.400 . S
C433 C434 1.398 . S
C434 H422 0.950 . S
C434 C433 1.398 . S
C434 C435 1.391 . S
C435 H423 0.950 . S
C435 C431 1.393 . S
C435 C434 1.391 . S
H436 C444 0.950 . S
H437 C449 0.950 . S
H438 C446 0.950 . S
H439 C448 0.950 . S
H440 C450 0.950 . S
H441 C452 0.950 . S
H442 C454 0.950 . S
H443 C455 0.950 . S
C444 H436 0.950 . S
C444 C445 1.386 . S
C444 C446 1.391 . S
C445 C444 1.386 . S
C445 C449 1.393 . S
C446 H438 0.950 . S
C446 C444 1.391 . S
C446 C447 1.400 . S
C447 C446 1.400 . S
C447 C448 1.398 . S
C447 C453 1.491 1_545 S
C448 H439 0.950 . S
C448 C447 1.398 . S
C448 C449 1.391 . S
C449 H437 0.950 . S
C449 C445 1.393 . S
C449 C448 1.391 . S
C450 H440 0.950 . S
C450 C451 1.386 . S
C450 C452 1.391 . S
C451 C450 1.386 . S
C451 C455 1.393 . S
C452 H441 0.950 . S
C452 C450 1.391 . S
C452 C453 1.400 . S
C453 C447 1.491 1_565 S
C453 C452 1.400 . S
C453 C454 1.398 . S
C454 H442 0.950 . S
C454 C453 1.398 . S
C454 C455 1.391 . S
C455 H443 0.950 . S
C455 C451 1.393 . S
C455 C454 1.391 . S
H456 C464 0.950 . S
H457 C469 0.950 . S
H458 C466 0.950 . S
H459 C468 0.950 . S
H460 C470 0.950 . S
H461 C472 0.950 . S
H462 C474 0.950 . S
H463 C475 0.950 . S
C464 H456 0.950 . S
C464 C465 1.386 . S
C464 C466 1.391 . S
C465 C464 1.386 . S
C465 C469 1.393 . S
C466 H458 0.950 . S
C466 C464 1.391 . S
C466 C467 1.400 . S
C467 C466 1.400 . S
C467 C468 1.398 . S
C467 C473 1.491 . S
C468 H459 0.950 . S
C468 C467 1.398 . S
C468 C469 1.391 . S
C469 H457 0.950 . S
C469 C465 1.393 . S
C469 C468 1.391 . S
C470 H460 0.950 . S
C470 C471 1.386 . S
C470 C472 1.391 . S
C471 C470 1.386 . S
C471 C475 1.393 . S
C472 H461 0.950 . S
C472 C470 1.391 . S
C472 C473 1.400 . S
C473 C467 1.491 . S
C473 C472 1.400 . S
C473 C474 1.398 . S
C474 H462 0.950 . S
C474 C473 1.398 . S
C474 C475 1.391 . S
C475 H463 0.950 . S
C475 C471 1.393 . S
C475 C474 1.391 . S
H476 C484 0.950 . S
H477 C489 0.950 . S
H478 C486 0.950 . S
H479 C488 0.950 . S
H480 C490 0.950 . S
H481 C492 0.950 . S
H482 C494 0.950 . S
H483 C495 0.950 . S
C484 H476 0.950 . S
C484 C485 1.386 . S
C484 C486 1.391 . S
C485 C484 1.386 . S
C485 C489 1.393 . S
C486 H478 0.950 . S
C486 C484 1.391 . S
C486 C487 1.400 . S
C487 C486 1.400 . S
C487 C488 1.398 . S
C487 C493 1.491 1_455 S
C488 H479 0.950 . S
C488 C487 1.398 . S
C488 C489 1.391 . S
C489 H477 0.950 . S
C489 C485 1.393 . S
C489 C488 1.391 . S
C490 H480 0.950 . S
C490 C491 1.386 . S
C490 C492 1.391 . S
C491 C490 1.386 . S
C491 C495 1.393 . S
C492 H481 0.950 . S
C492 C490 1.391 . S
C492 C493 1.400 . S
C493 C487 1.491 1_655 S
C493 C492 1.400 . S
C493 C494 1.398 . S
C494 H482 0.950 . S
C494 C493 1.398 . S
C494 C495 1.391 . S
C495 H483 0.950 . S
C495 C491 1.393 . S
C495 C494 1.391 . S
H496 C504 0.950 . S
H497 C509 0.950 . S
H498 C506 0.950 . S
H499 C508 0.950 . S
H500 C510 0.950 . S
H501 C512 0.950 . S
H502 C514 0.950 . S
H503 C515 0.950 . S
C504 H496 0.950 . S
C504 C505 1.386 . S
C504 C506 1.391 . S
C505 C504 1.386 . S
C505 C509 1.393 . S
C506 H498 0.950 . S
C506 C504 1.391 . S
C506 C507 1.400 . S
C507 C506 1.400 . S
C507 C508 1.398 . S
C507 C513 1.491 1_565 S
C508 H499 0.950 . S
C508 C507 1.398 . S
C508 C509 1.391 . S
C509 H497 0.950 . S
C509 C505 1.393 . S
C509 C508 1.391 . S
C510 H500 0.950 . S
C510 C511 1.386 . S
C510 C512 1.391 . S
C511 C510 1.386 . S
C511 C515 1.393 . S
C512 H501 0.950 . S
C512 C510 1.391 . S
C512 C513 1.400 . S
C513 C507 1.491 1_545 S
C513 C512 1.400 . S
C513 C514 1.398 . S
C514 H502 0.950 . S
C514 C513 1.398 . S
C514 C515 1.391 . S
C515 H503 0.950 . S
C515 C511 1.393 . S
C515 C514 1.391 . S
H516 C524 0.950 . S
H517 C529 0.950 . S
H518 C526 0.950 . S
H519 C528 0.950 . S
H520 C530 0.950 . S
H521 C532 0.950 . S
H522 C534 0.950 . S
H523 C535 0.950 . S
C524 H516 0.950 . S
C524 C525 1.386 . S
C524 C526 1.391 . S
C525 C524 1.386 . S
C525 C529 1.393 . S
C526 H518 0.950 . S
C526 C524 1.391 . S
C526 C527 1.400 . S
C527 C526 1.400 . S
C527 C528 1.398 . S
C527 C533 1.491 . S
C528 H519 0.950 . S
C528 C527 1.398 . S
C528 C529 1.391 . S
C529 H517 0.950 . S
C529 C525 1.393 . S
C529 C528 1.391 . S
C530 H520 0.950 . S
C530 C531 1.386 . S
C530 C532 1.391 . S
C531 C530 1.386 . S
C531 C535 1.393 . S
C532 H521 0.950 . S
C532 C530 1.391 . S
C532 C533 1.400 . S
C533 C527 1.491 . S
C533 C532 1.400 . S
C533 C534 1.398 . S
C534 H522 0.950 . S
C534 C533 1.398 . S
C534 C535 1.391 . S
C535 H523 0.950 . S
C535 C531 1.393 . S
C535 C534 1.391 . S
H536 C544 0.950 . S
H537 C549 0.950 . S
H538 C546 0.950 . S
H539 C548 0.950 . S
H540 C550 0.950 . S
H541 C552 0.950 . S
H542 C554 0.950 . S
H543 C555 0.950 . S
C544 H536 0.950 . S
C544 C545 1.386 . S
C544 C546 1.391 . S
C545 C544 1.386 . S
C545 C549 1.393 . S
C546 H538 0.950 . S
C546 C544 1.391 . S
C546 C547 1.400 . S
C547 C546 1.400 . S
C547 C548 1.398 . S
C547 C553 1.491 . S
C548 H539 0.950 . S
C548 C547 1.398 . S
C548 C549 1.391 . S
C549 H537 0.950 . S
C549 C545 1.393 . S
C549 C548 1.391 . S
C550 H540 0.950 . S
C550 C551 1.386 . S
C550 C552 1.391 . S
C551 C550 1.386 . S
C551 C555 1.393 . S
C552 H541 0.950 . S
C552 C550 1.391 . S
C552 C553 1.400 . S
C553 C547 1.491 . S
C553 C552 1.400 . S
C553 C554 1.398 . S
C554 H542 0.950 . S
C554 C553 1.398 . S
C554 C555 1.391 . S
C555 H543 0.950 . S
C555 C551 1.393 . S
C555 C554 1.391 . S
H556 C564 0.950 . S
H557 C569 0.950 . S
H558 C566 0.950 . S
H559 C568 0.950 . S
H560 C570 0.950 . S
H561 C572 0.950 . S
H562 C574 0.950 . S
H563 C575 0.950 . S
C564 H556 0.950 . S
C564 C565 1.386 . S
C564 C566 1.391 . S
C565 C564 1.386 . S
C565 C569 1.393 . S
C566 H558 0.950 . S
C566 C564 1.391 . S
C566 C567 1.400 . S
C567 C566 1.400 . S
C567 C568 1.398 . S
C567 C573 1.491 . S
C568 H559 0.950 . S
C568 C567 1.398 . S
C568 C569 1.391 . S
C569 H557 0.950 . S
C569 C565 1.393 . S
C569 C568 1.391 . S
C570 H560 0.950 . S
C570 C571 1.386 . S
C570 C572 1.391 . S
C571 C570 1.386 . S
C571 C575 1.393 . S
C572 H561 0.950 . S
C572 C570 1.391 . S
C572 C573 1.400 . S
C573 C567 1.491 . S
C573 C572 1.400 . S
C573 C574 1.398 . S
C574 H562 0.950 . S
C574 C573 1.398 . S
C574 C575 1.391 . S
C575 H563 0.950 . S
C575 C571 1.393 . S
C575 C574 1.391 . S
H576 C584 0.950 . S
H577 C589 0.950 . S
H578 C586 0.950 . S
H579 C588 0.950 . S
H580 C590 0.950 . S
H581 C592 0.950 . S
H582 C594 0.950 . S
H583 C595 0.950 . S
C584 H576 0.950 . S
C584 C585 1.386 . S
C584 C586 1.391 . S
C585 C584 1.386 . S
C585 C589 1.393 . S
C586 H578 0.950 . S
C586 C584 1.391 . S
C586 C587 1.400 . S
C587 C586 1.400 . S
C587 C588 1.398 . S
C587 C593 1.491 . S
C588 H579 0.950 . S
C588 C587 1.398 . S
C588 C589 1.391 . S
C589 H577 0.950 . S
C589 C585 1.393 . S
C589 C588 1.391 . S
C590 H580 0.950 . S
C590 C591 1.386 . S
C590 C592 1.391 . S
C591 C590 1.386 . S
C591 C595 1.393 . S
C592 H581 0.950 . S
C592 C590 1.391 . S
C592 C593 1.400 . S
C593 C587 1.491 . S
C593 C592 1.400 . S
C593 C594 1.398 . S
C594 H582 0.950 . S
C594 C593 1.398 . S
C594 C595 1.391 . S
C595 H583 0.950 . S
C595 C591 1.393 . S
C595 C594 1.391 . S
H596 C604 0.950 . S
H597 C609 0.950 . S
H598 C606 0.950 . S
H599 C608 0.950 . S
H600 C610 0.950 . S
H601 C612 0.950 . S
H602 C614 0.950 . S
H603 C615 0.950 . S
C604 H596 0.950 . S
C604 C605 1.386 . S
C604 C606 1.391 . S
C605 C604 1.386 . S
C605 C609 1.393 . S
C606 H598 0.950 . S
C606 C604 1.391 . S
C606 C607 1.400 . S
C607 C606 1.400 . S
C607 C608 1.398 . S
C607 C613 1.491 . S
C608 H599 0.950 . S
C608 C607 1.398 . S
C608 C609 1.391 . S
C609 H597 0.950 . S
C609 C605 1.393 . S
C609 C608 1.391 . S
C610 H600 0.950 . S
C610 C611 1.386 . S
C610 C612 1.391 . S
C611 C610 1.386 . S
C611 C615 1.393 . S
C612 H601 0.950 . S
C612 C610 1.391 . S
C612 C613 1.400 . S
C613 C607 1.491 . S
C613 C612 1.400 . S
C613 C614 1.398 . S
C614 H602 0.950 . S
C614 C613 1.398 . S
C614 C615 1.391 . S
C615 H603 0.950 . S
C615 C611 1.393 . S
C615 C614 1.391 . S
H616 C624 0.950 . S
H617 C629 0.950 . S
H618 C626 0.950 . S
H619 C628 0.950 . S
H620 C630 0.950 . S
H621 C632 0.950 . S
H622 C634 0.950 . S
H623 C635 0.950 . S
C624 H616 0.950 . S
C624 C625 1.386 . S
C624 C626 1.391 . S
C625 C624 1.386 . S
C625 C629 1.393 . S
C626 H618 0.950 . S
C626 C624 1.391 . S
C626 C627 1.400 . S
C627 C626 1.400 . S
C627 C628 1.398 . S
C627 C633 1.491 . S
C628 H619 0.950 . S
C628 C627 1.398 . S
C628 C629 1.391 . S
C629 H617 0.950 . S
C629 C625 1.393 . S
C629 C628 1.391 . S
C630 H620 0.950 . S
C630 C631 1.386 . S
C630 C632 1.391 . S
C631 C630 1.386 . S
C631 C635 1.393 . S
C632 H621 0.950 . S
C632 C630 1.391 . S
C632 C633 1.400 . S
C633 C627 1.491 . S
C633 C632 1.400 . S
C633 C634 1.398 . S
C634 H622 0.950 . S
C634 C633 1.398 . S
C634 C635 1.391 . S
C635 H623 0.950 . S
C635 C631 1.393 . S
C635 C634 1.391 . S
C165 C5 1.772 . S
C171 C83 1.770 . S
C185 C18 1.760 . S
C191 C96 1.763 . S
C205 C31 1.764 . S
C211 C109 1.762 . S
C225 C44 1.769 . S
C231 C122 1.767 . S
C245 C57 1.772 . S
C251 C135 1.773 . S
C265 C148 1.759 . S
C271 C70 1.758 . S
C285 C3 1.802 . S
C291 C133 1.802 . S
C305 C16 1.803 . S
C311 C146 1.803 . S
C325 C29 1.806 . S
C331 C81 1.805 . S
C345 C42 1.804 . S
C351 C94 1.804 . S
C365 C55 1.803 . S
C371 C107 1.803 . S
C385 C68 1.810 . S
C391 C120 1.811 . S
C405 C1 1.791 . S
C411 C40 1.786 . S
C425 C14 1.785 . S
C431 C53 1.786 . S
C445 C66 1.786 . S
C451 C27 1.791 . S
C465 C79 1.792 . S
C471 C118 1.795 . S
C485 C131 1.790 . S
C491 C92 1.795 . S
C505 C105 1.794 . S
C511 C144 1.794 . S
C525 C88 0.877 . S
C531 C10 0.875 . S
C545 C23 0.898 . S
C551 C101 0.895 . S
C565 C36 0.902 . S
C571 C114 0.901 . S
C585 C127 0.877 . S
C591 C49 0.876 . S
C605 C140 0.889 . S
C611 C62 0.893 . S
C625 C75 0.878 . S
C631 C153 0.876 . S
