# Generated by pormake.
# Topology smc, (6)-cn, num edge types: 1
# Building blocks:
#     Node 0, Type 0, BuildingBlock: MIFKUJ_clean_sbu_0, # of connection points: 6
#     Node 1, Type 0, BuildingBlock: MIFKUJ_clean_sbu_0, # of connection points: 6
#     Node 2, Type 0, BuildingBlock: MIFKUJ_clean_sbu_0, # of connection points: 6
#     Node 3, Type 0, BuildingBlock: MIFKUJ_clean_sbu_0, # of connection points: 6
#     Node 4, Type 0, BuildingBlock: MIFKUJ_clean_sbu_0, # of connection points: 6
#     Node 5, Type 0, BuildingBlock: MIFKUJ_clean_sbu_0, # of connection points: 6
#     Node 6, Type 0, BuildingBlock: MIFKUJ_clean_sbu_0, # of connection points: 6
#     Node 7, Type 0, BuildingBlock: MIFKUJ_clean_sbu_0, # of connection points: 6
#     Node 8, Type 0, BuildingBlock: MIFKUJ_clean_sbu_0, # of connection points: 6
#     Edge 9, Type (0, 0), BuildingBlock: KIFKEQ_clean_linker_1, # of connection points: 2
#     Edge 10, Type (0, 0), BuildingBlock: KIFKEQ_clean_linker_1, # of connection points: 2
#     Edge 11, Type (0, 0), BuildingBlock: KIFKEQ_clean_linker_1, # of connection points: 2
#     Edge 12, Type (0, 0), BuildingBlock: KIFKEQ_clean_linker_1, # of connection points: 2
#     Edge 13, Type (0, 0), BuildingBlock: KIFKEQ_clean_linker_1, # of connection points: 2
#     Edge 14, Type (0, 0), BuildingBlock: KIFKEQ_clean_linker_1, # of connection points: 2
#     Edge 15, Type (0, 0), BuildingBlock: KIFKEQ_clean_linker_1, # of connection points: 2
#     Edge 16, Type (0, 0), BuildingBlock: KIFKEQ_clean_linker_1, # of connection points: 2
#     Edge 17, Type (0, 0), BuildingBlock: KIFKEQ_clean_linker_1, # of connection points: 2
#     Edge 18, Type (0, 0), BuildingBlock: KIFKEQ_clean_linker_1, # of connection points: 2
#     Edge 19, Type (0, 0), BuildingBlock: KIFKEQ_clean_linker_1, # of connection points: 2
#     Edge 20, Type (0, 0), BuildingBlock: KIFKEQ_clean_linker_1, # of connection points: 2
#     Edge 21, Type (0, 0), BuildingBlock: KIFKEQ_clean_linker_1, # of connection points: 2
#     Edge 22, Type (0, 0), BuildingBlock: KIFKEQ_clean_linker_1, # of connection points: 2
#     Edge 23, Type (0, 0), BuildingBlock: KIFKEQ_clean_linker_1, # of connection points: 2
#     Edge 24, Type (0, 0), BuildingBlock: KIFKEQ_clean_linker_1, # of connection points: 2
#     Edge 25, Type (0, 0), BuildingBlock: KIFKEQ_clean_linker_1, # of connection points: 2
#     Edge 26, Type (0, 0), BuildingBlock: KIFKEQ_clean_linker_1, # of connection points: 2
#     Edge 27, Type (0, 0), BuildingBlock: KIFKEQ_clean_linker_1, # of connection points: 2
#     Edge 28, Type (0, 0), BuildingBlock: KIFKEQ_clean_linker_1, # of connection points: 2
#     Edge 29, Type (0, 0), BuildingBlock: KIFKEQ_clean_linker_1, # of connection points: 2
#     Edge 30, Type (0, 0), BuildingBlock: KIFKEQ_clean_linker_1, # of connection points: 2
#     Edge 31, Type (0, 0), BuildingBlock: KIFKEQ_clean_linker_1, # of connection points: 2
#     Edge 32, Type (0, 0), BuildingBlock: KIFKEQ_clean_linker_1, # of connection points: 2
#     Edge 33, Type (0, 0), BuildingBlock: KIFKEQ_clean_linker_1, # of connection points: 2
#     Edge 34, Type (0, 0), BuildingBlock: KIFKEQ_clean_linker_1, # of connection points: 2
#     Edge 35, Type (0, 0), BuildingBlock: KIFKEQ_clean_linker_1, # of connection points: 2
# Relax obj value: 0.181
# Max RMSD: 0.296
# Mean RMSD: 0.289
data_MOF--net-smc--node1-MIFKUJ_clean_sbu_0--edge1-KIFKEQ_clean_linker_1
_symmetry_space_group_name_H-M    P1
_symmetry_Int_Tables_number       1
_symmetry_cell_setting            triclinic
loop_
_symmetry_equiv_pos_as_xyz
'x, y, z'
_cell_length_a     35.181748
_cell_length_b     34.071777
_cell_length_c     40.455448
_cell_angle_alpha  91.256485
_cell_angle_beta   91.121352
_cell_angle_gamma 120.12521
loop_
_atom_site_label
_atom_site_type_symbol
_atom_site_fract_x
_atom_site_fract_y
_atom_site_fract_z
_atom_type_partial_charge
Zn0 Zn 0.09834 0.44589 0.98561 0.0
Zn1 Zn 0.96119 0.39664 -0.00309 0.0
C2 C 0.15816 0.53574 0.96757 0.0
O3 O 0.16002 0.51413 0.94091 0.0
C4 C 0.88255 0.32344 0.01822 0.0
O5 O 0.89289 0.35326 0.04284 0.0
O6 O 0.13963 0.42177 -0.00625 0.0
O7 O 0.04781 0.42475 0.01338 0.0
O8 O 0.99118 0.40604 0.04251 0.0
C9 C 0.16764 0.43984 0.01771 0.0
O10 O 0.16477 0.46881 0.03801 0.0
O11 O 0.13292 0.5132 0.99036 0.0
C12 C 0.90233 0.42702 0.97599 0.0
O13 O 0.88786 0.39076 0.95636 0.0
O14 O 0.93615 0.43874 -0.00536 0.0
O15 O 0.00235 0.40537 0.95815 0.0
O16 O 0.06936 0.42755 0.94064 0.0
O17 O 0.90873 0.3334 -0.00547 0.0
C18 C 0.0317 0.41908 0.04148 0.0
C19 C 0.02823 0.41104 0.93462 0.0
Zn20 Zn 0.61781 0.55016 0.00778 0.0
Zn21 Zn 0.55778 0.60852 0.98609 0.0
C22 C 0.54583 0.47379 0.03405 0.0
O23 O 0.56738 0.49585 0.06145 0.0
C24 C 0.57685 0.7007 0.98637 0.0
O25 O 0.61434 0.70758 -0.00069 0.0
O26 O 0.66178 0.52916 0.01409 0.0
O27 O 0.63307 0.57831 0.96374 0.0
O28 O 0.5965 0.61265 0.94874 0.0
C29 C 0.70236 0.55626 0.00961 0.0
O30 O 0.71552 0.59886 0.00357 0.0
O31 O 0.55904 0.49295 0.00669 0.0
C32 C 0.47942 0.52947 0.00933 0.0
O33 O 0.50237 0.54035 0.03741 0.0
O34 O 0.49755 0.55176 0.98385 0.0
O35 O 0.58568 0.62287 0.03194 0.0
O36 O 0.62563 0.59188 0.04642 0.0
O37 O 0.54683 0.66035 0.9784 0.0
C38 C 0.62448 0.60041 0.94301 0.0
C39 C 0.60991 0.61748 0.05289 0.0
Zn40 Zn 0.43122 0.96053 0.99074 0.0
Zn41 Zn 0.47761 0.08152 0.0119 0.0
C42 C 0.49147 0.93881 0.96627 0.0
O43 O 0.46705 0.93456 0.93992 0.0
C44 C 0.45327 0.14919 0.01508 0.0
O45 O 0.41636 0.11524 0.00245 0.0
O46 O 0.38433 0.89627 0.98098 0.0
O47 O 0.4118 0.9723 0.03424 0.0
O48 O 0.43863 0.04498 0.04761 0.0
C49 C 0.37758 0.86782 0.00309 0.0
O50 O 0.40198 0.88163 0.03056 0.0
O51 O 0.48609 0.956 -0.00725 0.0
C52 C 0.5625 0.10651 0.99002 0.0
O53 O 0.5454 0.11394 0.96339 0.0
O54 O 0.53823 0.08909 0.01455 0.0
O55 O 0.4504 0.06563 0.96609 0.0
O56 O 0.42609 0.9934 0.95195 0.0
O57 O 0.48547 0.14312 0.02138 0.0
C58 C 0.41486 0.00338 0.05384 0.0
C59 C 0.43284 0.03254 0.94516 0.0
Zn60 Zn 0.72822 0.82789 0.33231 0.0
Zn61 Zn 0.60516 0.75193 0.3461 0.0
C62 C 0.74642 0.91125 0.30688 0.0
O63 O 0.75225 0.89134 0.28086 0.0
C64 C 0.53149 0.67432 0.37517 0.0
O65 O 0.54759 0.69712 0.40344 0.0
O66 O 0.78929 0.83993 0.32504 0.0
O67 O 0.71371 0.79865 0.37613 0.0
O68 O 0.64285 0.75422 0.38528 0.0
C69 C 0.7987 0.80918 0.33079 0.0
O70 O 0.7685 0.7705 0.34237 0.0
O71 O 0.73242 0.88889 0.33297 0.0
C72 C 0.55653 0.79267 0.32641 0.0
O73 O 0.54934 0.7643 0.30137 0.0
O74 O 0.5834 0.7967 0.34958 0.0
O75 O 0.62417 0.74678 0.30037 0.0
O76 O 0.69541 0.78976 0.29233 0.0
O77 O 0.55067 0.69146 0.34862 0.0
C78 C 0.68307 0.77233 0.39453 0.0
C79 C 0.65694 0.76062 0.28194 0.0
Zn80 Zn 0.19582 0.96285 0.30951 0.0
Zn81 Zn 0.24969 0.88823 0.32623 0.0
C82 C 0.10971 0.89842 0.28936 0.0
O83 O 0.12571 0.9184 0.26147 0.0
C84 C 0.31893 0.87193 0.35135 0.0
O85 O 0.29613 0.86054 0.37834 0.0
O86 O 0.18522 0.01575 0.30228 0.0
O87 O 0.23236 0.97817 0.35177 0.0
O88 O 0.25897 0.93269 0.36319 0.0
C89 C 0.18146 0.03754 0.32677 0.0
O90 O 0.18498 0.02585 0.3569 0.0
O91 O 0.13556 0.90932 0.31458 0.0
C92 C 0.19791 0.7944 0.31128 0.0
O93 O 0.22094 0.80899 0.28454 0.0
O94 O 0.2015 0.82352 0.33323 0.0
O95 O 0.24952 0.91039 0.28098 0.0
O96 O 0.22358 0.95586 0.26853 0.0
O97 O 0.30541 0.88483 0.32679 0.0
C98 C 0.2535 0.96594 0.37072 0.0
C99 C 0.24192 0.93328 0.26026 0.0
Zn100 Zn 0.03921 0.31672 0.31858 0.0
Zn101 Zn 0.13189 0.4003 0.33417 0.0
C102 C 0.08528 0.26962 0.29851 0.0
O103 O 0.07119 0.27285 0.26894 0.0
C104 C 0.12975 0.47999 0.35801 0.0
O105 O 0.1524 0.47713 0.38311 0.0
O106 O 0.97806 0.26389 0.3107 0.0
O107 O 0.03835 0.34848 0.36 0.0
O108 O 0.10319 0.35775 0.37229 0.0
C109 C 0.96245 0.23776 0.33481 0.0
O110 O 0.98611 0.2481 0.36254 0.0
O111 O 0.07751 0.28779 0.32335 0.0
C112 C 0.22355 0.42151 0.33947 0.0
O113 O 0.21057 0.38358 0.32213 0.0
O114 O 0.19595 0.43378 0.34644 0.0
O115 O 0.1257 0.38102 0.28522 0.0
O116 O 0.05469 0.35634 0.28079 0.0
O117 O 0.11517 0.44923 0.33512 0.0
C118 C 0.06633 0.35155 0.38148 0.0
C119 C 0.09237 0.37579 0.26846 0.0
Zn120 Zn 0.39769 0.09035 0.6592 0.0
Zn121 Zn 0.30756 0.09635 0.66309 0.0
C122 C 0.45141 0.18288 0.64514 0.0
O123 O 0.45501 0.16232 0.61853 0.0
C124 C 0.23389 0.00963 0.68357 0.0
O125 O 0.24534 0.02872 0.7134 0.0
O126 O 0.44804 0.07836 0.65921 0.0
O127 O 0.35835 0.05366 0.69467 0.0
O128 O 0.34359 0.10765 0.70607 0.0
C129 C 0.47247 0.08871 0.68521 0.0
O130 O 0.46282 0.10506 0.71141 0.0
O131 O 0.42614 0.15871 0.66758 0.0
C132 C 0.24479 0.12046 0.64687 0.0
O133 O 0.23911 0.09188 0.62234 0.0
O134 O 0.27536 0.13057 0.66842 0.0
O135 O 0.33393 0.11134 0.61747 0.0
O136 O 0.36989 0.07363 0.61463 0.0
O137 O 0.25723 0.03072 0.65935 0.0
C138 C 0.35055 0.07651 0.71565 0.0
C139 C 0.35059 0.09207 0.60064 0.0
Zn140 Zn 0.92539 0.19126 0.66327 0.0
Zn141 Zn 0.86288 0.24603 0.64714 0.0
C142 C 0.85266 0.11275 0.68776 0.0
O143 O 0.87095 0.13469 0.71597 0.0
C144 C 0.83828 0.30597 0.61451 0.0
O145 O 0.82091 0.27436 0.59078 0.0
O146 O 0.97062 0.17302 0.67045 0.0
O147 O 0.94233 0.22133 0.62003 0.0
O148 O 0.89897 0.24927 0.60842 0.0
C149 C 0.01059 0.20411 0.67442 0.0
O150 O 0.02031 0.24675 0.67546 0.0
O151 O 0.86769 0.13291 0.66098 0.0
C152 C 0.78382 0.17035 0.67192 0.0
O153 O 0.80748 0.18055 0.69962 0.0
O154 O 0.80183 0.19161 0.6461 0.0
O155 O 0.89246 0.26288 0.69232 0.0
O156 O 0.93319 0.23149 0.70228 0.0
O157 O 0.85553 0.29956 0.64014 0.0
C158 C 0.92912 0.24106 0.60065 0.0
C159 C 0.91839 0.25707 0.71109 0.0
Zn160 Zn 0.74543 0.60404 0.65443 0.0
Zn161 Zn 0.82455 0.73649 0.67307 0.0
C162 C 0.79376 0.57223 0.62022 0.0
O163 O 0.76989 0.57438 0.59571 0.0
C164 C 0.79148 0.79731 0.68819 0.0
O165 O 0.75723 0.76059 0.69864 0.0
O166 O 0.68875 0.54305 0.65089 0.0
O167 O 0.7476 0.62865 0.70038 0.0
O168 O 0.79278 0.70193 0.71292 0.0
C169 C 0.68254 0.5139 0.67244 0.0
O170 O 0.71237 0.52495 0.69635 0.0
O171 O 0.79213 0.58767 0.64871 0.0
C172 C 0.91473 0.77019 0.65059 0.0
O173 O 0.89708 0.76603 0.62087 0.0
O174 O 0.88984 0.75667 0.67523 0.0
O175 O 0.79298 0.7131 0.62876 0.0
O176 O 0.74433 0.64074 0.61662 0.0
O177 O 0.82406 0.79499 0.67747 0.0
C178 C 0.76415 0.66222 0.72103 0.0
C179 C 0.76539 0.68208 0.60876 0.0
H180 H 0.42906 0.48051 0.06027 0.0
H181 H 0.41997 0.5096 0.95794 0.0
H182 H 0.34932 0.44403 0.06332 0.0
H183 H 0.34057 0.47401 0.96118 0.0
H184 H 0.1957 0.40128 0.97098 0.0
H185 H 0.26826 0.40839 0.96885 0.0
H186 H 0.30303 0.4778 0.06481 0.0
H187 H 0.23065 0.47004 0.06716 0.0
C188 C 0.41004 0.4784 0.03824 0.0
C189 C 0.43103 0.49885 0.00906 0.0
C190 C 0.36431 0.45764 0.04004 0.0
C191 C 0.33855 0.45681 0.0127 0.0
C192 C 0.35925 0.47381 0.98271 0.0
C193 C 0.40495 0.49453 0.9809 0.0
C194 C 0.21847 0.41703 0.99197 0.0
C195 C 0.20762 0.43569 0.01904 0.0
C196 C 0.26017 0.42136 0.99065 0.0
C197 C 0.29174 0.44415 0.01646 0.0
C198 C 0.27956 0.45973 0.04457 0.0
C199 C 0.23804 0.45557 0.04583 0.0
H200 H 0.50256 0.89251 0.91511 0.0
H201 H 0.53398 0.92686 0.01937 0.0
H202 H 0.52837 0.8384 0.91845 0.0
H203 H 0.55977 0.87246 0.0226 0.0
H204 H 0.62835 0.78843 0.00965 0.0
H205 H 0.6153 0.85189 0.00296 0.0
H206 H 0.49583 0.76387 0.94594 0.0
H207 H 0.50878 0.70052 0.95251 0.0
C208 C 0.51574 0.8892 0.93863 0.0
C209 C 0.5157 0.91366 0.96708 0.0
C210 C 0.53024 0.85793 0.94054 0.0
C211 C 0.54536 0.85064 0.97088 0.0
C212 C 0.54831 0.87739 -0.00114 0.0
C213 C 0.53354 0.90857 -0.003 0.0
C214 C 0.59941 0.78268 -0.00446 0.0
C215 C 0.56954 0.7394 0.98165 0.0
C216 C 0.59192 0.819 0.99182 0.0
C217 C 0.55469 0.8129 0.97382 0.0
C218 C 0.52517 0.76978 0.95956 0.0
C219 C 0.5324 0.7334 0.96354 0.0
H220 H 0.3533 0.79945 0.04623 0.0
H221 H 0.32319 0.82794 0.94861 0.0
H222 H 0.2974 0.71981 0.03729 0.0
H223 H 0.26678 0.74834 0.93994 0.0
H224 H 0.21474 0.59451 0.92348 0.0
H225 H 0.26552 0.67568 0.93225 0.0
H226 H 0.21701 0.67024 0.03032 0.0
H227 H 0.16663 0.58895 0.02182 0.0
C228 C 0.33461 0.78878 0.02294 0.0
C229 C 0.34286 0.81989 -0.00197 0.0
C230 C 0.30237 0.74324 0.01793 0.0
C231 C 0.27782 0.72792 0.98789 0.0
C232 C 0.28561 0.75915 0.96318 0.0
C233 C 0.31778 0.80472 0.96821 0.0
C234 C 0.21472 0.61067 0.94683 0.0
C235 C 0.18688 0.58532 0.972 0.0
C236 C 0.24361 0.65719 0.95177 0.0
C237 C 0.24528 0.6792 0.982 0.0
C238 C 0.21679 0.65402 0.00693 0.0
C239 C 0.18781 0.60754 0.00196 0.0
H240 H 0.51644 0.22009 0.05274 0.0
H241 H 0.40005 0.17986 0.99112 0.0
H242 H 0.52627 0.29575 0.06044 0.0
H243 H 0.41014 0.25604 -0.00122 0.0
H244 H 0.50119 0.41564 0.9813 0.0
H245 H 0.46898 0.33336 0.97978 0.0
H246 H 0.49035 0.33715 0.08553 0.0
H247 H 0.52265 0.41936 0.0872 0.0
C248 C 0.49276 0.22732 0.04106 0.0
C249 C 0.45765 0.19417 0.02117 0.0
C250 C 0.49812 0.2705 0.04574 0.0
C251 C 0.46877 0.28163 0.03036 0.0
C252 C 0.43318 0.24829 0.01091 0.0
C253 C 0.42745 0.20477 0.00659 0.0
C254 C 0.49787 0.39883 0.00437 0.0
C255 C 0.51551 0.42416 0.03425 0.0
C256 C 0.47928 0.35166 0.0035 0.0
C257 C 0.47812 0.32912 0.03245 0.0
C258 C 0.49167 0.3539 0.06276 0.0
C259 C 0.50998 0.40097 0.06369 0.0
H260 H 0.6111 0.10943 0.04489 0.0
H261 H 0.62315 0.14832 0.94298 0.0
H262 H 0.69099 0.15312 0.05273 0.0
H263 H 0.70252 0.19262 0.95101 0.0
H264 H 0.84728 0.25792 0.96839 0.0
H265 H 0.77151 0.19536 0.96205 0.0
H266 H 0.74247 0.234 0.05655 0.0
H267 H 0.81812 0.29553 0.06323 0.0
C268 C 0.63077 0.12663 0.02401 0.0
C269 C 0.6107 0.12588 -0.00658 0.0
C270 C 0.67654 0.15191 0.02857 0.0
C271 C 0.70316 0.17684 0.00262 0.0
C272 C 0.68315 0.17357 0.97148 0.0
C273 C 0.63749 0.14835 0.96693 0.0
C274 C 0.8249 0.25251 0.98806 0.0
C275 C 0.83861 0.28199 0.01615 0.0
C276 C 0.78143 0.2168 0.98436 0.0
C277 C 0.75079 0.20986 0.00865 0.0
C278 C 0.76523 0.23795 0.03751 0.0
C279 C 0.80862 0.27355 0.04123 0.0
H280 H 0.92206 0.50333 0.01377 0.0
H281 H 0.82249 0.40171 0.94662 0.0
H282 H 0.87485 0.53585 0.02332 0.0
H283 H 0.77569 0.43423 0.95612 0.0
H284 H 0.68367 0.46813 0.01155 0.0
H285 H 0.7338 0.43922 0.00329 0.0
H286 H 0.84148 0.57609 -0.00607 0.0
H287 H 0.79139 0.60521 0.00235 0.0
C288 C 0.89036 0.48821 0.00081 0.0
C289 C 0.87602 0.4498 0.97952 0.0
C290 C 0.86336 0.50688 0.00625 0.0
C291 C 0.82134 0.48726 0.99077 0.0
C292 C 0.80756 0.44962 0.96887 0.0
C293 C 0.83461 0.43123 0.96322 0.0
C294 C 0.71809 0.49215 0.00803 0.0
C295 C 0.73347 0.539 0.0075 0.0
C296 C 0.74675 0.47553 0.00303 0.0
C297 C 0.79152 0.50535 -0.00237 0.0
C298 C 0.80721 0.55229 -0.00185 0.0
C299 C 0.77846 0.56892 0.0029 0.0
H300 H 0.8618 0.87633 0.29511 0.0
H301 H 0.8349 0.75821 0.35006 0.0
H302 H 0.93442 0.88854 0.28309 0.0
H303 H 0.90799 0.77066 0.33798 0.0
H304 H 0.06477 0.86003 0.34525 0.0
H305 H 0.98684 0.83173 0.35378 0.0
H306 H 0.96794 0.85001 0.25071 0.0
H307 H 0.04565 0.87836 0.24206 0.0
C308 C 0.87137 0.85293 0.30458 0.0
C309 C 0.84268 0.81638 0.32359 0.0
C310 C 0.91279 0.85967 0.29743 0.0
C311 C 0.92664 0.83029 0.30938 0.0
C312 C 0.89808 0.79378 0.32848 0.0
C313 C 0.85631 0.78668 0.33532 0.0
C314 C 0.04381 0.85703 0.32423 0.0
C315 C 0.06156 0.87221 0.2931 0.0
C316 C 0.99917 0.84073 0.32913 0.0
C317 C 0.97164 0.83951 0.30302 0.0
C318 C 0.98869 0.85143 0.27139 0.0
C319 C 0.03317 0.86744 0.26644 0.0
H320 H 0.09303 0.23199 0.35542 0.0
H321 H 0.12212 0.24119 0.25178 0.0
H322 H 0.11829 0.17785 0.36162 0.0
H323 H 0.14969 0.18885 0.25817 0.0
H324 H 0.14666 0.05425 0.27128 0.0
H325 H 0.12653 0.11251 0.26468 0.0
H326 H 0.1767 0.1647 0.3641 0.0
H327 H 0.19446 0.10492 0.37109 0.0
C328 C 0.10572 0.22315 0.33408 0.0
C329 C 0.10538 0.24076 0.30308 0.0
C330 C 0.12047 0.19214 0.33763 0.0
C331 C 0.13601 0.17847 0.31037 0.0
C332 C 0.13708 0.19752 0.27961 0.0
C333 C 0.12164 0.22796 0.27596 0.0
C334 C 0.15351 0.07833 0.29164 0.0
C335 C 0.1719 0.07478 0.32176 0.0
C336 C 0.14223 0.11206 0.28783 0.0
C337 C 0.14974 0.1436 0.31388 0.0
C338 C 0.16935 0.1406 0.34369 0.0
C339 C 0.17989 0.10644 0.34765 0.0
H340 H 0.92398 0.17316 0.38066 0.0
H341 H 0.90697 0.20294 0.27997 0.0
H342 H 0.86197 0.0969 0.37231 0.0
H343 H 0.84356 0.12655 0.27185 0.0
H344 H 0.74251 0.9643 0.35709 0.0
H345 H 0.78504 0.04692 0.36298 0.0
H346 H 0.83572 0.05294 0.2656 0.0
H347 H 0.79217 0.97089 0.25928 0.0
C348 C 0.90641 0.16373 0.3569 0.0
C349 C 0.92085 0.1939 0.33082 0.0
C350 C 0.87043 0.11998 0.35218 0.0
C351 C 0.84779 0.10536 0.32132 0.0
C352 C 0.86068 0.13647 0.29578 0.0
C353 C 0.8969 0.1803 0.30047 0.0
C354 C 0.76191 0.98338 0.33664 0.0
C355 C 0.7646 0.96098 0.30797 0.0
C356 C 0.78651 0.03073 0.34009 0.0
C357 C 0.81453 0.05659 0.31505 0.0
C358 C 0.81439 0.03429 0.28535 0.0
C359 C 0.78956 0.98704 0.2818 0.0
H360 H 0.16222 0.75278 0.36925 0.0
H361 H 0.18251 0.72462 0.26854 0.0
H362 H 0.13545 0.67348 0.38198 0.0
H363 H 0.15682 0.6461 0.28135 0.0
H364 H 0.09143 0.50041 0.30658 0.0
H365 H 0.09718 0.57342 0.29611 0.0
H366 H 0.17023 0.62817 0.38885 0.0
H367 H 0.16361 0.55508 0.39966 0.0
C368 C 0.16028 0.72956 0.34968 0.0
C369 C 0.17488 0.74519 0.31794 0.0
C370 C 0.14526 0.68417 0.35705 0.0
C371 C 0.14433 0.65338 0.3328 0.0
C372 C 0.15661 0.66857 0.3006 0.0
C373 C 0.17166 0.71383 0.29328 0.0
C374 C 0.10802 0.52778 0.32503 0.0
C375 C 0.12745 0.52196 0.35382 0.0
C376 C 0.11155 0.56976 0.31892 0.0
C377 C 0.1346 0.60694 0.34144 0.0
C378 C 0.15189 0.6003 0.37107 0.0
C379 C 0.14832 0.55834 0.37719 0.0
H380 H 0.2576 0.49485 0.38218 0.0
H381 H 0.29502 0.41631 0.31952 0.0
H382 H 0.3345 0.54957 0.39445 0.0
H383 H 0.37257 0.47124 0.33228 0.0
H384 H 0.49245 0.618 0.32101 0.0
H385 H 0.42001 0.55048 0.31649 0.0
H386 H 0.4036 0.56314 0.42102 0.0
H387 H 0.47617 0.63149 0.42553 0.0
C388 C 0.28228 0.48891 0.37136 0.0
C389 C 0.27025 0.45156 0.34951 0.0
C390 C 0.32641 0.5201 0.3787 0.0
C391 C 0.35959 0.51477 0.36427 0.0
C392 C 0.34763 0.47638 0.34351 0.0
C393 C 0.3033 0.44491 0.33629 0.0
C394 C 0.47368 0.60616 0.34316 0.0
C395 C 0.48976 0.6305 0.37355 0.0
C396 C 0.43229 0.56715 0.3406 0.0
C397 C 0.40603 0.55164 0.36836 0.0
C398 C 0.42297 0.57466 0.39912 0.0
C399 C 0.46451 0.61371 0.40171 0.0
H400 H 0.37377 0.89368 0.29939 0.0
H401 H 0.35435 0.84065 0.39752 0.0
H402 H 0.43661 0.88263 0.2938 0.0
H403 H 0.4167 0.82869 0.39161 0.0
H404 H 0.54936 0.83905 0.38018 0.0
H405 H 0.49632 0.86487 0.38687 0.0
H406 H 0.44682 0.81816 0.28664 0.0
H407 H 0.50002 0.79334 0.27979 0.0
C408 C 0.38297 0.87981 0.31984 0.0
C409 C 0.35876 0.86773 0.34882 0.0
C410 C 0.41895 0.87332 0.31657 0.0
C411 C 0.43161 0.85451 0.34216 0.0
C412 C 0.40821 0.84373 0.37155 0.0
C413 C 0.37222 0.85027 0.37484 0.0
C414 C 0.52765 0.83505 0.35942 0.0
C415 C 0.52881 0.81392 0.32951 0.0
C416 C 0.497 0.84949 0.36334 0.0
C417 C 0.46706 0.84333 0.33737 0.0
C418 C 0.4696 0.82393 0.30706 0.0
C419 C 0.50004 0.80943 0.30319 0.0
H420 H 0.72446 0.15384 0.62138 0.0
H421 H 0.73318 0.12435 0.72369 0.0
H422 H 0.6459 0.12301 0.62547 0.0
H423 H 0.65394 0.09207 0.72752 0.0
H424 H 0.53713 0.11933 0.73358 0.0
H425 H 0.60925 0.12669 0.73004 0.0
H426 H 0.5734 0.06115 0.63267 0.0
H427 H 0.50149 0.05509 0.63584 0.0
C428 C 0.70943 0.13962 0.64453 0.0
C429 C 0.73527 0.14239 0.6724 0.0
C430 C 0.66417 0.12163 0.64683 0.0
C431 C 0.64359 0.10567 0.677 0.0
C432 C 0.66891 0.10504 0.70412 0.0
C433 C 0.7143 0.12326 0.70186 0.0
C434 C 0.54436 0.1059 0.71159 0.0
C435 C 0.5138 0.08725 0.6848 0.0
C436 C 0.58569 0.10977 0.70965 0.0
C437 C 0.59736 0.0948 0.68095 0.0
C438 C 0.56579 0.07375 0.65491 0.0
C439 C 0.5245 0.07012 0.65678 0.0
H440 H 0.78748 0.32505 0.57333 0.0
H441 H 0.89133 0.38518 0.64887 0.0
H442 H 0.78553 0.39559 0.57198 0.0
H443 H 0.89082 0.4561 0.64658 0.0
H444 H 0.82707 0.54296 0.66906 0.0
H445 H 0.84382 0.48223 0.66462 0.0
H446 H 0.82167 0.47393 0.55854 0.0
H447 H 0.80325 0.5339 0.56321 0.0
C448 C 0.81032 0.35357 0.58925 0.0
C449 C 0.83899 0.3494 0.61158 0.0
C450 C 0.80953 0.39416 0.58831 0.0
C451 C 0.83785 0.43151 0.60937 0.0
C452 C 0.86791 0.42778 0.63055 0.0
C453 C 0.86825 0.38711 0.63182 0.0
C454 C 0.82665 0.5289 0.64469 0.0
C455 C 0.81326 0.54284 0.61654 0.0
C456 C 0.83642 0.49406 0.64209 0.0
C457 C 0.83353 0.4727 0.61123 0.0
C458 C 0.82321 0.48893 0.58277 0.0
C459 C 0.81306 0.52359 0.58541 0.0
H460 H 0.65836 0.44613 0.71629 0.0
H461 H 0.61895 0.4759 0.62269 0.0
H462 H 0.59817 0.3679 0.71036 0.0
H463 H 0.55822 0.39759 0.61699 0.0
H464 H 0.50025 0.24281 0.59878 0.0
H465 H 0.55176 0.32372 0.60637 0.0
H466 H 0.51784 0.31803 0.70887 0.0
H467 H 0.46632 0.23636 0.70134 0.0
C468 C 0.63658 0.43615 0.69458 0.0
C469 C 0.64375 0.46729 0.66983 0.0
C470 C 0.6018 0.39129 0.69132 0.0
C471 C 0.57338 0.37633 0.66315 0.0
C472 C 0.57981 0.40782 0.63882 0.0
C473 C 0.61452 0.45279 0.64215 0.0
C474 C 0.50338 0.25877 0.62291 0.0
C475 C 0.47928 0.23297 0.6495 0.0
C476 C 0.53277 0.30536 0.62719 0.0
C477 C 0.53908 0.32748 0.65824 0.0
C478 C 0.51411 0.30195 0.6847 0.0
C479 C 0.48437 0.25522 0.68034 0.0
H480 H 0.8442 0.87088 0.65266 0.0
H481 H 0.73851 0.82137 0.72122 0.0
H482 H 0.84528 0.94271 0.65101 0.0
H483 H 0.73994 0.89406 0.71971 0.0
H484 H 0.82262 0.05686 0.7402 0.0
H485 H 0.79759 0.97584 0.73893 0.0
H486 H 0.79657 0.97405 0.63221 0.0
H487 H 0.82164 0.05498 0.63328 0.0
C488 C 0.82111 0.87531 0.66734 0.0
C489 C 0.79144 0.84059 0.68722 0.0
C490 C 0.82138 0.91628 0.66609 0.0
C491 C 0.79234 0.92373 0.68496 0.0
C492 C 0.76252 0.88905 0.70484 0.0
C493 C 0.76177 0.84759 0.7057 0.0
C494 C 0.81576 0.03896 0.71642 0.0
C495 C 0.82526 0.06263 0.68687 0.0
C496 C 0.8013 0.99249 0.71573 0.0
C497 C 0.79619 0.96905 0.68549 0.0
C498 C 0.80113 0.99164 0.65588 0.0
C499 C 0.8153 0.03796 0.65653 0.0
H500 H 0.96126 0.81164 0.70809 0.0
H501 H 0.97816 0.79078 0.60506 0.0
H502 H 0.03954 0.86466 0.71533 0.0
H503 H 0.05722 0.8419 0.61257 0.0
H504 H 0.18382 0.98032 0.62617 0.0
H505 H 0.10862 0.91808 0.61842 0.0
H506 H 0.11115 0.88059 0.71959 0.0
H507 H 0.18561 0.9448 0.72767 0.0
C508 C 0.98192 0.81749 0.68713 0.0
C509 C 0.96331 0.79712 0.65594 0.0
C510 C 0.02715 0.84789 0.6913 0.0
C511 C 0.05533 0.85824 0.66453 0.0
C512 C 0.0368 0.83595 0.63368 0.0
C513 C 0.99138 0.80616 0.62938 0.0
C514 C 0.16849 0.95838 0.64662 0.0
C515 C 0.19063 0.96768 0.6776 0.0
C516 C 0.1252 0.92234 0.64216 0.0
C517 C 0.10305 0.89401 0.66841 0.0
C518 C 0.1263 0.90211 0.69894 0.0
C519 C 0.16929 0.93874 0.70356 0.0
H520 H 0.17129 0.09679 0.6088 0.0
H521 H 0.24619 0.17965 0.69457 0.0
H522 H 0.11568 0.11797 0.61777 0.0
H523 H 0.19003 0.20066 0.70358 0.0
H524 H 0.09926 0.26207 0.68209 0.0
H525 H 0.1576 0.24365 0.67628 0.0
H526 H 0.05996 0.10196 0.66042 0.0
H527 H 0.00168 0.12018 0.66597 0.0
C528 C 0.17605 0.11974 0.62948 0.0
C529 C 0.21308 0.13641 0.65106 0.0
C530 C 0.14398 0.13156 0.63474 0.0
C531 C 0.14832 0.16051 0.66159 0.0
C532 C 0.18595 0.17833 0.68265 0.0
C533 C 0.218 0.16625 0.67751 0.0
C534 C 0.09025 0.22694 0.67767 0.0
C535 C 0.04586 0.19263 0.67422 0.0
C536 C 0.12366 0.21643 0.67445 0.0
C537 C 0.11325 0.17148 0.66753 0.0
C538 C 0.06889 0.13702 0.66519 0.0
C539 C 0.03554 0.14745 0.66858 0.0
H540 H 0.15695 0.39594 0.2231 0.0
H541 H 0.03715 0.39846 0.23935 0.0
H542 H 0.15792 0.42157 0.16647 0.0
H543 H 0.03767 0.42284 0.18398 0.0
H544 H 0.04151 0.47769 0.0913 0.0
H545 H 0.07329 0.48291 0.14652 0.0
H546 H 0.11121 0.38547 0.11558 0.0
H547 H 0.08162 0.38265 0.05974 0.0
C548 C 0.13127 0.40245 0.21473 0.0
C549 C 0.0966 0.3945 0.23536 0.0
C550 C 0.13178 0.41705 0.18246 0.0
C551 C 0.09807 0.4246 0.1708 0.0
C552 C 0.06471 0.4184 0.19219 0.0
C553 C 0.064 0.40359 0.22392 0.0
C554 C 0.05795 0.45861 0.0962 0.0
C555 C 0.05867 0.42923 0.07186 0.0
C556 C 0.07608 0.46148 0.12768 0.0
C557 C 0.09357 0.43355 0.13565 0.0
C558 C 0.098 0.4074 0.11027 0.0
C559 C 0.08077 0.40545 0.07843 0.0
H560 H 0.57925 0.70823 0.24699 0.0
H561 H 0.72007 0.76914 0.23962 0.0
H562 H 0.56888 0.67477 0.19122 0.0
H563 H 0.70948 0.73568 0.18392 0.0
H564 H 0.66547 0.62105 0.10287 0.0
H565 H 0.67716 0.65682 0.15798 0.0
H566 H 0.58528 0.70132 0.13284 0.0
H567 H 0.57341 0.6657 0.07786 0.0
C568 C 0.60797 0.71458 0.23349 0.0
C569 C 0.65047 0.74132 0.24779 0.0
C570 C 0.60202 0.6956 0.20151 0.0
C571 C 0.63839 0.70258 0.18331 0.0
C572 C 0.68086 0.72939 0.19753 0.0
C573 C 0.68686 0.74877 0.22935 0.0
C574 C 0.64789 0.63861 0.10903 0.0
C575 C 0.6185 0.64046 0.08594 0.0
C576 C 0.65473 0.65922 0.14053 0.0
C577 C 0.63202 0.68171 0.14967 0.0
C578 C 0.60285 0.68379 0.12657 0.0
C579 C 0.5963 0.66358 0.09501 0.0
H580 H 0.35736 0.91793 0.07414 0.0
H581 H 0.41052 0.06019 0.10041 0.0
H582 H 0.30999 0.89741 0.12144 0.0
H583 H 0.36366 0.0395 0.14786 0.0
H584 H 0.27849 0.8864 0.23317 0.0
H585 H 0.31776 0.90133 0.182 0.0
H586 H 0.28523 0.00485 0.1604 0.0
H587 H 0.24642 0.99057 0.21203 0.0
C588 C 0.35919 0.94483 0.09008 0.0
C589 C 0.38781 0.99073 0.08349 0.0
C590 C 0.33203 0.93303 0.11716 0.0
C591 C 0.33286 0.96686 0.13816 0.0
C592 C 0.36168 0.01269 0.13173 0.0
C593 C 0.38887 0.02451 0.10472 0.0
C594 C 0.27921 0.91202 0.21737 0.0
C595 C 0.25981 0.93775 0.22692 0.0
C596 C 0.30156 0.92037 0.18794 0.0
C597 C 0.30503 0.95464 0.16743 0.0
C598 C 0.28374 0.97879 0.17609 0.0
C599 C 0.26124 0.97035 0.20552 0.0
H600 H 0.41346 0.09768 0.92797 0.0
H601 H 0.42108 0.98328 0.88811 0.0
H602 H 0.38835 0.10778 0.874 0.0
H603 H 0.39856 0.9948 0.83377 0.0
H604 H 0.32292 0.99728 0.74575 0.0
H605 H 0.339 0.98648 0.80249 0.0
H606 H 0.41026 0.13217 0.82064 0.0
H607 H 0.3913 0.1423 0.76431 0.0
C608 C 0.41021 0.07501 0.90753 0.0
C609 C 0.41905 0.03958 0.91222 0.0
C610 C 0.396 0.0809 0.87652 0.0
C611 C 0.3911 0.05199 0.8494 0.0
C612 C 0.40072 0.01701 0.85416 0.0
C613 C 0.41405 0.01059 0.88528 0.0
C614 C 0.34138 0.02682 0.76218 0.0
C615 C 0.356 0.07054 0.75089 0.0
C616 C 0.35108 0.02077 0.79457 0.0
C617 C 0.37676 0.05847 0.81611 0.0
C618 C 0.39006 0.10228 0.80497 0.0
C619 C 0.37934 0.1082 0.77271 0.0
H620 H 0.94188 0.3654 0.91222 0.0
H621 H 0.07501 0.42096 0.87958 0.0
H622 H 0.91386 0.33092 0.85689 0.0
H623 H 0.04697 0.38679 0.82477 0.0
H624 H 0.98229 0.26285 0.75347 0.0
H625 H 0.00733 0.30442 0.80637 0.0
H626 H 0.91246 0.34873 0.7955 0.0
H627 H 0.88694 0.30681 0.74223 0.0
C628 C 0.96511 0.37082 0.8932 0.0
C629 C 0.01065 0.39521 0.90045 0.0
C630 C 0.94906 0.35123 0.86155 0.0
C631 C 0.97832 0.35561 0.83684 0.0
C632 C 0.02373 0.38215 0.84361 0.0
C633 C 0.03973 0.4018 0.87502 0.0
C634 C 0.96661 0.28132 0.76227 0.0
C635 C 0.93267 0.28158 0.74358 0.0
C636 C 0.98119 0.3054 0.79248 0.0
C637 C 0.96206 0.33008 0.80481 0.0
C638 C 0.92766 0.32988 0.78651 0.0
C639 C 0.91323 0.30602 0.75603 0.0
H640 H 0.71857 0.58164 0.75157 0.0
H641 H 0.77246 0.72617 0.76736 0.0
H642 H 0.68734 0.56875 0.80616 0.0
H643 H 0.74097 0.71301 0.82216 0.0
H644 H 0.62554 0.65779 0.89606 0.0
H645 H 0.6629 0.67476 0.84354 0.0
H646 H 0.71317 0.58562 0.86614 0.0
H647 H 0.67608 0.56858 0.91851 0.0
C648 C 0.72399 0.61069 0.76675 0.0
C649 C 0.74791 0.65492 0.75507 0.0
C650 C 0.70627 0.60329 0.79808 0.0
C651 C 0.71165 0.63988 0.8183 0.0
C652 C 0.73605 0.68419 0.80691 0.0
C653 C 0.75429 0.69169 0.77567 0.0
C654 C 0.64463 0.64189 0.88986 0.0
C655 C 0.6476 0.61164 0.91141 0.0
C656 C 0.66625 0.65187 0.85993 0.0
C657 C 0.69084 0.63143 0.85082 0.0
C658 C 0.69412 0.60154 0.87245 0.0
C659 C 0.67294 0.59192 0.90248 0.0
H660 H 0.76541 0.80505 0.42231 0.0
H661 H 0.62802 0.71283 0.43955 0.0
H662 H 0.78572 0.78293 0.47346 0.0
H663 H 0.64855 0.69128 0.49112 0.0
H664 H 0.7049 0.62692 0.5606 0.0
H665 H 0.68507 0.64948 0.50924 0.0
H666 H 0.78133 0.78966 0.53325 0.0
H667 H 0.80173 0.76725 0.58428 0.0
C668 C 0.73945 0.78033 0.43712 0.0
C669 C 0.69502 0.7607 0.42673 0.0
C670 C 0.75116 0.76779 0.46654 0.0
C671 C 0.71877 0.73525 0.4863 0.0
C672 C 0.67431 0.71599 0.47619 0.0
C673 C 0.66254 0.72862 0.44675 0.0
C674 C 0.72204 0.66253 0.55487 0.0
C675 C 0.75489 0.69524 0.57665 0.0
C676 C 0.71039 0.67548 0.52555 0.0
C677 C 0.73143 0.72138 0.51727 0.0
C678 C 0.76475 0.75398 0.53876 0.0
C679 C 0.77634 0.74109 0.5681 0.0
H680 H 0.29255 0.94454 0.42051 0.0
H681 H 0.2578 0.04478 0.39295 0.0
H682 H 0.32162 0.9843 0.47355 0.0
H683 H 0.28756 0.08499 0.44617 0.0
H684 H 0.2873 0.09593 0.56279 0.0
H685 H 0.26836 0.07208 0.50458 0.0
H686 H 0.38121 0.05407 0.49846 0.0
H687 H 0.39938 0.07663 0.5567 0.0
C688 C 0.2914 0.97527 0.42562 0.0
C689 C 0.27242 0.99118 0.40256 0.0
C690 C 0.30844 0.99832 0.45596 0.0
C691 C 0.30711 0.03796 0.46396 0.0
C692 C 0.28872 0.05434 0.44078 0.0
C693 C 0.27162 0.03122 0.41033 0.0
C694 C 0.30854 0.0878 0.54878 0.0
C695 C 0.34423 0.08715 0.56437 0.0
C696 C 0.29778 0.07425 0.51543 0.0
C697 C 0.32279 0.06025 0.49718 0.0
C698 C 0.36065 0.06347 0.51215 0.0
C699 C 0.37114 0.07656 0.54545 0.0
H700 H 0.01169 0.26061 0.58475 0.0
H701 H 0.89505 0.25678 0.54489 0.0
H702 H 0.04879 0.29097 0.53339 0.0
H703 H 0.93089 0.28444 0.4929 0.0
H704 H 0.01452 0.37453 0.41512 0.0
H705 H 0.98408 0.3497 0.46917 0.0
H706 H 0.05353 0.27527 0.47754 0.0
H707 H 0.08612 0.3029 0.42415 0.0
C708 C 0.99379 0.26565 0.56477 0.0
C709 C 0.95059 0.25661 0.56883 0.0
C710 C 0.01498 0.28289 0.53526 0.0
C711 C 0.99311 0.29067 0.50896 0.0
C712 C 0.94935 0.28025 0.51286 0.0
C713 C 0.92855 0.26394 0.54257 0.0
C714 C 0.02372 0.35344 0.42887 0.0
C715 C 0.05252 0.34054 0.41566 0.0
C716 C 0.0059 0.33869 0.45966 0.0
C717 C 0.01552 0.30962 0.47757 0.0
C718 C 0.0456 0.29792 0.46468 0.0
C719 C 0.06429 0.31365 0.4341 0.0
loop_
_geom_bond_atom_site_label_1
_geom_bond_atom_site_label_2
_geom_bond_distance
_geom_bond_site_symmetry_2
_ccdc_geom_bond_type
Zn0 O6 1.969 . S
Zn0 O7 1.965 1_556 S
Zn0 O11 2.024 1_556 S
Zn0 O16 1.969 . S
Zn1 O8 1.969 . S
Zn1 O14 1.969 . S
Zn1 O15 1.965 1_554 S
Zn1 O17 2.024 1_554 S
C2 O3 1.229 . S
C2 O11 1.058 1_556 S
O3 C2 1.229 . S
C4 O5 1.229 . S
C4 O17 1.058 1_554 S
O5 C4 1.229 . S
O6 Zn0 1.969 . S
O6 C9 1.267 1_556 S
O7 Zn0 1.965 1_554 S
O7 C18 1.260 . S
O8 Zn1 1.969 . S
O8 C18 1.258 1_655 S
C9 O6 1.267 1_554 S
C9 O10 1.228 . S
O10 C9 1.228 . S
O11 Zn0 2.024 1_554 S
O11 C2 1.058 1_554 S
C12 O13 1.228 1_554 S
C12 O14 1.267 . S
O13 C12 1.228 1_556 S
O14 Zn1 1.969 . S
O14 C12 1.267 . S
O15 Zn1 1.965 1_556 S
O15 C19 1.260 . S
O16 Zn0 1.969 . S
O16 C19 1.258 1_455 S
O17 Zn1 2.024 1_556 S
O17 C4 1.058 1_556 S
C18 O7 1.260 . S
C18 O8 1.258 1_455 S
C19 O15 1.260 . S
C19 O16 1.258 1_655 S
Zn20 O26 1.969 . S
Zn20 O27 1.965 1_554 S
Zn20 O31 2.024 1_554 S
Zn20 O36 1.969 . S
Zn21 O28 1.969 . S
Zn21 O34 1.969 . S
Zn21 O35 1.965 1_556 S
Zn21 O37 2.024 1_556 S
C22 O23 1.229 . S
C22 O31 1.058 1_554 S
O23 C22 1.229 . S
C24 O25 1.229 . S
C24 O37 1.058 1_556 S
O25 C24 1.229 . S
O26 Zn20 1.969 . S
O26 C29 1.263 1_554 S
O27 Zn20 1.965 1_556 S
O27 C38 1.260 . S
O28 Zn21 1.969 . S
O28 C38 1.258 . S
C29 O26 1.263 1_556 S
C29 O30 1.233 . S
O30 C29 1.233 . S
O31 Zn20 2.024 1_556 S
O31 C22 1.058 1_556 S
C32 O33 1.228 . S
C32 O34 1.267 1_554 S
O33 C32 1.228 . S
O34 Zn21 1.969 . S
O34 C32 1.267 1_556 S
O35 Zn21 1.965 1_554 S
O35 C39 1.260 . S
O36 Zn20 1.969 . S
O36 C39 1.258 . S
O37 Zn21 2.024 1_554 S
O37 C24 1.058 1_554 S
C38 O27 1.260 . S
C38 O28 1.258 . S
C39 O35 1.260 . S
C39 O36 1.258 . S
Zn40 O46 1.969 . S
Zn40 O47 1.965 1_556 S
Zn40 O51 2.024 1_556 S
Zn40 O56 1.969 . S
Zn41 O48 1.969 . S
Zn41 O54 1.969 . S
Zn41 O55 1.965 1_554 S
Zn41 O57 2.022 1_554 S
C42 O43 1.229 . S
C42 O51 1.058 1_556 S
O43 C42 1.229 . S
C44 O45 1.229 . S
C44 O57 1.055 1_554 S
O45 C44 1.229 . S
O46 Zn40 1.969 . S
O46 C49 1.267 1_556 S
O47 Zn40 1.965 1_554 S
O47 C58 1.260 . S
O48 Zn41 1.969 . S
O48 C58 1.258 1_545 S
C49 O46 1.267 1_554 S
C49 O50 1.228 . S
O50 C49 1.228 . S
O51 Zn40 2.024 1_554 S
O51 C42 1.058 1_554 S
C52 O53 1.228 1_554 S
C52 O54 1.267 . S
O53 C52 1.228 1_556 S
O54 Zn41 1.969 . S
O54 C52 1.267 . S
O55 Zn41 1.965 1_556 S
O55 C59 1.260 . S
O56 Zn40 1.969 . S
O56 C59 1.258 1_565 S
O57 Zn41 2.022 1_556 S
O57 C44 1.055 1_556 S
C58 O47 1.260 . S
C58 O48 1.258 1_565 S
C59 O55 1.260 . S
C59 O56 1.258 1_545 S
Zn60 O66 1.969 . S
Zn60 O67 1.965 . S
Zn60 O71 2.024 . S
Zn60 O76 1.969 . S
Zn61 O68 1.969 . S
Zn61 O74 1.969 . S
Zn61 O75 1.965 . S
Zn61 O77 2.024 . S
C62 O63 1.229 . S
C62 O71 1.058 . S
O63 C62 1.229 . S
C64 O65 1.229 . S
C64 O77 1.058 . S
O65 C64 1.229 . S
O66 Zn60 1.969 . S
O66 C69 1.267 . S
O67 Zn60 1.965 . S
O67 C78 1.260 . S
O68 Zn61 1.969 . S
O68 C78 1.258 . S
C69 O66 1.267 . S
C69 O70 1.228 . S
O70 C69 1.228 . S
O71 Zn60 2.024 . S
O71 C62 1.058 . S
C72 O73 1.228 . S
C72 O74 1.267 . S
O73 C72 1.228 . S
O74 Zn61 1.969 . S
O74 C72 1.267 . S
O75 Zn61 1.965 . S
O75 C79 1.260 . S
O76 Zn60 1.969 . S
O76 C79 1.258 . S
O77 Zn61 2.024 . S
O77 C64 1.058 . S
C78 O67 1.260 . S
C78 O68 1.258 . S
C79 O75 1.260 . S
C79 O76 1.258 . S
Zn80 O86 1.969 . S
Zn80 O87 1.965 . S
Zn80 O91 2.024 . S
Zn80 O96 1.969 . S
Zn81 O88 1.969 . S
Zn81 O94 1.969 . S
Zn81 O95 1.965 . S
Zn81 O97 2.024 . S
C82 O83 1.229 . S
C82 O91 1.058 . S
O83 C82 1.229 . S
C84 O85 1.229 . S
C84 O97 1.058 . S
O85 C84 1.229 . S
O86 Zn80 1.969 . S
O86 C89 1.267 1_565 S
O87 Zn80 1.965 . S
O87 C98 1.260 . S
O88 Zn81 1.969 . S
O88 C98 1.258 . S
C89 O86 1.267 1_545 S
C89 O90 1.228 . S
O90 C89 1.228 . S
O91 Zn80 2.024 . S
O91 C82 1.058 . S
C92 O93 1.228 . S
C92 O94 1.267 . S
O93 C92 1.228 . S
O94 Zn81 1.969 . S
O94 C92 1.267 . S
O95 Zn81 1.965 . S
O95 C99 1.260 . S
O96 Zn80 1.969 . S
O96 C99 1.258 . S
O97 Zn81 2.024 . S
O97 C84 1.058 . S
C98 O87 1.260 . S
C98 O88 1.258 . S
C99 O95 1.260 . S
C99 O96 1.258 . S
Zn100 O106 1.969 . S
Zn100 O107 1.965 . S
Zn100 O111 2.024 . S
Zn100 O116 1.969 . S
Zn101 O108 1.969 . S
Zn101 O114 1.969 . S
Zn101 O115 1.965 . S
Zn101 O117 2.024 . S
C102 O103 1.229 . S
C102 O111 1.058 . S
O103 C102 1.229 . S
C104 O105 1.229 . S
C104 O117 1.058 . S
O105 C104 1.229 . S
O106 Zn100 1.969 . S
O106 C109 1.268 . S
O107 Zn100 1.965 . S
O107 C118 1.260 . S
O108 Zn101 1.969 . S
O108 C118 1.258 . S
C109 O106 1.268 . S
C109 O110 1.231 . S
O110 C109 1.231 . S
O111 Zn100 2.024 . S
O111 C102 1.058 . S
C112 O113 1.228 . S
C112 O114 1.267 . S
O113 C112 1.228 . S
O114 Zn101 1.969 . S
O114 C112 1.267 . S
O115 Zn101 1.965 . S
O115 C119 1.260 . S
O116 Zn100 1.969 . S
O116 C119 1.258 . S
O117 Zn101 2.024 . S
O117 C104 1.058 . S
C118 O107 1.260 . S
C118 O108 1.258 . S
C119 O115 1.260 . S
C119 O116 1.258 . S
Zn120 O126 1.969 . S
Zn120 O127 1.965 . S
Zn120 O131 2.024 . S
Zn120 O136 1.969 . S
Zn121 O128 1.969 . S
Zn121 O134 1.969 . S
Zn121 O135 1.965 . S
Zn121 O137 2.024 . S
C122 O123 1.229 . S
C122 O131 1.058 . S
O123 C122 1.229 . S
C124 O125 1.229 . S
C124 O137 1.058 . S
O125 C124 1.229 . S
O126 Zn120 1.969 . S
O126 C129 1.267 . S
O127 Zn120 1.965 . S
O127 C138 1.260 . S
O128 Zn121 1.969 . S
O128 C138 1.258 . S
C129 O126 1.267 . S
C129 O130 1.228 . S
O130 C129 1.228 . S
O131 Zn120 2.024 . S
O131 C122 1.058 . S
C132 O133 1.228 . S
C132 O134 1.267 . S
O133 C132 1.228 . S
O134 Zn121 1.969 . S
O134 C132 1.267 . S
O135 Zn121 1.965 . S
O135 C139 1.260 . S
O136 Zn120 1.969 . S
O136 C139 1.258 . S
O137 Zn121 2.024 . S
O137 C124 1.058 . S
C138 O127 1.260 . S
C138 O128 1.258 . S
C139 O135 1.260 . S
C139 O136 1.258 . S
Zn140 O146 1.969 . S
Zn140 O147 1.965 . S
Zn140 O151 2.024 . S
Zn140 O156 1.969 . S
Zn141 O148 1.969 . S
Zn141 O154 1.969 . S
Zn141 O155 1.965 . S
Zn141 O157 2.024 . S
C142 O143 1.229 . S
C142 O151 1.058 . S
O143 C142 1.229 . S
C144 O145 1.229 . S
C144 O157 1.058 . S
O145 C144 1.229 . S
O146 Zn140 1.969 . S
O146 C149 1.267 1_655 S
O147 Zn140 1.965 . S
O147 C158 1.260 . S
O148 Zn141 1.969 . S
O148 C158 1.258 . S
C149 O146 1.267 1_455 S
C149 O150 1.228 1_455 S
O150 C149 1.228 1_655 S
O151 Zn140 2.024 . S
O151 C142 1.058 . S
C152 O153 1.228 . S
C152 O154 1.267 . S
O153 C152 1.228 . S
O154 Zn141 1.969 . S
O154 C152 1.267 . S
O155 Zn141 1.965 . S
O155 C159 1.260 . S
O156 Zn140 1.969 . S
O156 C159 1.258 . S
O157 Zn141 2.024 . S
O157 C144 1.058 . S
C158 O147 1.260 . S
C158 O148 1.258 . S
C159 O155 1.260 . S
C159 O156 1.258 . S
Zn160 O166 1.969 . S
Zn160 O167 1.965 . S
Zn160 O171 2.024 . S
Zn160 O176 1.969 . S
Zn161 O168 1.969 . S
Zn161 O174 1.969 . S
Zn161 O175 1.965 . S
Zn161 O177 2.024 . S
C162 O163 1.229 . S
C162 O171 1.058 . S
O163 C162 1.229 . S
C164 O165 1.229 . S
C164 O177 1.058 . S
O165 C164 1.229 . S
O166 Zn160 1.969 . S
O166 C169 1.267 . S
O167 Zn160 1.965 . S
O167 C178 1.260 . S
O168 Zn161 1.969 . S
O168 C178 1.258 . S
C169 O166 1.267 . S
C169 O170 1.228 . S
O170 C169 1.228 . S
O171 Zn160 2.024 . S
O171 C162 1.058 . S
C172 O173 1.228 . S
C172 O174 1.267 . S
O173 C172 1.228 . S
O174 Zn161 1.969 . S
O174 C172 1.267 . S
O175 Zn161 1.965 . S
O175 C179 1.260 . S
O176 Zn160 1.969 . S
O176 C179 1.258 . S
O177 Zn161 2.024 . S
O177 C164 1.058 . S
C178 O167 1.260 . S
C178 O168 1.258 . S
C179 O175 1.260 . S
C179 O176 1.258 . S
H180 C188 0.950 . S
H181 C193 0.950 . S
H182 C190 0.950 . S
H183 C192 0.950 . S
H184 C194 0.952 . S
H185 C196 0.950 . S
H186 C198 0.950 . S
H187 C199 0.950 . S
C188 H180 0.950 . S
C188 C189 1.383 1_554 S
C188 C190 1.391 . S
C189 C188 1.383 1_556 S
C189 C193 1.395 . S
C190 H182 0.950 . S
C190 C188 1.391 . S
C190 C191 1.400 . S
C191 C190 1.400 . S
C191 C192 1.398 1_554 S
C191 C197 1.491 . S
C192 H183 0.950 . S
C192 C191 1.398 1_556 S
C192 C193 1.391 . S
C193 H181 0.950 . S
C193 C189 1.395 . S
C193 C192 1.391 . S
C194 H184 0.952 . S
C194 C195 1.383 1_556 S
C194 C196 1.393 . S
C195 C194 1.383 1_554 S
C195 C199 1.393 . S
C196 H185 0.950 . S
C196 C194 1.393 . S
C196 C197 1.400 1_556 S
C197 C191 1.491 . S
C197 C196 1.400 1_554 S
C197 C198 1.398 . S
C198 H186 0.950 . S
C198 C197 1.398 . S
C198 C199 1.391 . S
C199 H187 0.950 . S
C199 C195 1.393 . S
C199 C198 1.391 . S
H200 C208 0.950 . S
H201 C213 0.950 . S
H202 C210 0.950 . S
H203 C212 0.950 . S
H204 C214 0.950 . S
H205 C216 0.950 . S
H206 C218 0.950 . S
H207 C219 0.950 . S
C208 H200 0.950 . S
C208 C209 1.386 . S
C208 C210 1.391 . S
C209 C208 1.386 . S
C209 C213 1.393 . S
C210 H202 0.950 . S
C210 C208 1.391 . S
C210 C211 1.400 . S
C211 C210 1.400 . S
C211 C212 1.398 . S
C211 C217 1.491 . S
C212 H203 0.950 . S
C212 C211 1.398 . S
C212 C213 1.391 . S
C213 H201 0.950 . S
C213 C209 1.393 . S
C213 C212 1.391 . S
C214 H204 0.950 . S
C214 C215 1.386 . S
C214 C216 1.391 . S
C215 C214 1.386 . S
C215 C219 1.393 . S
C216 H205 0.950 . S
C216 C214 1.391 . S
C216 C217 1.400 . S
C217 C211 1.491 . S
C217 C216 1.400 . S
C217 C218 1.398 . S
C218 H206 0.950 . S
C218 C217 1.398 . S
C218 C219 1.391 . S
C219 H207 0.950 . S
C219 C215 1.393 . S
C219 C218 1.391 . S
H220 C228 0.950 . S
H221 C233 0.950 . S
H222 C230 0.950 . S
H223 C232 0.950 . S
H224 C234 0.950 . S
H225 C236 0.950 . S
H226 C238 0.950 . S
H227 C239 0.950 . S
C228 H220 0.950 . S
C228 C229 1.409 . S
C228 C230 1.391 . S
C229 C228 1.409 . S
C229 C233 1.370 1_554 S
C230 H222 0.950 . S
C230 C228 1.391 . S
C230 C231 1.400 1_554 S
C231 C230 1.400 1_556 S
C231 C232 1.398 . S
C231 C237 1.491 . S
C232 H223 0.950 . S
C232 C231 1.398 . S
C232 C233 1.391 . S
C233 H221 0.950 . S
C233 C229 1.370 1_556 S
C233 C232 1.391 . S
C234 H224 0.950 . S
C234 C235 1.386 . S
C234 C236 1.391 . S
C235 C234 1.386 . S
C235 C239 1.393 1_556 S
C236 H225 0.950 . S
C236 C234 1.391 . S
C236 C237 1.400 . S
C237 C231 1.491 . S
C237 C236 1.400 . S
C237 C238 1.398 1_556 S
C238 H226 0.950 . S
C238 C237 1.398 1_554 S
C238 C239 1.391 . S
C239 H227 0.950 . S
C239 C235 1.393 1_554 S
C239 C238 1.391 . S
H240 C248 0.950 . S
H241 C253 0.950 . S
H242 C250 0.950 . S
H243 C252 0.950 . S
H244 C254 0.950 . S
H245 C256 0.950 . S
H246 C258 0.950 . S
H247 C259 0.950 . S
C248 H240 0.950 . S
C248 C249 1.386 . S
C248 C250 1.391 . S
C249 C248 1.386 . S
C249 C253 1.393 1_554 S
C250 H242 0.950 . S
C250 C248 1.391 . S
C250 C251 1.400 . S
C251 C250 1.400 . S
C251 C252 1.398 1_554 S
C251 C257 1.491 . S
C252 H243 0.950 . S
C252 C251 1.398 1_556 S
C252 C253 1.391 . S
C253 H241 0.950 . S
C253 C249 1.393 1_556 S
C253 C252 1.391 . S
C254 H244 0.950 . S
C254 C255 1.386 1_556 S
C254 C256 1.391 . S
C255 C254 1.386 1_554 S
C255 C259 1.393 . S
C256 H245 0.950 . S
C256 C254 1.391 . S
C256 C257 1.400 1_556 S
C257 C251 1.491 . S
C257 C256 1.400 1_554 S
C257 C258 1.398 . S
C258 H246 0.950 . S
C258 C257 1.398 . S
C258 C259 1.391 . S
C259 H247 0.950 . S
C259 C255 1.393 . S
C259 C258 1.391 . S
H260 C268 0.950 . S
H261 C273 0.951 . S
H262 C270 0.950 . S
H263 C272 0.950 1_556 S
H264 C274 0.950 1_556 S
H265 C276 0.950 1_556 S
H266 C278 0.950 . S
H267 C279 0.950 . S
C268 H260 0.950 . S
C268 C269 1.386 . S
C268 C270 1.391 . S
C269 C268 1.386 . S
C269 C273 1.392 1_554 S
C270 H262 0.950 . S
C270 C268 1.391 . S
C270 C271 1.400 . S
C271 C270 1.400 . S
C271 C272 1.398 . S
C271 C277 1.491 . S
C272 H263 0.950 1_554 S
C272 C271 1.398 . S
C272 C273 1.391 1_554 S
C273 H261 0.951 . S
C273 C269 1.392 1_556 S
C273 C272 1.391 1_556 S
C274 H264 0.950 1_554 S
C274 C275 1.386 . S
C274 C276 1.391 . S
C275 C274 1.386 . S
C275 C279 1.393 . S
C276 H265 0.950 1_554 S
C276 C274 1.391 . S
C276 C277 1.400 . S
C277 C271 1.491 . S
C277 C276 1.400 . S
C277 C278 1.398 . S
C278 H266 0.950 . S
C278 C277 1.398 . S
C278 C279 1.391 . S
C279 H267 0.950 . S
C279 C275 1.393 . S
C279 C278 1.391 . S
H280 C288 0.950 . S
H281 C293 0.950 . S
H282 C290 0.950 . S
H283 C292 0.950 . S
H284 C294 0.950 . S
H285 C296 0.950 . S
H286 C298 0.950 . S
H287 C299 0.950 . S
C288 H280 0.950 . S
C288 C289 1.386 1_556 S
C288 C290 1.391 . S
C289 C288 1.386 1_554 S
C289 C293 1.393 . S
C290 H282 0.950 . S
C290 C288 1.391 . S
C290 C291 1.400 1_556 S
C291 C290 1.400 1_554 S
C291 C292 1.398 . S
C291 C297 1.491 . S
C292 H283 0.950 . S
C292 C291 1.398 . S
C292 C293 1.391 . S
C293 H281 0.950 . S
C293 C289 1.393 . S
C293 C292 1.391 . S
C294 H284 0.950 . S
C294 C295 1.386 . S
C294 C296 1.391 . S
C295 C294 1.386 . S
C295 C299 1.393 1_554 S
C296 H285 0.950 . S
C296 C294 1.391 . S
C296 C297 1.400 . S
C297 C291 1.491 . S
C297 C296 1.400 . S
C297 C298 1.398 1_554 S
C298 H286 0.950 . S
C298 C297 1.398 1_556 S
C298 C299 1.391 . S
C299 H287 0.950 . S
C299 C295 1.393 1_556 S
C299 C298 1.391 . S
H300 C308 0.950 . S
H301 C313 0.950 . S
H302 C310 0.950 . S
H303 C312 0.950 . S
H304 C314 0.950 . S
H305 C316 0.950 1_655 S
H306 C318 0.950 . S
H307 C319 0.950 . S
C308 H300 0.950 . S
C308 C309 1.386 . S
C308 C310 1.391 . S
C309 C308 1.386 . S
C309 C313 1.393 . S
C310 H302 0.950 . S
C310 C308 1.391 . S
C310 C311 1.400 . S
C311 C310 1.400 . S
C311 C312 1.398 . S
C311 C317 1.491 . S
C312 H303 0.950 . S
C312 C311 1.398 . S
C312 C313 1.391 . S
C313 H301 0.950 . S
C313 C309 1.393 . S
C313 C312 1.391 . S
C314 H304 0.950 . S
C314 C315 1.386 . S
C314 C316 1.391 . S
C315 C314 1.386 . S
C315 C319 1.393 . S
C316 H305 0.950 1_455 S
C316 C314 1.391 . S
C316 C317 1.400 1_455 S
C317 C311 1.491 . S
C317 C316 1.400 1_655 S
C317 C318 1.398 . S
C318 H306 0.950 . S
C318 C317 1.398 . S
C318 C319 1.391 1_655 S
C319 H307 0.950 . S
C319 C315 1.393 . S
C319 C318 1.391 1_455 S
H320 C328 0.950 . S
H321 C333 0.950 . S
H322 C330 0.950 . S
H323 C332 0.950 . S
H324 C334 0.950 . S
H325 C336 0.950 . S
H326 C338 0.950 . S
H327 C339 0.950 . S
C328 H320 0.950 . S
C328 C329 1.386 . S
C328 C330 1.391 . S
C329 C328 1.386 . S
C329 C333 1.393 . S
C330 H322 0.950 . S
C330 C328 1.391 . S
C330 C331 1.400 . S
C331 C330 1.400 . S
C331 C332 1.398 . S
C331 C337 1.491 . S
C332 H323 0.950 . S
C332 C331 1.398 . S
C332 C333 1.391 . S
C333 H321 0.950 . S
C333 C329 1.393 . S
C333 C332 1.391 . S
C334 H324 0.950 . S
C334 C335 1.386 . S
C334 C336 1.391 . S
C335 C334 1.386 . S
C335 C339 1.393 . S
C336 H325 0.950 . S
C336 C334 1.391 . S
C336 C337 1.400 . S
C337 C331 1.491 . S
C337 C336 1.400 . S
C337 C338 1.398 . S
C338 H326 0.950 . S
C338 C337 1.398 . S
C338 C339 1.391 . S
C339 H327 0.950 . S
C339 C335 1.393 . S
C339 C338 1.391 . S
H340 C348 0.947 . S
H341 C353 0.950 . S
H342 C350 0.950 . S
H343 C352 0.950 . S
H344 C354 0.950 . S
H345 C356 0.950 . S
H346 C358 0.950 . S
H347 C359 0.950 . S
C348 H340 0.947 . S
C348 C349 1.386 . S
C348 C350 1.391 . S
C349 C348 1.386 . S
C349 C353 1.393 . S
C350 H342 0.950 . S
C350 C348 1.391 . S
C350 C351 1.400 . S
C351 C350 1.400 . S
C351 C352 1.398 . S
C351 C357 1.491 . S
C352 H343 0.950 . S
C352 C351 1.398 . S
C352 C353 1.391 . S
C353 H341 0.950 . S
C353 C349 1.393 . S
C353 C352 1.391 . S
C354 H344 0.950 . S
C354 C355 1.386 . S
C354 C356 1.391 1_565 S
C355 C354 1.386 . S
C355 C359 1.393 . S
C356 H345 0.950 . S
C356 C354 1.391 1_545 S
C356 C357 1.400 . S
C357 C351 1.491 . S
C357 C356 1.400 . S
C357 C358 1.398 . S
C358 H346 0.950 . S
C358 C357 1.398 . S
C358 C359 1.391 1_545 S
C359 H347 0.950 . S
C359 C355 1.393 . S
C359 C358 1.391 1_565 S
H360 C368 0.950 . S
H361 C373 0.950 . S
H362 C370 0.950 . S
H363 C372 0.950 . S
H364 C374 0.950 . S
H365 C376 0.950 . S
H366 C378 0.950 . S
H367 C379 0.950 . S
C368 H360 0.950 . S
C368 C369 1.386 . S
C368 C370 1.391 . S
C369 C368 1.386 . S
C369 C373 1.393 . S
C370 H362 0.950 . S
C370 C368 1.391 . S
C370 C371 1.400 . S
C371 C370 1.400 . S
C371 C372 1.398 . S
C371 C377 1.491 . S
C372 H363 0.950 . S
C372 C371 1.398 . S
C372 C373 1.391 . S
C373 H361 0.950 . S
C373 C369 1.393 . S
C373 C372 1.391 . S
C374 H364 0.950 . S
C374 C375 1.386 . S
C374 C376 1.391 . S
C375 C374 1.386 . S
C375 C379 1.393 . S
C376 H365 0.950 . S
C376 C374 1.391 . S
C376 C377 1.400 . S
C377 C371 1.491 . S
C377 C376 1.400 . S
C377 C378 1.398 . S
C378 H366 0.950 . S
C378 C377 1.398 . S
C378 C379 1.391 . S
C379 H367 0.950 . S
C379 C375 1.393 . S
C379 C378 1.391 . S
H380 C388 0.950 . S
H381 C393 0.950 . S
H382 C390 0.950 . S
H383 C392 0.950 . S
H384 C394 0.950 . S
H385 C396 0.950 . S
H386 C398 0.950 . S
H387 C399 0.950 . S
C388 H380 0.950 . S
C388 C389 1.386 . S
C388 C390 1.391 . S
C389 C388 1.386 . S
C389 C393 1.393 . S
C390 H382 0.950 . S
C390 C388 1.391 . S
C390 C391 1.400 . S
C391 C390 1.400 . S
C391 C392 1.398 . S
C391 C397 1.491 . S
C392 H383 0.950 . S
C392 C391 1.398 . S
C392 C393 1.391 . S
C393 H381 0.950 . S
C393 C389 1.393 . S
C393 C392 1.391 . S
C394 H384 0.950 . S
C394 C395 1.386 . S
C394 C396 1.391 . S
C395 C394 1.386 . S
C395 C399 1.393 . S
C396 H385 0.950 . S
C396 C394 1.391 . S
C396 C397 1.400 . S
C397 C391 1.491 . S
C397 C396 1.400 . S
C397 C398 1.398 . S
C398 H386 0.950 . S
C398 C397 1.398 . S
C398 C399 1.391 . S
C399 H387 0.950 . S
C399 C395 1.393 . S
C399 C398 1.391 . S
H400 C408 0.950 . S
H401 C413 0.950 . S
H402 C410 0.950 . S
H403 C412 0.950 . S
H404 C414 0.950 . S
H405 C416 0.950 . S
H406 C418 0.950 . S
H407 C419 0.950 . S
C408 H400 0.950 . S
C408 C409 1.386 . S
C408 C410 1.391 . S
C409 C408 1.386 . S
C409 C413 1.393 . S
C410 H402 0.950 . S
C410 C408 1.391 . S
C410 C411 1.400 . S
C411 C410 1.400 . S
C411 C412 1.398 . S
C411 C417 1.491 . S
C412 H403 0.950 . S
C412 C411 1.398 . S
C412 C413 1.391 . S
C413 H401 0.950 . S
C413 C409 1.393 . S
C413 C412 1.391 . S
C414 H404 0.950 . S
C414 C415 1.386 . S
C414 C416 1.391 . S
C415 C414 1.386 . S
C415 C419 1.393 . S
C416 H405 0.950 . S
C416 C414 1.391 . S
C416 C417 1.400 . S
C417 C411 1.491 . S
C417 C416 1.400 . S
C417 C418 1.398 . S
C418 H406 0.950 . S
C418 C417 1.398 . S
C418 C419 1.391 . S
C419 H407 0.950 . S
C419 C415 1.393 . S
C419 C418 1.391 . S
H420 C428 0.950 . S
H421 C433 0.950 . S
H422 C430 0.950 . S
H423 C432 0.950 . S
H424 C434 0.950 . S
H425 C436 0.950 . S
H426 C438 0.950 . S
H427 C439 0.950 . S
C428 H420 0.950 . S
C428 C429 1.386 . S
C428 C430 1.391 . S
C429 C428 1.386 . S
C429 C433 1.393 . S
C430 H422 0.950 . S
C430 C428 1.391 . S
C430 C431 1.400 . S
C431 C430 1.400 . S
C431 C432 1.398 . S
C431 C437 1.491 . S
C432 H423 0.950 . S
C432 C431 1.398 . S
C432 C433 1.391 . S
C433 H421 0.950 . S
C433 C429 1.393 . S
C433 C432 1.391 . S
C434 H424 0.950 . S
C434 C435 1.386 . S
C434 C436 1.391 . S
C435 C434 1.386 . S
C435 C439 1.393 . S
C436 H425 0.950 . S
C436 C434 1.391 . S
C436 C437 1.400 . S
C437 C431 1.491 . S
C437 C436 1.400 . S
C437 C438 1.398 . S
C438 H426 0.950 . S
C438 C437 1.398 . S
C438 C439 1.391 . S
C439 H427 0.950 . S
C439 C435 1.393 . S
C439 C438 1.391 . S
H440 C448 0.950 . S
H441 C453 0.950 . S
H442 C450 0.950 . S
H443 C452 0.950 . S
H444 C454 0.950 . S
H445 C456 0.950 . S
H446 C458 0.950 . S
H447 C459 0.950 . S
C448 H440 0.950 . S
C448 C449 1.386 . S
C448 C450 1.391 . S
C449 C448 1.386 . S
C449 C453 1.393 . S
C450 H442 0.950 . S
C450 C448 1.391 . S
C450 C451 1.400 . S
C451 C450 1.400 . S
C451 C452 1.398 . S
C451 C457 1.491 . S
C452 H443 0.950 . S
C452 C451 1.398 . S
C452 C453 1.391 . S
C453 H441 0.950 . S
C453 C449 1.393 . S
C453 C452 1.391 . S
C454 H444 0.950 . S
C454 C455 1.386 . S
C454 C456 1.391 . S
C455 C454 1.386 . S
C455 C459 1.393 . S
C456 H445 0.950 . S
C456 C454 1.391 . S
C456 C457 1.400 . S
C457 C451 1.491 . S
C457 C456 1.400 . S
C457 C458 1.398 . S
C458 H446 0.950 . S
C458 C457 1.398 . S
C458 C459 1.391 . S
C459 H447 0.950 . S
C459 C455 1.393 . S
C459 C458 1.391 . S
H460 C468 0.950 . S
H461 C473 0.950 . S
H462 C470 0.950 . S
H463 C472 0.950 . S
H464 C474 0.950 . S
H465 C476 0.950 . S
H466 C478 0.950 . S
H467 C479 0.950 . S
C468 H460 0.950 . S
C468 C469 1.386 . S
C468 C470 1.391 . S
C469 C468 1.386 . S
C469 C473 1.393 . S
C470 H462 0.950 . S
C470 C468 1.391 . S
C470 C471 1.400 . S
C471 C470 1.400 . S
C471 C472 1.398 . S
C471 C477 1.491 . S
C472 H463 0.950 . S
C472 C471 1.398 . S
C472 C473 1.391 . S
C473 H461 0.950 . S
C473 C469 1.393 . S
C473 C472 1.391 . S
C474 H464 0.950 . S
C474 C475 1.386 . S
C474 C476 1.391 . S
C475 C474 1.386 . S
C475 C479 1.393 . S
C476 H465 0.950 . S
C476 C474 1.391 . S
C476 C477 1.400 . S
C477 C471 1.491 . S
C477 C476 1.400 . S
C477 C478 1.398 . S
C478 H466 0.950 . S
C478 C477 1.398 . S
C478 C479 1.391 . S
C479 H467 0.950 . S
C479 C475 1.393 . S
C479 C478 1.391 . S
H480 C488 0.950 . S
H481 C493 0.950 . S
H482 C490 0.950 . S
H483 C492 0.950 . S
H484 C494 0.950 . S
H485 C496 0.950 . S
H486 C498 0.950 . S
H487 C499 0.950 . S
C488 H480 0.950 . S
C488 C489 1.386 . S
C488 C490 1.391 . S
C489 C488 1.386 . S
C489 C493 1.393 . S
C490 H482 0.950 . S
C490 C488 1.391 . S
C490 C491 1.400 . S
C491 C490 1.400 . S
C491 C492 1.398 . S
C491 C497 1.491 . S
C492 H483 0.950 . S
C492 C491 1.398 . S
C492 C493 1.391 . S
C493 H481 0.950 . S
C493 C489 1.393 . S
C493 C492 1.391 . S
C494 H484 0.950 . S
C494 C495 1.386 . S
C494 C496 1.391 1_545 S
C495 C494 1.386 . S
C495 C499 1.393 . S
C496 H485 0.950 . S
C496 C494 1.391 1_565 S
C496 C497 1.400 . S
C497 C491 1.491 . S
C497 C496 1.400 . S
C497 C498 1.398 . S
C498 H486 0.950 . S
C498 C497 1.398 . S
C498 C499 1.391 1_565 S
C499 H487 0.950 . S
C499 C495 1.393 . S
C499 C498 1.391 1_545 S
H500 C508 0.950 . S
H501 C513 0.950 . S
H502 C510 0.950 . S
H503 C512 0.950 . S
H504 C514 0.950 . S
H505 C516 0.950 . S
H506 C518 0.950 . S
H507 C519 0.950 1_545 S
C508 H500 0.950 . S
C508 C509 1.386 . S
C508 C510 1.391 1_655 S
C509 C508 1.386 . S
C509 C513 1.393 . S
C510 H502 0.950 . S
C510 C508 1.391 1_455 S
C510 C511 1.400 . S
C511 C510 1.400 . S
C511 C512 1.398 . S
C511 C517 1.491 . S
C512 H503 0.950 . S
C512 C511 1.398 . S
C512 C513 1.391 1_455 S
C513 H501 0.950 . S
C513 C509 1.393 . S
C513 C512 1.391 1_655 S
C514 H504 0.950 . S
C514 C515 1.386 . S
C514 C516 1.391 . S
C515 C514 1.386 . S
C515 C519 1.393 . S
C516 H505 0.950 . S
C516 C514 1.391 . S
C516 C517 1.400 . S
C517 C511 1.491 . S
C517 C516 1.400 . S
C517 C518 1.398 . S
C518 H506 0.950 . S
C518 C517 1.398 . S
C518 C519 1.391 . S
C519 H507 0.950 1_565 S
C519 C515 1.393 . S
C519 C518 1.391 . S
H520 C528 0.950 . S
H521 C533 0.950 . S
H522 C530 0.950 . S
H523 C532 0.950 . S
H524 C534 0.950 . S
H525 C536 0.950 . S
H526 C538 0.950 . S
H527 C539 0.950 . S
C528 H520 0.950 . S
C528 C529 1.386 . S
C528 C530 1.391 . S
C529 C528 1.386 . S
C529 C533 1.393 . S
C530 H522 0.950 . S
C530 C528 1.391 . S
C530 C531 1.400 . S
C531 C530 1.400 . S
C531 C532 1.398 . S
C531 C537 1.491 . S
C532 H523 0.950 . S
C532 C531 1.398 . S
C532 C533 1.391 . S
C533 H521 0.950 . S
C533 C529 1.393 . S
C533 C532 1.391 . S
C534 H524 0.950 . S
C534 C535 1.386 . S
C534 C536 1.391 . S
C535 C534 1.386 . S
C535 C539 1.393 . S
C536 H525 0.950 . S
C536 C534 1.391 . S
C536 C537 1.400 . S
C537 C531 1.491 . S
C537 C536 1.400 . S
C537 C538 1.398 . S
C538 H526 0.950 . S
C538 C537 1.398 . S
C538 C539 1.391 . S
C539 H527 0.950 . S
C539 C535 1.393 . S
C539 C538 1.391 . S
H540 C548 0.950 . S
H541 C553 0.950 . S
H542 C550 0.950 . S
H543 C552 0.950 . S
H544 C554 0.950 . S
H545 C556 0.950 . S
H546 C558 0.950 . S
H547 C559 0.950 . S
C548 H540 0.950 . S
C548 C549 1.386 . S
C548 C550 1.391 . S
C549 C548 1.386 . S
C549 C553 1.393 . S
C550 H542 0.950 . S
C550 C548 1.391 . S
C550 C551 1.400 . S
C551 C550 1.400 . S
C551 C552 1.398 . S
C551 C557 1.491 . S
C552 H543 0.950 . S
C552 C551 1.398 . S
C552 C553 1.391 . S
C553 H541 0.950 . S
C553 C549 1.393 . S
C553 C552 1.391 . S
C554 H544 0.950 . S
C554 C555 1.386 . S
C554 C556 1.391 . S
C555 C554 1.386 . S
C555 C559 1.393 . S
C556 H545 0.950 . S
C556 C554 1.391 . S
C556 C557 1.400 . S
C557 C551 1.491 . S
C557 C556 1.400 . S
C557 C558 1.398 . S
C558 H546 0.950 . S
C558 C557 1.398 . S
C558 C559 1.391 . S
C559 H547 0.950 . S
C559 C555 1.393 . S
C559 C558 1.391 . S
H560 C568 0.950 . S
H561 C573 0.950 . S
H562 C570 0.950 . S
H563 C572 0.950 . S
H564 C574 0.950 . S
H565 C576 0.950 . S
H566 C578 0.950 . S
H567 C579 0.950 . S
C568 H560 0.950 . S
C568 C569 1.386 . S
C568 C570 1.391 . S
C569 C568 1.386 . S
C569 C573 1.393 . S
C570 H562 0.950 . S
C570 C568 1.391 . S
C570 C571 1.400 . S
C571 C570 1.400 . S
C571 C572 1.398 . S
C571 C577 1.491 . S
C572 H563 0.950 . S
C572 C571 1.398 . S
C572 C573 1.391 . S
C573 H561 0.950 . S
C573 C569 1.393 . S
C573 C572 1.391 . S
C574 H564 0.950 . S
C574 C575 1.386 . S
C574 C576 1.391 . S
C575 C574 1.386 . S
C575 C579 1.393 . S
C576 H565 0.950 . S
C576 C574 1.391 . S
C576 C577 1.400 . S
C577 C571 1.491 . S
C577 C576 1.400 . S
C577 C578 1.398 . S
C578 H566 0.950 . S
C578 C577 1.398 . S
C578 C579 1.391 . S
C579 H567 0.950 . S
C579 C575 1.393 . S
C579 C578 1.391 . S
H580 C588 0.950 . S
H581 C593 0.950 . S
H582 C590 0.950 . S
H583 C592 0.950 . S
H584 C594 0.950 . S
H585 C596 0.950 . S
H586 C598 0.950 . S
H587 C599 0.950 . S
C588 H580 0.950 . S
C588 C589 1.386 . S
C588 C590 1.391 . S
C589 C588 1.386 . S
C589 C593 1.393 . S
C590 H582 0.950 . S
C590 C588 1.391 . S
C590 C591 1.400 . S
C591 C590 1.400 . S
C591 C592 1.398 . S
C591 C597 1.491 . S
C592 H583 0.950 . S
C592 C591 1.398 . S
C592 C593 1.391 . S
C593 H581 0.950 . S
C593 C589 1.393 . S
C593 C592 1.391 . S
C594 H584 0.950 . S
C594 C595 1.386 . S
C594 C596 1.391 . S
C595 C594 1.386 . S
C595 C599 1.393 . S
C596 H585 0.950 . S
C596 C594 1.391 . S
C596 C597 1.400 . S
C597 C591 1.491 . S
C597 C596 1.400 . S
C597 C598 1.398 . S
C598 H586 0.950 . S
C598 C597 1.398 . S
C598 C599 1.391 . S
C599 H587 0.950 . S
C599 C595 1.393 . S
C599 C598 1.391 . S
H600 C608 0.950 . S
H601 C613 0.950 1_565 S
H602 C610 0.950 . S
H603 C612 0.950 . S
H604 C614 0.950 . S
H605 C616 0.950 . S
H606 C618 0.950 . S
H607 C619 0.950 . S
C608 H600 0.950 . S
C608 C609 1.386 . S
C608 C610 1.391 . S
C609 C608 1.386 . S
C609 C613 1.393 . S
C610 H602 0.950 . S
C610 C608 1.391 . S
C610 C611 1.400 . S
C611 C610 1.400 . S
C611 C612 1.398 . S
C611 C617 1.491 . S
C612 H603 0.950 . S
C612 C611 1.398 . S
C612 C613 1.391 . S
C613 H601 0.950 1_545 S
C613 C609 1.393 . S
C613 C612 1.391 . S
C614 H604 0.950 . S
C614 C615 1.386 . S
C614 C616 1.391 . S
C615 C614 1.386 . S
C615 C619 1.393 . S
C616 H605 0.950 . S
C616 C614 1.391 . S
C616 C617 1.400 . S
C617 C611 1.491 . S
C617 C616 1.400 . S
C617 C618 1.398 . S
C618 H606 0.950 . S
C618 C617 1.398 . S
C618 C619 1.391 . S
C619 H607 0.950 . S
C619 C615 1.393 . S
C619 C618 1.391 . S
H620 C628 0.950 . S
H621 C633 0.950 . S
H622 C630 0.950 . S
H623 C632 0.950 1_455 S
H624 C634 0.950 . S
H625 C636 0.950 . S
H626 C638 0.950 . S
H627 C639 0.950 . S
C628 H620 0.950 . S
C628 C629 1.386 . S
C628 C630 1.391 . S
C629 C628 1.386 . S
C629 C633 1.393 1_655 S
C630 H622 0.950 . S
C630 C628 1.391 . S
C630 C631 1.400 . S
C631 C630 1.400 . S
C631 C632 1.398 . S
C631 C637 1.491 . S
C632 H623 0.950 1_655 S
C632 C631 1.398 . S
C632 C633 1.391 1_655 S
C633 H621 0.950 . S
C633 C629 1.393 1_455 S
C633 C632 1.391 1_455 S
C634 H624 0.950 . S
C634 C635 1.386 . S
C634 C636 1.391 . S
C635 C634 1.386 . S
C635 C639 1.393 . S
C636 H625 0.950 . S
C636 C634 1.391 . S
C636 C637 1.400 . S
C637 C631 1.491 . S
C637 C636 1.400 . S
C637 C638 1.398 . S
C638 H626 0.950 . S
C638 C637 1.398 . S
C638 C639 1.391 . S
C639 H627 0.950 . S
C639 C635 1.393 . S
C639 C638 1.391 . S
H640 C648 0.950 . S
H641 C653 0.950 . S
H642 C650 0.950 . S
H643 C652 0.950 . S
H644 C654 0.950 . S
H645 C656 0.950 . S
H646 C658 0.950 . S
H647 C659 0.950 . S
C648 H640 0.950 . S
C648 C649 1.386 . S
C648 C650 1.391 . S
C649 C648 1.386 . S
C649 C653 1.393 . S
C650 H642 0.950 . S
C650 C648 1.391 . S
C650 C651 1.400 . S
C651 C650 1.400 . S
C651 C652 1.398 . S
C651 C657 1.491 . S
C652 H643 0.950 . S
C652 C651 1.398 . S
C652 C653 1.391 . S
C653 H641 0.950 . S
C653 C649 1.393 . S
C653 C652 1.391 . S
C654 H644 0.950 . S
C654 C655 1.386 . S
C654 C656 1.391 . S
C655 C654 1.386 . S
C655 C659 1.393 . S
C656 H645 0.950 . S
C656 C654 1.391 . S
C656 C657 1.400 . S
C657 C651 1.491 . S
C657 C656 1.400 . S
C657 C658 1.398 . S
C658 H646 0.950 . S
C658 C657 1.398 . S
C658 C659 1.391 . S
C659 H647 0.950 . S
C659 C655 1.393 . S
C659 C658 1.391 . S
H660 C668 0.950 . S
H661 C673 0.950 . S
H662 C670 0.950 . S
H663 C672 0.950 . S
H664 C674 0.950 . S
H665 C676 0.950 . S
H666 C678 0.950 . S
H667 C679 0.950 . S
C668 H660 0.950 . S
C668 C669 1.386 . S
C668 C670 1.391 . S
C669 C668 1.386 . S
C669 C673 1.393 . S
C670 H662 0.950 . S
C670 C668 1.391 . S
C670 C671 1.400 . S
C671 C670 1.400 . S
C671 C672 1.398 . S
C671 C677 1.491 . S
C672 H663 0.950 . S
C672 C671 1.398 . S
C672 C673 1.391 . S
C673 H661 0.950 . S
C673 C669 1.393 . S
C673 C672 1.391 . S
C674 H664 0.950 . S
C674 C675 1.386 . S
C674 C676 1.391 . S
C675 C674 1.386 . S
C675 C679 1.393 . S
C676 H665 0.950 . S
C676 C674 1.391 . S
C676 C677 1.400 . S
C677 C671 1.491 . S
C677 C676 1.400 . S
C677 C678 1.398 . S
C678 H666 0.950 . S
C678 C677 1.398 . S
C678 C679 1.391 . S
C679 H667 0.950 . S
C679 C675 1.393 . S
C679 C678 1.391 . S
H680 C688 0.950 . S
H681 C693 0.950 . S
H682 C690 0.950 . S
H683 C692 0.950 . S
H684 C694 0.950 . S
H685 C696 0.950 . S
H686 C698 0.950 1_565 S
H687 C699 0.950 . S
C688 H680 0.950 . S
C688 C689 1.386 . S
C688 C690 1.391 . S
C689 C688 1.386 . S
C689 C693 1.393 . S
C690 H682 0.950 . S
C690 C688 1.391 . S
C690 C691 1.400 . S
C691 C690 1.400 . S
C691 C692 1.398 1_565 S
C691 C697 1.491 1_565 S
C692 H683 0.950 . S
C692 C691 1.398 1_545 S
C692 C693 1.391 1_545 S
C693 H681 0.950 . S
C693 C689 1.393 . S
C693 C692 1.391 1_565 S
C694 H684 0.950 . S
C694 C695 1.386 . S
C694 C696 1.391 . S
C695 C694 1.386 . S
C695 C699 1.393 . S
C696 H685 0.950 . S
C696 C694 1.391 . S
C696 C697 1.400 . S
C697 C691 1.491 1_545 S
C697 C696 1.400 . S
C697 C698 1.398 . S
C698 H686 0.950 1_545 S
C698 C697 1.398 . S
C698 C699 1.391 . S
C699 H687 0.950 . S
C699 C695 1.393 . S
C699 C698 1.391 . S
H700 C708 0.950 . S
H701 C713 0.950 . S
H702 C710 0.950 . S
H703 C712 0.950 . S
H704 C714 0.950 . S
H705 C716 0.950 1_655 S
H706 C718 0.950 . S
H707 C719 0.950 . S
C708 H700 0.950 . S
C708 C709 1.386 . S
C708 C710 1.391 1_655 S
C709 C708 1.386 . S
C709 C713 1.393 . S
C710 H702 0.950 . S
C710 C708 1.391 1_455 S
C710 C711 1.400 1_455 S
C711 C710 1.400 1_655 S
C711 C712 1.398 . S
C711 C717 1.491 1_655 S
C712 H703 0.950 . S
C712 C711 1.398 . S
C712 C713 1.391 . S
C713 H701 0.950 . S
C713 C709 1.393 . S
C713 C712 1.391 . S
C714 H704 0.950 . S
C714 C715 1.386 . S
C714 C716 1.391 . S
C715 C714 1.386 . S
C715 C719 1.393 . S
C716 H705 0.950 1_455 S
C716 C714 1.391 . S
C716 C717 1.400 . S
C717 C711 1.491 1_455 S
C717 C716 1.400 . S
C717 C718 1.398 . S
C718 H706 0.950 . S
C718 C717 1.398 . S
C718 C719 1.391 . S
C719 H707 0.950 . S
C719 C715 1.393 . S
C719 C718 1.391 . S
C189 C32 1.174 1_556 S
C195 C9 1.061 . S
C209 C42 1.378 . S
C215 C24 1.198 . S
C229 C49 1.154 . S
C235 C2 1.210 . S
C249 C44 1.262 . S
C255 C22 1.451 . S
C269 C52 1.365 . S
C275 C4 1.149 . S
C289 C12 1.181 . S
C295 C29 1.099 1_554 S
C309 C69 1.274 . S
C315 C82 1.417 . S
C329 C102 1.125 . S
C335 C89 1.055 . S
C349 C109 1.161 1_655 S
C355 C62 1.229 . S
C369 C92 1.201 . S
C375 C104 1.021 . S
C389 C112 1.336 . S
C395 C64 1.107 . S
C409 C84 1.275 . S
C415 C72 1.449 . S
C429 C152 1.125 . S
C435 C129 0.996 . S
C449 C144 1.178 . S
C455 C162 1.386 . S
C469 C169 1.133 . S
C475 C122 1.209 . S
C489 C164 1.264 . S
C495 C142 1.393 . S
C509 C172 1.358 . S
C515 C124 1.130 1_565 S
C529 C132 1.192 . S
C535 C149 1.072 . S
C549 C119 2.209 . S
C555 C18 2.155 . S
C569 C79 2.190 . S
C575 C39 2.193 . S
C589 C58 2.260 . S
C595 C99 2.321 . S
C609 C59 2.231 . S
C615 C138 2.144 . S
C629 C19 2.132 . S
C635 C159 2.128 . S
C649 C178 2.240 . S
C655 C38 2.227 . S
C669 C78 2.166 . S
C675 C179 2.231 . S
C689 C98 2.032 . S
C695 C139 2.112 . S
C709 C158 2.182 . S
C715 C118 2.165 . S
