# Generated by pormake.
# Topology wgh, (5)-cn, num edge types: 1
# Building blocks:
#     Node 0, Type 0, BuildingBlock: BEQFEK_clean_sbu_0, # of connection points: 5
#     Node 1, Type 0, BuildingBlock: BEQFEK_clean_sbu_0, # of connection points: 5
#     Node 2, Type 0, BuildingBlock: BEQFEK_clean_sbu_0, # of connection points: 5
#     Node 3, Type 0, BuildingBlock: BEQFEK_clean_sbu_0, # of connection points: 5
#     Node 4, Type 0, BuildingBlock: BEQFEK_clean_sbu_0, # of connection points: 5
#     Node 5, Type 0, BuildingBlock: BEQFEK_clean_sbu_0, # of connection points: 5
#     Node 6, Type 0, BuildingBlock: BEQFEK_clean_sbu_0, # of connection points: 5
#     Node 7, Type 0, BuildingBlock: BEQFEK_clean_sbu_0, # of connection points: 5
#     Node 8, Type 0, BuildingBlock: BEQFEK_clean_sbu_0, # of connection points: 5
#     Node 9, Type 0, BuildingBlock: BEQFEK_clean_sbu_0, # of connection points: 5
#     Node 10, Type 0, BuildingBlock: BEQFEK_clean_sbu_0, # of connection points: 5
#     Node 11, Type 0, BuildingBlock: BEQFEK_clean_sbu_0, # of connection points: 5
#     Node 12, Type 0, BuildingBlock: BEQFEK_clean_sbu_0, # of connection points: 5
#     Node 13, Type 0, BuildingBlock: BEQFEK_clean_sbu_0, # of connection points: 5
#     Node 14, Type 0, BuildingBlock: BEQFEK_clean_sbu_0, # of connection points: 5
#     Node 15, Type 0, BuildingBlock: BEQFEK_clean_sbu_0, # of connection points: 5
#     Node 16, Type 0, BuildingBlock: BEQFEK_clean_sbu_0, # of connection points: 5
#     Node 17, Type 0, BuildingBlock: BEQFEK_clean_sbu_0, # of connection points: 5
#     Node 18, Type 0, BuildingBlock: BEQFEK_clean_sbu_0, # of connection points: 5
#     Node 19, Type 0, BuildingBlock: BEQFEK_clean_sbu_0, # of connection points: 5
#     Node 20, Type 0, BuildingBlock: BEQFEK_clean_sbu_0, # of connection points: 5
#     Node 21, Type 0, BuildingBlock: BEQFEK_clean_sbu_0, # of connection points: 5
#     Node 22, Type 0, BuildingBlock: BEQFEK_clean_sbu_0, # of connection points: 5
#     Node 23, Type 0, BuildingBlock: BEQFEK_clean_sbu_0, # of connection points: 5
#     Node 24, Type 0, BuildingBlock: BEQFEK_clean_sbu_0, # of connection points: 5
#     Node 25, Type 0, BuildingBlock: BEQFEK_clean_sbu_0, # of connection points: 5
#     Node 26, Type 0, BuildingBlock: BEQFEK_clean_sbu_0, # of connection points: 5
#     Node 27, Type 0, BuildingBlock: BEQFEK_clean_sbu_0, # of connection points: 5
#     Node 28, Type 0, BuildingBlock: BEQFEK_clean_sbu_0, # of connection points: 5
#     Node 29, Type 0, BuildingBlock: BEQFEK_clean_sbu_0, # of connection points: 5
#     Node 30, Type 0, BuildingBlock: BEQFEK_clean_sbu_0, # of connection points: 5
#     Node 31, Type 0, BuildingBlock: BEQFEK_clean_sbu_0, # of connection points: 5
#     Edge 32, Type (0, 0), BuildingBlock: CIFDUS_clean_linker_0, # of connection points: 2
#     Edge 33, Type (0, 0), BuildingBlock: CIFDUS_clean_linker_0, # of connection points: 2
#     Edge 34, Type (0, 0), BuildingBlock: CIFDUS_clean_linker_0, # of connection points: 2
#     Edge 35, Type (0, 0), BuildingBlock: CIFDUS_clean_linker_0, # of connection points: 2
#     Edge 36, Type (0, 0), BuildingBlock: CIFDUS_clean_linker_0, # of connection points: 2
#     Edge 37, Type (0, 0), BuildingBlock: CIFDUS_clean_linker_0, # of connection points: 2
#     Edge 38, Type (0, 0), BuildingBlock: CIFDUS_clean_linker_0, # of connection points: 2
#     Edge 39, Type (0, 0), BuildingBlock: CIFDUS_clean_linker_0, # of connection points: 2
#     Edge 40, Type (0, 0), BuildingBlock: CIFDUS_clean_linker_0, # of connection points: 2
#     Edge 41, Type (0, 0), BuildingBlock: CIFDUS_clean_linker_0, # of connection points: 2
#     Edge 42, Type (0, 0), BuildingBlock: CIFDUS_clean_linker_0, # of connection points: 2
#     Edge 43, Type (0, 0), BuildingBlock: CIFDUS_clean_linker_0, # of connection points: 2
#     Edge 44, Type (0, 0), BuildingBlock: CIFDUS_clean_linker_0, # of connection points: 2
#     Edge 45, Type (0, 0), BuildingBlock: CIFDUS_clean_linker_0, # of connection points: 2
#     Edge 46, Type (0, 0), BuildingBlock: CIFDUS_clean_linker_0, # of connection points: 2
#     Edge 47, Type (0, 0), BuildingBlock: CIFDUS_clean_linker_0, # of connection points: 2
#     Edge 48, Type (0, 0), BuildingBlock: CIFDUS_clean_linker_0, # of connection points: 2
#     Edge 49, Type (0, 0), BuildingBlock: CIFDUS_clean_linker_0, # of connection points: 2
#     Edge 50, Type (0, 0), BuildingBlock: CIFDUS_clean_linker_0, # of connection points: 2
#     Edge 51, Type (0, 0), BuildingBlock: CIFDUS_clean_linker_0, # of connection points: 2
#     Edge 52, Type (0, 0), BuildingBlock: CIFDUS_clean_linker_0, # of connection points: 2
#     Edge 53, Type (0, 0), BuildingBlock: CIFDUS_clean_linker_0, # of connection points: 2
#     Edge 54, Type (0, 0), BuildingBlock: CIFDUS_clean_linker_0, # of connection points: 2
#     Edge 55, Type (0, 0), BuildingBlock: CIFDUS_clean_linker_0, # of connection points: 2
#     Edge 56, Type (0, 0), BuildingBlock: CIFDUS_clean_linker_0, # of connection points: 2
#     Edge 57, Type (0, 0), BuildingBlock: CIFDUS_clean_linker_0, # of connection points: 2
#     Edge 58, Type (0, 0), BuildingBlock: CIFDUS_clean_linker_0, # of connection points: 2
#     Edge 59, Type (0, 0), BuildingBlock: CIFDUS_clean_linker_0, # of connection points: 2
#     Edge 60, Type (0, 0), BuildingBlock: CIFDUS_clean_linker_0, # of connection points: 2
#     Edge 61, Type (0, 0), BuildingBlock: CIFDUS_clean_linker_0, # of connection points: 2
#     Edge 62, Type (0, 0), BuildingBlock: CIFDUS_clean_linker_0, # of connection points: 2
#     Edge 63, Type (0, 0), BuildingBlock: CIFDUS_clean_linker_0, # of connection points: 2
#     Edge 64, Type (0, 0), BuildingBlock: CIFDUS_clean_linker_0, # of connection points: 2
#     Edge 65, Type (0, 0), BuildingBlock: CIFDUS_clean_linker_0, # of connection points: 2
#     Edge 66, Type (0, 0), BuildingBlock: CIFDUS_clean_linker_0, # of connection points: 2
#     Edge 67, Type (0, 0), BuildingBlock: CIFDUS_clean_linker_0, # of connection points: 2
#     Edge 68, Type (0, 0), BuildingBlock: CIFDUS_clean_linker_0, # of connection points: 2
#     Edge 69, Type (0, 0), BuildingBlock: CIFDUS_clean_linker_0, # of connection points: 2
#     Edge 70, Type (0, 0), BuildingBlock: CIFDUS_clean_linker_0, # of connection points: 2
#     Edge 71, Type (0, 0), BuildingBlock: CIFDUS_clean_linker_0, # of connection points: 2
#     Edge 72, Type (0, 0), BuildingBlock: CIFDUS_clean_linker_0, # of connection points: 2
#     Edge 73, Type (0, 0), BuildingBlock: CIFDUS_clean_linker_0, # of connection points: 2
#     Edge 74, Type (0, 0), BuildingBlock: CIFDUS_clean_linker_0, # of connection points: 2
#     Edge 75, Type (0, 0), BuildingBlock: CIFDUS_clean_linker_0, # of connection points: 2
#     Edge 76, Type (0, 0), BuildingBlock: CIFDUS_clean_linker_0, # of connection points: 2
#     Edge 77, Type (0, 0), BuildingBlock: CIFDUS_clean_linker_0, # of connection points: 2
#     Edge 78, Type (0, 0), BuildingBlock: CIFDUS_clean_linker_0, # of connection points: 2
#     Edge 79, Type (0, 0), BuildingBlock: CIFDUS_clean_linker_0, # of connection points: 2
#     Edge 80, Type (0, 0), BuildingBlock: CIFDUS_clean_linker_0, # of connection points: 2
#     Edge 81, Type (0, 0), BuildingBlock: CIFDUS_clean_linker_0, # of connection points: 2
#     Edge 82, Type (0, 0), BuildingBlock: CIFDUS_clean_linker_0, # of connection points: 2
#     Edge 83, Type (0, 0), BuildingBlock: CIFDUS_clean_linker_0, # of connection points: 2
#     Edge 84, Type (0, 0), BuildingBlock: CIFDUS_clean_linker_0, # of connection points: 2
#     Edge 85, Type (0, 0), BuildingBlock: CIFDUS_clean_linker_0, # of connection points: 2
#     Edge 86, Type (0, 0), BuildingBlock: CIFDUS_clean_linker_0, # of connection points: 2
#     Edge 87, Type (0, 0), BuildingBlock: CIFDUS_clean_linker_0, # of connection points: 2
#     Edge 88, Type (0, 0), BuildingBlock: CIFDUS_clean_linker_0, # of connection points: 2
#     Edge 89, Type (0, 0), BuildingBlock: CIFDUS_clean_linker_0, # of connection points: 2
#     Edge 90, Type (0, 0), BuildingBlock: CIFDUS_clean_linker_0, # of connection points: 2
#     Edge 91, Type (0, 0), BuildingBlock: CIFDUS_clean_linker_0, # of connection points: 2
#     Edge 92, Type (0, 0), BuildingBlock: CIFDUS_clean_linker_0, # of connection points: 2
#     Edge 93, Type (0, 0), BuildingBlock: CIFDUS_clean_linker_0, # of connection points: 2
#     Edge 94, Type (0, 0), BuildingBlock: CIFDUS_clean_linker_0, # of connection points: 2
#     Edge 95, Type (0, 0), BuildingBlock: CIFDUS_clean_linker_0, # of connection points: 2
#     Edge 96, Type (0, 0), BuildingBlock: CIFDUS_clean_linker_0, # of connection points: 2
#     Edge 97, Type (0, 0), BuildingBlock: CIFDUS_clean_linker_0, # of connection points: 2
#     Edge 98, Type (0, 0), BuildingBlock: CIFDUS_clean_linker_0, # of connection points: 2
#     Edge 99, Type (0, 0), BuildingBlock: CIFDUS_clean_linker_0, # of connection points: 2
#     Edge 100, Type (0, 0), BuildingBlock: CIFDUS_clean_linker_0, # of connection points: 2
#     Edge 101, Type (0, 0), BuildingBlock: CIFDUS_clean_linker_0, # of connection points: 2
#     Edge 102, Type (0, 0), BuildingBlock: CIFDUS_clean_linker_0, # of connection points: 2
#     Edge 103, Type (0, 0), BuildingBlock: CIFDUS_clean_linker_0, # of connection points: 2
#     Edge 104, Type (0, 0), BuildingBlock: CIFDUS_clean_linker_0, # of connection points: 2
#     Edge 105, Type (0, 0), BuildingBlock: CIFDUS_clean_linker_0, # of connection points: 2
#     Edge 106, Type (0, 0), BuildingBlock: CIFDUS_clean_linker_0, # of connection points: 2
#     Edge 107, Type (0, 0), BuildingBlock: CIFDUS_clean_linker_0, # of connection points: 2
#     Edge 108, Type (0, 0), BuildingBlock: CIFDUS_clean_linker_0, # of connection points: 2
#     Edge 109, Type (0, 0), BuildingBlock: CIFDUS_clean_linker_0, # of connection points: 2
#     Edge 110, Type (0, 0), BuildingBlock: CIFDUS_clean_linker_0, # of connection points: 2
#     Edge 111, Type (0, 0), BuildingBlock: CIFDUS_clean_linker_0, # of connection points: 2
# Relax obj value: 0.182
# Max RMSD: 0.131
# Mean RMSD: 0.131
data_MOF--net-wgh--node1-BEQFEK_clean_sbu_0--edge1-CIFDUS_clean_linker_0
_symmetry_space_group_name_H-M    P1
_symmetry_Int_Tables_number       1
_symmetry_cell_setting            triclinic
loop_
_symmetry_equiv_pos_as_xyz
'x, y, z'
_cell_length_a     80.381095
_cell_length_b     80.352741
_cell_length_c     20.221227
_cell_angle_alpha  90.031829
_cell_angle_beta   89.937653
_cell_angle_gamma 89.966593
loop_
_atom_site_label
_atom_site_type_symbol
_atom_site_fract_x
_atom_site_fract_y
_atom_site_fract_z
_atom_type_partial_charge
Co0 Co 0.20016 0.21281 0.28533 0.0
Co1 Co 0.18853 0.19208 0.40315 0.0
C2 C 0.18274 0.22681 0.41215 0.0
O3 O 0.19081 0.22782 0.35772 0.0
O4 O 0.17848 0.21271 0.43537 0.0
C5 C 0.18844 0.23637 0.1925 0.0
O6 O 0.17582 0.23608 0.23385 0.0
C7 C 0.17636 0.17148 0.51127 0.0
C8 C 0.19389 0.15029 0.50217 0.0
C9 C 0.18061 0.15629 0.53858 0.0
N10 N 0.18677 0.17431 0.46091 0.0
N11 N 0.19732 0.16176 0.45611 0.0
C12 C 0.16194 0.18248 0.5285 0.0
H13 H 0.15869 0.19067 0.48635 0.0
H14 H 0.15094 0.17491 0.54243 0.0
H15 H 0.16537 0.19042 0.57126 0.0
C16 C 0.17852 0.18691 0.21254 0.0
N17 N 0.1859 0.19352 0.26703 0.0
N18 N 0.18063 0.18529 0.31888 0.0
C19 C 0.16961 0.17349 0.29987 0.0
C20 C 0.1678 0.1738 0.23111 0.0
C21 C 0.18179 0.19302 0.14391 0.0
H22 H 0.1946 0.19808 0.14026 0.0
H23 H 0.17293 0.2032 0.13228 0.0
H24 H 0.18013 0.18286 0.1073 0.0
O25 O 0.2235 0.20743 0.32163 0.0
O26 O 0.2124 0.19635 0.4108 0.0
H27 H 0.16697 0.15215 0.36201 0.0
H28 H 0.14765 0.15937 0.32639 0.0
C29 C 0.1597 0.16334 0.34784 0.0
H30 H 0.15718 0.1707 0.39301 0.0
H31 H 0.20672 0.16095 0.42058 0.0
O32 O 0.20096 0.22705 0.20391 0.0
C33 C 0.22504 0.2018 0.38056 0.0
Co34 Co 0.06513 0.95185 0.5322 0.0
Co35 Co 0.08567 0.94032 0.65069 0.0
C36 C 0.05096 0.93458 0.65916 0.0
O37 O 0.05008 0.94257 0.60449 0.0
O38 O 0.065 0.93032 0.68301 0.0
C39 C 0.04203 0.94012 0.43764 0.0
O40 O 0.04245 0.92733 0.47804 0.0
C41 C 0.10607 0.92973 0.76171 0.0
C42 C 0.12809 0.94584 0.74598 0.0
C43 C 0.12151 0.93378 0.78696 0.0
N44 N 0.10367 0.93895 0.70767 0.0
N45 N 0.1167 0.94873 0.69894 0.0
C46 C 0.09358 0.91772 0.78893 0.0
H47 H 0.08133 0.92398 0.79332 0.0
H48 H 0.09211 0.90714 0.75413 0.0
H49 H 0.09734 0.91297 0.83823 0.0
C50 C 0.09066 0.92946 0.46074 0.0
N51 N 0.08427 0.93733 0.51465 0.0
N52 N 0.09232 0.93206 0.56687 0.0
C53 C 0.10374 0.92054 0.54881 0.0
C54 C 0.10339 0.91838 0.48019 0.0
C55 C 0.08466 0.93259 0.39189 0.0
H56 H 0.07993 0.94551 0.38739 0.0
H57 H 0.07428 0.92394 0.38069 0.0
H58 H 0.0948 0.93052 0.35547 0.0
O59 O 0.07047 0.97524 0.56817 0.0
O60 O 0.0813 0.9641 0.6575 0.0
H61 H 0.12524 0.91699 0.60925 0.0
H62 H 0.11633 0.8979 0.57806 0.0
C63 C 0.11343 0.91046 0.59773 0.0
H64 H 0.10624 0.90909 0.64417 0.0
H65 H 0.11786 0.95724 0.66024 0.0
O66 O 0.05108 0.95275 0.45043 0.0
C67 C 0.07594 0.97676 0.62729 0.0
Co68 Co 0.325 0.81391 0.79293 0.0
Co69 Co 0.33307 0.83956 0.90132 0.0
C70 C 0.3432 0.80597 0.92563 0.0
O71 O 0.33588 0.80219 0.87131 0.0
O72 O 0.34506 0.82111 0.94343 0.0
C73 C 0.33713 0.7884 0.70381 0.0
O74 O 0.34987 0.78849 0.74447 0.0
C75 C 0.34194 0.86507 0.99696 0.0
C76 C 0.32852 0.88668 0.95457 0.0
C77 C 0.33961 0.88209 1.00342 0.0
N78 N 0.33309 0.85999 0.94498 0.0
N79 N 0.32476 0.8728 0.92082 0.0
C80 C 0.35228 0.85367 0.03867 0.0
H81 H 0.34561 0.84173 0.04609 0.0
H82 H 0.36411 0.85087 0.01258 0.0
H83 H 0.35505 0.85931 0.08754 0.0
C84 C 0.34639 0.83873 0.71272 0.0
N85 N 0.33782 0.83367 0.76726 0.0
N86 N 0.34157 0.84377 0.81586 0.0
C87 C 0.35286 0.85511 0.79526 0.0
C88 C 0.35628 0.85271 0.72834 0.0
C89 C 0.34547 0.83006 0.64742 0.0
H90 H 0.33296 0.82449 0.64054 0.0
H91 H 0.3548 0.81988 0.6463 0.0
H92 H 0.34814 0.83882 0.60635 0.0
O93 O 0.30109 0.81783 0.82782 0.0
O94 O 0.30985 0.8331 0.91114 0.0
H95 H 0.35535 0.87802 0.84831 0.0
H96 H 0.37489 0.86904 0.82262 0.0
C97 C 0.36227 0.86618 0.84169 0.0
H98 H 0.3636 0.86005 0.89042 0.0
H99 H 0.31709 0.87217 0.87925 0.0
O100 O 0.32487 0.79806 0.71549 0.0
C101 C 0.29832 0.82506 0.88321 0.0
Co102 Co 0.46047 0.07392 0.03561 0.0
Co103 Co 0.43766 0.08462 0.14997 0.0
C104 C 0.47201 0.09288 0.16211 0.0
O105 O 0.47441 0.08455 0.1089 0.0
O106 O 0.4574 0.09598 0.18304 0.0
C107 C 0.48434 0.08535 0.94054 0.0
O108 O 0.48394 0.09845 0.97946 0.0
C109 C 0.41607 0.09607 0.25675 0.0
C110 C 0.39482 0.07885 0.24277 0.0
C111 C 0.40069 0.09164 0.28212 0.0
N112 N 0.41916 0.08619 0.20493 0.0
N113 N 0.40654 0.07585 0.19706 0.0
C114 C 0.42706 0.11018 0.27749 0.0
H115 H 0.43493 0.11436 0.23566 0.0
H116 H 0.41955 0.12084 0.29567 0.0
H117 H 0.43533 0.10592 0.318 0.0
C118 C 0.43465 0.09493 0.95908 0.0
N119 N 0.44072 0.08734 0.01415 0.0
N120 N 0.43166 0.09211 0.06464 0.0
C121 C 0.42 0.10312 0.04447 0.0
C122 C 0.42114 0.10533 0.9761 0.0
C123 C 0.44175 0.09226 0.89152 0.0
H124 H 0.44711 0.07957 0.88757 0.0
H125 H 0.45186 0.1014 0.8829 0.0
H126 H 0.43206 0.09396 0.85305 0.0
O127 O 0.45574 0.05052 0.07331 0.0
O128 O 0.44286 0.0609 0.16016 0.0
H129 H 0.39807 0.10586 0.10346 0.0
H130 H 0.406 0.12523 0.07061 0.0
C131 C 0.40952 0.11299 0.09161 0.0
H132 H 0.41644 0.11517 0.13806 0.0
H133 H 0.40593 0.06681 0.16007 0.0
O134 O 0.47518 0.07288 0.95474 0.0
C135 C 0.4494 0.0486 0.13095 0.0
Co136 Co 0.19709 0.81333 0.24047 0.0
Co137 Co 0.18699 0.83588 0.12545 0.0
C138 C 0.17901 0.80154 0.11311 0.0
O139 O 0.18741 0.79938 0.16597 0.0
O140 O 0.1754 0.81608 0.09319 0.0
C141 C 0.18293 0.78969 0.32472 0.0
O142 O 0.17096 0.79238 0.28185 0.0
C143 C 0.1719 0.8565 0.02627 0.0
C144 C 0.1913 0.87578 0.01229 0.0
C145 C 0.17569 0.87076 0.99146 0.0
N146 N 0.18475 0.85319 0.06591 0.0
N147 N 0.1964 0.86457 0.05706 0.0
C148 C 0.1559 0.84696 0.02672 0.0
H149 H 0.1543 0.84032 0.07439 0.0
H150 H 0.14515 0.85538 0.01854 0.0
H151 H 0.15617 0.83759 0.98638 0.0
C152 C 0.17667 0.83983 0.31627 0.0
N153 N 0.1838 0.83333 0.26089 0.0
N154 N 0.17966 0.84277 0.21056 0.0
C155 C 0.16985 0.85542 0.23172 0.0
C156 C 0.16735 0.85406 0.29967 0.0
C157 C 0.17785 0.83189 0.38295 0.0
H158 H 0.16932 0.82106 0.38464 0.0
H159 H 0.17429 0.84065 0.4229 0.0
H160 H 0.19069 0.82724 0.39118 0.0
O161 O 0.22075 0.81781 0.20436 0.0
O162 O 0.21064 0.83051 0.11648 0.0
H163 H 0.15813 0.87947 0.21683 0.0
H164 H 0.15368 0.86391 0.155 0.0
C165 C 0.16344 0.869 0.18793 0.0
H166 H 0.17368 0.87389 0.1569 0.0
H167 H 0.20768 0.86482 0.08253 0.0
O168 O 0.19642 0.79795 0.31931 0.0
C169 C 0.22281 0.82395 0.14637 0.0
Co170 Co 0.46013 0.94736 0.4878 0.0
Co171 Co 0.43781 0.93627 0.37342 0.0
C172 C 0.47221 0.9286 0.36136 0.0
O173 O 0.47438 0.93708 0.41433 0.0
O174 O 0.45768 0.92504 0.3409 0.0
C175 C 0.4841 0.93626 0.5825 0.0
O176 O 0.48396 0.92324 0.54315 0.0
C177 C 0.41862 0.92801 0.25697 0.0
C178 C 0.39335 0.93505 0.29039 0.0
C179 C 0.40206 0.92822 0.23777 0.0
N180 N 0.41942 0.93387 0.31876 0.0
N181 N 0.40442 0.93853 0.33786 0.0
C182 C 0.43369 0.92404 0.2163 0.0
H183 H 0.44399 0.9326 0.22948 0.0
H184 H 0.43781 0.91114 0.22715 0.0
H185 H 0.43106 0.92531 0.16268 0.0
C186 C 0.43413 0.92651 0.56473 0.0
N187 N 0.44057 0.93365 0.50927 0.0
N188 N 0.43198 0.92828 0.45846 0.0
C189 C 0.42049 0.91709 0.47892 0.0
C190 C 0.42115 0.91559 0.5474 0.0
C191 C 0.441 0.92922 0.63253 0.0
H192 H 0.44506 0.94235 0.63817 0.0
H193 H 0.45205 0.92112 0.63923 0.0
H194 H 0.43172 0.92604 0.67115 0.0
O195 O 0.45508 0.97066 0.45003 0.0
O196 O 0.44254 0.96011 0.3628 0.0
H197 H 0.3971 0.91464 0.4297 0.0
H198 H 0.40627 0.89521 0.45225 0.0
C199 C 0.40906 0.90782 0.43342 0.0
H200 H 0.41469 0.9066 0.38362 0.0
H201 H 0.40174 0.94382 0.38385 0.0
O202 O 0.4747 0.94859 0.56881 0.0
C203 C 0.44884 0.97249 0.39221 0.0
Co204 Co 0.32721 0.20878 0.73319 0.0
Co205 Co 0.33522 0.18443 0.61989 0.0
C206 C 0.34497 0.21805 0.60079 0.0
O207 O 0.33736 0.22106 0.65508 0.0
O208 O 0.34751 0.20316 0.58148 0.0
C209 C 0.34235 0.23295 0.81461 0.0
O210 O 0.35395 0.23058 0.76975 0.0
C211 C 0.34507 0.16024 0.52031 0.0
C212 C 0.32473 0.14179 0.53106 0.0
C213 C 0.33924 0.14516 0.49705 0.0
N214 N 0.33455 0.16548 0.56701 0.0
N215 N 0.32232 0.15458 0.57276 0.0
C216 C 0.35985 0.16995 0.49691 0.0
H217 H 0.3691 0.17093 0.53734 0.0
H218 H 0.36573 0.16416 0.45289 0.0
H219 H 0.35589 0.18277 0.48412 0.0
C220 C 0.34719 0.18226 0.80968 0.0
N221 N 0.33964 0.18843 0.7547 0.0
N222 N 0.34316 0.17852 0.70498 0.0
C223 C 0.35307 0.16598 0.726 0.0
C224 C 0.35619 0.16782 0.79328 0.0
C225 C 0.34677 0.19068 0.87559 0.0
H226 H 0.33423 0.19601 0.88462 0.0
H227 H 0.35585 0.20107 0.87544 0.0
H228 H 0.35012 0.18196 0.91593 0.0
O229 O 0.30307 0.2055 0.70053 0.0
O230 O 0.3121 0.19157 0.61389 0.0
H231 H 0.34841 0.14574 0.65984 0.0
H232 H 0.36666 0.14292 0.70995 0.0
C233 C 0.35918 0.1522 0.68239 0.0
H234 H 0.36683 0.15751 0.64201 0.0
H235 H 0.31246 0.15576 0.60605 0.0
O236 O 0.32891 0.22459 0.81059 0.0
C237 C 0.30045 0.19909 0.64343 0.0
Co238 Co 0.0665 0.07696 0.98897 0.0
Co239 Co 0.08916 0.0871 0.87444 0.0
C240 C 0.05484 0.09568 0.86226 0.0
O241 O 0.05246 0.08744 0.91567 0.0
O242 O 0.06948 0.09885 0.84163 0.0
C243 C 0.04361 0.0887 0.08634 0.0
O244 O 0.04427 0.10198 0.04855 0.0
C245 C 0.1116 0.09872 0.77167 0.0
C246 C 0.13077 0.07887 0.77591 0.0
C247 C 0.12646 0.09347 0.74436 0.0
N248 N 0.10737 0.08774 0.81823 0.0
N249 N 0.1187 0.07581 0.82011 0.0
C250 C 0.10115 0.11337 0.75232 0.0
H251 H 0.08818 0.10923 0.74369 0.0
H252 H 0.1009 0.12252 0.79338 0.0
H253 H 0.10589 0.11944 0.70681 0.0
C254 C 0.09283 0.09758 0.06513 0.0
N255 N 0.08644 0.09022 0.01003 0.0
N256 N 0.09575 0.09451 0.95952 0.0
C257 C 0.10809 0.10474 0.98006 0.0
C258 C 0.10676 0.10728 0.04802 0.0
C259 C 0.085 0.09635 0.13207 0.0
H260 H 0.08025 0.08355 0.14024 0.0
H261 H 0.0743 0.10505 0.13454 0.0
H262 H 0.09389 0.09972 0.17174 0.0
O263 O 0.07075 0.05337 0.95214 0.0
O264 O 0.08332 0.06374 0.86492 0.0
H265 H 0.12757 0.10133 0.9092 0.0
H266 H 0.13067 0.11896 0.96244 0.0
C267 C 0.1212 0.11167 0.93519 0.0
H268 H 0.11525 0.11971 0.89749 0.0
H269 H 0.11828 0.06568 0.85237 0.0
O270 O 0.0522 0.07598 0.07027 0.0
C271 C 0.07675 0.05149 0.89396 0.0
Co272 Co 0.82615 0.81644 0.73759 0.0
Co273 Co 0.83653 0.83912 0.62232 0.0
C274 C 0.84429 0.80478 0.60933 0.0
O275 O 0.83601 0.80271 0.66269 0.0
O276 O 0.84793 0.8193 0.58874 0.0
C277 C 0.84042 0.79351 0.82453 0.0
O278 O 0.85251 0.79641 0.78234 0.0
C279 C 0.85088 0.86196 0.5273 0.0
C280 C 0.83152 0.88164 0.52689 0.0
C281 C 0.84707 0.87752 0.50264 0.0
N282 N 0.83827 0.85727 0.56613 0.0
N283 N 0.82661 0.86887 0.56487 0.0
C284 C 0.86574 0.85131 0.51271 0.0
H285 H 0.87252 0.8485 0.5591 0.0
H286 H 0.87426 0.85725 0.47657 0.0
H287 H 0.86146 0.83923 0.49221 0.0
C288 C 0.84666 0.84263 0.81352 0.0
N289 N 0.83952 0.83623 0.75805 0.0
N290 N 0.84397 0.84553 0.70768 0.0
C291 C 0.85402 0.85796 0.72899 0.0
C292 C 0.85633 0.85655 0.79681 0.0
C293 C 0.84499 0.83503 0.88065 0.0
H294 H 0.85412 0.82474 0.88534 0.0
H295 H 0.84755 0.84428 0.92008 0.0
H296 H 0.83233 0.82977 0.88704 0.0
O297 O 0.80254 0.82108 0.70166 0.0
O298 O 0.8129 0.83382 0.61435 0.0
H299 H 0.86718 0.8813 0.71471 0.0
H300 H 0.86966 0.86613 0.64988 0.0
C301 C 0.86076 0.87151 0.68578 0.0
H302 H 0.85044 0.87743 0.65827 0.0
H303 H 0.81557 0.86833 0.59199 0.0
O304 O 0.82666 0.80121 0.81699 0.0
C305 C 0.80062 0.82736 0.64386 0.0
Co306 Co 0.96142 0.07696 0.48781 0.0
Co307 Co 0.93925 0.08799 0.37202 0.0
C308 C 0.97359 0.09628 0.36291 0.0
O309 O 0.97567 0.08778 0.41586 0.0
O310 O 0.95909 0.09953 0.34112 0.0
C311 C 0.98425 0.08844 0.58644 0.0
O312 O 0.98346 0.10185 0.54948 0.0
C313 C 0.91778 0.09954 0.2648 0.0
C314 C 0.89679 0.08194 0.27744 0.0
C315 C 0.90248 0.09499 0.23906 0.0
N316 N 0.92096 0.08949 0.31599 0.0
N317 N 0.9085 0.07893 0.323 0.0
C318 C 0.92859 0.11387 0.24503 0.0
H319 H 0.93656 0.11783 0.28686 0.0
H320 H 0.92093 0.12456 0.2284 0.0
H321 H 0.93677 0.10995 0.2036 0.0
C322 C 0.93498 0.09747 0.56327 0.0
N323 N 0.94149 0.09019 0.50828 0.0
N324 N 0.93274 0.09512 0.45727 0.0
C325 C 0.92084 0.10592 0.47707 0.0
C326 C 0.9215 0.10783 0.54566 0.0
C327 C 0.9416 0.09454 0.63135 0.0
H328 H 0.94707 0.0819 0.63486 0.0
H329 H 0.95153 0.10375 0.64184 0.0
H330 H 0.9316 0.09595 0.66886 0.0
O331 O 0.95698 0.05369 0.44864 0.0
O332 O 0.94471 0.06437 0.36113 0.0
H333 H 0.8993 0.10868 0.41608 0.0
H334 H 0.90674 0.12798 0.45127 0.0
C335 C 0.91057 0.11589 0.42967 0.0
H336 H 0.91779 0.11838 0.38414 0.0
H337 H 0.90797 0.06975 0.35944 0.0
O338 O 0.97571 0.07573 0.56972 0.0
C339 C 0.95107 0.05199 0.39022 0.0
Co340 Co 0.6981 0.21118 0.23714 0.0
Co341 Co 0.68762 0.18858 0.1227 0.0
C342 C 0.67972 0.22268 0.10894 0.0
O343 O 0.68811 0.22483 0.16194 0.0
O344 O 0.67608 0.20814 0.08874 0.0
C345 C 0.68361 0.23423 0.32269 0.0
O346 O 0.6716 0.23115 0.28041 0.0
C347 C 0.67765 0.16823 0.01186 0.0
C348 C 0.68689 0.14359 0.04432 0.0
C349 C 0.67777 0.15149 0.99543 0.0
N350 N 0.68568 0.16992 0.06922 0.0
N351 N 0.69165 0.15532 0.08746 0.0
C352 C 0.67114 0.18265 0.97272 0.0
H353 H 0.67977 0.19335 0.97718 0.0
H354 H 0.65889 0.18651 0.99294 0.0
H355 H 0.66985 0.17942 0.91961 0.0
C356 C 0.67746 0.18503 0.31367 0.0
N357 N 0.68467 0.19148 0.25838 0.0
N358 N 0.67957 0.18274 0.20753 0.0
C359 C 0.66857 0.17105 0.22777 0.0
C360 C 0.66683 0.17184 0.29616 0.0
C361 C 0.67978 0.19212 0.3814 0.0
H362 H 0.67076 0.20241 0.3887 0.0
H363 H 0.67749 0.18259 0.42002 0.0
H364 H 0.69252 0.19727 0.38655 0.0
O365 O 0.72167 0.20661 0.20072 0.0
O366 O 0.7113 0.19389 0.11341 0.0
H367 H 0.64772 0.15519 0.20184 0.0
H368 H 0.65792 0.16504 0.13316 0.0
C369 C 0.65991 0.15919 0.18211 0.0
H370 H 0.66767 0.14788 0.17605 0.0
H371 H 0.69838 0.15329 0.13087 0.0
O372 O 0.69742 0.22658 0.31592 0.0
C373 C 0.72357 0.20042 0.14271 0.0
Co374 Co 0.56515 0.94851 0.98588 0.0
Co375 Co 0.58968 0.93879 0.87568 0.0
C376 C 0.55566 0.92993 0.85529 0.0
O377 O 0.55254 0.93773 0.90929 0.0
O378 O 0.57059 0.92723 0.83634 0.0
C379 C 0.54142 0.93677 0.08094 0.0
O380 O 0.54254 0.92327 0.04451 0.0
C381 C 0.61512 0.92819 0.78155 0.0
C382 C 0.63651 0.94271 0.8198 0.0
C383 C 0.63213 0.93057 0.77468 0.0
N384 N 0.60988 0.93805 0.83051 0.0
N385 N 0.62256 0.94698 0.8521 0.0
C386 C 0.60386 0.91702 0.74277 0.0
H387 H 0.59161 0.92313 0.73571 0.0
H388 H 0.60173 0.90534 0.77078 0.0
H389 H 0.6093 0.91398 0.69377 0.0
C390 C 0.59008 0.92729 0.06613 0.0
N391 N 0.58464 0.9353 0.01085 0.0
N392 N 0.59427 0.93085 0.9616 0.0
C393 C 0.60572 0.91974 0.98274 0.0
C394 C 0.60381 0.91714 0.05034 0.0
C395 C 0.58207 0.92902 0.13253 0.0
H396 H 0.57667 0.94165 0.13821 0.0
H397 H 0.57189 0.91976 0.13693 0.0
H398 H 0.59123 0.92669 0.17253 0.0
O399 O 0.5697 0.97203 0.94961 0.0
O400 O 0.58387 0.96215 0.86507 0.0
H401 H 0.62817 0.91689 0.92702 0.0
H402 H 0.61992 0.89761 0.95856 0.0
C403 C 0.61657 0.90985 0.93702 0.0
H404 H 0.61001 0.90765 0.88971 0.0
H405 H 0.62181 0.95545 0.89117 0.0
O406 O 0.54987 0.94953 0.06449 0.0
C407 C 0.57656 0.97415 0.8931 0.0
Co408 Co 0.82532 0.20951 0.78631 0.0
Co409 Co 0.8337 0.18526 0.89979 0.0
C410 C 0.84343 0.219 0.91726 0.0
O411 O 0.83567 0.22195 0.86336 0.0
O412 O 0.84596 0.20415 0.93683 0.0
C413 C 0.84026 0.23361 0.7038 0.0
O414 O 0.85198 0.23111 0.74791 0.0
C415 C 0.84457 0.16163 0.99946 0.0
C416 C 0.82479 0.14252 0.9909 0.0
C417 C 0.83933 0.14643 0.02367 0.0
N418 N 0.8337 0.16641 0.95334 0.0
N419 N 0.8218 0.15511 0.94891 0.0
C420 C 0.85907 0.17192 0.02157 0.0
H421 H 0.85464 0.18454 0.03521 0.0
H422 H 0.86801 0.17337 0.98017 0.0
H423 H 0.86547 0.16636 0.06483 0.0
C424 C 0.84559 0.18319 0.70978 0.0
N425 N 0.83789 0.18924 0.76473 0.0
N426 N 0.84147 0.17936 0.81439 0.0
C427 C 0.85157 0.16695 0.79336 0.0
C428 C 0.85475 0.16887 0.72617 0.0
C429 C 0.84523 0.19168 0.64403 0.0
H430 H 0.85436 0.20203 0.64436 0.0
H431 H 0.84858 0.18298 0.60353 0.0
H432 H 0.83271 0.19704 0.63504 0.0
O433 O 0.80129 0.20604 0.82083 0.0
O434 O 0.81049 0.19208 0.9071 0.0
H435 H 0.86543 0.14406 0.80935 0.0
H436 H 0.86552 0.15872 0.87713 0.0
C437 C 0.85789 0.15329 0.83698 0.0
H438 H 0.84721 0.14672 0.85981 0.0
H439 H 0.81177 0.15589 0.91632 0.0
O440 O 0.82676 0.22533 0.70853 0.0
C441 C 0.79877 0.19956 0.87791 0.0
Co442 Co 0.56549 0.07436 0.5348 0.0
Co443 Co 0.58961 0.08372 0.64572 0.0
C444 C 0.5556 0.09243 0.66625 0.0
O445 O 0.55259 0.08477 0.61184 0.0
O446 O 0.57049 0.09513 0.68543 0.0
C447 C 0.54177 0.08619 0.43991 0.0
O448 O 0.54258 0.0996 0.47698 0.0
C449 C 0.61333 0.09128 0.74949 0.0
C450 C 0.63624 0.08049 0.70585 0.0
C451 C 0.63031 0.08947 0.75926 0.0
N452 N 0.60958 0.08416 0.69186 0.0
N453 N 0.62315 0.07734 0.66673 0.0
C454 C 0.60065 0.09913 0.79396 0.0
H455 H 0.58915 0.0915 0.79415 0.0
H456 H 0.59736 0.11162 0.77452 0.0
H457 H 0.60538 0.10031 0.8453 0.0
C458 C 0.59035 0.09634 0.45686 0.0
N459 N 0.58493 0.08789 0.51112 0.0
N460 N 0.59435 0.0922 0.56105 0.0
C461 C 0.60557 0.10372 0.54162 0.0
C462 C 0.60381 0.10674 0.47416 0.0
C463 C 0.5826 0.09473 0.39 0.0
H464 H 0.57734 0.08208 0.3835 0.0
H465 H 0.57234 0.10391 0.3855 0.0
H466 H 0.59188 0.09723 0.35055 0.0
O467 O 0.57002 0.05067 0.5694 0.0
O468 O 0.58384 0.06039 0.6548 0.0
H469 H 0.62823 0.10733 0.59512 0.0
H470 H 0.61812 0.12637 0.57078 0.0
C471 C 0.61599 0.11354 0.58909 0.0
H472 H 0.6098 0.11424 0.63803 0.0
H473 H 0.62354 0.07106 0.62156 0.0
O474 O 0.55041 0.07351 0.45589 0.0
C475 C 0.5767 0.04842 0.6261 0.0
Co476 Co 0.70156 0.8154 0.28042 0.0
Co477 Co 0.68839 0.83453 0.40034 0.0
C478 C 0.68409 0.79956 0.40357 0.0
O479 O 0.69249 0.79937 0.34976 0.0
O480 O 0.67911 0.81324 0.42851 0.0
C481 C 0.69033 0.79365 0.18131 0.0
O482 O 0.67714 0.79468 0.21957 0.0
C483 C 0.67906 0.85208 0.52085 0.0
C484 C 0.68581 0.87775 0.49154 0.0
C485 C 0.67916 0.86844 0.54283 0.0
N486 N 0.68494 0.85197 0.4589 0.0
N487 N 0.68935 0.86722 0.44224 0.0
C488 C 0.67518 0.8366 0.55897 0.0
H489 H 0.68364 0.8264 0.54355 0.0
H490 H 0.66223 0.83267 0.54811 0.0
H491 H 0.67661 0.83865 0.61293 0.0
C492 C 0.67955 0.84129 0.20963 0.0
N493 N 0.68654 0.83414 0.26385 0.0
N494 N 0.68016 0.84122 0.31651 0.0
C495 C 0.66853 0.8525 0.29816 0.0
C496 C 0.66773 0.85321 0.22941 0.0
C497 C 0.68334 0.83602 0.14029 0.0
H498 H 0.69655 0.83213 0.13619 0.0
H499 H 0.67541 0.82519 0.12753 0.0
H500 H 0.68067 0.84612 0.1045 0.0
O501 O 0.72435 0.8215 0.31954 0.0
O502 O 0.71249 0.83154 0.40932 0.0
H503 H 0.6647 0.87495 0.35281 0.0
H504 H 0.64585 0.86512 0.32726 0.0
C505 C 0.65856 0.86272 0.34591 0.0
H506 H 0.65755 0.85631 0.39424 0.0
H507 H 0.69462 0.87042 0.39678 0.0
O508 O 0.70326 0.80194 0.19701 0.0
C509 C 0.72546 0.82685 0.37907 0.0
Co510 Co 0.96076 0.95013 0.03674 0.0
Co511 Co 0.93618 0.94159 0.14873 0.0
C512 C 0.96977 0.93237 0.1699 0.0
O513 O 0.97279 0.93997 0.1156 0.0
O514 O 0.95489 0.92977 0.18911 0.0
C515 C 0.98536 0.9352 0.95655 0.0
O516 O 0.98291 0.92355 1.00104 0.0
C517 C 0.91107 0.93247 0.24689 0.0
C518 C 0.89136 0.95066 0.22102 0.0
C519 C 0.89509 0.93762 0.26303 0.0
N520 N 0.91647 0.9421 0.19747 0.0
N521 N 0.90479 0.95307 0.18279 0.0
C522 C 0.92048 0.91774 0.27275 0.0
H523 H 0.93032 0.91387 0.23757 0.0
H524 H 0.91197 0.90711 0.28166 0.0
H525 H 0.92653 0.92114 0.32016 0.0
C526 C 0.93513 0.92935 0.95913 0.0
N527 N 0.9408 0.93736 0.01391 0.0
N528 N 0.93113 0.93335 0.06357 0.0
C529 C 0.91938 0.92248 0.0432 0.0
C530 C 0.92117 0.91953 0.97554 0.0
C531 C 0.94313 0.93092 0.89265 0.0
H532 H 0.94907 0.94332 0.88756 0.0
H533 H 0.95295 0.92129 0.88766 0.0
H534 H 0.93385 0.92914 0.85268 0.0
O535 O 0.95696 0.97417 0.06942 0.0
O536 O 0.9429 0.96489 0.15531 0.0
H537 H 0.89699 0.92093 0.1001 0.0
H538 H 0.90441 0.90105 0.07001 0.0
C539 C 0.90823 0.91331 0.09003 0.0
H540 H 0.9148 0.91115 0.13719 0.0
H541 H 0.90586 0.96193 0.14532 0.0
O542 O 0.97692 0.94861 0.96042 0.0
C543 C 0.95032 0.97667 0.12621 0.0
Co544 Co 0.69878 0.71026 0.78287 0.0
Co545 Co 0.68758 0.68803 0.8971 0.0
C546 C 0.68038 0.72215 0.91121 0.0
O547 O 0.68893 0.72405 0.85834 0.0
O548 O 0.67633 0.70772 0.93143 0.0
C549 C 0.6845 0.73318 0.69715 0.0
O550 O 0.67239 0.72996 0.73891 0.0
C551 C 0.67459 0.66562 0.99713 0.0
C552 C 0.69027 0.64347 0.97723 0.0
C553 C 0.67706 0.64921 0.01456 0.0
N554 N 0.68562 0.66931 0.94996 0.0
N555 N 0.69519 0.65621 0.93917 0.0
C556 C 0.66214 0.67765 0.02478 0.0
H557 H 0.66838 0.68964 0.03589 0.0
H558 H 0.65232 0.68016 0.98764 0.0
H559 H 0.65631 0.67277 0.07061 0.0
C560 C 0.67786 0.68446 0.70589 0.0
N561 N 0.68517 0.69074 0.76119 0.0
N562 N 0.67992 0.68209 0.81193 0.0
C563 C 0.66886 0.67049 0.79167 0.0
C564 C 0.66717 0.6712 0.72304 0.0
C565 C 0.68104 0.69112 0.63803 0.0
H566 H 0.69363 0.69674 0.63538 0.0
H567 H 0.67177 0.70097 0.62691 0.0
H568 H 0.67989 0.68111 0.60048 0.0
O569 O 0.72222 0.70529 0.819 0.0
O570 O 0.71136 0.69298 0.90631 0.0
H571 H 0.66524 0.64916 0.85327 0.0
H572 H 0.64633 0.65699 0.81618 0.0
C573 C 0.6584 0.66056 0.83854 0.0
H574 H 0.65578 0.66801 0.88329 0.0
H575 H 0.70465 0.6558 0.9038 0.0
O576 O 0.69836 0.72566 0.70437 0.0
C577 C 0.72386 0.69914 0.87713 0.0
Co578 Co 0.56302 0.4498 0.02824 0.0
Co579 Co 0.58625 0.43942 0.14118 0.0
C580 C 0.55213 0.43068 0.15574 0.0
O581 O 0.54956 0.43891 0.10239 0.0
O582 O 0.56684 0.42766 0.176 0.0
C583 C 0.53947 0.43829 0.93219 0.0
O584 O 0.54014 0.42494 0.96954 0.0
C585 C 0.61033 0.42804 0.23922 0.0
C586 C 0.63049 0.44629 0.22042 0.0
C587 C 0.62635 0.43247 0.25759 0.0
N588 N 0.60536 0.43876 0.1928 0.0
N589 N 0.61727 0.44979 0.18256 0.0
C590 C 0.60055 0.413 0.25957 0.0
H591 H 0.59059 0.41027 0.22335 0.0
H592 H 0.60881 0.40199 0.26417 0.0
H593 H 0.59463 0.41539 0.30824 0.0
C594 C 0.58894 0.42917 0.94993 0.0
N595 N 0.58288 0.43672 1.00525 0.0
N596 N 0.59212 0.4321 0.05533 0.0
C597 C 0.60396 0.42133 0.03457 0.0
C598 C 0.6027 0.41907 0.96637 0.0
C599 C 0.58154 0.43143 0.88273 0.0
H600 H 0.57604 0.44404 0.87822 0.0
H601 H 0.57149 0.42214 0.87559 0.0
H602 H 0.59108 0.42959 0.84368 0.0
O603 O 0.56724 0.47324 0.06644 0.0
O604 O 0.58024 0.46276 0.15248 0.0
H605 H 0.6255 0.41928 0.09606 0.0
H606 H 0.61921 0.39983 0.05856 0.0
C607 C 0.61469 0.41158 0.08103 0.0
H608 H 0.60747 0.40834 0.12566 0.0
H609 H 0.61655 0.45938 0.14787 0.0
O610 O 0.54825 0.4509 0.94804 0.0
C611 C 0.5734 0.47501 0.12437 0.0
Co612 Co 0.82449 0.31414 0.28087 0.0
Co613 Co 0.83642 0.33402 0.40016 0.0
C614 C 0.8416 0.29903 0.40564 0.0
O615 O 0.83344 0.29843 0.35143 0.0
O616 O 0.84624 0.31294 0.42946 0.0
C617 C 0.8359 0.29131 0.18518 0.0
O618 O 0.84863 0.29154 0.22583 0.0
C619 C 0.85173 0.35472 0.50038 0.0
C620 C 0.83267 0.37462 0.50735 0.0
C621 C 0.84819 0.36984 0.52963 0.0
N622 N 0.83895 0.35095 0.46097 0.0
N623 N 0.82747 0.36265 0.46618 0.0
C624 C 0.86655 0.34372 0.51086 0.0
H625 H 0.86228 0.33085 0.52112 0.0
H626 H 0.87417 0.34327 0.46522 0.0
H627 H 0.8743 0.3481 0.55276 0.0
C628 C 0.8459 0.34049 0.20943 0.0
N629 N 0.83901 0.33336 0.264 0.0
N630 N 0.84415 0.34158 0.31619 0.0
C631 C 0.85435 0.35412 0.2969 0.0
C632 C 0.8561 0.35389 0.22837 0.0
C633 C 0.84339 0.33403 0.14081 0.0
H634 H 0.83012 0.33072 0.13343 0.0
H635 H 0.85086 0.32252 0.13444 0.0
H636 H 0.84738 0.34318 0.10298 0.0
O637 O 0.80124 0.31981 0.31793 0.0
O638 O 0.81255 0.33031 0.40767 0.0
H639 H 0.85142 0.37219 0.37387 0.0
H640 H 0.86748 0.37728 0.31578 0.0
C641 C 0.86145 0.36691 0.34279 0.0
H642 H 0.87077 0.36096 0.37539 0.0
H643 H 0.81636 0.36278 0.43953 0.0
O644 O 0.82335 0.30047 0.19805 0.0
C645 C 0.7998 0.32529 0.37716 0.0
Co646 Co 0.95794 0.57454 0.52484 0.0
Co647 Co 0.9348 0.58446 0.63853 0.0
C648 C 0.96941 0.59307 0.65122 0.0
O649 O 0.972 0.58501 0.59757 0.0
O650 O 0.95469 0.596 0.67148 0.0
C651 C 0.98127 0.58588 0.42818 0.0
O652 O 0.98093 0.59907 0.46662 0.0
C653 C 0.91207 0.59942 0.73103 0.0
C654 C 0.89326 0.57938 0.74099 0.0
C655 C 0.89697 0.5955 0.75991 0.0
N656 N 0.91694 0.58622 0.69596 0.0
N657 N 0.90588 0.57418 0.70276 0.0
C658 C 0.92092 0.61583 0.7297 0.0
H659 H 0.92915 0.61666 0.68576 0.0
H660 H 0.91189 0.62628 0.72906 0.0
H661 H 0.92877 0.61696 0.77456 0.0
C662 C 0.93205 0.59559 0.44798 0.0
N663 N 0.93804 0.58793 0.50319 0.0
N664 N 0.92819 0.59172 0.55282 0.0
C665 C 0.91571 0.60167 0.53112 0.0
C666 C 0.91772 0.60484 0.464 0.0
C667 C 0.94057 0.59507 0.38226 0.0
H668 H 0.94512 0.58228 0.37212 0.0
H669 H 0.95149 0.60351 0.38357 0.0
H670 H 0.93222 0.59919 0.34187 0.0
O671 O 0.95365 0.551 0.56297 0.0
O672 O 0.94028 0.56109 0.64906 0.0
H673 H 0.89696 0.59734 0.60466 0.0
H674 H 0.89095 0.61199 0.54233 0.0
C675 C 0.9015 0.60758 0.57297 0.0
H676 H 0.90573 0.61802 0.60454 0.0
H677 H 0.90665 0.56265 0.67914 0.0
O678 O 0.97234 0.57335 0.44359 0.0
C679 C 0.94724 0.54898 0.62043 0.0
Co680 Co 0.70002 0.31606 0.7402 0.0
Co681 Co 0.68787 0.33541 0.61941 0.0
C682 C 0.68264 0.30035 0.61769 0.0
O683 O 0.69088 0.29998 0.6717 0.0
O684 O 0.67807 0.31415 0.59269 0.0
C685 C 0.68865 0.29419 0.83891 0.0
O686 O 0.67565 0.29478 0.79965 0.0
C687 C 0.67186 0.35519 0.51782 0.0
C688 C 0.69043 0.37544 0.50809 0.0
C689 C 0.67496 0.37019 0.48688 0.0
N690 N 0.68482 0.35196 0.55712 0.0
N691 N 0.69601 0.36388 0.55027 0.0
C692 C 0.65731 0.34377 0.5089 0.0
H693 H 0.64985 0.34335 0.55496 0.0
H694 H 0.64932 0.34772 0.46705 0.0
H695 H 0.66189 0.33096 0.49937 0.0
C696 C 0.67841 0.34255 0.80983 0.0
N697 N 0.68546 0.33531 0.75576 0.0
N698 N 0.68026 0.34329 0.70306 0.0
C699 C 0.66985 0.35574 0.72151 0.0
C700 C 0.66803 0.35571 0.78997 0.0
C701 C 0.68086 0.33635 0.87886 0.0
H702 H 0.67287 0.32528 0.88665 0.0
H703 H 0.67741 0.3459 0.91602 0.0
H704 H 0.694 0.3325 0.88599 0.0
O705 O 0.72311 0.32149 0.70132 0.0
O706 O 0.71177 0.33175 0.61107 0.0
H707 H 0.67241 0.37352 0.64338 0.0
H708 H 0.65623 0.37853 0.70116 0.0
C709 C 0.66248 0.36817 0.67479 0.0
H710 H 0.6533 0.3619 0.64257 0.0
H711 H 0.70719 0.36441 0.57641 0.0
O712 O 0.70143 0.30281 0.82406 0.0
C713 C 0.72452 0.32675 0.64177 0.0
Co714 Co 0.9585 0.45029 0.98656 0.0
Co715 Co 0.93555 0.43957 0.87426 0.0
C716 C 0.96974 0.4314 0.85861 0.0
O717 O 0.97218 0.43968 0.91197 0.0
O718 O 0.95507 0.42809 0.83861 0.0
C719 C 0.98134 0.43853 0.0833 0.0
O720 O 0.98005 0.42504 0.04692 0.0
C721 C 0.91145 0.42858 0.77593 0.0
C722 C 0.89127 0.44674 0.7962 0.0
C723 C 0.89546 0.43315 0.75776 0.0
N724 N 0.91639 0.43903 0.82332 0.0
N725 N 0.90447 0.45001 0.83454 0.0
C726 C 0.92128 0.41366 0.75433 0.0
H727 H 0.93127 0.4108 0.79024 0.0
H728 H 0.91306 0.40265 0.74897 0.0
H729 H 0.92716 0.41629 0.7058 0.0
C730 C 0.93301 0.42914 0.06522 0.0
N731 N 0.93891 0.43682 0.00993 0.0
N732 N 0.9298 0.43199 0.95984 0.0
C733 C 0.91821 0.42095 0.98049 0.0
C734 C 0.91951 0.41869 0.04872 0.0
C735 C 0.94023 0.43167 0.13257 0.0
H736 H 0.94556 0.44436 0.1368 0.0
H737 H 0.95037 0.42251 0.14049 0.0
H738 H 0.93063 0.42983 0.17134 0.0
O739 O 0.95393 0.47374 0.94944 0.0
O740 O 0.94129 0.46297 0.86324 0.0
H741 H 0.89653 0.41847 0.92009 0.0
H742 H 0.9036 0.39909 0.9559 0.0
C743 C 0.90765 0.41105 0.93392 0.0
H744 H 0.9148 0.40825 0.8886 0.0
H745 H 0.90518 0.45941 0.86998 0.0
O746 O 0.97319 0.45146 0.06643 0.0
C747 C 0.94785 0.47537 0.89135 0.0
Co748 Co 0.82267 0.71126 0.24267 0.0
Co749 Co 0.83605 0.69288 0.1222 0.0
C750 C 0.84013 0.72783 0.12104 0.0
O751 O 0.83151 0.72779 0.17429 0.0
O752 O 0.84542 0.71427 0.0963 0.0
C753 C 0.8341 0.73263 0.3421 0.0
O754 O 0.84722 0.73147 0.30354 0.0
C755 C 0.85109 0.67495 0.01277 0.0
C756 C 0.83653 0.65157 0.01837 0.0
C757 C 0.84938 0.65935 0.98505 0.0
N758 N 0.83988 0.67619 0.06139 0.0
N759 N 0.83103 0.66236 0.0639 0.0
C760 C 0.86272 0.68862 0.9929 0.0
H761 H 0.87202 0.69064 0.03256 0.0
H762 H 0.86918 0.68572 0.94576 0.0
H763 H 0.85561 0.70034 0.98683 0.0
C764 C 0.84486 0.68508 0.31209 0.0
N765 N 0.8377 0.69237 0.25846 0.0
N766 N 0.84379 0.68528 0.20537 0.0
C767 C 0.85519 0.67367 0.22267 0.0
C768 C 0.85631 0.67278 0.29153 0.0
C769 C 0.84065 0.68973 0.38172 0.0
H770 H 0.82771 0.69451 0.38452 0.0
H771 H 0.84917 0.69974 0.39839 0.0
H772 H 0.84208 0.67887 0.41516 0.0
O773 O 0.79989 0.70513 0.20297 0.0
O774 O 0.81193 0.69571 0.1125 0.0
H775 H 0.87814 0.66119 0.19608 0.0
H776 H 0.86881 0.67336 0.13154 0.0
C777 C 0.86615 0.66499 0.17365 0.0
H778 H 0.85966 0.65378 0.15464 0.0
H779 H 0.82152 0.66017 0.09802 0.0
O780 O 0.82105 0.72449 0.32665 0.0
C781 C 0.79888 0.70008 0.14298 0.0
Co782 Co 0.56478 0.57584 0.48246 0.0
Co783 Co 0.58942 0.58357 0.37049 0.0
C784 C 0.55584 0.59341 0.34959 0.0
O785 O 0.55267 0.58592 0.40393 0.0
O786 O 0.57078 0.59584 0.33082 0.0
C787 C 0.54065 0.59123 0.56281 0.0
O788 O 0.5432 0.60276 0.5179 0.0
C789 C 0.61401 0.59399 0.275 0.0
C790 C 0.63176 0.57287 0.27969 0.0
C791 C 0.62891 0.58806 0.24973 0.0
N792 N 0.60833 0.58273 0.31782 0.0
N793 N 0.61881 0.57007 0.32015 0.0
C794 C 0.60595 0.61059 0.26432 0.0
H795 H 0.59762 0.61371 0.30629 0.0
H796 H 0.61547 0.62049 0.25863 0.0
H797 H 0.59829 0.61011 0.21876 0.0
C798 C 0.59096 0.59608 0.55975 0.0
N799 N 0.58506 0.5883 0.50475 0.0
N800 N 0.59521 0.59161 0.45559 0.0
C801 C 0.6077 0.60153 0.47713 0.0
C802 C 0.60547 0.60498 0.54393 0.0
C803 C 0.58218 0.59601 0.62497 0.0
H804 H 0.57676 0.58354 0.63442 0.0
H805 H 0.57186 0.60517 0.62341 0.0
H806 H 0.5907 0.5995 0.6658 0.0
O807 O 0.56798 0.5516 0.45031 0.0
O808 O 0.58215 0.56058 0.36436 0.0
H809 H 0.62735 0.59668 0.40812 0.0
H810 H 0.63176 0.61339 0.46445 0.0
C811 C 0.62183 0.60738 0.43483 0.0
H812 H 0.61713 0.61645 0.39809 0.0
H813 H 0.61728 0.55968 0.35051 0.0
O814 O 0.54887 0.57768 0.55914 0.0
C815 C 0.57449 0.54898 0.39339 0.0
Co816 Co 0.32529 0.31321 0.23688 0.0
Co817 Co 0.3369 0.33327 0.1169 0.0
C818 C 0.34276 0.29837 0.11234 0.0
O819 O 0.33459 0.29767 0.16655 0.0
O820 O 0.34709 0.31234 0.08815 0.0
C821 C 0.33686 0.29032 0.33256 0.0
O822 O 0.34958 0.29056 0.29173 0.0
C823 C 0.3521 0.35412 0.01635 0.0
C824 C 0.33289 0.37386 0.0096 0.0
C825 C 0.34845 0.36921 0.98713 0.0
N826 N 0.33935 0.35025 0.05593 0.0
N827 N 0.32779 0.36187 0.05085 0.0
C828 C 0.36699 0.34322 1.00553 0.0
H829 H 0.36285 0.33024 0.99684 0.0
H830 H 0.37487 0.34317 0.05044 0.0
H831 H 0.37446 0.34746 0.96257 0.0
C832 C 0.34631 0.3399 0.30768 0.0
N833 N 0.33947 0.33266 0.25327 0.0
N834 N 0.34446 0.34094 0.20095 0.0
C835 C 0.35453 0.3536 0.22001 0.0
C836 C 0.35634 0.3534 0.28847 0.0
C837 C 0.34393 0.33345 0.37639 0.0
H838 H 0.33071 0.32995 0.38398 0.0
H839 H 0.35158 0.32207 0.38276 0.0
H840 H 0.34778 0.34272 0.41403 0.0
O841 O 0.302 0.31853 0.19949 0.0
O842 O 0.31305 0.32914 0.10921 0.0
H843 H 0.3514 0.3717 0.14342 0.0
H844 H 0.3676 0.37677 0.20084 0.0
C845 C 0.36151 0.36641 0.17397 0.0
H846 H 0.37076 0.36049 0.14088 0.0
H847 H 0.31667 0.36191 0.07759 0.0
O848 O 0.32431 0.2995 0.31992 0.0
C849 C 0.30043 0.32391 0.14017 0.0
Co850 Co 0.46035 0.57521 0.98538 0.0
Co851 Co 0.44058 0.58817 0.86699 0.0
C852 C 0.47543 0.59273 0.86068 0.0
O853 O 0.47591 0.58435 0.91446 0.0
O854 O 0.46161 0.59763 0.83687 0.0
C855 C 0.48356 0.58612 0.08084 0.0
O856 O 0.4833 0.599 0.04083 0.0
C857 C 0.42279 0.59582 0.74584 0.0
C858 C 0.39707 0.59008 0.77764 0.0
C859 C 0.40643 0.59545 0.72417 0.0
N860 N 0.42287 0.59129 0.80952 0.0
N861 N 0.40759 0.58747 0.82781 0.0
C862 C 0.43829 0.59848 0.70611 0.0
H863 H 0.44828 0.59008 0.7239 0.0
H864 H 0.44259 0.6115 0.7127 0.0
H865 H 0.43608 0.59602 0.65283 0.0
C866 C 0.43462 0.59704 0.05819 0.0
N867 N 0.44157 0.59009 1.00338 0.0
N868 N 0.43423 0.59645 0.95131 0.0
C869 C 0.423 0.60805 0.97062 0.0
C870 C 0.42255 0.60882 0.03941 0.0
C871 C 0.4402 0.59323 0.12704 0.0
H872 H 0.44335 0.57983 0.13137 0.0
H873 H 0.45161 0.60051 0.13775 0.0
H874 H 0.43058 0.59664 0.16399 0.0
O875 O 0.45425 0.55229 0.94687 0.0
O876 O 0.44379 0.56407 0.85788 0.0
H877 H 0.40014 0.61241 0.91952 0.0
H878 H 0.41093 0.631 0.94203 0.0
C879 C 0.41265 0.61813 0.92381 0.0
H880 H 0.41858 0.6187 0.87439 0.0
H881 H 0.40437 0.58306 0.87468 0.0
O882 O 0.47428 0.57367 0.06772 0.0
C883 C 0.44869 0.55113 0.88769 0.0
Co884 Co 0.20075 0.70832 0.74306 0.0
Co885 Co 0.18945 0.68772 0.62346 0.0
C886 C 0.18343 0.72242 0.6158 0.0
O887 O 0.19122 0.72324 0.67096 0.0
O888 O 0.17948 0.70839 0.59072 0.0
C889 C 0.18866 0.73066 0.8403 0.0
O890 O 0.17562 0.72982 0.80133 0.0
C891 C 0.17778 0.66459 0.52107 0.0
C892 C 0.19554 0.64398 0.53965 0.0
C893 C 0.18191 0.64851 0.50217 0.0
N894 N 0.18845 0.66919 0.56839 0.0
N895 N 0.1992 0.657 0.57834 0.0
C896 C 0.16312 0.67482 0.5001 0.0
H897 H 0.16088 0.68516 0.53531 0.0
H898 H 0.15182 0.66693 0.49657 0.0
H899 H 0.16563 0.68026 0.4507 0.0
C900 C 0.17868 0.6825 0.81376 0.0
N901 N 0.18646 0.68908 0.76005 0.0
N902 N 0.18117 0.68117 0.70747 0.0
C903 C 0.16973 0.66966 0.72519 0.0
C904 C 0.16769 0.66979 0.79376 0.0
C905 C 0.18173 0.68834 0.88291 0.0
H906 H 0.1946 0.69318 0.8877 0.0
H907 H 0.17295 0.69859 0.89464 0.0
H908 H 0.17974 0.67808 0.91878 0.0
O909 O 0.22415 0.70318 0.70704 0.0
O910 O 0.21322 0.6924 0.6171 0.0
H911 H 0.16645 0.64912 0.65922 0.0
H912 H 0.14738 0.65626 0.69743 0.0
C913 C 0.15945 0.66024 0.67617 0.0
H914 H 0.15687 0.66824 0.63294 0.0
H915 H 0.20865 0.65736 0.61367 0.0
O916 O 0.20158 0.72223 0.8254 0.0
C917 C 0.22577 0.69784 0.64775 0.0
Co918 Co 0.06351 0.44949 0.4843 0.0
Co919 Co 0.08554 0.43756 0.36955 0.0
C920 C 0.05112 0.43009 0.3598 0.0
O921 O 0.04917 0.43883 0.41228 0.0
O922 O 0.06556 0.42635 0.33851 0.0
C923 C 0.04045 0.4385 0.58248 0.0
O924 O 0.04131 0.42501 0.54591 0.0
C925 C 0.10469 0.43085 0.25091 0.0
C926 C 0.13019 0.43533 0.28787 0.0
C927 C 0.1213 0.43086 0.23189 0.0
N928 N 0.10404 0.43466 0.3153 0.0
N929 N 0.11922 0.43775 0.33675 0.0
C930 C 0.08952 0.42924 0.20851 0.0
H931 H 0.07935 0.43712 0.22848 0.0
H932 H 0.08522 0.41612 0.2091 0.0
H933 H 0.09218 0.43307 0.15685 0.0
C934 C 0.08909 0.42836 0.56121 0.0
N935 N 0.08294 0.43575 0.50586 0.0
N936 N 0.09132 0.43009 0.45499 0.0
C937 C 0.10238 0.41849 0.47512 0.0
C938 C 0.10185 0.41712 0.54378 0.0
C939 C 0.08271 0.43187 0.62926 0.0
H940 H 0.07761 0.44469 0.63195 0.0
H941 H 0.07255 0.423 0.64097 0.0
H942 H 0.09275 0.43035 0.66642 0.0
O943 O 0.06869 0.47246 0.44433 0.0
O944 O 0.08099 0.4614 0.35729 0.0
H945 H 0.12399 0.41133 0.41975 0.0
H946 H 0.11191 0.39416 0.45018 0.0
C947 C 0.11114 0.40685 0.42868 0.0
H948 H 0.10448 0.40615 0.38076 0.0
H949 H 0.12206 0.44155 0.38482 0.0
O950 O 0.04905 0.45116 0.56567 0.0
C951 C 0.07484 0.47397 0.38616 0.0
Co952 Co 0.32682 0.70986 0.29262 0.0
Co953 Co 0.33598 0.68424 0.39965 0.0
C954 C 0.34491 0.71808 0.42553 0.0
O955 O 0.3374 0.72169 0.37143 0.0
O956 O 0.34741 0.70297 0.4426 0.0
C957 C 0.3381 0.73559 0.20353 0.0
O958 O 0.35102 0.73566 0.24329 0.0
C959 C 0.34637 0.65779 0.48939 0.0
C960 C 0.33165 0.63688 0.44813 0.0
C961 C 0.3439 0.64074 0.49341 0.0
N962 N 0.33646 0.6636 0.44177 0.0
N963 N 0.3274 0.6512 0.41843 0.0
C964 C 0.3578 0.66851 0.52943 0.0
H965 H 0.35182 0.68072 0.53918 0.0
H966 H 0.36939 0.67086 0.50114 0.0
H967 H 0.36099 0.66247 0.57712 0.0
C968 C 0.3482 0.68558 0.20979 0.0
N969 N 0.34001 0.69051 0.26546 0.0
N970 N 0.34423 0.68041 0.31341 0.0
C971 C 0.35538 0.66912 0.29105 0.0
C972 C 0.35824 0.67163 0.22388 0.0
C973 C 0.34676 0.6943 0.14478 0.0
H974 H 0.3341 0.69962 0.13905 0.0
H975 H 0.35587 0.70467 0.14318 0.0
H976 H 0.34943 0.68565 0.1033 0.0
O977 O 0.30316 0.70517 0.32746 0.0
O978 O 0.31261 0.69006 0.41 0.0
H979 H 0.35798 0.64622 0.34394 0.0
H980 H 0.37739 0.65463 0.31419 0.0
C981 C 0.3651 0.65785 0.33564 0.0
H982 H 0.3672 0.66405 0.38378 0.0
H983 H 0.31888 0.6524 0.37978 0.0
O984 O 0.32604 0.72576 0.21589 0.0
C985 C 0.30077 0.69776 0.38268 0.0
Co986 Co 0.06316 0.57461 0.02499 0.0
Co987 Co 0.08542 0.58551 0.1406 0.0
C988 C 0.05065 0.59356 0.14875 0.0
O989 O 0.04849 0.58507 0.09593 0.0
O990 O 0.06518 0.59683 0.16987 0.0
C991 C 0.03986 0.58565 0.9277 0.0
O992 O 0.0401 0.59879 0.96635 0.0
C993 C 0.10648 0.60211 0.23589 0.0
C994 C 0.1266 0.58341 0.24634 0.0
C995 C 0.12169 0.5992 0.26535 0.0
N996 N 0.10279 0.58874 0.1994 0.0
N997 N 0.11465 0.57749 0.20655 0.0
C998 C 0.09518 0.6168 0.24403 0.0
H999 H 0.09339 0.62304 0.19566 0.0
H1000 H 0.1 0.62583 0.28079 0.0
H1001 H 0.08279 0.61243 0.26079 0.0
C1002 C 0.08947 0.59528 0.9493 0.0
N1003 N 0.08298 0.58812 1.00463 0.0
N1004 N 0.09233 0.59241 0.05507 0.0
C1005 C 0.10491 0.60228 0.03395 0.0
C1006 C 0.10356 0.60475 0.96614 0.0
C1007 C 0.08171 0.59395 0.88236 0.0
H1008 H 0.0775 0.58098 0.87361 0.0
H1009 H 0.07062 0.60216 0.88053 0.0
H1010 H 0.09045 0.59782 0.8428 0.0
O1011 O 0.06804 0.55137 0.06486 0.0
O1012 O 0.08082 0.5618 0.15196 0.0
H1013 H 0.12377 0.59839 0.10699 0.0
H1014 H 0.12885 0.61429 0.04835 0.0
C1015 C 0.11856 0.60872 0.07736 0.0
H1016 H 0.11349 0.61828 0.11129 0.0
H1017 H 0.11482 0.56599 0.18249 0.0
O1018 O 0.04897 0.57319 0.94275 0.0
C1019 C 0.0744 0.54949 0.12254 0.0
Co1020 Co 0.19792 0.31667 0.79089 0.0
Co1021 Co 0.19033 0.34253 0.90033 0.0
C1022 C 0.18055 0.30901 0.92559 0.0
O1023 O 0.18774 0.30544 0.87092 0.0
O1024 O 0.17841 0.32409 0.94352 0.0
C1025 C 0.18325 0.29123 0.71334 0.0
O1026 O 0.17182 0.29319 0.75915 0.0
C1027 C 0.18012 0.36878 0.99104 0.0
C1028 C 0.19769 0.38874 0.96177 0.0
C1029 C 0.18391 0.38545 1.00055 0.0
N1030 N 0.19075 0.36273 0.9463 0.0
N1031 N 0.20147 0.37452 0.93018 0.0
C1032 C 0.16698 0.35855 0.02435 0.0
H1033 H 0.17186 0.34591 0.03464 0.0
H1034 H 0.1561 0.35723 0.99106 0.0
H1035 H 0.16292 0.36433 0.07154 0.0
C1036 C 0.17734 0.34183 0.711 0.0
N1037 N 0.18535 0.33655 0.7664 0.0
N1038 N 0.18181 0.34693 0.81453 0.0
C1039 C 0.17135 0.35886 0.79212 0.0
C1040 C 0.16798 0.35614 0.72557 0.0
C1041 C 0.17759 0.33259 0.64682 0.0
H1042 H 0.16887 0.32192 0.65007 0.0
H1043 H 0.17366 0.34066 0.60519 0.0
H1044 H 0.19024 0.32757 0.63736 0.0
O1045 O 0.22201 0.32026 0.82298 0.0
O1046 O 0.2135 0.33555 0.90697 0.0
H1047 H 0.17535 0.38089 0.84898 0.0
H1048 H 0.15576 0.38072 0.80717 0.0
C1049 C 0.16485 0.37285 0.83379 0.0
H1050 H 0.15891 0.36771 0.87879 0.0
H1051 H 0.2109 0.37306 0.8951 0.0
O1052 O 0.19634 0.30018 0.71577 0.0
C1053 C 0.22492 0.32744 0.87838 0.0
Co1054 Co 0.45824 0.4505 0.52753 0.0
Co1055 Co 0.43473 0.44038 0.64006 0.0
C1056 C 0.469 0.43188 0.65601 0.0
O1057 O 0.4717 0.43989 0.60225 0.0
O1058 O 0.45425 0.42902 0.67616 0.0
C1059 C 0.48188 0.43869 0.4325 0.0
O1060 O 0.48109 0.42545 0.47048 0.0
C1061 C 0.41087 0.42886 0.7387 0.0
C1062 C 0.39035 0.4467 0.71969 0.0
C1063 C 0.39481 0.43309 0.7575 0.0
N1064 N 0.41557 0.43951 0.69154 0.0
N1065 N 0.40344 0.45029 0.68111 0.0
C1066 C 0.42097 0.41407 0.75949 0.0
H1067 H 0.43086 0.41134 0.72292 0.0
H1068 H 0.41293 0.40294 0.76521 0.0
H1069 H 0.42699 0.41675 0.80766 0.0
C1070 C 0.43288 0.42918 0.44952 0.0
N1071 N 0.43858 0.4371 0.50457 0.0
N1072 N 0.42922 0.43257 0.55449 0.0
C1073 C 0.41767 0.42148 0.53395 0.0
C1074 C 0.41926 0.41889 0.46598 0.0
C1075 C 0.44046 0.4313 0.38251 0.0
H1076 H 0.44576 0.44398 0.37746 0.0
H1077 H 0.45069 0.42215 0.37633 0.0
H1078 H 0.43108 0.42917 0.34318 0.0
O1079 O 0.45369 0.47406 0.56434 0.0
O1080 O 0.44026 0.4639 0.65003 0.0
H1081 H 0.39592 0.41932 0.59436 0.0
H1082 H 0.4028 0.3998 0.55897 0.0
C1083 C 0.40695 0.41176 0.58063 0.0
H1084 H 0.41405 0.40893 0.62595 0.0
H1085 H 0.40393 0.45979 0.64598 0.0
O1086 O 0.47314 0.45139 0.44763 0.0
C1087 C 0.44713 0.47608 0.62152 0.0
H1088 H 0.13518 0.12534 0.75726 0.0
H1089 H 0.1424 0.08179 0.63598 0.0
H1090 H 0.16092 0.09751 0.56266 0.0
H1091 H 0.17389 0.12385 0.53181 0.0
H1092 H 0.16685 0.16735 0.65391 0.0
H1093 H 0.14909 0.15141 0.72894 0.0
C1094 C 0.14065 0.11944 0.71412 0.0
C1095 C 0.13725 0.10274 0.70011 0.0
C1096 C 0.15119 0.12847 0.67305 0.0
C1097 C 0.14481 0.0948 0.64628 0.0
C1098 C 0.15534 0.10373 0.60478 0.0
C1099 C 0.1686 0.12976 0.57531 0.0
C1100 C 0.17129 0.1467 0.5872 0.0
C1101 C 0.15849 0.12058 0.61759 0.0
C1102 C 0.16449 0.15436 0.64335 0.0
C1103 C 0.15445 0.14527 0.68619 0.0
H1104 H 0.12493 0.90081 0.79079 0.0
H1105 H 0.14043 0.94622 0.88614 0.0
H1106 H 0.15905 0.9304 0.95875 0.0
H1107 H 0.17112 0.9037 0.99224 0.0
H1108 H 0.15612 0.85855 0.8934 0.0
H1109 H 0.13676 0.87427 0.82445 0.0
C1110 C 0.13206 0.90715 0.82875 0.0
C1111 C 0.13114 0.92445 0.83509 0.0
C1112 C 0.14282 0.89808 0.8687 0.0
C1113 C 0.14091 0.93278 0.88188 0.0
C1114 C 0.15154 0.92379 0.92282 0.0
C1115 C 0.16365 0.89739 0.95528 0.0
C1116 C 0.16475 0.88011 0.94788 0.0
C1117 C 0.15269 0.90647 0.91606 0.0
C1118 C 0.15511 0.87187 0.90036 0.0
C1119 C 0.14414 0.88082 0.86098 0.0
H1120 H 0.37201 0.93557 0.18762 0.0
H1121 H 0.41362 0.90197 0.16325 0.0
H1122 H 0.39843 0.88645 0.08094 0.0
H1123 H 0.37248 0.88045 0.02532 0.0
H1124 H 0.32905 0.91048 0.06345 0.0
H1125 H 0.34579 0.92949 0.13107 0.0
C1126 C 0.37784 0.92498 0.1636 0.0
C1127 C 0.39414 0.92031 0.18039 0.0
C1128 C 0.36856 0.91525 0.12003 0.0
C1129 C 0.40148 0.90648 0.14933 0.0
C1130 C 0.39263 0.89729 0.10312 0.0
C1131 C 0.36656 0.89088 0.0499 0.0
C1132 C 0.34949 0.8937 0.04261 0.0
C1133 C 0.37603 0.90125 0.08995 0.0
C1134 C 0.34217 0.90793 0.07032 0.0
C1135 C 0.3517 0.91875 0.10864 0.0
H1136 H 0.36804 0.09803 0.2796 0.0
H1137 H 0.41194 0.10359 0.40023 0.0
H1138 H 0.39631 0.12051 0.47922 0.0
H1139 H 0.37064 0.13492 0.50974 0.0
H1140 H 0.32666 0.12923 0.39018 0.0
H1141 H 0.34179 0.11068 0.31472 0.0
C1142 C 0.3741 0.10278 0.32366 0.0
C1143 C 0.39113 0.10008 0.3336 0.0
C1144 C 0.36508 0.11243 0.36838 0.0
C1145 C 0.39892 0.10609 0.39082 0.0
C1146 C 0.39 0.11562 0.43602 0.0
C1147 C 0.36448 0.12965 0.4668 0.0
C1148 C 0.34787 0.13361 0.45359 0.0
C1149 C 0.3732 0.11917 0.42434 0.0
C1150 C 0.3396 0.12639 0.39989 0.0
C1151 C 0.34821 0.11586 0.35711 0.0
H1152 H 0.83887 0.89593 0.39755 0.0
H1153 H 0.87901 0.88515 0.53212 0.0
H1154 H 0.89704 0.90477 0.47382 0.0
H1155 H 0.90146 0.92406 0.38253 0.0
H1156 H 0.86207 0.93321 0.24249 0.0
H1157 H 0.84318 0.91585 0.30729 0.0
C1158 C 0.85159 0.89792 0.41365 0.0
C1159 C 0.85792 0.88892 0.46714 0.0
C1160 C 0.8618 0.90906 0.37986 0.0
C1161 C 0.87422 0.89163 0.48919 0.0
C1162 C 0.88441 0.90294 0.45655 0.0
C1163 C 0.88883 0.92204 0.36574 0.0
C1164 C 0.88327 0.92932 0.30699 0.0
C1165 C 0.87838 0.91152 0.4013 0.0
C1166 C 0.86661 0.9275 0.28753 0.0
C1167 C 0.85588 0.91749 0.32407 0.0
H1168 H 0.87121 0.13752 0.01177 0.0
H1169 H 0.8273 0.13011 0.13065 0.0
H1170 H 0.84306 0.11226 0.20646 0.0
H1171 H 0.86969 0.10054 0.24171 0.0
H1172 H 0.91355 0.10784 0.12199 0.0
H1173 H 0.89744 0.12428 0.04315 0.0
C1174 C 0.8652 0.13207 0.05471 0.0
C1175 C 0.84841 0.13533 0.06752 0.0
C1176 C 0.87429 0.122 0.09748 0.0
C1177 C 0.84038 0.12782 0.12119 0.0
C1178 C 0.84934 0.11769 0.1642 0.0
C1179 C 0.87565 0.1056 0.19794 0.0
C1180 C 0.89278 0.10347 0.18816 0.0
C1181 C 0.86635 0.11494 0.15325 0.0
C1182 C 0.90045 0.10988 0.13133 0.0
C1183 C 0.89124 0.11914 0.08617 0.0
H1184 H 0.62566 0.12075 0.8023 0.0
H1185 H 0.65946 0.07914 0.81362 0.0
H1186 H 0.67825 0.09557 0.8833 0.0
H1187 H 0.6844 0.12156 0.94219 0.0
H1188 H 0.6478 0.161 0.94279 0.0
H1189 H 0.63064 0.14553 0.86655 0.0
C1190 C 0.63675 0.11496 0.82213 0.0
C1191 C 0.64088 0.09858 0.80548 0.0
C1192 C 0.64714 0.12424 0.86266 0.0
C1193 C 0.65594 0.09169 0.82739 0.0
C1194 C 0.66666 0.10106 0.86678 0.0
C1195 C 0.67273 0.1268 0.92514 0.0
C1196 C 0.66784 0.14277 0.94555 0.0
C1197 C 0.66232 0.11735 0.88475 0.0
C1198 C 0.6525 0.14928 0.92455 0.0
C1199 C 0.64242 0.14024 0.88212 0.0
H1200 H 0.68669 0.898 0.59638 0.0
H1201 H 0.65332 0.85617 0.61829 0.0
H1202 H 0.63748 0.87125 0.70048 0.0
H1203 H 0.63089 0.8974 0.75471 0.0
H1204 H 0.66074 0.94096 0.71681 0.0
H1205 H 0.68026 0.92414 0.65208 0.0
C1206 C 0.67608 0.89208 0.61981 0.0
C1207 C 0.67145 0.87585 0.60184 0.0
C1208 C 0.66615 0.90131 0.66281 0.0
C1209 C 0.6577 0.86834 0.63265 0.0
C1210 C 0.64833 0.87712 0.67879 0.0
C1211 C 0.64138 0.90333 0.73074 0.0
C1212 C 0.64399 0.92048 0.73727 0.0
C1213 C 0.65206 0.8938 0.69197 0.0
C1214 C 0.65833 0.92779 0.71053 0.0
C1215 C 0.66946 0.91821 0.67386 0.0
H1216 H 0.68592 0.62711 0.10701 0.0
H1217 H 0.64368 0.64717 1.0026 0.0
H1218 H 0.62506 0.62843 0.06209 0.0
H1219 H 0.62096 0.60675 0.14411 0.0
H1220 H 0.66264 0.5881 0.25586 0.0
H1221 H 0.68166 0.60524 0.19036 0.0
C1222 C 0.67262 0.62735 0.09795 0.0
C1223 C 0.66597 0.63862 0.05247 0.0
C1224 C 0.66206 0.61666 0.13243 0.0
C1225 C 0.64885 0.63886 0.03943 0.0
C1226 C 0.63828 0.62806 0.07263 0.0
C1227 C 0.63415 0.6067 0.15499 0.0
C1228 C 0.64042 0.59674 0.20581 0.0
C1229 C 0.64476 0.61704 0.11954 0.0
C1230 C 0.65762 0.5959 0.21703 0.0
C1231 C 0.66843 0.60576 0.18016 0.0
H1232 H 0.61963 0.41625 0.37135 0.0
H1233 H 0.65917 0.42767 0.23425 0.0
H1234 H 0.67788 0.40898 0.29354 0.0
H1235 H 0.68237 0.3883 0.3804 0.0
H1236 H 0.64241 0.37602 0.51427 0.0
H1237 H 0.62401 0.39552 0.45759 0.0
C1238 C 0.63224 0.4144 0.35384 0.0
C1239 C 0.63794 0.42285 0.29781 0.0
C1240 C 0.64264 0.40324 0.38637 0.0
C1241 C 0.65455 0.42114 0.27739 0.0
C1242 C 0.66517 0.41038 0.3107 0.0
C1243 C 0.66956 0.38983 0.39644 0.0
C1244 C 0.66348 0.38053 0.44958 0.0
C1245 C 0.65922 0.40114 0.36436 0.0
C1246 C 0.64705 0.38267 0.47148 0.0
C1247 C 0.63665 0.39397 0.43993 0.0
H1248 H 0.90231 0.41757 0.64277 0.0
H1249 H 0.86263 0.4282 0.78032 0.0
H1250 H 0.84422 0.40927 0.72073 0.0
H1251 H 0.84024 0.38825 0.63465 0.0
H1252 H 0.88051 0.37644 0.50152 0.0
H1253 H 0.89839 0.39665 0.55696 0.0
C1254 C 0.88973 0.41552 0.66026 0.0
C1255 C 0.88392 0.42374 0.71662 0.0
C1256 C 0.87957 0.40414 0.62786 0.0
C1257 C 0.86733 0.42181 0.73695 0.0
C1258 C 0.85689 0.4109 0.70351 0.0
C1259 C 0.853 0.39006 0.61848 0.0
C1260 C 0.85935 0.3807 0.56599 0.0
C1261 C 0.86304 0.40171 0.64999 0.0
C1262 C 0.8757 0.38317 0.54385 0.0
C1263 C 0.88579 0.39487 0.57466 0.0
H1264 H 0.90563 0.61842 0.85053 0.0
H1265 H 0.86341 0.59697 0.75039 0.0
H1266 H 0.84478 0.61624 0.80769 0.0
H1267 H 0.84071 0.63872 0.88772 0.0
H1268 H 0.88312 0.65997 0.98731 0.0
H1269 H 0.90179 0.64186 0.92516 0.0
C1270 C 0.89242 0.61826 0.84002 0.0
C1271 C 0.88585 0.60664 0.79577 0.0
C1272 C 0.88196 0.62951 0.87176 0.0
C1273 C 0.86864 0.60592 0.78464 0.0
C1274 C 0.85805 0.61697 0.81677 0.0
C1275 C 0.85408 0.63954 0.89461 0.0
C1276 C 0.86067 0.65078 0.94034 0.0
C1277 C 0.86461 0.6288 0.86038 0.0
C1278 C 0.87791 0.65174 0.95033 0.0
C1279 C 0.88853 0.64121 0.91582 0.0
H1280 H 0.4021 0.41722 0.87152 0.0
H1281 H 0.36198 0.42781 0.73636 0.0
H1282 H 0.34386 0.40869 0.79642 0.0
H1283 H 0.34018 0.38763 0.88254 0.0
H1284 H 0.38086 0.37591 0.0134 0.0
H1285 H 0.39852 0.39618 0.95713 0.0
C1286 C 0.3895 0.41511 0.85459 0.0
C1287 C 0.38348 0.42341 0.79877 0.0
C1288 C 0.37948 0.40364 0.88731 0.0
C1289 C 0.36685 0.42138 0.77926 0.0
C1290 C 0.35657 0.41036 0.81299 0.0
C1291 C 0.35297 0.38947 0.89804 0.0
C1292 C 0.35949 0.38012 0.95018 0.0
C1293 C 0.3629 0.40116 0.86605 0.0
C1294 C 0.3759 0.38263 0.97138 0.0
C1295 C 0.38587 0.39436 0.94008 0.0
H1296 H 0.37694 0.58694 0.67249 0.0
H1297 H 0.41893 0.61963 0.64137 0.0
H1298 H 0.40369 0.63453 0.55712 0.0
H1299 H 0.37718 0.64123 0.50622 0.0
H1300 H 0.33359 0.61222 0.55251 0.0
H1301 H 0.35065 0.59285 0.61692 0.0
C1302 C 0.38286 0.59715 0.64643 0.0
C1303 C 0.39912 0.60198 0.66291 0.0
C1304 C 0.37355 0.60661 0.60211 0.0
C1305 C 0.40669 0.61517 0.62856 0.0
C1306 C 0.39782 0.624 0.58115 0.0
C1307 C 0.37136 0.63087 0.53156 0.0
C1308 C 0.35413 0.62854 0.52808 0.0
C1309 C 0.38105 0.62032 0.57015 0.0
C1310 C 0.34685 0.61441 0.55661 0.0
C1311 C 0.35656 0.60338 0.59311 0.0
H1312 H 0.13916 0.5921 0.37369 0.0
H1313 H 0.12799 0.63163 0.23663 0.0
H1314 H 0.14648 0.65045 0.29676 0.0
H1315 H 0.16593 0.65533 0.38756 0.0
H1316 H 0.1766 0.61585 0.5258 0.0
H1317 H 0.15871 0.59695 0.46397 0.0
C1318 C 0.14075 0.60488 0.3575 0.0
C1319 C 0.132 0.61075 0.30263 0.0
C1320 C 0.15146 0.61545 0.39159 0.0
C1321 C 0.13422 0.62716 0.28065 0.0
C1322 C 0.14492 0.6378 0.31431 0.0
C1323 C 0.16409 0.64269 0.40469 0.0
C1324 C 0.17217 0.63704 0.46165 0.0
C1325 C 0.15354 0.63207 0.36997 0.0
C1326 C 0.1704 0.62043 0.48187 0.0
C1327 C 0.16011 0.60967 0.44699 0.0
H1328 H 0.15217 0.43795 0.18962 0.0
H1329 H 0.1085 0.40933 0.13822 0.0
H1330 H 0.12384 0.39529 0.05203 0.0
H1331 H 0.15052 0.38773 1.00417 0.0
H1332 H 0.19534 0.41196 0.07057 0.0
H1333 H 0.17877 0.43123 0.13763 0.0
C1334 C 0.14592 0.42882 0.1589 0.0
C1335 C 0.12912 0.42492 0.17036 0.0
C1336 C 0.15518 0.4197 0.11314 0.0
C1337 C 0.12118 0.41314 0.12978 0.0
C1338 C 0.13008 0.40477 0.08102 0.0
C1339 C 0.15668 0.39701 0.03434 0.0
C1340 C 0.17406 0.39795 0.0357 0.0
C1341 C 0.14721 0.40739 0.07469 0.0
C1342 C 0.18191 0.4108 0.0707 0.0
C1343 C 0.17247 0.42176 0.10883 0.0
H1344 H 0.22842 0.20338 0.51423 0.0
H1345 H 0.2576 0.20189 0.33502 0.0
H1346 H 0.28318 0.20127 0.40147 0.0
H1347 H 0.2971 0.20015 0.51009 0.0
H1348 H 0.26808 0.20292 0.68938 0.0
H1349 H 0.24247 0.20417 0.62295 0.0
C1350 C 0.24037 0.20291 0.48935 0.0
C1351 C 0.24099 0.20244 0.41913 0.0
C1352 C 0.255 0.20279 0.52801 0.0
C1353 C 0.25666 0.2022 0.38844 0.0
C1354 C 0.27129 0.2018 0.42663 0.0
C1355 C 0.28518 0.20103 0.53501 0.0
C1356 C 0.28458 0.2012 0.60523 0.0
C1357 C 0.27059 0.20193 0.49638 0.0
C1358 C 0.26899 0.20272 0.63596 0.0
C1359 C 0.25435 0.20337 0.59778 0.0
H1360 H 0.07421 0.9798 0.76087 0.0
H1361 H 0.07554 1.00946 0.58305 0.0
H1362 H 0.07571 0.03489 0.65078 0.0
H1363 H 0.07635 0.04853 0.76018 0.0
H1364 H 0.07375 0.0189 0.93786 0.0
H1365 H 0.07313 0.99349 0.87009 0.0
C1366 C 0.07456 0.99182 0.73654 0.0
C1367 C 0.07511 0.99263 0.66637 0.0
C1368 C 0.07443 1.00634 0.77589 0.0
C1369 C 0.07518 1.00838 0.63642 0.0
C1370 C 0.07532 0.02292 0.67533 0.0
C1371 C 0.07566 0.03652 0.78447 0.0
C1372 C 0.07533 0.0357 0.85465 0.0
C1373 C 0.0751 0.02202 0.74505 0.0
C1374 C 0.07408 0.01999 0.8845 0.0
C1375 C 0.07377 1.00546 0.84556 0.0
H1376 H 0.22625 0.82157 0.01307 0.0
H1377 H 0.25534 0.8233 0.19212 0.0
H1378 H 0.28098 0.82349 0.12562 0.0
H1379 H 0.29498 0.8244 0.01671 0.0
H1380 H 0.26597 0.82122 0.83779 0.0
H1381 H 0.24034 0.82028 0.90435 0.0
C1382 C 0.2382 0.82196 0.03786 0.0
C1383 C 0.23878 0.82266 0.10804 0.0
C1384 C 0.25285 0.82185 0.99918 0.0
C1385 C 0.25443 0.8228 0.13873 0.0
C1386 C 0.26909 0.82297 0.10049 0.0
C1387 C 0.28305 0.82349 0.99197 0.0
C1388 C 0.28246 0.82314 0.92176 0.0
C1389 C 0.26843 0.82271 0.03073 0.0
C1390 C 0.26687 0.82157 0.8912 0.0
C1391 C 0.25222 0.82109 0.92945 0.0
H1392 H 0.44999 0.04496 0.26467 0.0
H1393 H 0.45114 0.01615 0.08459 0.0
H1394 H 0.45105 0.99038 0.15013 0.0
H1395 H 0.44985 0.97611 0.25842 0.0
H1396 H 0.45037 1.00493 0.43849 0.0
H1397 H 0.45065 0.03069 0.37294 0.0
C1398 C 0.45021 0.03305 0.23942 0.0
C1399 C 0.45035 0.03259 0.16919 0.0
C1400 C 0.45043 0.01831 0.2776 0.0
C1401 C 0.45098 0.01698 0.13805 0.0
C1402 C 0.45088 1.00224 0.17571 0.0
C1403 C 0.45 0.98802 0.28365 0.0
C1404 C 0.44984 0.98849 0.35389 0.0
C1405 C 0.45046 1.00276 0.24547 0.0
C1406 C 0.45041 1.0041 0.38504 0.0
C1407 C 0.45054 0.01884 0.34736 0.0
H1408 H 0.72861 0.82555 0.51305 0.0
H1409 H 0.75807 0.82697 0.33452 0.0
H1410 H 0.78355 0.82717 0.40148 0.0
H1411 H 0.79735 0.82747 0.51026 0.0
H1412 H 0.76806 0.8246 0.68888 0.0
H1413 H 0.74251 0.82433 0.62198 0.0
C1414 C 0.7406 0.82596 0.48842 0.0
C1415 C 0.74133 0.82649 0.41823 0.0
C1416 C 0.75518 0.82578 0.52737 0.0
C1417 C 0.75704 0.82665 0.3879 0.0
C1418 C 0.77162 0.82678 0.42638 0.0
C1419 C 0.78539 0.82682 0.53499 0.0
C1420 C 0.78471 0.82628 0.60516 0.0
C1421 C 0.77082 0.82645 0.49608 0.0
C1422 C 0.76905 0.82508 0.6355 0.0
C1423 C 0.75444 0.82497 0.59706 0.0
H1424 H 0.95245 0.04878 0.25635 0.0
H1425 H 0.95261 0.01945 0.43505 0.0
H1426 H 0.95275 0.99389 0.36826 0.0
H1427 H 0.95173 0.97997 0.25949 0.0
H1428 H 0.95296 1.00917 0.08057 0.0
H1429 H 0.9535 0.03479 0.14729 0.0
C1430 C 0.95253 0.0368 0.28099 0.0
C1431 C 0.95228 0.03612 0.3512 0.0
C1432 C 0.95285 0.02218 0.24211 0.0
C1433 C 0.95273 0.02043 0.38164 0.0
C1434 C 0.95277 1.00581 0.34326 0.0
C1435 C 0.95214 0.99194 0.23474 0.0
C1436 C 0.95207 0.99258 0.16456 0.0
C1437 C 0.95265 1.00655 0.27354 0.0
C1438 C 0.95296 1.00823 0.13399 0.0
C1439 C 0.95321 0.02287 0.17234 0.0
H1440 H 0.72676 0.20191 1.00893 0.0
H1441 H 0.75614 0.20205 0.18739 0.0
H1442 H 0.78168 0.20223 0.1203 0.0
H1443 H 0.79554 0.20117 0.01129 0.0
H1444 H 0.76624 0.20234 0.8327 0.0
H1445 H 0.74068 0.20296 0.89975 0.0
C1446 C 0.73875 0.20198 0.03348 0.0
C1447 C 0.73945 0.20171 0.10371 0.0
C1448 C 0.75334 0.20232 0.99443 0.0
C1449 C 0.75514 0.20219 0.13399 0.0
C1450 C 0.76974 0.20225 0.09542 0.0
C1451 C 0.78356 0.20159 0.98668 0.0
C1452 C 0.78289 0.20148 0.91646 0.0
C1453 C 0.76898 0.20212 0.02568 0.0
C1454 C 0.76722 0.20238 0.8861 0.0
C1455 C 0.7526 0.20267 0.92465 0.0
H1456 H 0.57475 0.04564 0.75929 0.0
H1457 H 0.57481 0.01578 0.58189 0.0
H1458 H 0.57445 0.9904 0.64993 0.0
H1459 H 0.57538 0.97687 0.75958 0.0
H1460 H 0.57399 1.00676 0.93686 0.0
H1461 H 0.57353 0.03211 0.86877 0.0
C1462 C 0.57467 0.03358 0.7352 0.0
C1463 C 0.57507 0.03266 0.6651 0.0
C1464 C 0.57426 0.01912 0.77472 0.0
C1465 C 0.57457 0.0169 0.63526 0.0
C1466 C 0.57442 1.00241 0.67434 0.0
C1467 C 0.57498 0.98894 0.78362 0.0
C1468 C 0.575 0.98987 0.85374 0.0
C1469 C 0.57449 1.00339 0.74405 0.0
C1470 C 0.57406 1.00562 0.88349 0.0
C1471 C 0.57385 0.0201 0.84439 0.0
H1472 H 0.72702 0.69863 0.01103 0.0
H1473 H 0.75643 0.702 0.83286 0.0
H1474 H 0.78191 0.70244 0.90003 0.0
H1475 H 0.79574 0.70139 1.009 0.0
H1476 H 0.76622 0.6995 0.18728 0.0
H1477 H 0.74077 0.69899 0.12007 0.0
C1478 C 0.73899 0.69941 0.98647 0.0
C1479 C 0.73972 0.70005 0.9163 0.0
C1480 C 0.75353 0.69991 0.02557 0.0
C1481 C 0.7554 0.70142 0.88621 0.0
C1482 C 0.76998 0.70163 0.92481 0.0
C1483 C 0.78375 0.70081 0.03355 0.0
C1484 C 0.783 0.70026 0.10374 0.0
C1485 C 0.76919 0.70079 0.99447 0.0
C1486 C 0.76727 0.69986 0.13391 0.0
C1487 C 0.75271 0.69955 0.09528 0.0
H1488 H 0.5722 0.47755 0.25832 0.0
H1489 H 0.57093 0.50772 0.0819 0.0
H1490 H 0.57051 0.53295 0.15071 0.0
H1491 H 0.57188 0.54632 0.26044 0.0
H1492 H 0.57205 0.51627 0.43716 0.0
H1493 H 0.57136 0.49097 0.36849 0.0
C1494 C 0.57182 0.48964 0.2346 0.0
C1495 C 0.57186 0.49067 0.16444 0.0
C1496 C 0.57138 0.50405 0.27464 0.0
C1497 C 0.57098 0.50648 0.13523 0.0
C1498 C 0.57079 0.5209 0.17476 0.0
C1499 C 0.57172 0.53423 0.28428 0.0
C1500 C 0.57225 0.53325 0.35437 0.0
C1501 C 0.5712 0.51982 0.2444 0.0
C1502 C 0.57167 0.51746 0.38385 0.0
C1503 C 0.57136 0.503 0.34438 0.0
H1504 H 0.72778 0.32604 0.5079 0.0
H1505 H 0.7571 0.32539 0.68665 0.0
H1506 H 0.78263 0.32491 0.61967 0.0
H1507 H 0.79649 0.32512 0.51089 0.0
H1508 H 0.76719 0.3244 0.33211 0.0
H1509 H 0.74164 0.32491 0.39906 0.0
C1510 C 0.73974 0.32585 0.53264 0.0
C1511 C 0.74042 0.32598 0.60287 0.0
C1512 C 0.75432 0.32532 0.49371 0.0
C1513 C 0.7561 0.32538 0.63324 0.0
C1514 C 0.7707 0.32513 0.59476 0.0
C1515 C 0.78453 0.32512 0.48612 0.0
C1516 C 0.78386 0.32493 0.4159 0.0
C1517 C 0.76994 0.32518 0.52503 0.0
C1518 C 0.76817 0.3246 0.38552 0.0
C1519 C 0.75356 0.32492 0.42398 0.0
H1520 H 0.94884 0.54652 0.75396 0.0
H1521 H 0.94951 0.51616 0.57788 0.0
H1522 H 0.95004 0.49099 0.64711 0.0
H1523 H 0.94914 0.47774 0.75744 0.0
H1524 H 0.94976 0.50818 0.93333 0.0
H1525 H 0.94997 0.53331 0.86404 0.0
C1526 C 0.94911 0.53439 0.73036 0.0
C1527 C 0.94888 0.5333 0.66024 0.0
C1528 C 0.94961 0.52005 0.77057 0.0
C1529 C 0.94961 0.51745 0.63119 0.0
C1530 C 0.94986 0.50306 0.67097 0.0
C1531 C 0.94933 0.48987 0.78095 0.0
C1532 C 0.94919 0.491 0.85109 0.0
C1533 C 0.94966 0.50423 0.74066 0.0
C1534 C 0.9498 0.50686 0.88003 0.0
C1535 C 0.94987 0.52123 0.84022 0.0
H1536 H 0.22835 0.32725 0.01172 0.0
H1537 H 0.25709 0.32234 0.8324 0.0
H1538 H 0.28269 0.32054 0.8986 0.0
H1539 H 0.29685 0.32143 1.00698 0.0
H1540 H 0.26795 0.32502 0.18641 0.0
H1541 H 0.24232 0.32617 0.12028 0.0
C1542 C 0.24021 0.3258 0.98676 0.0
C1543 C 0.24075 0.32521 0.91659 0.0
C1544 C 0.25479 0.32455 0.02529 0.0
C1545 C 0.25624 0.32292 0.88581 0.0
C1546 C 0.27087 0.32194 0.92384 0.0
C1547 C 0.28495 0.32246 0.03197 0.0
C1548 C 0.28442 0.32337 0.10211 0.0
C1549 C 0.2703 0.32291 0.99352 0.0
C1550 C 0.26881 0.32434 0.13303 0.0
C1551 C 0.25417 0.32506 0.09502 0.0
H1552 H 0.4469 0.47925 0.75532 0.0
H1553 H 0.45053 0.50862 0.57731 0.0
H1554 H 0.45123 0.53411 0.64462 0.0
H1555 H 0.45017 0.54799 0.75376 0.0
H1556 H 0.44812 0.51847 0.93183 0.0
H1557 H 0.44749 0.49301 0.86448 0.0
C1558 C 0.44781 0.49122 0.73085 0.0
C1559 C 0.44842 0.49193 0.66069 0.0
C1560 C 0.44848 0.50576 0.77004 0.0
C1561 C 0.44997 0.5076 0.63066 0.0
C1562 C 0.45033 0.52219 0.66935 0.0
C1563 C 0.44954 0.53599 0.77819 0.0
C1564 C 0.44896 0.53525 0.84838 0.0
C1565 C 0.44947 0.52141 0.73902 0.0
C1566 C 0.44851 0.51952 0.87846 0.0
C1567 C 0.44812 0.50495 0.83975 0.0
H1568 H 0.29764 0.69703 0.5162 0.0
H1569 H 0.26837 0.702 0.33855 0.0
H1570 H 0.24287 0.70266 0.40589 0.0
H1571 H 0.22899 0.70088 0.5147 0.0
H1572 H 0.25836 0.69733 0.69266 0.0
H1573 H 0.28387 0.69716 0.62541 0.0
C1574 C 0.28568 0.69824 0.49187 0.0
C1575 C 0.28497 0.69919 0.4218 0.0
C1576 C 0.27116 0.69886 0.53107 0.0
C1577 C 0.26935 0.70115 0.39185 0.0
C1578 C 0.25478 0.70149 0.43052 0.0
C1579 C 0.24097 0.70006 0.53911 0.0
C1580 C 0.24168 0.69887 0.60913 0.0
C1581 C 0.25554 0.70019 0.50007 0.0
C1582 C 0.25737 0.69819 0.63936 0.0
C1583 C 0.27195 0.69805 0.60072 0.0
H1584 H 0.07422 0.47722 0.25208 0.0
H1585 H 0.07314 0.50647 0.43108 0.0
H1586 H 0.07282 0.53206 0.36464 0.0
H1587 H 0.07353 0.54606 0.25609 0.0
H1588 H 0.07298 0.51692 0.07683 0.0
H1589 H 0.07315 0.49127 0.14319 0.0
C1590 C 0.07395 0.48919 0.27686 0.0
C1591 C 0.07395 0.48984 0.34708 0.0
C1592 C 0.07346 0.50384 0.23816 0.0
C1593 C 0.07323 0.50551 0.37766 0.0
C1594 C 0.07307 0.52015 0.33948 0.0
C1595 C 0.07346 0.53411 0.23117 0.0
C1596 C 0.07347 0.53351 0.16098 0.0
C1597 C 0.0733 0.51946 0.26977 0.0
C1598 C 0.07302 0.51785 0.13026 0.0
C1599 C 0.07317 0.50318 0.16839 0.0
H1600 H 0.16786 0.26278 0.17269 0.0
H1601 H 0.20806 0.2354 0.08186 0.0
H1602 H 0.20766 0.25442 0.98744 0.0
H1603 H 0.197 0.27966 0.93386 0.0
H1604 H 0.15842 0.30841 0.0288 0.0
H1605 H 0.15685 0.28784 0.11797 0.0
C1606 C 0.17647 0.2609 0.13204 0.0
C1607 C 0.18801 0.24768 0.13446 0.0
C1608 C 0.17638 0.27208 0.07852 0.0
C1609 C 0.19914 0.24552 0.08153 0.0
C1610 C 0.19887 0.25636 0.02741 0.0
C1611 C 0.18799 0.28127 0.97332 0.0
C1612 C 0.17768 0.29548 0.97421 0.0
C1613 C 0.18766 0.26977 0.0257 0.0
C1614 C 0.16638 0.29754 0.02665 0.0
C1615 C 0.16557 0.28583 0.07782 0.0
H1616 H 0.99849 0.94981 0.18028 0.0
H1617 H 0.97154 0.90895 0.26778 0.0
H1618 H 0.99222 0.90714 0.35629 0.0
H1619 H 0.01668 0.9186 0.41329 0.0
H1620 H 0.04231 0.96092 0.3304 0.0
H1621 H 0.02337 0.9608 0.23577 0.0
C1622 C 0.99734 0.94026 0.21789 0.0
C1623 C 0.98358 0.92939 0.21701 0.0
C1624 C 1.00889 0.93976 0.27008 0.0
C1625 C 0.98207 0.91737 0.26707 0.0
C1626 C 0.99383 0.91641 0.31789 0.0
C1627 C 0.01822 0.92773 0.37431 0.0
C1628 C 0.03089 0.93979 0.37912 0.0
C1629 C 1.00708 0.92778 0.32068 0.0
C1630 C 0.03261 0.95158 0.32826 0.0
C1631 C 0.02181 0.95148 0.274 0.0
H1632 H 0.35828 0.76264 0.67735 0.0
H1633 H 0.31645 0.78944 0.5964 0.0
H1634 H 0.31658 0.77126 0.49941 0.0
H1635 H 0.32756 0.74684 0.4403 0.0
H1636 H 0.368 0.71876 0.52494 0.0
H1637 H 0.36964 0.73851 0.61697 0.0
C1638 C 0.34922 0.76457 0.63838 0.0
C1639 C 0.33732 0.77739 0.64451 0.0
C1640 C 0.34921 0.75389 0.58306 0.0
C1641 C 0.32567 0.77962 0.59345 0.0
C1642 C 0.32578 0.76926 0.53775 0.0
C1643 C 0.33699 0.74524 0.47809 0.0
C1644 C 0.34781 0.73143 0.47516 0.0
C1645 C 0.33739 0.75627 0.53225 0.0
C1646 C 0.35964 0.72933 0.5256 0.0
C1647 C 0.3605 0.74057 0.57849 0.0
H1648 H 0.50925 0.10712 0.91139 0.0
H1649 H 0.48437 0.06344 0.8365 0.0
H1650 H 0.50298 0.0631 0.74064 0.0
H1651 H 0.52737 0.07424 0.68135 0.0
H1652 H 0.5535 0.1166 0.76099 0.0
H1653 H 0.53319 0.11863 0.85092 0.0
C1654 C 0.50781 0.09757 0.87395 0.0
C1655 C 0.49542 0.08528 0.88145 0.0
C1656 C 0.51874 0.09729 0.81946 0.0
C1657 C 0.49384 0.07298 0.8324 0.0
C1658 C 0.50445 0.07281 0.77738 0.0
C1659 C 0.52839 0.08416 0.71752 0.0
C1660 C 0.54182 0.09542 0.71385 0.0
C1661 C 0.51705 0.08481 0.77068 0.0
C1662 C 0.54321 0.1079 0.76225 0.0
C1663 C 0.53166 0.10898 0.81395 0.0
H1664 H 0.16761 0.72603 0.49712 0.0
H1665 H 0.19681 0.75318 0.64006 0.0
H1666 H 0.19957 0.77633 0.56286 0.0
H1667 H 0.19541 0.7882 0.45087 0.0
H1668 H 0.1652 0.76136 0.31071 0.0
H1669 H 0.16132 0.73885 0.39004 0.0
C1670 C 0.17433 0.73711 0.51199 0.0
C1671 C 0.18205 0.73771 0.57442 0.0
C1672 C 0.17599 0.75041 0.46715 0.0
C1673 C 0.19068 0.75228 0.59253 0.0
C1674 C 0.19242 0.76553 0.54808 0.0
C1675 C 0.18801 0.7774 0.43791 0.0
C1676 C 0.18078 0.77636 0.37472 0.0
C1677 C 0.18547 0.76458 0.48458 0.0
C1678 C 0.17094 0.76245 0.35896 0.0
C1679 C 0.16869 0.74956 0.40435 0.0
H1680 H 0.50939 0.91484 0.6107 0.0
H1681 H 0.48385 0.95804 0.68698 0.0
H1682 H 0.50253 0.95854 0.78244 0.0
H1683 H 0.52714 0.94771 0.84094 0.0
H1684 H 0.55389 0.90583 0.76004 0.0
H1685 H 0.53355 0.90361 0.67046 0.0
C1686 C 0.50782 0.92432 0.64836 0.0
C1687 C 0.49522 0.93642 0.64138 0.0
C1688 C 0.51878 0.92469 0.70262 0.0
C1689 C 0.49347 0.94864 0.6907 0.0
C1690 C 0.50413 0.9489 0.74548 0.0
C1691 C 0.52831 0.93785 0.80457 0.0
C1692 C 0.54192 0.92679 0.80777 0.0
C1693 C 0.51693 0.93709 0.75166 0.0
C1694 C 0.54347 0.91439 0.75913 0.0
C1695 C 0.5319 0.9132 0.70764 0.0
H1696 H 0.32962 0.23396 0.94058 0.0
H1697 H 0.3613 0.26068 0.805 0.0
H1698 H 0.36568 0.28244 0.88721 0.0
H1699 H 0.35931 0.29479 0.99515 0.0
H1700 H 0.32843 0.26786 0.1332 0.0
H1701 H 0.32537 0.24523 0.05359 0.0
C1702 C 0.33747 0.24456 0.92922 0.0
C1703 C 0.34494 0.24579 0.86641 0.0
C1704 C 0.34025 0.25696 0.97748 0.0
C1705 C 0.35534 0.25944 0.85283 0.0
C1706 C 0.35789 0.27191 0.89989 0.0
C1707 C 0.35216 0.28385 1.00847 0.0
C1708 C 0.34405 0.28319 0.0702 0.0
C1709 C 0.35029 0.27089 0.96217 0.0
C1710 C 0.33488 0.2688 0.08629 0.0
C1711 C 0.33297 0.25587 0.04042 0.0
H1712 H 0.0209 0.11205 0.1235 0.0
H1713 H 0.04246 0.06537 0.18507 0.0
H1714 H 0.02426 0.06495 0.28204 0.0
H1715 H 1.00073 0.07675 0.34468 0.0
H1716 H 0.97782 0.12227 0.27795 0.0
H1717 H 0.99827 0.12445 0.18866 0.0
C1718 C 0.02173 0.10183 0.15832 0.0
C1719 C 0.03299 0.0887 0.14661 0.0
C1720 C 1.01104 0.10154 0.21345 0.0
C1721 C 0.03383 0.07556 0.19241 0.0
C1722 C 0.02345 0.07534 0.24807 0.0
C1723 C 1.00051 0.08739 0.31169 0.0
C1724 C 0.98791 0.09947 0.31847 0.0
C1725 C 1.01185 0.08815 0.25863 0.0
C1726 C 0.9875 0.11292 0.27416 0.0
C1727 C 0.9991 0.11409 0.22277 0.0
H1728 H 0.85871 0.73311 0.01021 0.0
H1729 H 0.82281 0.75698 0.13765 0.0
H1730 H 0.81952 0.77949 0.05749 0.0
H1731 H 0.82519 0.79132 0.94617 0.0
H1732 H 0.86166 0.76742 0.82142 0.0
H1733 H 0.86616 0.74605 0.90481 0.0
C1734 C 0.85037 0.74337 0.02116 0.0
C1735 C 0.84097 0.74321 0.07996 0.0
C1736 C 0.84837 0.75619 0.97446 0.0
C1737 C 0.83029 0.75673 0.09309 0.0
C1738 C 0.82825 0.76956 0.04682 0.0
C1739 C 0.8341 0.78142 0.93743 0.0
C1740 C 0.84292 0.78089 0.87723 0.0
C1741 C 0.8369 0.76921 0.98646 0.0
C1742 C 0.85466 0.76814 0.86714 0.0
C1743 C 0.85727 0.75588 0.91489 0.0
H1744 H 0.02762 0.07621 0.84367 0.0
H1745 H 0.05105 0.12125 0.77478 0.0
H1746 H 0.0306 0.12344 0.6856 0.0
H1747 H 1.00756 0.11135 0.62188 0.0
H1748 H 0.98544 0.06512 0.68546 0.0
H1749 H 1.00391 0.06454 0.7816 0.0
C1750 C 0.02798 0.08674 0.81014 0.0
C1751 C 0.04071 0.09871 0.81652 0.0
C1752 C 0.0166 0.08751 0.75718 0.0
C1753 C 0.04129 0.11199 0.77142 0.0
C1754 C 0.02967 0.11317 0.72011 0.0
C1755 C 1.00667 0.10118 0.65694 0.0
C1756 C 0.99512 0.08825 0.64608 0.0
C1757 C 0.01752 0.10079 0.71157 0.0
C1758 C 0.99425 0.07518 0.69214 0.0
C1759 C 1.00479 0.07487 0.74733 0.0
H1760 H 0.69696 0.23591 0.44745 0.0
H1761 H 0.66397 0.26143 0.31337 0.0
H1762 H 0.65931 0.28326 0.39506 0.0
H1763 H 0.66572 0.29601 0.50204 0.0
H1764 H 0.69789 0.27029 0.63887 0.0
H1765 H 0.70132 0.24756 0.55985 0.0
C1766 C 0.68878 0.24627 0.43632 0.0
C1767 C 0.68101 0.24715 0.37409 0.0
C1768 C 0.68582 0.2587 0.48436 0.0
C1769 C 0.67017 0.26048 0.36078 0.0
C1770 C 0.66746 0.27298 0.40753 0.0
C1771 C 0.67324 0.2853 0.51525 0.0
C1772 C 0.68159 0.28501 0.57641 0.0
C1773 C 0.67531 0.27231 0.46928 0.0
C1774 C 0.69124 0.27093 0.59239 0.0
C1775 C 0.69336 0.25795 0.54684 0.0
H1776 H 0.49885 0.94866 0.34055 0.0
H1777 H 0.47649 0.90269 0.27597 0.0
H1778 H 0.49659 0.90074 0.18535 0.0
H1779 H 0.51891 0.91331 0.11895 0.0
H1780 H 0.53991 0.9604 0.17854 0.0
H1781 H 0.52191 0.96077 0.27611 0.0
C1782 C 0.49868 0.93799 0.30769 0.0
C1783 C 0.48635 0.92569 0.3156 0.0
C1784 C 0.50981 0.93735 0.25388 0.0
C1785 C 0.48598 0.9122 0.2714 0.0
C1786 C 0.49738 0.91116 0.21923 0.0
C1787 C 0.51964 0.92363 0.15342 0.0
C1788 C 0.53071 0.93686 0.14101 0.0
C1789 C 0.50908 0.92388 0.209 0.0
C1790 C 0.53142 0.95012 0.18637 0.0
C1791 C 0.52117 0.95031 0.24241 0.0
H1792 H 0.82742 0.23483 0.57789 0.0
H1793 H 0.85927 0.26126 0.71353 0.0
H1794 H 0.86389 0.28298 0.63146 0.0
H1795 H 0.85782 0.29533 0.52339 0.0
H1796 H 0.82679 0.26872 0.38511 0.0
H1797 H 0.82333 0.24618 0.46484 0.0
C1798 C 0.83534 0.24536 0.58931 0.0
C1799 C 0.84281 0.2465 0.65212 0.0
C1800 C 0.83827 0.25775 0.54107 0.0
C1801 C 0.85331 0.26008 0.66573 0.0
C1802 C 0.856 0.27253 0.61874 0.0
C1803 C 0.85054 0.28448 0.51004 0.0
C1804 C 0.84253 0.28388 0.44815 0.0
C1805 C 0.84845 0.27158 0.55642 0.0
C1806 C 0.83318 0.26961 0.43212 0.0
C1807 C 0.83104 0.25673 0.47806 0.0
H1808 H 0.51859 0.10914 0.40331 0.0
H1809 H 0.54099 0.06288 0.34113 0.0
H1810 H 0.52292 0.06222 0.24402 0.0
H1811 H 0.49936 0.07371 0.18103 0.0
H1812 H 0.47557 0.11877 0.24816 0.0
H1813 H 0.49579 0.12119 0.33804 0.0
C1814 C 0.51961 0.09896 0.36835 0.0
C1815 C 0.53109 0.08602 0.37991 0.0
C1816 C 0.50899 0.09852 0.31308 0.0
C1817 C 0.53219 0.07292 0.33393 0.0
C1818 C 0.52189 0.07257 0.27817 0.0
C1819 C 0.49889 0.0843 0.21429 0.0
C1820 C 0.48612 0.09618 0.2074 0.0
C1821 C 0.5101 0.08519 0.26765 0.0
C1822 C 0.48538 0.10957 0.25204 0.0
C1823 C 0.49686 0.11087 0.30375 0.0
H1824 H 0.70053 0.74897 0.9265 0.0
H1825 H 0.65528 0.72687 1.00024 0.0
H1826 H 0.65388 0.74784 0.08788 0.0
H1827 H 0.66674 0.77087 0.1489 0.0
H1828 H 0.71317 0.79167 0.08062 0.0
H1829 H 0.71294 0.77274 0.9857 0.0
C1830 C 0.69015 0.74899 0.9608 0.0
C1831 C 0.6779 0.73649 0.95638 0.0
C1832 C 0.68982 0.76066 0.01277 0.0
C1833 C 0.66477 0.73643 1.00226 0.0
C1834 C 0.66404 0.74835 0.05264 0.0
C1835 C 0.67678 0.77138 0.11306 0.0
C1836 C 0.69001 0.78266 0.12216 0.0
C1837 C 0.6767 0.76026 0.05931 0.0
C1838 C 0.7029 0.78306 0.07518 0.0
C1839 C 0.70275 0.77226 0.02076 0.0
H1840 H 0.04767 0.91861 0.77774 0.0
H1841 H 0.02029 0.94849 0.63777 0.0
H1842 H 0.99762 0.95158 0.71715 0.0
H1843 H 0.98634 0.94756 0.8302 0.0
H1844 H 0.01343 0.9168 0.9677 0.0
H1845 H 0.03536 0.91249 0.88603 0.0
C1846 C 0.03664 0.92556 0.76399 0.0
C1847 C 0.03585 0.93337 0.70174 0.0
C1848 C 0.02364 0.92742 0.81014 0.0
C1849 C 0.02133 0.94228 0.68511 0.0
C1850 C 1.00837 0.9442 0.73082 0.0
C1851 C 0.99706 0.93994 0.84211 0.0
C1852 C 0.99835 0.93271 0.90526 0.0
C1853 C 1.00955 0.93718 0.79416 0.0
C1854 C 1.01216 0.92258 0.91957 0.0
C1855 C 0.02472 0.92007 0.87284 0.0
H1856 H 0.66667 0.79484 0.51779 0.0
H1857 H 0.70009 0.76984 0.38319 0.0
H1858 H 0.70342 0.74708 0.46199 0.0
H1859 H 0.69855 0.73521 0.57364 0.0
H1860 H 0.66434 0.76002 0.70539 0.0
H1861 H 0.65982 0.78187 0.62383 0.0
C1862 C 0.67445 0.78429 0.505 0.0
C1863 C 0.68316 0.7842 0.44457 0.0
C1864 C 0.67646 0.77127 0.55081 0.0
C1865 C 0.69315 0.77031 0.42911 0.0
C1866 C 0.69522 0.75731 0.47452 0.0
C1867 C 0.69013 0.74542 0.58428 0.0
C1868 C 0.68196 0.74609 0.64582 0.0
C1869 C 0.68728 0.75786 0.53632 0.0
C1870 C 0.67083 0.75922 0.65851 0.0
C1871 C 0.66821 0.77174 0.61184 0.0
H1872 H 0.51552 0.4159 0.89835 0.0
H1873 H 0.53901 0.46118 0.83175 0.0
H1874 H 0.52067 0.46186 0.73534 0.0
H1875 H 0.49673 0.45061 0.67376 0.0
H1876 H 0.47191 0.4066 0.74534 0.0
H1877 H 0.49218 0.4042 0.83506 0.0
C1878 C 0.51672 0.42588 0.86257 0.0
C1879 C 0.52861 0.43852 0.87263 0.0
C1880 C 0.50594 0.42634 0.80776 0.0
C1881 C 0.52991 0.45136 0.82569 0.0
C1882 C 0.51945 0.45172 0.77034 0.0
C1883 C 0.49601 0.44026 0.70803 0.0
C1884 C 0.48295 0.42865 0.7023 0.0
C1885 C 0.50729 0.43938 0.76122 0.0
C1886 C 0.48193 0.41558 0.74827 0.0
C1887 C 0.49345 0.41429 0.79987 0.0
H1888 H 0.85742 0.26597 0.16028 0.0
H1889 H 0.8151 0.29169 0.07794 0.0
H1890 H 0.81521 0.27278 0.98306 0.0
H1891 H 0.82614 0.24785 0.92742 0.0
H1892 H 0.86698 0.22081 0.0145 0.0
H1893 H 0.86887 0.24153 0.10298 0.0
C1894 C 0.84828 0.26754 0.12136 0.0
C1895 C 0.83622 0.28022 0.12641 0.0
C1896 C 0.84823 0.25642 0.06761 0.0
C1897 C 0.82444 0.28199 0.07561 0.0
C1898 C 0.82453 0.2712 0.02122 0.0
C1899 C 0.83571 0.24669 0.9649 0.0
C1900 C 0.84655 0.23289 0.96394 0.0
C1901 C 0.83624 0.25825 0.0171 0.0
C1902 C 0.8586 0.23137 0.01384 0.0
C1903 C 0.85959 0.24315 0.06465 0.0
H1904 H 1.00402 0.60913 0.39072 0.0
H1905 H 0.98217 0.56261 0.32897 0.0
H1906 H 1.00014 0.56223 0.23129 0.0
H1907 H 0.02353 0.57404 0.16781 0.0
H1908 H 0.04665 0.61945 0.23448 0.0
H1909 H 0.02648 0.62155 0.32482 0.0
C1910 C 1.00309 0.59894 0.35574 0.0
C1911 C 0.9918 0.58585 0.36761 0.0
C1912 C 0.01363 0.59869 0.30013 0.0
C1913 C 0.99081 0.57278 0.32154 0.0
C1914 C 1.00106 0.57258 0.26547 0.0
C1915 C 0.02385 0.58464 0.20103 0.0
C1916 C 0.03644 0.59671 0.19389 0.0
C1917 C 0.01266 0.58536 0.25466 0.0
C1918 C 0.03698 0.61011 0.2385 0.0
C1919 C 0.02554 0.61123 0.29051 0.0
H1920 H 0.6989 0.25025 0.09526 0.0
H1921 H 0.65497 0.2264 0.01787 0.0
H1922 H 0.65333 0.24721 0.92985 0.0
H1923 H 0.6657 0.27062 0.8696 0.0
H1924 H 0.71089 0.2932 0.94166 0.0
H1925 H 0.71077 0.2744 0.03687 0.0
C1926 C 0.68873 0.24985 0.06008 0.0
C1927 C 0.67694 0.2369 0.06358 0.0
C1928 C 0.68828 0.26145 1.00794 0.0
C1929 C 0.6641 0.23631 0.01658 0.0
C1930 C 0.66323 0.24814 0.96599 0.0
C1931 C 0.67548 0.27155 0.90635 0.0
C1932 C 0.68834 0.28329 0.89824 0.0
C1933 C 0.67548 0.26051 0.96026 0.0
C1934 C 0.70091 0.28423 0.94635 0.0
C1935 C 0.70082 0.2735 1.00092 0.0
H1936 H 1.00357 0.41481 0.12088 0.0
H1937 H 0.98311 0.46215 0.18077 0.0
H1938 H 1.00132 0.46243 0.27755 0.0
H1939 H 0.0245 0.45023 0.34064 0.0
H1940 H 0.04639 0.40403 0.27554 0.0
H1941 H 0.02594 0.40209 0.1863 0.0
C1942 C 1.00299 0.42515 0.15529 0.0
C1943 C 0.99203 0.4385 0.1432 0.0
C1944 C 0.01369 0.42535 0.2103 0.0
C1945 C 0.99151 0.45179 0.18842 0.0
C1946 C 1.00189 0.45192 0.24397 0.0
C1947 C 0.0245 0.43951 0.30801 0.0
C1948 C 0.0368 0.42715 0.31526 0.0
C1949 C 0.01318 0.43888 0.25498 0.0
C1950 C 0.03693 0.41359 0.2714 0.0
C1951 C 0.02534 0.41256 0.22004 0.0
H1952 H 0.85744 0.75592 0.37148 0.0
H1953 H 0.81185 0.73438 0.44485 0.0
H1954 H 0.81231 0.75348 0.5392 0.0
H1955 H 0.82463 0.77756 0.59652 0.0
H1956 H 0.86891 0.80047 0.51766 0.0
H1957 H 0.87019 0.77937 0.43046 0.0
C1958 C 0.84765 0.75529 0.40833 0.0
C1959 C 0.83458 0.74374 0.40087 0.0
C1960 C 0.84783 0.76652 0.46169 0.0
C1961 C 0.82199 0.74319 0.44906 0.0
C1962 C 0.82227 0.75409 0.50314 0.0
C1963 C 0.83479 0.77769 0.56119 0.0
C1964 C 0.8468 0.79046 0.56408 0.0
C1965 C 0.83502 0.76595 0.50952 0.0
C1966 C 0.85962 0.79071 0.51685 0.0
C1967 C 0.86028 0.77871 0.46674 0.0
H1968 H 0.53949 0.57849 0.68847 0.0
H1969 H 0.51326 0.6107 0.55349 0.0
H1970 H 0.49162 0.61545 0.63596 0.0
H1971 H 0.47925 0.60926 0.74384 0.0
H1972 H 0.50564 0.57776 0.88121 0.0
H1973 H 0.5282 0.57435 0.80141 0.0
C1974 C 0.52902 0.58653 0.6773 0.0
C1975 C 0.52788 0.59405 0.61462 0.0
C1976 C 0.5167 0.5895 0.72566 0.0
C1977 C 0.51442 0.6047 0.60124 0.0
C1978 C 0.50202 0.60746 0.64843 0.0
C1979 C 0.49006 0.60189 0.75699 0.0
C1980 C 0.4906 0.59372 0.81854 0.0
C1981 C 0.50294 0.59981 0.71058 0.0
C1982 C 0.50481 0.58426 0.83441 0.0
C1983 C 0.51769 0.58215 0.78845 0.0
H1984 H 0.35841 0.26496 0.35682 0.0
H1985 H 0.3161 0.29058 0.44022 0.0
H1986 H 0.31633 0.27165 0.53498 0.0
H1987 H 0.32744 0.24678 0.59053 0.0
H1988 H 0.36829 0.21987 0.50243 0.0
H1989 H 0.36996 0.24053 0.41374 0.0
C1990 C 0.3493 0.2665 0.39593 0.0
C1991 C 0.33721 0.27918 0.39122 0.0
C1992 C 0.34932 0.25538 0.44963 0.0
C1993 C 0.32546 0.28089 0.44227 0.0
C1994 C 0.32562 0.27009 0.4966 0.0
C1995 C 0.33697 0.24563 0.55275 0.0
C1996 C 0.34788 0.23189 0.55358 0.0
C1997 C 0.33738 0.25718 0.50045 0.0
C1998 C 0.35985 0.23038 0.50325 0.0
C1999 C 0.36073 0.24214 0.45231 0.0
H2000 H 0.50916 0.60734 0.10531 0.0
H2001 H 0.48325 0.56513 0.1877 0.0
H2002 H 0.50221 0.56507 0.28234 0.0
H2003 H 0.5271 0.57598 0.33833 0.0
H2004 H 0.55428 0.61674 0.25126 0.0
H2005 H 0.53369 0.6186 0.1624 0.0
C2006 C 0.50757 0.59818 0.14415 0.0
C2007 C 0.49479 0.58622 0.13923 0.0
C2008 C 0.51871 0.59803 0.1978 0.0
C2009 C 0.49302 0.5744 0.18993 0.0
C2010 C 0.50383 0.5744 0.24419 0.0
C2011 C 0.52833 0.58552 0.30071 0.0
C2012 C 0.54212 0.59637 0.30193 0.0
C2013 C 0.51682 0.58605 0.24833 0.0
C2014 C 0.54373 0.60835 0.2518 0.0
C2015 C 0.53201 0.60934 0.20077 0.0
H2016 H 0.16539 0.75393 0.87202 0.0
H2017 H 0.21096 0.73181 0.94264 0.0
H2018 H 0.21066 0.75039 0.03853 0.0
H2019 H 0.19851 0.77423 0.09808 0.0
H2020 H 0.15417 0.79769 0.02246 0.0
H2021 H 0.15272 0.77706 0.93357 0.0
C2022 C 0.17521 0.75306 0.90859 0.0
C2023 C 0.18823 0.74151 0.89985 0.0
C2024 C 0.1751 0.76398 0.963 0.0
C2025 C 0.20086 0.74065 0.94776 0.0
C2026 C 0.20066 0.75124 1.00276 0.0
C2027 C 0.18829 0.77457 0.06311 0.0
C2028 C 0.17633 0.78737 0.06736 0.0
C2029 C 0.18796 0.7631 0.01047 0.0
C2030 C 0.16343 0.78789 0.0206 0.0
C2031 C 0.16268 0.77617 0.96949 0.0
H2032 H 0.9969 0.45092 0.83951 0.0
H2033 H 0.97348 0.40586 0.7708 0.0
H2034 H 0.99393 0.40365 0.68144 0.0
H2035 H 0.01703 0.41569 0.61774 0.0
H2036 H 0.03916 0.46192 0.68123 0.0
H2037 H 0.02062 0.46258 0.7773 0.0
C2038 C 0.99654 0.4404 0.80595 0.0
C2039 C 0.98382 0.42842 0.81244 0.0
C2040 C 1.00792 0.43961 0.75293 0.0
C2041 C 0.98323 0.41513 0.76733 0.0
C2042 C 0.99485 0.41394 0.71593 0.0
C2043 C 0.0179 0.42588 0.65275 0.0
C2044 C 0.02948 0.43878 0.64192 0.0
C2045 C 1.00701 0.42631 0.70734 0.0
C2046 C 0.03033 0.45189 0.6879 0.0
C2047 C 0.01975 0.45224 0.74305 0.0
H2048 H 0.32672 0.77677 0.94065 0.0
H2049 H 0.36666 0.80587 0.02352 0.0
H2050 H 0.36913 0.78614 0.11528 0.0
H2051 H 0.35856 0.76178 0.17614 0.0
H2052 H 0.31716 0.73399 0.09717 0.0
H2053 H 0.31655 0.75211 1.00016 0.0
C2054 C 0.33623 0.7786 0.97797 0.0
C2055 C 0.34666 0.79267 0.97469 0.0
C2056 C 0.33709 0.7676 0.03203 0.0
C2057 C 0.3586 0.79507 0.02451 0.0
C2058 C 0.35993 0.78385 0.07724 0.0
C2059 C 0.34944 0.75962 0.13758 0.0
C2060 C 0.33786 0.74655 0.14426 0.0
C2061 C 0.349 0.77027 0.08228 0.0
C2062 C 0.32612 0.74402 0.09376 0.0
C2063 C 0.32581 0.75434 0.03805 0.0
H2064 H 0.01597 0.60817 0.89438 0.0
H2065 H 0.03934 0.56294 0.82618 0.0
H2066 H 0.021 0.56256 0.72964 0.0
H2067 H 0.99708 0.5741 0.66834 0.0
H2068 H 0.9725 0.61814 0.74152 0.0
H2069 H 0.99275 0.62017 0.83147 0.0
C2070 C 0.01716 0.59826 0.85826 0.0
C2071 C 0.02902 0.58555 0.86791 0.0
C2072 C 1.00639 0.598 0.80335 0.0
C2073 C 0.03028 0.57282 0.82045 0.0
C2074 C 0.01981 0.57263 0.76503 0.0
C2075 C 0.99642 0.58439 0.703 0.0
C2076 C 0.98342 0.59611 0.69759 0.0
C2077 C 1.0077 0.58506 0.7563 0.0
C2078 C 0.98247 0.60908 0.74411 0.0
C2079 C 0.99397 0.61015 0.79586 0.0
H2080 H 0.19536 0.29089 0.58647 0.0
H2081 H 0.16516 0.26292 0.72337 0.0
H2082 H 0.16086 0.24133 0.64036 0.0
H2083 H 0.16686 0.22955 0.53111 0.0
H2084 H 0.19632 0.25769 0.39195 0.0
H2085 H 0.19931 0.2801 0.47261 0.0
C2086 C 0.18787 0.28005 0.59797 0.0
C2087 C 0.18079 0.27842 0.66135 0.0
C2088 C 0.18514 0.26774 0.54931 0.0
C2089 C 0.17082 0.26446 0.67512 0.0
C2090 C 0.16832 0.25209 0.6276 0.0
C2091 C 0.17369 0.2407 0.5178 0.0
C2092 C 0.18142 0.24179 0.4554 0.0
C2093 C 0.17552 0.25352 0.56471 0.0
C2094 C 0.19018 0.25643 0.43938 0.0
C2095 C 0.19204 0.26924 0.48582 0.0
H2096 H 0.52463 0.44976 0.17302 0.0
H2097 H 0.54888 0.40553 0.24559 0.0
H2098 H 0.52862 0.40362 0.33573 0.0
H2099 H 0.50551 0.41585 0.39911 0.0
H2100 H 0.48263 0.46134 0.33129 0.0
H2101 H 0.5009 0.4615 0.23452 0.0
C2102 C 0.52521 0.43946 0.20756 0.0
C2103 C 0.53812 0.42765 0.20201 0.0
C2104 C 0.51396 0.43888 0.26097 0.0
C2105 C 0.53898 0.41466 0.24836 0.0
C2106 C 0.52747 0.41365 0.30021 0.0
C2107 C 0.50443 0.42576 0.363 0.0
C2108 C 0.49273 0.43862 0.37282 0.0
C2109 C 0.51516 0.42592 0.30794 0.0
C2110 C 0.49158 0.45136 0.32543 0.0
C2111 C 0.502 0.45143 0.26987 0.0
H2112 H 0.15999 0.14033 0.24258 0.0
H2113 H 0.14858 0.18361 0.12506 0.0
H2114 H 0.12904 0.16725 0.05927 0.0
H2115 H 0.11453 0.14055 0.03527 0.0
H2116 H 0.12479 0.09772 0.15649 0.0
H2117 H 0.1447 0.11401 0.22163 0.0
C2118 C 0.15312 0.14631 0.20311 0.0
C2119 C 0.15605 0.16337 0.18922 0.0
C2120 C 0.14137 0.13686 0.16636 0.0
C2121 C 0.14709 0.17056 0.13663 0.0
C2122 C 0.13566 0.16119 0.09922 0.0
C2123 C 0.12106 0.1348 0.07624 0.0
C2124 C 0.11797 0.11784 0.09101 0.0
C2125 C 0.13262 0.14433 0.11364 0.0
C2126 C 0.12663 0.11071 0.14437 0.0
C2127 C 0.13817 0.12004 0.18137 0.0
H2128 H 0.13638 0.90882 0.49342 0.0
H2129 H 0.09289 0.89929 0.37464 0.0
H2130 H 0.10846 0.87895 0.30965 0.0
H2131 H 0.13453 0.86329 0.28627 0.0
H2132 H 0.17747 0.87148 0.40914 0.0
H2133 H 0.16197 0.89218 0.4738 0.0
C2134 C 0.13017 0.90219 0.45391 0.0
C2135 C 0.11331 0.90596 0.43925 0.0
C2136 C 0.13913 0.88993 0.41768 0.0
C2137 C 0.10583 0.89723 0.38666 0.0
C2138 C 0.11473 0.88533 0.34972 0.0
C2139 C 0.14046 0.86951 0.32758 0.0
C2140 C 0.15721 0.86563 0.34292 0.0
C2141 C 0.13139 0.88151 0.36472 0.0
C2142 C 0.1646 0.87392 0.39663 0.0
C2143 C 0.15574 0.88592 0.43333 0.0
H2144 H 0.36288 0.88637 0.72726 0.0
H2145 H 0.37893 0.84039 0.63757 0.0
H2146 H 0.40048 0.85537 0.57631 0.0
H2147 H 0.41544 0.88166 0.54925 0.0
H2148 H 0.39992 0.92739 0.64183 0.0
H2149 H 0.37829 0.91237 0.70307 0.0
C2150 C 0.37115 0.87954 0.69471 0.0
C2151 C 0.369 0.86211 0.68728 0.0
C2152 C 0.38396 0.88823 0.66088 0.0
C2153 C 0.37983 0.85373 0.64374 0.0
C2154 C 0.39239 0.86232 0.60916 0.0
C2155 C 0.40731 0.88835 0.58283 0.0
C2156 C 0.40937 0.90576 0.59055 0.0
C2157 C 0.39466 0.87958 0.61746 0.0
C2158 C 0.39882 0.91406 0.6352 0.0
C2159 C 0.3863 0.90546 0.66981 0.0
H2160 H 0.38771 0.11326 0.98477 0.0
H2161 H 0.43174 0.125 0.87204 0.0
H2162 H 0.41587 0.14496 0.80641 0.0
H2163 H 0.38936 0.15979 0.78148 0.0
H2164 H 0.34609 0.14983 0.90072 0.0
H2165 H 0.36183 0.12922 0.96469 0.0
C2166 C 0.39398 0.12031 0.94653 0.0
C2167 C 0.41109 0.1173 0.93381 0.0
C2168 C 0.38487 0.13243 0.91049 0.0
C2169 C 0.41864 0.12649 0.8826 0.0
C2170 C 0.40956 0.13819 0.84537 0.0
C2171 C 0.38344 0.15321 0.82194 0.0
C2172 C 0.3665 0.15649 0.83637 0.0
C2173 C 0.39267 0.14135 0.85896 0.0
C2174 C 0.35908 0.14777 0.8889 0.0
C2175 C 0.36808 0.13585 0.92519 0.0
H2176 H 0.88751 0.91288 0.98012 0.0
H2177 H 0.93222 0.89825 0.87726 0.0
H2178 H 0.91641 0.87773 0.81409 0.0
H2179 H 0.88976 0.86325 0.78892 0.0
H2180 H 0.84573 0.87615 0.89907 0.0
H2181 H 0.86144 0.89728 0.96039 0.0
C2182 C 0.89393 0.90507 0.94462 0.0
C2183 C 0.91122 0.90738 0.93393 0.0
C2184 C 0.88485 0.89264 0.91041 0.0
C2185 C 0.91899 0.89726 0.88612 0.0
C2186 C 0.90994 0.88525 0.85042 0.0
C2187 C 0.88368 0.87055 0.82702 0.0
C2188 C 0.86655 0.86795 0.83974 0.0
C2189 C 0.89288 0.88272 0.86237 0.0
C2190 C 0.85888 0.87764 0.88891 0.0
C2191 C 0.86786 0.88988 0.92354 0.0
H2192 H 0.88795 0.16131 0.74 0.0
H2193 H 0.84545 0.15101 0.61722 0.0
H2194 H 0.86182 0.1308 0.5535 0.0
H2195 H 0.88804 0.11529 0.53463 0.0
H2196 H 0.93125 0.12725 0.6516 0.0
H2197 H 0.91476 0.14685 0.71675 0.0
C2198 C 0.88233 0.15474 0.69885 0.0
C2199 C 0.86543 0.15781 0.6833 0.0
C2200 C 0.89191 0.1431 0.66211 0.0
C2201 C 0.8584 0.14912 0.62988 0.0
C2202 C 0.86776 0.13742 0.59375 0.0
C2203 C 0.89399 0.12231 0.57375 0.0
C2204 C 0.91105 0.1195 0.58776 0.0
C2205 C 0.88452 0.1342 0.6096 0.0
C2206 C 0.91819 0.12863 0.64002 0.0
C2207 C 0.90876 0.14011 0.67698 0.0
H2208 H 0.63727 0.11409 0.47748 0.0
H2209 H 0.59183 0.12864 0.3803 0.0
H2210 H 0.60688 0.15024 0.31956 0.0
H2211 H 0.63306 0.16557 0.29478 0.0
H2212 H 0.67832 0.15129 0.39347 0.0
H2213 H 0.66319 0.12979 0.45497 0.0
C2214 C 0.63057 0.12204 0.4434 0.0
C2215 C 0.61329 0.11947 0.43369 0.0
C2216 C 0.6393 0.13482 0.4096 0.0
C2217 C 0.60508 0.12988 0.38823 0.0
C2218 C 0.6137 0.14246 0.35393 0.0
C2219 C 0.63962 0.15774 0.32977 0.0
C2220 C 0.65692 0.16011 0.33918 0.0
C2221 C 0.63081 0.14512 0.36429 0.0
C2222 C 0.66506 0.14995 0.38556 0.0
C2223 C 0.6564 0.1375 0.4203 0.0
H2224 H 0.6337 0.85832 0.22717 0.0
H2225 H 0.67935 0.87576 0.13964 0.0
H2226 H 0.66395 0.89718 0.07899 0.0
H2227 H 0.63753 0.91162 0.05271 0.0
H2228 H 0.59185 0.89449 0.1411 0.0
H2229 H 0.60721 0.87303 0.20167 0.0
C2230 C 0.64032 0.8669 0.1953 0.0
C2231 C 0.65779 0.86534 0.18832 0.0
C2232 C 0.63134 0.87954 0.16153 0.0
C2233 C 0.66597 0.87642 0.14546 0.0
C2234 C 0.65715 0.88883 0.11123 0.0
C2235 C 0.6309 0.9032 0.08523 0.0
C2236 C 0.61344 0.90486 0.09217 0.0
C2237 C 0.63984 0.89061 0.11917 0.0
C2238 C 0.60522 0.89384 0.13528 0.0
C2239 C 0.61403 0.88137 0.16946 0.0
H2240 H 0.61379 0.63794 0.52792 0.0
H2241 H 0.62263 0.59584 0.6548 0.0
H2242 H 0.64301 0.61204 0.71803 0.0
H2243 H 0.65911 0.63793 0.73524 0.0
H2244 H 0.64842 0.68092 0.61497 0.0
H2245 H 0.62872 0.66455 0.54993 0.0
C2246 C 0.62005 0.63238 0.56993 0.0
C2247 C 0.61652 0.61564 0.5868 0.0
C2248 C 0.63178 0.64188 0.60646 0.0
C2249 C 0.62486 0.60868 0.64119 0.0
C2250 C 0.63666 0.61794 0.67702 0.0
C2251 C 0.65232 0.64388 0.6955 0.0
C2252 C 0.65551 0.66084 0.68062 0.0
C2253 C 0.64033 0.63453 0.65992 0.0
C2254 C 0.64673 0.66795 0.62737 0.0
C2255 C 0.6352 0.65859 0.59048 0.0
H2256 H 0.6346 0.36279 0.78038 0.0
H2257 H 0.67854 0.3762 0.8898 0.0
H2258 H 0.66269 0.39737 0.95041 0.0
H2259 H 0.6364 0.41264 0.97108 0.0
H2260 H 0.59197 0.3981 0.86682 0.0
H2261 H 0.60794 0.37753 0.80403 0.0
C2262 C 0.64067 0.37027 0.8179 0.0
C2263 C 0.6578 0.36769 0.83085 0.0
C2264 C 0.6314 0.38255 0.85269 0.0
C2265 C 0.66539 0.37761 0.87948 0.0
C2266 C 0.65633 0.38988 0.91375 0.0
C2267 C 0.63011 0.40489 0.93506 0.0
C2268 C 0.61283 0.40714 0.92418 0.0
C2269 C 0.63932 0.39253 0.90067 0.0
C2270 C 0.60519 0.39708 0.87596 0.0
C2271 C 0.61433 0.38507 0.84044 0.0
H2272 H 0.88599 0.41107 0.04382 0.0
H2273 H 0.93085 0.39822 0.1488 0.0
H2274 H 0.91553 0.37739 0.21249 0.0
H2275 H 0.88934 0.36198 0.23715 0.0
H2276 H 0.84499 0.37367 0.12724 0.0
H2277 H 0.86018 0.39505 0.06534 0.0
C2278 C 0.89253 0.40363 0.08014 0.0
C2279 C 0.90974 0.40648 0.09099 0.0
C2280 C 0.8837 0.39111 0.11519 0.0
C2281 C 0.91767 0.39678 0.13965 0.0
C2282 C 0.90891 0.38461 0.17573 0.0
C2283 C 0.88304 0.36913 0.19925 0.0
C2284 C 0.86598 0.36599 0.18662 0.0
C2285 C 0.89193 0.38154 0.16369 0.0
C2286 C 0.85809 0.3755 0.13743 0.0
C2287 C 0.86678 0.38789 0.10238 0.0
H2288 H 0.90867 0.63743 0.48528 0.0
H2289 H 0.90154 0.59696 0.34853 0.0
H2290 H 0.88178 0.61389 0.28519 0.0
H2291 H 0.86561 0.63997 0.27048 0.0
H2292 H 0.87392 0.68098 0.40407 0.0
H2293 H 0.89339 0.66399 0.46762 0.0
C2294 C 0.90289 0.63235 0.44125 0.0
C2295 C 0.90684 0.61588 0.42154 0.0
C2296 C 0.89138 0.64221 0.40505 0.0
C2297 C 0.8991 0.6096 0.3644 0.0
C2298 C 0.88761 0.61927 0.32847 0.0
C2299 C 0.8718 0.64534 0.31299 0.0
C2300 C 0.868 0.66193 0.33201 0.0
C2301 C 0.88354 0.63558 0.34847 0.0
C2302 C 0.87608 0.66829 0.38842 0.0
C2303 C 0.88747 0.65858 0.42457 0.0
H2304 H 0.3896 0.36136 0.28031 0.0
H2305 H 0.34498 0.37351 0.38814 0.0
H2306 H 0.36 0.39523 0.44889 0.0
H2307 H 0.38572 0.4114 0.4698 0.0
H2308 H 0.43091 0.3979 0.36794 0.0
H2309 H 0.41575 0.37681 0.30506 0.0
C2310 C 0.3832 0.36868 0.31757 0.0
C2311 C 0.36612 0.36561 0.3299 0.0
C2312 C 0.392 0.38124 0.35257 0.0
C2313 C 0.3581 0.37532 0.37821 0.0
C2314 C 0.36669 0.3879 0.41258 0.0
C2315 C 0.39236 0.40376 0.43438 0.0
C2316 C 0.40961 0.4065 0.42411 0.0
C2317 C 0.38364 0.39105 0.40003 0.0
C2318 C 0.4177 0.39654 0.37657 0.0
C2319 C 0.40902 0.38422 0.341 0.0
H2320 H 0.36395 0.63793 0.21841 0.0
H2321 H 0.38089 0.68415 0.13395 0.0
H2322 H 0.40235 0.66916 0.07173 0.0
H2323 H 0.41715 0.64284 0.04367 0.0
H2324 H 0.40025 0.59675 0.12917 0.0
H2325 H 0.37868 0.61175 0.19075 0.0
C2326 C 0.37235 0.64478 0.18652 0.0
C2327 C 0.3706 0.66228 0.18113 0.0
C2328 C 0.38501 0.63606 0.15192 0.0
C2329 C 0.38158 0.67075 0.13863 0.0
C2330 C 0.39406 0.66215 0.1035 0.0
C2331 C 0.40867 0.63604 0.07537 0.0
C2332 C 0.4104 0.61856 0.08137 0.0
C2333 C 0.39601 0.64481 0.11002 0.0
C2334 C 0.39944 0.61014 0.12401 0.0
C2335 C 0.38695 0.61874 0.15881 0.0
H2336 H 0.11193 0.63768 0.9809 0.0
H2337 H 0.12155 0.59505 0.85744 0.0
H2338 H 0.14251 0.61092 0.79574 0.0
H2339 H 0.15899 0.6367 0.77932 0.0
H2340 H 0.14814 0.67986 0.89867 0.0
H2341 H 0.12749 0.66393 0.96076 0.0
C2342 C 0.1185 0.63192 0.94 0.0
C2343 C 0.11498 0.61514 0.92362 0.0
C2344 C 0.13068 0.64116 0.90482 0.0
C2345 C 0.12372 0.60794 0.8706 0.0
C2346 C 0.13587 0.617 0.8357 0.0
C2347 C 0.152 0.64275 0.81838 0.0
C2348 C 0.1554 0.65962 0.83394 0.0
C2349 C 0.13958 0.6336 0.85264 0.0
C2350 C 0.14628 0.66692 0.88595 0.0
C2351 C 0.13422 0.65782 0.92113 0.0
H2352 H 0.13482 0.36389 0.73978 0.0
H2353 H 0.17705 0.3727 0.61334 0.0
H2354 H 0.16072 0.39258 0.54819 0.0
H2355 H 0.1348 0.40848 0.53002 0.0
H2356 H 0.09199 0.39871 0.65263 0.0
H2357 H 0.10827 0.3789 0.71774 0.0
C2358 C 0.14039 0.37007 0.69753 0.0
C2359 C 0.15721 0.36671 0.68143 0.0
C2360 C 0.13088 0.38165 0.66045 0.0
C2361 C 0.16416 0.37484 0.6265 0.0
C2362 C 0.15483 0.38636 0.58959 0.0
C2363 C 0.12887 0.40188 0.57032 0.0
C2364 C 0.11202 0.40533 0.58596 0.0
C2365 C 0.13822 0.39001 0.60644 0.0
C2366 C 0.10491 0.39678 0.63977 0.0
C2367 C 0.11421 0.38521 0.6767 0.0
loop_
_geom_bond_atom_site_label_1
_geom_bond_atom_site_label_2
_geom_bond_distance
_geom_bond_site_symmetry_2
_ccdc_geom_bond_type
Co0 O3 1.970 . S
Co0 N17 1.989 . S
Co0 O25 1.967 . S
Co0 O32 1.920 . S
Co1 O4 1.966 . S
Co1 N10 2.022 . S
Co1 N18 1.993 . S
Co1 O26 1.941 . S
C2 O3 1.258 . S
C2 O4 1.263 . S
O3 Co0 1.970 . S
O3 C2 1.258 . S
O4 Co1 1.966 . S
O4 C2 1.263 . S
C5 O6 1.235 . S
C5 O32 1.289 . S
O6 C5 1.235 . S
C7 C9 1.400 . S
C7 N10 1.351 . S
C7 C12 1.501 . S
C8 C9 1.387 . S
C8 N11 1.341 . S
C9 C7 1.400 . S
C9 C8 1.387 . S
N10 Co1 2.022 . S
N10 C7 1.351 . S
N10 N11 1.365 . S
N11 C8 1.341 . S
N11 N10 1.365 . S
N11 H31 0.862 . S
C12 C7 1.501 . S
C12 H13 0.961 . S
C12 H14 0.961 . S
C12 H15 0.960 . S
H13 C12 0.961 . S
H14 C12 0.961 . S
H15 C12 0.960 . S
C16 N17 1.342 . S
C16 C20 1.401 . S
C16 C21 1.499 . S
N17 Co0 1.989 . S
N17 C16 1.342 . S
N17 N18 1.388 . S
N18 Co1 1.993 . S
N18 N17 1.388 . S
N18 C19 1.346 . S
C19 N18 1.346 . S
C19 C20 1.396 . S
C19 C29 1.510 . S
C20 C16 1.401 . S
C20 C19 1.396 . S
C21 C16 1.499 . S
C21 H22 0.959 . S
C21 H23 0.960 . S
C21 H24 0.961 . S
H22 C21 0.959 . S
H23 C21 0.960 . S
H24 C21 0.961 . S
O25 Co0 1.967 . S
O25 C33 1.258 . S
O26 Co1 1.941 . S
O26 C33 1.266 . S
H27 C29 0.959 . S
H28 C29 0.961 . S
C29 C19 1.510 . S
C29 H27 0.959 . S
C29 H28 0.961 . S
C29 H30 0.960 . S
H30 C29 0.960 . S
H31 N11 0.862 . S
O32 Co0 1.920 . S
O32 C5 1.289 . S
C33 O25 1.258 . S
C33 O26 1.266 . S
Co34 O37 1.970 . S
Co34 N51 1.989 . S
Co34 O59 1.967 . S
Co34 O66 1.920 . S
Co35 O38 1.966 . S
Co35 N44 2.022 . S
Co35 N52 1.993 . S
Co35 O60 1.941 . S
C36 O37 1.258 . S
C36 O38 1.263 . S
O37 Co34 1.970 . S
O37 C36 1.258 . S
O38 Co35 1.966 . S
O38 C36 1.263 . S
C39 O40 1.235 . S
C39 O66 1.289 . S
O40 C39 1.235 . S
C41 C43 1.400 . S
C41 N44 1.351 . S
C41 C46 1.501 . S
C42 C43 1.387 . S
C42 N45 1.341 . S
C43 C41 1.400 . S
C43 C42 1.387 . S
N44 Co35 2.022 . S
N44 C41 1.351 . S
N44 N45 1.365 . S
N45 C42 1.341 . S
N45 N44 1.365 . S
N45 H65 0.862 . S
C46 C41 1.501 . S
C46 H47 0.961 . S
C46 H48 0.961 . S
C46 H49 0.960 . S
H47 C46 0.961 . S
H48 C46 0.961 . S
H49 C46 0.960 . S
C50 N51 1.342 . S
C50 C54 1.401 . S
C50 C55 1.499 . S
N51 Co34 1.989 . S
N51 C50 1.342 . S
N51 N52 1.388 . S
N52 Co35 1.993 . S
N52 N51 1.388 . S
N52 C53 1.346 . S
C53 N52 1.346 . S
C53 C54 1.396 . S
C53 C63 1.510 . S
C54 C50 1.401 . S
C54 C53 1.396 . S
C55 C50 1.499 . S
C55 H56 0.959 . S
C55 H57 0.960 . S
C55 H58 0.961 . S
H56 C55 0.959 . S
H57 C55 0.960 . S
H58 C55 0.961 . S
O59 Co34 1.967 . S
O59 C67 1.258 . S
O60 Co35 1.941 . S
O60 C67 1.266 . S
H61 C63 0.959 . S
H62 C63 0.961 . S
C63 C53 1.510 . S
C63 H61 0.959 . S
C63 H62 0.961 . S
C63 H64 0.960 . S
H64 C63 0.960 . S
H65 N45 0.862 . S
O66 Co34 1.920 . S
O66 C39 1.289 . S
C67 O59 1.258 . S
C67 O60 1.266 . S
Co68 O71 1.970 . S
Co68 N85 1.989 . S
Co68 O93 1.967 . S
Co68 O100 1.920 . S
Co69 O72 1.966 . S
Co69 N78 2.022 . S
Co69 N86 1.993 . S
Co69 O94 1.941 . S
C70 O71 1.258 . S
C70 O72 1.263 . S
O71 Co68 1.970 . S
O71 C70 1.258 . S
O72 Co69 1.966 . S
O72 C70 1.263 . S
C73 O74 1.235 . S
C73 O100 1.289 . S
O74 C73 1.235 . S
C75 C77 1.400 . S
C75 N78 1.351 1_554 S
C75 C80 1.501 . S
C76 C77 1.387 . S
C76 N79 1.341 1_554 S
C77 C75 1.400 . S
C77 C76 1.387 . S
N78 Co69 2.022 . S
N78 C75 1.351 1_556 S
N78 N79 1.365 . S
N79 C76 1.341 1_556 S
N79 N78 1.365 . S
N79 H99 0.862 . S
C80 C75 1.501 . S
C80 H81 0.961 . S
C80 H82 0.961 . S
C80 H83 0.960 . S
H81 C80 0.961 . S
H82 C80 0.961 . S
H83 C80 0.960 . S
C84 N85 1.342 . S
C84 C88 1.401 . S
C84 C89 1.499 . S
N85 Co68 1.989 . S
N85 C84 1.342 . S
N85 N86 1.388 . S
N86 Co69 1.993 . S
N86 N85 1.388 . S
N86 C87 1.346 . S
C87 N86 1.346 . S
C87 C88 1.396 . S
C87 C97 1.510 . S
C88 C84 1.401 . S
C88 C87 1.396 . S
C89 C84 1.499 . S
C89 H90 0.959 . S
C89 H91 0.960 . S
C89 H92 0.961 . S
H90 C89 0.959 . S
H91 C89 0.960 . S
H92 C89 0.961 . S
O93 Co68 1.967 . S
O93 C101 1.258 . S
O94 Co69 1.941 . S
O94 C101 1.266 . S
H95 C97 0.959 . S
H96 C97 0.961 . S
C97 C87 1.510 . S
C97 H95 0.959 . S
C97 H96 0.961 . S
C97 H98 0.960 . S
H98 C97 0.960 . S
H99 N79 0.862 . S
O100 Co68 1.920 . S
O100 C73 1.289 . S
C101 O93 1.258 . S
C101 O94 1.266 . S
Co102 O105 1.970 . S
Co102 N119 1.989 . S
Co102 O127 1.967 . S
Co102 O134 1.920 1_554 S
Co103 O106 1.966 . S
Co103 N112 2.022 . S
Co103 N120 1.993 . S
Co103 O128 1.941 . S
C104 O105 1.258 . S
C104 O106 1.263 . S
O105 Co102 1.970 . S
O105 C104 1.258 . S
O106 Co103 1.966 . S
O106 C104 1.263 . S
C107 O108 1.235 . S
C107 O134 1.289 . S
O108 C107 1.235 . S
C109 C111 1.400 . S
C109 N112 1.351 . S
C109 C114 1.501 . S
C110 C111 1.387 . S
C110 N113 1.341 . S
C111 C109 1.400 . S
C111 C110 1.387 . S
N112 Co103 2.022 . S
N112 C109 1.351 . S
N112 N113 1.365 . S
N113 C110 1.341 . S
N113 N112 1.365 . S
N113 H133 0.862 . S
C114 C109 1.501 . S
C114 H115 0.961 . S
C114 H116 0.961 . S
C114 H117 0.960 . S
H115 C114 0.961 . S
H116 C114 0.961 . S
H117 C114 0.960 . S
C118 N119 1.342 1_556 S
C118 C122 1.401 . S
C118 C123 1.499 . S
N119 Co102 1.989 . S
N119 C118 1.342 1_554 S
N119 N120 1.388 . S
N120 Co103 1.993 . S
N120 N119 1.388 . S
N120 C121 1.346 . S
C121 N120 1.346 . S
C121 C122 1.396 1_554 S
C121 C131 1.510 . S
C122 C118 1.401 . S
C122 C121 1.396 1_556 S
C123 C118 1.499 . S
C123 H124 0.959 . S
C123 H125 0.960 . S
C123 H126 0.961 . S
H124 C123 0.959 . S
H125 C123 0.960 . S
H126 C123 0.961 . S
O127 Co102 1.967 . S
O127 C135 1.258 . S
O128 Co103 1.941 . S
O128 C135 1.266 . S
H129 C131 0.959 . S
H130 C131 0.961 . S
C131 C121 1.510 . S
C131 H129 0.959 . S
C131 H130 0.961 . S
C131 H132 0.960 . S
H132 C131 0.960 . S
H133 N113 0.862 . S
O134 Co102 1.920 1_556 S
O134 C107 1.289 . S
C135 O127 1.258 . S
C135 O128 1.266 . S
Co136 O139 1.970 . S
Co136 N153 1.989 . S
Co136 O161 1.967 . S
Co136 O168 1.920 . S
Co137 O140 1.966 . S
Co137 N146 2.022 . S
Co137 N154 1.993 . S
Co137 O162 1.941 . S
C138 O139 1.258 . S
C138 O140 1.263 . S
O139 Co136 1.970 . S
O139 C138 1.258 . S
O140 Co137 1.966 . S
O140 C138 1.263 . S
C141 O142 1.235 . S
C141 O168 1.289 . S
O142 C141 1.235 . S
C143 C145 1.400 . S
C143 N146 1.351 1_556 S
C143 C148 1.501 . S
C144 C145 1.387 . S
C144 N147 1.341 1_556 S
C145 C143 1.400 . S
C145 C144 1.387 . S
N146 Co137 2.022 . S
N146 C143 1.351 1_554 S
N146 N147 1.365 . S
N147 C144 1.341 1_554 S
N147 N146 1.365 . S
N147 H167 0.862 . S
C148 C143 1.501 . S
C148 H149 0.961 . S
C148 H150 0.961 . S
C148 H151 0.960 . S
H149 C148 0.961 . S
H150 C148 0.961 . S
H151 C148 0.960 . S
C152 N153 1.342 . S
C152 C156 1.401 . S
C152 C157 1.499 . S
N153 Co136 1.989 . S
N153 C152 1.342 . S
N153 N154 1.388 . S
N154 Co137 1.993 . S
N154 N153 1.388 . S
N154 C155 1.346 . S
C155 N154 1.346 . S
C155 C156 1.396 . S
C155 C165 1.510 . S
C156 C152 1.401 . S
C156 C155 1.396 . S
C157 C152 1.499 . S
C157 H158 0.959 . S
C157 H159 0.960 . S
C157 H160 0.961 . S
H158 C157 0.959 . S
H159 C157 0.960 . S
H160 C157 0.961 . S
O161 Co136 1.967 . S
O161 C169 1.258 . S
O162 Co137 1.941 . S
O162 C169 1.266 . S
H163 C165 0.959 . S
H164 C165 0.961 . S
C165 C155 1.510 . S
C165 H163 0.959 . S
C165 H164 0.961 . S
C165 H166 0.960 . S
H166 C165 0.960 . S
H167 N147 0.862 . S
O168 Co136 1.920 . S
O168 C141 1.289 . S
C169 O161 1.258 . S
C169 O162 1.266 . S
Co170 O173 1.970 . S
Co170 N187 1.989 . S
Co170 O195 1.967 . S
Co170 O202 1.920 . S
Co171 O174 1.966 . S
Co171 N180 2.022 . S
Co171 N188 1.993 . S
Co171 O196 1.941 . S
C172 O173 1.258 . S
C172 O174 1.263 . S
O173 Co170 1.970 . S
O173 C172 1.258 . S
O174 Co171 1.966 . S
O174 C172 1.263 . S
C175 O176 1.235 . S
C175 O202 1.289 . S
O176 C175 1.235 . S
C177 C179 1.400 . S
C177 N180 1.351 . S
C177 C182 1.501 . S
C178 C179 1.387 . S
C178 N181 1.341 . S
C179 C177 1.400 . S
C179 C178 1.387 . S
N180 Co171 2.022 . S
N180 C177 1.351 . S
N180 N181 1.365 . S
N181 C178 1.341 . S
N181 N180 1.365 . S
N181 H201 0.862 . S
C182 C177 1.501 . S
C182 H183 0.961 . S
C182 H184 0.961 . S
C182 H185 0.960 . S
H183 C182 0.961 . S
H184 C182 0.961 . S
H185 C182 0.960 . S
C186 N187 1.342 . S
C186 C190 1.401 . S
C186 C191 1.499 . S
N187 Co170 1.989 . S
N187 C186 1.342 . S
N187 N188 1.388 . S
N188 Co171 1.993 . S
N188 N187 1.388 . S
N188 C189 1.346 . S
C189 N188 1.346 . S
C189 C190 1.396 . S
C189 C199 1.510 . S
C190 C186 1.401 . S
C190 C189 1.396 . S
C191 C186 1.499 . S
C191 H192 0.959 . S
C191 H193 0.960 . S
C191 H194 0.961 . S
H192 C191 0.959 . S
H193 C191 0.960 . S
H194 C191 0.961 . S
O195 Co170 1.967 . S
O195 C203 1.258 . S
O196 Co171 1.941 . S
O196 C203 1.266 . S
H197 C199 0.959 . S
H198 C199 0.961 . S
C199 C189 1.510 . S
C199 H197 0.959 . S
C199 H198 0.961 . S
C199 H200 0.960 . S
H200 C199 0.960 . S
H201 N181 0.862 . S
O202 Co170 1.920 . S
O202 C175 1.289 . S
C203 O195 1.258 . S
C203 O196 1.266 . S
Co204 O207 1.970 . S
Co204 N221 1.989 . S
Co204 O229 1.967 . S
Co204 O236 1.920 . S
Co205 O208 1.966 . S
Co205 N214 2.022 . S
Co205 N222 1.993 . S
Co205 O230 1.941 . S
C206 O207 1.258 . S
C206 O208 1.263 . S
O207 Co204 1.970 . S
O207 C206 1.258 . S
O208 Co205 1.966 . S
O208 C206 1.263 . S
C209 O210 1.235 . S
C209 O236 1.289 . S
O210 C209 1.235 . S
C211 C213 1.400 . S
C211 N214 1.351 . S
C211 C216 1.501 . S
C212 C213 1.387 . S
C212 N215 1.341 . S
C213 C211 1.400 . S
C213 C212 1.387 . S
N214 Co205 2.022 . S
N214 C211 1.351 . S
N214 N215 1.365 . S
N215 C212 1.341 . S
N215 N214 1.365 . S
N215 H235 0.862 . S
C216 C211 1.501 . S
C216 H217 0.961 . S
C216 H218 0.961 . S
C216 H219 0.960 . S
H217 C216 0.961 . S
H218 C216 0.961 . S
H219 C216 0.960 . S
C220 N221 1.342 . S
C220 C224 1.401 . S
C220 C225 1.499 . S
N221 Co204 1.989 . S
N221 C220 1.342 . S
N221 N222 1.388 . S
N222 Co205 1.993 . S
N222 N221 1.388 . S
N222 C223 1.346 . S
C223 N222 1.346 . S
C223 C224 1.396 . S
C223 C233 1.510 . S
C224 C220 1.401 . S
C224 C223 1.396 . S
C225 C220 1.499 . S
C225 H226 0.959 . S
C225 H227 0.960 . S
C225 H228 0.961 . S
H226 C225 0.959 . S
H227 C225 0.960 . S
H228 C225 0.961 . S
O229 Co204 1.967 . S
O229 C237 1.258 . S
O230 Co205 1.941 . S
O230 C237 1.266 . S
H231 C233 0.959 . S
H232 C233 0.961 . S
C233 C223 1.510 . S
C233 H231 0.959 . S
C233 H232 0.961 . S
C233 H234 0.960 . S
H234 C233 0.960 . S
H235 N215 0.862 . S
O236 Co204 1.920 . S
O236 C209 1.289 . S
C237 O229 1.258 . S
C237 O230 1.266 . S
Co238 O241 1.970 . S
Co238 N255 1.989 . S
Co238 O263 1.967 . S
Co238 O270 1.920 1_556 S
Co239 O242 1.966 . S
Co239 N248 2.022 . S
Co239 N256 1.993 . S
Co239 O264 1.941 . S
C240 O241 1.258 . S
C240 O242 1.263 . S
O241 Co238 1.970 . S
O241 C240 1.258 . S
O242 Co239 1.966 . S
O242 C240 1.263 . S
C243 O244 1.235 . S
C243 O270 1.289 . S
O244 C243 1.235 . S
C245 C247 1.400 . S
C245 N248 1.351 . S
C245 C250 1.501 . S
C246 C247 1.387 . S
C246 N249 1.341 . S
C247 C245 1.400 . S
C247 C246 1.387 . S
N248 Co239 2.022 . S
N248 C245 1.351 . S
N248 N249 1.365 . S
N249 C246 1.341 . S
N249 N248 1.365 . S
N249 H269 0.862 . S
C250 C245 1.501 . S
C250 H251 0.961 . S
C250 H252 0.961 . S
C250 H253 0.960 . S
H251 C250 0.961 . S
H252 C250 0.961 . S
H253 C250 0.960 . S
C254 N255 1.342 1_554 S
C254 C258 1.401 . S
C254 C259 1.499 . S
N255 Co238 1.989 . S
N255 C254 1.342 1_556 S
N255 N256 1.388 . S
N256 Co239 1.993 . S
N256 N255 1.388 . S
N256 C257 1.346 . S
C257 N256 1.346 . S
C257 C258 1.396 1_556 S
C257 C267 1.510 . S
C258 C254 1.401 . S
C258 C257 1.396 1_554 S
C259 C254 1.499 . S
C259 H260 0.959 . S
C259 H261 0.960 . S
C259 H262 0.961 . S
H260 C259 0.959 . S
H261 C259 0.960 . S
H262 C259 0.961 . S
O263 Co238 1.967 . S
O263 C271 1.258 . S
O264 Co239 1.941 . S
O264 C271 1.266 . S
H265 C267 0.959 . S
H266 C267 0.961 . S
C267 C257 1.510 . S
C267 H265 0.959 . S
C267 H266 0.961 . S
C267 H268 0.960 . S
H268 C267 0.960 . S
H269 N249 0.862 . S
O270 Co238 1.920 1_554 S
O270 C243 1.289 . S
C271 O263 1.258 . S
C271 O264 1.266 . S
Co272 O275 1.970 . S
Co272 N289 1.989 . S
Co272 O297 1.967 . S
Co272 O304 1.920 . S
Co273 O276 1.966 . S
Co273 N282 2.022 . S
Co273 N290 1.993 . S
Co273 O298 1.941 . S
C274 O275 1.258 . S
C274 O276 1.263 . S
O275 Co272 1.970 . S
O275 C274 1.258 . S
O276 Co273 1.966 . S
O276 C274 1.263 . S
C277 O278 1.235 . S
C277 O304 1.289 . S
O278 C277 1.235 . S
C279 C281 1.400 . S
C279 N282 1.351 . S
C279 C284 1.501 . S
C280 C281 1.387 . S
C280 N283 1.341 . S
C281 C279 1.400 . S
C281 C280 1.387 . S
N282 Co273 2.022 . S
N282 C279 1.351 . S
N282 N283 1.365 . S
N283 C280 1.341 . S
N283 N282 1.365 . S
N283 H303 0.862 . S
C284 C279 1.501 . S
C284 H285 0.961 . S
C284 H286 0.961 . S
C284 H287 0.960 . S
H285 C284 0.961 . S
H286 C284 0.961 . S
H287 C284 0.960 . S
C288 N289 1.342 . S
C288 C292 1.401 . S
C288 C293 1.499 . S
N289 Co272 1.989 . S
N289 C288 1.342 . S
N289 N290 1.388 . S
N290 Co273 1.993 . S
N290 N289 1.388 . S
N290 C291 1.346 . S
C291 N290 1.346 . S
C291 C292 1.396 . S
C291 C301 1.510 . S
C292 C288 1.401 . S
C292 C291 1.396 . S
C293 C288 1.499 . S
C293 H294 0.959 . S
C293 H295 0.960 . S
C293 H296 0.961 . S
H294 C293 0.959 . S
H295 C293 0.960 . S
H296 C293 0.961 . S
O297 Co272 1.967 . S
O297 C305 1.258 . S
O298 Co273 1.941 . S
O298 C305 1.266 . S
H299 C301 0.959 . S
H300 C301 0.961 . S
C301 C291 1.510 . S
C301 H299 0.959 . S
C301 H300 0.961 . S
C301 H302 0.960 . S
H302 C301 0.960 . S
H303 N283 0.862 . S
O304 Co272 1.920 . S
O304 C277 1.289 . S
C305 O297 1.258 . S
C305 O298 1.266 . S
Co306 O309 1.970 . S
Co306 N323 1.989 . S
Co306 O331 1.967 . S
Co306 O338 1.920 . S
Co307 O310 1.966 . S
Co307 N316 2.022 . S
Co307 N324 1.993 . S
Co307 O332 1.941 . S
C308 O309 1.258 . S
C308 O310 1.263 . S
O309 Co306 1.970 . S
O309 C308 1.258 . S
O310 Co307 1.966 . S
O310 C308 1.263 . S
C311 O312 1.235 . S
C311 O338 1.289 . S
O312 C311 1.235 . S
C313 C315 1.400 . S
C313 N316 1.351 . S
C313 C318 1.501 . S
C314 C315 1.387 . S
C314 N317 1.341 . S
C315 C313 1.400 . S
C315 C314 1.387 . S
N316 Co307 2.022 . S
N316 C313 1.351 . S
N316 N317 1.365 . S
N317 C314 1.341 . S
N317 N316 1.365 . S
N317 H337 0.862 . S
C318 C313 1.501 . S
C318 H319 0.961 . S
C318 H320 0.961 . S
C318 H321 0.960 . S
H319 C318 0.961 . S
H320 C318 0.961 . S
H321 C318 0.960 . S
C322 N323 1.342 . S
C322 C326 1.401 . S
C322 C327 1.499 . S
N323 Co306 1.989 . S
N323 C322 1.342 . S
N323 N324 1.388 . S
N324 Co307 1.993 . S
N324 N323 1.388 . S
N324 C325 1.346 . S
C325 N324 1.346 . S
C325 C326 1.396 . S
C325 C335 1.510 . S
C326 C322 1.401 . S
C326 C325 1.396 . S
C327 C322 1.499 . S
C327 H328 0.959 . S
C327 H329 0.960 . S
C327 H330 0.961 . S
H328 C327 0.959 . S
H329 C327 0.960 . S
H330 C327 0.961 . S
O331 Co306 1.967 . S
O331 C339 1.258 . S
O332 Co307 1.941 . S
O332 C339 1.266 . S
H333 C335 0.959 . S
H334 C335 0.961 . S
C335 C325 1.510 . S
C335 H333 0.959 . S
C335 H334 0.961 . S
C335 H336 0.960 . S
H336 C335 0.960 . S
H337 N317 0.862 . S
O338 Co306 1.920 . S
O338 C311 1.289 . S
C339 O331 1.258 . S
C339 O332 1.266 . S
Co340 O343 1.970 . S
Co340 N357 1.989 . S
Co340 O365 1.967 . S
Co340 O372 1.920 . S
Co341 O344 1.966 . S
Co341 N350 2.022 . S
Co341 N358 1.993 . S
Co341 O366 1.941 . S
C342 O343 1.258 . S
C342 O344 1.263 . S
O343 Co340 1.970 . S
O343 C342 1.258 . S
O344 Co341 1.966 . S
O344 C342 1.263 . S
C345 O346 1.235 . S
C345 O372 1.289 . S
O346 C345 1.235 . S
C347 C349 1.400 . S
C347 N350 1.351 1_556 S
C347 C352 1.501 . S
C348 C349 1.387 . S
C348 N351 1.341 1_556 S
C349 C347 1.400 . S
C349 C348 1.387 . S
N350 Co341 2.022 . S
N350 C347 1.351 1_554 S
N350 N351 1.365 . S
N351 C348 1.341 1_554 S
N351 N350 1.365 . S
N351 H371 0.862 . S
C352 C347 1.501 . S
C352 H353 0.961 . S
C352 H354 0.961 . S
C352 H355 0.960 . S
H353 C352 0.961 . S
H354 C352 0.961 . S
H355 C352 0.960 . S
C356 N357 1.342 . S
C356 C360 1.401 . S
C356 C361 1.499 . S
N357 Co340 1.989 . S
N357 C356 1.342 . S
N357 N358 1.388 . S
N358 Co341 1.993 . S
N358 N357 1.388 . S
N358 C359 1.346 . S
C359 N358 1.346 . S
C359 C360 1.396 . S
C359 C369 1.510 . S
C360 C356 1.401 . S
C360 C359 1.396 . S
C361 C356 1.499 . S
C361 H362 0.959 . S
C361 H363 0.960 . S
C361 H364 0.961 . S
H362 C361 0.959 . S
H363 C361 0.960 . S
H364 C361 0.961 . S
O365 Co340 1.967 . S
O365 C373 1.258 . S
O366 Co341 1.941 . S
O366 C373 1.266 . S
H367 C369 0.959 . S
H368 C369 0.961 . S
C369 C359 1.510 . S
C369 H367 0.959 . S
C369 H368 0.961 . S
C369 H370 0.960 . S
H370 C369 0.960 . S
H371 N351 0.862 . S
O372 Co340 1.920 . S
O372 C345 1.289 . S
C373 O365 1.258 . S
C373 O366 1.266 . S
Co374 O377 1.970 . S
Co374 N391 1.989 . S
Co374 O399 1.967 . S
Co374 O406 1.920 1_556 S
Co375 O378 1.966 . S
Co375 N384 2.022 . S
Co375 N392 1.993 . S
Co375 O400 1.941 . S
C376 O377 1.258 . S
C376 O378 1.263 . S
O377 Co374 1.970 . S
O377 C376 1.258 . S
O378 Co375 1.966 . S
O378 C376 1.263 . S
C379 O380 1.235 . S
C379 O406 1.289 . S
O380 C379 1.235 . S
C381 C383 1.400 . S
C381 N384 1.351 . S
C381 C386 1.501 . S
C382 C383 1.387 . S
C382 N385 1.341 . S
C383 C381 1.400 . S
C383 C382 1.387 . S
N384 Co375 2.022 . S
N384 C381 1.351 . S
N384 N385 1.365 . S
N385 C382 1.341 . S
N385 N384 1.365 . S
N385 H405 0.862 . S
C386 C381 1.501 . S
C386 H387 0.961 . S
C386 H388 0.961 . S
C386 H389 0.960 . S
H387 C386 0.961 . S
H388 C386 0.961 . S
H389 C386 0.960 . S
C390 N391 1.342 1_554 S
C390 C394 1.401 . S
C390 C395 1.499 . S
N391 Co374 1.989 . S
N391 C390 1.342 1_556 S
N391 N392 1.388 . S
N392 Co375 1.993 . S
N392 N391 1.388 . S
N392 C393 1.346 . S
C393 N392 1.346 . S
C393 C394 1.396 1_556 S
C393 C403 1.510 . S
C394 C390 1.401 . S
C394 C393 1.396 1_554 S
C395 C390 1.499 . S
C395 H396 0.959 . S
C395 H397 0.960 . S
C395 H398 0.961 . S
H396 C395 0.959 . S
H397 C395 0.960 . S
H398 C395 0.961 . S
O399 Co374 1.967 . S
O399 C407 1.258 . S
O400 Co375 1.941 . S
O400 C407 1.266 . S
H401 C403 0.959 . S
H402 C403 0.961 . S
C403 C393 1.510 . S
C403 H401 0.959 . S
C403 H402 0.961 . S
C403 H404 0.960 . S
H404 C403 0.960 . S
H405 N385 0.862 . S
O406 Co374 1.920 1_554 S
O406 C379 1.289 . S
C407 O399 1.258 . S
C407 O400 1.266 . S
Co408 O411 1.970 . S
Co408 N425 1.989 . S
Co408 O433 1.967 . S
Co408 O440 1.920 . S
Co409 O412 1.966 . S
Co409 N418 2.022 . S
Co409 N426 1.993 . S
Co409 O434 1.941 . S
C410 O411 1.258 . S
C410 O412 1.263 . S
O411 Co408 1.970 . S
O411 C410 1.258 . S
O412 Co409 1.966 . S
O412 C410 1.263 . S
C413 O414 1.235 . S
C413 O440 1.289 . S
O414 C413 1.235 . S
C415 C417 1.400 . S
C415 N418 1.351 1_554 S
C415 C420 1.501 . S
C416 C417 1.387 . S
C416 N419 1.341 1_554 S
C417 C415 1.400 . S
C417 C416 1.387 . S
N418 Co409 2.022 . S
N418 C415 1.351 1_556 S
N418 N419 1.365 . S
N419 C416 1.341 1_556 S
N419 N418 1.365 . S
N419 H439 0.862 . S
C420 C415 1.501 . S
C420 H421 0.961 . S
C420 H422 0.961 . S
C420 H423 0.960 . S
H421 C420 0.961 . S
H422 C420 0.961 . S
H423 C420 0.960 . S
C424 N425 1.342 . S
C424 C428 1.401 . S
C424 C429 1.499 . S
N425 Co408 1.989 . S
N425 C424 1.342 . S
N425 N426 1.388 . S
N426 Co409 1.993 . S
N426 N425 1.388 . S
N426 C427 1.346 . S
C427 N426 1.346 . S
C427 C428 1.396 . S
C427 C437 1.510 . S
C428 C424 1.401 . S
C428 C427 1.396 . S
C429 C424 1.499 . S
C429 H430 0.959 . S
C429 H431 0.960 . S
C429 H432 0.961 . S
H430 C429 0.959 . S
H431 C429 0.960 . S
H432 C429 0.961 . S
O433 Co408 1.967 . S
O433 C441 1.258 . S
O434 Co409 1.941 . S
O434 C441 1.266 . S
H435 C437 0.959 . S
H436 C437 0.961 . S
C437 C427 1.510 . S
C437 H435 0.959 . S
C437 H436 0.961 . S
C437 H438 0.960 . S
H438 C437 0.960 . S
H439 N419 0.862 . S
O440 Co408 1.920 . S
O440 C413 1.289 . S
C441 O433 1.258 . S
C441 O434 1.266 . S
Co442 O445 1.970 . S
Co442 N459 1.989 . S
Co442 O467 1.967 . S
Co442 O474 1.920 . S
Co443 O446 1.966 . S
Co443 N452 2.022 . S
Co443 N460 1.993 . S
Co443 O468 1.941 . S
C444 O445 1.258 . S
C444 O446 1.263 . S
O445 Co442 1.970 . S
O445 C444 1.258 . S
O446 Co443 1.966 . S
O446 C444 1.263 . S
C447 O448 1.235 . S
C447 O474 1.289 . S
O448 C447 1.235 . S
C449 C451 1.400 . S
C449 N452 1.351 . S
C449 C454 1.501 . S
C450 C451 1.387 . S
C450 N453 1.341 . S
C451 C449 1.400 . S
C451 C450 1.387 . S
N452 Co443 2.022 . S
N452 C449 1.351 . S
N452 N453 1.365 . S
N453 C450 1.341 . S
N453 N452 1.365 . S
N453 H473 0.862 . S
C454 C449 1.501 . S
C454 H455 0.961 . S
C454 H456 0.961 . S
C454 H457 0.960 . S
H455 C454 0.961 . S
H456 C454 0.961 . S
H457 C454 0.960 . S
C458 N459 1.342 . S
C458 C462 1.401 . S
C458 C463 1.499 . S
N459 Co442 1.989 . S
N459 C458 1.342 . S
N459 N460 1.388 . S
N460 Co443 1.993 . S
N460 N459 1.388 . S
N460 C461 1.346 . S
C461 N460 1.346 . S
C461 C462 1.396 . S
C461 C471 1.510 . S
C462 C458 1.401 . S
C462 C461 1.396 . S
C463 C458 1.499 . S
C463 H464 0.959 . S
C463 H465 0.960 . S
C463 H466 0.961 . S
H464 C463 0.959 . S
H465 C463 0.960 . S
H466 C463 0.961 . S
O467 Co442 1.967 . S
O467 C475 1.258 . S
O468 Co443 1.941 . S
O468 C475 1.266 . S
H469 C471 0.959 . S
H470 C471 0.961 . S
C471 C461 1.510 . S
C471 H469 0.959 . S
C471 H470 0.961 . S
C471 H472 0.960 . S
H472 C471 0.960 . S
H473 N453 0.862 . S
O474 Co442 1.920 . S
O474 C447 1.289 . S
C475 O467 1.258 . S
C475 O468 1.266 . S
Co476 O479 1.970 . S
Co476 N493 1.989 . S
Co476 O501 1.967 . S
Co476 O508 1.920 . S
Co477 O480 1.966 . S
Co477 N486 2.022 . S
Co477 N494 1.993 . S
Co477 O502 1.941 . S
C478 O479 1.258 . S
C478 O480 1.263 . S
O479 Co476 1.970 . S
O479 C478 1.258 . S
O480 Co477 1.966 . S
O480 C478 1.263 . S
C481 O482 1.235 . S
C481 O508 1.289 . S
O482 C481 1.235 . S
C483 C485 1.400 . S
C483 N486 1.351 . S
C483 C488 1.501 . S
C484 C485 1.387 . S
C484 N487 1.341 . S
C485 C483 1.400 . S
C485 C484 1.387 . S
N486 Co477 2.022 . S
N486 C483 1.351 . S
N486 N487 1.365 . S
N487 C484 1.341 . S
N487 N486 1.365 . S
N487 H507 0.862 . S
C488 C483 1.501 . S
C488 H489 0.961 . S
C488 H490 0.961 . S
C488 H491 0.960 . S
H489 C488 0.961 . S
H490 C488 0.961 . S
H491 C488 0.960 . S
C492 N493 1.342 . S
C492 C496 1.401 . S
C492 C497 1.499 . S
N493 Co476 1.989 . S
N493 C492 1.342 . S
N493 N494 1.388 . S
N494 Co477 1.993 . S
N494 N493 1.388 . S
N494 C495 1.346 . S
C495 N494 1.346 . S
C495 C496 1.396 . S
C495 C505 1.510 . S
C496 C492 1.401 . S
C496 C495 1.396 . S
C497 C492 1.499 . S
C497 H498 0.959 . S
C497 H499 0.960 . S
C497 H500 0.961 . S
H498 C497 0.959 . S
H499 C497 0.960 . S
H500 C497 0.961 . S
O501 Co476 1.967 . S
O501 C509 1.258 . S
O502 Co477 1.941 . S
O502 C509 1.266 . S
H503 C505 0.959 . S
H504 C505 0.961 . S
C505 C495 1.510 . S
C505 H503 0.959 . S
C505 H504 0.961 . S
C505 H506 0.960 . S
H506 C505 0.960 . S
H507 N487 0.862 . S
O508 Co476 1.920 . S
O508 C481 1.289 . S
C509 O501 1.258 . S
C509 O502 1.266 . S
Co510 O513 1.970 . S
Co510 N527 1.989 . S
Co510 O535 1.967 . S
Co510 O542 1.920 1_554 S
Co511 O514 1.966 . S
Co511 N520 2.022 . S
Co511 N528 1.993 . S
Co511 O536 1.941 . S
C512 O513 1.258 . S
C512 O514 1.263 . S
O513 Co510 1.970 . S
O513 C512 1.258 . S
O514 Co511 1.966 . S
O514 C512 1.263 . S
C515 O516 1.235 . S
C515 O542 1.289 . S
O516 C515 1.235 . S
C517 C519 1.400 . S
C517 N520 1.351 . S
C517 C522 1.501 . S
C518 C519 1.387 . S
C518 N521 1.341 . S
C519 C517 1.400 . S
C519 C518 1.387 . S
N520 Co511 2.022 . S
N520 C517 1.351 . S
N520 N521 1.365 . S
N521 C518 1.341 . S
N521 N520 1.365 . S
N521 H541 0.862 . S
C522 C517 1.501 . S
C522 H523 0.961 . S
C522 H524 0.961 . S
C522 H525 0.960 . S
H523 C522 0.961 . S
H524 C522 0.961 . S
H525 C522 0.960 . S
C526 N527 1.342 1_556 S
C526 C530 1.401 . S
C526 C531 1.499 . S
N527 Co510 1.989 . S
N527 C526 1.342 1_554 S
N527 N528 1.388 . S
N528 Co511 1.993 . S
N528 N527 1.388 . S
N528 C529 1.346 . S
C529 N528 1.346 . S
C529 C530 1.396 1_554 S
C529 C539 1.510 . S
C530 C526 1.401 . S
C530 C529 1.396 1_556 S
C531 C526 1.499 . S
C531 H532 0.959 . S
C531 H533 0.960 . S
C531 H534 0.961 . S
H532 C531 0.959 . S
H533 C531 0.960 . S
H534 C531 0.961 . S
O535 Co510 1.967 . S
O535 C543 1.258 . S
O536 Co511 1.941 . S
O536 C543 1.266 . S
H537 C539 0.959 . S
H538 C539 0.961 . S
C539 C529 1.510 . S
C539 H537 0.959 . S
C539 H538 0.961 . S
C539 H540 0.960 . S
H540 C539 0.960 . S
H541 N521 0.862 . S
O542 Co510 1.920 1_556 S
O542 C515 1.289 . S
C543 O535 1.258 . S
C543 O536 1.266 . S
Co544 O547 1.970 . S
Co544 N561 1.989 . S
Co544 O569 1.967 . S
Co544 O576 1.920 . S
Co545 O548 1.966 . S
Co545 N554 2.022 . S
Co545 N562 1.993 . S
Co545 O570 1.941 . S
C546 O547 1.258 . S
C546 O548 1.263 . S
O547 Co544 1.970 . S
O547 C546 1.258 . S
O548 Co545 1.966 . S
O548 C546 1.263 . S
C549 O550 1.235 . S
C549 O576 1.289 . S
O550 C549 1.235 . S
C551 C553 1.400 . S
C551 N554 1.351 1_554 S
C551 C556 1.501 . S
C552 C553 1.387 . S
C552 N555 1.341 1_554 S
C553 C551 1.400 . S
C553 C552 1.387 . S
N554 Co545 2.022 . S
N554 C551 1.351 1_556 S
N554 N555 1.365 . S
N555 C552 1.341 1_556 S
N555 N554 1.365 . S
N555 H575 0.862 . S
C556 C551 1.501 . S
C556 H557 0.961 . S
C556 H558 0.961 . S
C556 H559 0.960 . S
H557 C556 0.961 . S
H558 C556 0.961 . S
H559 C556 0.960 . S
C560 N561 1.342 . S
C560 C564 1.401 . S
C560 C565 1.499 . S
N561 Co544 1.989 . S
N561 C560 1.342 . S
N561 N562 1.388 . S
N562 Co545 1.993 . S
N562 N561 1.388 . S
N562 C563 1.346 . S
C563 N562 1.346 . S
C563 C564 1.396 . S
C563 C573 1.510 . S
C564 C560 1.401 . S
C564 C563 1.396 . S
C565 C560 1.499 . S
C565 H566 0.959 . S
C565 H567 0.960 . S
C565 H568 0.961 . S
H566 C565 0.959 . S
H567 C565 0.960 . S
H568 C565 0.961 . S
O569 Co544 1.967 . S
O569 C577 1.258 . S
O570 Co545 1.941 . S
O570 C577 1.266 . S
H571 C573 0.959 . S
H572 C573 0.961 . S
C573 C563 1.510 . S
C573 H571 0.959 . S
C573 H572 0.961 . S
C573 H574 0.960 . S
H574 C573 0.960 . S
H575 N555 0.862 . S
O576 Co544 1.920 . S
O576 C549 1.289 . S
C577 O569 1.258 . S
C577 O570 1.266 . S
Co578 O581 1.970 . S
Co578 N595 1.989 . S
Co578 O603 1.967 . S
Co578 O610 1.920 1_554 S
Co579 O582 1.966 . S
Co579 N588 2.022 . S
Co579 N596 1.993 . S
Co579 O604 1.941 . S
C580 O581 1.258 . S
C580 O582 1.263 . S
O581 Co578 1.970 . S
O581 C580 1.258 . S
O582 Co579 1.966 . S
O582 C580 1.263 . S
C583 O584 1.235 . S
C583 O610 1.289 . S
O584 C583 1.235 . S
C585 C587 1.400 . S
C585 N588 1.351 . S
C585 C590 1.501 . S
C586 C587 1.387 . S
C586 N589 1.341 . S
C587 C585 1.400 . S
C587 C586 1.387 . S
N588 Co579 2.022 . S
N588 C585 1.351 . S
N588 N589 1.365 . S
N589 C586 1.341 . S
N589 N588 1.365 . S
N589 H609 0.862 . S
C590 C585 1.501 . S
C590 H591 0.961 . S
C590 H592 0.961 . S
C590 H593 0.960 . S
H591 C590 0.961 . S
H592 C590 0.961 . S
H593 C590 0.960 . S
C594 N595 1.342 1_556 S
C594 C598 1.401 . S
C594 C599 1.499 . S
N595 Co578 1.989 . S
N595 C594 1.342 1_554 S
N595 N596 1.388 . S
N596 Co579 1.993 . S
N596 N595 1.388 . S
N596 C597 1.346 . S
C597 N596 1.346 . S
C597 C598 1.396 1_554 S
C597 C607 1.510 . S
C598 C594 1.401 . S
C598 C597 1.396 1_556 S
C599 C594 1.499 . S
C599 H600 0.959 . S
C599 H601 0.960 . S
C599 H602 0.961 . S
H600 C599 0.959 . S
H601 C599 0.960 . S
H602 C599 0.961 . S
O603 Co578 1.967 . S
O603 C611 1.258 . S
O604 Co579 1.941 . S
O604 C611 1.266 . S
H605 C607 0.959 . S
H606 C607 0.961 . S
C607 C597 1.510 . S
C607 H605 0.959 . S
C607 H606 0.961 . S
C607 H608 0.960 . S
H608 C607 0.960 . S
H609 N589 0.862 . S
O610 Co578 1.920 1_556 S
O610 C583 1.289 . S
C611 O603 1.258 . S
C611 O604 1.266 . S
Co612 O615 1.970 . S
Co612 N629 1.989 . S
Co612 O637 1.967 . S
Co612 O644 1.920 . S
Co613 O616 1.966 . S
Co613 N622 2.022 . S
Co613 N630 1.993 . S
Co613 O638 1.941 . S
C614 O615 1.258 . S
C614 O616 1.263 . S
O615 Co612 1.970 . S
O615 C614 1.258 . S
O616 Co613 1.966 . S
O616 C614 1.263 . S
C617 O618 1.235 . S
C617 O644 1.289 . S
O618 C617 1.235 . S
C619 C621 1.400 . S
C619 N622 1.351 . S
C619 C624 1.501 . S
C620 C621 1.387 . S
C620 N623 1.341 . S
C621 C619 1.400 . S
C621 C620 1.387 . S
N622 Co613 2.022 . S
N622 C619 1.351 . S
N622 N623 1.365 . S
N623 C620 1.341 . S
N623 N622 1.365 . S
N623 H643 0.862 . S
C624 C619 1.501 . S
C624 H625 0.961 . S
C624 H626 0.961 . S
C624 H627 0.960 . S
H625 C624 0.961 . S
H626 C624 0.961 . S
H627 C624 0.960 . S
C628 N629 1.342 . S
C628 C632 1.401 . S
C628 C633 1.499 . S
N629 Co612 1.989 . S
N629 C628 1.342 . S
N629 N630 1.388 . S
N630 Co613 1.993 . S
N630 N629 1.388 . S
N630 C631 1.346 . S
C631 N630 1.346 . S
C631 C632 1.396 . S
C631 C641 1.510 . S
C632 C628 1.401 . S
C632 C631 1.396 . S
C633 C628 1.499 . S
C633 H634 0.959 . S
C633 H635 0.960 . S
C633 H636 0.961 . S
H634 C633 0.959 . S
H635 C633 0.960 . S
H636 C633 0.961 . S
O637 Co612 1.967 . S
O637 C645 1.258 . S
O638 Co613 1.941 . S
O638 C645 1.266 . S
H639 C641 0.959 . S
H640 C641 0.961 . S
C641 C631 1.510 . S
C641 H639 0.959 . S
C641 H640 0.961 . S
C641 H642 0.960 . S
H642 C641 0.960 . S
H643 N623 0.862 . S
O644 Co612 1.920 . S
O644 C617 1.289 . S
C645 O637 1.258 . S
C645 O638 1.266 . S
Co646 O649 1.970 . S
Co646 N663 1.989 . S
Co646 O671 1.967 . S
Co646 O678 1.920 . S
Co647 O650 1.966 . S
Co647 N656 2.022 . S
Co647 N664 1.993 . S
Co647 O672 1.941 . S
C648 O649 1.258 . S
C648 O650 1.263 . S
O649 Co646 1.970 . S
O649 C648 1.258 . S
O650 Co647 1.966 . S
O650 C648 1.263 . S
C651 O652 1.235 . S
C651 O678 1.289 . S
O652 C651 1.235 . S
C653 C655 1.400 . S
C653 N656 1.351 . S
C653 C658 1.501 . S
C654 C655 1.387 . S
C654 N657 1.341 . S
C655 C653 1.400 . S
C655 C654 1.387 . S
N656 Co647 2.022 . S
N656 C653 1.351 . S
N656 N657 1.365 . S
N657 C654 1.341 . S
N657 N656 1.365 . S
N657 H677 0.862 . S
C658 C653 1.501 . S
C658 H659 0.961 . S
C658 H660 0.961 . S
C658 H661 0.960 . S
H659 C658 0.961 . S
H660 C658 0.961 . S
H661 C658 0.960 . S
C662 N663 1.342 . S
C662 C666 1.401 . S
C662 C667 1.499 . S
N663 Co646 1.989 . S
N663 C662 1.342 . S
N663 N664 1.388 . S
N664 Co647 1.993 . S
N664 N663 1.388 . S
N664 C665 1.346 . S
C665 N664 1.346 . S
C665 C666 1.396 . S
C665 C675 1.510 . S
C666 C662 1.401 . S
C666 C665 1.396 . S
C667 C662 1.499 . S
C667 H668 0.959 . S
C667 H669 0.960 . S
C667 H670 0.961 . S
H668 C667 0.959 . S
H669 C667 0.960 . S
H670 C667 0.961 . S
O671 Co646 1.967 . S
O671 C679 1.258 . S
O672 Co647 1.941 . S
O672 C679 1.266 . S
H673 C675 0.959 . S
H674 C675 0.961 . S
C675 C665 1.510 . S
C675 H673 0.959 . S
C675 H674 0.961 . S
C675 H676 0.960 . S
H676 C675 0.960 . S
H677 N657 0.862 . S
O678 Co646 1.920 . S
O678 C651 1.289 . S
C679 O671 1.258 . S
C679 O672 1.266 . S
Co680 O683 1.970 . S
Co680 N697 1.989 . S
Co680 O705 1.967 . S
Co680 O712 1.920 . S
Co681 O684 1.966 . S
Co681 N690 2.022 . S
Co681 N698 1.993 . S
Co681 O706 1.941 . S
C682 O683 1.258 . S
C682 O684 1.263 . S
O683 Co680 1.970 . S
O683 C682 1.258 . S
O684 Co681 1.966 . S
O684 C682 1.263 . S
C685 O686 1.235 . S
C685 O712 1.289 . S
O686 C685 1.235 . S
C687 C689 1.400 . S
C687 N690 1.351 . S
C687 C692 1.501 . S
C688 C689 1.387 . S
C688 N691 1.341 . S
C689 C687 1.400 . S
C689 C688 1.387 . S
N690 Co681 2.022 . S
N690 C687 1.351 . S
N690 N691 1.365 . S
N691 C688 1.341 . S
N691 N690 1.365 . S
N691 H711 0.862 . S
C692 C687 1.501 . S
C692 H693 0.961 . S
C692 H694 0.961 . S
C692 H695 0.960 . S
H693 C692 0.961 . S
H694 C692 0.961 . S
H695 C692 0.960 . S
C696 N697 1.342 . S
C696 C700 1.401 . S
C696 C701 1.499 . S
N697 Co680 1.989 . S
N697 C696 1.342 . S
N697 N698 1.388 . S
N698 Co681 1.993 . S
N698 N697 1.388 . S
N698 C699 1.346 . S
C699 N698 1.346 . S
C699 C700 1.396 . S
C699 C709 1.510 . S
C700 C696 1.401 . S
C700 C699 1.396 . S
C701 C696 1.499 . S
C701 H702 0.959 . S
C701 H703 0.960 . S
C701 H704 0.961 . S
H702 C701 0.959 . S
H703 C701 0.960 . S
H704 C701 0.961 . S
O705 Co680 1.967 . S
O705 C713 1.258 . S
O706 Co681 1.941 . S
O706 C713 1.266 . S
H707 C709 0.959 . S
H708 C709 0.961 . S
C709 C699 1.510 . S
C709 H707 0.959 . S
C709 H708 0.961 . S
C709 H710 0.960 . S
H710 C709 0.960 . S
H711 N691 0.862 . S
O712 Co680 1.920 . S
O712 C685 1.289 . S
C713 O705 1.258 . S
C713 O706 1.266 . S
Co714 O717 1.970 . S
Co714 N731 1.989 . S
Co714 O739 1.967 . S
Co714 O746 1.920 1_556 S
Co715 O718 1.966 . S
Co715 N724 2.022 . S
Co715 N732 1.993 . S
Co715 O740 1.941 . S
C716 O717 1.258 . S
C716 O718 1.263 . S
O717 Co714 1.970 . S
O717 C716 1.258 . S
O718 Co715 1.966 . S
O718 C716 1.263 . S
C719 O720 1.235 . S
C719 O746 1.289 . S
O720 C719 1.235 . S
C721 C723 1.400 . S
C721 N724 1.351 . S
C721 C726 1.501 . S
C722 C723 1.387 . S
C722 N725 1.341 . S
C723 C721 1.400 . S
C723 C722 1.387 . S
N724 Co715 2.022 . S
N724 C721 1.351 . S
N724 N725 1.365 . S
N725 C722 1.341 . S
N725 N724 1.365 . S
N725 H745 0.862 . S
C726 C721 1.501 . S
C726 H727 0.961 . S
C726 H728 0.961 . S
C726 H729 0.960 . S
H727 C726 0.961 . S
H728 C726 0.961 . S
H729 C726 0.960 . S
C730 N731 1.342 1_554 S
C730 C734 1.401 . S
C730 C735 1.499 . S
N731 Co714 1.989 . S
N731 C730 1.342 1_556 S
N731 N732 1.388 . S
N732 Co715 1.993 . S
N732 N731 1.388 . S
N732 C733 1.346 . S
C733 N732 1.346 . S
C733 C734 1.396 1_556 S
C733 C743 1.510 . S
C734 C730 1.401 . S
C734 C733 1.396 1_554 S
C735 C730 1.499 . S
C735 H736 0.959 . S
C735 H737 0.960 . S
C735 H738 0.961 . S
H736 C735 0.959 . S
H737 C735 0.960 . S
H738 C735 0.961 . S
O739 Co714 1.967 . S
O739 C747 1.258 . S
O740 Co715 1.941 . S
O740 C747 1.266 . S
H741 C743 0.959 . S
H742 C743 0.961 . S
C743 C733 1.510 . S
C743 H741 0.959 . S
C743 H742 0.961 . S
C743 H744 0.960 . S
H744 C743 0.960 . S
H745 N725 0.862 . S
O746 Co714 1.920 1_554 S
O746 C719 1.289 . S
C747 O739 1.258 . S
C747 O740 1.266 . S
Co748 O751 1.970 . S
Co748 N765 1.989 . S
Co748 O773 1.967 . S
Co748 O780 1.920 . S
Co749 O752 1.966 . S
Co749 N758 2.022 . S
Co749 N766 1.993 . S
Co749 O774 1.941 . S
C750 O751 1.258 . S
C750 O752 1.263 . S
O751 Co748 1.970 . S
O751 C750 1.258 . S
O752 Co749 1.966 . S
O752 C750 1.263 . S
C753 O754 1.235 . S
C753 O780 1.289 . S
O754 C753 1.235 . S
C755 C757 1.400 . S
C755 N758 1.351 1_556 S
C755 C760 1.501 . S
C756 C757 1.387 . S
C756 N759 1.341 1_556 S
C757 C755 1.400 . S
C757 C756 1.387 . S
N758 Co749 2.022 . S
N758 C755 1.351 1_554 S
N758 N759 1.365 . S
N759 C756 1.341 1_554 S
N759 N758 1.365 . S
N759 H779 0.862 . S
C760 C755 1.501 . S
C760 H761 0.961 . S
C760 H762 0.961 . S
C760 H763 0.960 . S
H761 C760 0.961 . S
H762 C760 0.961 . S
H763 C760 0.960 . S
C764 N765 1.342 . S
C764 C768 1.401 . S
C764 C769 1.499 . S
N765 Co748 1.989 . S
N765 C764 1.342 . S
N765 N766 1.388 . S
N766 Co749 1.993 . S
N766 N765 1.388 . S
N766 C767 1.346 . S
C767 N766 1.346 . S
C767 C768 1.396 . S
C767 C777 1.510 . S
C768 C764 1.401 . S
C768 C767 1.396 . S
C769 C764 1.499 . S
C769 H770 0.959 . S
C769 H771 0.960 . S
C769 H772 0.961 . S
H770 C769 0.959 . S
H771 C769 0.960 . S
H772 C769 0.961 . S
O773 Co748 1.967 . S
O773 C781 1.258 . S
O774 Co749 1.941 . S
O774 C781 1.266 . S
H775 C777 0.959 . S
H776 C777 0.961 . S
C777 C767 1.510 . S
C777 H775 0.959 . S
C777 H776 0.961 . S
C777 H778 0.960 . S
H778 C777 0.960 . S
H779 N759 0.862 . S
O780 Co748 1.920 . S
O780 C753 1.289 . S
C781 O773 1.258 . S
C781 O774 1.266 . S
Co782 O785 1.970 . S
Co782 N799 1.989 . S
Co782 O807 1.967 . S
Co782 O814 1.920 . S
Co783 O786 1.966 . S
Co783 N792 2.022 . S
Co783 N800 1.993 . S
Co783 O808 1.941 . S
C784 O785 1.258 . S
C784 O786 1.263 . S
O785 Co782 1.970 . S
O785 C784 1.258 . S
O786 Co783 1.966 . S
O786 C784 1.263 . S
C787 O788 1.235 . S
C787 O814 1.289 . S
O788 C787 1.235 . S
C789 C791 1.400 . S
C789 N792 1.351 . S
C789 C794 1.501 . S
C790 C791 1.387 . S
C790 N793 1.341 . S
C791 C789 1.400 . S
C791 C790 1.387 . S
N792 Co783 2.022 . S
N792 C789 1.351 . S
N792 N793 1.365 . S
N793 C790 1.341 . S
N793 N792 1.365 . S
N793 H813 0.862 . S
C794 C789 1.501 . S
C794 H795 0.961 . S
C794 H796 0.961 . S
C794 H797 0.960 . S
H795 C794 0.961 . S
H796 C794 0.961 . S
H797 C794 0.960 . S
C798 N799 1.342 . S
C798 C802 1.401 . S
C798 C803 1.499 . S
N799 Co782 1.989 . S
N799 C798 1.342 . S
N799 N800 1.388 . S
N800 Co783 1.993 . S
N800 N799 1.388 . S
N800 C801 1.346 . S
C801 N800 1.346 . S
C801 C802 1.396 . S
C801 C811 1.510 . S
C802 C798 1.401 . S
C802 C801 1.396 . S
C803 C798 1.499 . S
C803 H804 0.959 . S
C803 H805 0.960 . S
C803 H806 0.961 . S
H804 C803 0.959 . S
H805 C803 0.960 . S
H806 C803 0.961 . S
O807 Co782 1.967 . S
O807 C815 1.258 . S
O808 Co783 1.941 . S
O808 C815 1.266 . S
H809 C811 0.959 . S
H810 C811 0.961 . S
C811 C801 1.510 . S
C811 H809 0.959 . S
C811 H810 0.961 . S
C811 H812 0.960 . S
H812 C811 0.960 . S
H813 N793 0.862 . S
O814 Co782 1.920 . S
O814 C787 1.289 . S
C815 O807 1.258 . S
C815 O808 1.266 . S
Co816 O819 1.970 . S
Co816 N833 1.989 . S
Co816 O841 1.967 . S
Co816 O848 1.920 . S
Co817 O820 1.966 . S
Co817 N826 2.022 . S
Co817 N834 1.993 . S
Co817 O842 1.941 . S
C818 O819 1.258 . S
C818 O820 1.263 . S
O819 Co816 1.970 . S
O819 C818 1.258 . S
O820 Co817 1.966 . S
O820 C818 1.263 . S
C821 O822 1.235 . S
C821 O848 1.289 . S
O822 C821 1.235 . S
C823 C825 1.400 . S
C823 N826 1.351 1_556 S
C823 C828 1.501 . S
C824 C825 1.387 . S
C824 N827 1.341 1_556 S
C825 C823 1.400 . S
C825 C824 1.387 . S
N826 Co817 2.022 . S
N826 C823 1.351 1_554 S
N826 N827 1.365 . S
N827 C824 1.341 1_554 S
N827 N826 1.365 . S
N827 H847 0.862 . S
C828 C823 1.501 . S
C828 H829 0.961 . S
C828 H830 0.961 . S
C828 H831 0.960 . S
H829 C828 0.961 . S
H830 C828 0.961 . S
H831 C828 0.960 . S
C832 N833 1.342 . S
C832 C836 1.401 . S
C832 C837 1.499 . S
N833 Co816 1.989 . S
N833 C832 1.342 . S
N833 N834 1.388 . S
N834 Co817 1.993 . S
N834 N833 1.388 . S
N834 C835 1.346 . S
C835 N834 1.346 . S
C835 C836 1.396 . S
C835 C845 1.510 . S
C836 C832 1.401 . S
C836 C835 1.396 . S
C837 C832 1.499 . S
C837 H838 0.959 . S
C837 H839 0.960 . S
C837 H840 0.961 . S
H838 C837 0.959 . S
H839 C837 0.960 . S
H840 C837 0.961 . S
O841 Co816 1.967 . S
O841 C849 1.258 . S
O842 Co817 1.941 . S
O842 C849 1.266 . S
H843 C845 0.959 . S
H844 C845 0.961 . S
C845 C835 1.510 . S
C845 H843 0.959 . S
C845 H844 0.961 . S
C845 H846 0.960 . S
H846 C845 0.960 . S
H847 N827 0.862 . S
O848 Co816 1.920 . S
O848 C821 1.289 . S
C849 O841 1.258 . S
C849 O842 1.266 . S
Co850 O853 1.970 . S
Co850 N867 1.989 . S
Co850 O875 1.967 . S
Co850 O882 1.920 1_556 S
Co851 O854 1.966 . S
Co851 N860 2.022 . S
Co851 N868 1.993 . S
Co851 O876 1.941 . S
C852 O853 1.258 . S
C852 O854 1.263 . S
O853 Co850 1.970 . S
O853 C852 1.258 . S
O854 Co851 1.966 . S
O854 C852 1.263 . S
C855 O856 1.235 . S
C855 O882 1.289 . S
O856 C855 1.235 . S
C857 C859 1.400 . S
C857 N860 1.351 . S
C857 C862 1.501 . S
C858 C859 1.387 . S
C858 N861 1.341 . S
C859 C857 1.400 . S
C859 C858 1.387 . S
N860 Co851 2.022 . S
N860 C857 1.351 . S
N860 N861 1.365 . S
N861 C858 1.341 . S
N861 N860 1.365 . S
N861 H881 0.862 . S
C862 C857 1.501 . S
C862 H863 0.961 . S
C862 H864 0.961 . S
C862 H865 0.960 . S
H863 C862 0.961 . S
H864 C862 0.961 . S
H865 C862 0.960 . S
C866 N867 1.342 1_554 S
C866 C870 1.401 . S
C866 C871 1.499 . S
N867 Co850 1.989 . S
N867 C866 1.342 1_556 S
N867 N868 1.388 . S
N868 Co851 1.993 . S
N868 N867 1.388 . S
N868 C869 1.346 . S
C869 N868 1.346 . S
C869 C870 1.396 1_556 S
C869 C879 1.510 . S
C870 C866 1.401 . S
C870 C869 1.396 1_554 S
C871 C866 1.499 . S
C871 H872 0.959 . S
C871 H873 0.960 . S
C871 H874 0.961 . S
H872 C871 0.959 . S
H873 C871 0.960 . S
H874 C871 0.961 . S
O875 Co850 1.967 . S
O875 C883 1.258 . S
O876 Co851 1.941 . S
O876 C883 1.266 . S
H877 C879 0.959 . S
H878 C879 0.961 . S
C879 C869 1.510 . S
C879 H877 0.959 . S
C879 H878 0.961 . S
C879 H880 0.960 . S
H880 C879 0.960 . S
H881 N861 0.862 . S
O882 Co850 1.920 1_554 S
O882 C855 1.289 . S
C883 O875 1.258 . S
C883 O876 1.266 . S
Co884 O887 1.970 . S
Co884 N901 1.989 . S
Co884 O909 1.967 . S
Co884 O916 1.920 . S
Co885 O888 1.966 . S
Co885 N894 2.022 . S
Co885 N902 1.993 . S
Co885 O910 1.941 . S
C886 O887 1.258 . S
C886 O888 1.263 . S
O887 Co884 1.970 . S
O887 C886 1.258 . S
O888 Co885 1.966 . S
O888 C886 1.263 . S
C889 O890 1.235 . S
C889 O916 1.289 . S
O890 C889 1.235 . S
C891 C893 1.400 . S
C891 N894 1.351 . S
C891 C896 1.501 . S
C892 C893 1.387 . S
C892 N895 1.341 . S
C893 C891 1.400 . S
C893 C892 1.387 . S
N894 Co885 2.022 . S
N894 C891 1.351 . S
N894 N895 1.365 . S
N895 C892 1.341 . S
N895 N894 1.365 . S
N895 H915 0.862 . S
C896 C891 1.501 . S
C896 H897 0.961 . S
C896 H898 0.961 . S
C896 H899 0.960 . S
H897 C896 0.961 . S
H898 C896 0.961 . S
H899 C896 0.960 . S
C900 N901 1.342 . S
C900 C904 1.401 . S
C900 C905 1.499 . S
N901 Co884 1.989 . S
N901 C900 1.342 . S
N901 N902 1.388 . S
N902 Co885 1.993 . S
N902 N901 1.388 . S
N902 C903 1.346 . S
C903 N902 1.346 . S
C903 C904 1.396 . S
C903 C913 1.510 . S
C904 C900 1.401 . S
C904 C903 1.396 . S
C905 C900 1.499 . S
C905 H906 0.959 . S
C905 H907 0.960 . S
C905 H908 0.961 . S
H906 C905 0.959 . S
H907 C905 0.960 . S
H908 C905 0.961 . S
O909 Co884 1.967 . S
O909 C917 1.258 . S
O910 Co885 1.941 . S
O910 C917 1.266 . S
H911 C913 0.959 . S
H912 C913 0.961 . S
C913 C903 1.510 . S
C913 H911 0.959 . S
C913 H912 0.961 . S
C913 H914 0.960 . S
H914 C913 0.960 . S
H915 N895 0.862 . S
O916 Co884 1.920 . S
O916 C889 1.289 . S
C917 O909 1.258 . S
C917 O910 1.266 . S
Co918 O921 1.970 . S
Co918 N935 1.989 . S
Co918 O943 1.967 . S
Co918 O950 1.920 . S
Co919 O922 1.966 . S
Co919 N928 2.022 . S
Co919 N936 1.993 . S
Co919 O944 1.941 . S
C920 O921 1.258 . S
C920 O922 1.263 . S
O921 Co918 1.970 . S
O921 C920 1.258 . S
O922 Co919 1.966 . S
O922 C920 1.263 . S
C923 O924 1.235 . S
C923 O950 1.289 . S
O924 C923 1.235 . S
C925 C927 1.400 . S
C925 N928 1.351 . S
C925 C930 1.501 . S
C926 C927 1.387 . S
C926 N929 1.341 . S
C927 C925 1.400 . S
C927 C926 1.387 . S
N928 Co919 2.022 . S
N928 C925 1.351 . S
N928 N929 1.365 . S
N929 C926 1.341 . S
N929 N928 1.365 . S
N929 H949 0.862 . S
C930 C925 1.501 . S
C930 H931 0.961 . S
C930 H932 0.961 . S
C930 H933 0.960 . S
H931 C930 0.961 . S
H932 C930 0.961 . S
H933 C930 0.960 . S
C934 N935 1.342 . S
C934 C938 1.401 . S
C934 C939 1.499 . S
N935 Co918 1.989 . S
N935 C934 1.342 . S
N935 N936 1.388 . S
N936 Co919 1.993 . S
N936 N935 1.388 . S
N936 C937 1.346 . S
C937 N936 1.346 . S
C937 C938 1.396 . S
C937 C947 1.510 . S
C938 C934 1.401 . S
C938 C937 1.396 . S
C939 C934 1.499 . S
C939 H940 0.959 . S
C939 H941 0.960 . S
C939 H942 0.961 . S
H940 C939 0.959 . S
H941 C939 0.960 . S
H942 C939 0.961 . S
O943 Co918 1.967 . S
O943 C951 1.258 . S
O944 Co919 1.941 . S
O944 C951 1.266 . S
H945 C947 0.959 . S
H946 C947 0.961 . S
C947 C937 1.510 . S
C947 H945 0.959 . S
C947 H946 0.961 . S
C947 H948 0.960 . S
H948 C947 0.960 . S
H949 N929 0.862 . S
O950 Co918 1.920 . S
O950 C923 1.289 . S
C951 O943 1.258 . S
C951 O944 1.266 . S
Co952 O955 1.970 . S
Co952 N969 1.989 . S
Co952 O977 1.967 . S
Co952 O984 1.920 . S
Co953 O956 1.966 . S
Co953 N962 2.022 . S
Co953 N970 1.993 . S
Co953 O978 1.941 . S
C954 O955 1.258 . S
C954 O956 1.263 . S
O955 Co952 1.970 . S
O955 C954 1.258 . S
O956 Co953 1.966 . S
O956 C954 1.263 . S
C957 O958 1.235 . S
C957 O984 1.289 . S
O958 C957 1.235 . S
C959 C961 1.400 . S
C959 N962 1.351 . S
C959 C964 1.501 . S
C960 C961 1.387 . S
C960 N963 1.341 . S
C961 C959 1.400 . S
C961 C960 1.387 . S
N962 Co953 2.022 . S
N962 C959 1.351 . S
N962 N963 1.365 . S
N963 C960 1.341 . S
N963 N962 1.365 . S
N963 H983 0.862 . S
C964 C959 1.501 . S
C964 H965 0.961 . S
C964 H966 0.961 . S
C964 H967 0.960 . S
H965 C964 0.961 . S
H966 C964 0.961 . S
H967 C964 0.960 . S
C968 N969 1.342 . S
C968 C972 1.401 . S
C968 C973 1.499 . S
N969 Co952 1.989 . S
N969 C968 1.342 . S
N969 N970 1.388 . S
N970 Co953 1.993 . S
N970 N969 1.388 . S
N970 C971 1.346 . S
C971 N970 1.346 . S
C971 C972 1.396 . S
C971 C981 1.510 . S
C972 C968 1.401 . S
C972 C971 1.396 . S
C973 C968 1.499 . S
C973 H974 0.959 . S
C973 H975 0.960 . S
C973 H976 0.961 . S
H974 C973 0.959 . S
H975 C973 0.960 . S
H976 C973 0.961 . S
O977 Co952 1.967 . S
O977 C985 1.258 . S
O978 Co953 1.941 . S
O978 C985 1.266 . S
H979 C981 0.959 . S
H980 C981 0.961 . S
C981 C971 1.510 . S
C981 H979 0.959 . S
C981 H980 0.961 . S
C981 H982 0.960 . S
H982 C981 0.960 . S
H983 N963 0.862 . S
O984 Co952 1.920 . S
O984 C957 1.289 . S
C985 O977 1.258 . S
C985 O978 1.266 . S
Co986 O989 1.970 . S
Co986 N1003 1.989 . S
Co986 O1011 1.967 . S
Co986 O1018 1.920 1_554 S
Co987 O990 1.966 . S
Co987 N996 2.022 . S
Co987 N1004 1.993 . S
Co987 O1012 1.941 . S
C988 O989 1.258 . S
C988 O990 1.263 . S
O989 Co986 1.970 . S
O989 C988 1.258 . S
O990 Co987 1.966 . S
O990 C988 1.263 . S
C991 O992 1.235 . S
C991 O1018 1.289 . S
O992 C991 1.235 . S
C993 C995 1.400 . S
C993 N996 1.351 . S
C993 C998 1.501 . S
C994 C995 1.387 . S
C994 N997 1.341 . S
C995 C993 1.400 . S
C995 C994 1.387 . S
N996 Co987 2.022 . S
N996 C993 1.351 . S
N996 N997 1.365 . S
N997 C994 1.341 . S
N997 N996 1.365 . S
N997 H1017 0.862 . S
C998 C993 1.501 . S
C998 H999 0.961 . S
C998 H1000 0.961 . S
C998 H1001 0.960 . S
H999 C998 0.961 . S
H1000 C998 0.961 . S
H1001 C998 0.960 . S
C1002 N1003 1.342 1_556 S
C1002 C1006 1.401 . S
C1002 C1007 1.499 . S
N1003 Co986 1.989 . S
N1003 C1002 1.342 1_554 S
N1003 N1004 1.388 . S
N1004 Co987 1.993 . S
N1004 N1003 1.388 . S
N1004 C1005 1.346 . S
C1005 N1004 1.346 . S
C1005 C1006 1.396 1_554 S
C1005 C1015 1.510 . S
C1006 C1002 1.401 . S
C1006 C1005 1.396 1_556 S
C1007 C1002 1.499 . S
C1007 H1008 0.959 . S
C1007 H1009 0.960 . S
C1007 H1010 0.961 . S
H1008 C1007 0.959 . S
H1009 C1007 0.960 . S
H1010 C1007 0.961 . S
O1011 Co986 1.967 . S
O1011 C1019 1.258 . S
O1012 Co987 1.941 . S
O1012 C1019 1.266 . S
H1013 C1015 0.959 . S
H1014 C1015 0.961 . S
C1015 C1005 1.510 . S
C1015 H1013 0.959 . S
C1015 H1014 0.961 . S
C1015 H1016 0.960 . S
H1016 C1015 0.960 . S
H1017 N997 0.862 . S
O1018 Co986 1.920 1_556 S
O1018 C991 1.289 . S
C1019 O1011 1.258 . S
C1019 O1012 1.266 . S
Co1020 O1023 1.970 . S
Co1020 N1037 1.989 . S
Co1020 O1045 1.967 . S
Co1020 O1052 1.920 . S
Co1021 O1024 1.966 . S
Co1021 N1030 2.022 . S
Co1021 N1038 1.993 . S
Co1021 O1046 1.941 . S
C1022 O1023 1.258 . S
C1022 O1024 1.263 . S
O1023 Co1020 1.970 . S
O1023 C1022 1.258 . S
O1024 Co1021 1.966 . S
O1024 C1022 1.263 . S
C1025 O1026 1.235 . S
C1025 O1052 1.289 . S
O1026 C1025 1.235 . S
C1027 C1029 1.400 . S
C1027 N1030 1.351 1_554 S
C1027 C1032 1.501 . S
C1028 C1029 1.387 . S
C1028 N1031 1.341 1_554 S
C1029 C1027 1.400 . S
C1029 C1028 1.387 . S
N1030 Co1021 2.022 . S
N1030 C1027 1.351 1_556 S
N1030 N1031 1.365 . S
N1031 C1028 1.341 1_556 S
N1031 N1030 1.365 . S
N1031 H1051 0.862 . S
C1032 C1027 1.501 . S
C1032 H1033 0.961 . S
C1032 H1034 0.961 . S
C1032 H1035 0.960 . S
H1033 C1032 0.961 . S
H1034 C1032 0.961 . S
H1035 C1032 0.960 . S
C1036 N1037 1.342 . S
C1036 C1040 1.401 . S
C1036 C1041 1.499 . S
N1037 Co1020 1.989 . S
N1037 C1036 1.342 . S
N1037 N1038 1.388 . S
N1038 Co1021 1.993 . S
N1038 N1037 1.388 . S
N1038 C1039 1.346 . S
C1039 N1038 1.346 . S
C1039 C1040 1.396 . S
C1039 C1049 1.510 . S
C1040 C1036 1.401 . S
C1040 C1039 1.396 . S
C1041 C1036 1.499 . S
C1041 H1042 0.959 . S
C1041 H1043 0.960 . S
C1041 H1044 0.961 . S
H1042 C1041 0.959 . S
H1043 C1041 0.960 . S
H1044 C1041 0.961 . S
O1045 Co1020 1.967 . S
O1045 C1053 1.258 . S
O1046 Co1021 1.941 . S
O1046 C1053 1.266 . S
H1047 C1049 0.959 . S
H1048 C1049 0.961 . S
C1049 C1039 1.510 . S
C1049 H1047 0.959 . S
C1049 H1048 0.961 . S
C1049 H1050 0.960 . S
H1050 C1049 0.960 . S
H1051 N1031 0.862 . S
O1052 Co1020 1.920 . S
O1052 C1025 1.289 . S
C1053 O1045 1.258 . S
C1053 O1046 1.266 . S
Co1054 O1057 1.970 . S
Co1054 N1071 1.989 . S
Co1054 O1079 1.967 . S
Co1054 O1086 1.920 . S
Co1055 O1058 1.966 . S
Co1055 N1064 2.022 . S
Co1055 N1072 1.993 . S
Co1055 O1080 1.941 . S
C1056 O1057 1.258 . S
C1056 O1058 1.263 . S
O1057 Co1054 1.970 . S
O1057 C1056 1.258 . S
O1058 Co1055 1.966 . S
O1058 C1056 1.263 . S
C1059 O1060 1.235 . S
C1059 O1086 1.289 . S
O1060 C1059 1.235 . S
C1061 C1063 1.400 . S
C1061 N1064 1.351 . S
C1061 C1066 1.501 . S
C1062 C1063 1.387 . S
C1062 N1065 1.341 . S
C1063 C1061 1.400 . S
C1063 C1062 1.387 . S
N1064 Co1055 2.022 . S
N1064 C1061 1.351 . S
N1064 N1065 1.365 . S
N1065 C1062 1.341 . S
N1065 N1064 1.365 . S
N1065 H1085 0.862 . S
C1066 C1061 1.501 . S
C1066 H1067 0.961 . S
C1066 H1068 0.961 . S
C1066 H1069 0.960 . S
H1067 C1066 0.961 . S
H1068 C1066 0.961 . S
H1069 C1066 0.960 . S
C1070 N1071 1.342 . S
C1070 C1074 1.401 . S
C1070 C1075 1.499 . S
N1071 Co1054 1.989 . S
N1071 C1070 1.342 . S
N1071 N1072 1.388 . S
N1072 Co1055 1.993 . S
N1072 N1071 1.388 . S
N1072 C1073 1.346 . S
C1073 N1072 1.346 . S
C1073 C1074 1.396 . S
C1073 C1083 1.510 . S
C1074 C1070 1.401 . S
C1074 C1073 1.396 . S
C1075 C1070 1.499 . S
C1075 H1076 0.959 . S
C1075 H1077 0.960 . S
C1075 H1078 0.961 . S
H1076 C1075 0.959 . S
H1077 C1075 0.960 . S
H1078 C1075 0.961 . S
O1079 Co1054 1.967 . S
O1079 C1087 1.258 . S
O1080 Co1055 1.941 . S
O1080 C1087 1.266 . S
H1081 C1083 0.959 . S
H1082 C1083 0.961 . S
C1083 C1073 1.510 . S
C1083 H1081 0.959 . S
C1083 H1082 0.961 . S
C1083 H1084 0.960 . S
H1084 C1083 0.960 . S
H1085 N1065 0.862 . S
O1086 Co1054 1.920 . S
O1086 C1059 1.289 . S
C1087 O1079 1.258 . S
C1087 O1080 1.266 . S
H1088 C1094 0.930 . S
H1089 C1097 0.930 . S
H1090 C1098 0.930 . S
H1091 C1099 0.930 . S
H1092 C1102 0.930 . S
H1093 C1103 0.930 . S
C1094 H1088 0.930 . S
C1094 C1095 1.355 . S
C1094 C1096 1.415 . S
C1095 C1094 1.355 . S
C1095 C1097 1.419 . S
C1096 C1094 1.415 . S
C1096 C1101 1.425 . S
C1096 C1103 1.409 . S
C1097 H1089 0.930 . S
C1097 C1095 1.419 . S
C1097 C1098 1.362 . S
C1098 H1090 0.930 . S
C1098 C1097 1.362 . S
C1098 C1101 1.409 . S
C1099 H1091 0.930 . S
C1099 C1100 1.355 . S
C1099 C1101 1.415 . S
C1100 C1099 1.355 . S
C1100 C1102 1.419 . S
C1101 C1096 1.425 . S
C1101 C1098 1.409 . S
C1101 C1099 1.415 . S
C1102 H1092 0.930 . S
C1102 C1100 1.419 . S
C1102 C1103 1.362 . S
C1103 H1093 0.930 . S
C1103 C1096 1.409 . S
C1103 C1102 1.362 . S
H1104 C1110 0.930 . S
H1105 C1113 0.930 . S
H1106 C1114 0.930 . S
H1107 C1115 0.930 . S
H1108 C1118 0.930 . S
H1109 C1119 0.930 . S
C1110 H1104 0.930 . S
C1110 C1111 1.355 . S
C1110 C1112 1.415 . S
C1111 C1110 1.355 . S
C1111 C1113 1.419 . S
C1112 C1110 1.415 . S
C1112 C1117 1.425 . S
C1112 C1119 1.409 . S
C1113 H1105 0.930 . S
C1113 C1111 1.419 . S
C1113 C1114 1.362 . S
C1114 H1106 0.930 . S
C1114 C1113 1.362 . S
C1114 C1117 1.409 . S
C1115 H1107 0.930 . S
C1115 C1116 1.355 . S
C1115 C1117 1.415 . S
C1116 C1115 1.355 . S
C1116 C1118 1.419 . S
C1117 C1112 1.425 . S
C1117 C1114 1.409 . S
C1117 C1115 1.415 . S
C1118 H1108 0.930 . S
C1118 C1116 1.419 . S
C1118 C1119 1.362 . S
C1119 H1109 0.930 . S
C1119 C1112 1.409 . S
C1119 C1118 1.362 . S
H1120 C1126 0.930 . S
H1121 C1129 0.930 . S
H1122 C1130 0.930 . S
H1123 C1131 0.930 . S
H1124 C1134 0.930 . S
H1125 C1135 0.930 . S
C1126 H1120 0.930 . S
C1126 C1127 1.355 . S
C1126 C1128 1.415 . S
C1127 C1126 1.355 . S
C1127 C1129 1.419 . S
C1128 C1126 1.415 . S
C1128 C1133 1.425 . S
C1128 C1135 1.409 . S
C1129 H1121 0.930 . S
C1129 C1127 1.419 . S
C1129 C1130 1.362 . S
C1130 H1122 0.930 . S
C1130 C1129 1.362 . S
C1130 C1133 1.409 . S
C1131 H1123 0.930 . S
C1131 C1132 1.355 . S
C1131 C1133 1.415 . S
C1132 C1131 1.355 . S
C1132 C1134 1.419 . S
C1133 C1128 1.425 . S
C1133 C1130 1.409 . S
C1133 C1131 1.415 . S
C1134 H1124 0.930 . S
C1134 C1132 1.419 . S
C1134 C1135 1.362 . S
C1135 H1125 0.930 . S
C1135 C1128 1.409 . S
C1135 C1134 1.362 . S
H1136 C1142 0.930 . S
H1137 C1145 0.930 . S
H1138 C1146 0.930 . S
H1139 C1147 0.930 . S
H1140 C1150 0.930 . S
H1141 C1151 0.930 . S
C1142 H1136 0.930 . S
C1142 C1143 1.355 . S
C1142 C1144 1.415 . S
C1143 C1142 1.355 . S
C1143 C1145 1.419 . S
C1144 C1142 1.415 . S
C1144 C1149 1.425 . S
C1144 C1151 1.409 . S
C1145 H1137 0.930 . S
C1145 C1143 1.419 . S
C1145 C1146 1.362 . S
C1146 H1138 0.930 . S
C1146 C1145 1.362 . S
C1146 C1149 1.409 . S
C1147 H1139 0.930 . S
C1147 C1148 1.355 . S
C1147 C1149 1.415 . S
C1148 C1147 1.355 . S
C1148 C1150 1.419 . S
C1149 C1144 1.425 . S
C1149 C1146 1.409 . S
C1149 C1147 1.415 . S
C1150 H1140 0.930 . S
C1150 C1148 1.419 . S
C1150 C1151 1.362 . S
C1151 H1141 0.930 . S
C1151 C1144 1.409 . S
C1151 C1150 1.362 . S
H1152 C1158 0.930 . S
H1153 C1161 0.930 . S
H1154 C1162 0.930 . S
H1155 C1163 0.930 . S
H1156 C1166 0.930 . S
H1157 C1167 0.930 . S
C1158 H1152 0.930 . S
C1158 C1159 1.355 . S
C1158 C1160 1.415 . S
C1159 C1158 1.355 . S
C1159 C1161 1.419 . S
C1160 C1158 1.415 . S
C1160 C1165 1.425 . S
C1160 C1167 1.409 . S
C1161 H1153 0.930 . S
C1161 C1159 1.419 . S
C1161 C1162 1.362 . S
C1162 H1154 0.930 . S
C1162 C1161 1.362 . S
C1162 C1165 1.409 . S
C1163 H1155 0.930 . S
C1163 C1164 1.355 . S
C1163 C1165 1.415 . S
C1164 C1163 1.355 . S
C1164 C1166 1.419 . S
C1165 C1160 1.425 . S
C1165 C1162 1.409 . S
C1165 C1163 1.415 . S
C1166 H1156 0.930 . S
C1166 C1164 1.419 . S
C1166 C1167 1.362 . S
C1167 H1157 0.930 . S
C1167 C1160 1.409 . S
C1167 C1166 1.362 . S
H1168 C1174 0.930 . S
H1169 C1177 0.930 . S
H1170 C1178 0.930 . S
H1171 C1179 0.930 . S
H1172 C1182 0.930 . S
H1173 C1183 0.930 . S
C1174 H1168 0.930 . S
C1174 C1175 1.355 . S
C1174 C1176 1.415 . S
C1175 C1174 1.355 . S
C1175 C1177 1.419 . S
C1176 C1174 1.415 . S
C1176 C1181 1.425 . S
C1176 C1183 1.409 . S
C1177 H1169 0.930 . S
C1177 C1175 1.419 . S
C1177 C1178 1.362 . S
C1178 H1170 0.930 . S
C1178 C1177 1.362 . S
C1178 C1181 1.409 . S
C1179 H1171 0.930 . S
C1179 C1180 1.355 . S
C1179 C1181 1.415 . S
C1180 C1179 1.355 . S
C1180 C1182 1.419 . S
C1181 C1176 1.425 . S
C1181 C1178 1.409 . S
C1181 C1179 1.415 . S
C1182 H1172 0.930 . S
C1182 C1180 1.419 . S
C1182 C1183 1.362 . S
C1183 H1173 0.930 . S
C1183 C1176 1.409 . S
C1183 C1182 1.362 . S
H1184 C1190 0.930 . S
H1185 C1193 0.930 . S
H1186 C1194 0.930 . S
H1187 C1195 0.930 . S
H1188 C1198 0.930 . S
H1189 C1199 0.930 . S
C1190 H1184 0.930 . S
C1190 C1191 1.355 . S
C1190 C1192 1.415 . S
C1191 C1190 1.355 . S
C1191 C1193 1.419 . S
C1192 C1190 1.415 . S
C1192 C1197 1.425 . S
C1192 C1199 1.409 . S
C1193 H1185 0.930 . S
C1193 C1191 1.419 . S
C1193 C1194 1.362 . S
C1194 H1186 0.930 . S
C1194 C1193 1.362 . S
C1194 C1197 1.409 . S
C1195 H1187 0.930 . S
C1195 C1196 1.355 . S
C1195 C1197 1.415 . S
C1196 C1195 1.355 . S
C1196 C1198 1.419 . S
C1197 C1192 1.425 . S
C1197 C1194 1.409 . S
C1197 C1195 1.415 . S
C1198 H1188 0.930 . S
C1198 C1196 1.419 . S
C1198 C1199 1.362 . S
C1199 H1189 0.930 . S
C1199 C1192 1.409 . S
C1199 C1198 1.362 . S
H1200 C1206 0.930 . S
H1201 C1209 0.930 . S
H1202 C1210 0.930 . S
H1203 C1211 0.930 . S
H1204 C1214 0.930 . S
H1205 C1215 0.930 . S
C1206 H1200 0.930 . S
C1206 C1207 1.355 . S
C1206 C1208 1.415 . S
C1207 C1206 1.355 . S
C1207 C1209 1.419 . S
C1208 C1206 1.415 . S
C1208 C1213 1.425 . S
C1208 C1215 1.409 . S
C1209 H1201 0.930 . S
C1209 C1207 1.419 . S
C1209 C1210 1.362 . S
C1210 H1202 0.930 . S
C1210 C1209 1.362 . S
C1210 C1213 1.409 . S
C1211 H1203 0.930 . S
C1211 C1212 1.355 . S
C1211 C1213 1.415 . S
C1212 C1211 1.355 . S
C1212 C1214 1.419 . S
C1213 C1208 1.425 . S
C1213 C1210 1.409 . S
C1213 C1211 1.415 . S
C1214 H1204 0.930 . S
C1214 C1212 1.419 . S
C1214 C1215 1.362 . S
C1215 H1205 0.930 . S
C1215 C1208 1.409 . S
C1215 C1214 1.362 . S
H1216 C1222 0.930 . S
H1217 C1225 0.930 . S
H1218 C1226 0.930 . S
H1219 C1227 0.930 . S
H1220 C1230 0.930 . S
H1221 C1231 0.930 . S
C1222 H1216 0.930 . S
C1222 C1223 1.355 . S
C1222 C1224 1.415 . S
C1223 C1222 1.355 . S
C1223 C1225 1.419 . S
C1224 C1222 1.415 . S
C1224 C1229 1.425 . S
C1224 C1231 1.409 . S
C1225 H1217 0.930 . S
C1225 C1223 1.419 . S
C1225 C1226 1.362 . S
C1226 H1218 0.930 . S
C1226 C1225 1.362 . S
C1226 C1229 1.409 . S
C1227 H1219 0.930 . S
C1227 C1228 1.355 . S
C1227 C1229 1.415 . S
C1228 C1227 1.355 . S
C1228 C1230 1.419 . S
C1229 C1224 1.425 . S
C1229 C1226 1.409 . S
C1229 C1227 1.415 . S
C1230 H1220 0.930 . S
C1230 C1228 1.419 . S
C1230 C1231 1.362 . S
C1231 H1221 0.930 . S
C1231 C1224 1.409 . S
C1231 C1230 1.362 . S
H1232 C1238 0.930 . S
H1233 C1241 0.930 . S
H1234 C1242 0.930 . S
H1235 C1243 0.930 . S
H1236 C1246 0.930 . S
H1237 C1247 0.930 . S
C1238 H1232 0.930 . S
C1238 C1239 1.355 . S
C1238 C1240 1.415 . S
C1239 C1238 1.355 . S
C1239 C1241 1.419 . S
C1240 C1238 1.415 . S
C1240 C1245 1.425 . S
C1240 C1247 1.409 . S
C1241 H1233 0.930 . S
C1241 C1239 1.419 . S
C1241 C1242 1.362 . S
C1242 H1234 0.930 . S
C1242 C1241 1.362 . S
C1242 C1245 1.409 . S
C1243 H1235 0.930 . S
C1243 C1244 1.355 . S
C1243 C1245 1.415 . S
C1244 C1243 1.355 . S
C1244 C1246 1.419 . S
C1245 C1240 1.425 . S
C1245 C1242 1.409 . S
C1245 C1243 1.415 . S
C1246 H1236 0.930 . S
C1246 C1244 1.419 . S
C1246 C1247 1.362 . S
C1247 H1237 0.930 . S
C1247 C1240 1.409 . S
C1247 C1246 1.362 . S
H1248 C1254 0.930 . S
H1249 C1257 0.930 . S
H1250 C1258 0.930 . S
H1251 C1259 0.930 . S
H1252 C1262 0.930 . S
H1253 C1263 0.930 . S
C1254 H1248 0.930 . S
C1254 C1255 1.355 . S
C1254 C1256 1.415 . S
C1255 C1254 1.355 . S
C1255 C1257 1.419 . S
C1256 C1254 1.415 . S
C1256 C1261 1.425 . S
C1256 C1263 1.409 . S
C1257 H1249 0.930 . S
C1257 C1255 1.419 . S
C1257 C1258 1.362 . S
C1258 H1250 0.930 . S
C1258 C1257 1.362 . S
C1258 C1261 1.409 . S
C1259 H1251 0.930 . S
C1259 C1260 1.355 . S
C1259 C1261 1.415 . S
C1260 C1259 1.355 . S
C1260 C1262 1.419 . S
C1261 C1256 1.425 . S
C1261 C1258 1.409 . S
C1261 C1259 1.415 . S
C1262 H1252 0.930 . S
C1262 C1260 1.419 . S
C1262 C1263 1.362 . S
C1263 H1253 0.930 . S
C1263 C1256 1.409 . S
C1263 C1262 1.362 . S
H1264 C1270 0.930 . S
H1265 C1273 0.930 . S
H1266 C1274 0.930 . S
H1267 C1275 0.930 . S
H1268 C1278 0.930 1_554 S
H1269 C1279 0.930 . S
C1270 H1264 0.930 . S
C1270 C1271 1.355 . S
C1270 C1272 1.415 . S
C1271 C1270 1.355 . S
C1271 C1273 1.419 . S
C1272 C1270 1.415 . S
C1272 C1277 1.425 . S
C1272 C1279 1.409 . S
C1273 H1265 0.930 . S
C1273 C1271 1.419 . S
C1273 C1274 1.362 . S
C1274 H1266 0.930 . S
C1274 C1273 1.362 . S
C1274 C1277 1.409 . S
C1275 H1267 0.930 . S
C1275 C1276 1.355 . S
C1275 C1277 1.415 . S
C1276 C1275 1.355 . S
C1276 C1278 1.419 . S
C1277 C1272 1.425 . S
C1277 C1274 1.409 . S
C1277 C1275 1.415 . S
C1278 H1268 0.930 1_556 S
C1278 C1276 1.419 . S
C1278 C1279 1.362 . S
C1279 H1269 0.930 . S
C1279 C1272 1.409 . S
C1279 C1278 1.362 . S
H1280 C1286 0.930 . S
H1281 C1289 0.930 . S
H1282 C1290 0.930 . S
H1283 C1291 0.930 . S
H1284 C1294 0.930 . S
H1285 C1295 0.930 . S
C1286 H1280 0.930 . S
C1286 C1287 1.355 . S
C1286 C1288 1.415 . S
C1287 C1286 1.355 . S
C1287 C1289 1.419 . S
C1288 C1286 1.415 . S
C1288 C1293 1.425 . S
C1288 C1295 1.409 . S
C1289 H1281 0.930 . S
C1289 C1287 1.419 . S
C1289 C1290 1.362 . S
C1290 H1282 0.930 . S
C1290 C1289 1.362 . S
C1290 C1293 1.409 . S
C1291 H1283 0.930 . S
C1291 C1292 1.355 . S
C1291 C1293 1.415 . S
C1292 C1291 1.355 . S
C1292 C1294 1.419 . S
C1293 C1288 1.425 . S
C1293 C1290 1.409 . S
C1293 C1291 1.415 . S
C1294 H1284 0.930 . S
C1294 C1292 1.419 . S
C1294 C1295 1.362 . S
C1295 H1285 0.930 . S
C1295 C1288 1.409 . S
C1295 C1294 1.362 . S
H1296 C1302 0.930 . S
H1297 C1305 0.930 . S
H1298 C1306 0.930 . S
H1299 C1307 0.930 . S
H1300 C1310 0.930 . S
H1301 C1311 0.930 . S
C1302 H1296 0.930 . S
C1302 C1303 1.355 . S
C1302 C1304 1.415 . S
C1303 C1302 1.355 . S
C1303 C1305 1.419 . S
C1304 C1302 1.415 . S
C1304 C1309 1.425 . S
C1304 C1311 1.409 . S
C1305 H1297 0.930 . S
C1305 C1303 1.419 . S
C1305 C1306 1.362 . S
C1306 H1298 0.930 . S
C1306 C1305 1.362 . S
C1306 C1309 1.409 . S
C1307 H1299 0.930 . S
C1307 C1308 1.355 . S
C1307 C1309 1.415 . S
C1308 C1307 1.355 . S
C1308 C1310 1.419 . S
C1309 C1304 1.425 . S
C1309 C1306 1.409 . S
C1309 C1307 1.415 . S
C1310 H1300 0.930 . S
C1310 C1308 1.419 . S
C1310 C1311 1.362 . S
C1311 H1301 0.930 . S
C1311 C1304 1.409 . S
C1311 C1310 1.362 . S
H1312 C1318 0.930 . S
H1313 C1321 0.930 . S
H1314 C1322 0.930 . S
H1315 C1323 0.930 . S
H1316 C1326 0.930 . S
H1317 C1327 0.930 . S
C1318 H1312 0.930 . S
C1318 C1319 1.355 . S
C1318 C1320 1.415 . S
C1319 C1318 1.355 . S
C1319 C1321 1.419 . S
C1320 C1318 1.415 . S
C1320 C1325 1.425 . S
C1320 C1327 1.409 . S
C1321 H1313 0.930 . S
C1321 C1319 1.419 . S
C1321 C1322 1.362 . S
C1322 H1314 0.930 . S
C1322 C1321 1.362 . S
C1322 C1325 1.409 . S
C1323 H1315 0.930 . S
C1323 C1324 1.355 . S
C1323 C1325 1.415 . S
C1324 C1323 1.355 . S
C1324 C1326 1.419 . S
C1325 C1320 1.425 . S
C1325 C1322 1.409 . S
C1325 C1323 1.415 . S
C1326 H1316 0.930 . S
C1326 C1324 1.419 . S
C1326 C1327 1.362 . S
C1327 H1317 0.930 . S
C1327 C1320 1.409 . S
C1327 C1326 1.362 . S
H1328 C1334 0.930 . S
H1329 C1337 0.930 . S
H1330 C1338 0.930 . S
H1331 C1339 0.930 . S
H1332 C1342 0.930 . S
H1333 C1343 0.930 . S
C1334 H1328 0.930 . S
C1334 C1335 1.355 . S
C1334 C1336 1.415 . S
C1335 C1334 1.355 . S
C1335 C1337 1.419 . S
C1336 C1334 1.415 . S
C1336 C1341 1.425 . S
C1336 C1343 1.409 . S
C1337 H1329 0.930 . S
C1337 C1335 1.419 . S
C1337 C1338 1.362 . S
C1338 H1330 0.930 . S
C1338 C1337 1.362 . S
C1338 C1341 1.409 . S
C1339 H1331 0.930 . S
C1339 C1340 1.355 . S
C1339 C1341 1.415 . S
C1340 C1339 1.355 . S
C1340 C1342 1.419 . S
C1341 C1336 1.425 . S
C1341 C1338 1.409 . S
C1341 C1339 1.415 . S
C1342 H1332 0.930 . S
C1342 C1340 1.419 . S
C1342 C1343 1.362 . S
C1343 H1333 0.930 . S
C1343 C1336 1.409 . S
C1343 C1342 1.362 . S
H1344 C1350 0.930 . S
H1345 C1353 0.930 . S
H1346 C1354 0.930 . S
H1347 C1355 0.930 . S
H1348 C1358 0.930 . S
H1349 C1359 0.930 . S
C1350 H1344 0.930 . S
C1350 C1351 1.355 . S
C1350 C1352 1.415 . S
C1351 C1350 1.355 . S
C1351 C1353 1.419 . S
C1352 C1350 1.415 . S
C1352 C1357 1.425 . S
C1352 C1359 1.409 . S
C1353 H1345 0.930 . S
C1353 C1351 1.419 . S
C1353 C1354 1.362 . S
C1354 H1346 0.930 . S
C1354 C1353 1.362 . S
C1354 C1357 1.409 . S
C1355 H1347 0.930 . S
C1355 C1356 1.355 . S
C1355 C1357 1.415 . S
C1356 C1355 1.355 . S
C1356 C1358 1.419 . S
C1357 C1352 1.425 . S
C1357 C1354 1.409 . S
C1357 C1355 1.415 . S
C1358 H1348 0.930 . S
C1358 C1356 1.419 . S
C1358 C1359 1.362 . S
C1359 H1349 0.930 . S
C1359 C1352 1.409 . S
C1359 C1358 1.362 . S
H1360 C1366 0.930 . S
H1361 C1369 0.930 . S
H1362 C1370 0.930 . S
H1363 C1371 0.930 . S
H1364 C1374 0.930 . S
H1365 C1375 0.930 . S
C1366 H1360 0.930 . S
C1366 C1367 1.355 . S
C1366 C1368 1.417 1_565 S
C1367 C1366 1.355 . S
C1367 C1369 1.419 . S
C1368 C1366 1.417 1_545 S
C1368 C1373 1.425 1_545 S
C1368 C1375 1.407 . S
C1369 H1361 0.930 . S
C1369 C1367 1.419 . S
C1369 C1370 1.362 . S
C1370 H1362 0.930 . S
C1370 C1369 1.362 . S
C1370 C1373 1.407 . S
C1371 H1363 0.930 . S
C1371 C1372 1.355 . S
C1371 C1373 1.417 1_545 S
C1372 C1371 1.355 . S
C1372 C1374 1.419 . S
C1373 C1368 1.425 1_565 S
C1373 C1370 1.407 . S
C1373 C1371 1.417 1_565 S
C1374 H1364 0.930 . S
C1374 C1372 1.419 . S
C1374 C1375 1.362 . S
C1375 H1365 0.930 . S
C1375 C1368 1.407 . S
C1375 C1374 1.362 . S
H1376 C1382 0.930 . S
H1377 C1385 0.930 . S
H1378 C1386 0.930 1_556 S
H1379 C1387 0.930 . S
H1380 C1390 0.930 . S
H1381 C1391 0.930 1_554 S
C1382 H1376 0.930 . S
C1382 C1383 1.355 . S
C1382 C1384 1.415 . S
C1383 C1382 1.355 . S
C1383 C1385 1.419 . S
C1384 C1382 1.415 . S
C1384 C1389 1.425 1_554 S
C1384 C1391 1.409 1_554 S
C1385 H1377 0.930 . S
C1385 C1383 1.419 . S
C1385 C1386 1.362 . S
C1386 H1378 0.930 1_554 S
C1386 C1385 1.362 . S
C1386 C1389 1.409 1_554 S
C1387 H1379 0.930 . S
C1387 C1388 1.355 . S
C1387 C1389 1.415 . S
C1388 C1387 1.355 . S
C1388 C1390 1.419 . S
C1389 C1384 1.425 1_556 S
C1389 C1386 1.409 1_556 S
C1389 C1387 1.415 . S
C1390 H1380 0.930 . S
C1390 C1388 1.419 . S
C1390 C1391 1.362 . S
C1391 H1381 0.930 1_556 S
C1391 C1384 1.409 1_556 S
C1391 C1390 1.362 . S
H1392 C1398 0.930 . S
H1393 C1401 0.930 . S
H1394 C1402 0.930 . S
H1395 C1403 0.930 . S
H1396 C1406 0.930 . S
H1397 C1407 0.930 . S
C1398 H1392 0.930 . S
C1398 C1399 1.355 . S
C1398 C1400 1.415 . S
C1399 C1398 1.355 . S
C1399 C1401 1.419 . S
C1400 C1398 1.415 . S
C1400 C1405 1.425 1_545 S
C1400 C1407 1.409 1_545 S
C1401 H1393 0.930 . S
C1401 C1399 1.419 . S
C1401 C1402 1.362 . S
C1402 H1394 0.930 . S
C1402 C1401 1.362 . S
C1402 C1405 1.409 1_545 S
C1403 H1395 0.930 . S
C1403 C1404 1.355 . S
C1403 C1405 1.415 . S
C1404 C1403 1.355 . S
C1404 C1406 1.419 . S
C1405 C1400 1.425 1_565 S
C1405 C1402 1.409 1_565 S
C1405 C1403 1.415 . S
C1406 H1396 0.930 . S
C1406 C1404 1.419 . S
C1406 C1407 1.362 . S
C1407 H1397 0.930 . S
C1407 C1400 1.409 1_565 S
C1407 C1406 1.362 . S
H1408 C1414 0.930 . S
H1409 C1417 0.930 . S
H1410 C1418 0.930 . S
H1411 C1419 0.930 . S
H1412 C1422 0.930 . S
H1413 C1423 0.930 . S
C1414 H1408 0.930 . S
C1414 C1415 1.355 . S
C1414 C1416 1.415 . S
C1415 C1414 1.355 . S
C1415 C1417 1.419 . S
C1416 C1414 1.415 . S
C1416 C1421 1.425 . S
C1416 C1423 1.409 . S
C1417 H1409 0.930 . S
C1417 C1415 1.419 . S
C1417 C1418 1.362 . S
C1418 H1410 0.930 . S
C1418 C1417 1.362 . S
C1418 C1421 1.409 . S
C1419 H1411 0.930 . S
C1419 C1420 1.355 . S
C1419 C1421 1.415 . S
C1420 C1419 1.355 . S
C1420 C1422 1.419 . S
C1421 C1416 1.425 . S
C1421 C1418 1.409 . S
C1421 C1419 1.415 . S
C1422 H1412 0.930 . S
C1422 C1420 1.419 . S
C1422 C1423 1.362 . S
C1423 H1413 0.930 . S
C1423 C1416 1.409 . S
C1423 C1422 1.362 . S
H1424 C1430 0.930 . S
H1425 C1433 0.930 . S
H1426 C1434 0.930 . S
H1427 C1435 0.930 . S
H1428 C1438 0.930 . S
H1429 C1439 0.930 . S
C1430 H1424 0.930 . S
C1430 C1431 1.355 . S
C1430 C1432 1.415 . S
C1431 C1430 1.355 . S
C1431 C1433 1.419 . S
C1432 C1430 1.415 . S
C1432 C1437 1.425 1_545 S
C1432 C1439 1.409 . S
C1433 H1425 0.930 . S
C1433 C1431 1.419 . S
C1433 C1434 1.362 1_545 S
C1434 H1426 0.930 . S
C1434 C1433 1.362 1_565 S
C1434 C1437 1.409 . S
C1435 H1427 0.930 . S
C1435 C1436 1.355 . S
C1435 C1437 1.415 . S
C1436 C1435 1.355 . S
C1436 C1438 1.419 . S
C1437 C1432 1.425 1_565 S
C1437 C1434 1.409 . S
C1437 C1435 1.415 . S
C1438 H1428 0.930 . S
C1438 C1436 1.419 . S
C1438 C1439 1.362 1_565 S
C1439 H1429 0.930 . S
C1439 C1432 1.409 . S
C1439 C1438 1.362 1_545 S
H1440 C1446 0.930 . S
H1441 C1449 0.930 . S
H1442 C1450 0.930 . S
H1443 C1451 0.930 . S
H1444 C1454 0.930 . S
H1445 C1455 0.930 . S
C1446 H1440 0.930 . S
C1446 C1447 1.355 . S
C1446 C1448 1.415 . S
C1447 C1446 1.355 . S
C1447 C1449 1.419 . S
C1448 C1446 1.415 . S
C1448 C1453 1.425 1_554 S
C1448 C1455 1.409 . S
C1449 H1441 0.930 . S
C1449 C1447 1.419 . S
C1449 C1450 1.362 1_554 S
C1450 H1442 0.930 . S
C1450 C1449 1.362 1_556 S
C1450 C1453 1.409 . S
C1451 H1443 0.930 . S
C1451 C1452 1.355 . S
C1451 C1453 1.415 . S
C1452 C1451 1.355 . S
C1452 C1454 1.419 . S
C1453 C1448 1.425 1_556 S
C1453 C1450 1.409 . S
C1453 C1451 1.415 . S
C1454 H1444 0.930 . S
C1454 C1452 1.419 . S
C1454 C1455 1.362 1_556 S
C1455 H1445 0.930 . S
C1455 C1448 1.409 . S
C1455 C1454 1.362 1_554 S
H1456 C1462 0.930 . S
H1457 C1465 0.930 . S
H1458 C1466 0.930 . S
H1459 C1467 0.930 . S
H1460 C1470 0.930 . S
H1461 C1471 0.930 . S
C1462 H1456 0.930 . S
C1462 C1463 1.355 . S
C1462 C1464 1.415 . S
C1463 C1462 1.355 . S
C1463 C1465 1.419 . S
C1464 C1462 1.415 . S
C1464 C1469 1.425 1_545 S
C1464 C1471 1.409 . S
C1465 H1457 0.930 . S
C1465 C1463 1.419 . S
C1465 C1466 1.362 1_545 S
C1466 H1458 0.930 . S
C1466 C1465 1.362 1_565 S
C1466 C1469 1.409 . S
C1467 H1459 0.930 . S
C1467 C1468 1.355 . S
C1467 C1469 1.415 . S
C1468 C1467 1.355 . S
C1468 C1470 1.419 . S
C1469 C1464 1.425 1_565 S
C1469 C1466 1.409 . S
C1469 C1467 1.415 . S
C1470 H1460 0.930 . S
C1470 C1468 1.419 . S
C1470 C1471 1.362 1_565 S
C1471 H1461 0.930 . S
C1471 C1464 1.409 . S
C1471 C1470 1.362 1_545 S
H1472 C1478 0.930 . S
H1473 C1481 0.930 . S
H1474 C1482 0.930 . S
H1475 C1483 0.930 . S
H1476 C1486 0.930 . S
H1477 C1487 0.930 . S
C1478 H1472 0.930 . S
C1478 C1479 1.355 . S
C1478 C1480 1.415 1_556 S
C1479 C1478 1.355 . S
C1479 C1481 1.419 . S
C1480 C1478 1.415 1_554 S
C1480 C1485 1.425 1_554 S
C1480 C1487 1.409 . S
C1481 H1473 0.930 . S
C1481 C1479 1.419 . S
C1481 C1482 1.362 . S
C1482 H1474 0.930 . S
C1482 C1481 1.362 . S
C1482 C1485 1.409 . S
C1483 H1475 0.930 . S
C1483 C1484 1.355 . S
C1483 C1485 1.415 1_554 S
C1484 C1483 1.355 . S
C1484 C1486 1.419 . S
C1485 C1480 1.425 1_556 S
C1485 C1482 1.409 . S
C1485 C1483 1.415 1_556 S
C1486 H1476 0.930 . S
C1486 C1484 1.419 . S
C1486 C1487 1.362 . S
C1487 H1477 0.930 . S
C1487 C1480 1.409 . S
C1487 C1486 1.362 . S
H1488 C1494 0.930 . S
H1489 C1497 0.930 . S
H1490 C1498 0.930 . S
H1491 C1499 0.930 . S
H1492 C1502 0.930 . S
H1493 C1503 0.930 . S
C1494 H1488 0.930 . S
C1494 C1495 1.355 . S
C1494 C1496 1.415 . S
C1495 C1494 1.355 . S
C1495 C1497 1.419 . S
C1496 C1494 1.415 . S
C1496 C1501 1.425 . S
C1496 C1503 1.409 . S
C1497 H1489 0.930 . S
C1497 C1495 1.419 . S
C1497 C1498 1.362 . S
C1498 H1490 0.930 . S
C1498 C1497 1.362 . S
C1498 C1501 1.409 . S
C1499 H1491 0.930 . S
C1499 C1500 1.355 . S
C1499 C1501 1.415 . S
C1500 C1499 1.355 . S
C1500 C1502 1.419 . S
C1501 C1496 1.425 . S
C1501 C1498 1.409 . S
C1501 C1499 1.415 . S
C1502 H1492 0.930 . S
C1502 C1500 1.419 . S
C1502 C1503 1.362 . S
C1503 H1493 0.930 . S
C1503 C1496 1.409 . S
C1503 C1502 1.362 . S
H1504 C1510 0.930 . S
H1505 C1513 0.930 . S
H1506 C1514 0.930 . S
H1507 C1515 0.930 . S
H1508 C1518 0.930 . S
H1509 C1519 0.930 . S
C1510 H1504 0.930 . S
C1510 C1511 1.355 . S
C1510 C1512 1.415 . S
C1511 C1510 1.355 . S
C1511 C1513 1.419 . S
C1512 C1510 1.415 . S
C1512 C1517 1.425 . S
C1512 C1519 1.409 . S
C1513 H1505 0.930 . S
C1513 C1511 1.419 . S
C1513 C1514 1.362 . S
C1514 H1506 0.930 . S
C1514 C1513 1.362 . S
C1514 C1517 1.409 . S
C1515 H1507 0.930 . S
C1515 C1516 1.355 . S
C1515 C1517 1.415 . S
C1516 C1515 1.355 . S
C1516 C1518 1.419 . S
C1517 C1512 1.425 . S
C1517 C1514 1.409 . S
C1517 C1515 1.415 . S
C1518 H1508 0.930 . S
C1518 C1516 1.419 . S
C1518 C1519 1.362 . S
C1519 H1509 0.930 . S
C1519 C1512 1.409 . S
C1519 C1518 1.362 . S
H1520 C1526 0.930 . S
H1521 C1529 0.930 . S
H1522 C1530 0.930 . S
H1523 C1531 0.930 . S
H1524 C1534 0.930 . S
H1525 C1535 0.930 . S
C1526 H1520 0.930 . S
C1526 C1527 1.355 . S
C1526 C1528 1.415 . S
C1527 C1526 1.355 . S
C1527 C1529 1.419 . S
C1528 C1526 1.415 . S
C1528 C1533 1.425 . S
C1528 C1535 1.409 . S
C1529 H1521 0.930 . S
C1529 C1527 1.419 . S
C1529 C1530 1.362 . S
C1530 H1522 0.930 . S
C1530 C1529 1.362 . S
C1530 C1533 1.409 . S
C1531 H1523 0.930 . S
C1531 C1532 1.355 . S
C1531 C1533 1.415 . S
C1532 C1531 1.355 . S
C1532 C1534 1.419 . S
C1533 C1528 1.425 . S
C1533 C1530 1.409 . S
C1533 C1531 1.415 . S
C1534 H1524 0.930 . S
C1534 C1532 1.419 . S
C1534 C1535 1.362 . S
C1535 H1525 0.930 . S
C1535 C1528 1.409 . S
C1535 C1534 1.362 . S
H1536 C1542 0.930 . S
H1537 C1545 0.930 . S
H1538 C1546 0.930 . S
H1539 C1547 0.930 . S
H1540 C1550 0.930 . S
H1541 C1551 0.930 . S
C1542 H1536 0.930 . S
C1542 C1543 1.355 . S
C1542 C1544 1.415 1_556 S
C1543 C1542 1.355 . S
C1543 C1545 1.419 . S
C1544 C1542 1.415 1_554 S
C1544 C1549 1.425 1_554 S
C1544 C1551 1.409 . S
C1545 H1537 0.930 . S
C1545 C1543 1.419 . S
C1545 C1546 1.362 . S
C1546 H1538 0.930 . S
C1546 C1545 1.362 . S
C1546 C1549 1.409 . S
C1547 H1539 0.930 . S
C1547 C1548 1.355 . S
C1547 C1549 1.415 1_554 S
C1548 C1547 1.355 . S
C1548 C1550 1.419 . S
C1549 C1544 1.425 1_556 S
C1549 C1546 1.409 . S
C1549 C1547 1.415 1_556 S
C1550 H1540 0.930 . S
C1550 C1548 1.419 . S
C1550 C1551 1.362 . S
C1551 H1541 0.930 . S
C1551 C1544 1.409 . S
C1551 C1550 1.362 . S
H1552 C1558 0.930 . S
H1553 C1561 0.930 . S
H1554 C1562 0.930 . S
H1555 C1563 0.930 . S
H1556 C1566 0.930 . S
H1557 C1567 0.930 . S
C1558 H1552 0.930 . S
C1558 C1559 1.355 . S
C1558 C1560 1.415 . S
C1559 C1558 1.355 . S
C1559 C1561 1.419 . S
C1560 C1558 1.415 . S
C1560 C1565 1.425 . S
C1560 C1567 1.409 . S
C1561 H1553 0.930 . S
C1561 C1559 1.419 . S
C1561 C1562 1.362 . S
C1562 H1554 0.930 . S
C1562 C1561 1.362 . S
C1562 C1565 1.409 . S
C1563 H1555 0.930 . S
C1563 C1564 1.355 . S
C1563 C1565 1.415 . S
C1564 C1563 1.355 . S
C1564 C1566 1.419 . S
C1565 C1560 1.425 . S
C1565 C1562 1.409 . S
C1565 C1563 1.415 . S
C1566 H1556 0.930 . S
C1566 C1564 1.419 . S
C1566 C1567 1.362 . S
C1567 H1557 0.930 . S
C1567 C1560 1.409 . S
C1567 C1566 1.362 . S
H1568 C1574 0.930 . S
H1569 C1577 0.930 . S
H1570 C1578 0.930 . S
H1571 C1579 0.930 . S
H1572 C1582 0.930 . S
H1573 C1583 0.930 . S
C1574 H1568 0.930 . S
C1574 C1575 1.355 . S
C1574 C1576 1.415 . S
C1575 C1574 1.355 . S
C1575 C1577 1.419 . S
C1576 C1574 1.415 . S
C1576 C1581 1.425 . S
C1576 C1583 1.409 . S
C1577 H1569 0.930 . S
C1577 C1575 1.419 . S
C1577 C1578 1.362 . S
C1578 H1570 0.930 . S
C1578 C1577 1.362 . S
C1578 C1581 1.409 . S
C1579 H1571 0.930 . S
C1579 C1580 1.355 . S
C1579 C1581 1.415 . S
C1580 C1579 1.355 . S
C1580 C1582 1.419 . S
C1581 C1576 1.425 . S
C1581 C1578 1.409 . S
C1581 C1579 1.415 . S
C1582 H1572 0.930 . S
C1582 C1580 1.419 . S
C1582 C1583 1.362 . S
C1583 H1573 0.930 . S
C1583 C1576 1.409 . S
C1583 C1582 1.362 . S
H1584 C1590 0.930 . S
H1585 C1593 0.930 . S
H1586 C1594 0.930 . S
H1587 C1595 0.930 . S
H1588 C1598 0.930 . S
H1589 C1599 0.930 . S
C1590 H1584 0.930 . S
C1590 C1591 1.355 . S
C1590 C1592 1.415 . S
C1591 C1590 1.355 . S
C1591 C1593 1.419 . S
C1592 C1590 1.415 . S
C1592 C1597 1.425 . S
C1592 C1599 1.409 . S
C1593 H1585 0.930 . S
C1593 C1591 1.419 . S
C1593 C1594 1.362 . S
C1594 H1586 0.930 . S
C1594 C1593 1.362 . S
C1594 C1597 1.409 . S
C1595 H1587 0.930 . S
C1595 C1596 1.355 . S
C1595 C1597 1.415 . S
C1596 C1595 1.355 . S
C1596 C1598 1.419 . S
C1597 C1592 1.425 . S
C1597 C1594 1.409 . S
C1597 C1595 1.415 . S
C1598 H1588 0.930 . S
C1598 C1596 1.419 . S
C1598 C1599 1.362 . S
C1599 H1589 0.930 . S
C1599 C1592 1.409 . S
C1599 C1598 1.362 . S
H1600 C1606 0.930 . S
H1601 C1609 0.930 . S
H1602 C1610 0.930 . S
H1603 C1611 0.930 . S
H1604 C1614 0.930 . S
H1605 C1615 0.930 . S
C1606 H1600 0.930 . S
C1606 C1607 1.355 . S
C1606 C1608 1.415 . S
C1607 C1606 1.355 . S
C1607 C1609 1.419 . S
C1608 C1606 1.415 . S
C1608 C1613 1.425 . S
C1608 C1615 1.409 . S
C1609 H1601 0.930 . S
C1609 C1607 1.419 . S
C1609 C1610 1.362 . S
C1610 H1602 0.930 . S
C1610 C1609 1.362 . S
C1610 C1613 1.409 . S
C1611 H1603 0.930 . S
C1611 C1612 1.355 1_554 S
C1611 C1613 1.415 . S
C1612 C1611 1.355 1_556 S
C1612 C1614 1.419 . S
C1613 C1608 1.425 . S
C1613 C1610 1.409 . S
C1613 C1611 1.415 . S
C1614 H1604 0.930 . S
C1614 C1612 1.419 . S
C1614 C1615 1.362 1_556 S
C1615 H1605 0.930 . S
C1615 C1608 1.409 . S
C1615 C1614 1.362 1_554 S
H1616 C1622 0.930 . S
H1617 C1625 0.930 . S
H1618 C1626 0.930 . S
H1619 C1627 0.930 1_655 S
H1620 C1630 0.930 . S
H1621 C1631 0.930 . S
C1622 H1616 0.930 . S
C1622 C1623 1.355 . S
C1622 C1624 1.415 . S
C1623 C1622 1.355 . S
C1623 C1625 1.419 . S
C1624 C1622 1.415 . S
C1624 C1629 1.425 . S
C1624 C1631 1.409 1_655 S
C1625 H1617 0.930 . S
C1625 C1623 1.419 . S
C1625 C1626 1.362 . S
C1626 H1618 0.930 . S
C1626 C1625 1.362 . S
C1626 C1629 1.409 . S
C1627 H1619 0.930 1_455 S
C1627 C1628 1.355 . S
C1627 C1629 1.415 1_455 S
C1628 C1627 1.355 . S
C1628 C1630 1.419 . S
C1629 C1624 1.425 . S
C1629 C1626 1.409 . S
C1629 C1627 1.415 1_655 S
C1630 H1620 0.930 . S
C1630 C1628 1.419 . S
C1630 C1631 1.362 . S
C1631 H1621 0.930 . S
C1631 C1624 1.409 1_455 S
C1631 C1630 1.362 . S
H1632 C1638 0.930 . S
H1633 C1641 0.930 . S
H1634 C1642 0.930 . S
H1635 C1643 0.930 . S
H1636 C1646 0.930 . S
H1637 C1647 0.930 . S
C1638 H1632 0.930 . S
C1638 C1639 1.355 . S
C1638 C1640 1.415 . S
C1639 C1638 1.355 . S
C1639 C1641 1.419 . S
C1640 C1638 1.415 . S
C1640 C1645 1.425 . S
C1640 C1647 1.409 . S
C1641 H1633 0.930 . S
C1641 C1639 1.419 . S
C1641 C1642 1.362 . S
C1642 H1634 0.930 . S
C1642 C1641 1.362 . S
C1642 C1645 1.409 . S
C1643 H1635 0.930 . S
C1643 C1644 1.355 . S
C1643 C1645 1.415 . S
C1644 C1643 1.355 . S
C1644 C1646 1.419 . S
C1645 C1640 1.425 . S
C1645 C1642 1.409 . S
C1645 C1643 1.415 . S
C1646 H1636 0.930 . S
C1646 C1644 1.419 . S
C1646 C1647 1.362 . S
C1647 H1637 0.930 . S
C1647 C1640 1.409 . S
C1647 C1646 1.362 . S
H1648 C1654 0.930 . S
H1649 C1657 0.930 . S
H1650 C1658 0.930 . S
H1651 C1659 0.930 . S
H1652 C1662 0.930 . S
H1653 C1663 0.930 . S
C1654 H1648 0.930 . S
C1654 C1655 1.355 . S
C1654 C1656 1.415 . S
C1655 C1654 1.355 . S
C1655 C1657 1.419 . S
C1656 C1654 1.415 . S
C1656 C1661 1.425 . S
C1656 C1663 1.409 . S
C1657 H1649 0.930 . S
C1657 C1655 1.419 . S
C1657 C1658 1.362 . S
C1658 H1650 0.930 . S
C1658 C1657 1.362 . S
C1658 C1661 1.409 . S
C1659 H1651 0.930 . S
C1659 C1660 1.355 . S
C1659 C1661 1.415 . S
C1660 C1659 1.355 . S
C1660 C1662 1.419 . S
C1661 C1656 1.425 . S
C1661 C1658 1.409 . S
C1661 C1659 1.415 . S
C1662 H1652 0.930 . S
C1662 C1660 1.419 . S
C1662 C1663 1.362 . S
C1663 H1653 0.930 . S
C1663 C1656 1.409 . S
C1663 C1662 1.362 . S
H1664 C1670 0.930 . S
H1665 C1673 0.930 . S
H1666 C1674 0.930 . S
H1667 C1675 0.930 . S
H1668 C1678 0.930 . S
H1669 C1679 0.930 . S
C1670 H1664 0.930 . S
C1670 C1671 1.355 . S
C1670 C1672 1.415 . S
C1671 C1670 1.355 . S
C1671 C1673 1.419 . S
C1672 C1670 1.415 . S
C1672 C1677 1.425 . S
C1672 C1679 1.409 . S
C1673 H1665 0.930 . S
C1673 C1671 1.419 . S
C1673 C1674 1.362 . S
C1674 H1666 0.930 . S
C1674 C1673 1.362 . S
C1674 C1677 1.409 . S
C1675 H1667 0.930 . S
C1675 C1676 1.355 . S
C1675 C1677 1.415 . S
C1676 C1675 1.355 . S
C1676 C1678 1.419 . S
C1677 C1672 1.425 . S
C1677 C1674 1.409 . S
C1677 C1675 1.415 . S
C1678 H1668 0.930 . S
C1678 C1676 1.419 . S
C1678 C1679 1.362 . S
C1679 H1669 0.930 . S
C1679 C1672 1.409 . S
C1679 C1678 1.362 . S
H1680 C1686 0.930 . S
H1681 C1689 0.930 . S
H1682 C1690 0.930 . S
H1683 C1691 0.930 . S
H1684 C1694 0.930 . S
H1685 C1695 0.930 . S
C1686 H1680 0.930 . S
C1686 C1687 1.355 . S
C1686 C1688 1.415 . S
C1687 C1686 1.355 . S
C1687 C1689 1.419 . S
C1688 C1686 1.415 . S
C1688 C1693 1.425 . S
C1688 C1695 1.409 . S
C1689 H1681 0.930 . S
C1689 C1687 1.419 . S
C1689 C1690 1.362 . S
C1690 H1682 0.930 . S
C1690 C1689 1.362 . S
C1690 C1693 1.409 . S
C1691 H1683 0.930 . S
C1691 C1692 1.355 . S
C1691 C1693 1.415 . S
C1692 C1691 1.355 . S
C1692 C1694 1.419 . S
C1693 C1688 1.425 . S
C1693 C1690 1.409 . S
C1693 C1691 1.415 . S
C1694 H1684 0.930 . S
C1694 C1692 1.419 . S
C1694 C1695 1.362 . S
C1695 H1685 0.930 . S
C1695 C1688 1.409 . S
C1695 C1694 1.362 . S
H1696 C1702 0.930 . S
H1697 C1705 0.930 . S
H1698 C1706 0.930 . S
H1699 C1707 0.931 . S
H1700 C1710 0.925 1_554 S
H1701 C1711 0.930 . S
C1702 H1696 0.930 . S
C1702 C1703 1.355 . S
C1702 C1704 1.415 . S
C1703 C1702 1.355 . S
C1703 C1705 1.419 . S
C1704 C1702 1.415 . S
C1704 C1709 1.425 . S
C1704 C1711 1.409 . S
C1705 H1697 0.930 . S
C1705 C1703 1.419 . S
C1705 C1706 1.362 . S
C1706 H1698 0.930 . S
C1706 C1705 1.362 . S
C1706 C1709 1.409 . S
C1707 H1699 0.931 . S
C1707 C1708 1.356 . S
C1707 C1709 1.412 1_554 S
C1708 C1707 1.356 . S
C1708 C1710 1.419 1_554 S
C1709 C1704 1.425 . S
C1709 C1706 1.409 . S
C1709 C1707 1.412 1_556 S
C1710 H1700 0.925 1_556 S
C1710 C1708 1.419 1_556 S
C1710 C1711 1.362 . S
C1711 H1701 0.930 . S
C1711 C1704 1.409 . S
C1711 C1710 1.362 . S
H1712 C1718 0.930 . S
H1713 C1721 0.930 . S
H1714 C1722 0.930 . S
H1715 C1723 0.930 . S
H1716 C1726 0.930 . S
H1717 C1727 0.964 . S
C1718 H1712 0.930 . S
C1718 C1719 1.355 . S
C1718 C1720 1.415 . S
C1719 C1718 1.355 . S
C1719 C1721 1.419 . S
C1720 C1718 1.415 . S
C1720 C1725 1.425 1_455 S
C1720 C1727 1.412 . S
C1721 H1713 0.930 . S
C1721 C1719 1.419 . S
C1721 C1722 1.362 1_455 S
C1722 H1714 0.930 . S
C1722 C1721 1.362 1_655 S
C1722 C1725 1.409 . S
C1723 H1715 0.930 . S
C1723 C1724 1.355 . S
C1723 C1725 1.415 . S
C1724 C1723 1.355 . S
C1724 C1726 1.419 . S
C1725 C1720 1.425 1_655 S
C1725 C1722 1.409 . S
C1725 C1723 1.415 . S
C1726 H1716 0.930 . S
C1726 C1724 1.419 . S
C1726 C1727 1.328 1_655 S
C1727 H1717 0.964 . S
C1727 C1720 1.412 . S
C1727 C1726 1.328 1_455 S
H1728 C1734 0.930 . S
H1729 C1737 0.930 . S
H1730 C1738 0.930 . S
H1731 C1739 0.930 . S
H1732 C1742 0.930 . S
H1733 C1743 0.930 . S
C1734 H1728 0.930 . S
C1734 C1735 1.355 1_556 S
C1734 C1736 1.415 . S
C1735 C1734 1.355 1_554 S
C1735 C1737 1.419 . S
C1736 C1734 1.415 . S
C1736 C1741 1.425 . S
C1736 C1743 1.409 . S
C1737 H1729 0.930 . S
C1737 C1735 1.419 . S
C1737 C1738 1.362 1_554 S
C1738 H1730 0.930 . S
C1738 C1737 1.362 1_556 S
C1738 C1741 1.409 . S
C1739 H1731 0.930 . S
C1739 C1740 1.355 . S
C1739 C1741 1.415 . S
C1740 C1739 1.355 . S
C1740 C1742 1.419 . S
C1741 C1736 1.425 . S
C1741 C1738 1.409 . S
C1741 C1739 1.415 . S
C1742 H1732 0.930 . S
C1742 C1740 1.419 . S
C1742 C1743 1.362 . S
C1743 H1733 0.930 . S
C1743 C1736 1.409 . S
C1743 C1742 1.362 . S
H1744 C1750 0.930 . S
H1745 C1753 0.930 . S
H1746 C1754 0.930 . S
H1747 C1755 0.930 . S
H1748 C1758 0.934 . S
H1749 C1759 0.930 . S
C1750 H1744 0.930 . S
C1750 C1751 1.355 . S
C1750 C1752 1.415 . S
C1751 C1750 1.355 . S
C1751 C1753 1.419 . S
C1752 C1750 1.415 . S
C1752 C1757 1.425 1_455 S
C1752 C1759 1.409 . S
C1753 H1745 0.930 . S
C1753 C1751 1.419 . S
C1753 C1754 1.362 1_455 S
C1754 H1746 0.930 . S
C1754 C1753 1.362 1_655 S
C1754 C1757 1.409 . S
C1755 H1747 0.930 . S
C1755 C1756 1.355 . S
C1755 C1757 1.415 . S
C1756 C1755 1.355 . S
C1756 C1758 1.419 . S
C1757 C1752 1.425 1_655 S
C1757 C1754 1.409 . S
C1757 C1755 1.415 . S
C1758 H1748 0.934 . S
C1758 C1756 1.419 . S
C1758 C1759 1.362 1_655 S
C1759 H1749 0.930 . S
C1759 C1752 1.409 . S
C1759 C1758 1.362 1_455 S
H1760 C1766 0.930 . S
H1761 C1769 0.930 . S
H1762 C1770 0.930 . S
H1763 C1771 0.930 . S
H1764 C1774 0.930 . S
H1765 C1775 0.930 . S
C1766 H1760 0.930 . S
C1766 C1767 1.355 . S
C1766 C1768 1.415 . S
C1767 C1766 1.355 . S
C1767 C1769 1.419 . S
C1768 C1766 1.415 . S
C1768 C1773 1.425 . S
C1768 C1775 1.409 . S
C1769 H1761 0.930 . S
C1769 C1767 1.419 . S
C1769 C1770 1.362 . S
C1770 H1762 0.930 . S
C1770 C1769 1.362 . S
C1770 C1773 1.409 . S
C1771 H1763 0.930 . S
C1771 C1772 1.355 . S
C1771 C1773 1.415 . S
C1772 C1771 1.355 . S
C1772 C1774 1.419 . S
C1773 C1768 1.425 . S
C1773 C1770 1.409 . S
C1773 C1771 1.415 . S
C1774 H1764 0.930 . S
C1774 C1772 1.419 . S
C1774 C1775 1.362 . S
C1775 H1765 0.930 . S
C1775 C1768 1.409 . S
C1775 C1774 1.362 . S
H1776 C1782 0.930 . S
H1777 C1785 0.930 . S
H1778 C1786 0.930 . S
H1779 C1787 0.930 . S
H1780 C1790 0.930 . S
H1781 C1791 0.930 . S
C1782 H1776 0.930 . S
C1782 C1783 1.355 . S
C1782 C1784 1.415 . S
C1783 C1782 1.355 . S
C1783 C1785 1.419 . S
C1784 C1782 1.415 . S
C1784 C1789 1.425 . S
C1784 C1791 1.409 . S
C1785 H1777 0.930 . S
C1785 C1783 1.419 . S
C1785 C1786 1.362 . S
C1786 H1778 0.930 . S
C1786 C1785 1.362 . S
C1786 C1789 1.409 . S
C1787 H1779 0.930 . S
C1787 C1788 1.355 . S
C1787 C1789 1.415 . S
C1788 C1787 1.355 . S
C1788 C1790 1.419 . S
C1789 C1784 1.425 . S
C1789 C1786 1.409 . S
C1789 C1787 1.415 . S
C1790 H1780 0.930 . S
C1790 C1788 1.419 . S
C1790 C1791 1.362 . S
C1791 H1781 0.930 . S
C1791 C1784 1.409 . S
C1791 C1790 1.362 . S
H1792 C1798 0.930 . S
H1793 C1801 0.930 . S
H1794 C1802 0.930 . S
H1795 C1803 0.930 . S
H1796 C1806 0.930 . S
H1797 C1807 0.930 . S
C1798 H1792 0.930 . S
C1798 C1799 1.355 . S
C1798 C1800 1.415 . S
C1799 C1798 1.355 . S
C1799 C1801 1.419 . S
C1800 C1798 1.415 . S
C1800 C1805 1.425 . S
C1800 C1807 1.409 . S
C1801 H1793 0.930 . S
C1801 C1799 1.419 . S
C1801 C1802 1.362 . S
C1802 H1794 0.930 . S
C1802 C1801 1.362 . S
C1802 C1805 1.409 . S
C1803 H1795 0.930 . S
C1803 C1804 1.355 . S
C1803 C1805 1.415 . S
C1804 C1803 1.355 . S
C1804 C1806 1.419 . S
C1805 C1800 1.425 . S
C1805 C1802 1.409 . S
C1805 C1803 1.415 . S
C1806 H1796 0.930 . S
C1806 C1804 1.419 . S
C1806 C1807 1.362 . S
C1807 H1797 0.930 . S
C1807 C1800 1.409 . S
C1807 C1806 1.362 . S
H1808 C1814 0.930 . S
H1809 C1817 0.930 . S
H1810 C1818 0.930 . S
H1811 C1819 0.930 . S
H1812 C1822 0.930 . S
H1813 C1823 0.930 . S
C1814 H1808 0.930 . S
C1814 C1815 1.355 . S
C1814 C1816 1.415 . S
C1815 C1814 1.355 . S
C1815 C1817 1.419 . S
C1816 C1814 1.415 . S
C1816 C1821 1.425 . S
C1816 C1823 1.409 . S
C1817 H1809 0.930 . S
C1817 C1815 1.419 . S
C1817 C1818 1.362 . S
C1818 H1810 0.930 . S
C1818 C1817 1.362 . S
C1818 C1821 1.409 . S
C1819 H1811 0.930 . S
C1819 C1820 1.355 . S
C1819 C1821 1.415 . S
C1820 C1819 1.355 . S
C1820 C1822 1.419 . S
C1821 C1816 1.425 . S
C1821 C1818 1.409 . S
C1821 C1819 1.415 . S
C1822 H1812 0.930 . S
C1822 C1820 1.419 . S
C1822 C1823 1.362 . S
C1823 H1813 0.930 . S
C1823 C1816 1.409 . S
C1823 C1822 1.362 . S
H1824 C1830 0.930 . S
H1825 C1833 0.930 . S
H1826 C1834 0.930 . S
H1827 C1835 0.930 . S
H1828 C1838 0.930 . S
H1829 C1839 0.930 . S
C1830 H1824 0.930 . S
C1830 C1831 1.355 1_554 S
C1830 C1832 1.415 . S
C1831 C1830 1.355 1_556 S
C1831 C1833 1.419 . S
C1832 C1830 1.415 . S
C1832 C1837 1.425 . S
C1832 C1839 1.409 . S
C1833 H1825 0.930 . S
C1833 C1831 1.419 . S
C1833 C1834 1.362 . S
C1834 H1826 0.930 . S
C1834 C1833 1.362 . S
C1834 C1837 1.409 1_556 S
C1835 H1827 0.930 . S
C1835 C1836 1.355 . S
C1835 C1837 1.415 . S
C1836 C1835 1.355 . S
C1836 C1838 1.419 . S
C1837 C1832 1.425 . S
C1837 C1834 1.409 1_554 S
C1837 C1835 1.415 . S
C1838 H1828 0.930 . S
C1838 C1836 1.419 . S
C1838 C1839 1.362 . S
C1839 H1829 0.930 . S
C1839 C1832 1.409 . S
C1839 C1838 1.362 . S
H1840 C1846 0.930 . S
H1841 C1849 0.930 . S
H1842 C1850 0.930 . S
H1843 C1851 0.930 . S
H1844 C1854 0.930 . S
H1845 C1855 0.930 . S
C1846 H1840 0.930 . S
C1846 C1847 1.355 . S
C1846 C1848 1.415 . S
C1847 C1846 1.355 . S
C1847 C1849 1.419 . S
C1848 C1846 1.415 . S
C1848 C1853 1.425 1_455 S
C1848 C1855 1.409 . S
C1849 H1841 0.930 . S
C1849 C1847 1.419 . S
C1849 C1850 1.362 1_455 S
C1850 H1842 0.930 . S
C1850 C1849 1.362 1_655 S
C1850 C1853 1.409 . S
C1851 H1843 0.930 . S
C1851 C1852 1.355 . S
C1851 C1853 1.415 . S
C1852 C1851 1.355 . S
C1852 C1854 1.419 . S
C1853 C1848 1.425 1_655 S
C1853 C1850 1.409 . S
C1853 C1851 1.415 . S
C1854 H1844 0.930 . S
C1854 C1852 1.419 . S
C1854 C1855 1.362 1_655 S
C1855 H1845 0.930 . S
C1855 C1848 1.409 . S
C1855 C1854 1.362 1_455 S
H1856 C1862 0.930 . S
H1857 C1865 0.930 . S
H1858 C1866 0.930 . S
H1859 C1867 0.930 . S
H1860 C1870 0.930 . S
H1861 C1871 0.930 . S
C1862 H1856 0.930 . S
C1862 C1863 1.355 . S
C1862 C1864 1.415 . S
C1863 C1862 1.355 . S
C1863 C1865 1.419 . S
C1864 C1862 1.415 . S
C1864 C1869 1.425 . S
C1864 C1871 1.409 . S
C1865 H1857 0.930 . S
C1865 C1863 1.419 . S
C1865 C1866 1.362 . S
C1866 H1858 0.930 . S
C1866 C1865 1.362 . S
C1866 C1869 1.409 . S
C1867 H1859 0.930 . S
C1867 C1868 1.355 . S
C1867 C1869 1.415 . S
C1868 C1867 1.355 . S
C1868 C1870 1.419 . S
C1869 C1864 1.425 . S
C1869 C1866 1.409 . S
C1869 C1867 1.415 . S
C1870 H1860 0.930 . S
C1870 C1868 1.419 . S
C1870 C1871 1.362 . S
C1871 H1861 0.930 . S
C1871 C1864 1.409 . S
C1871 C1870 1.362 . S
H1872 C1878 0.930 . S
H1873 C1881 0.930 . S
H1874 C1882 0.930 . S
H1875 C1883 0.930 . S
H1876 C1886 0.930 . S
H1877 C1887 0.930 . S
C1878 H1872 0.930 . S
C1878 C1879 1.355 . S
C1878 C1880 1.415 . S
C1879 C1878 1.355 . S
C1879 C1881 1.419 . S
C1880 C1878 1.415 . S
C1880 C1885 1.425 . S
C1880 C1887 1.409 . S
C1881 H1873 0.930 . S
C1881 C1879 1.419 . S
C1881 C1882 1.362 . S
C1882 H1874 0.930 . S
C1882 C1881 1.362 . S
C1882 C1885 1.409 . S
C1883 H1875 0.930 . S
C1883 C1884 1.355 . S
C1883 C1885 1.415 . S
C1884 C1883 1.355 . S
C1884 C1886 1.419 . S
C1885 C1880 1.425 . S
C1885 C1882 1.409 . S
C1885 C1883 1.415 . S
C1886 H1876 0.930 . S
C1886 C1884 1.419 . S
C1886 C1887 1.362 . S
C1887 H1877 0.930 . S
C1887 C1880 1.409 . S
C1887 C1886 1.362 . S
H1888 C1894 0.930 . S
H1889 C1897 0.930 . S
H1890 C1898 0.930 . S
H1891 C1899 0.930 1_556 S
H1892 C1902 0.930 1_556 S
H1893 C1903 0.930 . S
C1894 H1888 0.930 . S
C1894 C1895 1.355 . S
C1894 C1896 1.415 . S
C1895 C1894 1.355 . S
C1895 C1897 1.419 . S
C1896 C1894 1.415 . S
C1896 C1901 1.425 . S
C1896 C1903 1.409 . S
C1897 H1889 0.930 . S
C1897 C1895 1.419 . S
C1897 C1898 1.362 . S
C1898 H1890 0.930 . S
C1898 C1897 1.362 . S
C1898 C1901 1.409 . S
C1899 H1891 0.930 1_554 S
C1899 C1900 1.355 1_554 S
C1899 C1901 1.415 . S
C1900 C1899 1.355 1_556 S
C1900 C1902 1.419 1_556 S
C1901 C1896 1.425 . S
C1901 C1898 1.409 . S
C1901 C1899 1.415 . S
C1902 H1892 0.930 1_554 S
C1902 C1900 1.419 1_554 S
C1902 C1903 1.362 . S
C1903 H1893 0.930 . S
C1903 C1896 1.409 . S
C1903 C1902 1.362 . S
H1904 C1910 0.930 . S
H1905 C1913 0.930 . S
H1906 C1914 0.930 . S
H1907 C1915 0.930 . S
H1908 C1918 0.930 . S
H1909 C1919 0.930 . S
C1910 H1904 0.930 . S
C1910 C1911 1.355 . S
C1910 C1912 1.415 1_655 S
C1911 C1910 1.355 . S
C1911 C1913 1.419 . S
C1912 C1910 1.415 1_455 S
C1912 C1917 1.425 . S
C1912 C1919 1.409 . S
C1913 H1905 0.930 . S
C1913 C1911 1.419 . S
C1913 C1914 1.362 1_655 S
C1914 H1906 0.930 . S
C1914 C1913 1.362 1_455 S
C1914 C1917 1.409 . S
C1915 H1907 0.930 . S
C1915 C1916 1.355 . S
C1915 C1917 1.415 . S
C1916 C1915 1.355 . S
C1916 C1918 1.419 . S
C1917 C1912 1.425 . S
C1917 C1914 1.409 . S
C1917 C1915 1.415 . S
C1918 H1908 0.930 . S
C1918 C1916 1.419 . S
C1918 C1919 1.362 . S
C1919 H1909 0.930 . S
C1919 C1912 1.409 . S
C1919 C1918 1.362 . S
H1920 C1926 0.930 . S
H1921 C1929 0.930 . S
H1922 C1930 0.930 . S
H1923 C1931 0.930 . S
H1924 C1934 0.930 . S
H1925 C1935 0.930 1_554 S
C1926 H1920 0.930 . S
C1926 C1927 1.355 . S
C1926 C1928 1.415 1_554 S
C1927 C1926 1.355 . S
C1927 C1929 1.419 1_554 S
C1928 C1926 1.415 1_556 S
C1928 C1933 1.425 . S
C1928 C1935 1.409 . S
C1929 H1921 0.930 . S
C1929 C1927 1.419 1_556 S
C1929 C1930 1.362 . S
C1930 H1922 0.930 . S
C1930 C1929 1.362 . S
C1930 C1933 1.409 . S
C1931 H1923 0.930 . S
C1931 C1932 1.355 . S
C1931 C1933 1.415 . S
C1932 C1931 1.355 . S
C1932 C1934 1.419 . S
C1933 C1928 1.425 . S
C1933 C1930 1.409 . S
C1933 C1931 1.415 . S
C1934 H1924 0.930 . S
C1934 C1932 1.419 . S
C1934 C1935 1.362 . S
C1935 H1925 0.930 1_556 S
C1935 C1928 1.409 . S
C1935 C1934 1.362 . S
H1936 C1942 0.930 . S
H1937 C1945 0.930 . S
H1938 C1946 0.930 . S
H1939 C1947 0.930 . S
H1940 C1950 0.930 . S
H1941 C1951 0.930 . S
C1942 H1936 0.930 . S
C1942 C1943 1.355 . S
C1942 C1944 1.415 . S
C1943 C1942 1.355 . S
C1943 C1945 1.419 . S
C1944 C1942 1.415 . S
C1944 C1949 1.425 1_655 S
C1944 C1951 1.409 . S
C1945 H1937 0.930 . S
C1945 C1943 1.419 . S
C1945 C1946 1.362 1_655 S
C1946 H1938 0.930 . S
C1946 C1945 1.362 1_455 S
C1946 C1949 1.409 . S
C1947 H1939 0.930 . S
C1947 C1948 1.355 . S
C1947 C1949 1.415 . S
C1948 C1947 1.355 . S
C1948 C1950 1.419 . S
C1949 C1944 1.425 1_455 S
C1949 C1946 1.409 . S
C1949 C1947 1.415 . S
C1950 H1940 0.930 . S
C1950 C1948 1.419 . S
C1950 C1951 1.362 1_455 S
C1951 H1941 0.930 . S
C1951 C1944 1.409 . S
C1951 C1950 1.362 1_655 S
H1952 C1958 0.930 . S
H1953 C1961 0.930 . S
H1954 C1962 0.930 . S
H1955 C1963 0.930 . S
H1956 C1966 0.930 . S
H1957 C1967 0.930 . S
C1958 H1952 0.930 . S
C1958 C1959 1.355 . S
C1958 C1960 1.415 . S
C1959 C1958 1.355 . S
C1959 C1961 1.419 . S
C1960 C1958 1.415 . S
C1960 C1965 1.425 . S
C1960 C1967 1.409 . S
C1961 H1953 0.930 . S
C1961 C1959 1.419 . S
C1961 C1962 1.362 . S
C1962 H1954 0.930 . S
C1962 C1961 1.362 . S
C1962 C1965 1.409 . S
C1963 H1955 0.930 . S
C1963 C1964 1.355 . S
C1963 C1965 1.415 . S
C1964 C1963 1.355 . S
C1964 C1966 1.419 . S
C1965 C1960 1.425 . S
C1965 C1962 1.409 . S
C1965 C1963 1.415 . S
C1966 H1956 0.930 . S
C1966 C1964 1.419 . S
C1966 C1967 1.362 . S
C1967 H1957 0.930 . S
C1967 C1960 1.409 . S
C1967 C1966 1.362 . S
H1968 C1974 0.930 . S
H1969 C1977 0.930 . S
H1970 C1978 0.930 . S
H1971 C1979 0.930 . S
H1972 C1982 0.930 . S
H1973 C1983 0.930 . S
C1974 H1968 0.930 . S
C1974 C1975 1.355 . S
C1974 C1976 1.415 . S
C1975 C1974 1.355 . S
C1975 C1977 1.419 . S
C1976 C1974 1.415 . S
C1976 C1981 1.425 . S
C1976 C1983 1.409 . S
C1977 H1969 0.930 . S
C1977 C1975 1.419 . S
C1977 C1978 1.362 . S
C1978 H1970 0.930 . S
C1978 C1977 1.362 . S
C1978 C1981 1.409 . S
C1979 H1971 0.930 . S
C1979 C1980 1.355 . S
C1979 C1981 1.415 . S
C1980 C1979 1.355 . S
C1980 C1982 1.419 . S
C1981 C1976 1.425 . S
C1981 C1978 1.409 . S
C1981 C1979 1.415 . S
C1982 H1972 0.930 . S
C1982 C1980 1.419 . S
C1982 C1983 1.362 . S
C1983 H1973 0.930 . S
C1983 C1976 1.409 . S
C1983 C1982 1.362 . S
H1984 C1990 0.930 . S
H1985 C1993 0.930 . S
H1986 C1994 0.930 . S
H1987 C1995 0.930 . S
H1988 C1998 0.930 . S
H1989 C1999 0.930 . S
C1990 H1984 0.930 . S
C1990 C1991 1.355 . S
C1990 C1992 1.415 . S
C1991 C1990 1.355 . S
C1991 C1993 1.419 . S
C1992 C1990 1.415 . S
C1992 C1997 1.425 . S
C1992 C1999 1.409 . S
C1993 H1985 0.930 . S
C1993 C1991 1.419 . S
C1993 C1994 1.362 . S
C1994 H1986 0.930 . S
C1994 C1993 1.362 . S
C1994 C1997 1.409 . S
C1995 H1987 0.930 . S
C1995 C1996 1.355 . S
C1995 C1997 1.415 . S
C1996 C1995 1.355 . S
C1996 C1998 1.419 . S
C1997 C1992 1.425 . S
C1997 C1994 1.409 . S
C1997 C1995 1.415 . S
C1998 H1988 0.930 . S
C1998 C1996 1.419 . S
C1998 C1999 1.362 . S
C1999 H1989 0.930 . S
C1999 C1992 1.409 . S
C1999 C1998 1.362 . S
H2000 C2006 0.930 . S
H2001 C2009 0.930 . S
H2002 C2010 0.930 . S
H2003 C2011 0.930 . S
H2004 C2014 0.930 . S
H2005 C2015 0.930 . S
C2006 H2000 0.930 . S
C2006 C2007 1.355 . S
C2006 C2008 1.415 . S
C2007 C2006 1.355 . S
C2007 C2009 1.419 . S
C2008 C2006 1.415 . S
C2008 C2013 1.425 . S
C2008 C2015 1.409 . S
C2009 H2001 0.930 . S
C2009 C2007 1.419 . S
C2009 C2010 1.362 . S
C2010 H2002 0.930 . S
C2010 C2009 1.362 . S
C2010 C2013 1.409 . S
C2011 H2003 0.930 . S
C2011 C2012 1.355 . S
C2011 C2013 1.415 . S
C2012 C2011 1.355 . S
C2012 C2014 1.419 . S
C2013 C2008 1.425 . S
C2013 C2010 1.409 . S
C2013 C2011 1.415 . S
C2014 H2004 0.930 . S
C2014 C2012 1.419 . S
C2014 C2015 1.362 . S
C2015 H2005 0.930 . S
C2015 C2008 1.409 . S
C2015 C2014 1.362 . S
H2016 C2022 0.930 . S
H2017 C2025 0.930 . S
H2018 C2026 0.930 . S
H2019 C2027 0.930 1_554 S
H2020 C2030 0.932 . S
H2021 C2031 0.930 . S
C2022 H2016 0.930 . S
C2022 C2023 1.355 . S
C2022 C2024 1.415 . S
C2023 C2022 1.355 . S
C2023 C2025 1.419 . S
C2024 C2022 1.415 . S
C2024 C2029 1.425 . S
C2024 C2031 1.409 . S
C2025 H2017 0.930 . S
C2025 C2023 1.419 . S
C2025 C2026 1.362 . S
C2026 H2018 0.930 . S
C2026 C2025 1.362 . S
C2026 C2029 1.409 . S
C2027 H2019 0.930 1_556 S
C2027 C2028 1.355 1_556 S
C2027 C2029 1.415 . S
C2028 C2027 1.355 1_554 S
C2028 C2030 1.421 . S
C2029 C2024 1.425 . S
C2029 C2026 1.409 . S
C2029 C2027 1.415 . S
C2030 H2020 0.932 . S
C2030 C2028 1.421 . S
C2030 C2031 1.358 1_554 S
C2031 H2021 0.930 . S
C2031 C2024 1.409 . S
C2031 C2030 1.358 1_556 S
H2032 C2038 0.930 . S
H2033 C2041 0.930 . S
H2034 C2042 0.930 1_455 S
H2035 C2043 0.930 . S
H2036 C2046 0.930 . S
H2037 C2047 0.930 . S
C2038 H2032 0.930 . S
C2038 C2039 1.355 . S
C2038 C2040 1.415 . S
C2039 C2038 1.355 . S
C2039 C2041 1.419 . S
C2040 C2038 1.415 . S
C2040 C2045 1.418 1_655 S
C2040 C2047 1.409 . S
C2041 H2033 0.930 . S
C2041 C2039 1.419 . S
C2041 C2042 1.362 . S
C2042 H2034 0.930 1_655 S
C2042 C2041 1.362 . S
C2042 C2045 1.407 1_655 S
C2043 H2035 0.930 . S
C2043 C2044 1.355 . S
C2043 C2045 1.423 . S
C2044 C2043 1.355 . S
C2044 C2046 1.419 . S
C2045 C2040 1.418 1_455 S
C2045 C2042 1.407 1_455 S
C2045 C2043 1.423 . S
C2046 H2036 0.930 . S
C2046 C2044 1.419 . S
C2046 C2047 1.362 1_455 S
C2047 H2037 0.930 . S
C2047 C2040 1.409 . S
C2047 C2046 1.362 1_655 S
H2048 C2054 0.930 . S
H2049 C2057 0.930 . S
H2050 C2058 0.930 . S
H2051 C2059 0.930 . S
H2052 C2062 0.930 . S
H2053 C2063 0.930 . S
C2054 H2048 0.930 . S
C2054 C2055 1.355 1_554 S
C2054 C2056 1.415 . S
C2055 C2054 1.355 1_556 S
C2055 C2057 1.419 . S
C2056 C2054 1.415 . S
C2056 C2061 1.425 . S
C2056 C2063 1.409 . S
C2057 H2049 0.930 . S
C2057 C2055 1.419 . S
C2057 C2058 1.362 1_556 S
C2058 H2050 0.930 . S
C2058 C2057 1.362 1_554 S
C2058 C2061 1.409 . S
C2059 H2051 0.930 . S
C2059 C2060 1.355 . S
C2059 C2061 1.415 . S
C2060 C2059 1.355 . S
C2060 C2062 1.419 . S
C2061 C2056 1.425 . S
C2061 C2058 1.409 . S
C2061 C2059 1.415 . S
C2062 H2052 0.930 . S
C2062 C2060 1.419 . S
C2062 C2063 1.362 . S
C2063 H2053 0.930 . S
C2063 C2056 1.409 . S
C2063 C2062 1.362 . S
H2064 C2070 0.930 . S
H2065 C2073 0.930 . S
H2066 C2074 0.930 . S
H2067 C2075 0.930 . S
H2068 C2078 0.930 . S
H2069 C2079 0.930 . S
C2070 H2064 0.930 . S
C2070 C2071 1.355 . S
C2070 C2072 1.415 1_455 S
C2071 C2070 1.355 . S
C2071 C2073 1.419 . S
C2072 C2070 1.415 1_655 S
C2072 C2077 1.425 . S
C2072 C2079 1.409 . S
C2073 H2065 0.930 . S
C2073 C2071 1.419 . S
C2073 C2074 1.362 . S
C2074 H2066 0.930 . S
C2074 C2073 1.362 . S
C2074 C2077 1.409 1_455 S
C2075 H2067 0.930 . S
C2075 C2076 1.355 . S
C2075 C2077 1.415 . S
C2076 C2075 1.355 . S
C2076 C2078 1.419 . S
C2077 C2072 1.425 . S
C2077 C2074 1.409 1_655 S
C2077 C2075 1.415 . S
C2078 H2068 0.930 . S
C2078 C2076 1.419 . S
C2078 C2079 1.362 . S
C2079 H2069 0.930 . S
C2079 C2072 1.409 . S
C2079 C2078 1.362 . S
H2080 C2086 0.930 . S
H2081 C2089 0.930 . S
H2082 C2090 0.930 . S
H2083 C2091 0.930 . S
H2084 C2094 0.930 . S
H2085 C2095 0.930 . S
C2086 H2080 0.930 . S
C2086 C2087 1.355 . S
C2086 C2088 1.415 . S
C2087 C2086 1.355 . S
C2087 C2089 1.419 . S
C2088 C2086 1.415 . S
C2088 C2093 1.425 . S
C2088 C2095 1.409 . S
C2089 H2081 0.930 . S
C2089 C2087 1.419 . S
C2089 C2090 1.362 . S
C2090 H2082 0.930 . S
C2090 C2089 1.362 . S
C2090 C2093 1.409 . S
C2091 H2083 0.930 . S
C2091 C2092 1.355 . S
C2091 C2093 1.415 . S
C2092 C2091 1.355 . S
C2092 C2094 1.419 . S
C2093 C2088 1.425 . S
C2093 C2090 1.409 . S
C2093 C2091 1.415 . S
C2094 H2084 0.930 . S
C2094 C2092 1.419 . S
C2094 C2095 1.362 . S
C2095 H2085 0.930 . S
C2095 C2088 1.409 . S
C2095 C2094 1.362 . S
H2096 C2102 0.930 . S
H2097 C2105 0.930 . S
H2098 C2106 0.930 . S
H2099 C2107 0.930 . S
H2100 C2110 0.930 . S
H2101 C2111 0.930 . S
C2102 H2096 0.930 . S
C2102 C2103 1.355 . S
C2102 C2104 1.415 . S
C2103 C2102 1.355 . S
C2103 C2105 1.419 . S
C2104 C2102 1.415 . S
C2104 C2109 1.425 . S
C2104 C2111 1.409 . S
C2105 H2097 0.930 . S
C2105 C2103 1.419 . S
C2105 C2106 1.362 . S
C2106 H2098 0.930 . S
C2106 C2105 1.362 . S
C2106 C2109 1.409 . S
C2107 H2099 0.930 . S
C2107 C2108 1.355 . S
C2107 C2109 1.415 . S
C2108 C2107 1.355 . S
C2108 C2110 1.419 . S
C2109 C2104 1.425 . S
C2109 C2106 1.409 . S
C2109 C2107 1.415 . S
C2110 H2100 0.930 . S
C2110 C2108 1.419 . S
C2110 C2111 1.362 . S
C2111 H2101 0.930 . S
C2111 C2104 1.409 . S
C2111 C2110 1.362 . S
H2112 C2118 0.930 . S
H2113 C2121 0.930 . S
H2114 C2122 0.930 . S
H2115 C2123 0.930 . S
H2116 C2126 0.930 . S
H2117 C2127 0.930 . S
C2118 H2112 0.930 . S
C2118 C2119 1.355 . S
C2118 C2120 1.415 . S
C2119 C2118 1.355 . S
C2119 C2121 1.419 . S
C2120 C2118 1.415 . S
C2120 C2125 1.425 . S
C2120 C2127 1.409 . S
C2121 H2113 0.930 . S
C2121 C2119 1.419 . S
C2121 C2122 1.362 . S
C2122 H2114 0.930 . S
C2122 C2121 1.362 . S
C2122 C2125 1.409 . S
C2123 H2115 0.930 . S
C2123 C2124 1.355 . S
C2123 C2125 1.415 . S
C2124 C2123 1.355 . S
C2124 C2126 1.419 . S
C2125 C2120 1.425 . S
C2125 C2122 1.409 . S
C2125 C2123 1.415 . S
C2126 H2116 0.930 . S
C2126 C2124 1.419 . S
C2126 C2127 1.362 . S
C2127 H2117 0.930 . S
C2127 C2120 1.409 . S
C2127 C2126 1.362 . S
H2128 C2134 0.930 . S
H2129 C2137 0.930 . S
H2130 C2138 0.930 . S
H2131 C2139 0.930 . S
H2132 C2142 0.930 . S
H2133 C2143 0.930 . S
C2134 H2128 0.930 . S
C2134 C2135 1.355 . S
C2134 C2136 1.415 . S
C2135 C2134 1.355 . S
C2135 C2137 1.419 . S
C2136 C2134 1.415 . S
C2136 C2141 1.425 . S
C2136 C2143 1.409 . S
C2137 H2129 0.930 . S
C2137 C2135 1.419 . S
C2137 C2138 1.362 . S
C2138 H2130 0.930 . S
C2138 C2137 1.362 . S
C2138 C2141 1.409 . S
C2139 H2131 0.930 . S
C2139 C2140 1.355 . S
C2139 C2141 1.415 . S
C2140 C2139 1.355 . S
C2140 C2142 1.419 . S
C2141 C2136 1.425 . S
C2141 C2138 1.409 . S
C2141 C2139 1.415 . S
C2142 H2132 0.930 . S
C2142 C2140 1.419 . S
C2142 C2143 1.362 . S
C2143 H2133 0.930 . S
C2143 C2136 1.409 . S
C2143 C2142 1.362 . S
H2144 C2150 0.930 . S
H2145 C2153 0.930 . S
H2146 C2154 0.930 . S
H2147 C2155 0.930 . S
H2148 C2158 0.930 . S
H2149 C2159 0.930 . S
C2150 H2144 0.930 . S
C2150 C2151 1.355 . S
C2150 C2152 1.415 . S
C2151 C2150 1.355 . S
C2151 C2153 1.419 . S
C2152 C2150 1.415 . S
C2152 C2157 1.425 . S
C2152 C2159 1.409 . S
C2153 H2145 0.930 . S
C2153 C2151 1.419 . S
C2153 C2154 1.362 . S
C2154 H2146 0.930 . S
C2154 C2153 1.362 . S
C2154 C2157 1.409 . S
C2155 H2147 0.930 . S
C2155 C2156 1.355 . S
C2155 C2157 1.415 . S
C2156 C2155 1.355 . S
C2156 C2158 1.419 . S
C2157 C2152 1.425 . S
C2157 C2154 1.409 . S
C2157 C2155 1.415 . S
C2158 H2148 0.930 . S
C2158 C2156 1.419 . S
C2158 C2159 1.362 . S
C2159 H2149 0.930 . S
C2159 C2152 1.409 . S
C2159 C2158 1.362 . S
H2160 C2166 0.930 . S
H2161 C2169 0.930 . S
H2162 C2170 0.930 . S
H2163 C2171 0.930 . S
H2164 C2174 0.930 . S
H2165 C2175 0.930 . S
C2166 H2160 0.930 . S
C2166 C2167 1.355 . S
C2166 C2168 1.415 . S
C2167 C2166 1.355 . S
C2167 C2169 1.419 . S
C2168 C2166 1.415 . S
C2168 C2173 1.425 . S
C2168 C2175 1.409 . S
C2169 H2161 0.930 . S
C2169 C2167 1.419 . S
C2169 C2170 1.362 . S
C2170 H2162 0.930 . S
C2170 C2169 1.362 . S
C2170 C2173 1.409 . S
C2171 H2163 0.930 . S
C2171 C2172 1.355 . S
C2171 C2173 1.415 . S
C2172 C2171 1.355 . S
C2172 C2174 1.419 . S
C2173 C2168 1.425 . S
C2173 C2170 1.409 . S
C2173 C2171 1.415 . S
C2174 H2164 0.930 . S
C2174 C2172 1.419 . S
C2174 C2175 1.362 . S
C2175 H2165 0.930 . S
C2175 C2168 1.409 . S
C2175 C2174 1.362 . S
H2176 C2182 0.930 . S
H2177 C2185 0.930 . S
H2178 C2186 0.930 . S
H2179 C2187 0.930 . S
H2180 C2190 0.930 . S
H2181 C2191 0.930 . S
C2182 H2176 0.930 . S
C2182 C2183 1.355 . S
C2182 C2184 1.415 . S
C2183 C2182 1.355 . S
C2183 C2185 1.419 . S
C2184 C2182 1.415 . S
C2184 C2189 1.425 . S
C2184 C2191 1.409 . S
C2185 H2177 0.930 . S
C2185 C2183 1.419 . S
C2185 C2186 1.362 . S
C2186 H2178 0.930 . S
C2186 C2185 1.362 . S
C2186 C2189 1.409 . S
C2187 H2179 0.930 . S
C2187 C2188 1.355 . S
C2187 C2189 1.415 . S
C2188 C2187 1.355 . S
C2188 C2190 1.419 . S
C2189 C2184 1.425 . S
C2189 C2186 1.409 . S
C2189 C2187 1.415 . S
C2190 H2180 0.930 . S
C2190 C2188 1.419 . S
C2190 C2191 1.362 . S
C2191 H2181 0.930 . S
C2191 C2184 1.409 . S
C2191 C2190 1.362 . S
H2192 C2198 0.930 . S
H2193 C2201 0.930 . S
H2194 C2202 0.930 . S
H2195 C2203 0.930 . S
H2196 C2206 0.930 . S
H2197 C2207 0.930 . S
C2198 H2192 0.930 . S
C2198 C2199 1.355 . S
C2198 C2200 1.415 . S
C2199 C2198 1.355 . S
C2199 C2201 1.419 . S
C2200 C2198 1.415 . S
C2200 C2205 1.425 . S
C2200 C2207 1.409 . S
C2201 H2193 0.930 . S
C2201 C2199 1.419 . S
C2201 C2202 1.362 . S
C2202 H2194 0.930 . S
C2202 C2201 1.362 . S
C2202 C2205 1.409 . S
C2203 H2195 0.930 . S
C2203 C2204 1.355 . S
C2203 C2205 1.415 . S
C2204 C2203 1.355 . S
C2204 C2206 1.419 . S
C2205 C2200 1.425 . S
C2205 C2202 1.409 . S
C2205 C2203 1.415 . S
C2206 H2196 0.930 . S
C2206 C2204 1.419 . S
C2206 C2207 1.362 . S
C2207 H2197 0.930 . S
C2207 C2200 1.409 . S
C2207 C2206 1.362 . S
H2208 C2214 0.930 . S
H2209 C2217 0.930 . S
H2210 C2218 0.930 . S
H2211 C2219 0.930 . S
H2212 C2222 0.930 . S
H2213 C2223 0.930 . S
C2214 H2208 0.930 . S
C2214 C2215 1.355 . S
C2214 C2216 1.415 . S
C2215 C2214 1.355 . S
C2215 C2217 1.419 . S
C2216 C2214 1.415 . S
C2216 C2221 1.425 . S
C2216 C2223 1.409 . S
C2217 H2209 0.930 . S
C2217 C2215 1.419 . S
C2217 C2218 1.362 . S
C2218 H2210 0.930 . S
C2218 C2217 1.362 . S
C2218 C2221 1.409 . S
C2219 H2211 0.930 . S
C2219 C2220 1.355 . S
C2219 C2221 1.415 . S
C2220 C2219 1.355 . S
C2220 C2222 1.419 . S
C2221 C2216 1.425 . S
C2221 C2218 1.409 . S
C2221 C2219 1.415 . S
C2222 H2212 0.930 . S
C2222 C2220 1.419 . S
C2222 C2223 1.362 . S
C2223 H2213 0.930 . S
C2223 C2216 1.409 . S
C2223 C2222 1.362 . S
H2224 C2230 0.930 . S
H2225 C2233 0.930 . S
H2226 C2234 0.930 . S
H2227 C2235 0.930 . S
H2228 C2238 0.930 . S
H2229 C2239 0.930 . S
C2230 H2224 0.930 . S
C2230 C2231 1.355 . S
C2230 C2232 1.415 . S
C2231 C2230 1.355 . S
C2231 C2233 1.419 . S
C2232 C2230 1.415 . S
C2232 C2237 1.425 . S
C2232 C2239 1.409 . S
C2233 H2225 0.930 . S
C2233 C2231 1.419 . S
C2233 C2234 1.362 . S
C2234 H2226 0.930 . S
C2234 C2233 1.362 . S
C2234 C2237 1.409 . S
C2235 H2227 0.930 . S
C2235 C2236 1.355 . S
C2235 C2237 1.415 . S
C2236 C2235 1.355 . S
C2236 C2238 1.419 . S
C2237 C2232 1.425 . S
C2237 C2234 1.409 . S
C2237 C2235 1.415 . S
C2238 H2228 0.930 . S
C2238 C2236 1.419 . S
C2238 C2239 1.362 . S
C2239 H2229 0.930 . S
C2239 C2232 1.409 . S
C2239 C2238 1.362 . S
H2240 C2246 0.930 . S
H2241 C2249 0.930 . S
H2242 C2250 0.930 . S
H2243 C2251 0.930 . S
H2244 C2254 0.930 . S
H2245 C2255 0.930 . S
C2246 H2240 0.930 . S
C2246 C2247 1.355 . S
C2246 C2248 1.415 . S
C2247 C2246 1.355 . S
C2247 C2249 1.419 . S
C2248 C2246 1.415 . S
C2248 C2253 1.425 . S
C2248 C2255 1.409 . S
C2249 H2241 0.930 . S
C2249 C2247 1.419 . S
C2249 C2250 1.362 . S
C2250 H2242 0.930 . S
C2250 C2249 1.362 . S
C2250 C2253 1.409 . S
C2251 H2243 0.930 . S
C2251 C2252 1.355 . S
C2251 C2253 1.415 . S
C2252 C2251 1.355 . S
C2252 C2254 1.419 . S
C2253 C2248 1.425 . S
C2253 C2250 1.409 . S
C2253 C2251 1.415 . S
C2254 H2244 0.930 . S
C2254 C2252 1.419 . S
C2254 C2255 1.362 . S
C2255 H2245 0.930 . S
C2255 C2248 1.409 . S
C2255 C2254 1.362 . S
H2256 C2262 0.930 . S
H2257 C2265 0.930 . S
H2258 C2266 0.930 . S
H2259 C2267 0.930 . S
H2260 C2270 0.930 . S
H2261 C2271 0.930 . S
C2262 H2256 0.930 . S
C2262 C2263 1.355 . S
C2262 C2264 1.415 . S
C2263 C2262 1.355 . S
C2263 C2265 1.419 . S
C2264 C2262 1.415 . S
C2264 C2269 1.425 . S
C2264 C2271 1.409 . S
C2265 H2257 0.930 . S
C2265 C2263 1.419 . S
C2265 C2266 1.362 . S
C2266 H2258 0.930 . S
C2266 C2265 1.362 . S
C2266 C2269 1.409 . S
C2267 H2259 0.930 . S
C2267 C2268 1.355 . S
C2267 C2269 1.415 . S
C2268 C2267 1.355 . S
C2268 C2270 1.419 . S
C2269 C2264 1.425 . S
C2269 C2266 1.409 . S
C2269 C2267 1.415 . S
C2270 H2260 0.930 . S
C2270 C2268 1.419 . S
C2270 C2271 1.362 . S
C2271 H2261 0.930 . S
C2271 C2264 1.409 . S
C2271 C2270 1.362 . S
H2272 C2278 0.930 . S
H2273 C2281 0.930 . S
H2274 C2282 0.930 . S
H2275 C2283 0.930 . S
H2276 C2286 0.930 . S
H2277 C2287 0.930 . S
C2278 H2272 0.930 . S
C2278 C2279 1.355 . S
C2278 C2280 1.415 . S
C2279 C2278 1.355 . S
C2279 C2281 1.419 . S
C2280 C2278 1.415 . S
C2280 C2285 1.425 . S
C2280 C2287 1.409 . S
C2281 H2273 0.930 . S
C2281 C2279 1.419 . S
C2281 C2282 1.362 . S
C2282 H2274 0.930 . S
C2282 C2281 1.362 . S
C2282 C2285 1.409 . S
C2283 H2275 0.930 . S
C2283 C2284 1.355 . S
C2283 C2285 1.415 . S
C2284 C2283 1.355 . S
C2284 C2286 1.419 . S
C2285 C2280 1.425 . S
C2285 C2282 1.409 . S
C2285 C2283 1.415 . S
C2286 H2276 0.930 . S
C2286 C2284 1.419 . S
C2286 C2287 1.362 . S
C2287 H2277 0.930 . S
C2287 C2280 1.409 . S
C2287 C2286 1.362 . S
H2288 C2294 0.930 . S
H2289 C2297 0.930 . S
H2290 C2298 0.930 . S
H2291 C2299 0.930 . S
H2292 C2302 0.930 . S
H2293 C2303 0.930 . S
C2294 H2288 0.930 . S
C2294 C2295 1.355 . S
C2294 C2296 1.415 . S
C2295 C2294 1.355 . S
C2295 C2297 1.419 . S
C2296 C2294 1.415 . S
C2296 C2301 1.425 . S
C2296 C2303 1.409 . S
C2297 H2289 0.930 . S
C2297 C2295 1.419 . S
C2297 C2298 1.362 . S
C2298 H2290 0.930 . S
C2298 C2297 1.362 . S
C2298 C2301 1.409 . S
C2299 H2291 0.930 . S
C2299 C2300 1.355 . S
C2299 C2301 1.415 . S
C2300 C2299 1.355 . S
C2300 C2302 1.419 . S
C2301 C2296 1.425 . S
C2301 C2298 1.409 . S
C2301 C2299 1.415 . S
C2302 H2292 0.930 . S
C2302 C2300 1.419 . S
C2302 C2303 1.362 . S
C2303 H2293 0.930 . S
C2303 C2296 1.409 . S
C2303 C2302 1.362 . S
H2304 C2310 0.930 . S
H2305 C2313 0.930 . S
H2306 C2314 0.930 . S
H2307 C2315 0.930 . S
H2308 C2318 0.930 . S
H2309 C2319 0.930 . S
C2310 H2304 0.930 . S
C2310 C2311 1.355 . S
C2310 C2312 1.415 . S
C2311 C2310 1.355 . S
C2311 C2313 1.419 . S
C2312 C2310 1.415 . S
C2312 C2317 1.425 . S
C2312 C2319 1.409 . S
C2313 H2305 0.930 . S
C2313 C2311 1.419 . S
C2313 C2314 1.362 . S
C2314 H2306 0.930 . S
C2314 C2313 1.362 . S
C2314 C2317 1.409 . S
C2315 H2307 0.930 . S
C2315 C2316 1.355 . S
C2315 C2317 1.415 . S
C2316 C2315 1.355 . S
C2316 C2318 1.419 . S
C2317 C2312 1.425 . S
C2317 C2314 1.409 . S
C2317 C2315 1.415 . S
C2318 H2308 0.930 . S
C2318 C2316 1.419 . S
C2318 C2319 1.362 . S
C2319 H2309 0.930 . S
C2319 C2312 1.409 . S
C2319 C2318 1.362 . S
H2320 C2326 0.930 . S
H2321 C2329 0.930 . S
H2322 C2330 0.930 . S
H2323 C2331 0.930 . S
H2324 C2334 0.930 . S
H2325 C2335 0.930 . S
C2326 H2320 0.930 . S
C2326 C2327 1.355 . S
C2326 C2328 1.415 . S
C2327 C2326 1.355 . S
C2327 C2329 1.419 . S
C2328 C2326 1.415 . S
C2328 C2333 1.425 . S
C2328 C2335 1.409 . S
C2329 H2321 0.930 . S
C2329 C2327 1.419 . S
C2329 C2330 1.362 . S
C2330 H2322 0.930 . S
C2330 C2329 1.362 . S
C2330 C2333 1.409 . S
C2331 H2323 0.930 . S
C2331 C2332 1.355 . S
C2331 C2333 1.415 . S
C2332 C2331 1.355 . S
C2332 C2334 1.419 . S
C2333 C2328 1.425 . S
C2333 C2330 1.409 . S
C2333 C2331 1.415 . S
C2334 H2324 0.930 . S
C2334 C2332 1.419 . S
C2334 C2335 1.362 . S
C2335 H2325 0.930 . S
C2335 C2328 1.409 . S
C2335 C2334 1.362 . S
H2336 C2342 0.930 . S
H2337 C2345 0.930 . S
H2338 C2346 0.930 . S
H2339 C2347 0.930 . S
H2340 C2350 0.930 . S
H2341 C2351 0.930 . S
C2342 H2336 0.930 . S
C2342 C2343 1.355 . S
C2342 C2344 1.415 . S
C2343 C2342 1.355 . S
C2343 C2345 1.419 . S
C2344 C2342 1.415 . S
C2344 C2349 1.425 . S
C2344 C2351 1.409 . S
C2345 H2337 0.930 . S
C2345 C2343 1.419 . S
C2345 C2346 1.362 . S
C2346 H2338 0.930 . S
C2346 C2345 1.362 . S
C2346 C2349 1.409 . S
C2347 H2339 0.930 . S
C2347 C2348 1.355 . S
C2347 C2349 1.415 . S
C2348 C2347 1.355 . S
C2348 C2350 1.419 . S
C2349 C2344 1.425 . S
C2349 C2346 1.409 . S
C2349 C2347 1.415 . S
C2350 H2340 0.930 . S
C2350 C2348 1.419 . S
C2350 C2351 1.362 . S
C2351 H2341 0.930 . S
C2351 C2344 1.409 . S
C2351 C2350 1.362 . S
H2352 C2358 0.930 . S
H2353 C2361 0.930 . S
H2354 C2362 0.930 . S
H2355 C2363 0.930 . S
H2356 C2366 0.930 . S
H2357 C2367 0.930 . S
C2358 H2352 0.930 . S
C2358 C2359 1.355 . S
C2358 C2360 1.415 . S
C2359 C2358 1.355 . S
C2359 C2361 1.419 . S
C2360 C2358 1.415 . S
C2360 C2365 1.425 . S
C2360 C2367 1.409 . S
C2361 H2353 0.930 . S
C2361 C2359 1.419 . S
C2361 C2362 1.362 . S
C2362 H2354 0.930 . S
C2362 C2361 1.362 . S
C2362 C2365 1.409 . S
C2363 H2355 0.930 . S
C2363 C2364 1.355 . S
C2363 C2365 1.415 . S
C2364 C2363 1.355 . S
C2364 C2366 1.419 . S
C2365 C2360 1.425 . S
C2365 C2362 1.409 . S
C2365 C2363 1.415 . S
C2366 H2356 0.930 . S
C2366 C2364 1.419 . S
C2366 C2367 1.362 . S
C2367 H2357 0.930 . S
C2367 C2360 1.409 . S
C2367 C2366 1.362 . S
C1095 C247 0.638 . S
C1100 C9 0.730 . S
C1111 C43 0.622 . S
C1116 C145 0.739 . S
C1127 C179 0.740 . S
C1132 C77 0.610 . S
C1143 C111 0.721 . S
C1148 C213 0.651 . S
C1159 C281 0.715 . S
C1164 C519 0.627 . S
C1175 C417 0.642 . S
C1180 C315 0.727 . S
C1191 C451 0.610 . S
C1196 C349 0.741 . S
C1207 C485 0.742 . S
C1212 C383 0.612 . S
C1223 C553 0.719 . S
C1228 C791 0.624 . S
C1239 C587 0.653 . S
C1244 C689 0.688 . S
C1255 C723 0.611 . S
C1260 C621 0.737 . S
C1271 C655 0.615 . S
C1276 C757 0.730 . S
C1287 C1063 0.623 . S
C1292 C825 0.720 . S
C1303 C859 0.742 . S
C1308 C961 0.615 . S
C1319 C995 0.713 . S
C1324 C893 0.629 . S
C1335 C927 0.738 . S
C1340 C1029 0.625 . S
C1351 C33 1.516 . S
C1356 C237 1.505 . S
C1367 C67 1.553 . S
C1372 C271 1.535 . S
C1383 C169 1.509 . S
C1388 C101 1.522 . S
C1399 C135 1.524 . S
C1404 C203 1.541 . S
C1415 C509 1.585 . S
C1420 C305 1.587 . S
C1431 C339 1.583 . S
C1436 C543 1.572 . S
C1447 C373 1.503 . S
C1452 C441 1.513 . S
C1463 C475 1.578 . S
C1468 C407 1.586 . S
C1479 C577 1.578 . S
C1484 C781 1.586 . S
C1495 C611 1.501 . S
C1500 C815 1.503 . S
C1511 C713 1.556 . S
C1516 C645 1.571 . S
C1527 C679 1.507 . S
C1532 C747 1.501 . S
C1543 C1053 1.586 . S
C1548 C849 1.585 . S
C1559 C1087 1.506 . S
C1564 C883 1.518 . S
C1575 C985 1.575 . S
C1580 C917 1.560 . S
C1591 C951 1.503 . S
C1596 C1019 1.501 . S
C1607 C5 1.707 . S
C1612 C1022 1.763 . S
C1623 C512 1.746 . S
C1628 C39 1.684 . S
C1639 C73 1.692 . S
C1644 C954 1.751 . S
C1655 C107 1.658 . S
C1660 C444 1.734 . S
C1671 C886 1.736 . S
C1676 C141 1.648 . S
C1687 C175 1.652 . S
C1692 C376 1.731 . S
C1703 C209 1.638 . S
C1708 C818 1.726 . S
C1719 C243 1.697 . S
C1724 C308 1.759 . S
C1735 C750 1.726 . S
C1740 C277 1.635 . S
C1751 C240 1.755 . S
C1756 C311 1.687 . S
C1767 C345 1.638 . S
C1772 C682 1.729 . S
C1783 C172 1.760 . S
C1788 C379 1.707 . S
C1799 C413 1.639 . S
C1804 C614 1.730 . S
C1815 C447 1.685 . S
C1820 C104 1.754 . S
C1831 C546 1.757 . S
C1836 C481 1.691 . S
C1847 C36 1.747 . S
C1852 C515 1.670 . S
C1863 C478 1.735 . S
C1868 C549 1.647 . S
C1879 C583 1.669 . S
C1884 C1056 1.739 . S
C1895 C617 1.636 . S
C1900 C410 1.726 . S
C1911 C651 1.710 . S
C1916 C988 1.763 . S
C1927 C342 1.761 . S
C1932 C685 1.709 . S
C1943 C719 1.689 . S
C1948 C920 1.756 . S
C1959 C753 1.690 . S
C1964 C274 1.756 . S
C1975 C787 1.635 . S
C1980 C852 1.726 . S
C1991 C821 1.683 . S
C1996 C206 1.746 . S
C2007 C855 1.652 . S
C2012 C784 1.738 . S
C2023 C889 1.701 . S
C2028 C138 1.761 . S
C2039 C716 1.763 . S
C2044 C923 1.706 . S
C2055 C70 1.763 . S
C2060 C957 1.707 . S
C2071 C991 1.657 . S
C2076 C648 1.734 . S
C2087 C1025 1.648 . S
C2092 C2 1.736 . S
C2103 C580 1.747 . S
C2108 C1059 1.685 . S
C2119 C20 1.937 . S
C2124 C258 1.952 . S
C2135 C54 1.953 . S
C2140 C156 1.954 . S
C2151 C88 1.935 . S
C2156 C190 1.951 . S
C2167 C122 1.949 . S
C2172 C224 1.956 . S
C2183 C530 1.945 . S
C2188 C292 1.956 . S
C2199 C428 1.952 . S
C2204 C326 1.955 . S
C2215 C462 1.946 . S
C2220 C360 1.956 . S
C2231 C496 1.956 . S
C2236 C394 1.950 . S
C2247 C802 1.938 . S
C2252 C564 1.926 . S
C2263 C700 1.953 . S
C2268 C598 1.939 . S
C2279 C734 1.945 . S
C2284 C632 1.955 . S
C2295 C666 1.928 . S
C2300 C768 1.926 . S
C2311 C836 1.945 . S
C2316 C1074 1.929 . S
C2327 C972 1.925 . S
C2332 C870 1.936 . S
C2343 C1006 1.948 . S
C2348 C904 1.933 . S
C2359 C1040 1.956 . S
C2364 C938 1.945 . S
