# Generated by pormake.
# Topology umk, (4)-cn, num edge types: 1
# Building blocks:
#     Node 0, Type 0, BuildingBlock: ICAMEG_clean_sbu_1, # of connection points: 4
#     Node 1, Type 0, BuildingBlock: ICAMEG_clean_sbu_1, # of connection points: 4
#     Node 2, Type 0, BuildingBlock: ICAMEG_clean_sbu_1, # of connection points: 4
#     Node 3, Type 0, BuildingBlock: ICAMEG_clean_sbu_1, # of connection points: 4
#     Node 4, Type 0, BuildingBlock: ICAMEG_clean_sbu_1, # of connection points: 4
#     Node 5, Type 0, BuildingBlock: ICAMEG_clean_sbu_1, # of connection points: 4
#     Node 6, Type 0, BuildingBlock: ICAMEG_clean_sbu_1, # of connection points: 4
#     Node 7, Type 0, BuildingBlock: ICAMEG_clean_sbu_1, # of connection points: 4
#     Node 8, Type 0, BuildingBlock: ICAMEG_clean_sbu_1, # of connection points: 4
#     Node 9, Type 0, BuildingBlock: ICAMEG_clean_sbu_1, # of connection points: 4
#     Node 10, Type 0, BuildingBlock: ICAMEG_clean_sbu_1, # of connection points: 4
#     Node 11, Type 0, BuildingBlock: ICAMEG_clean_sbu_1, # of connection points: 4
#     Node 12, Type 0, BuildingBlock: ICAMEG_clean_sbu_1, # of connection points: 4
#     Node 13, Type 0, BuildingBlock: ICAMEG_clean_sbu_1, # of connection points: 4
#     Node 14, Type 0, BuildingBlock: ICAMEG_clean_sbu_1, # of connection points: 4
#     Node 15, Type 0, BuildingBlock: ICAMEG_clean_sbu_1, # of connection points: 4
#     Node 16, Type 0, BuildingBlock: ICAMEG_clean_sbu_1, # of connection points: 4
#     Node 17, Type 0, BuildingBlock: ICAMEG_clean_sbu_1, # of connection points: 4
#     Node 18, Type 0, BuildingBlock: ICAMEG_clean_sbu_1, # of connection points: 4
#     Node 19, Type 0, BuildingBlock: ICAMEG_clean_sbu_1, # of connection points: 4
#     Node 20, Type 0, BuildingBlock: ICAMEG_clean_sbu_1, # of connection points: 4
#     Node 21, Type 0, BuildingBlock: ICAMEG_clean_sbu_1, # of connection points: 4
#     Node 22, Type 0, BuildingBlock: ICAMEG_clean_sbu_1, # of connection points: 4
#     Node 23, Type 0, BuildingBlock: ICAMEG_clean_sbu_1, # of connection points: 4
#     Edge 24, Type (0, 0), BuildingBlock: AJUNOK_clean_linker_0, # of connection points: 2
#     Edge 25, Type (0, 0), BuildingBlock: AJUNOK_clean_linker_0, # of connection points: 2
#     Edge 26, Type (0, 0), BuildingBlock: AJUNOK_clean_linker_0, # of connection points: 2
#     Edge 27, Type (0, 0), BuildingBlock: AJUNOK_clean_linker_0, # of connection points: 2
#     Edge 28, Type (0, 0), BuildingBlock: AJUNOK_clean_linker_0, # of connection points: 2
#     Edge 29, Type (0, 0), BuildingBlock: AJUNOK_clean_linker_0, # of connection points: 2
#     Edge 30, Type (0, 0), BuildingBlock: AJUNOK_clean_linker_0, # of connection points: 2
#     Edge 31, Type (0, 0), BuildingBlock: AJUNOK_clean_linker_0, # of connection points: 2
#     Edge 32, Type (0, 0), BuildingBlock: AJUNOK_clean_linker_0, # of connection points: 2
#     Edge 33, Type (0, 0), BuildingBlock: AJUNOK_clean_linker_0, # of connection points: 2
#     Edge 34, Type (0, 0), BuildingBlock: AJUNOK_clean_linker_0, # of connection points: 2
#     Edge 35, Type (0, 0), BuildingBlock: AJUNOK_clean_linker_0, # of connection points: 2
#     Edge 36, Type (0, 0), BuildingBlock: AJUNOK_clean_linker_0, # of connection points: 2
#     Edge 37, Type (0, 0), BuildingBlock: AJUNOK_clean_linker_0, # of connection points: 2
#     Edge 38, Type (0, 0), BuildingBlock: AJUNOK_clean_linker_0, # of connection points: 2
#     Edge 39, Type (0, 0), BuildingBlock: AJUNOK_clean_linker_0, # of connection points: 2
#     Edge 40, Type (0, 0), BuildingBlock: AJUNOK_clean_linker_0, # of connection points: 2
#     Edge 41, Type (0, 0), BuildingBlock: AJUNOK_clean_linker_0, # of connection points: 2
#     Edge 42, Type (0, 0), BuildingBlock: AJUNOK_clean_linker_0, # of connection points: 2
#     Edge 43, Type (0, 0), BuildingBlock: AJUNOK_clean_linker_0, # of connection points: 2
#     Edge 44, Type (0, 0), BuildingBlock: AJUNOK_clean_linker_0, # of connection points: 2
#     Edge 45, Type (0, 0), BuildingBlock: AJUNOK_clean_linker_0, # of connection points: 2
#     Edge 46, Type (0, 0), BuildingBlock: AJUNOK_clean_linker_0, # of connection points: 2
#     Edge 47, Type (0, 0), BuildingBlock: AJUNOK_clean_linker_0, # of connection points: 2
#     Edge 48, Type (0, 0), BuildingBlock: AJUNOK_clean_linker_0, # of connection points: 2
#     Edge 49, Type (0, 0), BuildingBlock: AJUNOK_clean_linker_0, # of connection points: 2
#     Edge 50, Type (0, 0), BuildingBlock: AJUNOK_clean_linker_0, # of connection points: 2
#     Edge 51, Type (0, 0), BuildingBlock: AJUNOK_clean_linker_0, # of connection points: 2
#     Edge 52, Type (0, 0), BuildingBlock: AJUNOK_clean_linker_0, # of connection points: 2
#     Edge 53, Type (0, 0), BuildingBlock: AJUNOK_clean_linker_0, # of connection points: 2
#     Edge 54, Type (0, 0), BuildingBlock: AJUNOK_clean_linker_0, # of connection points: 2
#     Edge 55, Type (0, 0), BuildingBlock: AJUNOK_clean_linker_0, # of connection points: 2
#     Edge 56, Type (0, 0), BuildingBlock: AJUNOK_clean_linker_0, # of connection points: 2
#     Edge 57, Type (0, 0), BuildingBlock: AJUNOK_clean_linker_0, # of connection points: 2
#     Edge 58, Type (0, 0), BuildingBlock: AJUNOK_clean_linker_0, # of connection points: 2
#     Edge 59, Type (0, 0), BuildingBlock: AJUNOK_clean_linker_0, # of connection points: 2
#     Edge 60, Type (0, 0), BuildingBlock: AJUNOK_clean_linker_0, # of connection points: 2
#     Edge 61, Type (0, 0), BuildingBlock: AJUNOK_clean_linker_0, # of connection points: 2
#     Edge 62, Type (0, 0), BuildingBlock: AJUNOK_clean_linker_0, # of connection points: 2
#     Edge 63, Type (0, 0), BuildingBlock: AJUNOK_clean_linker_0, # of connection points: 2
#     Edge 64, Type (0, 0), BuildingBlock: AJUNOK_clean_linker_0, # of connection points: 2
#     Edge 65, Type (0, 0), BuildingBlock: AJUNOK_clean_linker_0, # of connection points: 2
#     Edge 66, Type (0, 0), BuildingBlock: AJUNOK_clean_linker_0, # of connection points: 2
#     Edge 67, Type (0, 0), BuildingBlock: AJUNOK_clean_linker_0, # of connection points: 2
#     Edge 68, Type (0, 0), BuildingBlock: AJUNOK_clean_linker_0, # of connection points: 2
#     Edge 69, Type (0, 0), BuildingBlock: AJUNOK_clean_linker_0, # of connection points: 2
#     Edge 70, Type (0, 0), BuildingBlock: AJUNOK_clean_linker_0, # of connection points: 2
#     Edge 71, Type (0, 0), BuildingBlock: AJUNOK_clean_linker_0, # of connection points: 2
# Relax obj value: 0.070
# Max RMSD: 0.103
# Mean RMSD: 0.103
data_MOF--net-umk--node1-ICAMEG_clean_sbu_1--edge1-AJUNOK_clean_linker_0
_symmetry_space_group_name_H-M    P1
_symmetry_Int_Tables_number       1
_symmetry_cell_setting            triclinic
loop_
_symmetry_equiv_pos_as_xyz
'x, y, z'
_cell_length_a     51.449122
_cell_length_b     51.414652
_cell_length_c     37.173251
_cell_angle_alpha  89.96659
_cell_angle_beta   89.978969
_cell_angle_gamma 120.00256
loop_
_atom_site_label
_atom_site_type_symbol
_atom_site_fract_x
_atom_site_fract_y
_atom_site_fract_z
_atom_type_partial_charge
Co0 Co 0.37977 0.49543 0.12112 0.0
Co1 Co 0.34812 0.46703 0.03743 0.0
O2 O 0.34488 0.47509 0.08869 0.0
C3 C 0.36368 0.4528 0.18202 0.0
O4 O 0.38705 0.45042 0.17292 0.0
C5 C 0.30415 0.49057 0.03867 0.0
O6 O 0.31071 0.49893 0.0723 0.0
O7 O 0.38028 0.50952 0.02978 0.0
O8 O 0.40475 0.52404 0.08233 0.0
H9 H 0.40482 0.47271 0.92488 0.0
H10 H 0.32156 0.48744 0.14634 0.0
O11 O 0.35561 0.46766 0.16184 0.0
H12 H 0.3904 0.59694 0.14441 0.0
H13 H 0.43209 0.54128 0.23806 0.0
H14 H 0.4445 0.51565 0.11399 0.0
H15 H 0.40811 0.56226 0.12681 0.0
H16 H 0.3889 0.51786 0.19702 0.0
O17 O 0.317 0.47819 0.02236 0.0
H18 H 0.39927 0.48127 0.989 0.0
H19 H 0.30449 0.43687 0.97737 0.0
H20 H 0.48852 0.53978 0.15403 0.0
H21 H 0.30303 0.52129 0.16496 0.0
H22 H 0.48246 0.5527 0.2167 0.0
H23 H 0.33751 0.5765 0.16387 0.0
O24 O 0.39399 0.46742 0.10623 0.0
H25 H 0.24889 0.38542 0.08458 0.0
H26 H 0.34003 0.40726 0.01701 0.0
H27 H 0.30077 0.35466 0.02701 0.0
H28 H 0.25467 0.34344 0.06086 0.0
H29 H 0.28893 0.43766 0.0744 0.0
H30 H 0.30905 0.4281 0.91306 0.0
H31 H 0.35949 0.44595 0.88644 0.0
O32 O 0.37894 0.45505 0.04918 0.0
C33 C 0.40216 0.52835 0.0491 0.0
C34 C 0.38271 0.46471 0.93619 0.0
C35 C 0.32896 0.4397 0.92955 0.0
N36 N 0.35158 0.45933 0.98702 0.0
C37 C 0.37942 0.46941 0.97251 0.0
C38 C 0.32653 0.44479 0.96598 0.0
C39 C 0.35727 0.44973 0.91464 0.0
C40 C 0.3368 0.51142 0.14613 0.0
N41 N 0.36589 0.52282 0.1353 0.0
C42 C 0.32613 0.53048 0.15655 0.0
C43 C 0.34547 0.56145 0.15587 0.0
C44 C 0.37512 0.57294 0.14488 0.0
C45 C 0.38499 0.55318 0.13464 0.0
C46 C 0.43511 0.53598 0.21085 0.0
C47 C 0.44171 0.52139 0.14113 0.0
C48 C 0.41067 0.52259 0.18746 0.0
N49 N 0.41412 0.51535 0.1531 0.0
C50 C 0.46672 0.53502 0.1637 0.0
C51 C 0.46332 0.54228 0.19883 0.0
C52 C 0.39374 0.4548 0.07661 0.0
C53 C 0.26881 0.39002 0.06966 0.0
C54 C 0.32018 0.40261 0.03195 0.0
C55 C 0.29795 0.37275 0.03743 0.0
C56 C 0.27209 0.36647 0.05639 0.0
N57 N 0.31674 0.42562 0.04481 0.0
C58 C 0.29153 0.4196 0.06365 0.0
Co59 Co 0.88387 0.37384 0.61103 0.0
Co60 Co 0.88745 0.33706 0.53491 0.0
O61 O 0.8725 0.33706 0.58353 0.0
C62 C 0.90234 0.34429 0.66717 0.0
O63 O 0.92264 0.34489 0.64524 0.0
C64 C 0.82051 0.29926 0.52719 0.0
O65 O 0.81732 0.31685 0.55011 0.0
O66 O 0.87721 0.36776 0.51816 0.0
O67 O 0.88279 0.39544 0.56708 0.0
H68 H 0.9462 0.38543 0.42253 0.0
H69 H 0.83254 0.31619 0.63577 0.0
O70 O 0.8848 0.35357 0.65678 0.0
H71 H 0.79002 0.38171 0.61156 0.0
H72 H 0.87578 0.43289 0.71411 0.0
H73 H 0.92713 0.43855 0.59997 0.0
H74 H 0.84401 0.40041 0.6028 0.0
H75 H 0.86426 0.38672 0.68122 0.0
O76 O 0.84662 0.30418 0.51878 0.0
H77 H 0.92727 0.38459 0.48372 0.0
H78 H 0.87894 0.28922 0.48278 0.0
H79 H 0.94041 0.48514 0.63301 0.0
H80 H 0.77849 0.29673 0.64547 0.0
H81 H 0.91453 0.48249 0.69048 0.0
H82 H 0.75687 0.32955 0.63318 0.0
O83 O 0.92761 0.38878 0.60269 0.0
H84 H 0.86673 0.24211 0.59782 0.0
H85 H 0.94151 0.32993 0.52919 0.0
H86 H 0.95456 0.29265 0.55109 0.0
H87 H 0.91699 0.24828 0.5856 0.0
H88 H 0.85476 0.28017 0.5757 0.0
H89 H 0.89721 0.28901 0.42148 0.0
H90 H 0.93119 0.33737 0.391 0.0
O91 O 0.9288 0.36949 0.54899 0.0
C92 C 0.87851 0.3906 0.53346 0.0
C93 C 0.9315 0.36421 0.43557 0.0
C94 C 0.90397 0.3101 0.43497 0.0
N95 N 0.90225 0.33691 0.48693 0.0
C96 C 0.92077 0.36359 0.47025 0.0
C97 C 0.89367 0.31036 0.46966 0.0
C98 C 0.92304 0.33724 0.41788 0.0
C99 C 0.82337 0.33073 0.63076 0.0
N100 N 0.84147 0.35944 0.61878 0.0
C101 C 0.79272 0.31953 0.63614 0.0
C102 C 0.78059 0.33793 0.62916 0.0
C103 C 0.79917 0.36719 0.61697 0.0
C104 C 0.82972 0.37761 0.61187 0.0
C105 C 0.88757 0.43429 0.68946 0.0
C106 C 0.91607 0.43717 0.62522 0.0
C107 C 0.881 0.40824 0.67057 0.0
N108 N 0.89482 0.40995 0.63853 0.0
C109 C 0.92364 0.46364 0.64376 0.0
C110 C 0.90915 0.46214 0.67602 0.0
C111 C 0.94194 0.38652 0.57588 0.0
C112 C 0.88328 0.26131 0.58275 0.0
C113 C 0.9251 0.31081 0.54434 0.0
C114 C 0.93259 0.2897 0.55658 0.0
C115 C 0.91149 0.2648 0.57592 0.0
N116 N 0.89736 0.30719 0.55106 0.0
C117 C 0.87659 0.28288 0.57006 0.0
Co118 Co 0.52052 0.88891 0.12179 0.0
Co119 Co 0.56146 0.8911 0.04678 0.0
O120 O 0.54584 0.87666 0.09554 0.0
C121 C 0.5649 0.89164 0.17804 0.0
O122 O 0.5807 0.88624 0.15466 0.0
C123 C 0.52908 0.8244 0.03497 0.0
O124 O 0.50501 0.82312 0.04889 0.0
O125 O 0.52084 0.88106 0.02884 0.0
O126 O 0.49837 0.8868 0.07717 0.0
H127 H 0.57407 0.94867 0.93268 0.0
H128 H 0.52554 0.8367 0.14679 0.0
O129 O 0.5413 0.89208 0.1686 0.0
H130 H 0.41779 0.79648 0.1237 0.0
H131 H 0.45313 0.88615 0.22199 0.0
H132 H 0.50055 0.93262 0.10652 0.0
H133 H 0.45398 0.85023 0.11468 0.0
H134 H 0.487 0.87199 0.19172 0.0
O135 O 0.55338 0.84964 0.03286 0.0
H136 H 0.5554 0.93102 0.9941 0.0
H137 H 0.60039 0.88071 0.9961 0.0
H138 H 0.46807 0.94835 0.13684 0.0
H139 H 0.4901 0.7829 0.15659 0.0
H140 H 0.44398 0.92491 0.19502 0.0
H141 H 0.43577 0.7624 0.14492 0.0
O142 O 0.54996 0.93202 0.11286 0.0
H143 H 0.63558 0.86999 0.10923 0.0
H144 H 0.6225 0.94541 0.04212 0.0
H145 H 0.6728 0.95835 0.0639 0.0
H146 H 0.67961 0.92045 0.09761 0.0
H147 H 0.58556 0.85817 0.08748 0.0
H148 H 0.61943 0.8977 0.93463 0.0
H149 H 0.60633 0.93198 0.90254 0.0
O150 O 0.5706 0.93303 0.05937 0.0
C151 C 0.49913 0.88229 0.04371 0.0
C152 C 0.58002 0.93381 0.94643 0.0
C153 C 0.60543 0.90516 0.9475 0.0
N154 N 0.57695 0.90501 0.99875 0.0
C155 C 0.56958 0.92381 0.98124 0.0
C156 C 0.59454 0.89557 0.98228 0.0
C157 C 0.59809 0.92441 0.92952 0.0
C158 C 0.50194 0.82812 0.14214 0.0
N159 N 0.49189 0.84678 0.13062 0.0
C160 C 0.48196 0.79755 0.14753 0.0
C161 C 0.4515 0.78605 0.14091 0.0
C162 C 0.4414 0.80516 0.12899 0.0
C163 C 0.46203 0.83559 0.12387 0.0
C164 C 0.46392 0.89681 0.19704 0.0
C165 C 0.49044 0.92254 0.13204 0.0
C166 C 0.48292 0.88875 0.17962 0.0
N167 N 0.4955 0.90124 0.1472 0.0
C168 C 0.47203 0.93153 0.14905 0.0
C169 C 0.45858 0.91843 0.1817 0.0
C170 C 0.56668 0.94626 0.08622 0.0
C171 C 0.6329 0.88669 0.09455 0.0
C172 C 0.62519 0.9289 0.05711 0.0
C173 C 0.65378 0.93631 0.0692 0.0
C174 C 0.65759 0.91502 0.08807 0.0
N175 N 0.60107 0.90108 0.06363 0.0
C176 C 0.60465 0.88008 0.08205 0.0
Co177 Co 0.65103 0.51855 0.61392 0.0
Co178 Co 0.67929 0.55571 0.53299 0.0
O179 O 0.68446 0.5441 0.5817 0.0
C180 C 0.67696 0.56877 0.66746 0.0
O181 O 0.6727 0.58612 0.64523 0.0
C182 C 0.71768 0.52758 0.5217 0.0
O183 O 0.70251 0.50813 0.54714 0.0
O184 O 0.64813 0.51362 0.52091 0.0
O185 O 0.62716 0.492 0.57343 0.0
H186 H 0.61956 0.55781 0.42729 0.0
H187 H 0.71244 0.53193 0.63237 0.0
O188 O 0.67343 0.54366 0.65674 0.0
H189 H 0.65336 0.42176 0.62033 0.0
H190 H 0.6057 0.45932 0.72712 0.0
H191 H 0.58479 0.49156 0.61102 0.0
H192 H 0.6295 0.45262 0.61199 0.0
H193 H 0.647 0.49204 0.6865 0.0
O194 O 0.71141 0.54789 0.51329 0.0
H195 H 0.62675 0.54411 0.48859 0.0
H196 H 0.72132 0.59213 0.47411 0.0
H197 H 0.54272 0.45937 0.65134 0.0
H198 H 0.73719 0.5019 0.64147 0.0
H199 H 0.55301 0.44292 0.70986 0.0
H200 H 0.70761 0.4464 0.63529 0.0
O201 O 0.6319 0.54364 0.60557 0.0
H202 H 0.77867 0.63581 0.58092 0.0
H203 H 0.68328 0.6154 0.52531 0.0
H204 H 0.72122 0.66747 0.54069 0.0
H205 H 0.76937 0.67795 0.56859 0.0
H206 H 0.73995 0.58401 0.56543 0.0
H207 H 0.71515 0.60611 0.41254 0.0
H208 H 0.66398 0.589 0.3888 0.0
O209 O 0.64748 0.56426 0.55089 0.0
C210 C 0.62824 0.49169 0.53927 0.0
C211 C 0.64198 0.56548 0.43737 0.0
C212 C 0.69563 0.59257 0.42908 0.0
N213 N 0.67442 0.56745 0.48499 0.0
C214 C 0.64619 0.55787 0.47209 0.0
C215 C 0.69898 0.58452 0.46394 0.0
C216 C 0.66691 0.58296 0.41577 0.0
C217 C 0.69936 0.50777 0.62997 0.0
N218 N 0.66954 0.49406 0.62158 0.0
C219 C 0.71353 0.49089 0.63501 0.0
C220 C 0.69693 0.45976 0.63147 0.0
C221 C 0.66651 0.44593 0.62302 0.0
C222 C 0.65313 0.46353 0.61811 0.0
C223 C 0.60084 0.46644 0.70184 0.0
C224 C 0.58945 0.48461 0.63651 0.0
C225 C 0.62419 0.48491 0.67863 0.0
N226 N 0.61831 0.49342 0.6462 0.0
C227 C 0.56554 0.46638 0.65923 0.0
C228 C 0.57133 0.45718 0.69206 0.0
C229 C 0.63174 0.55962 0.57931 0.0
C230 C 0.75781 0.63153 0.56869 0.0
C231 C 0.70411 0.61975 0.53761 0.0
C232 C 0.72555 0.6493 0.54616 0.0
C233 C 0.75256 0.65517 0.5618 0.0
N234 N 0.70948 0.59671 0.54432 0.0
C235 C 0.73586 0.60227 0.55976 0.0
Co236 Co 0.13818 0.64074 0.11788 0.0
Co237 Co 0.13668 0.67907 0.04136 0.0
O238 O 0.15031 0.67827 0.09098 0.0
C239 C 0.1321 0.68102 0.17367 0.0
O240 O 0.13815 0.70283 0.1509 0.0
C241 C 0.2042 0.72361 0.04047 0.0
O242 O 0.20701 0.71602 0.07328 0.0
O243 O 0.14626 0.64777 0.02492 0.0
O244 O 0.14223 0.62111 0.07414 0.0
H245 H 0.07863 0.63175 0.92835 0.0
H246 H 0.18787 0.6977 0.14768 0.0
O247 O 0.13271 0.65757 0.16401 0.0
H248 H 0.23249 0.63392 0.12482 0.0
H249 H 0.14345 0.57764 0.218 0.0
H250 H 0.0957 0.57657 0.10281 0.0
H251 H 0.17919 0.6154 0.11156 0.0
H252 H 0.15497 0.6251 0.18838 0.0
O253 O 0.17846 0.71126 0.02529 0.0
H254 H 0.09599 0.63206 0.99026 0.0
H255 H 0.14807 0.72731 0.98823 0.0
H256 H 0.08173 0.52868 0.13312 0.0
H257 H 0.24105 0.71683 0.16217 0.0
H258 H 0.10588 0.529 0.19111 0.0
H259 H 0.26381 0.68494 0.15056 0.0
O260 O 0.09504 0.62581 0.10697 0.0
H261 H 0.15723 0.77484 0.10263 0.0
H262 H 0.0836 0.6872 0.03303 0.0
H263 H 0.07078 0.7252 0.05254 0.0
H264 H 0.10779 0.76952 0.08745 0.0
H265 H 0.16892 0.7361 0.08311 0.0
H266 H 0.13148 0.728 0.92618 0.0
H267 H 0.09645 0.67998 0.89586 0.0
O268 O 0.09458 0.64723 0.0546 0.0
C269 C 0.14607 0.62559 0.04054 0.0
C270 C 0.09383 0.65283 0.94131 0.0
C271 C 0.12354 0.70685 0.94007 0.0
N272 N 0.12292 0.67967 0.99291 0.0
C273 C 0.10366 0.65316 0.9764 0.0
C274 C 0.13292 0.70631 0.97518 0.0
C275 C 0.10387 0.67989 0.92308 0.0
C276 C 0.19735 0.68345 0.14308 0.0
N277 N 0.18023 0.65537 0.12891 0.0
C278 C 0.22761 0.69451 0.15109 0.0
C279 C 0.24039 0.67665 0.14449 0.0
C280 C 0.22285 0.64806 0.12998 0.0
C281 C 0.19267 0.63776 0.12228 0.0
C282 C 0.13219 0.57722 0.19333 0.0
C283 C 0.10579 0.57694 0.12845 0.0
C284 C 0.1389 0.60402 0.17616 0.0
N285 N 0.12629 0.60362 0.14368 0.0
C286 C 0.09787 0.54973 0.1454 0.0
C287 C 0.11137 0.54993 0.17796 0.0
C288 C 0.08108 0.62919 0.08068 0.0
C289 C 0.14098 0.75573 0.08724 0.0
C290 C 0.09982 0.70633 0.04833 0.0
C291 C 0.09244 0.72783 0.05923 0.0
C292 C 0.11322 0.7527 0.07879 0.0
N293 N 0.12718 0.70953 0.05653 0.0
C294 C 0.14758 0.73378 0.07587 0.0
Co295 Co 0.49545 0.12846 0.60864 0.0
Co296 Co 0.459 0.12599 0.52916 0.0
O297 O 0.4715 0.14021 0.57869 0.0
C298 C 0.45745 0.10428 0.67384 0.0
O299 O 0.45434 0.07813 0.66522 0.0
C300 C 0.48834 0.19316 0.52315 0.0
O301 O 0.50787 0.19591 0.54767 0.0
O302 O 0.50066 0.13647 0.51595 0.0
O303 O 0.52074 0.13066 0.56669 0.0
H304 H 0.4544 0.06893 0.41743 0.0
H305 H 0.48772 0.17942 0.63136 0.0
O306 O 0.47105 0.12648 0.65228 0.0
H307 H 0.59694 0.22202 0.61789 0.0
H308 H 0.55248 0.1308 0.71986 0.0
H309 H 0.5175 0.08543 0.60019 0.0
H310 H 0.56214 0.16829 0.60637 0.0
H311 H 0.52385 0.14642 0.68136 0.0
O312 O 0.46784 0.1672 0.51314 0.0
H313 H 0.4689 0.08656 0.47978 0.0
H314 H 0.42317 0.13601 0.47324 0.0
H315 H 0.54638 0.06929 0.63779 0.0
H316 H 0.52176 0.2332 0.64368 0.0
H317 H 0.56402 0.09196 0.69822 0.0
H318 H 0.5768 0.25485 0.63686 0.0
O319 O 0.4674 0.08522 0.59797 0.0
H320 H 0.38152 0.14576 0.58463 0.0
H321 H 0.39821 0.07225 0.5186 0.0
H322 H 0.34673 0.05902 0.53565 0.0
H323 H 0.33811 0.09598 0.5688 0.0
H324 H 0.43269 0.1579 0.56736 0.0
H325 H 0.40836 0.1191 0.41069 0.0
H326 H 0.42392 0.08525 0.38241 0.0
O327 O 0.4492 0.0842 0.54294 0.0
C328 C 0.5216 0.13528 0.53291 0.0
C329 C 0.44738 0.08359 0.42948 0.0
C330 C 0.4216 0.1118 0.42569 0.0
N331 N 0.44672 0.1121 0.48024 0.0
C332 C 0.45545 0.09357 0.46482 0.0
C333 C 0.4301 0.12134 0.4611 0.0
C334 C 0.43032 0.09279 0.40984 0.0
C335 C 0.51167 0.1886 0.62872 0.0
N336 N 0.52291 0.17066 0.61838 0.0
C337 C 0.53082 0.2191 0.63557 0.0
C338 C 0.56169 0.23125 0.63167 0.0
C339 C 0.573 0.21285 0.62099 0.0
C340 C 0.55317 0.18245 0.61435 0.0
C341 C 0.54495 0.12072 0.69366 0.0
C342 C 0.52521 0.09549 0.62638 0.0
C343 C 0.52865 0.12946 0.67172 0.0
N344 N 0.51893 0.11683 0.63856 0.0
C345 C 0.54152 0.08623 0.64757 0.0
C346 C 0.5514 0.09895 0.68146 0.0
C347 C 0.45218 0.07099 0.5704 0.0
C348 C 0.38498 0.12948 0.57014 0.0
C349 C 0.39468 0.08835 0.53325 0.0
C350 C 0.36546 0.08078 0.54271 0.0
C351 C 0.36064 0.10154 0.56129 0.0
N352 N 0.41843 0.11583 0.54193 0.0
C353 C 0.41389 0.13626 0.56022 0.0
Co354 Co 0.52196 0.64424 0.89516 0.0
Co355 Co 0.56262 0.68336 0.97034 0.0
O356 O 0.54758 0.6818 0.92117 0.0
C357 C 0.56745 0.68375 0.83792 0.0
O358 O 0.58341 0.70627 0.85968 0.0
C359 C 0.52956 0.71719 0.98089 0.0
O360 O 0.50575 0.69435 0.9666 0.0
O361 O 0.52198 0.65208 0.98841 0.0
O362 O 0.49883 0.62531 0.93941 0.0
H363 H 0.5759 0.63971 0.08514 0.0
H364 H 0.52995 0.70228 0.86844 0.0
O365 O 0.54375 0.66044 0.84863 0.0
H366 H 0.42117 0.63815 0.88829 0.0
H367 H 0.45463 0.58128 0.79446 0.0
H368 H 0.4991 0.57991 0.91133 0.0
H369 H 0.45551 0.61872 0.89968 0.0
H370 H 0.48997 0.62858 0.82459 0.0
O371 O 0.55386 0.71636 0.98368 0.0
H372 H 0.55708 0.638 0.02369 0.0
H373 H 0.60076 0.73325 0.02077 0.0
H374 H 0.46503 0.53201 0.88111 0.0
H375 H 0.49642 0.7225 0.85618 0.0
H376 H 0.4424 0.53249 0.82225 0.0
H377 H 0.44157 0.6904 0.86622 0.0
O378 O 0.55015 0.62917 0.9061 0.0
H379 H 0.63574 0.77838 0.9065 0.0
H380 H 0.6242 0.69161 0.97618 0.0
H381 H 0.67432 0.72941 0.95428 0.0
H382 H 0.68036 0.77326 0.91926 0.0
H383 H 0.58593 0.73978 0.92847 0.0
H384 H 0.6199 0.736 0.08229 0.0
H385 H 0.60757 0.689 0.11486 0.0
O386 O 0.57244 0.65112 0.95816 0.0
C387 C 0.49986 0.62978 0.97307 0.0
C388 C 0.5815 0.66036 0.07122 0.0
C389 C 0.60615 0.71439 0.06962 0.0
N390 N 0.57794 0.68548 0.01858 0.0
C391 C 0.57096 0.65953 0.03639 0.0
C392 C 0.59519 0.71269 0.03481 0.0
C393 C 0.59924 0.68802 0.08788 0.0
C394 C 0.50613 0.688 0.87243 0.0
N395 N 0.49477 0.6592 0.88447 0.0
C396 C 0.48723 0.69965 0.86564 0.0
C397 C 0.45647 0.68165 0.87134 0.0
C398 C 0.44503 0.65236 0.88375 0.0
C399 C 0.46462 0.64149 0.8903 0.0
C400 C 0.46475 0.58073 0.8197 0.0
C401 C 0.48967 0.5803 0.88548 0.0
C402 C 0.48462 0.60747 0.83706 0.0
N403 N 0.49633 0.607 0.86989 0.0
C404 C 0.47035 0.55311 0.86854 0.0
C405 C 0.45771 0.55339 0.8355 0.0
C406 C 0.56767 0.63281 0.93238 0.0
C407 C 0.63341 0.7594 0.92176 0.0
C408 C 0.62657 0.71044 0.96068 0.0
C409 C 0.65505 0.73187 0.94849 0.0
C410 C 0.65842 0.75649 0.92889 0.0
N411 N 0.60213 0.71344 0.95357 0.0
C412 C 0.60527 0.73752 0.93439 0.0
Co413 Co 0.89036 0.51611 0.37552 0.0
Co414 Co 0.88641 0.54981 0.45497 0.0
O415 O 0.87539 0.53844 0.40388 0.0
C416 C 0.89461 0.56351 0.32159 0.0
O417 O 0.88552 0.57694 0.34414 0.0
C418 C 0.81911 0.52688 0.45167 0.0
O419 O 0.81761 0.5174 0.41862 0.0
O420 O 0.87641 0.50803 0.46791 0.0
O421 O 0.88508 0.48985 0.41752 0.0
H422 H 0.93741 0.55259 0.57132 0.0
H423 H 0.83964 0.52272 0.34787 0.0
O424 O 0.89688 0.54098 0.33134 0.0
H425 H 0.80087 0.41368 0.35221 0.0
H426 H 0.90261 0.46554 0.2659 0.0
H427 H 0.93273 0.49463 0.39176 0.0
H428 H 0.85273 0.44926 0.37056 0.0
H429 H 0.88158 0.49162 0.30051 0.0
O430 O 0.84402 0.53932 0.46859 0.0
H431 H 0.92303 0.53899 0.5079 0.0
H432 H 0.87293 0.5842 0.50949 0.0
H433 H 0.95361 0.46794 0.35823 0.0
H434 H 0.78789 0.48809 0.3284 0.0
H435 H 0.93855 0.45321 0.29469 0.0
H436 H 0.76802 0.43304 0.33068 0.0
O437 O 0.93235 0.5448 0.38994 0.0
H438 H 0.86847 0.62803 0.39712 0.0
H439 H 0.93842 0.61071 0.46999 0.0
H440 H 0.9518 0.66245 0.45412 0.0
H441 H 0.91662 0.67142 0.41758 0.0
H442 H 0.85624 0.57669 0.41308 0.0
H443 H 0.88659 0.5981 0.57302 0.0
H444 H 0.91918 0.5824 0.60431 0.0
O445 O 0.9292 0.56118 0.44465 0.0
C446 C 0.87893 0.48785 0.45088 0.0
C447 C 0.92328 0.55966 0.55795 0.0
C448 C 0.89474 0.58518 0.5589 0.0
N449 N 0.89743 0.56105 0.50487 0.0
C450 C 0.91512 0.55209 0.52201 0.0
C451 C 0.88704 0.5772 0.52294 0.0
C452 C 0.91303 0.57636 0.57645 0.0
C453 C 0.83146 0.49891 0.34854 0.0
N454 N 0.84939 0.48815 0.36052 0.0
C455 C 0.80197 0.47934 0.33767 0.0
C456 C 0.79082 0.44848 0.33903 0.0
C457 C 0.80921 0.43761 0.35118 0.0
C458 C 0.83855 0.45788 0.36186 0.0
C459 C 0.90908 0.47161 0.29355 0.0
C460 C 0.92575 0.48799 0.36426 0.0
C461 C 0.89735 0.48647 0.3133 0.0
N462 N 0.90559 0.49431 0.34833 0.0
C463 C 0.93778 0.47299 0.34537 0.0
C464 C 0.92933 0.46475 0.30975 0.0
C465 C 0.94445 0.55956 0.41852 0.0
C466 C 0.88391 0.62443 0.41324 0.0
C467 C 0.92303 0.61435 0.45394 0.0
C468 C 0.9307 0.64375 0.44513 0.0
C469 C 0.91095 0.64876 0.42465 0.0
N470 N 0.89636 0.59057 0.44286 0.0
C471 C 0.87699 0.59535 0.42259 0.0
Co472 Co 0.38193 0.88504 0.88436 0.0
Co473 Co 0.34916 0.89105 0.9633 0.0
O474 O 0.34654 0.87562 0.91402 0.0
C475 C 0.34004 0.89093 0.83038 0.0
O476 O 0.31885 0.886 0.85362 0.0
C477 C 0.30806 0.82398 0.97054 0.0
O478 O 0.3227 0.81971 0.94448 0.0
O479 O 0.37983 0.87991 0.97776 0.0
O480 O 0.4034 0.88132 0.92667 0.0
H481 H 0.40356 0.95077 0.07272 0.0
H482 H 0.3216 0.83625 0.86179 0.0
O483 O 0.36343 0.89016 0.83968 0.0
H484 H 0.3822 0.78718 0.8769 0.0
H485 H 0.43529 0.87425 0.77698 0.0
H486 H 0.44756 0.92564 0.89292 0.0
H487 H 0.40445 0.84147 0.88733 0.0
H488 H 0.39117 0.86459 0.81282 0.0
O489 O 0.31601 0.85057 0.98102 0.0
H490 H 0.39939 0.93094 0.01129 0.0
H491 H 0.30427 0.88408 0.01907 0.0
H492 H 0.49239 0.93705 0.85704 0.0
H493 H 0.29858 0.78206 0.85031 0.0
H494 H 0.48645 0.91111 0.79867 0.0
H495 H 0.32887 0.75705 0.85804 0.0
O496 O 0.39947 0.92893 0.89364 0.0
H497 H 0.25192 0.87253 0.90906 0.0
H498 H 0.34475 0.94657 0.97029 0.0
H499 H 0.30749 0.96092 0.95236 0.0
H500 H 0.26062 0.92373 0.92162 0.0
H501 H 0.28997 0.85926 0.92706 0.0
H502 H 0.30742 0.90323 0.08067 0.0
H503 H 0.35733 0.93691 0.10784 0.0
O504 O 0.38177 0.932 0.94769 0.0
C505 C 0.40079 0.87882 0.96064 0.0
C506 C 0.38167 0.93618 0.06114 0.0
C507 C 0.32772 0.90946 0.06562 0.0
N508 N 0.35163 0.90651 0.01153 0.0
C509 C 0.37917 0.92494 0.02634 0.0
C510 C 0.32608 0.89863 0.03075 0.0
C511 C 0.35573 0.92837 0.08084 0.0
C512 C 0.33515 0.82578 0.8646 0.0
N513 N 0.3645 0.84225 0.87502 0.0
C514 C 0.32189 0.79496 0.85833 0.0
C515 C 0.33886 0.78093 0.86278 0.0
C516 C 0.36875 0.7978 0.87342 0.0
C517 C 0.38122 0.82857 0.87952 0.0
C518 C 0.43826 0.88597 0.80213 0.0
C519 C 0.44479 0.91453 0.86735 0.0
C520 C 0.41331 0.88042 0.82271 0.0
N521 N 0.4168 0.89417 0.85523 0.0
C522 C 0.47026 0.92104 0.84719 0.0
C523 C 0.46691 0.9065 0.81444 0.0
C524 C 0.39842 0.94416 0.92015 0.0
C525 C 0.27222 0.88891 0.92253 0.0
C526 C 0.3245 0.93031 0.95673 0.0
C527 C 0.30343 0.93854 0.94675 0.0
C528 C 0.27713 0.91765 0.92954 0.0
N529 N 0.31949 0.90205 0.94984 0.0
C530 C 0.29378 0.88148 0.93292 0.0
Co531 Co 0.50418 0.3813 0.38287 0.0
Co532 Co 0.46647 0.34129 0.45933 0.0
O533 O 0.48007 0.34308 0.40907 0.0
C534 C 0.4589 0.34017 0.32682 0.0
O535 O 0.44411 0.31801 0.34952 0.0
C536 C 0.48893 0.29649 0.45678 0.0
O537 O 0.49887 0.3045 0.42386 0.0
O538 O 0.50771 0.37186 0.47521 0.0
O539 O 0.5275 0.40104 0.42691 0.0
H540 H 0.4597 0.38647 0.57628 0.0
H541 H 0.49975 0.32582 0.35189 0.0
O542 O 0.48221 0.36433 0.33656 0.0
H543 H 0.60751 0.39336 0.37467 0.0
H544 H 0.57119 0.44775 0.28376 0.0
H545 H 0.52321 0.44463 0.39954 0.0
H546 H 0.57089 0.40939 0.3888 0.0
H547 H 0.53657 0.39922 0.31232 0.0
O548 O 0.47587 0.30866 0.47307 0.0
H549 H 0.47549 0.38734 0.51344 0.0
H550 H 0.42935 0.29199 0.51119 0.0
H551 H 0.55583 0.49346 0.3704 0.0
H552 H 0.53566 0.30918 0.33654 0.0
H553 H 0.58031 0.49524 0.31213 0.0
H554 H 0.59002 0.34298 0.3481 0.0
O555 O 0.47452 0.39421 0.39458 0.0
H556 H 0.38983 0.2471 0.39664 0.0
H557 H 0.40551 0.33332 0.47054 0.0
H558 H 0.35433 0.29605 0.45147 0.0
H559 H 0.34618 0.25243 0.41439 0.0
H560 H 0.44063 0.28516 0.41574 0.0
H561 H 0.41325 0.29008 0.5741 0.0
H562 H 0.42833 0.33757 0.60703 0.0
O563 O 0.45636 0.37364 0.44856 0.0
C564 C 0.52835 0.39533 0.45996 0.0
C565 C 0.45286 0.36562 0.56218 0.0
C566 C 0.42682 0.31153 0.56096 0.0
N567 N 0.45308 0.33977 0.50852 0.0
C568 C 0.46166 0.36597 0.52655 0.0
C569 C 0.43604 0.31275 0.52534 0.0
C570 C 0.4353 0.33818 0.57942 0.0
C571 C 0.52333 0.3409 0.35649 0.0
N572 N 0.53307 0.36863 0.37111 0.0
C573 C 0.54359 0.33124 0.34798 0.0
C574 C 0.57407 0.35017 0.35455 0.0
C575 C 0.58388 0.37841 0.36952 0.0
C576 C 0.56297 0.38729 0.37771 0.0
C577 C 0.56004 0.4472 0.30857 0.0
C578 C 0.53319 0.44515 0.37377 0.0
C579 C 0.54069 0.41982 0.32513 0.0
N580 N 0.52813 0.41909 0.35778 0.0
C581 C 0.55176 0.4729 0.35748 0.0
C582 C 0.56543 0.47388 0.32477 0.0
C583 C 0.4588 0.391 0.42253 0.0
C584 C 0.39306 0.26593 0.41294 0.0
C585 C 0.40225 0.31456 0.45422 0.0
C586 C 0.37316 0.29344 0.44361 0.0
C587 C 0.36859 0.26896 0.42284 0.0
N588 N 0.42616 0.31138 0.44455 0.0
C589 C 0.42183 0.2875 0.42407 0.0
Co590 Co 0.13555 0.49895 0.88592 0.0
Co591 Co 0.13527 0.46421 0.96615 0.0
O592 O 0.14783 0.47506 0.91548 0.0
C593 C 0.12984 0.45116 0.83092 0.0
O594 O 0.1385 0.43642 0.852 0.0
C595 C 0.20268 0.49183 0.96939 0.0
O596 O 0.20572 0.50996 0.94284 0.0
O597 O 0.14656 0.50648 0.97861 0.0
O598 O 0.14044 0.52538 0.9273 0.0
H599 H 0.08267 0.46391 0.08017 0.0
H600 H 0.18502 0.48904 0.86169 0.0
O601 O 0.12914 0.4742 0.84193 0.0
H602 H 0.23012 0.5989 0.86885 0.0
H603 H 0.13765 0.55756 0.77683 0.0
H604 H 0.09331 0.52178 0.89678 0.0
H605 H 0.17681 0.56557 0.88352 0.0
H606 H 0.15124 0.5261 0.81264 0.0
O607 O 0.17664 0.47286 0.98102 0.0
H608 H 0.09877 0.47701 0.01707 0.0
H609 H 0.14546 0.42843 0.02204 0.0
H610 H 0.07787 0.55216 0.86089 0.0
H611 H 0.23825 0.52145 0.84604 0.0
H612 H 0.10019 0.57044 0.80037 0.0
H613 H 0.26126 0.57688 0.8497 0.0
O614 O 0.09249 0.47155 0.89855 0.0
H615 H 0.15249 0.38454 0.91218 0.0
H616 H 0.08115 0.40402 0.97897 0.0
H617 H 0.06685 0.35197 0.96327 0.0
H618 H 0.1027 0.34195 0.92974 0.0
H619 H 0.16572 0.4363 0.9281 0.0
H620 H 0.13002 0.41496 0.08528 0.0
H621 H 0.09828 0.43262 0.11471 0.0
O622 O 0.09333 0.45448 0.95381 0.0
C623 C 0.14553 0.52721 0.96086 0.0
C624 C 0.0964 0.45597 0.06762 0.0
C625 C 0.12299 0.42852 0.07048 0.0
N626 N 0.12274 0.45323 0.01575 0.0
C627 C 0.10553 0.46326 0.03186 0.0
C628 C 0.13169 0.43625 0.03467 0.0
C629 C 0.10519 0.43844 0.08698 0.0
C630 C 0.19459 0.51305 0.86279 0.0
N631 N 0.17755 0.52528 0.8733 0.0
C632 C 0.22489 0.53134 0.85414 0.0
C633 C 0.23781 0.56243 0.85631 0.0
C634 C 0.22037 0.57478 0.86711 0.0
C635 C 0.19017 0.55577 0.87563 0.0
C636 C 0.12736 0.54948 0.80279 0.0
C637 C 0.10285 0.52939 0.87032 0.0
C638 C 0.13523 0.53183 0.82342 0.0
N639 N 0.12346 0.52251 0.85704 0.0
C640 C 0.09406 0.54661 0.85014 0.0
C641 C 0.10655 0.55683 0.8162 0.0
C642 C 0.07921 0.45671 0.92682 0.0
C643 C 0.1367 0.38861 0.92687 0.0
C644 C 0.0968 0.39988 0.96418 0.0
C645 C 0.08862 0.37034 0.95547 0.0
C646 C 0.10875 0.36473 0.93669 0.0
N647 N 0.12429 0.42318 0.95455 0.0
C648 C 0.14412 0.41786 0.93607 0.0
Co649 Co 0.6395 0.12429 0.38096 0.0
Co650 Co 0.67554 0.1285 0.46194 0.0
O651 O 0.67613 0.13961 0.41066 0.0
C652 C 0.68434 0.12084 0.32902 0.0
O653 O 0.70694 0.1317 0.35165 0.0
C654 C 0.71882 0.19618 0.45938 0.0
O655 O 0.7121 0.19757 0.42571 0.0
O656 O 0.64282 0.13747 0.47338 0.0
O657 O 0.61771 0.13 0.42174 0.0
H658 H 0.62547 0.07651 0.57726 0.0
H659 H 0.6977 0.17565 0.35576 0.0
O660 O 0.659 0.11752 0.33813 0.0
H661 H 0.62588 0.21238 0.35078 0.0
H662 H 0.57944 0.10719 0.26746 0.0
H663 H 0.57521 0.08298 0.39619 0.0
H664 H 0.60969 0.16091 0.37089 0.0
H665 H 0.6255 0.13071 0.30412 0.0
O666 O 0.70633 0.17114 0.47612 0.0
H667 H 0.6273 0.09073 0.51355 0.0
H668 H 0.72239 0.14318 0.51821 0.0
H669 H 0.52852 0.06052 0.36081 0.0
H670 H 0.71479 0.22698 0.33459 0.0
H671 H 0.5305 0.07249 0.29578 0.0
H672 H 0.67882 0.24585 0.33217 0.0
O673 O 0.62587 0.08237 0.39627 0.0
H674 H 0.77377 0.14901 0.40785 0.0
H675 H 0.6856 0.07742 0.47842 0.0
H676 H 0.72519 0.06535 0.46453 0.0
H677 H 0.7698 0.10136 0.42916 0.0
H678 H 0.73347 0.15994 0.42184 0.0
H679 H 0.72156 0.12979 0.58207 0.0
H680 H 0.67286 0.09608 0.61197 0.0
O681 O 0.6451 0.08545 0.4511 0.0
C682 C 0.62084 0.13555 0.4553 0.0
C683 C 0.64685 0.09112 0.5645 0.0
C684 C 0.70077 0.12104 0.56721 0.0
N685 N 0.67492 0.11749 0.51204 0.0
C686 C 0.64803 0.09918 0.5284 0.0
C687 C 0.70109 0.12859 0.53105 0.0
C688 C 0.67344 0.10213 0.58397 0.0
C689 C 0.68176 0.18336 0.35445 0.0
N690 N 0.65265 0.16508 0.36484 0.0
C691 C 0.69164 0.21264 0.34259 0.0
C692 C 0.67149 0.22323 0.34132 0.0
C693 C 0.64182 0.2045 0.35183 0.0
C694 C 0.63279 0.17538 0.36355 0.0
C695 C 0.57829 0.10232 0.29581 0.0
C696 C 0.57622 0.08894 0.36813 0.0
C697 C 0.60432 0.11533 0.31671 0.0
N698 N 0.60307 0.10853 0.35245 0.0
C699 C 0.5497 0.07594 0.34817 0.0
C700 C 0.55082 0.08265 0.31171 0.0
C701 C 0.62846 0.07022 0.42485 0.0
C702 C 0.75453 0.13321 0.42346 0.0
C703 C 0.70482 0.09317 0.46286 0.0
C704 C 0.72723 0.08623 0.45517 0.0
C705 C 0.75226 0.10645 0.43536 0.0
N706 N 0.70728 0.11957 0.45133 0.0
C707 C 0.73167 0.13939 0.43169 0.0
Co708 Co 0.64338 0.52234 0.88401 0.0
Co709 Co 0.68241 0.55703 0.96215 0.0
O710 O 0.68092 0.54468 0.91166 0.0
C711 C 0.65533 0.56147 0.82019 0.0
O712 O 0.63155 0.56299 0.82964 0.0
C713 C 0.72652 0.53364 0.95808 0.0
O714 O 0.718 0.52389 0.92521 0.0
O715 O 0.65086 0.51556 0.97561 0.0
O716 O 0.6219 0.49676 0.92665 0.0
H717 H 0.63626 0.56211 0.07915 0.0
H718 H 0.69895 0.52765 0.85293 0.0
O719 O 0.66434 0.5473 0.84015 0.0
H720 H 0.62986 0.41895 0.868 0.0
H721 H 0.58058 0.46821 0.77554 0.0
H722 H 0.57967 0.50237 0.89906 0.0
H723 H 0.61422 0.45538 0.88516 0.0
H724 H 0.6277 0.49544 0.81008 0.0
O725 O 0.71438 0.54637 0.9752 0.0
H726 H 0.63598 0.54789 0.01576 0.0
H727 H 0.73119 0.59131 0.0157 0.0
H728 H 0.53219 0.47513 0.86546 0.0
H729 H 0.71531 0.49196 0.83477 0.0
H730 H 0.5325 0.45789 0.80314 0.0
H731 H 0.6807 0.43717 0.84243 0.0
O732 O 0.63053 0.55158 0.89825 0.0
H733 H 0.77703 0.63373 0.9002 0.0
H734 H 0.69265 0.61843 0.97745 0.0
H735 H 0.73099 0.66981 0.96023 0.0
H736 H 0.77371 0.67776 0.92149 0.0
H737 H 0.73795 0.58276 0.91762 0.0
H738 H 0.73248 0.6058 0.0792 0.0
H739 H 0.68478 0.59129 0.11131 0.0
O740 O 0.65101 0.56861 0.95236 0.0
C741 C 0.62748 0.49523 0.95976 0.0
C742 C 0.6572 0.56867 0.06543 0.0
C743 C 0.7112 0.59314 0.06546 0.0
N744 N 0.68352 0.56896 0.01194 0.0
C745 C 0.65719 0.56076 0.02949 0.0
C746 C 0.71032 0.58481 0.02952 0.0
C747 C 0.68443 0.585 0.08346 0.0
C748 C 0.68364 0.50384 0.85603 0.0
N749 N 0.65568 0.49367 0.8702 0.0
C750 C 0.69309 0.48374 0.84584 0.0
C751 C 0.67368 0.453 0.8502 0.0
C752 C 0.64518 0.44278 0.86461 0.0
C753 C 0.63651 0.46354 0.87452 0.0
C754 C 0.58025 0.4756 0.80262 0.0
C755 C 0.58001 0.49484 0.87201 0.0
C756 C 0.60681 0.49102 0.82234 0.0
N757 N 0.60645 0.50043 0.85663 0.0
C758 C 0.55303 0.47946 0.8531 0.0
C759 C 0.55322 0.46981 0.81815 0.0
C760 C 0.63368 0.56672 0.92665 0.0
C761 C 0.75862 0.63058 0.91727 0.0
C762 C 0.71105 0.62163 0.96049 0.0
C763 C 0.73277 0.65082 0.95088 0.0
C764 C 0.75672 0.65527 0.92916 0.0
N765 N 0.71318 0.59751 0.949 0.0
C766 C 0.73648 0.60171 0.92742 0.0
Co767 Co 0.13267 0.63825 0.38322 0.0
Co768 Co 0.13214 0.67469 0.46147 0.0
O769 O 0.14536 0.67499 0.41151 0.0
C770 C 0.12916 0.68098 0.32793 0.0
O771 O 0.13802 0.70389 0.34983 0.0
C772 C 0.19919 0.71002 0.46856 0.0
O773 O 0.20057 0.68947 0.44901 0.0
O774 O 0.14243 0.64342 0.47629 0.0
O775 O 0.13699 0.61742 0.42591 0.0
H776 H 0.07857 0.62622 0.57664 0.0
H777 H 0.18398 0.6975 0.36143 0.0
O778 O 0.12721 0.65649 0.33837 0.0
H779 H 0.22504 0.62916 0.36554 0.0
H780 H 0.12717 0.57768 0.27418 0.0
H781 H 0.09124 0.5738 0.39785 0.0
H782 H 0.17179 0.61059 0.37902 0.0
H783 H 0.14522 0.62413 0.30925 0.0
O784 O 0.17373 0.70751 0.47539 0.0
H785 H 0.09506 0.62708 0.51413 0.0
H786 H 0.14149 0.72243 0.51415 0.0
H787 H 0.0731 0.52678 0.36374 0.0
H788 H 0.23724 0.71699 0.34718 0.0
H789 H 0.09107 0.52854 0.30126 0.0
H790 H 0.25823 0.68278 0.34931 0.0
O791 O 0.08981 0.62358 0.39511 0.0
H792 H 0.15192 0.77114 0.4033 0.0
H793 H 0.07823 0.68173 0.47056 0.0
H794 H 0.06495 0.71962 0.45188 0.0
H795 H 0.10199 0.7648 0.41811 0.0
H796 H 0.1641 0.73244 0.42208 0.0
H797 H 0.12581 0.72265 0.5768 0.0
H798 H 0.09399 0.67426 0.60842 0.0
O799 O 0.09012 0.64251 0.44947 0.0
C800 C 0.14142 0.62122 0.4596 0.0
C801 C 0.09243 0.64745 0.56316 0.0
C802 C 0.11896 0.70156 0.56326 0.0
N803 N 0.11924 0.67478 0.51051 0.0
C804 C 0.10182 0.64808 0.52776 0.0
C805 C 0.12788 0.70131 0.52784 0.0
C806 C 0.1011 0.67441 0.58098 0.0
C807 C 0.19269 0.68231 0.36206 0.0
N808 N 0.17453 0.6528 0.37103 0.0
C809 C 0.223 0.69356 0.35412 0.0
C810 C 0.23478 0.67438 0.35539 0.0
C811 C 0.21619 0.64432 0.36454 0.0
C812 C 0.18602 0.63392 0.37238 0.0
C813 C 0.11933 0.5766 0.3013 0.0
C814 C 0.09944 0.57474 0.37083 0.0
C815 C 0.12942 0.60286 0.32134 0.0
N816 N 0.11962 0.60168 0.35579 0.0
C817 C 0.08897 0.54803 0.3516 0.0
C818 C 0.09903 0.54903 0.31657 0.0
C819 C 0.07627 0.62569 0.42272 0.0
C820 C 0.13561 0.75158 0.41806 0.0
C821 C 0.09437 0.70116 0.45558 0.0
C822 C 0.08677 0.72263 0.44523 0.0
C823 C 0.10757 0.74799 0.42633 0.0
N824 N 0.12193 0.70486 0.44742 0.0
C825 C 0.14242 0.72965 0.42887 0.0
Co826 Co 0.51028 0.13446 0.88242 0.0
Co827 Co 0.46975 0.13075 0.958 0.0
O828 O 0.48459 0.14553 0.90947 0.0
C829 C 0.46199 0.11678 0.82728 0.0
O830 O 0.44233 0.09723 0.84993 0.0
C831 C 0.4988 0.19753 0.96635 0.0
O832 O 0.52201 0.19975 0.94886 0.0
O833 O 0.51107 0.14265 0.97495 0.0
O834 O 0.53268 0.13542 0.92665 0.0
H835 H 0.46149 0.07471 0.0721 0.0
H836 H 0.50416 0.18614 0.85869 0.0
O837 O 0.4892 0.13363 0.83672 0.0
H838 H 0.61209 0.22811 0.88273 0.0
H839 H 0.57522 0.14047 0.77771 0.0
H840 H 0.53214 0.09159 0.8939 0.0
H841 H 0.57665 0.17399 0.8906 0.0
H842 H 0.54222 0.15353 0.81187 0.0
O843 O 0.47609 0.17159 0.97219 0.0
H844 H 0.479 0.09272 0.01044 0.0
H845 H 0.42883 0.13781 0.00889 0.0
H846 H 0.56436 0.07731 0.86012 0.0
H847 H 0.53889 0.24035 0.85003 0.0
H848 H 0.5862 0.10189 0.80157 0.0
H849 H 0.59327 0.26168 0.86221 0.0
O850 O 0.48151 0.09082 0.89052 0.0
H851 H 0.39296 0.14662 0.89361 0.0
H852 H 0.4098 0.07511 0.96414 0.0
H853 H 0.35895 0.0597 0.94199 0.0
H854 H 0.35026 0.09562 0.90654 0.0
H855 H 0.44354 0.161 0.91599 0.0
H856 H 0.41098 0.12056 0.07066 0.0
H857 H 0.42726 0.08869 0.10266 0.0
O858 O 0.46235 0.0895 0.94516 0.0
C859 C 0.53243 0.14076 0.96004 0.0
C860 C 0.45421 0.08857 0.05845 0.0
C861 C 0.42591 0.11435 0.05767 0.0
N862 N 0.45501 0.11637 0.00615 0.0
C863 C 0.46401 0.09878 0.02351 0.0
C864 C 0.43621 0.12417 0.02276 0.0
C865 C 0.43504 0.09645 0.07559 0.0
C866 C 0.52784 0.1952 0.86369 0.0
N867 N 0.53836 0.17688 0.875 0.0
C868 C 0.54738 0.22594 0.85889 0.0
C869 C 0.57788 0.2379 0.86578 0.0
C870 C 0.58845 0.21908 0.87733 0.0
C871 C 0.56825 0.18845 0.88186 0.0
C872 C 0.56561 0.12943 0.80299 0.0
C873 C 0.54146 0.1023 0.86838 0.0
C874 C 0.54701 0.13681 0.82254 0.0
N875 N 0.53548 0.12353 0.85501 0.0
C876 C 0.55968 0.09411 0.84937 0.0
C877 C 0.57188 0.10787 0.8165 0.0
C878 C 0.46577 0.07641 0.9178 0.0
C879 C 0.39645 0.1308 0.90911 0.0
C880 C 0.40624 0.09083 0.94859 0.0
C881 C 0.37737 0.082 0.93621 0.0
C882 C 0.37251 0.10217 0.91633 0.0
N883 N 0.42959 0.11899 0.94149 0.0
C884 C 0.42501 0.13885 0.92194 0.0
Co885 Co 0.37929 0.50177 0.39204 0.0
Co886 Co 0.3417 0.46047 0.46752 0.0
O887 O 0.34216 0.4759 0.41894 0.0
C888 C 0.35084 0.45398 0.33575 0.0
O889 O 0.3497 0.4341 0.35883 0.0
C890 C 0.30245 0.48832 0.47511 0.0
O891 O 0.31907 0.50888 0.45138 0.0
O892 O 0.37197 0.50131 0.48498 0.0
O893 O 0.40012 0.52401 0.43654 0.0
H894 H 0.38909 0.44971 0.58049 0.0
H895 H 0.32204 0.49539 0.36585 0.0
O896 O 0.35997 0.48091 0.34569 0.0
H897 H 0.38627 0.60314 0.39281 0.0
H898 H 0.43958 0.57001 0.29017 0.0
H899 H 0.44387 0.52356 0.40438 0.0
H900 H 0.40519 0.56801 0.40154 0.0
H901 H 0.39304 0.53498 0.32224 0.0
O902 O 0.30839 0.46784 0.4837 0.0
H903 H 0.38876 0.4683 0.51942 0.0
H904 H 0.29346 0.42 0.51864 0.0
H905 H 0.49085 0.55736 0.37228 0.0
H906 H 0.30234 0.52983 0.35625 0.0
H907 H 0.48888 0.58096 0.31478 0.0
H908 H 0.33452 0.58412 0.3699 0.0
O909 O 0.39443 0.47314 0.40041 0.0
H910 H 0.24775 0.38634 0.40314 0.0
H911 H 0.33526 0.39948 0.47231 0.0
H912 H 0.29857 0.34926 0.44955 0.0
H913 H 0.25437 0.34242 0.41476 0.0
H914 H 0.2852 0.43626 0.42612 0.0
H915 H 0.29272 0.40099 0.57979 0.0
H916 H 0.34079 0.41576 0.61108 0.0
O917 O 0.37452 0.45203 0.45368 0.0
C918 C 0.39495 0.52303 0.47013 0.0
C919 C 0.36799 0.44301 0.5671 0.0
C920 C 0.31391 0.4157 0.56671 0.0
N921 N 0.34115 0.44502 0.51534 0.0
C922 C 0.36766 0.45341 0.53248 0.0
C923 C 0.31447 0.42656 0.5321 0.0
C924 C 0.34089 0.42399 0.58425 0.0
C925 C 0.33629 0.51904 0.37149 0.0
N926 N 0.36475 0.52965 0.38422 0.0
C927 C 0.32496 0.53841 0.36616 0.0
C928 C 0.343 0.56885 0.37389 0.0
C929 C 0.37203 0.57953 0.3868 0.0
C930 C 0.38257 0.55949 0.39187 0.0
C931 C 0.44069 0.5595 0.31489 0.0
C932 C 0.4428 0.53343 0.37914 0.0
C933 C 0.41442 0.53979 0.3333 0.0
N934 N 0.41574 0.52743 0.36533 0.0
C935 C 0.46948 0.55261 0.36113 0.0
C936 C 0.46836 0.56581 0.32886 0.0
C937 C 0.39196 0.45634 0.42707 0.0
C938 C 0.26687 0.38902 0.41833 0.0
C939 C 0.31618 0.39673 0.45706 0.0
C940 C 0.29542 0.36821 0.44432 0.0
C941 C 0.27062 0.36439 0.42483 0.0
N942 N 0.3123 0.42076 0.45067 0.0
C943 C 0.28809 0.4172 0.43151 0.0
Co944 Co 0.89181 0.3735 0.88328 0.0
Co945 Co 0.89022 0.34168 0.96551 0.0
O946 O 0.87794 0.33864 0.91509 0.0
C947 C 0.91508 0.3557 0.82061 0.0
O948 O 0.94171 0.37804 0.82908 0.0
C949 C 0.82301 0.30676 0.97522 0.0
O950 O 0.82133 0.32873 0.95945 0.0
O951 O 0.87887 0.37301 0.97495 0.0
O952 O 0.89052 0.39888 0.92323 0.0
H953 H 0.94101 0.39641 0.07909 0.0
H954 H 0.83901 0.31502 0.8642 0.0
O955 O 0.89288 0.34882 0.84162 0.0
H956 H 0.80182 0.38671 0.86639 0.0
H957 H 0.89508 0.4262 0.76773 0.0
H958 H 0.9376 0.43798 0.88929 0.0
H959 H 0.85496 0.40367 0.8789 0.0
H960 H 0.87619 0.38295 0.80872 0.0
O961 O 0.84849 0.30848 0.97895 0.0
H962 H 0.9261 0.39209 0.01536 0.0
H963 H 0.87865 0.29693 0.02352 0.0
H964 H 0.95676 0.48204 0.84928 0.0
H965 H 0.78572 0.29709 0.85105 0.0
H966 H 0.9355 0.47631 0.78787 0.0
H967 H 0.76678 0.33304 0.85217 0.0
O968 O 0.93436 0.38679 0.89561 0.0
H969 H 0.87479 0.24403 0.91607 0.0
H970 H 0.94408 0.33615 0.98209 0.0
H971 H 0.95898 0.29833 0.9696 0.0
H972 H 0.92414 0.25178 0.93649 0.0
H973 H 0.86097 0.28266 0.92878 0.0
H974 H 0.89289 0.30022 0.08742 0.0
H975 H 0.9244 0.35024 0.11556 0.0
O976 O 0.93246 0.37413 0.95362 0.0
C977 C 0.88326 0.39581 0.95639 0.0
C978 C 0.92736 0.37448 0.0671 0.0
C979 C 0.90033 0.3205 0.07178 0.0
N980 N 0.90179 0.3443 0.01563 0.0
C981 C 0.91891 0.37189 0.031 0.0
C982 C 0.8923 0.31878 0.0356 0.0
C983 C 0.91801 0.34857 0.08755 0.0
C984 C 0.83099 0.33085 0.86452 0.0
N985 N 0.85016 0.36042 0.87218 0.0
C986 C 0.80076 0.32054 0.85715 0.0
C987 C 0.79015 0.34071 0.85782 0.0
C988 C 0.80979 0.37081 0.86581 0.0
C989 C 0.83987 0.3803 0.87304 0.0
C990 C 0.90443 0.42907 0.79438 0.0
C991 C 0.9281 0.43533 0.8627 0.0
C992 C 0.89387 0.4046 0.81772 0.0
N993 N 0.90572 0.4079 0.85142 0.0
C994 C 0.93909 0.46037 0.84014 0.0
C995 C 0.92715 0.45714 0.80572 0.0
C996 C 0.94715 0.38793 0.92541 0.0
C997 C 0.89015 0.2642 0.93055 0.0
C998 C 0.92892 0.31611 0.96741 0.0
C999 C 0.93742 0.2947 0.96055 0.0
C1000 C 0.91785 0.26857 0.94199 0.0
N1001 N 0.90168 0.31162 0.95621 0.0
C1002 C 0.88242 0.28612 0.9379 0.0
Co1003 Co 0.52132 0.88143 0.38803 0.0
Co1004 Co 0.55844 0.88267 0.46641 0.0
O1005 O 0.54626 0.86987 0.41625 0.0
C1006 C 0.56867 0.88824 0.33216 0.0
O1007 O 0.5839 0.88016 0.35317 0.0
C1008 C 0.52846 0.81551 0.47228 0.0
O1009 O 0.50658 0.81364 0.45223 0.0
O1010 O 0.51645 0.87119 0.48102 0.0
O1011 O 0.49568 0.87589 0.43045 0.0
H1012 H 0.56146 0.93484 0.5819 0.0
H1013 H 0.53217 0.83242 0.36455 0.0
O1014 O 0.54538 0.88836 0.3433 0.0
H1015 H 0.4222 0.78593 0.3711 0.0
H1016 H 0.46226 0.88095 0.28012 0.0
H1017 H 0.4967 0.92178 0.40163 0.0
H1018 H 0.45487 0.83951 0.38498 0.0
H1019 H 0.49379 0.86669 0.31483 0.0
O1020 O 0.55068 0.84126 0.47996 0.0
H1021 H 0.54645 0.91858 0.51923 0.0
H1022 H 0.59713 0.87401 0.51931 0.0
H1023 H 0.46558 0.93718 0.36734 0.0
H1024 H 0.50045 0.77889 0.34983 0.0
H1025 H 0.44805 0.91668 0.30601 0.0
H1026 H 0.44497 0.75517 0.35318 0.0
O1027 O 0.54818 0.92458 0.40046 0.0
H1028 H 0.63715 0.86618 0.40813 0.0
H1029 H 0.61862 0.93747 0.47647 0.0
H1030 H 0.67023 0.95232 0.45809 0.0
H1031 H 0.67979 0.91649 0.42377 0.0
H1032 H 0.58579 0.85241 0.42665 0.0
H1033 H 0.61243 0.88947 0.58212 0.0
H1034 H 0.59468 0.92025 0.6138 0.0
O1035 O 0.56728 0.92446 0.45465 0.0
C1036 C 0.49498 0.8715 0.46413 0.0
C1037 C 0.56935 0.92144 0.5684 0.0
C1038 C 0.59794 0.89596 0.56854 0.0
N1039 N 0.57088 0.89534 0.51563 0.0
C1040 C 0.56094 0.91218 0.53291 0.0
C1041 C 0.58909 0.88714 0.53302 0.0
C1042 C 0.58798 0.91324 0.58628 0.0
C1043 C 0.50813 0.8225 0.36568 0.0
N1044 N 0.49549 0.83932 0.37555 0.0
C1045 C 0.49023 0.79205 0.35749 0.0
C1046 C 0.45912 0.77875 0.35945 0.0
C1047 C 0.44635 0.79597 0.36955 0.0
C1048 C 0.46498 0.82633 0.37762 0.0
C1049 C 0.46984 0.89024 0.30658 0.0
C1050 C 0.48919 0.91281 0.37494 0.0
C1051 C 0.48763 0.88211 0.3265 0.0
N1052 N 0.49671 0.89303 0.36047 0.0
C1053 C 0.47161 0.92164 0.35565 0.0
C1054 C 0.46181 0.91017 0.32124 0.0
C1055 C 0.56376 0.9382 0.42811 0.0
C1056 C 0.63328 0.88196 0.42313 0.0
C1057 C 0.62252 0.92185 0.46129 0.0
C1058 C 0.65184 0.93033 0.45109 0.0
C1059 C 0.65719 0.91021 0.43187 0.0
N1060 N 0.59919 0.89408 0.45268 0.0
C1061 C 0.60426 0.87426 0.4338 0.0
Co1062 Co 0.50552 0.38028 0.11795 0.0
Co1063 Co 0.47023 0.34108 0.04021 0.0
O1064 O 0.48272 0.34284 0.09074 0.0
C1065 C 0.45841 0.33813 0.17269 0.0
O1066 O 0.44586 0.31469 0.15136 0.0
C1067 C 0.49735 0.30768 0.00519 0.0
O1068 O 0.51103 0.33058 0.98309 0.0
O1069 O 0.51152 0.37337 0.02554 0.0
O1070 O 0.53167 0.40007 0.07562 0.0
H1071 H 0.46333 0.38411 0.92159 0.0
H1072 H 0.49817 0.32169 0.14211 0.0
O1073 O 0.48061 0.36288 0.16227 0.0
H1074 H 0.60702 0.39249 0.14601 0.0
H1075 H 0.55545 0.44433 0.22671 0.0
H1076 H 0.52877 0.44415 0.09957 0.0
H1077 H 0.57212 0.40954 0.12746 0.0
H1078 H 0.52913 0.39685 0.19317 0.0
O1079 O 0.48121 0.30879 0.03071 0.0
H1080 H 0.47893 0.3861 0.98472 0.0
H1081 H 0.43446 0.29085 0.98891 0.0
H1082 H 0.55584 0.49222 0.13208 0.0
H1083 H 0.53213 0.30374 0.16148 0.0
H1084 H 0.56931 0.49251 0.19631 0.0
H1085 H 0.58708 0.33919 0.16346 0.0
O1086 O 0.47726 0.39388 0.10271 0.0
H1087 H 0.39522 0.24548 0.10158 0.0
H1088 H 0.40848 0.331 0.02777 0.0
H1089 H 0.35756 0.29216 0.04597 0.0
H1090 H 0.35065 0.24889 0.08296 0.0
H1091 H 0.44579 0.28515 0.08335 0.0
H1092 H 0.41848 0.28781 0.92576 0.0
H1093 H 0.43288 0.33468 0.89168 0.0
O1094 O 0.45842 0.37249 0.04926 0.0
C1095 C 0.53255 0.39582 0.04206 0.0
C1096 C 0.45689 0.36352 0.93615 0.0
C1097 C 0.43172 0.30948 0.93849 0.0
N1098 N 0.45754 0.33864 0.99052 0.0
C1099 C 0.46564 0.36451 0.97191 0.0
C1100 C 0.44085 0.31134 0.97423 0.0
C1101 C 0.43981 0.33579 0.91939 0.0
C1102 C 0.52192 0.3374 0.14307 0.0
N1103 N 0.533 0.36677 0.13354 0.0
C1104 C 0.54112 0.32703 0.15399 0.0
C1105 C 0.57194 0.34691 0.15504 0.0
C1106 C 0.58313 0.37678 0.14521 0.0
C1107 C 0.56323 0.38631 0.13442 0.0
C1108 C 0.54992 0.44453 0.19881 0.0
C1109 C 0.53494 0.44411 0.12735 0.0
C1110 C 0.53489 0.41767 0.17964 0.0
N1111 N 0.52774 0.41771 0.14425 0.0
C1112 C 0.55013 0.4714 0.14567 0.0
C1113 C 0.55764 0.47155 0.18169 0.0
C1114 C 0.46124 0.39026 0.07496 0.0
C1115 C 0.39792 0.26416 0.08534 0.0
C1116 C 0.40572 0.3124 0.04411 0.0
C1117 C 0.37679 0.29039 0.05421 0.0
C1118 C 0.37293 0.26611 0.07493 0.0
N1119 N 0.43011 0.31024 0.05424 0.0
C1120 C 0.4265 0.2866 0.07475 0.0
Co1121 Co 0.12864 0.4994 0.62056 0.0
Co1122 Co 0.132 0.46178 0.54452 0.0
O1123 O 0.14392 0.47615 0.59455 0.0
C1124 C 0.12622 0.45474 0.6766 0.0
O1125 O 0.13422 0.44065 0.65365 0.0
C1126 C 0.1997 0.48559 0.54619 0.0
O1127 O 0.20188 0.49503 0.57941 0.0
O1128 O 0.14144 0.50255 0.52833 0.0
O1129 O 0.13201 0.5227 0.57629 0.0
H1130 H 0.0788 0.45237 0.42779 0.0
H1131 H 0.18091 0.49673 0.65054 0.0
O1132 O 0.12418 0.47746 0.66696 0.0
H1133 H 0.21713 0.60428 0.63096 0.0
H1134 H 0.12098 0.56039 0.7221 0.0
H1135 H 0.08424 0.5176 0.60196 0.0
H1136 H 0.16498 0.56634 0.61646 0.0
H1137 H 0.13973 0.52993 0.69238 0.0
O1138 O 0.17429 0.47234 0.53037 0.0
H1139 H 0.0938 0.46895 0.49037 0.0
H1140 H 0.14528 0.42522 0.4931 0.0
H1141 H 0.06459 0.54722 0.63121 0.0
H1142 H 0.23302 0.53391 0.66611 0.0
H1143 H 0.08312 0.56893 0.69178 0.0
H1144 H 0.25156 0.58817 0.65617 0.0
O1145 O 0.08643 0.46892 0.60876 0.0
H1146 H 0.15257 0.38734 0.60791 0.0
H1147 H 0.08005 0.40002 0.53423 0.0
H1148 H 0.06762 0.34934 0.55388 0.0
H1149 H 0.1041 0.3427 0.59085 0.0
H1150 H 0.1638 0.43761 0.58826 0.0
H1151 H 0.13103 0.40836 0.43045 0.0
H1152 H 0.09746 0.42183 0.3974 0.0
O1153 O 0.08924 0.45051 0.55528 0.0
C1154 C 0.13848 0.52324 0.54321 0.0
C1155 C 0.09333 0.44623 0.44194 0.0
C1156 C 0.12267 0.42157 0.44343 0.0
N1157 N 0.12011 0.4478 0.49552 0.0
C1158 C 0.10182 0.45548 0.47742 0.0
C1159 C 0.13069 0.43121 0.4789 0.0
C1160 C 0.10384 0.42914 0.4249 0.0
C1161 C 0.18855 0.52024 0.6466 0.0
N1162 N 0.16972 0.52922 0.63274 0.0
C1163 C 0.21822 0.54123 0.65526 0.0
C1164 C 0.22862 0.57166 0.64961 0.0
C1165 C 0.20933 0.5807 0.63542 0.0
C1166 C 0.17982 0.55906 0.62707 0.0
C1167 C 0.11267 0.55076 0.69596 0.0
C1168 C 0.09235 0.52683 0.6284 0.0
C1169 C 0.12323 0.53362 0.67891 0.0
N1170 N 0.11333 0.52224 0.64529 0.0
C1171 C 0.0811 0.54358 0.64482 0.0
C1172 C 0.09146 0.55571 0.6788 0.0
C1173 C 0.0741 0.45286 0.58106 0.0
C1174 C 0.13655 0.38992 0.59165 0.0
C1175 C 0.09598 0.39742 0.55051 0.0
C1176 C 0.08885 0.3686 0.56145 0.0
C1177 C 0.10933 0.36489 0.58215 0.0
N1178 N 0.12279 0.42189 0.55979 0.0
C1179 C 0.1429 0.41839 0.58021 0.0
Co1180 Co 0.64739 0.13698 0.12165 0.0
Co1181 Co 0.68255 0.13271 0.04408 0.0
O1182 O 0.68347 0.14733 0.09324 0.0
C1183 C 0.68809 0.12956 0.17563 0.0
O1184 O 0.70896 0.13423 0.15205 0.0
C1185 C 0.71669 0.19941 0.03182 0.0
O1186 O 0.69463 0.20088 0.04763 0.0
O1187 O 0.65105 0.14243 0.02825 0.0
O1188 O 0.62676 0.14103 0.0787 0.0
H1189 H 0.63299 0.07358 0.93244 0.0
H1190 H 0.70713 0.18583 0.14515 0.0
O1191 O 0.66514 0.13143 0.16696 0.0
H1192 H 0.64601 0.23427 0.12925 0.0
H1193 H 0.59045 0.14657 0.22602 0.0
H1194 H 0.58223 0.0956 0.1108 0.0
H1195 H 0.62416 0.18002 0.1189 0.0
H1196 H 0.63585 0.15639 0.19271 0.0
O1197 O 0.71541 0.17406 0.02873 0.0
H1198 H 0.63446 0.09219 0.99398 0.0
H1199 H 0.7297 0.14261 0.99025 0.0
H1200 H 0.53624 0.08369 0.14441 0.0
H1201 H 0.72982 0.24007 0.15638 0.0
H1202 H 0.54016 0.10953 0.20231 0.0
H1203 H 0.69924 0.26473 0.14831 0.0
O1204 O 0.63067 0.09331 0.11141 0.0
H1205 H 0.77979 0.154 0.10111 0.0
H1206 H 0.6891 0.0784 0.03771 0.0
H1207 H 0.72714 0.06549 0.05688 0.0
H1208 H 0.77294 0.10348 0.08872 0.0
H1209 H 0.74095 0.16581 0.08194 0.0
H1210 H 0.72924 0.12471 0.92857 0.0
H1211 H 0.68063 0.08987 0.89931 0.0
O1212 O 0.6504 0.09114 0.05835 0.0
C1213 C 0.62974 0.14335 0.04475 0.0
C1214 C 0.65432 0.0887 0.94493 0.0
C1215 C 0.70834 0.11744 0.94274 0.0
N1216 N 0.68213 0.11833 0.99575 0.0
C1217 C 0.6553 0.09925 0.9798 0.0
C1218 C 0.70845 0.12755 0.97764 0.0
C1219 C 0.68106 0.09787 0.92635 0.0
C1220 C 0.69352 0.19622 0.14201 0.0
N1221 N 0.6642 0.17956 0.1316 0.0
C1222 C 0.70657 0.22703 0.14822 0.0
C1223 C 0.68942 0.24086 0.14362 0.0
C1224 C 0.65958 0.2238 0.13289 0.0
C1225 C 0.64732 0.19305 0.12688 0.0
C1226 C 0.58841 0.13492 0.20104 0.0
C1227 C 0.58413 0.10651 0.1363 0.0
C1228 C 0.61406 0.14053 0.18193 0.0
N1229 N 0.61168 0.12697 0.14952 0.0
C1230 C 0.558 0.09976 0.15514 0.0
C1231 C 0.56022 0.11426 0.18761 0.0
C1232 C 0.63295 0.07852 0.08517 0.0
C1233 C 0.75995 0.13727 0.08721 0.0
C1234 C 0.70883 0.09497 0.05182 0.0
C1235 C 0.73037 0.08757 0.06247 0.0
C1236 C 0.75608 0.10891 0.08029 0.0
N1237 N 0.71279 0.12284 0.0587 0.0
C1238 C 0.73794 0.14387 0.07615 0.0
Co1239 Co 0.51957 0.63388 0.63063 0.0
Co1240 Co 0.55452 0.67202 0.5522 0.0
O1241 O 0.54201 0.67103 0.60259 0.0
C1242 C 0.56639 0.67777 0.684 0.0
O1243 O 0.57882 0.70019 0.66116 0.0
C1244 C 0.52804 0.70525 0.51552 0.0
O1245 O 0.51461 0.6821 0.4938 0.0
O1246 O 0.51309 0.64007 0.53827 0.0
O1247 O 0.49372 0.61296 0.58835 0.0
H1248 H 0.56029 0.62678 0.43481 0.0
H1249 H 0.52541 0.692 0.65402 0.0
O1250 O 0.54415 0.65256 0.67489 0.0
H1251 H 0.4168 0.61982 0.65435 0.0
H1252 H 0.47023 0.57118 0.74088 0.0
H1253 H 0.49797 0.57001 0.61437 0.0
H1254 H 0.45282 0.60369 0.63745 0.0
H1255 H 0.4954 0.61819 0.70584 0.0
O1256 O 0.54392 0.70443 0.54156 0.0
H1257 H 0.54514 0.62596 0.49796 0.0
H1258 H 0.59072 0.72131 0.49983 0.0
H1259 H 0.47208 0.52251 0.64826 0.0
H1260 H 0.49031 0.70905 0.67167 0.0
H1261 H 0.45811 0.52294 0.71214 0.0
H1262 H 0.43549 0.67288 0.67186 0.0
O1263 O 0.54852 0.62082 0.6167 0.0
H1264 H 0.6305 0.7684 0.61098 0.0
H1265 H 0.61593 0.68095 0.54035 0.0
H1266 H 0.66708 0.71971 0.55779 0.0
H1267 H 0.67465 0.76394 0.59317 0.0
H1268 H 0.57967 0.72877 0.5936 0.0
H1269 H 0.60633 0.72316 0.43669 0.0
H1270 H 0.5911 0.67565 0.40376 0.0
O1271 O 0.56584 0.64034 0.5621 0.0
C1272 C 0.49241 0.6174 0.5549 0.0
C1273 C 0.56709 0.64764 0.44888 0.0
C1274 C 0.59292 0.70173 0.44993 0.0
N1275 N 0.56707 0.67354 0.50258 0.0
C1276 C 0.5586 0.64732 0.48464 0.0
C1277 C 0.58401 0.70054 0.48567 0.0
C1278 C 0.58437 0.67506 0.43147 0.0
C1279 C 0.50172 0.67598 0.65432 0.0
N1280 N 0.49132 0.64673 0.64486 0.0
C1281 C 0.48187 0.68584 0.66421 0.0
C1282 C 0.45113 0.66556 0.66426 0.0
C1283 C 0.44064 0.63581 0.65441 0.0
C1284 C 0.46116 0.6268 0.64467 0.0
C1285 C 0.47596 0.57074 0.71306 0.0
C1286 C 0.49152 0.57035 0.64197 0.0
C1287 C 0.49031 0.59728 0.69308 0.0
N1288 N 0.4978 0.59683 0.65789 0.0
C1289 C 0.47702 0.54338 0.66108 0.0
C1290 C 0.46923 0.54364 0.6969 0.0
C1291 C 0.56381 0.62351 0.58858 0.0
C1292 C 0.62751 0.7493 0.59544 0.0
C1293 C 0.61898 0.69998 0.55601 0.0
C1294 C 0.64803 0.72193 0.56567 0.0
C1295 C 0.65227 0.74676 0.58549 0.0
N1296 N 0.59481 0.70272 0.5657 0.0
C1297 C 0.59879 0.72689 0.58532 0.0
Co1298 Co 0.88977 0.51792 0.11088 0.0
Co1299 Co 0.8955 0.55932 0.03427 0.0
O1300 O 0.87971 0.54437 0.08306 0.0
C1301 C 0.89465 0.56382 0.16688 0.0
O1302 O 0.89012 0.58044 0.14376 0.0
C1303 C 0.82823 0.53183 0.02621 0.0
O1304 O 0.8239 0.51309 0.05253 0.0
O1305 O 0.8858 0.51844 0.01736 0.0
O1306 O 0.88652 0.49447 0.06715 0.0
H1307 H 0.95737 0.57093 0.92446 0.0
H1308 H 0.84005 0.52706 0.13625 0.0
O1309 O 0.89419 0.53986 0.15708 0.0
H1310 H 0.79336 0.41832 0.11426 0.0
H1311 H 0.87854 0.44809 0.21214 0.0
H1312 H 0.93086 0.49405 0.09856 0.0
H1313 H 0.84745 0.45183 0.104 0.0
H1314 H 0.86967 0.48518 0.18091 0.0
O1315 O 0.85483 0.55116 0.01653 0.0
H1316 H 0.93754 0.553 0.98543 0.0
H1317 H 0.8872 0.59789 0.98065 0.0
H1318 H 0.94199 0.45861 0.13033 0.0
H1319 H 0.78605 0.4943 0.14767 0.0
H1320 H 0.91554 0.43515 0.18748 0.0
H1321 H 0.76226 0.43948 0.1365 0.0
O1322 O 0.93357 0.54529 0.1021 0.0
H1323 H 0.87283 0.63376 0.09294 0.0
H1324 H 0.94978 0.62042 0.03009 0.0
H1325 H 0.96211 0.6709 0.05067 0.0
H1326 H 0.92344 0.67783 0.08224 0.0
H1327 H 0.86159 0.58362 0.0723 0.0
H1328 H 0.90625 0.61605 0.91951 0.0
H1329 H 0.94166 0.60264 0.89104 0.0
O1330 O 0.93669 0.56849 0.04982 0.0
C1331 C 0.88442 0.49579 0.03326 0.0
C1332 C 0.94202 0.577 0.93661 0.0
C1333 C 0.91329 0.60228 0.93381 0.0
N1334 N 0.9113 0.57445 0.98664 0.0
C1335 C 0.93078 0.56699 0.97117 0.0
C1336 C 0.90251 0.59185 0.96841 0.0
C1337 C 0.93316 0.59475 0.91786 0.0
C1338 C 0.8301 0.50323 0.13192 0.0
N1339 N 0.84712 0.49146 0.11976 0.0
C1340 C 0.79939 0.48478 0.13816 0.0
C1341 C 0.78604 0.45404 0.1318 0.0
C1342 C 0.80346 0.44217 0.11926 0.0
C1343 C 0.8341 0.46132 0.11329 0.0
C1344 C 0.89072 0.45863 0.18775 0.0
C1345 C 0.91973 0.48441 0.12379 0.0
C1346 C 0.88557 0.47945 0.16973 0.0
N1347 N 0.89948 0.49152 0.13773 0.0
C1348 C 0.92604 0.46427 0.14159 0.0
C1349 C 0.91124 0.45116 0.17367 0.0
C1350 C 0.94884 0.56308 0.07663 0.0
C1351 C 0.88984 0.63105 0.07913 0.0
C1352 C 0.93289 0.62321 0.04402 0.0
C1353 C 0.93997 0.65187 0.05549 0.0
C1354 C 0.91826 0.65575 0.07317 0.0
N1355 N 0.90495 0.59909 0.04992 0.0
C1356 C 0.88356 0.60272 0.06724 0.0
Co1357 Co 0.38567 0.88723 0.62187 0.0
Co1358 Co 0.34289 0.87914 0.54602 0.0
O1359 O 0.34696 0.86976 0.59648 0.0
C1360 C 0.34308 0.89066 0.67637 0.0
O1361 O 0.32095 0.88162 0.65331 0.0
C1362 C 0.31012 0.81853 0.51187 0.0
O1363 O 0.33261 0.82838 0.48911 0.0
O1364 O 0.37523 0.87074 0.53061 0.0
O1365 O 0.40535 0.88209 0.57851 0.0
H1366 H 0.38135 0.9271 0.42527 0.0
H1367 H 0.33101 0.83489 0.65226 0.0
O1368 O 0.36816 0.89332 0.66716 0.0
H1369 H 0.40601 0.80226 0.64326 0.0
H1370 H 0.45491 0.90611 0.72703 0.0
H1371 H 0.44798 0.93097 0.60074 0.0
H1372 H 0.41856 0.85314 0.62423 0.0
H1373 H 0.40594 0.88214 0.69593 0.0
O1374 O 0.31131 0.83542 0.53789 0.0
H1375 H 0.38567 0.91516 0.48846 0.0
H1376 H 0.29079 0.86257 0.49686 0.0
H1377 H 0.49726 0.95483 0.63071 0.0
H1378 H 0.31762 0.78397 0.67203 0.0
H1379 H 0.5009 0.94244 0.69442 0.0
H1380 H 0.35524 0.7673 0.66757 0.0
O1381 O 0.39602 0.92829 0.60643 0.0
H1382 H 0.24793 0.85652 0.61036 0.0
H1383 H 0.33064 0.92955 0.53383 0.0
H1384 H 0.29123 0.94037 0.55326 0.0
H1385 H 0.24935 0.90361 0.59163 0.0
H1386 H 0.28824 0.84696 0.59098 0.0
H1387 H 0.28543 0.8739 0.43372 0.0
H1388 H 0.33094 0.90639 0.39748 0.0
O1389 O 0.37361 0.92282 0.55307 0.0
C1390 C 0.39916 0.87452 0.54571 0.0
C1391 C 0.36135 0.91292 0.44078 0.0
C1392 C 0.30752 0.88306 0.44552 0.0
N1393 N 0.33854 0.88819 0.49635 0.0
C1394 C 0.36366 0.90609 0.47658 0.0
C1395 C 0.3107 0.87672 0.48126 0.0
C1396 C 0.33306 0.90129 0.42521 0.0
C1397 C 0.34764 0.82801 0.65055 0.0
N1398 N 0.37567 0.8472 0.63746 0.0
C1399 C 0.33986 0.79904 0.66165 0.0
C1400 C 0.36096 0.78968 0.65909 0.0
C1401 C 0.38943 0.80928 0.64544 0.0
C1402 C 0.3964 0.83807 0.63461 0.0
C1403 C 0.45351 0.91147 0.69929 0.0
C1404 C 0.44938 0.92515 0.62834 0.0
C1405 C 0.42588 0.89809 0.68153 0.0
N1406 N 0.42411 0.90491 0.6464 0.0
C1407 C 0.47736 0.93886 0.64521 0.0
C1408 C 0.47937 0.93193 0.68094 0.0
C1409 C 0.39133 0.9392 0.57801 0.0
C1410 C 0.266 0.87268 0.59355 0.0
C1411 C 0.31273 0.9136 0.55086 0.0
C1412 C 0.29035 0.91977 0.56161 0.0
C1413 C 0.26684 0.89912 0.58309 0.0
N1414 N 0.3117 0.88756 0.56113 0.0
C1415 C 0.28878 0.86729 0.58229 0.0
C1416 C 0.34148 0.46329 0.23632 0.0
C1417 C 0.35313 0.44653 0.22002 0.0
C1418 C 0.33892 0.46401 0.27385 0.0
C1419 C 0.34716 0.44742 0.29658 0.0
H1420 H 0.33638 0.47777 0.22028 0.0
H1421 H 0.33179 0.47883 0.28525 0.0
S1422 S 0.37452 0.39632 0.26722 0.0
N1423 N 0.36981 0.41035 0.22942 0.0
N1424 N 0.36438 0.41122 0.29982 0.0
C1425 C 0.35624 0.42847 0.28053 0.0
C1426 C 0.35935 0.42813 0.2423 0.0
C1427 C 0.93146 0.34859 0.72287 0.0
C1428 C 0.90363 0.33925 0.70624 0.0
C1429 C 0.9345 0.35144 0.76042 0.0
C1430 C 0.90976 0.34467 0.7828 0.0
H1431 H 0.9515 0.356 0.70674 0.0
H1432 H 0.95678 0.36075 0.77178 0.0
S1433 S 0.83088 0.31362 0.7525 0.0
N1434 N 0.85017 0.3193 0.71498 0.0
N1435 N 0.85559 0.32379 0.78543 0.0
C1436 C 0.88125 0.3323 0.76658 0.0
C1437 C 0.87828 0.32989 0.72833 0.0
C1438 C 0.58347 0.87678 0.27217 0.0
C1439 C 0.57554 0.89445 0.29335 0.0
C1440 C 0.58217 0.8774 0.23428 0.0
C1441 C 0.57273 0.89555 0.21672 0.0
H1442 H 0.58858 0.8609 0.28486 0.0
H1443 H 0.58653 0.86212 0.21887 0.0
S1444 S 0.55507 0.94992 0.25988 0.0
N1445 N 0.56226 0.9337 0.29374 0.0
N1446 N 0.55945 0.9345 0.22314 0.0
C1447 C 0.56725 0.91505 0.23761 0.0
C1448 C 0.56878 0.91461 0.27579 0.0
C1449 C 0.68219 0.55625 0.76689 0.0
C1450 C 0.66696 0.56969 0.7828 0.0
C1451 C 0.68754 0.55815 0.72972 0.0
C1452 C 0.67825 0.57387 0.70694 0.0
H1453 H 0.68828 0.54243 0.78276 0.0
H1454 H 0.69758 0.54578 0.71849 0.0
S1455 S 0.64168 0.61701 0.73599 0.0
N1456 N 0.64584 0.60224 0.77349 0.0
N1457 N 0.65608 0.60599 0.70375 0.0
C1458 C 0.66537 0.58961 0.72293 0.0
C1459 C 0.65964 0.58743 0.7608 0.0
C1460 C 0.14341 0.71005 0.26969 0.0
C1461 C 0.12468 0.68353 0.28896 0.0
C1462 C 0.14422 0.71002 0.23174 0.0
C1463 C 0.12638 0.68346 0.21219 0.0
H1464 H 0.15904 0.73028 0.28393 0.0
H1465 H 0.16037 0.73025 0.21785 0.0
S1466 S 0.06969 0.60976 0.24978 0.0
N1467 N 0.08485 0.63134 0.28535 0.0
N1468 N 0.08667 0.63127 0.21465 0.0
C1469 C 0.10582 0.65764 0.23115 0.0
C1470 C 0.10487 0.65769 0.2694 0.0
C1471 C 0.4363 0.08746 0.77213 0.0
C1472 C 0.45478 0.11539 0.78854 0.0
C1473 C 0.43531 0.08449 0.73454 0.0
C1474 C 0.45242 0.10939 0.71198 0.0
H1475 H 0.42434 0.06736 0.78836 0.0
H1476 H 0.42242 0.06217 0.72321 0.0
S1477 S 0.4999 0.18843 0.74203 0.0
N1478 N 0.48745 0.169 0.77968 0.0
N1479 N 0.4849 0.16372 0.70916 0.0
C1480 C 0.46853 0.13794 0.72813 0.0
C1481 C 0.46995 0.14084 0.7664 0.0
C1482 C 0.58185 0.70902 0.74042 0.0
C1483 C 0.57452 0.682 0.72265 0.0
C1484 C 0.58211 0.71052 0.77832 0.0
C1485 C 0.57499 0.68502 0.79932 0.0
H1486 H 0.58522 0.7284 0.72511 0.0
H1487 H 0.58568 0.73099 0.79108 0.0
S1488 S 0.56007 0.61085 0.76578 0.0
N1489 N 0.5645 0.63072 0.72904 0.0
N1490 N 0.56467 0.63345 0.79973 0.0
C1491 C 0.5703 0.65882 0.78178 0.0
C1492 C 0.57017 0.65733 0.74356 0.0
C1493 C 0.9176 0.56352 0.26291 0.0
C1494 C 0.89899 0.57111 0.28269 0.0
C1495 C 0.91745 0.56338 0.22535 0.0
C1496 C 0.89887 0.57104 0.20576 0.0
H1497 H 0.93131 0.55604 0.27658 0.0
H1498 H 0.93102 0.55581 0.21152 0.0
S1499 S 0.8483 0.59576 0.24425 0.0
N1500 N 0.86329 0.58896 0.27979 0.0
N1501 N 0.86327 0.58895 0.20869 0.0
C1502 C 0.88187 0.58096 0.22493 0.0
C1503 C 0.8819 0.58096 0.26354 0.0
C1504 C 0.3645 0.91459 0.7351 0.0
C1505 C 0.339 0.89507 0.71491 0.0
C1506 C 0.36364 0.91485 0.77262 0.0
C1507 C 0.33726 0.89561 0.79165 0.0
H1508 H 0.38582 0.92871 0.72187 0.0
H1509 H 0.38436 0.92905 0.78694 0.0
S1510 S 0.26344 0.84256 0.75164 0.0
N1511 N 0.28577 0.85794 0.71659 0.0
N1512 N 0.28427 0.85841 0.78764 0.0
C1513 C 0.31093 0.8777 0.77193 0.0
C1514 C 0.31177 0.87743 0.73338 0.0
C1515 C 0.44388 0.31042 0.26931 0.0
C1516 C 0.45114 0.33695 0.28814 0.0
C1517 C 0.44362 0.30986 0.23137 0.0
C1518 C 0.45051 0.33581 0.21136 0.0
H1519 H 0.44059 0.29071 0.28381 0.0
H1520 H 0.44022 0.28976 0.21779 0.0
S1521 S 0.46507 0.40896 0.24827 0.0
N1522 N 0.46109 0.3883 0.2841 0.0
N1523 N 0.46027 0.38721 0.21333 0.0
C1524 C 0.45498 0.36149 0.2301 0.0
C1525 C 0.4554 0.36208 0.26837 0.0
C1526 C 0.14105 0.43803 0.73296 0.0
C1527 C 0.12241 0.44686 0.71537 0.0
C1528 C 0.14174 0.43678 0.77086 0.0
C1529 C 0.12369 0.44416 0.7921 0.0
H1530 H 0.15663 0.43411 0.71754 0.0
H1531 H 0.15797 0.43216 0.7835 0.0
S1532 S 0.06713 0.4631 0.75879 0.0
N1533 N 0.08271 0.45906 0.72199 0.0
N1534 N 0.08372 0.45637 0.79259 0.0
C1535 C 0.10312 0.45033 0.77457 0.0
C1536 C 0.10257 0.45179 0.73636 0.0
C1537 C 0.7151 0.13818 0.2722 0.0
C1538 C 0.68856 0.11751 0.29016 0.0
C1539 C 0.71598 0.1405 0.23433 0.0
C1540 C 0.6903 0.1223 0.21358 0.0
H1541 H 0.73447 0.1542 0.28746 0.0
H1542 H 0.736 0.1581 0.22154 0.0
S1543 S 0.61728 0.06113 0.24723 0.0
N1544 N 0.63763 0.07564 0.28382 0.0
N1545 N 0.63915 0.08044 0.21328 0.0
C1546 C 0.66465 0.0999 0.2311 0.0
C1547 C 0.66383 0.09735 0.26926 0.0
C1548 C 0.22987 0.48863 0.02374 0.0
C1549 C 0.22949 0.49307 0.98638 0.0
C1550 C 0.25449 0.48885 0.04052 0.0
C1551 C 0.27937 0.49256 0.02049 0.0
H1552 H 0.21099 0.48508 0.04022 0.0
H1553 H 0.25362 0.48522 0.06931 0.0
S1554 S 0.2893 0.50457 0.92179 0.0
N1555 N 0.25637 0.50166 0.92992 0.0
N1556 N 0.30203 0.50083 0.96112 0.0
C1557 C 0.27922 0.4969 0.98307 0.0
C1558 C 0.25449 0.49751 0.96613 0.0
C1559 C 0.76938 0.24292 0.45706 0.0
C1560 C 0.74372 0.22312 0.47699 0.0
C1561 C 0.79413 0.26738 0.47357 0.0
C1562 C 0.79379 0.27359 0.5104 0.0
H1563 H 0.77072 0.23901 0.42866 0.0
H1564 H 0.81363 0.28168 0.45731 0.0
S1565 S 0.73185 0.22912 0.57441 0.0
N1566 N 0.71961 0.21139 0.53566 0.0
N1567 N 0.76549 0.25813 0.56622 0.0
C1568 C 0.76804 0.2544 0.53047 0.0
C1569 C 0.74321 0.22896 0.5139 0.0
C1570 C 0.55531 0.79665 0.01474 0.0
C1571 C 0.5283 0.79661 0.02132 0.0
C1572 C 0.55541 0.77099 0.00178 0.0
C1573 C 0.52852 0.74413 0.99428 0.0
H1574 H 0.57669 0.81664 0.0199 0.0
H1575 H 0.57688 0.77236 0.99743 0.0
S1576 S 0.45156 0.7321 0.00627 0.0
N1577 N 0.47379 0.76717 0.01907 0.0
N1578 N 0.47399 0.71926 0.99436 0.0
C1579 C 0.50132 0.74381 1.00045 0.0
C1580 C 0.50121 0.76988 0.01407 0.0
C1581 C 0.76193 0.51936 0.52238 0.0
C1582 C 0.74276 0.5265 0.50312 0.0
C1583 C 0.78659 0.51956 0.5056 0.0
C1584 C 0.79239 0.52586 0.46863 0.0
H1585 H 0.75832 0.51432 0.55087 0.0
H1586 H 0.80114 0.51457 0.52165 0.0
S1587 S 0.74849 0.54521 0.40596 0.0
N1588 N 0.73128 0.54002 0.44504 0.0
N1589 N 0.77672 0.5392 0.4133 0.0
C1590 C 0.77301 0.5324 0.44894 0.0
C1591 C 0.74846 0.53305 0.46623 0.0
C1592 C 0.2769 0.79775 0.02504 0.0
C1593 C 0.28173 0.79787 0.98773 0.0
C1594 C 0.25218 0.77339 0.04191 0.0
C1595 C 0.23071 0.7486 0.02201 0.0
H1596 H 0.29255 0.8165 0.04143 0.0
H1597 H 0.24955 0.77429 0.07072 0.0
S1598 S 0.23245 0.73831 0.92341 0.0
N1599 N 0.2629 0.77095 0.9314 0.0
N1600 N 0.21585 0.72594 0.96278 0.0
C1601 C 0.23505 0.74865 0.98461 0.0
C1602 C 0.2607 0.77304 0.96759 0.0
C1603 C 0.48457 0.22087 0.46968 0.0
C1604 C 0.48979 0.22025 0.50677 0.0
C1605 C 0.48525 0.24598 0.45356 0.0
C1606 C 0.49017 0.27103 0.47411 0.0
H1607 H 0.48011 0.20185 0.45291 0.0
H1608 H 0.48109 0.24541 0.42492 0.0
S1609 S 0.50448 0.28038 0.57239 0.0
N1610 N 0.50038 0.24705 0.56352 0.0
N1611 N 0.50028 0.29357 0.53361 0.0
C1612 C 0.49519 0.27059 0.51127 0.0
C1613 C 0.49539 0.2454 0.52749 0.0
C1614 C 0.77657 0.52587 0.02815 0.0
C1615 C 0.8021 0.53134 0.00818 0.0
C1616 C 0.75229 0.52676 0.01184 0.0
C1617 C 0.75212 0.53213 0.97468 0.0
H1618 H 0.77566 0.5216 0.0568 0.0
H1619 H 0.7334 0.523 0.02842 0.0
S1620 S 0.81319 0.54707 0.91023 0.0
N1621 N 0.82563 0.54232 0.94922 0.0
N1622 N 0.7797 0.54278 0.91842 0.0
C1623 C 0.77726 0.53702 0.95432 0.0
C1624 C 0.8023 0.53696 0.97109 0.0
C1625 C 0.2553 0.74424 0.4666 0.0
C1626 C 0.22734 0.73678 0.48181 0.0
C1627 C 0.2819 0.77014 0.47725 0.0
C1628 C 0.2819 0.78968 0.50389 0.0
H1629 H 0.25666 0.73036 0.4456 0.0
H1630 H 0.30263 0.77508 0.46398 0.0
S1631 S 0.21489 0.77945 0.55396 0.0
N1632 N 0.20162 0.75052 0.52629 0.0
N1633 N 0.25133 0.79887 0.54621 0.0
C1634 C 0.25421 0.78199 0.52013 0.0
C1635 C 0.22708 0.75572 0.5091 0.0
C1636 C 0.51976 0.25355 0.96392 0.0
C1637 C 0.49865 0.22533 0.97816 0.0
C1638 C 0.51947 0.27992 0.97335 0.0
C1639 C 0.49829 0.27948 0.99781 0.0
H1640 H 0.5364 0.2553 0.9447 0.0
H1641 H 0.53595 0.30085 0.96104 0.0
S1642 S 0.43875 0.21162 0.04408 0.0
N1643 N 0.45638 0.19884 0.01896 0.0
N1644 N 0.45594 0.24816 0.03669 0.0
C1645 C 0.47744 0.25151 0.01288 0.0
C1646 C 0.47757 0.22458 0.00304 0.0
C1647 C 0.24713 0.48287 0.5471 0.0
C1648 C 0.22641 0.48772 0.52775 0.0
C1649 C 0.27151 0.48292 0.5298 0.0
C1650 C 0.27673 0.48886 0.4927 0.0
H1651 H 0.24403 0.47817 0.57568 0.0
H1652 H 0.28655 0.4785 0.54567 0.0
S1653 S 0.22961 0.50371 0.42997 0.0
N1654 N 0.21277 0.49853 0.46933 0.0
N1655 N 0.25931 0.50006 0.43727 0.0
C1656 C 0.2566 0.49441 0.4732 0.0
C1657 C 0.23125 0.49344 0.49058 0.0
C1658 C 0.79572 0.25298 0.99648 0.0
C1659 C 0.79538 0.27973 0.9892 0.0
C1660 C 0.77026 0.22726 0.00996 0.0
C1661 C 0.74334 0.22717 0.01742 0.0
H1662 H 0.81582 0.25175 0.99148 0.0
H1663 H 0.77185 0.20733 0.0149 0.0
S1664 S 0.73049 0.29145 0.00357 0.0
N1665 N 0.76553 0.30439 0.99057 0.0
N1666 N 0.71804 0.25642 0.01639 0.0
C1667 C 0.7427 0.25382 0.01049 0.0
C1668 C 0.76854 0.27991 0.99624 0.0
C1669 C 0.50815 0.75959 0.46935 0.0
C1670 C 0.52783 0.78757 0.48517 0.0
C1671 C 0.50799 0.73319 0.47988 0.0
C1672 C 0.52729 0.73339 0.50699 0.0
H1673 H 0.49308 0.75807 0.44806 0.0
H1674 H 0.49272 0.71247 0.46625 0.0
S1675 S 0.58213 0.80052 0.5585 0.0
N1676 N 0.5664 0.81351 0.53054 0.0
N1677 N 0.56604 0.7642 0.55024 0.0
C1678 C 0.54657 0.76111 0.52367 0.0
C1679 C 0.54688 0.78804 0.51278 0.0
C1680 C 0.42806 0.43869 0.10445 0.0
C1681 C 0.41143 0.43887 0.07441 0.0
C1682 C 0.44413 0.42329 0.10404 0.0
C1683 C 0.44454 0.40719 0.07354 0.0
H1684 H 0.42871 0.4505 0.12883 0.0
H1685 H 0.45613 0.42386 0.12824 0.0
S1686 S 0.40668 0.40208 0.98654 0.0
N1687 N 0.39788 0.42268 0.01227 0.0
N1688 N 0.42785 0.39361 0.01166 0.0
C1689 C 0.4286 0.40764 0.04292 0.0
C1690 C 0.41221 0.42349 0.0433 0.0
C1691 C 0.02299 0.43606 0.60814 0.0
C1692 C 0.04046 0.43612 0.5788 0.0
C1693 C 0.9914 0.42033 0.60687 0.0
C1694 C 0.97565 0.40389 0.57619 0.0
H1695 H 0.03374 0.44813 0.63256 0.0
H1696 H 0.97927 0.42093 0.63039 0.0
S1697 S 1.01056 0.3977 0.49122 0.0
N1698 N 0.03924 0.41877 0.5176 0.0
N1699 N 0.98045 0.38961 0.51512 0.0
C1700 C 0.99288 0.40411 0.54645 0.0
C1701 C 0.02501 0.42005 0.54778 0.0
C1702 C 0.60146 0.99645 0.05759 0.0
C1703 C 0.58263 0.97996 0.08649 0.0
C1704 C 0.6172 0.02802 0.05732 0.0
C1705 C 0.61497 0.04484 0.08593 0.0
H1706 H 0.60429 0.98495 0.03484 0.0
H1707 H 0.63141 0.03927 0.03437 0.0
S1708 S 0.56794 0.01282 0.16785 0.0
N1709 N 0.56221 0.98319 0.1444 0.0
N1710 N 0.59161 0.04222 0.14384 0.0
C1711 C 0.59588 0.02867 0.11486 0.0
C1712 C 0.57983 0.99644 0.11516 0.0
C1713 C 0.61224 0.59188 0.55321 0.0
C1714 C 0.61331 0.5747 0.58221 0.0
C1715 C 0.59616 0.60731 0.55544 0.0
C1716 C 0.58028 0.60634 0.58678 0.0
H1717 H 0.62408 0.59368 0.52841 0.0
H1718 H 0.59635 0.6202 0.53229 0.0
S1719 S 0.57537 0.56436 0.67057 0.0
N1720 N 0.5966 0.55751 0.6434 0.0
N1721 N 0.56653 0.58633 0.64765 0.0
C1722 C 0.58089 0.58901 0.61596 0.0
C1723 C 0.5973 0.57328 0.61367 0.0
C1724 C 0.99981 0.59814 0.05 0.0
C1725 C 0.98251 0.5789 0.07826 0.0
C1726 C 0.03136 0.61398 0.05099 0.0
C1727 C 0.04738 0.61147 0.0803 0.0
H1728 H 0.98897 0.60121 0.02673 0.0
H1729 H 0.04323 0.62844 0.02844 0.0
S1730 S 0.01313 0.56375 0.1613 0.0
N1731 N 0.98416 0.55805 0.1365 0.0
N1732 N 0.04316 0.58767 0.13838 0.0
C1733 C 0.03041 0.59208 0.10869 0.0
C1734 C 0.99819 0.5759 0.10767 0.0
C1735 C 0.43956 0.02238 0.6011 0.0
C1736 C 0.43702 0.03737 0.5707 0.0
C1737 C 0.42497 0.99094 0.60294 0.0
C1738 C 0.40712 0.9727 0.5744 0.0
H1739 H 0.45291 0.03496 0.62399 0.0
H1740 H 0.42768 0.98093 0.62727 0.0
S1741 S 0.39477 1.00037 0.48723 0.0
N1742 N 0.41631 0.03117 0.51034 0.0
N1743 N 0.38906 0.97227 0.51377 0.0
C1744 C 0.40493 0.9873 0.54338 0.0
C1745 C 0.4198 0.01946 0.54152 0.0
C1746 C 0.58206 0.59779 0.90241 0.0
C1747 C 0.58391 0.61537 0.93244 0.0
C1748 C 0.59785 0.58204 0.90105 0.0
C1749 C 0.61644 0.58309 0.92959 0.0
H1750 H 0.56847 0.5963 0.87938 0.0
H1751 H 0.59546 0.56903 0.87714 0.0
S1752 S 0.6277 0.62419 0.01574 0.0
N1753 N 0.60495 0.63164 0.99236 0.0
N1754 N 0.63445 0.60224 0.98978 0.0
C1755 C 0.618 0.60006 0.96018 0.0
C1756 C 0.60187 0.61611 0.96159 0.0
C1757 C 0.99529 0.57675 0.39119 0.0
C1758 C 0.97799 0.57594 0.42107 0.0
C1759 C 0.02679 0.59248 0.3922 0.0
C1760 C 0.04268 0.60824 0.42316 0.0
H1761 H 0.98449 0.56536 0.36644 0.0
H1762 H 0.03873 0.59249 0.36819 0.0
S1763 S 1.00832 0.61197 0.50968 0.0
N1764 N 0.97945 0.5915 0.48324 0.0
N1765 N 0.03837 0.62089 0.48517 0.0
C1766 C 0.0257 0.60718 0.45353 0.0
C1767 C 0.99354 0.59113 0.45248 0.0
C1768 C 0.43275 0.0265 0.94789 0.0
C1769 C 0.4499 0.04271 0.91776 0.0
C1770 C 0.41669 0.99495 0.94845 0.0
C1771 C 0.41687 0.97782 0.91893 0.0
H1772 H 0.43145 0.03821 0.97142 0.0
H1773 H 0.40383 0.98398 0.97238 0.0
S1774 S 0.45882 0.00895 0.83348 0.0
N1775 N 0.4665 0.03887 0.85763 0.0
N1776 N 0.43643 0.97979 0.85869 0.0
C1777 C 0.43429 0.99367 0.88873 0.0
C1778 C 0.45071 0.02593 0.88815 0.0
C1779 C 0.42577 0.44066 0.3961 0.0
C1780 C 0.40958 0.44026 0.42692 0.0
C1781 C 0.4417 0.42497 0.39502 0.0
C1782 C 0.44225 0.4081 0.42471 0.0
H1783 H 0.42595 0.45293 0.37232 0.0
H1784 H 0.45347 0.42593 0.37045 0.0
S1785 S 0.40473 0.4007 0.51276 0.0
N1786 N 0.39605 0.42208 0.48843 0.0
N1787 N 0.42575 0.39297 0.48641 0.0
C1788 C 0.42651 0.40789 0.45588 0.0
C1789 C 0.41029 0.42381 0.45698 0.0
C1790 C 0.02903 0.43791 0.8966 0.0
C1791 C 0.04555 0.44024 0.92787 0.0
C1792 C 0.99749 0.42134 0.89625 0.0
C1793 C 0.98077 0.40617 0.92713 0.0
H1794 H 0.04051 0.44866 0.87185 0.0
H1795 H 0.98621 0.42035 0.87129 0.0
S1796 S 0.0129 0.40678 0.01698 0.0
N1797 N 0.04241 0.42702 0.99128 0.0
N1798 N 0.98352 0.3961 0.99061 0.0
C1799 C 0.99698 0.40894 0.95889 0.0
C1800 C 0.02914 0.42582 0.95925 0.0
C1801 C 0.57956 0.98784 0.39797 0.0
C1802 C 0.57942 0.97183 0.42883 0.0
C1803 C 0.59515 0.01939 0.39716 0.0
C1804 C 0.61144 0.03661 0.42718 0.0
H1805 H 0.56782 0.97598 0.37384 0.0
H1806 H 0.59459 0.03029 0.37246 0.0
S1807 S 0.61697 1.00593 0.51567 0.0
N1808 N 0.59611 0.97595 0.49094 0.0
N1809 N 0.62531 0.03492 0.48938 0.0
C1810 C 0.61104 0.02092 0.45852 0.0
C1811 C 0.59511 0.98873 0.45935 0.0
C1812 C 0.44836 0.58465 0.97638 0.0
C1813 C 0.47423 0.60646 0.99453 0.0
C1814 C 0.42507 0.56023 0.9944 0.0
C1815 C 0.42645 0.55607 0.03158 0.0
H1816 H 0.44617 0.58583 0.94759 0.0
H1817 H 0.40616 0.54407 0.97862 0.0
S1818 S 0.48864 0.60727 0.09245 0.0
N1819 N 0.49915 0.62296 0.05238 0.0
N1820 N 0.45578 0.57671 0.08637 0.0
C1821 C 0.45183 0.57812 0.05044 0.0
C1822 C 0.47553 0.60334 0.03197 0.0
C1823 C 0.87442 0.43723 0.52851 0.0
C1824 C 0.87615 0.4136 0.51144 0.0
C1825 C 0.87433 0.46046 0.50878 0.0
C1826 C 0.87636 0.46145 0.47101 0.0
H1827 H 0.87363 0.43822 0.55755 0.0
H1828 H 0.87346 0.47819 0.52349 0.0
S1829 S 0.88082 0.40472 0.41294 0.0
N1830 N 0.87886 0.3922 0.45424 0.0
N1831 N 0.87981 0.4361 0.41729 0.0
C1832 C 0.87766 0.43768 0.45353 0.0
C1833 C 0.87726 0.41376 0.47365 0.0
C1834 C 0.42529 0.87827 0.01889 0.0
C1835 C 0.42473 0.87679 0.98111 0.0
C1836 C 0.44906 0.87943 0.03865 0.0
C1837 C 0.47343 0.87902 0.02166 0.0
H1838 H 0.40762 0.87934 0.03348 0.0
H1839 H 0.44842 0.88126 0.0676 0.0
S1840 S 0.48245 0.87381 0.92333 0.0
N1841 N 0.4506 0.87394 0.92748 0.0
N1842 N 0.49484 0.87582 0.96471 0.0
C1843 C 0.4728 0.87664 0.98398 0.0
C1844 C 0.44863 0.8756 0.96375 0.0
C1845 C 0.57789 0.44315 0.46336 0.0
C1846 C 0.55452 0.41805 0.48113 0.0
C1847 C 0.60198 0.4661 0.48221 0.0
C1848 C 0.60386 0.46533 0.51989 0.0
H1849 H 0.57748 0.44561 0.43448 0.0
H1850 H 0.61884 0.485 0.46698 0.0
S1851 S 0.54915 0.40411 0.57959 0.0
N1852 N 0.53547 0.39331 0.53873 0.0
N1853 N 0.58037 0.43657 0.57436 0.0
C1854 C 0.58099 0.44002 0.53808 0.0
C1855 C 0.55649 0.41643 0.51872 0.0
C1856 C 0.15029 0.55548 0.01791 0.0
C1857 C 0.14853 0.55408 0.98016 0.0
C1858 C 0.15033 0.57905 0.03689 0.0
C1859 C 0.14887 0.60259 0.01909 0.0
H1860 H 0.1508 0.53778 0.03317 0.0
H1861 H 0.15082 0.57827 0.06596 0.0
S1862 S 0.1454 0.61069 0.92028 0.0
N1863 N 0.14613 0.57922 0.92555 0.0
N1864 N 0.1469 0.62358 0.96127 0.0
C1865 C 0.14814 0.6021 0.98132 0.0
C1866 C 0.14778 0.5779 0.96191 0.0
C1867 C 0.57209 0.13855 0.53081 0.0
C1868 C 0.54781 0.13799 0.51243 0.0
C1869 C 0.59599 0.13877 0.51224 0.0
C1870 C 0.5966 0.13811 0.47439 0.0
H1871 H 0.57253 0.13828 0.55993 0.0
H1872 H 0.61369 0.13864 0.52785 0.0
S1873 S 0.539 0.13764 0.4132 0.0
N1874 N 0.5267 0.1382 0.45397 0.0
N1875 N 0.5707 0.13759 0.41924 0.0
C1876 C 0.5727 0.13815 0.45568 0.0
C1877 C 0.54861 0.13837 0.47459 0.0
C1878 C 0.55723 0.42085 0.98348 0.0
C1879 C 0.55846 0.41965 0.02125 0.0
C1880 C 0.57982 0.44497 0.96383 0.0
C1881 C 0.6049 0.46885 0.98099 0.0
H1882 H 0.5382 0.40354 0.96893 0.0
H1883 H 0.57721 0.44505 0.93494 0.0
S1884 S 0.62003 0.4758 0.07927 0.0
N1885 N 0.58777 0.44434 0.0748 0.0
N1886 N 0.63018 0.4888 0.03808 0.0
C1887 C 0.60697 0.46736 0.0186 0.0
C1888 C 0.58384 0.44306 0.0386 0.0
C1889 C 0.14212 0.597 0.51815 0.0
C1890 C 0.14347 0.59738 0.48035 0.0
C1891 C 0.14105 0.57329 0.53809 0.0
C1892 C 0.14169 0.549 0.52125 0.0
H1893 H 0.14099 0.6147 0.5326 0.0
H1894 H 0.13915 0.57391 0.56703 0.0
S1895 S 0.14645 0.53952 0.4229 0.0
N1896 N 0.14599 0.57121 0.4269 0.0
N1897 N 0.14495 0.52749 0.46437 0.0
C1898 C 0.144 0.54952 0.48355 0.0
C1899 C 0.14464 0.57343 0.46317 0.0
C1900 C 0.60581 0.14395 0.98587 0.0
C1901 C 0.60605 0.14543 0.02367 0.0
C1902 C 0.58233 0.14309 0.96568 0.0
C1903 C 0.558 0.14385 0.98227 0.0
H1904 H 0.62351 0.14267 0.97163 0.0
H1905 H 0.58313 0.14127 0.93673 0.0
S1906 S 0.54822 0.14911 0.08047 0.0
N1907 N 0.57984 0.14851 0.07681 0.0
N1908 N 0.53633 0.14738 0.0389 0.0
C1909 C 0.55836 0.14624 0.01996 0.0
C1910 C 0.58215 0.1469 0.04058 0.0
C1911 C 0.46558 0.59573 0.49643 0.0
C1912 C 0.46606 0.59418 0.53421 0.0
C1913 C 0.4422 0.5731 0.47619 0.0
C1914 C 0.41793 0.54791 0.49272 0.0
H1915 H 0.48381 0.61422 0.48212 0.0
H1916 H 0.44359 0.57524 0.44718 0.0
S1917 S 0.40739 0.5334 0.59102 0.0
N1918 N 0.43943 0.56525 0.58736 0.0
N1919 N 0.39529 0.52355 0.54946 0.0
C1920 C 0.41755 0.54652 0.53052 0.0
C1921 C 0.44161 0.56935 0.55115 0.0
C1922 C 0.87696 0.41985 0.01196 0.0
C1923 C 0.8813 0.42073 0.97453 0.0
C1924 C 0.87726 0.44381 0.03024 0.0
C1925 C 0.88159 0.46982 0.01206 0.0
H1926 H 0.87402 0.40079 0.02762 0.0
H1927 H 0.87463 0.44197 0.05917 0.0
S1928 S 0.89282 0.48326 0.91369 0.0
N1929 N 0.88946 0.44992 0.91966 0.0
N1930 N 0.88928 0.49445 0.95405 0.0
C1931 C 0.88505 0.47071 0.97448 0.0
C1932 C 0.88511 0.44638 0.95578 0.0
C1933 C 0.4693 0.87039 0.52229 0.0
C1934 C 0.46873 0.869 0.48449 0.0
C1935 C 0.44647 0.87153 0.54171 0.0
C1936 C 0.42178 0.871 0.52433 0.0
H1937 H 0.48799 0.87157 0.53709 0.0
H1938 H 0.44865 0.87344 0.57068 0.0
S1939 S 0.4086 0.86616 0.42576 0.0
N1940 N 0.44053 0.86632 0.43049 0.0
N1941 N 0.39778 0.8679 0.46698 0.0
C1942 C 0.4204 0.86862 0.48665 0.0
C1943 C 0.44376 0.86776 0.46681 0.0
loop_
_geom_bond_atom_site_label_1
_geom_bond_atom_site_label_2
_geom_bond_distance
_geom_bond_site_symmetry_2
_ccdc_geom_bond_type
Co0 O2 2.143 . S
Co0 O8 2.074 . S
Co0 O11 2.093 . S
Co0 O24 2.097 . S
Co0 N41 2.151 . S
Co0 N49 2.214 . S
Co1 O2 2.160 . S
Co1 O7 2.058 . S
Co1 O17 2.057 . S
Co1 O32 2.037 . S
Co1 N36 2.145 1_554 S
Co1 N57 2.257 . S
O2 Co0 2.143 . S
O2 Co1 2.160 . S
C3 O4 1.278 . S
C3 O11 1.224 . S
O4 C3 1.278 . S
C5 O6 1.245 . S
C5 O17 1.232 . S
O6 C5 1.245 . S
O7 Co1 2.058 . S
O7 C33 1.269 . S
O8 Co0 2.074 . S
O8 C33 1.257 . S
H9 C34 0.930 . S
H10 C40 0.930 . S
O11 Co0 2.093 . S
O11 C3 1.224 . S
H12 C44 0.929 . S
H13 C46 0.930 . S
H14 C47 0.930 . S
H15 C45 0.929 . S
H16 C48 0.928 . S
O17 Co1 2.057 . S
O17 C5 1.232 . S
H18 C37 0.929 . S
H19 C38 0.929 . S
H20 C50 0.931 . S
H21 C42 0.929 . S
H22 C51 0.930 . S
H23 C43 0.931 . S
O24 Co0 2.097 . S
O24 C52 1.214 . S
H25 C53 0.929 . S
H26 C54 0.929 . S
H27 C55 0.930 . S
H28 C56 0.929 . S
H29 C58 0.930 . S
H30 C35 0.930 . S
H31 C39 0.930 . S
O32 Co1 2.037 . S
O32 C52 1.234 . S
C33 O7 1.269 . S
C33 O8 1.257 . S
C34 H9 0.930 . S
C34 C37 1.388 . S
C34 C39 1.418 . S
C35 H30 0.930 . S
C35 C38 1.404 . S
C35 C39 1.353 . S
N36 Co1 2.145 1_556 S
N36 C37 1.397 . S
N36 C38 1.334 . S
C37 H18 0.929 . S
C37 C34 1.388 . S
C37 N36 1.397 . S
C38 H19 0.929 . S
C38 C35 1.404 . S
C38 N36 1.334 . S
C39 H31 0.930 . S
C39 C34 1.418 . S
C39 C35 1.353 . S
C40 H10 0.930 . S
C40 N41 1.330 . S
C40 C42 1.446 . S
N41 Co0 2.151 . S
N41 C40 1.330 . S
N41 C45 1.418 . S
C42 H21 0.929 . S
C42 C40 1.446 . S
C42 C43 1.332 . S
C43 H23 0.931 . S
C43 C42 1.332 . S
C43 C44 1.267 . S
C44 H12 0.929 . S
C44 C43 1.267 . S
C44 C45 1.251 . S
C45 H15 0.929 . S
C45 N41 1.418 . S
C45 C44 1.251 . S
C46 H13 0.930 . S
C46 C48 1.406 . S
C46 C51 1.261 . S
C47 H14 0.930 . S
C47 N49 1.325 . S
C47 C50 1.357 . S
C48 H16 0.928 . S
C48 C46 1.406 . S
C48 N49 1.261 . S
N49 Co0 2.214 . S
N49 C47 1.325 . S
N49 C48 1.261 . S
C50 H20 0.931 . S
C50 C47 1.357 . S
C50 C51 1.312 . S
C51 H22 0.930 . S
C51 C46 1.261 . S
C51 C50 1.312 . S
C52 O24 1.214 . S
C52 O32 1.234 . S
C53 H25 0.929 . S
C53 C56 1.391 . S
C53 C58 1.391 . S
C54 H26 0.929 . S
C54 C55 1.390 . S
C54 N57 1.391 . S
C55 H27 0.930 . S
C55 C54 1.390 . S
C55 C56 1.392 . S
C56 H28 0.929 . S
C56 C53 1.391 . S
C56 C55 1.392 . S
N57 Co1 2.257 . S
N57 C54 1.391 . S
N57 C58 1.388 . S
C58 H29 0.930 . S
C58 C53 1.391 . S
C58 N57 1.388 . S
Co59 O61 2.143 . S
Co59 O67 2.074 . S
Co59 O70 2.093 . S
Co59 O83 2.097 . S
Co59 N100 2.151 . S
Co59 N108 2.214 . S
Co60 O61 2.160 . S
Co60 O66 2.058 . S
Co60 O76 2.057 . S
Co60 O91 2.037 . S
Co60 N95 2.145 . S
Co60 N116 2.257 . S
O61 Co59 2.143 . S
O61 Co60 2.160 . S
C62 O63 1.278 . S
C62 O70 1.224 . S
O63 C62 1.278 . S
C64 O65 1.245 . S
C64 O76 1.232 . S
O65 C64 1.245 . S
O66 Co60 2.058 . S
O66 C92 1.269 . S
O67 Co59 2.074 . S
O67 C92 1.257 . S
H68 C93 0.930 . S
H69 C99 0.930 . S
O70 Co59 2.093 . S
O70 C62 1.224 . S
H71 C103 0.929 . S
H72 C105 0.930 . S
H73 C106 0.930 . S
H74 C104 0.929 . S
H75 C107 0.928 . S
O76 Co60 2.057 . S
O76 C64 1.232 . S
H77 C96 0.929 . S
H78 C97 0.929 . S
H79 C109 0.931 . S
H80 C101 0.929 . S
H81 C110 0.930 . S
H82 C102 0.931 . S
O83 Co59 2.097 . S
O83 C111 1.214 . S
H84 C112 0.929 . S
H85 C113 0.929 . S
H86 C114 0.930 . S
H87 C115 0.929 . S
H88 C117 0.930 . S
H89 C94 0.930 . S
H90 C98 0.930 . S
O91 Co60 2.037 . S
O91 C111 1.234 . S
C92 O66 1.269 . S
C92 O67 1.257 . S
C93 H68 0.930 . S
C93 C96 1.388 . S
C93 C98 1.418 . S
C94 H89 0.930 . S
C94 C97 1.404 . S
C94 C98 1.353 . S
N95 Co60 2.145 . S
N95 C96 1.397 . S
N95 C97 1.334 . S
C96 H77 0.929 . S
C96 C93 1.388 . S
C96 N95 1.397 . S
C97 H78 0.929 . S
C97 C94 1.404 . S
C97 N95 1.334 . S
C98 H90 0.930 . S
C98 C93 1.418 . S
C98 C94 1.353 . S
C99 H69 0.930 . S
C99 N100 1.330 . S
C99 C101 1.446 . S
N100 Co59 2.151 . S
N100 C99 1.330 . S
N100 C104 1.418 . S
C101 H80 0.929 . S
C101 C99 1.446 . S
C101 C102 1.332 . S
C102 H82 0.931 . S
C102 C101 1.332 . S
C102 C103 1.267 . S
C103 H71 0.929 . S
C103 C102 1.267 . S
C103 C104 1.251 . S
C104 H74 0.929 . S
C104 N100 1.418 . S
C104 C103 1.251 . S
C105 H72 0.930 . S
C105 C107 1.406 . S
C105 C110 1.261 . S
C106 H73 0.930 . S
C106 N108 1.325 . S
C106 C109 1.357 . S
C107 H75 0.928 . S
C107 C105 1.406 . S
C107 N108 1.261 . S
N108 Co59 2.214 . S
N108 C106 1.325 . S
N108 C107 1.261 . S
C109 H79 0.931 . S
C109 C106 1.357 . S
C109 C110 1.312 . S
C110 H81 0.930 . S
C110 C105 1.261 . S
C110 C109 1.312 . S
C111 O83 1.214 . S
C111 O91 1.234 . S
C112 H84 0.929 . S
C112 C115 1.391 . S
C112 C117 1.391 . S
C113 H85 0.929 . S
C113 C114 1.390 . S
C113 N116 1.391 . S
C114 H86 0.930 . S
C114 C113 1.390 . S
C114 C115 1.392 . S
C115 H87 0.929 . S
C115 C112 1.391 . S
C115 C114 1.392 . S
N116 Co60 2.257 . S
N116 C113 1.391 . S
N116 C117 1.388 . S
C117 H88 0.930 . S
C117 C112 1.391 . S
C117 N116 1.388 . S
Co118 O120 2.143 . S
Co118 O126 2.074 . S
Co118 O129 2.093 . S
Co118 O142 2.097 . S
Co118 N159 2.151 . S
Co118 N167 2.214 . S
Co119 O120 2.160 . S
Co119 O125 2.058 . S
Co119 O135 2.057 . S
Co119 O150 2.037 . S
Co119 N154 2.145 1_554 S
Co119 N175 2.257 . S
O120 Co118 2.143 . S
O120 Co119 2.160 . S
C121 O122 1.278 . S
C121 O129 1.224 . S
O122 C121 1.278 . S
C123 O124 1.245 . S
C123 O135 1.232 . S
O124 C123 1.245 . S
O125 Co119 2.058 . S
O125 C151 1.269 . S
O126 Co118 2.074 . S
O126 C151 1.257 . S
H127 C152 0.930 . S
H128 C158 0.930 . S
O129 Co118 2.093 . S
O129 C121 1.224 . S
H130 C162 0.929 . S
H131 C164 0.930 . S
H132 C165 0.930 . S
H133 C163 0.929 . S
H134 C166 0.928 . S
O135 Co119 2.057 . S
O135 C123 1.232 . S
H136 C155 0.929 . S
H137 C156 0.929 . S
H138 C168 0.931 . S
H139 C160 0.929 . S
H140 C169 0.930 . S
H141 C161 0.931 . S
O142 Co118 2.097 . S
O142 C170 1.214 . S
H143 C171 0.929 . S
H144 C172 0.929 . S
H145 C173 0.930 . S
H146 C174 0.929 . S
H147 C176 0.930 . S
H148 C153 0.930 . S
H149 C157 0.930 . S
O150 Co119 2.037 . S
O150 C170 1.234 . S
C151 O125 1.269 . S
C151 O126 1.257 . S
C152 H127 0.930 . S
C152 C155 1.388 . S
C152 C157 1.418 . S
C153 H148 0.930 . S
C153 C156 1.404 . S
C153 C157 1.353 . S
N154 Co119 2.145 1_556 S
N154 C155 1.397 . S
N154 C156 1.334 . S
C155 H136 0.929 . S
C155 C152 1.388 . S
C155 N154 1.397 . S
C156 H137 0.929 . S
C156 C153 1.404 . S
C156 N154 1.334 . S
C157 H149 0.930 . S
C157 C152 1.418 . S
C157 C153 1.353 . S
C158 H128 0.930 . S
C158 N159 1.330 . S
C158 C160 1.446 . S
N159 Co118 2.151 . S
N159 C158 1.330 . S
N159 C163 1.418 . S
C160 H139 0.929 . S
C160 C158 1.446 . S
C160 C161 1.332 . S
C161 H141 0.931 . S
C161 C160 1.332 . S
C161 C162 1.267 . S
C162 H130 0.929 . S
C162 C161 1.267 . S
C162 C163 1.251 . S
C163 H133 0.929 . S
C163 N159 1.418 . S
C163 C162 1.251 . S
C164 H131 0.930 . S
C164 C166 1.406 . S
C164 C169 1.261 . S
C165 H132 0.930 . S
C165 N167 1.325 . S
C165 C168 1.357 . S
C166 H134 0.928 . S
C166 C164 1.406 . S
C166 N167 1.261 . S
N167 Co118 2.214 . S
N167 C165 1.325 . S
N167 C166 1.261 . S
C168 H138 0.931 . S
C168 C165 1.357 . S
C168 C169 1.312 . S
C169 H140 0.930 . S
C169 C164 1.261 . S
C169 C168 1.312 . S
C170 O142 1.214 . S
C170 O150 1.234 . S
C171 H143 0.929 . S
C171 C174 1.391 . S
C171 C176 1.391 . S
C172 H144 0.929 . S
C172 C173 1.390 . S
C172 N175 1.391 . S
C173 H145 0.930 . S
C173 C172 1.390 . S
C173 C174 1.392 . S
C174 H146 0.929 . S
C174 C171 1.391 . S
C174 C173 1.392 . S
N175 Co119 2.257 . S
N175 C172 1.391 . S
N175 C176 1.388 . S
C176 H147 0.930 . S
C176 C171 1.391 . S
C176 N175 1.388 . S
Co177 O179 2.143 . S
Co177 O185 2.074 . S
Co177 O188 2.093 . S
Co177 O201 2.097 . S
Co177 N218 2.151 . S
Co177 N226 2.214 . S
Co178 O179 2.160 . S
Co178 O184 2.058 . S
Co178 O194 2.057 . S
Co178 O209 2.037 . S
Co178 N213 2.145 . S
Co178 N234 2.257 . S
O179 Co177 2.143 . S
O179 Co178 2.160 . S
C180 O181 1.278 . S
C180 O188 1.224 . S
O181 C180 1.278 . S
C182 O183 1.245 . S
C182 O194 1.232 . S
O183 C182 1.245 . S
O184 Co178 2.058 . S
O184 C210 1.269 . S
O185 Co177 2.074 . S
O185 C210 1.257 . S
H186 C211 0.930 . S
H187 C217 0.930 . S
O188 Co177 2.093 . S
O188 C180 1.224 . S
H189 C221 0.929 . S
H190 C223 0.930 . S
H191 C224 0.930 . S
H192 C222 0.929 . S
H193 C225 0.928 . S
O194 Co178 2.057 . S
O194 C182 1.232 . S
H195 C214 0.929 . S
H196 C215 0.929 . S
H197 C227 0.931 . S
H198 C219 0.929 . S
H199 C228 0.930 . S
H200 C220 0.931 . S
O201 Co177 2.097 . S
O201 C229 1.214 . S
H202 C230 0.929 . S
H203 C231 0.929 . S
H204 C232 0.930 . S
H205 C233 0.929 . S
H206 C235 0.930 . S
H207 C212 0.930 . S
H208 C216 0.930 . S
O209 Co178 2.037 . S
O209 C229 1.234 . S
C210 O184 1.269 . S
C210 O185 1.257 . S
C211 H186 0.930 . S
C211 C214 1.388 . S
C211 C216 1.418 . S
C212 H207 0.930 . S
C212 C215 1.404 . S
C212 C216 1.353 . S
N213 Co178 2.145 . S
N213 C214 1.397 . S
N213 C215 1.334 . S
C214 H195 0.929 . S
C214 C211 1.388 . S
C214 N213 1.397 . S
C215 H196 0.929 . S
C215 C212 1.404 . S
C215 N213 1.334 . S
C216 H208 0.930 . S
C216 C211 1.418 . S
C216 C212 1.353 . S
C217 H187 0.930 . S
C217 N218 1.330 . S
C217 C219 1.446 . S
N218 Co177 2.151 . S
N218 C217 1.330 . S
N218 C222 1.418 . S
C219 H198 0.929 . S
C219 C217 1.446 . S
C219 C220 1.332 . S
C220 H200 0.931 . S
C220 C219 1.332 . S
C220 C221 1.267 . S
C221 H189 0.929 . S
C221 C220 1.267 . S
C221 C222 1.251 . S
C222 H192 0.929 . S
C222 N218 1.418 . S
C222 C221 1.251 . S
C223 H190 0.930 . S
C223 C225 1.406 . S
C223 C228 1.261 . S
C224 H191 0.930 . S
C224 N226 1.325 . S
C224 C227 1.357 . S
C225 H193 0.928 . S
C225 C223 1.406 . S
C225 N226 1.261 . S
N226 Co177 2.214 . S
N226 C224 1.325 . S
N226 C225 1.261 . S
C227 H197 0.931 . S
C227 C224 1.357 . S
C227 C228 1.312 . S
C228 H199 0.930 . S
C228 C223 1.261 . S
C228 C227 1.312 . S
C229 O201 1.214 . S
C229 O209 1.234 . S
C230 H202 0.929 . S
C230 C233 1.391 . S
C230 C235 1.391 . S
C231 H203 0.929 . S
C231 C232 1.390 . S
C231 N234 1.391 . S
C232 H204 0.930 . S
C232 C231 1.390 . S
C232 C233 1.392 . S
C233 H205 0.929 . S
C233 C230 1.391 . S
C233 C232 1.392 . S
N234 Co178 2.257 . S
N234 C231 1.391 . S
N234 C235 1.388 . S
C235 H206 0.930 . S
C235 C230 1.391 . S
C235 N234 1.388 . S
Co236 O238 2.143 . S
Co236 O244 2.074 . S
Co236 O247 2.093 . S
Co236 O260 2.097 . S
Co236 N277 2.151 . S
Co236 N285 2.214 . S
Co237 O238 2.160 . S
Co237 O243 2.058 . S
Co237 O253 2.057 . S
Co237 O268 2.037 . S
Co237 N272 2.145 1_554 S
Co237 N293 2.257 . S
O238 Co236 2.143 . S
O238 Co237 2.160 . S
C239 O240 1.278 . S
C239 O247 1.224 . S
O240 C239 1.278 . S
C241 O242 1.245 . S
C241 O253 1.232 . S
O242 C241 1.245 . S
O243 Co237 2.058 . S
O243 C269 1.269 . S
O244 Co236 2.074 . S
O244 C269 1.257 . S
H245 C270 0.930 . S
H246 C276 0.930 . S
O247 Co236 2.093 . S
O247 C239 1.224 . S
H248 C280 0.929 . S
H249 C282 0.930 . S
H250 C283 0.930 . S
H251 C281 0.929 . S
H252 C284 0.928 . S
O253 Co237 2.057 . S
O253 C241 1.232 . S
H254 C273 0.929 . S
H255 C274 0.929 . S
H256 C286 0.931 . S
H257 C278 0.929 . S
H258 C287 0.930 . S
H259 C279 0.931 . S
O260 Co236 2.097 . S
O260 C288 1.214 . S
H261 C289 0.929 . S
H262 C290 0.929 . S
H263 C291 0.930 . S
H264 C292 0.929 . S
H265 C294 0.930 . S
H266 C271 0.930 . S
H267 C275 0.930 . S
O268 Co237 2.037 . S
O268 C288 1.234 . S
C269 O243 1.269 . S
C269 O244 1.257 . S
C270 H245 0.930 . S
C270 C273 1.388 . S
C270 C275 1.418 . S
C271 H266 0.930 . S
C271 C274 1.404 . S
C271 C275 1.353 . S
N272 Co237 2.145 1_556 S
N272 C273 1.397 . S
N272 C274 1.334 . S
C273 H254 0.929 . S
C273 C270 1.388 . S
C273 N272 1.397 . S
C274 H255 0.929 . S
C274 C271 1.404 . S
C274 N272 1.334 . S
C275 H267 0.930 . S
C275 C270 1.418 . S
C275 C271 1.353 . S
C276 H246 0.930 . S
C276 N277 1.330 . S
C276 C278 1.446 . S
N277 Co236 2.151 . S
N277 C276 1.330 . S
N277 C281 1.418 . S
C278 H257 0.929 . S
C278 C276 1.446 . S
C278 C279 1.332 . S
C279 H259 0.931 . S
C279 C278 1.332 . S
C279 C280 1.267 . S
C280 H248 0.929 . S
C280 C279 1.267 . S
C280 C281 1.251 . S
C281 H251 0.929 . S
C281 N277 1.418 . S
C281 C280 1.251 . S
C282 H249 0.930 . S
C282 C284 1.406 . S
C282 C287 1.261 . S
C283 H250 0.930 . S
C283 N285 1.325 . S
C283 C286 1.357 . S
C284 H252 0.928 . S
C284 C282 1.406 . S
C284 N285 1.261 . S
N285 Co236 2.214 . S
N285 C283 1.325 . S
N285 C284 1.261 . S
C286 H256 0.931 . S
C286 C283 1.357 . S
C286 C287 1.312 . S
C287 H258 0.930 . S
C287 C282 1.261 . S
C287 C286 1.312 . S
C288 O260 1.214 . S
C288 O268 1.234 . S
C289 H261 0.929 . S
C289 C292 1.391 . S
C289 C294 1.391 . S
C290 H262 0.929 . S
C290 C291 1.390 . S
C290 N293 1.391 . S
C291 H263 0.930 . S
C291 C290 1.390 . S
C291 C292 1.392 . S
C292 H264 0.929 . S
C292 C289 1.391 . S
C292 C291 1.392 . S
N293 Co237 2.257 . S
N293 C290 1.391 . S
N293 C294 1.388 . S
C294 H265 0.930 . S
C294 C289 1.391 . S
C294 N293 1.388 . S
Co295 O297 2.143 . S
Co295 O303 2.074 . S
Co295 O306 2.093 . S
Co295 O319 2.097 . S
Co295 N336 2.151 . S
Co295 N344 2.214 . S
Co296 O297 2.160 . S
Co296 O302 2.058 . S
Co296 O312 2.057 . S
Co296 O327 2.037 . S
Co296 N331 2.145 . S
Co296 N352 2.257 . S
O297 Co295 2.143 . S
O297 Co296 2.160 . S
C298 O299 1.278 . S
C298 O306 1.224 . S
O299 C298 1.278 . S
C300 O301 1.245 . S
C300 O312 1.232 . S
O301 C300 1.245 . S
O302 Co296 2.058 . S
O302 C328 1.269 . S
O303 Co295 2.074 . S
O303 C328 1.257 . S
H304 C329 0.930 . S
H305 C335 0.930 . S
O306 Co295 2.093 . S
O306 C298 1.224 . S
H307 C339 0.929 . S
H308 C341 0.930 . S
H309 C342 0.930 . S
H310 C340 0.929 . S
H311 C343 0.928 . S
O312 Co296 2.057 . S
O312 C300 1.232 . S
H313 C332 0.929 . S
H314 C333 0.929 . S
H315 C345 0.931 . S
H316 C337 0.929 . S
H317 C346 0.930 . S
H318 C338 0.931 . S
O319 Co295 2.097 . S
O319 C347 1.214 . S
H320 C348 0.929 . S
H321 C349 0.929 . S
H322 C350 0.930 . S
H323 C351 0.929 . S
H324 C353 0.930 . S
H325 C330 0.930 . S
H326 C334 0.930 . S
O327 Co296 2.037 . S
O327 C347 1.234 . S
C328 O302 1.269 . S
C328 O303 1.257 . S
C329 H304 0.930 . S
C329 C332 1.388 . S
C329 C334 1.418 . S
C330 H325 0.930 . S
C330 C333 1.404 . S
C330 C334 1.353 . S
N331 Co296 2.145 . S
N331 C332 1.397 . S
N331 C333 1.334 . S
C332 H313 0.929 . S
C332 C329 1.388 . S
C332 N331 1.397 . S
C333 H314 0.929 . S
C333 C330 1.404 . S
C333 N331 1.334 . S
C334 H326 0.930 . S
C334 C329 1.418 . S
C334 C330 1.353 . S
C335 H305 0.930 . S
C335 N336 1.330 . S
C335 C337 1.446 . S
N336 Co295 2.151 . S
N336 C335 1.330 . S
N336 C340 1.418 . S
C337 H316 0.929 . S
C337 C335 1.446 . S
C337 C338 1.332 . S
C338 H318 0.931 . S
C338 C337 1.332 . S
C338 C339 1.267 . S
C339 H307 0.929 . S
C339 C338 1.267 . S
C339 C340 1.251 . S
C340 H310 0.929 . S
C340 N336 1.418 . S
C340 C339 1.251 . S
C341 H308 0.930 . S
C341 C343 1.406 . S
C341 C346 1.261 . S
C342 H309 0.930 . S
C342 N344 1.325 . S
C342 C345 1.357 . S
C343 H311 0.928 . S
C343 C341 1.406 . S
C343 N344 1.261 . S
N344 Co295 2.214 . S
N344 C342 1.325 . S
N344 C343 1.261 . S
C345 H315 0.931 . S
C345 C342 1.357 . S
C345 C346 1.312 . S
C346 H317 0.930 . S
C346 C341 1.261 . S
C346 C345 1.312 . S
C347 O319 1.214 . S
C347 O327 1.234 . S
C348 H320 0.929 . S
C348 C351 1.391 . S
C348 C353 1.391 . S
C349 H321 0.929 . S
C349 C350 1.390 . S
C349 N352 1.391 . S
C350 H322 0.930 . S
C350 C349 1.390 . S
C350 C351 1.392 . S
C351 H323 0.929 . S
C351 C348 1.391 . S
C351 C350 1.392 . S
N352 Co296 2.257 . S
N352 C349 1.391 . S
N352 C353 1.388 . S
C353 H324 0.930 . S
C353 C348 1.391 . S
C353 N352 1.388 . S
Co354 O356 2.143 . S
Co354 O362 2.074 . S
Co354 O365 2.093 . S
Co354 O378 2.097 . S
Co354 N395 2.151 . S
Co354 N403 2.214 . S
Co355 O356 2.160 . S
Co355 O361 2.058 . S
Co355 O371 2.057 . S
Co355 O386 2.037 . S
Co355 N390 2.145 1_556 S
Co355 N411 2.257 . S
O356 Co354 2.143 . S
O356 Co355 2.160 . S
C357 O358 1.278 . S
C357 O365 1.224 . S
O358 C357 1.278 . S
C359 O360 1.245 . S
C359 O371 1.232 . S
O360 C359 1.245 . S
O361 Co355 2.058 . S
O361 C387 1.269 . S
O362 Co354 2.074 . S
O362 C387 1.257 . S
H363 C388 0.930 . S
H364 C394 0.930 . S
O365 Co354 2.093 . S
O365 C357 1.224 . S
H366 C398 0.929 . S
H367 C400 0.930 . S
H368 C401 0.930 . S
H369 C399 0.929 . S
H370 C402 0.928 . S
O371 Co355 2.057 . S
O371 C359 1.232 . S
H372 C391 0.929 . S
H373 C392 0.929 . S
H374 C404 0.931 . S
H375 C396 0.929 . S
H376 C405 0.930 . S
H377 C397 0.931 . S
O378 Co354 2.097 . S
O378 C406 1.214 . S
H379 C407 0.929 . S
H380 C408 0.929 . S
H381 C409 0.930 . S
H382 C410 0.929 . S
H383 C412 0.930 . S
H384 C389 0.930 . S
H385 C393 0.930 . S
O386 Co355 2.037 . S
O386 C406 1.234 . S
C387 O361 1.269 . S
C387 O362 1.257 . S
C388 H363 0.930 . S
C388 C391 1.388 . S
C388 C393 1.418 . S
C389 H384 0.930 . S
C389 C392 1.404 . S
C389 C393 1.353 . S
N390 Co355 2.145 1_554 S
N390 C391 1.397 . S
N390 C392 1.334 . S
C391 H372 0.929 . S
C391 C388 1.388 . S
C391 N390 1.397 . S
C392 H373 0.929 . S
C392 C389 1.404 . S
C392 N390 1.334 . S
C393 H385 0.930 . S
C393 C388 1.418 . S
C393 C389 1.353 . S
C394 H364 0.930 . S
C394 N395 1.330 . S
C394 C396 1.446 . S
N395 Co354 2.151 . S
N395 C394 1.330 . S
N395 C399 1.418 . S
C396 H375 0.929 . S
C396 C394 1.446 . S
C396 C397 1.332 . S
C397 H377 0.931 . S
C397 C396 1.332 . S
C397 C398 1.267 . S
C398 H366 0.929 . S
C398 C397 1.267 . S
C398 C399 1.251 . S
C399 H369 0.929 . S
C399 N395 1.418 . S
C399 C398 1.251 . S
C400 H367 0.930 . S
C400 C402 1.406 . S
C400 C405 1.261 . S
C401 H368 0.930 . S
C401 N403 1.325 . S
C401 C404 1.357 . S
C402 H370 0.928 . S
C402 C400 1.406 . S
C402 N403 1.261 . S
N403 Co354 2.214 . S
N403 C401 1.325 . S
N403 C402 1.261 . S
C404 H374 0.931 . S
C404 C401 1.357 . S
C404 C405 1.312 . S
C405 H376 0.930 . S
C405 C400 1.261 . S
C405 C404 1.312 . S
C406 O378 1.214 . S
C406 O386 1.234 . S
C407 H379 0.929 . S
C407 C410 1.391 . S
C407 C412 1.391 . S
C408 H380 0.929 . S
C408 C409 1.390 . S
C408 N411 1.391 . S
C409 H381 0.930 . S
C409 C408 1.390 . S
C409 C410 1.392 . S
C410 H382 0.929 . S
C410 C407 1.391 . S
C410 C409 1.392 . S
N411 Co355 2.257 . S
N411 C408 1.391 . S
N411 C412 1.388 . S
C412 H383 0.930 . S
C412 C407 1.391 . S
C412 N411 1.388 . S
Co413 O415 2.143 . S
Co413 O421 2.074 . S
Co413 O424 2.093 . S
Co413 O437 2.097 . S
Co413 N454 2.151 . S
Co413 N462 2.214 . S
Co414 O415 2.160 . S
Co414 O420 2.058 . S
Co414 O430 2.057 . S
Co414 O445 2.037 . S
Co414 N449 2.145 . S
Co414 N470 2.257 . S
O415 Co413 2.143 . S
O415 Co414 2.160 . S
C416 O417 1.278 . S
C416 O424 1.224 . S
O417 C416 1.278 . S
C418 O419 1.245 . S
C418 O430 1.232 . S
O419 C418 1.245 . S
O420 Co414 2.058 . S
O420 C446 1.269 . S
O421 Co413 2.074 . S
O421 C446 1.257 . S
H422 C447 0.930 . S
H423 C453 0.930 . S
O424 Co413 2.093 . S
O424 C416 1.224 . S
H425 C457 0.929 . S
H426 C459 0.930 . S
H427 C460 0.930 . S
H428 C458 0.929 . S
H429 C461 0.928 . S
O430 Co414 2.057 . S
O430 C418 1.232 . S
H431 C450 0.929 . S
H432 C451 0.929 . S
H433 C463 0.931 . S
H434 C455 0.929 . S
H435 C464 0.930 . S
H436 C456 0.931 . S
O437 Co413 2.097 . S
O437 C465 1.214 . S
H438 C466 0.929 . S
H439 C467 0.929 . S
H440 C468 0.930 . S
H441 C469 0.929 . S
H442 C471 0.930 . S
H443 C448 0.930 . S
H444 C452 0.930 . S
O445 Co414 2.037 . S
O445 C465 1.234 . S
C446 O420 1.269 . S
C446 O421 1.257 . S
C447 H422 0.930 . S
C447 C450 1.388 . S
C447 C452 1.418 . S
C448 H443 0.930 . S
C448 C451 1.404 . S
C448 C452 1.353 . S
N449 Co414 2.145 . S
N449 C450 1.397 . S
N449 C451 1.334 . S
C450 H431 0.929 . S
C450 C447 1.388 . S
C450 N449 1.397 . S
C451 H432 0.929 . S
C451 C448 1.404 . S
C451 N449 1.334 . S
C452 H444 0.930 . S
C452 C447 1.418 . S
C452 C448 1.353 . S
C453 H423 0.930 . S
C453 N454 1.330 . S
C453 C455 1.446 . S
N454 Co413 2.151 . S
N454 C453 1.330 . S
N454 C458 1.418 . S
C455 H434 0.929 . S
C455 C453 1.446 . S
C455 C456 1.332 . S
C456 H436 0.931 . S
C456 C455 1.332 . S
C456 C457 1.267 . S
C457 H425 0.929 . S
C457 C456 1.267 . S
C457 C458 1.251 . S
C458 H428 0.929 . S
C458 N454 1.418 . S
C458 C457 1.251 . S
C459 H426 0.930 . S
C459 C461 1.406 . S
C459 C464 1.261 . S
C460 H427 0.930 . S
C460 N462 1.325 . S
C460 C463 1.357 . S
C461 H429 0.928 . S
C461 C459 1.406 . S
C461 N462 1.261 . S
N462 Co413 2.214 . S
N462 C460 1.325 . S
N462 C461 1.261 . S
C463 H433 0.931 . S
C463 C460 1.357 . S
C463 C464 1.312 . S
C464 H435 0.930 . S
C464 C459 1.261 . S
C464 C463 1.312 . S
C465 O437 1.214 . S
C465 O445 1.234 . S
C466 H438 0.929 . S
C466 C469 1.391 . S
C466 C471 1.391 . S
C467 H439 0.929 . S
C467 C468 1.390 . S
C467 N470 1.391 . S
C468 H440 0.930 . S
C468 C467 1.390 . S
C468 C469 1.392 . S
C469 H441 0.929 . S
C469 C466 1.391 . S
C469 C468 1.392 . S
N470 Co414 2.257 . S
N470 C467 1.391 . S
N470 C471 1.388 . S
C471 H442 0.930 . S
C471 C466 1.391 . S
C471 N470 1.388 . S
Co472 O474 2.143 . S
Co472 O480 2.074 . S
Co472 O483 2.093 . S
Co472 O496 2.097 . S
Co472 N513 2.151 . S
Co472 N521 2.214 . S
Co473 O474 2.160 . S
Co473 O479 2.058 . S
Co473 O489 2.057 . S
Co473 O504 2.037 . S
Co473 N508 2.145 1_556 S
Co473 N529 2.257 . S
O474 Co472 2.143 . S
O474 Co473 2.160 . S
C475 O476 1.278 . S
C475 O483 1.224 . S
O476 C475 1.278 . S
C477 O478 1.245 . S
C477 O489 1.232 . S
O478 C477 1.245 . S
O479 Co473 2.058 . S
O479 C505 1.269 . S
O480 Co472 2.074 . S
O480 C505 1.257 . S
H481 C506 0.930 . S
H482 C512 0.930 . S
O483 Co472 2.093 . S
O483 C475 1.224 . S
H484 C516 0.929 . S
H485 C518 0.930 . S
H486 C519 0.930 . S
H487 C517 0.929 . S
H488 C520 0.928 . S
O489 Co473 2.057 . S
O489 C477 1.232 . S
H490 C509 0.929 . S
H491 C510 0.929 . S
H492 C522 0.931 . S
H493 C514 0.929 . S
H494 C523 0.930 . S
H495 C515 0.931 . S
O496 Co472 2.097 . S
O496 C524 1.214 . S
H497 C525 0.929 . S
H498 C526 0.929 . S
H499 C527 0.930 . S
H500 C528 0.929 . S
H501 C530 0.930 . S
H502 C507 0.930 . S
H503 C511 0.930 . S
O504 Co473 2.037 . S
O504 C524 1.234 . S
C505 O479 1.269 . S
C505 O480 1.257 . S
C506 H481 0.930 . S
C506 C509 1.388 . S
C506 C511 1.418 . S
C507 H502 0.930 . S
C507 C510 1.404 . S
C507 C511 1.353 . S
N508 Co473 2.145 1_554 S
N508 C509 1.397 . S
N508 C510 1.334 . S
C509 H490 0.929 . S
C509 C506 1.388 . S
C509 N508 1.397 . S
C510 H491 0.929 . S
C510 C507 1.404 . S
C510 N508 1.334 . S
C511 H503 0.930 . S
C511 C506 1.418 . S
C511 C507 1.353 . S
C512 H482 0.930 . S
C512 N513 1.330 . S
C512 C514 1.446 . S
N513 Co472 2.151 . S
N513 C512 1.330 . S
N513 C517 1.418 . S
C514 H493 0.929 . S
C514 C512 1.446 . S
C514 C515 1.332 . S
C515 H495 0.931 . S
C515 C514 1.332 . S
C515 C516 1.267 . S
C516 H484 0.929 . S
C516 C515 1.267 . S
C516 C517 1.251 . S
C517 H487 0.929 . S
C517 N513 1.418 . S
C517 C516 1.251 . S
C518 H485 0.930 . S
C518 C520 1.406 . S
C518 C523 1.261 . S
C519 H486 0.930 . S
C519 N521 1.325 . S
C519 C522 1.357 . S
C520 H488 0.928 . S
C520 C518 1.406 . S
C520 N521 1.261 . S
N521 Co472 2.214 . S
N521 C519 1.325 . S
N521 C520 1.261 . S
C522 H492 0.931 . S
C522 C519 1.357 . S
C522 C523 1.312 . S
C523 H494 0.930 . S
C523 C518 1.261 . S
C523 C522 1.312 . S
C524 O496 1.214 . S
C524 O504 1.234 . S
C525 H497 0.929 . S
C525 C528 1.391 . S
C525 C530 1.391 . S
C526 H498 0.929 . S
C526 C527 1.390 . S
C526 N529 1.391 . S
C527 H499 0.930 . S
C527 C526 1.390 . S
C527 C528 1.392 . S
C528 H500 0.929 . S
C528 C525 1.391 . S
C528 C527 1.392 . S
N529 Co473 2.257 . S
N529 C526 1.391 . S
N529 C530 1.388 . S
C530 H501 0.930 . S
C530 C525 1.391 . S
C530 N529 1.388 . S
Co531 O533 2.143 . S
Co531 O539 2.074 . S
Co531 O542 2.093 . S
Co531 O555 2.097 . S
Co531 N572 2.151 . S
Co531 N580 2.214 . S
Co532 O533 2.160 . S
Co532 O538 2.058 . S
Co532 O548 2.057 . S
Co532 O563 2.037 . S
Co532 N567 2.145 . S
Co532 N588 2.257 . S
O533 Co531 2.143 . S
O533 Co532 2.160 . S
C534 O535 1.278 . S
C534 O542 1.224 . S
O535 C534 1.278 . S
C536 O537 1.245 . S
C536 O548 1.232 . S
O537 C536 1.245 . S
O538 Co532 2.058 . S
O538 C564 1.269 . S
O539 Co531 2.074 . S
O539 C564 1.257 . S
H540 C565 0.930 . S
H541 C571 0.930 . S
O542 Co531 2.093 . S
O542 C534 1.224 . S
H543 C575 0.929 . S
H544 C577 0.930 . S
H545 C578 0.930 . S
H546 C576 0.929 . S
H547 C579 0.928 . S
O548 Co532 2.057 . S
O548 C536 1.232 . S
H549 C568 0.929 . S
H550 C569 0.929 . S
H551 C581 0.931 . S
H552 C573 0.929 . S
H553 C582 0.930 . S
H554 C574 0.931 . S
O555 Co531 2.097 . S
O555 C583 1.214 . S
H556 C584 0.929 . S
H557 C585 0.929 . S
H558 C586 0.930 . S
H559 C587 0.929 . S
H560 C589 0.930 . S
H561 C566 0.930 . S
H562 C570 0.930 . S
O563 Co532 2.037 . S
O563 C583 1.234 . S
C564 O538 1.269 . S
C564 O539 1.257 . S
C565 H540 0.930 . S
C565 C568 1.388 . S
C565 C570 1.418 . S
C566 H561 0.930 . S
C566 C569 1.404 . S
C566 C570 1.353 . S
N567 Co532 2.145 . S
N567 C568 1.397 . S
N567 C569 1.334 . S
C568 H549 0.929 . S
C568 C565 1.388 . S
C568 N567 1.397 . S
C569 H550 0.929 . S
C569 C566 1.404 . S
C569 N567 1.334 . S
C570 H562 0.930 . S
C570 C565 1.418 . S
C570 C566 1.353 . S
C571 H541 0.930 . S
C571 N572 1.330 . S
C571 C573 1.446 . S
N572 Co531 2.151 . S
N572 C571 1.330 . S
N572 C576 1.418 . S
C573 H552 0.929 . S
C573 C571 1.446 . S
C573 C574 1.332 . S
C574 H554 0.931 . S
C574 C573 1.332 . S
C574 C575 1.267 . S
C575 H543 0.929 . S
C575 C574 1.267 . S
C575 C576 1.251 . S
C576 H546 0.929 . S
C576 N572 1.418 . S
C576 C575 1.251 . S
C577 H544 0.930 . S
C577 C579 1.406 . S
C577 C582 1.261 . S
C578 H545 0.930 . S
C578 N580 1.325 . S
C578 C581 1.357 . S
C579 H547 0.928 . S
C579 C577 1.406 . S
C579 N580 1.261 . S
N580 Co531 2.214 . S
N580 C578 1.325 . S
N580 C579 1.261 . S
C581 H551 0.931 . S
C581 C578 1.357 . S
C581 C582 1.312 . S
C582 H553 0.930 . S
C582 C577 1.261 . S
C582 C581 1.312 . S
C583 O555 1.214 . S
C583 O563 1.234 . S
C584 H556 0.929 . S
C584 C587 1.391 . S
C584 C589 1.391 . S
C585 H557 0.929 . S
C585 C586 1.390 . S
C585 N588 1.391 . S
C586 H558 0.930 . S
C586 C585 1.390 . S
C586 C587 1.392 . S
C587 H559 0.929 . S
C587 C584 1.391 . S
C587 C586 1.392 . S
N588 Co532 2.257 . S
N588 C585 1.391 . S
N588 C589 1.388 . S
C589 H560 0.930 . S
C589 C584 1.391 . S
C589 N588 1.388 . S
Co590 O592 2.143 . S
Co590 O598 2.074 . S
Co590 O601 2.093 . S
Co590 O614 2.097 . S
Co590 N631 2.151 . S
Co590 N639 2.214 . S
Co591 O592 2.160 . S
Co591 O597 2.058 . S
Co591 O607 2.057 . S
Co591 O622 2.037 . S
Co591 N626 2.145 1_556 S
Co591 N647 2.257 . S
O592 Co590 2.143 . S
O592 Co591 2.160 . S
C593 O594 1.278 . S
C593 O601 1.224 . S
O594 C593 1.278 . S
C595 O596 1.245 . S
C595 O607 1.232 . S
O596 C595 1.245 . S
O597 Co591 2.058 . S
O597 C623 1.269 . S
O598 Co590 2.074 . S
O598 C623 1.257 . S
H599 C624 0.930 . S
H600 C630 0.930 . S
O601 Co590 2.093 . S
O601 C593 1.224 . S
H602 C634 0.929 . S
H603 C636 0.930 . S
H604 C637 0.930 . S
H605 C635 0.929 . S
H606 C638 0.928 . S
O607 Co591 2.057 . S
O607 C595 1.232 . S
H608 C627 0.929 . S
H609 C628 0.929 . S
H610 C640 0.931 . S
H611 C632 0.929 . S
H612 C641 0.930 . S
H613 C633 0.931 . S
O614 Co590 2.097 . S
O614 C642 1.214 . S
H615 C643 0.929 . S
H616 C644 0.929 . S
H617 C645 0.930 . S
H618 C646 0.929 . S
H619 C648 0.930 . S
H620 C625 0.930 . S
H621 C629 0.930 . S
O622 Co591 2.037 . S
O622 C642 1.234 . S
C623 O597 1.269 . S
C623 O598 1.257 . S
C624 H599 0.930 . S
C624 C627 1.388 . S
C624 C629 1.418 . S
C625 H620 0.930 . S
C625 C628 1.404 . S
C625 C629 1.353 . S
N626 Co591 2.145 1_554 S
N626 C627 1.397 . S
N626 C628 1.334 . S
C627 H608 0.929 . S
C627 C624 1.388 . S
C627 N626 1.397 . S
C628 H609 0.929 . S
C628 C625 1.404 . S
C628 N626 1.334 . S
C629 H621 0.930 . S
C629 C624 1.418 . S
C629 C625 1.353 . S
C630 H600 0.930 . S
C630 N631 1.330 . S
C630 C632 1.446 . S
N631 Co590 2.151 . S
N631 C630 1.330 . S
N631 C635 1.418 . S
C632 H611 0.929 . S
C632 C630 1.446 . S
C632 C633 1.332 . S
C633 H613 0.931 . S
C633 C632 1.332 . S
C633 C634 1.267 . S
C634 H602 0.929 . S
C634 C633 1.267 . S
C634 C635 1.251 . S
C635 H605 0.929 . S
C635 N631 1.418 . S
C635 C634 1.251 . S
C636 H603 0.930 . S
C636 C638 1.406 . S
C636 C641 1.261 . S
C637 H604 0.930 . S
C637 N639 1.325 . S
C637 C640 1.357 . S
C638 H606 0.928 . S
C638 C636 1.406 . S
C638 N639 1.261 . S
N639 Co590 2.214 . S
N639 C637 1.325 . S
N639 C638 1.261 . S
C640 H610 0.931 . S
C640 C637 1.357 . S
C640 C641 1.312 . S
C641 H612 0.930 . S
C641 C636 1.261 . S
C641 C640 1.312 . S
C642 O614 1.214 . S
C642 O622 1.234 . S
C643 H615 0.929 . S
C643 C646 1.391 . S
C643 C648 1.391 . S
C644 H616 0.929 . S
C644 C645 1.390 . S
C644 N647 1.391 . S
C645 H617 0.930 . S
C645 C644 1.390 . S
C645 C646 1.392 . S
C646 H618 0.929 . S
C646 C643 1.391 . S
C646 C645 1.392 . S
N647 Co591 2.257 . S
N647 C644 1.391 . S
N647 C648 1.388 . S
C648 H619 0.930 . S
C648 C643 1.391 . S
C648 N647 1.388 . S
Co649 O651 2.143 . S
Co649 O657 2.074 . S
Co649 O660 2.093 . S
Co649 O673 2.097 . S
Co649 N690 2.151 . S
Co649 N698 2.214 . S
Co650 O651 2.160 . S
Co650 O656 2.058 . S
Co650 O666 2.057 . S
Co650 O681 2.037 . S
Co650 N685 2.145 . S
Co650 N706 2.257 . S
O651 Co649 2.143 . S
O651 Co650 2.160 . S
C652 O653 1.278 . S
C652 O660 1.224 . S
O653 C652 1.278 . S
C654 O655 1.245 . S
C654 O666 1.232 . S
O655 C654 1.245 . S
O656 Co650 2.058 . S
O656 C682 1.269 . S
O657 Co649 2.074 . S
O657 C682 1.257 . S
H658 C683 0.930 . S
H659 C689 0.930 . S
O660 Co649 2.093 . S
O660 C652 1.224 . S
H661 C693 0.929 . S
H662 C695 0.930 . S
H663 C696 0.930 . S
H664 C694 0.929 . S
H665 C697 0.928 . S
O666 Co650 2.057 . S
O666 C654 1.232 . S
H667 C686 0.929 . S
H668 C687 0.929 . S
H669 C699 0.931 . S
H670 C691 0.929 . S
H671 C700 0.930 . S
H672 C692 0.931 . S
O673 Co649 2.097 . S
O673 C701 1.214 . S
H674 C702 0.929 . S
H675 C703 0.929 . S
H676 C704 0.930 . S
H677 C705 0.929 . S
H678 C707 0.930 . S
H679 C684 0.930 . S
H680 C688 0.930 . S
O681 Co650 2.037 . S
O681 C701 1.234 . S
C682 O656 1.269 . S
C682 O657 1.257 . S
C683 H658 0.930 . S
C683 C686 1.388 . S
C683 C688 1.418 . S
C684 H679 0.930 . S
C684 C687 1.404 . S
C684 C688 1.353 . S
N685 Co650 2.145 . S
N685 C686 1.397 . S
N685 C687 1.334 . S
C686 H667 0.929 . S
C686 C683 1.388 . S
C686 N685 1.397 . S
C687 H668 0.929 . S
C687 C684 1.404 . S
C687 N685 1.334 . S
C688 H680 0.930 . S
C688 C683 1.418 . S
C688 C684 1.353 . S
C689 H659 0.930 . S
C689 N690 1.330 . S
C689 C691 1.446 . S
N690 Co649 2.151 . S
N690 C689 1.330 . S
N690 C694 1.418 . S
C691 H670 0.929 . S
C691 C689 1.446 . S
C691 C692 1.332 . S
C692 H672 0.931 . S
C692 C691 1.332 . S
C692 C693 1.267 . S
C693 H661 0.929 . S
C693 C692 1.267 . S
C693 C694 1.251 . S
C694 H664 0.929 . S
C694 N690 1.418 . S
C694 C693 1.251 . S
C695 H662 0.930 . S
C695 C697 1.406 . S
C695 C700 1.261 . S
C696 H663 0.930 . S
C696 N698 1.325 . S
C696 C699 1.357 . S
C697 H665 0.928 . S
C697 C695 1.406 . S
C697 N698 1.261 . S
N698 Co649 2.214 . S
N698 C696 1.325 . S
N698 C697 1.261 . S
C699 H669 0.931 . S
C699 C696 1.357 . S
C699 C700 1.312 . S
C700 H671 0.930 . S
C700 C695 1.261 . S
C700 C699 1.312 . S
C701 O673 1.214 . S
C701 O681 1.234 . S
C702 H674 0.929 . S
C702 C705 1.391 . S
C702 C707 1.391 . S
C703 H675 0.929 . S
C703 C704 1.390 . S
C703 N706 1.391 . S
C704 H676 0.930 . S
C704 C703 1.390 . S
C704 C705 1.392 . S
C705 H677 0.929 . S
C705 C702 1.391 . S
C705 C704 1.392 . S
N706 Co650 2.257 . S
N706 C703 1.391 . S
N706 C707 1.388 . S
C707 H678 0.930 . S
C707 C702 1.391 . S
C707 N706 1.388 . S
Co708 O710 2.143 . S
Co708 O716 2.074 . S
Co708 O719 2.093 . S
Co708 O732 2.097 . S
Co708 N749 2.151 . S
Co708 N757 2.214 . S
Co709 O710 2.160 . S
Co709 O715 2.058 . S
Co709 O725 2.057 . S
Co709 O740 2.037 . S
Co709 N744 2.145 1_556 S
Co709 N765 2.257 . S
O710 Co708 2.143 . S
O710 Co709 2.160 . S
C711 O712 1.278 . S
C711 O719 1.224 . S
O712 C711 1.278 . S
C713 O714 1.245 . S
C713 O725 1.232 . S
O714 C713 1.245 . S
O715 Co709 2.058 . S
O715 C741 1.269 . S
O716 Co708 2.074 . S
O716 C741 1.257 . S
H717 C742 0.930 . S
H718 C748 0.930 . S
O719 Co708 2.093 . S
O719 C711 1.224 . S
H720 C752 0.929 . S
H721 C754 0.930 . S
H722 C755 0.930 . S
H723 C753 0.929 . S
H724 C756 0.928 . S
O725 Co709 2.057 . S
O725 C713 1.232 . S
H726 C745 0.929 . S
H727 C746 0.929 . S
H728 C758 0.931 . S
H729 C750 0.929 . S
H730 C759 0.930 . S
H731 C751 0.931 . S
O732 Co708 2.097 . S
O732 C760 1.214 . S
H733 C761 0.929 . S
H734 C762 0.929 . S
H735 C763 0.930 . S
H736 C764 0.929 . S
H737 C766 0.930 . S
H738 C743 0.930 . S
H739 C747 0.930 . S
O740 Co709 2.037 . S
O740 C760 1.234 . S
C741 O715 1.269 . S
C741 O716 1.257 . S
C742 H717 0.930 . S
C742 C745 1.388 . S
C742 C747 1.418 . S
C743 H738 0.930 . S
C743 C746 1.404 . S
C743 C747 1.353 . S
N744 Co709 2.145 1_554 S
N744 C745 1.397 . S
N744 C746 1.334 . S
C745 H726 0.929 . S
C745 C742 1.388 . S
C745 N744 1.397 . S
C746 H727 0.929 . S
C746 C743 1.404 . S
C746 N744 1.334 . S
C747 H739 0.930 . S
C747 C742 1.418 . S
C747 C743 1.353 . S
C748 H718 0.930 . S
C748 N749 1.330 . S
C748 C750 1.446 . S
N749 Co708 2.151 . S
N749 C748 1.330 . S
N749 C753 1.418 . S
C750 H729 0.929 . S
C750 C748 1.446 . S
C750 C751 1.332 . S
C751 H731 0.931 . S
C751 C750 1.332 . S
C751 C752 1.267 . S
C752 H720 0.929 . S
C752 C751 1.267 . S
C752 C753 1.251 . S
C753 H723 0.929 . S
C753 N749 1.418 . S
C753 C752 1.251 . S
C754 H721 0.930 . S
C754 C756 1.406 . S
C754 C759 1.261 . S
C755 H722 0.930 . S
C755 N757 1.325 . S
C755 C758 1.357 . S
C756 H724 0.928 . S
C756 C754 1.406 . S
C756 N757 1.261 . S
N757 Co708 2.214 . S
N757 C755 1.325 . S
N757 C756 1.261 . S
C758 H728 0.931 . S
C758 C755 1.357 . S
C758 C759 1.312 . S
C759 H730 0.930 . S
C759 C754 1.261 . S
C759 C758 1.312 . S
C760 O732 1.214 . S
C760 O740 1.234 . S
C761 H733 0.929 . S
C761 C764 1.391 . S
C761 C766 1.391 . S
C762 H734 0.929 . S
C762 C763 1.390 . S
C762 N765 1.391 . S
C763 H735 0.930 . S
C763 C762 1.390 . S
C763 C764 1.392 . S
C764 H736 0.929 . S
C764 C761 1.391 . S
C764 C763 1.392 . S
N765 Co709 2.257 . S
N765 C762 1.391 . S
N765 C766 1.388 . S
C766 H737 0.930 . S
C766 C761 1.391 . S
C766 N765 1.388 . S
Co767 O769 2.143 . S
Co767 O775 2.074 . S
Co767 O778 2.093 . S
Co767 O791 2.097 . S
Co767 N808 2.151 . S
Co767 N816 2.214 . S
Co768 O769 2.160 . S
Co768 O774 2.058 . S
Co768 O784 2.057 . S
Co768 O799 2.037 . S
Co768 N803 2.145 . S
Co768 N824 2.257 . S
O769 Co767 2.143 . S
O769 Co768 2.160 . S
C770 O771 1.278 . S
C770 O778 1.224 . S
O771 C770 1.278 . S
C772 O773 1.245 . S
C772 O784 1.232 . S
O773 C772 1.245 . S
O774 Co768 2.058 . S
O774 C800 1.269 . S
O775 Co767 2.074 . S
O775 C800 1.257 . S
H776 C801 0.930 . S
H777 C807 0.930 . S
O778 Co767 2.093 . S
O778 C770 1.224 . S
H779 C811 0.929 . S
H780 C813 0.930 . S
H781 C814 0.930 . S
H782 C812 0.929 . S
H783 C815 0.928 . S
O784 Co768 2.057 . S
O784 C772 1.232 . S
H785 C804 0.929 . S
H786 C805 0.929 . S
H787 C817 0.931 . S
H788 C809 0.929 . S
H789 C818 0.930 . S
H790 C810 0.931 . S
O791 Co767 2.097 . S
O791 C819 1.214 . S
H792 C820 0.929 . S
H793 C821 0.929 . S
H794 C822 0.930 . S
H795 C823 0.929 . S
H796 C825 0.930 . S
H797 C802 0.930 . S
H798 C806 0.930 . S
O799 Co768 2.037 . S
O799 C819 1.234 . S
C800 O774 1.269 . S
C800 O775 1.257 . S
C801 H776 0.930 . S
C801 C804 1.388 . S
C801 C806 1.418 . S
C802 H797 0.930 . S
C802 C805 1.404 . S
C802 C806 1.353 . S
N803 Co768 2.145 . S
N803 C804 1.397 . S
N803 C805 1.334 . S
C804 H785 0.929 . S
C804 C801 1.388 . S
C804 N803 1.397 . S
C805 H786 0.929 . S
C805 C802 1.404 . S
C805 N803 1.334 . S
C806 H798 0.930 . S
C806 C801 1.418 . S
C806 C802 1.353 . S
C807 H777 0.930 . S
C807 N808 1.330 . S
C807 C809 1.446 . S
N808 Co767 2.151 . S
N808 C807 1.330 . S
N808 C812 1.418 . S
C809 H788 0.929 . S
C809 C807 1.446 . S
C809 C810 1.332 . S
C810 H790 0.931 . S
C810 C809 1.332 . S
C810 C811 1.267 . S
C811 H779 0.929 . S
C811 C810 1.267 . S
C811 C812 1.251 . S
C812 H782 0.929 . S
C812 N808 1.418 . S
C812 C811 1.251 . S
C813 H780 0.930 . S
C813 C815 1.406 . S
C813 C818 1.261 . S
C814 H781 0.930 . S
C814 N816 1.325 . S
C814 C817 1.357 . S
C815 H783 0.928 . S
C815 C813 1.406 . S
C815 N816 1.261 . S
N816 Co767 2.214 . S
N816 C814 1.325 . S
N816 C815 1.261 . S
C817 H787 0.931 . S
C817 C814 1.357 . S
C817 C818 1.312 . S
C818 H789 0.930 . S
C818 C813 1.261 . S
C818 C817 1.312 . S
C819 O791 1.214 . S
C819 O799 1.234 . S
C820 H792 0.929 . S
C820 C823 1.391 . S
C820 C825 1.391 . S
C821 H793 0.929 . S
C821 C822 1.390 . S
C821 N824 1.391 . S
C822 H794 0.930 . S
C822 C821 1.390 . S
C822 C823 1.392 . S
C823 H795 0.929 . S
C823 C820 1.391 . S
C823 C822 1.392 . S
N824 Co768 2.257 . S
N824 C821 1.391 . S
N824 C825 1.388 . S
C825 H796 0.930 . S
C825 C820 1.391 . S
C825 N824 1.388 . S
Co826 O828 2.143 . S
Co826 O834 2.074 . S
Co826 O837 2.093 . S
Co826 O850 2.097 . S
Co826 N867 2.151 . S
Co826 N875 2.214 . S
Co827 O828 2.160 . S
Co827 O833 2.058 . S
Co827 O843 2.057 . S
Co827 O858 2.037 . S
Co827 N862 2.145 1_556 S
Co827 N883 2.257 . S
O828 Co826 2.143 . S
O828 Co827 2.160 . S
C829 O830 1.278 . S
C829 O837 1.224 . S
O830 C829 1.278 . S
C831 O832 1.245 . S
C831 O843 1.232 . S
O832 C831 1.245 . S
O833 Co827 2.058 . S
O833 C859 1.269 . S
O834 Co826 2.074 . S
O834 C859 1.257 . S
H835 C860 0.930 . S
H836 C866 0.930 . S
O837 Co826 2.093 . S
O837 C829 1.224 . S
H838 C870 0.929 . S
H839 C872 0.930 . S
H840 C873 0.930 . S
H841 C871 0.929 . S
H842 C874 0.928 . S
O843 Co827 2.057 . S
O843 C831 1.232 . S
H844 C863 0.929 . S
H845 C864 0.929 . S
H846 C876 0.931 . S
H847 C868 0.929 . S
H848 C877 0.930 . S
H849 C869 0.931 . S
O850 Co826 2.097 . S
O850 C878 1.214 . S
H851 C879 0.929 . S
H852 C880 0.929 . S
H853 C881 0.930 . S
H854 C882 0.929 . S
H855 C884 0.930 . S
H856 C861 0.930 . S
H857 C865 0.930 . S
O858 Co827 2.037 . S
O858 C878 1.234 . S
C859 O833 1.269 . S
C859 O834 1.257 . S
C860 H835 0.930 . S
C860 C863 1.388 . S
C860 C865 1.418 . S
C861 H856 0.930 . S
C861 C864 1.404 . S
C861 C865 1.353 . S
N862 Co827 2.145 1_554 S
N862 C863 1.397 . S
N862 C864 1.334 . S
C863 H844 0.929 . S
C863 C860 1.388 . S
C863 N862 1.397 . S
C864 H845 0.929 . S
C864 C861 1.404 . S
C864 N862 1.334 . S
C865 H857 0.930 . S
C865 C860 1.418 . S
C865 C861 1.353 . S
C866 H836 0.930 . S
C866 N867 1.330 . S
C866 C868 1.446 . S
N867 Co826 2.151 . S
N867 C866 1.330 . S
N867 C871 1.418 . S
C868 H847 0.929 . S
C868 C866 1.446 . S
C868 C869 1.332 . S
C869 H849 0.931 . S
C869 C868 1.332 . S
C869 C870 1.267 . S
C870 H838 0.929 . S
C870 C869 1.267 . S
C870 C871 1.251 . S
C871 H841 0.929 . S
C871 N867 1.418 . S
C871 C870 1.251 . S
C872 H839 0.930 . S
C872 C874 1.406 . S
C872 C877 1.261 . S
C873 H840 0.930 . S
C873 N875 1.325 . S
C873 C876 1.357 . S
C874 H842 0.928 . S
C874 C872 1.406 . S
C874 N875 1.261 . S
N875 Co826 2.214 . S
N875 C873 1.325 . S
N875 C874 1.261 . S
C876 H846 0.931 . S
C876 C873 1.357 . S
C876 C877 1.312 . S
C877 H848 0.930 . S
C877 C872 1.261 . S
C877 C876 1.312 . S
C878 O850 1.214 . S
C878 O858 1.234 . S
C879 H851 0.929 . S
C879 C882 1.391 . S
C879 C884 1.391 . S
C880 H852 0.929 . S
C880 C881 1.390 . S
C880 N883 1.391 . S
C881 H853 0.930 . S
C881 C880 1.390 . S
C881 C882 1.392 . S
C882 H854 0.929 . S
C882 C879 1.391 . S
C882 C881 1.392 . S
N883 Co827 2.257 . S
N883 C880 1.391 . S
N883 C884 1.388 . S
C884 H855 0.930 . S
C884 C879 1.391 . S
C884 N883 1.388 . S
Co885 O887 2.143 . S
Co885 O893 2.074 . S
Co885 O896 2.093 . S
Co885 O909 2.097 . S
Co885 N926 2.151 . S
Co885 N934 2.214 . S
Co886 O887 2.160 . S
Co886 O892 2.058 . S
Co886 O902 2.057 . S
Co886 O917 2.037 . S
Co886 N921 2.145 . S
Co886 N942 2.257 . S
O887 Co885 2.143 . S
O887 Co886 2.160 . S
C888 O889 1.278 . S
C888 O896 1.224 . S
O889 C888 1.278 . S
C890 O891 1.245 . S
C890 O902 1.232 . S
O891 C890 1.245 . S
O892 Co886 2.058 . S
O892 C918 1.269 . S
O893 Co885 2.074 . S
O893 C918 1.257 . S
H894 C919 0.930 . S
H895 C925 0.930 . S
O896 Co885 2.093 . S
O896 C888 1.224 . S
H897 C929 0.929 . S
H898 C931 0.930 . S
H899 C932 0.930 . S
H900 C930 0.929 . S
H901 C933 0.928 . S
O902 Co886 2.057 . S
O902 C890 1.232 . S
H903 C922 0.929 . S
H904 C923 0.929 . S
H905 C935 0.931 . S
H906 C927 0.929 . S
H907 C936 0.930 . S
H908 C928 0.931 . S
O909 Co885 2.097 . S
O909 C937 1.214 . S
H910 C938 0.929 . S
H911 C939 0.929 . S
H912 C940 0.930 . S
H913 C941 0.929 . S
H914 C943 0.930 . S
H915 C920 0.930 . S
H916 C924 0.930 . S
O917 Co886 2.037 . S
O917 C937 1.234 . S
C918 O892 1.269 . S
C918 O893 1.257 . S
C919 H894 0.930 . S
C919 C922 1.388 . S
C919 C924 1.418 . S
C920 H915 0.930 . S
C920 C923 1.404 . S
C920 C924 1.353 . S
N921 Co886 2.145 . S
N921 C922 1.397 . S
N921 C923 1.334 . S
C922 H903 0.929 . S
C922 C919 1.388 . S
C922 N921 1.397 . S
C923 H904 0.929 . S
C923 C920 1.404 . S
C923 N921 1.334 . S
C924 H916 0.930 . S
C924 C919 1.418 . S
C924 C920 1.353 . S
C925 H895 0.930 . S
C925 N926 1.330 . S
C925 C927 1.446 . S
N926 Co885 2.151 . S
N926 C925 1.330 . S
N926 C930 1.418 . S
C927 H906 0.929 . S
C927 C925 1.446 . S
C927 C928 1.332 . S
C928 H908 0.931 . S
C928 C927 1.332 . S
C928 C929 1.267 . S
C929 H897 0.929 . S
C929 C928 1.267 . S
C929 C930 1.251 . S
C930 H900 0.929 . S
C930 N926 1.418 . S
C930 C929 1.251 . S
C931 H898 0.930 . S
C931 C933 1.406 . S
C931 C936 1.261 . S
C932 H899 0.930 . S
C932 N934 1.325 . S
C932 C935 1.357 . S
C933 H901 0.928 . S
C933 C931 1.406 . S
C933 N934 1.261 . S
N934 Co885 2.214 . S
N934 C932 1.325 . S
N934 C933 1.261 . S
C935 H905 0.931 . S
C935 C932 1.357 . S
C935 C936 1.312 . S
C936 H907 0.930 . S
C936 C931 1.261 . S
C936 C935 1.312 . S
C937 O909 1.214 . S
C937 O917 1.234 . S
C938 H910 0.929 . S
C938 C941 1.391 . S
C938 C943 1.391 . S
C939 H911 0.929 . S
C939 C940 1.390 . S
C939 N942 1.391 . S
C940 H912 0.930 . S
C940 C939 1.390 . S
C940 C941 1.392 . S
C941 H913 0.929 . S
C941 C938 1.391 . S
C941 C940 1.392 . S
N942 Co886 2.257 . S
N942 C939 1.391 . S
N942 C943 1.388 . S
C943 H914 0.930 . S
C943 C938 1.391 . S
C943 N942 1.388 . S
Co944 O946 2.143 . S
Co944 O952 2.074 . S
Co944 O955 2.093 . S
Co944 O968 2.097 . S
Co944 N985 2.151 . S
Co944 N993 2.214 . S
Co945 O946 2.160 . S
Co945 O951 2.058 . S
Co945 O961 2.057 . S
Co945 O976 2.037 . S
Co945 N980 2.145 1_556 S
Co945 N1001 2.257 . S
O946 Co944 2.143 . S
O946 Co945 2.160 . S
C947 O948 1.278 . S
C947 O955 1.224 . S
O948 C947 1.278 . S
C949 O950 1.245 . S
C949 O961 1.232 . S
O950 C949 1.245 . S
O951 Co945 2.058 . S
O951 C977 1.269 . S
O952 Co944 2.074 . S
O952 C977 1.257 . S
H953 C978 0.930 . S
H954 C984 0.930 . S
O955 Co944 2.093 . S
O955 C947 1.224 . S
H956 C988 0.929 . S
H957 C990 0.930 . S
H958 C991 0.930 . S
H959 C989 0.929 . S
H960 C992 0.928 . S
O961 Co945 2.057 . S
O961 C949 1.232 . S
H962 C981 0.929 . S
H963 C982 0.929 . S
H964 C994 0.931 . S
H965 C986 0.929 . S
H966 C995 0.930 . S
H967 C987 0.931 . S
O968 Co944 2.097 . S
O968 C996 1.214 . S
H969 C997 0.929 . S
H970 C998 0.929 . S
H971 C999 0.930 . S
H972 C1000 0.929 . S
H973 C1002 0.930 . S
H974 C979 0.930 . S
H975 C983 0.930 . S
O976 Co945 2.037 . S
O976 C996 1.234 . S
C977 O951 1.269 . S
C977 O952 1.257 . S
C978 H953 0.930 . S
C978 C981 1.388 . S
C978 C983 1.418 . S
C979 H974 0.930 . S
C979 C982 1.404 . S
C979 C983 1.353 . S
N980 Co945 2.145 1_554 S
N980 C981 1.397 . S
N980 C982 1.334 . S
C981 H962 0.929 . S
C981 C978 1.388 . S
C981 N980 1.397 . S
C982 H963 0.929 . S
C982 C979 1.404 . S
C982 N980 1.334 . S
C983 H975 0.930 . S
C983 C978 1.418 . S
C983 C979 1.353 . S
C984 H954 0.930 . S
C984 N985 1.330 . S
C984 C986 1.446 . S
N985 Co944 2.151 . S
N985 C984 1.330 . S
N985 C989 1.418 . S
C986 H965 0.929 . S
C986 C984 1.446 . S
C986 C987 1.332 . S
C987 H967 0.931 . S
C987 C986 1.332 . S
C987 C988 1.267 . S
C988 H956 0.929 . S
C988 C987 1.267 . S
C988 C989 1.251 . S
C989 H959 0.929 . S
C989 N985 1.418 . S
C989 C988 1.251 . S
C990 H957 0.930 . S
C990 C992 1.406 . S
C990 C995 1.261 . S
C991 H958 0.930 . S
C991 N993 1.325 . S
C991 C994 1.357 . S
C992 H960 0.928 . S
C992 C990 1.406 . S
C992 N993 1.261 . S
N993 Co944 2.214 . S
N993 C991 1.325 . S
N993 C992 1.261 . S
C994 H964 0.931 . S
C994 C991 1.357 . S
C994 C995 1.312 . S
C995 H966 0.930 . S
C995 C990 1.261 . S
C995 C994 1.312 . S
C996 O968 1.214 . S
C996 O976 1.234 . S
C997 H969 0.929 . S
C997 C1000 1.391 . S
C997 C1002 1.391 . S
C998 H970 0.929 . S
C998 C999 1.390 . S
C998 N1001 1.391 . S
C999 H971 0.930 . S
C999 C998 1.390 . S
C999 C1000 1.392 . S
C1000 H972 0.929 . S
C1000 C997 1.391 . S
C1000 C999 1.392 . S
N1001 Co945 2.257 . S
N1001 C998 1.391 . S
N1001 C1002 1.388 . S
C1002 H973 0.930 . S
C1002 C997 1.391 . S
C1002 N1001 1.388 . S
Co1003 O1005 2.143 . S
Co1003 O1011 2.074 . S
Co1003 O1014 2.093 . S
Co1003 O1027 2.097 . S
Co1003 N1044 2.151 . S
Co1003 N1052 2.214 . S
Co1004 O1005 2.160 . S
Co1004 O1010 2.058 . S
Co1004 O1020 2.057 . S
Co1004 O1035 2.037 . S
Co1004 N1039 2.145 . S
Co1004 N1060 2.257 . S
O1005 Co1003 2.143 . S
O1005 Co1004 2.160 . S
C1006 O1007 1.278 . S
C1006 O1014 1.224 . S
O1007 C1006 1.278 . S
C1008 O1009 1.245 . S
C1008 O1020 1.232 . S
O1009 C1008 1.245 . S
O1010 Co1004 2.058 . S
O1010 C1036 1.269 . S
O1011 Co1003 2.074 . S
O1011 C1036 1.257 . S
H1012 C1037 0.930 . S
H1013 C1043 0.930 . S
O1014 Co1003 2.093 . S
O1014 C1006 1.224 . S
H1015 C1047 0.929 . S
H1016 C1049 0.930 . S
H1017 C1050 0.930 . S
H1018 C1048 0.929 . S
H1019 C1051 0.928 . S
O1020 Co1004 2.057 . S
O1020 C1008 1.232 . S
H1021 C1040 0.929 . S
H1022 C1041 0.929 . S
H1023 C1053 0.931 . S
H1024 C1045 0.929 . S
H1025 C1054 0.930 . S
H1026 C1046 0.931 . S
O1027 Co1003 2.097 . S
O1027 C1055 1.214 . S
H1028 C1056 0.929 . S
H1029 C1057 0.929 . S
H1030 C1058 0.930 . S
H1031 C1059 0.929 . S
H1032 C1061 0.930 . S
H1033 C1038 0.930 . S
H1034 C1042 0.930 . S
O1035 Co1004 2.037 . S
O1035 C1055 1.234 . S
C1036 O1010 1.269 . S
C1036 O1011 1.257 . S
C1037 H1012 0.930 . S
C1037 C1040 1.388 . S
C1037 C1042 1.418 . S
C1038 H1033 0.930 . S
C1038 C1041 1.404 . S
C1038 C1042 1.353 . S
N1039 Co1004 2.145 . S
N1039 C1040 1.397 . S
N1039 C1041 1.334 . S
C1040 H1021 0.929 . S
C1040 C1037 1.388 . S
C1040 N1039 1.397 . S
C1041 H1022 0.929 . S
C1041 C1038 1.404 . S
C1041 N1039 1.334 . S
C1042 H1034 0.930 . S
C1042 C1037 1.418 . S
C1042 C1038 1.353 . S
C1043 H1013 0.930 . S
C1043 N1044 1.330 . S
C1043 C1045 1.446 . S
N1044 Co1003 2.151 . S
N1044 C1043 1.330 . S
N1044 C1048 1.418 . S
C1045 H1024 0.929 . S
C1045 C1043 1.446 . S
C1045 C1046 1.332 . S
C1046 H1026 0.931 . S
C1046 C1045 1.332 . S
C1046 C1047 1.267 . S
C1047 H1015 0.929 . S
C1047 C1046 1.267 . S
C1047 C1048 1.251 . S
C1048 H1018 0.929 . S
C1048 N1044 1.418 . S
C1048 C1047 1.251 . S
C1049 H1016 0.930 . S
C1049 C1051 1.406 . S
C1049 C1054 1.261 . S
C1050 H1017 0.930 . S
C1050 N1052 1.325 . S
C1050 C1053 1.357 . S
C1051 H1019 0.928 . S
C1051 C1049 1.406 . S
C1051 N1052 1.261 . S
N1052 Co1003 2.214 . S
N1052 C1050 1.325 . S
N1052 C1051 1.261 . S
C1053 H1023 0.931 . S
C1053 C1050 1.357 . S
C1053 C1054 1.312 . S
C1054 H1025 0.930 . S
C1054 C1049 1.261 . S
C1054 C1053 1.312 . S
C1055 O1027 1.214 . S
C1055 O1035 1.234 . S
C1056 H1028 0.929 . S
C1056 C1059 1.391 . S
C1056 C1061 1.391 . S
C1057 H1029 0.929 . S
C1057 C1058 1.390 . S
C1057 N1060 1.391 . S
C1058 H1030 0.930 . S
C1058 C1057 1.390 . S
C1058 C1059 1.392 . S
C1059 H1031 0.929 . S
C1059 C1056 1.391 . S
C1059 C1058 1.392 . S
N1060 Co1004 2.257 . S
N1060 C1057 1.391 . S
N1060 C1061 1.388 . S
C1061 H1032 0.930 . S
C1061 C1056 1.391 . S
C1061 N1060 1.388 . S
Co1062 O1064 2.143 . S
Co1062 O1070 2.074 . S
Co1062 O1073 2.093 . S
Co1062 O1086 2.097 . S
Co1062 N1103 2.151 . S
Co1062 N1111 2.214 . S
Co1063 O1064 2.160 . S
Co1063 O1069 2.058 . S
Co1063 O1079 2.057 . S
Co1063 O1094 2.037 . S
Co1063 N1098 2.145 1_554 S
Co1063 N1119 2.257 . S
O1064 Co1062 2.143 . S
O1064 Co1063 2.160 . S
C1065 O1066 1.278 . S
C1065 O1073 1.224 . S
O1066 C1065 1.278 . S
C1067 O1068 1.245 . S
C1067 O1079 1.232 . S
O1068 C1067 1.245 . S
O1069 Co1063 2.058 . S
O1069 C1095 1.269 . S
O1070 Co1062 2.074 . S
O1070 C1095 1.257 . S
H1071 C1096 0.930 . S
H1072 C1102 0.930 . S
O1073 Co1062 2.093 . S
O1073 C1065 1.224 . S
H1074 C1106 0.929 . S
H1075 C1108 0.930 . S
H1076 C1109 0.930 . S
H1077 C1107 0.929 . S
H1078 C1110 0.928 . S
O1079 Co1063 2.057 . S
O1079 C1067 1.232 . S
H1080 C1099 0.929 . S
H1081 C1100 0.929 . S
H1082 C1112 0.931 . S
H1083 C1104 0.929 . S
H1084 C1113 0.930 . S
H1085 C1105 0.931 . S
O1086 Co1062 2.097 . S
O1086 C1114 1.214 . S
H1087 C1115 0.929 . S
H1088 C1116 0.929 . S
H1089 C1117 0.930 . S
H1090 C1118 0.929 . S
H1091 C1120 0.930 . S
H1092 C1097 0.930 . S
H1093 C1101 0.930 . S
O1094 Co1063 2.037 . S
O1094 C1114 1.234 . S
C1095 O1069 1.269 . S
C1095 O1070 1.257 . S
C1096 H1071 0.930 . S
C1096 C1099 1.388 . S
C1096 C1101 1.418 . S
C1097 H1092 0.930 . S
C1097 C1100 1.404 . S
C1097 C1101 1.353 . S
N1098 Co1063 2.145 1_556 S
N1098 C1099 1.397 . S
N1098 C1100 1.334 . S
C1099 H1080 0.929 . S
C1099 C1096 1.388 . S
C1099 N1098 1.397 . S
C1100 H1081 0.929 . S
C1100 C1097 1.404 . S
C1100 N1098 1.334 . S
C1101 H1093 0.930 . S
C1101 C1096 1.418 . S
C1101 C1097 1.353 . S
C1102 H1072 0.930 . S
C1102 N1103 1.330 . S
C1102 C1104 1.446 . S
N1103 Co1062 2.151 . S
N1103 C1102 1.330 . S
N1103 C1107 1.418 . S
C1104 H1083 0.929 . S
C1104 C1102 1.446 . S
C1104 C1105 1.332 . S
C1105 H1085 0.931 . S
C1105 C1104 1.332 . S
C1105 C1106 1.267 . S
C1106 H1074 0.929 . S
C1106 C1105 1.267 . S
C1106 C1107 1.251 . S
C1107 H1077 0.929 . S
C1107 N1103 1.418 . S
C1107 C1106 1.251 . S
C1108 H1075 0.930 . S
C1108 C1110 1.406 . S
C1108 C1113 1.261 . S
C1109 H1076 0.930 . S
C1109 N1111 1.325 . S
C1109 C1112 1.357 . S
C1110 H1078 0.928 . S
C1110 C1108 1.406 . S
C1110 N1111 1.261 . S
N1111 Co1062 2.214 . S
N1111 C1109 1.325 . S
N1111 C1110 1.261 . S
C1112 H1082 0.931 . S
C1112 C1109 1.357 . S
C1112 C1113 1.312 . S
C1113 H1084 0.930 . S
C1113 C1108 1.261 . S
C1113 C1112 1.312 . S
C1114 O1086 1.214 . S
C1114 O1094 1.234 . S
C1115 H1087 0.929 . S
C1115 C1118 1.391 . S
C1115 C1120 1.391 . S
C1116 H1088 0.929 . S
C1116 C1117 1.390 . S
C1116 N1119 1.391 . S
C1117 H1089 0.930 . S
C1117 C1116 1.390 . S
C1117 C1118 1.392 . S
C1118 H1090 0.929 . S
C1118 C1115 1.391 . S
C1118 C1117 1.392 . S
N1119 Co1063 2.257 . S
N1119 C1116 1.391 . S
N1119 C1120 1.388 . S
C1120 H1091 0.930 . S
C1120 C1115 1.391 . S
C1120 N1119 1.388 . S
Co1121 O1123 2.143 . S
Co1121 O1129 2.074 . S
Co1121 O1132 2.093 . S
Co1121 O1145 2.097 . S
Co1121 N1162 2.151 . S
Co1121 N1170 2.214 . S
Co1122 O1123 2.160 . S
Co1122 O1128 2.058 . S
Co1122 O1138 2.057 . S
Co1122 O1153 2.037 . S
Co1122 N1157 2.145 . S
Co1122 N1178 2.257 . S
O1123 Co1121 2.143 . S
O1123 Co1122 2.160 . S
C1124 O1125 1.278 . S
C1124 O1132 1.224 . S
O1125 C1124 1.278 . S
C1126 O1127 1.245 . S
C1126 O1138 1.232 . S
O1127 C1126 1.245 . S
O1128 Co1122 2.058 . S
O1128 C1154 1.269 . S
O1129 Co1121 2.074 . S
O1129 C1154 1.257 . S
H1130 C1155 0.930 . S
H1131 C1161 0.930 . S
O1132 Co1121 2.093 . S
O1132 C1124 1.224 . S
H1133 C1165 0.929 . S
H1134 C1167 0.930 . S
H1135 C1168 0.930 . S
H1136 C1166 0.929 . S
H1137 C1169 0.928 . S
O1138 Co1122 2.057 . S
O1138 C1126 1.232 . S
H1139 C1158 0.929 . S
H1140 C1159 0.929 . S
H1141 C1171 0.931 . S
H1142 C1163 0.929 . S
H1143 C1172 0.930 . S
H1144 C1164 0.931 . S
O1145 Co1121 2.097 . S
O1145 C1173 1.214 . S
H1146 C1174 0.929 . S
H1147 C1175 0.929 . S
H1148 C1176 0.930 . S
H1149 C1177 0.929 . S
H1150 C1179 0.930 . S
H1151 C1156 0.930 . S
H1152 C1160 0.930 . S
O1153 Co1122 2.037 . S
O1153 C1173 1.234 . S
C1154 O1128 1.269 . S
C1154 O1129 1.257 . S
C1155 H1130 0.930 . S
C1155 C1158 1.388 . S
C1155 C1160 1.418 . S
C1156 H1151 0.930 . S
C1156 C1159 1.404 . S
C1156 C1160 1.353 . S
N1157 Co1122 2.145 . S
N1157 C1158 1.397 . S
N1157 C1159 1.334 . S
C1158 H1139 0.929 . S
C1158 C1155 1.388 . S
C1158 N1157 1.397 . S
C1159 H1140 0.929 . S
C1159 C1156 1.404 . S
C1159 N1157 1.334 . S
C1160 H1152 0.930 . S
C1160 C1155 1.418 . S
C1160 C1156 1.353 . S
C1161 H1131 0.930 . S
C1161 N1162 1.330 . S
C1161 C1163 1.446 . S
N1162 Co1121 2.151 . S
N1162 C1161 1.330 . S
N1162 C1166 1.418 . S
C1163 H1142 0.929 . S
C1163 C1161 1.446 . S
C1163 C1164 1.332 . S
C1164 H1144 0.931 . S
C1164 C1163 1.332 . S
C1164 C1165 1.267 . S
C1165 H1133 0.929 . S
C1165 C1164 1.267 . S
C1165 C1166 1.251 . S
C1166 H1136 0.929 . S
C1166 N1162 1.418 . S
C1166 C1165 1.251 . S
C1167 H1134 0.930 . S
C1167 C1169 1.406 . S
C1167 C1172 1.261 . S
C1168 H1135 0.930 . S
C1168 N1170 1.325 . S
C1168 C1171 1.357 . S
C1169 H1137 0.928 . S
C1169 C1167 1.406 . S
C1169 N1170 1.261 . S
N1170 Co1121 2.214 . S
N1170 C1168 1.325 . S
N1170 C1169 1.261 . S
C1171 H1141 0.931 . S
C1171 C1168 1.357 . S
C1171 C1172 1.312 . S
C1172 H1143 0.930 . S
C1172 C1167 1.261 . S
C1172 C1171 1.312 . S
C1173 O1145 1.214 . S
C1173 O1153 1.234 . S
C1174 H1146 0.929 . S
C1174 C1177 1.391 . S
C1174 C1179 1.391 . S
C1175 H1147 0.929 . S
C1175 C1176 1.390 . S
C1175 N1178 1.391 . S
C1176 H1148 0.930 . S
C1176 C1175 1.390 . S
C1176 C1177 1.392 . S
C1177 H1149 0.929 . S
C1177 C1174 1.391 . S
C1177 C1176 1.392 . S
N1178 Co1122 2.257 . S
N1178 C1175 1.391 . S
N1178 C1179 1.388 . S
C1179 H1150 0.930 . S
C1179 C1174 1.391 . S
C1179 N1178 1.388 . S
Co1180 O1182 2.143 . S
Co1180 O1188 2.074 . S
Co1180 O1191 2.093 . S
Co1180 O1204 2.097 . S
Co1180 N1221 2.151 . S
Co1180 N1229 2.214 . S
Co1181 O1182 2.160 . S
Co1181 O1187 2.058 . S
Co1181 O1197 2.057 . S
Co1181 O1212 2.037 . S
Co1181 N1216 2.145 1_554 S
Co1181 N1237 2.257 . S
O1182 Co1180 2.143 . S
O1182 Co1181 2.160 . S
C1183 O1184 1.278 . S
C1183 O1191 1.224 . S
O1184 C1183 1.278 . S
C1185 O1186 1.245 . S
C1185 O1197 1.232 . S
O1186 C1185 1.245 . S
O1187 Co1181 2.058 . S
O1187 C1213 1.269 . S
O1188 Co1180 2.074 . S
O1188 C1213 1.257 . S
H1189 C1214 0.930 . S
H1190 C1220 0.930 . S
O1191 Co1180 2.093 . S
O1191 C1183 1.224 . S
H1192 C1224 0.929 . S
H1193 C1226 0.930 . S
H1194 C1227 0.930 . S
H1195 C1225 0.929 . S
H1196 C1228 0.928 . S
O1197 Co1181 2.057 . S
O1197 C1185 1.232 . S
H1198 C1217 0.929 . S
H1199 C1218 0.929 . S
H1200 C1230 0.931 . S
H1201 C1222 0.929 . S
H1202 C1231 0.930 . S
H1203 C1223 0.931 . S
O1204 Co1180 2.097 . S
O1204 C1232 1.214 . S
H1205 C1233 0.929 . S
H1206 C1234 0.929 . S
H1207 C1235 0.930 . S
H1208 C1236 0.929 . S
H1209 C1238 0.930 . S
H1210 C1215 0.930 . S
H1211 C1219 0.930 . S
O1212 Co1181 2.037 . S
O1212 C1232 1.234 . S
C1213 O1187 1.269 . S
C1213 O1188 1.257 . S
C1214 H1189 0.930 . S
C1214 C1217 1.388 . S
C1214 C1219 1.418 . S
C1215 H1210 0.930 . S
C1215 C1218 1.404 . S
C1215 C1219 1.353 . S
N1216 Co1181 2.145 1_556 S
N1216 C1217 1.397 . S
N1216 C1218 1.334 . S
C1217 H1198 0.929 . S
C1217 C1214 1.388 . S
C1217 N1216 1.397 . S
C1218 H1199 0.929 . S
C1218 C1215 1.404 . S
C1218 N1216 1.334 . S
C1219 H1211 0.930 . S
C1219 C1214 1.418 . S
C1219 C1215 1.353 . S
C1220 H1190 0.930 . S
C1220 N1221 1.330 . S
C1220 C1222 1.446 . S
N1221 Co1180 2.151 . S
N1221 C1220 1.330 . S
N1221 C1225 1.418 . S
C1222 H1201 0.929 . S
C1222 C1220 1.446 . S
C1222 C1223 1.332 . S
C1223 H1203 0.931 . S
C1223 C1222 1.332 . S
C1223 C1224 1.267 . S
C1224 H1192 0.929 . S
C1224 C1223 1.267 . S
C1224 C1225 1.251 . S
C1225 H1195 0.929 . S
C1225 N1221 1.418 . S
C1225 C1224 1.251 . S
C1226 H1193 0.930 . S
C1226 C1228 1.406 . S
C1226 C1231 1.261 . S
C1227 H1194 0.930 . S
C1227 N1229 1.325 . S
C1227 C1230 1.357 . S
C1228 H1196 0.928 . S
C1228 C1226 1.406 . S
C1228 N1229 1.261 . S
N1229 Co1180 2.214 . S
N1229 C1227 1.325 . S
N1229 C1228 1.261 . S
C1230 H1200 0.931 . S
C1230 C1227 1.357 . S
C1230 C1231 1.312 . S
C1231 H1202 0.930 . S
C1231 C1226 1.261 . S
C1231 C1230 1.312 . S
C1232 O1204 1.214 . S
C1232 O1212 1.234 . S
C1233 H1205 0.929 . S
C1233 C1236 1.391 . S
C1233 C1238 1.391 . S
C1234 H1206 0.929 . S
C1234 C1235 1.390 . S
C1234 N1237 1.391 . S
C1235 H1207 0.930 . S
C1235 C1234 1.390 . S
C1235 C1236 1.392 . S
C1236 H1208 0.929 . S
C1236 C1233 1.391 . S
C1236 C1235 1.392 . S
N1237 Co1181 2.257 . S
N1237 C1234 1.391 . S
N1237 C1238 1.388 . S
C1238 H1209 0.930 . S
C1238 C1233 1.391 . S
C1238 N1237 1.388 . S
Co1239 O1241 2.143 . S
Co1239 O1247 2.074 . S
Co1239 O1250 2.093 . S
Co1239 O1263 2.097 . S
Co1239 N1280 2.151 . S
Co1239 N1288 2.214 . S
Co1240 O1241 2.160 . S
Co1240 O1246 2.058 . S
Co1240 O1256 2.057 . S
Co1240 O1271 2.037 . S
Co1240 N1275 2.145 . S
Co1240 N1296 2.257 . S
O1241 Co1239 2.143 . S
O1241 Co1240 2.160 . S
C1242 O1243 1.278 . S
C1242 O1250 1.224 . S
O1243 C1242 1.278 . S
C1244 O1245 1.245 . S
C1244 O1256 1.232 . S
O1245 C1244 1.245 . S
O1246 Co1240 2.058 . S
O1246 C1272 1.269 . S
O1247 Co1239 2.074 . S
O1247 C1272 1.257 . S
H1248 C1273 0.930 . S
H1249 C1279 0.930 . S
O1250 Co1239 2.093 . S
O1250 C1242 1.224 . S
H1251 C1283 0.929 . S
H1252 C1285 0.930 . S
H1253 C1286 0.930 . S
H1254 C1284 0.929 . S
H1255 C1287 0.928 . S
O1256 Co1240 2.057 . S
O1256 C1244 1.232 . S
H1257 C1276 0.929 . S
H1258 C1277 0.929 . S
H1259 C1289 0.931 . S
H1260 C1281 0.929 . S
H1261 C1290 0.930 . S
H1262 C1282 0.931 . S
O1263 Co1239 2.097 . S
O1263 C1291 1.214 . S
H1264 C1292 0.929 . S
H1265 C1293 0.929 . S
H1266 C1294 0.930 . S
H1267 C1295 0.929 . S
H1268 C1297 0.930 . S
H1269 C1274 0.930 . S
H1270 C1278 0.930 . S
O1271 Co1240 2.037 . S
O1271 C1291 1.234 . S
C1272 O1246 1.269 . S
C1272 O1247 1.257 . S
C1273 H1248 0.930 . S
C1273 C1276 1.388 . S
C1273 C1278 1.418 . S
C1274 H1269 0.930 . S
C1274 C1277 1.404 . S
C1274 C1278 1.353 . S
N1275 Co1240 2.145 . S
N1275 C1276 1.397 . S
N1275 C1277 1.334 . S
C1276 H1257 0.929 . S
C1276 C1273 1.388 . S
C1276 N1275 1.397 . S
C1277 H1258 0.929 . S
C1277 C1274 1.404 . S
C1277 N1275 1.334 . S
C1278 H1270 0.930 . S
C1278 C1273 1.418 . S
C1278 C1274 1.353 . S
C1279 H1249 0.930 . S
C1279 N1280 1.330 . S
C1279 C1281 1.446 . S
N1280 Co1239 2.151 . S
N1280 C1279 1.330 . S
N1280 C1284 1.418 . S
C1281 H1260 0.929 . S
C1281 C1279 1.446 . S
C1281 C1282 1.332 . S
C1282 H1262 0.931 . S
C1282 C1281 1.332 . S
C1282 C1283 1.267 . S
C1283 H1251 0.929 . S
C1283 C1282 1.267 . S
C1283 C1284 1.251 . S
C1284 H1254 0.929 . S
C1284 N1280 1.418 . S
C1284 C1283 1.251 . S
C1285 H1252 0.930 . S
C1285 C1287 1.406 . S
C1285 C1290 1.261 . S
C1286 H1253 0.930 . S
C1286 N1288 1.325 . S
C1286 C1289 1.357 . S
C1287 H1255 0.928 . S
C1287 C1285 1.406 . S
C1287 N1288 1.261 . S
N1288 Co1239 2.214 . S
N1288 C1286 1.325 . S
N1288 C1287 1.261 . S
C1289 H1259 0.931 . S
C1289 C1286 1.357 . S
C1289 C1290 1.312 . S
C1290 H1261 0.930 . S
C1290 C1285 1.261 . S
C1290 C1289 1.312 . S
C1291 O1263 1.214 . S
C1291 O1271 1.234 . S
C1292 H1264 0.929 . S
C1292 C1295 1.391 . S
C1292 C1297 1.391 . S
C1293 H1265 0.929 . S
C1293 C1294 1.390 . S
C1293 N1296 1.391 . S
C1294 H1266 0.930 . S
C1294 C1293 1.390 . S
C1294 C1295 1.392 . S
C1295 H1267 0.929 . S
C1295 C1292 1.391 . S
C1295 C1294 1.392 . S
N1296 Co1240 2.257 . S
N1296 C1293 1.391 . S
N1296 C1297 1.388 . S
C1297 H1268 0.930 . S
C1297 C1292 1.391 . S
C1297 N1296 1.388 . S
Co1298 O1300 2.143 . S
Co1298 O1306 2.074 . S
Co1298 O1309 2.093 . S
Co1298 O1322 2.097 . S
Co1298 N1339 2.151 . S
Co1298 N1347 2.214 . S
Co1299 O1300 2.160 . S
Co1299 O1305 2.058 . S
Co1299 O1315 2.057 . S
Co1299 O1330 2.037 . S
Co1299 N1334 2.145 1_554 S
Co1299 N1355 2.257 . S
O1300 Co1298 2.143 . S
O1300 Co1299 2.160 . S
C1301 O1302 1.278 . S
C1301 O1309 1.224 . S
O1302 C1301 1.278 . S
C1303 O1304 1.245 . S
C1303 O1315 1.232 . S
O1304 C1303 1.245 . S
O1305 Co1299 2.058 . S
O1305 C1331 1.269 . S
O1306 Co1298 2.074 . S
O1306 C1331 1.257 . S
H1307 C1332 0.930 . S
H1308 C1338 0.930 . S
O1309 Co1298 2.093 . S
O1309 C1301 1.224 . S
H1310 C1342 0.929 . S
H1311 C1344 0.930 . S
H1312 C1345 0.930 . S
H1313 C1343 0.929 . S
H1314 C1346 0.928 . S
O1315 Co1299 2.057 . S
O1315 C1303 1.232 . S
H1316 C1335 0.929 . S
H1317 C1336 0.929 . S
H1318 C1348 0.931 . S
H1319 C1340 0.929 . S
H1320 C1349 0.930 . S
H1321 C1341 0.931 . S
O1322 Co1298 2.097 . S
O1322 C1350 1.214 . S
H1323 C1351 0.929 . S
H1324 C1352 0.929 . S
H1325 C1353 0.930 . S
H1326 C1354 0.929 . S
H1327 C1356 0.930 . S
H1328 C1333 0.930 . S
H1329 C1337 0.930 . S
O1330 Co1299 2.037 . S
O1330 C1350 1.234 . S
C1331 O1305 1.269 . S
C1331 O1306 1.257 . S
C1332 H1307 0.930 . S
C1332 C1335 1.388 . S
C1332 C1337 1.418 . S
C1333 H1328 0.930 . S
C1333 C1336 1.404 . S
C1333 C1337 1.353 . S
N1334 Co1299 2.145 1_556 S
N1334 C1335 1.397 . S
N1334 C1336 1.334 . S
C1335 H1316 0.929 . S
C1335 C1332 1.388 . S
C1335 N1334 1.397 . S
C1336 H1317 0.929 . S
C1336 C1333 1.404 . S
C1336 N1334 1.334 . S
C1337 H1329 0.930 . S
C1337 C1332 1.418 . S
C1337 C1333 1.353 . S
C1338 H1308 0.930 . S
C1338 N1339 1.330 . S
C1338 C1340 1.446 . S
N1339 Co1298 2.151 . S
N1339 C1338 1.330 . S
N1339 C1343 1.418 . S
C1340 H1319 0.929 . S
C1340 C1338 1.446 . S
C1340 C1341 1.332 . S
C1341 H1321 0.931 . S
C1341 C1340 1.332 . S
C1341 C1342 1.267 . S
C1342 H1310 0.929 . S
C1342 C1341 1.267 . S
C1342 C1343 1.251 . S
C1343 H1313 0.929 . S
C1343 N1339 1.418 . S
C1343 C1342 1.251 . S
C1344 H1311 0.930 . S
C1344 C1346 1.406 . S
C1344 C1349 1.261 . S
C1345 H1312 0.930 . S
C1345 N1347 1.325 . S
C1345 C1348 1.357 . S
C1346 H1314 0.928 . S
C1346 C1344 1.406 . S
C1346 N1347 1.261 . S
N1347 Co1298 2.214 . S
N1347 C1345 1.325 . S
N1347 C1346 1.261 . S
C1348 H1318 0.931 . S
C1348 C1345 1.357 . S
C1348 C1349 1.312 . S
C1349 H1320 0.930 . S
C1349 C1344 1.261 . S
C1349 C1348 1.312 . S
C1350 O1322 1.214 . S
C1350 O1330 1.234 . S
C1351 H1323 0.929 . S
C1351 C1354 1.391 . S
C1351 C1356 1.391 . S
C1352 H1324 0.929 . S
C1352 C1353 1.390 . S
C1352 N1355 1.391 . S
C1353 H1325 0.930 . S
C1353 C1352 1.390 . S
C1353 C1354 1.392 . S
C1354 H1326 0.929 . S
C1354 C1351 1.391 . S
C1354 C1353 1.392 . S
N1355 Co1299 2.257 . S
N1355 C1352 1.391 . S
N1355 C1356 1.388 . S
C1356 H1327 0.930 . S
C1356 C1351 1.391 . S
C1356 N1355 1.388 . S
Co1357 O1359 2.143 . S
Co1357 O1365 2.074 . S
Co1357 O1368 2.093 . S
Co1357 O1381 2.097 . S
Co1357 N1398 2.151 . S
Co1357 N1406 2.214 . S
Co1358 O1359 2.160 . S
Co1358 O1364 2.058 . S
Co1358 O1374 2.057 . S
Co1358 O1389 2.037 . S
Co1358 N1393 2.145 . S
Co1358 N1414 2.257 . S
O1359 Co1357 2.143 . S
O1359 Co1358 2.160 . S
C1360 O1361 1.278 . S
C1360 O1368 1.224 . S
O1361 C1360 1.278 . S
C1362 O1363 1.245 . S
C1362 O1374 1.232 . S
O1363 C1362 1.245 . S
O1364 Co1358 2.058 . S
O1364 C1390 1.269 . S
O1365 Co1357 2.074 . S
O1365 C1390 1.257 . S
H1366 C1391 0.930 . S
H1367 C1397 0.930 . S
O1368 Co1357 2.093 . S
O1368 C1360 1.224 . S
H1369 C1401 0.929 . S
H1370 C1403 0.930 . S
H1371 C1404 0.930 . S
H1372 C1402 0.929 . S
H1373 C1405 0.928 . S
O1374 Co1358 2.057 . S
O1374 C1362 1.232 . S
H1375 C1394 0.929 . S
H1376 C1395 0.929 . S
H1377 C1407 0.931 . S
H1378 C1399 0.929 . S
H1379 C1408 0.930 . S
H1380 C1400 0.931 . S
O1381 Co1357 2.097 . S
O1381 C1409 1.214 . S
H1382 C1410 0.929 . S
H1383 C1411 0.929 . S
H1384 C1412 0.930 . S
H1385 C1413 0.929 . S
H1386 C1415 0.930 . S
H1387 C1392 0.930 . S
H1388 C1396 0.930 . S
O1389 Co1358 2.037 . S
O1389 C1409 1.234 . S
C1390 O1364 1.269 . S
C1390 O1365 1.257 . S
C1391 H1366 0.930 . S
C1391 C1394 1.388 . S
C1391 C1396 1.418 . S
C1392 H1387 0.930 . S
C1392 C1395 1.404 . S
C1392 C1396 1.353 . S
N1393 Co1358 2.145 . S
N1393 C1394 1.397 . S
N1393 C1395 1.334 . S
C1394 H1375 0.929 . S
C1394 C1391 1.388 . S
C1394 N1393 1.397 . S
C1395 H1376 0.929 . S
C1395 C1392 1.404 . S
C1395 N1393 1.334 . S
C1396 H1388 0.930 . S
C1396 C1391 1.418 . S
C1396 C1392 1.353 . S
C1397 H1367 0.930 . S
C1397 N1398 1.330 . S
C1397 C1399 1.446 . S
N1398 Co1357 2.151 . S
N1398 C1397 1.330 . S
N1398 C1402 1.418 . S
C1399 H1378 0.929 . S
C1399 C1397 1.446 . S
C1399 C1400 1.332 . S
C1400 H1380 0.931 . S
C1400 C1399 1.332 . S
C1400 C1401 1.267 . S
C1401 H1369 0.929 . S
C1401 C1400 1.267 . S
C1401 C1402 1.251 . S
C1402 H1372 0.929 . S
C1402 N1398 1.418 . S
C1402 C1401 1.251 . S
C1403 H1370 0.930 . S
C1403 C1405 1.406 . S
C1403 C1408 1.261 . S
C1404 H1371 0.930 . S
C1404 N1406 1.325 . S
C1404 C1407 1.357 . S
C1405 H1373 0.928 . S
C1405 C1403 1.406 . S
C1405 N1406 1.261 . S
N1406 Co1357 2.214 . S
N1406 C1404 1.325 . S
N1406 C1405 1.261 . S
C1407 H1377 0.931 . S
C1407 C1404 1.357 . S
C1407 C1408 1.312 . S
C1408 H1379 0.930 . S
C1408 C1403 1.261 . S
C1408 C1407 1.312 . S
C1409 O1381 1.214 . S
C1409 O1389 1.234 . S
C1410 H1382 0.929 . S
C1410 C1413 1.391 . S
C1410 C1415 1.391 . S
C1411 H1383 0.929 . S
C1411 C1412 1.390 . S
C1411 N1414 1.391 . S
C1412 H1384 0.930 . S
C1412 C1411 1.390 . S
C1412 C1413 1.392 . S
C1413 H1385 0.929 . S
C1413 C1410 1.391 . S
C1413 C1412 1.392 . S
N1414 Co1358 2.257 . S
N1414 C1411 1.391 . S
N1414 C1415 1.388 . S
C1415 H1386 0.930 . S
C1415 C1410 1.391 . S
C1415 N1414 1.388 . S
C1416 C1417 1.369 . S
C1416 C1418 1.419 . S
C1416 H1420 0.930 . S
C1417 C1416 1.369 . S
C1417 C1426 1.429 . S
C1418 C1416 1.419 . S
C1418 C1419 1.363 . S
C1418 H1421 0.929 . S
C1419 C1418 1.363 . S
C1419 C1425 1.428 . S
H1420 C1416 0.930 . S
H1421 C1418 0.929 . S
S1422 N1423 1.613 . S
S1422 N1424 1.610 . S
N1423 S1422 1.613 . S
N1423 C1426 1.350 . S
N1424 S1422 1.610 . S
N1424 C1425 1.351 . S
C1425 C1419 1.428 . S
C1425 N1424 1.351 . S
C1425 C1426 1.434 . S
C1426 C1417 1.429 . S
C1426 N1423 1.350 . S
C1426 C1425 1.434 . S
C1427 C1428 1.369 . S
C1427 C1429 1.419 . S
C1427 H1431 0.930 . S
C1428 C1427 1.369 . S
C1428 C1437 1.429 . S
C1429 C1427 1.419 . S
C1429 C1430 1.363 . S
C1429 H1432 0.929 . S
C1430 C1429 1.363 . S
C1430 C1436 1.428 . S
H1431 C1427 0.930 . S
H1432 C1429 0.929 . S
S1433 N1434 1.613 . S
S1433 N1435 1.610 . S
N1434 S1433 1.613 . S
N1434 C1437 1.350 . S
N1435 S1433 1.610 . S
N1435 C1436 1.351 . S
C1436 C1430 1.428 . S
C1436 N1435 1.351 . S
C1436 C1437 1.434 . S
C1437 C1428 1.429 . S
C1437 N1434 1.350 . S
C1437 C1436 1.434 . S
C1438 C1439 1.369 . S
C1438 C1440 1.419 . S
C1438 H1442 0.930 . S
C1439 C1438 1.369 . S
C1439 C1448 1.429 . S
C1440 C1438 1.419 . S
C1440 C1441 1.363 . S
C1440 H1443 0.929 . S
C1441 C1440 1.363 . S
C1441 C1447 1.428 . S
H1442 C1438 0.930 . S
H1443 C1440 0.929 . S
S1444 N1445 1.613 . S
S1444 N1446 1.610 . S
N1445 S1444 1.613 . S
N1445 C1448 1.350 . S
N1446 S1444 1.610 . S
N1446 C1447 1.351 . S
C1447 C1441 1.428 . S
C1447 N1446 1.351 . S
C1447 C1448 1.434 . S
C1448 C1439 1.429 . S
C1448 N1445 1.350 . S
C1448 C1447 1.434 . S
C1449 C1450 1.369 . S
C1449 C1451 1.419 . S
C1449 H1453 0.930 . S
C1450 C1449 1.369 . S
C1450 C1459 1.429 . S
C1451 C1449 1.419 . S
C1451 C1452 1.363 . S
C1451 H1454 0.929 . S
C1452 C1451 1.363 . S
C1452 C1458 1.428 . S
H1453 C1449 0.930 . S
H1454 C1451 0.929 . S
S1455 N1456 1.613 . S
S1455 N1457 1.610 . S
N1456 S1455 1.613 . S
N1456 C1459 1.350 . S
N1457 S1455 1.610 . S
N1457 C1458 1.351 . S
C1458 C1452 1.428 . S
C1458 N1457 1.351 . S
C1458 C1459 1.434 . S
C1459 C1450 1.429 . S
C1459 N1456 1.350 . S
C1459 C1458 1.434 . S
C1460 C1461 1.369 . S
C1460 C1462 1.419 . S
C1460 H1464 0.930 . S
C1461 C1460 1.369 . S
C1461 C1470 1.429 . S
C1462 C1460 1.419 . S
C1462 C1463 1.363 . S
C1462 H1465 0.929 . S
C1463 C1462 1.363 . S
C1463 C1469 1.428 . S
H1464 C1460 0.930 . S
H1465 C1462 0.929 . S
S1466 N1467 1.613 . S
S1466 N1468 1.610 . S
N1467 S1466 1.613 . S
N1467 C1470 1.350 . S
N1468 S1466 1.610 . S
N1468 C1469 1.351 . S
C1469 C1463 1.428 . S
C1469 N1468 1.351 . S
C1469 C1470 1.434 . S
C1470 C1461 1.429 . S
C1470 N1467 1.350 . S
C1470 C1469 1.434 . S
C1471 C1472 1.369 . S
C1471 C1473 1.419 . S
C1471 H1475 0.930 . S
C1472 C1471 1.369 . S
C1472 C1481 1.429 . S
C1473 C1471 1.419 . S
C1473 C1474 1.363 . S
C1473 H1476 0.929 . S
C1474 C1473 1.363 . S
C1474 C1480 1.428 . S
H1475 C1471 0.930 . S
H1476 C1473 0.929 . S
S1477 N1478 1.613 . S
S1477 N1479 1.610 . S
N1478 S1477 1.613 . S
N1478 C1481 1.350 . S
N1479 S1477 1.610 . S
N1479 C1480 1.351 . S
C1480 C1474 1.428 . S
C1480 N1479 1.351 . S
C1480 C1481 1.434 . S
C1481 C1472 1.429 . S
C1481 N1478 1.350 . S
C1481 C1480 1.434 . S
C1482 C1483 1.369 . S
C1482 C1484 1.419 . S
C1482 H1486 0.930 . S
C1483 C1482 1.369 . S
C1483 C1492 1.429 . S
C1484 C1482 1.419 . S
C1484 C1485 1.363 . S
C1484 H1487 0.929 . S
C1485 C1484 1.363 . S
C1485 C1491 1.428 . S
H1486 C1482 0.930 . S
H1487 C1484 0.929 . S
S1488 N1489 1.613 . S
S1488 N1490 1.610 . S
N1489 S1488 1.613 . S
N1489 C1492 1.350 . S
N1490 S1488 1.610 . S
N1490 C1491 1.351 . S
C1491 C1485 1.428 . S
C1491 N1490 1.351 . S
C1491 C1492 1.434 . S
C1492 C1483 1.429 . S
C1492 N1489 1.350 . S
C1492 C1491 1.434 . S
C1493 C1494 1.369 . S
C1493 C1495 1.419 . S
C1493 H1497 0.930 . S
C1494 C1493 1.369 . S
C1494 C1503 1.429 . S
C1495 C1493 1.419 . S
C1495 C1496 1.363 . S
C1495 H1498 0.929 . S
C1496 C1495 1.363 . S
C1496 C1502 1.428 . S
H1497 C1493 0.930 . S
H1498 C1495 0.929 . S
S1499 N1500 1.613 . S
S1499 N1501 1.610 . S
N1500 S1499 1.613 . S
N1500 C1503 1.350 . S
N1501 S1499 1.610 . S
N1501 C1502 1.351 . S
C1502 C1496 1.428 . S
C1502 N1501 1.351 . S
C1502 C1503 1.434 . S
C1503 C1494 1.429 . S
C1503 N1500 1.350 . S
C1503 C1502 1.434 . S
C1504 C1505 1.369 . S
C1504 C1506 1.419 . S
C1504 H1508 0.930 . S
C1505 C1504 1.369 . S
C1505 C1514 1.429 . S
C1506 C1504 1.419 . S
C1506 C1507 1.363 . S
C1506 H1509 0.929 . S
C1507 C1506 1.363 . S
C1507 C1513 1.428 . S
H1508 C1504 0.930 . S
H1509 C1506 0.929 . S
S1510 N1511 1.613 . S
S1510 N1512 1.610 . S
N1511 S1510 1.613 . S
N1511 C1514 1.350 . S
N1512 S1510 1.610 . S
N1512 C1513 1.351 . S
C1513 C1507 1.428 . S
C1513 N1512 1.351 . S
C1513 C1514 1.434 . S
C1514 C1505 1.429 . S
C1514 N1511 1.350 . S
C1514 C1513 1.434 . S
C1515 C1516 1.369 . S
C1515 C1517 1.419 . S
C1515 H1519 0.930 . S
C1516 C1515 1.369 . S
C1516 C1525 1.429 . S
C1517 C1515 1.419 . S
C1517 C1518 1.363 . S
C1517 H1520 0.929 . S
C1518 C1517 1.363 . S
C1518 C1524 1.428 . S
H1519 C1515 0.930 . S
H1520 C1517 0.929 . S
S1521 N1522 1.613 . S
S1521 N1523 1.610 . S
N1522 S1521 1.613 . S
N1522 C1525 1.350 . S
N1523 S1521 1.610 . S
N1523 C1524 1.351 . S
C1524 C1518 1.428 . S
C1524 N1523 1.351 . S
C1524 C1525 1.434 . S
C1525 C1516 1.429 . S
C1525 N1522 1.350 . S
C1525 C1524 1.434 . S
C1526 C1527 1.369 . S
C1526 C1528 1.419 . S
C1526 H1530 0.930 . S
C1527 C1526 1.369 . S
C1527 C1536 1.429 . S
C1528 C1526 1.419 . S
C1528 C1529 1.363 . S
C1528 H1531 0.929 . S
C1529 C1528 1.363 . S
C1529 C1535 1.428 . S
H1530 C1526 0.930 . S
H1531 C1528 0.929 . S
S1532 N1533 1.613 . S
S1532 N1534 1.610 . S
N1533 S1532 1.613 . S
N1533 C1536 1.350 . S
N1534 S1532 1.610 . S
N1534 C1535 1.351 . S
C1535 C1529 1.428 . S
C1535 N1534 1.351 . S
C1535 C1536 1.434 . S
C1536 C1527 1.429 . S
C1536 N1533 1.350 . S
C1536 C1535 1.434 . S
C1537 C1538 1.369 . S
C1537 C1539 1.419 . S
C1537 H1541 0.930 . S
C1538 C1537 1.369 . S
C1538 C1547 1.429 . S
C1539 C1537 1.419 . S
C1539 C1540 1.363 . S
C1539 H1542 0.929 . S
C1540 C1539 1.363 . S
C1540 C1546 1.428 . S
H1541 C1537 0.930 . S
H1542 C1539 0.929 . S
S1543 N1544 1.613 . S
S1543 N1545 1.610 . S
N1544 S1543 1.613 . S
N1544 C1547 1.350 . S
N1545 S1543 1.610 . S
N1545 C1546 1.351 . S
C1546 C1540 1.428 . S
C1546 N1545 1.351 . S
C1546 C1547 1.434 . S
C1547 C1538 1.429 . S
C1547 N1544 1.350 . S
C1547 C1546 1.434 . S
C1548 C1549 1.369 1_554 S
C1548 C1550 1.419 . S
C1548 H1552 0.930 . S
C1549 C1548 1.369 1_556 S
C1549 C1558 1.429 . S
C1550 C1548 1.419 . S
C1550 C1551 1.363 . S
C1550 H1553 0.929 . S
C1551 C1550 1.363 . S
C1551 C1557 1.428 1_554 S
H1552 C1548 0.930 . S
H1553 C1550 0.929 . S
S1554 N1555 1.613 . S
S1554 N1556 1.610 . S
N1555 S1554 1.613 . S
N1555 C1558 1.350 . S
N1556 S1554 1.610 . S
N1556 C1557 1.351 . S
C1557 C1551 1.428 1_556 S
C1557 N1556 1.351 . S
C1557 C1558 1.434 . S
C1558 C1549 1.429 . S
C1558 N1555 1.350 . S
C1558 C1557 1.434 . S
C1559 C1560 1.369 . S
C1559 C1561 1.419 . S
C1559 H1563 0.930 . S
C1560 C1559 1.369 . S
C1560 C1569 1.429 . S
C1561 C1559 1.419 . S
C1561 C1562 1.363 . S
C1561 H1564 0.929 . S
C1562 C1561 1.363 . S
C1562 C1568 1.428 . S
H1563 C1559 0.930 . S
H1564 C1561 0.929 . S
S1565 N1566 1.613 . S
S1565 N1567 1.610 . S
N1566 S1565 1.613 . S
N1566 C1569 1.350 . S
N1567 S1565 1.610 . S
N1567 C1568 1.351 . S
C1568 C1562 1.428 . S
C1568 N1567 1.351 . S
C1568 C1569 1.434 . S
C1569 C1560 1.429 . S
C1569 N1566 1.350 . S
C1569 C1568 1.434 . S
C1570 C1571 1.369 . S
C1570 C1572 1.419 1_554 S
C1570 H1574 0.930 . S
C1571 C1570 1.369 . S
C1571 C1580 1.429 . S
C1572 C1570 1.419 1_556 S
C1572 C1573 1.363 . S
C1572 H1575 0.929 . S
C1573 C1572 1.363 . S
C1573 C1579 1.428 . S
H1574 C1570 0.930 . S
H1575 C1572 0.929 . S
S1576 N1577 1.613 . S
S1576 N1578 1.610 1_554 S
N1577 S1576 1.613 . S
N1577 C1580 1.350 . S
N1578 S1576 1.610 1_556 S
N1578 C1579 1.351 . S
C1579 C1573 1.428 . S
C1579 N1578 1.351 . S
C1579 C1580 1.434 1_556 S
C1580 C1571 1.429 . S
C1580 N1577 1.350 . S
C1580 C1579 1.434 1_554 S
C1581 C1582 1.369 . S
C1581 C1583 1.419 . S
C1581 H1585 0.930 . S
C1582 C1581 1.369 . S
C1582 C1591 1.429 . S
C1583 C1581 1.419 . S
C1583 C1584 1.363 . S
C1583 H1586 0.929 . S
C1584 C1583 1.363 . S
C1584 C1590 1.428 . S
H1585 C1581 0.930 . S
H1586 C1583 0.929 . S
S1587 N1588 1.613 . S
S1587 N1589 1.610 . S
N1588 S1587 1.613 . S
N1588 C1591 1.350 . S
N1589 S1587 1.610 . S
N1589 C1590 1.351 . S
C1590 C1584 1.428 . S
C1590 N1589 1.351 . S
C1590 C1591 1.434 . S
C1591 C1582 1.429 . S
C1591 N1588 1.350 . S
C1591 C1590 1.434 . S
C1592 C1593 1.369 1_554 S
C1592 C1594 1.419 . S
C1592 H1596 0.930 . S
C1593 C1592 1.369 1_556 S
C1593 C1602 1.429 . S
C1594 C1592 1.419 . S
C1594 C1595 1.363 . S
C1594 H1597 0.929 . S
C1595 C1594 1.363 . S
C1595 C1601 1.428 1_554 S
H1596 C1592 0.930 . S
H1597 C1594 0.929 . S
S1598 N1599 1.613 . S
S1598 N1600 1.610 . S
N1599 S1598 1.613 . S
N1599 C1602 1.350 . S
N1600 S1598 1.610 . S
N1600 C1601 1.351 . S
C1601 C1595 1.428 1_556 S
C1601 N1600 1.351 . S
C1601 C1602 1.434 . S
C1602 C1593 1.429 . S
C1602 N1599 1.350 . S
C1602 C1601 1.434 . S
C1603 C1604 1.369 . S
C1603 C1605 1.419 . S
C1603 H1607 0.930 . S
C1604 C1603 1.369 . S
C1604 C1613 1.429 . S
C1605 C1603 1.419 . S
C1605 C1606 1.363 . S
C1605 H1608 0.929 . S
C1606 C1605 1.363 . S
C1606 C1612 1.428 . S
H1607 C1603 0.930 . S
H1608 C1605 0.929 . S
S1609 N1610 1.613 . S
S1609 N1611 1.610 . S
N1610 S1609 1.613 . S
N1610 C1613 1.350 . S
N1611 S1609 1.610 . S
N1611 C1612 1.351 . S
C1612 C1606 1.428 . S
C1612 N1611 1.351 . S
C1612 C1613 1.434 . S
C1613 C1604 1.429 . S
C1613 N1610 1.350 . S
C1613 C1612 1.434 . S
C1614 C1615 1.369 . S
C1614 C1616 1.419 . S
C1614 H1618 0.930 . S
C1615 C1614 1.369 . S
C1615 C1624 1.429 1_554 S
C1616 C1614 1.419 . S
C1616 C1617 1.363 1_554 S
C1616 H1619 0.929 . S
C1617 C1616 1.363 1_556 S
C1617 C1623 1.428 . S
H1618 C1614 0.930 . S
H1619 C1616 0.929 . S
S1620 N1621 1.613 . S
S1620 N1622 1.610 . S
N1621 S1620 1.613 . S
N1621 C1624 1.350 . S
N1622 S1620 1.610 . S
N1622 C1623 1.351 . S
C1623 C1617 1.428 . S
C1623 N1622 1.351 . S
C1623 C1624 1.434 . S
C1624 C1615 1.429 1_556 S
C1624 N1621 1.350 . S
C1624 C1623 1.434 . S
C1625 C1626 1.369 . S
C1625 C1627 1.419 . S
C1625 H1629 0.930 . S
C1626 C1625 1.369 . S
C1626 C1635 1.429 . S
C1627 C1625 1.419 . S
C1627 C1628 1.363 . S
C1627 H1630 0.929 . S
C1628 C1627 1.363 . S
C1628 C1634 1.428 . S
H1629 C1625 0.930 . S
H1630 C1627 0.929 . S
S1631 N1632 1.613 . S
S1631 N1633 1.610 . S
N1632 S1631 1.613 . S
N1632 C1635 1.350 . S
N1633 S1631 1.610 . S
N1633 C1634 1.351 . S
C1634 C1628 1.428 . S
C1634 N1633 1.351 . S
C1634 C1635 1.434 . S
C1635 C1626 1.429 . S
C1635 N1632 1.350 . S
C1635 C1634 1.434 . S
C1636 C1637 1.369 . S
C1636 C1638 1.419 1_556 S
C1636 H1640 0.930 . S
C1637 C1636 1.369 . S
C1637 C1646 1.429 . S
C1638 C1636 1.419 1_554 S
C1638 C1639 1.363 . S
C1638 H1641 0.929 . S
C1639 C1638 1.363 . S
C1639 C1645 1.428 . S
H1640 C1636 0.930 . S
H1641 C1638 0.929 . S
S1642 N1643 1.624 . S
S1642 N1644 1.600 1_556 S
N1643 S1642 1.624 . S
N1643 C1646 1.350 . S
N1644 S1642 1.600 1_554 S
N1644 C1645 1.351 . S
C1645 C1639 1.428 . S
C1645 N1644 1.351 . S
C1645 C1646 1.434 1_554 S
C1646 C1637 1.429 . S
C1646 N1643 1.350 . S
C1646 C1645 1.434 1_556 S
C1647 C1648 1.369 . S
C1647 C1649 1.419 . S
C1647 H1651 0.930 . S
C1648 C1647 1.369 . S
C1648 C1657 1.429 . S
C1649 C1647 1.419 . S
C1649 C1650 1.363 . S
C1649 H1652 0.929 . S
C1650 C1649 1.363 . S
C1650 C1656 1.428 . S
H1651 C1647 0.930 . S
H1652 C1649 0.929 . S
S1653 N1654 1.613 . S
S1653 N1655 1.610 . S
N1654 S1653 1.613 . S
N1654 C1657 1.350 . S
N1655 S1653 1.610 . S
N1655 C1656 1.351 . S
C1656 C1650 1.428 . S
C1656 N1655 1.351 . S
C1656 C1657 1.434 . S
C1657 C1648 1.429 . S
C1657 N1654 1.350 . S
C1657 C1656 1.434 . S
C1658 C1659 1.369 . S
C1658 C1660 1.419 1_556 S
C1658 H1662 0.930 . S
C1659 C1658 1.369 . S
C1659 C1668 1.429 . S
C1660 C1658 1.419 1_554 S
C1660 C1661 1.363 . S
C1660 H1663 0.929 . S
C1661 C1660 1.363 . S
C1661 C1667 1.428 . S
H1662 C1658 0.930 . S
H1663 C1660 0.929 . S
S1664 N1665 1.613 . S
S1664 N1666 1.610 1_556 S
N1665 S1664 1.613 . S
N1665 C1668 1.350 . S
N1666 S1664 1.610 1_554 S
N1666 C1667 1.351 . S
C1667 C1661 1.428 . S
C1667 N1666 1.351 . S
C1667 C1668 1.434 1_554 S
C1668 C1659 1.429 . S
C1668 N1665 1.350 . S
C1668 C1667 1.434 1_556 S
C1669 C1670 1.369 . S
C1669 C1671 1.419 . S
C1669 H1673 0.930 . S
C1670 C1669 1.369 . S
C1670 C1679 1.429 . S
C1671 C1669 1.419 . S
C1671 C1672 1.363 . S
C1671 H1674 0.929 . S
C1672 C1671 1.363 . S
C1672 C1678 1.428 . S
H1673 C1669 0.930 . S
H1674 C1671 0.929 . S
S1675 N1676 1.613 . S
S1675 N1677 1.610 . S
N1676 S1675 1.613 . S
N1676 C1679 1.350 . S
N1677 S1675 1.610 . S
N1677 C1678 1.351 . S
C1678 C1672 1.428 . S
C1678 N1677 1.351 . S
C1678 C1679 1.434 . S
C1679 C1670 1.429 . S
C1679 N1676 1.350 . S
C1679 C1678 1.434 . S
C1680 C1681 1.369 . S
C1680 C1682 1.419 . S
C1680 H1684 0.930 . S
C1681 C1680 1.369 . S
C1681 C1690 1.429 . S
C1682 C1680 1.419 . S
C1682 C1683 1.363 . S
C1682 H1685 0.929 . S
C1683 C1682 1.363 . S
C1683 C1689 1.428 . S
H1684 C1680 0.930 . S
H1685 C1682 0.929 . S
S1686 N1687 1.613 . S
S1686 N1688 1.610 . S
N1687 S1686 1.613 . S
N1687 C1690 1.350 . S
N1688 S1686 1.610 . S
N1688 C1689 1.351 . S
C1689 C1683 1.428 . S
C1689 N1688 1.351 . S
C1689 C1690 1.434 . S
C1690 C1681 1.429 . S
C1690 N1687 1.350 . S
C1690 C1689 1.434 . S
C1691 C1692 1.369 . S
C1691 C1693 1.419 1_455 S
C1691 H1695 0.930 . S
C1692 C1691 1.369 . S
C1692 C1701 1.429 . S
C1693 C1691 1.419 1_655 S
C1693 C1694 1.363 . S
C1693 H1696 0.929 . S
C1694 C1693 1.363 . S
C1694 C1700 1.428 . S
H1695 C1691 0.930 . S
H1696 C1693 0.929 . S
S1697 N1698 1.615 1_655 S
S1697 N1699 1.607 . S
N1698 S1697 1.615 1_455 S
N1698 C1701 1.350 . S
N1699 S1697 1.607 . S
N1699 C1700 1.351 . S
C1700 C1694 1.428 . S
C1700 N1699 1.351 . S
C1700 C1701 1.434 1_655 S
C1701 C1692 1.429 . S
C1701 N1698 1.350 . S
C1701 C1700 1.434 1_455 S
C1702 C1703 1.369 . S
C1702 C1704 1.419 1_565 S
C1702 H1706 0.930 . S
C1703 C1702 1.369 . S
C1703 C1712 1.429 . S
C1704 C1702 1.419 1_545 S
C1704 C1705 1.363 . S
C1704 H1707 0.929 . S
C1705 C1704 1.363 . S
C1705 C1711 1.428 . S
H1706 C1702 0.930 . S
H1707 C1704 0.929 . S
S1708 N1709 1.616 1_545 S
S1708 N1710 1.608 . S
N1709 S1708 1.616 1_565 S
N1709 C1712 1.350 . S
N1710 S1708 1.608 . S
N1710 C1711 1.351 . S
C1711 C1705 1.428 . S
C1711 N1710 1.351 . S
C1711 C1712 1.434 1_545 S
C1712 C1703 1.429 . S
C1712 N1709 1.350 . S
C1712 C1711 1.434 1_565 S
C1713 C1714 1.369 . S
C1713 C1715 1.419 . S
C1713 H1717 0.930 . S
C1714 C1713 1.369 . S
C1714 C1723 1.429 . S
C1715 C1713 1.419 . S
C1715 C1716 1.363 . S
C1715 H1718 0.929 . S
C1716 C1715 1.363 . S
C1716 C1722 1.428 . S
H1717 C1713 0.930 . S
H1718 C1715 0.929 . S
S1719 N1720 1.613 . S
S1719 N1721 1.610 . S
N1720 S1719 1.613 . S
N1720 C1723 1.350 . S
N1721 S1719 1.610 . S
N1721 C1722 1.351 . S
C1722 C1716 1.428 . S
C1722 N1721 1.351 . S
C1722 C1723 1.434 . S
C1723 C1714 1.429 . S
C1723 N1720 1.350 . S
C1723 C1722 1.434 . S
C1724 C1725 1.369 . S
C1724 C1726 1.419 1_655 S
C1724 H1728 0.930 . S
C1725 C1724 1.369 . S
C1725 C1734 1.429 . S
C1726 C1724 1.419 1_455 S
C1726 C1727 1.363 . S
C1726 H1729 0.929 . S
C1727 C1726 1.363 . S
C1727 C1733 1.428 . S
H1728 C1724 0.930 . S
H1729 C1726 0.929 . S
S1730 N1731 1.615 1_455 S
S1730 N1732 1.607 . S
N1731 S1730 1.615 1_655 S
N1731 C1734 1.350 . S
N1732 S1730 1.607 . S
N1732 C1733 1.351 . S
C1733 C1727 1.428 . S
C1733 N1732 1.351 . S
C1733 C1734 1.434 1_455 S
C1734 C1725 1.429 . S
C1734 N1731 1.350 . S
C1734 C1733 1.434 1_655 S
C1735 C1736 1.369 . S
C1735 C1737 1.419 1_545 S
C1735 H1739 0.930 . S
C1736 C1735 1.369 . S
C1736 C1745 1.429 . S
C1737 C1735 1.419 1_565 S
C1737 C1738 1.363 . S
C1737 H1740 0.929 . S
C1738 C1737 1.363 . S
C1738 C1744 1.428 . S
H1739 C1735 0.930 . S
H1740 C1737 0.929 . S
S1741 N1742 1.616 1_565 S
S1741 N1743 1.608 . S
N1742 S1741 1.616 1_545 S
N1742 C1745 1.350 . S
N1743 S1741 1.608 . S
N1743 C1744 1.351 . S
C1744 C1738 1.428 . S
C1744 N1743 1.351 . S
C1744 C1745 1.434 1_565 S
C1745 C1736 1.429 . S
C1745 N1742 1.350 . S
C1745 C1744 1.434 1_545 S
C1746 C1747 1.369 . S
C1746 C1748 1.419 . S
C1746 H1750 0.930 . S
C1747 C1746 1.369 . S
C1747 C1756 1.429 . S
C1748 C1746 1.419 . S
C1748 C1749 1.363 . S
C1748 H1751 0.929 . S
C1749 C1748 1.363 . S
C1749 C1755 1.428 . S
H1750 C1746 0.930 . S
H1751 C1748 0.929 . S
S1752 N1753 1.613 1_554 S
S1752 N1754 1.610 1_554 S
N1753 S1752 1.613 1_556 S
N1753 C1756 1.350 . S
N1754 S1752 1.610 1_556 S
N1754 C1755 1.351 . S
C1755 C1749 1.428 . S
C1755 N1754 1.351 . S
C1755 C1756 1.434 . S
C1756 C1747 1.429 . S
C1756 N1753 1.350 . S
C1756 C1755 1.434 . S
C1757 C1758 1.369 . S
C1757 C1759 1.419 1_655 S
C1757 H1761 0.930 . S
C1758 C1757 1.369 . S
C1758 C1767 1.429 . S
C1759 C1757 1.419 1_455 S
C1759 C1760 1.363 . S
C1759 H1762 0.929 . S
C1760 C1759 1.363 . S
C1760 C1766 1.428 . S
H1761 C1757 0.930 . S
H1762 C1759 0.929 . S
S1763 N1764 1.617 1_455 S
S1763 N1765 1.609 . S
N1764 S1763 1.617 1_655 S
N1764 C1767 1.350 . S
N1765 S1763 1.609 . S
N1765 C1766 1.351 . S
C1766 C1760 1.428 . S
C1766 N1765 1.351 . S
C1766 C1767 1.434 1_455 S
C1767 C1758 1.429 . S
C1767 N1764 1.350 . S
C1767 C1766 1.434 1_655 S
C1768 C1769 1.369 . S
C1768 C1770 1.419 1_545 S
C1768 H1772 0.930 . S
C1769 C1768 1.369 . S
C1769 C1778 1.429 . S
C1770 C1768 1.419 1_565 S
C1770 C1771 1.363 . S
C1770 H1773 0.929 . S
C1771 C1770 1.363 . S
C1771 C1777 1.428 . S
H1772 C1768 0.930 . S
H1773 C1770 0.929 . S
S1774 N1775 1.616 1_565 S
S1774 N1776 1.608 . S
N1775 S1774 1.616 1_545 S
N1775 C1778 1.350 . S
N1776 S1774 1.608 . S
N1776 C1777 1.351 . S
C1777 C1771 1.428 . S
C1777 N1776 1.351 . S
C1777 C1778 1.434 1_565 S
C1778 C1769 1.429 . S
C1778 N1775 1.350 . S
C1778 C1777 1.434 1_545 S
C1779 C1780 1.369 . S
C1779 C1781 1.419 . S
C1779 H1783 0.930 . S
C1780 C1779 1.369 . S
C1780 C1789 1.429 . S
C1781 C1779 1.419 . S
C1781 C1782 1.363 . S
C1781 H1784 0.929 . S
C1782 C1781 1.363 . S
C1782 C1788 1.428 . S
H1783 C1779 0.930 . S
H1784 C1781 0.929 . S
S1785 N1786 1.613 . S
S1785 N1787 1.610 . S
N1786 S1785 1.613 . S
N1786 C1789 1.350 . S
N1787 S1785 1.610 . S
N1787 C1788 1.351 . S
C1788 C1782 1.428 . S
C1788 N1787 1.351 . S
C1788 C1789 1.434 . S
C1789 C1780 1.429 . S
C1789 N1786 1.350 . S
C1789 C1788 1.434 . S
C1790 C1791 1.369 . S
C1790 C1792 1.419 1_455 S
C1790 H1794 0.930 . S
C1791 C1790 1.369 . S
C1791 C1800 1.429 . S
C1792 C1790 1.419 1_655 S
C1792 C1793 1.363 . S
C1792 H1795 0.929 . S
C1793 C1792 1.363 . S
C1793 C1799 1.428 . S
H1794 C1790 0.930 . S
H1795 C1792 0.929 . S
S1796 N1797 1.616 1_654 S
S1796 N1798 1.608 1_554 S
N1797 S1796 1.616 1_456 S
N1797 C1800 1.350 . S
N1798 S1796 1.608 1_556 S
N1798 C1799 1.351 . S
C1799 C1793 1.428 . S
C1799 N1798 1.351 . S
C1799 C1800 1.434 1_655 S
C1800 C1791 1.429 . S
C1800 N1797 1.350 . S
C1800 C1799 1.434 1_455 S
C1801 C1802 1.369 . S
C1801 C1803 1.419 1_565 S
C1801 H1805 0.930 . S
C1802 C1801 1.369 . S
C1802 C1811 1.429 . S
C1803 C1801 1.419 1_545 S
C1803 C1804 1.363 . S
C1803 H1806 0.929 . S
C1804 C1803 1.363 . S
C1804 C1810 1.428 . S
H1805 C1801 0.930 . S
H1806 C1803 0.929 . S
S1807 N1808 1.617 1_545 S
S1807 N1809 1.609 . S
N1808 S1807 1.617 1_565 S
N1808 C1811 1.350 . S
N1809 S1807 1.609 . S
N1809 C1810 1.351 . S
C1810 C1804 1.428 . S
C1810 N1809 1.351 . S
C1810 C1811 1.434 1_545 S
C1811 C1802 1.429 . S
C1811 N1808 1.350 . S
C1811 C1810 1.434 1_565 S
C1812 C1813 1.369 . S
C1812 C1814 1.419 . S
C1812 H1816 0.930 . S
C1813 C1812 1.369 . S
C1813 C1822 1.429 1_556 S
C1814 C1812 1.419 . S
C1814 C1815 1.363 1_556 S
C1814 H1817 0.929 . S
C1815 C1814 1.363 1_554 S
C1815 C1821 1.428 . S
H1816 C1812 0.930 . S
H1817 C1814 0.929 . S
S1818 N1819 1.613 . S
S1818 N1820 1.610 . S
N1819 S1818 1.613 . S
N1819 C1822 1.350 . S
N1820 S1818 1.610 . S
N1820 C1821 1.351 . S
C1821 C1815 1.428 . S
C1821 N1820 1.351 . S
C1821 C1822 1.434 . S
C1822 C1813 1.429 1_554 S
C1822 N1819 1.350 . S
C1822 C1821 1.434 . S
C1823 C1824 1.369 . S
C1823 C1825 1.419 . S
C1823 H1827 0.930 . S
C1824 C1823 1.369 . S
C1824 C1833 1.429 . S
C1825 C1823 1.419 . S
C1825 C1826 1.363 . S
C1825 H1828 0.929 . S
C1826 C1825 1.363 . S
C1826 C1832 1.428 . S
H1827 C1823 0.930 . S
H1828 C1825 0.929 . S
S1829 N1830 1.613 . S
S1829 N1831 1.610 . S
N1830 S1829 1.613 . S
N1830 C1833 1.350 . S
N1831 S1829 1.610 . S
N1831 C1832 1.351 . S
C1832 C1826 1.428 . S
C1832 N1831 1.351 . S
C1832 C1833 1.434 . S
C1833 C1824 1.429 . S
C1833 N1830 1.350 . S
C1833 C1832 1.434 . S
C1834 C1835 1.369 1_554 S
C1834 C1836 1.419 . S
C1834 H1838 0.930 . S
C1835 C1834 1.369 1_556 S
C1835 C1844 1.429 . S
C1836 C1834 1.419 . S
C1836 C1837 1.363 . S
C1836 H1839 0.929 . S
C1837 C1836 1.363 . S
C1837 C1843 1.428 1_554 S
H1838 C1834 0.930 . S
H1839 C1836 0.929 . S
S1840 N1841 1.613 . S
S1840 N1842 1.610 . S
N1841 S1840 1.613 . S
N1841 C1844 1.350 . S
N1842 S1840 1.610 . S
N1842 C1843 1.351 . S
C1843 C1837 1.428 1_556 S
C1843 N1842 1.351 . S
C1843 C1844 1.434 . S
C1844 C1835 1.429 . S
C1844 N1841 1.350 . S
C1844 C1843 1.434 . S
C1845 C1846 1.369 . S
C1845 C1847 1.419 . S
C1845 H1849 0.930 . S
C1846 C1845 1.369 . S
C1846 C1855 1.429 . S
C1847 C1845 1.419 . S
C1847 C1848 1.363 . S
C1847 H1850 0.929 . S
C1848 C1847 1.363 . S
C1848 C1854 1.428 . S
H1849 C1845 0.930 . S
H1850 C1847 0.929 . S
S1851 N1852 1.613 . S
S1851 N1853 1.610 . S
N1852 S1851 1.613 . S
N1852 C1855 1.350 . S
N1853 S1851 1.610 . S
N1853 C1854 1.351 . S
C1854 C1848 1.428 . S
C1854 N1853 1.351 . S
C1854 C1855 1.434 . S
C1855 C1846 1.429 . S
C1855 N1852 1.350 . S
C1855 C1854 1.434 . S
C1856 C1857 1.369 1_554 S
C1856 C1858 1.419 . S
C1856 H1860 0.930 . S
C1857 C1856 1.369 1_556 S
C1857 C1866 1.429 . S
C1858 C1856 1.419 . S
C1858 C1859 1.363 . S
C1858 H1861 0.929 . S
C1859 C1858 1.363 . S
C1859 C1865 1.428 1_554 S
H1860 C1856 0.930 . S
H1861 C1858 0.929 . S
S1862 N1863 1.613 . S
S1862 N1864 1.610 . S
N1863 S1862 1.613 . S
N1863 C1866 1.350 . S
N1864 S1862 1.610 . S
N1864 C1865 1.351 . S
C1865 C1859 1.428 1_556 S
C1865 N1864 1.351 . S
C1865 C1866 1.434 . S
C1866 C1857 1.429 . S
C1866 N1863 1.350 . S
C1866 C1865 1.434 . S
C1867 C1868 1.369 . S
C1867 C1869 1.419 . S
C1867 H1871 0.930 . S
C1868 C1867 1.369 . S
C1868 C1877 1.429 . S
C1869 C1867 1.419 . S
C1869 C1870 1.363 . S
C1869 H1872 0.929 . S
C1870 C1869 1.363 . S
C1870 C1876 1.428 . S
H1871 C1867 0.930 . S
H1872 C1869 0.929 . S
S1873 N1874 1.613 . S
S1873 N1875 1.610 . S
N1874 S1873 1.613 . S
N1874 C1877 1.350 . S
N1875 S1873 1.610 . S
N1875 C1876 1.351 . S
C1876 C1870 1.428 . S
C1876 N1875 1.351 . S
C1876 C1877 1.434 . S
C1877 C1868 1.429 . S
C1877 N1874 1.350 . S
C1877 C1876 1.434 . S
C1878 C1879 1.369 1_556 S
C1878 C1880 1.419 . S
C1878 H1882 0.930 . S
C1879 C1878 1.369 1_554 S
C1879 C1888 1.429 . S
C1880 C1878 1.419 . S
C1880 C1881 1.363 . S
C1880 H1883 0.929 . S
C1881 C1880 1.363 . S
C1881 C1887 1.428 1_556 S
H1882 C1878 0.930 . S
H1883 C1880 0.929 . S
S1884 N1885 1.613 . S
S1884 N1886 1.610 . S
N1885 S1884 1.613 . S
N1885 C1888 1.350 . S
N1886 S1884 1.610 . S
N1886 C1887 1.351 . S
C1887 C1881 1.428 1_554 S
C1887 N1886 1.351 . S
C1887 C1888 1.434 . S
C1888 C1879 1.429 . S
C1888 N1885 1.350 . S
C1888 C1887 1.434 . S
C1889 C1890 1.369 . S
C1889 C1891 1.419 . S
C1889 H1893 0.930 . S
C1890 C1889 1.369 . S
C1890 C1899 1.429 . S
C1891 C1889 1.419 . S
C1891 C1892 1.363 . S
C1891 H1894 0.929 . S
C1892 C1891 1.363 . S
C1892 C1898 1.428 . S
H1893 C1889 0.930 . S
H1894 C1891 0.929 . S
S1895 N1896 1.613 . S
S1895 N1897 1.610 . S
N1896 S1895 1.613 . S
N1896 C1899 1.350 . S
N1897 S1895 1.610 . S
N1897 C1898 1.351 . S
C1898 C1892 1.428 . S
C1898 N1897 1.351 . S
C1898 C1899 1.434 . S
C1899 C1890 1.429 . S
C1899 N1896 1.350 . S
C1899 C1898 1.434 . S
C1900 C1901 1.369 1_556 S
C1900 C1902 1.419 . S
C1900 H1904 0.930 . S
C1901 C1900 1.369 1_554 S
C1901 C1910 1.429 . S
C1902 C1900 1.419 . S
C1902 C1903 1.363 . S
C1902 H1905 0.929 . S
C1903 C1902 1.363 . S
C1903 C1909 1.428 1_556 S
H1904 C1900 0.930 . S
H1905 C1902 0.929 . S
S1906 N1907 1.613 . S
S1906 N1908 1.610 . S
N1907 S1906 1.613 . S
N1907 C1910 1.350 . S
N1908 S1906 1.610 . S
N1908 C1909 1.351 . S
C1909 C1903 1.428 1_554 S
C1909 N1908 1.351 . S
C1909 C1910 1.434 . S
C1910 C1901 1.429 . S
C1910 N1907 1.350 . S
C1910 C1909 1.434 . S
C1911 C1912 1.369 . S
C1911 C1913 1.419 . S
C1911 H1915 0.930 . S
C1912 C1911 1.369 . S
C1912 C1921 1.429 . S
C1913 C1911 1.419 . S
C1913 C1914 1.363 . S
C1913 H1916 0.929 . S
C1914 C1913 1.363 . S
C1914 C1920 1.428 . S
H1915 C1911 0.930 . S
H1916 C1913 0.929 . S
S1917 N1918 1.613 . S
S1917 N1919 1.610 . S
N1918 S1917 1.613 . S
N1918 C1921 1.350 . S
N1919 S1917 1.610 . S
N1919 C1920 1.351 . S
C1920 C1914 1.428 . S
C1920 N1919 1.351 . S
C1920 C1921 1.434 . S
C1921 C1912 1.429 . S
C1921 N1918 1.350 . S
C1921 C1920 1.434 . S
C1922 C1923 1.369 1_554 S
C1922 C1924 1.419 . S
C1922 H1926 0.930 . S
C1923 C1922 1.369 1_556 S
C1923 C1932 1.429 . S
C1924 C1922 1.419 . S
C1924 C1925 1.363 . S
C1924 H1927 0.929 . S
C1925 C1924 1.363 . S
C1925 C1931 1.428 1_554 S
H1926 C1922 0.930 . S
H1927 C1924 0.929 . S
S1928 N1929 1.613 . S
S1928 N1930 1.610 . S
N1929 S1928 1.613 . S
N1929 C1932 1.350 . S
N1930 S1928 1.610 . S
N1930 C1931 1.351 . S
C1931 C1925 1.428 1_556 S
C1931 N1930 1.351 . S
C1931 C1932 1.434 . S
C1932 C1923 1.429 . S
C1932 N1929 1.350 . S
C1932 C1931 1.434 . S
C1933 C1934 1.369 . S
C1933 C1935 1.419 . S
C1933 H1937 0.930 . S
C1934 C1933 1.369 . S
C1934 C1943 1.429 . S
C1935 C1933 1.419 . S
C1935 C1936 1.363 . S
C1935 H1938 0.929 . S
C1936 C1935 1.363 . S
C1936 C1942 1.428 . S
H1937 C1933 0.930 . S
H1938 C1935 0.929 . S
S1939 N1940 1.613 . S
S1939 N1941 1.610 . S
N1940 S1939 1.613 . S
N1940 C1943 1.350 . S
N1941 S1939 1.610 . S
N1941 C1942 1.351 . S
C1942 C1936 1.428 . S
C1942 N1941 1.351 . S
C1942 C1943 1.434 . S
C1943 C1934 1.429 . S
C1943 N1940 1.350 . S
C1943 C1942 1.434 . S
C1417 C3 1.552 . S
C1419 C888 1.552 . S
C1428 C62 1.550 . S
C1430 C947 1.551 . S
C1439 C1006 1.550 . S
C1441 C121 1.550 . S
C1450 C711 1.551 . S
C1452 C180 1.552 . S
C1461 C770 1.550 . S
C1463 C239 1.551 . S
C1472 C829 1.555 . S
C1474 C298 1.554 . S
C1483 C1242 1.550 . S
C1485 C357 1.551 . S
C1494 C416 1.554 . S
C1496 C1301 1.554 . S
C1505 C1360 1.556 . S
C1507 C475 1.555 . S
C1516 C534 1.550 . S
C1518 C1065 1.551 . S
C1527 C1124 1.549 . S
C1529 C593 1.550 . S
C1538 C652 1.550 . S
C1540 C1183 1.550 . S
C1549 C595 1.521 . S
C1551 C5 1.518 . S
C1560 C654 1.517 . S
C1562 C64 1.521 . S
C1571 C123 1.520 . S
C1573 C359 1.518 . S
C1582 C182 1.518 . S
C1584 C418 1.521 . S
C1593 C477 1.522 . S
C1595 C241 1.518 . S
C1604 C300 1.522 . S
C1606 C536 1.518 . S
C1615 C1303 1.517 . S
C1617 C713 1.521 . S
C1626 C772 1.521 . S
C1628 C1362 1.520 . S
C1637 C831 1.521 . S
C1639 C1067 1.520 . S
C1648 C1126 1.517 . S
C1650 C890 1.521 . S
C1659 C949 1.519 . S
C1661 C1185 1.519 . S
C1670 C1008 1.520 . S
C1672 C1244 1.521 . S
C1681 C52 1.505 . S
C1683 C1114 1.505 . S
C1692 C1173 1.505 . S
C1694 C111 1.505 . S
C1703 C170 1.504 . S
C1705 C1232 1.504 . S
C1714 C229 1.503 . S
C1716 C1291 1.504 . S
C1725 C1350 1.504 . S
C1727 C288 1.504 . S
C1736 C347 1.505 . S
C1738 C1409 1.505 . S
C1747 C406 1.505 . S
C1749 C760 1.505 . S
C1758 C465 1.505 . S
C1760 C819 1.505 . S
C1769 C878 1.504 . S
C1771 C524 1.504 . S
C1780 C937 1.505 . S
C1782 C583 1.505 . S
C1791 C642 1.505 . S
C1793 C996 1.505 . S
C1802 C1055 1.505 . S
C1804 C701 1.505 . S
C1813 C387 1.587 . S
C1815 C33 1.585 . S
C1824 C92 1.587 . S
C1826 C446 1.584 . S
C1835 C505 1.586 . S
C1837 C151 1.585 . S
C1846 C564 1.584 . S
C1848 C210 1.586 . S
C1857 C623 1.584 . S
C1859 C269 1.587 . S
C1868 C328 1.588 . S
C1870 C682 1.584 . S
C1879 C1095 1.583 . S
C1881 C741 1.587 . S
C1890 C800 1.583 . S
C1892 C1154 1.587 . S
C1901 C1213 1.583 . S
C1903 C859 1.587 . S
C1912 C1272 1.583 . S
C1914 C918 1.588 . S
C1923 C977 1.585 . S
C1925 C1331 1.586 . S
C1934 C1036 1.584 . S
C1936 C1390 1.587 . S
