# Generated by pormake.
# Topology uko, (4)-cn, num edge types: 1
# Building blocks:
#     Node 0, Type 0, BuildingBlock: QUQFOY_clean_sbu_1, # of connection points: 4
#     Node 1, Type 0, BuildingBlock: QUQFOY_clean_sbu_1, # of connection points: 4
#     Node 2, Type 0, BuildingBlock: QUQFOY_clean_sbu_1, # of connection points: 4
#     Node 3, Type 0, BuildingBlock: QUQFOY_clean_sbu_1, # of connection points: 4
#     Node 4, Type 0, BuildingBlock: QUQFOY_clean_sbu_1, # of connection points: 4
#     Node 5, Type 0, BuildingBlock: QUQFOY_clean_sbu_1, # of connection points: 4
#     Node 6, Type 0, BuildingBlock: QUQFOY_clean_sbu_1, # of connection points: 4
#     Node 7, Type 0, BuildingBlock: QUQFOY_clean_sbu_1, # of connection points: 4
#     Node 8, Type 0, BuildingBlock: QUQFOY_clean_sbu_1, # of connection points: 4
#     Node 9, Type 0, BuildingBlock: QUQFOY_clean_sbu_1, # of connection points: 4
#     Node 10, Type 0, BuildingBlock: QUQFOY_clean_sbu_1, # of connection points: 4
#     Node 11, Type 0, BuildingBlock: QUQFOY_clean_sbu_1, # of connection points: 4
#     Node 12, Type 0, BuildingBlock: QUQFOY_clean_sbu_1, # of connection points: 4
#     Node 13, Type 0, BuildingBlock: QUQFOY_clean_sbu_1, # of connection points: 4
#     Node 14, Type 0, BuildingBlock: QUQFOY_clean_sbu_1, # of connection points: 4
#     Node 15, Type 0, BuildingBlock: QUQFOY_clean_sbu_1, # of connection points: 4
#     Node 16, Type 0, BuildingBlock: QUQFOY_clean_sbu_1, # of connection points: 4
#     Node 17, Type 0, BuildingBlock: QUQFOY_clean_sbu_1, # of connection points: 4
#     Node 18, Type 0, BuildingBlock: QUQFOY_clean_sbu_1, # of connection points: 4
#     Node 19, Type 0, BuildingBlock: QUQFOY_clean_sbu_1, # of connection points: 4
#     Node 20, Type 0, BuildingBlock: QUQFOY_clean_sbu_1, # of connection points: 4
#     Node 21, Type 0, BuildingBlock: QUQFOY_clean_sbu_1, # of connection points: 4
#     Node 22, Type 0, BuildingBlock: QUQFOY_clean_sbu_1, # of connection points: 4
#     Node 23, Type 0, BuildingBlock: QUQFOY_clean_sbu_1, # of connection points: 4
#     Node 24, Type 0, BuildingBlock: QUQFOY_clean_sbu_1, # of connection points: 4
#     Node 25, Type 0, BuildingBlock: QUQFOY_clean_sbu_1, # of connection points: 4
#     Node 26, Type 0, BuildingBlock: QUQFOY_clean_sbu_1, # of connection points: 4
#     Node 27, Type 0, BuildingBlock: QUQFOY_clean_sbu_1, # of connection points: 4
#     Node 28, Type 0, BuildingBlock: QUQFOY_clean_sbu_1, # of connection points: 4
#     Node 29, Type 0, BuildingBlock: QUQFOY_clean_sbu_1, # of connection points: 4
#     Node 30, Type 0, BuildingBlock: QUQFOY_clean_sbu_1, # of connection points: 4
#     Node 31, Type 0, BuildingBlock: QUQFOY_clean_sbu_1, # of connection points: 4
#     Node 32, Type 0, BuildingBlock: QUQFOY_clean_sbu_1, # of connection points: 4
#     Node 33, Type 0, BuildingBlock: QUQFOY_clean_sbu_1, # of connection points: 4
#     Node 34, Type 0, BuildingBlock: QUQFOY_clean_sbu_1, # of connection points: 4
#     Node 35, Type 0, BuildingBlock: QUQFOY_clean_sbu_1, # of connection points: 4
#     Node 36, Type 0, BuildingBlock: QUQFOY_clean_sbu_1, # of connection points: 4
#     Node 37, Type 0, BuildingBlock: QUQFOY_clean_sbu_1, # of connection points: 4
#     Node 38, Type 0, BuildingBlock: QUQFOY_clean_sbu_1, # of connection points: 4
#     Node 39, Type 0, BuildingBlock: QUQFOY_clean_sbu_1, # of connection points: 4
#     Node 40, Type 0, BuildingBlock: QUQFOY_clean_sbu_1, # of connection points: 4
#     Node 41, Type 0, BuildingBlock: QUQFOY_clean_sbu_1, # of connection points: 4
#     Node 42, Type 0, BuildingBlock: QUQFOY_clean_sbu_1, # of connection points: 4
#     Node 43, Type 0, BuildingBlock: QUQFOY_clean_sbu_1, # of connection points: 4
#     Node 44, Type 0, BuildingBlock: QUQFOY_clean_sbu_1, # of connection points: 4
#     Node 45, Type 0, BuildingBlock: QUQFOY_clean_sbu_1, # of connection points: 4
#     Node 46, Type 0, BuildingBlock: QUQFOY_clean_sbu_1, # of connection points: 4
#     Node 47, Type 0, BuildingBlock: QUQFOY_clean_sbu_1, # of connection points: 4
#     Edge 48, Type (0, 0), BuildingBlock: AJUNOK_clean_linker_0, # of connection points: 2
#     Edge 49, Type (0, 0), BuildingBlock: AJUNOK_clean_linker_0, # of connection points: 2
#     Edge 50, Type (0, 0), BuildingBlock: AJUNOK_clean_linker_0, # of connection points: 2
#     Edge 51, Type (0, 0), BuildingBlock: AJUNOK_clean_linker_0, # of connection points: 2
#     Edge 52, Type (0, 0), BuildingBlock: AJUNOK_clean_linker_0, # of connection points: 2
#     Edge 53, Type (0, 0), BuildingBlock: AJUNOK_clean_linker_0, # of connection points: 2
#     Edge 54, Type (0, 0), BuildingBlock: AJUNOK_clean_linker_0, # of connection points: 2
#     Edge 55, Type (0, 0), BuildingBlock: AJUNOK_clean_linker_0, # of connection points: 2
#     Edge 56, Type (0, 0), BuildingBlock: AJUNOK_clean_linker_0, # of connection points: 2
#     Edge 57, Type (0, 0), BuildingBlock: AJUNOK_clean_linker_0, # of connection points: 2
#     Edge 58, Type (0, 0), BuildingBlock: AJUNOK_clean_linker_0, # of connection points: 2
#     Edge 59, Type (0, 0), BuildingBlock: AJUNOK_clean_linker_0, # of connection points: 2
#     Edge 60, Type (0, 0), BuildingBlock: AJUNOK_clean_linker_0, # of connection points: 2
#     Edge 61, Type (0, 0), BuildingBlock: AJUNOK_clean_linker_0, # of connection points: 2
#     Edge 62, Type (0, 0), BuildingBlock: AJUNOK_clean_linker_0, # of connection points: 2
#     Edge 63, Type (0, 0), BuildingBlock: AJUNOK_clean_linker_0, # of connection points: 2
#     Edge 64, Type (0, 0), BuildingBlock: AJUNOK_clean_linker_0, # of connection points: 2
#     Edge 65, Type (0, 0), BuildingBlock: AJUNOK_clean_linker_0, # of connection points: 2
#     Edge 66, Type (0, 0), BuildingBlock: AJUNOK_clean_linker_0, # of connection points: 2
#     Edge 67, Type (0, 0), BuildingBlock: AJUNOK_clean_linker_0, # of connection points: 2
#     Edge 68, Type (0, 0), BuildingBlock: AJUNOK_clean_linker_0, # of connection points: 2
#     Edge 69, Type (0, 0), BuildingBlock: AJUNOK_clean_linker_0, # of connection points: 2
#     Edge 70, Type (0, 0), BuildingBlock: AJUNOK_clean_linker_0, # of connection points: 2
#     Edge 71, Type (0, 0), BuildingBlock: AJUNOK_clean_linker_0, # of connection points: 2
#     Edge 72, Type (0, 0), BuildingBlock: AJUNOK_clean_linker_0, # of connection points: 2
#     Edge 73, Type (0, 0), BuildingBlock: AJUNOK_clean_linker_0, # of connection points: 2
#     Edge 74, Type (0, 0), BuildingBlock: AJUNOK_clean_linker_0, # of connection points: 2
#     Edge 75, Type (0, 0), BuildingBlock: AJUNOK_clean_linker_0, # of connection points: 2
#     Edge 76, Type (0, 0), BuildingBlock: AJUNOK_clean_linker_0, # of connection points: 2
#     Edge 77, Type (0, 0), BuildingBlock: AJUNOK_clean_linker_0, # of connection points: 2
#     Edge 78, Type (0, 0), BuildingBlock: AJUNOK_clean_linker_0, # of connection points: 2
#     Edge 79, Type (0, 0), BuildingBlock: AJUNOK_clean_linker_0, # of connection points: 2
#     Edge 80, Type (0, 0), BuildingBlock: AJUNOK_clean_linker_0, # of connection points: 2
#     Edge 81, Type (0, 0), BuildingBlock: AJUNOK_clean_linker_0, # of connection points: 2
#     Edge 82, Type (0, 0), BuildingBlock: AJUNOK_clean_linker_0, # of connection points: 2
#     Edge 83, Type (0, 0), BuildingBlock: AJUNOK_clean_linker_0, # of connection points: 2
#     Edge 84, Type (0, 0), BuildingBlock: AJUNOK_clean_linker_0, # of connection points: 2
#     Edge 85, Type (0, 0), BuildingBlock: AJUNOK_clean_linker_0, # of connection points: 2
#     Edge 86, Type (0, 0), BuildingBlock: AJUNOK_clean_linker_0, # of connection points: 2
#     Edge 87, Type (0, 0), BuildingBlock: AJUNOK_clean_linker_0, # of connection points: 2
#     Edge 88, Type (0, 0), BuildingBlock: AJUNOK_clean_linker_0, # of connection points: 2
#     Edge 89, Type (0, 0), BuildingBlock: AJUNOK_clean_linker_0, # of connection points: 2
#     Edge 90, Type (0, 0), BuildingBlock: AJUNOK_clean_linker_0, # of connection points: 2
#     Edge 91, Type (0, 0), BuildingBlock: AJUNOK_clean_linker_0, # of connection points: 2
#     Edge 92, Type (0, 0), BuildingBlock: AJUNOK_clean_linker_0, # of connection points: 2
#     Edge 93, Type (0, 0), BuildingBlock: AJUNOK_clean_linker_0, # of connection points: 2
#     Edge 94, Type (0, 0), BuildingBlock: AJUNOK_clean_linker_0, # of connection points: 2
#     Edge 95, Type (0, 0), BuildingBlock: AJUNOK_clean_linker_0, # of connection points: 2
#     Edge 96, Type (0, 0), BuildingBlock: AJUNOK_clean_linker_0, # of connection points: 2
#     Edge 97, Type (0, 0), BuildingBlock: AJUNOK_clean_linker_0, # of connection points: 2
#     Edge 98, Type (0, 0), BuildingBlock: AJUNOK_clean_linker_0, # of connection points: 2
#     Edge 99, Type (0, 0), BuildingBlock: AJUNOK_clean_linker_0, # of connection points: 2
#     Edge 100, Type (0, 0), BuildingBlock: AJUNOK_clean_linker_0, # of connection points: 2
#     Edge 101, Type (0, 0), BuildingBlock: AJUNOK_clean_linker_0, # of connection points: 2
#     Edge 102, Type (0, 0), BuildingBlock: AJUNOK_clean_linker_0, # of connection points: 2
#     Edge 103, Type (0, 0), BuildingBlock: AJUNOK_clean_linker_0, # of connection points: 2
#     Edge 104, Type (0, 0), BuildingBlock: AJUNOK_clean_linker_0, # of connection points: 2
#     Edge 105, Type (0, 0), BuildingBlock: AJUNOK_clean_linker_0, # of connection points: 2
#     Edge 106, Type (0, 0), BuildingBlock: AJUNOK_clean_linker_0, # of connection points: 2
#     Edge 107, Type (0, 0), BuildingBlock: AJUNOK_clean_linker_0, # of connection points: 2
#     Edge 108, Type (0, 0), BuildingBlock: AJUNOK_clean_linker_0, # of connection points: 2
#     Edge 109, Type (0, 0), BuildingBlock: AJUNOK_clean_linker_0, # of connection points: 2
#     Edge 110, Type (0, 0), BuildingBlock: AJUNOK_clean_linker_0, # of connection points: 2
#     Edge 111, Type (0, 0), BuildingBlock: AJUNOK_clean_linker_0, # of connection points: 2
#     Edge 112, Type (0, 0), BuildingBlock: AJUNOK_clean_linker_0, # of connection points: 2
#     Edge 113, Type (0, 0), BuildingBlock: AJUNOK_clean_linker_0, # of connection points: 2
#     Edge 114, Type (0, 0), BuildingBlock: AJUNOK_clean_linker_0, # of connection points: 2
#     Edge 115, Type (0, 0), BuildingBlock: AJUNOK_clean_linker_0, # of connection points: 2
#     Edge 116, Type (0, 0), BuildingBlock: AJUNOK_clean_linker_0, # of connection points: 2
#     Edge 117, Type (0, 0), BuildingBlock: AJUNOK_clean_linker_0, # of connection points: 2
#     Edge 118, Type (0, 0), BuildingBlock: AJUNOK_clean_linker_0, # of connection points: 2
#     Edge 119, Type (0, 0), BuildingBlock: AJUNOK_clean_linker_0, # of connection points: 2
#     Edge 120, Type (0, 0), BuildingBlock: AJUNOK_clean_linker_0, # of connection points: 2
#     Edge 121, Type (0, 0), BuildingBlock: AJUNOK_clean_linker_0, # of connection points: 2
#     Edge 122, Type (0, 0), BuildingBlock: AJUNOK_clean_linker_0, # of connection points: 2
#     Edge 123, Type (0, 0), BuildingBlock: AJUNOK_clean_linker_0, # of connection points: 2
#     Edge 124, Type (0, 0), BuildingBlock: AJUNOK_clean_linker_0, # of connection points: 2
#     Edge 125, Type (0, 0), BuildingBlock: AJUNOK_clean_linker_0, # of connection points: 2
#     Edge 126, Type (0, 0), BuildingBlock: AJUNOK_clean_linker_0, # of connection points: 2
#     Edge 127, Type (0, 0), BuildingBlock: AJUNOK_clean_linker_0, # of connection points: 2
#     Edge 128, Type (0, 0), BuildingBlock: AJUNOK_clean_linker_0, # of connection points: 2
#     Edge 129, Type (0, 0), BuildingBlock: AJUNOK_clean_linker_0, # of connection points: 2
#     Edge 130, Type (0, 0), BuildingBlock: AJUNOK_clean_linker_0, # of connection points: 2
#     Edge 131, Type (0, 0), BuildingBlock: AJUNOK_clean_linker_0, # of connection points: 2
#     Edge 132, Type (0, 0), BuildingBlock: AJUNOK_clean_linker_0, # of connection points: 2
#     Edge 133, Type (0, 0), BuildingBlock: AJUNOK_clean_linker_0, # of connection points: 2
#     Edge 134, Type (0, 0), BuildingBlock: AJUNOK_clean_linker_0, # of connection points: 2
#     Edge 135, Type (0, 0), BuildingBlock: AJUNOK_clean_linker_0, # of connection points: 2
#     Edge 136, Type (0, 0), BuildingBlock: AJUNOK_clean_linker_0, # of connection points: 2
#     Edge 137, Type (0, 0), BuildingBlock: AJUNOK_clean_linker_0, # of connection points: 2
#     Edge 138, Type (0, 0), BuildingBlock: AJUNOK_clean_linker_0, # of connection points: 2
#     Edge 139, Type (0, 0), BuildingBlock: AJUNOK_clean_linker_0, # of connection points: 2
#     Edge 140, Type (0, 0), BuildingBlock: AJUNOK_clean_linker_0, # of connection points: 2
#     Edge 141, Type (0, 0), BuildingBlock: AJUNOK_clean_linker_0, # of connection points: 2
#     Edge 142, Type (0, 0), BuildingBlock: AJUNOK_clean_linker_0, # of connection points: 2
#     Edge 143, Type (0, 0), BuildingBlock: AJUNOK_clean_linker_0, # of connection points: 2
# Relax obj value: 0.225
# Max RMSD: 0.106
# Mean RMSD: 0.106
data_MOF--net-uko--node1-QUQFOY_clean_sbu_1--edge1-AJUNOK_clean_linker_0
_symmetry_space_group_name_H-M    P1
_symmetry_Int_Tables_number       1
_symmetry_cell_setting            triclinic
loop_
_symmetry_equiv_pos_as_xyz
'x, y, z'
_cell_length_a     42.30479
_cell_length_b     42.297537
_cell_length_c     42.302549
_cell_angle_alpha  90.020857
_cell_angle_beta   89.997434
_cell_angle_gamma 90.016412
loop_
_atom_site_label
_atom_site_type_symbol
_atom_site_fract_x
_atom_site_fract_y
_atom_site_fract_z
_atom_type_partial_charge
O0 O 0.01737 0.35739 0.3154 0.0
Cd1 Cd 0.00694 0.36832 0.26844 0.0
Cd2 Cd 0.05504 0.40617 0.27937 0.0
O3 O 0.06649 0.37423 0.31338 0.0
O4 O 0.9799 0.33231 0.25369 0.0
O5 O 0.02979 0.33829 0.23934 0.0
C6 C 0.00462 0.32092 0.23985 0.0
C7 C 0.09052 0.42023 0.24018 0.0
C8 C 0.0452 0.35806 0.32688 0.0
C9 C 0.99606 0.438 0.26916 0.0
O10 O 0.01958 0.43783 0.28767 0.0
O11 O 0.98908 0.41284 0.25403 0.0
O12 O 0.09263 0.43184 0.26833 0.0
O13 O 0.0686 0.39966 0.2346 0.0
O14 O 0.99335 0.14732 0.31304 0.0
Cd15 Cd 0.00642 0.13716 0.26661 0.0
Cd16 Cd 0.95644 0.10185 0.27263 0.0
O17 O 0.94369 0.13346 0.30652 0.0
O18 O 0.03353 0.17374 0.25357 0.0
O19 O 0.98455 0.16693 0.23668 0.0
C20 C 0.00921 0.18489 0.23881 0.0
C21 C 0.92202 0.08743 0.2326 0.0
C22 C 0.96471 0.14782 0.32232 0.0
C23 C 0.01541 0.06786 0.26778 0.0
O24 O 0.99003 0.06896 0.28355 0.0
O25 O 0.02483 0.09258 0.2533 0.0
O26 O 0.91914 0.07619 0.2608 0.0
O27 O 0.94403 0.10795 0.22728 0.0
O28 O 0.01711 0.64262 0.18242 0.0
Cd29 Cd 0.00509 0.63499 0.22966 0.0
Cd30 Cd 0.05461 0.59851 0.22408 0.0
O31 O 0.06687 0.62987 0.18972 0.0
O32 O 0.9788 0.6724 0.24247 0.0
O33 O 0.02819 0.66555 0.25802 0.0
C34 C 0.00355 0.68359 0.25647 0.0
C35 C 0.08965 0.58466 0.26379 0.0
C36 C 0.04577 0.6433 0.17324 0.0
C37 C 0.99572 0.56558 0.23213 0.0
O38 O 0.02026 0.56574 0.215 0.0
O39 O 0.98707 0.59114 0.24559 0.0
O40 O 0.09227 0.57321 0.23564 0.0
O41 O 0.06753 0.60507 0.26911 0.0
O42 O 0.99224 0.86166 0.19108 0.0
Cd43 Cd 0.00331 0.86954 0.23815 0.0
Cd44 Cd 0.95275 0.90615 0.23073 0.0
O45 O 0.94201 0.87341 0.19698 0.0
O46 O 0.03128 0.83301 0.24949 0.0
O47 O 0.98175 0.83717 0.26569 0.0
C48 C 0.00707 0.8202 0.263 0.0
C49 C 0.91511 0.92242 0.26736 0.0
C50 C 0.96379 0.85978 0.18156 0.0
C51 C 0.01269 0.93873 0.23904 0.0
O52 O 0.98791 0.93836 0.22221 0.0
O53 O 0.02131 0.91357 0.25325 0.0
O54 O 0.91446 0.93211 0.23847 0.0
O55 O 0.93675 0.9023 0.27519 0.0
O56 O 0.31579 0.00868 0.36554 0.0
Cd57 Cd 0.26826 0.99819 0.3726 0.0
Cd58 Cd 0.27761 0.04557 0.41068 0.0
O59 O 0.31198 0.05848 0.3797 0.0
O60 O 0.25608 0.97181 0.33511 0.0
O61 O 0.24177 0.02173 0.34091 0.0
C62 C 0.24356 0.99694 0.32307 0.0
C63 C 0.23612 0.0783 0.42345 0.0
C64 C 0.32647 0.03683 0.36492 0.0
C65 C 0.26596 0.98713 0.44149 0.0
O66 O 0.28607 0.00926 0.4413 0.0
O67 O 0.25071 0.98112 0.41618 0.0
O68 O 0.26326 0.0814 0.43706 0.0
O69 O 0.23276 0.05719 0.40161 0.0
O70 O 0.69214 0.49166 0.36663 0.0
Cd71 Cd 0.7391 0.50372 0.37418 0.0
Cd72 Cd 0.73284 0.45378 0.40938 0.0
O73 O 0.69929 0.44138 0.37715 0.0
O74 O 0.75011 0.53174 0.33759 0.0
O75 O 0.76705 0.48247 0.34199 0.0
C76 C 0.76412 0.50771 0.32495 0.0
C77 C 0.77169 0.41876 0.4254 0.0
C78 C 0.68309 0.46305 0.36432 0.0
C79 C 0.73896 0.51305 0.44289 0.0
O80 O 0.72237 0.48815 0.44178 0.0
O81 O 0.75392 0.52183 0.41824 0.0
O82 O 0.74302 0.41637 0.43542 0.0
O83 O 0.77809 0.44041 0.40479 0.0
O84 O 0.32115 0.98377 0.14531 0.0
Cd85 Cd 0.27433 0.99717 0.13781 0.0
Cd86 Cd 0.27938 0.94835 0.1002 0.0
O87 O 0.31377 0.93449 0.13082 0.0
O88 O 0.26324 0.02463 0.17483 0.0
O89 O 0.24517 0.97593 0.16903 0.0
C90 C 0.24802 1.00088 0.18651 0.0
C91 C 0.23894 0.91457 0.08507 0.0
C92 C 0.33034 0.9551 0.1449 0.0
C93 C 0.27341 0.00868 0.06895 0.0
O94 O 0.28947 0.98343 0.06857 0.0
O95 O 0.25953 0.0169 0.09442 0.0
O96 O 0.26708 0.91176 0.07364 0.0
O97 O 0.23405 0.93609 0.10622 0.0
O98 O 0.68484 0.51809 0.14748 0.0
Cd99 Cd 0.73196 0.50573 0.13985 0.0
Cd100 Cd 0.72572 0.55425 0.10216 0.0
O101 O 0.69099 0.56742 0.13259 0.0
O102 O 0.74425 0.47953 0.17745 0.0
O103 O 0.76078 0.52856 0.1702 0.0
C104 C 0.75872 0.5041 0.18844 0.0
C105 C 0.76537 0.58901 0.08737 0.0
C106 C 0.67495 0.54653 0.14684 0.0
C107 C 0.73303 0.494 0.07098 0.0
O108 O 0.71648 0.51893 0.07056 0.0
O109 O 0.74706 0.4861 0.09646 0.0
O110 O 0.73728 0.59109 0.07566 0.0
O111 O 0.77066 0.56758 0.1085 0.0
O112 O 0.36257 0.31055 0.01544 0.0
Cd113 Cd 0.37056 0.26337 0.00461 0.0
Cd114 Cd 0.40697 0.27094 0.05407 0.0
O115 O 0.37504 0.30522 0.06555 0.0
O116 O 0.33319 0.25098 0.97832 0.0
O117 O 0.33969 0.23571 0.02789 0.0
C118 C 0.32159 0.23778 0.00332 0.0
C119 C 0.42258 0.23283 0.09022 0.0
C120 C 0.36116 0.32047 0.04381 0.0
C121 C 0.43931 0.26262 0.99417 0.0
O122 O 0.43902 0.27961 0.01883 0.0
O123 O 0.41417 0.2482 0.98588 0.0
O124 O 0.43339 0.26132 0.09154 0.0
O125 O 0.40157 0.22626 0.06901 0.0
O126 O 0.36046 0.68983 0.49371 0.0
Cd127 Cd 0.36928 0.73714 0.50361 0.0
Cd128 Cd 0.40702 0.72692 0.45532 0.0
O129 O 0.37474 0.69311 0.4439 0.0
O130 O 0.33273 0.75046 0.53062 0.0
O131 O 0.33799 0.76468 0.48059 0.0
C132 C 0.32068 0.76351 0.50578 0.0
C133 C 0.422 0.76566 0.4197 0.0
C134 C 0.3597 0.67902 0.46563 0.0
C135 C 0.43849 0.73784 0.51434 0.0
O136 O 0.43824 0.71875 0.49127 0.0
O137 O 0.41329 0.75292 0.52116 0.0
O138 O 0.43321 0.73733 0.41792 0.0
O139 O 0.40123 0.77167 0.44131 0.0
O140 O 0.6425 0.82054 0.48706 0.0
Cd141 Cd 0.63485 0.77362 0.50006 0.0
Cd142 Cd 0.59745 0.77893 0.45122 0.0
O143 O 0.62825 0.81332 0.43769 0.0
O144 O 0.67242 0.7617 0.52642 0.0
O145 O 0.66516 0.74451 0.47762 0.0
C146 C 0.68341 0.74693 0.50204 0.0
C147 C 0.58239 0.73883 0.41701 0.0
C148 C 0.64228 0.82981 0.45841 0.0
C149 C 0.56602 0.77278 0.51153 0.0
O150 O 0.56573 0.78885 0.48629 0.0
O151 O 0.59144 0.75886 0.51981 0.0
O152 O 0.571 0.767 0.41443 0.0
O153 O 0.60342 0.7337 0.43858 0.0
O154 O 0.14302 0.6877 0.51659 0.0
Cd155 Cd 0.13569 0.7344 0.50294 0.0
Cd156 Cd 0.10079 0.73169 0.5535 0.0
O157 O 0.13265 0.69786 0.5664 0.0
O158 O 0.17322 0.74606 0.47647 0.0
O159 O 0.16599 0.76356 0.5252 0.0
C160 C 0.18427 0.76088 0.50082 0.0
C161 C 0.08426 0.77033 0.58881 0.0
C162 C 0.1448 0.67999 0.54562 0.0
C163 C 0.06685 0.73565 0.49404 0.0
O164 O 0.06761 0.72072 0.51997 0.0
O165 O 0.09198 0.74887 0.48394 0.0
O166 O 0.07467 0.74151 0.59107 0.0
O167 O 0.10482 0.77704 0.56723 0.0
O168 O 0.98729 0.64357 0.68772 0.0
Cd169 Cd 1.00107 0.63588 0.73429 0.0
Cd170 Cd 0.95069 0.60126 0.73115 0.0
O171 O 0.93744 0.63348 0.69788 0.0
O172 O 0.02763 0.67335 0.74613 0.0
O173 O 0.97895 0.66605 0.76372 0.0
C174 C 0.00333 0.68435 0.76105 0.0
C175 C 0.91629 0.58422 0.77034 0.0
C176 C 0.95827 0.64556 0.68003 0.0
C177 C 0.01005 0.56719 0.7339 0.0
O178 O 0.98405 0.56838 0.71913 0.0
O179 O 0.02011 0.59188 0.74797 0.0
O180 O 0.91326 0.57512 0.74143 0.0
O181 O 0.9381 0.60463 0.77681 0.0
O182 O 0.01266 0.86208 0.69198 0.0
Cd183 Cd 1.00177 0.87 0.73918 0.0
Cd184 Cd 0.0507 0.90779 0.73076 0.0
O185 O 0.06254 0.87551 0.69696 0.0
O186 O 0.97445 0.83317 0.75112 0.0
O187 O 0.02404 0.83821 0.76683 0.0
C188 C 0.9989 0.8209 0.76468 0.0
C189 C 0.0869 0.92426 0.76857 0.0
C190 C 0.041 0.86109 0.68194 0.0
C191 C 0.99073 0.939 0.74007 0.0
O192 O 0.01476 0.93905 0.7222 0.0
O193 O 0.98331 0.91369 0.75468 0.0
O194 O 0.08812 0.93448 0.73987 0.0
O195 O 0.06559 0.90344 0.77549 0.0
O196 O 0.99304 0.35989 0.81217 0.0
Cd197 Cd 1.00249 0.36915 0.76492 0.0
Cd198 Cd 0.95517 0.40715 0.77658 0.0
O199 O 0.94332 0.37499 0.81034 0.0
O200 O 0.02912 0.33247 0.75129 0.0
O201 O 0.97887 0.33793 0.7379 0.0
C202 C 0.00392 0.32041 0.73892 0.0
C203 C 0.92145 0.42066 0.73607 0.0
C204 C 0.96514 0.35921 0.82343 0.0
C205 C 0.01378 0.43826 0.76481 0.0
O206 O 0.99157 0.43777 0.78484 0.0
O207 O 0.01971 0.41329 0.74896 0.0
O208 O 0.9188 0.43354 0.76362 0.0
O209 O 0.94267 0.39912 0.73173 0.0
O210 O 0.01337 0.14454 0.81973 0.0
Cd211 Cd 0.99922 0.13616 0.7732 0.0
Cd212 Cd 0.04862 0.10045 0.77676 0.0
O213 O 0.06263 0.13031 0.81165 0.0
O214 O 0.97303 0.17374 0.76098 0.0
O215 O 0.02154 0.16571 0.74333 0.0
C216 C 0.99735 0.18424 0.74574 0.0
C217 C 0.08211 0.08757 0.73558 0.0
C218 C 0.04218 0.14425 0.82851 0.0
C219 C 0.98921 0.06707 0.77226 0.0
O220 O 0.01511 0.06734 0.78719 0.0
O221 O 0.97962 0.09238 0.759 0.0
O222 O 0.08531 0.07496 0.76314 0.0
O223 O 0.06026 0.10851 0.73151 0.0
O224 O 0.69082 0.98871 0.64801 0.0
Cd225 Cd 0.73748 1.00081 0.63807 0.0
Cd226 Cd 0.72979 0.95161 0.60097 0.0
O227 O 0.69602 0.93922 0.63302 0.0
O228 O 0.75092 0.0273 0.67501 0.0
O229 O 0.76694 0.97809 0.66775 0.0
C230 C 0.76522 1.00262 0.68596 0.0
C231 C 0.76836 0.91632 0.58444 0.0
C232 C 0.6809 0.96028 0.64804 0.0
C233 C 0.73667 0.01141 0.56874 0.0
O234 O 0.71993 0.98659 0.56912 0.0
O235 O 0.75112 0.0198 0.59386 0.0
O236 O 0.73968 0.91441 0.57428 0.0
O237 O 0.77487 0.93759 0.60542 0.0
O238 O 0.31028 0.51299 0.64557 0.0
Cd239 Cd 0.2634 0.50226 0.63581 0.0
Cd240 Cd 0.27385 0.55036 0.59835 0.0
O241 O 0.30734 0.56271 0.63057 0.0
O242 O 0.25005 0.47597 0.67292 0.0
O243 O 0.23548 0.52573 0.66629 0.0
C244 C 0.23717 0.50117 0.68445 0.0
C245 C 0.23311 0.58381 0.58481 0.0
C246 C 0.3209 0.54114 0.64629 0.0
C247 C 0.26464 0.49101 0.56676 0.0
O248 O 0.28316 0.51451 0.56742 0.0
O249 O 0.24874 0.48416 0.59147 0.0
O250 O 0.2607 0.5868 0.57213 0.0
O251 O 0.2288 0.56233 0.60609 0.0
O252 O 0.69149 0.01213 0.86061 0.0
Cd253 Cd 0.73838 1.00061 0.87026 0.0
Cd254 Cd 0.73018 0.05001 0.90754 0.0
O255 O 0.696 0.06164 0.87578 0.0
O256 O 0.75157 0.97326 0.83387 0.0
O257 O 0.76736 0.02277 0.83959 0.0
C258 C 0.76577 0.99765 0.82219 0.0
C259 C 0.76809 0.08643 0.9233 0.0
C260 C 0.68111 0.04039 0.8608 0.0
C261 C 0.73848 0.99049 0.9398 0.0
O262 O 0.72127 0.01498 0.93959 0.0
O263 O 0.75278 0.98231 0.91453 0.0
O264 O 0.73946 0.08776 0.93369 0.0
O265 O 0.77491 0.06491 0.90269 0.0
O266 O 0.3153 0.48918 0.86101 0.0
Cd267 Cd 0.26846 0.5022 0.86957 0.0
Cd268 Cd 0.27565 0.45408 0.90755 0.0
O269 O 0.30989 0.44006 0.87698 0.0
O270 O 0.25677 0.5299 0.83291 0.0
O271 O 0.23936 0.48094 0.8383 0.0
C272 C 0.24188 0.50604 0.82101 0.0
C273 C 0.23447 0.42132 0.92167 0.0
C274 C 0.32528 0.46076 0.86176 0.0
C275 C 0.26787 0.51337 0.93885 0.0
O276 O 0.28579 0.48945 0.93872 0.0
O277 O 0.25318 0.52075 0.91357 0.0
O278 O 0.26197 0.4184 0.9345 0.0
O279 O 0.23049 0.44227 0.89979 0.0
O280 O 0.64691 0.69056 0.99226 0.0
Cd281 Cd 0.63708 0.7377 1.00253 0.0
Cd282 Cd 0.59969 0.72771 0.95385 0.0
O283 O 0.63204 0.69392 0.9426 0.0
O284 O 0.67337 0.75178 0.02956 0.0
O285 O 0.66782 0.76601 0.97959 0.0
C286 C 0.68516 0.76518 0.00477 0.0
C287 C 0.58313 0.76546 0.91777 0.0
C288 C 0.64706 0.67963 0.96421 0.0
C289 C 0.56746 0.73752 0.01265 0.0
O290 O 0.56802 0.7189 0.98922 0.0
O291 O 0.59257 0.75256 0.02002 0.0
O292 O 0.57326 0.73665 0.91629 0.0
O293 O 0.60392 0.77251 0.93905 0.0
O294 O 0.64475 0.31709 0.51832 0.0
Cd295 Cd 0.63736 0.27064 0.50314 0.0
Cd296 Cd 0.60091 0.27342 0.5524 0.0
O297 O 0.63092 0.30785 0.56749 0.0
O298 O 0.67436 0.26036 0.47532 0.0
O299 O 0.66858 0.24089 0.52346 0.0
C300 C 0.68604 0.24443 0.4986 0.0
C301 C 0.58716 0.23144 0.5844 0.0
C302 C 0.64459 0.32527 0.54732 0.0
C303 C 0.56843 0.26951 0.49262 0.0
O304 O 0.56853 0.28465 0.51841 0.0
O305 O 0.59377 0.25605 0.48342 0.0
O306 O 0.57445 0.25888 0.58811 0.0
O307 O 0.60879 0.22793 0.56312 0.0
O308 O 0.3628 0.19023 0.51277 0.0
Cd309 Cd 0.37093 0.23722 0.50128 0.0
Cd310 Cd 0.40709 0.23043 0.55102 0.0
O311 O 0.37444 0.197 0.5629 0.0
O312 O 0.33363 0.24937 0.47476 0.0
O313 O 0.33992 0.26493 0.52428 0.0
C314 C 0.32188 0.2626 0.49968 0.0
C315 C 0.42327 0.26873 0.58673 0.0
C316 C 0.36076 0.18124 0.5414 0.0
C317 C 0.43996 0.23809 0.49177 0.0
O318 O 0.43927 0.22078 0.51618 0.0
O319 O 0.41489 0.25255 0.48332 0.0
O320 O 0.43321 0.23999 0.58862 0.0
O321 O 0.40269 0.2755 0.56517 0.0
O322 O 0.86367 0.31344 0.49321 0.0
Cd323 Cd 0.87155 0.26583 0.5022 0.0
Cd324 Cd 0.90853 0.27573 0.45371 0.0
O325 O 0.87664 0.31014 0.44307 0.0
O326 O 0.83421 0.25245 0.52811 0.0
O327 O 0.84049 0.23915 0.47795 0.0
C328 C 0.8225 0.24022 0.50267 0.0
C329 C 0.92285 0.23748 0.41728 0.0
C330 C 0.86253 0.3245 0.46526 0.0
C331 C 0.94036 0.26475 0.51295 0.0
O332 O 0.94017 0.2833 0.48946 0.0
O333 O 0.91524 0.24961 0.51996 0.0
O334 O 0.93436 0.26572 0.41593 0.0
O335 O 0.9022 0.2313 0.43895 0.0
O336 O 0.51205 0.85913 0.81561 0.0
Cd337 Cd 0.50173 0.86816 0.7685 0.0
Cd338 Cd 0.55094 0.9048 0.77774 0.0
O339 O 0.56212 0.87223 0.81136 0.0
O340 O 0.47492 0.8314 0.75538 0.0
O341 O 0.52474 0.83726 0.74065 0.0
C342 C 0.49985 0.81953 0.7423 0.0
C343 C 0.58671 0.91911 0.73884 0.0
C344 C 0.54031 0.85768 0.82584 0.0
C345 C 0.49164 0.93721 0.76856 0.0
O346 O 0.51565 0.93667 0.78645 0.0
O347 O 0.48398 0.91227 0.75344 0.0
O348 O 0.58879 0.93033 0.76715 0.0
O349 O 0.56464 0.89881 0.7329 0.0
O350 O 0.48523 0.644 0.8213 0.0
Cd351 Cd 0.49839 0.63533 0.7747 0.0
Cd352 Cd 0.44699 0.60036 0.77865 0.0
O353 O 0.43533 0.63335 0.81187 0.0
O354 O 0.52638 0.67154 0.76251 0.0
O355 O 0.47743 0.66609 0.74498 0.0
C356 C 0.50266 0.68324 0.74724 0.0
C357 C 0.4101 0.58456 0.74105 0.0
C358 C 0.45626 0.64608 0.82913 0.0
C359 C 0.50633 0.566 0.77391 0.0
O360 O 0.48042 0.5668 0.78892 0.0
O361 O 0.51661 0.59113 0.76084 0.0
O362 O 0.40826 0.57538 0.77004 0.0
O363 O 0.43256 0.60391 0.7336 0.0
O364 O 0.5176 0.14172 0.6872 0.0
Cd365 Cd 0.50382 0.13422 0.73393 0.0
Cd366 Cd 0.55344 0.09717 0.72961 0.0
O367 O 0.56702 0.12825 0.6955 0.0
O368 O 0.47596 0.17097 0.74491 0.0
O369 O 0.52457 0.16558 0.7633 0.0
C370 C 0.49948 0.18282 0.76037 0.0
C371 C 0.588 0.0821 0.76939 0.0
C372 C 0.54643 0.14189 0.67855 0.0
C373 C 0.49346 0.06514 0.73539 0.0
O374 O 0.5188 0.06502 0.71946 0.0
O375 O 0.48461 0.09065 0.74878 0.0
O376 O 0.59048 0.07091 0.74112 0.0
O377 O 0.56624 0.10287 0.77482 0.0
O378 O 0.49158 0.36051 0.69232 0.0
Cd379 Cd 0.50114 0.36846 0.7399 0.0
Cd380 Cd 0.45278 0.40504 0.73027 0.0
O381 O 0.4414 0.37316 0.69608 0.0
O382 O 0.52762 0.33142 0.75298 0.0
O383 O 0.47746 0.33699 0.76656 0.0
C384 C 0.50239 0.31932 0.76527 0.0
C385 C 0.41803 0.41895 0.77006 0.0
C386 C 0.46351 0.35914 0.68155 0.0
C387 C 0.51112 0.43743 0.74107 0.0
O388 O 0.48824 0.43671 0.72179 0.0
O389 O 0.51793 0.4125 0.75657 0.0
O390 O 0.41551 0.43077 0.74203 0.0
O391 O 0.4398 0.39812 0.77517 0.0
O392 O 0.81597 0.5121 0.86506 0.0
Cd393 Cd 0.76876 0.50216 0.87421 0.0
Cd394 Cd 0.77875 0.55067 0.91156 0.0
O395 O 0.81246 0.56196 0.87911 0.0
O396 O 0.75516 0.47527 0.83767 0.0
O397 O 0.74106 0.52532 0.84318 0.0
C398 C 0.7421 0.50018 0.82577 0.0
C399 C 0.73925 0.5859 0.92539 0.0
C400 C 0.82658 0.54024 0.86407 0.0
C401 C 0.76827 0.49178 0.94352 0.0
O402 O 0.78702 0.51514 0.94322 0.0
O403 O 0.75334 0.48461 0.91832 0.0
O404 O 0.7674 0.58838 0.93693 0.0
O405 O 0.73386 0.56374 0.90502 0.0
O406 O 0.18912 0.99359 0.86356 0.0
Cd407 Cd 0.23649 0.00291 0.87226 0.0
Cd408 Cd 0.22545 0.95471 0.90992 0.0
O409 O 0.19175 0.94358 0.87738 0.0
O410 O 0.24975 0.03024 0.83593 0.0
O411 O 0.26346 0.97998 0.84041 0.0
C412 C 0.26234 0.00538 0.8234 0.0
C413 C 0.26531 0.91994 0.92378 0.0
C414 C 0.17811 0.96561 0.86237 0.0
C415 C 0.23737 0.01319 0.94158 0.0
O416 O 0.21756 0.99073 0.94114 0.0
O417 O 0.25269 0.01966 0.91642 0.0
O418 O 0.23722 0.91727 0.93546 0.0
O419 O 0.27038 0.94193 0.90316 0.0
O420 O 0.8172 0.48966 0.64736 0.0
Cd421 Cd 0.77043 0.50363 0.64054 0.0
Cd422 Cd 0.77301 0.45386 0.60487 0.0
O423 O 0.80765 0.44004 0.63539 0.0
O424 O 0.75926 0.52995 0.67836 0.0
O425 O 0.74149 0.48134 0.67103 0.0
C426 C 0.74439 0.50564 0.68939 0.0
C427 C 0.73215 0.42045 0.59066 0.0
C428 C 0.8253 0.46067 0.64813 0.0
C429 C 0.7683 0.51343 0.57178 0.0
O430 O 0.78358 0.48772 0.57204 0.0
O431 O 0.7552 0.523 0.59717 0.0
O432 O 0.75993 0.41742 0.57853 0.0
O433 O 0.72768 0.44177 0.61208 0.0
O434 O 0.18577 0.01904 0.64564 0.0
Cd435 Cd 0.23222 0.00478 0.6382 0.0
Cd436 Cd 0.22969 0.05528 0.60288 0.0
O437 O 0.19541 0.06868 0.63398 0.0
O438 O 0.24313 0.97789 0.67567 0.0
O439 O 0.26189 0.02618 0.66867 0.0
C440 C 0.25855 1.0018 0.68684 0.0
C441 C 0.26842 0.09039 0.58608 0.0
C442 C 0.17772 0.04803 0.64657 0.0
C443 C 0.23267 0.99505 0.56948 0.0
O444 O 0.21877 0.02157 0.56994 0.0
O445 O 0.24578 0.98483 0.5946 0.0
O446 O 0.23961 0.09261 0.57649 0.0
O447 O 0.27505 0.069 0.60687 0.0
O448 O 0.86152 0.81395 0.51359 0.0
Cd449 Cd 0.86922 0.76675 0.50209 0.0
Cd450 Cd 0.90578 0.7748 0.55067 0.0
O451 O 0.87459 0.80901 0.56356 0.0
O452 O 0.83259 0.7554 0.47423 0.0
O453 O 0.83694 0.7392 0.52373 0.0
C454 C 0.81992 0.74177 0.49845 0.0
C455 C 0.91901 0.73389 0.58399 0.0
C456 C 0.86037 0.82404 0.54193 0.0
C457 C 0.93805 0.76617 0.49164 0.0
O458 O 0.93744 0.78426 0.51547 0.0
O459 O 0.91314 0.7509 0.48421 0.0
O460 O 0.93187 0.76139 0.587 0.0
O461 O 0.89759 0.72978 0.5626 0.0
O462 O 0.86239 0.1903 0.99092 0.0
Cd463 Cd 0.87094 0.23765 1.00005 0.0
Cd464 Cd 0.90798 0.22747 0.95101 0.0
O465 O 0.87518 0.19361 0.94071 0.0
O466 O 0.83383 0.2512 0.02618 0.0
O467 O 0.84013 0.26482 0.97611 0.0
C468 C 0.82218 0.26368 1.00085 0.0
C469 C 0.92345 0.26466 0.91375 0.0
C470 C 0.8608 0.17953 0.96289 0.0
C471 C 0.93991 0.23817 0.01066 0.0
O472 O 0.93974 0.22002 0.98681 0.0
O473 O 0.91473 0.25298 0.01813 0.0
O474 O 0.93372 0.23595 0.91278 0.0
O475 O 0.90322 0.27191 0.93549 0.0
O476 O 0.14521 0.31724 0.99079 0.0
Cd477 Cd 0.13717 0.27047 0.00443 0.0
Cd478 Cd 0.10163 0.27477 0.95489 0.0
O479 O 0.13301 0.30846 0.94112 0.0
O480 O 0.17389 0.2585 0.03187 0.0
O481 O 0.16785 0.241 0.98297 0.0
C482 C 0.18532 0.24328 0.00797 0.0
C483 C 0.08648 0.23424 0.92141 0.0
C484 C 0.14611 0.32565 0.96188 0.0
C485 C 0.06828 0.27018 0.01389 0.0
O486 O 0.06918 0.28631 0.98873 0.0
O487 O 0.09316 0.2558 0.02293 0.0
O488 O 0.07538 0.26245 0.91818 0.0
O489 O 0.10733 0.2292 0.94317 0.0
O490 O 0.64455 0.18796 0.01794 0.0
Cd491 Cd 0.63707 0.23419 1.00258 0.0
Cd492 Cd 0.60242 0.23291 0.0531 0.0
O493 O 0.63237 0.19806 0.06737 0.0
O494 O 0.67384 0.24417 0.97442 0.0
O495 O 0.66838 0.26419 0.02241 0.0
C496 C 0.68569 0.26031 0.99749 0.0
C497 C 0.58872 0.274 0.08667 0.0
C498 C 0.64508 0.18012 0.04701 0.0
C499 C 0.56816 0.23507 0.9936 0.0
O500 O 0.56878 0.22163 0.02031 0.0
O501 O 0.59327 0.24785 0.98292 0.0
O502 O 0.5768 0.24613 0.08991 0.0
O503 O 0.60957 0.27844 0.0648 0.0
O504 O 0.49163 0.14111 0.1949 0.0
Cd505 Cd 0.50284 0.13361 0.24207 0.0
Cd506 Cd 0.45376 0.09667 0.23439 0.0
O507 O 0.44154 0.12899 0.20072 0.0
O508 O 0.52931 0.17115 0.25398 0.0
O509 O 0.47988 0.16488 0.26969 0.0
C510 C 0.50448 0.18292 0.26733 0.0
C511 C 0.41836 0.07983 0.2727 0.0
C512 C 0.4632 0.14271 0.18522 0.0
C513 C 0.51368 0.06482 0.24247 0.0
O514 O 0.48935 0.0652 0.225 0.0
O515 O 0.52153 0.0899 0.25728 0.0
O516 O 0.41666 0.06975 0.24397 0.0
O517 O 0.43947 0.10091 0.27939 0.0
O518 O 0.51882 0.36147 0.19167 0.0
Cd519 Cd 0.50477 0.3687 0.23838 0.0
Cd520 Cd 0.55423 0.40617 0.23433 0.0
O521 O 0.56802 0.37614 0.19935 0.0
O522 O 0.47718 0.33148 0.24873 0.0
O523 O 0.52554 0.33719 0.26764 0.0
C524 C 0.5007 0.31967 0.2642 0.0
C525 C 0.58917 0.42211 0.27345 0.0
C526 C 0.54752 0.36216 0.18257 0.0
C527 C 0.49337 0.43765 0.23949 0.0
O528 O 0.51932 0.43814 0.2246 0.0
O529 O 0.48443 0.41209 0.25276 0.0
O530 O 0.59077 0.43337 0.24519 0.0
O531 O 0.56838 0.40048 0.27928 0.0
O532 O 0.49381 0.85617 0.31665 0.0
Cd533 Cd 0.50671 0.86639 0.27017 0.0
Cd534 Cd 0.45765 0.90193 0.2765 0.0
O535 O 0.44429 0.87065 0.31043 0.0
O536 O 0.53317 0.82956 0.25641 0.0
O537 O 0.48394 0.83699 0.24046 0.0
C538 C 0.50851 0.81884 0.24191 0.0
C539 C 0.4249 0.91527 0.23487 0.0
C540 C 0.4652 0.856 0.32608 0.0
C541 C 0.51634 0.93572 0.27163 0.0
O542 O 0.49121 0.93466 0.28779 0.0
O543 O 0.52532 0.911 0.25685 0.0
O544 O 0.42092 0.9273 0.26263 0.0
O545 O 0.44705 0.89461 0.2309 0.0
O546 O 0.51024 0.64545 0.3168 0.0
Cd547 Cd 0.49816 0.63541 0.27005 0.0
Cd548 Cd 0.54633 0.59889 0.27754 0.0
O549 O 0.55965 0.63042 0.31129 0.0
O550 O 0.47302 0.67287 0.25551 0.0
O551 O 0.52248 0.66418 0.24106 0.0
C552 C 0.49844 0.68303 0.2419 0.0
C553 C 0.57929 0.58528 0.23619 0.0
C554 C 0.53874 0.64552 0.32652 0.0
C555 C 0.48783 0.56598 0.27052 0.0
O556 O 0.51197 0.56678 0.28816 0.0
O557 O 0.4798 0.59099 0.25569 0.0
O558 O 0.58291 0.5732 0.26397 0.0
O559 O 0.55732 0.60607 0.23205 0.0
O560 O 0.19327 0.4894 0.14745 0.0
Cd561 Cd 0.23972 0.50175 0.13712 0.0
Cd562 Cd 0.23345 0.45114 0.10222 0.0
O563 O 0.19985 0.43945 0.13467 0.0
O564 O 0.25326 0.52854 0.17377 0.0
O565 O 0.26947 0.47935 0.16668 0.0
C566 C 0.26764 0.50394 0.1848 0.0
C567 C 0.27143 0.41506 0.086 0.0
C568 C 0.18406 0.46076 0.14862 0.0
C569 C 0.238 0.51044 0.06786 0.0
O570 O 0.2228 0.48468 0.0691 0.0
O571 O 0.25237 0.52031 0.09248 0.0
O572 O 0.24254 0.41307 0.07656 0.0
O573 O 0.27858 0.43687 0.10618 0.0
O574 O 0.81793 0.01582 0.14468 0.0
Cd575 Cd 0.77126 1.00181 0.13701 0.0
Cd576 Cd 0.77461 0.051 0.10093 0.0
O577 O 0.80981 0.06509 0.13052 0.0
O578 O 0.75946 0.97596 0.17499 0.0
O579 O 0.74188 0.02447 0.16685 0.0
C580 C 0.7445 1.00043 0.18554 0.0
C581 C 0.7334 0.08445 0.08784 0.0
C582 C 0.82678 0.04462 0.14429 0.0
C583 C 0.76988 0.99117 0.06805 0.0
O584 O 0.78471 0.01715 0.06801 0.0
O585 O 0.75677 0.98175 0.0935 0.0
O586 O 0.76093 0.08746 0.07509 0.0
O587 O 0.7294 0.06288 0.10909 0.0
O588 O 0.19117 0.51493 0.35727 0.0
Cd589 Cd 0.23753 0.5026 0.36817 0.0
Cd590 Cd 0.22937 0.55206 0.40475 0.0
O591 O 0.1966 0.56454 0.3718 0.0
O592 O 0.25128 0.47504 0.33218 0.0
O593 O 0.26768 0.5243 0.33834 0.0
C594 C 0.26614 0.49921 0.32089 0.0
C595 C 0.26779 0.58709 0.42216 0.0
C596 C 0.18154 0.54345 0.35675 0.0
C597 C 0.23507 0.49271 0.43757 0.0
O598 O 0.21825 0.51744 0.43653 0.0
O599 O 0.25017 0.48417 0.4129 0.0
O600 O 0.23882 0.58941 0.43133 0.0
O601 O 0.27473 0.56554 0.40161 0.0
O602 O 0.81289 0.99381 0.36073 0.0
Cd603 Cd 0.76607 0.00512 0.37042 0.0
Cd604 Cd 0.77487 0.95652 0.40641 0.0
O605 O 0.80845 0.94384 0.37437 0.0
O606 O 0.75297 0.03218 0.33382 0.0
O607 O 0.73795 0.98241 0.33947 0.0
C608 C 0.73967 0.00739 0.3219 0.0
C609 C 0.73304 0.92398 0.41938 0.0
C610 C 0.82289 0.96545 0.35949 0.0
C611 C 0.76719 0.01491 0.43968 0.0
O612 O 0.78525 0.99109 0.43844 0.0
O613 O 0.75151 0.02263 0.41509 0.0
O614 O 0.76066 0.9199 0.43171 0.0
O615 O 0.72937 0.9461 0.39862 0.0
O616 O 0.14506 0.18229 0.48941 0.0
Cd617 Cd 0.13723 0.22932 0.50178 0.0
Cd618 Cd 0.1008 0.22388 0.45225 0.0
O619 O 0.13244 0.1898 0.43963 0.0
O620 O 0.1741 0.24175 0.52885 0.0
O621 O 0.16799 0.25826 0.47965 0.0
C622 C 0.18552 0.25644 0.50464 0.0
C623 C 0.08635 0.2641 0.41789 0.0
C624 C 0.14579 0.17322 0.46072 0.0
C625 C 0.06813 0.23045 0.51169 0.0
O626 O 0.06834 0.214 0.48668 0.0
O627 O 0.09348 0.24421 0.52046 0.0
O628 O 0.07524 0.23585 0.41479 0.0
O629 O 0.10679 0.2692 0.44004 0.0
O630 O 0.14583 0.81435 0.01302 0.0
Cd631 Cd 0.1367 0.76734 1.00099 0.0
Cd632 Cd 0.09771 0.77667 0.04794 0.0
O633 O 0.12877 0.81051 0.06194 0.0
O634 O 0.17344 0.75459 0.97387 0.0
O635 O 0.16775 0.73902 0.02342 0.0
C636 C 0.18525 0.74076 0.99841 0.0
C637 C 0.08403 0.73462 0.07964 0.0
C638 C 0.14489 0.82492 0.04122 0.0
C639 C 0.06729 0.76672 0.98928 0.0
O640 O 0.06747 0.78646 0.01173 0.0
O641 O 0.09253 0.75133 0.98328 0.0
O642 O 0.07074 0.76186 0.08317 0.0
O643 O 0.10607 0.73145 0.05872 0.0
O644 O 0.85861 0.68977 0.01595 0.0
Cd645 Cd 0.86907 0.73601 1.00282 0.0
Cd646 Cd 0.90419 0.73025 0.05338 0.0
O647 O 0.87163 0.69704 0.06572 0.0
O648 O 0.83248 0.74923 0.97575 0.0
O649 O 0.8395 0.76623 0.02467 0.0
C650 C 0.82145 0.76409 1.00007 0.0
C651 C 0.92079 0.76862 0.08881 0.0
C652 C 0.85754 0.68099 0.04472 0.0
C653 C 0.93848 0.73417 0.99419 0.0
O654 O 0.93718 0.71899 0.01995 0.0
O655 O 0.91385 0.74846 0.98427 0.0
O656 O 0.92995 0.73968 0.09123 0.0
O657 O 0.90062 0.7756 0.06694 0.0
O658 O 0.35906 0.81775 0.9923 0.0
Cd659 Cd 0.36933 0.77088 0.0036 0.0
Cd660 Cd 0.40595 0.77983 0.95506 0.0
O661 O 0.37436 0.81394 0.94278 0.0
O662 O 0.33242 0.75651 0.02974 0.0
O663 O 0.33972 0.74195 0.98012 0.0
C664 C 0.32152 0.74287 0.00466 0.0
C665 C 0.41834 0.73823 0.9222 0.0
C666 C 0.35904 0.82836 0.96412 0.0
C667 C 0.4389 0.77167 0.01363 0.0
O668 O 0.43815 0.78948 0.98961 0.0
O669 O 0.41397 0.75657 0.02146 0.0
O670 O 0.43111 0.76565 0.9182 0.0
O671 O 0.39753 0.73461 0.94425 0.0
C672 C 0.03585 0.23741 0.23116 0.0
C673 C 0.00805 0.21906 0.22995 0.0
C674 C 0.03472 0.27063 0.23119 0.0
C675 C 0.0057 0.28694 0.23047 0.0
H676 H 0.05862 0.22607 0.23406 0.0
H677 H 0.05666 0.28348 0.2343 0.0
S678 S 0.92644 0.25038 0.22152 0.0
N679 N 0.95089 0.22002 0.22341 0.0
N680 N 0.94882 0.28228 0.22408 0.0
C681 C 0.97797 0.26899 0.22642 0.0
C682 C 0.97913 0.23513 0.22596 0.0
C683 C 0.97686 0.73575 0.26651 0.0
C684 C 0.00481 0.71762 0.266 0.0
C685 C 0.97772 0.76895 0.2685 0.0
C686 C 0.00659 0.78552 0.26958 0.0
H687 H 0.95409 0.72436 0.26373 0.0
H688 H 0.95559 0.78173 0.26689 0.0
S689 S 0.0864 0.74929 0.27348 0.0
N690 N 0.06215 0.71884 0.27055 0.0
N691 N 0.0637 0.78104 0.27365 0.0
C692 C 0.03459 0.76763 0.27145 0.0
C693 C 0.03372 0.73377 0.26986 0.0
C694 C 0.23756 0.97158 0.23701 0.0
C695 C 0.2389 1.00051 0.22058 0.0
C696 C 0.23667 0.9706 0.27024 0.0
C697 C 0.23659 0.9985 0.28848 0.0
H698 H 0.23945 0.94944 0.22427 0.0
H699 H 0.23774 0.94774 0.28171 0.0
S700 S 0.2346 0.08038 0.25671 0.0
N701 N 0.23637 0.05773 0.22496 0.0
N702 N 0.23411 0.05599 0.28716 0.0
C703 C 0.2351 0.02756 0.27221 0.0
C704 C 0.23645 0.02854 0.23837 0.0
C705 C 0.76874 0.4775 0.2406 0.0
C706 C 0.76814 0.50544 0.22247 0.0
C707 C 0.77043 0.47839 0.2738 0.0
C708 C 0.77107 0.50729 0.29036 0.0
H709 H 0.76623 0.4547 0.2292 0.0
H710 H 0.7689 0.45625 0.28658 0.0
S711 S 0.77463 0.58712 0.25414 0.0
N712 N 0.7722 0.56282 0.22368 0.0
N713 N 0.7747 0.56444 0.2859 0.0
C714 C 0.77289 0.5353 0.27248 0.0
C715 C 0.77163 0.53439 0.23862 0.0
C716 C 0.26868 0.23069 0.97731 0.0
C717 C 0.28705 0.23063 0.00511 0.0
C718 C 0.23548 0.2319 0.97847 0.0
C719 C 0.21923 0.2336 0.00749 0.0
H720 H 0.28005 0.23159 0.95438 0.0
H721 H 0.22266 0.23383 0.95639 0.0
S722 S 0.25573 0.22926 0.08715 0.0
N723 N 0.28604 0.22836 0.06259 0.0
N724 N 0.22387 0.23122 0.06469 0.0
C725 C 0.23713 0.23103 0.03542 0.0
C726 C 0.27094 0.22935 0.03426 0.0
C727 C 0.27007 0.77001 0.47563 0.0
C728 C 0.2863 0.77133 0.50468 0.0
C729 C 0.23686 0.76905 0.47442 0.0
C730 C 0.21841 0.76984 0.50216 0.0
H731 H 0.28304 0.76736 0.45372 0.0
H732 H 0.22565 0.76593 0.45161 0.0
S733 S 0.24932 0.77871 0.5839 0.0
N734 N 0.28131 0.77725 0.56159 0.0
N735 N 0.21909 0.77603 0.55937 0.0
C736 C 0.23432 0.77408 0.53115 0.0
C737 C 0.26817 0.77463 0.53239 0.0
C738 C 0.7688 0.73573 0.52785 0.0
C739 C 0.78534 0.7348 0.49895 0.0
C740 C 0.7356 0.73734 0.52873 0.0
C741 C 0.71745 0.73758 0.5008 0.0
H742 H 0.78159 0.73754 0.54996 0.0
H743 H 0.7242 0.74008 0.5515 0.0
S744 S 0.74908 0.73031 0.41918 0.0
N745 N 0.78085 0.73055 0.44185 0.0
N746 N 0.71863 0.73292 0.44346 0.0
C747 C 0.73359 0.73382 0.47188 0.0
C748 C 0.76745 0.73264 0.47097 0.0
C749 C 0.02873 0.77005 0.77107 0.0
C750 C 0.99974 0.78641 0.77208 0.0
C751 C 0.02982 0.73683 0.76986 0.0
C752 C 1.002 0.71848 0.77012 0.0
H753 H 0.05073 0.78297 0.76888 0.0
H754 H 0.05262 0.72555 0.76702 0.0
S755 S 0.92026 0.74968 0.77779 0.0
N756 N 0.94272 0.78159 0.77695 0.0
N757 N 0.94471 0.71936 0.77532 0.0
C758 C 0.97302 0.73449 0.77397 0.0
C759 C 0.9719 0.76836 0.77475 0.0
C760 C 0.97143 0.23692 0.7369 0.0
C761 C 0.9989 0.2181 0.73586 0.0
C762 C 0.97302 0.27005 0.73484 0.0
C763 C 1.00221 0.28586 0.73211 0.0
H764 H 0.94858 0.22612 0.74105 0.0
H765 H 0.95136 0.28338 0.73776 0.0
S766 S 0.08071 0.24765 0.72361 0.0
N767 N 0.0559 0.21783 0.72797 0.0
N768 N 0.05885 0.27997 0.72473 0.0
C769 C 0.02959 0.26729 0.72862 0.0
C770 C 0.02795 0.23349 0.73029 0.0
C771 C 0.77439 0.02759 0.77177 0.0
C772 C 0.77446 0.99852 0.78801 0.0
C773 C 0.77401 0.02882 0.73854 0.0
C774 C 0.77417 1.00106 0.7201 0.0
H775 H 0.77218 0.04959 0.78471 0.0
H776 H 0.77173 0.05171 0.7273 0.0
S777 S 0.78017 0.9191 0.75111 0.0
N778 N 0.77882 0.94146 0.78309 0.0
N779 N 0.77871 0.94369 0.72085 0.0
C780 C 0.77734 0.97197 0.73606 0.0
C781 C 0.7773 0.97072 0.76992 0.0
C782 C 0.23028 0.47675 0.77068 0.0
C783 C 0.23276 0.50574 0.7869 0.0
C784 C 0.22924 0.47552 0.73745 0.0
C785 C 0.23013 0.50324 0.719 0.0
H786 H 0.23134 0.45465 0.78356 0.0
H787 H 0.22944 0.45254 0.72614 0.0
S788 S 0.23184 0.5854 0.75009 0.0
N789 N 0.23265 0.56299 0.78202 0.0
N790 N 0.23018 0.56077 0.71985 0.0
C791 C 0.22991 0.53247 0.73505 0.0
C792 C 0.2314 0.53369 0.76888 0.0
C793 C 0.73569 0.77269 0.97467 0.0
C794 C 0.71938 0.77373 0.00369 0.0
C795 C 0.76892 0.77219 0.97351 0.0
C796 C 0.78731 0.77318 1.00128 0.0
H797 H 0.72279 0.76981 0.95273 0.0
H798 H 0.7802 0.76914 0.95072 0.0
S799 S 0.75613 0.78188 0.08294 0.0
N800 N 0.7242 0.7799 0.06058 0.0
N801 N 0.78644 0.77956 0.05847 0.0
C802 C 0.77129 0.77732 0.03022 0.0
C803 C 0.73742 0.7774 0.03141 0.0
C804 C 0.73647 0.23297 0.52761 0.0
C805 C 0.72009 0.23525 0.4987 0.0
C806 C 0.76969 0.23209 0.52863 0.0
C807 C 0.78798 0.23295 0.50079 0.0
H808 H 0.7237 0.23416 0.54977 0.0
H809 H 0.78112 0.23249 0.55154 0.0
S810 S 0.75637 0.2334 0.41884 0.0
N811 N 0.72457 0.23445 0.44145 0.0
N812 N 0.78678 0.23219 0.44326 0.0
C813 C 0.77177 0.2323 0.47166 0.0
C814 C 0.73793 0.23365 0.47065 0.0
C815 C 0.23565 0.26743 0.47488 0.0
C816 C 0.21944 0.26614 0.50394 0.0
C817 C 0.26885 0.26882 0.47365 0.0
C818 C 0.28728 0.26946 0.5014 0.0
H819 H 0.2228 0.26509 0.45285 0.0
H820 H 0.28018 0.26762 0.45071 0.0
S821 S 0.25605 0.2719 0.58347 0.0
N822 N 0.22418 0.26942 0.56109 0.0
N823 N 0.28633 0.27259 0.55885 0.0
C824 C 0.27119 0.27107 0.53056 0.0
C825 C 0.23738 0.26922 0.5318 0.0
C826 C 0.47314 0.76702 0.73484 0.0
C827 C 0.50118 0.78503 0.73489 0.0
C828 C 0.47385 0.73379 0.73591 0.0
C829 C 0.50264 0.71715 0.73756 0.0
H830 H 0.45037 0.77868 0.7358 0.0
H831 H 0.4516 0.72126 0.7378 0.0
S832 S 0.58279 0.75262 0.73338 0.0
N833 N 0.55865 0.78327 0.73261 0.0
N834 N 0.5599 0.72105 0.7352 0.0
C835 C 0.53082 0.73469 0.73506 0.0
C836 C 0.53011 0.76853 0.73353 0.0
C837 C 0.52896 0.26671 0.77269 0.0
C838 C 0.50095 0.28474 0.77236 0.0
C839 C 0.52823 0.23348 0.77163 0.0
C840 C 0.49945 0.21684 0.76972 0.0
H841 H 0.55176 0.27836 0.77201 0.0
H842 H 0.55049 0.22092 0.77004 0.0
S843 S 0.41929 0.25235 0.773 0.0
N844 N 0.44345 0.28299 0.774 0.0
N845 N 0.44217 0.22078 0.77143 0.0
C846 C 0.47126 0.23441 0.77185 0.0
C847 C 0.47199 0.26825 0.77336 0.0
C848 C 0.73564 0.53055 0.77531 0.0
C849 C 0.73418 0.50145 0.79143 0.0
C850 C 0.73655 0.53188 0.7421 0.0
C851 C 0.73556 0.5042 0.72356 0.0
H852 H 0.73844 0.5524 0.78837 0.0
H853 H 0.73977 0.55471 0.73099 0.0
S854 S 0.72625 0.4224 0.75415 0.0
N855 N 0.72792 0.44458 0.78623 0.0
N856 N 0.72902 0.44703 0.72401 0.0
C857 C 0.73118 0.47518 0.73935 0.0
C858 C 0.73068 0.47381 0.7732 0.0
C859 C 0.26649 0.97482 0.73916 0.0
C860 C 0.26756 1.00273 0.72099 0.0
C861 C 0.26775 0.97569 0.77237 0.0
C862 C 0.26965 0.00455 0.7889 0.0
H863 H 0.26299 0.95216 0.72775 0.0
H864 H 0.26493 0.95368 0.78515 0.0
S865 S 0.27755 0.08406 0.75265 0.0
N866 N 0.27435 0.05985 0.72219 0.0
N867 N 0.27612 0.06145 0.78443 0.0
C868 C 0.27308 0.03241 0.77102 0.0
C869 C 0.27222 0.03151 0.73716 0.0
C870 C 0.73633 0.27179 0.02615 0.0
C871 C 0.7198 0.2693 0.99735 0.0
C872 C 0.76957 0.27245 0.027 0.0
C873 C 0.78771 0.27115 0.99908 0.0
H874 H 0.72366 0.27096 0.04839 0.0
H875 H 0.78111 0.27224 0.04985 0.0
S876 S 0.75571 0.26974 0.9173 0.0
N877 N 0.72401 0.26926 0.94007 0.0
N878 N 0.78624 0.27109 0.94156 0.0
C879 C 0.77137 0.27152 0.97003 0.0
C880 C 0.73752 0.2704 0.9692 0.0
C881 C 0.5299 0.26897 0.27418 0.0
C882 C 0.501 0.28547 0.27293 0.0
C883 C 0.53085 0.23572 0.27474 0.0
C884 C 0.50294 0.21749 0.27461 0.0
H885 H 0.55206 0.28171 0.27247 0.0
H886 H 0.55369 0.22422 0.2736 0.0
S887 S 0.42111 0.24935 0.27657 0.0
N888 N 0.44379 0.2811 0.27518 0.0
N889 N 0.44547 0.21886 0.27688 0.0
C890 C 0.4739 0.23379 0.27615 0.0
C891 C 0.47296 0.26766 0.2751 0.0
C892 C 0.47682 0.76966 0.23249 0.0
C893 C 0.50648 0.7848 0.23287 0.0
C894 C 0.47433 0.73651 0.23273 0.0
C895 C 0.50137 0.71706 0.23289 0.0
H896 H 0.45531 0.7834 0.2345 0.0
H897 H 0.451 0.72613 0.23473 0.0
S898 S 0.5845 0.74501 0.22778 0.0
N899 N 0.56336 0.7778 0.22906 0.0
N900 N 0.55876 0.71568 0.22887 0.0
C901 C 0.53108 0.73193 0.23004 0.0
C902 C 0.53361 0.76572 0.23023 0.0
C903 C 0.27591 0.52906 0.27063 0.0
C904 C 0.27557 0.50001 0.28691 0.0
C905 C 0.27605 0.53023 0.2374 0.0
C906 C 0.27634 0.50243 0.21901 0.0
H907 H 0.27356 0.55108 0.2835 0.0
H908 H 0.27399 0.55311 0.22608 0.0
S909 S 0.28154 0.42051 0.25024 0.0
N910 N 0.27979 0.44293 0.28216 0.0
N911 N 0.28067 0.44506 0.21992 0.0
C912 C 0.27919 0.47336 0.23506 0.0
C913 C 0.2786 0.47217 0.26892 0.0
C914 C 0.73572 0.97485 0.23843 0.0
C915 C 0.73521 1.00231 0.21958 0.0
C916 C 0.73414 0.97656 0.27159 0.0
C917 C 0.73249 0.00584 0.2874 0.0
H918 H 0.73903 0.95187 0.22761 0.0
H919 H 0.73656 0.95483 0.28492 0.0
S920 S 0.72594 0.08451 0.24915 0.0
N921 N 0.7291 0.05953 0.21932 0.0
N922 N 0.72682 0.06268 0.28149 0.0
C923 C 0.7296 0.03329 0.26882 0.0
C924 C 0.73075 0.03154 0.23499 0.0
C925 C 0.23554 0.73285 0.02878 0.0
C926 C 0.21956 0.73264 0.99956 0.0
C927 C 0.26875 0.73361 0.03033 0.0
C928 C 0.28744 0.73373 1.00274 0.0
H929 H 0.22238 0.73483 0.05066 0.0
H930 H 0.27975 0.73594 0.05333 0.0
S931 S 0.25723 0.72759 0.92048 0.0
N932 N 0.22504 0.72851 0.94254 0.0
N933 N 0.28725 0.72934 0.94536 0.0
C934 C 0.27177 0.73048 0.97349 0.0
C935 C 0.23793 0.73012 0.97192 0.0
C936 C 0.04741 0.28549 0.37909 0.0
C937 C 0.07529 0.28974 0.39677 0.0
C938 C 0.03684 0.30858 0.35787 0.0
C939 C 0.05397 0.33668 0.35316 0.0
H940 H 0.03375 0.26394 0.38131 0.0
H941 H 0.0158 0.30371 0.3441 0.0
S942 S 0.12724 0.36044 0.39525 0.0
N943 N 0.11879 0.32513 0.40958 0.0
N944 N 0.09918 0.36837 0.36931 0.0
C945 C 0.08131 0.34175 0.37146 0.0
C946 C 0.09189 0.31835 0.39337 0.0
C947 C 0.96258 0.21719 0.37874 0.0
C948 C 0.93375 0.21299 0.39481 0.0
C949 C 0.97323 0.1951 0.35652 0.0
C950 C 0.95519 0.16817 0.34912 0.0
H951 H 0.97702 0.2379 0.38315 0.0
H952 H 0.99516 0.19986 0.34418 0.0
S953 S 0.87883 0.14517 0.38575 0.0
N954 N 0.88808 0.17899 0.40294 0.0
N955 N 0.90782 0.13766 0.36072 0.0
C956 C 0.92672 0.1632 0.36561 0.0
C957 C 0.91607 0.18553 0.38858 0.0
C958 C 0.09684 0.69355 0.11946 0.0
C959 C 0.07453 0.70809 0.09981 0.0
C960 C 0.08741 0.67139 0.14217 0.0
C961 C 0.05534 0.66293 0.14583 0.0
H962 H 0.12148 0.70046 0.11832 0.0
H963 H 0.1053 0.66191 0.15783 0.0
S964 S 0.98913 0.68962 0.09488 0.0
N965 N 0.02009 0.70958 0.08188 0.0
N966 N 1.00214 0.6676 0.12437 0.0
C967 C 0.03321 0.67572 0.12456 0.0
C968 C 0.04287 0.69844 0.10159 0.0
C969 C 0.92638 0.84259 0.13917 0.0
C970 C 0.95531 0.83853 0.15513 0.0
C971 C 0.91576 0.82037 0.11697 0.0
C972 C 0.93339 0.79298 0.11046 0.0
H973 H 0.9115 0.86279 0.14433 0.0
H974 H 0.89309 0.82416 0.10567 0.0
S975 S 0.01156 0.77201 0.1445 0.0
N976 N 1.00213 0.80575 0.16168 0.0
N977 N 0.98204 0.76394 0.12031 0.0
C978 C 0.96281 0.78913 0.12552 0.0
C979 C 0.97383 0.81194 0.14773 0.0
C980 C 0.36894 0.07414 0.34741 0.0
C981 C 0.35278 0.04529 0.34348 0.0
C982 C 0.3908 0.08478 0.32485 0.0
C983 C 0.39679 0.06727 0.29724 0.0
H984 H 0.36418 0.08897 0.36774 0.0
H985 H 0.40227 0.10738 0.32861 0.0
S986 S 0.36181 0.98943 0.27648 0.0
N987 N 0.34544 0.99872 0.31058 0.0
N988 N 0.38603 0.01885 0.26805 0.0
C989 C 0.38148 0.03795 0.29348 0.0
C990 C 0.35965 0.02691 0.31666 0.0
C991 C 0.6204 0.41391 0.32296 0.0
C992 C 0.61069 0.43389 0.29829 0.0
C993 C 0.64297 0.42395 0.34509 0.0
C994 C 0.65614 0.45454 0.34366 0.0
H995 H 0.61144 0.38996 0.32449 0.0
H996 H 0.65069 0.40735 0.36299 0.0
S997 S 0.63576 0.51701 0.28563 0.0
N998 N 0.61399 0.48637 0.2751 0.0
N999 N 0.65597 0.50539 0.31684 0.0
C1000 C 0.64527 0.47525 0.32008 0.0
C1001 C 0.6227 0.46488 0.29732 0.0
C1002 C 0.37201 0.96686 0.18506 0.0
C1003 C 0.35811 0.94524 0.16392 0.0
C1004 C 0.39476 0.95705 0.20694 0.0
C1005 C 0.40443 0.92537 0.20862 0.0
H1006 H 0.36446 0.99131 0.18565 0.0
H1007 H 0.40455 0.97432 0.22309 0.0
S1008 S 0.37905 0.86023 0.1559 0.0
N1009 N 0.35851 0.89116 0.14384 0.0
N1010 N 0.40122 0.873 0.1854 0.0
C1011 C 0.39259 0.90393 0.1863 0.0
C1012 C 0.36934 0.91381 0.16391 0.0
C1013 C 0.61069 0.54385 0.209 0.0
C1014 C 0.60012 0.57527 0.21016 0.0
C1015 C 0.6337 0.5343 0.18727 0.0
C1016 C 0.64695 0.55592 0.16574 0.0
H1017 H 0.60141 0.52656 0.22539 0.0
H1018 H 0.64194 0.51008 0.18825 0.0
S1019 S 0.62365 0.64017 0.15632 0.0
N1020 N 0.60188 0.6273 0.18605 0.0
N1021 N 0.64502 0.60961 0.14475 0.0
C1022 C 0.63486 0.58702 0.16523 0.0
C1023 C 0.61136 0.59664 0.18747 0.0
C1024 C 0.32228 0.38546 0.09188 0.0
C1025 C 0.29555 0.39297 0.07369 0.0
C1026 C 0.34413 0.36279 0.08149 0.0
C1027 C 0.34034 0.3473 0.05223 0.0
H1028 H 0.3258 0.39633 0.11481 0.0
H1029 H 0.36379 0.35689 0.09679 0.0
S1030 S 0.27567 0.36079 0.99444 0.0
N1031 N 0.26755 0.38475 0.02414 0.0
N1032 N 0.3086 0.34246 0.00448 0.0
C1033 C 0.31445 0.35574 0.03317 0.0
C1034 C 0.29203 0.37846 0.04395 0.0
C1035 C 0.34271 0.63596 0.42886 0.0
C1036 C 0.33818 0.65274 0.45726 0.0
C1037 C 0.32029 0.61404 0.41809 0.0
C1038 C 0.29224 0.60856 0.43503 0.0
H1039 H 0.36343 0.64029 0.41444 0.0
H1040 H 0.3245 0.60213 0.39581 0.0
S1041 S 0.26984 0.64499 0.51176 0.0
N1042 N 0.30422 0.66114 0.50293 0.0
N1043 N 0.26207 0.62026 0.4826 0.0
C1044 C 0.28791 0.6244 0.46399 0.0
C1045 C 0.31091 0.64637 0.47516 0.0
C1046 C 0.70432 0.89425 0.46094 0.0
C1047 C 0.70658 0.90364 0.42922 0.0
C1048 C 0.68225 0.87158 0.47055 0.0
C1049 C 0.66147 0.85752 0.44869 0.0
H1050 H 0.72014 0.9042 0.47841 0.0
H1051 H 0.6824 0.86422 0.49507 0.0
S1052 S 0.65492 0.87786 0.36342 0.0
N1053 N 0.68424 0.90008 0.37651 0.0
N1054 N 0.6423 0.85757 0.39429 0.0
C1055 C 0.662 0.86853 0.41719 0.0
C1056 C 0.6846 0.89167 0.40751 0.0
C1057 C 0.17298 0.64939 0.58759 0.0
C1058 C 0.16387 0.65234 0.55563 0.0
C1059 C 0.19436 0.62603 0.59724 0.0
C1060 C 0.20741 0.60498 0.57527 0.0
H1061 H 0.16457 0.666 0.60517 0.0
H1062 H 0.20179 0.62534 0.62175 0.0
S1063 S 0.18708 0.5984 0.49041 0.0
N1064 N 0.16657 0.62915 0.50299 0.0
N1065 N 0.20704 0.58544 0.52136 0.0
C1066 C 0.19719 0.60624 0.54378 0.0
C1067 C 0.17529 0.62988 0.53389 0.0
C1068 C 0.91622 0.6726 0.64848 0.0
C1069 C 0.94837 0.66457 0.65231 0.0
C1070 C 0.90652 0.69394 0.6251 0.0
C1071 C 0.92866 0.70806 0.60495 0.0
H1072 H 0.89845 0.66333 0.66443 0.0
H1073 H 0.88181 0.70054 0.62376 0.0
S1074 S 0.01435 0.69081 0.60072 0.0
N1075 N 1.00156 0.66942 0.63076 0.0
N1076 N 0.9831 0.70983 0.58706 0.0
C1077 C 0.96043 0.69889 0.60702 0.0
C1078 C 0.97035 0.67702 0.63064 0.0
C1079 C 0.07924 0.84361 0.64029 0.0
C1080 C 0.04969 0.84011 0.65529 0.0
C1081 C 0.08991 0.8215 0.61798 0.0
C1082 C 0.07167 0.79482 0.61033 0.0
H1083 H 0.0946 0.86319 0.64634 0.0
H1084 H 0.11307 0.82475 0.60754 0.0
S1085 S 0.99164 0.77583 0.641 0.0
N1086 N 1.00158 0.8088 0.65933 0.0
N1087 N 0.02173 0.76731 0.61769 0.0
C1088 C 0.04162 0.79167 0.62424 0.0
C1089 C 0.03058 0.81433 0.6466 0.0
C1090 C 0.93326 0.34278 0.87037 0.0
C1091 C 0.95693 0.33601 0.84808 0.0
C1092 C 0.92281 0.31967 0.89172 0.0
C1093 C 0.93515 0.28873 0.89106 0.0
H1094 H 0.92258 0.36605 0.87113 0.0
H1095 H 0.90459 0.32603 0.90854 0.0
S1096 S 0.99605 0.25867 0.83521 0.0
N1097 N 0.99167 0.2962 0.82568 0.0
N1098 N 0.97177 0.25251 0.86515 0.0
C1099 C 0.95874 0.28169 0.86858 0.0
C1100 C 0.96971 0.30539 0.84728 0.0
C1101 C 0.03275 0.18765 0.86734 0.0
C1102 C 0.05257 0.16357 0.85584 0.0
C1103 C 0.04384 0.20992 0.88915 0.0
C1104 C 0.07493 0.20862 0.90077 0.0
H1105 H 0.0089 0.19022 0.85842 0.0
H1106 H 0.02805 0.22864 0.89664 0.0
S1107 S 0.13509 0.14792 0.88157 0.0
N1108 N 0.10406 0.13808 0.86001 0.0
N1109 N 0.12455 0.17977 0.90154 0.0
C1110 C 0.09437 0.1835 0.8912 0.0
C1111 C 0.08326 0.16102 0.86859 0.0
C1112 C 0.62553 0.95841 0.71825 0.0
C1113 C 0.60889 0.9299 0.71404 0.0
C1114 C 0.64759 0.96888 0.69592 0.0
C1115 C 0.65424 0.95098 0.6687 0.0
H1116 H 0.62173 0.97272 0.73916 0.0
H1117 H 0.66038 0.99055 0.7007 0.0
S1118 S 0.61587 0.87549 0.64556 0.0
N1119 N 0.5994 0.88472 0.67972 0.0
N1120 N 0.6413 0.90412 0.63793 0.0
C1121 C 0.63716 0.92285 0.66372 0.0
C1122 C 0.61436 0.91239 0.68631 0.0
C1123 C 0.38935 0.58347 0.68554 0.0
C1124 C 0.38759 0.57256 0.71696 0.0
C1125 C 0.36823 0.5726 0.66238 0.0
C1126 C 0.34514 0.54989 0.66967 0.0
H1127 H 0.40688 0.60087 0.67879 0.0
H1128 H 0.36985 0.58215 0.63867 0.0
S1129 S 0.32901 0.51494 0.74834 0.0
N1130 N 0.3596 0.53849 0.75416 0.0
N1131 N 0.32057 0.51783 0.7104 0.0
C1132 C 0.34313 0.53863 0.7008 0.0
C1133 C 0.36419 0.55002 0.72451 0.0
C1134 C 0.64803 0.0318 0.81279 0.0
C1135 C 0.65432 0.04945 0.84024 0.0
C1136 C 0.62622 0.04243 0.79031 0.0
C1137 C 0.60949 0.07088 0.79459 0.0
H1138 H 0.66103 0.01028 0.80788 0.0
H1139 H 0.6228 0.02837 0.76916 0.0
S1140 S 0.61516 0.12434 0.86393 0.0
N1141 N 0.64065 0.09577 0.8715 0.0
N1142 N 0.59922 0.11549 0.82941 0.0
C1143 C 0.61442 0.08801 0.82265 0.0
C1144 C 0.63696 0.07737 0.84541 0.0
C1145 C 0.36165 0.47064 0.81641 0.0
C1146 C 0.35218 0.45103 0.84152 0.0
C1147 C 0.38326 0.4601 0.79369 0.0
C1148 C 0.39676 0.42978 0.79554 0.0
H1149 H 0.35139 0.4939 0.81351 0.0
H1150 H 0.38923 0.47577 0.77433 0.0
S1151 S 0.38275 0.37048 0.85853 0.0
N1152 N 0.35987 0.40059 0.86821 0.0
N1153 N 0.40106 0.38111 0.82574 0.0
C1154 C 0.38896 0.41056 0.82146 0.0
C1155 C 0.36654 0.42111 0.84439 0.0
C1156 C 0.69548 0.6474 0.97366 0.0
C1157 C 0.66798 0.65289 0.95584 0.0
C1158 C 0.71815 0.62546 0.9637 0.0
C1159 C 0.71402 0.60779 0.93579 0.0
H1160 H 0.70024 0.66108 0.9948 0.0
H1161 H 0.73929 0.62263 0.97787 0.0
S1162 S 0.64472 0.61133 0.88212 0.0
N1163 N 0.63691 0.63762 0.90991 0.0
N1164 N 0.67934 0.59594 0.89146 0.0
C1165 C 0.68596 0.61203 0.91848 0.0
C1166 C 0.66302 0.6347 0.92842 0.0
C1167 C 0.66992 0.35661 0.59068 0.0
C1168 C 0.6632 0.35296 0.55819 0.0
C1169 C 0.69112 0.37975 0.60137 0.0
C1170 C 0.70639 0.39983 0.57994 0.0
H1171 H 0.65981 0.34065 0.60796 0.0
H1172 H 0.69674 0.38089 0.62634 0.0
S1173 S 0.69252 0.40465 0.49366 0.0
N1174 N 0.67035 0.37474 0.50539 0.0
N1175 N 0.71046 0.41795 0.5257 0.0
C1176 C 0.69844 0.39799 0.54781 0.0
C1177 C 0.67673 0.37462 0.53687 0.0
C1178 C 0.32052 0.11806 0.59063 0.0
C1179 C 0.29301 0.11161 0.57315 0.0
C1180 C 0.34304 0.13975 0.57959 0.0
C1181 C 0.33918 0.15523 0.55037 0.0
H1182 H 0.32418 0.10712 0.61349 0.0
H1183 H 0.36332 0.1449 0.59436 0.0
S1184 S 0.27239 0.14461 0.49443 0.0
N1185 N 0.26402 0.12105 0.52437 0.0
N1186 N 0.3064 0.16143 0.50351 0.0
C1187 C 0.31245 0.14789 0.53203 0.0
C1188 C 0.28933 0.12621 0.54348 0.0
C1189 C 0.8227 0.38976 0.41853 0.0
C1190 C 0.79635 0.39713 0.43733 0.0
C1191 C 0.84485 0.36717 0.42839 0.0
C1192 C 0.84171 0.35156 0.45765 0.0
H1193 H 0.82562 0.4006 0.39551 0.0
H1194 H 0.86413 0.36134 0.41258 0.0
S1195 S 0.77857 0.36513 0.5171 0.0
N1196 N 0.76966 0.38904 0.4876 0.0
N1197 N 0.81123 0.3468 0.50625 0.0
C1198 C 0.81633 0.36003 0.47739 0.0
C1199 C 0.79363 0.38272 0.46718 0.0
C1200 C 0.57685 0.84043 0.86891 0.0
C1201 C 0.54865 0.83588 0.85183 0.0
C1202 C 0.58748 0.81791 0.89077 0.0
C1203 C 0.57062 0.78971 0.89587 0.0
H1204 H 0.59115 0.86131 0.86494 0.0
H1205 H 0.60954 0.82223 0.90304 0.0
S1206 S 0.49471 0.76694 0.85794 0.0
N1207 N 0.50347 0.80158 0.84233 0.0
N1208 N 0.52355 0.75918 0.88303 0.0
C1209 C 0.54197 0.78525 0.8795 0.0
C1210 C 0.53093 0.80837 0.85762 0.0
C1211 C 0.41486 0.67705 0.85764 0.0
C1212 C 0.4464 0.66633 0.85596 0.0
C1213 C 0.40552 0.69943 0.88019 0.0
C1214 C 0.4274 0.71184 0.90169 0.0
H1215 H 0.39744 0.6691 0.84064 0.0
H1216 H 0.38139 0.70802 0.87994 0.0
S1217 S 0.51091 0.68766 0.91147 0.0
N1218 N 0.49835 0.66707 0.88074 0.0
N1219 N 0.48058 0.7094 0.92298 0.0
C1220 C 0.45839 0.70014 0.90167 0.0
C1221 C 0.46796 0.67727 0.87882 0.0
C1222 C 0.58899 0.16844 0.64726 0.0
C1223 C 0.55669 0.16093 0.65099 0.0
C1224 C 0.59905 0.19011 0.62433 0.0
C1225 C 0.57715 0.20506 0.60452 0.0
H1226 H 0.60658 0.15861 0.66305 0.0
H1227 H 0.62386 0.19638 0.62317 0.0
S1228 S 0.49122 0.18909 0.59988 0.0
N1229 N 0.50364 0.16693 0.62951 0.0
N1230 N 0.52275 0.20797 0.58664 0.0
C1231 C 0.54524 0.19631 0.60639 0.0
C1232 C 0.53495 0.17411 0.62956 0.0
C1233 C 0.42687 0.34192 0.63844 0.0
C1234 C 0.45578 0.33823 0.65457 0.0
C1235 C 0.41693 0.31988 0.61574 0.0
C1236 C 0.43527 0.29308 0.60878 0.0
H1237 H 0.41144 0.36161 0.64389 0.0
H1238 H 0.39422 0.32332 0.60442 0.0
S1239 S 0.51384 0.2735 0.6427 0.0
N1240 N 0.50342 0.30656 0.66059 0.0
N1241 N 0.48466 0.26519 0.61817 0.0
C1242 C 0.46472 0.28971 0.62388 0.0
C1243 C 0.47502 0.3123 0.64667 0.0
C1244 C 0.89036 0.58824 0.82334 0.0
C1245 C 0.89545 0.57126 0.79525 0.0
C1246 C 0.86901 0.57732 0.84623 0.0
C1247 C 0.85245 0.54871 0.84212 0.0
H1248 H 0.90211 0.61068 0.82724 0.0
H1249 H 0.86491 0.59178 0.86697 0.0
S1250 S 0.85951 0.49401 0.77381 0.0
N1251 N 0.88372 0.52344 0.76546 0.0
N1252 N 0.84393 0.5028 0.80848 0.0
C1253 C 0.8585 0.53077 0.81479 0.0
C1254 C 0.87986 0.5421 0.79132 0.0
C1255 C 0.13282 0.93163 0.84544 0.0
C1256 C 0.15265 0.95771 0.83984 0.0
C1257 C 0.11119 0.92134 0.82251 0.0
C1258 C 0.1091 0.93634 0.79288 0.0
H1259 H 0.13435 0.91878 0.86754 0.0
H1260 H 0.09655 0.90101 0.82783 0.0
S1261 S 0.15657 0.00546 0.76646 0.0
N1262 N 0.16894 0.99838 0.80272 0.0
N1263 N 0.12886 0.97888 0.75941 0.0
C1264 C 0.12868 0.96271 0.78716 0.0
C1265 C 0.15027 0.97345 0.81072 0.0
C1266 C 0.87926 0.40854 0.69714 0.0
C1267 C 0.90031 0.43039 0.71041 0.0
C1268 C 0.85594 0.41839 0.67579 0.0
C1269 C 0.85305 0.45042 0.66692 0.0
H1270 H 0.87989 0.38398 0.7044 0.0
H1271 H 0.83928 0.40091 0.66725 0.0
S1272 S 0.90718 0.51534 0.69057 0.0
N1273 N 0.92002 0.48423 0.71038 0.0
N1274 N 0.8764 0.50297 0.66996 0.0
C1275 C 0.87556 0.47202 0.67851 0.0
C1276 C 0.89915 0.46194 0.70038 0.0
C1277 C 0.1127 0.046 0.70791 0.0
C1278 C 0.10305 0.07769 0.70963 0.0
C1279 C 0.13561 0.03624 0.68618 0.0
C1280 C 0.1499 0.05796 0.66542 0.0
H1281 H 0.10282 0.02868 0.72397 0.0
H1282 H 0.14305 0.01175 0.68665 0.0
S1283 S 0.12969 0.14317 0.65801 0.0
N1284 N 0.10696 0.13026 0.68701 0.0
N1285 N 0.15022 0.11223 0.64594 0.0
C1286 C 0.13893 0.08947 0.66561 0.0
C1287 C 0.11537 0.09927 0.68772 0.0
C1288 C 0.81986 0.8878 0.59035 0.0
C1289 C 0.793 0.8948 0.57209 0.0
C1290 C 0.84235 0.86579 0.57987 0.0
C1291 C 0.8391 0.85049 0.55045 0.0
H1292 H 0.82301 0.89856 0.61338 0.0
H1293 H 0.86205 0.86021 0.59523 0.0
S1294 S 0.77439 0.8626 0.49256 0.0
N1295 N 0.76537 0.8861 0.5224 0.0
N1296 N 0.80778 0.84522 0.50255 0.0
C1297 C 0.8131 0.85844 0.53136 0.0
C1298 C 0.78998 0.88042 0.54223 0.0
C1299 C 0.8208 0.11291 0.91816 0.0
C1300 C 0.79236 0.10886 0.93493 0.0
C1301 C 0.84344 0.13508 0.92794 0.0
C1302 C 0.83877 0.15351 0.95524 0.0
H1303 H 0.82528 0.09948 0.8968 0.0
H1304 H 0.86453 0.13815 0.91375 0.0
S1305 S 0.76893 0.15138 0.00817 0.0
N1306 N 0.76121 0.12476 0.98069 0.0
N1307 N 0.80395 0.16593 0.99921 0.0
C1308 C 0.81094 0.14899 0.97279 0.0
C1309 C 0.78767 0.12683 0.96258 0.0
C1310 C 0.17285 0.35709 0.9196 0.0
C1311 C 0.16509 0.35334 0.95183 0.0
C1312 C 0.19419 0.38039 0.90967 0.0
C1313 C 0.20857 0.40056 0.93164 0.0
H1314 H 0.16343 0.34111 0.90194 0.0
H1315 H 0.20061 0.38161 0.8849 0.0
S1316 S 0.1918 0.4052 0.01741 0.0
N1317 N 0.17029 0.3751 0.00489 0.0
N1318 N 0.21071 0.41866 0.98601 0.0
C1319 C 0.19962 0.39861 0.96349 0.0
C1320 C 0.17774 0.37505 0.97365 0.0
C1321 C 0.6837 0.1369 0.03575 0.0
C1322 C 0.66359 0.1522 0.0574 0.0
C1323 C 0.7052 0.11389 0.0458 0.0
C1324 C 0.70743 0.10526 0.07774 0.0
H1325 H 0.68384 0.14358 0.01104 0.0
H1326 H 0.7207 0.10314 0.02849 0.0
S1327 S 0.65741 0.13459 0.1433 0.0
N1328 N 0.64508 0.15437 0.11199 0.0
N1329 N 0.68583 0.11106 0.13056 0.0
C1330 C 0.68609 0.11854 0.09933 0.0
C1331 C 0.66415 0.14211 0.08921 0.0
C1332 C 0.41455 0.18341 0.12169 0.0
C1333 C 0.43425 0.20849 0.11238 0.0
C1334 C 0.42451 0.16147 0.14447 0.0
C1335 C 0.45476 0.16347 0.15829 0.0
H1336 H 0.39087 0.18135 0.11214 0.0
H1337 H 0.40811 0.1432 0.15176 0.0
S1338 S 0.51648 0.22285 0.13936 0.0
N1339 N 0.48614 0.2328 0.11693 0.0
N1340 N 0.50503 0.1914 0.15929 0.0
C1341 C 0.47521 0.18756 0.14795 0.0
C1342 C 0.4649 0.21014 0.12515 0.0
C1343 C 0.5365 0.32167 0.14104 0.0
C1344 C 0.55758 0.34355 0.15458 0.0
C1345 C 0.54665 0.30023 0.11801 0.0
C1346 C 0.57817 0.29977 0.10762 0.0
H1347 H 0.51224 0.32015 0.14908 0.0
H1348 H 0.52974 0.28353 0.10855 0.0
S1349 S 0.64177 0.35481 0.13197 0.0
N1350 N 0.61084 0.36561 0.15321 0.0
N1351 N 0.62968 0.32493 0.10992 0.0
C1352 C 0.599 0.32282 0.11917 0.0
C1353 C 0.58875 0.34473 0.14275 0.0
C1354 C 0.47298 0.8081 0.3595 0.0
C1355 C 0.45553 0.83555 0.35274 0.0
C1356 C 0.46196 0.78586 0.38138 0.0
C1357 C 0.43335 0.79041 0.39774 0.0
H1358 H 0.49468 0.80304 0.34687 0.0
H1359 H 0.47588 0.76472 0.38522 0.0
S1360 S 0.3801 0.85973 0.3905 0.0
N1361 N 0.40906 0.86699 0.36534 0.0
N1362 N 0.38865 0.82539 0.40696 0.0
C1363 C 0.41633 0.81842 0.39222 0.0
C1364 C 0.42734 0.84091 0.36958 0.0
C1365 C 0.54212 0.71721 0.3798 0.0
C1366 C 0.5709 0.71329 0.39601 0.0
C1367 C 0.53096 0.69425 0.35874 0.0
C1368 C 0.54843 0.66664 0.35268 0.0
H1369 H 0.52818 0.73843 0.38307 0.0
H1370 H 0.50916 0.69887 0.34614 0.0
S1371 S 0.62432 0.64395 0.39044 0.0
N1372 N 0.61581 0.67878 0.4059 0.0
N1373 N 0.59515 0.63578 0.36582 0.0
C1374 C 0.57679 0.66191 0.36943 0.0
C1375 C 0.58795 0.68516 0.39124 0.0
C1376 C 0.15079 0.4699 0.19636 0.0
C1377 C 0.1575 0.45166 0.16941 0.0
C1378 C 0.12889 0.45957 0.21892 0.0
C1379 C 0.11248 0.43086 0.21514 0.0
H1380 H 0.16345 0.49173 0.20079 0.0
H1381 H 0.12506 0.47413 0.23964 0.0
S1382 S 0.11965 0.3756 0.14737 0.0
N1383 N 0.14485 0.40431 0.13929 0.0
N1384 N 0.1032 0.38516 0.18146 0.0
C1385 C 0.11798 0.41302 0.18764 0.0
C1386 C 0.14063 0.42334 0.16485 0.0
C1387 C 0.86684 0.03453 0.18643 0.0
C1388 C 0.85449 0.05485 0.16319 0.0
C1389 C 0.88934 0.0452 0.20821 0.0
C1390 C 0.90072 0.07638 0.20732 0.0
H1391 H 0.85813 0.01057 0.18875 0.0
H1392 H 0.89759 0.029 0.22624 0.0
S1393 S 0.87925 0.13794 0.14887 0.0
N1394 N 0.85757 0.10703 0.13892 0.0
N1395 N 0.90029 0.12673 0.17978 0.0
C1396 C 0.89025 0.09639 0.18305 0.0
C1397 C 0.86699 0.0857 0.16102 0.0
C1398 C 0.12771 0.54526 0.28542 0.0
C1399 C 0.1112 0.57391 0.28913 0.0
C1400 C 0.14919 0.53477 0.30828 0.0
C1401 C 0.15538 0.55277 0.33552 0.0
H1402 H 0.12426 0.53086 0.26452 0.0
H1403 H 0.16193 0.51299 0.30388 0.0
S1404 S 0.11703 0.62859 0.35749 0.0
N1405 N 0.10124 0.61931 0.32301 0.0
N1406 N 0.1421 0.59986 0.36579 0.0
C1407 C 0.13839 0.58103 0.34001 0.0
C1408 C 0.11616 0.59153 0.31688 0.0
C1409 C 0.86912 0.93208 0.34402 0.0
C1410 C 0.84806 0.95678 0.33701 0.0
C1411 C 0.89101 0.92139 0.3215 0.0
C1412 C 0.89209 0.93452 0.29092 0.0
H1413 H 0.86851 0.92078 0.36699 0.0
H1414 H 0.9068 0.90232 0.328 0.0
S1415 S 0.84015 0.99857 0.26045 0.0
N1416 N 0.82881 0.99353 0.29739 0.0
N1417 N 0.8693 0.97324 0.25479 0.0
C1418 C 0.8709 0.95922 0.28366 0.0
C1419 C 0.84907 0.97041 0.30678 0.0
C1420 C 0.1742 0.1421 0.41931 0.0
C1421 C 0.16521 0.14565 0.45124 0.0
C1422 C 0.19613 0.11905 0.41012 0.0
C1423 C 0.20987 0.09897 0.43256 0.0
H1424 H 0.16532 0.15807 0.40139 0.0
H1425 H 0.20347 0.11795 0.38561 0.0
S1426 S 0.1898 0.09377 0.51756 0.0
N1427 N 0.16853 0.12373 0.50437 0.0
N1428 N 0.21008 0.08064 0.48688 0.0
C1429 C 0.19969 0.1007 0.46404 0.0
C1430 C 0.17723 0.124 0.47345 0.0
C1431 C 0.21707 0.87753 0.04477 0.0
C1432 C 0.21319 0.89387 0.0735 0.0
C1433 C 0.19394 0.85669 0.03359 0.0
C1434 C 0.16617 0.85097 0.05093 0.0
H1435 H 0.23838 0.88052 0.03089 0.0
H1436 H 0.19858 0.84396 0.01185 0.0
S1437 S 0.14345 0.88939 0.12652 0.0
N1438 N 0.17851 0.90438 0.11815 0.0
N1439 N 0.13517 0.86474 0.0974 0.0
C1440 C 0.16145 0.86794 0.07918 0.0
C1441 C 0.1849 0.88951 0.09039 0.0
C1442 C 0.80966 0.6477 0.03627 0.0
C1443 C 0.83666 0.65467 0.05435 0.0
C1444 C 0.78697 0.6262 0.04711 0.0
C1445 C 0.79062 0.61045 0.0762 0.0
H1446 H 0.8053 0.65989 0.01418 0.0
H1447 H 0.76622 0.62217 0.03267 0.0
S1448 S 0.85846 0.61842 0.13122 0.0
N1449 N 0.86671 0.64289 0.10194 0.0
N1450 N 0.82425 0.60199 0.12206 0.0
C1451 C 0.81818 0.61616 0.09388 0.0
C1452 C 0.84112 0.63841 0.08303 0.0
C1453 C 0.28719 0.88154 0.96279 0.0
C1454 C 0.29088 0.89857 0.93445 0.0
C1455 C 0.31026 0.86019 0.97312 0.0
C1456 C 0.33775 0.85467 0.95527 0.0
H1457 H 0.26611 0.88441 0.97703 0.0
H1458 H 0.30582 0.84697 0.9946 0.0
S1459 S 0.35988 0.89474 0.8804 0.0
N1460 N 0.32509 0.90984 0.88962 0.0
N1461 N 0.36827 0.86927 0.90876 0.0
C1462 C 0.34225 0.87226 0.92739 0.0
C1463 C 0.3189 0.89433 0.91705 0.0
C1464 C 0.98253 0.50969 0.21881 0.0
C1465 C 0.98302 0.53423 0.24137 0.0
C1466 C 0.98224 0.47776 0.22801 0.0
C1467 C 0.98318 0.46931 0.26013 0.0
H1468 H 0.98513 0.51518 0.19392 0.0
H1469 H 0.98482 0.45981 0.20992 0.0
S1470 S 0.9794 0.5243 0.32831 0.0
N1471 N 0.97976 0.54772 0.29707 0.0
N1472 N 0.98016 0.48782 0.31439 0.0
C1473 C 0.98036 0.49353 0.28278 0.0
C1474 C 0.98001 0.52601 0.27339 0.0
C1475 C 0.02799 0.9931 0.22232 0.0
C1476 C 0.02641 0.97012 0.2464 0.0
C1477 C 0.02929 0.02554 0.22947 0.0
C1478 C 0.02829 0.03605 0.26097 0.0
H1479 H 0.02541 0.9861 0.19782 0.0
H1480 H 0.02737 0.04237 0.21027 0.0
S1481 S 0.02926 0.98553 0.33255 0.0
N1482 N 0.02856 0.96015 0.30287 0.0
N1483 N 0.02994 0.02104 0.31632 0.0
C1484 C 0.03004 0.01328 0.28515 0.0
C1485 C 0.0294 0.98028 0.27786 0.0
C1486 C 0.26933 0.97283 0.52902 0.0
C1487 C 0.23832 0.98056 0.53811 0.0
C1488 C 0.27766 0.97101 0.4969 0.0
C1489 C 0.25513 0.9761 0.47288 0.0
H1490 H 0.28793 0.97165 0.54659 0.0
H1491 H 0.3024 0.96842 0.49082 0.0
S1492 S 0.16973 0.99146 0.48464 0.0
N1493 N 0.18427 0.98918 0.5208 0.0
N1494 N 0.19978 0.98494 0.46059 0.0
C1495 C 0.2234 0.98002 0.48179 0.0
C1496 C 0.21504 0.98249 0.51442 0.0
C1497 C 0.78447 0.52847 0.51727 0.0
C1498 C 0.76055 0.52676 0.5404 0.0
C1499 C 0.77713 0.52864 0.48486 0.0
C1500 C 0.74563 0.52629 0.47458 0.0
H1501 H 0.80907 0.52677 0.52422 0.0
H1502 H 0.7963 0.52697 0.46796 0.0
S1503 S 0.6743 0.52598 0.52551 0.0
N1504 N 0.70412 0.52704 0.55069 0.0
N1505 N 0.69031 0.52638 0.48989 0.0
C1506 C 0.72151 0.52782 0.49744 0.0
C1507 C 0.72897 0.52833 0.53038 0.0
C1508 C 0.22467 0.02707 0.99743 0.0
C1509 C 0.2473 0.02502 0.97304 0.0
C1510 C 0.23366 0.02637 0.0294 0.0
C1511 C 0.26556 0.02292 0.03798 0.0
H1512 H 0.19969 0.02638 0.99178 0.0
H1513 H 0.21533 0.0249 0.04723 0.0
S1514 S 0.33422 0.02229 0.98354 0.0
N1515 N 0.3032 0.02442 0.95992 0.0
N1516 N 0.32001 0.0222 0.01991 0.0
C1517 C 0.28852 0.02438 0.01397 0.0
C1518 C 0.27941 0.0257 0.98147 0.0
C1519 C 0.77316 0.47795 0.03116 0.0
C1520 C 0.74121 0.47998 0.03999 0.0
C1521 C 0.78194 0.47789 0.99912 0.0
C1522 C 0.75908 0.47919 0.97491 0.0
H1523 H 0.79153 0.48009 0.04888 0.0
H1524 H 0.80682 0.47971 0.99331 0.0
S1525 S 0.6722 0.47816 0.98602 0.0
N1526 N 0.68664 0.47854 0.02229 0.0
N1527 N 0.70311 0.47752 0.96217 0.0
C1528 C 0.72708 0.47706 0.98354 0.0
C1529 C 0.71816 0.47772 0.01612 0.0
C1530 C 0.49343 0.27931 0.97814 0.0
C1531 C 0.47065 0.25509 0.98052 0.0
C1532 C 0.52591 0.27239 0.97742 0.0
C1533 C 0.53664 0.24105 0.9798 0.0
H1534 H 0.4862 0.30383 0.97978 0.0
H1535 H 0.54259 0.29179 0.97879 0.0
S1536 S 0.48674 0.16904 0.98138 0.0
N1537 N 0.46112 0.19849 0.98059 0.0
N1538 N 0.52212 0.18555 0.98033 0.0
C1539 C 0.51411 0.21662 0.97879 0.0
C1540 C 0.48106 0.22363 0.97885 0.0
C1541 C 0.52609 0.73306 0.52834 0.0
C1542 C 0.53498 0.76495 0.52563 0.0
C1543 C 0.49403 0.72434 0.5286 0.0
C1544 C 0.46987 0.74723 0.52682 0.0
H1545 H 0.54376 0.71461 0.52659 0.0
H1546 H 0.48817 0.69943 0.52729 0.0
S1547 S 0.48117 0.8341 0.52606 0.0
N1548 N 0.51741 0.81958 0.52596 0.0
N1549 N 0.45725 0.80325 0.52735 0.0
C1550 C 0.47857 0.77924 0.52829 0.0
C1551 C 0.51117 0.78809 0.52742 0.0
C1552 C 0.01191 0.71867 0.48143 0.0
C1553 C 0.03527 0.74243 0.48054 0.0
C1554 C 0.97958 0.72622 0.4803 0.0
C1555 C 0.96957 0.75787 0.47898 0.0
H1556 H 0.0186 0.69434 0.48581 0.0
H1557 H 0.96251 0.7075 0.4841 0.0
S1558 S 0.0211 0.82835 0.47129 0.0
N1559 N 0.04604 0.7984 0.47377 0.0
N1560 N 0.98535 0.81268 0.47267 0.0
C1561 C 0.99264 0.78147 0.47486 0.0
C1562 C 0.02553 0.77373 0.47534 0.0
C1563 C 0.03003 0.49323 0.7785 0.0
C1564 C 0.02565 0.46978 0.75521 0.0
C1565 C 0.02941 0.52555 0.77078 0.0
C1566 C 0.02365 0.53544 0.73959 0.0
H1567 H 0.03117 0.48661 0.80321 0.0
H1568 H 0.02992 0.54271 0.7898 0.0
S1569 S 0.01553 0.48364 0.66933 0.0
N1570 N 0.01977 0.45882 0.69917 0.0
N1571 N 0.01773 0.51943 0.68478 0.0
C1572 C 0.02249 0.51227 0.71574 0.0
C1573 C 0.02374 0.47942 0.72351 0.0
C1574 C 0.97411 0.02603 0.73309 0.0
C1575 C 0.97572 0.03567 0.76484 0.0
C1576 C 0.97514 0.9938 0.72505 0.0
C1577 C 0.97711 0.97018 0.74848 0.0
H1578 H 0.97582 0.04338 0.71433 0.0
H1579 H 0.97729 0.98746 0.70032 0.0
S1580 S 0.97567 0.98329 0.83506 0.0
N1581 N 0.97488 0.01922 0.81978 0.0
N1582 N 0.97578 0.95871 0.80471 0.0
C1583 C 0.97462 0.97949 0.78025 0.0
C1584 C 0.97421 0.01229 0.78842 0.0
C1585 C 0.72777 0.02705 0.48163 0.0
C1586 C 0.75942 0.02719 0.47155 0.0
C1587 C 0.72022 0.02568 0.51397 0.0
C1588 C 0.74401 0.02512 0.53731 0.0
H1589 H 0.70888 0.02439 0.46454 0.0
H1590 H 0.69572 0.02227 0.52063 0.0
S1591 S 0.83021 0.03121 0.52308 0.0
N1592 N 0.81445 0.03108 0.48735 0.0
N1593 N 0.80023 0.02946 0.54804 0.0
C1594 C 0.77548 0.02921 0.52757 0.0
C1595 C 0.78319 0.02997 0.49466 0.0
C1596 C 0.21785 0.48001 0.49249 0.0
C1597 C 0.2418 0.47941 0.46931 0.0
C1598 C 0.22513 0.47907 0.5249 0.0
C1599 C 0.25669 0.47814 0.53519 0.0
H1600 H 0.19351 0.48404 0.48561 0.0
H1601 H 0.20622 0.4827 0.54179 0.0
S1602 S 0.32766 0.4708 0.48429 0.0
N1603 N 0.29793 0.47302 0.45908 0.0
N1604 N 0.31168 0.47216 0.51989 0.0
C1605 C 0.28052 0.47412 0.51232 0.0
C1606 C 0.27306 0.47449 0.47936 0.0
C1607 C 0.72311 0.97568 0.99471 0.0
C1608 C 0.74667 0.97721 0.97118 0.0
C1609 C 0.73096 0.97531 0.02701 0.0
C1610 C 0.76264 0.97717 0.03681 0.0
H1611 H 0.69843 0.97769 0.98819 0.0
H1612 H 0.71209 0.97731 0.04421 0.0
S1613 S 0.83317 0.97634 0.98481 0.0
N1614 N 0.80296 0.97586 0.96006 0.0
N1615 N 0.81768 0.9762 0.02066 0.0
C1616 C 0.78636 0.97529 0.01358 0.0
C1617 C 0.77839 0.97501 0.98073 0.0
C1618 C 0.28234 0.52981 0.99351 0.0
C1619 C 0.25879 0.52593 0.97025 0.0
C1620 C 0.27487 0.52927 0.02591 0.0
C1621 C 0.24367 0.52402 0.03607 0.0
H1622 H 0.30702 0.53042 0.98668 0.0
H1623 H 0.29404 0.5294 0.04289 0.0
S1624 S 0.1729 0.51712 0.9848 0.0
N1625 N 0.20261 0.52094 0.95975 0.0
N1626 N 0.18865 0.51902 0.02048 0.0
C1627 C 0.21962 0.52332 0.01308 0.0
C1628 C 0.22715 0.52453 0.98017 0.0
C1629 C 0.47978 0.73152 0.02709 0.0
C1630 C 0.47055 0.76342 0.02618 0.0
C1631 C 0.51192 0.72308 0.02634 0.0
C1632 C 0.53592 0.74622 0.02533 0.0
H1633 H 0.46222 0.713 0.02486 0.0
H1634 H 0.51794 0.69831 0.02385 0.0
S1635 S 0.52392 0.83295 0.02853 0.0
N1636 N 0.48778 0.81813 0.0285 0.0
N1637 N 0.54808 0.80228 0.02799 0.0
C1638 C 0.52696 0.77807 0.02826 0.0
C1639 C 0.49426 0.78666 0.02842 0.0
C1640 C 0.49505 0.22254 0.47791 0.0
C1641 C 0.47154 0.24613 0.4789 0.0
C1642 C 0.52734 0.23037 0.47754 0.0
C1643 C 0.53715 0.26208 0.47887 0.0
H1644 H 0.4885 0.19788 0.48026 0.0
H1645 H 0.54452 0.21152 0.47991 0.0
S1646 S 0.48524 0.33262 0.47673 0.0
N1647 N 0.46047 0.30241 0.47662 0.0
N1648 N 0.52107 0.31711 0.477 0.0
C1649 C 0.51396 0.28578 0.47657 0.0
C1650 C 0.48112 0.27782 0.47627 0.0
C1651 C 0.9807 0.224 0.52583 0.0
C1652 C 0.97164 0.25596 0.5259 0.0
C1653 C 0.01279 0.21548 0.52509 0.0
C1654 C 0.03682 0.23858 0.52509 0.0
H1655 H 0.9631 0.20565 0.52271 0.0
H1656 H 0.01877 0.19081 0.52163 0.0
S1657 S 0.02516 0.32514 0.53161 0.0
N1658 N 0.98898 0.31048 0.5306 0.0
N1659 N 0.04922 0.29441 0.53013 0.0
C1660 C 0.028 0.27031 0.52926 0.0
C1661 C 0.99536 0.27901 0.52939 0.0
C1662 C 0.47908 0.01014 0.72017 0.0
C1663 C 0.47971 0.03398 0.74345 0.0
C1664 C 0.47823 0.97799 0.72845 0.0
C1665 C 0.47876 0.96866 0.76032 0.0
H1666 H 0.48214 0.01631 0.69549 0.0
H1667 H 0.48086 0.96051 0.7099 0.0
S1668 S 0.47492 0.02169 0.83001 0.0
N1669 N 0.47593 0.04598 0.79945 0.0
N1670 N 0.47533 0.9856 0.81506 0.0
C1671 C 0.47592 0.99223 0.78363 0.0
C1672 C 0.47612 0.02494 0.77518 0.0
C1673 C 0.51817 0.51063 0.79025 0.0
C1674 C 0.51986 0.53443 0.76699 0.0
C1675 C 0.52001 0.47846 0.78217 0.0
C1676 C 0.52285 0.46903 0.75044 0.0
H1677 H 0.51277 0.51684 0.81451 0.0
H1678 H 0.51564 0.46101 0.80041 0.0
S1679 S 0.53324 0.52189 0.68134 0.0
N1680 N 0.5291 0.54626 0.71158 0.0
N1681 N 0.53148 0.48584 0.69627 0.0
C1682 C 0.52774 0.49255 0.72747 0.0
C1683 C 0.52655 0.5253 0.73578 0.0
C1684 C 0.0269 0.2308 0.02747 0.0
C1685 C 0.0366 0.26256 0.02657 0.0
C1686 C 0.99468 0.22284 0.026 0.0
C1687 C 0.97113 0.24635 0.02429 0.0
H1688 H 0.04423 0.21203 0.02562 0.0
H1689 H 0.98832 0.19816 0.02341 0.0
S1690 S 0.98436 0.33288 0.02758 0.0
N1691 N 0.02025 0.31752 0.02836 0.0
N1692 N 0.95973 0.30258 0.02662 0.0
C1693 C 0.98046 0.27806 0.02744 0.0
C1694 C 0.01326 0.28616 0.02829 0.0
C1695 C 0.52898 0.01035 0.22595 0.0
C1696 C 0.52736 0.03343 0.24996 0.0
C1697 C 0.53025 0.97794 0.23319 0.0
C1698 C 0.52922 0.96753 0.26471 0.0
H1699 H 0.52645 0.01726 0.20142 0.0
H1700 H 0.52835 0.96104 0.21403 0.0
S1701 S 0.53019 0.0183 0.33616 0.0
N1702 N 0.52948 0.04358 0.30642 0.0
N1703 N 0.53088 0.98274 0.32002 0.0
C1704 C 0.53098 0.99039 0.28883 0.0
C1705 C 0.53033 0.02337 0.28145 0.0
C1706 C 0.4752 0.47839 0.27785 0.0
C1707 C 0.47848 0.4686 0.24628 0.0
C1708 C 0.47412 0.51071 0.28561 0.0
C1709 C 0.4756 0.53424 0.26204 0.0
H1710 H 0.47714 0.46131 0.29683 0.0
H1711 H 0.47511 0.51736 0.31033 0.0
S1712 S 0.47812 0.52039 0.1756 0.0
N1713 N 0.47873 0.48459 0.19118 0.0
N1714 N 0.47576 0.54517 0.2057 0.0
C1715 C 0.47482 0.52454 0.2303 0.0
C1716 C 0.47655 0.4917 0.22243 0.0
C1717 C 0.01208 0.77918 0.9728 0.0
C1718 C 0.03585 0.75636 0.97778 0.0
C1719 C 0.97984 0.77106 0.97384 0.0
C1720 C 0.97033 0.73995 0.98068 0.0
H1721 H 0.01839 0.80393 0.97081 0.0
H1722 H 0.96246 0.78983 0.9727 0.0
S1723 S 0.02312 0.67074 0.99118 0.0
N1724 N 0.04752 0.70075 0.98575 0.0
N1725 N 0.98713 0.68561 0.98852 0.0
C1726 C 0.99384 0.71647 0.98261 0.0
C1727 C 0.02659 0.72464 0.98093 0.0
loop_
_geom_bond_atom_site_label_1
_geom_bond_atom_site_label_2
_geom_bond_distance
_geom_bond_site_symmetry_2
_ccdc_geom_bond_type
O0 Cd1 2.223 . S
O0 C8 1.315 . S
Cd1 O0 2.223 . S
Cd1 O4 2.297 1_455 S
Cd1 O5 2.439 . S
Cd1 O11 2.240 . S
Cd2 O3 2.240 . S
Cd2 O10 2.223 . S
Cd2 O12 2.297 . S
Cd2 O13 2.439 . S
O3 Cd2 2.240 . S
O3 C8 1.279 . S
O4 Cd1 2.297 1_655 S
O4 C6 1.247 1_655 S
O5 Cd1 2.439 . S
O5 C6 1.208 . S
C6 O4 1.247 1_455 S
C6 O5 1.208 . S
C7 O12 1.247 . S
C7 O13 1.208 . S
C8 O0 1.315 . S
C8 O3 1.279 . S
C9 O10 1.315 . S
C9 O11 1.279 . S
O10 Cd2 2.223 . S
O10 C9 1.315 . S
O11 Cd1 2.240 . S
O11 C9 1.279 . S
O12 Cd2 2.297 . S
O12 C7 1.247 . S
O13 Cd2 2.439 . S
O13 C7 1.208 . S
O14 Cd15 2.223 . S
O14 C22 1.315 . S
Cd15 O14 2.223 . S
Cd15 O18 2.297 1_655 S
Cd15 O19 2.439 . S
Cd15 O25 2.240 . S
Cd16 O17 2.240 . S
Cd16 O24 2.223 . S
Cd16 O26 2.297 . S
Cd16 O27 2.439 . S
O17 Cd16 2.240 . S
O17 C22 1.279 . S
O18 Cd15 2.297 1_455 S
O18 C20 1.247 1_455 S
O19 Cd15 2.439 . S
O19 C20 1.208 . S
C20 O18 1.247 1_655 S
C20 O19 1.208 . S
C21 O26 1.247 . S
C21 O27 1.208 . S
C22 O14 1.315 . S
C22 O17 1.279 . S
C23 O24 1.315 . S
C23 O25 1.279 . S
O24 Cd16 2.223 . S
O24 C23 1.315 . S
O25 Cd15 2.240 . S
O25 C23 1.279 . S
O26 Cd16 2.297 . S
O26 C21 1.247 . S
O27 Cd16 2.439 . S
O27 C21 1.208 . S
O28 Cd29 2.223 . S
O28 C36 1.315 . S
Cd29 O28 2.223 . S
Cd29 O32 2.297 1_455 S
Cd29 O33 2.439 . S
Cd29 O39 2.240 . S
Cd30 O31 2.240 . S
Cd30 O38 2.223 . S
Cd30 O40 2.297 . S
Cd30 O41 2.439 . S
O31 Cd30 2.240 . S
O31 C36 1.279 . S
O32 Cd29 2.297 1_655 S
O32 C34 1.247 1_655 S
O33 Cd29 2.439 . S
O33 C34 1.208 . S
C34 O32 1.247 1_455 S
C34 O33 1.208 . S
C35 O40 1.247 . S
C35 O41 1.208 . S
C36 O28 1.315 . S
C36 O31 1.279 . S
C37 O38 1.315 . S
C37 O39 1.279 . S
O38 Cd30 2.223 . S
O38 C37 1.315 . S
O39 Cd29 2.240 . S
O39 C37 1.279 . S
O40 Cd30 2.297 . S
O40 C35 1.247 . S
O41 Cd30 2.439 . S
O41 C35 1.208 . S
O42 Cd43 2.223 . S
O42 C50 1.315 . S
Cd43 O42 2.223 . S
Cd43 O46 2.297 1_655 S
Cd43 O47 2.439 . S
Cd43 O53 2.240 . S
Cd44 O45 2.240 . S
Cd44 O52 2.223 . S
Cd44 O54 2.297 . S
Cd44 O55 2.439 . S
O45 Cd44 2.240 . S
O45 C50 1.279 . S
O46 Cd43 2.297 1_455 S
O46 C48 1.247 1_455 S
O47 Cd43 2.439 . S
O47 C48 1.208 . S
C48 O46 1.247 1_655 S
C48 O47 1.208 . S
C49 O54 1.247 . S
C49 O55 1.208 . S
C50 O42 1.315 . S
C50 O45 1.279 . S
C51 O52 1.315 . S
C51 O53 1.279 . S
O52 Cd44 2.223 . S
O52 C51 1.315 . S
O53 Cd43 2.240 . S
O53 C51 1.279 . S
O54 Cd44 2.297 . S
O54 C49 1.247 . S
O55 Cd44 2.439 . S
O55 C49 1.208 . S
O56 Cd57 2.223 . S
O56 C64 1.315 . S
Cd57 O56 2.223 . S
Cd57 O60 2.297 1_545 S
Cd57 O61 2.439 . S
Cd57 O67 2.240 . S
Cd58 O59 2.240 . S
Cd58 O66 2.223 . S
Cd58 O68 2.297 . S
Cd58 O69 2.439 . S
O59 Cd58 2.240 . S
O59 C64 1.279 . S
O60 Cd57 2.297 1_565 S
O60 C62 1.247 1_565 S
O61 Cd57 2.439 . S
O61 C62 1.208 . S
C62 O60 1.247 1_545 S
C62 O61 1.208 . S
C63 O68 1.247 . S
C63 O69 1.208 . S
C64 O56 1.315 . S
C64 O59 1.279 . S
C65 O66 1.315 . S
C65 O67 1.279 . S
O66 Cd58 2.223 . S
O66 C65 1.315 . S
O67 Cd57 2.240 . S
O67 C65 1.279 . S
O68 Cd58 2.297 . S
O68 C63 1.247 . S
O69 Cd58 2.439 . S
O69 C63 1.208 . S
O70 Cd71 2.223 . S
O70 C78 1.315 . S
Cd71 O70 2.223 . S
Cd71 O74 2.297 . S
Cd71 O75 2.439 . S
Cd71 O81 2.240 . S
Cd72 O73 2.240 . S
Cd72 O80 2.223 . S
Cd72 O82 2.297 . S
Cd72 O83 2.439 . S
O73 Cd72 2.240 . S
O73 C78 1.279 . S
O74 Cd71 2.297 . S
O74 C76 1.247 . S
O75 Cd71 2.439 . S
O75 C76 1.208 . S
C76 O74 1.247 . S
C76 O75 1.208 . S
C77 O82 1.247 . S
C77 O83 1.208 . S
C78 O70 1.315 . S
C78 O73 1.279 . S
C79 O80 1.315 . S
C79 O81 1.279 . S
O80 Cd72 2.223 . S
O80 C79 1.315 . S
O81 Cd71 2.240 . S
O81 C79 1.279 . S
O82 Cd72 2.297 . S
O82 C77 1.247 . S
O83 Cd72 2.439 . S
O83 C77 1.208 . S
O84 Cd85 2.223 . S
O84 C92 1.315 . S
Cd85 O84 2.223 . S
Cd85 O88 2.297 1_565 S
Cd85 O89 2.439 . S
Cd85 O95 2.240 . S
Cd86 O87 2.240 . S
Cd86 O94 2.223 . S
Cd86 O96 2.297 . S
Cd86 O97 2.439 . S
O87 Cd86 2.240 . S
O87 C92 1.279 . S
O88 Cd85 2.297 1_545 S
O88 C90 1.247 1_545 S
O89 Cd85 2.439 . S
O89 C90 1.208 . S
C90 O88 1.247 1_565 S
C90 O89 1.208 . S
C91 O96 1.247 . S
C91 O97 1.208 . S
C92 O84 1.315 . S
C92 O87 1.279 . S
C93 O94 1.315 . S
C93 O95 1.279 . S
O94 Cd86 2.223 . S
O94 C93 1.315 . S
O95 Cd85 2.240 . S
O95 C93 1.279 . S
O96 Cd86 2.297 . S
O96 C91 1.247 . S
O97 Cd86 2.439 . S
O97 C91 1.208 . S
O98 Cd99 2.223 . S
O98 C106 1.315 . S
Cd99 O98 2.223 . S
Cd99 O102 2.297 . S
Cd99 O103 2.439 . S
Cd99 O109 2.240 . S
Cd100 O101 2.240 . S
Cd100 O108 2.223 . S
Cd100 O110 2.297 . S
Cd100 O111 2.439 . S
O101 Cd100 2.240 . S
O101 C106 1.279 . S
O102 Cd99 2.297 . S
O102 C104 1.247 . S
O103 Cd99 2.439 . S
O103 C104 1.208 . S
C104 O102 1.247 . S
C104 O103 1.208 . S
C105 O110 1.247 . S
C105 O111 1.208 . S
C106 O98 1.315 . S
C106 O101 1.279 . S
C107 O108 1.315 . S
C107 O109 1.279 . S
O108 Cd100 2.223 . S
O108 C107 1.315 . S
O109 Cd99 2.240 . S
O109 C107 1.279 . S
O110 Cd100 2.297 . S
O110 C105 1.247 . S
O111 Cd100 2.439 . S
O111 C105 1.208 . S
O112 Cd113 2.223 . S
O112 C120 1.315 . S
Cd113 O112 2.223 . S
Cd113 O116 2.297 1_554 S
Cd113 O117 2.439 . S
Cd113 O123 2.240 . S
Cd114 O115 2.240 . S
Cd114 O122 2.223 . S
Cd114 O124 2.297 . S
Cd114 O125 2.439 . S
O115 Cd114 2.240 . S
O115 C120 1.279 . S
O116 Cd113 2.297 1_556 S
O116 C118 1.247 1_556 S
O117 Cd113 2.439 . S
O117 C118 1.208 . S
C118 O116 1.247 1_554 S
C118 O117 1.208 . S
C119 O124 1.247 . S
C119 O125 1.208 . S
C120 O112 1.315 . S
C120 O115 1.279 . S
C121 O122 1.315 . S
C121 O123 1.279 . S
O122 Cd114 2.223 . S
O122 C121 1.315 . S
O123 Cd113 2.240 . S
O123 C121 1.279 . S
O124 Cd114 2.297 . S
O124 C119 1.247 . S
O125 Cd114 2.439 . S
O125 C119 1.208 . S
O126 Cd127 2.223 . S
O126 C134 1.315 . S
Cd127 O126 2.223 . S
Cd127 O130 2.297 . S
Cd127 O131 2.439 . S
Cd127 O137 2.240 . S
Cd128 O129 2.240 . S
Cd128 O136 2.223 . S
Cd128 O138 2.297 . S
Cd128 O139 2.439 . S
O129 Cd128 2.240 . S
O129 C134 1.279 . S
O130 Cd127 2.297 . S
O130 C132 1.247 . S
O131 Cd127 2.439 . S
O131 C132 1.208 . S
C132 O130 1.247 . S
C132 O131 1.208 . S
C133 O138 1.247 . S
C133 O139 1.208 . S
C134 O126 1.315 . S
C134 O129 1.279 . S
C135 O136 1.315 . S
C135 O137 1.279 . S
O136 Cd128 2.223 . S
O136 C135 1.315 . S
O137 Cd127 2.240 . S
O137 C135 1.279 . S
O138 Cd128 2.297 . S
O138 C133 1.247 . S
O139 Cd128 2.439 . S
O139 C133 1.208 . S
O140 Cd141 2.223 . S
O140 C148 1.315 . S
Cd141 O140 2.223 . S
Cd141 O144 2.297 . S
Cd141 O145 2.439 . S
Cd141 O151 2.240 . S
Cd142 O143 2.240 . S
Cd142 O150 2.223 . S
Cd142 O152 2.297 . S
Cd142 O153 2.439 . S
O143 Cd142 2.240 . S
O143 C148 1.279 . S
O144 Cd141 2.297 . S
O144 C146 1.247 . S
O145 Cd141 2.439 . S
O145 C146 1.208 . S
C146 O144 1.247 . S
C146 O145 1.208 . S
C147 O152 1.247 . S
C147 O153 1.208 . S
C148 O140 1.315 . S
C148 O143 1.279 . S
C149 O150 1.315 . S
C149 O151 1.279 . S
O150 Cd142 2.223 . S
O150 C149 1.315 . S
O151 Cd141 2.240 . S
O151 C149 1.279 . S
O152 Cd142 2.297 . S
O152 C147 1.247 . S
O153 Cd142 2.439 . S
O153 C147 1.208 . S
O154 Cd155 2.223 . S
O154 C162 1.315 . S
Cd155 O154 2.223 . S
Cd155 O158 2.297 . S
Cd155 O159 2.439 . S
Cd155 O165 2.240 . S
Cd156 O157 2.240 . S
Cd156 O164 2.223 . S
Cd156 O166 2.297 . S
Cd156 O167 2.439 . S
O157 Cd156 2.240 . S
O157 C162 1.279 . S
O158 Cd155 2.297 . S
O158 C160 1.247 . S
O159 Cd155 2.439 . S
O159 C160 1.208 . S
C160 O158 1.247 . S
C160 O159 1.208 . S
C161 O166 1.247 . S
C161 O167 1.208 . S
C162 O154 1.315 . S
C162 O157 1.279 . S
C163 O164 1.315 . S
C163 O165 1.279 . S
O164 Cd156 2.223 . S
O164 C163 1.315 . S
O165 Cd155 2.240 . S
O165 C163 1.279 . S
O166 Cd156 2.297 . S
O166 C161 1.247 . S
O167 Cd156 2.439 . S
O167 C161 1.208 . S
O168 Cd169 2.223 . S
O168 C176 1.315 . S
Cd169 O168 2.223 . S
Cd169 O172 2.297 1_655 S
Cd169 O173 2.439 . S
Cd169 O179 2.240 . S
Cd170 O171 2.240 . S
Cd170 O178 2.223 . S
Cd170 O180 2.297 . S
Cd170 O181 2.439 . S
O171 Cd170 2.240 . S
O171 C176 1.279 . S
O172 Cd169 2.297 1_455 S
O172 C174 1.247 1_455 S
O173 Cd169 2.439 . S
O173 C174 1.208 . S
C174 O172 1.247 1_655 S
C174 O173 1.208 . S
C175 O180 1.247 . S
C175 O181 1.208 . S
C176 O168 1.315 . S
C176 O171 1.279 . S
C177 O178 1.315 . S
C177 O179 1.279 . S
O178 Cd170 2.223 . S
O178 C177 1.315 . S
O179 Cd169 2.240 . S
O179 C177 1.279 . S
O180 Cd170 2.297 . S
O180 C175 1.247 . S
O181 Cd170 2.439 . S
O181 C175 1.208 . S
O182 Cd183 2.223 . S
O182 C190 1.315 . S
Cd183 O182 2.223 . S
Cd183 O186 2.297 1_455 S
Cd183 O187 2.439 . S
Cd183 O193 2.240 . S
Cd184 O185 2.240 . S
Cd184 O192 2.223 . S
Cd184 O194 2.297 . S
Cd184 O195 2.439 . S
O185 Cd184 2.240 . S
O185 C190 1.279 . S
O186 Cd183 2.297 1_655 S
O186 C188 1.247 1_655 S
O187 Cd183 2.439 . S
O187 C188 1.208 . S
C188 O186 1.247 1_455 S
C188 O187 1.208 . S
C189 O194 1.247 . S
C189 O195 1.208 . S
C190 O182 1.315 . S
C190 O185 1.279 . S
C191 O192 1.315 . S
C191 O193 1.279 . S
O192 Cd184 2.223 . S
O192 C191 1.315 . S
O193 Cd183 2.240 . S
O193 C191 1.279 . S
O194 Cd184 2.297 . S
O194 C189 1.247 . S
O195 Cd184 2.439 . S
O195 C189 1.208 . S
O196 Cd197 2.223 . S
O196 C204 1.315 . S
Cd197 O196 2.223 . S
Cd197 O200 2.297 1_655 S
Cd197 O201 2.439 . S
Cd197 O207 2.240 . S
Cd198 O199 2.240 . S
Cd198 O206 2.223 . S
Cd198 O208 2.297 . S
Cd198 O209 2.439 . S
O199 Cd198 2.240 . S
O199 C204 1.279 . S
O200 Cd197 2.297 1_455 S
O200 C202 1.247 1_455 S
O201 Cd197 2.439 . S
O201 C202 1.208 . S
C202 O200 1.247 1_655 S
C202 O201 1.208 . S
C203 O208 1.247 . S
C203 O209 1.208 . S
C204 O196 1.315 . S
C204 O199 1.279 . S
C205 O206 1.315 . S
C205 O207 1.279 . S
O206 Cd198 2.223 . S
O206 C205 1.315 . S
O207 Cd197 2.240 . S
O207 C205 1.279 . S
O208 Cd198 2.297 . S
O208 C203 1.247 . S
O209 Cd198 2.439 . S
O209 C203 1.208 . S
O210 Cd211 2.223 . S
O210 C218 1.315 . S
Cd211 O210 2.223 . S
Cd211 O214 2.297 1_455 S
Cd211 O215 2.439 . S
Cd211 O221 2.240 . S
Cd212 O213 2.240 . S
Cd212 O220 2.223 . S
Cd212 O222 2.297 . S
Cd212 O223 2.439 . S
O213 Cd212 2.240 . S
O213 C218 1.279 . S
O214 Cd211 2.297 1_655 S
O214 C216 1.247 1_655 S
O215 Cd211 2.439 . S
O215 C216 1.208 . S
C216 O214 1.247 1_455 S
C216 O215 1.208 . S
C217 O222 1.247 . S
C217 O223 1.208 . S
C218 O210 1.315 . S
C218 O213 1.279 . S
C219 O220 1.315 . S
C219 O221 1.279 . S
O220 Cd212 2.223 . S
O220 C219 1.315 . S
O221 Cd211 2.240 . S
O221 C219 1.279 . S
O222 Cd212 2.297 . S
O222 C217 1.247 . S
O223 Cd212 2.439 . S
O223 C217 1.208 . S
O224 Cd225 2.223 . S
O224 C232 1.315 . S
Cd225 O224 2.223 . S
Cd225 O228 2.297 1_565 S
Cd225 O229 2.439 . S
Cd225 O235 2.240 . S
Cd226 O227 2.240 . S
Cd226 O234 2.223 . S
Cd226 O236 2.297 . S
Cd226 O237 2.439 . S
O227 Cd226 2.240 . S
O227 C232 1.279 . S
O228 Cd225 2.297 1_545 S
O228 C230 1.247 1_545 S
O229 Cd225 2.439 . S
O229 C230 1.208 . S
C230 O228 1.247 1_565 S
C230 O229 1.208 . S
C231 O236 1.247 . S
C231 O237 1.208 . S
C232 O224 1.315 . S
C232 O227 1.279 . S
C233 O234 1.315 . S
C233 O235 1.279 . S
O234 Cd226 2.223 . S
O234 C233 1.315 . S
O235 Cd225 2.240 . S
O235 C233 1.279 . S
O236 Cd226 2.297 . S
O236 C231 1.247 . S
O237 Cd226 2.439 . S
O237 C231 1.208 . S
O238 Cd239 2.223 . S
O238 C246 1.315 . S
Cd239 O238 2.223 . S
Cd239 O242 2.297 . S
Cd239 O243 2.439 . S
Cd239 O249 2.240 . S
Cd240 O241 2.240 . S
Cd240 O248 2.223 . S
Cd240 O250 2.297 . S
Cd240 O251 2.439 . S
O241 Cd240 2.240 . S
O241 C246 1.279 . S
O242 Cd239 2.297 . S
O242 C244 1.247 . S
O243 Cd239 2.439 . S
O243 C244 1.208 . S
C244 O242 1.247 . S
C244 O243 1.208 . S
C245 O250 1.247 . S
C245 O251 1.208 . S
C246 O238 1.315 . S
C246 O241 1.279 . S
C247 O248 1.315 . S
C247 O249 1.279 . S
O248 Cd240 2.223 . S
O248 C247 1.315 . S
O249 Cd239 2.240 . S
O249 C247 1.279 . S
O250 Cd240 2.297 . S
O250 C245 1.247 . S
O251 Cd240 2.439 . S
O251 C245 1.208 . S
O252 Cd253 2.223 . S
O252 C260 1.315 . S
Cd253 O252 2.223 . S
Cd253 O256 2.297 1_545 S
Cd253 O257 2.439 . S
Cd253 O263 2.240 . S
Cd254 O255 2.240 . S
Cd254 O262 2.223 . S
Cd254 O264 2.297 . S
Cd254 O265 2.439 . S
O255 Cd254 2.240 . S
O255 C260 1.279 . S
O256 Cd253 2.297 1_565 S
O256 C258 1.247 1_565 S
O257 Cd253 2.439 . S
O257 C258 1.208 . S
C258 O256 1.247 1_545 S
C258 O257 1.208 . S
C259 O264 1.247 . S
C259 O265 1.208 . S
C260 O252 1.315 . S
C260 O255 1.279 . S
C261 O262 1.315 . S
C261 O263 1.279 . S
O262 Cd254 2.223 . S
O262 C261 1.315 . S
O263 Cd253 2.240 . S
O263 C261 1.279 . S
O264 Cd254 2.297 . S
O264 C259 1.247 . S
O265 Cd254 2.439 . S
O265 C259 1.208 . S
O266 Cd267 2.223 . S
O266 C274 1.315 . S
Cd267 O266 2.223 . S
Cd267 O270 2.297 . S
Cd267 O271 2.439 . S
Cd267 O277 2.240 . S
Cd268 O269 2.240 . S
Cd268 O276 2.223 . S
Cd268 O278 2.297 . S
Cd268 O279 2.439 . S
O269 Cd268 2.240 . S
O269 C274 1.279 . S
O270 Cd267 2.297 . S
O270 C272 1.247 . S
O271 Cd267 2.439 . S
O271 C272 1.208 . S
C272 O270 1.247 . S
C272 O271 1.208 . S
C273 O278 1.247 . S
C273 O279 1.208 . S
C274 O266 1.315 . S
C274 O269 1.279 . S
C275 O276 1.315 . S
C275 O277 1.279 . S
O276 Cd268 2.223 . S
O276 C275 1.315 . S
O277 Cd267 2.240 . S
O277 C275 1.279 . S
O278 Cd268 2.297 . S
O278 C273 1.247 . S
O279 Cd268 2.439 . S
O279 C273 1.208 . S
O280 Cd281 2.223 . S
O280 C288 1.315 . S
Cd281 O280 2.223 . S
Cd281 O284 2.297 1_556 S
Cd281 O285 2.439 . S
Cd281 O291 2.240 . S
Cd282 O283 2.240 . S
Cd282 O290 2.223 . S
Cd282 O292 2.297 . S
Cd282 O293 2.439 . S
O283 Cd282 2.240 . S
O283 C288 1.279 . S
O284 Cd281 2.297 1_554 S
O284 C286 1.247 1_554 S
O285 Cd281 2.439 . S
O285 C286 1.208 . S
C286 O284 1.247 1_556 S
C286 O285 1.208 . S
C287 O292 1.247 . S
C287 O293 1.208 . S
C288 O280 1.315 . S
C288 O283 1.279 . S
C289 O290 1.315 . S
C289 O291 1.279 . S
O290 Cd282 2.223 . S
O290 C289 1.315 . S
O291 Cd281 2.240 . S
O291 C289 1.279 . S
O292 Cd282 2.297 . S
O292 C287 1.247 . S
O293 Cd282 2.439 . S
O293 C287 1.208 . S
O294 Cd295 2.223 . S
O294 C302 1.315 . S
Cd295 O294 2.223 . S
Cd295 O298 2.297 . S
Cd295 O299 2.439 . S
Cd295 O305 2.240 . S
Cd296 O297 2.240 . S
Cd296 O304 2.223 . S
Cd296 O306 2.297 . S
Cd296 O307 2.439 . S
O297 Cd296 2.240 . S
O297 C302 1.279 . S
O298 Cd295 2.297 . S
O298 C300 1.247 . S
O299 Cd295 2.439 . S
O299 C300 1.208 . S
C300 O298 1.247 . S
C300 O299 1.208 . S
C301 O306 1.247 . S
C301 O307 1.208 . S
C302 O294 1.315 . S
C302 O297 1.279 . S
C303 O304 1.315 . S
C303 O305 1.279 . S
O304 Cd296 2.223 . S
O304 C303 1.315 . S
O305 Cd295 2.240 . S
O305 C303 1.279 . S
O306 Cd296 2.297 . S
O306 C301 1.247 . S
O307 Cd296 2.439 . S
O307 C301 1.208 . S
O308 Cd309 2.223 . S
O308 C316 1.315 . S
Cd309 O308 2.223 . S
Cd309 O312 2.297 . S
Cd309 O313 2.439 . S
Cd309 O319 2.240 . S
Cd310 O311 2.240 . S
Cd310 O318 2.223 . S
Cd310 O320 2.297 . S
Cd310 O321 2.439 . S
O311 Cd310 2.240 . S
O311 C316 1.279 . S
O312 Cd309 2.297 . S
O312 C314 1.247 . S
O313 Cd309 2.439 . S
O313 C314 1.208 . S
C314 O312 1.247 . S
C314 O313 1.208 . S
C315 O320 1.247 . S
C315 O321 1.208 . S
C316 O308 1.315 . S
C316 O311 1.279 . S
C317 O318 1.315 . S
C317 O319 1.279 . S
O318 Cd310 2.223 . S
O318 C317 1.315 . S
O319 Cd309 2.240 . S
O319 C317 1.279 . S
O320 Cd310 2.297 . S
O320 C315 1.247 . S
O321 Cd310 2.439 . S
O321 C315 1.208 . S
O322 Cd323 2.223 . S
O322 C330 1.315 . S
Cd323 O322 2.223 . S
Cd323 O326 2.297 . S
Cd323 O327 2.439 . S
Cd323 O333 2.240 . S
Cd324 O325 2.240 . S
Cd324 O332 2.223 . S
Cd324 O334 2.297 . S
Cd324 O335 2.439 . S
O325 Cd324 2.240 . S
O325 C330 1.279 . S
O326 Cd323 2.297 . S
O326 C328 1.247 . S
O327 Cd323 2.439 . S
O327 C328 1.208 . S
C328 O326 1.247 . S
C328 O327 1.208 . S
C329 O334 1.247 . S
C329 O335 1.208 . S
C330 O322 1.315 . S
C330 O325 1.279 . S
C331 O332 1.315 . S
C331 O333 1.279 . S
O332 Cd324 2.223 . S
O332 C331 1.315 . S
O333 Cd323 2.240 . S
O333 C331 1.279 . S
O334 Cd324 2.297 . S
O334 C329 1.247 . S
O335 Cd324 2.439 . S
O335 C329 1.208 . S
O336 Cd337 2.223 . S
O336 C344 1.315 . S
Cd337 O336 2.223 . S
Cd337 O340 2.297 . S
Cd337 O341 2.439 . S
Cd337 O347 2.240 . S
Cd338 O339 2.240 . S
Cd338 O346 2.223 . S
Cd338 O348 2.297 . S
Cd338 O349 2.439 . S
O339 Cd338 2.240 . S
O339 C344 1.279 . S
O340 Cd337 2.297 . S
O340 C342 1.247 . S
O341 Cd337 2.439 . S
O341 C342 1.208 . S
C342 O340 1.247 . S
C342 O341 1.208 . S
C343 O348 1.247 . S
C343 O349 1.208 . S
C344 O336 1.315 . S
C344 O339 1.279 . S
C345 O346 1.315 . S
C345 O347 1.279 . S
O346 Cd338 2.223 . S
O346 C345 1.315 . S
O347 Cd337 2.240 . S
O347 C345 1.279 . S
O348 Cd338 2.297 . S
O348 C343 1.247 . S
O349 Cd338 2.439 . S
O349 C343 1.208 . S
O350 Cd351 2.223 . S
O350 C358 1.315 . S
Cd351 O350 2.223 . S
Cd351 O354 2.297 . S
Cd351 O355 2.439 . S
Cd351 O361 2.240 . S
Cd352 O353 2.240 . S
Cd352 O360 2.223 . S
Cd352 O362 2.297 . S
Cd352 O363 2.439 . S
O353 Cd352 2.240 . S
O353 C358 1.279 . S
O354 Cd351 2.297 . S
O354 C356 1.247 . S
O355 Cd351 2.439 . S
O355 C356 1.208 . S
C356 O354 1.247 . S
C356 O355 1.208 . S
C357 O362 1.247 . S
C357 O363 1.208 . S
C358 O350 1.315 . S
C358 O353 1.279 . S
C359 O360 1.315 . S
C359 O361 1.279 . S
O360 Cd352 2.223 . S
O360 C359 1.315 . S
O361 Cd351 2.240 . S
O361 C359 1.279 . S
O362 Cd352 2.297 . S
O362 C357 1.247 . S
O363 Cd352 2.439 . S
O363 C357 1.208 . S
O364 Cd365 2.223 . S
O364 C372 1.315 . S
Cd365 O364 2.223 . S
Cd365 O368 2.297 . S
Cd365 O369 2.439 . S
Cd365 O375 2.240 . S
Cd366 O367 2.240 . S
Cd366 O374 2.223 . S
Cd366 O376 2.297 . S
Cd366 O377 2.439 . S
O367 Cd366 2.240 . S
O367 C372 1.279 . S
O368 Cd365 2.297 . S
O368 C370 1.247 . S
O369 Cd365 2.439 . S
O369 C370 1.208 . S
C370 O368 1.247 . S
C370 O369 1.208 . S
C371 O376 1.247 . S
C371 O377 1.208 . S
C372 O364 1.315 . S
C372 O367 1.279 . S
C373 O374 1.315 . S
C373 O375 1.279 . S
O374 Cd366 2.223 . S
O374 C373 1.315 . S
O375 Cd365 2.240 . S
O375 C373 1.279 . S
O376 Cd366 2.297 . S
O376 C371 1.247 . S
O377 Cd366 2.439 . S
O377 C371 1.208 . S
O378 Cd379 2.223 . S
O378 C386 1.315 . S
Cd379 O378 2.223 . S
Cd379 O382 2.297 . S
Cd379 O383 2.439 . S
Cd379 O389 2.240 . S
Cd380 O381 2.240 . S
Cd380 O388 2.223 . S
Cd380 O390 2.297 . S
Cd380 O391 2.439 . S
O381 Cd380 2.240 . S
O381 C386 1.279 . S
O382 Cd379 2.297 . S
O382 C384 1.247 . S
O383 Cd379 2.439 . S
O383 C384 1.208 . S
C384 O382 1.247 . S
C384 O383 1.208 . S
C385 O390 1.247 . S
C385 O391 1.208 . S
C386 O378 1.315 . S
C386 O381 1.279 . S
C387 O388 1.315 . S
C387 O389 1.279 . S
O388 Cd380 2.223 . S
O388 C387 1.315 . S
O389 Cd379 2.240 . S
O389 C387 1.279 . S
O390 Cd380 2.297 . S
O390 C385 1.247 . S
O391 Cd380 2.439 . S
O391 C385 1.208 . S
O392 Cd393 2.223 . S
O392 C400 1.315 . S
Cd393 O392 2.223 . S
Cd393 O396 2.297 . S
Cd393 O397 2.439 . S
Cd393 O403 2.240 . S
Cd394 O395 2.240 . S
Cd394 O402 2.223 . S
Cd394 O404 2.297 . S
Cd394 O405 2.439 . S
O395 Cd394 2.240 . S
O395 C400 1.279 . S
O396 Cd393 2.297 . S
O396 C398 1.247 . S
O397 Cd393 2.439 . S
O397 C398 1.208 . S
C398 O396 1.247 . S
C398 O397 1.208 . S
C399 O404 1.247 . S
C399 O405 1.208 . S
C400 O392 1.315 . S
C400 O395 1.279 . S
C401 O402 1.315 . S
C401 O403 1.279 . S
O402 Cd394 2.223 . S
O402 C401 1.315 . S
O403 Cd393 2.240 . S
O403 C401 1.279 . S
O404 Cd394 2.297 . S
O404 C399 1.247 . S
O405 Cd394 2.439 . S
O405 C399 1.208 . S
O406 Cd407 2.223 . S
O406 C414 1.315 . S
Cd407 O406 2.223 . S
Cd407 O410 2.297 1_565 S
Cd407 O411 2.439 . S
Cd407 O417 2.240 . S
Cd408 O409 2.240 . S
Cd408 O416 2.223 . S
Cd408 O418 2.297 . S
Cd408 O419 2.439 . S
O409 Cd408 2.240 . S
O409 C414 1.279 . S
O410 Cd407 2.297 1_545 S
O410 C412 1.247 1_545 S
O411 Cd407 2.439 . S
O411 C412 1.208 . S
C412 O410 1.247 1_565 S
C412 O411 1.208 . S
C413 O418 1.247 . S
C413 O419 1.208 . S
C414 O406 1.315 . S
C414 O409 1.279 . S
C415 O416 1.315 . S
C415 O417 1.279 . S
O416 Cd408 2.223 . S
O416 C415 1.315 . S
O417 Cd407 2.240 . S
O417 C415 1.279 . S
O418 Cd408 2.297 . S
O418 C413 1.247 . S
O419 Cd408 2.439 . S
O419 C413 1.208 . S
O420 Cd421 2.223 . S
O420 C428 1.315 . S
Cd421 O420 2.223 . S
Cd421 O424 2.297 . S
Cd421 O425 2.439 . S
Cd421 O431 2.240 . S
Cd422 O423 2.240 . S
Cd422 O430 2.223 . S
Cd422 O432 2.297 . S
Cd422 O433 2.439 . S
O423 Cd422 2.240 . S
O423 C428 1.279 . S
O424 Cd421 2.297 . S
O424 C426 1.247 . S
O425 Cd421 2.439 . S
O425 C426 1.208 . S
C426 O424 1.247 . S
C426 O425 1.208 . S
C427 O432 1.247 . S
C427 O433 1.208 . S
C428 O420 1.315 . S
C428 O423 1.279 . S
C429 O430 1.315 . S
C429 O431 1.279 . S
O430 Cd422 2.223 . S
O430 C429 1.315 . S
O431 Cd421 2.240 . S
O431 C429 1.279 . S
O432 Cd422 2.297 . S
O432 C427 1.247 . S
O433 Cd422 2.439 . S
O433 C427 1.208 . S
O434 Cd435 2.223 . S
O434 C442 1.315 . S
Cd435 O434 2.223 . S
Cd435 O438 2.297 1_545 S
Cd435 O439 2.439 . S
Cd435 O445 2.240 . S
Cd436 O437 2.240 . S
Cd436 O444 2.223 . S
Cd436 O446 2.297 . S
Cd436 O447 2.439 . S
O437 Cd436 2.240 . S
O437 C442 1.279 . S
O438 Cd435 2.297 1_565 S
O438 C440 1.247 1_565 S
O439 Cd435 2.439 . S
O439 C440 1.208 . S
C440 O438 1.247 1_545 S
C440 O439 1.208 . S
C441 O446 1.247 . S
C441 O447 1.208 . S
C442 O434 1.315 . S
C442 O437 1.279 . S
C443 O444 1.315 . S
C443 O445 1.279 . S
O444 Cd436 2.223 . S
O444 C443 1.315 . S
O445 Cd435 2.240 . S
O445 C443 1.279 . S
O446 Cd436 2.297 . S
O446 C441 1.247 . S
O447 Cd436 2.439 . S
O447 C441 1.208 . S
O448 Cd449 2.223 . S
O448 C456 1.315 . S
Cd449 O448 2.223 . S
Cd449 O452 2.297 . S
Cd449 O453 2.439 . S
Cd449 O459 2.240 . S
Cd450 O451 2.240 . S
Cd450 O458 2.223 . S
Cd450 O460 2.297 . S
Cd450 O461 2.439 . S
O451 Cd450 2.240 . S
O451 C456 1.279 . S
O452 Cd449 2.297 . S
O452 C454 1.247 . S
O453 Cd449 2.439 . S
O453 C454 1.208 . S
C454 O452 1.247 . S
C454 O453 1.208 . S
C455 O460 1.247 . S
C455 O461 1.208 . S
C456 O448 1.315 . S
C456 O451 1.279 . S
C457 O458 1.315 . S
C457 O459 1.279 . S
O458 Cd450 2.223 . S
O458 C457 1.315 . S
O459 Cd449 2.240 . S
O459 C457 1.279 . S
O460 Cd450 2.297 . S
O460 C455 1.247 . S
O461 Cd450 2.439 . S
O461 C455 1.208 . S
O462 Cd463 2.223 . S
O462 C470 1.315 . S
Cd463 O462 2.223 . S
Cd463 O466 2.297 1_556 S
Cd463 O467 2.439 . S
Cd463 O473 2.240 . S
Cd464 O465 2.240 . S
Cd464 O472 2.223 . S
Cd464 O474 2.297 . S
Cd464 O475 2.439 . S
O465 Cd464 2.240 . S
O465 C470 1.279 . S
O466 Cd463 2.297 1_554 S
O466 C468 1.247 1_554 S
O467 Cd463 2.439 . S
O467 C468 1.208 . S
C468 O466 1.247 1_556 S
C468 O467 1.208 . S
C469 O474 1.247 . S
C469 O475 1.208 . S
C470 O462 1.315 . S
C470 O465 1.279 . S
C471 O472 1.315 . S
C471 O473 1.279 . S
O472 Cd464 2.223 . S
O472 C471 1.315 . S
O473 Cd463 2.240 . S
O473 C471 1.279 . S
O474 Cd464 2.297 . S
O474 C469 1.247 . S
O475 Cd464 2.439 . S
O475 C469 1.208 . S
O476 Cd477 2.223 . S
O476 C484 1.315 . S
Cd477 O476 2.223 . S
Cd477 O480 2.297 1_556 S
Cd477 O481 2.439 . S
Cd477 O487 2.240 . S
Cd478 O479 2.240 . S
Cd478 O486 2.223 . S
Cd478 O488 2.297 . S
Cd478 O489 2.439 . S
O479 Cd478 2.240 . S
O479 C484 1.279 . S
O480 Cd477 2.297 1_554 S
O480 C482 1.247 1_554 S
O481 Cd477 2.439 . S
O481 C482 1.208 . S
C482 O480 1.247 1_556 S
C482 O481 1.208 . S
C483 O488 1.247 . S
C483 O489 1.208 . S
C484 O476 1.315 . S
C484 O479 1.279 . S
C485 O486 1.315 . S
C485 O487 1.279 . S
O486 Cd478 2.223 . S
O486 C485 1.315 . S
O487 Cd477 2.240 . S
O487 C485 1.279 . S
O488 Cd478 2.297 . S
O488 C483 1.247 . S
O489 Cd478 2.439 . S
O489 C483 1.208 . S
O490 Cd491 2.223 . S
O490 C498 1.315 . S
Cd491 O490 2.223 . S
Cd491 O494 2.297 1_554 S
Cd491 O495 2.439 . S
Cd491 O501 2.240 . S
Cd492 O493 2.240 . S
Cd492 O500 2.223 . S
Cd492 O502 2.297 . S
Cd492 O503 2.439 . S
O493 Cd492 2.240 . S
O493 C498 1.279 . S
O494 Cd491 2.297 1_556 S
O494 C496 1.247 1_556 S
O495 Cd491 2.439 . S
O495 C496 1.208 . S
C496 O494 1.247 1_554 S
C496 O495 1.208 . S
C497 O502 1.247 . S
C497 O503 1.208 . S
C498 O490 1.315 . S
C498 O493 1.279 . S
C499 O500 1.315 . S
C499 O501 1.279 . S
O500 Cd492 2.223 . S
O500 C499 1.315 . S
O501 Cd491 2.240 . S
O501 C499 1.279 . S
O502 Cd492 2.297 . S
O502 C497 1.247 . S
O503 Cd492 2.439 . S
O503 C497 1.208 . S
O504 Cd505 2.223 . S
O504 C512 1.315 . S
Cd505 O504 2.223 . S
Cd505 O508 2.297 . S
Cd505 O509 2.439 . S
Cd505 O515 2.240 . S
Cd506 O507 2.240 . S
Cd506 O514 2.223 . S
Cd506 O516 2.297 . S
Cd506 O517 2.439 . S
O507 Cd506 2.240 . S
O507 C512 1.279 . S
O508 Cd505 2.297 . S
O508 C510 1.247 . S
O509 Cd505 2.439 . S
O509 C510 1.208 . S
C510 O508 1.247 . S
C510 O509 1.208 . S
C511 O516 1.247 . S
C511 O517 1.208 . S
C512 O504 1.315 . S
C512 O507 1.279 . S
C513 O514 1.315 . S
C513 O515 1.279 . S
O514 Cd506 2.223 . S
O514 C513 1.315 . S
O515 Cd505 2.240 . S
O515 C513 1.279 . S
O516 Cd506 2.297 . S
O516 C511 1.247 . S
O517 Cd506 2.439 . S
O517 C511 1.208 . S
O518 Cd519 2.223 . S
O518 C526 1.315 . S
Cd519 O518 2.223 . S
Cd519 O522 2.297 . S
Cd519 O523 2.439 . S
Cd519 O529 2.240 . S
Cd520 O521 2.240 . S
Cd520 O528 2.223 . S
Cd520 O530 2.297 . S
Cd520 O531 2.439 . S
O521 Cd520 2.240 . S
O521 C526 1.279 . S
O522 Cd519 2.297 . S
O522 C524 1.247 . S
O523 Cd519 2.439 . S
O523 C524 1.208 . S
C524 O522 1.247 . S
C524 O523 1.208 . S
C525 O530 1.247 . S
C525 O531 1.208 . S
C526 O518 1.315 . S
C526 O521 1.279 . S
C527 O528 1.315 . S
C527 O529 1.279 . S
O528 Cd520 2.223 . S
O528 C527 1.315 . S
O529 Cd519 2.240 . S
O529 C527 1.279 . S
O530 Cd520 2.297 . S
O530 C525 1.247 . S
O531 Cd520 2.439 . S
O531 C525 1.208 . S
O532 Cd533 2.223 . S
O532 C540 1.315 . S
Cd533 O532 2.223 . S
Cd533 O536 2.297 . S
Cd533 O537 2.439 . S
Cd533 O543 2.240 . S
Cd534 O535 2.240 . S
Cd534 O542 2.223 . S
Cd534 O544 2.297 . S
Cd534 O545 2.439 . S
O535 Cd534 2.240 . S
O535 C540 1.279 . S
O536 Cd533 2.297 . S
O536 C538 1.247 . S
O537 Cd533 2.439 . S
O537 C538 1.208 . S
C538 O536 1.247 . S
C538 O537 1.208 . S
C539 O544 1.247 . S
C539 O545 1.208 . S
C540 O532 1.315 . S
C540 O535 1.279 . S
C541 O542 1.315 . S
C541 O543 1.279 . S
O542 Cd534 2.223 . S
O542 C541 1.315 . S
O543 Cd533 2.240 . S
O543 C541 1.279 . S
O544 Cd534 2.297 . S
O544 C539 1.247 . S
O545 Cd534 2.439 . S
O545 C539 1.208 . S
O546 Cd547 2.223 . S
O546 C554 1.315 . S
Cd547 O546 2.223 . S
Cd547 O550 2.297 . S
Cd547 O551 2.439 . S
Cd547 O557 2.240 . S
Cd548 O549 2.240 . S
Cd548 O556 2.223 . S
Cd548 O558 2.297 . S
Cd548 O559 2.439 . S
O549 Cd548 2.240 . S
O549 C554 1.279 . S
O550 Cd547 2.297 . S
O550 C552 1.247 . S
O551 Cd547 2.439 . S
O551 C552 1.208 . S
C552 O550 1.247 . S
C552 O551 1.208 . S
C553 O558 1.247 . S
C553 O559 1.208 . S
C554 O546 1.315 . S
C554 O549 1.279 . S
C555 O556 1.315 . S
C555 O557 1.279 . S
O556 Cd548 2.223 . S
O556 C555 1.315 . S
O557 Cd547 2.240 . S
O557 C555 1.279 . S
O558 Cd548 2.297 . S
O558 C553 1.247 . S
O559 Cd548 2.439 . S
O559 C553 1.208 . S
O560 Cd561 2.223 . S
O560 C568 1.315 . S
Cd561 O560 2.223 . S
Cd561 O564 2.297 . S
Cd561 O565 2.439 . S
Cd561 O571 2.240 . S
Cd562 O563 2.240 . S
Cd562 O570 2.223 . S
Cd562 O572 2.297 . S
Cd562 O573 2.439 . S
O563 Cd562 2.240 . S
O563 C568 1.279 . S
O564 Cd561 2.297 . S
O564 C566 1.247 . S
O565 Cd561 2.439 . S
O565 C566 1.208 . S
C566 O564 1.247 . S
C566 O565 1.208 . S
C567 O572 1.247 . S
C567 O573 1.208 . S
C568 O560 1.315 . S
C568 O563 1.279 . S
C569 O570 1.315 . S
C569 O571 1.279 . S
O570 Cd562 2.223 . S
O570 C569 1.315 . S
O571 Cd561 2.240 . S
O571 C569 1.279 . S
O572 Cd562 2.297 . S
O572 C567 1.247 . S
O573 Cd562 2.439 . S
O573 C567 1.208 . S
O574 Cd575 2.223 . S
O574 C582 1.315 . S
Cd575 O574 2.223 . S
Cd575 O578 2.297 1_545 S
Cd575 O579 2.439 . S
Cd575 O585 2.240 . S
Cd576 O577 2.240 . S
Cd576 O584 2.223 . S
Cd576 O586 2.297 . S
Cd576 O587 2.439 . S
O577 Cd576 2.240 . S
O577 C582 1.279 . S
O578 Cd575 2.297 1_565 S
O578 C580 1.247 1_565 S
O579 Cd575 2.439 . S
O579 C580 1.208 . S
C580 O578 1.247 1_545 S
C580 O579 1.208 . S
C581 O586 1.247 . S
C581 O587 1.208 . S
C582 O574 1.315 . S
C582 O577 1.279 . S
C583 O584 1.315 . S
C583 O585 1.279 . S
O584 Cd576 2.223 . S
O584 C583 1.315 . S
O585 Cd575 2.240 . S
O585 C583 1.279 . S
O586 Cd576 2.297 . S
O586 C581 1.247 . S
O587 Cd576 2.439 . S
O587 C581 1.208 . S
O588 Cd589 2.223 . S
O588 C596 1.315 . S
Cd589 O588 2.223 . S
Cd589 O592 2.297 . S
Cd589 O593 2.439 . S
Cd589 O599 2.240 . S
Cd590 O591 2.240 . S
Cd590 O598 2.223 . S
Cd590 O600 2.297 . S
Cd590 O601 2.439 . S
O591 Cd590 2.240 . S
O591 C596 1.279 . S
O592 Cd589 2.297 . S
O592 C594 1.247 . S
O593 Cd589 2.439 . S
O593 C594 1.208 . S
C594 O592 1.247 . S
C594 O593 1.208 . S
C595 O600 1.247 . S
C595 O601 1.208 . S
C596 O588 1.315 . S
C596 O591 1.279 . S
C597 O598 1.315 . S
C597 O599 1.279 . S
O598 Cd590 2.223 . S
O598 C597 1.315 . S
O599 Cd589 2.240 . S
O599 C597 1.279 . S
O600 Cd590 2.297 . S
O600 C595 1.247 . S
O601 Cd590 2.439 . S
O601 C595 1.208 . S
O602 Cd603 2.223 . S
O602 C610 1.315 . S
Cd603 O602 2.223 . S
Cd603 O606 2.297 1_565 S
Cd603 O607 2.439 . S
Cd603 O613 2.240 . S
Cd604 O605 2.240 . S
Cd604 O612 2.223 . S
Cd604 O614 2.297 . S
Cd604 O615 2.439 . S
O605 Cd604 2.240 . S
O605 C610 1.279 . S
O606 Cd603 2.297 1_545 S
O606 C608 1.247 1_545 S
O607 Cd603 2.439 . S
O607 C608 1.208 . S
C608 O606 1.247 1_565 S
C608 O607 1.208 . S
C609 O614 1.247 . S
C609 O615 1.208 . S
C610 O602 1.315 . S
C610 O605 1.279 . S
C611 O612 1.315 . S
C611 O613 1.279 . S
O612 Cd604 2.223 . S
O612 C611 1.315 . S
O613 Cd603 2.240 . S
O613 C611 1.279 . S
O614 Cd604 2.297 . S
O614 C609 1.247 . S
O615 Cd604 2.439 . S
O615 C609 1.208 . S
O616 Cd617 2.223 . S
O616 C624 1.315 . S
Cd617 O616 2.223 . S
Cd617 O620 2.297 . S
Cd617 O621 2.439 . S
Cd617 O627 2.240 . S
Cd618 O619 2.240 . S
Cd618 O626 2.223 . S
Cd618 O628 2.297 . S
Cd618 O629 2.439 . S
O619 Cd618 2.240 . S
O619 C624 1.279 . S
O620 Cd617 2.297 . S
O620 C622 1.247 . S
O621 Cd617 2.439 . S
O621 C622 1.208 . S
C622 O620 1.247 . S
C622 O621 1.208 . S
C623 O628 1.247 . S
C623 O629 1.208 . S
C624 O616 1.315 . S
C624 O619 1.279 . S
C625 O626 1.315 . S
C625 O627 1.279 . S
O626 Cd618 2.223 . S
O626 C625 1.315 . S
O627 Cd617 2.240 . S
O627 C625 1.279 . S
O628 Cd618 2.297 . S
O628 C623 1.247 . S
O629 Cd618 2.439 . S
O629 C623 1.208 . S
O630 Cd631 2.223 . S
O630 C638 1.315 . S
Cd631 O630 2.223 . S
Cd631 O634 2.297 1_554 S
Cd631 O635 2.439 . S
Cd631 O641 2.240 . S
Cd632 O633 2.240 . S
Cd632 O640 2.223 . S
Cd632 O642 2.297 . S
Cd632 O643 2.439 . S
O633 Cd632 2.240 . S
O633 C638 1.279 . S
O634 Cd631 2.297 1_556 S
O634 C636 1.247 1_556 S
O635 Cd631 2.439 . S
O635 C636 1.208 . S
C636 O634 1.247 1_554 S
C636 O635 1.208 . S
C637 O642 1.247 . S
C637 O643 1.208 . S
C638 O630 1.315 . S
C638 O633 1.279 . S
C639 O640 1.315 . S
C639 O641 1.279 . S
O640 Cd632 2.223 . S
O640 C639 1.315 . S
O641 Cd631 2.240 . S
O641 C639 1.279 . S
O642 Cd632 2.297 . S
O642 C637 1.247 . S
O643 Cd632 2.439 . S
O643 C637 1.208 . S
O644 Cd645 2.223 . S
O644 C652 1.315 . S
Cd645 O644 2.223 . S
Cd645 O648 2.297 1_554 S
Cd645 O649 2.439 . S
Cd645 O655 2.240 . S
Cd646 O647 2.240 . S
Cd646 O654 2.223 . S
Cd646 O656 2.297 . S
Cd646 O657 2.439 . S
O647 Cd646 2.240 . S
O647 C652 1.279 . S
O648 Cd645 2.297 1_556 S
O648 C650 1.247 1_556 S
O649 Cd645 2.439 . S
O649 C650 1.208 . S
C650 O648 1.247 1_554 S
C650 O649 1.208 . S
C651 O656 1.247 . S
C651 O657 1.208 . S
C652 O644 1.315 . S
C652 O647 1.279 . S
C653 O654 1.315 . S
C653 O655 1.279 . S
O654 Cd646 2.223 . S
O654 C653 1.315 . S
O655 Cd645 2.240 . S
O655 C653 1.279 . S
O656 Cd646 2.297 . S
O656 C651 1.247 . S
O657 Cd646 2.439 . S
O657 C651 1.208 . S
O658 Cd659 2.223 . S
O658 C666 1.315 . S
Cd659 O658 2.223 . S
Cd659 O662 2.297 1_556 S
Cd659 O663 2.439 . S
Cd659 O669 2.240 . S
Cd660 O661 2.240 . S
Cd660 O668 2.223 . S
Cd660 O670 2.297 . S
Cd660 O671 2.439 . S
O661 Cd660 2.240 . S
O661 C666 1.279 . S
O662 Cd659 2.297 1_554 S
O662 C664 1.247 1_554 S
O663 Cd659 2.439 . S
O663 C664 1.208 . S
C664 O662 1.247 1_556 S
C664 O663 1.208 . S
C665 O670 1.247 . S
C665 O671 1.208 . S
C666 O658 1.315 . S
C666 O661 1.279 . S
C667 O668 1.315 . S
C667 O669 1.279 . S
O668 Cd660 2.223 . S
O668 C667 1.315 . S
O669 Cd659 2.240 . S
O669 C667 1.279 . S
O670 Cd660 2.297 . S
O670 C665 1.247 . S
O671 Cd660 2.439 . S
O671 C665 1.208 . S
C672 C673 1.369 . S
C672 C674 1.418 1_655 S
C672 H676 0.930 . S
C673 C672 1.369 . S
C673 C682 1.429 . S
C674 C672 1.418 1_455 S
C674 C675 1.364 . S
C674 H677 0.929 . S
C675 C674 1.364 . S
C675 C681 1.428 . S
H676 C672 0.930 . S
H677 C674 0.929 . S
S678 N679 1.613 . S
S678 N680 1.610 1_655 S
N679 S678 1.613 . S
N679 C682 1.350 . S
N680 S678 1.610 1_455 S
N680 C681 1.351 . S
C681 C675 1.428 . S
C681 N680 1.351 . S
C681 C682 1.434 1_455 S
C682 C673 1.429 . S
C682 N679 1.350 . S
C682 C681 1.434 1_655 S
C683 C684 1.369 1_655 S
C683 C685 1.419 . S
C683 H687 0.930 . S
C684 C683 1.369 1_455 S
C684 C693 1.429 . S
C685 C683 1.419 . S
C685 C686 1.363 . S
C685 H688 0.929 . S
C686 C685 1.363 . S
C686 C692 1.428 1_655 S
H687 C683 0.930 . S
H688 C685 0.929 . S
S689 N690 1.613 . S
S689 N691 1.610 . S
N690 S689 1.613 . S
N690 C693 1.350 . S
N691 S689 1.610 . S
N691 C692 1.351 . S
C692 C686 1.428 1_455 S
C692 N691 1.351 . S
C692 C693 1.434 . S
C693 C684 1.429 . S
C693 N690 1.350 . S
C693 C692 1.434 . S
C694 C695 1.369 . S
C694 C696 1.419 . S
C694 H698 0.930 . S
C695 C694 1.369 . S
C695 C704 1.429 1_565 S
C696 C694 1.419 . S
C696 C697 1.363 1_565 S
C696 H699 0.929 . S
C697 C696 1.363 1_545 S
C697 C703 1.428 . S
H698 C694 0.930 . S
H699 C696 0.929 . S
S700 N701 1.613 . S
S700 N702 1.610 . S
N701 S700 1.613 . S
N701 C704 1.350 . S
N702 S700 1.610 . S
N702 C703 1.351 . S
C703 C697 1.428 . S
C703 N702 1.351 . S
C703 C704 1.434 . S
C704 C695 1.429 1_545 S
C704 N701 1.350 . S
C704 C703 1.434 . S
C705 C706 1.369 . S
C705 C707 1.419 . S
C705 H709 0.930 . S
C706 C705 1.369 . S
C706 C715 1.429 . S
C707 C705 1.419 . S
C707 C708 1.363 . S
C707 H710 0.929 . S
C708 C707 1.363 . S
C708 C714 1.428 . S
H709 C705 0.930 . S
H710 C707 0.929 . S
S711 N712 1.613 . S
S711 N713 1.610 . S
N712 S711 1.613 . S
N712 C715 1.350 . S
N713 S711 1.610 . S
N713 C714 1.351 . S
C714 C708 1.428 . S
C714 N713 1.351 . S
C714 C715 1.434 . S
C715 C706 1.429 . S
C715 N712 1.350 . S
C715 C714 1.434 . S
C716 C717 1.369 1_556 S
C716 C718 1.419 . S
C716 H720 0.930 . S
C717 C716 1.369 1_554 S
C717 C726 1.429 . S
C718 C716 1.419 . S
C718 C719 1.363 . S
C718 H721 0.929 . S
C719 C718 1.363 . S
C719 C725 1.428 1_556 S
H720 C716 0.930 . S
H721 C718 0.929 . S
S722 N723 1.613 . S
S722 N724 1.610 . S
N723 S722 1.613 . S
N723 C726 1.350 . S
N724 S722 1.610 . S
N724 C725 1.351 . S
C725 C719 1.428 1_554 S
C725 N724 1.351 . S
C725 C726 1.434 . S
C726 C717 1.429 . S
C726 N723 1.350 . S
C726 C725 1.434 . S
C727 C728 1.369 . S
C727 C729 1.419 . S
C727 H731 0.930 . S
C728 C727 1.369 . S
C728 C737 1.429 . S
C729 C727 1.419 . S
C729 C730 1.363 . S
C729 H732 0.929 . S
C730 C729 1.363 . S
C730 C736 1.428 . S
H731 C727 0.930 . S
H732 C729 0.929 . S
S733 N734 1.613 . S
S733 N735 1.610 . S
N734 S733 1.613 . S
N734 C737 1.350 . S
N735 S733 1.610 . S
N735 C736 1.351 . S
C736 C730 1.428 . S
C736 N735 1.351 . S
C736 C737 1.434 . S
C737 C728 1.429 . S
C737 N734 1.350 . S
C737 C736 1.434 . S
C738 C739 1.369 . S
C738 C740 1.419 . S
C738 H742 0.930 . S
C739 C738 1.369 . S
C739 C748 1.429 . S
C740 C738 1.419 . S
C740 C741 1.363 . S
C740 H743 0.929 . S
C741 C740 1.363 . S
C741 C747 1.428 . S
H742 C738 0.930 . S
H743 C740 0.929 . S
S744 N745 1.613 . S
S744 N746 1.610 . S
N745 S744 1.613 . S
N745 C748 1.350 . S
N746 S744 1.610 . S
N746 C747 1.351 . S
C747 C741 1.428 . S
C747 N746 1.351 . S
C747 C748 1.434 . S
C748 C739 1.429 . S
C748 N745 1.350 . S
C748 C747 1.434 . S
C749 C750 1.371 . S
C749 C751 1.417 1_455 S
C749 H753 0.930 . S
C750 C749 1.371 . S
C750 C759 1.429 . S
C751 C749 1.417 1_655 S
C751 C752 1.363 . S
C751 H754 0.929 . S
C752 C751 1.363 . S
C752 C758 1.428 . S
H753 C749 0.930 . S
H754 C751 0.929 . S
S755 N756 1.613 . S
S755 N757 1.610 . S
N756 S755 1.613 . S
N756 C759 1.350 . S
N757 S755 1.610 . S
N757 C758 1.351 1_455 S
C758 C752 1.428 . S
C758 N757 1.351 1_655 S
C758 C759 1.434 1_655 S
C759 C750 1.429 . S
C759 N756 1.350 . S
C759 C758 1.434 1_455 S
C760 C761 1.369 1_655 S
C760 C762 1.419 . S
C760 H764 0.930 . S
C761 C760 1.369 1_455 S
C761 C770 1.429 . S
C762 C760 1.419 . S
C762 C763 1.363 . S
C762 H765 0.929 . S
C763 C762 1.363 . S
C763 C769 1.428 1_655 S
H764 C760 0.930 . S
H765 C762 0.929 . S
S766 N767 1.613 . S
S766 N768 1.610 . S
N767 S766 1.613 . S
N767 C770 1.350 . S
N768 S766 1.610 . S
N768 C769 1.351 . S
C769 C763 1.428 1_455 S
C769 N768 1.351 . S
C769 C770 1.434 . S
C770 C761 1.429 . S
C770 N767 1.350 . S
C770 C769 1.434 . S
C771 C772 1.369 . S
C771 C773 1.419 . S
C771 H775 0.930 . S
C772 C771 1.369 . S
C772 C781 1.429 1_545 S
C773 C771 1.419 . S
C773 C774 1.363 1_545 S
C773 H776 0.929 . S
C774 C773 1.363 1_565 S
C774 C780 1.428 . S
H775 C771 0.930 . S
H776 C773 0.929 . S
S777 N778 1.613 . S
S777 N779 1.610 . S
N778 S777 1.613 . S
N778 C781 1.350 . S
N779 S777 1.610 . S
N779 C780 1.351 . S
C780 C774 1.428 . S
C780 N779 1.351 . S
C780 C781 1.434 . S
C781 C772 1.429 1_565 S
C781 N778 1.350 . S
C781 C780 1.434 . S
C782 C783 1.369 . S
C782 C784 1.419 . S
C782 H786 0.930 . S
C783 C782 1.369 . S
C783 C792 1.429 . S
C784 C782 1.419 . S
C784 C785 1.363 . S
C784 H787 0.929 . S
C785 C784 1.363 . S
C785 C791 1.428 . S
H786 C782 0.930 . S
H787 C784 0.929 . S
S788 N789 1.613 . S
S788 N790 1.610 . S
N789 S788 1.613 . S
N789 C792 1.350 . S
N790 S788 1.610 . S
N790 C791 1.351 . S
C791 C785 1.428 . S
C791 N790 1.351 . S
C791 C792 1.434 . S
C792 C783 1.429 . S
C792 N789 1.350 . S
C792 C791 1.434 . S
C793 C794 1.369 . S
C793 C795 1.419 . S
C793 H797 0.930 . S
C794 C793 1.369 . S
C794 C803 1.429 1_556 S
C795 C793 1.419 . S
C795 C796 1.363 1_556 S
C795 H798 0.929 . S
C796 C795 1.363 1_554 S
C796 C802 1.428 . S
H797 C793 0.930 . S
H798 C795 0.929 . S
S799 N800 1.613 . S
S799 N801 1.610 . S
N800 S799 1.613 . S
N800 C803 1.350 . S
N801 S799 1.610 . S
N801 C802 1.351 . S
C802 C796 1.428 . S
C802 N801 1.351 . S
C802 C803 1.434 . S
C803 C794 1.429 1_554 S
C803 N800 1.350 . S
C803 C802 1.434 . S
C804 C805 1.369 . S
C804 C806 1.419 . S
C804 H808 0.930 . S
C805 C804 1.369 . S
C805 C814 1.429 . S
C806 C804 1.419 . S
C806 C807 1.363 . S
C806 H809 0.929 . S
C807 C806 1.363 . S
C807 C813 1.428 . S
H808 C804 0.930 . S
H809 C806 0.929 . S
S810 N811 1.613 . S
S810 N812 1.610 . S
N811 S810 1.613 . S
N811 C814 1.350 . S
N812 S810 1.610 . S
N812 C813 1.351 . S
C813 C807 1.428 . S
C813 N812 1.351 . S
C813 C814 1.434 . S
C814 C805 1.429 . S
C814 N811 1.350 . S
C814 C813 1.434 . S
C815 C816 1.369 . S
C815 C817 1.419 . S
C815 H819 0.930 . S
C816 C815 1.369 . S
C816 C825 1.429 . S
C817 C815 1.419 . S
C817 C818 1.363 . S
C817 H820 0.929 . S
C818 C817 1.363 . S
C818 C824 1.428 . S
H819 C815 0.930 . S
H820 C817 0.929 . S
S821 N822 1.613 . S
S821 N823 1.610 . S
N822 S821 1.613 . S
N822 C825 1.350 . S
N823 S821 1.610 . S
N823 C824 1.351 . S
C824 C818 1.428 . S
C824 N823 1.351 . S
C824 C825 1.434 . S
C825 C816 1.429 . S
C825 N822 1.350 . S
C825 C824 1.434 . S
C826 C827 1.369 . S
C826 C828 1.419 . S
C826 H830 0.930 . S
C827 C826 1.369 . S
C827 C836 1.429 . S
C828 C826 1.419 . S
C828 C829 1.363 . S
C828 H831 0.929 . S
C829 C828 1.363 . S
C829 C835 1.428 . S
H830 C826 0.930 . S
H831 C828 0.929 . S
S832 N833 1.613 . S
S832 N834 1.610 . S
N833 S832 1.613 . S
N833 C836 1.350 . S
N834 S832 1.610 . S
N834 C835 1.351 . S
C835 C829 1.428 . S
C835 N834 1.351 . S
C835 C836 1.434 . S
C836 C827 1.429 . S
C836 N833 1.350 . S
C836 C835 1.434 . S
C837 C838 1.369 . S
C837 C839 1.419 . S
C837 H841 0.930 . S
C838 C837 1.369 . S
C838 C847 1.429 . S
C839 C837 1.419 . S
C839 C840 1.363 . S
C839 H842 0.929 . S
C840 C839 1.363 . S
C840 C846 1.428 . S
H841 C837 0.930 . S
H842 C839 0.929 . S
S843 N844 1.613 . S
S843 N845 1.610 . S
N844 S843 1.613 . S
N844 C847 1.350 . S
N845 S843 1.610 . S
N845 C846 1.351 . S
C846 C840 1.428 . S
C846 N845 1.351 . S
C846 C847 1.434 . S
C847 C838 1.429 . S
C847 N844 1.350 . S
C847 C846 1.434 . S
C848 C849 1.369 . S
C848 C850 1.419 . S
C848 H852 0.930 . S
C849 C848 1.369 . S
C849 C858 1.429 . S
C850 C848 1.419 . S
C850 C851 1.363 . S
C850 H853 0.929 . S
C851 C850 1.363 . S
C851 C857 1.428 . S
H852 C848 0.930 . S
H853 C850 0.929 . S
S854 N855 1.613 . S
S854 N856 1.610 . S
N855 S854 1.613 . S
N855 C858 1.350 . S
N856 S854 1.610 . S
N856 C857 1.351 . S
C857 C851 1.428 . S
C857 N856 1.351 . S
C857 C858 1.434 . S
C858 C849 1.429 . S
C858 N855 1.350 . S
C858 C857 1.434 . S
C859 C860 1.369 1_565 S
C859 C861 1.419 . S
C859 H863 0.930 . S
C860 C859 1.369 1_545 S
C860 C869 1.429 . S
C861 C859 1.419 . S
C861 C862 1.363 . S
C861 H864 0.929 . S
C862 C861 1.363 . S
C862 C868 1.428 1_565 S
H863 C859 0.930 . S
H864 C861 0.929 . S
S865 N866 1.613 . S
S865 N867 1.610 . S
N866 S865 1.613 . S
N866 C869 1.350 . S
N867 S865 1.610 . S
N867 C868 1.351 . S
C868 C862 1.428 1_545 S
C868 N867 1.351 . S
C868 C869 1.434 . S
C869 C860 1.429 . S
C869 N866 1.350 . S
C869 C868 1.434 . S
C870 C871 1.369 . S
C870 C872 1.419 . S
C870 H874 0.930 . S
C871 C870 1.369 . S
C871 C880 1.429 1_554 S
C872 C870 1.419 . S
C872 C873 1.363 1_554 S
C872 H875 0.929 . S
C873 C872 1.363 1_556 S
C873 C879 1.428 . S
H874 C870 0.930 . S
H875 C872 0.929 . S
S876 N877 1.613 . S
S876 N878 1.610 . S
N877 S876 1.613 . S
N877 C880 1.350 . S
N878 S876 1.610 . S
N878 C879 1.351 . S
C879 C873 1.428 . S
C879 N878 1.351 . S
C879 C880 1.434 . S
C880 C871 1.429 1_556 S
C880 N877 1.350 . S
C880 C879 1.434 . S
C881 C882 1.369 . S
C881 C883 1.419 . S
C881 H885 0.930 . S
C882 C881 1.369 . S
C882 C891 1.429 . S
C883 C881 1.419 . S
C883 C884 1.363 . S
C883 H886 0.929 . S
C884 C883 1.363 . S
C884 C890 1.428 . S
H885 C881 0.930 . S
H886 C883 0.929 . S
S887 N888 1.613 . S
S887 N889 1.610 . S
N888 S887 1.613 . S
N888 C891 1.350 . S
N889 S887 1.610 . S
N889 C890 1.351 . S
C890 C884 1.428 . S
C890 N889 1.351 . S
C890 C891 1.434 . S
C891 C882 1.429 . S
C891 N888 1.350 . S
C891 C890 1.434 . S
C892 C893 1.369 . S
C892 C894 1.419 . S
C892 H896 0.930 . S
C893 C892 1.369 . S
C893 C902 1.429 . S
C894 C892 1.419 . S
C894 C895 1.363 . S
C894 H897 0.929 . S
C895 C894 1.363 . S
C895 C901 1.428 . S
H896 C892 0.930 . S
H897 C894 0.929 . S
S898 N899 1.613 . S
S898 N900 1.610 . S
N899 S898 1.613 . S
N899 C902 1.350 . S
N900 S898 1.610 . S
N900 C901 1.351 . S
C901 C895 1.428 . S
C901 N900 1.351 . S
C901 C902 1.434 . S
C902 C893 1.429 . S
C902 N899 1.350 . S
C902 C901 1.434 . S
C903 C904 1.369 . S
C903 C905 1.419 . S
C903 H907 0.930 . S
C904 C903 1.369 . S
C904 C913 1.429 . S
C905 C903 1.419 . S
C905 C906 1.363 . S
C905 H908 0.929 . S
C906 C905 1.363 . S
C906 C912 1.428 . S
H907 C903 0.930 . S
H908 C905 0.929 . S
S909 N910 1.613 . S
S909 N911 1.610 . S
N910 S909 1.613 . S
N910 C913 1.350 . S
N911 S909 1.610 . S
N911 C912 1.351 . S
C912 C906 1.428 . S
C912 N911 1.351 . S
C912 C913 1.434 . S
C913 C904 1.429 . S
C913 N910 1.350 . S
C913 C912 1.434 . S
C914 C915 1.369 1_565 S
C914 C916 1.419 . S
C914 H918 0.930 . S
C915 C914 1.369 1_545 S
C915 C924 1.429 . S
C916 C914 1.419 . S
C916 C917 1.363 . S
C916 H919 0.929 . S
C917 C916 1.363 . S
C917 C923 1.428 1_565 S
H918 C914 0.930 . S
H919 C916 0.929 . S
S920 N921 1.613 . S
S920 N922 1.610 . S
N921 S920 1.613 . S
N921 C924 1.350 . S
N922 S920 1.610 . S
N922 C923 1.351 . S
C923 C917 1.428 1_545 S
C923 N922 1.351 . S
C923 C924 1.434 . S
C924 C915 1.429 . S
C924 N921 1.350 . S
C924 C923 1.434 . S
C925 C926 1.369 . S
C925 C927 1.419 . S
C925 H929 0.930 . S
C926 C925 1.369 . S
C926 C935 1.429 1_554 S
C927 C925 1.419 . S
C927 C928 1.363 1_554 S
C927 H930 0.929 . S
C928 C927 1.363 1_556 S
C928 C934 1.428 . S
H929 C925 0.930 . S
H930 C927 0.929 . S
S931 N932 1.613 . S
S931 N933 1.610 . S
N932 S931 1.613 . S
N932 C935 1.350 . S
N933 S931 1.610 . S
N933 C934 1.351 . S
C934 C928 1.428 . S
C934 N933 1.351 . S
C934 C935 1.434 . S
C935 C926 1.429 1_556 S
C935 N932 1.350 . S
C935 C934 1.434 . S
C936 C937 1.369 . S
C936 C938 1.419 . S
C936 H940 0.930 . S
C937 C936 1.369 . S
C937 C946 1.429 . S
C938 C936 1.419 . S
C938 C939 1.363 . S
C938 H941 0.929 . S
C939 C938 1.363 . S
C939 C945 1.428 . S
H940 C936 0.930 . S
H941 C938 0.929 . S
S942 N943 1.613 . S
S942 N944 1.610 . S
N943 S942 1.613 . S
N943 C946 1.350 . S
N944 S942 1.610 . S
N944 C945 1.351 . S
C945 C939 1.428 . S
C945 N944 1.351 . S
C945 C946 1.434 . S
C946 C937 1.429 . S
C946 N943 1.350 . S
C946 C945 1.434 . S
C947 C948 1.369 . S
C947 C949 1.419 . S
C947 H951 0.930 . S
C948 C947 1.369 . S
C948 C957 1.429 . S
C949 C947 1.419 . S
C949 C950 1.363 . S
C949 H952 0.929 . S
C950 C949 1.363 . S
C950 C956 1.428 . S
H951 C947 0.930 . S
H952 C949 0.929 . S
S953 N954 1.613 . S
S953 N955 1.610 . S
N954 S953 1.613 . S
N954 C957 1.350 . S
N955 S953 1.610 . S
N955 C956 1.351 . S
C956 C950 1.428 . S
C956 N955 1.351 . S
C956 C957 1.434 . S
C957 C948 1.429 . S
C957 N954 1.350 . S
C957 C956 1.434 . S
C958 C959 1.369 . S
C958 C960 1.419 . S
C958 H962 0.930 . S
C959 C958 1.369 . S
C959 C968 1.429 . S
C960 C958 1.419 . S
C960 C961 1.363 . S
C960 H963 0.929 . S
C961 C960 1.363 . S
C961 C967 1.428 . S
H962 C958 0.930 . S
H963 C960 0.929 . S
S964 N965 1.613 . S
S964 N966 1.610 . S
N965 S964 1.613 . S
N965 C968 1.350 . S
N966 S964 1.610 . S
N966 C967 1.351 . S
C967 C961 1.428 . S
C967 N966 1.351 . S
C967 C968 1.434 . S
C968 C959 1.429 . S
C968 N965 1.350 . S
C968 C967 1.434 . S
C969 C970 1.369 . S
C969 C971 1.419 . S
C969 H973 0.930 . S
C970 C969 1.369 . S
C970 C979 1.429 . S
C971 C969 1.419 . S
C971 C972 1.363 . S
C971 H974 0.929 . S
C972 C971 1.363 . S
C972 C978 1.428 . S
H973 C969 0.930 . S
H974 C971 0.929 . S
S975 N976 1.613 . S
S975 N977 1.610 . S
N976 S975 1.613 . S
N976 C979 1.350 . S
N977 S975 1.610 . S
N977 C978 1.351 . S
C978 C972 1.428 . S
C978 N977 1.351 . S
C978 C979 1.434 . S
C979 C970 1.429 . S
C979 N976 1.350 . S
C979 C978 1.434 . S
C980 C981 1.369 . S
C980 C982 1.419 . S
C980 H984 0.930 . S
C981 C980 1.369 . S
C981 C990 1.429 . S
C982 C980 1.419 . S
C982 C983 1.363 . S
C982 H985 0.929 . S
C983 C982 1.363 . S
C983 C989 1.428 . S
H984 C980 0.930 . S
H985 C982 0.929 . S
S986 N987 1.613 1_565 S
S986 N988 1.610 1_565 S
N987 S986 1.613 1_545 S
N987 C990 1.350 . S
N988 S986 1.610 1_545 S
N988 C989 1.351 . S
C989 C983 1.428 . S
C989 N988 1.351 . S
C989 C990 1.434 . S
C990 C981 1.429 . S
C990 N987 1.350 . S
C990 C989 1.434 . S
C991 C992 1.369 . S
C991 C993 1.419 . S
C991 H995 0.930 . S
C992 C991 1.369 . S
C992 C1001 1.429 . S
C993 C991 1.419 . S
C993 C994 1.363 . S
C993 H996 0.929 . S
C994 C993 1.363 . S
C994 C1000 1.428 . S
H995 C991 0.930 . S
H996 C993 0.929 . S
S997 N998 1.613 . S
S997 N999 1.610 . S
N998 S997 1.613 . S
N998 C1001 1.350 . S
N999 S997 1.610 . S
N999 C1000 1.351 . S
C1000 C994 1.428 . S
C1000 N999 1.351 . S
C1000 C1001 1.434 . S
C1001 C992 1.429 . S
C1001 N998 1.350 . S
C1001 C1000 1.434 . S
C1002 C1003 1.369 . S
C1002 C1004 1.419 . S
C1002 H1006 0.930 . S
C1003 C1002 1.369 . S
C1003 C1012 1.429 . S
C1004 C1002 1.419 . S
C1004 C1005 1.363 . S
C1004 H1007 0.929 . S
C1005 C1004 1.363 . S
C1005 C1011 1.428 . S
H1006 C1002 0.930 . S
H1007 C1004 0.929 . S
S1008 N1009 1.613 . S
S1008 N1010 1.610 . S
N1009 S1008 1.613 . S
N1009 C1012 1.350 . S
N1010 S1008 1.610 . S
N1010 C1011 1.351 . S
C1011 C1005 1.428 . S
C1011 N1010 1.351 . S
C1011 C1012 1.434 . S
C1012 C1003 1.429 . S
C1012 N1009 1.350 . S
C1012 C1011 1.434 . S
C1013 C1014 1.369 . S
C1013 C1015 1.419 . S
C1013 H1017 0.930 . S
C1014 C1013 1.369 . S
C1014 C1023 1.429 . S
C1015 C1013 1.419 . S
C1015 C1016 1.363 . S
C1015 H1018 0.929 . S
C1016 C1015 1.363 . S
C1016 C1022 1.428 . S
H1017 C1013 0.930 . S
H1018 C1015 0.929 . S
S1019 N1020 1.613 . S
S1019 N1021 1.610 . S
N1020 S1019 1.613 . S
N1020 C1023 1.350 . S
N1021 S1019 1.610 . S
N1021 C1022 1.351 . S
C1022 C1016 1.428 . S
C1022 N1021 1.351 . S
C1022 C1023 1.434 . S
C1023 C1014 1.429 . S
C1023 N1020 1.350 . S
C1023 C1022 1.434 . S
C1024 C1025 1.369 . S
C1024 C1026 1.419 . S
C1024 H1028 0.930 . S
C1025 C1024 1.369 . S
C1025 C1034 1.429 . S
C1026 C1024 1.419 . S
C1026 C1027 1.363 . S
C1026 H1029 0.929 . S
C1027 C1026 1.363 . S
C1027 C1033 1.428 . S
H1028 C1024 0.930 . S
H1029 C1026 0.929 . S
S1030 N1031 1.613 . S
S1030 N1032 1.610 . S
N1031 S1030 1.613 . S
N1031 C1034 1.350 . S
N1032 S1030 1.610 . S
N1032 C1033 1.351 . S
C1033 C1027 1.428 . S
C1033 N1032 1.351 . S
C1033 C1034 1.434 . S
C1034 C1025 1.429 . S
C1034 N1031 1.350 . S
C1034 C1033 1.434 . S
C1035 C1036 1.369 . S
C1035 C1037 1.419 . S
C1035 H1039 0.930 . S
C1036 C1035 1.369 . S
C1036 C1045 1.429 . S
C1037 C1035 1.419 . S
C1037 C1038 1.363 . S
C1037 H1040 0.929 . S
C1038 C1037 1.363 . S
C1038 C1044 1.428 . S
H1039 C1035 0.930 . S
H1040 C1037 0.929 . S
S1041 N1042 1.613 . S
S1041 N1043 1.610 . S
N1042 S1041 1.613 . S
N1042 C1045 1.350 . S
N1043 S1041 1.610 . S
N1043 C1044 1.351 . S
C1044 C1038 1.428 . S
C1044 N1043 1.351 . S
C1044 C1045 1.434 . S
C1045 C1036 1.429 . S
C1045 N1042 1.350 . S
C1045 C1044 1.434 . S
C1046 C1047 1.369 . S
C1046 C1048 1.419 . S
C1046 H1050 0.930 . S
C1047 C1046 1.369 . S
C1047 C1056 1.429 . S
C1048 C1046 1.419 . S
C1048 C1049 1.363 . S
C1048 H1051 0.929 . S
C1049 C1048 1.363 . S
C1049 C1055 1.428 . S
H1050 C1046 0.930 . S
H1051 C1048 0.929 . S
S1052 N1053 1.613 . S
S1052 N1054 1.610 . S
N1053 S1052 1.613 . S
N1053 C1056 1.350 . S
N1054 S1052 1.610 . S
N1054 C1055 1.351 . S
C1055 C1049 1.428 . S
C1055 N1054 1.351 . S
C1055 C1056 1.434 . S
C1056 C1047 1.429 . S
C1056 N1053 1.350 . S
C1056 C1055 1.434 . S
C1057 C1058 1.369 . S
C1057 C1059 1.419 . S
C1057 H1061 0.930 . S
C1058 C1057 1.369 . S
C1058 C1067 1.429 . S
C1059 C1057 1.419 . S
C1059 C1060 1.363 . S
C1059 H1062 0.929 . S
C1060 C1059 1.363 . S
C1060 C1066 1.428 . S
H1061 C1057 0.930 . S
H1062 C1059 0.929 . S
S1063 N1064 1.613 . S
S1063 N1065 1.610 . S
N1064 S1063 1.613 . S
N1064 C1067 1.350 . S
N1065 S1063 1.610 . S
N1065 C1066 1.351 . S
C1066 C1060 1.428 . S
C1066 N1065 1.351 . S
C1066 C1067 1.434 . S
C1067 C1058 1.429 . S
C1067 N1064 1.350 . S
C1067 C1066 1.434 . S
C1068 C1069 1.369 . S
C1068 C1070 1.419 . S
C1068 H1072 0.930 . S
C1069 C1068 1.369 . S
C1069 C1078 1.429 . S
C1070 C1068 1.419 . S
C1070 C1071 1.363 . S
C1070 H1073 0.929 . S
C1071 C1070 1.363 . S
C1071 C1077 1.428 . S
H1072 C1068 0.930 . S
H1073 C1070 0.929 . S
S1074 N1075 1.613 . S
S1074 N1076 1.610 . S
N1075 S1074 1.613 . S
N1075 C1078 1.350 . S
N1076 S1074 1.610 . S
N1076 C1077 1.351 . S
C1077 C1071 1.428 . S
C1077 N1076 1.351 . S
C1077 C1078 1.434 . S
C1078 C1069 1.429 . S
C1078 N1075 1.350 . S
C1078 C1077 1.434 . S
C1079 C1080 1.369 . S
C1079 C1081 1.419 . S
C1079 H1083 0.930 . S
C1080 C1079 1.369 . S
C1080 C1089 1.429 . S
C1081 C1079 1.419 . S
C1081 C1082 1.363 . S
C1081 H1084 0.929 . S
C1082 C1081 1.363 . S
C1082 C1088 1.428 . S
H1083 C1079 0.930 . S
H1084 C1081 0.929 . S
S1085 N1086 1.613 . S
S1085 N1087 1.610 . S
N1086 S1085 1.613 . S
N1086 C1089 1.350 . S
N1087 S1085 1.610 . S
N1087 C1088 1.351 . S
C1088 C1082 1.428 . S
C1088 N1087 1.351 . S
C1088 C1089 1.434 . S
C1089 C1080 1.429 . S
C1089 N1086 1.350 . S
C1089 C1088 1.434 . S
C1090 C1091 1.369 . S
C1090 C1092 1.419 . S
C1090 H1094 0.930 . S
C1091 C1090 1.369 . S
C1091 C1100 1.429 . S
C1092 C1090 1.419 . S
C1092 C1093 1.363 . S
C1092 H1095 0.929 . S
C1093 C1092 1.363 . S
C1093 C1099 1.428 . S
H1094 C1090 0.930 . S
H1095 C1092 0.929 . S
S1096 N1097 1.613 . S
S1096 N1098 1.610 . S
N1097 S1096 1.613 . S
N1097 C1100 1.350 . S
N1098 S1096 1.610 . S
N1098 C1099 1.351 . S
C1099 C1093 1.428 . S
C1099 N1098 1.351 . S
C1099 C1100 1.434 . S
C1100 C1091 1.429 . S
C1100 N1097 1.350 . S
C1100 C1099 1.434 . S
C1101 C1102 1.369 . S
C1101 C1103 1.419 . S
C1101 H1105 0.930 . S
C1102 C1101 1.369 . S
C1102 C1111 1.429 . S
C1103 C1101 1.419 . S
C1103 C1104 1.363 . S
C1103 H1106 0.929 . S
C1104 C1103 1.363 . S
C1104 C1110 1.428 . S
H1105 C1101 0.930 . S
H1106 C1103 0.929 . S
S1107 N1108 1.613 . S
S1107 N1109 1.610 . S
N1108 S1107 1.613 . S
N1108 C1111 1.350 . S
N1109 S1107 1.610 . S
N1109 C1110 1.351 . S
C1110 C1104 1.428 . S
C1110 N1109 1.351 . S
C1110 C1111 1.434 . S
C1111 C1102 1.429 . S
C1111 N1108 1.350 . S
C1111 C1110 1.434 . S
C1112 C1113 1.369 . S
C1112 C1114 1.419 . S
C1112 H1116 0.930 . S
C1113 C1112 1.369 . S
C1113 C1122 1.429 . S
C1114 C1112 1.419 . S
C1114 C1115 1.363 . S
C1114 H1117 0.929 . S
C1115 C1114 1.363 . S
C1115 C1121 1.428 . S
H1116 C1112 0.930 . S
H1117 C1114 0.929 . S
S1118 N1119 1.613 . S
S1118 N1120 1.610 . S
N1119 S1118 1.613 . S
N1119 C1122 1.350 . S
N1120 S1118 1.610 . S
N1120 C1121 1.351 . S
C1121 C1115 1.428 . S
C1121 N1120 1.351 . S
C1121 C1122 1.434 . S
C1122 C1113 1.429 . S
C1122 N1119 1.350 . S
C1122 C1121 1.434 . S
C1123 C1124 1.369 . S
C1123 C1125 1.419 . S
C1123 H1127 0.930 . S
C1124 C1123 1.369 . S
C1124 C1133 1.429 . S
C1125 C1123 1.419 . S
C1125 C1126 1.363 . S
C1125 H1128 0.929 . S
C1126 C1125 1.363 . S
C1126 C1132 1.428 . S
H1127 C1123 0.930 . S
H1128 C1125 0.929 . S
S1129 N1130 1.613 . S
S1129 N1131 1.610 . S
N1130 S1129 1.613 . S
N1130 C1133 1.350 . S
N1131 S1129 1.610 . S
N1131 C1132 1.351 . S
C1132 C1126 1.428 . S
C1132 N1131 1.351 . S
C1132 C1133 1.434 . S
C1133 C1124 1.429 . S
C1133 N1130 1.350 . S
C1133 C1132 1.434 . S
C1134 C1135 1.369 . S
C1134 C1136 1.419 . S
C1134 H1138 0.930 . S
C1135 C1134 1.369 . S
C1135 C1144 1.429 . S
C1136 C1134 1.419 . S
C1136 C1137 1.363 . S
C1136 H1139 0.929 . S
C1137 C1136 1.363 . S
C1137 C1143 1.428 . S
H1138 C1134 0.930 . S
H1139 C1136 0.929 . S
S1140 N1141 1.613 . S
S1140 N1142 1.610 . S
N1141 S1140 1.613 . S
N1141 C1144 1.350 . S
N1142 S1140 1.610 . S
N1142 C1143 1.351 . S
C1143 C1137 1.428 . S
C1143 N1142 1.351 . S
C1143 C1144 1.434 . S
C1144 C1135 1.429 . S
C1144 N1141 1.350 . S
C1144 C1143 1.434 . S
C1145 C1146 1.369 . S
C1145 C1147 1.419 . S
C1145 H1149 0.930 . S
C1146 C1145 1.369 . S
C1146 C1155 1.429 . S
C1147 C1145 1.419 . S
C1147 C1148 1.363 . S
C1147 H1150 0.929 . S
C1148 C1147 1.363 . S
C1148 C1154 1.428 . S
H1149 C1145 0.930 . S
H1150 C1147 0.929 . S
S1151 N1152 1.613 . S
S1151 N1153 1.610 . S
N1152 S1151 1.613 . S
N1152 C1155 1.350 . S
N1153 S1151 1.610 . S
N1153 C1154 1.351 . S
C1154 C1148 1.428 . S
C1154 N1153 1.351 . S
C1154 C1155 1.434 . S
C1155 C1146 1.429 . S
C1155 N1152 1.350 . S
C1155 C1154 1.434 . S
C1156 C1157 1.369 . S
C1156 C1158 1.419 . S
C1156 H1160 0.930 . S
C1157 C1156 1.369 . S
C1157 C1166 1.429 . S
C1158 C1156 1.419 . S
C1158 C1159 1.363 . S
C1158 H1161 0.929 . S
C1159 C1158 1.363 . S
C1159 C1165 1.428 . S
H1160 C1156 0.930 . S
H1161 C1158 0.929 . S
S1162 N1163 1.613 . S
S1162 N1164 1.610 . S
N1163 S1162 1.613 . S
N1163 C1166 1.350 . S
N1164 S1162 1.610 . S
N1164 C1165 1.351 . S
C1165 C1159 1.428 . S
C1165 N1164 1.351 . S
C1165 C1166 1.434 . S
C1166 C1157 1.429 . S
C1166 N1163 1.350 . S
C1166 C1165 1.434 . S
C1167 C1168 1.369 . S
C1167 C1169 1.419 . S
C1167 H1171 0.930 . S
C1168 C1167 1.369 . S
C1168 C1177 1.429 . S
C1169 C1167 1.419 . S
C1169 C1170 1.363 . S
C1169 H1172 0.929 . S
C1170 C1169 1.363 . S
C1170 C1176 1.428 . S
H1171 C1167 0.930 . S
H1172 C1169 0.929 . S
S1173 N1174 1.613 . S
S1173 N1175 1.610 . S
N1174 S1173 1.613 . S
N1174 C1177 1.350 . S
N1175 S1173 1.610 . S
N1175 C1176 1.351 . S
C1176 C1170 1.428 . S
C1176 N1175 1.351 . S
C1176 C1177 1.434 . S
C1177 C1168 1.429 . S
C1177 N1174 1.350 . S
C1177 C1176 1.434 . S
C1178 C1179 1.369 . S
C1178 C1180 1.419 . S
C1178 H1182 0.930 . S
C1179 C1178 1.369 . S
C1179 C1188 1.429 . S
C1180 C1178 1.419 . S
C1180 C1181 1.363 . S
C1180 H1183 0.929 . S
C1181 C1180 1.363 . S
C1181 C1187 1.428 . S
H1182 C1178 0.930 . S
H1183 C1180 0.929 . S
S1184 N1185 1.613 . S
S1184 N1186 1.610 . S
N1185 S1184 1.613 . S
N1185 C1188 1.350 . S
N1186 S1184 1.610 . S
N1186 C1187 1.351 . S
C1187 C1181 1.428 . S
C1187 N1186 1.351 . S
C1187 C1188 1.434 . S
C1188 C1179 1.429 . S
C1188 N1185 1.350 . S
C1188 C1187 1.434 . S
C1189 C1190 1.369 . S
C1189 C1191 1.419 . S
C1189 H1193 0.930 . S
C1190 C1189 1.369 . S
C1190 C1199 1.429 . S
C1191 C1189 1.419 . S
C1191 C1192 1.363 . S
C1191 H1194 0.929 . S
C1192 C1191 1.363 . S
C1192 C1198 1.428 . S
H1193 C1189 0.930 . S
H1194 C1191 0.929 . S
S1195 N1196 1.613 . S
S1195 N1197 1.610 . S
N1196 S1195 1.613 . S
N1196 C1199 1.350 . S
N1197 S1195 1.610 . S
N1197 C1198 1.351 . S
C1198 C1192 1.428 . S
C1198 N1197 1.351 . S
C1198 C1199 1.434 . S
C1199 C1190 1.429 . S
C1199 N1196 1.350 . S
C1199 C1198 1.434 . S
C1200 C1201 1.369 . S
C1200 C1202 1.419 . S
C1200 H1204 0.930 . S
C1201 C1200 1.369 . S
C1201 C1210 1.429 . S
C1202 C1200 1.419 . S
C1202 C1203 1.363 . S
C1202 H1205 0.929 . S
C1203 C1202 1.363 . S
C1203 C1209 1.428 . S
H1204 C1200 0.930 . S
H1205 C1202 0.929 . S
S1206 N1207 1.613 . S
S1206 N1208 1.610 . S
N1207 S1206 1.613 . S
N1207 C1210 1.350 . S
N1208 S1206 1.610 . S
N1208 C1209 1.351 . S
C1209 C1203 1.428 . S
C1209 N1208 1.351 . S
C1209 C1210 1.434 . S
C1210 C1201 1.429 . S
C1210 N1207 1.350 . S
C1210 C1209 1.434 . S
C1211 C1212 1.369 . S
C1211 C1213 1.419 . S
C1211 H1215 0.930 . S
C1212 C1211 1.369 . S
C1212 C1221 1.429 . S
C1213 C1211 1.419 . S
C1213 C1214 1.363 . S
C1213 H1216 0.929 . S
C1214 C1213 1.363 . S
C1214 C1220 1.428 . S
H1215 C1211 0.930 . S
H1216 C1213 0.929 . S
S1217 N1218 1.613 . S
S1217 N1219 1.610 . S
N1218 S1217 1.613 . S
N1218 C1221 1.350 . S
N1219 S1217 1.610 . S
N1219 C1220 1.351 . S
C1220 C1214 1.428 . S
C1220 N1219 1.351 . S
C1220 C1221 1.434 . S
C1221 C1212 1.429 . S
C1221 N1218 1.350 . S
C1221 C1220 1.434 . S
C1222 C1223 1.369 . S
C1222 C1224 1.419 . S
C1222 H1226 0.930 . S
C1223 C1222 1.369 . S
C1223 C1232 1.429 . S
C1224 C1222 1.419 . S
C1224 C1225 1.363 . S
C1224 H1227 0.929 . S
C1225 C1224 1.363 . S
C1225 C1231 1.428 . S
H1226 C1222 0.930 . S
H1227 C1224 0.929 . S
S1228 N1229 1.613 . S
S1228 N1230 1.610 . S
N1229 S1228 1.613 . S
N1229 C1232 1.350 . S
N1230 S1228 1.610 . S
N1230 C1231 1.351 . S
C1231 C1225 1.428 . S
C1231 N1230 1.351 . S
C1231 C1232 1.434 . S
C1232 C1223 1.429 . S
C1232 N1229 1.350 . S
C1232 C1231 1.434 . S
C1233 C1234 1.369 . S
C1233 C1235 1.419 . S
C1233 H1237 0.930 . S
C1234 C1233 1.369 . S
C1234 C1243 1.429 . S
C1235 C1233 1.419 . S
C1235 C1236 1.363 . S
C1235 H1238 0.929 . S
C1236 C1235 1.363 . S
C1236 C1242 1.428 . S
H1237 C1233 0.930 . S
H1238 C1235 0.929 . S
S1239 N1240 1.613 . S
S1239 N1241 1.610 . S
N1240 S1239 1.613 . S
N1240 C1243 1.350 . S
N1241 S1239 1.610 . S
N1241 C1242 1.351 . S
C1242 C1236 1.428 . S
C1242 N1241 1.351 . S
C1242 C1243 1.434 . S
C1243 C1234 1.429 . S
C1243 N1240 1.350 . S
C1243 C1242 1.434 . S
C1244 C1245 1.369 . S
C1244 C1246 1.419 . S
C1244 H1248 0.930 . S
C1245 C1244 1.369 . S
C1245 C1254 1.429 . S
C1246 C1244 1.419 . S
C1246 C1247 1.363 . S
C1246 H1249 0.929 . S
C1247 C1246 1.363 . S
C1247 C1253 1.428 . S
H1248 C1244 0.930 . S
H1249 C1246 0.929 . S
S1250 N1251 1.613 . S
S1250 N1252 1.610 . S
N1251 S1250 1.613 . S
N1251 C1254 1.350 . S
N1252 S1250 1.610 . S
N1252 C1253 1.351 . S
C1253 C1247 1.428 . S
C1253 N1252 1.351 . S
C1253 C1254 1.434 . S
C1254 C1245 1.429 . S
C1254 N1251 1.350 . S
C1254 C1253 1.434 . S
C1255 C1256 1.369 . S
C1255 C1257 1.419 . S
C1255 H1259 0.930 . S
C1256 C1255 1.369 . S
C1256 C1265 1.429 . S
C1257 C1255 1.419 . S
C1257 C1258 1.363 . S
C1257 H1260 0.929 . S
C1258 C1257 1.363 . S
C1258 C1264 1.428 . S
H1259 C1255 0.930 . S
H1260 C1257 0.929 . S
S1261 N1262 1.613 1_545 S
S1261 N1263 1.610 1_545 S
N1262 S1261 1.613 1_565 S
N1262 C1265 1.350 . S
N1263 S1261 1.610 1_565 S
N1263 C1264 1.351 . S
C1264 C1258 1.428 . S
C1264 N1263 1.351 . S
C1264 C1265 1.434 . S
C1265 C1256 1.429 . S
C1265 N1262 1.350 . S
C1265 C1264 1.434 . S
C1266 C1267 1.369 . S
C1266 C1268 1.419 . S
C1266 H1270 0.930 . S
C1267 C1266 1.369 . S
C1267 C1276 1.429 . S
C1268 C1266 1.419 . S
C1268 C1269 1.363 . S
C1268 H1271 0.929 . S
C1269 C1268 1.363 . S
C1269 C1275 1.428 . S
H1270 C1266 0.930 . S
H1271 C1268 0.929 . S
S1272 N1273 1.613 . S
S1272 N1274 1.610 . S
N1273 S1272 1.613 . S
N1273 C1276 1.350 . S
N1274 S1272 1.610 . S
N1274 C1275 1.351 . S
C1275 C1269 1.428 . S
C1275 N1274 1.351 . S
C1275 C1276 1.434 . S
C1276 C1267 1.429 . S
C1276 N1273 1.350 . S
C1276 C1275 1.434 . S
C1277 C1278 1.369 . S
C1277 C1279 1.419 . S
C1277 H1281 0.930 . S
C1278 C1277 1.369 . S
C1278 C1287 1.429 . S
C1279 C1277 1.419 . S
C1279 C1280 1.363 . S
C1279 H1282 0.929 . S
C1280 C1279 1.363 . S
C1280 C1286 1.428 . S
H1281 C1277 0.930 . S
H1282 C1279 0.929 . S
S1283 N1284 1.613 . S
S1283 N1285 1.610 . S
N1284 S1283 1.613 . S
N1284 C1287 1.350 . S
N1285 S1283 1.610 . S
N1285 C1286 1.351 . S
C1286 C1280 1.428 . S
C1286 N1285 1.351 . S
C1286 C1287 1.434 . S
C1287 C1278 1.429 . S
C1287 N1284 1.350 . S
C1287 C1286 1.434 . S
C1288 C1289 1.369 . S
C1288 C1290 1.419 . S
C1288 H1292 0.930 . S
C1289 C1288 1.369 . S
C1289 C1298 1.429 . S
C1290 C1288 1.419 . S
C1290 C1291 1.363 . S
C1290 H1293 0.929 . S
C1291 C1290 1.363 . S
C1291 C1297 1.428 . S
H1292 C1288 0.930 . S
H1293 C1290 0.929 . S
S1294 N1295 1.613 . S
S1294 N1296 1.610 . S
N1295 S1294 1.613 . S
N1295 C1298 1.350 . S
N1296 S1294 1.610 . S
N1296 C1297 1.351 . S
C1297 C1291 1.428 . S
C1297 N1296 1.351 . S
C1297 C1298 1.434 . S
C1298 C1289 1.429 . S
C1298 N1295 1.350 . S
C1298 C1297 1.434 . S
C1299 C1300 1.369 . S
C1299 C1301 1.419 . S
C1299 H1303 0.930 . S
C1300 C1299 1.369 . S
C1300 C1309 1.429 . S
C1301 C1299 1.419 . S
C1301 C1302 1.363 . S
C1301 H1304 0.929 . S
C1302 C1301 1.363 . S
C1302 C1308 1.428 . S
H1303 C1299 0.930 . S
H1304 C1301 0.929 . S
S1305 N1306 1.613 . S
S1305 N1307 1.610 . S
N1306 S1305 1.613 . S
N1306 C1309 1.350 . S
N1307 S1305 1.610 . S
N1307 C1308 1.351 . S
C1308 C1302 1.428 . S
C1308 N1307 1.351 . S
C1308 C1309 1.434 . S
C1309 C1300 1.429 . S
C1309 N1306 1.350 . S
C1309 C1308 1.434 . S
C1310 C1311 1.369 . S
C1310 C1312 1.419 . S
C1310 H1314 0.930 . S
C1311 C1310 1.369 . S
C1311 C1320 1.429 . S
C1312 C1310 1.419 . S
C1312 C1313 1.363 . S
C1312 H1315 0.929 . S
C1313 C1312 1.363 . S
C1313 C1319 1.428 . S
H1314 C1310 0.930 . S
H1315 C1312 0.929 . S
S1316 N1317 1.613 . S
S1316 N1318 1.610 . S
N1317 S1316 1.613 . S
N1317 C1320 1.350 . S
N1318 S1316 1.610 . S
N1318 C1319 1.351 . S
C1319 C1313 1.428 . S
C1319 N1318 1.351 . S
C1319 C1320 1.434 . S
C1320 C1311 1.429 . S
C1320 N1317 1.350 . S
C1320 C1319 1.434 . S
C1321 C1322 1.369 . S
C1321 C1323 1.419 . S
C1321 H1325 0.930 . S
C1322 C1321 1.369 . S
C1322 C1331 1.429 . S
C1323 C1321 1.419 . S
C1323 C1324 1.363 . S
C1323 H1326 0.929 . S
C1324 C1323 1.363 . S
C1324 C1330 1.428 . S
H1325 C1321 0.930 . S
H1326 C1323 0.929 . S
S1327 N1328 1.613 . S
S1327 N1329 1.610 . S
N1328 S1327 1.613 . S
N1328 C1331 1.350 . S
N1329 S1327 1.610 . S
N1329 C1330 1.351 . S
C1330 C1324 1.428 . S
C1330 N1329 1.351 . S
C1330 C1331 1.434 . S
C1331 C1322 1.429 . S
C1331 N1328 1.350 . S
C1331 C1330 1.434 . S
C1332 C1333 1.369 . S
C1332 C1334 1.419 . S
C1332 H1336 0.930 . S
C1333 C1332 1.369 . S
C1333 C1342 1.429 . S
C1334 C1332 1.419 . S
C1334 C1335 1.363 . S
C1334 H1337 0.929 . S
C1335 C1334 1.363 . S
C1335 C1341 1.428 . S
H1336 C1332 0.930 . S
H1337 C1334 0.929 . S
S1338 N1339 1.613 . S
S1338 N1340 1.610 . S
N1339 S1338 1.613 . S
N1339 C1342 1.350 . S
N1340 S1338 1.610 . S
N1340 C1341 1.351 . S
C1341 C1335 1.428 . S
C1341 N1340 1.351 . S
C1341 C1342 1.434 . S
C1342 C1333 1.429 . S
C1342 N1339 1.350 . S
C1342 C1341 1.434 . S
C1343 C1344 1.369 . S
C1343 C1345 1.419 . S
C1343 H1347 0.930 . S
C1344 C1343 1.369 . S
C1344 C1353 1.429 . S
C1345 C1343 1.419 . S
C1345 C1346 1.363 . S
C1345 H1348 0.929 . S
C1346 C1345 1.363 . S
C1346 C1352 1.428 . S
H1347 C1343 0.930 . S
H1348 C1345 0.929 . S
S1349 N1350 1.613 . S
S1349 N1351 1.610 . S
N1350 S1349 1.613 . S
N1350 C1353 1.350 . S
N1351 S1349 1.610 . S
N1351 C1352 1.351 . S
C1352 C1346 1.428 . S
C1352 N1351 1.351 . S
C1352 C1353 1.434 . S
C1353 C1344 1.429 . S
C1353 N1350 1.350 . S
C1353 C1352 1.434 . S
C1354 C1355 1.369 . S
C1354 C1356 1.419 . S
C1354 H1358 0.930 . S
C1355 C1354 1.369 . S
C1355 C1364 1.429 . S
C1356 C1354 1.419 . S
C1356 C1357 1.363 . S
C1356 H1359 0.929 . S
C1357 C1356 1.363 . S
C1357 C1363 1.428 . S
H1358 C1354 0.930 . S
H1359 C1356 0.929 . S
S1360 N1361 1.613 . S
S1360 N1362 1.610 . S
N1361 S1360 1.613 . S
N1361 C1364 1.350 . S
N1362 S1360 1.610 . S
N1362 C1363 1.351 . S
C1363 C1357 1.428 . S
C1363 N1362 1.351 . S
C1363 C1364 1.434 . S
C1364 C1355 1.429 . S
C1364 N1361 1.350 . S
C1364 C1363 1.434 . S
C1365 C1366 1.369 . S
C1365 C1367 1.419 . S
C1365 H1369 0.930 . S
C1366 C1365 1.369 . S
C1366 C1375 1.429 . S
C1367 C1365 1.419 . S
C1367 C1368 1.363 . S
C1367 H1370 0.929 . S
C1368 C1367 1.363 . S
C1368 C1374 1.428 . S
H1369 C1365 0.930 . S
H1370 C1367 0.929 . S
S1371 N1372 1.613 . S
S1371 N1373 1.610 . S
N1372 S1371 1.613 . S
N1372 C1375 1.350 . S
N1373 S1371 1.610 . S
N1373 C1374 1.351 . S
C1374 C1368 1.428 . S
C1374 N1373 1.351 . S
C1374 C1375 1.434 . S
C1375 C1366 1.429 . S
C1375 N1372 1.350 . S
C1375 C1374 1.434 . S
C1376 C1377 1.369 . S
C1376 C1378 1.419 . S
C1376 H1380 0.930 . S
C1377 C1376 1.369 . S
C1377 C1386 1.429 . S
C1378 C1376 1.419 . S
C1378 C1379 1.363 . S
C1378 H1381 0.929 . S
C1379 C1378 1.363 . S
C1379 C1385 1.428 . S
H1380 C1376 0.930 . S
H1381 C1378 0.929 . S
S1382 N1383 1.613 . S
S1382 N1384 1.610 . S
N1383 S1382 1.613 . S
N1383 C1386 1.350 . S
N1384 S1382 1.610 . S
N1384 C1385 1.351 . S
C1385 C1379 1.428 . S
C1385 N1384 1.351 . S
C1385 C1386 1.434 . S
C1386 C1377 1.429 . S
C1386 N1383 1.350 . S
C1386 C1385 1.434 . S
C1387 C1388 1.369 . S
C1387 C1389 1.419 . S
C1387 H1391 0.930 . S
C1388 C1387 1.369 . S
C1388 C1397 1.429 . S
C1389 C1387 1.419 . S
C1389 C1390 1.363 . S
C1389 H1392 0.929 . S
C1390 C1389 1.363 . S
C1390 C1396 1.428 . S
H1391 C1387 0.930 . S
H1392 C1389 0.929 . S
S1393 N1394 1.613 . S
S1393 N1395 1.610 . S
N1394 S1393 1.613 . S
N1394 C1397 1.350 . S
N1395 S1393 1.610 . S
N1395 C1396 1.351 . S
C1396 C1390 1.428 . S
C1396 N1395 1.351 . S
C1396 C1397 1.434 . S
C1397 C1388 1.429 . S
C1397 N1394 1.350 . S
C1397 C1396 1.434 . S
C1398 C1399 1.369 . S
C1398 C1400 1.419 . S
C1398 H1402 0.930 . S
C1399 C1398 1.369 . S
C1399 C1408 1.429 . S
C1400 C1398 1.419 . S
C1400 C1401 1.363 . S
C1400 H1403 0.929 . S
C1401 C1400 1.363 . S
C1401 C1407 1.428 . S
H1402 C1398 0.930 . S
H1403 C1400 0.929 . S
S1404 N1405 1.613 . S
S1404 N1406 1.610 . S
N1405 S1404 1.613 . S
N1405 C1408 1.350 . S
N1406 S1404 1.610 . S
N1406 C1407 1.351 . S
C1407 C1401 1.428 . S
C1407 N1406 1.351 . S
C1407 C1408 1.434 . S
C1408 C1399 1.429 . S
C1408 N1405 1.350 . S
C1408 C1407 1.434 . S
C1409 C1410 1.369 . S
C1409 C1411 1.419 . S
C1409 H1413 0.930 . S
C1410 C1409 1.369 . S
C1410 C1419 1.429 . S
C1411 C1409 1.419 . S
C1411 C1412 1.363 . S
C1411 H1414 0.929 . S
C1412 C1411 1.363 . S
C1412 C1418 1.428 . S
H1413 C1409 0.930 . S
H1414 C1411 0.929 . S
S1415 N1416 1.613 . S
S1415 N1417 1.610 . S
N1416 S1415 1.613 . S
N1416 C1419 1.350 . S
N1417 S1415 1.610 . S
N1417 C1418 1.351 . S
C1418 C1412 1.428 . S
C1418 N1417 1.351 . S
C1418 C1419 1.434 . S
C1419 C1410 1.429 . S
C1419 N1416 1.350 . S
C1419 C1418 1.434 . S
C1420 C1421 1.369 . S
C1420 C1422 1.419 . S
C1420 H1424 0.930 . S
C1421 C1420 1.369 . S
C1421 C1430 1.429 . S
C1422 C1420 1.419 . S
C1422 C1423 1.363 . S
C1422 H1425 0.929 . S
C1423 C1422 1.363 . S
C1423 C1429 1.428 . S
H1424 C1420 0.930 . S
H1425 C1422 0.929 . S
S1426 N1427 1.613 . S
S1426 N1428 1.610 . S
N1427 S1426 1.613 . S
N1427 C1430 1.350 . S
N1428 S1426 1.610 . S
N1428 C1429 1.351 . S
C1429 C1423 1.428 . S
C1429 N1428 1.351 . S
C1429 C1430 1.434 . S
C1430 C1421 1.429 . S
C1430 N1427 1.350 . S
C1430 C1429 1.434 . S
C1431 C1432 1.369 . S
C1431 C1433 1.419 . S
C1431 H1435 0.930 . S
C1432 C1431 1.369 . S
C1432 C1441 1.429 . S
C1433 C1431 1.419 . S
C1433 C1434 1.363 . S
C1433 H1436 0.929 . S
C1434 C1433 1.363 . S
C1434 C1440 1.428 . S
H1435 C1431 0.930 . S
H1436 C1433 0.929 . S
S1437 N1438 1.613 . S
S1437 N1439 1.610 . S
N1438 S1437 1.613 . S
N1438 C1441 1.350 . S
N1439 S1437 1.610 . S
N1439 C1440 1.351 . S
C1440 C1434 1.428 . S
C1440 N1439 1.351 . S
C1440 C1441 1.434 . S
C1441 C1432 1.429 . S
C1441 N1438 1.350 . S
C1441 C1440 1.434 . S
C1442 C1443 1.369 . S
C1442 C1444 1.419 . S
C1442 H1446 0.930 . S
C1443 C1442 1.369 . S
C1443 C1452 1.429 . S
C1444 C1442 1.419 . S
C1444 C1445 1.363 . S
C1444 H1447 0.929 . S
C1445 C1444 1.363 . S
C1445 C1451 1.428 . S
H1446 C1442 0.930 . S
H1447 C1444 0.929 . S
S1448 N1449 1.613 . S
S1448 N1450 1.610 . S
N1449 S1448 1.613 . S
N1449 C1452 1.350 . S
N1450 S1448 1.610 . S
N1450 C1451 1.351 . S
C1451 C1445 1.428 . S
C1451 N1450 1.351 . S
C1451 C1452 1.434 . S
C1452 C1443 1.429 . S
C1452 N1449 1.350 . S
C1452 C1451 1.434 . S
C1453 C1454 1.369 . S
C1453 C1455 1.419 . S
C1453 H1457 0.930 . S
C1454 C1453 1.369 . S
C1454 C1463 1.429 . S
C1455 C1453 1.419 . S
C1455 C1456 1.363 . S
C1455 H1458 0.929 . S
C1456 C1455 1.363 . S
C1456 C1462 1.428 . S
H1457 C1453 0.930 . S
H1458 C1455 0.929 . S
S1459 N1460 1.613 . S
S1459 N1461 1.610 . S
N1460 S1459 1.613 . S
N1460 C1463 1.350 . S
N1461 S1459 1.610 . S
N1461 C1462 1.351 . S
C1462 C1456 1.428 . S
C1462 N1461 1.351 . S
C1462 C1463 1.434 . S
C1463 C1454 1.429 . S
C1463 N1460 1.350 . S
C1463 C1462 1.434 . S
C1464 C1465 1.369 . S
C1464 C1466 1.419 . S
C1464 H1468 0.930 . S
C1465 C1464 1.369 . S
C1465 C1474 1.429 . S
C1466 C1464 1.419 . S
C1466 C1467 1.363 . S
C1466 H1469 0.929 . S
C1467 C1466 1.363 . S
C1467 C1473 1.428 . S
H1468 C1464 0.930 . S
H1469 C1466 0.929 . S
S1470 N1471 1.613 . S
S1470 N1472 1.610 . S
N1471 S1470 1.613 . S
N1471 C1474 1.350 . S
N1472 S1470 1.610 . S
N1472 C1473 1.351 . S
C1473 C1467 1.428 . S
C1473 N1472 1.351 . S
C1473 C1474 1.434 . S
C1474 C1465 1.429 . S
C1474 N1471 1.350 . S
C1474 C1473 1.434 . S
C1475 C1476 1.369 . S
C1475 C1477 1.419 . S
C1475 H1479 0.930 . S
C1476 C1475 1.369 . S
C1476 C1485 1.429 1_565 S
C1477 C1475 1.419 . S
C1477 C1478 1.363 1_565 S
C1477 H1480 0.929 . S
C1478 C1477 1.363 1_545 S
C1478 C1484 1.428 . S
H1479 C1475 0.930 . S
H1480 C1477 0.929 . S
S1481 N1482 1.613 1_455 S
S1481 N1483 1.610 1_455 S
N1482 S1481 1.613 1_655 S
N1482 C1485 1.350 . S
N1483 S1481 1.610 1_655 S
N1483 C1484 1.351 . S
C1484 C1478 1.428 . S
C1484 N1483 1.351 . S
C1484 C1485 1.434 . S
C1485 C1476 1.429 1_545 S
C1485 N1482 1.350 . S
C1485 C1484 1.434 . S
C1486 C1487 1.369 . S
C1486 C1488 1.419 . S
C1486 H1490 0.930 . S
C1487 C1486 1.369 . S
C1487 C1496 1.429 . S
C1488 C1486 1.419 . S
C1488 C1489 1.363 . S
C1488 H1491 0.929 . S
C1489 C1488 1.363 . S
C1489 C1495 1.428 . S
H1490 C1486 0.930 . S
H1491 C1488 0.929 . S
S1492 N1493 1.613 . S
S1492 N1494 1.610 . S
N1493 S1492 1.613 . S
N1493 C1496 1.350 . S
N1494 S1492 1.610 . S
N1494 C1495 1.351 . S
C1495 C1489 1.428 . S
C1495 N1494 1.351 . S
C1495 C1496 1.434 . S
C1496 C1487 1.429 . S
C1496 N1493 1.350 . S
C1496 C1495 1.434 . S
C1497 C1498 1.369 . S
C1497 C1499 1.419 . S
C1497 H1501 0.930 . S
C1498 C1497 1.369 . S
C1498 C1507 1.429 . S
C1499 C1497 1.419 . S
C1499 C1500 1.363 . S
C1499 H1502 0.929 . S
C1500 C1499 1.363 . S
C1500 C1506 1.428 . S
H1501 C1497 0.930 . S
H1502 C1499 0.929 . S
S1503 N1504 1.613 . S
S1503 N1505 1.610 . S
N1504 S1503 1.613 . S
N1504 C1507 1.350 . S
N1505 S1503 1.610 . S
N1505 C1506 1.351 . S
C1506 C1500 1.428 . S
C1506 N1505 1.351 . S
C1506 C1507 1.434 . S
C1507 C1498 1.429 . S
C1507 N1504 1.350 . S
C1507 C1506 1.434 . S
C1508 C1509 1.369 . S
C1508 C1510 1.416 . S
C1508 H1512 0.930 . S
C1509 C1508 1.369 . S
C1509 C1518 1.411 1_556 S
C1510 C1508 1.416 . S
C1510 C1511 1.366 1_556 S
C1510 H1513 0.929 . S
C1511 C1510 1.366 1_554 S
C1511 C1517 1.428 . S
H1512 C1508 0.930 . S
H1513 C1510 0.929 . S
S1514 N1515 1.613 . S
S1514 N1516 1.610 . S
N1515 S1514 1.613 . S
N1515 C1518 1.352 . S
N1516 S1514 1.610 . S
N1516 C1517 1.351 . S
C1517 C1511 1.428 . S
C1517 N1516 1.351 . S
C1517 C1518 1.451 . S
C1518 C1509 1.411 1_554 S
C1518 N1515 1.352 . S
C1518 C1517 1.451 . S
C1519 C1520 1.369 . S
C1519 C1521 1.419 1_554 S
C1519 H1523 0.930 . S
C1520 C1519 1.369 . S
C1520 C1529 1.429 . S
C1521 C1519 1.419 1_556 S
C1521 C1522 1.363 . S
C1521 H1524 0.929 . S
C1522 C1521 1.363 . S
C1522 C1528 1.428 . S
H1523 C1519 0.930 . S
H1524 C1521 0.929 . S
S1525 N1526 1.613 . S
S1525 N1527 1.610 1_554 S
N1526 S1525 1.613 . S
N1526 C1529 1.350 . S
N1527 S1525 1.610 1_556 S
N1527 C1528 1.351 . S
C1528 C1522 1.428 . S
C1528 N1527 1.351 . S
C1528 C1529 1.434 1_556 S
C1529 C1520 1.429 . S
C1529 N1526 1.350 . S
C1529 C1528 1.434 1_554 S
C1530 C1531 1.369 . S
C1530 C1532 1.419 . S
C1530 H1534 0.930 1_554 S
C1531 C1530 1.369 . S
C1531 C1540 1.429 . S
C1532 C1530 1.419 . S
C1532 C1533 1.363 . S
C1532 H1535 0.929 1_554 S
C1533 C1532 1.363 . S
C1533 C1539 1.428 . S
H1534 C1530 0.930 1_556 S
H1535 C1532 0.929 1_556 S
S1536 N1537 1.613 . S
S1536 N1538 1.610 . S
N1537 S1536 1.613 . S
N1537 C1540 1.350 . S
N1538 S1536 1.610 . S
N1538 C1539 1.351 . S
C1539 C1533 1.428 . S
C1539 N1538 1.351 . S
C1539 C1540 1.434 . S
C1540 C1531 1.429 . S
C1540 N1537 1.350 . S
C1540 C1539 1.434 . S
C1541 C1542 1.369 . S
C1541 C1543 1.419 . S
C1541 H1545 0.930 . S
C1542 C1541 1.369 . S
C1542 C1551 1.429 . S
C1543 C1541 1.419 . S
C1543 C1544 1.363 . S
C1543 H1546 0.929 . S
C1544 C1543 1.363 . S
C1544 C1550 1.428 . S
H1545 C1541 0.930 . S
H1546 C1543 0.929 . S
S1547 N1548 1.613 . S
S1547 N1549 1.610 . S
N1548 S1547 1.613 . S
N1548 C1551 1.350 . S
N1549 S1547 1.610 . S
N1549 C1550 1.351 . S
C1550 C1544 1.428 . S
C1550 N1549 1.351 . S
C1550 C1551 1.434 . S
C1551 C1542 1.429 . S
C1551 N1548 1.350 . S
C1551 C1550 1.434 . S
C1552 C1553 1.369 . S
C1552 C1554 1.419 . S
C1552 H1556 0.930 . S
C1553 C1552 1.369 . S
C1553 C1562 1.429 1_455 S
C1554 C1552 1.419 . S
C1554 C1555 1.363 1_455 S
C1554 H1557 0.929 . S
C1555 C1554 1.363 1_655 S
C1555 C1561 1.428 . S
H1556 C1552 0.930 . S
H1557 C1554 0.929 . S
S1558 N1559 1.613 . S
S1558 N1560 1.610 . S
N1559 S1558 1.613 . S
N1559 C1562 1.350 . S
N1560 S1558 1.610 . S
N1560 C1561 1.351 . S
C1561 C1555 1.428 . S
C1561 N1560 1.351 . S
C1561 C1562 1.434 . S
C1562 C1553 1.429 1_655 S
C1562 N1559 1.350 . S
C1562 C1561 1.434 . S
C1563 C1564 1.369 . S
C1563 C1565 1.419 . S
C1563 H1567 0.930 1_655 S
C1564 C1563 1.369 . S
C1564 C1573 1.429 . S
C1565 C1563 1.419 . S
C1565 C1566 1.363 . S
C1565 H1568 0.929 1_655 S
C1566 C1565 1.363 . S
C1566 C1572 1.428 . S
H1567 C1563 0.930 1_455 S
H1568 C1565 0.929 1_455 S
S1569 N1570 1.613 . S
S1569 N1571 1.610 . S
N1570 S1569 1.613 . S
N1570 C1573 1.350 . S
N1571 S1569 1.610 . S
N1571 C1572 1.351 . S
C1572 C1566 1.428 . S
C1572 N1571 1.351 . S
C1572 C1573 1.434 . S
C1573 C1564 1.429 . S
C1573 N1570 1.350 . S
C1573 C1572 1.434 . S
C1574 C1575 1.369 1_565 S
C1574 C1576 1.419 . S
C1574 H1578 0.930 . S
C1575 C1574 1.369 1_545 S
C1575 C1584 1.429 . S
C1576 C1574 1.419 . S
C1576 C1577 1.363 . S
C1576 H1579 0.929 . S
C1577 C1576 1.363 . S
C1577 C1583 1.428 1_565 S
H1578 C1574 0.930 . S
H1579 C1576 0.929 . S
S1580 N1581 1.613 1_655 S
S1580 N1582 1.610 1_655 S
N1581 S1580 1.613 1_455 S
N1581 C1584 1.350 . S
N1582 S1580 1.610 1_455 S
N1582 C1583 1.351 . S
C1583 C1577 1.428 1_545 S
C1583 N1582 1.351 . S
C1583 C1584 1.434 . S
C1584 C1575 1.429 . S
C1584 N1581 1.350 . S
C1584 C1583 1.434 . S
C1585 C1586 1.369 . S
C1585 C1587 1.419 . S
C1585 H1589 0.930 . S
C1586 C1585 1.369 . S
C1586 C1595 1.429 . S
C1587 C1585 1.419 . S
C1587 C1588 1.363 . S
C1587 H1590 0.929 . S
C1588 C1587 1.363 . S
C1588 C1594 1.428 . S
H1589 C1585 0.930 . S
H1590 C1587 0.929 . S
S1591 N1592 1.613 . S
S1591 N1593 1.610 . S
N1592 S1591 1.613 . S
N1592 C1595 1.350 . S
N1593 S1591 1.610 . S
N1593 C1594 1.351 . S
C1594 C1588 1.428 . S
C1594 N1593 1.351 . S
C1594 C1595 1.434 . S
C1595 C1586 1.429 . S
C1595 N1592 1.350 . S
C1595 C1594 1.434 . S
C1596 C1597 1.369 . S
C1596 C1598 1.419 . S
C1596 H1600 0.930 . S
C1597 C1596 1.369 . S
C1597 C1606 1.429 . S
C1598 C1596 1.419 . S
C1598 C1599 1.363 . S
C1598 H1601 0.929 . S
C1599 C1598 1.363 . S
C1599 C1605 1.428 . S
H1600 C1596 0.930 . S
H1601 C1598 0.929 . S
S1602 N1603 1.613 . S
S1602 N1604 1.610 . S
N1603 S1602 1.613 . S
N1603 C1606 1.350 . S
N1604 S1602 1.610 . S
N1604 C1605 1.351 . S
C1605 C1599 1.428 . S
C1605 N1604 1.351 . S
C1605 C1606 1.434 . S
C1606 C1597 1.429 . S
C1606 N1603 1.350 . S
C1606 C1605 1.434 . S
C1607 C1608 1.369 . S
C1607 C1609 1.419 1_556 S
C1607 H1611 0.930 . S
C1608 C1607 1.369 . S
C1608 C1617 1.429 . S
C1609 C1607 1.419 1_554 S
C1609 C1610 1.363 . S
C1609 H1612 0.929 . S
C1610 C1609 1.363 . S
C1610 C1616 1.428 . S
H1611 C1607 0.930 . S
H1612 C1609 0.929 . S
S1613 N1614 1.613 1_554 S
S1613 N1615 1.610 . S
N1614 S1613 1.613 1_556 S
N1614 C1617 1.350 1_565 S
N1615 S1613 1.610 . S
N1615 C1616 1.351 1_565 S
C1616 C1610 1.428 . S
C1616 N1615 1.351 1_545 S
C1616 C1617 1.434 1_554 S
C1617 C1608 1.429 . S
C1617 N1614 1.350 1_545 S
C1617 C1616 1.434 1_556 S
C1618 C1619 1.369 . S
C1618 C1620 1.419 . S
C1618 H1622 0.930 . S
C1619 C1618 1.369 . S
C1619 C1628 1.429 1_556 S
C1620 C1618 1.419 . S
C1620 C1621 1.363 1_556 S
C1620 H1623 0.929 . S
C1621 C1620 1.363 1_554 S
C1621 C1627 1.428 . S
H1622 C1618 0.930 . S
H1623 C1620 0.929 . S
S1624 N1625 1.613 . S
S1624 N1626 1.610 . S
N1625 S1624 1.613 . S
N1625 C1628 1.350 . S
N1626 S1624 1.610 . S
N1626 C1627 1.351 . S
C1627 C1621 1.428 . S
C1627 N1626 1.351 . S
C1627 C1628 1.434 . S
C1628 C1619 1.429 1_554 S
C1628 N1625 1.350 . S
C1628 C1627 1.434 . S
C1629 C1630 1.369 . S
C1629 C1631 1.419 . S
C1629 H1633 0.930 1_556 S
C1630 C1629 1.369 . S
C1630 C1639 1.429 . S
C1631 C1629 1.419 . S
C1631 C1632 1.363 . S
C1631 H1634 0.929 1_556 S
C1632 C1631 1.363 . S
C1632 C1638 1.428 . S
H1633 C1629 0.930 1_554 S
H1634 C1631 0.929 1_554 S
S1635 N1636 1.613 . S
S1635 N1637 1.610 . S
N1636 S1635 1.613 . S
N1636 C1639 1.350 . S
N1637 S1635 1.610 . S
N1637 C1638 1.351 . S
C1638 C1632 1.428 . S
C1638 N1637 1.351 . S
C1638 C1639 1.434 . S
C1639 C1630 1.429 . S
C1639 N1636 1.350 . S
C1639 C1638 1.434 . S
C1640 C1641 1.369 . S
C1640 C1642 1.419 . S
C1640 H1644 0.930 . S
C1641 C1640 1.369 . S
C1641 C1650 1.429 . S
C1642 C1640 1.419 . S
C1642 C1643 1.363 . S
C1642 H1645 0.929 . S
C1643 C1642 1.363 . S
C1643 C1649 1.428 . S
H1644 C1640 0.930 . S
H1645 C1642 0.929 . S
S1646 N1647 1.613 . S
S1646 N1648 1.610 . S
N1647 S1646 1.613 . S
N1647 C1650 1.350 . S
N1648 S1646 1.610 . S
N1648 C1649 1.351 . S
C1649 C1643 1.428 . S
C1649 N1648 1.351 . S
C1649 C1650 1.434 . S
C1650 C1641 1.429 . S
C1650 N1647 1.350 . S
C1650 C1649 1.434 . S
C1651 C1652 1.369 1_455 S
C1651 C1653 1.419 . S
C1651 H1655 0.930 . S
C1652 C1651 1.369 1_655 S
C1652 C1661 1.429 . S
C1653 C1651 1.419 . S
C1653 C1654 1.363 . S
C1653 H1656 0.929 . S
C1654 C1653 1.363 . S
C1654 C1660 1.428 1_455 S
H1655 C1651 0.930 . S
H1656 C1653 0.929 . S
S1657 N1658 1.613 . S
S1657 N1659 1.610 . S
N1658 S1657 1.613 . S
N1658 C1661 1.350 . S
N1659 S1657 1.610 . S
N1659 C1660 1.351 . S
C1660 C1654 1.428 1_655 S
C1660 N1659 1.351 . S
C1660 C1661 1.434 . S
C1661 C1652 1.429 . S
C1661 N1658 1.350 . S
C1661 C1660 1.434 . S
C1662 C1663 1.369 . S
C1662 C1664 1.419 . S
C1662 H1666 0.930 . S
C1663 C1662 1.369 . S
C1663 C1672 1.429 1_545 S
C1664 C1662 1.419 . S
C1664 C1665 1.363 1_545 S
C1664 H1667 0.929 . S
C1665 C1664 1.363 1_565 S
C1665 C1671 1.428 . S
H1666 C1662 0.930 . S
H1667 C1664 0.929 . S
S1668 N1669 1.613 . S
S1668 N1670 1.610 . S
N1669 S1668 1.613 . S
N1669 C1672 1.350 . S
N1670 S1668 1.610 . S
N1670 C1671 1.351 . S
C1671 C1665 1.428 . S
C1671 N1670 1.351 . S
C1671 C1672 1.434 . S
C1672 C1663 1.429 1_565 S
C1672 N1669 1.350 . S
C1672 C1671 1.434 . S
C1673 C1674 1.369 . S
C1673 C1675 1.419 . S
C1673 H1677 0.930 . S
C1674 C1673 1.369 . S
C1674 C1683 1.429 . S
C1675 C1673 1.419 . S
C1675 C1676 1.363 . S
C1675 H1678 0.929 . S
C1676 C1675 1.363 . S
C1676 C1682 1.428 . S
H1677 C1673 0.930 . S
H1678 C1675 0.929 . S
S1679 N1680 1.613 . S
S1679 N1681 1.610 . S
N1680 S1679 1.613 . S
N1680 C1683 1.350 . S
N1681 S1679 1.610 . S
N1681 C1682 1.351 . S
C1682 C1676 1.428 . S
C1682 N1681 1.351 . S
C1682 C1683 1.434 . S
C1683 C1674 1.429 . S
C1683 N1680 1.350 . S
C1683 C1682 1.434 . S
C1684 C1685 1.369 1_655 S
C1684 C1686 1.419 . S
C1684 H1688 0.930 . S
C1685 C1684 1.369 1_455 S
C1685 C1694 1.429 . S
C1686 C1684 1.419 . S
C1686 C1687 1.363 . S
C1686 H1689 0.929 . S
C1687 C1686 1.363 . S
C1687 C1693 1.428 1_655 S
H1688 C1684 0.930 . S
H1689 C1686 0.929 . S
S1690 N1691 1.613 . S
S1690 N1692 1.610 . S
N1691 S1690 1.613 . S
N1691 C1694 1.350 . S
N1692 S1690 1.610 . S
N1692 C1693 1.351 . S
C1693 C1687 1.428 1_455 S
C1693 N1692 1.351 . S
C1693 C1694 1.434 . S
C1694 C1685 1.429 . S
C1694 N1691 1.350 . S
C1694 C1693 1.434 . S
C1695 C1696 1.369 . S
C1695 C1697 1.419 . S
C1695 H1699 0.930 . S
C1696 C1695 1.369 . S
C1696 C1705 1.429 1_545 S
C1697 C1695 1.419 . S
C1697 C1698 1.363 1_545 S
C1697 H1700 0.929 . S
C1698 C1697 1.363 1_565 S
C1698 C1704 1.428 . S
H1699 C1695 0.930 . S
H1700 C1697 0.929 . S
S1701 N1702 1.613 . S
S1701 N1703 1.610 . S
N1702 S1701 1.613 . S
N1702 C1705 1.350 . S
N1703 S1701 1.610 . S
N1703 C1704 1.351 . S
C1704 C1698 1.428 . S
C1704 N1703 1.351 . S
C1704 C1705 1.434 . S
C1705 C1696 1.429 1_565 S
C1705 N1702 1.350 . S
C1705 C1704 1.434 . S
C1706 C1707 1.369 . S
C1706 C1708 1.419 . S
C1706 H1710 0.930 . S
C1707 C1706 1.369 . S
C1707 C1716 1.429 . S
C1708 C1706 1.419 . S
C1708 C1709 1.363 . S
C1708 H1711 0.929 . S
C1709 C1708 1.363 . S
C1709 C1715 1.428 . S
H1710 C1706 0.930 . S
H1711 C1708 0.929 . S
S1712 N1713 1.613 . S
S1712 N1714 1.610 . S
N1713 S1712 1.613 . S
N1713 C1716 1.350 . S
N1714 S1712 1.610 . S
N1714 C1715 1.351 . S
C1715 C1709 1.428 . S
C1715 N1714 1.351 . S
C1715 C1716 1.434 . S
C1716 C1707 1.429 . S
C1716 N1713 1.350 . S
C1716 C1715 1.434 . S
C1717 C1718 1.369 . S
C1717 C1719 1.419 . S
C1717 H1721 0.930 . S
C1718 C1717 1.369 . S
C1718 C1727 1.429 1_455 S
C1719 C1717 1.419 . S
C1719 C1720 1.363 1_455 S
C1719 H1722 0.929 . S
C1720 C1719 1.363 1_655 S
C1720 C1726 1.428 . S
H1721 C1717 0.930 . S
H1722 C1719 0.929 . S
S1723 N1724 1.613 1_556 S
S1723 N1725 1.610 1_556 S
N1724 S1723 1.613 1_554 S
N1724 C1727 1.350 . S
N1725 S1723 1.610 1_554 S
N1725 C1726 1.351 . S
C1726 C1720 1.428 . S
C1726 N1725 1.351 . S
C1726 C1727 1.434 . S
C1727 C1718 1.429 1_655 S
C1727 N1724 1.350 . S
C1727 C1726 1.434 . S
C673 C20 1.909 . S
C675 C6 1.910 . S
C684 C34 1.912 . S
C686 C48 1.912 . S
C695 C90 1.911 . S
C697 C62 1.910 . S
C706 C104 1.910 . S
C708 C76 1.911 . S
C717 C118 1.913 . S
C719 C482 1.913 . S
C728 C132 1.909 . S
C730 C160 1.910 . S
C739 C454 1.914 . S
C741 C146 1.913 . S
C750 C188 1.914 . S
C752 C174 1.914 . S
C761 C216 1.913 . S
C763 C202 1.914 . S
C772 C258 1.912 . S
C774 C230 1.911 . S
C783 C272 1.912 . S
C785 C244 1.911 . S
C794 C286 1.910 . S
C796 C650 1.910 . S
C805 C300 1.913 . S
C807 C328 1.912 . S
C816 C622 1.913 . S
C818 C314 1.912 . S
C827 C342 1.914 . S
C829 C356 1.914 . S
C838 C384 1.912 . S
C840 C370 1.913 . S
C849 C398 1.912 . S
C851 C426 1.912 . S
C860 C440 1.911 . S
C862 C412 1.912 . S
C871 C496 1.911 . S
C873 C468 1.911 . S
C882 C524 1.914 . S
C884 C510 1.913 . S
C893 C538 1.909 . S
C895 C552 1.910 . S
C904 C594 1.912 . S
C906 C566 1.911 . S
C915 C580 1.911 . S
C917 C608 1.912 . S
C926 C636 1.914 . S
C928 C664 1.913 . S
C937 C623 1.451 . S
C939 C8 1.659 . S
C948 C329 1.458 . S
C950 C22 1.659 . S
C959 C637 1.445 . S
C961 C36 1.659 . S
C970 C50 1.659 . S
C972 C651 1.446 . S
C981 C64 1.658 . S
C983 C511 1.454 . S
C992 C525 1.458 . S
C994 C78 1.659 . S
C1003 C92 1.659 . S
C1005 C539 1.451 . S
C1014 C553 1.453 . S
C1016 C106 1.659 . S
C1025 C567 1.445 . S
C1027 C120 1.659 . S
C1036 C134 1.658 . S
C1038 C595 1.453 . S
C1047 C609 1.460 . S
C1049 C148 1.659 . S
C1058 C162 1.659 . S
C1060 C245 1.458 . S
C1069 C176 1.659 . S
C1071 C455 1.446 . S
C1080 C190 1.659 . S
C1082 C161 1.446 . S
C1091 C204 1.659 . S
C1093 C469 1.446 . S
C1102 C218 1.659 . S
C1104 C483 1.458 . S
C1113 C343 1.446 . S
C1115 C232 1.659 . S
C1124 C357 1.444 . S
C1126 C246 1.659 . S
C1135 C260 1.659 . S
C1137 C371 1.458 . S
C1146 C274 1.659 . S
C1148 C385 1.453 . S
C1157 C288 1.659 . S
C1159 C399 1.454 . S
C1168 C302 1.659 . S
C1170 C427 1.448 . S
C1179 C441 1.448 . S
C1181 C316 1.659 . S
C1190 C77 1.454 . S
C1192 C330 1.659 . S
C1201 C344 1.659 . S
C1203 C287 1.458 . S
C1212 C358 1.659 . S
C1214 C665 1.458 . S
C1223 C372 1.658 . S
C1225 C301 1.457 . S
C1234 C386 1.659 . S
C1236 C315 1.448 . S
C1245 C175 1.455 . S
C1247 C400 1.659 . S
C1256 C414 1.658 . S
C1258 C189 1.453 . S
C1267 C203 1.456 . S
C1269 C428 1.659 . S
C1278 C217 1.456 . S
C1280 C442 1.659 . S
C1289 C231 1.455 . S
C1291 C456 1.659 . S
C1300 C259 1.454 . S
C1302 C470 1.659 . S
C1311 C484 1.659 . S
C1313 C273 1.458 . S
C1322 C498 1.659 . S
C1324 C581 1.456 . S
C1333 C119 1.459 . S
C1335 C512 1.659 . S
C1344 C526 1.659 . S
C1346 C497 1.453 . S
C1355 C540 1.659 . S
C1357 C133 1.458 . S
C1366 C147 1.458 . S
C1368 C554 1.659 . S
C1377 C568 1.659 . S
C1379 C7 1.455 . S
C1388 C582 1.659 . S
C1390 C21 1.455 . S
C1399 C35 1.444 . S
C1401 C596 1.659 . S
C1410 C610 1.659 . S
C1412 C49 1.446 . S
C1421 C624 1.658 . S
C1423 C63 1.456 . S
C1432 C91 1.449 . S
C1434 C638 1.659 . S
C1443 C652 1.659 . S
C1445 C105 1.454 . S
C1454 C413 1.455 . S
C1456 C666 1.659 . S
C1465 C37 1.284 . S
C1467 C9 1.278 . S
C1476 C51 1.287 . S
C1478 C23 1.280 . S
C1487 C443 1.283 . S
C1489 C65 1.287 . S
C1498 C429 1.278 . S
C1500 C79 1.277 . S
C1509 C415 1.278 . S
C1511 C93 1.277 . S
C1520 C107 1.275 . S
C1522 C401 1.279 . S
C1531 C121 1.277 . S
C1533 C499 1.278 . S
C1542 C149 1.280 . S
C1544 C135 1.286 . S
C1553 C163 1.280 . S
C1555 C457 1.277 . S
C1564 C205 1.278 . S
C1566 C177 1.277 . S
C1575 C219 1.279 . S
C1577 C191 1.286 . S
C1586 C611 1.277 . S
C1588 C233 1.284 . S
C1597 C597 1.289 . S
C1599 C247 1.284 . S
C1608 C261 1.286 . S
C1610 C583 1.287 . S
C1619 C275 1.289 . S
C1621 C569 1.284 . S
C1630 C667 1.277 . S
C1632 C289 1.278 . S
C1641 C317 1.286 . S
C1643 C303 1.279 . S
C1652 C331 1.277 . S
C1654 C625 1.284 . S
C1663 C373 1.284 . S
C1665 C345 1.278 . S
C1674 C359 1.288 . S
C1676 C387 1.282 . S
C1685 C485 1.278 . S
C1687 C471 1.284 . S
C1696 C513 1.288 . S
C1698 C541 1.281 . S
C1707 C527 1.278 . S
C1709 C555 1.286 . S
C1718 C639 1.289 . S
C1720 C653 1.283 . S
