# Generated by pormake.
# Topology uou, (4)-cn, num edge types: 1
# Building blocks:
#     Node 0, Type 0, BuildingBlock: NAHDIM_clean_sbu_0, # of connection points: 4
#     Node 1, Type 0, BuildingBlock: NAHDIM_clean_sbu_0, # of connection points: 4
#     Node 2, Type 0, BuildingBlock: NAHDIM_clean_sbu_0, # of connection points: 4
#     Node 3, Type 0, BuildingBlock: NAHDIM_clean_sbu_0, # of connection points: 4
#     Node 4, Type 0, BuildingBlock: NAHDIM_clean_sbu_0, # of connection points: 4
#     Node 5, Type 0, BuildingBlock: NAHDIM_clean_sbu_0, # of connection points: 4
#     Node 6, Type 0, BuildingBlock: NAHDIM_clean_sbu_0, # of connection points: 4
#     Node 7, Type 0, BuildingBlock: NAHDIM_clean_sbu_0, # of connection points: 4
#     Node 8, Type 0, BuildingBlock: NAHDIM_clean_sbu_0, # of connection points: 4
#     Node 9, Type 0, BuildingBlock: NAHDIM_clean_sbu_0, # of connection points: 4
#     Node 10, Type 0, BuildingBlock: NAHDIM_clean_sbu_0, # of connection points: 4
#     Node 11, Type 0, BuildingBlock: NAHDIM_clean_sbu_0, # of connection points: 4
#     Node 12, Type 0, BuildingBlock: NAHDIM_clean_sbu_0, # of connection points: 4
#     Node 13, Type 0, BuildingBlock: NAHDIM_clean_sbu_0, # of connection points: 4
#     Node 14, Type 0, BuildingBlock: NAHDIM_clean_sbu_0, # of connection points: 4
#     Node 15, Type 0, BuildingBlock: NAHDIM_clean_sbu_0, # of connection points: 4
#     Edge 16, Type (0, 0), BuildingBlock: KIFKEQ_clean_linker_1, # of connection points: 2
#     Edge 17, Type (0, 0), BuildingBlock: KIFKEQ_clean_linker_1, # of connection points: 2
#     Edge 18, Type (0, 0), BuildingBlock: KIFKEQ_clean_linker_1, # of connection points: 2
#     Edge 19, Type (0, 0), BuildingBlock: KIFKEQ_clean_linker_1, # of connection points: 2
#     Edge 20, Type (0, 0), BuildingBlock: KIFKEQ_clean_linker_1, # of connection points: 2
#     Edge 21, Type (0, 0), BuildingBlock: KIFKEQ_clean_linker_1, # of connection points: 2
#     Edge 22, Type (0, 0), BuildingBlock: KIFKEQ_clean_linker_1, # of connection points: 2
#     Edge 23, Type (0, 0), BuildingBlock: KIFKEQ_clean_linker_1, # of connection points: 2
#     Edge 24, Type (0, 0), BuildingBlock: KIFKEQ_clean_linker_1, # of connection points: 2
#     Edge 25, Type (0, 0), BuildingBlock: KIFKEQ_clean_linker_1, # of connection points: 2
#     Edge 26, Type (0, 0), BuildingBlock: KIFKEQ_clean_linker_1, # of connection points: 2
#     Edge 27, Type (0, 0), BuildingBlock: KIFKEQ_clean_linker_1, # of connection points: 2
#     Edge 28, Type (0, 0), BuildingBlock: KIFKEQ_clean_linker_1, # of connection points: 2
#     Edge 29, Type (0, 0), BuildingBlock: KIFKEQ_clean_linker_1, # of connection points: 2
#     Edge 30, Type (0, 0), BuildingBlock: KIFKEQ_clean_linker_1, # of connection points: 2
#     Edge 31, Type (0, 0), BuildingBlock: KIFKEQ_clean_linker_1, # of connection points: 2
#     Edge 32, Type (0, 0), BuildingBlock: KIFKEQ_clean_linker_1, # of connection points: 2
#     Edge 33, Type (0, 0), BuildingBlock: KIFKEQ_clean_linker_1, # of connection points: 2
#     Edge 34, Type (0, 0), BuildingBlock: KIFKEQ_clean_linker_1, # of connection points: 2
#     Edge 35, Type (0, 0), BuildingBlock: KIFKEQ_clean_linker_1, # of connection points: 2
#     Edge 36, Type (0, 0), BuildingBlock: KIFKEQ_clean_linker_1, # of connection points: 2
#     Edge 37, Type (0, 0), BuildingBlock: KIFKEQ_clean_linker_1, # of connection points: 2
#     Edge 38, Type (0, 0), BuildingBlock: KIFKEQ_clean_linker_1, # of connection points: 2
#     Edge 39, Type (0, 0), BuildingBlock: KIFKEQ_clean_linker_1, # of connection points: 2
#     Edge 40, Type (0, 0), BuildingBlock: KIFKEQ_clean_linker_1, # of connection points: 2
#     Edge 41, Type (0, 0), BuildingBlock: KIFKEQ_clean_linker_1, # of connection points: 2
#     Edge 42, Type (0, 0), BuildingBlock: KIFKEQ_clean_linker_1, # of connection points: 2
#     Edge 43, Type (0, 0), BuildingBlock: KIFKEQ_clean_linker_1, # of connection points: 2
#     Edge 44, Type (0, 0), BuildingBlock: KIFKEQ_clean_linker_1, # of connection points: 2
#     Edge 45, Type (0, 0), BuildingBlock: KIFKEQ_clean_linker_1, # of connection points: 2
#     Edge 46, Type (0, 0), BuildingBlock: KIFKEQ_clean_linker_1, # of connection points: 2
#     Edge 47, Type (0, 0), BuildingBlock: KIFKEQ_clean_linker_1, # of connection points: 2
# Relax obj value: 0.108
# Max RMSD: 0.148
# Mean RMSD: 0.148
data_MOF--net-uou--node1-NAHDIM_clean_sbu_0--edge1-KIFKEQ_clean_linker_1
_symmetry_space_group_name_H-M    P1
_symmetry_Int_Tables_number       1
_symmetry_cell_setting            triclinic
loop_
_symmetry_equiv_pos_as_xyz
'x, y, z'
_cell_length_a     41.18382
_cell_length_b     40.310394
_cell_length_c     52.101724
_cell_angle_alpha  90.017683
_cell_angle_beta   90.005452
_cell_angle_gamma 89.992472
loop_
_atom_site_label
_atom_site_type_symbol
_atom_site_fract_x
_atom_site_fract_y
_atom_site_fract_z
_atom_type_partial_charge
C0 C 0.14206 0.03875 0.12181 0.0
O1 O 0.12004 0.01626 0.1273 0.0
O2 O 0.06878 0.05589 0.1529 0.0
Zn3 Zn 0.08466 0.07496 0.11945 0.0
O4 O 0.06584 0.051 0.08915 0.0
C5 C 0.04651 0.133 0.1293 0.0
O6 O 0.0309 0.11179 0.14391 0.0
O7 O 0.13295 0.06841 0.11768 0.0
C8 C 0.03776 0.05727 0.08032 0.0
O9 O 0.01937 0.07919 0.09199 0.0
C10 C 0.04563 0.03526 0.15525 0.0
O11 O 0.03077 0.0242 0.13466 0.0
O12 O 0.07159 0.12329 0.11715 0.0
C13 C 0.37524 0.96535 0.10432 0.0
O14 O 0.39916 0.98659 0.10724 0.0
O15 O 0.44821 0.94036 0.13531 0.0
Zn16 Zn 0.42924 0.9228 0.10255 0.0
O17 O 0.45162 0.94409 0.07281 0.0
C18 C 0.4654 0.86388 0.10661 0.0
O19 O 0.48756 0.88624 0.11211 0.0
O20 O 0.38189 0.93477 0.10145 0.0
C21 C 0.43878 0.94263 0.05069 0.0
O22 O 0.41113 0.92679 0.04779 0.0
C23 C 0.43154 0.93901 0.15579 0.0
O24 O 0.40216 0.92637 0.15497 0.0
O25 O 0.43676 0.87349 0.10134 0.0
C26 C 0.61965 0.96947 0.36853 0.0
O27 O 0.59694 0.99068 0.36187 0.0
O28 O 0.5498 0.94335 0.33524 0.0
Zn29 Zn 0.5639 0.93007 0.37073 0.0
O30 O 0.54038 0.95694 0.39739 0.0
C31 C 0.53046 0.86867 0.36315 0.0
O32 O 0.51491 0.88727 0.3465 0.0
O33 O 0.61155 0.93982 0.37383 0.0
C34 C 0.51248 0.94862 0.40556 0.0
O35 O 0.49833 0.92212 0.3961 0.0
C36 C 0.52784 0.96456 0.33034 0.0
O37 O 0.51355 0.98031 0.3493 0.0
O38 O 0.55367 0.88132 0.37599 0.0
C39 C 0.85443 0.04105 0.36564 0.0
O40 O 0.87726 0.01887 0.36159 0.0
O41 O 0.92659 0.06178 0.3321 0.0
Zn42 Zn 0.91026 0.0805 0.36546 0.0
O43 O 0.93232 0.05842 0.39511 0.0
C44 C 0.95008 0.13716 0.3622 0.0
O45 O 0.97125 0.11346 0.35774 0.0
O46 O 0.86248 0.07133 0.36809 0.0
C47 C 0.93106 0.07162 0.41721 0.0
O48 O 0.91534 0.09973 0.42016 0.0
C49 C 0.95087 0.04243 0.33049 0.0
O50 O 0.96617 0.03347 0.35149 0.0
O51 O 0.92062 0.12935 0.36632 0.0
C52 C 0.86223 0.95033 0.88931 0.0
O53 O 0.8831 0.9712 0.89947 0.0
O54 O 0.94128 0.93289 0.85048 0.0
Zn55 Zn 0.92063 0.91431 0.88237 0.0
O56 O 0.93863 0.93556 0.91413 0.0
C57 C 0.96191 0.85933 0.88189 0.0
O58 O 0.98257 0.88415 0.88135 0.0
O59 O 0.87242 0.9226 0.8809 0.0
C60 C 0.96431 0.95297 0.91458 0.0
O61 O 0.98085 0.95746 0.89331 0.0
C62 C 0.93219 0.95864 0.83838 0.0
O63 O 0.90796 0.9764 0.84726 0.0
O64 O 0.93169 0.86569 0.88292 0.0
C65 C 0.63431 0.02584 0.84931 0.0
O66 O 0.61543 0.00678 0.83532 0.0
O67 O 0.56237 0.04689 0.81734 0.0
Zn68 Zn 0.57602 0.06335 0.8521 0.0
O69 O 0.55022 0.04125 0.87975 0.0
C70 C 0.538 0.12107 0.84874 0.0
O71 O 0.51681 0.09813 0.84236 0.0
O72 O 0.623 0.05274 0.85837 0.0
C73 C 0.55028 0.05435 0.90191 0.0
O74 O 0.56693 0.08173 0.90568 0.0
C75 C 0.54164 0.02392 0.81412 0.0
O76 O 0.5286 0.00951 0.83424 0.0
O77 O 0.56697 0.11238 0.85384 0.0
C78 C 0.34289 0.04028 0.61407 0.0
O79 O 0.36497 0.01689 0.61613 0.0
O80 O 0.41898 0.05282 0.64142 0.0
Zn81 Zn 0.40056 0.07533 0.61033 0.0
O82 O 0.41692 0.05333 0.57844 0.0
C83 C 0.44599 0.12722 0.61016 0.0
O84 O 0.46491 0.10111 0.60812 0.0
O85 O 0.35213 0.07014 0.61124 0.0
C86 C 0.41887 0.06908 0.5574 0.0
O87 O 0.4102 0.10043 0.55662 0.0
C88 C 0.44376 0.03404 0.64104 0.0
O89 O 0.45845 0.028 0.61916 0.0
O90 O 0.41541 0.12295 0.61115 0.0
C91 C 0.10632 0.97583 0.61999 0.0
O92 O 0.08411 0.99741 0.62699 0.0
O93 O 0.03549 0.95151 0.65243 0.0
Zn94 Zn 0.05018 0.93621 0.61772 0.0
O95 O 0.02671 0.96023 0.58968 0.0
C96 C 0.01255 0.87734 0.61827 0.0
O97 O 0.99001 0.89929 0.62376 0.0
O98 O 0.09769 0.94633 0.61473 0.0
C99 C 0.03868 0.95834 0.56727 0.0
O100 O 0.06527 0.94091 0.56372 0.0
C101 C 0.00896 0.96647 0.65698 0.0
O102 O 0.98898 0.97301 0.63799 0.0
O103 O 0.04147 0.88724 0.61452 0.0
C104 C 0.61861 0.52479 0.12699 0.0
O105 O 0.59841 0.50591 0.13993 0.0
O106 O 0.54443 0.5487 0.15439 0.0
Zn107 Zn 0.5606 0.56204 0.11953 0.0
O108 O 0.53768 0.53723 0.09157 0.0
C109 C 0.52305 0.6207 0.11703 0.0
O110 O 0.50034 0.59883 0.12223 0.0
O111 O 0.60813 0.55137 0.11681 0.0
C112 C 0.55022 0.53904 0.06934 0.0
O113 O 0.57669 0.55676 0.06614 0.0
C114 C 0.51789 0.53345 0.15829 0.0
O115 O 0.49958 0.52518 0.13866 0.0
O116 O 0.55224 0.61086 0.11471 0.0
C117 C 0.85032 0.45122 0.0996 0.0
O118 O 0.87144 0.47235 0.09013 0.0
O119 O 0.93066 0.43375 0.13575 0.0
Zn120 Zn 0.90844 0.41479 0.10466 0.0
O121 O 0.92529 0.4356 0.07227 0.0
C122 C 0.9509 0.36128 0.10442 0.0
O123 O 0.97046 0.38701 0.10406 0.0
O124 O 0.86023 0.42295 0.1071 0.0
C125 C 0.95033 0.45395 0.07154 0.0
O126 O 0.96644 0.45996 0.0928 0.0
C127 C 0.92297 0.45944 0.14851 0.0
O128 O 0.89805 0.47748 0.14129 0.0
O129 O 0.92039 0.3663 0.10422 0.0
C130 C 0.12178 0.46918 0.35416 0.0
O131 O 0.10185 0.48945 0.34226 0.0
O132 O 0.04714 0.45 0.3259 0.0
Zn133 Zn 0.06297 0.43327 0.35999 0.0
O134 O 0.04071 0.45701 0.38877 0.0
C135 C 0.02288 0.37651 0.35912 0.0
O136 O 0.00157 0.39995 0.35432 0.0
O137 O 0.11085 0.44207 0.36314 0.0
C138 C 0.05334 0.45535 0.41097 0.0
O139 O 0.08017 0.43819 0.41413 0.0
C140 C 0.02126 0.46678 0.32312 0.0
O141 O 0.00373 0.47431 0.34336 0.0
O142 O 0.05242 0.38454 0.36258 0.0
C143 C 0.35335 0.54033 0.38574 0.0
O144 O 0.37452 0.51883 0.39463 0.0
O145 O 0.43328 0.56377 0.34954 0.0
Zn146 Zn 0.41106 0.57843 0.38203 0.0
O147 O 0.42875 0.55456 0.41281 0.0
C148 C 0.45082 0.63433 0.38741 0.0
O149 O 0.47214 0.61009 0.38776 0.0
O150 O 0.36308 0.56909 0.37926 0.0
C151 C 0.45434 0.53699 0.41249 0.0
O152 O 0.47093 0.53408 0.39107 0.0
C153 C 0.42683 0.5379 0.33657 0.0
O154 O 0.40433 0.51735 0.34468 0.0
O155 O 0.42082 0.62715 0.38565 0.0
C156 C 0.37032 0.45558 0.86743 0.0
O157 O 0.39328 0.4775 0.86305 0.0
O158 O 0.44015 0.43522 0.8326 0.0
Zn159 Zn 0.42576 0.41617 0.8663 0.0
O160 O 0.44885 0.43799 0.89556 0.0
C161 C 0.46568 0.35996 0.86159 0.0
O162 O 0.48663 0.38399 0.85763 0.0
O163 O 0.37814 0.42525 0.86998 0.0
C164 C 0.44694 0.42497 0.9177 0.0
O165 O 0.43031 0.39741 0.92061 0.0
C166 C 0.46373 0.4552 0.82977 0.0
O167 O 0.48038 0.4648 0.84996 0.0
O168 O 0.43623 0.36739 0.86619 0.0
C169 C 0.13575 0.52736 0.86603 0.0
O170 O 0.11308 0.50545 0.86078 0.0
O171 O 0.06487 0.54849 0.83307 0.0
Zn172 Zn 0.07967 0.56582 0.86731 0.0
O173 O 0.05857 0.54205 0.8967 0.0
C174 C 0.04452 0.62577 0.85764 0.0
O175 O 0.02818 0.60562 0.84261 0.0
O176 O 0.12752 0.55734 0.86991 0.0
C177 C 0.02977 0.54811 0.90404 0.0
O178 O 0.01209 0.56958 0.89124 0.0
C179 C 0.04206 0.52787 0.82921 0.0
O180 O 0.02607 0.51557 0.84883 0.0
O181 O 0.0688 0.61459 0.87003 0.0
C182 C 0.86825 0.53079 0.61276 0.0
O183 O 0.89205 0.5103 0.61832 0.0
O184 O 0.93741 0.55659 0.6466 0.0
Zn185 Zn 0.92159 0.57373 0.61266 0.0
O186 O 0.9461 0.55286 0.58371 0.0
C187 C 0.95712 0.63327 0.61619 0.0
O188 O 0.97984 0.61133 0.62125 0.0
O189 O 0.87472 0.56126 0.6091 0.0
C190 C 0.94479 0.56616 0.56164 0.0
O191 O 0.92767 0.59337 0.55853 0.0
C192 C 0.96199 0.53787 0.64929 0.0
O193 O 0.97866 0.52879 0.62897 0.0
O194 O 0.92845 0.62315 0.61165 0.0
C195 C 0.63605 0.45152 0.61422 0.0
O196 O 0.61288 0.47352 0.6176 0.0
O197 O 0.56565 0.43429 0.64772 0.0
Zn198 Zn 0.58028 0.41366 0.61452 0.0
O199 O 0.56022 0.43613 0.58407 0.0
C200 C 0.54338 0.35593 0.62722 0.0
O201 O 0.5281 0.37793 0.64135 0.0
O202 O 0.62834 0.42111 0.61205 0.0
C203 C 0.53195 0.42948 0.57581 0.0
O204 O 0.51398 0.40777 0.5881 0.0
C205 C 0.54291 0.45531 0.6504 0.0
O206 O 0.52679 0.46557 0.63015 0.0
O207 O 0.56783 0.36509 0.61406 0.0
H208 H 0.32022 0.92955 0.0946 0.0
H209 H 0.35328 0.02697 0.11731 0.0
H210 H 0.26409 0.94812 0.09812 0.0
H211 H 0.29721 0.04524 0.12164 0.0
H212 H 0.1927 0.07571 0.10322 0.0
H213 H 0.24904 0.05827 0.0978 0.0
H214 H 0.22564 0.96271 0.13055 0.0
H215 H 0.16935 0.97974 0.13519 0.0
C216 C 0.3155 0.9549 0.10041 0.0
C217 C 0.34118 0.97676 0.10572 0.0
C218 C 0.28332 0.96551 0.1026 0.0
C219 C 0.27611 -0.00186 0.11033 0.0
C220 C 0.30186 0.02008 0.11534 0.0
C221 C 0.33403 0.00954 0.11299 0.0
C222 C 0.19966 0.05102 0.1093 0.0
C223 C 0.17656 0.02907 0.11955 0.0
C224 C 0.23197 0.04105 0.10628 0.0
C225 C 0.24186 0.009 0.1136 0.0
C226 C 0.21876 0.98731 0.12421 0.0
C227 C 0.1865 0.99718 0.12706 0.0
H228 H 0.67218 0.93415 0.38565 0.0
H229 H 0.64484 0.02874 0.35316 0.0
H230 H 0.72883 0.95178 0.38645 0.0
H231 H 0.70141 0.04595 0.35321 0.0
H232 H 0.80178 0.07891 0.37873 0.0
H233 H 0.74514 0.06153 0.38102 0.0
H234 H 0.77273 0.96265 0.35745 0.0
H235 H 0.82933 0.97974 0.35592 0.0
C236 C 0.67827 0.95865 0.3786 0.0
C237 C 0.65402 0.98003 0.36932 0.0
C238 C 0.71076 0.9687 0.37893 0.0
C239 C 0.71971 0.00029 0.36985 0.0
C240 C 0.69536 0.02168 0.36072 0.0
C241 C 0.66291 0.0117 0.36053 0.0
C242 C 0.79573 0.05345 0.37409 0.0
C243 C 0.82003 0.03072 0.36712 0.0
C244 C 0.76325 0.04351 0.37529 0.0
C245 C 0.75434 0.01068 0.36939 0.0
C246 C 0.77874 0.98797 0.36251 0.0
C247 C 0.8112 -0.00215 0.36146 0.0
H248 H 0.83718 0.01255 0.89367 0.0
H249 H 0.81052 0.91157 0.87553 0.0
H250 H 0.78232 0.03073 0.88408 0.0
H251 H 0.755 0.92951 0.867 0.0
H252 H 0.66977 0.9776 0.82569 0.0
H253 H 0.72443 0.95912 0.8362 0.0
H254 H 0.72817 0.0302 0.89834 0.0
H255 H 0.67406 0.04962 0.88701 0.0
C256 C 0.81943 0.99412 0.88801 0.0
C257 C 0.82819 0.96063 0.88529 0.0
C258 C 0.78785 0.00454 0.88263 0.0
C259 C 0.76413 0.98164 0.8747 0.0
C260 C 0.77276 0.94795 0.87257 0.0
C261 C 0.80452 0.93759 0.87765 0.0
C262 C 0.68235 0.98935 0.84153 0.0
C263 C 0.6677 0.01515 0.85545 0.0
C264 C 0.7136 0.97855 0.84772 0.0
C265 C 0.73076 0.99303 0.86821 0.0
C266 C 0.71595 0.01881 0.88218 0.0
C267 C 0.68486 0.0299 0.87575 0.0
H268 H 0.15719 0.93993 0.60094 0.0
H269 H 0.13338 0.03423 0.63564 0.0
H270 H 0.21404 0.9563 0.59873 0.0
H271 H 0.19038 0.05021 0.63417 0.0
H272 H 0.31639 0.9802 0.62542 0.0
H273 H 0.25927 0.96524 0.6267 0.0
H274 H 0.2333 0.06531 0.6051 0.0
H275 H 0.29066 0.08058 0.60458 0.0
C276 C 0.16412 0.96409 0.60821 0.0
C277 C 0.14081 0.98575 0.61851 0.0
C278 C 0.19674 0.97342 0.60708 0.0
C279 C 0.20682 0.00453 0.61637 0.0
C280 C 0.18341 0.02626 0.62652 0.0
C281 C 0.15075 0.017 0.62751 0.0
C282 C 0.29852 -0.00094 0.62095 0.0
C283 C 0.30805 0.03159 0.61488 0.0
C284 C 0.26574 0.9904 0.62152 0.0
C285 C 0.24167 0.014 0.61586 0.0
C286 C 0.2512 0.04661 0.60985 0.0
C287 C 0.28406 0.05534 0.60943 0.0
H288 H 0.82542 0.51352 0.09582 0.0
H289 H 0.79805 0.41204 0.1114 0.0
H290 H 0.76983 0.53121 0.10295 0.0
H291 H 0.74184 0.42955 0.11751 0.0
H292 H 0.65172 0.47672 0.15299 0.0
H293 H 0.70757 0.45877 0.14632 0.0
H294 H 0.71754 0.53001 0.08478 0.0
H295 H 0.66221 0.54883 0.09224 0.0
C296 C 0.80741 0.49489 0.10047 0.0
C297 C 0.81612 0.46136 0.10303 0.0
C298 C 0.77542 0.50503 0.10443 0.0
C299 C 0.75121 0.48184 0.11074 0.0
C300 C 0.75991 0.44819 0.11307 0.0
C301 C 0.79207 0.43809 0.1094 0.0
C302 C 0.66593 0.48862 0.13811 0.0
C303 C 0.65264 0.5143 0.12323 0.0
C304 C 0.69788 0.47814 0.13414 0.0
C305 C 0.71714 0.49286 0.11497 0.0
C306 C 0.70368 0.51848 0.10002 0.0
C307 C 0.67188 0.52922 0.10422 0.0
H308 H 0.32872 0.4777 0.38696 0.0
H309 H 0.301 0.57996 0.37528 0.0
H310 H 0.27325 0.46026 0.37872 0.0
H311 H 0.24498 0.56267 0.36809 0.0
H312 H 0.15551 0.51842 0.33017 0.0
H313 H 0.21139 0.53548 0.33779 0.0
H314 H 0.22056 0.45993 0.39627 0.0
H315 H 0.16513 0.44204 0.3878 0.0
C316 C 0.31065 0.49653 0.38294 0.0
C317 C 0.31923 0.53022 0.38176 0.0
C318 C 0.27874 0.48653 0.37834 0.0
C319 C 0.25451 0.51001 0.37276 0.0
C320 C 0.26308 0.54381 0.37188 0.0
C321 C 0.29514 0.55379 0.37619 0.0
C322 C 0.16955 0.50537 0.34456 0.0
C323 C 0.15598 0.47882 0.35832 0.0
C324 C 0.20152 0.51533 0.3491 0.0
C325 C 0.22054 0.49922 0.36774 0.0
C326 C 0.20687 0.47259 0.38147 0.0
C327 C 0.17503 0.46238 0.3767 0.0
H328 H 0.16127 0.46751 0.85252 0.0
H329 H 0.18792 0.56377 0.88236 0.0
H330 H 0.21784 0.45038 0.85378 0.0
H331 H 0.24454 0.54624 0.88444 0.0
H332 H 0.34565 0.51659 0.85621 0.0
H333 H 0.28911 0.53388 0.85664 0.0
H334 H 0.26083 0.43621 0.88258 0.0
H335 H 0.31745 0.41857 0.88132 0.0
C336 C 0.17919 0.48495 0.85956 0.0
C337 C 0.17014 0.51704 0.86727 0.0
C338 C 0.21163 0.47503 0.86045 0.0
C339 C 0.23577 0.49688 0.86927 0.0
C340 C 0.22664 0.52893 0.8772 0.0
C341 C 0.19418 0.53895 0.87612 0.0
C342 C 0.32739 0.4988 0.86207 0.0
C343 C 0.33601 0.46616 0.86864 0.0
C344 C 0.29495 0.5088 0.86248 0.0
C345 C 0.27038 0.48646 0.86964 0.0
C346 C 0.27909 0.45391 0.87658 0.0
C347 C 0.31155 0.44383 0.87599 0.0
H348 H 0.68961 0.41482 0.60115 0.0
H349 H 0.65981 0.51293 0.62491 0.0
H350 H 0.74591 0.43365 0.59906 0.0
H351 H 0.71589 0.53138 0.62367 0.0
H352 H 0.81453 0.56405 0.59582 0.0
H353 H 0.75872 0.54407 0.59457 0.0
H354 H 0.78978 0.45026 0.6264 0.0
H355 H 0.84566 0.46985 0.62681 0.0
C356 C 0.6951 0.44032 0.60605 0.0
C357 C 0.67028 0.46239 0.61314 0.0
C358 C 0.72736 0.45109 0.60497 0.0
C359 C 0.73544 0.48408 0.61112 0.0
C360 C 0.71052 0.50601 0.61831 0.0
C361 C 0.67834 0.49533 0.6192 0.0
C362 C 0.80943 0.53913 0.60246 0.0
C363 C 0.83447 0.51858 0.61149 0.0
C364 C 0.77742 0.52771 0.60187 0.0
C365 C 0.7697 0.4956 0.61052 0.0
C366 C 0.79487 0.47494 0.61927 0.0
C367 C 0.82691 0.48627 0.61966 0.0
H368 H 0.0084 0.01169 0.31937 0.0
H369 H 0.92191 0.05164 0.28395 0.0
H370 H 0.03175 0.00188 0.27694 0.0
H371 H 0.94534 0.04205 0.24171 0.0
H372 H 0.98814 0.00533 0.16778 0.0
H373 H 0.96474 -0.00073 0.21064 0.0
H374 H 0.05149 0.04159 0.24379 0.0
H375 H 0.07493 0.04746 0.20117 0.0
C376 C -0.00581 0.01794 0.30256 0.0
C377 C 0.96348 0.03281 0.305 0.0
C378 C 0.0076 0.01241 0.2783 0.0
C379 C 0.99043 0.02135 0.25604 0.0
C380 C 0.95903 0.0346 0.25849 0.0
C381 C 0.94573 0.04035 0.28272 0.0
C382 C 0.00243 0.01277 0.18426 0.0
C383 C 0.03322 0.02723 0.1811 0.0
C384 C 0.98897 0.00942 0.20876 0.0
C385 C 0.00621 0.02014 0.23051 0.0
C386 C 0.03773 0.03283 0.22742 0.0
C387 C 0.05105 0.03643 0.20297 0.0
H388 H 0.49348 0.96038 0.16497 0.0
H389 H 0.40166 0.94167 0.20248 0.0
H390 H 0.51795 0.97342 0.20641 0.0
H391 H 0.42627 0.95429 0.24385 0.0
H392 H 0.47412 -0.00174 0.31368 0.0
H393 H 0.45136 -0.00157 0.27037 0.0
H394 H 0.53187 0.93887 0.24386 0.0
H395 H 0.55477 0.93899 0.28686 0.0
C396 C 0.47844 0.95933 0.18201 0.0
C397 C 0.44571 0.94965 0.1805 0.0
C398 C 0.4925 0.96672 0.20572 0.0
C399 C 0.47406 0.96473 0.22836 0.0
C400 C 0.44101 0.95639 0.22671 0.0
C401 C 0.42698 0.94888 0.20302 0.0
C402 C 0.48721 0.98567 0.29851 0.0
C403 C 0.51606 0.96833 0.30373 0.0
C404 C 0.47409 0.98563 0.27376 0.0
C405 C 0.48973 0.96849 0.25379 0.0
C406 C 0.5194 0.95257 0.25878 0.0
C407 C 0.5324 0.95245 0.28349 0.0
H408 H 0.9488 0.98232 0.67558 0.0
H409 H 0.04823 0.96631 0.699 0.0
H410 H 0.93254 0.98618 0.72051 0.0
H411 H 0.03219 0.97114 0.74379 0.0
H412 H 0.98249 0.92679 0.81505 0.0
H413 H 0.00256 0.93481 0.77176 0.0
H414 H 0.93545 0.01609 0.76109 0.0
H415 H 0.91466 0.0075 0.80451 0.0
C416 C 0.96727 0.98032 0.6903 0.0
C417 C -0.00032 0.97346 0.6838 0.0
C418 C 0.958 0.98272 0.71605 0.0
C419 C 0.98102 0.97854 0.73574 0.0
C420 C 0.01375 0.97374 0.7291 0.0
C421 C 0.02295 0.97108 0.70343 0.0
C422 C 0.9722 0.94663 0.80363 0.0
C423 C 0.94677 0.96631 0.81316 0.0
C424 C 0.98391 0.95141 0.77882 0.0
C425 C 0.97058 0.97608 0.76293 0.0
C426 C 0.94595 0.99662 0.77277 0.0
C427 C 0.93418 0.99182 0.79768 0.0
H428 H 0.41479 0.03335 0.68799 0.0
H429 H 0.50456 0.00891 0.64939 0.0
H430 H 0.44023 0.02228 0.72925 0.0
H431 H 0.53003 0.99765 0.69088 0.0
H432 H 0.56806 0.04374 0.76868 0.0
H433 H 0.54503 0.03729 0.72596 0.0
H434 H 0.46609 0.9798 0.75757 0.0
H435 H 0.48905 0.9864 0.80051 0.0
C436 C 0.43981 0.02505 0.6883 0.0
C437 C 0.45782 0.02245 0.6655 0.0
C438 C 0.4543 0.01843 0.71193 0.0
C439 C 0.48716 0.00929 0.71326 0.0
C440 C 0.50472 0.00494 0.69038 0.0
C441 C 0.49011 0.01127 0.66666 0.0
C442 C 0.54606 0.02928 0.7665 0.0
C443 C 0.5301 0.016 0.788 0.0
C444 C 0.53303 0.02533 0.74198 0.0
C445 C 0.50368 0.00819 0.73848 0.0
C446 C 0.48861 0.99339 0.75979 0.0
C447 C 0.5018 0.99711 0.78433 0.0
H448 H 0.55272 0.54085 0.20242 0.0
H449 H 0.45775 0.51331 0.17427 0.0
H450 H 0.53305 0.53687 0.24635 0.0
H451 H 0.43782 0.51019 0.21828 0.0
H452 H 0.41638 0.48777 0.30198 0.0
H453 H 0.44063 0.48157 0.25944 0.0
H454 H 0.49725 0.57034 0.27209 0.0
H455 H 0.47376 0.57609 0.31456 0.0
C456 C 0.52766 0.53379 0.20561 0.0
C457 C 0.50668 0.52777 0.18487 0.0
C458 C 0.51637 0.53164 0.23079 0.0
C459 C 0.48377 0.52362 0.23581 0.0
C460 C 0.46314 0.51617 0.21509 0.0
C461 C 0.47451 0.51814 0.18985 0.0
C462 C 0.43428 0.50572 0.29575 0.0
C463 C 0.44302 0.5325 0.3116 0.0
C464 C 0.44802 0.50227 0.27134 0.0
C465 C 0.47083 0.52548 0.26236 0.0
C466 C 0.48014 0.55173 0.27853 0.0
C467 C 0.46645 0.55516 0.30285 0.0
H468 H 0.05551 0.46476 0.27842 0.0
H469 H 0.9601 0.48564 0.30891 0.0
H470 H 0.03443 0.47001 0.23495 0.0
H471 H 0.93873 0.48978 0.26541 0.0
H472 H 0.9108 0.50932 0.18306 0.0
H473 H 0.93727 0.51822 0.22449 0.0
H474 H 0.00048 0.43475 0.20973 0.0
H475 H 0.97488 0.4265 0.16838 0.0
C476 C 0.03007 0.47071 0.27582 0.0
C477 C 0.00934 0.4743 0.29705 0.0
C478 C 0.01796 0.4736 0.25092 0.0
C479 C 0.98479 0.47977 0.24669 0.0
C480 C 0.96445 0.48524 0.26796 0.0
C481 C 0.97665 0.48268 0.29291 0.0
C482 C 0.93066 0.4932 0.18856 0.0
C483 C 0.94057 0.46705 0.17252 0.0
C484 C 0.9457 0.4982 0.21233 0.0
C485 C 0.97094 0.47717 0.22046 0.0
C486 C 0.98149 0.45178 0.20396 0.0
C487 C 0.96657 0.44684 0.18028 0.0
H488 H 0.48673 0.48652 0.66482 0.0
H489 H 0.57606 0.44593 0.695 0.0
H490 H 0.46712 0.49543 0.70858 0.0
H491 H 0.5564 0.45455 0.73848 0.0
H492 H 0.51997 0.48623 0.81533 0.0
H493 H 0.53951 0.49532 0.77159 0.0
H494 H 0.45024 0.4545 0.74163 0.0
H495 H 0.43062 0.44572 0.78511 0.0
C496 C 0.50238 0.48004 0.68075 0.0
C497 C 0.53273 0.4651 0.67649 0.0
C498 C 0.49112 0.48504 0.70577 0.0
C499 C 0.51015 0.4755 0.72693 0.0
C500 C 0.54129 0.46245 0.7226 0.0
C501 C 0.55242 0.45722 0.69766 0.0
C502 C 0.50431 0.47975 0.7994 0.0
C503 C 0.47396 0.46482 0.80365 0.0
C504 C 0.51553 0.48488 0.77439 0.0
C505 C 0.49648 0.47544 0.75322 0.0
C506 C 0.46536 0.46234 0.75753 0.0
C507 C 0.45425 0.45701 0.78247 0.0
H508 H 0.98579 0.49821 0.81318 0.0
H509 H 0.07495 0.54166 0.78518 0.0
H510 H 0.96617 0.49311 0.76905 0.0
H511 H 0.05528 0.53678 0.74133 0.0
H512 H 0.92933 0.54643 0.6943 0.0
H513 H 0.94922 0.53639 0.73758 0.0
H514 H 0.03887 0.49775 0.70664 0.0
H515 H 0.01907 0.50804 0.66314 0.0
C516 C 0.00139 0.50617 0.79762 0.0
C517 C 0.03174 0.5207 0.80264 0.0
C518 C 0.99011 0.50337 0.7724 0.0
C519 C 0.00913 0.51472 0.75179 0.0
C520 C 0.04019 0.52754 0.75678 0.0
C521 C 0.05134 0.53059 0.78194 0.0
C522 C 0.95315 0.53544 0.69668 0.0
C523 C 0.97281 0.52842 0.67531 0.0
C524 C 0.96441 0.5294 0.72149 0.0
C525 C -0.00437 0.51639 0.72547 0.0
C526 C 0.0148 0.50808 0.7041 0.0
C527 C 0.00343 0.5139 0.67922 0.0
H528 H 0.06899 0.18167 0.09717 0.0
H529 H -0.00621 0.1606 0.15268 0.0
H530 H 0.04525 0.23629 0.08964 0.0
H531 H 0.97052 0.2153 0.14553 0.0
H532 H 0.91817 0.30213 0.10778 0.0
H533 H 0.94149 0.24678 0.11289 0.0
H534 H 0.03792 0.28896 0.11138 0.0
H535 H 0.01478 0.34393 0.10575 0.0
C536 C 0.04757 0.18877 0.1079 0.0
C537 C 0.0333 0.16679 0.12552 0.0
C538 C 0.03399 0.22009 0.10363 0.0
C539 C 0.00589 0.23009 0.1169 0.0
C540 C -0.00817 0.20817 0.13466 0.0
C541 C 0.00537 0.17689 0.13892 0.0
C542 C 0.94433 0.29952 0.10837 0.0
C543 C 0.96459 0.32743 0.10641 0.0
C544 C 0.9577 0.26785 0.11146 0.0
C545 C -0.00842 0.26348 0.11263 0.0
C546 C 0.01177 0.29138 0.11025 0.0
C547 C -0.00156 0.32296 0.10717 0.0
H548 H 0.42762 0.81125 0.09191 0.0
H549 H 0.52226 0.83578 0.12229 0.0
H550 H 0.44176 0.7525 0.09295 0.0
H551 H 0.53601 0.77717 0.12407 0.0
H552 H 0.56245 0.67171 0.10172 0.0
H553 H 0.54836 0.73023 0.09771 0.0
H554 H 0.45071 0.70857 0.12307 0.0
H555 H 0.46452 0.65005 0.1263 0.0
C556 C 0.45138 0.8041 0.0989 0.0
C557 C 0.4738 0.82819 0.10702 0.0
C558 C 0.45945 0.77041 0.09962 0.0
C559 C 0.49004 0.76005 0.10862 0.0
C560 C 0.51245 0.78423 0.11664 0.0
C561 C 0.50446 0.81788 0.11577 0.0
C562 C 0.53796 0.67945 0.10636 0.0
C563 C 0.51463 0.65623 0.11435 0.0
C564 C 0.52991 0.71303 0.10419 0.0
C565 C 0.49839 0.72418 0.11011 0.0
C566 C 0.47506 0.70084 0.11797 0.0
C567 C 0.48306 0.66727 0.11999 0.0
H568 H 0.41397 0.69071 0.38336 0.0
H569 H 0.51317 0.65683 0.3903 0.0
H570 H 0.43322 0.74775 0.37945 0.0
H571 H 0.53234 0.71363 0.38588 0.0
H572 H 0.55397 0.82393 0.39826 0.0
H573 H 0.53394 0.7679 0.40667 0.0
H574 H 0.46196 0.77986 0.34705 0.0
H575 H 0.48148 0.83576 0.33896 0.0
C576 C 0.43984 0.69543 0.38419 0.0
C577 C 0.46203 0.6692 0.38698 0.0
C578 C 0.45089 0.72808 0.38179 0.0
C579 C 0.48434 0.7352 0.38215 0.0
C580 C 0.50643 0.70906 0.38575 0.0
C581 C 0.4954 0.67644 0.38813 0.0
C582 C 0.5339 0.81455 0.38695 0.0
C583 C 0.51935 0.83431 0.36794 0.0
C584 C 0.52247 0.78245 0.39173 0.0
C585 C 0.49622 0.7695 0.37763 0.0
C586 C 0.48182 0.78928 0.35858 0.0
C587 C 0.49323 0.82127 0.3538 0.0
H588 H 0.05857 0.32229 0.37365 0.0
H589 H 0.9634 0.35134 0.34691 0.0
H590 H 0.0408 0.26461 0.37543 0.0
H591 H 0.94598 0.29374 0.34791 0.0
H592 H 0.91492 0.19189 0.37631 0.0
H593 H 0.93278 0.24957 0.37664 0.0
H594 H 0.0267 0.21941 0.34787 0.0
H595 H 0.00919 0.1618 0.34833 0.0
C596 C 0.03392 0.31635 0.36803 0.0
C597 C 0.01241 0.34141 0.36017 0.0
C598 C 0.02377 0.28326 0.36892 0.0
C599 C -0.00807 0.27446 0.36181 0.0
C600 C 0.97048 0.29961 0.35394 0.0
C601 C 0.98056 0.33267 0.3532 0.0
C602 C 0.93938 0.1976 0.37009 0.0
C603 C 0.96062 0.17226 0.3623 0.0
C604 C 0.94959 0.23069 0.37015 0.0
C605 C 0.98121 0.2392 0.36226 0.0
C606 C 0.00239 0.21377 0.35447 0.0
C607 C -0.00775 0.18071 0.35457 0.0
H608 H -0.00711 0.65607 0.83472 0.0
H609 H 0.07027 0.67343 0.88915 0.0
H610 H 0.97294 0.71217 0.84167 0.0
H611 H 0.04988 0.72951 0.89642 0.0
H612 H 0.02485 0.83865 0.87939 0.0
H613 H 0.04497 0.78235 0.87393 0.0
H614 H 0.9465 0.74542 0.87487 0.0
H615 H 0.92623 0.80199 0.87988 0.0
C616 C 0.00566 0.67184 0.84819 0.0
C617 C 0.03322 0.66028 0.86136 0.0
C618 C -0.00597 0.70393 0.85233 0.0
C619 C 0.00969 0.72523 0.86971 0.0
C620 C 0.03743 0.71378 0.88274 0.0
C621 C 0.04907 0.68163 0.87862 0.0
C622 C 0.00744 0.81855 0.87855 0.0
C623 C 0.97391 0.82482 0.87997 0.0
C624 C 0.01902 0.78623 0.87556 0.0
C625 C -0.00265 0.75942 0.8739 0.0
C626 C 0.9638 0.76562 0.87573 0.0
C627 C 0.9522 0.79799 0.87876 0.0
H628 H 0.43016 0.30417 0.87218 0.0
H629 H 0.52533 0.33654 0.84784 0.0
H630 H 0.44799 0.24656 0.86963 0.0
H631 H 0.54284 0.27905 0.8446 0.0
H632 H 0.57329 0.17388 0.86652 0.0
H633 H 0.5557 0.23144 0.87042 0.0
H634 H 0.46238 0.20528 0.83831 0.0
H635 H 0.47963 0.1477 0.83508 0.0
C636 C 0.45483 0.29899 0.86619 0.0
C637 C 0.47631 0.32494 0.86022 0.0
C638 C 0.46501 0.26596 0.86458 0.0
C639 C 0.49686 0.25814 0.85687 0.0
C640 C 0.51832 0.28416 0.85097 0.0
C641 C 0.50819 0.31715 0.85268 0.0
C642 C 0.54904 0.18044 0.86027 0.0
C643 C 0.52785 0.15621 0.85052 0.0
C644 C 0.53899 0.21347 0.86241 0.0
C645 C 0.50758 0.22301 0.85473 0.0
C646 C 0.48652 0.19873 0.84482 0.0
C647 C 0.49651 0.16573 0.8428 0.0
H648 H 0.41438 0.18678 0.61432 0.0
H649 H 0.51026 0.1435 0.61012 0.0
H650 H 0.43858 0.24181 0.61814 0.0
H651 H 0.53437 0.19833 0.61448 0.0
H652 H 0.56474 0.30546 0.59622 0.0
H653 H 0.54105 0.25029 0.5914 0.0
H654 H 0.46939 0.27402 0.64913 0.0
H655 H 0.49257 0.32921 0.65359 0.0
C656 C 0.44059 0.18899 0.61424 0.0
C657 C 0.46038 0.16076 0.61194 0.0
C658 C 0.45447 0.2205 0.61659 0.0
C659 C 0.48842 0.22444 0.6167 0.0
C660 C 0.50816 0.19621 0.61416 0.0
C661 C 0.4943 0.16474 0.6118 0.0
C662 C 0.54403 0.29883 0.60796 0.0
C663 C 0.53051 0.32176 0.62523 0.0
C664 C 0.5305 0.26719 0.60525 0.0
C665 C 0.50319 0.25784 0.61977 0.0
C666 C 0.49004 0.28064 0.63732 0.0
C667 C 0.50352 0.31221 0.64001 0.0
H668 H 0.95481 0.84806 0.63037 0.0
H669 H 0.05163 0.82585 0.6034 0.0
H670 H 0.94144 0.78928 0.62949 0.0
H671 H 0.03794 0.76705 0.60178 0.0
H672 H 0.01415 0.66262 0.63004 0.0
H673 H 0.02729 0.72145 0.63005 0.0
H674 H 0.93151 0.74379 0.60086 0.0
H675 H 0.91803 0.68488 0.60158 0.0
C676 C 0.97318 0.83065 0.62404 0.0
C677 C 0.00433 0.84164 0.61702 0.0
C678 C 0.96543 0.79693 0.62339 0.0
C679 C 0.98859 0.77338 0.61556 0.0
C680 C 0.01966 0.78444 0.60828 0.0
C681 C 0.02747 0.81818 0.60907 0.0
C682 C -0.00413 0.68007 0.6236 0.0
C683 C 0.96501 0.66907 0.61586 0.0
C684 C 0.0035 0.71382 0.62345 0.0
C685 C 0.9805 0.73741 0.61539 0.0
C686 C 0.94966 0.72636 0.60751 0.0
C687 C 0.94197 0.69257 0.6078 0.0
H688 H 0.0213 0.98554 0.92408 0.0
H689 H 0.93171 0.95462 0.96012 0.0
H690 H 0.03887 0.01053 0.96448 0.0
H691 H 0.94944 0.97937 0.00041 0.0
H692 H 0.97781 0.06128 0.05808 0.0
H693 H 0.96014 0.03606 0.01785 0.0
H694 H 0.05476 0.99146 0.00849 0.0
H695 H 0.07259 0.01677 0.04859 0.0
C696 C 0.00539 0.98405 0.9406 0.0
C697 C 0.97515 0.9681 0.93892 0.0
C698 C 0.01553 -0.00181 0.96373 0.0
C699 C -0.0045 0.99685 0.98554 0.0
C700 C 0.96522 0.98104 0.98383 0.0
C701 C 0.95518 0.96671 0.96078 0.0
C702 C -0.00519 0.04602 0.04749 0.0
C703 C 0.02659 0.04104 0.0565 0.0
C704 C 0.98465 0.03149 0.02452 0.0
C705 C 0.00613 0.0119 0.01005 0.0
C706 C 0.03783 0.00678 0.01912 0.0
C707 C 0.04793 0.02109 0.04217 0.0
H708 H 0.5434 0.07746 0.95083 0.0
H709 H 0.5172 0.99557 0.90138 0.0
H710 H 0.51541 0.05085 0.98646 0.0
H711 H 0.48983 0.96861 0.93722 0.0
H712 H 0.41674 0.94652 0.00128 0.0
H713 H 0.4426 0.9743 0.96508 0.0
H714 H 0.52267 0.00281 0.01395 0.0
H715 H 0.49657 0.97572 0.05021 0.0
C716 C 0.53173 0.05375 0.94757 0.0
C717 C 0.53261 0.03857 0.92332 0.0
C718 C 0.51584 0.03842 0.96803 0.0
C719 C 0.50056 0.00755 0.96469 0.0
C720 C 0.50108 0.99256 0.94034 0.0
C721 C 0.51692 0.00793 0.91985 0.0
C722 C 0.43986 0.95872 0.00429 0.0
C723 C 0.45458 0.95896 0.02862 0.0
C724 C 0.45473 0.9745 0.98352 0.0
C725 C 0.48463 0.99081 0.98667 0.0
C726 C 0.49939 0.99091 0.01099 0.0
C727 C 0.48452 0.97519 0.03174 0.0
H728 H 0.42998 0.00295 0.55098 0.0
H729 H 0.43514 0.09703 0.51135 0.0
H730 H 0.45088 0.97499 0.51296 0.0
H731 H 0.45603 0.06885 0.47322 0.0
H732 H 0.53183 0.00798 0.42574 0.0
H733 H 0.50742 0.03804 0.46155 0.0
H734 H 0.43315 0.96285 0.46777 0.0
H735 H 0.45753 0.93265 0.43206 0.0
C736 C 0.43549 0.01765 0.53413 0.0
C737 C 0.43097 0.0522 0.53416 0.0
C738 C 0.44724 0.00159 0.51232 0.0
C739 C 0.45497 0.01977 0.49017 0.0
C740 C 0.45043 0.0543 0.49013 0.0
C741 C 0.43836 0.07037 0.5119 0.0
C742 C 0.51018 -0.00204 0.43465 0.0
C743 C 0.49671 0.96784 0.4262 0.0
C744 C 0.49613 0.01528 0.45503 0.0
C745 C 0.46851 0.00266 0.46745 0.0
C746 C 0.45466 0.97291 0.45868 0.0
C747 C 0.46855 0.95573 0.43818 0.0
H748 H 0.06042 0.9624 0.51793 0.0
H749 H 0.98158 0.99298 0.56733 0.0
H750 H 0.03475 0.9905 0.48191 0.0
H751 H 0.95549 0.02044 0.53109 0.0
H752 H 0.9358 0.09463 0.46642 0.0
H753 H 0.96221 0.06779 0.50279 0.0
H754 H 0.98783 0.9847 0.45442 0.0
H755 H 0.96217 0.01184 0.41796 0.0
C756 C 0.03753 0.97499 0.52108 0.0
C757 C 0.02301 0.97544 0.54547 0.0
C758 C 0.02273 0.99095 0.50039 0.0
C759 C -0.00697 0.00761 0.50361 0.0
C760 C 0.97857 0.00816 0.52805 0.0
C761 C -0.00658 0.99227 0.54878 0.0
C762 C 0.9471 0.07066 0.46355 0.0
C763 C 0.94693 0.05538 0.43931 0.0
C764 C 0.96207 0.0552 0.48442 0.0
C765 C 0.97712 0.02412 0.48149 0.0
C766 C 0.97687 0.00886 0.45723 0.0
C767 C 0.962 0.02434 0.43636 0.0
H768 H 0.49312 0.50437 0.06837 0.0
H769 H 0.57378 0.53425 0.02059 0.0
H770 H 0.46833 0.47655 0.03171 0.0
H771 H 0.54943 0.50576 0.98419 0.0
H772 H 0.47898 0.48423 0.91873 0.0
H773 H 0.50371 0.51141 0.95558 0.0
H774 H 0.47572 0.429 0.00378 0.0
H775 H 0.45022 0.40215 0.96701 0.0
C776 C 0.50565 0.50483 0.05009 0.0
C777 C 0.53535 0.52161 0.04735 0.0
C778 C 0.49154 0.48872 0.02913 0.0
C779 C 0.50689 0.48898 0.00502 0.0
C780 C 0.53673 0.50554 0.00239 0.0
C781 C 0.55077 0.52172 0.0233 0.0
C782 C 0.47813 0.47188 0.93718 0.0
C783 C 0.46262 0.44105 0.93996 0.0
C784 C 0.49246 0.48738 0.95828 0.0
C785 C 0.49172 0.47235 0.98262 0.0
C786 C 0.47633 0.44144 0.98537 0.0
C787 C 0.46189 0.42596 0.96426 0.0
H788 H 0.00693 0.48691 0.06176 0.0
H789 H 0.91875 0.45237 0.02548 0.0
H790 H 0.0255 0.50904 0.02072 0.0
H791 H 0.93751 0.47435 0.98447 0.0
H792 H 0.96848 0.55264 0.92392 0.0
H793 H 0.94885 0.52975 0.96444 0.0
H794 H 0.04301 0.48609 0.97825 0.0
H795 H 0.06276 0.509 0.9379 0.0
C796 C 0.99151 0.48406 0.04506 0.0
C797 C 0.96142 0.46785 0.04685 0.0
C798 C 0.00224 0.49655 0.02155 0.0
C799 C 0.98297 0.49329 -0.00056 0.0
C800 C 0.95273 0.47741 0.00127 0.0
C801 C 0.9421 0.4647 0.02472 0.0
C802 C 0.98494 0.53801 0.93553 0.0
C803 C 0.01719 0.53272 0.92775 0.0
C804 C 0.97366 0.52484 0.95867 0.0
C805 C -0.0055 0.50634 0.97452 0.0
C806 C 0.02658 0.50065 0.96655 0.0
C807 C 0.03778 0.51359 0.94337 0.0
H808 H 0.94936 0.5897 0.51262 0.0
H809 H 0.97831 0.50772 0.56097 0.0
H810 H 0.97653 0.56378 0.47622 0.0
H811 H 0.00474 0.48146 0.52444 0.0
H812 H 0.07629 0.46011 0.45997 0.0
H813 H 0.051 0.488 0.4963 0.0
H814 H 0.97013 0.51626 0.44817 0.0
H815 H -0.00421 0.48908 0.41166 0.0
C816 C 0.96145 0.56611 0.51547 0.0
C817 C 0.96166 0.55074 0.53966 0.0
C818 C 0.97685 0.55118 0.49457 0.0
C819 C -0.00727 0.52053 0.49743 0.0
C820 C -0.0069 0.50529 0.52168 0.0
C821 C 0.97779 0.52026 0.54259 0.0
C822 C 0.05314 0.47232 0.45712 0.0
C823 C 0.03802 0.47236 0.43295 0.0
C824 C 0.03857 0.48816 0.47798 0.0
C825 C 0.00853 0.50429 0.47514 0.0
C826 C -0.00651 0.50444 0.45092 0.0
C827 C 0.0081 0.48869 0.43003 0.0
H828 H 0.47156 0.42439 0.55432 0.0
H829 H 0.5655 0.47018 0.54346 0.0
H830 H 0.45256 0.44955 0.51442 0.0
H831 H 0.54637 0.4954 0.50377 0.0
H832 H 0.51133 0.50375 0.42044 0.0
H833 H 0.52966 0.47713 0.45995 0.0
H834 H 0.44066 0.50623 0.49759 0.0
H835 H 0.42216 0.5326 0.45813 0.0
C836 C 0.4881 0.43987 0.54349 0.0
C837 C 0.52002 0.44529 0.55205 0.0
C838 C 0.47719 0.45435 0.5207 0.0
C839 C 0.49805 0.47432 0.50598 0.0
C840 C 0.52991 0.47977 0.51457 0.0
C841 C 0.54076 0.4655 0.5374 0.0
C842 C 0.49564 0.50439 0.43712 0.0
C843 C 0.46535 0.52035 0.43619 0.0
C844 C 0.50621 0.4893 0.45976 0.0
C845 C 0.48659 0.48969 0.48182 0.0
C846 C 0.45615 0.50529 0.4808 0.0
C847 C 0.44567 0.52056 0.45824 0.0
loop_
_geom_bond_atom_site_label_1
_geom_bond_atom_site_label_2
_geom_bond_distance
_geom_bond_site_symmetry_2
_ccdc_geom_bond_type
C0 O1 1.160 . S
C0 O7 1.185 . S
O1 C0 1.160 . S
O2 Zn3 1.899 . S
O2 C10 1.284 . S
Zn3 O2 1.899 . S
Zn3 O4 2.032 . S
Zn3 O7 2.086 . S
Zn3 O12 1.977 . S
O4 Zn3 2.032 . S
O4 C8 1.278 . S
C5 O6 1.203 . S
C5 O12 1.267 . S
O6 C5 1.203 . S
O7 C0 1.185 . S
O7 Zn3 2.086 . S
C8 O4 1.278 . S
C8 O9 1.211 . S
O9 C8 1.211 . S
C10 O2 1.284 . S
C10 O11 1.273 . S
O11 C10 1.273 . S
O12 Zn3 1.977 . S
O12 C5 1.267 . S
C13 O14 1.160 . S
C13 O20 1.185 . S
O14 C13 1.160 . S
O15 Zn16 1.899 . S
O15 C23 1.284 . S
Zn16 O15 1.899 . S
Zn16 O17 2.032 . S
Zn16 O20 2.086 . S
Zn16 O25 1.977 . S
O17 Zn16 2.032 . S
O17 C21 1.278 . S
C18 O19 1.203 . S
C18 O25 1.267 . S
O19 C18 1.203 . S
O20 C13 1.185 . S
O20 Zn16 2.086 . S
C21 O17 1.278 . S
C21 O22 1.211 . S
O22 C21 1.211 . S
C23 O15 1.284 . S
C23 O24 1.273 . S
O24 C23 1.273 . S
O25 Zn16 1.977 . S
O25 C18 1.267 . S
C26 O27 1.160 . S
C26 O33 1.185 . S
O27 C26 1.160 . S
O28 Zn29 1.899 . S
O28 C36 1.284 . S
Zn29 O28 1.899 . S
Zn29 O30 2.032 . S
Zn29 O33 2.086 . S
Zn29 O38 1.977 . S
O30 Zn29 2.032 . S
O30 C34 1.278 . S
C31 O32 1.203 . S
C31 O38 1.267 . S
O32 C31 1.203 . S
O33 C26 1.185 . S
O33 Zn29 2.086 . S
C34 O30 1.278 . S
C34 O35 1.211 . S
O35 C34 1.211 . S
C36 O28 1.284 . S
C36 O37 1.273 . S
O37 C36 1.273 . S
O38 Zn29 1.977 . S
O38 C31 1.267 . S
C39 O40 1.160 . S
C39 O46 1.185 . S
O40 C39 1.160 . S
O41 Zn42 1.899 . S
O41 C49 1.284 . S
Zn42 O41 1.899 . S
Zn42 O43 2.032 . S
Zn42 O46 2.086 . S
Zn42 O51 1.977 . S
O43 Zn42 2.032 . S
O43 C47 1.278 . S
C44 O45 1.203 . S
C44 O51 1.267 . S
O45 C44 1.203 . S
O46 C39 1.185 . S
O46 Zn42 2.086 . S
C47 O43 1.278 . S
C47 O48 1.211 . S
O48 C47 1.211 . S
C49 O41 1.284 . S
C49 O50 1.273 . S
O50 C49 1.273 . S
O51 Zn42 1.977 . S
O51 C44 1.267 . S
C52 O53 1.160 . S
C52 O59 1.185 . S
O53 C52 1.160 . S
O54 Zn55 1.899 . S
O54 C62 1.284 . S
Zn55 O54 1.899 . S
Zn55 O56 2.032 . S
Zn55 O59 2.086 . S
Zn55 O64 1.977 . S
O56 Zn55 2.032 . S
O56 C60 1.278 . S
C57 O58 1.203 . S
C57 O64 1.267 . S
O58 C57 1.203 . S
O59 C52 1.185 . S
O59 Zn55 2.086 . S
C60 O56 1.278 . S
C60 O61 1.211 . S
O61 C60 1.211 . S
C62 O54 1.284 . S
C62 O63 1.273 . S
O63 C62 1.273 . S
O64 Zn55 1.977 . S
O64 C57 1.267 . S
C65 O66 1.160 . S
C65 O72 1.185 . S
O66 C65 1.160 . S
O67 Zn68 1.899 . S
O67 C75 1.284 . S
Zn68 O67 1.899 . S
Zn68 O69 2.032 . S
Zn68 O72 2.086 . S
Zn68 O77 1.977 . S
O69 Zn68 2.032 . S
O69 C73 1.278 . S
C70 O71 1.203 . S
C70 O77 1.267 . S
O71 C70 1.203 . S
O72 C65 1.185 . S
O72 Zn68 2.086 . S
C73 O69 1.278 . S
C73 O74 1.211 . S
O74 C73 1.211 . S
C75 O67 1.284 . S
C75 O76 1.273 . S
O76 C75 1.273 . S
O77 Zn68 1.977 . S
O77 C70 1.267 . S
C78 O79 1.160 . S
C78 O85 1.185 . S
O79 C78 1.160 . S
O80 Zn81 1.899 . S
O80 C88 1.284 . S
Zn81 O80 1.899 . S
Zn81 O82 2.032 . S
Zn81 O85 2.086 . S
Zn81 O90 1.977 . S
O82 Zn81 2.032 . S
O82 C86 1.278 . S
C83 O84 1.203 . S
C83 O90 1.267 . S
O84 C83 1.203 . S
O85 C78 1.185 . S
O85 Zn81 2.086 . S
C86 O82 1.278 . S
C86 O87 1.211 . S
O87 C86 1.211 . S
C88 O80 1.284 . S
C88 O89 1.273 . S
O89 C88 1.273 . S
O90 Zn81 1.977 . S
O90 C83 1.267 . S
C91 O92 1.160 . S
C91 O98 1.185 . S
O92 C91 1.160 . S
O93 Zn94 1.899 . S
O93 C101 1.284 . S
Zn94 O93 1.899 . S
Zn94 O95 2.032 . S
Zn94 O98 2.086 . S
Zn94 O103 1.977 . S
O95 Zn94 2.032 . S
O95 C99 1.278 . S
C96 O97 1.203 . S
C96 O103 1.267 . S
O97 C96 1.203 . S
O98 C91 1.185 . S
O98 Zn94 2.086 . S
C99 O95 1.278 . S
C99 O100 1.211 . S
O100 C99 1.211 . S
C101 O93 1.284 . S
C101 O102 1.273 . S
O102 C101 1.273 . S
O103 Zn94 1.977 . S
O103 C96 1.267 . S
C104 O105 1.160 . S
C104 O111 1.185 . S
O105 C104 1.160 . S
O106 Zn107 1.899 . S
O106 C114 1.284 . S
Zn107 O106 1.899 . S
Zn107 O108 2.032 . S
Zn107 O111 2.086 . S
Zn107 O116 1.977 . S
O108 Zn107 2.032 . S
O108 C112 1.278 . S
C109 O110 1.203 . S
C109 O116 1.267 . S
O110 C109 1.203 . S
O111 C104 1.185 . S
O111 Zn107 2.086 . S
C112 O108 1.278 . S
C112 O113 1.211 . S
O113 C112 1.211 . S
C114 O106 1.284 . S
C114 O115 1.273 . S
O115 C114 1.273 . S
O116 Zn107 1.977 . S
O116 C109 1.267 . S
C117 O118 1.160 . S
C117 O124 1.185 . S
O118 C117 1.160 . S
O119 Zn120 1.899 . S
O119 C127 1.284 . S
Zn120 O119 1.899 . S
Zn120 O121 2.032 . S
Zn120 O124 2.086 . S
Zn120 O129 1.977 . S
O121 Zn120 2.032 . S
O121 C125 1.278 . S
C122 O123 1.203 . S
C122 O129 1.267 . S
O123 C122 1.203 . S
O124 C117 1.185 . S
O124 Zn120 2.086 . S
C125 O121 1.278 . S
C125 O126 1.211 . S
O126 C125 1.211 . S
C127 O119 1.284 . S
C127 O128 1.273 . S
O128 C127 1.273 . S
O129 Zn120 1.977 . S
O129 C122 1.267 . S
C130 O131 1.160 . S
C130 O137 1.185 . S
O131 C130 1.160 . S
O132 Zn133 1.899 . S
O132 C140 1.284 . S
Zn133 O132 1.899 . S
Zn133 O134 2.032 . S
Zn133 O137 2.086 . S
Zn133 O142 1.977 . S
O134 Zn133 2.032 . S
O134 C138 1.278 . S
C135 O136 1.203 . S
C135 O142 1.267 . S
O136 C135 1.203 . S
O137 C130 1.185 . S
O137 Zn133 2.086 . S
C138 O134 1.278 . S
C138 O139 1.211 . S
O139 C138 1.211 . S
C140 O132 1.284 . S
C140 O141 1.273 . S
O141 C140 1.273 . S
O142 Zn133 1.977 . S
O142 C135 1.267 . S
C143 O144 1.160 . S
C143 O150 1.185 . S
O144 C143 1.160 . S
O145 Zn146 1.899 . S
O145 C153 1.284 . S
Zn146 O145 1.899 . S
Zn146 O147 2.032 . S
Zn146 O150 2.086 . S
Zn146 O155 1.977 . S
O147 Zn146 2.032 . S
O147 C151 1.278 . S
C148 O149 1.203 . S
C148 O155 1.267 . S
O149 C148 1.203 . S
O150 C143 1.185 . S
O150 Zn146 2.086 . S
C151 O147 1.278 . S
C151 O152 1.211 . S
O152 C151 1.211 . S
C153 O145 1.284 . S
C153 O154 1.273 . S
O154 C153 1.273 . S
O155 Zn146 1.977 . S
O155 C148 1.267 . S
C156 O157 1.160 . S
C156 O163 1.185 . S
O157 C156 1.160 . S
O158 Zn159 1.899 . S
O158 C166 1.284 . S
Zn159 O158 1.899 . S
Zn159 O160 2.032 . S
Zn159 O163 2.086 . S
Zn159 O168 1.977 . S
O160 Zn159 2.032 . S
O160 C164 1.278 . S
C161 O162 1.203 . S
C161 O168 1.267 . S
O162 C161 1.203 . S
O163 C156 1.185 . S
O163 Zn159 2.086 . S
C164 O160 1.278 . S
C164 O165 1.211 . S
O165 C164 1.211 . S
C166 O158 1.284 . S
C166 O167 1.273 . S
O167 C166 1.273 . S
O168 Zn159 1.977 . S
O168 C161 1.267 . S
C169 O170 1.160 . S
C169 O176 1.185 . S
O170 C169 1.160 . S
O171 Zn172 1.899 . S
O171 C179 1.284 . S
Zn172 O171 1.899 . S
Zn172 O173 2.032 . S
Zn172 O176 2.086 . S
Zn172 O181 1.977 . S
O173 Zn172 2.032 . S
O173 C177 1.278 . S
C174 O175 1.203 . S
C174 O181 1.267 . S
O175 C174 1.203 . S
O176 C169 1.185 . S
O176 Zn172 2.086 . S
C177 O173 1.278 . S
C177 O178 1.211 . S
O178 C177 1.211 . S
C179 O171 1.284 . S
C179 O180 1.273 . S
O180 C179 1.273 . S
O181 Zn172 1.977 . S
O181 C174 1.267 . S
C182 O183 1.160 . S
C182 O189 1.185 . S
O183 C182 1.160 . S
O184 Zn185 1.899 . S
O184 C192 1.284 . S
Zn185 O184 1.899 . S
Zn185 O186 2.032 . S
Zn185 O189 2.086 . S
Zn185 O194 1.977 . S
O186 Zn185 2.032 . S
O186 C190 1.278 . S
C187 O188 1.203 . S
C187 O194 1.267 . S
O188 C187 1.203 . S
O189 C182 1.185 . S
O189 Zn185 2.086 . S
C190 O186 1.278 . S
C190 O191 1.211 . S
O191 C190 1.211 . S
C192 O184 1.284 . S
C192 O193 1.273 . S
O193 C192 1.273 . S
O194 Zn185 1.977 . S
O194 C187 1.267 . S
C195 O196 1.160 . S
C195 O202 1.185 . S
O196 C195 1.160 . S
O197 Zn198 1.899 . S
O197 C205 1.284 . S
Zn198 O197 1.899 . S
Zn198 O199 2.032 . S
Zn198 O202 2.086 . S
Zn198 O207 1.977 . S
O199 Zn198 2.032 . S
O199 C203 1.278 . S
C200 O201 1.203 . S
C200 O207 1.267 . S
O201 C200 1.203 . S
O202 C195 1.185 . S
O202 Zn198 2.086 . S
C203 O199 1.278 . S
C203 O204 1.211 . S
O204 C203 1.211 . S
C205 O197 1.284 . S
C205 O206 1.273 . S
O206 C205 1.273 . S
O207 Zn198 1.977 . S
O207 C200 1.267 . S
H208 C216 0.950 . S
H209 C221 0.950 1_545 S
H210 C218 0.950 . S
H211 C220 0.950 . S
H212 C222 0.950 . S
H213 C224 0.950 . S
H214 C226 0.950 . S
H215 C227 0.950 1_565 S
C216 H208 0.950 . S
C216 C217 1.386 . S
C216 C218 1.391 . S
C217 C216 1.386 . S
C217 C221 1.393 . S
C218 H210 0.950 . S
C218 C216 1.391 . S
C218 C219 1.400 . S
C219 C218 1.400 . S
C219 C220 1.398 1_565 S
C219 C225 1.491 1_565 S
C220 H211 0.950 . S
C220 C219 1.398 1_545 S
C220 C221 1.391 1_545 S
C221 H209 0.950 1_565 S
C221 C217 1.393 . S
C221 C220 1.391 1_565 S
C222 H212 0.950 . S
C222 C223 1.386 . S
C222 C224 1.391 . S
C223 C222 1.386 . S
C223 C227 1.393 . S
C224 H213 0.950 . S
C224 C222 1.391 . S
C224 C225 1.400 . S
C225 C219 1.491 1_545 S
C225 C224 1.400 . S
C225 C226 1.398 1_545 S
C226 H214 0.950 . S
C226 C225 1.398 1_565 S
C226 C227 1.391 1_565 S
C227 H215 0.950 1_545 S
C227 C223 1.393 . S
C227 C226 1.391 1_545 S
H228 C236 0.950 . S
H229 C241 0.950 1_545 S
H230 C238 0.950 . S
H231 C240 0.950 . S
H232 C242 0.950 . S
H233 C244 0.950 . S
H234 C246 0.950 . S
H235 C247 0.950 1_565 S
C236 H228 0.950 . S
C236 C237 1.386 . S
C236 C238 1.391 . S
C237 C236 1.386 . S
C237 C241 1.393 . S
C238 H230 0.950 . S
C238 C236 1.391 . S
C238 C239 1.400 . S
C239 C238 1.400 . S
C239 C240 1.398 1_565 S
C239 C245 1.491 1_565 S
C240 H231 0.950 . S
C240 C239 1.398 1_545 S
C240 C241 1.391 1_545 S
C241 H229 0.950 1_565 S
C241 C237 1.393 . S
C241 C240 1.391 1_565 S
C242 H232 0.950 . S
C242 C243 1.386 . S
C242 C244 1.391 . S
C243 C242 1.386 . S
C243 C247 1.393 . S
C244 H233 0.950 . S
C244 C242 1.391 . S
C244 C245 1.400 . S
C245 C239 1.491 1_545 S
C245 C244 1.400 . S
C245 C246 1.398 1_545 S
C246 H234 0.950 . S
C246 C245 1.398 1_565 S
C246 C247 1.391 1_565 S
C247 H235 0.950 1_545 S
C247 C243 1.393 . S
C247 C246 1.391 1_545 S
H248 C256 0.950 . S
H249 C261 0.950 . S
H250 C258 0.950 . S
H251 C260 0.950 . S
H252 C262 0.950 . S
H253 C264 0.950 . S
H254 C266 0.950 . S
H255 C267 0.950 . S
C256 H248 0.950 . S
C256 C257 1.386 1_545 S
C256 C258 1.391 . S
C257 C256 1.386 1_565 S
C257 C261 1.393 . S
C258 H250 0.950 . S
C258 C256 1.391 . S
C258 C259 1.400 1_545 S
C259 C258 1.400 1_565 S
C259 C260 1.398 . S
C259 C265 1.491 1_565 S
C260 H251 0.950 . S
C260 C259 1.398 . S
C260 C261 1.391 . S
C261 H249 0.950 . S
C261 C257 1.393 . S
C261 C260 1.391 . S
C262 H252 0.950 . S
C262 C263 1.386 1_565 S
C262 C264 1.391 . S
C263 C262 1.386 1_545 S
C263 C267 1.393 . S
C264 H253 0.950 . S
C264 C262 1.391 . S
C264 C265 1.400 1_565 S
C265 C259 1.491 1_545 S
C265 C264 1.400 1_545 S
C265 C266 1.398 . S
C266 H254 0.950 . S
C266 C265 1.398 . S
C266 C267 1.391 . S
C267 H255 0.950 . S
C267 C263 1.393 . S
C267 C266 1.391 . S
H268 C276 0.950 . S
H269 C281 0.950 . S
H270 C278 0.950 . S
H271 C280 0.950 . S
H272 C282 0.950 . S
H273 C284 0.950 . S
H274 C286 0.950 . S
H275 C287 0.950 . S
C276 H268 0.950 . S
C276 C277 1.386 . S
C276 C278 1.391 . S
C277 C276 1.386 . S
C277 C281 1.393 . S
C278 H270 0.950 . S
C278 C276 1.391 . S
C278 C279 1.400 . S
C279 C278 1.400 . S
C279 C280 1.398 . S
C279 C285 1.491 1_565 S
C280 H271 0.950 . S
C280 C279 1.398 . S
C280 C281 1.391 . S
C281 H269 0.950 . S
C281 C277 1.393 . S
C281 C280 1.391 . S
C282 H272 0.950 . S
C282 C283 1.386 . S
C282 C284 1.391 . S
C283 C282 1.386 . S
C283 C287 1.393 . S
C284 H273 0.950 . S
C284 C282 1.391 . S
C284 C285 1.400 . S
C285 C279 1.491 1_545 S
C285 C284 1.400 . S
C285 C286 1.398 . S
C286 H274 0.950 . S
C286 C285 1.398 . S
C286 C287 1.391 . S
C287 H275 0.950 . S
C287 C283 1.393 . S
C287 C286 1.391 . S
H288 C296 0.950 . S
H289 C301 0.950 . S
H290 C298 0.950 . S
H291 C300 0.950 . S
H292 C302 0.950 . S
H293 C304 0.950 . S
H294 C306 0.950 . S
H295 C307 0.950 . S
C296 H288 0.950 . S
C296 C297 1.386 . S
C296 C298 1.391 . S
C297 C296 1.386 . S
C297 C301 1.393 . S
C298 H290 0.950 . S
C298 C296 1.391 . S
C298 C299 1.400 . S
C299 C298 1.400 . S
C299 C300 1.398 . S
C299 C305 1.491 . S
C300 H291 0.950 . S
C300 C299 1.398 . S
C300 C301 1.391 . S
C301 H289 0.950 . S
C301 C297 1.393 . S
C301 C300 1.391 . S
C302 H292 0.950 . S
C302 C303 1.386 . S
C302 C304 1.391 . S
C303 C302 1.386 . S
C303 C307 1.393 . S
C304 H293 0.950 . S
C304 C302 1.391 . S
C304 C305 1.400 . S
C305 C299 1.491 . S
C305 C304 1.400 . S
C305 C306 1.398 . S
C306 H294 0.950 . S
C306 C305 1.398 . S
C306 C307 1.391 . S
C307 H295 0.950 . S
C307 C303 1.393 . S
C307 C306 1.391 . S
H308 C316 0.950 . S
H309 C321 0.950 . S
H310 C318 0.950 . S
H311 C320 0.950 . S
H312 C322 0.950 . S
H313 C324 0.950 . S
H314 C326 0.950 . S
H315 C327 0.950 . S
C316 H308 0.950 . S
C316 C317 1.386 . S
C316 C318 1.391 . S
C317 C316 1.386 . S
C317 C321 1.393 . S
C318 H310 0.950 . S
C318 C316 1.391 . S
C318 C319 1.400 . S
C319 C318 1.400 . S
C319 C320 1.398 . S
C319 C325 1.491 . S
C320 H311 0.950 . S
C320 C319 1.398 . S
C320 C321 1.391 . S
C321 H309 0.950 . S
C321 C317 1.393 . S
C321 C320 1.391 . S
C322 H312 0.950 . S
C322 C323 1.386 . S
C322 C324 1.391 . S
C323 C322 1.386 . S
C323 C327 1.393 . S
C324 H313 0.950 . S
C324 C322 1.391 . S
C324 C325 1.400 . S
C325 C319 1.491 . S
C325 C324 1.400 . S
C325 C326 1.398 . S
C326 H314 0.950 . S
C326 C325 1.398 . S
C326 C327 1.391 . S
C327 H315 0.950 . S
C327 C323 1.393 . S
C327 C326 1.391 . S
H328 C336 0.950 . S
H329 C341 0.950 . S
H330 C338 0.950 . S
H331 C340 0.950 . S
H332 C342 0.950 . S
H333 C344 0.950 . S
H334 C346 0.950 . S
H335 C347 0.950 . S
C336 H328 0.950 . S
C336 C337 1.386 . S
C336 C338 1.391 . S
C337 C336 1.386 . S
C337 C341 1.393 . S
C338 H330 0.950 . S
C338 C336 1.391 . S
C338 C339 1.400 . S
C339 C338 1.400 . S
C339 C340 1.398 . S
C339 C345 1.491 . S
C340 H331 0.950 . S
C340 C339 1.398 . S
C340 C341 1.391 . S
C341 H329 0.950 . S
C341 C337 1.393 . S
C341 C340 1.391 . S
C342 H332 0.950 . S
C342 C343 1.386 . S
C342 C344 1.391 . S
C343 C342 1.386 . S
C343 C347 1.393 . S
C344 H333 0.950 . S
C344 C342 1.391 . S
C344 C345 1.400 . S
C345 C339 1.491 . S
C345 C344 1.400 . S
C345 C346 1.398 . S
C346 H334 0.950 . S
C346 C345 1.398 . S
C346 C347 1.391 . S
C347 H335 0.950 . S
C347 C343 1.393 . S
C347 C346 1.391 . S
H348 C356 0.950 . S
H349 C361 0.950 . S
H350 C358 0.950 . S
H351 C360 0.950 . S
H352 C362 0.950 . S
H353 C364 0.950 . S
H354 C366 0.950 . S
H355 C367 0.950 . S
C356 H348 0.950 . S
C356 C357 1.386 . S
C356 C358 1.391 . S
C357 C356 1.386 . S
C357 C361 1.393 . S
C358 H350 0.950 . S
C358 C356 1.391 . S
C358 C359 1.400 . S
C359 C358 1.400 . S
C359 C360 1.398 . S
C359 C365 1.491 . S
C360 H351 0.950 . S
C360 C359 1.398 . S
C360 C361 1.391 . S
C361 H349 0.950 . S
C361 C357 1.393 . S
C361 C360 1.391 . S
C362 H352 0.950 . S
C362 C363 1.386 . S
C362 C364 1.391 . S
C363 C362 1.386 . S
C363 C367 1.393 . S
C364 H353 0.950 . S
C364 C362 1.391 . S
C364 C365 1.400 . S
C365 C359 1.491 . S
C365 C364 1.400 . S
C365 C366 1.398 . S
C366 H354 0.950 . S
C366 C365 1.398 . S
C366 C367 1.391 . S
C367 H355 0.950 . S
C367 C363 1.393 . S
C367 C366 1.391 . S
H368 C376 0.959 . S
H369 C381 0.950 . S
H370 C378 0.950 . S
H371 C380 0.950 . S
H372 C382 0.959 . S
H373 C384 0.950 . S
H374 C386 0.950 . S
H375 C387 0.950 . S
C376 H368 0.959 . S
C376 C377 1.371 1_455 S
C376 C378 1.397 . S
C377 C376 1.371 1_655 S
C377 C381 1.393 . S
C378 H370 0.950 . S
C378 C376 1.397 . S
C378 C379 1.400 1_455 S
C379 C378 1.400 1_655 S
C379 C380 1.398 . S
C379 C385 1.491 1_655 S
C380 H371 0.950 . S
C380 C379 1.398 . S
C380 C381 1.391 . S
C381 H369 0.950 . S
C381 C377 1.393 . S
C381 C380 1.391 . S
C382 H372 0.959 . S
C382 C383 1.371 1_655 S
C382 C384 1.397 . S
C383 C382 1.371 1_455 S
C383 C387 1.393 . S
C384 H373 0.950 . S
C384 C382 1.397 . S
C384 C385 1.400 1_655 S
C385 C379 1.491 1_455 S
C385 C384 1.400 1_455 S
C385 C386 1.398 . S
C386 H374 0.950 . S
C386 C385 1.398 . S
C386 C387 1.391 . S
C387 H375 0.950 . S
C387 C383 1.393 . S
C387 C386 1.391 . S
H388 C396 0.950 . S
H389 C401 0.950 . S
H390 C398 0.950 . S
H391 C400 0.950 . S
H392 C402 0.950 . S
H393 C404 0.950 . S
H394 C406 0.950 . S
H395 C407 0.950 . S
C396 H388 0.950 . S
C396 C397 1.386 . S
C396 C398 1.391 . S
C397 C396 1.386 . S
C397 C401 1.393 . S
C398 H390 0.950 . S
C398 C396 1.391 . S
C398 C399 1.400 . S
C399 C398 1.400 . S
C399 C400 1.398 . S
C399 C405 1.491 . S
C400 H391 0.950 . S
C400 C399 1.398 . S
C400 C401 1.391 . S
C401 H389 0.950 . S
C401 C397 1.393 . S
C401 C400 1.391 . S
C402 H392 0.950 . S
C402 C403 1.386 . S
C402 C404 1.391 . S
C403 C402 1.386 . S
C403 C407 1.393 . S
C404 H393 0.950 . S
C404 C402 1.391 . S
C404 C405 1.400 . S
C405 C399 1.491 . S
C405 C404 1.400 . S
C405 C406 1.398 . S
C406 H394 0.950 . S
C406 C405 1.398 . S
C406 C407 1.391 . S
C407 H395 0.950 . S
C407 C403 1.393 . S
C407 C406 1.391 . S
H408 C416 0.950 . S
H409 C421 0.950 . S
H410 C418 0.976 . S
H411 C420 0.950 . S
H412 C422 0.950 . S
H413 C424 0.950 . S
H414 C426 0.931 1_545 S
H415 C427 0.941 1_545 S
C416 H408 0.950 . S
C416 C417 1.386 . S
C416 C418 1.391 1_455 S
C417 C416 1.386 . S
C417 C421 1.393 . S
C418 H410 0.976 . S
C418 C416 1.391 1_655 S
C418 C419 1.400 1_655 S
C419 C418 1.400 1_455 S
C419 C420 1.398 . S
C419 C425 1.491 1_455 S
C420 H411 0.950 . S
C420 C419 1.398 . S
C420 C421 1.391 . S
C421 H409 0.950 . S
C421 C417 1.393 . S
C421 C420 1.391 . S
C422 H412 0.950 . S
C422 C423 1.386 . S
C422 C424 1.391 1_655 S
C423 C422 1.386 . S
C423 C427 1.393 . S
C424 H413 0.950 . S
C424 C422 1.391 1_455 S
C424 C425 1.400 1_455 S
C425 C419 1.491 1_655 S
C425 C424 1.400 1_655 S
C425 C426 1.398 . S
C426 H414 0.931 1_565 S
C426 C425 1.398 . S
C426 C427 1.391 . S
C427 H415 0.941 1_565 S
C427 C423 1.393 . S
C427 C426 1.391 . S
H428 C436 0.950 . S
H429 C441 0.950 . S
H430 C438 0.950 . S
H431 C440 0.950 . S
H432 C442 0.950 . S
H433 C444 0.950 . S
H434 C446 0.950 . S
H435 C447 0.950 . S
C436 H428 0.950 . S
C436 C437 1.386 . S
C436 C438 1.391 . S
C437 C436 1.386 . S
C437 C441 1.393 . S
C438 H430 0.950 . S
C438 C436 1.391 . S
C438 C439 1.400 . S
C439 C438 1.400 . S
C439 C440 1.398 . S
C439 C445 1.491 . S
C440 H431 0.950 . S
C440 C439 1.398 . S
C440 C441 1.391 . S
C441 H429 0.950 . S
C441 C437 1.393 . S
C441 C440 1.391 . S
C442 H432 0.950 . S
C442 C443 1.386 . S
C442 C444 1.391 . S
C443 C442 1.386 . S
C443 C447 1.393 . S
C444 H433 0.950 . S
C444 C442 1.391 . S
C444 C445 1.400 . S
C445 C439 1.491 . S
C445 C444 1.400 . S
C445 C446 1.398 . S
C446 H434 0.950 . S
C446 C445 1.398 . S
C446 C447 1.391 . S
C447 H435 0.950 . S
C447 C443 1.393 . S
C447 C446 1.391 . S
H448 C456 0.950 . S
H449 C461 0.950 . S
H450 C458 0.950 . S
H451 C460 0.950 . S
H452 C462 0.950 . S
H453 C464 0.950 . S
H454 C466 0.950 . S
H455 C467 0.950 . S
C456 H448 0.950 . S
C456 C457 1.386 . S
C456 C458 1.391 . S
C457 C456 1.386 . S
C457 C461 1.393 . S
C458 H450 0.950 . S
C458 C456 1.391 . S
C458 C459 1.400 . S
C459 C458 1.400 . S
C459 C460 1.398 . S
C459 C465 1.491 . S
C460 H451 0.950 . S
C460 C459 1.398 . S
C460 C461 1.391 . S
C461 H449 0.950 . S
C461 C457 1.393 . S
C461 C460 1.391 . S
C462 H452 0.950 . S
C462 C463 1.386 . S
C462 C464 1.391 . S
C463 C462 1.386 . S
C463 C467 1.393 . S
C464 H453 0.950 . S
C464 C462 1.391 . S
C464 C465 1.400 . S
C465 C459 1.491 . S
C465 C464 1.400 . S
C465 C466 1.398 . S
C466 H454 0.950 . S
C466 C465 1.398 . S
C466 C467 1.391 . S
C467 H455 0.950 . S
C467 C463 1.393 . S
C467 C466 1.391 . S
H468 C476 0.950 . S
H469 C481 0.950 . S
H470 C478 0.950 . S
H471 C480 0.950 . S
H472 C482 0.950 . S
H473 C484 0.950 . S
H474 C486 0.950 . S
H475 C487 0.950 . S
C476 H468 0.950 . S
C476 C477 1.386 . S
C476 C478 1.391 . S
C477 C476 1.386 . S
C477 C481 1.393 . S
C478 H470 0.950 . S
C478 C476 1.391 . S
C478 C479 1.400 . S
C479 C478 1.400 . S
C479 C480 1.398 1_455 S
C479 C485 1.491 1_455 S
C480 H471 0.950 . S
C480 C479 1.398 1_655 S
C480 C481 1.391 1_655 S
C481 H469 0.950 . S
C481 C477 1.393 . S
C481 C480 1.391 1_455 S
C482 H472 0.950 . S
C482 C483 1.386 . S
C482 C484 1.391 . S
C483 C482 1.386 . S
C483 C487 1.393 . S
C484 H473 0.950 . S
C484 C482 1.391 . S
C484 C485 1.400 . S
C485 C479 1.491 1_655 S
C485 C484 1.400 . S
C485 C486 1.398 1_655 S
C486 H474 0.950 . S
C486 C485 1.398 1_455 S
C486 C487 1.391 1_455 S
C487 H475 0.950 . S
C487 C483 1.393 . S
C487 C486 1.391 1_655 S
H488 C496 0.950 . S
H489 C501 0.950 . S
H490 C498 0.950 . S
H491 C500 0.950 . S
H492 C502 0.950 . S
H493 C504 0.950 . S
H494 C506 0.950 . S
H495 C507 0.950 . S
C496 H488 0.950 . S
C496 C497 1.386 . S
C496 C498 1.391 . S
C497 C496 1.386 . S
C497 C501 1.393 . S
C498 H490 0.950 . S
C498 C496 1.391 . S
C498 C499 1.400 . S
C499 C498 1.400 . S
C499 C500 1.398 . S
C499 C505 1.491 . S
C500 H491 0.950 . S
C500 C499 1.398 . S
C500 C501 1.391 . S
C501 H489 0.950 . S
C501 C497 1.393 . S
C501 C500 1.391 . S
C502 H492 0.950 . S
C502 C503 1.386 . S
C502 C504 1.391 . S
C503 C502 1.386 . S
C503 C507 1.393 . S
C504 H493 0.950 . S
C504 C502 1.391 . S
C504 C505 1.400 . S
C505 C499 1.491 . S
C505 C504 1.400 . S
C505 C506 1.398 . S
C506 H494 0.950 . S
C506 C505 1.398 . S
C506 C507 1.391 . S
C507 H495 0.950 . S
C507 C503 1.393 . S
C507 C506 1.391 . S
H508 C516 0.950 . S
H509 C521 0.950 . S
H510 C518 0.950 . S
H511 C520 0.950 1_655 S
H512 C522 0.950 . S
H513 C524 0.950 . S
H514 C526 0.950 1_455 S
H515 C527 0.950 . S
C516 H508 0.950 . S
C516 C517 1.386 . S
C516 C518 1.391 . S
C517 C516 1.386 . S
C517 C521 1.393 . S
C518 H510 0.950 . S
C518 C516 1.391 . S
C518 C519 1.400 . S
C519 C518 1.400 . S
C519 C520 1.398 . S
C519 C525 1.491 1_455 S
C520 H511 0.950 1_455 S
C520 C519 1.398 . S
C520 C521 1.391 . S
C521 H509 0.950 . S
C521 C517 1.393 . S
C521 C520 1.391 . S
C522 H512 0.950 . S
C522 C523 1.386 . S
C522 C524 1.391 . S
C523 C522 1.386 . S
C523 C527 1.393 . S
C524 H513 0.950 . S
C524 C522 1.391 . S
C524 C525 1.400 . S
C525 C519 1.491 1_655 S
C525 C524 1.400 . S
C525 C526 1.398 . S
C526 H514 0.950 1_655 S
C526 C525 1.398 . S
C526 C527 1.391 . S
C527 H515 0.950 . S
C527 C523 1.393 . S
C527 C526 1.391 . S
H528 C536 0.950 . S
H529 C541 0.950 1_655 S
H530 C538 0.950 . S
H531 C540 0.950 . S
H532 C542 0.950 . S
H533 C544 0.950 . S
H534 C546 0.950 . S
H535 C547 0.950 1_455 S
C536 H528 0.950 . S
C536 C537 1.386 . S
C536 C538 1.391 . S
C537 C536 1.386 . S
C537 C541 1.393 . S
C538 H530 0.950 . S
C538 C536 1.391 . S
C538 C539 1.400 . S
C539 C538 1.400 . S
C539 C540 1.398 1_455 S
C539 C545 1.491 1_455 S
C540 H531 0.950 . S
C540 C539 1.398 1_655 S
C540 C541 1.391 1_655 S
C541 H529 0.950 1_455 S
C541 C537 1.393 . S
C541 C540 1.391 1_455 S
C542 H532 0.950 . S
C542 C543 1.386 . S
C542 C544 1.391 . S
C543 C542 1.386 . S
C543 C547 1.393 . S
C544 H533 0.950 . S
C544 C542 1.391 . S
C544 C545 1.400 . S
C545 C539 1.491 1_655 S
C545 C544 1.400 . S
C545 C546 1.398 1_655 S
C546 H534 0.950 . S
C546 C545 1.398 1_455 S
C546 C547 1.391 1_455 S
C547 H535 0.950 1_655 S
C547 C543 1.393 . S
C547 C546 1.391 1_655 S
H548 C556 0.950 . S
H549 C561 0.950 . S
H550 C558 0.950 . S
H551 C560 0.950 . S
H552 C562 0.950 . S
H553 C564 0.950 . S
H554 C566 0.950 . S
H555 C567 0.950 . S
C556 H548 0.950 . S
C556 C557 1.386 . S
C556 C558 1.391 . S
C557 C556 1.386 . S
C557 C561 1.393 . S
C558 H550 0.950 . S
C558 C556 1.391 . S
C558 C559 1.400 . S
C559 C558 1.400 . S
C559 C560 1.398 . S
C559 C565 1.491 . S
C560 H551 0.950 . S
C560 C559 1.398 . S
C560 C561 1.391 . S
C561 H549 0.950 . S
C561 C557 1.393 . S
C561 C560 1.391 . S
C562 H552 0.950 . S
C562 C563 1.386 . S
C562 C564 1.391 . S
C563 C562 1.386 . S
C563 C567 1.393 . S
C564 H553 0.950 . S
C564 C562 1.391 . S
C564 C565 1.400 . S
C565 C559 1.491 . S
C565 C564 1.400 . S
C565 C566 1.398 . S
C566 H554 0.950 . S
C566 C565 1.398 . S
C566 C567 1.391 . S
C567 H555 0.950 . S
C567 C563 1.393 . S
C567 C566 1.391 . S
H568 C576 0.950 . S
H569 C581 0.950 . S
H570 C578 0.950 . S
H571 C580 0.950 . S
H572 C582 0.950 . S
H573 C584 0.950 . S
H574 C586 0.950 . S
H575 C587 0.950 . S
C576 H568 0.950 . S
C576 C577 1.386 . S
C576 C578 1.391 . S
C577 C576 1.386 . S
C577 C581 1.393 . S
C578 H570 0.950 . S
C578 C576 1.391 . S
C578 C579 1.400 . S
C579 C578 1.400 . S
C579 C580 1.398 . S
C579 C585 1.491 . S
C580 H571 0.950 . S
C580 C579 1.398 . S
C580 C581 1.391 . S
C581 H569 0.950 . S
C581 C577 1.393 . S
C581 C580 1.391 . S
C582 H572 0.950 . S
C582 C583 1.386 . S
C582 C584 1.391 . S
C583 C582 1.386 . S
C583 C587 1.393 . S
C584 H573 0.950 . S
C584 C582 1.391 . S
C584 C585 1.400 . S
C585 C579 1.491 . S
C585 C584 1.400 . S
C585 C586 1.398 . S
C586 H574 0.950 . S
C586 C585 1.398 . S
C586 C587 1.391 . S
C587 H575 0.950 . S
C587 C583 1.393 . S
C587 C586 1.391 . S
H588 C596 0.950 . S
H589 C601 0.950 . S
H590 C598 0.950 . S
H591 C600 0.937 1_655 S
H592 C602 0.950 . S
H593 C604 0.950 . S
H594 C606 0.937 1_455 S
H595 C607 0.950 . S
C596 H588 0.950 . S
C596 C597 1.386 . S
C596 C598 1.391 . S
C597 C596 1.386 . S
C597 C601 1.393 . S
C598 H590 0.950 . S
C598 C596 1.391 . S
C598 C599 1.400 . S
C599 C598 1.400 . S
C599 C600 1.403 . S
C599 C605 1.491 1_455 S
C600 H591 0.937 1_455 S
C600 C599 1.403 . S
C600 C601 1.399 . S
C601 H589 0.950 . S
C601 C597 1.393 . S
C601 C600 1.399 . S
C602 H592 0.950 . S
C602 C603 1.386 . S
C602 C604 1.391 . S
C603 C602 1.386 . S
C603 C607 1.393 . S
C604 H593 0.950 . S
C604 C602 1.391 . S
C604 C605 1.400 . S
C605 C599 1.491 1_655 S
C605 C604 1.400 . S
C605 C606 1.403 . S
C606 H594 0.937 1_655 S
C606 C605 1.403 . S
C606 C607 1.399 . S
C607 H595 0.950 . S
C607 C603 1.393 . S
C607 C606 1.399 . S
H608 C616 0.950 . S
H609 C621 0.950 . S
H610 C618 0.950 1_655 S
H611 C620 0.950 . S
H612 C622 0.950 . S
H613 C624 0.950 1_455 S
H614 C626 0.950 . S
H615 C627 0.950 . S
C616 H608 0.950 . S
C616 C617 1.386 . S
C616 C618 1.391 . S
C617 C616 1.386 . S
C617 C621 1.393 . S
C618 H610 0.950 1_455 S
C618 C616 1.391 . S
C618 C619 1.400 . S
C619 C618 1.400 . S
C619 C620 1.398 . S
C619 C625 1.491 1_455 S
C620 H611 0.950 . S
C620 C619 1.398 . S
C620 C621 1.391 . S
C621 H609 0.950 . S
C621 C617 1.393 . S
C621 C620 1.391 . S
C622 H612 0.950 . S
C622 C623 1.386 . S
C622 C624 1.391 . S
C623 C622 1.386 . S
C623 C627 1.393 . S
C624 H613 0.950 1_655 S
C624 C622 1.391 . S
C624 C625 1.400 . S
C625 C619 1.491 1_655 S
C625 C624 1.400 . S
C625 C626 1.398 . S
C626 H614 0.950 . S
C626 C625 1.398 . S
C626 C627 1.391 . S
C627 H615 0.950 . S
C627 C623 1.393 . S
C627 C626 1.391 . S
H628 C636 0.950 . S
H629 C641 0.950 . S
H630 C638 0.950 . S
H631 C640 0.950 . S
H632 C642 0.950 . S
H633 C644 0.950 . S
H634 C646 0.950 . S
H635 C647 0.950 . S
C636 H628 0.950 . S
C636 C637 1.386 . S
C636 C638 1.391 . S
C637 C636 1.386 . S
C637 C641 1.393 . S
C638 H630 0.950 . S
C638 C636 1.391 . S
C638 C639 1.400 . S
C639 C638 1.400 . S
C639 C640 1.398 . S
C639 C645 1.491 . S
C640 H631 0.950 . S
C640 C639 1.398 . S
C640 C641 1.391 . S
C641 H629 0.950 . S
C641 C637 1.393 . S
C641 C640 1.391 . S
C642 H632 0.950 . S
C642 C643 1.386 . S
C642 C644 1.391 . S
C643 C642 1.386 . S
C643 C647 1.393 . S
C644 H633 0.950 . S
C644 C642 1.391 . S
C644 C645 1.400 . S
C645 C639 1.491 . S
C645 C644 1.400 . S
C645 C646 1.398 . S
C646 H634 0.950 . S
C646 C645 1.398 . S
C646 C647 1.391 . S
C647 H635 0.950 . S
C647 C643 1.393 . S
C647 C646 1.391 . S
H648 C656 0.950 . S
H649 C661 0.950 . S
H650 C658 0.950 . S
H651 C660 0.950 . S
H652 C662 0.950 . S
H653 C664 0.950 . S
H654 C666 0.950 . S
H655 C667 0.950 . S
C656 H648 0.950 . S
C656 C657 1.386 . S
C656 C658 1.391 . S
C657 C656 1.386 . S
C657 C661 1.393 . S
C658 H650 0.950 . S
C658 C656 1.391 . S
C658 C659 1.400 . S
C659 C658 1.400 . S
C659 C660 1.398 . S
C659 C665 1.491 . S
C660 H651 0.950 . S
C660 C659 1.398 . S
C660 C661 1.391 . S
C661 H649 0.950 . S
C661 C657 1.393 . S
C661 C660 1.391 . S
C662 H652 0.950 . S
C662 C663 1.386 . S
C662 C664 1.391 . S
C663 C662 1.386 . S
C663 C667 1.393 . S
C664 H653 0.950 . S
C664 C662 1.391 . S
C664 C665 1.400 . S
C665 C659 1.491 . S
C665 C664 1.400 . S
C665 C666 1.398 . S
C666 H654 0.950 . S
C666 C665 1.398 . S
C666 C667 1.391 . S
C667 H655 0.950 . S
C667 C663 1.393 . S
C667 C666 1.391 . S
H668 C676 0.950 . S
H669 C681 0.950 . S
H670 C678 0.950 1_655 S
H671 C680 0.950 . S
H672 C682 0.950 . S
H673 C684 0.950 1_455 S
H674 C686 0.950 . S
H675 C687 0.950 . S
C676 H668 0.950 . S
C676 C677 1.386 . S
C676 C678 1.391 . S
C677 C676 1.386 . S
C677 C681 1.393 . S
C678 H670 0.950 1_455 S
C678 C676 1.391 . S
C678 C679 1.400 . S
C679 C678 1.400 . S
C679 C680 1.398 . S
C679 C685 1.491 1_455 S
C680 H671 0.950 . S
C680 C679 1.398 . S
C680 C681 1.391 . S
C681 H669 0.950 . S
C681 C677 1.393 . S
C681 C680 1.391 . S
C682 H672 0.950 . S
C682 C683 1.386 . S
C682 C684 1.391 . S
C683 C682 1.386 . S
C683 C687 1.393 . S
C684 H673 0.950 1_655 S
C684 C682 1.391 . S
C684 C685 1.400 . S
C685 C679 1.491 1_655 S
C685 C684 1.400 . S
C685 C686 1.398 . S
C686 H674 0.950 . S
C686 C685 1.398 . S
C686 C687 1.391 . S
C687 H675 0.950 . S
C687 C683 1.393 . S
C687 C686 1.391 . S
H688 C696 0.958 1_455 S
H689 C701 0.950 . S
H690 C698 0.950 . S
H691 C700 0.950 . S
H692 C702 0.958 1_655 S
H693 C704 0.950 . S
H694 C706 0.950 . S
H695 C707 0.950 . S
C696 H688 0.958 1_655 S
C696 C697 1.372 1_545 S
C696 C698 1.397 1_655 S
C697 C696 1.372 1_565 S
C697 C701 1.393 . S
C698 H690 0.950 . S
C698 C696 1.397 1_455 S
C698 C699 1.400 1_445 S
C699 C698 1.400 1_665 S
C699 C700 1.398 . S
C699 C705 1.491 1_666 S
C700 H691 0.950 . S
C700 C699 1.398 . S
C700 C701 1.391 . S
C701 H689 0.950 . S
C701 C697 1.393 . S
C701 C700 1.391 . S
C702 H692 0.958 1_455 S
C702 C703 1.372 1_565 S
C702 C704 1.397 1_455 S
C703 C702 1.372 1_545 S
C703 C707 1.393 . S
C704 H693 0.950 . S
C704 C702 1.397 1_655 S
C704 C705 1.400 1_665 S
C705 C699 1.491 1_444 S
C705 C704 1.400 1_445 S
C705 C706 1.398 . S
C706 H694 0.950 . S
C706 C705 1.398 . S
C706 C707 1.391 . S
C707 H695 0.950 . S
C707 C703 1.393 . S
C707 C706 1.391 . S
H708 C716 0.950 . S
H709 C721 0.950 . S
H710 C718 0.950 . S
H711 C720 0.950 . S
H712 C722 0.950 . S
H713 C724 0.950 . S
H714 C726 0.950 . S
H715 C727 0.950 . S
C716 H708 0.950 . S
C716 C717 1.386 1_565 S
C716 C718 1.391 . S
C717 C716 1.386 1_545 S
C717 C721 1.393 . S
C718 H710 0.950 . S
C718 C716 1.391 . S
C718 C719 1.400 1_565 S
C719 C718 1.400 1_545 S
C719 C720 1.398 . S
C719 C725 1.491 1_546 S
C720 H711 0.950 . S
C720 C719 1.398 . S
C720 C721 1.391 . S
C721 H709 0.950 . S
C721 C717 1.393 . S
C721 C720 1.391 . S
C722 H712 0.950 . S
C722 C723 1.386 1_545 S
C722 C724 1.391 . S
C723 C722 1.386 1_565 S
C723 C727 1.393 . S
C724 H713 0.950 . S
C724 C722 1.391 . S
C724 C725 1.400 1_545 S
C725 C719 1.491 1_564 S
C725 C724 1.400 1_565 S
C725 C726 1.398 . S
C726 H714 0.950 . S
C726 C725 1.398 . S
C726 C727 1.391 . S
C727 H715 0.950 . S
C727 C723 1.393 . S
C727 C726 1.391 . S
H728 C736 0.950 . S
H729 C741 0.950 . S
H730 C738 0.950 . S
H731 C740 0.950 1_565 S
H732 C742 0.950 . S
H733 C744 0.950 . S
H734 C746 0.950 1_545 S
H735 C747 0.950 . S
C736 H728 0.950 . S
C736 C737 1.386 . S
C736 C738 1.391 . S
C737 C736 1.386 . S
C737 C741 1.393 . S
C738 H730 0.950 . S
C738 C736 1.391 . S
C738 C739 1.400 . S
C739 C738 1.400 . S
C739 C740 1.398 . S
C739 C745 1.491 1_545 S
C740 H731 0.950 1_545 S
C740 C739 1.398 . S
C740 C741 1.391 . S
C741 H729 0.950 . S
C741 C737 1.393 . S
C741 C740 1.391 . S
C742 H732 0.950 . S
C742 C743 1.386 . S
C742 C744 1.391 . S
C743 C742 1.386 . S
C743 C747 1.393 . S
C744 H733 0.950 . S
C744 C742 1.391 . S
C744 C745 1.400 . S
C745 C739 1.491 1_565 S
C745 C744 1.400 . S
C745 C746 1.398 . S
C746 H734 0.950 1_565 S
C746 C745 1.398 . S
C746 C747 1.391 . S
C747 H735 0.950 . S
C747 C743 1.393 . S
C747 C746 1.391 . S
H748 C756 0.950 . S
H749 C761 0.950 . S
H750 C758 0.950 1_655 S
H751 C760 0.950 . S
H752 C762 0.950 . S
H753 C764 0.950 1_455 S
H754 C766 0.950 . S
H755 C767 0.950 . S
C756 H748 0.950 . S
C756 C757 1.386 . S
C756 C758 1.391 . S
C757 C756 1.386 . S
C757 C761 1.393 1_565 S
C758 H750 0.950 1_455 S
C758 C756 1.391 . S
C758 C759 1.400 . S
C759 C758 1.400 . S
C759 C760 1.398 1_565 S
C759 C765 1.491 1_465 S
C760 H751 0.950 . S
C760 C759 1.398 1_545 S
C760 C761 1.391 . S
C761 H749 0.950 . S
C761 C757 1.393 1_545 S
C761 C760 1.391 . S
C762 H752 0.950 . S
C762 C763 1.386 . S
C762 C764 1.391 . S
C763 C762 1.386 . S
C763 C767 1.393 1_545 S
C764 H753 0.950 1_655 S
C764 C762 1.391 . S
C764 C765 1.400 . S
C765 C759 1.491 1_645 S
C765 C764 1.400 . S
C765 C766 1.398 1_545 S
C766 H754 0.950 . S
C766 C765 1.398 1_565 S
C766 C767 1.391 . S
C767 H755 0.950 . S
C767 C763 1.393 1_565 S
C767 C766 1.391 . S
H768 C776 0.950 . S
H769 C781 0.950 . S
H770 C778 0.950 . S
H771 C780 0.950 . S
H772 C782 0.950 . S
H773 C784 0.950 . S
H774 C786 0.950 . S
H775 C787 0.950 . S
C776 H768 0.950 . S
C776 C777 1.386 . S
C776 C778 1.391 . S
C777 C776 1.386 . S
C777 C781 1.393 . S
C778 H770 0.950 . S
C778 C776 1.391 . S
C778 C779 1.400 . S
C779 C778 1.400 . S
C779 C780 1.398 . S
C779 C785 1.491 1_554 S
C780 H771 0.950 . S
C780 C779 1.398 . S
C780 C781 1.391 . S
C781 H769 0.950 . S
C781 C777 1.393 . S
C781 C780 1.391 . S
C782 H772 0.950 . S
C782 C783 1.386 . S
C782 C784 1.391 . S
C783 C782 1.386 . S
C783 C787 1.393 . S
C784 H773 0.950 . S
C784 C782 1.391 . S
C784 C785 1.400 . S
C785 C779 1.491 1_556 S
C785 C784 1.400 . S
C785 C786 1.398 . S
C786 H774 0.950 . S
C786 C785 1.398 . S
C786 C787 1.391 . S
C787 H775 0.950 . S
C787 C783 1.393 . S
C787 C786 1.391 . S
H788 C796 0.950 . S
H789 C801 0.950 . S
H790 C798 0.950 . S
H791 C800 0.950 . S
H792 C802 0.950 . S
H793 C804 0.950 . S
H794 C806 0.950 . S
H795 C807 0.950 . S
C796 H788 0.950 . S
C796 C797 1.386 1_455 S
C796 C798 1.391 . S
C797 C796 1.386 1_655 S
C797 C801 1.393 . S
C798 H790 0.950 . S
C798 C796 1.391 . S
C798 C799 1.400 1_455 S
C799 C798 1.400 1_655 S
C799 C800 1.398 . S
C799 C805 1.491 1_654 S
C800 H791 0.950 . S
C800 C799 1.398 . S
C800 C801 1.391 . S
C801 H789 0.950 . S
C801 C797 1.393 . S
C801 C800 1.391 . S
C802 H792 0.950 . S
C802 C803 1.386 1_655 S
C802 C804 1.391 . S
C803 C802 1.386 1_455 S
C803 C807 1.393 . S
C804 H793 0.950 . S
C804 C802 1.391 . S
C804 C805 1.400 1_655 S
C805 C799 1.491 1_456 S
C805 C804 1.400 1_455 S
C805 C806 1.398 . S
C806 H794 0.950 . S
C806 C805 1.398 . S
C806 C807 1.391 . S
C807 H795 0.950 . S
C807 C803 1.393 . S
C807 C806 1.391 . S
H808 C816 0.950 . S
H809 C821 0.950 . S
H810 C818 0.950 . S
H811 C820 0.950 . S
H812 C822 0.950 . S
H813 C824 0.950 . S
H814 C826 0.950 . S
H815 C827 0.950 . S
C816 H808 0.950 . S
C816 C817 1.386 1_455 S
C816 C818 1.391 . S
C817 C816 1.386 1_655 S
C817 C821 1.393 . S
C818 H810 0.950 . S
C818 C816 1.391 . S
C818 C819 1.400 1_455 S
C819 C818 1.400 1_655 S
C819 C820 1.398 . S
C819 C825 1.491 1_655 S
C820 H811 0.950 . S
C820 C819 1.398 . S
C820 C821 1.391 . S
C821 H809 0.950 . S
C821 C817 1.393 . S
C821 C820 1.391 . S
C822 H812 0.950 . S
C822 C823 1.386 1_655 S
C822 C824 1.391 . S
C823 C822 1.386 1_455 S
C823 C827 1.393 . S
C824 H813 0.950 . S
C824 C822 1.391 . S
C824 C825 1.400 1_655 S
C825 C819 1.491 1_455 S
C825 C824 1.400 1_455 S
C825 C826 1.398 . S
C826 H814 0.950 . S
C826 C825 1.398 . S
C826 C827 1.391 . S
C827 H815 0.950 . S
C827 C823 1.393 . S
C827 C826 1.391 . S
H828 C836 0.950 . S
H829 C841 0.950 . S
H830 C838 0.950 . S
H831 C840 0.950 . S
H832 C842 0.950 . S
H833 C844 0.950 . S
H834 C846 0.950 . S
H835 C847 0.950 . S
C836 H828 0.950 . S
C836 C837 1.386 . S
C836 C838 1.391 . S
C837 C836 1.386 . S
C837 C841 1.393 . S
C838 H830 0.950 . S
C838 C836 1.391 . S
C838 C839 1.400 . S
C839 C838 1.400 . S
C839 C840 1.398 . S
C839 C845 1.491 . S
C840 H831 0.950 . S
C840 C839 1.398 . S
C840 C841 1.391 . S
C841 H829 0.950 . S
C841 C837 1.393 . S
C841 C840 1.391 . S
C842 H832 0.950 . S
C842 C843 1.386 . S
C842 C844 1.391 . S
C843 C842 1.386 . S
C843 C847 1.393 . S
C844 H833 0.950 . S
C844 C842 1.391 . S
C844 C845 1.400 . S
C845 C839 1.491 . S
C845 C844 1.400 . S
C845 C846 1.398 . S
C846 H834 0.950 . S
C846 C845 1.398 . S
C846 C847 1.391 . S
C847 H835 0.950 . S
C847 C843 1.393 . S
C847 C846 1.391 . S
C217 C13 1.441 . S
C223 C0 1.456 . S
C237 C26 1.441 . S
C243 C39 1.454 . S
C257 C52 1.442 . S
C263 C65 1.461 . S
C277 C91 1.445 . S
C283 C78 1.448 . S
C297 C117 1.459 . S
C303 C104 1.441 . S
C317 C143 1.462 . S
C323 C130 1.450 . S
C337 C169 1.455 . S
C343 C156 1.459 . S
C357 C195 1.457 . S
C363 C182 1.441 . S
C377 C49 1.211 . S
C383 C10 1.207 . S
C397 C23 1.211 . S
C403 C36 1.207 . S
C417 C101 1.207 . S
C423 C62 1.210 . S
C437 C88 1.211 . S
C443 C75 1.207 . S
C457 C114 1.207 . S
C463 C153 1.209 . S
C477 C140 1.208 . S
C483 C127 1.209 . S
C497 C205 1.208 . S
C503 C166 1.213 . S
C517 C179 1.209 . S
C523 C192 1.208 . S
C537 C5 1.457 . S
C543 C122 1.444 . S
C557 C18 1.451 . S
C563 C109 1.440 . S
C577 C148 1.450 . S
C583 C31 1.440 . S
C597 C135 1.468 . S
C603 C44 1.458 . S
C617 C174 1.448 . S
C623 C57 1.440 . S
C637 C161 1.451 . S
C643 C70 1.465 . S
C657 C83 1.443 . S
C663 C200 1.456 . S
C677 C96 1.468 . S
C683 C187 1.464 . S
C697 C60 1.039 . S
C703 C8 1.039 . S
C717 C73 1.036 . S
C723 C21 1.036 . S
C737 C86 1.009 . S
C743 C34 1.009 . S
C757 C99 1.034 . S
C763 C47 1.034 . S
C777 C112 1.035 . S
C783 C164 1.035 . S
C797 C125 1.006 . S
C803 C177 1.006 . S
C817 C190 1.045 . S
C823 C138 1.045 . S
C837 C203 1.046 . S
C843 C151 1.046 . S
