# Generated by pormake.
# Topology xft, (5)-cn, num edge types: 1
# Building blocks:
#     Node 0, Type 0, BuildingBlock: BEQFEK_clean_sbu_0, # of connection points: 5
#     Node 1, Type 0, BuildingBlock: BEQFEK_clean_sbu_0, # of connection points: 5
#     Node 2, Type 0, BuildingBlock: BEQFEK_clean_sbu_0, # of connection points: 5
#     Node 3, Type 0, BuildingBlock: BEQFEK_clean_sbu_0, # of connection points: 5
#     Node 4, Type 0, BuildingBlock: BEQFEK_clean_sbu_0, # of connection points: 5
#     Node 5, Type 0, BuildingBlock: BEQFEK_clean_sbu_0, # of connection points: 5
#     Node 6, Type 0, BuildingBlock: BEQFEK_clean_sbu_0, # of connection points: 5
#     Node 7, Type 0, BuildingBlock: BEQFEK_clean_sbu_0, # of connection points: 5
#     Edge 8, Type (0, 0), BuildingBlock: OJICUG_clean_linker_0, # of connection points: 2
#     Edge 9, Type (0, 0), BuildingBlock: OJICUG_clean_linker_0, # of connection points: 2
#     Edge 10, Type (0, 0), BuildingBlock: OJICUG_clean_linker_0, # of connection points: 2
#     Edge 11, Type (0, 0), BuildingBlock: OJICUG_clean_linker_0, # of connection points: 2
#     Edge 12, Type (0, 0), BuildingBlock: OJICUG_clean_linker_0, # of connection points: 2
#     Edge 13, Type (0, 0), BuildingBlock: OJICUG_clean_linker_0, # of connection points: 2
#     Edge 14, Type (0, 0), BuildingBlock: OJICUG_clean_linker_0, # of connection points: 2
#     Edge 15, Type (0, 0), BuildingBlock: OJICUG_clean_linker_0, # of connection points: 2
#     Edge 16, Type (0, 0), BuildingBlock: OJICUG_clean_linker_0, # of connection points: 2
#     Edge 17, Type (0, 0), BuildingBlock: OJICUG_clean_linker_0, # of connection points: 2
#     Edge 18, Type (0, 0), BuildingBlock: OJICUG_clean_linker_0, # of connection points: 2
#     Edge 19, Type (0, 0), BuildingBlock: OJICUG_clean_linker_0, # of connection points: 2
#     Edge 20, Type (0, 0), BuildingBlock: OJICUG_clean_linker_0, # of connection points: 2
#     Edge 21, Type (0, 0), BuildingBlock: OJICUG_clean_linker_0, # of connection points: 2
#     Edge 22, Type (0, 0), BuildingBlock: OJICUG_clean_linker_0, # of connection points: 2
#     Edge 23, Type (0, 0), BuildingBlock: OJICUG_clean_linker_0, # of connection points: 2
#     Edge 24, Type (0, 0), BuildingBlock: OJICUG_clean_linker_0, # of connection points: 2
#     Edge 25, Type (0, 0), BuildingBlock: OJICUG_clean_linker_0, # of connection points: 2
#     Edge 26, Type (0, 0), BuildingBlock: OJICUG_clean_linker_0, # of connection points: 2
#     Edge 27, Type (0, 0), BuildingBlock: OJICUG_clean_linker_0, # of connection points: 2
# Relax obj value: 0.427
# Max RMSD: 0.299
# Mean RMSD: 0.299
data_MOF--net-xft--node1-BEQFEK_clean_sbu_0--edge1-OJICUG_clean_linker_0
_symmetry_space_group_name_H-M    P1
_symmetry_Int_Tables_number       1
_symmetry_cell_setting            triclinic
loop_
_symmetry_equiv_pos_as_xyz
'x, y, z'
_cell_length_a     28.792944
_cell_length_b     28.767404
_cell_length_c     28.787122
_cell_angle_alpha  89.982968
_cell_angle_beta   90.214171
_cell_angle_gamma 90.297255
loop_
_atom_site_label
_atom_site_type_symbol
_atom_site_fract_x
_atom_site_fract_y
_atom_site_fract_z
_atom_type_partial_charge
Co0 Co 0.29495 0.05572 0.6715 0.0
Co1 Co 0.27305 0.97344 0.73942 0.0
C2 C 0.29027 0.96005 0.63687 0.0
O3 O 0.29471 0.00293 0.62705 0.0
O4 O 0.28296 0.94659 0.67814 0.0
C5 C 0.34168 0.11107 0.60856 0.0
O6 O 0.36145 0.07046 0.60254 0.0
C7 C 0.20742 0.90091 0.76452 0.0
C8 C 0.23634 0.8743 0.83044 0.0
C9 C 0.1995 0.8689 0.79964 0.0
N10 N 0.24665 0.92446 0.77456 0.0
N11 N 0.26413 0.90805 0.81369 0.0
C12 C 0.17925 0.9081 0.72123 0.0
H13 H 0.15229 0.93467 0.72758 0.0
H14 H 0.16184 0.87526 0.71057 0.0
H15 H 0.20133 0.92098 0.69258 0.0
C16 C 0.2066 0.09104 0.71234 0.0
N17 N 0.23969 0.05844 0.70709 0.0
N18 N 0.23211 0.02456 0.73694 0.0
C19 C 0.19457 0.03482 0.76254 0.0
C20 C 0.17667 0.07661 0.74721 0.0
C21 C 0.20547 0.136 0.68638 0.0
H22 H 0.2339 0.1588 0.69935 0.0
H23 H 0.21175 0.12952 0.64893 0.0
H24 H 0.17175 0.15391 0.69109 0.0
O25 O 0.3491 0.04749 0.71353 0.0
O26 O 0.33452 0.9916 0.76472 0.0
H27 H 0.20965 0.9918 0.82188 0.0
H28 H 0.1625 0.03191 0.8303 0.0
C29 C 0.17947 0.00852 0.8049 0.0
H30 H 0.15383 0.98146 0.79489 0.0
H31 H 0.29459 0.92035 0.82925 0.0
O32 O 0.30819 0.11411 0.6371 0.0
C33 C 0.3614 0.02269 0.74814 0.0
Co34 Co 0.94872 0.79247 0.91702 0.0
Co35 Co 0.03121 0.77365 -0.01415 0.0
C36 C 0.04346 0.78633 0.88194 0.0
O37 O 0.00061 0.78992 0.87172 0.0
O38 O 0.05689 0.78132 0.92364 0.0
C39 C 0.89113 0.83373 0.8505 0.0
O40 O 0.93188 0.8499 0.83774 0.0
C41 C 0.10512 0.71041 0.01272 0.0
C42 C 0.13139 0.74201 0.07765 0.0
C43 C 0.13752 0.70451 0.04799 0.0
N44 N 0.08074 0.74914 0.02161 0.0
N45 N 0.09693 0.76819 0.06015 0.0
C46 C 0.09836 0.68089 0.97029 0.0
H47 H 0.08379 0.70149 0.94134 0.0
H48 H 0.07332 0.65253 0.97782 0.0
H49 H 0.13176 0.6652 0.95946 0.0
C50 C 0.91467 0.70388 0.96043 0.0
N51 N 0.94613 0.73844 0.95523 0.0
N52 N 0.98002 0.73237 -0.01455 0.0
C53 C 0.97084 0.69452 0.01131 0.0
C54 C 0.92981 0.67468 -0.00425 0.0
C55 C 0.87097 0.69953 0.9326 0.0
H56 H 0.84568 0.72564 0.94508 0.0
H57 H 0.87828 0.70717 0.89554 0.0
H58 H 0.85548 0.66429 0.9361 0.0
O59 O 0.95924 0.84886 0.95581 0.0
O60 O 0.01387 0.83584 0.00875 0.0
H61 H 0.0147 0.71075 0.06993 0.0
H62 H 0.9749 0.66305 0.07927 0.0
C63 C 0.99789 0.68017 0.05347 0.0
H64 H 0.02485 0.65479 0.04344 0.0
H65 H 0.08407 0.79869 0.07478 0.0
O66 O 0.88922 0.80476 0.88388 0.0
C67 C 0.98405 0.86252 -0.00997 0.0
Co68 Co 0.2176 0.45948 0.17092 0.0
Co69 Co 0.23259 0.54264 0.23949 0.0
C70 C 0.22378 0.55301 0.13431 0.0
O71 O 0.22222 0.50996 0.12436 0.0
O72 O 0.2263 0.56686 0.17611 0.0
C73 C 0.17328 0.40037 0.10984 0.0
O74 O 0.15413 0.44058 0.10003 0.0
C75 C 0.29673 0.61632 0.26554 0.0
C76 C 0.26651 0.64334 0.33043 0.0
C77 C 0.30424 0.64831 0.30089 0.0
N78 N 0.25708 0.59311 0.27441 0.0
N79 N 0.23876 0.60986 0.31285 0.0
C80 C 0.3261 0.60824 0.22342 0.0
H81 H 0.35188 0.58071 0.23084 0.0
H82 H 0.3448 0.64052 0.21336 0.0
H83 H 0.30468 0.59614 0.19387 0.0
C84 C 0.30443 0.42729 0.21798 0.0
N85 N 0.26964 0.45789 0.21148 0.0
N86 N 0.27406 0.49187 0.24181 0.0
C87 C 0.31114 0.48356 0.26908 0.0
C88 C 0.33214 0.44302 0.25436 0.0
C89 C 0.31087 0.38423 0.18976 0.0
H90 H 0.28674 0.35695 0.20261 0.0
H91 H 0.30208 0.39126 0.15286 0.0
H92 H 0.34702 0.37127 0.19264 0.0
O93 O 0.15973 0.47115 0.20615 0.0
O94 O 0.16939 0.52511 0.26047 0.0
H95 H 0.29271 0.52765 0.3265 0.0
H96 H 0.34022 0.48858 0.33808 0.0
C97 C 0.3239 0.51118 0.31142 0.0
H98 H 0.34947 0.53849 0.30204 0.0
H99 H 0.20799 0.59767 0.32765 0.0
O100 O 0.20595 0.39922 0.13965 0.0
C101 C 0.14387 0.49554 0.23939 0.0
Co102 Co 0.55779 0.71962 0.417 0.0
Co103 Co 0.47872 0.73452 0.4893 0.0
C104 C 0.46272 0.72766 0.38481 0.0
O105 O 0.50514 0.72559 0.37291 0.0
O106 O 0.45103 0.72972 0.4272 0.0
C107 C 0.61174 0.67409 0.3532 0.0
O108 O 0.57042 0.65578 0.34608 0.0
C109 C 0.40898 0.79983 0.51874 0.0
C110 C 0.37928 0.76659 0.58114 0.0
C111 C 0.3762 0.80592 0.55333 0.0
N112 N 0.43065 0.75925 0.52622 0.0
N113 N 0.41251 0.73923 0.56327 0.0
C114 C 0.41889 0.83108 0.47825 0.0
H115 H 0.43337 0.81123 0.44884 0.0
H116 H 0.44524 0.85745 0.4884 0.0
H117 H 0.38688 0.84924 0.46689 0.0
C118 C 0.59455 0.80538 0.46462 0.0
N119 N 0.56283 0.77123 0.45809 0.0
N120 N 0.53066 0.77471 0.4902 0.0
C121 C 0.54147 0.80988 0.519 0.0
C122 C 0.58164 0.83142 0.50322 0.0
C123 C 0.63603 0.81278 0.4344 0.0
H124 H 0.62852 0.80072 0.39852 0.0
H125 H 0.64643 0.84999 0.43405 0.0
H126 H 0.66539 0.79212 0.44833 0.0
O127 O 0.54657 0.6613 0.45267 0.0
O128 O 0.49534 0.67133 0.50918 0.0
H129 H 0.54204 0.83239 0.59056 0.0
H130 H 0.48972 0.84507 0.559 0.0
C131 C 0.51728 0.8188 0.56415 0.0
H132 H 0.50132 0.78633 0.5775 0.0
H133 H 0.42307 0.7072 0.57651 0.0
O134 O 0.61581 0.70697 0.38251 0.0
C135 C 0.52338 0.64561 0.48698 0.0
Co136 Co 0.63884 0.01362 0.714 0.0
Co137 Co 0.6457 0.05012 0.81616 0.0
C138 C 0.65219 0.1105 0.72847 0.0
O139 O 0.65699 0.07823 0.69874 0.0
O140 O 0.64558 0.10117 0.77096 0.0
C141 C 0.65517 0.97347 0.62076 0.0
O142 O 0.69673 0.99246 0.6207 0.0
C143 C 0.70819 0.10676 0.86983 0.0
C144 C 0.69579 0.08627 0.94253 0.0
C145 C 0.72534 0.11207 0.91444 0.0
N146 N 0.67135 0.07791 0.87099 0.0
N147 N 0.66317 0.06677 0.91477 0.0
C148 C 0.7264 0.12903 0.82638 0.0
H149 H 0.73384 0.10192 0.80005 0.0
H150 H 0.75765 0.15075 0.83252 0.0
H151 H 0.69957 0.15271 0.81238 0.0
C152 C 0.71099 0.94771 0.75014 0.0
N153 N 0.68153 0.98382 0.75468 0.0
N154 N 0.68357 -0.00093 0.79776 0.0
C155 C 0.71426 0.97316 0.82186 0.0
C156 C 0.73262 0.93979 0.79252 0.0
C157 C 0.71713 0.91988 0.70676 0.0
H158 H 0.68282 0.91234 0.69086 0.0
H159 H 0.73829 0.94021 0.68182 0.0
H160 H 0.73511 0.8866 0.714 0.0
O161 O 0.57663 0.01761 0.74432 0.0
O162 O 0.57975 0.03183 0.82047 0.0
H163 H 0.6957 0.98233 0.89306 0.0
H164 H 0.75152 0.95521 0.8852 0.0
C165 C 0.72747 0.98183 0.87145 0.0
H166 H 0.74491 0.01613 0.87415 0.0
H167 H 0.6373 0.04359 0.92537 0.0
O168 O 0.62863 0.97831 0.65564 0.0
C169 C 0.55679 0.02281 0.78357 0.0
Co170 Co 0.00708 0.14608 0.96416 0.0
Co171 Co 0.96413 0.14704 0.06383 0.0
C172 C 0.90922 0.16174 0.97367 0.0
O173 O 0.94367 0.16354 0.94623 0.0
O174 O 0.91486 0.15466 0.01679 0.0
C175 C 0.03334 0.13125 0.86932 0.0
O176 O 0.99046 0.11604 0.86483 0.0
C177 C 0.91234 0.21024 0.11816 0.0
C178 C 0.90216 0.17667 0.18624 0.0
C179 C 0.89156 0.21653 0.16102 0.0
N180 N 0.9335 0.1688 0.1178 0.0
N181 N 0.92699 0.14844 0.1584 0.0
C182 C 0.91549 0.24443 0.07892 0.0
H183 H 0.94341 0.23501 0.05444 0.0
H184 H 0.92217 0.28 0.09236 0.0
H185 H 0.88225 0.24444 0.05934 0.0
C186 C 0.06784 0.21734 0.00662 0.0
N187 N 0.03325 0.18582 0.0091 0.0
N188 N 0.01759 0.18408 0.05186 0.0
C189 C 0.0425 0.21382 0.07836 0.0
C190 C 0.07501 0.2361 0.05047 0.0
C191 C 0.09343 0.22889 0.96294 0.0
H192 H 0.11295 0.19783 0.95142 0.0
H193 H 0.06817 0.23771 0.93513 0.0
H194 H 0.11824 0.25809 0.96801 0.0
O195 O 0.00169 0.08152 -0.01153 0.0
O196 O 0.97878 0.07972 0.06252 0.0
H197 H 0.01927 0.19169 0.14572 0.0
H198 H 0.06459 0.23546 0.14688 0.0
C199 C 0.03286 0.22341 0.12849 0.0
H200 H 0.00644 0.25121 0.13104 0.0
H201 H 0.93978 0.11571 0.16721 0.0
O202 O 0.04728 0.14573 0.90867 0.0
C203 C 0.99156 0.05913 0.02543 0.0
Co204 Co 0.85559 0.49661 0.20477 0.0
Co205 Co 0.86011 0.46228 0.3075 0.0
C206 C 0.84428 0.39938 0.22233 0.0
O207 O 0.83878 0.43097 0.19188 0.0
O208 O 0.8536 0.40984 0.26413 0.0
C209 C 0.87807 0.52363 0.11176 0.0
O210 O 0.90293 0.48545 0.11256 0.0
C211 C 0.79916 0.41164 0.36568 0.0
C212 C 0.83323 0.40734 0.43422 0.0
C213 C 0.79361 0.39356 0.40992 0.0
N214 N 0.83998 0.43427 0.36367 0.0
N215 N 0.86066 0.43127 0.40458 0.0
C216 C 0.76472 0.4109 0.32644 0.0
H217 H 0.77309 0.43757 0.30007 0.0
H218 H 0.72906 0.41701 0.33951 0.0
H219 H 0.76569 0.37647 0.30914 0.0
C220 C 0.78475 0.55882 0.24511 0.0
N221 N 0.8166 0.5249 0.24875 0.0
N222 N 0.82094 0.51289 0.29255 0.0
C223 C 0.79256 0.53935 0.31848 0.0
C224 C 0.76855 0.56929 0.28924 0.0
C225 C 0.77136 0.58145 0.20025 0.0
H226 H 0.7626 0.55433 0.1742 0.0
H227 H 0.74165 0.60543 0.20453 0.0
H228 H 0.80151 0.60148 0.18688 0.0
O229 O 0.92109 0.49652 0.22841 0.0
O230 O 0.92625 0.48065 0.30417 0.0
H231 H 0.77379 0.56597 0.38615 0.0
H232 H 0.75991 0.50593 0.37603 0.0
C233 C 0.7862 0.53352 0.36974 0.0
H234 H 0.81937 0.52291 0.3862 0.0
H235 H 0.89299 0.44592 0.41239 0.0
O236 O 0.85408 0.53406 0.14711 0.0
C237 C 0.94513 0.49123 0.26548 0.0
Co238 Co 0.51512 0.35733 0.45588 0.0
Co239 Co 0.54894 0.36242 0.55861 0.0
C240 C 0.61182 0.34557 0.47394 0.0
O241 O 0.58026 0.33953 0.44343 0.0
O242 O 0.60139 0.35549 0.51552 0.0
C243 C 0.48552 0.38727 0.36683 0.0
O244 O 0.52144 0.41525 0.37164 0.0
C245 C 0.59696 0.30067 0.61762 0.0
C246 C 0.59979 0.33384 0.68659 0.0
C247 C 0.61295 0.29412 0.66252 0.0
N248 N 0.57595 0.34209 0.61506 0.0
N249 N 0.57817 0.3623 0.6562 0.0
C250 C 0.5974 0.26636 0.57837 0.0
H251 H 0.57224 0.27588 0.55093 0.0
H252 H 0.58899 0.2309 0.5911 0.0
H253 H 0.63246 0.26595 0.56252 0.0
C254 C 0.45173 0.2868 0.49648 0.0
N255 N 0.48576 0.31891 0.49998 0.0
N256 N 0.49746 0.32381 0.54382 0.0
C257 C 0.4706 0.29567 0.56992 0.0
C258 C 0.44079 0.27109 0.54077 0.0
C259 C 0.42984 0.2723 0.45152 0.0
H260 H 0.41007 0.302 0.43703 0.0
H261 H 0.45736 0.26335 0.4262 0.0
H262 H 0.40584 0.24238 0.45607 0.0
O263 O 0.51727 0.42284 0.47915 0.0
O264 O 0.53228 0.42861 0.55501 0.0
H265 H 0.48758 0.32294 0.63737 0.0
H266 H 0.44316 0.27833 0.63766 0.0
C267 C 0.47606 0.28979 0.62132 0.0
H268 H 0.50267 0.26289 0.62826 0.0
H269 H 0.56411 0.39478 0.66374 0.0
O270 O 0.47744 0.35738 0.39827 0.0
C271 C 0.52287 0.44724 0.51588 0.0
C272 C 0.09274 0.08194 0.76387 0.0
C273 C 0.13745 0.1009 0.7686 0.0
H274 H 0.0241 0.07746 0.79173 0.0
C275 C 0.146 0.13483 0.80248 0.0
H276 H 0.0859 0.05499 0.73841 0.0
C277 C 0.11106 0.14699 0.83373 0.0
C278 C 0.06709 0.1255 0.83123 0.0
H279 H 0.18061 0.14908 0.80713 0.0
H280 H 0.11925 0.17129 0.86134 0.0
C281 C 0.0576 0.09454 0.79463 0.0
C282 C 0.86902 0.63557 0.04327 0.0
C283 C 0.9084 0.63236 0.01507 0.0
H284 H 0.82816 0.60308 0.09629 0.0
C285 C 0.9334 0.59068 0.01375 0.0
H286 H 0.84975 0.66775 0.04517 0.0
C287 C 0.92123 0.5537 0.04273 0.0
C288 C 0.8843 0.55819 0.07415 0.0
H289 H 0.96426 0.58788 -0.00749 0.0
H290 H 0.9428 0.52297 0.04276 0.0
C291 C 0.85707 0.59873 0.07275 0.0
C292 C 0.37368 0.38026 0.29741 0.0
C293 C 0.37486 0.42301 0.27412 0.0
H294 H 0.40832 0.33505 0.34536 0.0
C295 C 0.41512 0.45057 0.27631 0.0
H296 H 0.34269 0.35875 0.29637 0.0
C297 C 0.45264 0.43715 0.30391 0.0
C298 C 0.45023 0.3962 0.33042 0.0
H299 H 0.41653 0.48379 0.25857 0.0
H300 H 0.48227 0.46036 0.30664 0.0
C301 C 0.41109 0.36698 0.32558 0.0
C302 C 0.59342 0.94388 0.56839 0.0
C303 C 0.63991 0.94267 0.58282 0.0
H304 H 0.53938 0.91069 0.52948 0.0
C305 C 0.66941 0.90831 0.56492 0.0
H306 H 0.57018 0.97036 0.58137 0.0
C307 C 0.65141 0.87321 0.53607 0.0
C308 C 0.60398 0.87274 0.52444 0.0
H309 H 0.7054 0.90668 0.57588 0.0
H310 H 0.67376 0.845 0.52551 0.0
C311 C 0.57583 0.90967 0.53891 0.0
C312 C 0.82319 0.16811 -0.01713 0.0
C313 C 0.86177 0.15749 0.95498 0.0
H314 H 0.74924 0.16243 -0.00854 0.0
C315 C 0.85478 0.13392 0.91295 0.0
H316 H 0.82786 0.18538 0.01602 0.0
C317 C 0.81043 0.11931 0.90007 0.0
C318 C 0.77172 0.12992 0.9277 0.0
H319 H 0.88395 0.12366 0.89167 0.0
H320 H 0.80684 0.09796 0.86928 0.0
C321 C 0.77841 0.1546 0.96919 0.0
C322 C 0.84537 0.28989 0.14959 0.0
C323 C 0.87008 0.2596 0.17901 0.0
H324 H 0.81827 0.35855 0.13976 0.0
C325 C 0.87826 0.273 0.22511 0.0
H326 H 0.83583 0.27956 0.11474 0.0
C327 C 0.86654 0.31754 0.23999 0.0
C328 C 0.84681 0.34981 0.2089 0.0
H329 H 0.89642 0.25021 0.24892 0.0
H330 H 0.87582 0.3275 0.27512 0.0
C331 C 0.83458 0.33494 0.1641 0.0
C332 C 0.69313 0.37121 0.49027 0.0
C333 C 0.66131 0.34843 0.4606 0.0
H334 H 0.75982 0.40359 0.4972 0.0
C335 C 0.67649 0.33341 0.41692 0.0
H336 H 0.68287 0.38279 0.52452 0.0
C337 C 0.72139 0.34428 0.40189 0.0
C338 C 0.75112 0.37194 0.42947 0.0
H339 H 0.65324 0.31475 0.39378 0.0
H340 H 0.73197 0.33254 0.36791 0.0
C341 C 0.73747 0.38306 0.47476 0.0
C342 C 0.61635 0.23634 0.72674 0.0
C343 C 0.63111 0.25046 0.68262 0.0
H344 H 0.6116 0.18097 0.77573 0.0
C345 C 0.65891 0.22022 0.65628 0.0
H346 H 0.59537 0.25898 0.74809 0.0
C347 C 0.66711 0.1748 0.67141 0.0
C348 C 0.64922 0.15961 0.71401 0.0
H349 H 0.67307 0.23099 0.62325 0.0
H350 H 0.68655 0.1514 0.64944 0.0
C351 C 0.62549 0.19145 0.74238 0.0
C352 C 0.68523 0.59096 0.28384 0.0
C353 C 0.72967 0.59998 0.30172 0.0
H354 H 0.61308 0.60777 0.28576 0.0
C355 C 0.73603 0.63643 0.33352 0.0
H356 H 0.67965 0.56289 0.25932 0.0
C357 C 0.69799 0.66234 0.34873 0.0
C358 C 0.65301 0.65188 0.3325 0.0
H359 H 0.77025 0.64412 0.34737 0.0
H360 H 0.70359 0.68928 0.37446 0.0
C361 C 0.64722 0.61661 0.2991 0.0
C362 C 0.37452 0.23667 0.5853 0.0
C363 C 0.41102 0.23128 0.55362 0.0
H364 H 0.3232 0.20269 0.62731 0.0
C365 C 0.42158 0.18686 0.53696 0.0
H366 H 0.36571 0.27083 0.5983 0.0
C367 C 0.39751 0.14801 0.5534 0.0
C368 C 0.3623 0.1529 0.58678 0.0
H369 H 0.44976 0.182 0.51262 0.0
H370 H 0.40755 0.11398 0.54101 0.0
C371 C 0.35018 0.19776 0.60168 0.0
C372 C 0.80534 0.84888 0.85331 0.0
C373 C 0.84841 0.8548 0.83112 0.0
H374 H 0.73449 0.87137 0.85811 0.0
C375 C 0.85132 0.88511 0.79285 0.0
H376 H 0.80189 0.82575 0.88281 0.0
C377 C 0.81279 0.91095 0.7788 0.0
C378 C 0.77078 0.90722 0.80293 0.0
H379 H 0.88388 0.89025 0.77479 0.0
H380 H 0.81647 0.93554 0.75051 0.0
C381 C 0.76686 0.87502 0.83937 0.0
C382 C 0.09485 0.31975 0.04153 0.0
C383 C 0.10375 0.27686 0.06274 0.0
H384 H 0.1103 0.39244 0.03954 0.0
C385 C 0.13833 0.27384 0.09703 0.0
H386 H 0.06818 0.32273 0.01505 0.0
C387 C 0.16275 0.31367 0.11101 0.0
C388 C 0.15252 0.35712 0.09113 0.0
H389 H 0.14582 0.24086 0.11353 0.0
H390 H 0.18837 0.3107 0.13849 0.0
C391 C 0.11893 0.35955 0.05564 0.0
C392 C 0.43027 0.68144 0.3197 0.0
C393 C 0.42543 0.71827 0.35111 0.0
H394 H 0.39583 0.62869 0.2809 0.0
C395 C 0.38123 0.73709 0.35879 0.0
H396 H 0.46389 0.66568 0.31407 0.0
C397 C 0.34196 0.71651 0.33888 0.0
C398 C 0.34618 0.67651 0.31132 0.0
H399 H 0.37668 0.7654 0.38318 0.0
H400 H 0.30805 0.72998 0.34772 0.0
C401 C 0.3909 0.66025 0.30049 0.0
C402 C 0.34154 0.9307 0.5746 0.0
C403 C 0.30263 0.92409 0.60299 0.0
H404 H 0.39688 0.89845 0.53838 0.0
C405 C 0.28357 0.87932 0.6077 0.0
H406 H 0.35739 0.96477 0.57122 0.0
C407 C 0.30575 0.84113 0.58812 0.0
C408 C 0.34747 0.84705 0.56372 0.0
H409 H 0.25357 0.8734 0.6296 0.0
H410 H 0.29187 0.80668 0.59468 0.0
C411 C 0.36418 0.89238 0.5556 0.0
C412 C 0.12387 0.77733 0.85354 0.0
C413 C 0.07959 0.79672 0.84753 0.0
H414 H 0.19682 0.78501 0.84208 0.0
C415 C 0.0741 0.83468 0.8175 0.0
H416 H 0.12892 0.748 0.87662 0.0
C417 C 0.11312 0.85647 0.79844 0.0
C418 C 0.15797 0.83989 0.80844 0.0
H419 H 0.04041 0.85072 0.81298 0.0
H420 H 0.10807 0.88869 0.77987 0.0
C421 C 0.16273 0.79873 0.83412 0.0
C422 C 0.15321 0.61863 0.0482 0.0
C423 C 0.16785 0.66437 0.05797 0.0
H424 H 0.16141 0.54634 0.06376 0.0
C425 C 0.20828 0.67128 0.08453 0.0
H426 H 0.12161 0.61179 0.02906 0.0
C427 C 0.23066 0.6336 0.10503 0.0
C428 C 0.21311 0.58836 0.0991 0.0
H429 H 0.22059 0.70607 0.09235 0.0
H430 H 0.2592 0.64024 0.12881 0.0
C431 C 0.17608 0.58083 0.06821 0.0
C432 C 0.47708 0.99473 0.80548 0.0
C433 C 0.50604 0.02692 0.78305 0.0
H434 H 0.4076 0.96804 0.81213 0.0
C435 C 0.48645 0.06095 0.75433 0.0
H436 H 0.49177 0.96808 0.82761 0.0
C437 C 0.4389 0.06136 0.7458 0.0
C438 C 0.40982 0.02718 0.76524 0.0
H439 H 0.50834 0.08622 0.73687 0.0
H440 H 0.4254 0.08717 0.72196 0.0
C441 C 0.42909 0.99476 0.79652 0.0
C442 C 0.00729 0.97723 0.05221 0.0
C443 C 0.9865 0.00843 0.02108 0.0
H444 H 0.02334 0.90572 0.06661 0.0
C445 C 0.96158 0.99113 -0.01717 0.0
H446 H 0.02655 0.99 0.08201 0.0
C447 C 0.95879 0.94361 0.97459 0.0
C448 C 0.98172 0.91205 0.00389 0.0
H449 H 0.94474 0.01461 0.95867 0.0
H450 H 0.94018 0.93189 0.94394 0.0
C451 C 0.00539 0.92921 0.04334 0.0
C452 C 0.0637 0.47721 0.21325 0.0
C453 C 0.09343 0.49293 0.24878 0.0
H454 H 0.99414 0.46527 0.1907 0.0
C455 C 0.07404 0.50789 0.29099 0.0
H456 H 0.07729 0.4658 0.18012 0.0
C457 C 0.02565 0.50682 0.29737 0.0
C458 C 0.9962 0.4922 0.26106 0.0
H459 H 0.09617 0.52027 0.31891 0.0
H460 H 0.01126 0.51829 0.33011 0.0
C461 C 0.01585 0.47733 0.21913 0.0
C462 C 0.53891 0.51717 0.46844 0.0
C463 C 0.52356 0.49823 0.51065 0.0
H464 H 0.55191 0.57812 0.42855 0.0
C465 C 0.51004 0.52826 0.54658 0.0
H466 H 0.55023 0.49494 0.44033 0.0
C467 C 0.51034 0.57656 0.53953 0.0
C468 C 0.52549 0.59528 0.49698 0.0
H469 H 0.49829 0.51441 0.57952 0.0
H470 H 0.49866 0.59916 0.56716 0.0
C471 C 0.54033 0.565 0.46186 0.0
loop_
_geom_bond_atom_site_label_1
_geom_bond_atom_site_label_2
_geom_bond_distance
_geom_bond_site_symmetry_2
_ccdc_geom_bond_type
Co0 O3 1.970 1_545 S
Co0 N17 1.989 . S
Co0 O25 1.967 . S
Co0 O32 1.920 . S
Co1 O4 1.966 . S
Co1 N10 2.022 . S
Co1 N18 1.993 1_565 S
Co1 O26 1.941 . S
C2 O3 1.258 . S
C2 O4 1.263 . S
O3 Co0 1.970 1_565 S
O3 C2 1.258 . S
O4 Co1 1.966 . S
O4 C2 1.263 . S
C5 O6 1.235 . S
C5 O32 1.289 . S
O6 C5 1.235 . S
C7 C9 1.400 . S
C7 N10 1.351 . S
C7 C12 1.501 . S
C8 C9 1.387 . S
C8 N11 1.341 . S
C9 C7 1.400 . S
C9 C8 1.387 . S
N10 Co1 2.022 . S
N10 C7 1.351 . S
N10 N11 1.365 . S
N11 C8 1.341 . S
N11 N10 1.365 . S
N11 H31 0.862 . S
C12 C7 1.501 . S
C12 H13 0.961 . S
C12 H14 0.961 . S
C12 H15 0.960 . S
H13 C12 0.961 . S
H14 C12 0.961 . S
H15 C12 0.960 . S
C16 N17 1.342 . S
C16 C20 1.401 . S
C16 C21 1.499 . S
N17 Co0 1.989 . S
N17 C16 1.342 . S
N17 N18 1.388 . S
N18 Co1 1.993 1_545 S
N18 N17 1.388 . S
N18 C19 1.346 . S
C19 N18 1.346 . S
C19 C20 1.396 . S
C19 C29 1.510 . S
C20 C16 1.401 . S
C20 C19 1.396 . S
C21 C16 1.499 . S
C21 H22 0.959 . S
C21 H23 0.960 . S
C21 H24 0.961 . S
H22 C21 0.959 . S
H23 C21 0.960 . S
H24 C21 0.961 . S
O25 Co0 1.967 . S
O25 C33 1.252 1_545 S
O26 Co1 1.941 . S
O26 C33 1.273 . S
H27 C29 0.959 . S
H28 C29 0.961 . S
C29 C19 1.510 . S
C29 H27 0.959 . S
C29 H28 0.961 . S
C29 H30 0.960 1_545 S
H30 C29 0.960 1_565 S
H31 N11 0.862 . S
O32 Co0 1.920 . S
O32 C5 1.289 . S
C33 O25 1.252 1_565 S
C33 O26 1.273 . S
Co34 O37 1.970 1_655 S
Co34 N51 1.989 1_556 S
Co34 O59 1.967 . S
Co34 O66 1.920 . S
Co35 O38 1.966 1_554 S
Co35 N44 2.022 . S
Co35 N52 1.993 1_455 S
Co35 O60 1.941 . S
C36 O37 1.258 . S
C36 O38 1.263 . S
O37 Co34 1.970 1_455 S
O37 C36 1.258 . S
O38 Co35 1.966 1_556 S
O38 C36 1.263 . S
C39 O40 1.235 . S
C39 O66 1.289 . S
O40 C39 1.235 . S
C41 C43 1.400 . S
C41 N44 1.351 . S
C41 C46 1.501 . S
C42 C43 1.387 . S
C42 N45 1.341 . S
C43 C41 1.400 . S
C43 C42 1.387 . S
N44 Co35 2.022 . S
N44 C41 1.351 . S
N44 N45 1.365 . S
N45 C42 1.341 . S
N45 N44 1.365 . S
N45 H65 0.862 . S
C46 C41 1.501 . S
C46 H47 0.961 . S
C46 H48 0.961 . S
C46 H49 0.960 . S
H47 C46 0.961 . S
H48 C46 0.961 . S
H49 C46 0.960 . S
C50 N51 1.342 . S
C50 C54 1.401 . S
C50 C55 1.499 1_554 S
N51 Co34 1.989 1_554 S
N51 C50 1.342 . S
N51 N52 1.388 . S
N52 Co35 1.993 1_655 S
N52 N51 1.388 . S
N52 C53 1.346 . S
C53 N52 1.346 . S
C53 C54 1.396 . S
C53 C63 1.510 1_655 S
C54 C50 1.401 . S
C54 C53 1.396 . S
C55 C50 1.499 1_556 S
C55 H56 0.959 . S
C55 H57 0.960 . S
C55 H58 0.961 1_556 S
H56 C55 0.959 . S
H57 C55 0.960 . S
H58 C55 0.961 1_554 S
O59 Co34 1.967 . S
O59 C67 1.258 1_656 S
O60 Co35 1.941 . S
O60 C67 1.266 . S
H61 C63 0.959 1_655 S
H62 C63 0.961 . S
C63 C53 1.510 1_455 S
C63 H61 0.959 1_455 S
C63 H62 0.961 . S
C63 H64 0.960 . S
H64 C63 0.960 . S
H65 N45 0.862 . S
O66 Co34 1.920 . S
O66 C39 1.289 . S
C67 O59 1.258 1_454 S
C67 O60 1.266 . S
Co68 O71 1.970 . S
Co68 N85 1.989 . S
Co68 O93 1.967 . S
Co68 O100 1.920 . S
Co69 O72 1.966 . S
Co69 N78 2.022 . S
Co69 N86 1.993 . S
Co69 O94 1.941 . S
C70 O71 1.258 . S
C70 O72 1.263 . S
O71 Co68 1.970 . S
O71 C70 1.258 . S
O72 Co69 1.966 . S
O72 C70 1.263 . S
C73 O74 1.235 . S
C73 O100 1.289 . S
O74 C73 1.235 . S
C75 C77 1.400 . S
C75 N78 1.351 . S
C75 C80 1.501 . S
C76 C77 1.387 . S
C76 N79 1.341 . S
C77 C75 1.400 . S
C77 C76 1.387 . S
N78 Co69 2.022 . S
N78 C75 1.351 . S
N78 N79 1.365 . S
N79 C76 1.341 . S
N79 N78 1.365 . S
N79 H99 0.862 . S
C80 C75 1.501 . S
C80 H81 0.961 . S
C80 H82 0.961 . S
C80 H83 0.960 . S
H81 C80 0.961 . S
H82 C80 0.961 . S
H83 C80 0.960 . S
C84 N85 1.342 . S
C84 C88 1.401 . S
C84 C89 1.499 . S
N85 Co68 1.989 . S
N85 C84 1.342 . S
N85 N86 1.388 . S
N86 Co69 1.993 . S
N86 N85 1.388 . S
N86 C87 1.346 . S
C87 N86 1.346 . S
C87 C88 1.396 . S
C87 C97 1.510 . S
C88 C84 1.401 . S
C88 C87 1.396 . S
C89 C84 1.499 . S
C89 H90 0.959 . S
C89 H91 0.960 . S
C89 H92 0.961 . S
H90 C89 0.959 . S
H91 C89 0.960 . S
H92 C89 0.961 . S
O93 Co68 1.967 . S
O93 C101 1.258 . S
O94 Co69 1.941 . S
O94 C101 1.266 . S
H95 C97 0.959 . S
H96 C97 0.961 . S
C97 C87 1.510 . S
C97 H95 0.959 . S
C97 H96 0.961 . S
C97 H98 0.960 . S
H98 C97 0.960 . S
H99 N79 0.862 . S
O100 Co68 1.920 . S
O100 C73 1.289 . S
C101 O93 1.258 . S
C101 O94 1.266 . S
Co102 O105 1.970 . S
Co102 N119 1.989 . S
Co102 O127 1.967 . S
Co102 O134 1.920 . S
Co103 O106 1.966 . S
Co103 N112 2.022 . S
Co103 N120 1.993 . S
Co103 O128 1.941 . S
C104 O105 1.258 . S
C104 O106 1.263 . S
O105 Co102 1.970 . S
O105 C104 1.258 . S
O106 Co103 1.966 . S
O106 C104 1.263 . S
C107 O108 1.235 . S
C107 O134 1.289 . S
O108 C107 1.235 . S
C109 C111 1.400 . S
C109 N112 1.351 . S
C109 C114 1.501 . S
C110 C111 1.387 . S
C110 N113 1.341 . S
C111 C109 1.400 . S
C111 C110 1.387 . S
N112 Co103 2.022 . S
N112 C109 1.351 . S
N112 N113 1.365 . S
N113 C110 1.341 . S
N113 N112 1.365 . S
N113 H133 0.862 . S
C114 C109 1.501 . S
C114 H115 0.961 . S
C114 H116 0.961 . S
C114 H117 0.960 . S
H115 C114 0.961 . S
H116 C114 0.961 . S
H117 C114 0.960 . S
C118 N119 1.342 . S
C118 C122 1.401 . S
C118 C123 1.499 . S
N119 Co102 1.989 . S
N119 C118 1.342 . S
N119 N120 1.388 . S
N120 Co103 1.993 . S
N120 N119 1.388 . S
N120 C121 1.346 . S
C121 N120 1.346 . S
C121 C122 1.396 . S
C121 C131 1.510 . S
C122 C118 1.401 . S
C122 C121 1.396 . S
C123 C118 1.499 . S
C123 H124 0.959 . S
C123 H125 0.960 . S
C123 H126 0.961 . S
H124 C123 0.959 . S
H125 C123 0.960 . S
H126 C123 0.961 . S
O127 Co102 1.967 . S
O127 C135 1.258 . S
O128 Co103 1.941 . S
O128 C135 1.266 . S
H129 C131 0.959 . S
H130 C131 0.961 . S
C131 C121 1.510 . S
C131 H129 0.959 . S
C131 H130 0.961 . S
C131 H132 0.960 . S
H132 C131 0.960 . S
H133 N113 0.862 . S
O134 Co102 1.920 . S
O134 C107 1.289 . S
C135 O127 1.258 . S
C135 O128 1.266 . S
Co136 O139 1.970 1_565 S
Co136 N153 1.989 . S
Co136 O161 1.967 . S
Co136 O168 1.920 . S
Co137 O140 1.966 . S
Co137 N146 2.022 . S
Co137 N154 1.993 1_545 S
Co137 O162 1.941 . S
C138 O139 1.258 . S
C138 O140 1.263 . S
O139 Co136 1.970 1_545 S
O139 C138 1.258 . S
O140 Co137 1.966 . S
O140 C138 1.263 . S
C141 O142 1.235 . S
C141 O168 1.289 . S
O142 C141 1.235 . S
C143 C145 1.400 . S
C143 N146 1.351 . S
C143 C148 1.501 . S
C144 C145 1.387 . S
C144 N147 1.341 . S
C145 C143 1.400 . S
C145 C144 1.387 . S
N146 Co137 2.022 . S
N146 C143 1.351 . S
N146 N147 1.365 . S
N147 C144 1.341 . S
N147 N146 1.365 . S
N147 H167 0.862 . S
C148 C143 1.501 . S
C148 H149 0.961 . S
C148 H150 0.961 . S
C148 H151 0.960 . S
H149 C148 0.961 . S
H150 C148 0.961 . S
H151 C148 0.960 . S
C152 N153 1.342 . S
C152 C156 1.401 . S
C152 C157 1.499 . S
N153 Co136 1.989 . S
N153 C152 1.342 . S
N153 N154 1.388 . S
N154 Co137 1.993 1_565 S
N154 N153 1.388 . S
N154 C155 1.346 . S
C155 N154 1.346 . S
C155 C156 1.396 . S
C155 C165 1.510 1_565 S
C156 C152 1.401 . S
C156 C155 1.396 . S
C157 C152 1.499 . S
C157 H158 0.959 . S
C157 H159 0.960 . S
C157 H160 0.961 . S
H158 C157 0.959 . S
H159 C157 0.960 . S
H160 C157 0.961 . S
O161 Co136 1.967 . S
O161 C169 1.258 1_565 S
O162 Co137 1.941 . S
O162 C169 1.266 . S
H163 C165 0.959 1_565 S
H164 C165 0.961 . S
C165 C155 1.510 1_545 S
C165 H163 0.959 1_545 S
C165 H164 0.961 . S
C165 H166 0.960 . S
H166 C165 0.960 . S
H167 N147 0.862 . S
O168 Co136 1.920 . S
O168 C141 1.289 . S
C169 O161 1.258 1_545 S
C169 O162 1.266 . S
Co170 O173 1.970 1_455 S
Co170 N187 1.989 1_556 S
Co170 O195 1.967 . S
Co170 O202 1.920 . S
Co171 O174 1.966 1_554 S
Co171 N180 2.022 . S
Co171 N188 1.993 1_655 S
Co171 O196 1.941 . S
C172 O173 1.258 . S
C172 O174 1.263 . S
O173 Co170 1.970 1_655 S
O173 C172 1.258 . S
O174 Co171 1.966 1_556 S
O174 C172 1.263 . S
C175 O176 1.235 . S
C175 O202 1.289 . S
O176 C175 1.235 . S
C177 C179 1.400 . S
C177 N180 1.351 . S
C177 C182 1.501 . S
C178 C179 1.387 . S
C178 N181 1.341 . S
C179 C177 1.400 . S
C179 C178 1.387 . S
N180 Co171 2.022 . S
N180 C177 1.351 . S
N180 N181 1.365 . S
N181 C178 1.341 . S
N181 N180 1.365 . S
N181 H201 0.862 . S
C182 C177 1.501 . S
C182 H183 0.961 . S
C182 H184 0.961 . S
C182 H185 0.960 . S
H183 C182 0.961 . S
H184 C182 0.961 . S
H185 C182 0.960 . S
C186 N187 1.342 . S
C186 C190 1.401 . S
C186 C191 1.499 1_554 S
N187 Co170 1.989 1_554 S
N187 C186 1.342 . S
N187 N188 1.388 . S
N188 Co171 1.993 1_455 S
N188 N187 1.388 . S
N188 C189 1.346 . S
C189 N188 1.346 . S
C189 C190 1.396 . S
C189 C199 1.510 . S
C190 C186 1.401 . S
C190 C189 1.396 . S
C191 C186 1.499 1_556 S
C191 H192 0.959 . S
C191 H193 0.960 . S
C191 H194 0.961 1_556 S
H192 C191 0.959 . S
H193 C191 0.960 . S
H194 C191 0.961 1_554 S
O195 Co170 1.967 . S
O195 C203 1.251 1_456 S
O196 Co171 1.941 . S
O196 C203 1.273 . S
H197 C199 0.959 . S
H198 C199 0.961 . S
C199 C189 1.510 . S
C199 H197 0.959 . S
C199 H198 0.961 . S
C199 H200 0.960 1_455 S
H200 C199 0.960 1_655 S
H201 N181 0.862 . S
O202 Co170 1.920 . S
O202 C175 1.289 . S
C203 O195 1.251 1_654 S
C203 O196 1.273 . S
Co204 O207 1.970 . S
Co204 N221 1.989 . S
Co204 O229 1.967 . S
Co204 O236 1.920 . S
Co205 O208 1.966 . S
Co205 N214 2.022 . S
Co205 N222 1.993 . S
Co205 O230 1.941 . S
C206 O207 1.258 . S
C206 O208 1.263 . S
O207 Co204 1.970 . S
O207 C206 1.258 . S
O208 Co205 1.966 . S
O208 C206 1.263 . S
C209 O210 1.235 . S
C209 O236 1.289 . S
O210 C209 1.235 . S
C211 C213 1.400 . S
C211 N214 1.351 . S
C211 C216 1.501 . S
C212 C213 1.387 . S
C212 N215 1.341 . S
C213 C211 1.400 . S
C213 C212 1.387 . S
N214 Co205 2.022 . S
N214 C211 1.351 . S
N214 N215 1.365 . S
N215 C212 1.341 . S
N215 N214 1.365 . S
N215 H235 0.862 . S
C216 C211 1.501 . S
C216 H217 0.961 . S
C216 H218 0.961 . S
C216 H219 0.960 . S
H217 C216 0.961 . S
H218 C216 0.961 . S
H219 C216 0.960 . S
C220 N221 1.342 . S
C220 C224 1.401 . S
C220 C225 1.499 . S
N221 Co204 1.989 . S
N221 C220 1.342 . S
N221 N222 1.388 . S
N222 Co205 1.993 . S
N222 N221 1.388 . S
N222 C223 1.346 . S
C223 N222 1.346 . S
C223 C224 1.396 . S
C223 C233 1.510 . S
C224 C220 1.401 . S
C224 C223 1.396 . S
C225 C220 1.499 . S
C225 H226 0.959 . S
C225 H227 0.960 . S
C225 H228 0.961 . S
H226 C225 0.959 . S
H227 C225 0.960 . S
H228 C225 0.961 . S
O229 Co204 1.967 . S
O229 C237 1.258 . S
O230 Co205 1.941 . S
O230 C237 1.266 . S
H231 C233 0.959 . S
H232 C233 0.961 . S
C233 C223 1.510 . S
C233 H231 0.959 . S
C233 H232 0.961 . S
C233 H234 0.960 . S
H234 C233 0.960 . S
H235 N215 0.862 . S
O236 Co204 1.920 . S
O236 C209 1.289 . S
C237 O229 1.258 . S
C237 O230 1.266 . S
Co238 O241 1.970 . S
Co238 N255 1.989 . S
Co238 O263 1.967 . S
Co238 O270 1.920 . S
Co239 O242 1.966 . S
Co239 N248 2.022 . S
Co239 N256 1.993 . S
Co239 O264 1.941 . S
C240 O241 1.258 . S
C240 O242 1.263 . S
O241 Co238 1.970 . S
O241 C240 1.258 . S
O242 Co239 1.966 . S
O242 C240 1.263 . S
C243 O244 1.235 . S
C243 O270 1.289 . S
O244 C243 1.235 . S
C245 C247 1.400 . S
C245 N248 1.351 . S
C245 C250 1.501 . S
C246 C247 1.387 . S
C246 N249 1.341 . S
C247 C245 1.400 . S
C247 C246 1.387 . S
N248 Co239 2.022 . S
N248 C245 1.351 . S
N248 N249 1.365 . S
N249 C246 1.341 . S
N249 N248 1.365 . S
N249 H269 0.862 . S
C250 C245 1.501 . S
C250 H251 0.961 . S
C250 H252 0.961 . S
C250 H253 0.960 . S
H251 C250 0.961 . S
H252 C250 0.961 . S
H253 C250 0.960 . S
C254 N255 1.342 . S
C254 C258 1.401 . S
C254 C259 1.499 . S
N255 Co238 1.989 . S
N255 C254 1.342 . S
N255 N256 1.388 . S
N256 Co239 1.993 . S
N256 N255 1.388 . S
N256 C257 1.346 . S
C257 N256 1.346 . S
C257 C258 1.396 . S
C257 C267 1.510 . S
C258 C254 1.401 . S
C258 C257 1.396 . S
C259 C254 1.499 . S
C259 H260 0.959 . S
C259 H261 0.960 . S
C259 H262 0.961 . S
H260 C259 0.959 . S
H261 C259 0.960 . S
H262 C259 0.961 . S
O263 Co238 1.967 . S
O263 C271 1.258 . S
O264 Co239 1.941 . S
O264 C271 1.266 . S
H265 C267 0.959 . S
H266 C267 0.961 . S
C267 C257 1.510 . S
C267 H265 0.959 . S
C267 H266 0.961 . S
C267 H268 0.960 . S
H268 C267 0.960 . S
H269 N249 0.862 . S
O270 Co238 1.920 . S
O270 C243 1.289 . S
C271 O263 1.258 . S
C271 O264 1.266 . S
C272 C273 1.387 . S
C272 H276 0.950 . S
C272 C281 1.390 . S
C273 C272 1.387 . S
C273 C275 1.387 . S
H274 C281 0.950 . S
C275 C273 1.387 . S
C275 C277 1.390 . S
C275 H279 0.950 . S
H276 C272 0.950 . S
C277 C275 1.390 . S
C277 C278 1.387 . S
C277 H280 0.950 . S
C278 C277 1.387 . S
C278 C281 1.387 . S
H279 C275 0.950 . S
H280 C277 0.950 . S
C281 C272 1.390 . S
C281 H274 0.950 . S
C281 C278 1.387 . S
C282 C283 1.387 . S
C282 H286 0.950 . S
C282 C291 1.390 . S
C283 C282 1.387 . S
C283 C285 1.387 . S
H284 C291 0.950 . S
C285 C283 1.387 . S
C285 C287 1.390 . S
C285 H289 0.950 . S
H286 C282 0.950 . S
C287 C285 1.390 . S
C287 C288 1.387 . S
C287 H290 0.950 . S
C288 C287 1.387 . S
C288 C291 1.387 . S
H289 C285 0.950 . S
H290 C287 0.950 . S
C291 C282 1.390 . S
C291 H284 0.950 . S
C291 C288 1.387 . S
C292 C293 1.387 . S
C292 H296 0.950 . S
C292 C301 1.390 . S
C293 C292 1.387 . S
C293 C295 1.387 . S
H294 C301 0.950 . S
C295 C293 1.387 . S
C295 C297 1.390 . S
C295 H299 0.950 . S
H296 C292 0.950 . S
C297 C295 1.390 . S
C297 C298 1.387 . S
C297 H300 0.950 . S
C298 C297 1.387 . S
C298 C301 1.387 . S
H299 C295 0.950 . S
H300 C297 0.950 . S
C301 C292 1.390 . S
C301 H294 0.950 . S
C301 C298 1.387 . S
C302 C303 1.387 . S
C302 H306 0.950 . S
C302 C311 1.390 . S
C303 C302 1.387 . S
C303 C305 1.387 . S
H304 C311 0.950 . S
C305 C303 1.387 . S
C305 C307 1.390 . S
C305 H309 0.950 . S
H306 C302 0.950 . S
C307 C305 1.390 . S
C307 C308 1.387 . S
C307 H310 0.950 . S
C308 C307 1.387 . S
C308 C311 1.387 . S
H309 C305 0.950 . S
H310 C307 0.950 . S
C311 C302 1.390 . S
C311 H304 0.950 . S
C311 C308 1.387 . S
C312 C313 1.387 . S
C312 H316 0.950 . S
C312 C321 1.390 . S
C313 C312 1.387 . S
C313 C315 1.387 . S
H314 C321 0.950 . S
C315 C313 1.387 . S
C315 C317 1.390 . S
C315 H319 0.950 . S
H316 C312 0.950 . S
C317 C315 1.390 . S
C317 C318 1.387 . S
C317 H320 0.950 . S
C318 C317 1.387 . S
C318 C321 1.387 . S
H319 C315 0.950 . S
H320 C317 0.950 . S
C321 C312 1.390 . S
C321 H314 0.950 . S
C321 C318 1.387 . S
C322 C323 1.387 . S
C322 H326 0.950 . S
C322 C331 1.390 . S
C323 C322 1.387 . S
C323 C325 1.387 . S
H324 C331 0.950 . S
C325 C323 1.387 . S
C325 C327 1.390 . S
C325 H329 0.950 . S
H326 C322 0.950 . S
C327 C325 1.390 . S
C327 C328 1.387 . S
C327 H330 0.950 . S
C328 C327 1.387 . S
C328 C331 1.387 . S
H329 C325 0.950 . S
H330 C327 0.950 . S
C331 C322 1.390 . S
C331 H324 0.950 . S
C331 C328 1.387 . S
C332 C333 1.387 . S
C332 H336 0.950 . S
C332 C341 1.390 . S
C333 C332 1.387 . S
C333 C335 1.387 . S
H334 C341 0.950 . S
C335 C333 1.387 . S
C335 C337 1.390 . S
C335 H339 0.950 . S
H336 C332 0.950 . S
C337 C335 1.390 . S
C337 C338 1.387 . S
C337 H340 0.950 . S
C338 C337 1.387 . S
C338 C341 1.387 . S
H339 C335 0.950 . S
H340 C337 0.950 . S
C341 C332 1.390 . S
C341 H334 0.950 . S
C341 C338 1.387 . S
C342 C343 1.387 . S
C342 H346 0.950 . S
C342 C351 1.390 . S
C343 C342 1.387 . S
C343 C345 1.387 . S
H344 C351 0.950 . S
C345 C343 1.387 . S
C345 C347 1.390 . S
C345 H349 0.950 . S
H346 C342 0.950 . S
C347 C345 1.390 . S
C347 C348 1.387 . S
C347 H350 0.950 . S
C348 C347 1.387 . S
C348 C351 1.387 . S
H349 C345 0.950 . S
H350 C347 0.950 . S
C351 C342 1.390 . S
C351 H344 0.950 . S
C351 C348 1.387 . S
C352 C353 1.387 . S
C352 H356 0.950 . S
C352 C361 1.390 . S
C353 C352 1.387 . S
C353 C355 1.387 . S
H354 C361 0.950 . S
C355 C353 1.387 . S
C355 C357 1.390 . S
C355 H359 0.950 . S
H356 C352 0.950 . S
C357 C355 1.390 . S
C357 C358 1.387 . S
C357 H360 0.950 . S
C358 C357 1.387 . S
C358 C361 1.387 . S
H359 C355 0.950 . S
H360 C357 0.950 . S
C361 C352 1.390 . S
C361 H354 0.950 . S
C361 C358 1.387 . S
C362 C363 1.387 . S
C362 H366 0.950 . S
C362 C371 1.390 . S
C363 C362 1.387 . S
C363 C365 1.387 . S
H364 C371 0.950 . S
C365 C363 1.387 . S
C365 C367 1.390 . S
C365 H369 0.950 . S
H366 C362 0.950 . S
C367 C365 1.390 . S
C367 C368 1.387 . S
C367 H370 0.950 . S
C368 C367 1.387 . S
C368 C371 1.387 . S
H369 C365 0.950 . S
H370 C367 0.950 . S
C371 C362 1.390 . S
C371 H364 0.950 . S
C371 C368 1.387 . S
C372 C373 1.387 . S
C372 H376 0.950 . S
C372 C381 1.390 . S
C373 C372 1.387 . S
C373 C375 1.387 . S
H374 C381 0.950 . S
C375 C373 1.387 . S
C375 C377 1.390 . S
C375 H379 0.950 . S
H376 C372 0.950 . S
C377 C375 1.390 . S
C377 C378 1.387 . S
C377 H380 0.950 . S
C378 C377 1.387 . S
C378 C381 1.387 . S
H379 C375 0.950 . S
H380 C377 0.950 . S
C381 C372 1.390 . S
C381 H374 0.950 . S
C381 C378 1.387 . S
C382 C383 1.387 . S
C382 H386 0.950 . S
C382 C391 1.390 . S
C383 C382 1.387 . S
C383 C385 1.387 . S
H384 C391 0.950 . S
C385 C383 1.387 . S
C385 C387 1.390 . S
C385 H389 0.950 . S
H386 C382 0.950 . S
C387 C385 1.390 . S
C387 C388 1.387 . S
C387 H390 0.950 . S
C388 C387 1.387 . S
C388 C391 1.387 . S
H389 C385 0.950 . S
H390 C387 0.950 . S
C391 C382 1.390 . S
C391 H384 0.950 . S
C391 C388 1.387 . S
C392 C393 1.387 . S
C392 H396 0.950 . S
C392 C401 1.390 . S
C393 C392 1.387 . S
C393 C395 1.387 . S
H394 C401 0.950 . S
C395 C393 1.387 . S
C395 C397 1.390 . S
C395 H399 0.950 . S
H396 C392 0.950 . S
C397 C395 1.390 . S
C397 C398 1.387 . S
C397 H400 0.950 . S
C398 C397 1.387 . S
C398 C401 1.387 . S
H399 C395 0.950 . S
H400 C397 0.950 . S
C401 C392 1.390 . S
C401 H394 0.950 . S
C401 C398 1.387 . S
C402 C403 1.387 . S
C402 H406 0.950 . S
C402 C411 1.390 . S
C403 C402 1.387 . S
C403 C405 1.387 . S
H404 C411 0.950 . S
C405 C403 1.387 . S
C405 C407 1.390 . S
C405 H409 0.950 . S
H406 C402 0.950 . S
C407 C405 1.390 . S
C407 C408 1.387 . S
C407 H410 0.950 . S
C408 C407 1.387 . S
C408 C411 1.387 . S
H409 C405 0.950 . S
H410 C407 0.950 . S
C411 C402 1.390 . S
C411 H404 0.950 . S
C411 C408 1.387 . S
C412 C413 1.387 . S
C412 H416 0.950 . S
C412 C421 1.390 . S
C413 C412 1.387 . S
C413 C415 1.387 . S
H414 C421 0.950 . S
C415 C413 1.387 . S
C415 C417 1.390 . S
C415 H419 0.950 . S
H416 C412 0.950 . S
C417 C415 1.390 . S
C417 C418 1.387 . S
C417 H420 0.950 . S
C418 C417 1.387 . S
C418 C421 1.387 . S
H419 C415 0.950 . S
H420 C417 0.950 . S
C421 C412 1.390 . S
C421 H414 0.950 . S
C421 C418 1.387 . S
C422 C423 1.387 . S
C422 H426 0.950 . S
C422 C431 1.390 . S
C423 C422 1.387 . S
C423 C425 1.387 . S
H424 C431 0.950 . S
C425 C423 1.387 . S
C425 C427 1.390 . S
C425 H429 0.950 . S
H426 C422 0.950 . S
C427 C425 1.390 . S
C427 C428 1.387 . S
C427 H430 0.950 . S
C428 C427 1.387 . S
C428 C431 1.387 . S
H429 C425 0.950 . S
H430 C427 0.950 . S
C431 C422 1.390 . S
C431 H424 0.950 . S
C431 C428 1.387 . S
C432 C433 1.387 . S
C432 H436 0.950 . S
C432 C441 1.390 . S
C433 C432 1.387 . S
C433 C435 1.387 . S
H434 C441 0.950 . S
C435 C433 1.387 . S
C435 C437 1.390 . S
C435 H439 0.950 . S
H436 C432 0.950 . S
C437 C435 1.390 . S
C437 C438 1.387 . S
C437 H440 0.950 . S
C438 C437 1.387 . S
C438 C441 1.387 . S
H439 C435 0.950 . S
H440 C437 0.950 . S
C441 C432 1.390 . S
C441 H434 0.950 . S
C441 C438 1.387 . S
C442 C443 1.387 . S
C442 H446 0.950 . S
C442 C451 1.390 1_545 S
C443 C442 1.387 . S
C443 C445 1.387 . S
H444 C451 0.950 . S
C445 C443 1.387 . S
C445 C447 1.390 1_545 S
C445 H449 0.950 1_554 S
H446 C442 0.950 . S
C447 C445 1.390 1_565 S
C447 C448 1.387 . S
C447 H450 0.950 1_554 S
C448 C447 1.387 . S
C448 C451 1.387 . S
H449 C445 0.950 1_556 S
H450 C447 0.950 1_556 S
C451 C442 1.390 1_565 S
C451 H444 0.950 . S
C451 C448 1.387 . S
C452 C453 1.387 . S
C452 H456 0.950 . S
C452 C461 1.390 1_455 S
C453 C452 1.387 . S
C453 C455 1.387 . S
H454 C461 0.950 . S
C455 C453 1.387 . S
C455 C457 1.390 1_455 S
C455 H459 0.950 . S
H456 C452 0.950 . S
C457 C455 1.390 1_655 S
C457 C458 1.387 . S
C457 H460 0.950 . S
C458 C457 1.387 . S
C458 C461 1.387 . S
H459 C455 0.950 . S
H460 C457 0.950 . S
C461 C452 1.390 1_655 S
C461 H454 0.950 . S
C461 C458 1.387 . S
C462 C463 1.387 . S
C462 H466 0.950 . S
C462 C471 1.390 . S
C463 C462 1.387 . S
C463 C465 1.387 . S
H464 C471 0.950 . S
C465 C463 1.387 . S
C465 C467 1.390 . S
C465 H469 0.950 . S
H466 C462 0.950 . S
C467 C465 1.390 . S
C467 C468 1.387 . S
C467 H470 0.950 . S
C468 C467 1.387 . S
C468 C471 1.387 . S
H469 C465 0.950 . S
H470 C467 0.950 . S
C471 C462 1.390 . S
C471 H464 0.950 . S
C471 C468 1.387 . S
C273 C20 1.087 . S
C278 C175 1.097 . S
C283 C54 1.084 . S
C288 C209 1.096 . S
C293 C88 1.084 . S
C298 C243 1.096 . S
C303 C141 1.096 . S
C308 C122 1.085 . S
C313 C172 1.283 . S
C318 C145 1.238 . S
C323 C179 1.237 . S
C328 C206 1.283 . S
C333 C240 1.284 . S
C338 C213 1.240 . S
C343 C247 1.239 . S
C348 C138 1.285 . S
C353 C224 1.086 . S
C358 C107 1.096 . S
C363 C258 1.084 . S
C368 C5 1.096 . S
C373 C39 1.096 . S
C378 C156 1.084 . S
C383 C190 1.086 . S
C388 C73 1.097 . S
C393 C104 1.285 . S
C398 C77 1.237 . S
C403 C2 1.285 . S
C408 C111 1.239 . S
C413 C36 1.282 . S
C418 C9 1.238 . S
C423 C43 1.236 . S
C428 C70 1.284 . S
C433 C169 1.383 . S
C438 C33 1.382 1_545 S
C443 C203 1.382 1_455 S
C448 C67 1.383 . S
C453 C101 1.383 . S
C458 C237 1.383 . S
C463 C271 1.383 . S
C468 C135 1.383 . S
