# Generated by pormake.
# Topology wka, (5)-cn, num edge types: 1
# Building blocks:
#     Node 0, Type 0, BuildingBlock: XOMCOT_clean_sbu_1, # of connection points: 5
#     Node 1, Type 0, BuildingBlock: XOMCOT_clean_sbu_1, # of connection points: 5
#     Node 2, Type 0, BuildingBlock: XOMCOT_clean_sbu_1, # of connection points: 5
#     Node 3, Type 0, BuildingBlock: XOMCOT_clean_sbu_1, # of connection points: 5
#     Node 4, Type 0, BuildingBlock: XOMCOT_clean_sbu_1, # of connection points: 5
#     Node 5, Type 0, BuildingBlock: XOMCOT_clean_sbu_1, # of connection points: 5
#     Node 6, Type 0, BuildingBlock: XOMCOT_clean_sbu_1, # of connection points: 5
#     Node 7, Type 0, BuildingBlock: XOMCOT_clean_sbu_1, # of connection points: 5
#     Node 8, Type 0, BuildingBlock: XOMCOT_clean_sbu_1, # of connection points: 5
#     Node 9, Type 0, BuildingBlock: XOMCOT_clean_sbu_1, # of connection points: 5
#     Node 10, Type 0, BuildingBlock: XOMCOT_clean_sbu_1, # of connection points: 5
#     Node 11, Type 0, BuildingBlock: XOMCOT_clean_sbu_1, # of connection points: 5
#     Edge 12, Type (0, 0), BuildingBlock: XUDNAN_clean_linker_2, # of connection points: 2
#     Edge 13, Type (0, 0), BuildingBlock: XUDNAN_clean_linker_2, # of connection points: 2
#     Edge 14, Type (0, 0), BuildingBlock: XUDNAN_clean_linker_2, # of connection points: 2
#     Edge 15, Type (0, 0), BuildingBlock: XUDNAN_clean_linker_2, # of connection points: 2
#     Edge 16, Type (0, 0), BuildingBlock: XUDNAN_clean_linker_2, # of connection points: 2
#     Edge 17, Type (0, 0), BuildingBlock: XUDNAN_clean_linker_2, # of connection points: 2
#     Edge 18, Type (0, 0), BuildingBlock: XUDNAN_clean_linker_2, # of connection points: 2
#     Edge 19, Type (0, 0), BuildingBlock: XUDNAN_clean_linker_2, # of connection points: 2
#     Edge 20, Type (0, 0), BuildingBlock: XUDNAN_clean_linker_2, # of connection points: 2
#     Edge 21, Type (0, 0), BuildingBlock: XUDNAN_clean_linker_2, # of connection points: 2
#     Edge 22, Type (0, 0), BuildingBlock: XUDNAN_clean_linker_2, # of connection points: 2
#     Edge 23, Type (0, 0), BuildingBlock: XUDNAN_clean_linker_2, # of connection points: 2
#     Edge 24, Type (0, 0), BuildingBlock: XUDNAN_clean_linker_2, # of connection points: 2
#     Edge 25, Type (0, 0), BuildingBlock: XUDNAN_clean_linker_2, # of connection points: 2
#     Edge 26, Type (0, 0), BuildingBlock: XUDNAN_clean_linker_2, # of connection points: 2
#     Edge 27, Type (0, 0), BuildingBlock: XUDNAN_clean_linker_2, # of connection points: 2
#     Edge 28, Type (0, 0), BuildingBlock: XUDNAN_clean_linker_2, # of connection points: 2
#     Edge 29, Type (0, 0), BuildingBlock: XUDNAN_clean_linker_2, # of connection points: 2
#     Edge 30, Type (0, 0), BuildingBlock: XUDNAN_clean_linker_2, # of connection points: 2
#     Edge 31, Type (0, 0), BuildingBlock: XUDNAN_clean_linker_2, # of connection points: 2
#     Edge 32, Type (0, 0), BuildingBlock: XUDNAN_clean_linker_2, # of connection points: 2
#     Edge 33, Type (0, 0), BuildingBlock: XUDNAN_clean_linker_2, # of connection points: 2
#     Edge 34, Type (0, 0), BuildingBlock: XUDNAN_clean_linker_2, # of connection points: 2
#     Edge 35, Type (0, 0), BuildingBlock: XUDNAN_clean_linker_2, # of connection points: 2
#     Edge 36, Type (0, 0), BuildingBlock: XUDNAN_clean_linker_2, # of connection points: 2
#     Edge 37, Type (0, 0), BuildingBlock: XUDNAN_clean_linker_2, # of connection points: 2
#     Edge 38, Type (0, 0), BuildingBlock: XUDNAN_clean_linker_2, # of connection points: 2
#     Edge 39, Type (0, 0), BuildingBlock: XUDNAN_clean_linker_2, # of connection points: 2
#     Edge 40, Type (0, 0), BuildingBlock: XUDNAN_clean_linker_2, # of connection points: 2
#     Edge 41, Type (0, 0), BuildingBlock: XUDNAN_clean_linker_2, # of connection points: 2
# Relax obj value: 0.232
# Max RMSD: 0.182
# Mean RMSD: 0.182
data_MOF--net-wka--node1-XOMCOT_clean_sbu_1--edge1-XUDNAN_clean_linker_2
_symmetry_space_group_name_H-M    P1
_symmetry_Int_Tables_number       1
_symmetry_cell_setting            triclinic
loop_
_symmetry_equiv_pos_as_xyz
'x, y, z'
_cell_length_a     67.154591
_cell_length_b     67.273183
_cell_length_c     17.060515
_cell_angle_alpha  89.965449
_cell_angle_beta   90.023772
_cell_angle_gamma 119.84464
loop_
_atom_site_label
_atom_site_type_symbol
_atom_site_fract_x
_atom_site_fract_y
_atom_site_fract_z
_atom_type_partial_charge
C0 C 0.15041 0.45477 0.96632 0.0
C1 C 0.1562 0.457 0.88811 0.0
N2 N 0.14136 0.43738 0.852 0.0
N3 N 0.13211 0.43378 0.97909 0.0
C4 C 0.12716 0.42358 0.9081 0.0
H5 H 0.15902 0.46768 0.01093 0.0
Co6 Co 0.11749 0.42199 0.07462 0.0
C7 C 0.07745 0.3772 0.00516 0.0
O8 O 0.07883 0.36158 0.0473 0.0
N9 N 0.10368 0.41082 0.17 0.0
C10 C 0.08232 0.39362 0.27457 0.0
C11 C 0.08208 0.39633 0.19427 0.0
C12 C 0.11648 0.41694 0.23541 0.0
N13 N 0.10413 0.40653 0.29995 0.0
O14 O 0.1321 0.40328 0.08285 0.0
H15 H 0.0672 0.38818 0.15652 0.0
H16 H 0.13467 0.42913 0.23528 0.0
O17 O 0.09136 0.39841 0.01745 0.0
C18 C 0.15309 0.41529 0.10396 0.0
O19 O 0.16183 0.43754 0.11133 0.0
N20 N 0.10495 0.44155 0.0713 0.0
C21 C 0.09234 0.47542 0.06586 0.0
C22 C 0.07718 0.45298 0.04045 0.0
C23 C 0.08373 0.43625 0.04403 0.0
C24 C 0.11942 0.46289 0.09994 0.0
C25 C 0.11356 0.48013 0.09733 0.0
H26 H 0.07161 0.41919 0.02459 0.0
H27 H 0.1359 0.46669 0.12349 0.0
H28 H 0.11365 0.40622 0.89712 0.0
H29 H 0.16986 0.47198 0.85968 0.0
H30 H 0.06767 0.38276 0.31094 0.0
H31 H 0.06036 0.44835 0.01774 0.0
H32 H 0.12589 0.49715 0.11757 0.0
C33 C 0.70165 0.14314 0.14544 0.0
C34 C 0.70569 0.14989 0.06836 0.0
N35 N 0.71222 0.13644 0.03097 0.0
N36 N 0.70562 0.12557 0.15617 0.0
C37 C 0.71208 0.12186 0.08553 0.0
H38 H 0.69619 0.15055 0.19102 0.0
Co39 Co 0.7037 0.11211 0.25161 0.0
C40 C 0.68461 0.06292 0.21712 0.0
O41 O 0.67089 0.05936 0.27696 0.0
N42 N 0.70308 0.1 0.35089 0.0
C43 C 0.714 0.08671 0.45224 0.0
C44 C 0.7101 0.08509 0.3728 0.0
C45 C 0.70412 0.11122 0.41757 0.0
N46 N 0.71051 0.10342 0.47966 0.0
O47 O 0.73693 0.12629 0.25579 0.0
H48 H 0.71455 0.0754 0.33321 0.0
H49 H 0.70261 0.12645 0.41956 0.0
O50 O 0.69972 0.08361 0.19914 0.0
C51 C 0.744 0.1457 0.28908 0.0
O52 O 0.7289 0.15235 0.30192 0.0
N53 N 0.67128 0.10054 0.25054 0.0
C54 C 0.62496 0.08896 0.24746 0.0
C55 C 0.63404 0.08122 0.18868 0.0
C56 C 0.65737 0.08774 0.19006 0.0
C57 C 0.66281 0.10901 0.30588 0.0
C58 C 0.63975 0.10319 0.30616 0.0
H59 H 0.66431 0.08289 0.14132 0.0
H60 H 0.67404 0.12125 0.34821 0.0
H61 H 0.71691 0.10898 0.07451 0.0
H62 H 0.70356 0.1633 0.04159 0.0
H63 H 0.72096 0.07789 0.48575 0.0
H64 H 0.62342 0.07094 0.14045 0.0
H65 H 0.63363 0.11007 0.35161 0.0
C66 C 0.56578 0.69116 0.31265 0.0
C67 C 0.56498 0.69407 0.23303 0.0
N68 N 0.58669 0.70554 0.20615 0.0
N69 N 0.5879 0.70034 0.33503 0.0
C70 C 0.60021 0.70939 0.26909 0.0
H71 H 0.55117 0.68174 0.35081 0.0
Co72 Co 0.59895 0.69695 0.43108 0.0
C73 C 0.64354 0.70095 0.38016 0.0
O74 O 0.65527 0.71522 0.43685 0.0
N75 N 0.60989 0.69333 0.52673 0.0
C76 C 0.61944 0.67858 0.62679 0.0
C77 C 0.61543 0.67727 0.54729 0.0
C78 C 0.61088 0.70429 0.59397 0.0
N79 N 0.61674 0.6957 0.65531 0.0
O80 O 0.61861 0.72991 0.43924 0.0
H81 H 0.61545 0.66473 0.50772 0.0
H82 H 0.60606 0.71737 0.59894 0.0
O83 O 0.62197 0.69306 0.37504 0.0
C84 C 0.60631 0.73889 0.4568 0.0
O85 O 0.58394 0.72542 0.46096 0.0
N86 N 0.57824 0.6654 0.42796 0.0
C87 C 0.54274 0.62 0.43486 0.0
C88 C 0.56101 0.6266 0.38191 0.0
C89 C 0.57859 0.64956 0.37876 0.0
C90 C 0.56076 0.65922 0.47998 0.0
C91 C 0.54286 0.63665 0.48446 0.0
H92 H 0.59213 0.65457 0.33605 0.0
H93 H 0.56065 0.67208 0.51772 0.0
H94 H 0.61871 0.7172 0.26606 0.0
H95 H 0.54969 0.68745 0.19714 0.0
H96 H 0.62328 0.66741 0.6614 0.0
H97 H 0.56137 0.61428 0.34196 0.0
H98 H 0.52924 0.63228 0.52661 0.0
C99 C 0.88589 0.56239 0.49973 0.0
C100 C 0.88191 0.56138 0.42002 0.0
N101 N 0.89107 0.583 0.39289 0.0
N102 N 0.89791 0.58456 0.52187 0.0
C103 C 0.90031 0.59659 0.4559 0.0
H104 H 0.88138 0.54795 0.53809 0.0
Co105 Co 0.91216 0.5975 0.61682 0.0
C106 C 0.96041 0.62934 0.56444 0.0
O107 O 0.96848 0.62342 0.62482 0.0
N108 N 0.9262 0.61134 0.71303 0.0
C109 C 0.94207 0.63928 0.80189 0.0
C110 C 0.93994 0.63417 0.72351 0.0
C111 C 0.91954 0.60316 0.78674 0.0
N112 N 0.92909 0.61977 0.84161 0.0
O113 O 0.89676 0.61541 0.61956 0.0
H114 H 0.94626 0.64681 0.67725 0.0
H115 H 0.90588 0.58608 0.80002 0.0
O116 O 0.93873 0.62095 0.55637 0.0
C117 C 0.8781 0.60227 0.65613 0.0
O118 O 0.87404 0.58156 0.67401 0.0
N119 N 0.92441 0.57748 0.61876 0.0
C120 C 0.92694 0.53726 0.60996 0.0
C121 C 0.9388 0.55502 0.55586 0.0
C122 C 0.93705 0.57495 0.56054 0.0
C123 C 0.91353 0.56054 0.67293 0.0
C124 C 0.91492 0.5406 0.67056 0.0
H125 H 0.94386 0.58705 0.51281 0.0
H126 H 0.90145 0.56111 0.71282 0.0
H127 H 0.90992 0.61511 0.45319 0.0
H128 H 0.87355 0.54603 0.38454 0.0
H129 H 0.95113 0.65627 0.82723 0.0
H130 H 0.94756 0.55266 0.50649 0.0
H131 H 0.90495 0.527 0.71198 0.0
C132 C 0.30586 0.86698 0.64571 0.0
C133 C 0.30735 0.86322 0.56708 0.0
N134 N 0.31851 0.88372 0.53124 0.0
N135 N 0.31611 0.88975 0.65894 0.0
C136 C 0.32378 0.89945 0.58792 0.0
H137 H 0.29839 0.8539 0.69037 0.0
Co138 Co 0.32192 0.90482 0.75499 0.0
C139 C 0.30739 0.93252 0.6622 0.0
O140 O 0.28675 0.9145 0.65747 0.0
N141 N 0.32801 0.9196 0.85079 0.0
C142 C 0.33094 0.94071 0.95466 0.0
C143 C 0.32632 0.93774 0.87538 0.0
C144 C 0.3338 0.91202 0.91505 0.0
N145 N 0.33553 0.92436 0.97964 0.0
O146 O 0.28915 0.89003 0.77744 0.0
H147 H 0.32138 0.94773 0.83893 0.0
H148 H 0.33564 0.89695 0.91456 0.0
O149 O 0.32283 0.93127 0.70216 0.0
C150 C 0.28409 0.87225 0.81872 0.0
O151 O 0.30058 0.86764 0.83341 0.0
N152 N 0.35331 0.91666 0.73965 0.0
C153 C 0.39937 0.9279 0.73576 0.0
C154 C 0.39309 0.94473 0.72246 0.0
C155 C 0.36986 0.93877 0.72532 0.0
C156 C 0.35906 0.9002 0.75254 0.0
C157 C 0.38186 0.9054 0.75111 0.0
H158 H 0.36533 0.95197 0.71788 0.0
H159 H 0.34575 0.88292 0.76613 0.0
H160 H 0.33399 0.91773 0.57814 0.0
H161 H 0.30091 0.84678 0.53853 0.0
H162 H 0.3304 0.95359 0.99104 0.0
H163 H 0.40594 0.96233 0.71044 0.0
H164 H 0.38566 0.8919 0.76435 0.0
C165 C 0.45538 0.31386 0.84263 0.0
C166 C 0.4565 0.31272 0.76191 0.0
N167 N 0.43524 0.30493 0.73285 0.0
N168 N 0.43357 0.30726 0.86345 0.0
C169 C 0.42168 0.30093 0.7957 0.0
H170 H 0.46987 0.32147 0.88228 0.0
Co171 Co 0.42223 0.31216 0.95743 0.0
C172 C 0.39764 0.33499 0.88767 0.0
O173 O 0.40918 0.35273 0.93389 0.0
N174 N 0.40988 0.31594 0.05264 0.0
C175 C 0.38664 0.31739 0.14289 0.0
C176 C 0.39049 0.31699 0.06413 0.0
C177 C 0.41652 0.31419 0.12615 0.0
N178 N 0.40313 0.31574 0.18194 0.0
O179 O 0.40168 0.27941 0.96767 0.0
H180 H 0.37885 0.31622 0.01919 0.0
H181 H 0.43082 0.31154 0.13873 0.0
O182 O 0.39988 0.31721 0.89506 0.0
C183 C 0.41416 0.27313 0.0051 0.0
O184 O 0.43576 0.28864 0.01738 0.0
N185 N 0.44517 0.34407 0.95292 0.0
C186 C 0.48569 0.38709 0.95248 0.0
C187 C 0.47181 0.37895 0.88516 0.0
C188 C 0.45166 0.35735 0.88648 0.0
C189 C 0.45865 0.35196 0.01803 0.0
C190 C 0.47816 0.3735 0.02012 0.0
H191 H 0.44195 0.35085 0.83288 0.0
H192 H 0.45545 0.34113 0.06788 0.0
H193 H 0.40367 0.29571 0.79098 0.0
H194 H 0.47202 0.31961 0.72714 0.0
H195 H 0.37229 0.31799 0.16928 0.0
H196 H 0.47698 0.38857 0.8309 0.0
H197 H 0.48781 0.3789 0.07429 0.0
C198 C 0.56775 0.87435 0.87158 0.0
C199 C 0.5689 0.87051 0.95045 0.0
N200 N 0.59119 0.87971 0.97127 0.0
N201 N 0.58921 0.88614 0.84272 0.0
C202 C 0.60295 0.88832 0.90371 0.0
H203 H 0.55239 0.87038 0.83899 0.0
Co204 Co 0.59921 0.90132 0.74656 0.0
C205 C 0.64254 0.94577 0.80755 0.0
O206 O 0.65662 0.95165 0.74762 0.0
N207 N 0.60927 0.91637 0.65021 0.0
C208 C 0.62296 0.942 0.55368 0.0
C209 C 0.61829 0.93882 0.63282 0.0
C210 C 0.6078 0.90619 0.58051 0.0
N211 N 0.61622 0.9214 0.52123 0.0
O212 O 0.61869 0.88789 0.732 0.0
H213 H 0.62093 0.95199 0.67456 0.0
H214 H 0.60064 0.88795 0.57287 0.0
O215 O 0.62268 0.92789 0.80401 0.0
C216 C 0.60564 0.8679 0.70387 0.0
O217 O 0.58354 0.86074 0.69929 0.0
N218 N 0.57867 0.9125 0.75584 0.0
C219 C 0.54438 0.92462 0.75767 0.0
C220 C 0.56125 0.93229 0.81675 0.0
C221 C 0.57829 0.92603 0.81478 0.0
C222 C 0.56236 0.90471 0.69869 0.0
C223 C 0.54536 0.91083 0.69772 0.0
H224 H 0.59073 0.93154 0.86169 0.0
H225 H 0.56254 0.89358 0.65331 0.0
H226 H 0.62143 0.89755 0.89898 0.0
H227 H 0.5544 0.86315 0.99002 0.0
H228 H 0.6302 0.95808 0.5221 0.0
H229 H 0.56099 0.94254 0.86521 0.0
H230 H 0.53311 0.90474 0.65 0.0
C231 C 0.69727 0.56361 0.01199 0.0
C232 C 0.70133 0.56259 0.09084 0.0
N233 N 0.71229 0.58414 0.1193 0.0
N234 N 0.70525 0.58567 0.99151 0.0
C235 C 0.71473 0.59771 0.05757 0.0
H236 H 0.68813 0.54916 0.973 0.0
Co237 Co 0.70186 0.59752 0.89626 0.0
C238 C 0.68473 0.62806 0.95883 0.0
O239 O 0.66747 0.61907 0.9092 0.0
N240 N 0.69972 0.60978 0.79953 0.0
C241 C 0.70665 0.63511 0.70436 0.0
C242 C 0.70328 0.631 0.78342 0.0
C243 C 0.70174 0.60171 0.729 0.0
N244 N 0.70577 0.61669 0.67027 0.0
O245 O 0.73494 0.6156 0.88643 0.0
H246 H 0.70578 0.64384 0.82611 0.0
H247 H 0.7025 0.58611 0.72188 0.0
O248 O 0.70005 0.62198 0.95598 0.0
C249 C 0.74221 0.60249 0.86095 0.0
O250 O 0.72718 0.58067 0.85089 0.0
N251 N 0.66936 0.57762 0.9025 0.0
C252 C 0.62565 0.53927 0.92154 0.0
C253 C 0.63585 0.55525 0.98214 0.0
C254 C 0.65766 0.57436 0.97142 0.0
C255 C 0.65911 0.56261 0.842 0.0
C256 C 0.63712 0.54357 0.84981 0.0
H257 H 0.6659 0.58536 0.02117 0.0
H258 H 0.66854 0.56401 0.78942 0.0
H259 H 0.72231 0.6161 0.06126 0.0
H260 H 0.69611 0.54718 0.12483 0.0
H261 H 0.71094 0.65101 0.67496 0.0
H262 H 0.62769 0.55219 0.03907 0.0
H263 H 0.63007 0.53122 0.80253 0.0
C264 C 0.13997 0.68841 0.17399 0.0
C265 C 0.14156 0.68794 0.25469 0.0
N266 N 0.13067 0.69834 0.28546 0.0
N267 N 0.1278 0.69874 0.15487 0.0
C268 C 0.12331 0.70539 0.22381 0.0
H269 H 0.14517 0.67966 0.13271 0.0
Co270 Co 0.11335 0.69772 0.06026 0.0
C271 C 0.06502 0.68217 0.11799 0.0
O272 O 0.05601 0.66675 0.06208 0.0
N273 N 0.09924 0.69751 0.96479 0.0
C274 C 0.07942 0.70416 0.87386 0.0
C275 C 0.08385 0.70461 0.95257 0.0
C276 C 0.105 0.69438 0.89172 0.0
N277 N 0.09279 0.69772 0.8358 0.0
O278 O 0.12884 0.73084 0.05715 0.0
H279 H 0.07704 0.71093 0.99726 0.0
H280 H 0.11855 0.69071 0.87877 0.0
O281 O 0.08686 0.69554 0.12039 0.0
C282 C 0.1491 0.73805 0.03073 0.0
O283 O 0.15559 0.7229 0.01678 0.0
N284 N 0.10035 0.66532 0.05959 0.0
C285 C 0.08843 0.61912 0.05481 0.0
C286 C 0.08101 0.6275 0.11679 0.0
C287 C 0.08735 0.65078 0.11852 0.0
C288 C 0.10905 0.65755 0.0028 0.0
C289 C 0.10273 0.63449 0.99772 0.0
H290 H 0.08266 0.6572 0.16907 0.0
H291 H 0.12212 0.66946 0.96381 0.0
H292 H 0.11289 0.7134 0.22962 0.0
H293 H 0.14792 0.67853 0.28789 0.0
H294 H 0.06808 0.70923 0.84647 0.0
H295 H 0.07067 0.61625 0.16375 0.0
H296 H 0.10985 0.6289 0.95138 0.0
C297 C 0.4533 0.13695 0.37372 0.0
C298 C 0.45532 0.14299 0.45154 0.0
N299 N 0.43516 0.129 0.48665 0.0
N300 N 0.43192 0.1194 0.3603 0.0
C301 C 0.42129 0.11493 0.43033 0.0
H302 H 0.46653 0.1449 0.32956 0.0
Co303 Co 0.42042 0.10591 0.26423 0.0
C304 C 0.37446 0.0694 0.31956 0.0
O305 O 0.36435 0.07831 0.27812 0.0
N306 N 0.40944 0.0931 0.16754 0.0
C307 C 0.39233 0.07215 0.06241 0.0
C308 C 0.39549 0.07155 0.14213 0.0
C309 C 0.41484 0.10628 0.10323 0.0
N310 N 0.40448 0.09415 0.03825 0.0
O311 O 0.40184 0.12072 0.25862 0.0
H312 H 0.38805 0.05642 0.17877 0.0
H313 H 0.4266 0.12452 0.10454 0.0
O314 O 0.39628 0.07861 0.3173 0.0
C315 C 0.41408 0.14183 0.23963 0.0
O316 O 0.43637 0.15047 0.23307 0.0
N317 N 0.44024 0.09388 0.26454 0.0
C318 C 0.47577 0.0837 0.25959 0.0
C319 C 0.45581 0.07005 0.30347 0.0
C320 C 0.43823 0.07556 0.30581 0.0
C321 C 0.45925 0.10696 0.22044 0.0
C322 C 0.47722 0.10224 0.21723 0.0
H323 H 0.4234 0.0654 0.34198 0.0
H324 H 0.46065 0.12154 0.18878 0.0
H325 H 0.40362 0.10187 0.44011 0.0
H326 H 0.47047 0.15627 0.48042 0.0
H327 H 0.38178 0.05753 0.02563 0.0
H328 H 0.45411 0.0557 0.33753 0.0
H329 H 0.49218 0.11307 0.18196 0.0
C330 C 0.31236 0.44488 0.52769 0.0
C331 C 0.30726 0.44448 0.60595 0.0
N332 N 0.30167 0.42369 0.63461 0.0
N333 N 0.31034 0.42457 0.50774 0.0
C334 C 0.30345 0.41189 0.5739 0.0
H335 H 0.31845 0.45947 0.48886 0.0
Co336 Co 0.31941 0.41845 0.41239 0.0
C337 C 0.3362 0.3856 0.45632 0.0
O338 O 0.35242 0.39446 0.40334 0.0
N339 N 0.32873 0.41272 0.31255 0.0
C340 C 0.34974 0.41717 0.20548 0.0
C341 C 0.35035 0.42097 0.28452 0.0
C342 C 0.31536 0.40352 0.24816 0.0
N343 N 0.32771 0.40631 0.18279 0.0
O344 O 0.28728 0.39862 0.38501 0.0
H345 H 0.36599 0.43027 0.31799 0.0
H346 H 0.29701 0.39647 0.2468 0.0
O347 O 0.32193 0.39293 0.46281 0.0
C348 C 0.28086 0.41195 0.35474 0.0
O349 O 0.29601 0.43394 0.35145 0.0
N350 N 0.34989 0.44029 0.43737 0.0
C351 C 0.39461 0.47647 0.45756 0.0
C352 C 0.38594 0.45692 0.50553 0.0
C353 C 0.36321 0.43922 0.49588 0.0
C354 C 0.3575 0.45986 0.39449 0.0
C355 C 0.37987 0.478 0.4028 0.0
H356 H 0.35633 0.42494 0.53591 0.0
H357 H 0.34629 0.46099 0.35139 0.0
H358 H 0.30136 0.39493 0.57938 0.0
H359 H 0.30866 0.45868 0.64007 0.0
H360 H 0.3644 0.42316 0.16678 0.0
H361 H 0.39649 0.45549 0.5507 0.0
H362 H 0.38572 0.49282 0.36505 0.0
C363 C 0.88151 0.31824 0.66628 0.0
C364 C 0.87662 0.31347 0.74486 0.0
N365 N 0.88842 0.30347 0.77173 0.0
N366 N 0.8965 0.31151 0.64408 0.0
C367 C 0.89998 0.30226 0.70901 0.0
H368 H 0.87505 0.32665 0.62832 0.0
Co369 Co 0.91069 0.31518 0.54688 0.0
C370 C 0.94903 0.31117 0.62665 0.0
O371 O 0.93893 0.28877 0.62073 0.0
N372 N 0.92464 0.31858 0.45015 0.0
C373 C 0.94871 0.32364 0.35284 0.0
C374 C 0.94692 0.32648 0.43193 0.0
C375 C 0.91333 0.31147 0.38148 0.0
N376 N 0.92755 0.3143 0.3217 0.0
O377 O 0.89897 0.28243 0.54052 0.0
H378 H 0.961 0.33353 0.47315 0.0
H379 H 0.89489 0.30372 0.37573 0.0
O380 O 0.93922 0.32186 0.59979 0.0
C381 C 0.87795 0.27365 0.51973 0.0
O382 O 0.86932 0.28733 0.51269 0.0
N383 N 0.91957 0.34635 0.54764 0.0
C384 C 0.92155 0.38878 0.55079 0.0
C385 C 0.93435 0.3838 0.60448 0.0
C386 C 0.93301 0.36228 0.60229 0.0
C387 C 0.90795 0.3514 0.49309 0.0
C388 C 0.90889 0.37252 0.49307 0.0
H389 H 0.94157 0.35798 0.64728 0.0
H390 H 0.89679 0.33842 0.45186 0.0
H391 H 0.91145 0.29544 0.71095 0.0
H392 H 0.86562 0.31752 0.7795 0.0
H393 H 0.96426 0.32804 0.32065 0.0
H394 H 0.94409 0.3958 0.65058 0.0
H395 H 0.89886 0.37568 0.45029 0.0
H396 H 0.09803 0.59474 0.16252 0.0
H397 H 0.06711 0.58947 0.93497 0.0
H398 H 0.06175 0.55059 0.91824 0.0
H399 H 0.13015 0.56919 0.10649 0.0
H400 H 0.12701 0.5542 0.19731 0.0
H401 H 0.12553 0.58019 0.19687 0.0
H402 H 0.08556 0.55899 0.26319 0.0
H403 H 0.08699 0.53293 0.26448 0.0
H404 H 0.06295 0.5333 0.21895 0.0
H405 H 0.06279 0.51399 0.92097 0.0
H406 H 0.07059 0.48226 0.94161 0.0
H407 H 0.10146 0.5111 0.16709 0.0
C408 C 0.08952 0.58504 0.11037 0.0
C409 C 0.08259 0.59482 0.05048 0.0
C410 C 0.07225 0.58207 0.98172 0.0
C411 C 0.06914 0.56002 0.97181 0.0
C412 C 0.0766 0.551 0.03107 0.0
C413 C 0.08655 0.56306 0.09912 0.0
C414 C 0.09481 0.55019 0.15057 0.0
C415 C 0.12092 0.56428 0.16353 0.0
C416 C 0.08179 0.54345 0.22894 0.0
C417 C 0.08837 0.52928 0.1001 0.0
C418 C 0.07764 0.52999 0.03191 0.0
C419 C 0.07088 0.51308 0.97467 0.0
C420 C 0.0753 0.49503 0.98716 0.0
C421 C 0.0865 0.49399 0.05624 0.0
C422 C 0.09294 0.51136 0.11355 0.0
H423 H 0.52141 0.1149 0.27711 0.0
H424 H 0.47436 0.04245 0.24045 0.0
H425 H 0.50733 0.0356 0.23303 0.0
H426 H 0.56533 0.1203 0.14647 0.0
H427 H 0.58857 0.14013 0.20808 0.0
H428 H 0.56126 0.13906 0.21166 0.0
H429 H 0.55902 0.13179 0.36145 0.0
H430 H 0.58637 0.13291 0.35838 0.0
H431 H 0.56168 0.10813 0.39868 0.0
H432 H 0.54608 0.0373 0.22352 0.0
H433 H 0.58682 0.04689 0.22258 0.0
H434 H 0.60792 0.11809 0.26836 0.0
C435 C 0.51803 0.09758 0.26734 0.0
C436 C 0.49533 0.0792 0.25886 0.0
C437 C 0.49161 0.05675 0.24749 0.0
C438 C 0.51023 0.05274 0.2428 0.0
C439 C 0.53244 0.07133 0.25042 0.0
C440 C 0.53635 0.09328 0.26325 0.0
C441 C 0.56175 0.11032 0.27036 0.0
C442 C 0.56968 0.12852 0.20525 0.0
C443 C 0.56754 0.12144 0.35208 0.0
C444 C 0.57161 0.09461 0.25896 0.0
C445 C 0.55449 0.0722 0.24704 0.0
C446 C 0.55959 0.05477 0.2333 0.0
C447 C 0.58275 0.06038 0.23246 0.0
C448 C 0.6005 0.08318 0.24599 0.0
C449 C 0.59472 0.10044 0.25907 0.0
H450 H 0.41101 0.5228 0.45884 0.0
H451 H 0.43312 0.47226 0.46665 0.0
H452 H 0.4737 0.50338 0.46238 0.0
H453 H 0.45289 0.56067 0.32451 0.0
H454 H 0.45678 0.58637 0.37139 0.0
H455 H 0.42967 0.5602 0.37904 0.0
H456 H 0.43208 0.56294 0.53064 0.0
H457 H 0.45913 0.58923 0.52346 0.0
H458 H 0.45708 0.56559 0.57965 0.0
H459 H 0.512 0.54039 0.44804 0.0
H460 H 0.54461 0.58011 0.43682 0.0
H461 H 0.49689 0.60588 0.43987 0.0
C462 C 0.42439 0.51828 0.46007 0.0
C463 C 0.41893 0.49511 0.46289 0.0
C464 C 0.43693 0.48991 0.46525 0.0
C465 C 0.46001 0.50746 0.46231 0.0
C466 C 0.46477 0.53012 0.45779 0.0
C467 C 0.44743 0.53554 0.45773 0.0
C468 C 0.45698 0.56115 0.45222 0.0
C469 C 0.44858 0.56746 0.37733 0.0
C470 C 0.45096 0.57026 0.52589 0.0
C471 C 0.48241 0.56935 0.44825 0.0
C472 C 0.48663 0.55124 0.45118 0.0
C473 C 0.50888 0.5547 0.44633 0.0
C474 C 0.52728 0.57727 0.43942 0.0
C475 C 0.52329 0.59606 0.43802 0.0
C476 C 0.50051 0.59189 0.442 0.0
H477 H 0.95521 0.43437 0.57163 0.0
H478 H 0.88155 0.38939 0.55069 0.0
H479 H 0.87571 0.42259 0.55979 0.0
H480 H 0.95254 0.47377 0.71134 0.0
H481 H 0.97629 0.499 0.66908 0.0
H482 H 0.97506 0.4717 0.66112 0.0
H483 H 0.97837 0.47616 0.51016 0.0
H484 H 0.97947 0.50341 0.51763 0.0
H485 H 0.95801 0.48108 0.45703 0.0
H486 H 0.87716 0.45959 0.5711 0.0
H487 H 0.88587 0.49948 0.58756 0.0
H488 H 0.95862 0.52216 0.60024 0.0
C489 C 0.9379 0.43161 0.56935 0.0
C490 C 0.91884 0.40929 0.55947 0.0
C491 C 0.89643 0.40633 0.55672 0.0
C492 C 0.89291 0.42507 0.56215 0.0
C493 C 0.91196 0.4468 0.57038 0.0
C494 C 0.93403 0.45031 0.57422 0.0
C495 C 0.95134 0.4757 0.58326 0.0
C496 C 0.96459 0.48031 0.66083 0.0
C497 C 0.96777 0.48461 0.51281 0.0
C498 C 0.93545 0.48575 0.58426 0.0
C499 C 0.91282 0.46862 0.57669 0.0
C500 C 0.89478 0.47319 0.57712 0.0
C501 C 0.89989 0.49587 0.58662 0.0
C502 C 0.92285 0.51379 0.59549 0.0
C503 C 0.94094 0.50874 0.5932 0.0
H504 H 0.41709 0.90101 0.68558 0.0
H505 H 0.43732 0.96723 0.79012 0.0
H506 H 0.4771 0.97458 0.8025 0.0
H507 H 0.44955 0.88699 0.81427 0.0
H508 H 0.45656 0.87223 0.74073 0.0
H509 H 0.43043 0.87338 0.73277 0.0
H510 H 0.44239 0.89117 0.59402 0.0
H511 H 0.46856 0.89003 0.60148 0.0
H512 H 0.46973 0.91685 0.58061 0.0
H513 H 0.51471 0.97361 0.809 0.0
H514 H 0.54618 0.96459 0.80792 0.0
H515 H 0.4995 0.89754 0.71044 0.0
C516 C 0.42978 0.9171 0.71122 0.0
C517 C 0.42388 0.9335 0.73695 0.0
C518 C 0.44133 0.95448 0.76875 0.0
C519 C 0.46399 0.95875 0.77661 0.0
C520 C 0.46896 0.94186 0.75263 0.0
C521 C 0.45228 0.92147 0.72052 0.0
C522 C 0.46155 0.90555 0.70288 0.0
C523 C 0.44876 0.88323 0.75052 0.0
C524 C 0.4605 0.90062 0.6145 0.0
C525 C 0.48606 0.92007 0.73055 0.0
C526 C 0.49015 0.94104 0.75849 0.0
C527 C 0.51165 0.95721 0.78729 0.0
C528 C 0.52939 0.95183 0.78708 0.0
C529 C 0.52553 0.93035 0.75887 0.0
C530 C 0.5034 0.91432 0.73087 0.0
H531 H 0.58256 0.51759 0.85241 0.0
H532 H 0.62478 0.50889 0.02612 0.0
H533 H 0.59409 0.469 0.04823 0.0
H534 H 0.52844 0.48397 0.95944 0.0
H535 H 0.51158 0.47182 0.87209 0.0
H536 H 0.53696 0.49971 0.86853 0.0
H537 H 0.55307 0.48585 0.75642 0.0
H538 H 0.52784 0.45784 0.76024 0.0
H539 H 0.55591 0.46083 0.77108 0.0
H540 H 0.56101 0.42986 0.04405 0.0
H541 H 0.52432 0.39436 0.03106 0.0
H542 H 0.50015 0.42824 0.87133 0.0
C543 C 0.58511 0.50725 0.89553 0.0
C544 C 0.60593 0.51622 0.93801 0.0
C545 C 0.60884 0.50233 0.99382 0.0
C546 C 0.59159 0.47964 0.00629 0.0
C547 C 0.57136 0.47118 0.96328 0.0
C548 C 0.56772 0.48457 0.9102 0.0
C549 C 0.54385 0.47116 0.87439 0.0
C550 C 0.52935 0.48233 0.89486 0.0
C551 C 0.54526 0.46879 0.78523 0.0
C552 C 0.53482 0.44816 0.91531 0.0
C553 C 0.55125 0.44863 0.9652 0.0
C554 C 0.54773 0.42943 0.00693 0.0
C555 C 0.52659 0.40932 -0.00039 0.0
C556 C 0.5087 0.4085 0.95265 0.0
C557 C 0.51319 0.4282 0.90854 0.0
H558 H 0.04047 0.33429 0.96897 0.0
H559 H 0.07572 0.40541 0.89333 0.0
H560 H 0.04802 0.39571 0.78625 0.0
H561 H 0.02566 0.30909 0.77367 0.0
H562 H 0.99776 0.28619 0.80235 0.0
H563 H 0.02082 0.29833 0.87274 0.0
H564 H 0.99571 0.30711 0.96594 0.0
H565 H 0.97257 0.29496 0.89593 0.0
H566 H 0.98335 0.32384 0.93048 0.0
H567 H 0.01573 0.37917 0.69066 0.0
H568 H 0.98079 0.35642 0.61168 0.0
H569 H 0.96604 0.29558 0.74466 0.0
C570 C 0.04241 0.34779 0.92968 0.0
C571 C 0.06041 0.37067 0.94024 0.0
C572 C 0.06216 0.38778 0.88739 0.0
C573 C 0.04648 0.38245 0.82591 0.0
C574 C 0.02893 0.35987 0.81746 0.0
C575 C 0.02673 0.34276 0.86771 0.0
C576 C 1.00584 0.31997 0.84609 0.0
C577 C 0.01295 0.30235 0.82229 0.0
C578 C 0.98833 0.31094 0.91362 0.0
C579 C 0.99669 0.32704 0.77622 0.0
C580 C 1.01033 0.35017 0.76097 0.0
C581 C 1.005 0.361 0.70163 0.0
C582 C 0.98509 0.34793 0.6571 0.0
C583 C 0.97077 0.32418 0.67137 0.0
C584 C 0.97685 0.3136 0.73138 0.0
H585 H 0.67445 0.99209 0.82456 0.0
H586 H 0.62371 0.93275 0.95265 0.0
H587 H 0.6336 0.95537 0.0735 0.0
H588 H 0.71686 0.02132 0.98094 0.0
H589 H 0.72132 0.04933 0.95651 0.0
H590 H 0.7133 0.02789 0.8812 0.0
H591 H 0.67949 0.03357 0.84534 0.0
H592 H 0.68521 0.05349 0.92465 0.0
H593 H 0.65762 0.02804 0.91718 0.0
H594 H 0.64751 0.98409 0.17936 0.0
H595 H 0.66005 0.01835 0.26054 0.0
H596 H 0.69905 0.06146 0.06472 0.0
C597 C 0.6659 0.98376 0.87856 0.0
C598 C 0.64907 0.96015 0.87969 0.0
C599 C 0.63738 0.95033 0.9507 0.0
C600 C 0.64283 0.96315 0.01988 0.0
C601 C 0.65958 0.98619 0.01715 0.0
C602 C 0.67059 0.99663 0.94817 0.0
C603 C 0.68524 0.02241 0.95972 0.0
C604 C 0.7107 0.03072 0.94363 0.0
C605 C 0.67636 0.0351 0.90843 0.0
C606 C 0.68106 0.0247 0.04602 0.0
C607 C 0.66638 1.00343 0.07778 0.0
C608 C 0.65902 1.00085 0.15515 0.0
C609 C 0.66626 0.02053 0.20082 0.0
C610 C 0.68054 0.04273 0.16924 0.0
C611 C 0.68842 0.04478 0.09099 0.0
H612 H 0.62782 0.68195 0.23508 0.0
H613 H 0.68523 0.70289 0.39438 0.0
H614 H 0.70336 0.68866 0.30045 0.0
H615 H 0.62372 0.63073 0.16766 0.0
H616 H 0.61739 0.63419 0.0675 0.0
H617 H 0.60971 0.64702 0.14567 0.0
H618 H 0.63238 0.68622 0.07761 0.0
H619 H 0.64145 0.67427 9e-05 0.0
H620 H 0.6625 0.6979 0.05711 0.0
H621 H 0.71402 0.66977 0.19155 0.0
H622 H 0.7165 0.64857 0.07723 0.0
H623 H 0.65248 0.64091 0.98831 0.0
C624 C 0.64426 0.68364 0.25019 0.0
C625 C 0.65506 0.69345 0.32244 0.0
C626 C 0.67666 0.69551 0.33941 0.0
C627 C 0.68708 0.68746 0.28638 0.0
C628 C 0.67588 0.67771 0.21596 0.0
C629 C 0.65504 0.676 0.19751 0.0
C630 C 0.64649 0.66479 0.11819 0.0
C631 C 0.62294 0.64288 0.12524 0.0
C632 C 0.64564 0.68181 0.05984 0.0
C633 C 0.66522 0.65943 0.09646 0.0
C634 C 0.68219 0.66728 0.15303 0.0
C635 C 0.7009 0.66372 0.14666 0.0
C636 C 0.70215 0.65159 0.08142 0.0
C637 C 0.68471 0.64298 0.02343 0.0
C638 C 0.66621 0.64733 0.03105 0.0
H639 H 0.95713 0.62088 0.40647 0.0
H640 H 1.00073 0.66898 0.58375 0.0
H641 H 0.03014 0.69082 0.48299 0.0
H642 H 1.0018 0.61763 0.31394 0.0
H643 H 0.99068 0.61451 0.21576 0.0
H644 H 0.97134 0.60513 0.29791 0.0
H645 H 0.95505 0.63086 0.25261 0.0
H646 H 0.97434 0.64038 0.17004 0.0
H647 H 0.97427 0.66104 0.23707 0.0
H648 H 0.05553 0.70634 0.36498 0.0
H649 H 0.07743 0.71153 0.24354 0.0
H650 H 0.01933 0.65089 0.14511 0.0
C651 C 0.97256 0.63646 0.42324 0.0
C652 C 0.97649 0.64372 0.50232 0.0
C653 C 0.9973 0.6635 0.52315 0.0
C654 C 0.01403 0.67601 0.46628 0.0
C655 C 1.00986 0.66829 0.3889 0.0
C656 C 0.98976 0.6488 0.36738 0.0
C657 C 0.99093 0.64244 0.28268 0.0
C658 C 0.98856 0.61852 0.27732 0.0
C659 C 0.97256 0.64377 0.23266 0.0
C660 C 0.01497 0.66119 0.26053 0.0
C661 C 0.02531 0.67622 0.32208 0.0
C662 C 0.04763 0.69464 0.31645 0.0
C663 C 0.06002 0.69738 0.24717 0.0
C664 C 0.05041 0.6814 0.18503 0.0
C665 C 0.02729 0.66344 0.19137 0.0
H666 H 0.3895 0.04754 0.42166 0.0
H667 H 0.3276 0.04388 0.32824 0.0
H668 H 0.30409 0.0093 0.40761 0.0
H669 H 0.36809 0.9867 0.42305 0.0
H670 H 0.38218 0.98684 0.51311 0.0
H671 H 0.39455 0.01179 0.45081 0.0
H672 H 0.39443 0.03719 0.5656 0.0
H673 H 0.38315 0.0123 0.62805 0.0
H674 H 0.36815 0.02813 0.61934 0.0
H675 H 0.28707 0.97485 0.49598 0.0
H676 H 0.27777 0.94272 0.58614 0.0
H677 H 0.3505 0.96821 0.62262 0.0
C678 C 0.37101 0.03945 0.41752 0.0
C679 C 0.36047 0.04852 0.36808 0.0
C680 C 0.33617 0.03739 0.36537 0.0
C681 C 0.32262 0.01769 0.41034 0.0
C682 C 0.33354 0.0092 0.4581 0.0
C683 C 0.35718 0.01969 0.46205 0.0
C684 C 0.36453 0.00681 0.51751 0.0
C685 C 0.37813 0.99748 0.47349 0.0
C686 C 0.3784 0.02204 0.5867 0.0
C687 C 0.34132 0.98755 0.54436 0.0
C688 C 0.3237 0.98927 0.50925 0.0
C689 C 0.30074 0.97338 0.52399 0.0
C690 C 0.29563 0.95517 0.57552 0.0
C691 C 0.31334 0.95293 0.61231 0.0
C692 C 0.33651 0.96952 0.59654 0.0
H693 H 0.40924 0.37254 0.79866 0.0
H694 H 0.35571 0.30195 0.82914 0.0
H695 H 0.33278 0.307 0.72434 0.0
H696 H 0.37381 0.39696 0.75921 0.0
H697 H 0.39268 0.41648 0.68566 0.0
H698 H 0.40423 0.40726 0.76384 0.0
H699 H 0.42273 0.39233 0.6626 0.0
H700 H 0.41177 0.4024 0.58509 0.0
H701 H 0.40501 0.37293 0.58673 0.0
H702 H 0.31467 0.32174 0.61976 0.0
H703 H 0.30637 0.34238 0.51466 0.0
H704 H 0.37412 0.40125 0.54642 0.0
C705 C 0.39263 0.35814 0.78348 0.0
C706 C 0.38401 0.33696 0.82279 0.0
C707 C 0.36251 0.31836 0.79995 0.0
C708 C 0.34938 0.32114 0.74077 0.0
C709 C 0.35828 0.34246 0.70385 0.0
C710 C 0.3797 0.36045 0.72347 0.0
C711 C 0.38614 0.38132 0.67316 0.0
C712 C 0.3894 0.4017 0.72349 0.0
C713 C 0.40769 0.3876 0.62401 0.0
C714 C 0.36499 0.37245 0.62219 0.0
C715 C 0.3488 0.35018 0.64136 0.0
C716 C 0.32742 0.33906 0.60382 0.0
C717 C 0.32276 0.35088 0.54455 0.0
C718 C 0.33962 0.37331 0.52246 0.0
C719 C 0.3609 0.38408 0.56202 0.0
H720 H 0.19884 0.43457 0.0854 0.0
H721 H 0.14022 0.37476 0.18361 0.0
H722 H 0.16657 0.36402 0.24979 0.0
H723 H 0.23668 0.40886 0.05971 0.0
H724 H 0.26173 0.43556 0.0858 0.0
H725 H 0.23801 0.43567 0.03676 0.0
H726 H 0.23565 0.46041 0.14894 0.0
H727 H 0.25908 0.46014 0.19872 0.0
H728 H 0.23209 0.45018 0.24852 0.0
H729 H 0.20111 0.36342 0.32029 0.0
H730 H 0.23846 0.37282 0.38209 0.0
H731 H 0.27277 0.4332 0.23516 0.0
C732 C 0.19148 0.41876 0.11866 0.0
C733 C 0.1675 0.40533 0.12853 0.0
C734 C 0.15854 0.38501 0.17378 0.0
C735 C 0.17343 0.37891 0.21201 0.0
C736 C 0.19719 0.39314 0.20339 0.0
C737 C 0.206 0.41247 0.15644 0.0
C738 C 0.2319 0.42619 0.16089 0.0
C739 C 0.24271 0.42658 0.08105 0.0
C740 C 0.24014 0.45066 0.19109 0.0
C741 C 0.23643 0.41219 0.21998 0.0
C742 C 0.21642 0.39296 0.24348 0.0
C743 C 0.21683 0.37831 0.3012 0.0
C744 C 0.2381 0.38371 0.33601 0.0
C745 C 0.25853 0.4038 0.31383 0.0
C746 C 0.25749 0.41777 0.25396 0.0
H747 H 0.75548 0.17542 0.40908 0.0
H748 H 0.78534 0.148 0.24689 0.0
H749 H 0.82411 0.17479 0.30157 0.0
H750 H 0.79704 0.23219 0.39397 0.0
H751 H 0.7955 0.23868 0.49552 0.0
H752 H 0.77085 0.21572 0.4486 0.0
H753 H 0.76915 0.18786 0.55607 0.0
H754 H 0.79413 0.21053 0.60324 0.0
H755 H 0.7938 0.18459 0.57435 0.0
H756 H 0.86058 0.20903 0.3678 0.0
H757 H 0.88877 0.24555 0.43239 0.0
H758 H 0.83299 0.24787 0.55071 0.0
C759 C 0.77006 0.17471 0.3853 0.0
C760 C 0.76736 0.15968 0.32326 0.0
C761 C 0.78698 0.15934 0.29455 0.0
C762 C 0.80904 0.1745 0.32543 0.0
C763 C 0.81104 0.18949 0.38595 0.0
C764 C 0.79184 0.18936 0.41571 0.0
C765 C 0.79799 0.2077 0.47697 0.0
C766 C 0.78988 0.22456 0.45223 0.0
C767 C 0.7882 0.19703 0.55746 0.0
C768 C 0.82383 0.21892 0.47591 0.0
C769 C 0.8313 0.20821 0.42399 0.0
C770 C 0.85477 0.21714 0.40959 0.0
C771 C 0.87073 0.23779 0.44704 0.0
C772 C 0.86305 0.24929 0.49754 0.0
C773 C 0.83939 0.23922 0.51354 0.0
H774 H 0.58579 0.83908 0.58263 0.0
H775 H 0.6447 0.86481 0.73702 0.0
H776 H 0.65521 0.83749 0.67692 0.0
H777 H 0.5693 0.78204 0.59465 0.0
H778 H 0.56014 0.77566 0.49398 0.0
H779 H 0.55971 0.79909 0.54267 0.0
H780 H 0.58541 0.8268 0.43351 0.0
H781 H 0.58596 0.80339 0.38428 0.0
H782 H 0.61247 0.82868 0.41045 0.0
H783 H 0.65576 0.80297 0.60734 0.0
H784 H 0.64599 0.76627 0.54102 0.0
H785 H 0.58707 0.76525 0.43369 0.0
C786 C 0.60113 0.83927 0.60344 0.0
C787 C 0.61435 0.85396 0.66494 0.0
C788 C 0.63437 0.85375 0.68973 0.0
C789 C 0.64042 0.83828 0.65582 0.0
C790 C 0.62651 0.82354 0.59626 0.0
C791 C 0.6074 0.82427 0.57004 0.0
C792 C 0.59418 0.80602 0.50942 0.0
C793 C 0.56939 0.78975 0.53687 0.0
C794 C 0.59454 0.81687 0.42968 0.0
C795 C 0.60818 0.79409 0.50726 0.0
C796 C 0.62701 0.80448 0.55658 0.0
C797 C 0.6413 0.79507 0.56761 0.0
C798 C 0.63576 0.77431 0.52928 0.0
C799 C 0.61594 0.76311 0.48146 0.0
C800 C 0.60252 0.7736 0.469 0.0
H801 H 0.76431 0.57849 0.87367 0.0
H802 H 0.77428 0.64402 0.79502 0.0
H803 H 0.81201 0.65312 0.73749 0.0
H804 H 0.82483 0.59766 0.92016 0.0
H805 H 0.82193 0.5709 0.88713 0.0
H806 H 0.79759 0.57157 0.9285 0.0
H807 H 0.77412 0.55221 0.80291 0.0
H808 H 0.79843 0.5518 0.7607 0.0
H809 H 0.78505 0.56544 0.70892 0.0
H810 H 0.84791 0.6524 0.67636 0.0
H811 H 0.87709 0.64276 0.62742 0.0
H812 H 0.84124 0.57761 0.74916 0.0
C813 C 0.77464 0.59502 0.84593 0.0
C814 C 0.76647 0.61062 0.83925 0.0
C815 C 0.78043 0.63198 0.80196 0.0
C816 C 0.80179 0.63717 0.76864 0.0
C817 C 0.80899 0.62092 0.77412 0.0
C818 C 0.7958 0.60042 0.81322 0.0
C819 C 0.80627 0.58514 0.80894 0.0
C820 C 0.81306 0.58109 0.89105 0.0
C821 C 0.79 0.56231 0.76791 0.0
C822 C 0.82718 0.59981 0.75951 0.0
C823 C 0.82882 0.6205 0.73995 0.0
C824 C 0.84675 0.63628 0.69223 0.0
C825 C 0.86323 0.63067 0.66443 0.0
C826 C 0.86152 0.60939 0.68394 0.0
C827 C 0.84322 0.59403 0.73248 0.0
H828 H 0.27262 0.83645 0.91644 0.0
H829 H 0.24271 0.87189 0.79443 0.0
H830 H 0.20429 0.84344 0.8472 0.0
H831 H 0.2288 0.78094 0.87786 0.0
H832 H 0.23127 0.76977 0.97117 0.0
H833 H 0.25586 0.79409 0.92914 0.0
H834 H 0.26057 0.81747 0.0555 0.0
H835 H 0.23583 0.79321 0.09779 0.0
H836 H 0.23682 0.82041 0.09026 0.0
H837 H 0.16809 0.80817 0.91079 0.0
H838 H 0.13962 0.77049 0.96796 0.0
H839 H 0.19519 0.75988 0.04342 0.0
C840 C 0.25813 0.83855 0.9009 0.0
C841 C 0.26078 0.85651 0.85105 0.0
C842 C 0.24117 0.85835 0.83266 0.0
C843 C 0.2193 0.84226 0.86259 0.0
C844 C 0.2174 0.82457 0.91116 0.0
C845 C 0.23649 0.82283 0.92985 0.0
C846 C 0.23036 0.80186 0.97894 0.0
C847 C 0.23695 0.78572 0.93673 0.0
C848 C 0.24156 0.80865 0.06045 0.0
C849 C 0.20466 0.79154 0.98409 0.0
C850 C 0.19728 0.80487 0.94591 0.0
C851 C 0.17386 0.79784 0.94128 0.0
C852 C 0.15778 0.77651 0.97444 0.0
C853 C 0.16523 0.76238 0.01063 0.0
C854 C 0.18898 0.77038 0.01667 0.0
H855 H 0.43301 0.18711 0.26546 0.0
H856 H 0.37461 0.13006 0.15445 0.0
H857 H 0.36487 0.15729 0.08946 0.0
H858 H 0.40744 0.22492 0.29191 0.0
H859 H 0.43474 0.24996 0.27101 0.0
H860 H 0.43374 0.22544 0.31757 0.0
H861 H 0.45989 0.22451 0.20724 0.0
H862 H 0.46034 0.24858 0.15989 0.0
H863 H 0.45084 0.22225 0.10654 0.0
H864 H 0.36544 0.19287 0.02197 0.0
H865 H 0.37568 0.2311 0.96621 0.0
H866 H 0.43367 0.26294 0.12496 0.0
C867 C 0.41767 0.18026 0.22969 0.0
C868 C 0.40435 0.15649 0.21595 0.0
C869 C 0.38471 0.1482 0.16733 0.0
C870 C 0.3792 0.1636 0.1297 0.0
C871 C 0.39335 0.18716 0.14224 0.0
C872 C 0.41198 0.19527 0.19244 0.0
C873 C 0.42585 0.22112 0.19203 0.0
C874 C 0.42539 0.23092 0.27295 0.0
C875 C 0.45068 0.22959 0.16477 0.0
C876 C 0.41263 0.22652 0.13228 0.0
C877 C 0.39378 0.20694 0.10413 0.0
C878 C 0.38001 0.20824 0.04475 0.0
C879 C 0.38589 0.23 0.01334 0.0
C880 C 0.40553 0.25005 0.04077 0.0
C881 C 0.4186 0.24803 0.10202 0.0
H882 H 0.08061 0.39924 0.43754 0.0
H883 H 0.14795 0.41935 0.3414 0.0
H884 H 0.16438 0.42801 0.4737 0.0
H885 H 0.09816 0.44081 0.5839 0.0
H886 H 0.07838 0.42239 0.65779 0.0
H887 H 0.07125 0.4163 0.55567 0.0
H888 H 0.06531 0.37552 0.57478 0.0
H889 H 0.07237 0.38148 0.67714 0.0
H890 H 0.08807 0.37206 0.61657 0.0
H891 H 0.17456 0.43881 0.61315 0.0
H892 H 0.1768 0.447 0.7555 0.0
H893 H 0.1029 0.41707 0.76384 0.0
C894 C 0.0987 0.40501 0.44438 0.0
C895 C 0.11301 0.40908 0.37851 0.0
C896 C 0.13667 0.41677 0.39032 0.0
C897 C 0.1462 0.42153 0.46548 0.0
C898 C 0.13179 0.41807 0.52871 0.0
C899 C 0.10848 0.40955 0.51941 0.0
C900 C 0.097 0.40781 0.5976 0.0
C901 C 0.08554 0.42273 0.59876 0.0
C902 C 0.07967 0.38272 0.61769 0.0
C903 C 0.11766 0.41736 0.65149 0.0
C904 C 0.13756 0.4232 0.61045 0.0
C905 C 0.15906 0.4339 0.64638 0.0
C906 C 0.16024 0.43862 0.72674 0.0
C907 C 0.14003 0.43239 0.76996 0.0
C908 C 0.1185 0.42151 0.73195 0.0
H909 H 0.70323 0.09996 0.94063 0.0
H910 H 0.73147 0.1736 0.93581 0.0
H911 H 0.73718 0.17368 0.79255 0.0
H912 H 0.73988 0.0962 0.78471 0.0
H913 H 0.71598 0.06956 0.7514 0.0
H914 H 0.7182 0.07775 0.853 0.0
H915 H 0.67574 0.07376 0.83848 0.0
H916 H 0.67632 0.06506 0.73908 0.0
H917 H 0.67192 0.0889 0.75898 0.0
H918 H 0.73644 0.16506 0.64942 0.0
H919 H 0.72999 0.1485 0.51634 0.0
H920 H 0.70254 0.08058 0.61601 0.0
C921 C 0.71114 0.11616 0.90969 0.0
C922 C 0.71706 0.13679 0.94897 0.0
C923 C 0.72674 0.15761 0.90637 0.0
C924 C 0.73017 0.15783 0.82531 0.0
C925 C 0.72381 0.13708 0.78815 0.0
C926 C 0.71451 0.11665 0.82893 0.0
C927 C 0.70748 0.09652 0.77458 0.0
C928 C 0.72115 0.08425 0.79195 0.0
C929 C 0.68136 0.08006 0.77803 0.0
C930 C 0.71431 0.10877 0.69684 0.0
C931 C 0.72363 0.13216 0.70576 0.0
C932 C 0.72949 0.14682 0.64169 0.0
C933 C 0.72556 0.13725 0.56654 0.0
C934 C 0.71579 0.11328 0.55649 0.0
C935 C 0.71044 0.09898 0.62246 0.0
H936 H 0.58773 0.66806 0.76608 0.0
H937 H 0.64453 0.73625 0.72368 0.0
H938 H 0.64348 0.74648 0.86304 0.0
H939 H 0.55694 0.68659 0.89075 0.0
H940 H 0.54574 0.6618 0.95367 0.0
H941 H 0.5521 0.65955 0.8526 0.0
H942 H 0.57861 0.6439 0.89583 0.0
H943 H 0.57255 0.64618 0.99723 0.0
H944 H 0.60178 0.66024 0.96301 0.0
H945 H 0.63662 0.7485 0.00761 0.0
H946 H 0.62254 0.74335 0.14468 0.0
H947 H 0.56807 0.6749 0.08836 0.0
C948 C 0.60006 0.685 0.787 0.0
C949 C 0.61651 0.70135 0.73588 0.0
C950 C 0.63206 0.72359 0.76327 0.0
C951 C 0.63155 0.72946 0.84185 0.0
C952 C 0.61503 0.71294 0.89119 0.0
C953 C 0.59938 0.69126 0.86458 0.0
C954 C 0.58244 0.67716 0.92798 0.0
C955 C 0.55786 0.67092 0.90485 0.0
C956 C 0.58395 0.65561 0.94715 0.0
C957 C 0.59125 0.69416 0.99487 0.0
C958 C 0.61016 0.71463 0.97273 0.0
C959 C 0.62168 0.73265 0.0254 0.0
C960 C 0.61362 0.72963 0.10277 0.0
C961 C 0.59406 0.70894 0.12599 0.0
C962 C 0.58273 0.69107 0.07123 0.0
H963 H 0.92029 0.58457 0.93989 0.0
H964 H 0.92364 0.65055 0.92736 0.0
H965 H 0.91262 0.64732 0.06659 0.0
H966 H 0.87164 0.557 0.0697 0.0
H967 H 0.88289 0.54186 0.12464 0.0
H968 H 0.89083 0.5491 0.02339 0.0
H969 H 0.93394 0.57039 0.06195 0.0
H970 H 0.92609 0.56301 0.16313 0.0
H971 H 0.94405 0.59258 0.1354 0.0
H972 H 0.90142 0.63721 0.20618 0.0
H973 H 0.89242 0.62153 0.34045 0.0
H974 H 0.89671 0.56226 0.26455 0.0
C975 C 0.91858 0.59823 0.96666 0.0
C976 C 0.92289 0.61784 0.92311 0.0
C977 C 0.92074 0.63554 0.95998 0.0
C978 C 0.91432 0.63378 0.03883 0.0
C979 C 0.91021 0.61426 0.08016 0.0
C980 C 0.9124 0.59686 0.04575 0.0
C981 C 0.90771 0.57809 0.10441 0.0
C982 C 0.88704 0.55516 0.079 0.0
C983 C 0.92923 0.5759 0.11695 0.0
C984 C 0.90225 0.58755 0.17675 0.0
C985 C 0.90381 0.60844 0.1613 0.0
C986 C 0.90012 0.62085 0.21906 0.0
C987 C 0.89507 0.61184 0.29509 0.0
C988 C 0.89378 0.59067 0.31282 0.0
C989 C 0.89714 0.57826 0.25243 0.0
H990 H 0.31464 0.91444 0.44015 0.0
H991 H 0.33532 0.86288 0.43935 0.0
H992 H 0.34572 0.87076 0.29889 0.0
H993 H 0.28765 0.89958 0.25358 0.0
H994 H 0.29585 0.92857 0.22646 0.0
H995 H 0.29232 0.92044 0.32819 0.0
H996 H 0.33352 0.95312 0.35656 0.0
H997 H 0.33751 0.96128 0.25468 0.0
H998 H 0.35731 0.95453 0.30281 0.0
H999 H 0.35341 0.88396 0.15967 0.0
H1000 H 0.35346 0.89775 0.02644 0.0
H1001 H 0.32454 0.93853 0.11518 0.0
C1002 C 0.32164 0.90508 0.41026 0.0
C1003 C 0.32443 0.88822 0.44993 0.0
C1004 C 0.3331 0.87583 0.40931 0.0
C1005 C 0.33919 0.88033 0.33004 0.0
C1006 C 0.33622 0.89707 0.29239 0.0
C1007 C 0.32733 0.90903 0.33078 0.0
C1008 C 0.3239 0.92462 0.27506 0.0
C1009 C 0.29842 0.91789 0.27055 0.0
C1010 C 0.33897 0.94989 0.29869 0.0
C1011 C 0.33207 0.91939 0.1991 0.0
C1012 C 0.33949 0.9038 0.21086 0.0
C1013 C 0.34747 0.89605 0.14957 0.0
C1014 C 0.34724 0.90389 0.07374 0.0
C1015 C 0.33858 0.91896 0.05922 0.0
C1016 C 0.33141 0.92717 0.12352 0.0
H1017 H 0.44316 0.29028 0.59347 0.0
H1018 H 0.41479 0.32944 0.69877 0.0
H1019 H 0.40356 0.33621 0.56851 0.0
H1020 H 0.46572 0.32454 0.41682 0.0
H1021 H 0.45766 0.30024 0.35352 0.0
H1022 H 0.46406 0.29877 0.45521 0.0
H1023 H 0.42448 0.26231 0.47106 0.0
H1024 H 0.41732 0.26392 0.37034 0.0
H1025 H 0.39878 0.26328 0.44764 0.0
H1026 H 0.39554 0.33912 0.42964 0.0
H1027 H 0.39038 0.33742 0.28656 0.0
H1028 H 0.4229 0.2957 0.26736 0.0
C1029 C 0.43479 0.30043 0.58839 0.0
C1030 C 0.42969 0.30924 0.65573 0.0
C1031 C 0.41856 0.32233 0.6477 0.0
C1032 C 0.41226 0.3264 0.57406 0.0
C1033 C 0.41725 0.31731 0.5088 0.0
C1034 C 0.42819 0.30456 0.51478 0.0
C1035 C 0.43065 0.29618 0.43472 0.0
C1036 C 0.45604 0.3055 0.41385 0.0
C1037 C 0.417 0.26986 0.43077 0.0
C1038 C 0.41984 0.30666 0.38321 0.0
C1039 C 0.41215 0.31866 0.42755 0.0
C1040 C 0.40139 0.32971 0.39408 0.0
C1041 C 0.39839 0.32851 0.3128 0.0
C1042 C 0.40612 0.31636 0.26567 0.0
C1043 C 0.41701 0.30531 0.30163 0.0
H1044 H 0.56812 0.86217 0.1099 0.0
H1045 H 0.63603 0.90827 0.01546 0.0
H1046 H 0.64994 0.92248 0.14709 0.0
H1047 H 0.56648 0.89849 0.24856 0.0
H1048 H 0.55277 0.87736 0.32465 0.0
H1049 H 0.54818 0.86875 0.22343 0.0
H1050 H 0.56228 0.83982 0.24975 0.0
H1051 H 0.56665 0.84814 0.35149 0.0
H1052 H 0.58996 0.84967 0.29447 0.0
H1053 H 0.65512 0.93654 0.28528 0.0
H1054 H 0.65251 0.9446 0.42548 0.0
H1055 H 0.58291 0.88755 0.43407 0.0
C1056 C 0.58599 0.87503 0.11636 0.0
C1057 C 0.60052 0.88457 0.05025 0.0
C1058 C 0.62403 0.9009 0.06328 0.0
C1059 C 0.6323 0.90915 0.13858 0.0
C1060 C 0.61717 0.90035 0.20133 0.0
C1061 C 0.5947 0.88313 0.19156 0.0
C1062 C 0.58195 0.8769 0.2691 0.0
C1063 C 0.56112 0.88061 0.26621 0.0
C1064 C 0.57479 0.85216 0.29258 0.0
C1065 C 0.6005 0.89404 0.32304 0.0
C1066 C 0.62068 0.90744 0.28262 0.0
C1067 C 0.63962 0.92578 0.3181 0.0
C1068 C 0.63796 0.93037 0.39727 0.0
C1069 C 0.61765 0.91652 0.44015 0.0
C1070 C 0.59877 0.89804 0.40263 0.0
H1071 H 0.68994 0.55987 0.24999 0.0
H1072 H 0.74605 0.62522 0.17152 0.0
H1073 H 0.75184 0.63981 0.30686 0.0
H1074 H 0.66654 0.5816 0.3838 0.0
H1075 H 0.65904 0.55968 0.45708 0.0
H1076 H 0.6606 0.55334 0.35556 0.0
H1077 H 0.6899 0.54026 0.3899 0.0
H1078 H 0.68828 0.54636 0.49183 0.0
H1079 H 0.71568 0.55939 0.44281 0.0
H1080 H 0.74908 0.6487 0.44657 0.0
H1081 H 0.7393 0.65063 0.58475 0.0
H1082 H 0.68591 0.5793 0.57575 0.0
C1083 C 0.70386 0.57701 0.2616 0.0
C1084 C 0.71751 0.59142 0.19988 0.0
C1085 C 0.73521 0.61395 0.21751 0.0
C1086 C 0.73873 0.62236 0.29433 0.0
C1087 C 0.72457 0.60796 0.35329 0.0
C1088 C 0.70767 0.58567 0.33823 0.0
C1089 C 0.69409 0.5742 0.41186 0.0
C1090 C 0.66856 0.56678 0.40141 0.0
C1091 C 0.69718 0.55385 0.43549 0.0
C1092 C 0.70566 0.59373 0.47005 0.0
C1093 C 0.72323 0.613 0.43489 0.0
C1094 C 0.73557 0.63364 0.47505 0.0
C1095 C 0.72978 0.63463 0.55323 0.0
C1096 C 0.71187 0.61511 0.59062 0.0
C1097 C 0.69986 0.59434 0.54864 0.0
H1098 H 0.15347 0.7077 0.4245 0.0
H1099 H 0.08612 0.68063 0.3201 0.0
H1100 H 0.06902 0.67723 0.45074 0.0
H1101 H 0.13376 0.67093 0.59941 0.0
H1102 H 0.15405 0.69299 0.66365 0.0
H1103 H 0.16103 0.69282 0.56176 0.0
H1104 H 0.16869 0.73438 0.54681 0.0
H1105 H 0.16165 0.73463 0.64851 0.0
H1106 H 0.14657 0.74086 0.57371 0.0
H1107 H 0.05956 0.67882 0.5898 0.0
H1108 H 0.05773 0.68288 0.73308 0.0
H1109 H 0.13082 0.7076 0.75036 0.0
C1110 C 0.13514 0.7009 0.42985 0.0
C1111 C 0.12109 0.69498 0.3627 0.0
C1112 C 0.09714 0.68598 0.37111 0.0
C1113 C 0.08729 0.68378 0.44491 0.0
C1114 C 0.10162 0.69035 0.50998 0.0
C1115 C 0.12497 0.69848 0.50364 0.0
C1116 C 0.13635 0.70449 0.58353 0.0
C1117 C 0.14692 0.6894 0.60324 0.0
C1118 C 0.15438 0.73011 0.58839 0.0
C1119 C 0.11579 0.6987 0.63515 0.0
C1120 C 0.09597 0.69063 0.59131 0.0
C1121 C 0.07491 0.68493 0.62506 0.0
C1122 C 0.07406 0.68743 0.7062 0.0
C1123 C 0.09408 0.69543 0.75254 0.0
C1124 C 0.11519 0.70108 0.71641 0.0
H1125 H 0.41157 0.09117 0.57526 0.0
H1126 H 0.44733 0.16536 0.5815 0.0
H1127 H 0.43938 0.16417 0.72377 0.0
H1128 H 0.36748 0.081 0.72802 0.0
H1129 H 0.36861 0.05633 0.76351 0.0
H1130 H 0.37428 0.06448 0.66165 0.0
H1131 H 0.41367 0.06534 0.67818 0.0
H1132 H 0.40764 0.0583 0.7803 0.0
H1133 H 0.43357 0.08386 0.7515 0.0
H1134 H 0.42868 0.15481 0.86438 0.0
H1135 H 0.42001 0.13869 0.99691 0.0
H1136 H 0.39417 0.07037 0.90037 0.0
C1137 C 0.41725 0.1071 0.60656 0.0
C1138 C 0.4298 0.12837 0.56811 0.0
C1139 C 0.43765 0.14896 0.61062 0.0
C1140 C 0.43307 0.14841 0.69092 0.0
C1141 C 0.42079 0.12712 0.7274 0.0
C1142 C 0.41317 0.10684 0.68681 0.0
C1143 C 0.40231 0.08635 0.7411 0.0
C1144 C 0.37665 0.07112 0.72251 0.0
C1145 C 0.41506 0.07267 0.73756 0.0
C1146 C 0.40577 0.09832 0.81906 0.0
C1147 C 0.41586 0.12176 0.80947 0.0
C1148 C 0.42094 0.1365 0.87274 0.0
C1149 C 0.41615 0.1271 0.94812 0.0
C1150 C 0.40692 0.10319 0.95996 0.0
C1151 C 0.4012 0.08865 0.89401 0.0
H1152 H 0.32827 0.45 0.75265 0.0
H1153 H 0.27175 0.38256 0.69765 0.0
H1154 H 0.27088 0.37061 0.83603 0.0
H1155 H 0.35746 0.43076 0.87346 0.0
H1156 H 0.36782 0.45439 0.94122 0.0
H1157 H 0.36211 0.45826 0.84097 0.0
H1158 H 0.33434 0.47227 0.8869 0.0
H1159 H 0.34019 0.46873 0.98744 0.0
H1160 H 0.31103 0.45456 0.95212 0.0
H1161 H 0.27694 0.3664 0.98156 0.0
H1162 H 0.29115 0.3695 0.11824 0.0
H1163 H 0.34547 0.43871 0.07108 0.0
C1164 C 0.31534 0.43292 0.7704 0.0
C1165 C 0.29974 0.41728 0.71559 0.0
C1166 C 0.28363 0.39477 0.73965 0.0
C1167 C 0.28302 0.38791 0.81781 0.0
C1168 C 0.29891 0.40372 0.8704 0.0
C1169 C 0.31486 0.42572 0.84738 0.0
C1170 C 0.33125 0.43894 0.91293 0.0
C1171 C 0.35612 0.44599 0.8908 0.0
C1172 C 0.32906 0.45986 0.93622 0.0
C1173 C 0.3222 0.42094 0.97646 0.0
C1174 C 0.30331 0.40084 0.9516 0.0
C1175 C 0.29181 0.38201 0.00141 0.0
C1176 C 0.29994 0.38385 0.07851 0.0
C1177 C 0.31959 0.40413 0.10384 0.0
C1178 C 0.33074 0.42284 0.05216 0.0
H1179 H 0.90195 0.32565 0.23057 0.0
H1180 H 0.93957 0.28887 0.2332 0.0
H1181 H 0.92929 0.27804 0.09398 0.0
H1182 H 0.85602 0.28814 0.09418 0.0
H1183 H 0.85587 0.31178 0.04494 0.0
H1184 H 0.8637 0.31418 0.14701 0.0
H1185 H 0.9024 0.35085 0.11699 0.0
H1186 H 0.89462 0.34865 0.01516 0.0
H1187 H 0.9211 0.34988 0.04313 0.0
H1188 H 0.91577 0.27214 0.95532 0.0
H1189 H 0.90461 0.27557 0.82132 0.0
H1190 H 0.87887 0.31955 0.90551 0.0
C1191 C 0.9076 0.31499 0.20171 0.0
C1192 C 0.92125 0.30776 0.24178 0.0
C1193 C 0.92902 0.2944 0.20266 0.0
C1194 C 0.92312 0.28807 0.12419 0.0
C1195 C 0.90969 0.29554 0.08588 0.0
C1196 C 0.9023 0.30898 0.1229 0.0
C1197 C 0.89022 0.31678 0.06615 0.0
C1198 C 0.86495 0.30714 0.08948 0.0
C1199 C 0.90285 0.3431 0.05999 0.0
C1200 C 0.89229 0.30592 0.99115 0.0
C1201 C 0.90311 0.29333 0.00437 0.0
C1202 C 0.9074 0.28207 0.94411 0.0
C1203 C 0.90113 0.28433 0.86781 0.0
C1204 C 0.89123 0.29827 0.85177 0.0
C1205 C 0.88623 0.30866 0.91507 0.0
loop_
_geom_bond_atom_site_label_1
_geom_bond_atom_site_label_2
_geom_bond_distance
_geom_bond_site_symmetry_2
_ccdc_geom_bond_type
C0 C1 1.351 . S
C0 N3 1.368 . S
C0 H5 0.931 . S
C1 C0 1.351 . S
C1 N2 1.373 . S
C1 H29 0.930 . S
N2 C1 1.373 . S
N2 C4 1.340 . S
N3 C0 1.368 . S
N3 C4 1.321 . S
N3 Co6 2.135 1_556 S
C4 N2 1.340 . S
C4 N3 1.321 . S
C4 H28 0.930 . S
H5 C0 0.931 . S
Co6 N3 2.135 1_554 S
Co6 N9 2.121 . S
Co6 O14 2.055 . S
Co6 O17 2.039 . S
Co6 N20 2.140 . S
C7 O8 1.227 . S
C7 O17 1.265 1_556 S
O8 C7 1.227 . S
N9 Co6 2.121 . S
N9 C11 1.375 . S
N9 C12 1.313 . S
C10 C11 1.338 . S
C10 N13 1.377 . S
C10 H30 0.930 . S
C11 N9 1.375 . S
C11 C10 1.338 . S
C11 H15 0.931 . S
C12 N9 1.313 . S
C12 N13 1.344 . S
C12 H16 0.930 . S
N13 C10 1.377 . S
N13 C12 1.344 . S
O14 Co6 2.055 . S
O14 C18 1.253 . S
H15 C11 0.931 . S
H16 C12 0.930 . S
O17 Co6 2.039 . S
O17 C7 1.265 1_554 S
C18 O14 1.253 . S
C18 O19 1.227 . S
O19 C18 1.227 . S
N20 Co6 2.140 . S
N20 C23 1.346 1_554 S
N20 C24 1.345 . S
C21 C22 1.387 1_554 S
C21 C25 1.391 . S
C22 C21 1.387 1_556 S
C22 C23 1.369 . S
C22 H31 0.929 . S
C23 N20 1.346 1_556 S
C23 C22 1.369 . S
C23 H26 0.928 . S
C24 N20 1.345 . S
C24 C25 1.371 . S
C24 H27 0.931 . S
C25 C21 1.391 . S
C25 C24 1.371 . S
C25 H32 0.930 . S
H26 C23 0.928 . S
H27 C24 0.931 . S
H28 C4 0.930 . S
H29 C1 0.930 . S
H30 C10 0.930 . S
H31 C22 0.929 . S
H32 C25 0.930 . S
C33 C34 1.351 . S
C33 N36 1.368 . S
C33 H38 0.931 . S
C34 C33 1.351 . S
C34 N35 1.373 1_554 S
C34 H62 0.930 1_554 S
N35 C34 1.373 1_556 S
N35 C37 1.340 1_556 S
N36 C33 1.368 . S
N36 C37 1.321 . S
N36 Co39 2.135 . S
C37 N35 1.340 1_554 S
C37 N36 1.321 . S
C37 H61 0.930 . S
H38 C33 0.931 . S
Co39 N36 2.135 . S
Co39 N42 2.121 . S
Co39 O47 2.055 . S
Co39 O50 2.039 . S
Co39 N53 2.140 . S
C40 O41 1.227 . S
C40 O50 1.265 . S
O41 C40 1.227 . S
N42 Co39 2.121 . S
N42 C44 1.375 . S
N42 C45 1.313 . S
C43 C44 1.338 . S
C43 N46 1.377 . S
C43 H63 0.930 . S
C44 N42 1.375 . S
C44 C43 1.338 . S
C44 H48 0.931 . S
C45 N42 1.313 . S
C45 N46 1.344 . S
C45 H49 0.930 . S
N46 C43 1.377 . S
N46 C45 1.344 . S
O47 Co39 2.055 . S
O47 C51 1.253 . S
H48 C44 0.931 . S
H49 C45 0.930 . S
O50 Co39 2.039 . S
O50 C40 1.265 . S
C51 O47 1.253 . S
C51 O52 1.227 . S
O52 C51 1.227 . S
N53 Co39 2.140 . S
N53 C56 1.346 . S
N53 C57 1.345 . S
C54 C55 1.387 . S
C54 C58 1.391 . S
C55 C54 1.387 . S
C55 C56 1.369 . S
C55 H64 0.929 . S
C56 N53 1.346 . S
C56 C55 1.369 . S
C56 H59 0.928 . S
C57 N53 1.345 . S
C57 C58 1.371 . S
C57 H60 0.931 . S
C58 C54 1.391 . S
C58 C57 1.371 . S
C58 H65 0.930 . S
H59 C56 0.928 . S
H60 C57 0.931 . S
H61 C37 0.930 . S
H62 C34 0.930 1_556 S
H63 C43 0.930 . S
H64 C55 0.929 . S
H65 C58 0.930 . S
C66 C67 1.351 . S
C66 N69 1.368 . S
C66 H71 0.931 . S
C67 C66 1.351 . S
C67 N68 1.373 . S
C67 H95 0.930 . S
N68 C67 1.373 . S
N68 C70 1.340 . S
N69 C66 1.368 . S
N69 C70 1.321 . S
N69 Co72 2.135 . S
C70 N68 1.340 . S
C70 N69 1.321 . S
C70 H94 0.930 . S
H71 C66 0.931 . S
Co72 N69 2.135 . S
Co72 N75 2.121 . S
Co72 O80 2.055 . S
Co72 O83 2.039 . S
Co72 N86 2.140 . S
C73 O74 1.227 . S
C73 O83 1.265 . S
O74 C73 1.227 . S
N75 Co72 2.121 . S
N75 C77 1.375 . S
N75 C78 1.313 . S
C76 C77 1.338 . S
C76 N79 1.377 . S
C76 H96 0.930 . S
C77 N75 1.375 . S
C77 C76 1.338 . S
C77 H81 0.931 . S
C78 N75 1.313 . S
C78 N79 1.344 . S
C78 H82 0.930 . S
N79 C76 1.377 . S
N79 C78 1.344 . S
O80 Co72 2.055 . S
O80 C84 1.253 . S
H81 C77 0.931 . S
H82 C78 0.930 . S
O83 Co72 2.039 . S
O83 C73 1.265 . S
C84 O80 1.253 . S
C84 O85 1.227 . S
O85 C84 1.227 . S
N86 Co72 2.140 . S
N86 C89 1.346 . S
N86 C90 1.345 . S
C87 C88 1.387 . S
C87 C91 1.391 . S
C88 C87 1.387 . S
C88 C89 1.369 . S
C88 H97 0.929 . S
C89 N86 1.346 . S
C89 C88 1.369 . S
C89 H92 0.928 . S
C90 N86 1.345 . S
C90 C91 1.371 . S
C90 H93 0.931 . S
C91 C87 1.391 . S
C91 C90 1.371 . S
C91 H98 0.930 . S
H92 C89 0.928 . S
H93 C90 0.931 . S
H94 C70 0.930 . S
H95 C67 0.930 . S
H96 C76 0.930 . S
H97 C88 0.929 . S
H98 C91 0.930 . S
C99 C100 1.351 . S
C99 N102 1.368 . S
C99 H104 0.931 . S
C100 C99 1.351 . S
C100 N101 1.373 . S
C100 H128 0.930 . S
N101 C100 1.373 . S
N101 C103 1.340 . S
N102 C99 1.368 . S
N102 C103 1.321 . S
N102 Co105 2.135 . S
C103 N101 1.340 . S
C103 N102 1.321 . S
C103 H127 0.930 . S
H104 C99 0.931 . S
Co105 N102 2.135 . S
Co105 N108 2.121 . S
Co105 O113 2.055 . S
Co105 O116 2.039 . S
Co105 N119 2.140 . S
C106 O107 1.227 . S
C106 O116 1.265 . S
O107 C106 1.227 . S
N108 Co105 2.121 . S
N108 C110 1.375 . S
N108 C111 1.313 . S
C109 C110 1.338 . S
C109 N112 1.377 . S
C109 H129 0.930 . S
C110 N108 1.375 . S
C110 C109 1.338 . S
C110 H114 0.931 . S
C111 N108 1.313 . S
C111 N112 1.344 . S
C111 H115 0.930 . S
N112 C109 1.377 . S
N112 C111 1.344 . S
O113 Co105 2.055 . S
O113 C117 1.253 . S
H114 C110 0.931 . S
H115 C111 0.930 . S
O116 Co105 2.039 . S
O116 C106 1.265 . S
C117 O113 1.253 . S
C117 O118 1.227 . S
O118 C117 1.227 . S
N119 Co105 2.140 . S
N119 C122 1.346 . S
N119 C123 1.345 . S
C120 C121 1.387 . S
C120 C124 1.391 . S
C121 C120 1.387 . S
C121 C122 1.369 . S
C121 H130 0.929 . S
C122 N119 1.346 . S
C122 C121 1.369 . S
C122 H125 0.928 . S
C123 N119 1.345 . S
C123 C124 1.371 . S
C123 H126 0.931 . S
C124 C120 1.391 . S
C124 C123 1.371 . S
C124 H131 0.930 . S
H125 C122 0.928 . S
H126 C123 0.931 . S
H127 C103 0.930 . S
H128 C100 0.930 . S
H129 C109 0.930 . S
H130 C121 0.929 . S
H131 C124 0.930 . S
C132 C133 1.351 . S
C132 N135 1.368 . S
C132 H137 0.931 . S
C133 C132 1.351 . S
C133 N134 1.373 . S
C133 H161 0.930 . S
N134 C133 1.373 . S
N134 C136 1.340 . S
N135 C132 1.368 . S
N135 C136 1.321 . S
N135 Co138 2.135 . S
C136 N134 1.340 . S
C136 N135 1.321 . S
C136 H160 0.930 . S
H137 C132 0.931 . S
Co138 N135 2.135 . S
Co138 N141 2.121 . S
Co138 O146 2.055 . S
Co138 O149 2.039 . S
Co138 N152 2.140 . S
C139 O140 1.227 . S
C139 O149 1.265 . S
O140 C139 1.227 . S
N141 Co138 2.121 . S
N141 C143 1.375 . S
N141 C144 1.313 . S
C142 C143 1.338 . S
C142 N145 1.377 . S
C142 H162 0.930 . S
C143 N141 1.375 . S
C143 C142 1.338 . S
C143 H147 0.931 . S
C144 N141 1.313 . S
C144 N145 1.344 . S
C144 H148 0.930 . S
N145 C142 1.377 . S
N145 C144 1.344 . S
O146 Co138 2.055 . S
O146 C150 1.253 . S
H147 C143 0.931 . S
H148 C144 0.930 . S
O149 Co138 2.039 . S
O149 C139 1.265 . S
C150 O146 1.253 . S
C150 O151 1.227 . S
O151 C150 1.227 . S
N152 Co138 2.140 . S
N152 C155 1.346 . S
N152 C156 1.345 . S
C153 C154 1.387 . S
C153 C157 1.391 . S
C154 C153 1.387 . S
C154 C155 1.369 . S
C154 H163 0.929 . S
C155 N152 1.346 . S
C155 C154 1.369 . S
C155 H158 0.928 . S
C156 N152 1.345 . S
C156 C157 1.371 . S
C156 H159 0.931 . S
C157 C153 1.391 . S
C157 C156 1.371 . S
C157 H164 0.930 . S
H158 C155 0.928 . S
H159 C156 0.931 . S
H160 C136 0.930 . S
H161 C133 0.930 . S
H162 C142 0.930 . S
H163 C154 0.929 . S
H164 C157 0.930 . S
C165 C166 1.351 . S
C165 N168 1.368 . S
C165 H170 0.931 . S
C166 C165 1.351 . S
C166 N167 1.373 . S
C166 H194 0.930 . S
N167 C166 1.373 . S
N167 C169 1.340 . S
N168 C165 1.368 . S
N168 C169 1.321 . S
N168 Co171 2.135 . S
C169 N167 1.340 . S
C169 N168 1.321 . S
C169 H193 0.930 . S
H170 C165 0.931 . S
Co171 N168 2.135 . S
Co171 N174 2.121 1_556 S
Co171 O179 2.055 . S
Co171 O182 2.039 . S
Co171 N185 2.140 . S
C172 O173 1.227 . S
C172 O182 1.265 . S
O173 C172 1.227 . S
N174 Co171 2.121 1_554 S
N174 C176 1.375 . S
N174 C177 1.313 . S
C175 C176 1.338 . S
C175 N178 1.377 . S
C175 H195 0.930 . S
C176 N174 1.375 . S
C176 C175 1.338 . S
C176 H180 0.931 1_554 S
C177 N174 1.313 . S
C177 N178 1.344 . S
C177 H181 0.930 . S
N178 C175 1.377 . S
N178 C177 1.344 . S
O179 Co171 2.055 . S
O179 C183 1.253 . S
H180 C176 0.931 1_556 S
H181 C177 0.930 . S
O182 Co171 2.039 . S
O182 C172 1.265 . S
C183 O179 1.253 . S
C183 O184 1.227 . S
O184 C183 1.227 . S
N185 Co171 2.140 . S
N185 C188 1.346 . S
N185 C189 1.345 . S
C186 C187 1.387 . S
C186 C190 1.391 . S
C187 C186 1.387 . S
C187 C188 1.369 . S
C187 H196 0.929 . S
C188 N185 1.346 . S
C188 C187 1.369 . S
C188 H191 0.928 . S
C189 N185 1.345 . S
C189 C190 1.371 . S
C189 H192 0.931 . S
C190 C186 1.391 . S
C190 C189 1.371 . S
C190 H197 0.930 1_556 S
H191 C188 0.928 . S
H192 C189 0.931 . S
H193 C169 0.930 . S
H194 C166 0.930 . S
H195 C175 0.930 . S
H196 C187 0.929 . S
H197 C190 0.930 1_554 S
C198 C199 1.364 . S
C198 N201 1.368 . S
C198 H203 0.931 . S
C199 C198 1.364 . S
C199 N200 1.368 1_556 S
C199 H227 0.923 1_556 S
N200 C199 1.368 1_554 S
N200 C202 1.340 1_554 S
N201 C198 1.368 . S
N201 C202 1.321 . S
N201 Co204 2.135 . S
C202 N200 1.340 1_556 S
C202 N201 1.321 . S
C202 H226 0.930 . S
H203 C198 0.931 . S
Co204 N201 2.135 . S
Co204 N207 2.121 . S
Co204 O212 2.055 . S
Co204 O215 2.039 . S
Co204 N218 2.140 . S
C205 O206 1.227 . S
C205 O215 1.265 . S
O206 C205 1.227 . S
N207 Co204 2.121 . S
N207 C209 1.375 . S
N207 C210 1.313 . S
C208 C209 1.338 . S
C208 N211 1.377 . S
C208 H228 0.930 . S
C209 N207 1.375 . S
C209 C208 1.338 . S
C209 H213 0.931 . S
C210 N207 1.313 . S
C210 N211 1.344 . S
C210 H214 0.930 . S
N211 C208 1.377 . S
N211 C210 1.344 . S
O212 Co204 2.055 . S
O212 C216 1.253 . S
H213 C209 0.931 . S
H214 C210 0.930 . S
O215 Co204 2.039 . S
O215 C205 1.265 . S
C216 O212 1.253 . S
C216 O217 1.227 . S
O217 C216 1.227 . S
N218 Co204 2.140 . S
N218 C221 1.346 . S
N218 C222 1.345 . S
C219 C220 1.387 . S
C219 C223 1.391 . S
C220 C219 1.387 . S
C220 C221 1.369 . S
C220 H229 0.929 . S
C221 N218 1.346 . S
C221 C220 1.369 . S
C221 H224 0.928 . S
C222 N218 1.345 . S
C222 C223 1.371 . S
C222 H225 0.931 . S
C223 C219 1.391 . S
C223 C222 1.371 . S
C223 H230 0.930 . S
H224 C221 0.928 . S
H225 C222 0.931 . S
H226 C202 0.930 . S
H227 C199 0.923 1_554 S
H228 C208 0.930 . S
H229 C220 0.929 . S
H230 C223 0.930 . S
C231 C232 1.351 . S
C231 N234 1.368 . S
C231 H236 0.931 . S
C232 C231 1.351 . S
C232 N233 1.373 . S
C232 H260 0.930 . S
N233 C232 1.373 . S
N233 C235 1.340 . S
N234 C231 1.368 . S
N234 C235 1.321 . S
N234 Co237 2.135 1_554 S
C235 N233 1.340 . S
C235 N234 1.321 . S
C235 H259 0.930 . S
H236 C231 0.931 . S
Co237 N234 2.135 1_556 S
Co237 N240 2.121 . S
Co237 O245 2.055 . S
Co237 O248 2.039 . S
Co237 N251 2.140 . S
C238 O239 1.227 . S
C238 O248 1.265 1_554 S
O239 C238 1.227 . S
N240 Co237 2.121 . S
N240 C242 1.375 . S
N240 C243 1.313 . S
C241 C242 1.338 . S
C241 N244 1.377 . S
C241 H261 0.930 . S
C242 N240 1.375 . S
C242 C241 1.338 . S
C242 H246 0.931 . S
C243 N240 1.313 . S
C243 N244 1.344 . S
C243 H247 0.930 . S
N244 C241 1.377 . S
N244 C243 1.344 . S
O245 Co237 2.055 . S
O245 C249 1.253 . S
H246 C242 0.931 . S
H247 C243 0.930 . S
O248 Co237 2.039 . S
O248 C238 1.265 1_556 S
C249 O245 1.253 . S
C249 O250 1.227 . S
O250 C249 1.227 . S
N251 Co237 2.140 . S
N251 C254 1.346 1_556 S
N251 C255 1.345 . S
C252 C253 1.387 1_556 S
C252 C256 1.391 . S
C253 C252 1.387 1_554 S
C253 C254 1.369 . S
C253 H262 0.929 . S
C254 N251 1.346 1_554 S
C254 C253 1.369 . S
C254 H257 0.928 . S
C255 N251 1.345 . S
C255 C256 1.371 . S
C255 H258 0.931 . S
C256 C252 1.391 . S
C256 C255 1.371 . S
C256 H263 0.930 . S
H257 C254 0.928 . S
H258 C255 0.931 . S
H259 C235 0.930 . S
H260 C232 0.930 . S
H261 C241 0.930 . S
H262 C253 0.929 . S
H263 C256 0.930 . S
C264 C265 1.351 . S
C264 N267 1.368 . S
C264 H269 0.931 . S
C265 C264 1.351 . S
C265 N266 1.373 . S
C265 H293 0.930 . S
N266 C265 1.373 . S
N266 C268 1.340 . S
N267 C264 1.368 . S
N267 C268 1.321 . S
N267 Co270 2.135 . S
C268 N266 1.340 . S
C268 N267 1.321 . S
C268 H292 0.930 . S
H269 C264 0.931 . S
Co270 N267 2.135 . S
Co270 N273 2.121 . S
Co270 O278 2.055 . S
Co270 O281 2.039 . S
Co270 N284 2.140 . S
C271 O272 1.227 . S
C271 O281 1.265 . S
O272 C271 1.227 . S
N273 Co270 2.121 . S
N273 C275 1.375 1_554 S
N273 C276 1.313 1_554 S
C274 C275 1.338 . S
C274 N277 1.377 . S
C274 H294 0.930 . S
C275 N273 1.375 1_556 S
C275 C274 1.338 . S
C275 H279 0.931 1_556 S
C276 N273 1.313 1_556 S
C276 N277 1.344 . S
C276 H280 0.930 . S
N277 C274 1.377 . S
N277 C276 1.344 . S
O278 Co270 2.055 . S
O278 C282 1.253 . S
H279 C275 0.931 1_554 S
H280 C276 0.930 . S
O281 Co270 2.039 . S
O281 C271 1.265 . S
C282 O278 1.253 . S
C282 O283 1.227 . S
O283 C282 1.227 . S
N284 Co270 2.140 . S
N284 C287 1.346 . S
N284 C288 1.345 . S
C285 C286 1.387 . S
C285 C289 1.391 . S
C286 C285 1.387 . S
C286 C287 1.369 . S
C286 H295 0.929 . S
C287 N284 1.346 . S
C287 C286 1.369 . S
C287 H290 0.928 . S
C288 N284 1.345 . S
C288 C289 1.371 . S
C288 H291 0.931 . S
C289 C285 1.391 . S
C289 C288 1.371 . S
C289 H296 0.930 . S
H290 C287 0.928 . S
H291 C288 0.931 . S
H292 C268 0.930 . S
H293 C265 0.930 . S
H294 C274 0.930 . S
H295 C286 0.929 . S
H296 C289 0.930 . S
C297 C298 1.351 . S
C297 N300 1.368 . S
C297 H302 0.931 . S
C298 C297 1.351 . S
C298 N299 1.373 . S
C298 H326 0.930 . S
N299 C298 1.373 . S
N299 C301 1.340 . S
N300 C297 1.368 . S
N300 C301 1.321 . S
N300 Co303 2.135 . S
C301 N299 1.340 . S
C301 N300 1.321 . S
C301 H325 0.930 . S
H302 C297 0.931 . S
Co303 N300 2.135 . S
Co303 N306 2.121 . S
Co303 O311 2.055 . S
Co303 O314 2.039 . S
Co303 N317 2.140 . S
C304 O305 1.227 . S
C304 O314 1.265 . S
O305 C304 1.227 . S
N306 Co303 2.121 . S
N306 C308 1.375 . S
N306 C309 1.313 . S
C307 C308 1.338 . S
C307 N310 1.377 . S
C307 H327 0.930 . S
C308 N306 1.375 . S
C308 C307 1.338 . S
C308 H312 0.931 . S
C309 N306 1.313 . S
C309 N310 1.344 . S
C309 H313 0.930 . S
N310 C307 1.377 . S
N310 C309 1.344 . S
O311 Co303 2.055 . S
O311 C315 1.253 . S
H312 C308 0.931 . S
H313 C309 0.930 . S
O314 Co303 2.039 . S
O314 C304 1.265 . S
C315 O311 1.253 . S
C315 O316 1.227 . S
O316 C315 1.227 . S
N317 Co303 2.140 . S
N317 C320 1.346 . S
N317 C321 1.345 . S
C318 C319 1.387 . S
C318 C322 1.391 . S
C319 C318 1.387 . S
C319 C320 1.369 . S
C319 H328 0.929 . S
C320 N317 1.346 . S
C320 C319 1.369 . S
C320 H323 0.928 . S
C321 N317 1.345 . S
C321 C322 1.371 . S
C321 H324 0.931 . S
C322 C318 1.391 . S
C322 C321 1.371 . S
C322 H329 0.930 . S
H323 C320 0.928 . S
H324 C321 0.931 . S
H325 C301 0.930 . S
H326 C298 0.930 . S
H327 C307 0.930 . S
H328 C319 0.929 . S
H329 C322 0.930 . S
C330 C331 1.351 . S
C330 N333 1.368 . S
C330 H335 0.931 . S
C331 C330 1.351 . S
C331 N332 1.373 . S
C331 H359 0.930 . S
N332 C331 1.373 . S
N332 C334 1.340 . S
N333 C330 1.368 . S
N333 C334 1.321 . S
N333 Co336 2.135 . S
C334 N332 1.340 . S
C334 N333 1.321 . S
C334 H358 0.930 . S
H335 C330 0.931 . S
Co336 N333 2.135 . S
Co336 N339 2.121 . S
Co336 O344 2.055 . S
Co336 O347 2.039 . S
Co336 N350 2.140 . S
C337 O338 1.227 . S
C337 O347 1.265 . S
O338 C337 1.227 . S
N339 Co336 2.121 . S
N339 C341 1.375 . S
N339 C342 1.313 . S
C340 C341 1.338 . S
C340 N343 1.377 . S
C340 H360 0.930 . S
C341 N339 1.375 . S
C341 C340 1.338 . S
C341 H345 0.931 . S
C342 N339 1.313 . S
C342 N343 1.344 . S
C342 H346 0.930 . S
N343 C340 1.377 . S
N343 C342 1.344 . S
O344 Co336 2.055 . S
O344 C348 1.253 . S
H345 C341 0.931 . S
H346 C342 0.930 . S
O347 Co336 2.039 . S
O347 C337 1.265 . S
C348 O344 1.253 . S
C348 O349 1.227 . S
O349 C348 1.227 . S
N350 Co336 2.140 . S
N350 C353 1.346 . S
N350 C354 1.345 . S
C351 C352 1.387 . S
C351 C355 1.391 . S
C352 C351 1.387 . S
C352 C353 1.369 . S
C352 H361 0.929 . S
C353 N350 1.346 . S
C353 C352 1.369 . S
C353 H356 0.928 . S
C354 N350 1.345 . S
C354 C355 1.371 . S
C354 H357 0.931 . S
C355 C351 1.391 . S
C355 C354 1.371 . S
C355 H362 0.930 . S
H356 C353 0.928 . S
H357 C354 0.931 . S
H358 C334 0.930 . S
H359 C331 0.930 . S
H360 C340 0.930 . S
H361 C352 0.929 . S
H362 C355 0.930 . S
C363 C364 1.351 . S
C363 N366 1.368 . S
C363 H368 0.931 . S
C364 C363 1.351 . S
C364 N365 1.373 . S
C364 H392 0.930 . S
N365 C364 1.373 . S
N365 C367 1.340 . S
N366 C363 1.368 . S
N366 C367 1.321 . S
N366 Co369 2.135 . S
C367 N365 1.340 . S
C367 N366 1.321 . S
C367 H391 0.930 . S
H368 C363 0.931 . S
Co369 N366 2.135 . S
Co369 N372 2.121 . S
Co369 O377 2.055 . S
Co369 O380 2.039 . S
Co369 N383 2.140 . S
C370 O371 1.227 . S
C370 O380 1.265 . S
O371 C370 1.227 . S
N372 Co369 2.121 . S
N372 C374 1.375 . S
N372 C375 1.313 . S
C373 C374 1.338 . S
C373 N376 1.377 . S
C373 H393 0.930 . S
C374 N372 1.375 . S
C374 C373 1.338 . S
C374 H378 0.931 . S
C375 N372 1.313 . S
C375 N376 1.344 . S
C375 H379 0.930 . S
N376 C373 1.377 . S
N376 C375 1.344 . S
O377 Co369 2.055 . S
O377 C381 1.253 . S
H378 C374 0.931 . S
H379 C375 0.930 . S
O380 Co369 2.039 . S
O380 C370 1.265 . S
C381 O377 1.253 . S
C381 O382 1.227 . S
O382 C381 1.227 . S
N383 Co369 2.140 . S
N383 C386 1.346 . S
N383 C387 1.345 . S
C384 C385 1.387 . S
C384 C388 1.391 . S
C385 C384 1.387 . S
C385 C386 1.369 . S
C385 H394 0.929 . S
C386 N383 1.346 . S
C386 C385 1.369 . S
C386 H389 0.928 . S
C387 N383 1.345 . S
C387 C388 1.371 . S
C387 H390 0.931 . S
C388 C384 1.391 . S
C388 C387 1.371 . S
C388 H395 0.930 . S
H389 C386 0.928 . S
H390 C387 0.931 . S
H391 C367 0.930 . S
H392 C364 0.930 . S
H393 C373 0.930 . S
H394 C385 0.929 . S
H395 C388 0.930 . S
H396 C408 0.930 . S
H397 C410 0.930 1_556 S
H398 C411 0.930 1_556 S
H399 C415 0.959 . S
H400 C415 0.959 . S
H401 C415 0.961 . S
H402 C416 0.960 . S
H403 C416 0.961 . S
H404 C416 0.959 . S
H405 C419 0.929 . S
H406 C420 0.931 . S
H407 C422 0.930 . S
C408 H396 0.930 . S
C408 C409 1.399 . S
C408 C413 1.399 . S
C409 C408 1.399 . S
C409 C410 1.376 . S
C410 H397 0.930 1_554 S
C410 C409 1.376 . S
C410 C411 1.388 . S
C411 H398 0.930 1_554 S
C411 C410 1.388 . S
C411 C412 1.390 . S
C412 C411 1.390 . S
C412 C413 1.394 . S
C412 C418 1.465 . S
C413 C408 1.399 . S
C413 C412 1.394 . S
C413 C414 1.516 . S
C414 C413 1.516 . S
C414 C415 1.502 . S
C414 C416 1.561 . S
C414 C417 1.526 . S
C415 H399 0.959 . S
C415 H400 0.959 . S
C415 H401 0.961 . S
C415 C414 1.502 . S
C416 H402 0.960 . S
C416 H403 0.961 . S
C416 H404 0.959 . S
C416 C414 1.561 . S
C417 C414 1.526 . S
C417 C418 1.396 . S
C417 C422 1.390 . S
C418 C412 1.465 . S
C418 C417 1.396 . S
C418 C419 1.399 1_554 S
C419 H405 0.929 . S
C419 C418 1.399 1_556 S
C419 C420 1.385 . S
C420 H406 0.931 . S
C420 C419 1.385 . S
C420 C421 1.389 1_556 S
C421 C420 1.389 1_554 S
C421 C422 1.387 . S
C422 H407 0.930 . S
C422 C417 1.390 . S
C422 C421 1.387 . S
H423 C435 0.930 . S
H424 C437 0.930 . S
H425 C438 0.930 . S
H426 C442 0.959 . S
H427 C442 0.959 . S
H428 C442 0.961 . S
H429 C443 0.960 . S
H430 C443 0.961 . S
H431 C443 0.959 . S
H432 C446 0.929 . S
H433 C447 0.931 . S
H434 C449 0.930 . S
C435 H423 0.930 . S
C435 C436 1.399 . S
C435 C440 1.399 . S
C436 C435 1.399 . S
C436 C437 1.376 . S
C437 H424 0.930 . S
C437 C436 1.376 . S
C437 C438 1.388 . S
C438 H425 0.930 . S
C438 C437 1.388 . S
C438 C439 1.390 . S
C439 C438 1.390 . S
C439 C440 1.394 . S
C439 C445 1.465 . S
C440 C435 1.399 . S
C440 C439 1.394 . S
C440 C441 1.516 . S
C441 C440 1.516 . S
C441 C442 1.502 . S
C441 C443 1.561 . S
C441 C444 1.526 . S
C442 H426 0.959 . S
C442 H427 0.959 . S
C442 H428 0.961 . S
C442 C441 1.502 . S
C443 H429 0.960 . S
C443 H430 0.961 . S
C443 H431 0.959 . S
C443 C441 1.561 . S
C444 C441 1.526 . S
C444 C445 1.396 . S
C444 C449 1.390 . S
C445 C439 1.465 . S
C445 C444 1.396 . S
C445 C446 1.399 . S
C446 H432 0.929 . S
C446 C445 1.399 . S
C446 C447 1.385 . S
C447 H433 0.931 . S
C447 C446 1.385 . S
C447 C448 1.389 . S
C448 C447 1.389 . S
C448 C449 1.387 . S
C449 H434 0.930 . S
C449 C444 1.390 . S
C449 C448 1.387 . S
H450 C462 0.930 . S
H451 C464 0.930 . S
H452 C465 0.930 . S
H453 C469 0.959 . S
H454 C469 0.959 . S
H455 C469 0.961 . S
H456 C470 0.960 . S
H457 C470 0.961 . S
H458 C470 0.959 . S
H459 C473 0.929 . S
H460 C474 0.931 . S
H461 C476 0.930 . S
C462 H450 0.930 . S
C462 C463 1.399 . S
C462 C467 1.399 . S
C463 C462 1.399 . S
C463 C464 1.376 . S
C464 H451 0.930 . S
C464 C463 1.376 . S
C464 C465 1.388 . S
C465 H452 0.930 . S
C465 C464 1.388 . S
C465 C466 1.390 . S
C466 C465 1.390 . S
C466 C467 1.394 . S
C466 C472 1.465 . S
C467 C462 1.399 . S
C467 C466 1.394 . S
C467 C468 1.516 . S
C468 C467 1.516 . S
C468 C469 1.502 . S
C468 C470 1.561 . S
C468 C471 1.526 . S
C469 H453 0.959 . S
C469 H454 0.959 . S
C469 H455 0.961 . S
C469 C468 1.502 . S
C470 H456 0.960 . S
C470 H457 0.961 . S
C470 H458 0.959 . S
C470 C468 1.561 . S
C471 C468 1.526 . S
C471 C472 1.396 . S
C471 C476 1.390 . S
C472 C466 1.465 . S
C472 C471 1.396 . S
C472 C473 1.399 . S
C473 H459 0.929 . S
C473 C472 1.399 . S
C473 C474 1.385 . S
C474 H460 0.931 . S
C474 C473 1.385 . S
C474 C475 1.389 . S
C475 C474 1.389 . S
C475 C476 1.387 . S
C476 H461 0.930 . S
C476 C471 1.390 . S
C476 C475 1.387 . S
H477 C489 0.930 . S
H478 C491 0.930 . S
H479 C492 0.930 . S
H480 C496 0.959 . S
H481 C496 0.959 . S
H482 C496 0.961 . S
H483 C497 0.960 . S
H484 C497 0.961 . S
H485 C497 0.959 . S
H486 C500 0.929 . S
H487 C501 0.931 . S
H488 C503 0.930 . S
C489 H477 0.930 . S
C489 C490 1.399 . S
C489 C494 1.399 . S
C490 C489 1.399 . S
C490 C491 1.376 . S
C491 H478 0.930 . S
C491 C490 1.376 . S
C491 C492 1.388 . S
C492 H479 0.930 . S
C492 C491 1.388 . S
C492 C493 1.390 . S
C493 C492 1.390 . S
C493 C494 1.394 . S
C493 C499 1.465 . S
C494 C489 1.399 . S
C494 C493 1.394 . S
C494 C495 1.516 . S
C495 C494 1.516 . S
C495 C496 1.502 . S
C495 C497 1.561 . S
C495 C498 1.526 . S
C496 H480 0.959 . S
C496 H481 0.959 . S
C496 H482 0.961 . S
C496 C495 1.502 . S
C497 H483 0.960 . S
C497 H484 0.961 . S
C497 H485 0.959 . S
C497 C495 1.561 . S
C498 C495 1.526 . S
C498 C499 1.396 . S
C498 C503 1.390 . S
C499 C493 1.465 . S
C499 C498 1.396 . S
C499 C500 1.399 . S
C500 H486 0.929 . S
C500 C499 1.399 . S
C500 C501 1.385 . S
C501 H487 0.931 . S
C501 C500 1.385 . S
C501 C502 1.389 . S
C502 C501 1.389 . S
C502 C503 1.387 . S
C503 H488 0.930 . S
C503 C498 1.390 . S
C503 C502 1.387 . S
H504 C516 0.930 . S
H505 C518 0.930 . S
H506 C519 0.930 . S
H507 C523 0.959 . S
H508 C523 0.959 . S
H509 C523 0.961 . S
H510 C524 0.960 . S
H511 C524 0.961 . S
H512 C524 0.959 . S
H513 C527 0.929 . S
H514 C528 0.931 . S
H515 C530 0.930 . S
C516 H504 0.930 . S
C516 C517 1.399 . S
C516 C521 1.399 . S
C517 C516 1.399 . S
C517 C518 1.376 . S
C518 H505 0.930 . S
C518 C517 1.376 . S
C518 C519 1.388 . S
C519 H506 0.930 . S
C519 C518 1.388 . S
C519 C520 1.390 . S
C520 C519 1.390 . S
C520 C521 1.394 . S
C520 C526 1.465 . S
C521 C516 1.399 . S
C521 C520 1.394 . S
C521 C522 1.516 . S
C522 C521 1.516 . S
C522 C523 1.502 . S
C522 C524 1.561 . S
C522 C525 1.526 . S
C523 H507 0.959 . S
C523 H508 0.959 . S
C523 H509 0.961 . S
C523 C522 1.502 . S
C524 H510 0.960 . S
C524 H511 0.961 . S
C524 H512 0.959 . S
C524 C522 1.561 . S
C525 C522 1.526 . S
C525 C526 1.396 . S
C525 C530 1.390 . S
C526 C520 1.465 . S
C526 C525 1.396 . S
C526 C527 1.399 . S
C527 H513 0.929 . S
C527 C526 1.399 . S
C527 C528 1.385 . S
C528 H514 0.931 . S
C528 C527 1.385 . S
C528 C529 1.389 . S
C529 C528 1.389 . S
C529 C530 1.387 . S
C530 H515 0.930 . S
C530 C525 1.390 . S
C530 C529 1.387 . S
H531 C543 0.930 . S
H532 C545 0.930 . S
H533 C546 0.930 . S
H534 C550 0.959 . S
H535 C550 0.959 . S
H536 C550 0.961 . S
H537 C551 0.960 . S
H538 C551 0.961 . S
H539 C551 0.959 . S
H540 C554 0.929 1_554 S
H541 C555 0.931 1_554 S
H542 C557 0.930 . S
C543 H531 0.930 . S
C543 C544 1.399 . S
C543 C548 1.399 . S
C544 C543 1.399 . S
C544 C545 1.376 1_556 S
C545 H532 0.930 . S
C545 C544 1.376 1_554 S
C545 C546 1.388 . S
C546 H533 0.930 . S
C546 C545 1.388 . S
C546 C547 1.390 1_554 S
C547 C546 1.390 1_556 S
C547 C548 1.394 . S
C547 C553 1.465 . S
C548 C543 1.399 . S
C548 C547 1.394 . S
C548 C549 1.516 . S
C549 C548 1.516 . S
C549 C550 1.502 . S
C549 C551 1.561 . S
C549 C552 1.526 . S
C550 H534 0.959 . S
C550 H535 0.959 . S
C550 H536 0.961 . S
C550 C549 1.502 . S
C551 H537 0.960 . S
C551 H538 0.961 . S
C551 H539 0.959 . S
C551 C549 1.561 . S
C552 C549 1.526 . S
C552 C553 1.396 . S
C552 C557 1.390 . S
C553 C547 1.465 . S
C553 C552 1.396 . S
C553 C554 1.399 . S
C554 H540 0.929 1_556 S
C554 C553 1.399 . S
C554 C555 1.385 . S
C555 H541 0.931 1_556 S
C555 C554 1.385 . S
C555 C556 1.389 . S
C556 C555 1.389 . S
C556 C557 1.387 . S
C557 H542 0.930 . S
C557 C552 1.390 . S
C557 C556 1.387 . S
H558 C570 0.930 1_554 S
H559 C572 0.930 . S
H560 C573 0.930 . S
H561 C577 0.959 . S
H562 C577 0.959 . S
H563 C577 0.961 . S
H564 C578 0.960 1_554 S
H565 C578 0.961 . S
H566 C578 0.959 . S
H567 C581 0.929 1_455 S
H568 C582 0.931 . S
H569 C584 0.930 . S
C570 H558 0.930 1_556 S
C570 C571 1.399 . S
C570 C575 1.399 . S
C571 C570 1.399 . S
C571 C572 1.376 . S
C572 H559 0.930 . S
C572 C571 1.376 . S
C572 C573 1.388 . S
C573 H560 0.930 . S
C573 C572 1.388 . S
C573 C574 1.390 . S
C574 C573 1.390 . S
C574 C575 1.394 . S
C574 C580 1.465 1_455 S
C575 C570 1.399 . S
C575 C574 1.394 . S
C575 C576 1.516 1_455 S
C576 C575 1.516 1_655 S
C576 C577 1.502 . S
C576 C578 1.561 . S
C576 C579 1.526 . S
C577 H561 0.959 . S
C577 H562 0.959 . S
C577 H563 0.961 . S
C577 C576 1.502 . S
C578 H564 0.960 1_556 S
C578 H565 0.961 . S
C578 H566 0.959 . S
C578 C576 1.561 . S
C579 C576 1.526 . S
C579 C580 1.396 . S
C579 C584 1.390 . S
C580 C574 1.465 1_655 S
C580 C579 1.396 . S
C580 C581 1.399 . S
C581 H567 0.929 1_655 S
C581 C580 1.399 . S
C581 C582 1.385 . S
C582 H568 0.931 . S
C582 C581 1.385 . S
C582 C583 1.389 . S
C583 C582 1.389 . S
C583 C584 1.387 . S
C584 H569 0.930 . S
C584 C579 1.390 . S
C584 C583 1.387 . S
H585 C597 0.930 . S
H586 C599 0.930 . S
H587 C600 0.930 . S
H588 C604 0.959 . S
H589 C604 0.959 . S
H590 C604 0.961 . S
H591 C605 0.960 . S
H592 C605 0.961 . S
H593 C605 0.959 . S
H594 C608 0.929 1_565 S
H595 C609 0.931 . S
H596 C611 0.930 . S
C597 H585 0.930 . S
C597 C598 1.399 . S
C597 C602 1.399 . S
C598 C597 1.399 . S
C598 C599 1.376 . S
C599 H586 0.930 . S
C599 C598 1.376 . S
C599 C600 1.388 1_556 S
C600 H587 0.930 . S
C600 C599 1.388 1_554 S
C600 C601 1.390 . S
C601 C600 1.390 . S
C601 C602 1.393 1_554 S
C601 C607 1.466 1_565 S
C602 C597 1.399 . S
C602 C601 1.393 1_556 S
C602 C603 1.516 1_565 S
C603 C602 1.516 1_545 S
C603 C604 1.502 . S
C603 C605 1.561 . S
C603 C606 1.526 1_556 S
C604 H588 0.959 . S
C604 H589 0.959 . S
C604 H590 0.961 . S
C604 C603 1.502 . S
C605 H591 0.960 . S
C605 H592 0.961 . S
C605 H593 0.959 . S
C605 C603 1.561 . S
C606 C603 1.526 1_554 S
C606 C607 1.396 . S
C606 C611 1.390 . S
C607 C601 1.466 1_545 S
C607 C606 1.396 . S
C607 C608 1.399 . S
C608 H594 0.929 1_545 S
C608 C607 1.399 . S
C608 C609 1.385 . S
C609 H595 0.931 . S
C609 C608 1.385 . S
C609 C610 1.389 . S
C610 C609 1.389 . S
C610 C611 1.387 . S
C611 H596 0.930 . S
C611 C606 1.390 . S
C611 C610 1.387 . S
H612 C624 0.930 . S
H613 C626 0.930 . S
H614 C627 0.930 . S
H615 C631 0.959 . S
H616 C631 0.959 . S
H617 C631 0.961 . S
H618 C632 0.960 . S
H619 C632 0.961 . S
H620 C632 0.959 . S
H621 C635 0.929 . S
H622 C636 0.931 . S
H623 C638 0.930 1_556 S
C624 H612 0.930 . S
C624 C625 1.399 . S
C624 C629 1.399 . S
C625 C624 1.399 . S
C625 C626 1.376 . S
C626 H613 0.930 . S
C626 C625 1.376 . S
C626 C627 1.388 . S
C627 H614 0.930 . S
C627 C626 1.388 . S
C627 C628 1.390 . S
C628 C627 1.390 . S
C628 C629 1.394 . S
C628 C634 1.465 . S
C629 C624 1.399 . S
C629 C628 1.394 . S
C629 C630 1.516 . S
C630 C629 1.516 . S
C630 C631 1.502 . S
C630 C632 1.561 . S
C630 C633 1.526 . S
C631 H615 0.959 . S
C631 H616 0.959 . S
C631 H617 0.961 . S
C631 C630 1.502 . S
C632 H618 0.960 . S
C632 H619 0.961 . S
C632 H620 0.959 . S
C632 C630 1.561 . S
C633 C630 1.526 . S
C633 C634 1.396 . S
C633 C638 1.390 . S
C634 C628 1.465 . S
C634 C633 1.396 . S
C634 C635 1.399 . S
C635 H621 0.929 . S
C635 C634 1.399 . S
C635 C636 1.385 . S
C636 H622 0.931 . S
C636 C635 1.385 . S
C636 C637 1.389 . S
C637 C636 1.389 . S
C637 C638 1.387 . S
C638 H623 0.930 1_554 S
C638 C633 1.390 . S
C638 C637 1.387 . S
H639 C651 0.930 . S
H640 C653 0.930 . S
H641 C654 0.930 . S
H642 C658 0.959 1_455 S
H643 C658 0.959 . S
H644 C658 0.961 . S
H645 C659 0.960 . S
H646 C659 0.961 . S
H647 C659 0.959 . S
H648 C662 0.929 . S
H649 C663 0.931 . S
H650 C665 0.930 . S
C651 H639 0.930 . S
C651 C652 1.399 . S
C651 C656 1.399 . S
C652 C651 1.399 . S
C652 C653 1.376 . S
C653 H640 0.930 . S
C653 C652 1.376 . S
C653 C654 1.388 . S
C654 H641 0.930 . S
C654 C653 1.388 . S
C654 C655 1.390 . S
C655 C654 1.390 . S
C655 C656 1.394 . S
C655 C661 1.465 1_655 S
C656 C651 1.399 . S
C656 C655 1.394 . S
C656 C657 1.516 . S
C657 C656 1.516 . S
C657 C658 1.502 . S
C657 C659 1.561 . S
C657 C660 1.526 1_655 S
C658 H642 0.959 1_655 S
C658 H643 0.959 . S
C658 H644 0.961 . S
C658 C657 1.502 . S
C659 H645 0.960 . S
C659 H646 0.961 . S
C659 H647 0.959 . S
C659 C657 1.561 . S
C660 C657 1.526 1_455 S
C660 C661 1.396 . S
C660 C665 1.390 . S
C661 C655 1.465 1_455 S
C661 C660 1.396 . S
C661 C662 1.399 . S
C662 H648 0.929 . S
C662 C661 1.399 . S
C662 C663 1.385 . S
C663 H649 0.931 . S
C663 C662 1.385 . S
C663 C664 1.389 . S
C664 C663 1.389 . S
C664 C665 1.387 . S
C665 H650 0.930 . S
C665 C660 1.390 . S
C665 C664 1.387 . S
H666 C678 0.930 . S
H667 C680 0.930 . S
H668 C681 0.930 1_565 S
H669 C685 0.959 . S
H670 C685 0.959 . S
H671 C685 0.961 . S
H672 C686 0.960 . S
H673 C686 0.961 . S
H674 C686 0.959 . S
H675 C689 0.929 . S
H676 C690 0.931 . S
H677 C692 0.930 . S
C678 H666 0.930 . S
C678 C679 1.399 . S
C678 C683 1.399 . S
C679 C678 1.399 . S
C679 C680 1.376 . S
C680 H667 0.930 . S
C680 C679 1.376 . S
C680 C681 1.388 . S
C681 H668 0.930 1_545 S
C681 C680 1.388 . S
C681 C682 1.390 . S
C682 C681 1.390 . S
C682 C683 1.394 . S
C682 C688 1.465 1_545 S
C683 C678 1.399 . S
C683 C682 1.394 . S
C683 C684 1.516 . S
C684 C683 1.516 . S
C684 C685 1.502 . S
C684 C686 1.561 . S
C684 C687 1.526 1_545 S
C685 H669 0.959 . S
C685 H670 0.959 . S
C685 H671 0.961 . S
C685 C684 1.502 . S
C686 H672 0.960 . S
C686 H673 0.961 . S
C686 H674 0.959 . S
C686 C684 1.561 . S
C687 C684 1.526 1_565 S
C687 C688 1.396 . S
C687 C692 1.390 . S
C688 C682 1.465 1_565 S
C688 C687 1.396 . S
C688 C689 1.399 . S
C689 H675 0.929 . S
C689 C688 1.399 . S
C689 C690 1.385 . S
C690 H676 0.931 . S
C690 C689 1.385 . S
C690 C691 1.389 . S
C691 C690 1.389 . S
C691 C692 1.387 . S
C692 H677 0.930 . S
C692 C687 1.390 . S
C692 C691 1.387 . S
H693 C705 0.930 . S
H694 C707 0.930 . S
H695 C708 0.930 . S
H696 C712 0.959 . S
H697 C712 0.959 . S
H698 C712 0.961 . S
H699 C713 0.960 . S
H700 C713 0.961 . S
H701 C713 0.959 . S
H702 C716 0.929 . S
H703 C717 0.931 . S
H704 C719 0.930 . S
C705 H693 0.930 . S
C705 C706 1.399 . S
C705 C710 1.399 . S
C706 C705 1.399 . S
C706 C707 1.376 . S
C707 H694 0.930 . S
C707 C706 1.376 . S
C707 C708 1.388 . S
C708 H695 0.930 . S
C708 C707 1.388 . S
C708 C709 1.390 . S
C709 C708 1.390 . S
C709 C710 1.394 . S
C709 C715 1.465 . S
C710 C705 1.399 . S
C710 C709 1.394 . S
C710 C711 1.516 . S
C711 C710 1.516 . S
C711 C712 1.502 . S
C711 C713 1.561 . S
C711 C714 1.526 . S
C712 H696 0.959 . S
C712 H697 0.959 . S
C712 H698 0.961 . S
C712 C711 1.502 . S
C713 H699 0.960 . S
C713 H700 0.961 . S
C713 H701 0.959 . S
C713 C711 1.561 . S
C714 C711 1.526 . S
C714 C715 1.396 . S
C714 C719 1.390 . S
C715 C709 1.465 . S
C715 C714 1.396 . S
C715 C716 1.399 . S
C716 H702 0.929 . S
C716 C715 1.399 . S
C716 C717 1.385 . S
C717 H703 0.931 . S
C717 C716 1.385 . S
C717 C718 1.389 . S
C718 C717 1.389 . S
C718 C719 1.387 . S
C719 H704 0.930 . S
C719 C714 1.390 . S
C719 C718 1.387 . S
H720 C732 0.930 . S
H721 C734 0.930 . S
H722 C735 0.930 . S
H723 C739 0.959 . S
H724 C739 0.959 . S
H725 C739 0.961 . S
H726 C740 0.960 . S
H727 C740 0.961 . S
H728 C740 0.959 . S
H729 C743 0.929 . S
H730 C744 0.931 . S
H731 C746 0.930 . S
C732 H720 0.930 . S
C732 C733 1.399 . S
C732 C737 1.399 . S
C733 C732 1.399 . S
C733 C734 1.376 . S
C734 H721 0.930 . S
C734 C733 1.376 . S
C734 C735 1.388 . S
C735 H722 0.930 . S
C735 C734 1.388 . S
C735 C736 1.390 . S
C736 C735 1.390 . S
C736 C737 1.394 . S
C736 C742 1.465 . S
C737 C732 1.399 . S
C737 C736 1.394 . S
C737 C738 1.516 . S
C738 C737 1.516 . S
C738 C739 1.502 . S
C738 C740 1.561 . S
C738 C741 1.526 . S
C739 H723 0.959 . S
C739 H724 0.959 . S
C739 H725 0.961 . S
C739 C738 1.502 . S
C740 H726 0.960 . S
C740 H727 0.961 . S
C740 H728 0.959 . S
C740 C738 1.561 . S
C741 C738 1.526 . S
C741 C742 1.396 . S
C741 C746 1.390 . S
C742 C736 1.465 . S
C742 C741 1.396 . S
C742 C743 1.399 . S
C743 H729 0.929 . S
C743 C742 1.399 . S
C743 C744 1.385 . S
C744 H730 0.931 . S
C744 C743 1.385 . S
C744 C745 1.389 . S
C745 C744 1.389 . S
C745 C746 1.387 . S
C746 H731 0.930 . S
C746 C741 1.390 . S
C746 C745 1.387 . S
H747 C759 0.930 . S
H748 C761 0.930 . S
H749 C762 0.930 . S
H750 C766 0.959 . S
H751 C766 0.959 . S
H752 C766 0.961 . S
H753 C767 0.960 . S
H754 C767 0.961 . S
H755 C767 0.959 . S
H756 C770 0.929 . S
H757 C771 0.931 . S
H758 C773 0.930 . S
C759 H747 0.930 . S
C759 C760 1.399 . S
C759 C764 1.399 . S
C760 C759 1.399 . S
C760 C761 1.376 . S
C761 H748 0.930 . S
C761 C760 1.376 . S
C761 C762 1.388 . S
C762 H749 0.930 . S
C762 C761 1.388 . S
C762 C763 1.390 . S
C763 C762 1.390 . S
C763 C764 1.394 . S
C763 C769 1.465 . S
C764 C759 1.399 . S
C764 C763 1.394 . S
C764 C765 1.516 . S
C765 C764 1.516 . S
C765 C766 1.502 . S
C765 C767 1.561 . S
C765 C768 1.526 . S
C766 H750 0.959 . S
C766 H751 0.959 . S
C766 H752 0.961 . S
C766 C765 1.502 . S
C767 H753 0.960 . S
C767 H754 0.961 . S
C767 H755 0.959 . S
C767 C765 1.561 . S
C768 C765 1.526 . S
C768 C769 1.396 . S
C768 C773 1.390 . S
C769 C763 1.465 . S
C769 C768 1.396 . S
C769 C770 1.399 . S
C770 H756 0.929 . S
C770 C769 1.399 . S
C770 C771 1.385 . S
C771 H757 0.931 . S
C771 C770 1.385 . S
C771 C772 1.389 . S
C772 C771 1.389 . S
C772 C773 1.387 . S
C773 H758 0.930 . S
C773 C768 1.390 . S
C773 C772 1.387 . S
H774 C786 0.930 . S
H775 C788 0.930 . S
H776 C789 0.930 . S
H777 C793 0.959 . S
H778 C793 0.959 . S
H779 C793 0.961 . S
H780 C794 0.960 . S
H781 C794 0.961 . S
H782 C794 0.959 . S
H783 C797 0.929 . S
H784 C798 0.931 . S
H785 C800 0.930 . S
C786 H774 0.930 . S
C786 C787 1.399 . S
C786 C791 1.399 . S
C787 C786 1.399 . S
C787 C788 1.376 . S
C788 H775 0.930 . S
C788 C787 1.376 . S
C788 C789 1.388 . S
C789 H776 0.930 . S
C789 C788 1.388 . S
C789 C790 1.390 . S
C790 C789 1.390 . S
C790 C791 1.394 . S
C790 C796 1.465 . S
C791 C786 1.399 . S
C791 C790 1.394 . S
C791 C792 1.516 . S
C792 C791 1.516 . S
C792 C793 1.502 . S
C792 C794 1.561 . S
C792 C795 1.526 . S
C793 H777 0.959 . S
C793 H778 0.959 . S
C793 H779 0.961 . S
C793 C792 1.502 . S
C794 H780 0.960 . S
C794 H781 0.961 . S
C794 H782 0.959 . S
C794 C792 1.561 . S
C795 C792 1.526 . S
C795 C796 1.396 . S
C795 C800 1.390 . S
C796 C790 1.465 . S
C796 C795 1.396 . S
C796 C797 1.399 . S
C797 H783 0.929 . S
C797 C796 1.399 . S
C797 C798 1.385 . S
C798 H784 0.931 . S
C798 C797 1.385 . S
C798 C799 1.389 . S
C799 C798 1.389 . S
C799 C800 1.387 . S
C800 H785 0.930 . S
C800 C795 1.390 . S
C800 C799 1.387 . S
H801 C813 0.930 . S
H802 C815 0.930 . S
H803 C816 0.930 . S
H804 C820 0.959 . S
H805 C820 0.959 . S
H806 C820 0.961 . S
H807 C821 0.960 . S
H808 C821 0.961 . S
H809 C821 0.959 . S
H810 C824 0.929 . S
H811 C825 0.931 . S
H812 C827 0.930 . S
C813 H801 0.930 . S
C813 C814 1.399 . S
C813 C818 1.399 . S
C814 C813 1.399 . S
C814 C815 1.376 . S
C815 H802 0.930 . S
C815 C814 1.376 . S
C815 C816 1.388 . S
C816 H803 0.930 . S
C816 C815 1.388 . S
C816 C817 1.390 . S
C817 C816 1.390 . S
C817 C818 1.394 . S
C817 C823 1.465 . S
C818 C813 1.399 . S
C818 C817 1.394 . S
C818 C819 1.516 . S
C819 C818 1.516 . S
C819 C820 1.502 . S
C819 C821 1.561 . S
C819 C822 1.526 . S
C820 H804 0.959 . S
C820 H805 0.959 . S
C820 H806 0.961 . S
C820 C819 1.502 . S
C821 H807 0.960 . S
C821 H808 0.961 . S
C821 H809 0.959 . S
C821 C819 1.561 . S
C822 C819 1.526 . S
C822 C823 1.396 . S
C822 C827 1.390 . S
C823 C817 1.465 . S
C823 C822 1.396 . S
C823 C824 1.399 . S
C824 H810 0.929 . S
C824 C823 1.399 . S
C824 C825 1.385 . S
C825 H811 0.931 . S
C825 C824 1.385 . S
C825 C826 1.389 . S
C826 C825 1.389 . S
C826 C827 1.387 . S
C827 H812 0.930 . S
C827 C822 1.390 . S
C827 C826 1.387 . S
H828 C840 0.930 . S
H829 C842 0.930 . S
H830 C843 0.930 . S
H831 C847 0.959 . S
H832 C847 0.959 . S
H833 C847 0.961 . S
H834 C848 0.960 . S
H835 C848 0.961 . S
H836 C848 0.959 . S
H837 C851 0.929 . S
H838 C852 0.931 1_554 S
H839 C854 0.930 . S
C840 H828 0.930 . S
C840 C841 1.399 . S
C840 C845 1.399 . S
C841 C840 1.399 . S
C841 C842 1.376 . S
C842 H829 0.930 . S
C842 C841 1.376 . S
C842 C843 1.388 . S
C843 H830 0.930 . S
C843 C842 1.388 . S
C843 C844 1.390 . S
C844 C843 1.390 . S
C844 C845 1.394 . S
C844 C850 1.465 . S
C845 C840 1.399 . S
C845 C844 1.394 . S
C845 C846 1.516 . S
C846 C845 1.516 . S
C846 C847 1.502 . S
C846 C848 1.561 1_556 S
C846 C849 1.526 . S
C847 H831 0.959 . S
C847 H832 0.959 . S
C847 H833 0.961 . S
C847 C846 1.502 . S
C848 H834 0.960 . S
C848 H835 0.961 . S
C848 H836 0.959 . S
C848 C846 1.561 1_554 S
C849 C846 1.526 . S
C849 C850 1.396 . S
C849 C854 1.390 1_556 S
C850 C844 1.465 . S
C850 C849 1.396 . S
C850 C851 1.399 . S
C851 H837 0.929 . S
C851 C850 1.399 . S
C851 C852 1.385 . S
C852 H838 0.931 1_556 S
C852 C851 1.385 . S
C852 C853 1.389 1_556 S
C853 C852 1.389 1_554 S
C853 C854 1.387 . S
C854 H839 0.930 . S
C854 C849 1.390 1_554 S
C854 C853 1.387 . S
H855 C867 0.930 . S
H856 C869 0.930 . S
H857 C870 0.930 . S
H858 C874 0.959 . S
H859 C874 0.959 . S
H860 C874 0.961 . S
H861 C875 0.960 . S
H862 C875 0.961 . S
H863 C875 0.959 . S
H864 C878 0.929 . S
H865 C879 0.931 . S
H866 C881 0.930 . S
C867 H855 0.930 . S
C867 C868 1.399 . S
C867 C872 1.399 . S
C868 C867 1.399 . S
C868 C869 1.376 . S
C869 H856 0.930 . S
C869 C868 1.376 . S
C869 C870 1.388 . S
C870 H857 0.930 . S
C870 C869 1.388 . S
C870 C871 1.390 . S
C871 C870 1.390 . S
C871 C872 1.394 . S
C871 C877 1.465 . S
C872 C867 1.399 . S
C872 C871 1.394 . S
C872 C873 1.516 . S
C873 C872 1.516 . S
C873 C874 1.502 . S
C873 C875 1.561 . S
C873 C876 1.526 . S
C874 H858 0.959 . S
C874 H859 0.959 . S
C874 H860 0.961 . S
C874 C873 1.502 . S
C875 H861 0.960 . S
C875 H862 0.961 . S
C875 H863 0.959 . S
C875 C873 1.561 . S
C876 C873 1.526 . S
C876 C877 1.396 . S
C876 C881 1.390 . S
C877 C871 1.465 . S
C877 C876 1.396 . S
C877 C878 1.399 1_554 S
C878 H864 0.929 . S
C878 C877 1.399 1_556 S
C878 C879 1.385 . S
C879 H865 0.931 . S
C879 C878 1.385 . S
C879 C880 1.389 . S
C880 C879 1.389 . S
C880 C881 1.387 1_556 S
C881 H866 0.930 . S
C881 C876 1.390 . S
C881 C880 1.387 1_554 S
H882 C894 0.930 . S
H883 C896 0.930 . S
H884 C897 0.930 . S
H885 C901 0.959 . S
H886 C901 0.959 . S
H887 C901 0.961 . S
H888 C902 0.960 . S
H889 C902 0.961 . S
H890 C902 0.959 . S
H891 C905 0.929 . S
H892 C906 0.931 . S
H893 C908 0.930 . S
C894 H882 0.930 . S
C894 C895 1.399 . S
C894 C899 1.399 . S
C895 C894 1.399 . S
C895 C896 1.376 . S
C896 H883 0.930 . S
C896 C895 1.376 . S
C896 C897 1.388 . S
C897 H884 0.930 . S
C897 C896 1.388 . S
C897 C898 1.390 . S
C898 C897 1.390 . S
C898 C899 1.394 . S
C898 C904 1.465 . S
C899 C894 1.399 . S
C899 C898 1.394 . S
C899 C900 1.516 . S
C900 C899 1.516 . S
C900 C901 1.502 . S
C900 C902 1.561 . S
C900 C903 1.526 . S
C901 H885 0.959 . S
C901 H886 0.959 . S
C901 H887 0.961 . S
C901 C900 1.502 . S
C902 H888 0.960 . S
C902 H889 0.961 . S
C902 H890 0.959 . S
C902 C900 1.561 . S
C903 C900 1.526 . S
C903 C904 1.396 . S
C903 C908 1.390 . S
C904 C898 1.465 . S
C904 C903 1.396 . S
C904 C905 1.399 . S
C905 H891 0.929 . S
C905 C904 1.399 . S
C905 C906 1.385 . S
C906 H892 0.931 . S
C906 C905 1.385 . S
C906 C907 1.389 . S
C907 C906 1.389 . S
C907 C908 1.387 . S
C908 H893 0.930 . S
C908 C903 1.390 . S
C908 C907 1.387 . S
H909 C921 0.930 . S
H910 C923 0.930 . S
H911 C924 0.930 . S
H912 C928 0.959 . S
H913 C928 0.959 . S
H914 C928 0.961 . S
H915 C929 0.960 . S
H916 C929 0.961 . S
H917 C929 0.959 . S
H918 C932 0.929 . S
H919 C933 0.931 . S
H920 C935 0.930 . S
C921 H909 0.930 . S
C921 C922 1.399 . S
C921 C926 1.399 . S
C922 C921 1.399 . S
C922 C923 1.376 . S
C923 H910 0.930 . S
C923 C922 1.376 . S
C923 C924 1.388 . S
C924 H911 0.930 . S
C924 C923 1.388 . S
C924 C925 1.390 . S
C925 C924 1.390 . S
C925 C926 1.394 . S
C925 C931 1.465 . S
C926 C921 1.399 . S
C926 C925 1.394 . S
C926 C927 1.516 . S
C927 C926 1.516 . S
C927 C928 1.502 . S
C927 C929 1.561 . S
C927 C930 1.526 . S
C928 H912 0.959 . S
C928 H913 0.959 . S
C928 H914 0.961 . S
C928 C927 1.502 . S
C929 H915 0.960 . S
C929 H916 0.961 . S
C929 H917 0.959 . S
C929 C927 1.561 . S
C930 C927 1.526 . S
C930 C931 1.396 . S
C930 C935 1.390 . S
C931 C925 1.465 . S
C931 C930 1.396 . S
C931 C932 1.399 . S
C932 H918 0.929 . S
C932 C931 1.399 . S
C932 C933 1.385 . S
C933 H919 0.931 . S
C933 C932 1.385 . S
C933 C934 1.389 . S
C934 C933 1.389 . S
C934 C935 1.387 . S
C935 H920 0.930 . S
C935 C930 1.390 . S
C935 C934 1.387 . S
H936 C948 0.930 . S
H937 C950 0.930 . S
H938 C951 0.930 . S
H939 C955 0.959 . S
H940 C955 0.959 . S
H941 C955 0.961 . S
H942 C956 0.960 . S
H943 C956 0.961 . S
H944 C956 0.959 . S
H945 C959 0.929 . S
H946 C960 0.931 . S
H947 C962 0.930 . S
C948 H936 0.930 . S
C948 C949 1.399 . S
C948 C953 1.399 . S
C949 C948 1.399 . S
C949 C950 1.376 . S
C950 H937 0.930 . S
C950 C949 1.376 . S
C950 C951 1.388 . S
C951 H938 0.930 . S
C951 C950 1.388 . S
C951 C952 1.390 . S
C952 C951 1.390 . S
C952 C953 1.394 . S
C952 C958 1.465 . S
C953 C948 1.399 . S
C953 C952 1.394 . S
C953 C954 1.516 . S
C954 C953 1.516 . S
C954 C955 1.502 . S
C954 C956 1.561 . S
C954 C957 1.526 . S
C955 H939 0.959 . S
C955 H940 0.959 . S
C955 H941 0.961 . S
C955 C954 1.502 . S
C956 H942 0.960 . S
C956 H943 0.961 . S
C956 H944 0.959 . S
C956 C954 1.561 . S
C957 C954 1.526 . S
C957 C958 1.396 . S
C957 C962 1.390 1_556 S
C958 C952 1.465 . S
C958 C957 1.396 . S
C958 C959 1.399 . S
C959 H945 0.929 . S
C959 C958 1.399 . S
C959 C960 1.385 1_556 S
C960 H946 0.931 . S
C960 C959 1.385 1_554 S
C960 C961 1.389 . S
C961 C960 1.389 . S
C961 C962 1.387 . S
C962 H947 0.930 . S
C962 C957 1.390 1_554 S
C962 C961 1.387 . S
H963 C975 0.930 . S
H964 C977 0.930 . S
H965 C978 0.930 1_554 S
H966 C982 0.959 . S
H967 C982 0.959 . S
H968 C982 0.961 1_556 S
H969 C983 0.960 1_556 S
H970 C983 0.961 . S
H971 C983 0.959 . S
H972 C986 0.929 . S
H973 C987 0.931 . S
H974 C989 0.930 . S
C975 H963 0.930 . S
C975 C976 1.399 . S
C975 C980 1.399 . S
C976 C975 1.399 . S
C976 C977 1.376 . S
C977 H964 0.930 . S
C977 C976 1.376 . S
C977 C978 1.388 . S
C978 H965 0.930 1_556 S
C978 C977 1.388 . S
C978 C979 1.390 1_556 S
C979 C978 1.390 1_554 S
C979 C980 1.394 1_554 S
C979 C985 1.465 . S
C980 C975 1.399 . S
C980 C979 1.394 1_556 S
C980 C981 1.516 1_556 S
C981 C980 1.516 1_554 S
C981 C982 1.502 . S
C981 C983 1.561 . S
C981 C984 1.526 . S
C982 H966 0.959 . S
C982 H967 0.959 . S
C982 H968 0.961 1_554 S
C982 C981 1.502 . S
C983 H969 0.960 1_554 S
C983 H970 0.961 . S
C983 H971 0.959 . S
C983 C981 1.561 . S
C984 C981 1.526 . S
C984 C985 1.396 . S
C984 C989 1.390 . S
C985 C979 1.465 . S
C985 C984 1.396 . S
C985 C986 1.399 . S
C986 H972 0.929 . S
C986 C985 1.399 . S
C986 C987 1.385 . S
C987 H973 0.931 . S
C987 C986 1.385 . S
C987 C988 1.389 . S
C988 C987 1.389 . S
C988 C989 1.387 . S
C989 H974 0.930 . S
C989 C984 1.390 . S
C989 C988 1.387 . S
H990 C1002 0.930 . S
H991 C1004 0.930 . S
H992 C1005 0.930 . S
H993 C1009 0.959 . S
H994 C1009 0.959 . S
H995 C1009 0.961 . S
H996 C1010 0.960 . S
H997 C1010 0.961 . S
H998 C1010 0.959 . S
H999 C1013 0.929 . S
H1000 C1014 0.931 1_556 S
H1001 C1016 0.930 . S
C1002 H990 0.930 . S
C1002 C1003 1.399 . S
C1002 C1007 1.399 . S
C1003 C1002 1.399 . S
C1003 C1004 1.376 . S
C1004 H991 0.930 . S
C1004 C1003 1.376 . S
C1004 C1005 1.388 . S
C1005 H992 0.930 . S
C1005 C1004 1.388 . S
C1005 C1006 1.390 . S
C1006 C1005 1.390 . S
C1006 C1007 1.394 . S
C1006 C1012 1.465 . S
C1007 C1002 1.399 . S
C1007 C1006 1.394 . S
C1007 C1008 1.516 . S
C1008 C1007 1.516 . S
C1008 C1009 1.502 . S
C1008 C1010 1.561 . S
C1008 C1011 1.526 . S
C1009 H993 0.959 . S
C1009 H994 0.959 . S
C1009 H995 0.961 . S
C1009 C1008 1.502 . S
C1010 H996 0.960 . S
C1010 H997 0.961 . S
C1010 H998 0.959 . S
C1010 C1008 1.561 . S
C1011 C1008 1.526 . S
C1011 C1012 1.396 . S
C1011 C1016 1.390 . S
C1012 C1006 1.465 . S
C1012 C1011 1.396 . S
C1012 C1013 1.399 . S
C1013 H999 0.929 . S
C1013 C1012 1.399 . S
C1013 C1014 1.385 . S
C1014 H1000 0.931 1_554 S
C1014 C1013 1.385 . S
C1014 C1015 1.389 . S
C1015 C1014 1.389 . S
C1015 C1016 1.387 . S
C1016 H1001 0.930 . S
C1016 C1011 1.390 . S
C1016 C1015 1.387 . S
H1017 C1029 0.930 . S
H1018 C1031 0.930 . S
H1019 C1032 0.930 . S
H1020 C1036 0.959 . S
H1021 C1036 0.959 . S
H1022 C1036 0.961 . S
H1023 C1037 0.960 . S
H1024 C1037 0.961 . S
H1025 C1037 0.959 . S
H1026 C1040 0.929 . S
H1027 C1041 0.931 . S
H1028 C1043 0.930 . S
C1029 H1017 0.930 . S
C1029 C1030 1.399 . S
C1029 C1034 1.399 . S
C1030 C1029 1.399 . S
C1030 C1031 1.376 . S
C1031 H1018 0.930 . S
C1031 C1030 1.376 . S
C1031 C1032 1.388 . S
C1032 H1019 0.930 . S
C1032 C1031 1.388 . S
C1032 C1033 1.390 . S
C1033 C1032 1.390 . S
C1033 C1034 1.394 . S
C1033 C1039 1.465 . S
C1034 C1029 1.399 . S
C1034 C1033 1.394 . S
C1034 C1035 1.516 . S
C1035 C1034 1.516 . S
C1035 C1036 1.502 . S
C1035 C1037 1.561 . S
C1035 C1038 1.526 . S
C1036 H1020 0.959 . S
C1036 H1021 0.959 . S
C1036 H1022 0.961 . S
C1036 C1035 1.502 . S
C1037 H1023 0.960 . S
C1037 H1024 0.961 . S
C1037 H1025 0.959 . S
C1037 C1035 1.561 . S
C1038 C1035 1.526 . S
C1038 C1039 1.396 . S
C1038 C1043 1.390 . S
C1039 C1033 1.465 . S
C1039 C1038 1.396 . S
C1039 C1040 1.399 . S
C1040 H1026 0.929 . S
C1040 C1039 1.399 . S
C1040 C1041 1.385 . S
C1041 H1027 0.931 . S
C1041 C1040 1.385 . S
C1041 C1042 1.389 . S
C1042 C1041 1.389 . S
C1042 C1043 1.387 . S
C1043 H1028 0.930 . S
C1043 C1038 1.390 . S
C1043 C1042 1.387 . S
H1044 C1056 0.930 . S
H1045 C1058 0.930 . S
H1046 C1059 0.930 . S
H1047 C1063 0.959 . S
H1048 C1063 0.959 . S
H1049 C1063 0.961 . S
H1050 C1064 0.960 . S
H1051 C1064 0.961 . S
H1052 C1064 0.959 . S
H1053 C1067 0.929 . S
H1054 C1068 0.931 . S
H1055 C1070 0.930 . S
C1056 H1044 0.930 . S
C1056 C1057 1.399 . S
C1056 C1061 1.399 . S
C1057 C1056 1.399 . S
C1057 C1058 1.376 . S
C1058 H1045 0.930 . S
C1058 C1057 1.376 . S
C1058 C1059 1.388 . S
C1059 H1046 0.930 . S
C1059 C1058 1.388 . S
C1059 C1060 1.390 . S
C1060 C1059 1.390 . S
C1060 C1061 1.394 . S
C1060 C1066 1.465 . S
C1061 C1056 1.399 . S
C1061 C1060 1.394 . S
C1061 C1062 1.516 . S
C1062 C1061 1.516 . S
C1062 C1063 1.502 . S
C1062 C1064 1.561 . S
C1062 C1065 1.526 . S
C1063 H1047 0.959 . S
C1063 H1048 0.959 . S
C1063 H1049 0.961 . S
C1063 C1062 1.502 . S
C1064 H1050 0.960 . S
C1064 H1051 0.961 . S
C1064 H1052 0.959 . S
C1064 C1062 1.561 . S
C1065 C1062 1.526 . S
C1065 C1066 1.396 . S
C1065 C1070 1.390 . S
C1066 C1060 1.465 . S
C1066 C1065 1.396 . S
C1066 C1067 1.399 . S
C1067 H1053 0.929 . S
C1067 C1066 1.399 . S
C1067 C1068 1.385 . S
C1068 H1054 0.931 . S
C1068 C1067 1.385 . S
C1068 C1069 1.389 . S
C1069 C1068 1.389 . S
C1069 C1070 1.387 . S
C1070 H1055 0.930 . S
C1070 C1065 1.390 . S
C1070 C1069 1.387 . S
H1071 C1083 0.930 . S
H1072 C1085 0.930 . S
H1073 C1086 0.930 . S
H1074 C1090 0.959 . S
H1075 C1090 0.959 . S
H1076 C1090 0.961 . S
H1077 C1091 0.960 . S
H1078 C1091 0.961 . S
H1079 C1091 0.959 . S
H1080 C1094 0.929 . S
H1081 C1095 0.931 . S
H1082 C1097 0.930 . S
C1083 H1071 0.930 . S
C1083 C1084 1.399 . S
C1083 C1088 1.399 . S
C1084 C1083 1.399 . S
C1084 C1085 1.376 . S
C1085 H1072 0.930 . S
C1085 C1084 1.376 . S
C1085 C1086 1.388 . S
C1086 H1073 0.930 . S
C1086 C1085 1.388 . S
C1086 C1087 1.390 . S
C1087 C1086 1.390 . S
C1087 C1088 1.394 . S
C1087 C1093 1.465 . S
C1088 C1083 1.399 . S
C1088 C1087 1.394 . S
C1088 C1089 1.516 . S
C1089 C1088 1.516 . S
C1089 C1090 1.502 . S
C1089 C1091 1.561 . S
C1089 C1092 1.526 . S
C1090 H1074 0.959 . S
C1090 H1075 0.959 . S
C1090 H1076 0.961 . S
C1090 C1089 1.502 . S
C1091 H1077 0.960 . S
C1091 H1078 0.961 . S
C1091 H1079 0.959 . S
C1091 C1089 1.561 . S
C1092 C1089 1.526 . S
C1092 C1093 1.396 . S
C1092 C1097 1.390 . S
C1093 C1087 1.465 . S
C1093 C1092 1.396 . S
C1093 C1094 1.399 . S
C1094 H1080 0.929 . S
C1094 C1093 1.399 . S
C1094 C1095 1.385 . S
C1095 H1081 0.931 . S
C1095 C1094 1.385 . S
C1095 C1096 1.389 . S
C1096 C1095 1.389 . S
C1096 C1097 1.387 . S
C1097 H1082 0.930 . S
C1097 C1092 1.390 . S
C1097 C1096 1.387 . S
H1098 C1110 0.930 . S
H1099 C1112 0.930 . S
H1100 C1113 0.930 . S
H1101 C1117 0.959 . S
H1102 C1117 0.959 . S
H1103 C1117 0.961 . S
H1104 C1118 0.960 . S
H1105 C1118 0.961 . S
H1106 C1118 0.959 . S
H1107 C1121 0.929 . S
H1108 C1122 0.931 . S
H1109 C1124 0.930 . S
C1110 H1098 0.930 . S
C1110 C1111 1.399 . S
C1110 C1115 1.399 . S
C1111 C1110 1.399 . S
C1111 C1112 1.376 . S
C1112 H1099 0.930 . S
C1112 C1111 1.376 . S
C1112 C1113 1.388 . S
C1113 H1100 0.930 . S
C1113 C1112 1.388 . S
C1113 C1114 1.390 . S
C1114 C1113 1.390 . S
C1114 C1115 1.394 . S
C1114 C1120 1.465 . S
C1115 C1110 1.399 . S
C1115 C1114 1.394 . S
C1115 C1116 1.516 . S
C1116 C1115 1.516 . S
C1116 C1117 1.502 . S
C1116 C1118 1.561 . S
C1116 C1119 1.526 . S
C1117 H1101 0.959 . S
C1117 H1102 0.959 . S
C1117 H1103 0.961 . S
C1117 C1116 1.502 . S
C1118 H1104 0.960 . S
C1118 H1105 0.961 . S
C1118 H1106 0.959 . S
C1118 C1116 1.561 . S
C1119 C1116 1.526 . S
C1119 C1120 1.396 . S
C1119 C1124 1.390 . S
C1120 C1114 1.465 . S
C1120 C1119 1.396 . S
C1120 C1121 1.399 . S
C1121 H1107 0.929 . S
C1121 C1120 1.399 . S
C1121 C1122 1.385 . S
C1122 H1108 0.931 . S
C1122 C1121 1.385 . S
C1122 C1123 1.389 . S
C1123 C1122 1.389 . S
C1123 C1124 1.387 . S
C1124 H1109 0.930 . S
C1124 C1119 1.390 . S
C1124 C1123 1.387 . S
H1125 C1137 0.930 . S
H1126 C1139 0.930 . S
H1127 C1140 0.930 . S
H1128 C1144 0.959 . S
H1129 C1144 0.959 . S
H1130 C1144 0.961 . S
H1131 C1145 0.960 . S
H1132 C1145 0.961 . S
H1133 C1145 0.959 . S
H1134 C1148 0.929 . S
H1135 C1149 0.931 1_554 S
H1136 C1151 0.930 . S
C1137 H1125 0.930 . S
C1137 C1138 1.399 . S
C1137 C1142 1.399 . S
C1138 C1137 1.399 . S
C1138 C1139 1.376 . S
C1139 H1126 0.930 . S
C1139 C1138 1.376 . S
C1139 C1140 1.388 . S
C1140 H1127 0.930 . S
C1140 C1139 1.388 . S
C1140 C1141 1.390 . S
C1141 C1140 1.390 . S
C1141 C1142 1.394 . S
C1141 C1147 1.465 . S
C1142 C1137 1.399 . S
C1142 C1141 1.394 . S
C1142 C1143 1.516 . S
C1143 C1142 1.516 . S
C1143 C1144 1.502 . S
C1143 C1145 1.561 . S
C1143 C1146 1.526 . S
C1144 H1128 0.959 . S
C1144 H1129 0.959 . S
C1144 H1130 0.961 . S
C1144 C1143 1.502 . S
C1145 H1131 0.960 . S
C1145 H1132 0.961 . S
C1145 H1133 0.959 . S
C1145 C1143 1.561 . S
C1146 C1143 1.526 . S
C1146 C1147 1.396 . S
C1146 C1151 1.390 . S
C1147 C1141 1.465 . S
C1147 C1146 1.396 . S
C1147 C1148 1.399 . S
C1148 H1134 0.929 . S
C1148 C1147 1.399 . S
C1148 C1149 1.385 . S
C1149 H1135 0.931 1_556 S
C1149 C1148 1.385 . S
C1149 C1150 1.389 . S
C1150 C1149 1.389 . S
C1150 C1151 1.387 . S
C1151 H1136 0.930 . S
C1151 C1146 1.390 . S
C1151 C1150 1.387 . S
H1152 C1164 0.930 . S
H1153 C1166 0.930 . S
H1154 C1167 0.930 . S
H1155 C1171 0.959 . S
H1156 C1171 0.959 1_554 S
H1157 C1171 0.961 . S
H1158 C1172 0.960 . S
H1159 C1172 0.961 1_554 S
H1160 C1172 0.959 . S
H1161 C1175 0.929 . S
H1162 C1176 0.931 . S
H1163 C1178 0.930 . S
C1164 H1152 0.930 . S
C1164 C1165 1.399 . S
C1164 C1169 1.399 . S
C1165 C1164 1.399 . S
C1165 C1166 1.376 . S
C1166 H1153 0.930 . S
C1166 C1165 1.376 . S
C1166 C1167 1.388 . S
C1167 H1154 0.930 . S
C1167 C1166 1.388 . S
C1167 C1168 1.390 . S
C1168 C1167 1.390 . S
C1168 C1169 1.394 . S
C1168 C1174 1.465 . S
C1169 C1164 1.399 . S
C1169 C1168 1.394 . S
C1169 C1170 1.516 . S
C1170 C1169 1.516 . S
C1170 C1171 1.502 . S
C1170 C1172 1.561 . S
C1170 C1173 1.526 1_556 S
C1171 H1155 0.959 . S
C1171 H1156 0.959 1_556 S
C1171 H1157 0.961 . S
C1171 C1170 1.502 . S
C1172 H1158 0.960 . S
C1172 H1159 0.961 1_556 S
C1172 H1160 0.959 . S
C1172 C1170 1.561 . S
C1173 C1170 1.526 1_554 S
C1173 C1174 1.396 1_554 S
C1173 C1178 1.390 . S
C1174 C1168 1.465 . S
C1174 C1173 1.396 1_556 S
C1174 C1175 1.399 1_556 S
C1175 H1161 0.929 . S
C1175 C1174 1.399 1_554 S
C1175 C1176 1.385 . S
C1176 H1162 0.931 . S
C1176 C1175 1.385 . S
C1176 C1177 1.389 . S
C1177 C1176 1.389 . S
C1177 C1178 1.387 . S
C1178 H1163 0.930 . S
C1178 C1173 1.390 . S
C1178 C1177 1.387 . S
H1179 C1191 0.930 . S
H1180 C1193 0.930 . S
H1181 C1194 0.930 . S
H1182 C1198 0.959 . S
H1183 C1198 0.959 . S
H1184 C1198 0.961 . S
H1185 C1199 0.960 . S
H1186 C1199 0.961 . S
H1187 C1199 0.959 . S
H1188 C1202 0.929 . S
H1189 C1203 0.931 . S
H1190 C1205 0.930 . S
C1191 H1179 0.930 . S
C1191 C1192 1.399 . S
C1191 C1196 1.399 . S
C1192 C1191 1.399 . S
C1192 C1193 1.376 . S
C1193 H1180 0.930 . S
C1193 C1192 1.376 . S
C1193 C1194 1.388 . S
C1194 H1181 0.930 . S
C1194 C1193 1.388 . S
C1194 C1195 1.390 . S
C1195 C1194 1.390 . S
C1195 C1196 1.394 . S
C1195 C1201 1.465 . S
C1196 C1191 1.399 . S
C1196 C1195 1.394 . S
C1196 C1197 1.516 . S
C1197 C1196 1.516 . S
C1197 C1198 1.502 . S
C1197 C1199 1.561 . S
C1197 C1200 1.526 . S
C1198 H1182 0.959 . S
C1198 H1183 0.959 . S
C1198 H1184 0.961 . S
C1198 C1197 1.502 . S
C1199 H1185 0.960 . S
C1199 H1186 0.961 . S
C1199 H1187 0.959 . S
C1199 C1197 1.561 . S
C1200 C1197 1.526 . S
C1200 C1201 1.396 . S
C1200 C1205 1.390 1_554 S
C1201 C1195 1.465 . S
C1201 C1200 1.396 . S
C1201 C1202 1.399 . S
C1202 H1188 0.929 . S
C1202 C1201 1.399 . S
C1202 C1203 1.385 1_554 S
C1203 H1189 0.931 . S
C1203 C1202 1.385 1_556 S
C1203 C1204 1.389 . S
C1204 C1203 1.389 . S
C1204 C1205 1.387 . S
C1205 H1190 0.930 . S
C1205 C1200 1.390 1_556 S
C1205 C1204 1.387 . S
C409 C285 1.600 . S
C421 C21 1.611 . S
C436 C318 1.611 . S
C448 C54 1.601 . S
C463 C351 1.600 . S
C475 C87 1.609 . S
C490 C384 1.619 . S
C502 C120 1.611 . S
C517 C153 1.608 . S
C529 C219 1.601 . S
C544 C252 1.619 . S
C556 C186 1.611 . S
C571 C7 1.204 . S
C583 C370 1.250 . S
C598 C205 1.196 . S
C610 C40 1.271 . S
C625 C73 1.288 . S
C637 C238 1.197 . S
C652 C106 1.293 . S
C664 C271 1.266 . S
C679 C304 1.306 . S
C691 C139 1.215 . S
C706 C172 1.275 . S
C718 C337 1.285 . S
C733 C18 1.353 . S
C745 C348 1.392 . S
C760 C51 1.383 . S
C772 C381 1.340 . S
C787 C216 1.395 . S
C799 C84 1.336 . S
C814 C249 1.347 . S
C826 C117 1.396 . S
C841 C150 1.377 . S
C853 C282 1.373 . S
C868 C315 1.335 . S
C880 C183 1.392 . S
C895 N13 1.005 . S
C907 N2 1.022 . S
C922 N35 1.019 . S
C934 N46 1.008 . S
C949 N79 1.030 . S
C961 N68 0.989 . S
C976 N112 1.010 . S
C988 N101 1.006 . S
C1003 N134 1.023 . S
C1015 N145 1.004 1_554 S
C1030 N167 1.018 . S
C1042 N178 0.999 . S
C1057 N200 0.990 . S
C1069 N211 1.028 . S
C1084 N233 0.990 . S
C1096 N244 1.027 . S
C1111 N266 1.018 . S
C1123 N277 0.999 . S
C1138 N299 1.023 . S
C1150 N310 1.004 1_556 S
C1165 N332 0.988 . S
C1177 N343 1.031 . S
C1192 N376 1.022 . S
C1204 N365 0.995 . S
