# Generated by pormake.
# Topology qtz-e, (6)-cn, num edge types: 1
# Building blocks:
#     Node 0, Type 0, BuildingBlock: PAMTUU_clean_sbu_0, # of connection points: 6
#     Node 1, Type 0, BuildingBlock: PAMTUU_clean_sbu_0, # of connection points: 6
#     Node 2, Type 0, BuildingBlock: PAMTUU_clean_sbu_0, # of connection points: 6
#     Node 3, Type 0, BuildingBlock: PAMTUU_clean_sbu_0, # of connection points: 6
#     Node 4, Type 0, BuildingBlock: PAMTUU_clean_sbu_0, # of connection points: 6
#     Node 5, Type 0, BuildingBlock: PAMTUU_clean_sbu_0, # of connection points: 6
#     Edge 6, Type (0, 0), BuildingBlock: CIFDUS_clean_linker_0, # of connection points: 2
#     Edge 7, Type (0, 0), BuildingBlock: CIFDUS_clean_linker_0, # of connection points: 2
#     Edge 8, Type (0, 0), BuildingBlock: CIFDUS_clean_linker_0, # of connection points: 2
#     Edge 9, Type (0, 0), BuildingBlock: CIFDUS_clean_linker_0, # of connection points: 2
#     Edge 10, Type (0, 0), BuildingBlock: CIFDUS_clean_linker_0, # of connection points: 2
#     Edge 11, Type (0, 0), BuildingBlock: CIFDUS_clean_linker_0, # of connection points: 2
#     Edge 12, Type (0, 0), BuildingBlock: CIFDUS_clean_linker_0, # of connection points: 2
#     Edge 13, Type (0, 0), BuildingBlock: CIFDUS_clean_linker_0, # of connection points: 2
#     Edge 14, Type (0, 0), BuildingBlock: CIFDUS_clean_linker_0, # of connection points: 2
#     Edge 15, Type (0, 0), BuildingBlock: CIFDUS_clean_linker_0, # of connection points: 2
#     Edge 16, Type (0, 0), BuildingBlock: CIFDUS_clean_linker_0, # of connection points: 2
#     Edge 17, Type (0, 0), BuildingBlock: CIFDUS_clean_linker_0, # of connection points: 2
#     Edge 18, Type (0, 0), BuildingBlock: CIFDUS_clean_linker_0, # of connection points: 2
#     Edge 19, Type (0, 0), BuildingBlock: CIFDUS_clean_linker_0, # of connection points: 2
#     Edge 20, Type (0, 0), BuildingBlock: CIFDUS_clean_linker_0, # of connection points: 2
#     Edge 21, Type (0, 0), BuildingBlock: CIFDUS_clean_linker_0, # of connection points: 2
#     Edge 22, Type (0, 0), BuildingBlock: CIFDUS_clean_linker_0, # of connection points: 2
#     Edge 23, Type (0, 0), BuildingBlock: CIFDUS_clean_linker_0, # of connection points: 2
# Relax obj value: 0.215
# Max RMSD: 0.219
# Mean RMSD: 0.219
data_MOF--net-qtz-e--node1-PAMTUU_clean_sbu_0--edge1-CIFDUS_clean_linker_0
_symmetry_space_group_name_H-M    P1
_symmetry_Int_Tables_number       1
_symmetry_cell_setting            triclinic
loop_
_symmetry_equiv_pos_as_xyz
'x, y, z'
_cell_length_a     23.668741
_cell_length_b     23.663944
_cell_length_c     46.472467
_cell_angle_alpha  89.890126
_cell_angle_beta   90.152575
_cell_angle_gamma 119.65318
loop_
_atom_site_label
_atom_site_type_symbol
_atom_site_fract_x
_atom_site_fract_y
_atom_site_fract_z
_atom_type_partial_charge
Tb0 Tb 0.24495 0.3344 0.11862 0.0
Tb1 Tb 0.28419 0.4704 0.08164 0.0
C2 C 0.39241 0.43939 0.10689 0.0
C3 C 0.16825 0.21465 0.17721 0.0
C4 C 0.10484 0.17941 0.23142 0.0
C5 C 0.09936 0.13161 0.21174 0.0
C6 C 0.1308 0.14908 0.18501 0.0
C7 C 0.1731 0.26262 0.19646 0.0
C8 C 0.14198 0.24525 0.22329 0.0
C9 C 0.20144 0.23253 0.14896 0.0
O10 O 0.28308 0.41291 0.14964 0.0
O11 O 0.26934 0.49061 0.12568 0.0
O12 O 0.17955 0.40997 0.0823 0.0
O13 O 0.16903 0.35964 0.12505 0.0
O14 O 0.33935 0.57164 0.07641 0.0
O15 O 0.25868 0.51301 0.0482 0.0
O16 O 0.29803 0.4098 0.05084 0.0
O17 O 0.24411 0.30895 0.07305 0.0
O18 O 0.34996 0.37931 0.11445 0.0
O19 O 0.37652 0.48032 0.09514 0.0
C20 C 0.28024 0.46695 0.14932 0.0
O21 O 0.1691 0.23983 0.12788 0.0
O22 O 0.26191 0.27893 0.14919 0.0
C23 C 0.14732 0.385 0.10601 0.0
C24 C 0.34633 0.60469 0.02805 0.0
C25 C 0.41173 0.66132 0.9766 0.0
C26 C 0.35777 0.66697 0.98496 0.0
C27 C 0.32541 0.63895 1.01055 0.0
C28 C 0.40092 0.59977 0.0201 0.0
C29 C 0.43381 0.62844 0.99457 0.0
C30 C 0.3076 0.57065 0.05329 0.0
C31 C 0.27304 0.34636 0.05053 0.0
H32 H 0.07027 0.08043 0.21685 0.0
H33 H 0.12581 0.11125 0.17039 0.0
H34 H 0.20134 0.3136 0.19083 0.0
H35 H 0.14809 0.28358 0.23783 0.0
H36 H 0.34031 0.69266 0.97156 0.0
H37 H 0.28314 0.64281 0.01637 0.0
H38 H 0.41719 0.57272 0.03328 0.0
H39 H 0.47508 0.62317 0.98841 0.0
Tb40 Tb 0.75421 0.09448 0.49359 0.0
Tb41 Tb 0.66201 0.14499 0.52515 0.0
C42 C 0.60227 0.02048 0.48675 0.0
C43 C 0.85916 0.08113 0.43834 0.0
C44 C 0.92087 0.1185 0.38381 0.0
C45 C 0.86467 0.12269 0.38977 0.0
C46 C 0.83433 0.1044 0.41671 0.0
C47 C 0.91506 0.07685 0.43261 0.0
C48 C 0.9456 0.0953 0.40568 0.0
C49 C 0.82816 0.06307 0.46706 0.0
O50 O 0.74689 0.16047 0.46335 0.0
O51 O 0.65454 0.16051 0.47937 0.0
O52 O 0.75151 0.23145 0.51474 0.0
O53 O 0.81853 0.18756 0.51438 0.0
O54 O 0.5712 0.12228 0.54247 0.0
O55 O 0.65134 0.2205 0.54292 0.0
O56 O 0.70779 0.11737 0.55894 0.0
O57 O 0.7182 0.03987 0.53387 0.0
O58 O 0.65828 0.03876 0.47416 0.0
O59 O 0.59815 0.04597 0.51114 0.0
C60 C 0.69912 0.17312 0.45961 0.0
O61 O 0.84853 0.10985 0.48582 0.0
O62 O 0.76505 0.02797 0.46741 0.0
C63 C 0.80973 0.23828 0.51447 0.0
C64 C 0.57878 0.1871 0.58204 0.0
C65 C 0.54895 0.19566 0.63972 0.0
C66 C 0.61332 0.216 0.63169 0.0
C67 C 0.62813 0.21126 0.60303 0.0
C68 C 0.51471 0.16735 0.59005 0.0
C69 C 0.49982 0.17136 0.61868 0.0
C70 C 0.5926 0.1812 0.55181 0.0
C71 C 0.71133 0.06374 0.55838 0.0
H72 H 0.84351 0.13946 0.37352 0.0
H73 H 0.79135 0.1084 0.42062 0.0
H74 H 0.93544 0.05964 0.44905 0.0
H75 H 0.98929 0.09237 0.4022 0.0
H76 H 0.65182 0.23447 0.64763 0.0
H77 H 0.67793 0.22623 0.59732 0.0
H78 H 0.47611 0.14858 0.57414 0.0
H79 H 0.4499 0.15598 0.62436 0.0
Tb80 Tb 0.65011 0.88905 0.7839 0.0
Tb81 Tb 0.50611 0.80856 0.75037 0.0
C82 C 0.55027 0.93949 0.78336 0.0
C83 C 0.77544 0.92221 0.83935 0.0
C84 C 0.81376 0.89067 0.89218 0.0
C85 C 0.85592 0.94813 0.87718 0.0
C86 C 0.83689 0.96372 0.85112 0.0
C87 C 0.73311 0.86473 0.8541 0.0
C88 C 0.75192 0.84922 0.88029 0.0
C89 C 0.75528 0.94008 0.81221 0.0
O90 O 0.57825 0.84396 0.81781 0.0
O91 O 0.48746 0.76686 0.79323 0.0
O92 O 0.5642 0.76292 0.74196 0.0
O93 O 0.61671 0.78548 0.78452 0.0
O94 O 0.42348 0.80671 0.73326 0.0
O95 O 0.43386 0.72106 0.73212 0.0
O96 O 0.56955 0.88012 0.71917 0.0
O97 O 0.67201 0.91359 0.73818 0.0
O98 O 0.61176 0.95566 0.78013 0.0
O99 O 0.50285 0.88053 0.77798 0.0
C100 C 0.5198 0.79235 0.81719 0.0
O101 O 0.7435 0.90106 0.79038 0.0
O102 O 0.71081 0.95701 0.81473 0.0
C103 C 0.5858 0.74418 0.76378 0.0
C104 C 0.38223 0.73991 0.69304 0.0
C105 C 0.34313 0.73478 0.63567 0.0
C106 C 0.2994 0.69172 0.65618 0.0
C107 C 0.31885 0.69449 0.68476 0.0
C108 C 0.4269 0.78092 0.67237 0.0
C109 C 0.40739 0.77858 0.64387 0.0
C110 C 0.40006 0.74775 0.72347 0.0
C111 C 0.63328 0.91117 0.71708 0.0
H112 H 0.90348 0.98171 0.8858 0.0
H113 H 0.87014 0.00851 0.84022 0.0
H114 H 0.6855 0.83184 0.84532 0.0
H115 H 0.71838 0.8043 0.891 0.0
H116 H 0.24946 0.65788 0.65038 0.0
H117 H 0.2839 0.66265 0.70054 0.0
H118 H 0.47618 0.81612 0.67847 0.0
H119 H 0.4421 0.81178 0.62836 0.0
Tb120 Tb 0.89025 0.64711 0.1596 0.0
Tb121 Tb 0.80673 0.50192 0.1912 0.0
C122 C 0.93836 0.54544 0.15911 0.0
C123 C 0.91926 0.76781 0.10404 0.0
C124 C 0.87777 0.79414 0.05072 0.0
C125 C 0.94111 0.83536 0.0613 0.0
C126 C 0.96162 0.82222 0.08763 0.0
C127 C 0.85606 0.72675 0.09368 0.0
C128 C 0.83559 0.73962 0.06738 0.0
C129 C 0.94137 0.7519 0.13119 0.0
O130 O 0.84443 0.5761 0.12543 0.0
O131 O 0.76328 0.48609 0.14867 0.0
O132 O 0.76124 0.56045 0.19928 0.0
O133 O 0.78753 0.6166 0.15764 0.0
O134 O 0.79931 0.414 0.20467 0.0
O135 O 0.7218 0.4346 0.21289 0.0
O136 O 0.8824 0.5634 0.22154 0.0
O137 O 0.90738 0.66579 0.20599 0.0
O138 O 0.95593 0.60725 0.16285 0.0
O139 O 0.87843 0.49883 0.16347 0.0
C140 C 0.79002 0.51987 0.12518 0.0
O141 O 0.90432 0.74141 0.15363 0.0
O142 O 0.95907 0.70793 0.12901 0.0
C143 C 0.74458 0.58438 0.17757 0.0
C144 C 0.74273 0.37581 0.24801 0.0
C145 C 0.74261 0.3338 0.30462 0.0
C146 C 0.69005 0.29671 0.28607 0.0
C147 C 0.69026 0.31755 0.2579 0.0
C148 C 0.79421 0.41399 0.26675 0.0
C149 C 0.79431 0.39306 0.29481 0.0
C150 C 0.74457 0.39551 0.21797 0.0
C151 C 0.9087 0.6264 0.22585 0.0
H152 H 0.97478 0.87828 0.04939 0.0
H153 H 0.01066 0.85446 0.09513 0.0
H154 H 0.82256 0.68417 0.10583 0.0
H155 H 0.7869 0.70605 0.05991 0.0
H156 H 0.64986 0.25062 0.29305 0.0
H157 H 0.65011 0.28764 0.24367 0.0
H158 H 0.83488 0.45933 0.25948 0.0
H159 H 0.83504 0.42293 0.30877 0.0
Tb160 Tb 0.10168 0.7478 0.44694 0.0
Tb161 Tb 0.14941 0.65011 0.41823 0.0
C162 C 0.0238 0.59665 0.45496 0.0
C163 C 0.08366 0.84996 0.50225 0.0
C164 C 0.11327 0.90274 0.55879 0.0
C165 C 0.09918 0.83841 0.5534 0.0
C166 C 0.08492 0.8125 0.52549 0.0
C167 C 0.0972 0.91385 0.50747 0.0
C168 C 0.11186 0.93997 0.53535 0.0
C169 C 0.07253 0.82459 0.47237 0.0
O170 O 0.16574 0.73879 0.47801 0.0
O171 O 0.15807 0.64152 0.46425 0.0
O172 O 0.23727 0.74077 0.4264 0.0
O173 O 0.19451 0.80898 0.42561 0.0
O174 O 0.12203 0.56432 0.39529 0.0
O175 O 0.2212 0.62494 0.40926 0.0
O176 O 0.13157 0.70086 0.38363 0.0
O177 O 0.05211 0.71409 0.40516 0.0
O178 O 0.04363 0.65317 0.46739 0.0
O179 O 0.04844 0.59192 0.4305 0.0
C180 C 0.17413 0.68862 0.48298 0.0
O181 O 0.12457 0.84362 0.45692 0.0
O182 O 0.03224 0.76271 0.46883 0.0
C183 C 0.24471 0.79938 0.42629 0.0
C184 C 0.20488 0.56969 0.36536 0.0
C185 C 0.24652 0.55104 0.31138 0.0
C186 C 0.2788 0.55007 0.33666 0.0
C187 C 0.2579 0.55901 0.36343 0.0
C188 C 0.17409 0.5733 0.34012 0.0
C189 C 0.19453 0.56371 0.31337 0.0
C190 C 0.18148 0.57503 0.39387 0.0
C191 C 0.07863 0.70536 0.38185 0.0
H192 H 0.09885 0.80773 0.57079 0.0
H193 H 0.07543 0.76328 0.52205 0.0
H194 H 0.09749 0.94403 0.48985 0.0
H195 H 0.12355 0.98996 0.53836 0.0
H196 H 0.31969 0.54152 0.3358 0.0
H197 H 0.28256 0.55664 0.38269 0.0
H198 H 0.13332 0.58205 0.34104 0.0
H199 H 0.16807 0.56397 0.29437 0.0
Tb200 Tb 0.32851 0.23544 0.82404 0.0
Tb201 Tb 0.46907 0.31022 0.85857 0.0
C202 C 0.41174 0.38612 0.83046 0.0
C203 C 0.20627 0.14331 0.76739 0.0
C204 C 0.17401 0.08254 0.71251 0.0
C205 C 0.12888 0.09274 0.72819 0.0
C206 C 0.14494 0.12292 0.75523 0.0
C207 C 0.25099 0.13179 0.7523 0.0
C208 C 0.23507 0.10172 0.72518 0.0
C209 C 0.22443 0.18011 0.79478 0.0
O210 O 0.398 0.23681 0.7941 0.0
O211 O 0.49382 0.31951 0.8127 0.0
O212 O 0.46091 0.21978 0.8454 0.0
O213 O 0.35138 0.15863 0.83569 0.0
O214 O 0.55567 0.39806 0.86583 0.0
O215 O 0.53616 0.30906 0.88747 0.0
O216 O 0.39448 0.26473 0.89157 0.0
O217 O 0.30923 0.26188 0.86668 0.0
O218 O 0.38088 0.33862 0.81197 0.0
O219 O 0.42837 0.37382 0.85548 0.0
C220 C 0.46028 0.27844 0.79198 0.0
O221 O 0.23642 0.15325 0.81674 0.0
O222 O 0.26772 0.24141 0.79262 0.0
C223 C 0.40935 0.16419 0.83932 0.0
C224 C 0.59851 0.4065 0.91237 0.0
C225 C 0.6478 0.46252 0.96627 0.0
C226 C 0.58048 0.42238 0.9623 0.0
C227 C 0.5559 0.39464 0.93543 0.0
C228 C 0.66518 0.44857 0.91592 0.0
C229 C 0.68973 0.47653 0.94267 0.0
C230 C 0.57522 0.37156 0.8852 0.0
C231 C 0.33829 0.26337 0.89117 0.0
H232 H 0.081 0.07765 0.71952 0.0
H233 H 0.10968 0.13128 0.76646 0.0
H234 H 0.29875 0.14727 0.76122 0.0
H235 H 0.2714 0.09538 0.71379 0.0
H236 H 0.54714 0.41135 0.98009 0.0
H237 H 0.50407 0.36235 0.93289 0.0
H238 H 0.69854 0.45795 0.89828 0.0
H239 H 0.74186 0.50663 0.94519 0.0
H240 H 0.25254 0.60656 0.25917 0.0
H241 H 0.2784 0.45715 0.30045 0.0
H242 H 0.29788 0.42289 0.25397 0.0
H243 H 0.2992 0.4295 0.20181 0.0
H244 H 0.26521 0.57285 0.15961 0.0
H245 H 0.25723 0.61531 0.20639 0.0
C246 C 0.26241 0.5665 0.25798 0.0
C247 C 0.26391 0.53448 0.28327 0.0
C248 C 0.27184 0.54578 0.23108 0.0
C249 C 0.27792 0.48337 0.28141 0.0
C250 C 0.28851 0.46331 0.2548 0.0
C251 C 0.29045 0.47032 0.20271 0.0
C252 C 0.28228 0.49756 0.17722 0.0
C253 C 0.28445 0.49341 0.22953 0.0
C254 C 0.27156 0.55083 0.1789 0.0
C255 C 0.26677 0.57501 0.20564 0.0
H256 H 0.42272 0.17157 0.76033 0.0
H257 H 0.57134 0.3733 0.76583 0.0
H258 H 0.61646 0.36379 0.71965 0.0
H259 H 0.60627 0.29967 0.67577 0.0
H260 H 0.45378 0.09929 0.67101 0.0
H261 H 0.41691 0.10676 0.71908 0.0
C262 C 0.46498 0.2137 0.75145 0.0
C263 C 0.49293 0.27349 0.766 0.0
C264 C 0.48952 0.20801 0.72506 0.0
C265 C 0.54883 0.32695 0.75478 0.0
C266 C 0.57433 0.32151 0.7284 0.0
C267 C 0.56566 0.25756 0.68556 0.0
C268 C 0.53217 0.19921 0.66994 0.0
C269 C 0.54409 0.26256 0.71306 0.0
C270 C 0.47951 0.14486 0.6826 0.0
C271 C 0.45856 0.14907 0.71002 0.0
H272 H 0.35244 0.6417 0.9251 0.0
H273 H 0.54104 0.73948 0.9657 0.0
H274 H 0.59162 0.78829 0.91953 0.0
H275 H 0.58085 0.80637 0.86832 0.0
H276 H 0.3921 0.70603 0.8276 0.0
H277 H 0.34257 0.65507 0.87336 0.0
C278 C 0.4046 0.67386 0.92377 0.0
C279 C 0.44305 0.68786 0.94863 0.0
C280 C 0.43303 0.70139 0.89731 0.0
C281 C 0.51068 0.72827 0.94672 0.0
C282 C 0.53943 0.7563 0.92043 0.0
C283 C 0.52888 0.77343 0.86943 0.0
C284 C 0.49009 0.76061 0.84469 0.0
C285 C 0.50089 0.74381 0.89569 0.0
C286 C 0.42298 0.71695 0.84639 0.0
C287 C 0.39461 0.68782 0.87252 0.0
H288 H 0.7957 0.23088 0.42062 0.0
H289 H 0.59752 0.18347 0.437 0.0
H290 H 0.5938 0.23035 0.39051 0.0
H291 H 0.64646 0.2825 0.3447 0.0
H292 H 0.84468 0.32951 0.32916 0.0
H293 H 0.84881 0.28506 0.37604 0.0
C294 C 0.75153 0.23061 0.41408 0.0
C295 C 0.69678 0.20329 0.43214 0.0
C296 C 0.74983 0.25763 0.38752 0.0
C297 C 0.64034 0.20424 0.42347 0.0
C298 C 0.63814 0.23087 0.39689 0.0
C299 C 0.69043 0.28287 0.35165 0.0
C300 C 0.74516 0.30915 0.33358 0.0
C301 C 0.69247 0.25728 0.37866 0.0
C302 C 0.80219 0.31015 0.34287 0.0
C303 C 0.80448 0.28447 0.36957 0.0
H304 H 0.27293 0.63313 0.59991 0.0
H305 H 0.36188 0.84178 0.60615 0.0
H306 H 0.31782 0.84585 0.55911 0.0
H307 H 0.25096 0.78984 0.51723 0.0
H308 H 0.16309 0.58131 0.51018 0.0
H309 H 0.2097 0.57729 0.55668 0.0
C310 C 0.28265 0.67936 0.59085 0.0
C311 C 0.32033 0.73701 0.60634 0.0
C312 C 0.25717 0.68131 0.56385 0.0
C313 C 0.33343 0.79685 0.5944 0.0
C314 C 0.30794 0.79917 0.56765 0.0
C315 C 0.24187 0.74348 0.52591 0.0
C316 C 0.20325 0.6859 0.51055 0.0
C317 C 0.26922 0.74166 0.55237 0.0
C318 C 0.19275 0.62629 0.52172 0.0
C319 C 0.21924 0.62395 0.54827 0.0
H320 H 0.81511 0.59072 0.07654 0.0
H321 H 0.68499 0.40118 0.11202 0.0
H322 H 0.62595 0.36823 0.06627 0.0
H323 H 0.61478 0.39244 0.0157 0.0
H324 H 0.74348 0.58366 0.98151 0.0
H325 H 0.79943 0.61732 0.02776 0.0
C326 C 0.7739 0.5421 0.07441 0.0
C327 C 0.75502 0.49817 0.09755 0.0
C328 C 0.73977 0.5241 0.04842 0.0
C329 C 0.70094 0.43569 0.09441 0.0
C330 C 0.66703 0.41696 0.06833 0.0
C331 C 0.65419 0.44186 0.01859 0.0
C332 C 0.67534 0.48545 0.99525 0.0
C333 C 0.6863 0.46073 0.04516 0.0
C334 C 0.72696 0.5491 0.99912 0.0
C335 C 0.75891 0.56831 0.0255 0.0
H336 H 0.44081 0.42052 0.15666 0.0
H337 H 0.49813 0.52091 0.07529 0.0
H338 H 0.61195 0.57735 0.09071 0.0
H339 H 0.69419 0.60039 0.12761 0.0
H340 H 0.63774 0.50274 0.2098 0.0
H341 H 0.52417 0.44448 0.19408 0.0
C342 C 0.47851 0.45386 0.14217 0.0
C343 C 0.46147 0.46583 0.1147 0.0
C344 C 0.54357 0.4879 0.1516 0.0
C345 C 0.51035 0.51049 0.09639 0.0
C346 C 0.57525 0.54314 0.1053 0.0
C347 C 0.65715 0.56704 0.14234 0.0
C348 C 0.67474 0.55645 0.17001 0.0
C349 C 0.59224 0.53297 0.133 0.0
C350 C 0.62574 0.51241 0.18852 0.0
C351 C 0.56079 0.47856 0.17943 0.0
H352 H 0.0305 0.48639 0.45455 0.0
H353 H 0.92355 0.57224 0.49141 0.0
H354 H 0.85191 0.46976 0.51632 0.0
H355 H 0.81554 0.35388 0.52449 0.0
H356 H 0.92483 0.26959 0.48833 0.0
H357 H 1.00128 0.37432 0.4669 0.0
C358 C 0.99128 0.48255 0.46796 0.0
C359 C 0.98094 0.536 0.4706 0.0
C360 C 0.95155 0.42425 0.4826 0.0
C361 C 0.9316 0.53129 0.48877 0.0
C362 C 0.89093 0.47288 0.50304 0.0
C363 C 0.85687 0.35876 0.5124 0.0
C364 C 0.86429 0.30389 0.50789 0.0
C365 C 0.89997 0.41882 0.49977 0.0
C366 C 0.91826 0.31105 0.49235 0.0
C367 C 0.9615 0.37074 0.47977 0.0
H368 H 0.52482 0.16668 0.84031 0.0
H369 H 0.32227 0.04134 0.81913 0.0
H370 H 0.34829 0.96037 0.79996 0.0
H371 H 0.42984 0.92812 0.78729 0.0
H372 H 0.63262 0.0585 0.80641 0.0
H373 H 0.60491 0.13555 0.82781 0.0
C374 C 0.48578 0.1215 0.83178 0.0
C375 C 0.42138 0.11022 0.83135 0.0
C376 C 0.50139 0.07661 0.81997 0.0
C377 C 0.37207 0.05122 0.82004 0.0
C378 C 0.38709 0.00519 0.80884 0.0
C379 C 0.46806 0.97342 0.79611 0.0
C380 C 0.53342 0.98746 0.79516 0.0
C381 C 0.45179 0.01788 0.80831 0.0
C382 C 0.58212 0.04649 0.80664 0.0
C383 C 0.56625 0.09046 0.81904 0.0
H384 H 0.56605 0.68977 0.81655 0.0
H385 H 0.53249 0.64042 0.72644 0.0
H386 H 0.47176 0.5244 0.73895 0.0
H387 H 0.42839 0.4371 0.77599 0.0
H388 H 0.45907 0.49068 0.86583 0.0
H389 H 0.51913 0.60518 0.85283 0.0
C390 C 0.54628 0.65385 0.79949 0.0
C391 C 0.55492 0.6738 0.77052 0.0
C392 C 0.50971 0.58794 0.80686 0.0
C393 C 0.52735 0.6263 0.74888 0.0
C394 C 0.49219 0.56005 0.75606 0.0
C395 C 0.44739 0.47391 0.79268 0.0
C396 C 0.43929 0.45515 0.82186 0.0
C397 C 0.48269 0.54027 0.78504 0.0
C398 C 0.46469 0.50355 0.84322 0.0
C399 C 0.49945 0.56915 0.83582 0.0
H400 H 0.15163 0.50026 0.09839 0.0
H401 H 0.03614 0.31032 0.13608 0.0
H402 H 0.96136 0.34372 0.15602 0.0
H403 H 0.93076 0.42768 0.16363 0.0
H404 H 0.05091 0.62044 0.12913 0.0
H405 H 0.12294 0.58563 0.10745 0.0
C406 C 0.1093 0.46586 0.1105 0.0
C407 C 0.09815 0.40232 0.11516 0.0
C408 C 0.06831 0.48636 0.12288 0.0
C409 C 0.04477 0.35898 0.13181 0.0
C410 C 1.00244 0.37827 0.14335 0.0
C411 C 0.97275 0.4622 0.15138 0.0
C412 C 0.98529 0.52658 0.1479 0.0
C413 C 0.01409 0.44198 0.13923 0.0
C414 C 0.04035 0.57079 0.13228 0.0
C415 C 0.08125 0.55075 0.11971 0.0
H416 H 0.36073 0.80367 0.4193 0.0
H417 H 0.27543 0.91659 0.45013 0.0
H418 H 0.37912 0.99483 0.47177 0.0
H419 H 0.4912 0.02598 0.4855 0.0
H420 H 0.5783 0.9161 0.45332 0.0
H421 H 0.47633 0.84118 0.42886 0.0
C422 C 0.36514 0.84608 0.43028 0.0
C423 C 0.31022 0.85404 0.43317 0.0
C424 C 0.42476 0.89054 0.44295 0.0
C425 C 0.31689 0.90945 0.44734 0.0
C426 C 0.37602 0.95384 0.46005 0.0
C427 C 0.48767 0.98542 0.47321 0.0
C428 C 0.54143 0.97541 0.47171 0.0
C429 C 0.42965 0.94382 0.45868 0.0
C430 C 0.53713 0.92408 0.45502 0.0
C431 C 0.479 0.88149 0.441 0.0
H432 H 0.35054 0.22689 0.94599 0.0
H433 H 0.27117 0.32807 0.8982 0.0
H434 H 0.24268 0.36141 0.94305 0.0
H435 H 0.24676 0.36825 0.99608 0.0
H436 H 0.31663 0.25959 0.04435 0.0
H437 H 0.34195 0.22248 0.99939 0.0
C438 C 0.32613 0.25542 0.94543 0.0
C439 C 0.31321 0.27503 0.91865 0.0
C440 C 0.30848 0.27342 0.97148 0.0
C441 C 0.28127 0.31177 0.91837 0.0
C442 C 0.26531 0.3313 0.94408 0.0
C443 C 0.26669 0.33569 0.9967 0.0
C444 C 0.28007 0.31687 0.02349 0.0
C445 C 0.27958 0.31332 0.97076 0.0
C446 C 0.30552 0.27439 0.02401 0.0
C447 C 0.32034 0.25349 0.99828 0.0
H448 H 0.97875 0.06225 0.35294 0.0
H449 H 0.93711 0.22037 0.34957 0.0
H450 H 0.9888 0.25231 0.30247 0.0
H451 H 0.04584 0.23551 0.26192 0.0
H452 H 0.09196 0.08052 0.26659 0.0
H453 H 0.0388 0.04775 0.31328 0.0
C454 C 0.98155 0.10421 0.34214 0.0
C455 C 0.95358 0.1385 0.35503 0.0
C456 C 0.01211 0.12295 0.31507 0.0
C457 C 0.95701 0.19211 0.34019 0.0
C458 C 0.98707 0.21081 0.31324 0.0
C459 C 0.04497 0.19497 0.27322 0.0
C460 C 0.07282 0.16046 0.26037 0.0
C461 C 0.01479 0.17659 0.30042 0.0
C462 C 0.07005 0.10743 0.27543 0.0
C463 C 0.03998 0.08882 0.30235 0.0
H464 H 0.60158 0.86536 0.66243 0.0
H465 H 0.72768 0.03784 0.71071 0.0
H466 H 0.76413 0.10098 0.66594 0.0
H467 H 0.75483 0.10823 0.6129 0.0
H468 H 0.63692 0.93296 0.5646 0.0
H469 H 0.60287 0.86986 0.60924 0.0
C470 C 0.63774 0.9166 0.66306 0.0
C471 C 0.66179 0.94701 0.68984 0.0
C472 C 0.65969 0.95213 0.63715 0.0
C473 C 0.70884 0.01329 0.69037 0.0
C474 C 0.72936 0.04945 0.66476 0.0
C475 C 0.72243 0.05607 0.61219 0.0
C476 C 0.6983 0.02537 0.58542 0.0
C477 C 0.70444 0.01962 0.63801 0.0
C478 C 0.65661 0.9577 0.58484 0.0
C479 C 0.6368 0.92161 0.6104 0.0
H480 H 0.74233 0.83903 0.94139 0.0
H481 H 0.93285 0.90485 0.90549 0.0
H482 H 0.96919 0.88123 0.95083 0.0
H483 H 0.94739 0.84179 1.00079 0.0
H484 H 0.75741 0.77748 0.03706 0.0
H485 H 0.72036 0.799 0.99145 0.0
C486 C 0.79165 0.8477 0.94336 0.0
C487 C 0.83476 0.87415 0.91991 0.0
C488 C 0.81246 0.83396 0.96964 0.0
C489 C 0.89874 0.88559 0.92317 0.0
C490 C 0.91957 0.87173 0.94912 0.0
C491 C 0.89805 0.83306 0.9989 0.0
C492 C 0.85551 0.8079 0.02261 0.0
C493 C 0.87703 0.84625 0.97258 0.0
C494 C 0.79129 0.79589 0.01927 0.0
C495 C 0.77003 0.80862 0.99316 0.0
H496 H 0.04883 0.77397 0.34208 0.0
H497 H 0.02607 0.5852 0.36037 0.0
H498 H 0.97139 0.54414 0.31429 0.0
H499 H 0.93354 0.56208 0.26824 0.0
H500 H 0.95708 0.75043 0.24784 0.0
H501 H 0.00843 0.79156 0.29484 0.0
C502 C 0.03108 0.72376 0.33599 0.0
C503 C 0.04089 0.68237 0.3547 0.0
C504 C 1.00051 0.70057 0.30891 0.0
C505 C 0.01874 0.61774 0.34639 0.0
C506 C 0.98767 0.59429 0.31999 0.0
C507 C 0.94931 0.61208 0.27397 0.0
C508 C 0.94089 0.65279 0.2543 0.0
C509 C 0.97883 0.63533 0.30096 0.0
C510 C 0.96281 0.71775 0.26235 0.0
C511 C 0.99211 0.74131 0.28934 0.0
H512 H 0.20565 0.99667 0.68723 0.0
H513 H 0.10674 0.10525 0.67026 0.0
H514 H 0.07864 0.05902 0.6221 0.0
H515 H 0.08106 0.98728 0.5846 0.0
H516 H 0.18439 0.88257 0.6004 0.0
H517 H 0.21122 0.92742 0.64892 0.0
C518 C 0.17841 0.01072 0.67296 0.0
C519 C 0.15796 0.05417 0.68277 0.0
C520 C 0.16276 0.98431 0.64494 0.0
C521 C 0.12209 0.07099 0.6638 0.0
C522 C 0.10631 0.04488 0.63605 0.0
C523 C 0.11009 0.97468 0.59845 0.0
C524 C 0.1302 0.93105 0.58856 0.0
C525 C 0.12622 1.00137 0.62637 0.0
C526 C 0.16696 0.91488 0.60732 0.0
C527 C 0.18288 0.941 0.63513 0.0
loop_
_geom_bond_atom_site_label_1
_geom_bond_atom_site_label_2
_geom_bond_distance
_geom_bond_site_symmetry_2
_ccdc_geom_bond_type
Tb0 C9 2.764 . S
Tb0 O10 2.325 . S
Tb0 O13 2.303 . S
Tb0 O17 2.322 . S
Tb0 O18 2.349 . S
Tb0 O21 2.415 . S
Tb0 O22 2.399 . S
Tb1 O11 2.322 . S
Tb1 O12 2.349 . S
Tb1 O14 2.415 . S
Tb1 O15 2.399 . S
Tb1 O16 2.325 . S
Tb1 O19 2.303 . S
Tb1 C30 2.764 . S
C2 O18 1.261 . S
C2 O19 1.257 . S
C3 C6 1.358 . S
C3 C7 1.332 . S
C3 C9 1.504 . S
C4 C5 1.373 . S
C4 C8 1.308 . S
C5 C4 1.373 . S
C5 C6 1.429 . S
C5 H32 0.932 . S
C6 C3 1.358 . S
C6 C5 1.429 . S
C6 H33 0.930 . S
C7 C3 1.332 . S
C7 C8 1.394 . S
C7 H34 0.932 . S
C8 C4 1.308 . S
C8 C7 1.394 . S
C8 H35 0.929 . S
C9 Tb0 2.764 . S
C9 C3 1.504 . S
C9 O21 1.239 . S
C9 O22 1.263 . S
O10 Tb0 2.325 . S
O10 C20 1.236 . S
O11 Tb1 2.322 . S
O11 C20 1.257 . S
O12 Tb1 2.349 . S
O12 C23 1.261 . S
O13 Tb0 2.303 . S
O13 C23 1.257 . S
O14 Tb1 2.415 . S
O14 C30 1.239 . S
O15 Tb1 2.399 . S
O15 C30 1.263 . S
O16 Tb1 2.325 . S
O16 C31 1.236 . S
O17 Tb0 2.322 . S
O17 C31 1.257 . S
O18 Tb0 2.349 . S
O18 C2 1.261 . S
O19 Tb1 2.303 . S
O19 C2 1.257 . S
C20 O10 1.236 . S
C20 O11 1.257 . S
O21 Tb0 2.415 . S
O21 C9 1.239 . S
O22 Tb0 2.399 . S
O22 C9 1.263 . S
C23 O12 1.261 . S
C23 O13 1.257 . S
C24 C27 1.358 . S
C24 C28 1.332 . S
C24 C30 1.504 1_556 S
C25 C26 1.373 . S
C25 C29 1.308 . S
C26 C25 1.373 . S
C26 C27 1.429 . S
C26 H36 0.932 . S
C27 C24 1.358 . S
C27 C26 1.429 . S
C27 H37 0.930 . S
C28 C24 1.332 . S
C28 C29 1.394 . S
C28 H38 0.932 . S
C29 C25 1.308 . S
C29 C28 1.394 . S
C29 H39 0.929 . S
C30 Tb1 2.764 . S
C30 O14 1.239 . S
C30 O15 1.263 . S
C30 C24 1.504 1_554 S
C31 O16 1.236 . S
C31 O17 1.257 . S
H32 C5 0.932 . S
H33 C6 0.930 . S
H34 C7 0.932 . S
H35 C8 0.929 . S
H36 C26 0.932 . S
H37 C27 0.930 . S
H38 C28 0.932 . S
H39 C29 0.929 . S
Tb40 C49 2.764 . S
Tb40 O50 2.325 . S
Tb40 O53 2.303 . S
Tb40 O57 2.322 . S
Tb40 O58 2.349 1_545 S
Tb40 O61 2.415 . S
Tb40 O62 2.399 . S
Tb41 O51 2.322 . S
Tb41 O52 2.349 . S
Tb41 O54 2.415 . S
Tb41 O55 2.399 . S
Tb41 O56 2.325 . S
Tb41 O59 2.303 . S
Tb41 C70 2.764 . S
C42 O58 1.261 . S
C42 O59 1.257 1_565 S
C43 C46 1.358 . S
C43 C47 1.332 . S
C43 C49 1.504 . S
C44 C45 1.373 . S
C44 C48 1.308 . S
C45 C44 1.373 . S
C45 C46 1.429 . S
C45 H72 0.932 1_545 S
C46 C43 1.358 . S
C46 C45 1.429 . S
C46 H73 0.930 1_545 S
C47 C43 1.332 . S
C47 C48 1.394 . S
C47 H74 0.932 . S
C48 C44 1.308 . S
C48 C47 1.394 . S
C48 H75 0.929 . S
C49 Tb40 2.764 . S
C49 C43 1.504 . S
C49 O61 1.239 . S
C49 O62 1.263 . S
O50 Tb40 2.325 . S
O50 C60 1.236 . S
O51 Tb41 2.322 . S
O51 C60 1.257 . S
O52 Tb41 2.349 . S
O52 C63 1.261 . S
O53 Tb40 2.303 . S
O53 C63 1.257 . S
O54 Tb41 2.415 . S
O54 C70 1.239 . S
O55 Tb41 2.399 . S
O55 C70 1.263 . S
O56 Tb41 2.325 . S
O56 C71 1.236 . S
O57 Tb40 2.322 . S
O57 C71 1.257 . S
O58 Tb40 2.349 1_565 S
O58 C42 1.261 . S
O59 Tb41 2.303 . S
O59 C42 1.257 1_545 S
C60 O50 1.236 . S
C60 O51 1.257 . S
O61 Tb40 2.415 . S
O61 C49 1.239 . S
O62 Tb40 2.399 . S
O62 C49 1.263 . S
C63 O52 1.261 . S
C63 O53 1.257 . S
C64 C67 1.358 . S
C64 C68 1.332 . S
C64 C70 1.504 . S
C65 C66 1.373 . S
C65 C69 1.308 . S
C66 C65 1.373 . S
C66 C67 1.429 . S
C66 H76 0.932 . S
C67 C64 1.358 . S
C67 C66 1.429 . S
C67 H77 0.930 . S
C68 C64 1.332 . S
C68 C69 1.394 . S
C68 H78 0.932 . S
C69 C65 1.308 . S
C69 C68 1.394 . S
C69 H79 0.929 . S
C70 Tb41 2.764 . S
C70 O54 1.239 . S
C70 O55 1.263 . S
C70 C64 1.504 . S
C71 O56 1.236 . S
C71 O57 1.257 . S
H72 C45 0.932 1_565 S
H73 C46 0.930 1_565 S
H74 C47 0.932 . S
H75 C48 0.929 . S
H76 C66 0.932 . S
H77 C67 0.930 . S
H78 C68 0.932 . S
H79 C69 0.929 . S
Tb80 C89 2.764 . S
Tb80 O90 2.325 . S
Tb80 O93 2.303 . S
Tb80 O97 2.322 . S
Tb80 O98 2.349 1_565 S
Tb80 O101 2.415 . S
Tb80 O102 2.399 . S
Tb81 O91 2.322 . S
Tb81 O92 2.349 . S
Tb81 O94 2.415 . S
Tb81 O95 2.399 . S
Tb81 O96 2.325 . S
Tb81 O99 2.303 . S
Tb81 C110 2.764 . S
C82 O98 1.261 1_565 S
C82 O99 1.257 . S
C83 C86 1.358 . S
C83 C87 1.332 . S
C83 C89 1.504 . S
C84 C85 1.373 . S
C84 C88 1.308 . S
C85 C84 1.373 . S
C85 C86 1.429 . S
C85 H112 0.932 . S
C86 C83 1.358 . S
C86 C85 1.429 . S
C86 H113 0.930 1_565 S
C87 C83 1.332 . S
C87 C88 1.394 . S
C87 H114 0.932 . S
C88 C84 1.308 . S
C88 C87 1.394 . S
C88 H115 0.929 . S
C89 Tb80 2.764 . S
C89 C83 1.504 . S
C89 O101 1.239 . S
C89 O102 1.263 . S
O90 Tb80 2.325 . S
O90 C100 1.236 . S
O91 Tb81 2.322 . S
O91 C100 1.257 . S
O92 Tb81 2.349 . S
O92 C103 1.261 . S
O93 Tb80 2.303 . S
O93 C103 1.257 . S
O94 Tb81 2.415 . S
O94 C110 1.239 . S
O95 Tb81 2.399 . S
O95 C110 1.263 . S
O96 Tb81 2.325 . S
O96 C111 1.236 . S
O97 Tb80 2.322 . S
O97 C111 1.257 . S
O98 Tb80 2.349 1_545 S
O98 C82 1.261 1_545 S
O99 Tb81 2.303 . S
O99 C82 1.257 . S
C100 O90 1.236 . S
C100 O91 1.257 . S
O101 Tb80 2.415 . S
O101 C89 1.239 . S
O102 Tb80 2.399 . S
O102 C89 1.263 . S
C103 O92 1.261 . S
C103 O93 1.257 . S
C104 C107 1.358 . S
C104 C108 1.332 . S
C104 C110 1.504 . S
C105 C106 1.373 . S
C105 C109 1.308 . S
C106 C105 1.373 . S
C106 C107 1.429 . S
C106 H116 0.932 . S
C107 C104 1.358 . S
C107 C106 1.429 . S
C107 H117 0.930 . S
C108 C104 1.332 . S
C108 C109 1.394 . S
C108 H118 0.932 . S
C109 C105 1.308 . S
C109 C108 1.394 . S
C109 H119 0.929 . S
C110 Tb81 2.764 . S
C110 O94 1.239 . S
C110 O95 1.263 . S
C110 C104 1.504 . S
C111 O96 1.236 . S
C111 O97 1.257 . S
H112 C85 0.932 . S
H113 C86 0.930 1_545 S
H114 C87 0.932 . S
H115 C88 0.929 . S
H116 C106 0.932 . S
H117 C107 0.930 . S
H118 C108 0.932 . S
H119 C109 0.929 . S
Tb120 C129 2.764 . S
Tb120 O130 2.325 . S
Tb120 O133 2.303 . S
Tb120 O137 2.322 . S
Tb120 O138 2.349 1_655 S
Tb120 O141 2.415 . S
Tb120 O142 2.399 . S
Tb121 O131 2.322 . S
Tb121 O132 2.349 . S
Tb121 O134 2.415 . S
Tb121 O135 2.399 . S
Tb121 O136 2.325 . S
Tb121 O139 2.303 . S
Tb121 C150 2.764 . S
C122 O138 1.261 1_655 S
C122 O139 1.257 . S
C123 C126 1.358 . S
C123 C127 1.332 . S
C123 C129 1.504 . S
C124 C125 1.373 . S
C124 C128 1.308 . S
C125 C124 1.373 . S
C125 C126 1.429 . S
C125 H152 0.932 . S
C126 C123 1.358 . S
C126 C125 1.429 . S
C126 H153 0.930 1_655 S
C127 C123 1.332 . S
C127 C128 1.394 . S
C127 H154 0.932 . S
C128 C124 1.308 . S
C128 C127 1.394 . S
C128 H155 0.929 . S
C129 Tb120 2.764 . S
C129 C123 1.504 . S
C129 O141 1.239 . S
C129 O142 1.263 . S
O130 Tb120 2.325 . S
O130 C140 1.236 . S
O131 Tb121 2.322 . S
O131 C140 1.257 . S
O132 Tb121 2.349 . S
O132 C143 1.261 . S
O133 Tb120 2.303 . S
O133 C143 1.257 . S
O134 Tb121 2.415 . S
O134 C150 1.239 . S
O135 Tb121 2.399 . S
O135 C150 1.263 . S
O136 Tb121 2.325 . S
O136 C151 1.236 . S
O137 Tb120 2.322 . S
O137 C151 1.257 . S
O138 Tb120 2.349 1_455 S
O138 C122 1.261 1_455 S
O139 Tb121 2.303 . S
O139 C122 1.257 . S
C140 O130 1.236 . S
C140 O131 1.257 . S
O141 Tb120 2.415 . S
O141 C129 1.239 . S
O142 Tb120 2.399 . S
O142 C129 1.263 . S
C143 O132 1.261 . S
C143 O133 1.257 . S
C144 C147 1.358 . S
C144 C148 1.332 . S
C144 C150 1.504 . S
C145 C146 1.373 . S
C145 C149 1.308 . S
C146 C145 1.373 . S
C146 C147 1.429 . S
C146 H156 0.932 . S
C147 C144 1.358 . S
C147 C146 1.429 . S
C147 H157 0.930 . S
C148 C144 1.332 . S
C148 C149 1.394 . S
C148 H158 0.932 . S
C149 C145 1.308 . S
C149 C148 1.394 . S
C149 H159 0.929 . S
C150 Tb121 2.764 . S
C150 O134 1.239 . S
C150 O135 1.263 . S
C150 C144 1.504 . S
C151 O136 1.236 . S
C151 O137 1.257 . S
H152 C125 0.932 . S
H153 C126 0.930 1_455 S
H154 C127 0.932 . S
H155 C128 0.929 . S
H156 C146 0.932 . S
H157 C147 0.930 . S
H158 C148 0.932 . S
H159 C149 0.929 . S
Tb160 C169 2.764 . S
Tb160 O170 2.325 . S
Tb160 O173 2.303 . S
Tb160 O177 2.322 . S
Tb160 O178 2.349 1_455 S
Tb160 O181 2.415 . S
Tb160 O182 2.399 . S
Tb161 O171 2.322 . S
Tb161 O172 2.349 . S
Tb161 O174 2.415 . S
Tb161 O175 2.399 . S
Tb161 O176 2.325 . S
Tb161 O179 2.303 . S
Tb161 C190 2.764 . S
C162 O178 1.261 . S
C162 O179 1.257 1_655 S
C163 C166 1.358 . S
C163 C167 1.332 . S
C163 C169 1.504 . S
C164 C165 1.373 . S
C164 C168 1.308 . S
C165 C164 1.373 . S
C165 C166 1.429 . S
C165 H192 0.932 1_455 S
C166 C163 1.358 . S
C166 C165 1.429 . S
C166 H193 0.930 1_455 S
C167 C163 1.332 . S
C167 C168 1.394 . S
C167 H194 0.932 . S
C168 C164 1.308 . S
C168 C167 1.394 . S
C168 H195 0.929 . S
C169 Tb160 2.764 . S
C169 C163 1.504 . S
C169 O181 1.239 . S
C169 O182 1.263 . S
O170 Tb160 2.325 . S
O170 C180 1.236 . S
O171 Tb161 2.322 . S
O171 C180 1.257 . S
O172 Tb161 2.349 . S
O172 C183 1.261 . S
O173 Tb160 2.303 . S
O173 C183 1.257 . S
O174 Tb161 2.415 . S
O174 C190 1.239 . S
O175 Tb161 2.399 . S
O175 C190 1.263 . S
O176 Tb161 2.325 . S
O176 C191 1.236 . S
O177 Tb160 2.322 . S
O177 C191 1.257 . S
O178 Tb160 2.349 1_655 S
O178 C162 1.261 . S
O179 Tb161 2.303 . S
O179 C162 1.257 1_455 S
C180 O170 1.236 . S
C180 O171 1.257 . S
O181 Tb160 2.415 . S
O181 C169 1.239 . S
O182 Tb160 2.399 . S
O182 C169 1.263 . S
C183 O172 1.261 . S
C183 O173 1.257 . S
C184 C187 1.358 . S
C184 C188 1.332 . S
C184 C190 1.504 . S
C185 C186 1.373 . S
C185 C189 1.308 . S
C186 C185 1.373 . S
C186 C187 1.429 . S
C186 H196 0.932 . S
C187 C184 1.358 . S
C187 C186 1.429 . S
C187 H197 0.930 . S
C188 C184 1.332 . S
C188 C189 1.394 . S
C188 H198 0.932 . S
C189 C185 1.308 . S
C189 C188 1.394 . S
C189 H199 0.929 . S
C190 Tb161 2.764 . S
C190 O174 1.239 . S
C190 O175 1.263 . S
C190 C184 1.504 . S
C191 O176 1.236 . S
C191 O177 1.257 . S
H192 C165 0.932 1_655 S
H193 C166 0.930 1_655 S
H194 C167 0.932 . S
H195 C168 0.929 . S
H196 C186 0.932 . S
H197 C187 0.930 . S
H198 C188 0.932 . S
H199 C189 0.929 . S
Tb200 C209 2.764 . S
Tb200 O210 2.325 . S
Tb200 O213 2.303 . S
Tb200 O217 2.322 . S
Tb200 O218 2.349 . S
Tb200 O221 2.415 . S
Tb200 O222 2.399 . S
Tb201 O211 2.322 . S
Tb201 O212 2.349 . S
Tb201 O214 2.415 . S
Tb201 O215 2.399 . S
Tb201 O216 2.325 . S
Tb201 O219 2.303 . S
Tb201 C230 2.764 . S
C202 O218 1.261 . S
C202 O219 1.257 . S
C203 C206 1.358 . S
C203 C207 1.332 . S
C203 C209 1.504 . S
C204 C205 1.373 . S
C204 C208 1.308 . S
C205 C204 1.373 . S
C205 C206 1.429 . S
C205 H232 0.932 . S
C206 C203 1.358 . S
C206 C205 1.429 . S
C206 H233 0.930 . S
C207 C203 1.332 . S
C207 C208 1.394 . S
C207 H234 0.932 . S
C208 C204 1.308 . S
C208 C207 1.394 . S
C208 H235 0.929 . S
C209 Tb200 2.764 . S
C209 C203 1.504 . S
C209 O221 1.239 . S
C209 O222 1.263 . S
O210 Tb200 2.325 . S
O210 C220 1.236 . S
O211 Tb201 2.322 . S
O211 C220 1.257 . S
O212 Tb201 2.349 . S
O212 C223 1.261 . S
O213 Tb200 2.303 . S
O213 C223 1.257 . S
O214 Tb201 2.415 . S
O214 C230 1.239 . S
O215 Tb201 2.399 . S
O215 C230 1.263 . S
O216 Tb201 2.325 . S
O216 C231 1.236 . S
O217 Tb200 2.322 . S
O217 C231 1.257 . S
O218 Tb200 2.349 . S
O218 C202 1.261 . S
O219 Tb201 2.303 . S
O219 C202 1.257 . S
C220 O210 1.236 . S
C220 O211 1.257 . S
O221 Tb200 2.415 . S
O221 C209 1.239 . S
O222 Tb200 2.399 . S
O222 C209 1.263 . S
C223 O212 1.261 . S
C223 O213 1.257 . S
C224 C227 1.358 . S
C224 C228 1.332 . S
C224 C230 1.504 . S
C225 C226 1.373 . S
C225 C229 1.308 . S
C226 C225 1.373 . S
C226 C227 1.429 . S
C226 H236 0.932 . S
C227 C224 1.358 . S
C227 C226 1.429 . S
C227 H237 0.930 . S
C228 C224 1.332 . S
C228 C229 1.394 . S
C228 H238 0.932 . S
C229 C225 1.308 . S
C229 C228 1.394 . S
C229 H239 0.929 . S
C230 Tb201 2.764 . S
C230 O214 1.239 . S
C230 O215 1.263 . S
C230 C224 1.504 . S
C231 O216 1.236 . S
C231 O217 1.257 . S
H232 C205 0.932 . S
H233 C206 0.930 . S
H234 C207 0.932 . S
H235 C208 0.929 . S
H236 C226 0.932 . S
H237 C227 0.930 . S
H238 C228 0.932 . S
H239 C229 0.929 . S
H240 C246 0.930 . S
H241 C249 0.930 . S
H242 C250 0.930 . S
H243 C251 0.930 . S
H244 C254 0.930 . S
H245 C255 0.930 . S
C246 H240 0.930 . S
C246 C247 1.355 . S
C246 C248 1.415 . S
C247 C246 1.355 . S
C247 C249 1.419 . S
C248 C246 1.415 . S
C248 C253 1.425 . S
C248 C255 1.409 . S
C249 H241 0.930 . S
C249 C247 1.419 . S
C249 C250 1.362 . S
C250 H242 0.930 . S
C250 C249 1.362 . S
C250 C253 1.409 . S
C251 H243 0.930 . S
C251 C252 1.355 . S
C251 C253 1.415 . S
C252 C251 1.355 . S
C252 C254 1.419 . S
C253 C248 1.425 . S
C253 C250 1.409 . S
C253 C251 1.415 . S
C254 H244 0.930 . S
C254 C252 1.419 . S
C254 C255 1.362 . S
C255 H245 0.930 . S
C255 C248 1.409 . S
C255 C254 1.362 . S
H256 C262 0.930 . S
H257 C265 0.930 . S
H258 C266 0.930 . S
H259 C267 0.930 . S
H260 C270 0.930 . S
H261 C271 0.930 . S
C262 H256 0.930 . S
C262 C263 1.355 . S
C262 C264 1.415 . S
C263 C262 1.355 . S
C263 C265 1.419 . S
C264 C262 1.415 . S
C264 C269 1.425 . S
C264 C271 1.409 . S
C265 H257 0.930 . S
C265 C263 1.419 . S
C265 C266 1.362 . S
C266 H258 0.930 . S
C266 C265 1.362 . S
C266 C269 1.409 . S
C267 H259 0.930 . S
C267 C268 1.355 . S
C267 C269 1.415 . S
C268 C267 1.355 . S
C268 C270 1.419 . S
C269 C264 1.425 . S
C269 C266 1.409 . S
C269 C267 1.415 . S
C270 H260 0.930 . S
C270 C268 1.419 . S
C270 C271 1.362 . S
C271 H261 0.930 . S
C271 C264 1.409 . S
C271 C270 1.362 . S
H272 C278 0.930 . S
H273 C281 0.930 . S
H274 C282 0.930 . S
H275 C283 0.930 . S
H276 C286 0.930 . S
H277 C287 0.930 . S
C278 H272 0.930 . S
C278 C279 1.355 . S
C278 C280 1.415 . S
C279 C278 1.355 . S
C279 C281 1.419 . S
C280 C278 1.415 . S
C280 C285 1.425 . S
C280 C287 1.409 . S
C281 H273 0.930 . S
C281 C279 1.419 . S
C281 C282 1.362 . S
C282 H274 0.930 . S
C282 C281 1.362 . S
C282 C285 1.409 . S
C283 H275 0.930 . S
C283 C284 1.355 . S
C283 C285 1.415 . S
C284 C283 1.355 . S
C284 C286 1.419 . S
C285 C280 1.425 . S
C285 C282 1.409 . S
C285 C283 1.415 . S
C286 H276 0.930 . S
C286 C284 1.419 . S
C286 C287 1.362 . S
C287 H277 0.930 . S
C287 C280 1.409 . S
C287 C286 1.362 . S
H288 C294 0.930 . S
H289 C297 0.930 . S
H290 C298 0.930 . S
H291 C299 0.930 . S
H292 C302 0.930 . S
H293 C303 0.930 . S
C294 H288 0.930 . S
C294 C295 1.355 . S
C294 C296 1.415 . S
C295 C294 1.355 . S
C295 C297 1.419 . S
C296 C294 1.415 . S
C296 C301 1.425 . S
C296 C303 1.409 . S
C297 H289 0.930 . S
C297 C295 1.419 . S
C297 C298 1.362 . S
C298 H290 0.930 . S
C298 C297 1.362 . S
C298 C301 1.409 . S
C299 H291 0.930 . S
C299 C300 1.355 . S
C299 C301 1.415 . S
C300 C299 1.355 . S
C300 C302 1.419 . S
C301 C296 1.425 . S
C301 C298 1.409 . S
C301 C299 1.415 . S
C302 H292 0.930 . S
C302 C300 1.419 . S
C302 C303 1.362 . S
C303 H293 0.930 . S
C303 C296 1.409 . S
C303 C302 1.362 . S
H304 C310 0.930 . S
H305 C313 0.930 . S
H306 C314 0.930 . S
H307 C315 0.930 . S
H308 C318 0.930 . S
H309 C319 0.930 . S
C310 H304 0.930 . S
C310 C311 1.355 . S
C310 C312 1.415 . S
C311 C310 1.355 . S
C311 C313 1.419 . S
C312 C310 1.415 . S
C312 C317 1.425 . S
C312 C319 1.409 . S
C313 H305 0.930 . S
C313 C311 1.419 . S
C313 C314 1.362 . S
C314 H306 0.930 . S
C314 C313 1.362 . S
C314 C317 1.409 . S
C315 H307 0.930 . S
C315 C316 1.355 . S
C315 C317 1.415 . S
C316 C315 1.355 . S
C316 C318 1.419 . S
C317 C312 1.425 . S
C317 C314 1.409 . S
C317 C315 1.415 . S
C318 H308 0.930 . S
C318 C316 1.419 . S
C318 C319 1.362 . S
C319 H309 0.930 . S
C319 C312 1.409 . S
C319 C318 1.362 . S
H320 C326 0.930 . S
H321 C329 0.930 . S
H322 C330 0.930 . S
H323 C331 0.930 1_556 S
H324 C334 0.930 . S
H325 C335 0.930 . S
C326 H320 0.930 . S
C326 C327 1.355 . S
C326 C328 1.415 . S
C327 C326 1.355 . S
C327 C329 1.419 . S
C328 C326 1.415 . S
C328 C333 1.425 . S
C328 C335 1.409 . S
C329 H321 0.930 . S
C329 C327 1.419 . S
C329 C330 1.362 . S
C330 H322 0.930 . S
C330 C329 1.362 . S
C330 C333 1.409 . S
C331 H323 0.930 1_554 S
C331 C332 1.355 1_554 S
C331 C333 1.415 . S
C332 C331 1.355 1_556 S
C332 C334 1.419 1_556 S
C333 C328 1.425 . S
C333 C330 1.409 . S
C333 C331 1.415 . S
C334 H324 0.930 . S
C334 C332 1.419 1_554 S
C334 C335 1.362 . S
C335 H325 0.930 . S
C335 C328 1.409 . S
C335 C334 1.362 . S
H336 C342 0.930 . S
H337 C345 0.930 . S
H338 C346 0.930 . S
H339 C347 0.930 . S
H340 C350 0.930 . S
H341 C351 0.930 . S
C342 H336 0.930 . S
C342 C343 1.355 . S
C342 C344 1.415 . S
C343 C342 1.355 . S
C343 C345 1.419 . S
C344 C342 1.415 . S
C344 C349 1.425 . S
C344 C351 1.409 . S
C345 H337 0.930 . S
C345 C343 1.419 . S
C345 C346 1.362 . S
C346 H338 0.930 . S
C346 C345 1.362 . S
C346 C349 1.409 . S
C347 H339 0.930 . S
C347 C348 1.355 . S
C347 C349 1.415 . S
C348 C347 1.355 . S
C348 C350 1.419 . S
C349 C344 1.425 . S
C349 C346 1.409 . S
C349 C347 1.415 . S
C350 H340 0.930 . S
C350 C348 1.419 . S
C350 C351 1.362 . S
C351 H341 0.930 . S
C351 C344 1.409 . S
C351 C350 1.362 . S
H352 C358 0.930 1_455 S
H353 C361 0.930 . S
H354 C362 0.930 . S
H355 C363 0.930 . S
H356 C366 0.930 . S
H357 C367 0.930 1_455 S
C358 H352 0.930 1_655 S
C358 C359 1.355 . S
C358 C360 1.415 . S
C359 C358 1.355 . S
C359 C361 1.419 . S
C360 C358 1.415 . S
C360 C365 1.425 . S
C360 C367 1.409 . S
C361 H353 0.930 . S
C361 C359 1.419 . S
C361 C362 1.362 . S
C362 H354 0.930 . S
C362 C361 1.362 . S
C362 C365 1.409 . S
C363 H355 0.930 . S
C363 C364 1.355 . S
C363 C365 1.415 . S
C364 C363 1.355 . S
C364 C366 1.419 . S
C365 C360 1.425 . S
C365 C362 1.409 . S
C365 C363 1.415 . S
C366 H356 0.930 . S
C366 C364 1.419 . S
C366 C367 1.362 . S
C367 H357 0.930 1_655 S
C367 C360 1.409 . S
C367 C366 1.362 . S
H368 C374 0.930 . S
H369 C377 0.930 . S
H370 C378 0.930 1_565 S
H371 C379 0.930 1_565 S
H372 C382 0.930 . S
H373 C383 0.930 . S
C374 H368 0.930 . S
C374 C375 1.355 . S
C374 C376 1.415 . S
C375 C374 1.355 . S
C375 C377 1.419 . S
C376 C374 1.415 . S
C376 C381 1.425 . S
C376 C383 1.409 . S
C377 H369 0.930 . S
C377 C375 1.419 . S
C377 C378 1.362 . S
C378 H370 0.930 1_545 S
C378 C377 1.362 . S
C378 C381 1.409 . S
C379 H371 0.930 1_545 S
C379 C380 1.355 . S
C379 C381 1.415 . S
C380 C379 1.355 . S
C380 C382 1.419 . S
C381 C376 1.425 . S
C381 C378 1.409 . S
C381 C379 1.415 . S
C382 H372 0.930 . S
C382 C380 1.419 . S
C382 C383 1.362 . S
C383 H373 0.930 . S
C383 C376 1.409 . S
C383 C382 1.362 . S
H384 C390 0.930 . S
H385 C393 0.930 . S
H386 C394 0.930 . S
H387 C395 0.930 . S
H388 C398 0.930 . S
H389 C399 0.930 . S
C390 H384 0.930 . S
C390 C391 1.355 . S
C390 C392 1.415 . S
C391 C390 1.355 . S
C391 C393 1.419 . S
C392 C390 1.415 . S
C392 C397 1.425 . S
C392 C399 1.409 . S
C393 H385 0.930 . S
C393 C391 1.419 . S
C393 C394 1.362 . S
C394 H386 0.930 . S
C394 C393 1.362 . S
C394 C397 1.409 . S
C395 H387 0.930 . S
C395 C396 1.355 . S
C395 C397 1.415 . S
C396 C395 1.355 . S
C396 C398 1.419 . S
C397 C392 1.425 . S
C397 C394 1.409 . S
C397 C395 1.415 . S
C398 H388 0.930 . S
C398 C396 1.419 . S
C398 C399 1.362 . S
C399 H389 0.930 . S
C399 C392 1.409 . S
C399 C398 1.362 . S
H400 C406 0.930 . S
H401 C409 0.930 . S
H402 C410 0.930 1_655 S
H403 C411 0.930 1_655 S
H404 C414 0.930 . S
H405 C415 0.930 . S
C406 H400 0.930 . S
C406 C407 1.355 . S
C406 C408 1.415 . S
C407 C406 1.355 . S
C407 C409 1.419 . S
C408 C406 1.415 . S
C408 C413 1.425 . S
C408 C415 1.409 . S
C409 H401 0.930 . S
C409 C407 1.419 . S
C409 C410 1.362 . S
C410 H402 0.930 1_455 S
C410 C409 1.362 . S
C410 C413 1.409 . S
C411 H403 0.930 1_455 S
C411 C412 1.355 . S
C411 C413 1.415 . S
C412 C411 1.355 . S
C412 C414 1.419 . S
C413 C408 1.425 . S
C413 C410 1.409 . S
C413 C411 1.415 . S
C414 H404 0.930 . S
C414 C412 1.419 . S
C414 C415 1.362 . S
C415 H405 0.930 . S
C415 C408 1.409 . S
C415 C414 1.362 . S
H416 C422 0.930 . S
H417 C425 0.930 . S
H418 C426 0.930 . S
H419 C427 0.930 . S
H420 C430 0.930 1_545 S
H421 C431 0.930 . S
C422 H416 0.930 . S
C422 C423 1.355 . S
C422 C424 1.415 . S
C423 C422 1.355 . S
C423 C425 1.419 . S
C424 C422 1.415 . S
C424 C429 1.425 . S
C424 C431 1.409 . S
C425 H417 0.930 . S
C425 C423 1.419 . S
C425 C426 1.362 . S
C426 H418 0.930 . S
C426 C425 1.362 . S
C426 C429 1.409 . S
C427 H419 0.930 . S
C427 C428 1.355 . S
C427 C429 1.415 . S
C428 C427 1.355 . S
C428 C430 1.419 . S
C429 C424 1.425 . S
C429 C426 1.409 . S
C429 C427 1.415 . S
C430 H420 0.930 1_565 S
C430 C428 1.419 . S
C430 C431 1.362 . S
C431 H421 0.930 . S
C431 C424 1.409 . S
C431 C430 1.362 . S
H432 C438 0.930 . S
H433 C441 0.930 . S
H434 C442 0.930 . S
H435 C443 0.930 . S
H436 C446 0.930 . S
H437 C447 0.930 . S
C438 H432 0.930 . S
C438 C439 1.355 . S
C438 C440 1.415 . S
C439 C438 1.355 . S
C439 C441 1.419 . S
C440 C438 1.415 . S
C440 C445 1.425 . S
C440 C447 1.409 . S
C441 H433 0.930 . S
C441 C439 1.419 . S
C441 C442 1.362 . S
C442 H434 0.930 . S
C442 C441 1.362 . S
C442 C445 1.409 . S
C443 H435 0.930 . S
C443 C444 1.355 1_556 S
C443 C445 1.415 . S
C444 C443 1.355 1_554 S
C444 C446 1.419 . S
C445 C440 1.425 . S
C445 C442 1.409 . S
C445 C443 1.415 . S
C446 H436 0.930 . S
C446 C444 1.419 . S
C446 C447 1.362 1_554 S
C447 H437 0.930 . S
C447 C440 1.409 . S
C447 C446 1.362 1_556 S
H448 C454 0.930 . S
H449 C457 0.930 . S
H450 C458 0.930 . S
H451 C459 0.930 1_655 S
H452 C462 0.930 . S
H453 C463 0.930 . S
C454 H448 0.930 . S
C454 C455 1.355 . S
C454 C456 1.415 1_655 S
C455 C454 1.355 . S
C455 C457 1.419 . S
C456 C454 1.415 1_455 S
C456 C461 1.425 1_455 S
C456 C463 1.409 . S
C457 H449 0.930 . S
C457 C455 1.419 . S
C457 C458 1.362 . S
C458 H450 0.930 . S
C458 C457 1.362 . S
C458 C461 1.409 . S
C459 H451 0.930 1_455 S
C459 C460 1.355 . S
C459 C461 1.415 1_455 S
C460 C459 1.355 . S
C460 C462 1.419 . S
C461 C456 1.425 1_655 S
C461 C458 1.409 . S
C461 C459 1.415 1_655 S
C462 H452 0.930 . S
C462 C460 1.419 . S
C462 C463 1.362 . S
C463 H453 0.930 . S
C463 C456 1.409 . S
C463 C462 1.362 . S
H464 C470 0.930 . S
H465 C473 0.930 . S
H466 C474 0.930 . S
H467 C475 0.930 . S
H468 C478 0.930 . S
H469 C479 0.930 . S
C470 H464 0.930 . S
C470 C471 1.355 . S
C470 C472 1.415 . S
C471 C470 1.355 . S
C471 C473 1.419 1_565 S
C472 C470 1.415 . S
C472 C477 1.425 1_565 S
C472 C479 1.409 . S
C473 H465 0.930 . S
C473 C471 1.419 1_545 S
C473 C474 1.362 . S
C474 H466 0.930 . S
C474 C473 1.362 . S
C474 C477 1.409 . S
C475 H467 0.930 . S
C475 C476 1.355 . S
C475 C477 1.415 . S
C476 C475 1.355 . S
C476 C478 1.419 1_545 S
C477 C472 1.425 1_545 S
C477 C474 1.409 . S
C477 C475 1.415 . S
C478 H468 0.930 . S
C478 C476 1.419 1_565 S
C478 C479 1.362 . S
C479 H469 0.930 . S
C479 C472 1.409 . S
C479 C478 1.362 . S
H480 C486 0.930 . S
H481 C489 0.930 . S
H482 C490 0.930 . S
H483 C491 0.930 . S
H484 C494 0.930 . S
H485 C495 0.930 . S
C486 H480 0.930 . S
C486 C487 1.355 . S
C486 C488 1.415 . S
C487 C486 1.355 . S
C487 C489 1.419 . S
C488 C486 1.415 . S
C488 C493 1.425 . S
C488 C495 1.409 . S
C489 H481 0.930 . S
C489 C487 1.419 . S
C489 C490 1.362 . S
C490 H482 0.930 . S
C490 C489 1.362 . S
C490 C493 1.409 . S
C491 H483 0.930 . S
C491 C492 1.355 1_556 S
C491 C493 1.415 . S
C492 C491 1.355 1_554 S
C492 C494 1.419 . S
C493 C488 1.425 . S
C493 C490 1.409 . S
C493 C491 1.415 . S
C494 H484 0.930 . S
C494 C492 1.419 . S
C494 C495 1.362 1_554 S
C495 H485 0.930 . S
C495 C488 1.409 . S
C495 C494 1.362 1_556 S
H496 C502 0.930 . S
H497 C505 0.930 . S
H498 C506 0.930 . S
H499 C507 0.928 1_455 S
H500 C510 0.930 . S
H501 C511 0.930 . S
C502 H496 0.930 . S
C502 C503 1.355 1_655 S
C502 C504 1.415 . S
C503 C502 1.355 1_455 S
C503 C505 1.419 . S
C504 C502 1.415 . S
C504 C509 1.425 1_655 S
C504 C511 1.409 . S
C505 H497 0.930 . S
C505 C503 1.419 . S
C505 C506 1.362 . S
C506 H498 0.930 . S
C506 C505 1.362 . S
C506 C509 1.409 . S
C507 H499 0.928 1_655 S
C507 C508 1.356 . S
C507 C509 1.415 1_655 S
C508 C507 1.356 . S
C508 C510 1.419 . S
C509 C504 1.425 1_455 S
C509 C506 1.409 . S
C509 C507 1.415 1_455 S
C510 H500 0.930 . S
C510 C508 1.419 . S
C510 C511 1.362 . S
C511 H501 0.930 . S
C511 C504 1.409 . S
C511 C510 1.362 . S
H512 C518 0.930 . S
H513 C521 0.930 . S
H514 C522 0.930 . S
H515 C523 0.930 1_545 S
H516 C526 0.930 . S
H517 C527 0.930 . S
C518 H512 0.930 . S
C518 C519 1.355 1_565 S
C518 C520 1.415 . S
C519 C518 1.355 1_545 S
C519 C521 1.419 . S
C520 C518 1.415 . S
C520 C525 1.425 1_565 S
C520 C527 1.409 . S
C521 H513 0.930 . S
C521 C519 1.419 . S
C521 C522 1.362 . S
C522 H514 0.930 . S
C522 C521 1.362 . S
C522 C525 1.409 . S
C523 H515 0.930 1_565 S
C523 C524 1.355 . S
C523 C525 1.415 1_565 S
C524 C523 1.355 . S
C524 C526 1.419 . S
C525 C520 1.425 1_545 S
C525 C522 1.409 . S
C525 C523 1.415 1_545 S
C526 H516 0.930 . S
C526 C524 1.419 . S
C526 C527 1.362 . S
C527 H517 0.930 . S
C527 C520 1.409 . S
C527 C526 1.362 . S
C247 C185 1.470 . S
C252 C20 1.471 . S
C263 C220 1.515 . S
C268 C65 1.507 . S
C279 C25 1.515 . S
C284 C100 1.519 . S
C295 C60 1.519 . S
C300 C145 1.515 . S
C311 C105 1.515 . S
C316 C180 1.517 . S
C327 C140 1.515 . S
C332 C225 1.508 . S
C343 C2 1.844 . S
C348 C143 1.738 . S
C359 C162 1.899 . S
C364 C63 1.824 . S
C375 C223 1.810 . S
C380 C82 1.866 1_545 S
C391 C103 1.745 . S
C396 C202 1.880 . S
C407 C23 1.824 . S
C412 C122 1.900 1_455 S
C423 C183 1.737 . S
C428 C42 1.844 . S
C439 C231 1.639 . S
C444 C31 1.615 . S
C455 C44 0.796 . S
C460 C4 0.880 . S
C471 C111 1.643 . S
C476 C71 1.641 . S
C487 C84 0.879 . S
C492 C124 0.787 . S
C503 C191 1.605 . S
C508 C151 1.626 . S
C519 C204 0.822 . S
C524 C164 0.859 . S
