# Generated by pormake.
# Topology wgw, (6)-cn, num edge types: 1
# Building blocks:
#     Node 0, Type 0, BuildingBlock: OJICUG_clean_sbu_0, # of connection points: 6
#     Node 1, Type 0, BuildingBlock: OJICUG_clean_sbu_0, # of connection points: 6
#     Node 2, Type 0, BuildingBlock: OJICUG_clean_sbu_0, # of connection points: 6
#     Node 3, Type 0, BuildingBlock: OJICUG_clean_sbu_0, # of connection points: 6
#     Node 4, Type 0, BuildingBlock: OJICUG_clean_sbu_0, # of connection points: 6
#     Node 5, Type 0, BuildingBlock: OJICUG_clean_sbu_0, # of connection points: 6
#     Node 6, Type 0, BuildingBlock: OJICUG_clean_sbu_0, # of connection points: 6
#     Node 7, Type 0, BuildingBlock: OJICUG_clean_sbu_0, # of connection points: 6
#     Edge 8, Type (0, 0), BuildingBlock: CIFDUS_clean_linker_0, # of connection points: 2
#     Edge 9, Type (0, 0), BuildingBlock: CIFDUS_clean_linker_0, # of connection points: 2
#     Edge 10, Type (0, 0), BuildingBlock: CIFDUS_clean_linker_0, # of connection points: 2
#     Edge 11, Type (0, 0), BuildingBlock: CIFDUS_clean_linker_0, # of connection points: 2
#     Edge 12, Type (0, 0), BuildingBlock: CIFDUS_clean_linker_0, # of connection points: 2
#     Edge 13, Type (0, 0), BuildingBlock: CIFDUS_clean_linker_0, # of connection points: 2
#     Edge 14, Type (0, 0), BuildingBlock: CIFDUS_clean_linker_0, # of connection points: 2
#     Edge 15, Type (0, 0), BuildingBlock: CIFDUS_clean_linker_0, # of connection points: 2
#     Edge 16, Type (0, 0), BuildingBlock: CIFDUS_clean_linker_0, # of connection points: 2
#     Edge 17, Type (0, 0), BuildingBlock: CIFDUS_clean_linker_0, # of connection points: 2
#     Edge 18, Type (0, 0), BuildingBlock: CIFDUS_clean_linker_0, # of connection points: 2
#     Edge 19, Type (0, 0), BuildingBlock: CIFDUS_clean_linker_0, # of connection points: 2
#     Edge 20, Type (0, 0), BuildingBlock: CIFDUS_clean_linker_0, # of connection points: 2
#     Edge 21, Type (0, 0), BuildingBlock: CIFDUS_clean_linker_0, # of connection points: 2
#     Edge 22, Type (0, 0), BuildingBlock: CIFDUS_clean_linker_0, # of connection points: 2
#     Edge 23, Type (0, 0), BuildingBlock: CIFDUS_clean_linker_0, # of connection points: 2
#     Edge 24, Type (0, 0), BuildingBlock: CIFDUS_clean_linker_0, # of connection points: 2
#     Edge 25, Type (0, 0), BuildingBlock: CIFDUS_clean_linker_0, # of connection points: 2
#     Edge 26, Type (0, 0), BuildingBlock: CIFDUS_clean_linker_0, # of connection points: 2
#     Edge 27, Type (0, 0), BuildingBlock: CIFDUS_clean_linker_0, # of connection points: 2
#     Edge 28, Type (0, 0), BuildingBlock: CIFDUS_clean_linker_0, # of connection points: 2
#     Edge 29, Type (0, 0), BuildingBlock: CIFDUS_clean_linker_0, # of connection points: 2
#     Edge 30, Type (0, 0), BuildingBlock: CIFDUS_clean_linker_0, # of connection points: 2
#     Edge 31, Type (0, 0), BuildingBlock: CIFDUS_clean_linker_0, # of connection points: 2
# Relax obj value: 0.221
# Max RMSD: 0.288
# Mean RMSD: 0.288
data_MOF--net-wgw--node1-OJICUG_clean_sbu_0--edge1-CIFDUS_clean_linker_0
_symmetry_space_group_name_H-M    P1
_symmetry_Int_Tables_number       1
_symmetry_cell_setting            triclinic
loop_
_symmetry_equiv_pos_as_xyz
'x, y, z'
_cell_length_a     25.930442
_cell_length_b     25.842034
_cell_length_c     38.623652
_cell_angle_alpha  90.114628
_cell_angle_beta   90.12491
_cell_angle_gamma 89.948207
loop_
_atom_site_label
_atom_site_type_symbol
_atom_site_fract_x
_atom_site_fract_y
_atom_site_fract_z
_atom_type_partial_charge
Sc0 Sc 0.10002 0.46531 0.15096 0.0
Sc1 Sc 0.02957 0.43161 0.2254 0.0
Sc2 Sc 0.01382 0.36043 0.14799 0.0
O3 O 0.04804 0.41883 0.17483 0.0
C4 C 0.02482 0.44333 0.08743 0.0
C5 C 0.0344 0.54633 0.19342 0.0
C6 C 0.92115 0.41323 0.18832 0.0
C7 C 0.14806 0.45486 0.22752 0.0
C8 C 0.13355 0.35141 0.12838 0.0
C9 C 0.02353 0.30916 0.22334 0.0
O10 O 0.05904 0.47009 0.10261 0.0
O11 O 0.02353 0.51379 0.21698 0.0
O12 O 0.93711 0.38753 0.16221 0.0
O13 O 0.14916 0.46699 0.19568 0.0
O14 O 0.08888 0.33125 0.13218 0.0
O15 O 0.03042 0.35088 0.24013 0.0
O16 O 0.14273 0.39917 0.13361 0.0
O17 O 0.10794 0.43863 0.24269 0.0
O18 O 0.01683 0.30781 0.19082 0.0
O19 O 0.06088 0.53481 0.16684 0.0
O20 O 0.00527 0.40326 0.10088 0.0
O21 O 0.95025 0.42774 0.21291 0.0
Sc22 Sc 0.11357 0.02547 0.64696 0.0
Sc23 Sc 0.05461 0.0547 0.7268 0.0
Sc24 Sc 0.02684 0.12976 0.65263 0.0
O25 O 0.06516 0.07026 0.67556 0.0
C26 C 0.14258 0.14056 0.62477 0.0
C27 C 0.17462 0.03472 0.71921 0.0
C28 C 0.04566 0.17786 0.72804 0.0
C29 C 0.05671 0.94165 0.69209 0.0
C30 C 0.02786 0.0491 0.59004 0.0
C31 C 0.94051 0.07361 0.69767 0.0
O32 O 0.15245 0.09257 0.62783 0.0
O33 O 0.1368 0.04967 0.73774 0.0
O34 O 0.03604 0.18065 0.69595 0.0
O35 O 0.07834 0.95482 0.664 0.0
O36 O 0.01063 0.08889 0.60535 0.0
O37 O 0.97259 0.05575 0.71957 0.0
O38 O 0.06436 0.02205 0.60228 0.0
O39 O 0.04958 0.97275 0.71719 0.0
O40 O 0.95328 0.10208 0.67211 0.0
O41 O 0.17033 0.02316 0.68738 0.0
O42 O 0.09879 0.16028 0.63237 0.0
O43 O 0.05453 0.13533 0.7435 0.0
Sc44 Sc 0.45555 0.10544 0.14825 0.0
Sc45 Sc 0.42835 0.03823 0.22552 0.0
Sc46 Sc 0.35946 0.0095 0.1491 0.0
O47 O 0.41427 0.05125 0.17435 0.0
C48 C 0.3394 0.12534 0.12379 0.0
C49 C 0.44348 0.15939 0.22286 0.0
C50 C 0.30658 0.02507 0.22301 0.0
C51 C 0.54157 0.04893 0.19287 0.0
C52 C 0.44054 0.02113 0.08836 0.0
C53 C 0.41636 0.9243 0.19405 0.0
O54 O 0.38477 0.14188 0.13049 0.0
O55 O 0.42898 0.11948 0.23938 0.0
O56 O 0.30584 0.01615 0.19075 0.0
O57 O 0.52854 0.07186 0.16494 0.0
O58 O 0.40466 -0.00284 0.10362 0.0
O59 O 0.43216 0.95618 0.21682 0.0
O60 O 0.46172 0.06114 0.10109 0.0
O61 O 0.50979 0.03878 0.21692 0.0
O62 O 0.38871 0.93719 0.16828 0.0
O63 O 0.45554 0.15868 0.19105 0.0
O64 O 0.32599 0.07841 0.12796 0.0
O65 O 0.34771 0.03395 0.23996 0.0
Sc66 Sc 0.47424 0.36842 0.65099 0.0
Sc67 Sc 0.44937 0.4443 0.7248 0.0
Sc68 Sc 0.39016 0.47498 0.64625 0.0
O69 O 0.43783 0.42875 0.67394 0.0
C70 C 0.46869 0.44404 0.58633 0.0
C71 C 0.56231 0.42496 0.69444 0.0
C72 C 0.45191 0.55602 0.689 0.0
C73 C 0.45793 0.32285 0.72748 0.0
C74 C 0.35534 0.36018 0.62752 0.0
C75 C 0.33369 0.47297 0.72037 0.0
O76 O 0.48862 0.40652 0.60259 0.0
O77 O 0.53029 0.44179 0.71664 0.0
O78 O 0.43298 0.54319 0.65986 0.0
O79 O 0.4671 0.31898 0.69533 0.0
O80 O 0.34618 0.40832 0.63155 0.0
O81 O 0.36886 0.4492 0.73672 0.0
O82 O 0.39982 0.33972 0.63265 0.0
O83 O 0.44905 0.36568 0.74221 0.0
O84 O 0.33873 0.48707 0.68907 0.0
O85 O 0.54934 0.3966 0.66867 0.0
O86 O 0.4329 0.47143 0.59898 0.0
O87 O 0.45374 0.52557 0.71478 0.0
Sc88 Sc 0.50075 0.60498 0.32646 0.0
Sc89 Sc 0.54155 0.53918 0.25379 0.0
Sc90 Sc 0.60419 0.51845 0.33309 0.0
O91 O 0.54979 0.55422 0.30472 0.0
C92 C 0.61202 0.63982 0.35273 0.0
C93 C 0.5241 0.65568 0.25283 0.0
C94 C 0.66183 0.52345 0.26094 0.0
C95 C 0.42774 0.54247 0.2795 0.0
C96 C 0.5186 0.53053 0.391 0.0
C97 C 0.54769 0.42855 0.28913 0.0
O98 O 0.56582 0.65055 0.34347 0.0
O99 O 0.55188 0.61928 0.24096 0.0
O100 O 0.66195 0.52487 0.2937 0.0
O101 O 0.43605 0.55797 0.31026 0.0
O102 O 0.55636 0.50651 0.37777 0.0
O103 O 0.53046 0.4594 0.2661 0.0
O104 O 0.49648 0.56779 0.3758 0.0
O105 O 0.45981 0.55028 0.25537 0.0
O106 O 0.57804 0.44274 0.31372 0.0
O107 O 0.49708 0.65149 0.28013 0.0
O108 O 0.63047 0.59367 0.3524 0.0
O109 O 0.62112 0.525 0.243 0.0
Sc110 Sc 0.88283 0.53513 0.83941 0.0
Sc111 Sc 0.94429 0.55591 0.75942 0.0
Sc112 Sc 0.98336 0.62526 0.83289 0.0
O113 O 0.93656 0.57199 0.81065 0.0
C114 C 0.87083 0.65502 0.86031 0.0
C115 C 0.82393 0.53739 0.76715 0.0
C116 C 0.95484 0.67576 0.75927 0.0
C117 C 0.94085 0.44537 0.79629 0.0
C118 C 0.97159 0.54836 0.8963 0.0
C119 C 0.06123 0.57418 0.78246 0.0
O120 O 0.85177 0.60949 0.85717 0.0
O121 O 0.86391 0.54261 0.74881 0.0
O122 O 0.97694 0.67517 0.78868 0.0
O123 O 0.91238 0.45978 0.82172 0.0
O124 O -0.00443 0.58357 0.88024 0.0
O125 O 0.02611 0.56589 0.7603 0.0
O126 O 0.93087 0.52775 0.88446 0.0
O127 O 0.95526 0.47585 0.77223 0.0
O128 O 0.0523 0.58953 0.81308 0.0
O129 O 0.825 0.5365 0.79988 0.0
O130 O 0.91783 0.66521 0.85373 0.0
O131 O 0.93517 0.63596 0.74499 0.0
Sc132 Sc 0.86344 0.96014 0.3446 0.0
Sc133 Sc 0.92687 0.93441 0.26556 0.0
Sc134 Sc 0.95841 0.86312 0.34029 0.0
O135 O 0.91608 0.91917 0.31678 0.0
C136 C 0.94962 0.94276 0.40273 0.0
C137 C 0.92036 0.04699 0.30058 0.0
C138 C 0.04213 0.92056 0.2945 0.0
C139 C 0.8064 0.95131 0.27094 0.0
C140 C 0.84283 0.84204 0.36584 0.0
C141 C 0.93759 0.81255 0.26594 0.0
O142 O 0.90995 0.96554 0.39092 0.0
O143 O 0.93025 0.01565 0.27604 0.0
O144 O 0.03042 0.89438 0.32125 0.0
O145 O 0.80827 0.96099 0.30313 0.0
O146 O 0.88936 0.82808 0.36063 0.0
O147 O 0.92632 0.85396 0.24996 0.0
O148 O 0.82731 0.88859 0.3616 0.0
O149 O 0.84568 0.93881 0.25324 0.0
O150 O 0.95097 0.81138 0.29748 0.0
O151 O 0.89661 0.03365 0.3281 0.0
O152 O 0.97151 0.90607 0.38674 0.0
O153 O 0.00907 0.93443 0.27199 0.0
Sc154 Sc 0.52819 0.88254 0.83941 0.0
Sc155 Sc 0.56166 0.93838 0.75996 0.0
Sc156 Sc 0.62217 0.97839 0.8351 0.0
O157 O 0.57064 0.93212 0.8116 0.0
C158 C 0.54137 0.9677 0.89656 0.0
C159 C 0.44614 0.9364 0.78871 0.0
C160 C 0.56213 0.0518 0.78664 0.0
C161 C 0.54422 0.81847 0.77007 0.0
C162 C 0.64607 0.86557 0.86312 0.0
C163 C 0.6775 0.95747 0.76258 0.0
O164 O 0.51284 0.93548 0.88095 0.0
O165 O 0.48 0.95076 0.76679 0.0
O166 O 0.57669 0.04443 0.81785 0.0
O167 O 0.53803 0.82173 0.80251 0.0
O168 O 0.66324 0.90902 0.85183 0.0
O169 O 0.64293 0.92765 0.75053 0.0
O170 O 0.59799 0.85431 0.86394 0.0
O171 O 0.54999 0.85746 0.75069 0.0
O172 O 0.67119 0.98382 0.79004 0.0
O173 O 0.45699 0.90904 0.8153 0.0
O174 O 0.58388 0.98289 0.88422 0.0
O175 O 0.57343 0.02026 0.7626 0.0
H176 H 0.33412 0.54263 0.31307 0.0
H177 H 0.4149 0.47886 0.22496 0.0
H178 H 0.33611 0.43961 0.20395 0.0
H179 H 0.24309 0.43227 0.20622 0.0
H180 H 0.15915 0.49537 0.29266 0.0
H181 H 0.24021 0.52503 0.3191 0.0
C182 C 0.33435 0.51972 0.28951 0.0
C183 C 0.37987 0.51514 0.27005 0.0
C184 C 0.2884 0.49722 0.2772 0.0
C185 C 0.37998 0.48449 0.23988 0.0
C186 C 0.33503 0.46165 0.22786 0.0
C187 C 0.24275 0.45172 0.23117 0.0
C188 C 0.19575 0.4624 0.24735 0.0
C189 C 0.28886 0.46922 0.24564 0.0
C190 C 0.19531 0.48684 0.27986 0.0
C191 C 0.24149 0.50417 0.29475 0.0
H192 H 0.02755 0.4116 0.76498 0.0
H193 H 0.89582 0.35674 0.8221 0.0
H194 H 0.92205 0.26692 0.81079 0.0
H195 H 0.97679 0.20455 0.77803 0.0
H196 H 0.10519 0.262 0.71887 0.0
H197 H 0.08665 0.35018 0.73812 0.0
C198 C 0.00464 0.38005 0.77523 0.0
C199 C 0.95917 0.39091 0.7938 0.0
C200 C 0.01967 0.32889 0.76835 0.0
C201 C 0.93075 0.3495 0.80754 0.0
C202 C 0.94571 0.29815 0.80098 0.0
C203 C 0.00166 0.23629 0.77048 0.0
C204 C 0.04283 0.22693 0.74753 0.0
C205 C 0.9894 0.28736 0.78061 0.0
C206 C 0.0739 0.26836 0.73695 0.0
C207 C 0.06293 0.31879 0.74765 0.0
H208 H 0.28094 0.96071 0.27555 0.0
H209 H 0.22069 0.07921 0.20828 0.0
H210 H 0.13292 0.05945 0.2269 0.0
H211 H 0.07344 0.00201 0.2565 0.0
H212 H 0.13146 0.8799 0.32196 0.0
H213 H 0.22016 0.90736 0.30991 0.0
C214 C 0.24856 0.98311 0.26594 0.0
C215 C 0.25686 0.02167 0.24094 0.0
C216 C 0.19797 0.97 0.27572 0.0
C217 C 0.21486 0.04976 0.22783 0.0
C218 C 0.16479 0.03812 0.23819 0.0
C219 C 0.10541 0.98129 0.26822 0.0
C220 C 0.09591 0.93822 0.28949 0.0
C221 C 0.15586 -0.00289 0.26109 0.0
C222 C 0.13778 0.9128 0.30518 0.0
C223 C 0.18845 0.92853 0.29831 0.0
H224 H 0.44013 0.22444 0.70854 0.0
H225 H 0.49422 0.31732 0.79396 0.0
H226 H 0.52784 0.23986 0.82271 0.0
H227 H 0.55326 0.14706 0.81881 0.0
H228 H 0.49893 0.05723 0.73158 0.0
H229 H 0.454 0.13168 0.70868 0.0
C230 C 0.4583 0.22754 0.73381 0.0
C231 C 0.46546 0.2763 0.74885 0.0
C232 C 0.47847 0.18336 0.74965 0.0
C233 C 0.48831 0.27995 0.78184 0.0
C234 C 0.50806 0.23576 0.79812 0.0
C235 C 0.53112 0.14389 0.79505 0.0
C236 C 0.53103 0.09716 0.77639 0.0
C237 C 0.50531 0.18746 0.78153 0.0
C238 C 0.50122 0.09322 0.74594 0.0
C239 C 0.4751 0.13571 0.73281 0.0
H240 H 0.68468 0.45093 0.21295 0.0
H241 H 0.74865 0.57901 0.27047 0.0
H242 H 0.83417 0.56026 0.24709 0.0
H243 H 0.89111 0.50204 0.2167 0.0
H244 H 0.83152 0.36686 0.16458 0.0
H245 H 0.74301 0.39435 0.17862 0.0
C246 C 0.71739 0.47511 0.2197 0.0
C247 C 0.71107 0.51619 0.24326 0.0
C248 C 0.76673 0.46253 0.20741 0.0
C249 C 0.75322 0.54716 0.25243 0.0
C250 C 0.80186 0.53641 0.23914 0.0
C251 C 0.85877 0.47849 0.20824 0.0
C252 C 0.86757 0.43181 0.19045 0.0
C253 C 0.80915 0.49326 0.21764 0.0
C254 C 0.82547 0.40269 0.1786 0.0
C255 C 0.77511 0.41826 0.18684 0.0
H256 H 0.97688 0.91011 0.73137 0.0
H257 H 0.09197 0.85394 0.66004 0.0
H258 H 0.06314 0.76493 0.66977 0.0
H259 H 0.01239 0.70287 0.70438 0.0
H260 H 0.90026 0.76008 0.77715 0.0
H261 H 0.91946 0.84919 0.76032 0.0
C262 C -0.00448 0.8784 0.71783 0.0
C263 C 0.03725 0.88831 0.69567 0.0
C264 C 0.97875 0.82767 0.72351 0.0
C265 C 0.06015 0.84709 0.67757 0.0
C266 C 0.04365 0.79627 0.68308 0.0
C267 C 0.99092 0.73496 0.71541 0.0
C268 C 0.9545 0.72553 0.74143 0.0
C269 C 0.00381 0.78603 0.70664 0.0
C270 C 0.92776 0.76695 0.75656 0.0
C271 C 0.93926 0.81773 0.74731 0.0
H272 H 0.5727 0.97345 0.23595 0.0
H273 H 0.63119 0.08319 0.16172 0.0
H274 H 0.71986 0.05725 0.17618 0.0
H275 H 0.78049 0.00922 0.21467 0.0
H276 H 0.71887 0.90464 0.29094 0.0
H277 H 0.63139 0.92219 0.27061 0.0
C278 C 0.60472 0.99188 0.22279 0.0
C279 C 0.59535 0.03105 0.19829 0.0
C280 C 0.655 0.97744 0.2316 0.0
C281 C 0.63736 0.05329 0.18089 0.0
C282 C 0.68801 0.03852 0.18923 0.0
C283 C 0.7478 0.98956 0.22614 0.0
C284 C 0.75569 0.95556 0.25409 0.0
C285 C 0.69731 0.00142 0.21514 0.0
C286 C 0.71337 0.93083 0.26935 0.0
C287 C 0.66348 0.94106 0.25787 0.0
H288 H 0.52073 0.58408 0.73733 0.0
H289 H 0.43147 0.64465 0.65206 0.0
H290 H 0.45922 0.73266 0.66698 0.0
H291 H 0.49973 0.7923 0.70908 0.0
H292 H 0.58234 0.72974 0.79665 0.0
H293 H 0.56665 0.64196 0.77579 0.0
C294 C 0.50738 0.61646 0.72185 0.0
C295 C 0.47308 0.60823 0.69421 0.0
C296 C 0.52222 0.66638 0.7311 0.0
C297 C 0.45744 0.65027 0.67374 0.0
C298 C 0.47314 0.70046 0.68234 0.0
C299 C 0.51506 0.75934 0.72309 0.0
C300 C 0.54163 0.76694 0.75441 0.0
C301 C 0.50419 0.70902 0.71165 0.0
C302 C 0.56124 0.72435 0.77266 0.0
C303 C 0.55226 0.67436 0.7608 0.0
H304 H 0.80025 0.46685 0.71745 0.0
H305 H 0.73582 0.58863 0.78051 0.0
H306 H 0.64931 0.5673 0.7599 0.0
H307 H 0.59233 0.50951 0.72921 0.0
H308 H 0.65295 0.38202 0.66942 0.0
H309 H 0.74125 0.4104 0.68314 0.0
C310 C 0.76718 0.4892 0.72597 0.0
C311 C 0.77389 0.52936 0.75024 0.0
C312 C 0.71729 0.47523 0.71507 0.0
C313 C 0.73114 0.5577 0.76177 0.0
C314 C 0.68187 0.54537 0.75013 0.0
C315 C 0.62469 0.48758 0.7191 0.0
C316 C 0.6161 0.44291 0.69898 0.0
C317 C 0.6745 0.50333 0.72768 0.0
C318 C 0.65859 0.41618 0.68527 0.0
C319 C 0.70895 0.43237 0.69319 0.0
H320 H 0.95516 0.57825 0.23348 0.0
H321 H 0.06986 0.63453 0.16207 0.0
H322 H 0.04288 0.72366 0.17365 0.0
H323 H -0.00582 0.78565 0.20999 0.0
H324 H 0.88354 0.72788 0.28343 0.0
H325 H 0.90036 0.63919 0.26453 0.0
C326 C 0.97413 0.60995 0.22026 0.0
C327 C 0.0152 0.59987 0.19755 0.0
C328 C 0.95877 0.66083 0.22725 0.0
C329 C 0.03849 0.64131 0.17999 0.0
C330 C 0.02309 0.69228 0.1866 0.0
C331 C 0.97264 0.75361 0.22085 0.0
C332 C 0.93749 0.76277 0.24774 0.0
C333 C 0.98421 0.70256 0.21089 0.0
C334 C 0.91046 0.72128 0.26243 0.0
C335 C 0.92044 0.67069 0.2519 0.0
H336 H 0.90574 0.97843 0.71304 0.0
H337 H 0.85431 0.13388 0.69186 0.0
H338 H 0.76568 0.10945 0.70683 0.0
H339 H 0.70543 0.04604 0.73209 0.0
H340 H 0.75642 0.8901 0.75159 0.0
H341 H 0.84302 0.91205 0.73063 0.0
C342 C 0.8749 0.00674 0.71138 0.0
C343 C 0.88627 0.05806 0.70199 0.0
C344 C 0.82434 0.99221 0.71966 0.0
C345 C 0.84621 0.09427 0.69918 0.0
C346 C 0.79574 0.08032 0.70784 0.0
C347 C 0.73534 0.01669 0.73083 0.0
C348 C 0.72512 0.9666 0.74312 0.0
C349 C 0.78469 0.02976 0.71892 0.0
C350 C 0.76369 0.92867 0.74179 0.0
C351 C 0.81312 0.94139 0.73015 0.0
H352 H 0.50767 0.88918 0.21781 0.0
H353 H 0.36134 0.83829 0.1768 0.0
H354 H 0.3859 0.74798 0.18656 0.0
H355 H 0.44506 0.68485 0.21303 0.0
H356 H 0.59115 0.73562 0.25389 0.0
H357 H 0.57142 0.82502 0.23719 0.0
C358 C 0.48134 0.85819 0.21089 0.0
C359 C 0.43239 0.87 0.19737 0.0
C360 C 0.49596 0.80666 0.21621 0.0
C361 C 0.39901 0.82983 0.18758 0.0
C362 C 0.41304 0.77835 0.19313 0.0
C363 C 0.47313 0.71543 0.21706 0.0
C364 C 0.51962 0.70435 0.23406 0.0
C365 C 0.46091 0.76646 0.20813 0.0
C366 C 0.55562 0.74373 0.2401 0.0
C367 C 0.544 0.79471 0.23102 0.0
H368 H 0.26303 0.54186 0.69853 0.0
H369 H 0.29787 0.43912 0.78346 0.0
H370 H 0.21835 0.4659 0.81268 0.0
H371 H 0.13627 0.51558 0.81213 0.0
H372 H 0.1028 0.61523 0.72551 0.0
H373 H 0.18529 0.59332 0.69909 0.0
C374 C 0.25338 0.52502 0.72339 0.0
C375 C 0.28597 0.48804 0.73856 0.0
C376 C 0.20815 0.54056 0.73988 0.0
C377 C 0.27316 0.46742 0.7711 0.0
C378 C 0.22782 0.48281 0.78784 0.0
C379 C 0.1479 0.53314 0.78789 0.0
C380 C 0.11423 0.56702 0.77069 0.0
C381 C 0.1948 0.51912 0.77232 0.0
C382 C 0.12862 0.58911 0.73903 0.0
C383 C 0.17546 0.5764 0.72387 0.0
H384 H 0.962 0.2856 0.27807 0.0
H385 H 0.07489 0.22138 0.20831 0.0
H386 H 0.05642 0.13445 0.22957 0.0
H387 H 0.00125 0.07655 0.26208 0.0
H388 H 0.88353 0.13769 0.32951 0.0
H389 H 0.91099 0.2262 0.31542 0.0
C390 C 0.98341 0.25257 0.26836 0.0
C391 C 0.01993 0.25956 0.24184 0.0
C392 C 0.971 0.20232 0.27976 0.0
C393 C 0.04682 0.21665 0.22881 0.0
C394 C 0.03602 0.16704 0.24079 0.0
C395 C 0.98157 0.10916 0.27389 0.0
C396 C 0.93961 0.10059 0.29622 0.0
C397 C -0.00306 0.15935 0.26526 0.0
C398 C 0.91561 0.14328 0.312 0.0
C399 C 0.93124 0.19382 0.30385 0.0
H400 H 0.41167 0.00913 0.74354 0.0
H401 H 0.35834 0.90236 0.82143 0.0
H402 H 0.26915 0.92845 0.81009 0.0
H403 H 0.20557 0.97708 0.77456 0.0
H404 H 0.26055 0.08045 0.6954 0.0
H405 H 0.34976 0.06117 0.71125 0.0
C406 C 0.38069 0.99148 0.75816 0.0
C407 C 0.39189 0.95324 0.78299 0.0
C408 C 0.32963 0.00652 0.75146 0.0
C409 C 0.351 0.93159 0.80198 0.0
C410 C 0.2999 0.94655 0.79554 0.0
C411 C 0.23724 -0.00375 0.76152 0.0
C412 C 0.2268 0.03049 0.73414 0.0
C413 C 0.28864 0.9835 0.76999 0.0
C414 C 0.26792 0.05429 0.71676 0.0
C415 C 0.31885 0.04296 0.72561 0.0
H416 H 0.46114 0.39394 0.25809 0.0
H417 H 0.59492 0.34045 0.31423 0.0
H418 H 0.56968 0.25041 0.30289 0.0
H419 H 0.51458 0.18755 0.2709 0.0
H420 H 0.38461 0.24366 0.21224 0.0
H421 H 0.40283 0.33222 0.23103 0.0
C422 C 0.48482 0.36267 0.26806 0.0
C423 C 0.53046 0.37393 0.28642 0.0
C424 C 0.47049 0.31148 0.26103 0.0
C425 C 0.55984 0.33286 0.29983 0.0
C426 C 0.54546 0.28141 0.29324 0.0
C427 C 0.48954 0.21917 0.26322 0.0
C428 C 0.44787 0.20946 0.24072 0.0
C429 C 0.50153 0.27029 0.27312 0.0
C430 C 0.41634 0.2505 0.22998 0.0
C431 C 0.42705 0.30104 0.24046 0.0
H432 H 0.13261 0.24966 0.1091 0.0
H433 H 0.23572 0.37688 0.13102 0.0
H434 H 0.30951 0.31911 0.12724 0.0
H435 H 0.34412 0.23091 0.12456 0.0
H436 H 0.241 0.10358 0.10297 0.0
H437 H 0.16853 0.1631 0.09927 0.0
C438 C 0.17123 0.26492 0.11258 0.0
C439 C 0.17826 0.31743 0.12083 0.0
C440 C 0.21379 0.2314 0.11062 0.0
C441 C 0.22882 0.33658 0.12483 0.0
C442 C 0.27126 0.30352 0.12278 0.0
C443 C 0.30603 0.21622 0.11833 0.0
C444 C 0.29812 0.16269 0.11467 0.0
C445 C 0.26411 0.2506 0.11667 0.0
C446 C 0.24835 0.14453 0.10642 0.0
C447 C 0.20666 0.17853 0.10436 0.0
H448 H 0.14188 0.24586 0.61849 0.0
H449 H 0.24262 0.1129 0.61214 0.0
H450 H 0.31739 0.1693 0.60915 0.0
H451 H 0.35511 0.25585 0.61533 0.0
H452 H 0.25419 0.38871 0.62168 0.0
H453 H 0.17922 0.33283 0.61729 0.0
C454 C 0.18005 0.22915 0.61582 0.0
C455 C 0.18634 0.17514 0.61614 0.0
C456 C 0.22327 0.26179 0.61448 0.0
C457 C 0.2363 0.15434 0.61231 0.0
C458 C 0.27935 0.18657 0.61073 0.0
C459 C 0.31678 0.2727 0.61528 0.0
C460 C 0.31063 0.32639 0.61947 0.0
C461 C 0.27342 0.24031 0.61294 0.0
C462 C 0.26046 0.34747 0.61887 0.0
C463 C 0.21729 0.31553 0.61642 0.0
H464 H 0.73753 0.84859 0.36278 0.0
H465 H 0.8615 0.74124 0.38351 0.0
H466 H 0.80045 0.66969 0.38424 0.0
H467 H 0.71339 0.63614 0.37295 0.0
H468 H 0.58969 0.74343 0.3512 0.0
H469 H 0.64897 0.81585 0.35724 0.0
C470 C 0.75117 0.80975 0.36821 0.0
C471 C 0.80432 0.80059 0.37279 0.0
C472 C 0.71587 0.76833 0.36802 0.0
C473 C 0.82098 0.74971 0.37963 0.0
C474 C 0.78605 0.70854 0.37995 0.0
C475 C 0.69911 0.67534 0.37 0.0
C476 C 0.647 0.68385 0.36127 0.0
C477 C 0.73361 0.71716 0.37318 0.0
C478 C 0.62949 0.73525 0.35776 0.0
C479 C 0.66347 0.77693 0.36113 0.0
H480 H 0.75198 0.86812 0.8634 0.0
H481 H 0.62305 0.76597 0.88143 0.0
H482 H 0.6811 0.69235 0.88502 0.0
H483 H 0.76762 0.65492 0.87685 0.0
H484 H 0.89658 0.75753 0.85997 0.0
H485 H 0.83962 0.83196 0.86252 0.0
C486 C 0.73657 0.82997 0.86875 0.0
C487 C 0.68293 0.82305 0.87165 0.0
C488 C 0.77025 0.78722 0.8707 0.0
C489 C 0.66403 0.77299 0.8788 0.0
C490 C 0.69725 0.73048 0.88075 0.0
C491 C 0.78345 0.69355 0.87431 0.0
C492 C 0.83645 0.7 0.86782 0.0
C493 C 0.75033 0.73684 0.87576 0.0
C494 C 0.85602 0.75076 0.86483 0.0
C495 C 0.82338 0.79372 0.86616 0.0
H496 H 0.92805 0.47803 0.93951 0.0
H497 H 0.05653 0.58364 0.93155 0.0
H498 H 0.08369 0.56122 0.99017 0.0
H499 H 0.07028 0.51258 0.04397 0.0
H500 H 0.94176 0.40692 0.05137 0.0
H501 H 0.91527 0.42889 -0.00732 0.0
C502 C 0.96217 0.49607 0.95043 0.0
C503 C 0.99008 0.53255 0.93104 0.0
C504 C 0.97743 0.4833 0.98418 0.0
C505 C 0.03421 0.55542 0.94579 0.0
C506 C 0.04974 0.54275 0.97939 0.0
C507 C 0.03632 0.49453 0.03284 0.0
C508 C 0.00803 0.45825 0.05217 0.0
C509 C 0.02142 0.50701 -0.0011 0.0
C510 C 0.96436 0.43493 0.03714 0.0
C511 C 0.94914 0.44742 0.00353 0.0
H512 H 0.06446 0.97745 0.54483 0.0
H513 H 0.94167 0.08863 0.55842 0.0
H514 H 0.90695 0.0662 0.50151 0.0
H515 H 0.91163 0.01507 0.4478 0.0
H516 H 0.03552 0.90476 0.43475 0.0
H517 H 0.06951 0.92719 0.4915 0.0
C518 C 0.02995 -0.0033 0.53551 0.0
C519 C 0.00573 0.03459 0.55599 0.0
C520 C 0.01041 0.98398 0.50273 0.0
C521 C 0.96121 0.05932 0.54324 0.0
C522 C 0.9413 0.04656 0.51066 0.0
C523 C 0.94614 -0.00397 0.45729 0.0
C524 C 0.97078 0.95822 0.43689 0.0
C525 C 0.96568 0.00903 0.49013 0.0
C526 C 0.01552 0.93397 0.44976 0.0
C527 C 0.03509 0.94669 0.4823 0.0
H528 H 0.4729 0.92319 0.94034 0.0
H529 H 0.57714 0.05261 0.93127 0.0
H530 H 0.55627 0.07979 0.99018 0.0
H531 H 0.50891 0.06647 0.0443 0.0
H532 H 0.40594 0.93582 0.05345 0.0
H533 H 0.42639 0.90932 -0.00544 0.0
C534 C 0.49072 0.95762 0.95111 0.0
C535 C 0.52631 0.98594 0.93138 0.0
C536 C 0.47922 0.97257 0.98514 0.0
C537 C 0.54959 0.03008 0.94593 0.0
C538 C 0.53777 0.04561 0.97963 0.0
C539 C 0.49113 0.03202 0.03354 0.0
C540 C 0.45589 0.00332 0.0534 0.0
C541 C 0.50287 0.01696 -0.00046 0.0
C542 C 0.4332 0.95879 0.03887 0.0
C543 C 0.44472 0.94361 0.0051 0.0
H544 H 0.5646 0.46449 0.43676 0.0
H545 H 0.43353 0.56639 0.42483 0.0
H546 H 0.40761 0.54928 0.48418 0.0
H547 H 0.42254 0.50705 0.5396 0.0
H548 H 0.55279 0.4045 0.55229 0.0
H549 H 0.57869 0.42059 0.49246 0.0
C550 C 0.53015 0.48266 0.44703 0.0
C551 C 0.50121 0.51678 0.42627 0.0
C552 C 0.51549 0.47295 0.48139 0.0
C553 C 0.45673 0.54009 0.44014 0.0
C554 C 0.44185 0.53044 0.47416 0.0
C555 C 0.4568 0.48835 0.52945 0.0
C556 C 0.4858 0.45484 0.55053 0.0
C557 C 0.47118 0.49735 0.49507 0.0
C558 C 0.52976 0.43057 0.53668 0.0
C559 C 0.54456 0.43967 0.50245 0.0
loop_
_geom_bond_atom_site_label_1
_geom_bond_atom_site_label_2
_geom_bond_distance
_geom_bond_site_symmetry_2
_ccdc_geom_bond_type
Sc0 O3 2.025 . S
Sc0 O10 2.105 . S
Sc0 O13 2.105 . S
Sc0 O16 2.105 . S
Sc0 O19 2.105 . S
Sc1 O3 2.025 . S
Sc1 O11 2.105 . S
Sc1 O15 2.105 . S
Sc1 O17 2.105 . S
Sc1 O21 2.105 1_455 S
Sc2 O3 2.025 . S
Sc2 O12 2.105 1_455 S
Sc2 O14 2.105 . S
Sc2 O18 2.105 . S
Sc2 O20 2.105 . S
O3 Sc0 2.025 . S
O3 Sc1 2.025 . S
O3 Sc2 2.025 . S
C4 O10 1.268 . S
C4 O20 1.268 . S
C5 O11 1.268 . S
C5 O19 1.268 . S
C6 O12 1.268 . S
C6 O21 1.268 . S
C7 O13 1.268 . S
C7 O17 1.268 . S
C8 O14 1.268 . S
C8 O16 1.268 . S
C9 O15 1.268 . S
C9 O18 1.268 . S
O10 Sc0 2.105 . S
O10 C4 1.268 . S
O11 Sc1 2.105 . S
O11 C5 1.268 . S
O12 Sc2 2.105 1_655 S
O12 C6 1.268 . S
O13 Sc0 2.105 . S
O13 C7 1.268 . S
O14 Sc2 2.105 . S
O14 C8 1.268 . S
O15 Sc1 2.105 . S
O15 C9 1.268 . S
O16 Sc0 2.105 . S
O16 C8 1.268 . S
O17 Sc1 2.105 . S
O17 C7 1.268 . S
O18 Sc2 2.105 . S
O18 C9 1.268 . S
O19 Sc0 2.105 . S
O19 C5 1.268 . S
O20 Sc2 2.105 . S
O20 C4 1.268 . S
O21 Sc1 2.105 1_655 S
O21 C6 1.268 . S
Sc22 O25 2.025 . S
Sc22 O32 2.105 . S
Sc22 O35 2.105 1_545 S
Sc22 O38 2.105 . S
Sc22 O41 2.105 . S
Sc23 O25 2.025 . S
Sc23 O33 2.105 . S
Sc23 O37 2.105 1_455 S
Sc23 O39 2.105 1_545 S
Sc23 O43 2.105 . S
Sc24 O25 2.025 . S
Sc24 O34 2.105 . S
Sc24 O36 2.105 . S
Sc24 O40 2.105 1_455 S
Sc24 O42 2.105 . S
O25 Sc22 2.025 . S
O25 Sc23 2.025 . S
O25 Sc24 2.025 . S
C26 O32 1.268 . S
C26 O42 1.268 . S
C27 O33 1.268 . S
C27 O41 1.268 . S
C28 O34 1.268 . S
C28 O43 1.268 . S
C29 O35 1.268 . S
C29 O39 1.268 . S
C30 O36 1.268 . S
C30 O38 1.268 . S
C31 O37 1.268 . S
C31 O40 1.268 . S
O32 Sc22 2.105 . S
O32 C26 1.268 . S
O33 Sc23 2.105 . S
O33 C27 1.268 . S
O34 Sc24 2.105 . S
O34 C28 1.268 . S
O35 Sc22 2.105 1_565 S
O35 C29 1.268 . S
O36 Sc24 2.105 . S
O36 C30 1.268 . S
O37 Sc23 2.105 1_655 S
O37 C31 1.268 . S
O38 Sc22 2.105 . S
O38 C30 1.268 . S
O39 Sc23 2.105 1_565 S
O39 C29 1.268 . S
O40 Sc24 2.105 1_655 S
O40 C31 1.268 . S
O41 Sc22 2.105 . S
O41 C27 1.268 . S
O42 Sc24 2.105 . S
O42 C26 1.268 . S
O43 Sc23 2.105 . S
O43 C28 1.268 . S
Sc44 O47 2.025 . S
Sc44 O54 2.105 . S
Sc44 O57 2.105 . S
Sc44 O60 2.105 . S
Sc44 O63 2.105 . S
Sc45 O47 2.025 . S
Sc45 O55 2.105 . S
Sc45 O59 2.105 1_545 S
Sc45 O61 2.105 . S
Sc45 O65 2.105 . S
Sc46 O47 2.025 . S
Sc46 O56 2.105 . S
Sc46 O58 2.105 . S
Sc46 O62 2.105 1_545 S
Sc46 O64 2.105 . S
O47 Sc44 2.025 . S
O47 Sc45 2.025 . S
O47 Sc46 2.025 . S
C48 O54 1.268 . S
C48 O64 1.268 . S
C49 O55 1.268 . S
C49 O63 1.268 . S
C50 O56 1.268 . S
C50 O65 1.268 . S
C51 O57 1.268 . S
C51 O61 1.268 . S
C52 O58 1.268 . S
C52 O60 1.268 . S
C53 O59 1.268 . S
C53 O62 1.268 . S
O54 Sc44 2.105 . S
O54 C48 1.268 . S
O55 Sc45 2.105 . S
O55 C49 1.268 . S
O56 Sc46 2.105 . S
O56 C50 1.268 . S
O57 Sc44 2.105 . S
O57 C51 1.268 . S
O58 Sc46 2.105 . S
O58 C52 1.268 . S
O59 Sc45 2.105 1_565 S
O59 C53 1.268 . S
O60 Sc44 2.105 . S
O60 C52 1.268 . S
O61 Sc45 2.105 . S
O61 C51 1.268 . S
O62 Sc46 2.105 1_565 S
O62 C53 1.268 . S
O63 Sc44 2.105 . S
O63 C49 1.268 . S
O64 Sc46 2.105 . S
O64 C48 1.268 . S
O65 Sc45 2.105 . S
O65 C50 1.268 . S
Sc66 O69 2.025 . S
Sc66 O76 2.105 . S
Sc66 O79 2.105 . S
Sc66 O82 2.105 . S
Sc66 O85 2.105 . S
Sc67 O69 2.025 . S
Sc67 O77 2.105 . S
Sc67 O81 2.105 . S
Sc67 O83 2.105 . S
Sc67 O87 2.105 . S
Sc68 O69 2.025 . S
Sc68 O78 2.105 . S
Sc68 O80 2.105 . S
Sc68 O84 2.105 . S
Sc68 O86 2.105 . S
O69 Sc66 2.025 . S
O69 Sc67 2.025 . S
O69 Sc68 2.025 . S
C70 O76 1.268 . S
C70 O86 1.268 . S
C71 O77 1.268 . S
C71 O85 1.268 . S
C72 O78 1.268 . S
C72 O87 1.268 . S
C73 O79 1.268 . S
C73 O83 1.268 . S
C74 O80 1.268 . S
C74 O82 1.268 . S
C75 O81 1.268 . S
C75 O84 1.268 . S
O76 Sc66 2.105 . S
O76 C70 1.268 . S
O77 Sc67 2.105 . S
O77 C71 1.268 . S
O78 Sc68 2.105 . S
O78 C72 1.268 . S
O79 Sc66 2.105 . S
O79 C73 1.268 . S
O80 Sc68 2.105 . S
O80 C74 1.268 . S
O81 Sc67 2.105 . S
O81 C75 1.268 . S
O82 Sc66 2.105 . S
O82 C74 1.268 . S
O83 Sc67 2.105 . S
O83 C73 1.268 . S
O84 Sc68 2.105 . S
O84 C75 1.268 . S
O85 Sc66 2.105 . S
O85 C71 1.268 . S
O86 Sc68 2.105 . S
O86 C70 1.268 . S
O87 Sc67 2.105 . S
O87 C72 1.268 . S
Sc88 O91 2.025 . S
Sc88 O98 2.105 . S
Sc88 O101 2.105 . S
Sc88 O104 2.105 . S
Sc88 O107 2.105 . S
Sc89 O91 2.025 . S
Sc89 O99 2.105 . S
Sc89 O103 2.105 . S
Sc89 O105 2.105 . S
Sc89 O109 2.105 . S
Sc90 O91 2.025 . S
Sc90 O100 2.105 . S
Sc90 O102 2.105 . S
Sc90 O106 2.105 . S
Sc90 O108 2.105 . S
O91 Sc88 2.025 . S
O91 Sc89 2.025 . S
O91 Sc90 2.025 . S
C92 O98 1.268 . S
C92 O108 1.268 . S
C93 O99 1.268 . S
C93 O107 1.268 . S
C94 O100 1.268 . S
C94 O109 1.268 . S
C95 O101 1.268 . S
C95 O105 1.268 . S
C96 O102 1.268 . S
C96 O104 1.268 . S
C97 O103 1.268 . S
C97 O106 1.268 . S
O98 Sc88 2.105 . S
O98 C92 1.268 . S
O99 Sc89 2.105 . S
O99 C93 1.268 . S
O100 Sc90 2.105 . S
O100 C94 1.268 . S
O101 Sc88 2.105 . S
O101 C95 1.268 . S
O102 Sc90 2.105 . S
O102 C96 1.268 . S
O103 Sc89 2.105 . S
O103 C97 1.268 . S
O104 Sc88 2.105 . S
O104 C96 1.268 . S
O105 Sc89 2.105 . S
O105 C95 1.268 . S
O106 Sc90 2.105 . S
O106 C97 1.268 . S
O107 Sc88 2.105 . S
O107 C93 1.268 . S
O108 Sc90 2.105 . S
O108 C92 1.268 . S
O109 Sc89 2.105 . S
O109 C94 1.268 . S
Sc110 O113 2.025 . S
Sc110 O120 2.105 . S
Sc110 O123 2.105 . S
Sc110 O126 2.105 . S
Sc110 O129 2.105 . S
Sc111 O113 2.025 . S
Sc111 O121 2.105 . S
Sc111 O125 2.105 1_655 S
Sc111 O127 2.105 . S
Sc111 O131 2.105 . S
Sc112 O113 2.025 . S
Sc112 O122 2.105 . S
Sc112 O124 2.105 . S
Sc112 O128 2.105 1_655 S
Sc112 O130 2.105 . S
O113 Sc110 2.025 . S
O113 Sc111 2.025 . S
O113 Sc112 2.025 . S
C114 O120 1.268 . S
C114 O130 1.268 . S
C115 O121 1.268 . S
C115 O129 1.268 . S
C116 O122 1.268 . S
C116 O131 1.268 . S
C117 O123 1.268 . S
C117 O127 1.268 . S
C118 O124 1.268 . S
C118 O126 1.268 . S
C119 O125 1.268 . S
C119 O128 1.268 . S
O120 Sc110 2.105 . S
O120 C114 1.268 . S
O121 Sc111 2.105 . S
O121 C115 1.268 . S
O122 Sc112 2.105 . S
O122 C116 1.268 . S
O123 Sc110 2.105 . S
O123 C117 1.268 . S
O124 Sc112 2.105 . S
O124 C118 1.268 . S
O125 Sc111 2.105 1_455 S
O125 C119 1.268 . S
O126 Sc110 2.105 . S
O126 C118 1.268 . S
O127 Sc111 2.105 . S
O127 C117 1.268 . S
O128 Sc112 2.105 1_455 S
O128 C119 1.268 . S
O129 Sc110 2.105 . S
O129 C115 1.268 . S
O130 Sc112 2.105 . S
O130 C114 1.268 . S
O131 Sc111 2.105 . S
O131 C116 1.268 . S
Sc132 O135 2.025 . S
Sc132 O142 2.105 . S
Sc132 O145 2.105 . S
Sc132 O148 2.105 . S
Sc132 O151 2.105 1_565 S
Sc133 O135 2.025 . S
Sc133 O143 2.105 1_565 S
Sc133 O147 2.105 . S
Sc133 O149 2.105 . S
Sc133 O153 2.105 1_655 S
Sc134 O135 2.025 . S
Sc134 O144 2.105 1_655 S
Sc134 O146 2.105 . S
Sc134 O150 2.105 . S
Sc134 O152 2.105 . S
O135 Sc132 2.025 . S
O135 Sc133 2.025 . S
O135 Sc134 2.025 . S
C136 O142 1.268 . S
C136 O152 1.268 . S
C137 O143 1.268 . S
C137 O151 1.268 . S
C138 O144 1.268 . S
C138 O153 1.268 . S
C139 O145 1.268 . S
C139 O149 1.268 . S
C140 O146 1.268 . S
C140 O148 1.268 . S
C141 O147 1.268 . S
C141 O150 1.268 . S
O142 Sc132 2.105 . S
O142 C136 1.268 . S
O143 Sc133 2.105 1_545 S
O143 C137 1.268 . S
O144 Sc134 2.105 1_455 S
O144 C138 1.268 . S
O145 Sc132 2.105 . S
O145 C139 1.268 . S
O146 Sc134 2.105 . S
O146 C140 1.268 . S
O147 Sc133 2.105 . S
O147 C141 1.268 . S
O148 Sc132 2.105 . S
O148 C140 1.268 . S
O149 Sc133 2.105 . S
O149 C139 1.268 . S
O150 Sc134 2.105 . S
O150 C141 1.268 . S
O151 Sc132 2.105 1_545 S
O151 C137 1.268 . S
O152 Sc134 2.105 . S
O152 C136 1.268 . S
O153 Sc133 2.105 1_455 S
O153 C138 1.268 . S
Sc154 O157 2.025 . S
Sc154 O164 2.105 . S
Sc154 O167 2.105 . S
Sc154 O170 2.105 . S
Sc154 O173 2.105 . S
Sc155 O157 2.025 . S
Sc155 O165 2.105 . S
Sc155 O169 2.105 . S
Sc155 O171 2.105 . S
Sc155 O175 2.105 1_565 S
Sc156 O157 2.025 . S
Sc156 O166 2.105 1_565 S
Sc156 O168 2.105 . S
Sc156 O172 2.105 . S
Sc156 O174 2.105 . S
O157 Sc154 2.025 . S
O157 Sc155 2.025 . S
O157 Sc156 2.025 . S
C158 O164 1.268 . S
C158 O174 1.268 . S
C159 O165 1.268 . S
C159 O173 1.268 . S
C160 O166 1.268 . S
C160 O175 1.268 . S
C161 O167 1.268 . S
C161 O171 1.268 . S
C162 O168 1.268 . S
C162 O170 1.268 . S
C163 O169 1.268 . S
C163 O172 1.268 . S
O164 Sc154 2.105 . S
O164 C158 1.268 . S
O165 Sc155 2.105 . S
O165 C159 1.268 . S
O166 Sc156 2.105 1_545 S
O166 C160 1.268 . S
O167 Sc154 2.105 . S
O167 C161 1.268 . S
O168 Sc156 2.105 . S
O168 C162 1.268 . S
O169 Sc155 2.105 . S
O169 C163 1.268 . S
O170 Sc154 2.105 . S
O170 C162 1.268 . S
O171 Sc155 2.105 . S
O171 C161 1.268 . S
O172 Sc156 2.105 . S
O172 C163 1.268 . S
O173 Sc154 2.105 . S
O173 C159 1.268 . S
O174 Sc156 2.105 . S
O174 C158 1.268 . S
O175 Sc155 2.105 1_545 S
O175 C160 1.268 . S
H176 C182 0.930 . S
H177 C185 0.930 . S
H178 C186 0.930 . S
H179 C187 0.930 . S
H180 C190 0.930 . S
H181 C191 0.930 . S
C182 H176 0.930 . S
C182 C183 1.355 . S
C182 C184 1.415 . S
C183 C182 1.355 . S
C183 C185 1.419 . S
C184 C182 1.415 . S
C184 C189 1.425 . S
C184 C191 1.409 . S
C185 H177 0.930 . S
C185 C183 1.419 . S
C185 C186 1.362 . S
C186 H178 0.930 . S
C186 C185 1.362 . S
C186 C189 1.409 . S
C187 H179 0.930 . S
C187 C188 1.355 . S
C187 C189 1.415 . S
C188 C187 1.355 . S
C188 C190 1.419 . S
C189 C184 1.425 . S
C189 C186 1.409 . S
C189 C187 1.415 . S
C190 H180 0.930 . S
C190 C188 1.419 . S
C190 C191 1.362 . S
C191 H181 0.930 . S
C191 C184 1.409 . S
C191 C190 1.362 . S
H192 C198 0.930 . S
H193 C201 0.930 . S
H194 C202 0.927 1_455 S
H195 C203 0.930 . S
H196 C206 0.930 . S
H197 C207 0.929 1_655 S
C198 H192 0.930 . S
C198 C199 1.355 . S
C198 C200 1.415 . S
C199 C198 1.355 . S
C199 C201 1.419 . S
C200 C198 1.415 . S
C200 C205 1.425 1_655 S
C200 C207 1.408 1_655 S
C201 H193 0.930 . S
C201 C199 1.419 . S
C201 C202 1.362 . S
C202 H194 0.927 1_655 S
C202 C201 1.362 . S
C202 C205 1.409 1_655 S
C203 H195 0.930 . S
C203 C204 1.355 . S
C203 C205 1.415 . S
C204 C203 1.355 . S
C204 C206 1.419 . S
C205 C200 1.425 1_455 S
C205 C202 1.409 1_455 S
C205 C203 1.415 . S
C206 H196 0.930 . S
C206 C204 1.419 . S
C206 C207 1.365 . S
C207 H197 0.929 1_455 S
C207 C200 1.408 1_455 S
C207 C206 1.365 . S
H208 C214 0.930 . S
H209 C217 0.930 . S
H210 C218 0.930 . S
H211 C219 0.930 . S
H212 C222 0.930 . S
H213 C223 0.930 . S
C214 H208 0.930 . S
C214 C215 1.355 . S
C214 C216 1.415 1_545 S
C215 C214 1.355 . S
C215 C217 1.419 . S
C216 C214 1.415 1_565 S
C216 C221 1.426 . S
C216 C223 1.409 . S
C217 H209 0.930 . S
C217 C215 1.419 . S
C217 C218 1.362 . S
C218 H210 0.930 . S
C218 C217 1.362 . S
C218 C221 1.407 1_545 S
C219 H211 0.930 . S
C219 C220 1.355 . S
C219 C221 1.416 . S
C220 C219 1.355 . S
C220 C222 1.419 . S
C221 C216 1.426 . S
C221 C218 1.407 1_565 S
C221 C219 1.416 . S
C222 H212 0.930 . S
C222 C220 1.419 . S
C222 C223 1.362 . S
C223 H213 0.930 . S
C223 C216 1.409 . S
C223 C222 1.362 . S
H224 C230 0.930 . S
H225 C233 0.930 . S
H226 C234 0.930 . S
H227 C235 0.930 . S
H228 C238 0.930 . S
H229 C239 0.930 . S
C230 H224 0.930 . S
C230 C231 1.355 . S
C230 C232 1.415 . S
C231 C230 1.355 . S
C231 C233 1.419 . S
C232 C230 1.415 . S
C232 C237 1.425 . S
C232 C239 1.409 . S
C233 H225 0.930 . S
C233 C231 1.419 . S
C233 C234 1.362 . S
C234 H226 0.930 . S
C234 C233 1.362 . S
C234 C237 1.409 . S
C235 H227 0.930 . S
C235 C236 1.355 . S
C235 C237 1.415 . S
C236 C235 1.355 . S
C236 C238 1.419 . S
C237 C232 1.425 . S
C237 C234 1.409 . S
C237 C235 1.415 . S
C238 H228 0.930 . S
C238 C236 1.419 . S
C238 C239 1.362 . S
C239 H229 0.930 . S
C239 C232 1.409 . S
C239 C238 1.362 . S
H240 C246 0.930 . S
H241 C249 0.930 . S
H242 C250 0.930 . S
H243 C251 0.930 . S
H244 C254 0.930 . S
H245 C255 0.930 . S
C246 H240 0.930 . S
C246 C247 1.355 . S
C246 C248 1.415 . S
C247 C246 1.355 . S
C247 C249 1.419 . S
C248 C246 1.415 . S
C248 C253 1.425 . S
C248 C255 1.409 . S
C249 H241 0.930 . S
C249 C247 1.419 . S
C249 C250 1.362 . S
C250 H242 0.930 . S
C250 C249 1.362 . S
C250 C253 1.409 . S
C251 H243 0.930 . S
C251 C252 1.355 . S
C251 C253 1.415 . S
C252 C251 1.355 . S
C252 C254 1.419 . S
C253 C248 1.425 . S
C253 C250 1.409 . S
C253 C251 1.415 . S
C254 H244 0.930 . S
C254 C252 1.419 . S
C254 C255 1.362 . S
C255 H245 0.930 . S
C255 C248 1.409 . S
C255 C254 1.362 . S
H256 C262 0.930 . S
H257 C265 0.930 . S
H258 C266 0.930 . S
H259 C267 0.930 . S
H260 C270 0.930 . S
H261 C271 0.930 . S
C262 H256 0.930 . S
C262 C263 1.355 . S
C262 C264 1.415 . S
C263 C262 1.355 . S
C263 C265 1.419 . S
C264 C262 1.415 . S
C264 C269 1.425 1_455 S
C264 C271 1.409 . S
C265 H257 0.930 . S
C265 C263 1.419 . S
C265 C266 1.362 1_455 S
C266 H258 0.930 . S
C266 C265 1.362 1_655 S
C266 C269 1.409 . S
C267 H259 0.930 . S
C267 C268 1.355 . S
C267 C269 1.415 . S
C268 C267 1.355 . S
C268 C270 1.419 . S
C269 C264 1.425 1_655 S
C269 C266 1.409 . S
C269 C267 1.415 . S
C270 H260 0.930 . S
C270 C268 1.419 . S
C270 C271 1.362 1_655 S
C271 H261 0.930 . S
C271 C264 1.409 . S
C271 C270 1.362 1_455 S
H272 C278 0.930 . S
H273 C281 0.930 . S
H274 C282 0.930 . S
H275 C283 0.930 . S
H276 C286 0.930 . S
H277 C287 0.930 . S
C278 H272 0.930 . S
C278 C279 1.355 1_565 S
C278 C280 1.415 . S
C279 C278 1.355 1_545 S
C279 C281 1.419 . S
C280 C278 1.415 . S
C280 C285 1.425 1_565 S
C280 C287 1.409 . S
C281 H273 0.930 . S
C281 C279 1.419 . S
C281 C282 1.362 . S
C282 H274 0.930 . S
C282 C281 1.362 . S
C282 C285 1.409 . S
C283 H275 0.930 . S
C283 C284 1.355 1_545 S
C283 C285 1.415 . S
C284 C283 1.355 1_565 S
C284 C286 1.419 . S
C285 C280 1.425 1_545 S
C285 C282 1.409 . S
C285 C283 1.415 . S
C286 H276 0.930 . S
C286 C284 1.419 . S
C286 C287 1.362 . S
C287 H277 0.930 . S
C287 C280 1.409 . S
C287 C286 1.362 . S
H288 C294 0.930 . S
H289 C297 0.930 . S
H290 C298 0.930 . S
H291 C299 0.930 . S
H292 C302 0.930 . S
H293 C303 0.930 . S
C294 H288 0.930 . S
C294 C295 1.355 . S
C294 C296 1.415 . S
C295 C294 1.355 . S
C295 C297 1.419 . S
C296 C294 1.415 . S
C296 C301 1.425 . S
C296 C303 1.409 . S
C297 H289 0.930 . S
C297 C295 1.419 . S
C297 C298 1.362 . S
C298 H290 0.930 . S
C298 C297 1.362 . S
C298 C301 1.409 . S
C299 H291 0.930 . S
C299 C300 1.355 . S
C299 C301 1.415 . S
C300 C299 1.355 . S
C300 C302 1.419 . S
C301 C296 1.425 . S
C301 C298 1.409 . S
C301 C299 1.415 . S
C302 H292 0.930 . S
C302 C300 1.419 . S
C302 C303 1.362 . S
C303 H293 0.930 . S
C303 C296 1.409 . S
C303 C302 1.362 . S
H304 C310 0.930 . S
H305 C313 0.930 . S
H306 C314 0.930 . S
H307 C315 0.930 . S
H308 C318 0.930 . S
H309 C319 0.930 . S
C310 H304 0.930 . S
C310 C311 1.355 . S
C310 C312 1.415 . S
C311 C310 1.355 . S
C311 C313 1.419 . S
C312 C310 1.415 . S
C312 C317 1.425 . S
C312 C319 1.409 . S
C313 H305 0.930 . S
C313 C311 1.419 . S
C313 C314 1.362 . S
C314 H306 0.930 . S
C314 C313 1.362 . S
C314 C317 1.409 . S
C315 H307 0.930 . S
C315 C316 1.355 . S
C315 C317 1.415 . S
C316 C315 1.355 . S
C316 C318 1.419 . S
C317 C312 1.425 . S
C317 C314 1.409 . S
C317 C315 1.415 . S
C318 H308 0.930 . S
C318 C316 1.419 . S
C318 C319 1.362 . S
C319 H309 0.930 . S
C319 C312 1.409 . S
C319 C318 1.362 . S
H320 C326 0.930 . S
H321 C329 0.930 . S
H322 C330 0.930 . S
H323 C331 0.930 . S
H324 C334 0.930 . S
H325 C335 0.930 . S
C326 H320 0.930 . S
C326 C327 1.355 1_655 S
C326 C328 1.415 . S
C327 C326 1.355 1_455 S
C327 C329 1.419 . S
C328 C326 1.415 . S
C328 C333 1.425 1_655 S
C328 C335 1.409 . S
C329 H321 0.930 . S
C329 C327 1.419 . S
C329 C330 1.362 . S
C330 H322 0.930 . S
C330 C329 1.362 . S
C330 C333 1.409 . S
C331 H323 0.930 . S
C331 C332 1.355 1_455 S
C331 C333 1.415 . S
C332 C331 1.355 1_655 S
C332 C334 1.419 . S
C333 C328 1.425 1_455 S
C333 C330 1.409 . S
C333 C331 1.415 . S
C334 H324 0.930 . S
C334 C332 1.419 . S
C334 C335 1.362 . S
C335 H325 0.930 . S
C335 C328 1.409 . S
C335 C334 1.362 . S
H336 C342 0.930 . S
H337 C345 0.930 . S
H338 C346 0.930 . S
H339 C347 0.929 . S
H340 C350 0.930 . S
H341 C351 0.930 . S
C342 H336 0.930 . S
C342 C343 1.355 . S
C342 C344 1.415 1_545 S
C343 C342 1.355 . S
C343 C345 1.419 . S
C344 C342 1.415 1_565 S
C344 C349 1.425 1_565 S
C344 C351 1.409 . S
C345 H337 0.930 . S
C345 C343 1.419 . S
C345 C346 1.362 . S
C346 H338 0.930 . S
C346 C345 1.362 . S
C346 C349 1.409 . S
C347 H339 0.929 . S
C347 C348 1.355 . S
C347 C349 1.415 1_565 S
C348 C347 1.355 . S
C348 C350 1.419 . S
C349 C344 1.425 1_545 S
C349 C346 1.409 . S
C349 C347 1.415 1_545 S
C350 H340 0.930 . S
C350 C348 1.419 . S
C350 C351 1.362 . S
C351 H341 0.930 . S
C351 C344 1.409 . S
C351 C350 1.362 . S
H352 C358 0.930 . S
H353 C361 0.930 . S
H354 C362 0.930 . S
H355 C363 0.930 . S
H356 C366 0.930 . S
H357 C367 0.930 . S
C358 H352 0.930 . S
C358 C359 1.355 . S
C358 C360 1.415 . S
C359 C358 1.355 . S
C359 C361 1.419 . S
C360 C358 1.415 . S
C360 C365 1.425 . S
C360 C367 1.409 . S
C361 H353 0.930 . S
C361 C359 1.419 . S
C361 C362 1.362 . S
C362 H354 0.930 . S
C362 C361 1.362 . S
C362 C365 1.409 . S
C363 H355 0.930 . S
C363 C364 1.355 . S
C363 C365 1.415 . S
C364 C363 1.355 . S
C364 C366 1.419 . S
C365 C360 1.425 . S
C365 C362 1.409 . S
C365 C363 1.415 . S
C366 H356 0.930 . S
C366 C364 1.419 . S
C366 C367 1.362 . S
C367 H357 0.930 . S
C367 C360 1.409 . S
C367 C366 1.362 . S
H368 C374 0.930 . S
H369 C377 0.930 . S
H370 C378 0.930 . S
H371 C379 0.930 . S
H372 C382 0.930 . S
H373 C383 0.930 . S
C374 H368 0.930 . S
C374 C375 1.355 . S
C374 C376 1.415 . S
C375 C374 1.355 . S
C375 C377 1.419 . S
C376 C374 1.415 . S
C376 C381 1.425 . S
C376 C383 1.409 . S
C377 H369 0.930 . S
C377 C375 1.419 . S
C377 C378 1.362 . S
C378 H370 0.930 . S
C378 C377 1.362 . S
C378 C381 1.409 . S
C379 H371 0.930 . S
C379 C380 1.355 . S
C379 C381 1.415 . S
C380 C379 1.355 . S
C380 C382 1.419 . S
C381 C376 1.425 . S
C381 C378 1.409 . S
C381 C379 1.415 . S
C382 H372 0.930 . S
C382 C380 1.419 . S
C382 C383 1.362 . S
C383 H373 0.930 . S
C383 C376 1.409 . S
C383 C382 1.362 . S
H384 C390 0.930 . S
H385 C393 0.930 . S
H386 C394 0.930 . S
H387 C395 0.930 . S
H388 C398 0.930 . S
H389 C399 0.930 . S
C390 H384 0.930 . S
C390 C391 1.355 . S
C390 C392 1.415 1_455 S
C391 C390 1.355 . S
C391 C393 1.419 . S
C392 C390 1.415 1_655 S
C392 C397 1.425 . S
C392 C399 1.409 . S
C393 H385 0.930 . S
C393 C391 1.419 . S
C393 C394 1.362 . S
C394 H386 0.930 . S
C394 C393 1.362 . S
C394 C397 1.409 1_455 S
C395 H387 0.930 . S
C395 C396 1.355 . S
C395 C397 1.415 . S
C396 C395 1.355 . S
C396 C398 1.419 . S
C397 C392 1.425 . S
C397 C394 1.409 1_655 S
C397 C395 1.415 . S
C398 H388 0.930 . S
C398 C396 1.419 . S
C398 C399 1.362 . S
C399 H389 0.930 . S
C399 C392 1.409 . S
C399 C398 1.362 . S
H400 C406 0.930 . S
H401 C409 0.930 . S
H402 C410 0.930 . S
H403 C411 0.930 . S
H404 C414 0.930 . S
H405 C415 0.930 . S
C406 H400 0.930 . S
C406 C407 1.355 . S
C406 C408 1.420 . S
C407 C406 1.355 . S
C407 C409 1.419 . S
C408 C406 1.420 . S
C408 C413 1.427 . S
C408 C415 1.403 1_565 S
C409 H401 0.930 . S
C409 C407 1.419 . S
C409 C410 1.362 . S
C410 H402 0.930 . S
C410 C409 1.362 . S
C410 C413 1.409 . S
C411 H403 0.930 . S
C411 C412 1.355 . S
C411 C413 1.415 1_545 S
C412 C411 1.355 . S
C412 C414 1.419 . S
C413 C408 1.427 . S
C413 C410 1.409 . S
C413 C411 1.415 1_565 S
C414 H404 0.930 . S
C414 C412 1.419 . S
C414 C415 1.362 . S
C415 H405 0.930 . S
C415 C408 1.403 1_545 S
C415 C414 1.362 . S
H416 C422 0.930 . S
H417 C425 0.930 . S
H418 C426 0.930 . S
H419 C427 0.930 . S
H420 C430 0.930 . S
H421 C431 0.930 . S
C422 H416 0.930 . S
C422 C423 1.355 . S
C422 C424 1.415 . S
C423 C422 1.355 . S
C423 C425 1.419 . S
C424 C422 1.415 . S
C424 C429 1.425 . S
C424 C431 1.409 . S
C425 H417 0.930 . S
C425 C423 1.419 . S
C425 C426 1.362 . S
C426 H418 0.930 . S
C426 C425 1.362 . S
C426 C429 1.409 . S
C427 H419 0.930 . S
C427 C428 1.355 . S
C427 C429 1.415 . S
C428 C427 1.355 . S
C428 C430 1.419 . S
C429 C424 1.425 . S
C429 C426 1.409 . S
C429 C427 1.415 . S
C430 H420 0.930 . S
C430 C428 1.419 . S
C430 C431 1.362 . S
C431 H421 0.930 . S
C431 C424 1.409 . S
C431 C430 1.362 . S
H432 C438 0.930 . S
H433 C441 0.930 . S
H434 C442 0.930 . S
H435 C443 0.930 . S
H436 C446 0.930 . S
H437 C447 0.930 . S
C438 H432 0.930 . S
C438 C439 1.355 . S
C438 C440 1.415 . S
C439 C438 1.355 . S
C439 C441 1.419 . S
C440 C438 1.415 . S
C440 C445 1.425 . S
C440 C447 1.409 . S
C441 H433 0.930 . S
C441 C439 1.419 . S
C441 C442 1.362 . S
C442 H434 0.930 . S
C442 C441 1.362 . S
C442 C445 1.409 . S
C443 H435 0.930 . S
C443 C444 1.355 . S
C443 C445 1.415 . S
C444 C443 1.355 . S
C444 C446 1.419 . S
C445 C440 1.425 . S
C445 C442 1.409 . S
C445 C443 1.415 . S
C446 H436 0.930 . S
C446 C444 1.419 . S
C446 C447 1.362 . S
C447 H437 0.930 . S
C447 C440 1.409 . S
C447 C446 1.362 . S
H448 C454 0.930 . S
H449 C457 0.930 . S
H450 C458 0.930 . S
H451 C459 0.930 . S
H452 C462 0.930 . S
H453 C463 0.930 . S
C454 H448 0.930 . S
C454 C455 1.355 . S
C454 C456 1.415 . S
C455 C454 1.355 . S
C455 C457 1.419 . S
C456 C454 1.415 . S
C456 C461 1.425 . S
C456 C463 1.409 . S
C457 H449 0.930 . S
C457 C455 1.419 . S
C457 C458 1.362 . S
C458 H450 0.930 . S
C458 C457 1.362 . S
C458 C461 1.409 . S
C459 H451 0.930 . S
C459 C460 1.355 . S
C459 C461 1.415 . S
C460 C459 1.355 . S
C460 C462 1.419 . S
C461 C456 1.425 . S
C461 C458 1.409 . S
C461 C459 1.415 . S
C462 H452 0.930 . S
C462 C460 1.419 . S
C462 C463 1.362 . S
C463 H453 0.930 . S
C463 C456 1.409 . S
C463 C462 1.362 . S
H464 C470 0.930 . S
H465 C473 0.930 . S
H466 C474 0.930 . S
H467 C475 0.930 . S
H468 C478 0.930 . S
H469 C479 0.930 . S
C470 H464 0.930 . S
C470 C471 1.355 . S
C470 C472 1.415 . S
C471 C470 1.355 . S
C471 C473 1.419 . S
C472 C470 1.415 . S
C472 C477 1.425 . S
C472 C479 1.409 . S
C473 H465 0.930 . S
C473 C471 1.419 . S
C473 C474 1.362 . S
C474 H466 0.930 . S
C474 C473 1.362 . S
C474 C477 1.409 . S
C475 H467 0.930 . S
C475 C476 1.355 . S
C475 C477 1.415 . S
C476 C475 1.355 . S
C476 C478 1.419 . S
C477 C472 1.425 . S
C477 C474 1.409 . S
C477 C475 1.415 . S
C478 H468 0.930 . S
C478 C476 1.419 . S
C478 C479 1.362 . S
C479 H469 0.930 . S
C479 C472 1.409 . S
C479 C478 1.362 . S
H480 C486 0.930 . S
H481 C489 0.930 . S
H482 C490 0.930 . S
H483 C491 0.930 . S
H484 C494 0.930 . S
H485 C495 0.930 . S
C486 H480 0.930 . S
C486 C487 1.355 . S
C486 C488 1.415 . S
C487 C486 1.355 . S
C487 C489 1.419 . S
C488 C486 1.415 . S
C488 C493 1.425 . S
C488 C495 1.409 . S
C489 H481 0.930 . S
C489 C487 1.419 . S
C489 C490 1.362 . S
C490 H482 0.930 . S
C490 C489 1.362 . S
C490 C493 1.409 . S
C491 H483 0.930 . S
C491 C492 1.355 . S
C491 C493 1.415 . S
C492 C491 1.355 . S
C492 C494 1.419 . S
C493 C488 1.425 . S
C493 C490 1.409 . S
C493 C491 1.415 . S
C494 H484 0.930 . S
C494 C492 1.419 . S
C494 C495 1.362 . S
C495 H485 0.930 . S
C495 C488 1.409 . S
C495 C494 1.362 . S
H496 C502 0.930 . S
H497 C505 0.930 . S
H498 C506 0.930 . S
H499 C507 0.930 . S
H500 C510 0.930 . S
H501 C511 0.930 . S
C502 H496 0.930 . S
C502 C503 1.355 . S
C502 C504 1.415 . S
C503 C502 1.355 . S
C503 C505 1.419 1_655 S
C504 C502 1.415 . S
C504 C509 1.425 1_656 S
C504 C511 1.409 1_556 S
C505 H497 0.930 . S
C505 C503 1.419 1_455 S
C505 C506 1.362 . S
C506 H498 0.930 . S
C506 C505 1.362 . S
C506 C509 1.409 1_556 S
C507 H499 0.930 . S
C507 C508 1.355 . S
C507 C509 1.415 . S
C508 C507 1.355 . S
C508 C510 1.419 1_455 S
C509 C504 1.425 1_454 S
C509 C506 1.409 1_554 S
C509 C507 1.415 . S
C510 H500 0.930 . S
C510 C508 1.419 1_655 S
C510 C511 1.362 . S
C511 H501 0.930 . S
C511 C504 1.409 1_554 S
C511 C510 1.362 . S
H512 C518 0.930 . S
H513 C521 0.930 . S
H514 C522 0.930 . S
H515 C523 0.930 . S
H516 C526 0.930 . S
H517 C527 0.930 . S
C518 H512 0.930 . S
C518 C519 1.355 1_565 S
C518 C520 1.415 . S
C519 C518 1.355 1_545 S
C519 C521 1.419 . S
C520 C518 1.415 . S
C520 C525 1.425 1_465 S
C520 C527 1.409 . S
C521 H513 0.930 . S
C521 C519 1.419 . S
C521 C522 1.362 1_455 S
C522 H514 0.930 . S
C522 C521 1.362 1_655 S
C522 C525 1.409 . S
C523 H515 0.930 . S
C523 C524 1.355 1_545 S
C523 C525 1.415 . S
C524 C523 1.355 1_565 S
C524 C526 1.419 . S
C525 C520 1.425 1_645 S
C525 C522 1.409 . S
C525 C523 1.415 . S
C526 H516 0.930 . S
C526 C524 1.419 . S
C526 C527 1.362 1_655 S
C527 H517 0.930 . S
C527 C520 1.409 . S
C527 C526 1.362 1_455 S
H528 C534 0.930 . S
H529 C537 0.930 . S
H530 C538 0.926 1_554 S
H531 C539 0.930 . S
H532 C542 0.930 . S
H533 C543 0.926 1_556 S
C534 H528 0.930 . S
C534 C535 1.355 1_545 S
C534 C536 1.415 . S
C535 C534 1.355 1_565 S
C535 C537 1.419 . S
C536 C534 1.415 . S
C536 C541 1.425 1_546 S
C536 C543 1.409 1_556 S
C537 H529 0.930 . S
C537 C535 1.419 . S
C537 C538 1.362 . S
C538 H530 0.926 1_556 S
C538 C537 1.362 . S
C538 C541 1.409 1_556 S
C539 H531 0.930 . S
C539 C540 1.355 1_565 S
C539 C541 1.415 . S
C540 C539 1.355 1_545 S
C540 C542 1.419 . S
C541 C536 1.425 1_564 S
C541 C538 1.409 1_554 S
C541 C539 1.415 . S
C542 H532 0.930 . S
C542 C540 1.419 . S
C542 C543 1.362 . S
C543 H533 0.926 1_554 S
C543 C536 1.409 1_554 S
C543 C542 1.362 . S
H544 C550 0.930 . S
H545 C553 0.930 . S
H546 C554 0.930 . S
H547 C555 0.930 . S
H548 C558 0.930 . S
H549 C559 0.930 . S
C550 H544 0.930 . S
C550 C551 1.355 . S
C550 C552 1.415 . S
C551 C550 1.355 . S
C551 C553 1.419 . S
C552 C550 1.415 . S
C552 C557 1.425 . S
C552 C559 1.409 . S
C553 H545 0.930 . S
C553 C551 1.419 . S
C553 C554 1.362 . S
C554 H546 0.930 . S
C554 C553 1.362 . S
C554 C557 1.409 . S
C555 H547 0.930 . S
C555 C556 1.355 . S
C555 C557 1.415 . S
C556 C555 1.355 . S
C556 C558 1.419 . S
C557 C552 1.425 . S
C557 C554 1.409 . S
C557 C555 1.415 . S
C558 H548 0.930 . S
C558 C556 1.419 . S
C558 C559 1.362 . S
C559 H549 0.930 . S
C559 C552 1.409 . S
C559 C558 1.362 . S
C183 C95 1.374 . S
C188 C7 1.346 . S
C199 C117 1.423 . S
C204 C28 1.363 . S
C215 C50 1.398 . S
C220 C138 1.366 . S
C231 C73 1.372 . S
C236 C160 1.363 . S
C247 C94 1.361 . S
C252 C6 1.423 . S
C263 C29 1.424 . S
C268 C116 1.355 . S
C279 C51 1.383 . S
C284 C139 1.407 . S
C295 C72 1.404 . S
C300 C161 1.324 . S
C311 C115 1.327 . S
C316 C71 1.394 . S
C327 C5 1.407 . S
C332 C141 1.393 . S
C343 C31 1.369 . S
C348 C163 1.402 . S
C359 C53 1.424 . S
C364 C93 1.347 . S
C375 C75 1.325 . S
C380 C119 1.399 . S
C391 C9 1.376 . S
C396 C137 1.419 . S
C407 C159 1.424 . S
C412 C27 1.349 . S
C423 C97 1.398 . S
C428 C49 1.402 . S
C439 C8 1.679 . S
C444 C48 1.699 . S
C455 C26 1.693 . S
C460 C74 1.685 . S
C471 C140 1.694 . S
C476 C92 1.684 . S
C487 C162 1.689 . S
C492 C114 1.688 . S
C503 C118 1.453 . S
C508 C4 1.453 . S
C519 C30 1.401 . S
C524 C136 1.401 . S
C535 C158 1.404 . S
C540 C52 1.404 . S
C551 C96 1.449 . S
C556 C70 1.449 . S
