# Generated by pormake.
# Topology wmi, (6)-cn, num edge types: 1
# Building blocks:
#     Node 0, Type 0, BuildingBlock: FUNLAD_clean_sbu_0, # of connection points: 6
#     Node 1, Type 0, BuildingBlock: FUNLAD_clean_sbu_0, # of connection points: 6
#     Node 2, Type 0, BuildingBlock: FUNLAD_clean_sbu_0, # of connection points: 6
#     Node 3, Type 0, BuildingBlock: FUNLAD_clean_sbu_0, # of connection points: 6
#     Node 4, Type 0, BuildingBlock: FUNLAD_clean_sbu_0, # of connection points: 6
#     Node 5, Type 0, BuildingBlock: FUNLAD_clean_sbu_0, # of connection points: 6
#     Node 6, Type 0, BuildingBlock: FUNLAD_clean_sbu_0, # of connection points: 6
#     Node 7, Type 0, BuildingBlock: FUNLAD_clean_sbu_0, # of connection points: 6
#     Node 8, Type 0, BuildingBlock: FUNLAD_clean_sbu_0, # of connection points: 6
#     Node 9, Type 0, BuildingBlock: FUNLAD_clean_sbu_0, # of connection points: 6
#     Node 10, Type 0, BuildingBlock: FUNLAD_clean_sbu_0, # of connection points: 6
#     Node 11, Type 0, BuildingBlock: FUNLAD_clean_sbu_0, # of connection points: 6
#     Node 12, Type 0, BuildingBlock: FUNLAD_clean_sbu_0, # of connection points: 6
#     Node 13, Type 0, BuildingBlock: FUNLAD_clean_sbu_0, # of connection points: 6
#     Node 14, Type 0, BuildingBlock: FUNLAD_clean_sbu_0, # of connection points: 6
#     Node 15, Type 0, BuildingBlock: FUNLAD_clean_sbu_0, # of connection points: 6
#     Node 16, Type 0, BuildingBlock: FUNLAD_clean_sbu_0, # of connection points: 6
#     Node 17, Type 0, BuildingBlock: FUNLAD_clean_sbu_0, # of connection points: 6
#     Edge 18, Type (0, 0), None
#     Edge 19, Type (0, 0), None
#     Edge 20, Type (0, 0), None
#     Edge 21, Type (0, 0), None
#     Edge 22, Type (0, 0), None
#     Edge 23, Type (0, 0), None
#     Edge 24, Type (0, 0), None
#     Edge 25, Type (0, 0), None
#     Edge 26, Type (0, 0), None
#     Edge 27, Type (0, 0), None
#     Edge 28, Type (0, 0), None
#     Edge 29, Type (0, 0), None
#     Edge 30, Type (0, 0), None
#     Edge 31, Type (0, 0), None
#     Edge 32, Type (0, 0), None
#     Edge 33, Type (0, 0), None
#     Edge 34, Type (0, 0), None
#     Edge 35, Type (0, 0), None
#     Edge 36, Type (0, 0), None
#     Edge 37, Type (0, 0), None
#     Edge 38, Type (0, 0), None
#     Edge 39, Type (0, 0), None
#     Edge 40, Type (0, 0), None
#     Edge 41, Type (0, 0), None
#     Edge 42, Type (0, 0), None
#     Edge 43, Type (0, 0), None
#     Edge 44, Type (0, 0), None
#     Edge 45, Type (0, 0), None
#     Edge 46, Type (0, 0), None
#     Edge 47, Type (0, 0), None
#     Edge 48, Type (0, 0), None
#     Edge 49, Type (0, 0), None
#     Edge 50, Type (0, 0), None
#     Edge 51, Type (0, 0), None
#     Edge 52, Type (0, 0), None
#     Edge 53, Type (0, 0), None
#     Edge 54, Type (0, 0), None
#     Edge 55, Type (0, 0), None
#     Edge 56, Type (0, 0), None
#     Edge 57, Type (0, 0), None
#     Edge 58, Type (0, 0), None
#     Edge 59, Type (0, 0), None
#     Edge 60, Type (0, 0), None
#     Edge 61, Type (0, 0), None
#     Edge 62, Type (0, 0), None
#     Edge 63, Type (0, 0), None
#     Edge 64, Type (0, 0), None
#     Edge 65, Type (0, 0), None
#     Edge 66, Type (0, 0), None
#     Edge 67, Type (0, 0), None
#     Edge 68, Type (0, 0), None
#     Edge 69, Type (0, 0), None
#     Edge 70, Type (0, 0), None
#     Edge 71, Type (0, 0), None
# Relax obj value: 0.069
# Max RMSD: 0.202
# Mean RMSD: 0.202
data_MOF--net-wmi--node1-FUNLAD_clean_sbu_0--edge1-none
_symmetry_space_group_name_H-M    P1
_symmetry_Int_Tables_number       1
_symmetry_cell_setting            triclinic
loop_
_symmetry_equiv_pos_as_xyz
'x, y, z'
_cell_length_a     13.614145
_cell_length_b     13.614022
_cell_length_c     78.822442
_cell_angle_alpha  89.999553
_cell_angle_beta   90.000475
_cell_angle_gamma 120.00027
loop_
_atom_site_label
_atom_site_type_symbol
_atom_site_fract_x
_atom_site_fract_y
_atom_site_fract_z
_atom_type_partial_charge
C0 C 0.19925 0.78244 0.11259 0.0
N1 N 0.38652 0.94076 0.15431 0.0
C2 C 0.28389 0.9332 0.15734 0.0
C3 C 0.23324 0.90513 0.17325 0.0
C4 C 0.29029 0.89012 0.18674 0.0
C5 C 0.39977 0.90674 0.18387 0.0
C6 C 0.44566 0.92915 0.16734 0.0
Zn7 Zn 0.42129 -0.0454 0.12822 0.0
C8 C 0.48023 0.79065 0.11326 0.0
N9 N 0.42611 -0.03692 0.07359 0.0
C10 C 0.33057 0.94139 0.06503 0.0
C11 C 0.52169 -0.01597 0.06509 0.0
C12 C 0.52338 -0.01635 0.04734 0.0
C13 C 0.42468 -0.04193 0.03812 0.0
C14 C 0.32727 0.93624 0.04736 0.0
Zn15 Zn 0.42022 -0.04305 0.09967 0.0
O16 O 0.25199 0.82432 0.12621 0.0
C17 C 0.37189 0.12913 0.11448 0.0
O18 O 0.24739 0.82512 0.09859 0.0
H19 H 0.59689 0.00067 0.07205 0.0
H20 H 0.23748 0.94508 0.14721 0.0
H21 H 0.25559 0.92626 0.0719 0.0
O22 O 0.38163 0.08553 0.12807 0.0
O23 O 0.3771 0.08737 0.10029 0.0
H24 H 0.52705 0.93586 0.16495 0.0
O25 O 0.59201 0.08376 0.10132 0.0
O26 O 0.59567 0.08331 0.12937 0.0
O27 O 0.46676 0.83143 0.09955 0.0
O28 O 0.4668 0.82669 0.12756 0.0
C29 C 0.6459 0.12194 0.11515 0.0
H30 H 0.15051 0.89688 0.17503 0.0
H31 H 0.44783 0.90079 0.1943 0.0
H32 H 0.6018 0.00386 0.04103 0.0
H33 H 0.24787 0.91343 0.04115 0.0
C34 C 0.10439 0.39878 0.1126 0.0
N35 N -0.05394 0.42773 0.15431 0.0
C36 C -0.04637 0.33267 0.15733 0.0
C37 C -0.01831 0.3101 0.17325 0.0
C38 C -0.00335 0.38214 0.18674 0.0
C39 C -0.01999 0.47499 0.18387 0.0
C40 C -0.04237 0.49847 0.16734 0.0
Zn41 Zn -0.06777 0.44865 0.12822 0.0
C42 C 0.09616 0.67152 0.11326 0.0
N43 N -0.07626 0.44495 0.07358 0.0
C44 C -0.05457 0.37108 0.06503 0.0
C45 C 0.90281 0.51958 0.06508 0.0
C46 C 0.90318 0.52162 0.04734 0.0
C47 C -0.07124 0.44847 0.03812 0.0
C48 C -0.04943 0.3729 0.04736 0.0
Zn49 Zn -0.07012 0.44522 0.09967 0.0
O50 O 0.06251 0.40964 0.12621 0.0
C51 C 0.75772 0.22472 0.11448 0.0
O52 O 0.06171 0.40422 0.09859 0.0
H53 H 0.88617 0.57815 0.07205 0.0
H54 H -0.05822 0.27439 0.14721 0.0
H55 H -0.03945 0.31124 0.07191 0.0
O56 O 0.8013 0.27805 0.12807 0.0
O57 O 0.79946 0.27168 0.10029 0.0
H58 H -0.0491 0.57314 0.16495 0.0
O59 O 0.80307 0.49021 0.10131 0.0
O60 O 0.80352 0.49431 0.12936 0.0
O61 O 0.0554 0.61728 0.09954 0.0
O62 O 0.06013 0.62207 0.12756 0.0
C63 C 0.76489 0.50591 0.11515 0.0
H64 H -0.01005 0.23562 0.17503 0.0
H65 H -0.01407 0.52899 0.1943 0.0
H66 H 0.88298 0.57983 0.04102 0.0
H67 H -0.02663 0.31629 0.04116 0.0
C68 C 0.48806 0.68757 0.1126 0.0
N69 N 0.4591 0.50029 0.15431 0.0
C70 C 0.55417 0.60291 0.15734 0.0
C71 C 0.57672 0.65355 0.17325 0.0
C72 C 0.50464 0.5965 0.18674 0.0
C73 C 0.41178 0.48703 0.18387 0.0
C74 C 0.38832 0.44114 0.16734 0.0
Zn75 Zn 0.43819 0.46553 0.12822 0.0
C76 C 0.21531 0.4066 0.11326 0.0
N77 N 0.44186 0.46073 0.07358 0.0
C78 C 0.51572 0.55628 0.06503 0.0
C79 C 0.36725 0.36515 0.06509 0.0
C80 C 0.36522 0.36346 0.04734 0.0
C81 C 0.43835 0.46216 0.03812 0.0
C82 C 0.51391 0.55957 0.04736 0.0
Zn83 Zn 0.4416 0.46662 0.09967 0.0
O84 O 0.47722 0.63484 0.12621 0.0
C85 C 0.66211 0.51494 0.11448 0.0
O86 O 0.4826 0.63945 0.09859 0.0
H87 H 0.30869 0.28995 0.07205 0.0
H88 H 0.61247 0.64932 0.14721 0.0
H89 H 0.57556 0.63126 0.0719 0.0
O90 O 0.60878 0.50519 0.12807 0.0
O91 O 0.61515 0.50973 0.10029 0.0
H92 H 0.31363 0.35976 0.16495 0.0
O93 O 0.39662 0.29482 0.10132 0.0
O94 O 0.39251 0.29115 0.12937 0.0
O95 O 0.26955 0.42007 0.09954 0.0
O96 O 0.26477 0.42003 0.12756 0.0
C97 C 0.38091 0.24093 0.11515 0.0
H98 H 0.65121 0.73628 0.17504 0.0
H99 H 0.35774 0.43896 0.19429 0.0
H100 H 0.30702 0.28503 0.04102 0.0
H101 H 0.57052 0.63897 0.04115 0.0
C102 C 0.75681 0.22488 0.94464 0.0
N103 N 0.91513 0.41215 0.90292 0.0
C104 C 0.90757 0.30952 0.8999 0.0
C105 C 0.8795 0.25887 0.88399 0.0
C106 C 0.8645 0.31592 0.8705 0.0
C107 C 0.88112 0.42539 0.87337 0.0
C108 C 0.90352 0.47129 0.88989 0.0
Zn109 Zn -0.07103 0.44692 0.92902 0.0
C110 C 0.76503 0.50585 0.94397 0.0
N111 N -0.06254 0.45174 0.98365 0.0
C112 C 0.91576 0.35619 0.9922 0.0
C113 C -0.0416 0.54731 0.99215 0.0
C114 C -0.04197 0.549 1.00989 0.0
C115 C -0.06756 0.4503 1.01911 0.0
C116 C 0.91061 0.35289 1.00988 0.0
Zn117 Zn -0.06868 0.44584 0.95757 0.0
O118 O 0.7987 0.27762 0.93102 0.0
C119 C 0.1035 0.39751 0.94275 0.0
O120 O 0.79949 0.27301 0.95865 0.0
H121 H -0.02495 0.62251 0.98518 0.0
H122 H 0.91945 0.26311 0.91003 0.0
H123 H 0.90063 0.28121 0.98534 0.0
O124 O 0.05991 0.40725 0.92916 0.0
O125 O 0.06174 0.40273 0.95695 0.0
H126 H 0.91023 0.55268 0.89228 0.0
O127 O 0.05813 0.61763 0.95592 0.0
O128 O 0.05768 0.6213 0.92787 0.0
O129 O 0.8058 0.49238 0.95769 0.0
O130 O 0.80107 0.49243 0.92967 0.0
C131 C 0.09632 0.67153 0.94209 0.0
H132 H 0.87125 0.17613 0.88221 0.0
H133 H 0.87516 0.47346 0.86294 0.0
H134 H -0.02177 0.62743 1.01621 0.0
H135 H 0.88781 0.27349 1.01609 0.0
C136 C 0.66194 0.51369 0.94464 0.0
N137 N 0.47466 0.48472 0.90292 0.0
C138 C 0.57728 0.5798 0.8999 0.0
C139 C 0.62792 0.60236 0.88399 0.0
C140 C 0.57088 0.53027 0.8705 0.0
C141 C 0.46141 0.4374 0.87337 0.0
C142 C 0.41553 0.41394 0.8899 0.0
Zn143 Zn 0.43991 0.46381 0.92902 0.0
C144 C 0.38098 0.24093 0.94397 0.0
N145 N 0.43511 0.46749 0.98365 0.0
C146 C 0.53065 0.54135 0.9922 0.0
C147 C 0.33953 0.39287 0.99215 0.0
C148 C 0.33783 0.39084 1.0099 0.0
C149 C 0.43653 0.46398 1.01911 0.0
C150 C 0.53394 0.53954 1.00988 0.0
Zn151 Zn 0.44099 0.46723 0.95757 0.0
O152 O 0.60921 0.50284 0.93102 0.0
C153 C 0.48931 0.68774 0.94275 0.0
O154 O 0.61382 0.50823 0.95865 0.0
H155 H 0.26433 0.3343 0.98519 0.0
H156 H 0.62369 0.63811 0.91002 0.0
H157 H 0.60563 0.60119 0.98533 0.0
O158 O 0.47956 0.6344 0.92916 0.0
O159 O 0.48411 0.64077 0.95695 0.0
H160 H 0.33415 0.33924 0.89229 0.0
O161 O 0.2692 0.42225 0.95592 0.0
O162 O 0.26553 0.41813 0.92787 0.0
O163 O 0.39445 0.29517 0.95769 0.0
O164 O 0.39441 0.2904 0.92967 0.0
C165 C 0.21531 0.40653 0.94209 0.0
H166 H 0.71065 0.67685 0.8822 0.0
H167 H 0.41335 0.38335 0.86294 0.0
H168 H 0.25941 0.33263 1.01621 0.0
H169 H 0.61334 0.59615 1.01609 0.0
C170 C 0.37315 0.13001 0.94464 0.0
N171 N 0.4021 -0.02831 0.90292 0.0
C172 C 0.30703 -0.02076 0.8999 0.0
C173 C 0.28446 0.0073 0.88399 0.0
C174 C 0.35651 0.02229 0.8705 0.0
C175 C 0.44937 0.00568 0.87337 0.0
C176 C 0.47285 -0.01672 0.8899 0.0
Zn177 Zn 0.42302 -0.04215 0.92902 0.0
C178 C 0.64589 0.12178 0.94397 0.0
N179 N 0.41933 -0.05063 0.98365 0.0
C180 C 0.34546 -0.02895 0.9922 0.0
C181 C 0.49396 0.92843 0.99215 0.0
C182 C 0.49599 0.92881 1.0099 0.0
C183 C 0.42285 -0.04562 1.01911 0.0
C184 C 0.34728 -0.0238 1.00987 0.0
Zn185 Zn 0.4196 -0.04449 0.95757 0.0
O186 O 0.384 0.08813 0.93102 0.0
C187 C 0.1991 0.78334 0.94275 0.0
O188 O 0.3786 0.08734 0.95865 0.0
H189 H 0.55252 0.91179 0.98519 0.0
H190 H 0.24874 -0.03263 0.91003 0.0
H191 H 0.28562 -0.01383 0.98533 0.0
O192 O 0.25243 0.82692 0.92916 0.0
O193 O 0.24605 0.82508 0.95695 0.0
H194 H 0.54754 -0.02342 0.89229 0.0
O195 O 0.46458 0.82869 0.95592 0.0
O196 O 0.46869 0.82915 0.92787 0.0
O197 O 0.59166 0.08102 0.95769 0.0
O198 O 0.59643 0.08576 0.92967 0.0
C199 C 0.48029 0.79053 0.94209 0.0
H200 H 0.20997 0.01554 0.8822 0.0
H201 H 0.50339 0.01162 0.86294 0.0
H202 H 0.5542 0.90861 1.01622 0.0
H203 H 0.29066 -0.00101 1.01608 0.0
C204 C 0.86578 0.11564 0.44593 0.0
N205 N 0.05308 0.27396 0.48764 0.0
C206 C -0.04954 0.26641 0.49067 0.0
C207 C 0.89982 0.23833 0.50658 0.0
C208 C -0.04312 0.22331 0.52007 0.0
C209 C 0.06635 0.23992 0.5172 0.0
C210 C 0.11223 0.26234 0.50067 0.0
Zn211 Zn 0.08783 0.28781 0.46155 0.0
C212 C 0.14675 0.12386 0.4466 0.0
N213 N 0.09262 0.29629 0.40692 0.0
C214 C -0.00292 0.27461 0.39837 0.0
C215 C 0.1882 0.31725 0.39842 0.0
C216 C 0.18989 0.31691 0.38067 0.0
C217 C 0.09119 0.29134 0.37146 0.0
C218 C -0.00622 0.26949 0.3807 0.0
Zn219 Zn 0.08674 0.29015 0.433 0.0
O220 O 0.91852 0.15753 0.45955 0.0
C221 C 0.03842 0.46233 0.44782 0.0
O222 O 0.91391 0.15832 0.43192 0.0
H223 H 0.2634 0.33389 0.40538 0.0
H224 H 0.90404 0.2783 0.48055 0.0
H225 H 0.9221 0.25947 0.40524 0.0
O226 O 0.04817 0.41874 0.46141 0.0
O227 O 0.04363 0.42057 0.43362 0.0
H228 H 0.19361 0.26904 0.49828 0.0
O229 O 0.25854 0.41696 0.43465 0.0
O230 O 0.2622 0.41651 0.4627 0.0
O231 O 0.13328 0.16463 0.43288 0.0
O232 O 0.13333 0.1599 0.4609 0.0
C233 C 0.31243 0.45514 0.44848 0.0
H234 H 0.81709 0.23008 0.50837 0.0
H235 H 0.11442 0.23396 0.52763 0.0
H236 H 0.26831 0.33712 0.37436 0.0
H237 H 0.91438 0.2467 0.37448 0.0
C238 C 0.77092 0.73198 0.44593 0.0
N239 N 0.6126 0.76092 0.48765 0.0
C240 C 0.62017 0.66585 0.49067 0.0
C241 C 0.64824 0.64327 0.50658 0.0
C242 C 0.66323 0.71532 0.52007 0.0
C243 C 0.6466 0.80817 0.5172 0.0
C244 C 0.62419 0.83166 0.50068 0.0
Zn245 Zn 0.59876 0.78185 0.46155 0.0
C246 C 0.76268 0.00473 0.4466 0.0
N247 N 0.59027 0.77819 0.40692 0.0
C248 C 0.61197 0.70434 0.39837 0.0
C249 C 0.56932 0.85282 0.39842 0.0
C250 C 0.56969 0.85487 0.38067 0.0
C251 C 0.59528 0.78176 0.37146 0.0
C252 C 0.61712 0.70618 0.38069 0.0
Zn253 Zn 0.59641 0.77843 0.433 0.0
O254 O 0.72904 0.74283 0.45955 0.0
C255 C 0.42425 0.55793 0.44782 0.0
O256 O 0.72824 0.73743 0.43192 0.0
H257 H 0.55267 0.91136 0.40539 0.0
H258 H 0.60829 0.60757 0.48054 0.0
H259 H 0.62711 0.6445 0.40524 0.0
O260 O 0.46783 0.61125 0.46141 0.0
O261 O 0.46599 0.60489 0.43362 0.0
H262 H 0.61747 0.90633 0.49829 0.0
O263 O 0.4696 0.82341 0.43465 0.0
O264 O 0.47004 0.82751 0.4627 0.0
O265 O 0.72192 -0.04951 0.43288 0.0
O266 O 0.72666 -0.04473 0.4609 0.0
C267 C 0.43141 0.83911 0.44848 0.0
H268 H 0.6565 0.56879 0.50836 0.0
H269 H 0.65254 0.86218 0.52763 0.0
H270 H 0.54948 0.91308 0.37436 0.0
H271 H 0.63992 0.64959 0.37448 0.0
C272 C 0.15459 0.02077 0.44593 0.0
N273 N 0.12563 0.83349 0.48765 0.0
C274 C 0.2207 0.93612 0.49067 0.0
C275 C 0.24328 -0.01325 0.50658 0.0
C276 C 0.17122 0.92968 0.52007 0.0
C277 C 0.07837 0.82021 0.5172 0.0
C278 C 0.05488 0.77433 0.50067 0.0
Zn279 Zn 0.10471 0.79874 0.46155 0.0
C280 C 0.88184 0.7398 0.4466 0.0
N281 N 0.1084 0.79395 0.40692 0.0
C282 C 0.18227 0.8895 0.39837 0.0
C283 C 0.03377 0.69838 0.39842 0.0
C284 C 0.03173 0.69671 0.38067 0.0
C285 C 0.10487 0.79543 0.37146 0.0
C286 C 0.18044 0.89282 0.3807 0.0
Zn287 Zn 0.10813 0.79982 0.433 0.0
O288 O 0.14373 -0.03196 0.45955 0.0
C289 C 0.32863 0.84815 0.44782 0.0
O290 O 0.14913 -0.02735 0.43192 0.0
H291 H -0.02479 0.62318 0.40538 0.0
H292 H 0.27898 -0.01746 0.48054 0.0
H293 H 0.24211 -0.03554 0.40524 0.0
O294 O 0.2753 0.8384 0.46141 0.0
O295 O 0.28167 0.84293 0.43362 0.0
H296 H -0.0198 0.69294 0.49828 0.0
O297 O 0.06315 0.62802 0.43465 0.0
O298 O 0.05904 0.62436 0.4627 0.0
O299 O -0.06393 0.75328 0.43288 0.0
O300 O -0.0687 0.75323 0.4609 0.0
C301 C 0.04743 0.57414 0.44848 0.0
H302 H 0.31776 0.06948 0.50837 0.0
H303 H 0.02435 0.77213 0.52763 0.0
H304 H -0.02648 0.6183 0.37435 0.0
H305 H 0.23706 -0.02777 0.37449 0.0
C306 C 0.42332 0.55825 0.27798 0.0
N307 N 0.58165 0.74554 0.23626 0.0
C308 C 0.57408 0.64291 0.23324 0.0
C309 C 0.54603 0.59228 0.21732 0.0
C310 C 0.53106 0.64935 0.20383 0.0
C311 C 0.54768 0.75882 0.2067 0.0
C312 C 0.57006 0.8047 0.22323 0.0
Zn313 Zn 0.59548 0.78029 0.26235 0.0
C314 C 0.43154 0.83923 0.27731 0.0
N315 N 0.60396 0.78509 0.31699 0.0
C316 C 0.58228 0.68954 0.32554 0.0
C317 C 0.6249 0.88065 0.32548 0.0
C318 C 0.62453 0.88232 0.34323 0.0
C319 C 0.59896 0.78361 0.35245 0.0
C320 C 0.57714 0.68622 0.34321 0.0
Zn321 Zn 0.59782 0.77921 0.2909 0.0
O322 O 0.4652 0.61099 0.26436 0.0
C323 C 0.77001 0.73089 0.27609 0.0
O324 O 0.466 0.60638 0.29198 0.0
H325 H 0.64153 -0.04414 0.31852 0.0
H326 H 0.58595 0.59649 0.24336 0.0
H327 H 0.56717 0.61457 0.31866 0.0
O328 O 0.72641 0.74063 0.2625 0.0
O329 O 0.72825 0.7361 0.29028 0.0
H330 H 0.57678 0.88609 0.22562 0.0
O331 O 0.72464 -0.04899 0.28925 0.0
O332 O 0.72419 -0.04533 0.26121 0.0
O333 O 0.47231 0.82576 0.29103 0.0
O334 O 0.46758 0.82581 0.26301 0.0
C335 C 0.76282 0.0049 0.27542 0.0
H336 H 0.53778 0.50954 0.21554 0.0
H337 H 0.54174 0.80691 0.19627 0.0
H338 H 0.64472 -0.03927 0.34955 0.0
H339 H 0.55435 0.60681 0.34942 0.0
C340 C 0.32845 0.84706 0.27797 0.0
N341 N 0.14119 0.81811 0.23626 0.0
C342 C 0.24381 0.91319 0.23323 0.0
C343 C 0.29446 0.93576 0.21732 0.0
C344 C 0.23742 0.8637 0.20383 0.0
C345 C 0.12796 0.77082 0.2067 0.0
C346 C 0.08206 0.74734 0.22323 0.0
Zn347 Zn 0.10642 0.79719 0.26235 0.0
C348 C 0.04749 0.5743 0.27731 0.0
N349 N 0.1016 0.80085 0.31699 0.0
C350 C 0.19715 0.8747 0.32554 0.0
C351 C 0.00603 0.72621 0.32548 0.0
C352 C 0.00434 0.72416 0.34323 0.0
C353 C 0.10304 0.79728 0.35245 0.0
C354 C 0.20045 0.87285 0.34321 0.0
Zn355 Zn 0.10749 0.8006 0.2909 0.0
O356 O 0.27572 0.83622 0.26436 0.0
C357 C 0.15582 0.02111 0.27609 0.0
O358 O 0.28032 0.8416 0.29199 0.0
H359 H -0.06917 0.66766 0.31852 0.0
H360 H 0.29021 -0.02851 0.24336 0.0
H361 H 0.27212 0.93454 0.31867 0.0
O362 O 0.14607 -0.03222 0.2625 0.0
O363 O 0.15061 -0.02586 0.29028 0.0
H364 H 0.00068 0.67265 0.22562 0.0
O365 O -0.0643 0.75562 0.28925 0.0
O366 O -0.06796 0.75151 0.2612 0.0
O367 O 0.06095 0.62854 0.29103 0.0
O368 O 0.06092 0.62377 0.26301 0.0
C369 C 0.88181 0.73991 0.27542 0.0
H370 H 0.37719 0.01026 0.21554 0.0
H371 H 0.0799 0.71679 0.19627 0.0
H372 H -0.07408 0.66594 0.34954 0.0
H373 H 0.27985 0.92946 0.34942 0.0
C374 C 0.03965 0.46338 0.27797 0.0
N375 N 0.06862 0.30506 0.23626 0.0
C376 C -0.02646 0.31261 0.23323 0.0
C377 C -0.04901 0.34069 0.21732 0.0
C378 C 0.02306 0.35571 0.20383 0.0
C379 C 0.11592 0.3391 0.20671 0.0
C380 C 0.13939 0.31669 0.22323 0.0
Zn381 Zn 0.08953 0.29122 0.26235 0.0
C382 C 0.3124 0.45516 0.27731 0.0
N383 N 0.08584 0.28274 0.31699 0.0
C384 C 0.01198 0.30443 0.32554 0.0
C385 C 0.16046 0.26178 0.32548 0.0
C386 C 0.1625 0.26212 0.34323 0.0
C387 C 0.08936 0.28769 0.35245 0.0
C388 C 0.0138 0.30954 0.34321 0.0
Zn389 Zn 0.0861 0.28888 0.2909 0.0
O390 O 0.0505 0.4215 0.26436 0.0
C391 C 0.8656 0.11671 0.27609 0.0
O392 O 0.04511 0.42072 0.29199 0.0
H393 H 0.21902 0.24514 0.31852 0.0
H394 H 0.91524 0.30073 0.24336 0.0
H395 H -0.04785 0.31957 0.31867 0.0
O396 O 0.91893 0.16029 0.2625 0.0
O397 O 0.91256 0.15846 0.29028 0.0
H398 H 0.21407 0.30999 0.22563 0.0
O399 O 0.13108 0.16207 0.28926 0.0
O400 O 0.1352 0.16252 0.26121 0.0
O401 O 0.25816 0.4144 0.29103 0.0
O402 O 0.26294 0.41913 0.26301 0.0
C403 C 0.1468 0.1239 0.27542 0.0
H404 H 0.8765 0.34894 0.21553 0.0
H405 H 0.16996 0.34507 0.19628 0.0
H406 H 0.2207 0.2419 0.34955 0.0
H407 H -0.04281 0.33233 0.34942 0.0
C408 C 0.53262 0.44896 0.77926 0.0
N409 N 0.71992 0.60729 0.82098 0.0
C410 C 0.61729 0.59972 0.824 0.0
C411 C 0.56666 0.57167 0.83992 0.0
C412 C 0.62373 0.55669 0.8534 0.0
C413 C 0.7332 0.57331 0.85053 0.0
C414 C 0.77908 0.5957 0.83401 0.0
Zn415 Zn 0.75466 0.62112 0.79489 0.0
C416 C 0.81359 0.45717 0.77993 0.0
N417 N 0.75945 0.6296 0.74025 0.0
C418 C 0.6639 0.60793 0.7317 0.0
C419 C 0.85502 0.65054 0.73175 0.0
C420 C 0.85668 0.65017 0.71401 0.0
C421 C 0.75797 0.6246 0.70479 0.0
C422 C 0.66058 0.60279 0.71403 0.0
Zn423 Zn 0.75358 0.62346 0.76634 0.0
O424 O 0.58536 0.49084 0.79288 0.0
C425 C 0.70526 0.79565 0.78115 0.0
O426 O 0.58075 0.49164 0.76525 0.0
H427 H -0.06978 0.66717 0.73871 0.0
H428 H 0.57087 0.61159 0.81388 0.0
H429 H 0.58894 0.59281 0.73857 0.0
O430 O 0.715 0.75205 0.79474 0.0
O431 O 0.71047 0.75389 0.76696 0.0
H432 H 0.86047 0.60241 0.83162 0.0
O433 O -0.07462 0.75028 0.76798 0.0
O434 O -0.07096 0.74983 0.79603 0.0
O435 O 0.80012 0.49795 0.76621 0.0
O436 O 0.80017 0.49322 0.79423 0.0
C437 C -0.02073 0.78846 0.78181 0.0
H438 H 0.48392 0.56341 0.8417 0.0
H439 H 0.78128 0.56737 0.86096 0.0
H440 H -0.06491 0.67037 0.70769 0.0
H441 H 0.58117 0.58 0.70782 0.0
C442 C 0.43776 0.06529 0.77926 0.0
N443 N 0.27943 0.09425 0.82098 0.0
C444 C 0.287 -0.00081 0.824 0.0
C445 C 0.31508 -0.02336 0.83992 0.0
C446 C 0.33007 0.0487 0.8534 0.0
C447 C 0.31344 0.14155 0.85053 0.0
C448 C 0.29103 0.16501 0.83401 0.0
Zn449 Zn 0.26559 0.11517 0.79489 0.0
C450 C 0.42952 0.33804 0.77993 0.0
N451 N 0.25711 0.11149 0.74025 0.0
C452 C 0.2788 0.03763 0.7317 0.0
C453 C 0.23615 0.1861 0.73175 0.0
C454 C 0.23649 0.18814 0.71401 0.0
C455 C 0.26206 0.11501 0.70479 0.0
C456 C 0.28391 0.03945 0.71403 0.0
Zn457 Zn 0.26325 0.11174 0.76634 0.0
O458 O 0.39587 0.07615 0.79288 0.0
C459 C 0.09108 0.89124 0.78115 0.0
O460 O 0.39508 0.07075 0.76525 0.0
H461 H 0.2195 0.24466 0.73872 0.0
H462 H 0.27513 0.9409 0.81388 0.0
H463 H 0.29394 -0.02221 0.73857 0.0
O464 O 0.13466 0.94457 0.79474 0.0
O465 O 0.13283 0.9382 0.76695 0.0
H466 H 0.28431 0.23969 0.83161 0.0
O467 O 0.13643 0.15672 0.76798 0.0
O468 O 0.13688 0.16083 0.79603 0.0
O469 O 0.38876 0.28381 0.76621 0.0
O470 O 0.39349 0.28858 0.79423 0.0
C471 C 0.09825 0.17243 0.78181 0.0
H472 H 0.32334 0.90216 0.8417 0.0
H473 H 0.31938 0.19557 0.86096 0.0
H474 H 0.21626 0.24634 0.70769 0.0
H475 H 0.3067 -0.01716 0.70782 0.0
C476 C 0.82143 0.35408 0.77926 0.0
N477 N 0.79248 0.16682 0.82098 0.0
C478 C 0.88755 0.26945 0.824 0.0
C479 C 0.91013 0.3201 0.83992 0.0
C480 C 0.83807 0.26305 0.8534 0.0
C481 C 0.74521 0.15357 0.85054 0.0
C482 C 0.72172 0.10768 0.83401 0.0
Zn483 Zn 0.77155 0.13206 0.79489 0.0
C484 C 0.54868 0.07312 0.77993 0.0
N485 N 0.77521 0.12724 0.74025 0.0
C486 C 0.84906 0.22279 0.7317 0.0
C487 C 0.70059 0.03166 0.73176 0.0
C488 C 0.69853 0.02998 0.71401 0.0
C489 C 0.77164 0.12868 0.70479 0.0
C490 C 0.84722 0.22609 0.71403 0.0
Zn491 Zn 0.77497 0.13313 0.76634 0.0
O492 O 0.81058 0.30136 0.79288 0.0
C493 C -0.00453 0.18146 0.78115 0.0
O494 O 0.81597 0.30596 0.76525 0.0
H495 H 0.64204 -0.04354 0.73872 0.0
H496 H -0.05416 0.31586 0.81388 0.0
H497 H 0.90891 0.29776 0.73857 0.0
O498 O -0.05785 0.17172 0.79474 0.0
O499 O -0.05149 0.17625 0.76695 0.0
H500 H 0.64704 0.0263 0.83162 0.0
O501 O 0.72999 -0.03866 0.76798 0.0
O502 O 0.72588 -0.04232 0.79603 0.0
O503 O 0.60291 0.08659 0.76621 0.0
O504 O 0.59814 0.08655 0.79423 0.0
C505 C 0.71428 0.90745 0.78182 0.0
H506 H -0.01539 0.40283 0.8417 0.0
H507 H 0.69118 0.10551 0.86097 0.0
H508 H 0.64031 -0.04845 0.70769 0.0
H509 H 0.90381 0.3055 0.70782 0.0
C510 C 0.09 0.89143 0.61131 0.0
N511 N 0.24832 0.07872 0.56959 0.0
C512 C 0.24077 -0.0239 0.56657 0.0
C513 C 0.21268 0.92547 0.55065 0.0
C514 C 0.19767 -0.01747 0.53717 0.0
C515 C 0.21428 0.092 0.54004 0.0
C516 C 0.2367 0.13788 0.55657 0.0
Zn517 Zn 0.26216 0.11347 0.59568 0.0
C518 C 0.09821 0.1724 0.61064 0.0
N519 N 0.27064 0.11827 0.65032 0.0
C520 C 0.24896 0.02272 0.65887 0.0
C521 C 0.2916 0.21384 0.65882 0.0
C522 C 0.29126 0.21553 0.67656 0.0
C523 C 0.2657 0.11683 0.68578 0.0
C524 C 0.24385 0.01942 0.67654 0.0
Zn525 Zn 0.2645 0.11239 0.62423 0.0
O526 O 0.13188 0.94417 0.59769 0.0
C527 C 0.43668 0.06406 0.60942 0.0
O528 O 0.13267 0.93956 0.62532 0.0
H529 H 0.30824 0.28904 0.65185 0.0
H530 H 0.25265 0.92968 0.57669 0.0
H531 H 0.23382 0.94775 0.652 0.0
O532 O 0.39309 0.07381 0.59583 0.0
O533 O 0.39492 0.06927 0.62361 0.0
H534 H 0.2434 0.21926 0.55896 0.0
O535 O 0.39132 0.28418 0.62259 0.0
O536 O 0.39087 0.28785 0.59454 0.0
O537 O 0.13899 0.15893 0.62436 0.0
O538 O 0.13425 0.15898 0.59634 0.0
C539 C 0.4295 0.33808 0.60876 0.0
H540 H 0.20443 0.84274 0.54887 0.0
H541 H 0.20832 0.14008 0.52961 0.0
H542 H 0.31148 0.29396 0.68288 0.0
H543 H 0.22106 0.94002 0.68275 0.0
C544 C -0.00488 0.18024 0.61131 0.0
N545 N 0.80784 0.15127 0.56959 0.0
C546 C 0.91046 0.24635 0.56657 0.0
C547 C -0.03891 0.26893 0.55065 0.0
C548 C 0.90403 0.19687 0.53717 0.0
C549 C 0.79456 0.104 0.54004 0.0
C550 C 0.74869 0.08052 0.55656 0.0
Zn551 Zn 0.77309 0.13036 0.59568 0.0
C552 C 0.71416 0.90748 0.61064 0.0
N553 N 0.7683 0.13404 0.65032 0.0
C554 C 0.86385 0.20792 0.65887 0.0
C555 C 0.67274 0.05941 0.65882 0.0
C556 C 0.67108 0.05737 0.67657 0.0
C557 C 0.76979 0.13052 0.68578 0.0
C558 C 0.86718 0.20609 0.67654 0.0
Zn559 Zn 0.77417 0.13378 0.62423 0.0
O560 O -0.0576 0.16938 0.59769 0.0
C561 C 0.82249 0.35429 0.60942 0.0
O562 O -0.053 0.17478 0.62532 0.0
H563 H 0.59754 0.00084 0.65186 0.0
H564 H -0.04312 0.30464 0.57669 0.0
H565 H -0.06119 0.26776 0.652 0.0
O566 O 0.81275 0.30095 0.59583 0.0
O567 O 0.81729 0.30732 0.62361 0.0
H568 H 0.6673 0.00583 0.55896 0.0
O569 O 0.60237 0.08879 0.62259 0.0
O570 O 0.59871 0.08468 0.59454 0.0
O571 O 0.72763 -0.03828 0.62436 0.0
O572 O 0.72759 -0.04306 0.59634 0.0
C573 C 0.54849 0.07308 0.60876 0.0
H574 H 0.04382 0.34341 0.54887 0.0
H575 H 0.74649 0.04998 0.52961 0.0
H576 H 0.59267 -0.00084 0.68288 0.0
H577 H -0.05342 0.26271 0.68275 0.0
C578 C 0.70633 0.79656 0.61131 0.0
N579 N 0.73527 0.63825 0.56959 0.0
C580 C 0.64019 0.6458 0.56657 0.0
C581 C 0.61761 0.67387 0.55065 0.0
C582 C 0.68967 0.68888 0.53717 0.0
C583 C 0.78253 0.67228 0.54003 0.0
C584 C 0.80602 0.64987 0.55656 0.0
Zn585 Zn 0.7562 0.6244 0.59568 0.0
C586 C -0.02092 0.78833 0.61064 0.0
N587 N 0.75254 0.61592 0.65032 0.0
C588 C 0.6787 0.63762 0.65887 0.0
C589 C 0.82717 0.59497 0.65881 0.0
C590 C 0.82923 0.59534 0.67656 0.0
C591 C 0.75612 0.62092 0.68578 0.0
C592 C 0.68054 0.64276 0.67654 0.0
Zn593 Zn 0.75278 0.62206 0.62423 0.0
O594 O 0.71718 0.75468 0.59769 0.0
C595 C 0.53228 0.44989 0.60942 0.0
O596 O 0.71179 0.75389 0.62532 0.0
H597 H 0.88572 0.57832 0.65185 0.0
H598 H 0.58191 0.63391 0.57669 0.0
H599 H 0.61885 0.65275 0.652 0.0
O600 O 0.58561 0.49347 0.59583 0.0
O601 O 0.57924 0.49164 0.62362 0.0
H602 H 0.88071 0.64317 0.55895 0.0
O603 O 0.79776 0.49525 0.62259 0.0
O604 O 0.80187 0.49569 0.59454 0.0
O605 O -0.07516 0.74757 0.62436 0.0
O606 O -0.07038 0.75231 0.59634 0.0
C607 C 0.81347 0.45707 0.60875 0.0
H608 H 0.54313 0.68211 0.54887 0.0
H609 H 0.83656 0.67824 0.5296 0.0
H610 H 0.88744 0.57512 0.68288 0.0
H611 H 0.62395 0.66557 0.68276 0.0
loop_
_geom_bond_atom_site_label_1
_geom_bond_atom_site_label_2
_geom_bond_distance
_geom_bond_site_symmetry_2
_ccdc_geom_bond_type
C0 O16 1.251 . S
C0 O18 1.254 . S
N1 C2 1.333 . S
N1 C6 1.307 1_565 S
N1 Zn7 2.020 . S
C2 N1 1.333 . S
C2 C3 1.379 . S
C2 H20 0.952 . S
C3 C2 1.379 . S
C3 C4 1.390 . S
C3 H30 0.949 . S
C4 C3 1.390 . S
C4 C5 1.357 1_565 S
C5 C4 1.357 1_545 S
C5 C6 1.370 . S
C5 H31 0.950 . S
C6 N1 1.307 1_545 S
C6 C5 1.370 . S
C6 H24 0.948 . S
Zn7 N1 2.020 . S
Zn7 O16 2.039 . S
Zn7 O22 2.034 1_565 S
Zn7 O26 2.025 1_565 S
Zn7 O28 2.024 . S
C8 O27 1.246 . S
C8 O28 1.249 . S
N9 C10 1.307 1_545 S
N9 C11 1.333 . S
N9 Zn15 2.020 . S
C10 N9 1.307 1_565 S
C10 C14 1.370 . S
C10 H21 0.948 . S
C11 N9 1.333 . S
C11 C12 1.379 . S
C11 H19 0.952 . S
C12 C11 1.379 . S
C12 C13 1.390 . S
C12 H32 0.949 . S
C13 C12 1.390 . S
C13 C14 1.357 1_545 S
C14 C10 1.370 . S
C14 C13 1.357 1_565 S
C14 H33 0.950 . S
Zn15 N9 2.020 . S
Zn15 O18 2.025 1_545 S
Zn15 O23 2.024 . S
Zn15 O25 2.039 . S
Zn15 O27 2.034 1_545 S
O16 C0 1.251 . S
O16 Zn7 2.039 . S
C17 O22 1.246 . S
C17 O23 1.249 . S
O18 C0 1.254 . S
O18 Zn15 2.025 1_565 S
H19 C11 0.952 . S
H20 C2 0.952 . S
H21 C10 0.948 . S
O22 Zn7 2.034 1_545 S
O22 C17 1.246 . S
O23 Zn15 2.024 . S
O23 C17 1.249 . S
H24 C6 0.948 . S
O25 Zn15 2.039 . S
O25 C29 1.251 . S
O26 Zn7 2.025 1_545 S
O26 C29 1.254 . S
O27 C8 1.246 . S
O27 Zn15 2.034 1_565 S
O28 Zn7 2.024 . S
O28 C8 1.249 . S
C29 O25 1.251 . S
C29 O26 1.254 . S
H30 C3 0.949 . S
H31 C5 0.950 . S
H32 C12 0.949 . S
H33 C14 0.950 . S
C34 O50 1.251 . S
C34 O52 1.254 . S
N35 C36 1.333 . S
N35 C40 1.307 1_455 S
N35 Zn41 2.020 . S
C36 N35 1.333 . S
C36 C37 1.379 . S
C36 H54 0.952 . S
C37 C36 1.379 . S
C37 C38 1.390 . S
C37 H64 0.949 . S
C38 C37 1.390 . S
C38 C39 1.357 . S
C39 C38 1.357 . S
C39 C40 1.370 1_455 S
C39 H65 0.950 1_455 S
C40 N35 1.307 1_655 S
C40 C39 1.370 1_655 S
C40 H58 0.948 . S
Zn41 N35 2.020 . S
Zn41 O50 2.039 . S
Zn41 O56 2.034 1_455 S
Zn41 O60 2.025 1_455 S
Zn41 O62 2.024 . S
C42 O61 1.246 . S
C42 O62 1.249 . S
N43 C44 1.307 . S
N43 C45 1.333 1_455 S
N43 Zn49 2.020 . S
C44 N43 1.307 . S
C44 C48 1.370 . S
C44 H55 0.948 . S
C45 N43 1.333 1_655 S
C45 C46 1.379 . S
C45 H53 0.952 . S
C46 C45 1.379 . S
C46 C47 1.390 . S
C46 H66 0.949 . S
C47 C46 1.390 . S
C47 C48 1.357 1_655 S
C48 C44 1.370 . S
C48 C47 1.357 1_455 S
C48 H67 0.950 . S
Zn49 N43 2.020 . S
Zn49 O52 2.025 . S
Zn49 O57 2.024 1_455 S
Zn49 O59 2.039 1_455 S
Zn49 O61 2.034 . S
O50 C34 1.251 . S
O50 Zn41 2.039 . S
C51 O56 1.246 . S
C51 O57 1.249 . S
O52 C34 1.254 . S
O52 Zn49 2.025 . S
H53 C45 0.952 . S
H54 C36 0.952 . S
H55 C44 0.948 . S
O56 Zn41 2.034 1_655 S
O56 C51 1.246 . S
O57 Zn49 2.024 1_655 S
O57 C51 1.249 . S
H58 C40 0.948 . S
O59 Zn49 2.039 1_655 S
O59 C63 1.251 . S
O60 Zn41 2.025 1_655 S
O60 C63 1.254 . S
O61 C42 1.246 . S
O61 Zn49 2.034 . S
O62 Zn41 2.024 . S
O62 C42 1.249 . S
C63 O59 1.251 . S
C63 O60 1.254 . S
H64 C37 0.949 . S
H65 C39 0.950 1_655 S
H66 C46 0.949 . S
H67 C48 0.950 . S
C68 O84 1.251 . S
C68 O86 1.254 . S
N69 C70 1.333 . S
N69 C74 1.307 . S
N69 Zn75 2.020 . S
C70 N69 1.333 . S
C70 C71 1.379 . S
C70 H88 0.952 . S
C71 C70 1.379 . S
C71 C72 1.390 . S
C71 H98 0.949 . S
C72 C71 1.390 . S
C72 C73 1.357 . S
C73 C72 1.357 . S
C73 C74 1.370 . S
C73 H99 0.950 . S
C74 N69 1.307 . S
C74 C73 1.370 . S
C74 H92 0.948 . S
Zn75 N69 2.020 . S
Zn75 O84 2.039 . S
Zn75 O90 2.034 . S
Zn75 O94 2.025 . S
Zn75 O96 2.024 . S
C76 O95 1.246 . S
C76 O96 1.249 . S
N77 C78 1.307 . S
N77 C79 1.333 . S
N77 Zn83 2.020 . S
C78 N77 1.307 . S
C78 C82 1.370 . S
C78 H89 0.948 . S
C79 N77 1.333 . S
C79 C80 1.379 . S
C79 H87 0.952 . S
C80 C79 1.379 . S
C80 C81 1.390 . S
C80 H100 0.949 . S
C81 C80 1.390 . S
C81 C82 1.357 . S
C82 C78 1.370 . S
C82 C81 1.357 . S
C82 H101 0.950 . S
Zn83 N77 2.020 . S
Zn83 O86 2.025 . S
Zn83 O91 2.024 . S
Zn83 O93 2.039 . S
Zn83 O95 2.034 . S
O84 C68 1.251 . S
O84 Zn75 2.039 . S
C85 O90 1.246 . S
C85 O91 1.249 . S
O86 C68 1.254 . S
O86 Zn83 2.025 . S
H87 C79 0.952 . S
H88 C70 0.952 . S
H89 C78 0.948 . S
O90 Zn75 2.034 . S
O90 C85 1.246 . S
O91 Zn83 2.024 . S
O91 C85 1.249 . S
H92 C74 0.948 . S
O93 Zn83 2.039 . S
O93 C97 1.251 . S
O94 Zn75 2.025 . S
O94 C97 1.254 . S
O95 C76 1.246 . S
O95 Zn83 2.034 . S
O96 Zn75 2.024 . S
O96 C76 1.249 . S
C97 O93 1.251 . S
C97 O94 1.254 . S
H98 C71 0.949 . S
H99 C73 0.950 . S
H100 C80 0.949 . S
H101 C82 0.950 . S
C102 O118 1.251 . S
C102 O120 1.254 . S
N103 C104 1.333 . S
N103 C108 1.307 1_655 S
N103 Zn109 2.020 . S
C104 N103 1.333 . S
C104 C105 1.379 . S
C104 H122 0.952 . S
C105 C104 1.379 . S
C105 C106 1.390 . S
C105 H132 0.949 . S
C106 C105 1.390 . S
C106 C107 1.357 1_655 S
C107 C106 1.357 1_455 S
C107 C108 1.370 . S
C107 H133 0.950 . S
C108 N103 1.307 1_455 S
C108 C107 1.370 . S
C108 H126 0.948 . S
Zn109 N103 2.020 . S
Zn109 O118 2.039 . S
Zn109 O124 2.034 1_655 S
Zn109 O128 2.025 1_655 S
Zn109 O130 2.024 . S
C110 O129 1.246 . S
C110 O130 1.249 . S
N111 C112 1.307 1_455 S
N111 C113 1.333 . S
N111 Zn117 2.020 . S
C112 N111 1.307 1_655 S
C112 C116 1.370 . S
C112 H123 0.948 . S
C113 N111 1.333 . S
C113 C114 1.379 . S
C113 H121 0.952 . S
C114 C113 1.379 . S
C114 C115 1.390 . S
C114 H134 0.949 . S
C115 C114 1.390 . S
C115 C116 1.357 1_455 S
C116 C112 1.370 . S
C116 C115 1.357 1_655 S
C116 H135 0.950 . S
Zn117 N111 2.020 . S
Zn117 O120 2.025 1_455 S
Zn117 O125 2.024 . S
Zn117 O127 2.039 . S
Zn117 O129 2.034 1_455 S
O118 C102 1.251 . S
O118 Zn109 2.039 . S
C119 O124 1.246 . S
C119 O125 1.249 . S
O120 C102 1.254 . S
O120 Zn117 2.025 1_655 S
H121 C113 0.952 . S
H122 C104 0.952 . S
H123 C112 0.948 . S
O124 Zn109 2.034 1_455 S
O124 C119 1.246 . S
O125 Zn117 2.024 . S
O125 C119 1.249 . S
H126 C108 0.948 . S
O127 Zn117 2.039 . S
O127 C131 1.251 . S
O128 Zn109 2.025 1_455 S
O128 C131 1.254 . S
O129 C110 1.246 . S
O129 Zn117 2.034 1_655 S
O130 Zn109 2.024 . S
O130 C110 1.249 . S
C131 O127 1.251 . S
C131 O128 1.254 . S
H132 C105 0.949 . S
H133 C107 0.950 . S
H134 C114 0.949 . S
H135 C116 0.950 . S
C136 O152 1.251 . S
C136 O154 1.254 . S
N137 C138 1.333 . S
N137 C142 1.307 . S
N137 Zn143 2.020 . S
C138 N137 1.333 . S
C138 C139 1.379 . S
C138 H156 0.952 . S
C139 C138 1.379 . S
C139 C140 1.390 . S
C139 H166 0.949 . S
C140 C139 1.390 . S
C140 C141 1.357 . S
C141 C140 1.357 . S
C141 C142 1.370 . S
C141 H167 0.950 . S
C142 N137 1.307 . S
C142 C141 1.370 . S
C142 H160 0.948 . S
Zn143 N137 2.020 . S
Zn143 O152 2.039 . S
Zn143 O158 2.034 . S
Zn143 O162 2.025 . S
Zn143 O164 2.024 . S
C144 O163 1.246 . S
C144 O164 1.249 . S
N145 C146 1.307 . S
N145 C147 1.333 . S
N145 Zn151 2.020 . S
C146 N145 1.307 . S
C146 C150 1.370 . S
C146 H157 0.948 . S
C147 N145 1.333 . S
C147 C148 1.379 . S
C147 H155 0.952 . S
C148 C147 1.379 . S
C148 C149 1.390 . S
C148 H168 0.949 . S
C149 C148 1.390 . S
C149 C150 1.357 . S
C150 C146 1.370 . S
C150 C149 1.357 . S
C150 H169 0.950 . S
Zn151 N145 2.020 . S
Zn151 O154 2.025 . S
Zn151 O159 2.024 . S
Zn151 O161 2.039 . S
Zn151 O163 2.034 . S
O152 C136 1.251 . S
O152 Zn143 2.039 . S
C153 O158 1.246 . S
C153 O159 1.249 . S
O154 C136 1.254 . S
O154 Zn151 2.025 . S
H155 C147 0.952 . S
H156 C138 0.952 . S
H157 C146 0.948 . S
O158 Zn143 2.034 . S
O158 C153 1.246 . S
O159 Zn151 2.024 . S
O159 C153 1.249 . S
H160 C142 0.948 . S
O161 Zn151 2.039 . S
O161 C165 1.251 . S
O162 Zn143 2.025 . S
O162 C165 1.254 . S
O163 C144 1.246 . S
O163 Zn151 2.034 . S
O164 Zn143 2.024 . S
O164 C144 1.249 . S
C165 O161 1.251 . S
C165 O162 1.254 . S
H166 C139 0.949 . S
H167 C141 0.950 . S
H168 C148 0.949 . S
H169 C150 0.950 . S
C170 O186 1.251 . S
C170 O188 1.254 . S
N171 C172 1.333 . S
N171 C176 1.307 1_545 S
N171 Zn177 2.020 . S
C172 N171 1.333 . S
C172 C173 1.379 . S
C172 H190 0.952 . S
C173 C172 1.379 . S
C173 C174 1.390 . S
C173 H200 0.949 . S
C174 C173 1.390 . S
C174 C175 1.357 . S
C175 C174 1.357 . S
C175 C176 1.370 1_545 S
C175 H201 0.950 1_545 S
C176 N171 1.307 1_565 S
C176 C175 1.370 1_565 S
C176 H194 0.948 . S
Zn177 N171 2.020 . S
Zn177 O186 2.039 . S
Zn177 O192 2.034 1_545 S
Zn177 O196 2.025 1_545 S
Zn177 O198 2.024 . S
C178 O197 1.246 . S
C178 O198 1.249 . S
N179 C180 1.307 . S
N179 C181 1.333 1_545 S
N179 Zn185 2.020 . S
C180 N179 1.307 . S
C180 C184 1.370 . S
C180 H191 0.948 . S
C181 N179 1.333 1_565 S
C181 C182 1.379 . S
C181 H189 0.952 . S
C182 C181 1.379 . S
C182 C183 1.390 . S
C182 H202 0.949 . S
C183 C182 1.390 . S
C183 C184 1.357 1_565 S
C184 C180 1.370 . S
C184 C183 1.357 1_545 S
C184 H203 0.950 . S
Zn185 N179 2.020 . S
Zn185 O188 2.025 . S
Zn185 O193 2.024 1_545 S
Zn185 O195 2.039 1_545 S
Zn185 O197 2.034 . S
O186 C170 1.251 . S
O186 Zn177 2.039 . S
C187 O192 1.246 . S
C187 O193 1.249 . S
O188 C170 1.254 . S
O188 Zn185 2.025 . S
H189 C181 0.952 . S
H190 C172 0.952 . S
H191 C180 0.948 . S
O192 Zn177 2.034 1_565 S
O192 C187 1.246 . S
O193 Zn185 2.024 1_565 S
O193 C187 1.249 . S
H194 C176 0.948 . S
O195 Zn185 2.039 1_565 S
O195 C199 1.251 . S
O196 Zn177 2.025 1_565 S
O196 C199 1.254 . S
O197 C178 1.246 . S
O197 Zn185 2.034 . S
O198 Zn177 2.024 . S
O198 C178 1.249 . S
C199 O195 1.251 . S
C199 O196 1.254 . S
H200 C173 0.949 . S
H201 C175 0.950 1_565 S
H202 C182 0.949 . S
H203 C184 0.950 . S
C204 O220 1.251 . S
C204 O222 1.254 . S
N205 C206 1.333 . S
N205 C210 1.307 . S
N205 Zn211 2.020 . S
C206 N205 1.333 . S
C206 C207 1.379 1_455 S
C206 H224 0.952 1_455 S
C207 C206 1.379 1_655 S
C207 C208 1.390 1_655 S
C207 H234 0.949 . S
C208 C207 1.390 1_455 S
C208 C209 1.357 . S
C209 C208 1.357 . S
C209 C210 1.370 . S
C209 H235 0.950 . S
C210 N205 1.307 . S
C210 C209 1.370 . S
C210 H228 0.948 . S
Zn211 N205 2.020 . S
Zn211 O220 2.039 1_455 S
Zn211 O226 2.034 . S
Zn211 O230 2.025 . S
Zn211 O232 2.024 . S
C212 O231 1.246 . S
C212 O232 1.249 . S
N213 C214 1.307 . S
N213 C215 1.333 . S
N213 Zn219 2.020 . S
C214 N213 1.307 . S
C214 C218 1.370 . S
C214 H225 0.948 1_455 S
C215 N213 1.333 . S
C215 C216 1.379 . S
C215 H223 0.952 . S
C216 C215 1.379 . S
C216 C217 1.390 . S
C216 H236 0.949 . S
C217 C216 1.390 . S
C217 C218 1.357 . S
C218 C214 1.370 . S
C218 C217 1.357 . S
C218 H237 0.950 . S
Zn219 N213 2.020 . S
Zn219 O222 2.025 1_455 S
Zn219 O227 2.024 . S
Zn219 O229 2.039 . S
Zn219 O231 2.034 . S
O220 C204 1.251 . S
O220 Zn211 2.039 1_655 S
C221 O226 1.246 . S
C221 O227 1.249 . S
O222 C204 1.254 . S
O222 Zn219 2.025 1_655 S
H223 C215 0.952 . S
H224 C206 0.952 1_655 S
H225 C214 0.948 1_655 S
O226 Zn211 2.034 . S
O226 C221 1.246 . S
O227 Zn219 2.024 . S
O227 C221 1.249 . S
H228 C210 0.948 . S
O229 Zn219 2.039 . S
O229 C233 1.251 . S
O230 Zn211 2.025 . S
O230 C233 1.254 . S
O231 C212 1.246 . S
O231 Zn219 2.034 . S
O232 Zn211 2.024 . S
O232 C212 1.249 . S
C233 O229 1.251 . S
C233 O230 1.254 . S
H234 C207 0.949 . S
H235 C209 0.950 . S
H236 C216 0.949 . S
H237 C218 0.950 . S
C238 O254 1.251 . S
C238 O256 1.254 . S
N239 C240 1.333 . S
N239 C244 1.307 . S
N239 Zn245 2.020 . S
C240 N239 1.333 . S
C240 C241 1.379 . S
C240 H258 0.952 . S
C241 C240 1.379 . S
C241 C242 1.390 . S
C241 H268 0.949 . S
C242 C241 1.390 . S
C242 C243 1.357 . S
C243 C242 1.357 . S
C243 C244 1.370 . S
C243 H269 0.950 . S
C244 N239 1.307 . S
C244 C243 1.370 . S
C244 H262 0.948 . S
Zn245 N239 2.020 . S
Zn245 O254 2.039 . S
Zn245 O260 2.034 . S
Zn245 O264 2.025 . S
Zn245 O266 2.024 1_565 S
C246 O265 1.246 . S
C246 O266 1.249 . S
N247 C248 1.307 . S
N247 C249 1.333 . S
N247 Zn253 2.020 . S
C248 N247 1.307 . S
C248 C252 1.370 . S
C248 H259 0.948 . S
C249 N247 1.333 . S
C249 C250 1.379 . S
C249 H257 0.952 . S
C250 C249 1.379 . S
C250 C251 1.390 . S
C250 H270 0.949 . S
C251 C250 1.390 . S
C251 C252 1.357 . S
C252 C248 1.370 . S
C252 C251 1.357 . S
C252 H271 0.950 . S
Zn253 N247 2.020 . S
Zn253 O256 2.025 . S
Zn253 O261 2.024 . S
Zn253 O263 2.039 . S
Zn253 O265 2.034 1_565 S
O254 C238 1.251 . S
O254 Zn245 2.039 . S
C255 O260 1.246 . S
C255 O261 1.249 . S
O256 C238 1.254 . S
O256 Zn253 2.025 . S
H257 C249 0.952 . S
H258 C240 0.952 . S
H259 C248 0.948 . S
O260 Zn245 2.034 . S
O260 C255 1.246 . S
O261 Zn253 2.024 . S
O261 C255 1.249 . S
H262 C244 0.948 . S
O263 Zn253 2.039 . S
O263 C267 1.251 . S
O264 Zn245 2.025 . S
O264 C267 1.254 . S
O265 C246 1.246 . S
O265 Zn253 2.034 1_545 S
O266 Zn245 2.024 1_545 S
O266 C246 1.249 . S
C267 O263 1.251 . S
C267 O264 1.254 . S
H268 C241 0.949 . S
H269 C243 0.950 . S
H270 C250 0.949 . S
H271 C252 0.950 . S
C272 O288 1.251 . S
C272 O290 1.254 . S
N273 C274 1.333 . S
N273 C278 1.307 . S
N273 Zn279 2.020 . S
C274 N273 1.333 . S
C274 C275 1.379 1_565 S
C274 H292 0.952 1_565 S
C275 C274 1.379 1_545 S
C275 C276 1.390 1_545 S
C275 H302 0.949 . S
C276 C275 1.390 1_565 S
C276 C277 1.357 . S
C277 C276 1.357 . S
C277 C278 1.370 . S
C277 H303 0.950 . S
C278 N273 1.307 . S
C278 C277 1.370 . S
C278 H296 0.948 . S
Zn279 N273 2.020 . S
Zn279 O288 2.039 1_565 S
Zn279 O294 2.034 . S
Zn279 O298 2.025 . S
Zn279 O300 2.024 . S
C280 O299 1.246 1_655 S
C280 O300 1.249 1_655 S
N281 C282 1.307 . S
N281 C283 1.333 . S
N281 Zn287 2.020 . S
C282 N281 1.307 . S
C282 C286 1.370 . S
C282 H293 0.948 1_565 S
C283 N281 1.333 . S
C283 C284 1.379 . S
C283 H291 0.952 . S
C284 C283 1.379 . S
C284 C285 1.390 . S
C284 H304 0.949 . S
C285 C284 1.390 . S
C285 C286 1.357 . S
C286 C282 1.370 . S
C286 C285 1.357 . S
C286 H305 0.950 1_565 S
Zn287 N281 2.020 . S
Zn287 O290 2.025 1_565 S
Zn287 O295 2.024 . S
Zn287 O297 2.039 . S
Zn287 O299 2.034 . S
O288 C272 1.251 . S
O288 Zn279 2.039 1_545 S
C289 O294 1.246 . S
C289 O295 1.249 . S
O290 C272 1.254 . S
O290 Zn287 2.025 1_545 S
H291 C283 0.952 . S
H292 C274 0.952 1_545 S
H293 C282 0.948 1_545 S
O294 Zn279 2.034 . S
O294 C289 1.246 . S
O295 Zn287 2.024 . S
O295 C289 1.249 . S
H296 C278 0.948 . S
O297 Zn287 2.039 . S
O297 C301 1.251 . S
O298 Zn279 2.025 . S
O298 C301 1.254 . S
O299 C280 1.246 1_455 S
O299 Zn287 2.034 . S
O300 Zn279 2.024 . S
O300 C280 1.249 1_455 S
C301 O297 1.251 . S
C301 O298 1.254 . S
H302 C275 0.949 . S
H303 C277 0.950 . S
H304 C284 0.949 . S
H305 C286 0.950 1_545 S
C306 O322 1.251 . S
C306 O324 1.254 . S
N307 C308 1.333 . S
N307 C312 1.307 . S
N307 Zn313 2.020 . S
C308 N307 1.333 . S
C308 C309 1.379 . S
C308 H326 0.952 . S
C309 C308 1.379 . S
C309 C310 1.390 . S
C309 H336 0.949 . S
C310 C309 1.390 . S
C310 C311 1.357 . S
C311 C310 1.357 . S
C311 C312 1.370 . S
C311 H337 0.950 . S
C312 N307 1.307 . S
C312 C311 1.370 . S
C312 H330 0.948 . S
Zn313 N307 2.020 . S
Zn313 O322 2.039 . S
Zn313 O328 2.034 . S
Zn313 O332 2.025 . S
Zn313 O334 2.024 . S
C314 O333 1.246 . S
C314 O334 1.249 . S
N315 C316 1.307 . S
N315 C317 1.333 . S
N315 Zn321 2.020 . S
C316 N315 1.307 . S
C316 C320 1.370 . S
C316 H327 0.948 . S
C317 N315 1.333 . S
C317 C318 1.379 . S
C317 H325 0.952 1_565 S
C318 C317 1.379 . S
C318 C319 1.390 . S
C318 H338 0.949 1_565 S
C319 C318 1.390 . S
C319 C320 1.357 . S
C320 C316 1.370 . S
C320 C319 1.357 . S
C320 H339 0.950 . S
Zn321 N315 2.020 . S
Zn321 O324 2.025 . S
Zn321 O329 2.024 . S
Zn321 O331 2.039 . S
Zn321 O333 2.034 . S
O322 C306 1.251 . S
O322 Zn313 2.039 . S
C323 O328 1.246 . S
C323 O329 1.249 . S
O324 C306 1.254 . S
O324 Zn321 2.025 . S
H325 C317 0.952 1_545 S
H326 C308 0.952 . S
H327 C316 0.948 . S
O328 Zn313 2.034 . S
O328 C323 1.246 . S
O329 Zn321 2.024 . S
O329 C323 1.249 . S
H330 C312 0.948 . S
O331 Zn321 2.039 . S
O331 C335 1.251 1_565 S
O332 Zn313 2.025 . S
O332 C335 1.254 1_565 S
O333 C314 1.246 . S
O333 Zn321 2.034 . S
O334 Zn313 2.024 . S
O334 C314 1.249 . S
C335 O331 1.251 1_545 S
C335 O332 1.254 1_545 S
H336 C309 0.949 . S
H337 C311 0.950 . S
H338 C318 0.949 1_545 S
H339 C320 0.950 . S
C340 O356 1.251 . S
C340 O358 1.254 . S
N341 C342 1.333 . S
N341 C346 1.307 . S
N341 Zn347 2.020 . S
C342 N341 1.333 . S
C342 C343 1.379 . S
C342 H360 0.952 . S
C343 C342 1.379 . S
C343 C344 1.390 . S
C343 H370 0.949 1_565 S
C344 C343 1.390 . S
C344 C345 1.357 . S
C345 C344 1.357 . S
C345 C346 1.370 . S
C345 H371 0.950 . S
C346 N341 1.307 . S
C346 C345 1.370 . S
C346 H364 0.948 . S
Zn347 N341 2.020 . S
Zn347 O356 2.039 . S
Zn347 O362 2.034 1_565 S
Zn347 O366 2.025 . S
Zn347 O368 2.024 . S
C348 O367 1.246 . S
C348 O368 1.249 . S
N349 C350 1.307 . S
N349 C351 1.333 . S
N349 Zn355 2.020 . S
C350 N349 1.307 . S
C350 C354 1.370 . S
C350 H361 0.948 . S
C351 N349 1.333 . S
C351 C352 1.379 . S
C351 H359 0.952 . S
C352 C351 1.379 . S
C352 C353 1.390 . S
C352 H372 0.949 1_455 S
C353 C352 1.390 . S
C353 C354 1.357 . S
C354 C350 1.370 . S
C354 C353 1.357 . S
C354 H373 0.950 . S
Zn355 N349 2.020 . S
Zn355 O358 2.025 . S
Zn355 O363 2.024 1_565 S
Zn355 O365 2.039 . S
Zn355 O367 2.034 . S
O356 C340 1.251 . S
O356 Zn347 2.039 . S
C357 O362 1.246 . S
C357 O363 1.249 . S
O358 C340 1.254 . S
O358 Zn355 2.025 . S
H359 C351 0.952 . S
H360 C342 0.952 . S
H361 C350 0.948 . S
O362 Zn347 2.034 1_545 S
O362 C357 1.246 . S
O363 Zn355 2.024 1_545 S
O363 C357 1.249 . S
H364 C346 0.948 . S
O365 Zn355 2.039 . S
O365 C369 1.251 1_455 S
O366 Zn347 2.025 . S
O366 C369 1.254 1_455 S
O367 C348 1.246 . S
O367 Zn355 2.034 . S
O368 Zn347 2.024 . S
O368 C348 1.249 . S
C369 O365 1.251 1_655 S
C369 O366 1.254 1_655 S
H370 C343 0.949 1_545 S
H371 C345 0.950 . S
H372 C352 0.949 1_655 S
H373 C354 0.950 . S
C374 O390 1.251 . S
C374 O392 1.254 . S
N375 C376 1.333 . S
N375 C380 1.307 . S
N375 Zn381 2.020 . S
C376 N375 1.333 . S
C376 C377 1.379 . S
C376 H394 0.952 . S
C377 C376 1.379 . S
C377 C378 1.390 . S
C377 H404 0.949 . S
C378 C377 1.390 . S
C378 C379 1.357 . S
C379 C378 1.357 . S
C379 C380 1.370 . S
C379 H405 0.950 . S
C380 N375 1.307 . S
C380 C379 1.370 . S
C380 H398 0.948 . S
Zn381 N375 2.020 . S
Zn381 O390 2.039 . S
Zn381 O396 2.034 1_455 S
Zn381 O400 2.025 . S
Zn381 O402 2.024 . S
C382 O401 1.246 . S
C382 O402 1.249 . S
N383 C384 1.307 . S
N383 C385 1.333 . S
N383 Zn389 2.020 . S
C384 N383 1.307 . S
C384 C388 1.370 . S
C384 H395 0.948 . S
C385 N383 1.333 . S
C385 C386 1.379 . S
C385 H393 0.952 . S
C386 C385 1.379 . S
C386 C387 1.390 . S
C386 H406 0.949 . S
C387 C386 1.390 . S
C387 C388 1.357 . S
C388 C384 1.370 . S
C388 C387 1.357 . S
C388 H407 0.950 . S
Zn389 N383 2.020 . S
Zn389 O392 2.025 . S
Zn389 O397 2.024 1_455 S
Zn389 O399 2.039 . S
Zn389 O401 2.034 . S
O390 C374 1.251 . S
O390 Zn381 2.039 . S
C391 O396 1.246 . S
C391 O397 1.249 . S
O392 C374 1.254 . S
O392 Zn389 2.025 . S
H393 C385 0.952 . S
H394 C376 0.952 . S
H395 C384 0.948 . S
O396 Zn381 2.034 1_655 S
O396 C391 1.246 . S
O397 Zn389 2.024 1_655 S
O397 C391 1.249 . S
H398 C380 0.948 . S
O399 Zn389 2.039 . S
O399 C403 1.251 . S
O400 Zn381 2.025 . S
O400 C403 1.254 . S
O401 C382 1.246 . S
O401 Zn389 2.034 . S
O402 Zn381 2.024 . S
O402 C382 1.249 . S
C403 O399 1.251 . S
C403 O400 1.254 . S
H404 C377 0.949 . S
H405 C379 0.950 . S
H406 C386 0.949 . S
H407 C388 0.950 . S
C408 O424 1.251 . S
C408 O426 1.254 . S
N409 C410 1.333 . S
N409 C414 1.307 . S
N409 Zn415 2.020 . S
C410 N409 1.333 . S
C410 C411 1.379 . S
C410 H428 0.952 . S
C411 C410 1.379 . S
C411 C412 1.390 . S
C411 H438 0.949 . S
C412 C411 1.390 . S
C412 C413 1.357 . S
C413 C412 1.357 . S
C413 C414 1.370 . S
C413 H439 0.950 . S
C414 N409 1.307 . S
C414 C413 1.370 . S
C414 H432 0.948 . S
Zn415 N409 2.020 . S
Zn415 O424 2.039 . S
Zn415 O430 2.034 . S
Zn415 O434 2.025 . S
Zn415 O436 2.024 . S
C416 O435 1.246 . S
C416 O436 1.249 . S
N417 C418 1.307 . S
N417 C419 1.333 . S
N417 Zn423 2.020 . S
C418 N417 1.307 . S
C418 C422 1.370 . S
C418 H429 0.948 . S
C419 N417 1.333 . S
C419 C420 1.379 . S
C419 H427 0.952 1_655 S
C420 C419 1.379 . S
C420 C421 1.390 . S
C420 H440 0.949 1_655 S
C421 C420 1.390 . S
C421 C422 1.357 . S
C422 C418 1.370 . S
C422 C421 1.357 . S
C422 H441 0.950 . S
Zn423 N417 2.020 . S
Zn423 O426 2.025 . S
Zn423 O431 2.024 . S
Zn423 O433 2.039 . S
Zn423 O435 2.034 . S
O424 C408 1.251 . S
O424 Zn415 2.039 . S
C425 O430 1.246 . S
C425 O431 1.249 . S
O426 C408 1.254 . S
O426 Zn423 2.025 . S
H427 C419 0.952 1_455 S
H428 C410 0.952 . S
H429 C418 0.948 . S
O430 Zn415 2.034 . S
O430 C425 1.246 . S
O431 Zn423 2.024 . S
O431 C425 1.249 . S
H432 C414 0.948 . S
O433 Zn423 2.039 . S
O433 C437 1.251 1_655 S
O434 Zn415 2.025 . S
O434 C437 1.254 1_655 S
O435 C416 1.246 . S
O435 Zn423 2.034 . S
O436 Zn415 2.024 . S
O436 C416 1.249 . S
C437 O433 1.251 1_455 S
C437 O434 1.254 1_455 S
H438 C411 0.949 . S
H439 C413 0.950 . S
H440 C420 0.949 1_455 S
H441 C422 0.950 . S
C442 O458 1.251 . S
C442 O460 1.254 . S
N443 C444 1.333 . S
N443 C448 1.307 . S
N443 Zn449 2.020 . S
C444 N443 1.333 . S
C444 C445 1.379 . S
C444 H462 0.952 . S
C445 C444 1.379 . S
C445 C446 1.390 . S
C445 H472 0.949 . S
C446 C445 1.390 . S
C446 C447 1.357 . S
C447 C446 1.357 . S
C447 C448 1.370 . S
C447 H473 0.950 . S
C448 N443 1.307 . S
C448 C447 1.370 . S
C448 H466 0.948 . S
Zn449 N443 2.020 . S
Zn449 O458 2.039 . S
Zn449 O464 2.034 1_545 S
Zn449 O468 2.025 . S
Zn449 O470 2.024 . S
C450 O469 1.246 . S
C450 O470 1.249 . S
N451 C452 1.307 . S
N451 C453 1.333 . S
N451 Zn457 2.020 . S
C452 N451 1.307 . S
C452 C456 1.370 . S
C452 H463 0.948 . S
C453 N451 1.333 . S
C453 C454 1.379 . S
C453 H461 0.952 . S
C454 C453 1.379 . S
C454 C455 1.390 . S
C454 H474 0.949 . S
C455 C454 1.390 . S
C455 C456 1.357 . S
C456 C452 1.370 . S
C456 C455 1.357 . S
C456 H475 0.950 . S
Zn457 N451 2.020 . S
Zn457 O460 2.025 . S
Zn457 O465 2.024 1_545 S
Zn457 O467 2.039 . S
Zn457 O469 2.034 . S
O458 C442 1.251 . S
O458 Zn449 2.039 . S
C459 O464 1.246 . S
C459 O465 1.249 . S
O460 C442 1.254 . S
O460 Zn457 2.025 . S
H461 C453 0.952 . S
H462 C444 0.952 . S
H463 C452 0.948 . S
O464 Zn449 2.034 1_565 S
O464 C459 1.246 . S
O465 Zn457 2.024 1_565 S
O465 C459 1.249 . S
H466 C448 0.948 . S
O467 Zn457 2.039 . S
O467 C471 1.251 . S
O468 Zn449 2.025 . S
O468 C471 1.254 . S
O469 C450 1.246 . S
O469 Zn457 2.034 . S
O470 Zn449 2.024 . S
O470 C450 1.249 . S
C471 O467 1.251 . S
C471 O468 1.254 . S
H472 C445 0.949 . S
H473 C447 0.950 . S
H474 C454 0.949 . S
H475 C456 0.950 . S
C476 O492 1.251 . S
C476 O494 1.254 . S
N477 C478 1.333 . S
N477 C482 1.307 . S
N477 Zn483 2.020 . S
C478 N477 1.333 . S
C478 C479 1.379 . S
C478 H496 0.952 . S
C479 C478 1.379 . S
C479 C480 1.390 . S
C479 H506 0.949 1_655 S
C480 C479 1.390 . S
C480 C481 1.357 . S
C481 C480 1.357 . S
C481 C482 1.370 . S
C481 H507 0.950 . S
C482 N477 1.307 . S
C482 C481 1.370 . S
C482 H500 0.948 . S
Zn483 N477 2.020 . S
Zn483 O492 2.039 . S
Zn483 O498 2.034 1_655 S
Zn483 O502 2.025 . S
Zn483 O504 2.024 . S
C484 O503 1.246 . S
C484 O504 1.249 . S
N485 C486 1.307 . S
N485 C487 1.333 . S
N485 Zn491 2.020 . S
C486 N485 1.307 . S
C486 C490 1.370 . S
C486 H497 0.948 . S
C487 N485 1.333 . S
C487 C488 1.379 . S
C487 H495 0.952 . S
C488 C487 1.379 . S
C488 C489 1.390 . S
C488 H508 0.949 1_545 S
C489 C488 1.390 . S
C489 C490 1.357 . S
C490 C486 1.370 . S
C490 C489 1.357 . S
C490 H509 0.950 . S
Zn491 N485 2.020 . S
Zn491 O494 2.025 . S
Zn491 O499 2.024 1_655 S
Zn491 O501 2.039 . S
Zn491 O503 2.034 . S
O492 C476 1.251 . S
O492 Zn483 2.039 . S
C493 O498 1.246 . S
C493 O499 1.249 . S
O494 C476 1.254 . S
O494 Zn491 2.025 . S
H495 C487 0.952 . S
H496 C478 0.952 . S
H497 C486 0.948 . S
O498 Zn483 2.034 1_455 S
O498 C493 1.246 . S
O499 Zn491 2.024 1_455 S
O499 C493 1.249 . S
H500 C482 0.948 . S
O501 Zn491 2.039 . S
O501 C505 1.251 1_545 S
O502 Zn483 2.025 . S
O502 C505 1.254 1_545 S
O503 C484 1.246 . S
O503 Zn491 2.034 . S
O504 Zn483 2.024 . S
O504 C484 1.249 . S
C505 O501 1.251 1_565 S
C505 O502 1.254 1_565 S
H506 C479 0.949 1_455 S
H507 C481 0.950 . S
H508 C488 0.949 1_565 S
H509 C490 0.950 . S
C510 O526 1.251 . S
C510 O528 1.254 . S
N511 C512 1.333 . S
N511 C516 1.307 . S
N511 Zn517 2.020 . S
C512 N511 1.333 . S
C512 C513 1.379 1_545 S
C512 H530 0.952 1_545 S
C513 C512 1.379 1_565 S
C513 C514 1.390 1_565 S
C513 H540 0.949 . S
C514 C513 1.390 1_545 S
C514 C515 1.357 . S
C515 C514 1.357 . S
C515 C516 1.370 . S
C515 H541 0.950 . S
C516 N511 1.307 . S
C516 C515 1.370 . S
C516 H534 0.948 . S
Zn517 N511 2.020 . S
Zn517 O526 2.039 1_545 S
Zn517 O532 2.034 . S
Zn517 O536 2.025 . S
Zn517 O538 2.024 . S
C518 O537 1.246 . S
C518 O538 1.249 . S
N519 C520 1.307 . S
N519 C521 1.333 . S
N519 Zn525 2.020 . S
C520 N519 1.307 . S
C520 C524 1.370 . S
C520 H531 0.948 1_545 S
C521 N519 1.333 . S
C521 C522 1.379 . S
C521 H529 0.952 . S
C522 C521 1.379 . S
C522 C523 1.390 . S
C522 H542 0.949 . S
C523 C522 1.390 . S
C523 C524 1.357 . S
C524 C520 1.370 . S
C524 C523 1.357 . S
C524 H543 0.950 . S
Zn525 N519 2.020 . S
Zn525 O528 2.025 1_545 S
Zn525 O533 2.024 . S
Zn525 O535 2.039 . S
Zn525 O537 2.034 . S
O526 C510 1.251 . S
O526 Zn517 2.039 1_565 S
C527 O532 1.246 . S
C527 O533 1.249 . S
O528 C510 1.254 . S
O528 Zn525 2.025 1_565 S
H529 C521 0.952 . S
H530 C512 0.952 1_565 S
H531 C520 0.948 1_565 S
O532 Zn517 2.034 . S
O532 C527 1.246 . S
O533 Zn525 2.024 . S
O533 C527 1.249 . S
H534 C516 0.948 . S
O535 Zn525 2.039 . S
O535 C539 1.251 . S
O536 Zn517 2.025 . S
O536 C539 1.254 . S
O537 C518 1.246 . S
O537 Zn525 2.034 . S
O538 Zn517 2.024 . S
O538 C518 1.249 . S
C539 O535 1.251 . S
C539 O536 1.254 . S
H540 C513 0.949 . S
H541 C515 0.950 . S
H542 C522 0.949 . S
H543 C524 0.950 . S
C544 O560 1.251 . S
C544 O562 1.254 . S
N545 C546 1.333 . S
N545 C550 1.307 . S
N545 Zn551 2.020 . S
C546 N545 1.333 . S
C546 C547 1.379 1_655 S
C546 H564 0.952 1_655 S
C547 C546 1.379 1_455 S
C547 C548 1.390 1_455 S
C547 H574 0.949 . S
C548 C547 1.390 1_655 S
C548 C549 1.357 . S
C549 C548 1.357 . S
C549 C550 1.370 . S
C549 H575 0.950 . S
C550 N545 1.307 . S
C550 C549 1.370 . S
C550 H568 0.948 . S
Zn551 N545 2.020 . S
Zn551 O560 2.039 1_655 S
Zn551 O566 2.034 . S
Zn551 O570 2.025 . S
Zn551 O572 2.024 . S
C552 O571 1.246 1_565 S
C552 O572 1.249 1_565 S
N553 C554 1.307 . S
N553 C555 1.333 . S
N553 Zn559 2.020 . S
C554 N553 1.307 . S
C554 C558 1.370 . S
C554 H565 0.948 1_655 S
C555 N553 1.333 . S
C555 C556 1.379 . S
C555 H563 0.952 . S
C556 C555 1.379 . S
C556 C557 1.390 . S
C556 H576 0.949 . S
C557 C556 1.390 . S
C557 C558 1.357 . S
C558 C554 1.370 . S
C558 C557 1.357 . S
C558 H577 0.950 1_655 S
Zn559 N553 2.020 . S
Zn559 O562 2.025 1_655 S
Zn559 O567 2.024 . S
Zn559 O569 2.039 . S
Zn559 O571 2.034 . S
O560 C544 1.251 . S
O560 Zn551 2.039 1_455 S
C561 O566 1.246 . S
C561 O567 1.249 . S
O562 C544 1.254 . S
O562 Zn559 2.025 1_455 S
H563 C555 0.952 . S
H564 C546 0.952 1_455 S
H565 C554 0.948 1_455 S
O566 Zn551 2.034 . S
O566 C561 1.246 . S
O567 Zn559 2.024 . S
O567 C561 1.249 . S
H568 C550 0.948 . S
O569 Zn559 2.039 . S
O569 C573 1.251 . S
O570 Zn551 2.025 . S
O570 C573 1.254 . S
O571 C552 1.246 1_545 S
O571 Zn559 2.034 . S
O572 Zn551 2.024 . S
O572 C552 1.249 1_545 S
C573 O569 1.251 . S
C573 O570 1.254 . S
H574 C547 0.949 . S
H575 C549 0.950 . S
H576 C556 0.949 . S
H577 C558 0.950 1_455 S
C578 O594 1.251 . S
C578 O596 1.254 . S
N579 C580 1.333 . S
N579 C584 1.307 . S
N579 Zn585 2.020 . S
C580 N579 1.333 . S
C580 C581 1.379 . S
C580 H598 0.952 . S
C581 C580 1.379 . S
C581 C582 1.390 . S
C581 H608 0.949 . S
C582 C581 1.390 . S
C582 C583 1.357 . S
C583 C582 1.357 . S
C583 C584 1.370 . S
C583 H609 0.950 . S
C584 N579 1.307 . S
C584 C583 1.370 . S
C584 H602 0.948 . S
Zn585 N579 2.020 . S
Zn585 O594 2.039 . S
Zn585 O600 2.034 . S
Zn585 O604 2.025 . S
Zn585 O606 2.024 1_655 S
C586 O605 1.246 . S
C586 O606 1.249 . S
N587 C588 1.307 . S
N587 C589 1.333 . S
N587 Zn593 2.020 . S
C588 N587 1.307 . S
C588 C592 1.370 . S
C588 H599 0.948 . S
C589 N587 1.333 . S
C589 C590 1.379 . S
C589 H597 0.952 . S
C590 C589 1.379 . S
C590 C591 1.390 . S
C590 H610 0.949 . S
C591 C590 1.390 . S
C591 C592 1.357 . S
C592 C588 1.370 . S
C592 C591 1.357 . S
C592 H611 0.950 . S
Zn593 N587 2.020 . S
Zn593 O596 2.025 . S
Zn593 O601 2.024 . S
Zn593 O603 2.039 . S
Zn593 O605 2.034 1_655 S
O594 C578 1.251 . S
O594 Zn585 2.039 . S
C595 O600 1.246 . S
C595 O601 1.249 . S
O596 C578 1.254 . S
O596 Zn593 2.025 . S
H597 C589 0.952 . S
H598 C580 0.952 . S
H599 C588 0.948 . S
O600 Zn585 2.034 . S
O600 C595 1.246 . S
O601 Zn593 2.024 . S
O601 C595 1.249 . S
H602 C584 0.948 . S
O603 Zn593 2.039 . S
O603 C607 1.251 . S
O604 Zn585 2.025 . S
O604 C607 1.254 . S
O605 C586 1.246 . S
O605 Zn593 2.034 1_455 S
O606 Zn585 2.024 1_455 S
O606 C586 1.249 . S
C607 O603 1.251 . S
C607 O604 1.254 . S
H608 C581 0.949 . S
H609 C583 0.950 . S
H610 C590 0.949 . S
H611 C592 0.950 . S
C8 C68 1.065 . S
C0 C42 1.065 . S
C34 C76 1.061 . S
C110 C136 1.065 . S
C170 C144 1.061 . S
C178 C102 1.065 . S
C272 C212 1.061 . S
C204 C246 1.062 . S
C280 C238 1.062 . S
C340 C314 1.061 . S
C348 C374 1.062 . S
C306 C382 1.061 . S
C416 C476 1.061 . S
C408 C450 1.062 . S
C442 C484 1.062 . S
C544 C518 1.062 . S
C578 C552 1.062 . S
C510 C586 1.062 . S
C13 C183 1.599 1_544 S
C115 C47 1.599 1_456 S
C149 C81 1.598 1_556 S
C217 C387 1.598 . S
C251 C319 1.599 . S
C353 C285 1.598 . S
C421 C591 1.598 . S
C523 C455 1.598 . S
C557 C489 1.598 . S
C344 C4 2.334 . S
C38 C378 2.332 . S
C310 C72 2.333 . S
C106 C480 2.334 . S
C140 C412 2.333 . S
C446 C174 2.332 . S
C548 C208 2.331 1_655 S
C242 C582 2.336 . S
C276 C514 2.331 1_565 S
C97 C17 1.382 . S
C29 C51 1.385 . S
C85 C63 1.386 . S
C165 C119 1.382 . S
C199 C153 1.387 . S
C187 C131 1.386 . S
C301 C221 1.387 . S
C255 C233 1.386 . S
C267 C289 1.387 . S
C323 C369 1.388 . S
C357 C403 1.387 . S
C335 C391 1.387 . S
C425 C505 1.387 . S
C459 C437 1.386 . S
C471 C493 1.386 . S
C527 C573 1.387 . S
C561 C607 1.386 . S
C539 C595 1.386 . S
