# Generated by pormake.
# Topology gan, (5)-cn, num edge types: 1
# Building blocks:
#     Node 0, Type 0, BuildingBlock: XOMCOT_clean_sbu_0, # of connection points: 5
#     Node 1, Type 0, BuildingBlock: XOMCOT_clean_sbu_0, # of connection points: 5
#     Node 2, Type 0, BuildingBlock: XOMCOT_clean_sbu_0, # of connection points: 5
#     Node 3, Type 0, BuildingBlock: XOMCOT_clean_sbu_0, # of connection points: 5
#     Node 4, Type 0, BuildingBlock: XOMCOT_clean_sbu_0, # of connection points: 5
#     Node 5, Type 0, BuildingBlock: XOMCOT_clean_sbu_0, # of connection points: 5
#     Node 6, Type 0, BuildingBlock: XOMCOT_clean_sbu_0, # of connection points: 5
#     Node 7, Type 0, BuildingBlock: XOMCOT_clean_sbu_0, # of connection points: 5
#     Node 8, Type 0, BuildingBlock: XOMCOT_clean_sbu_0, # of connection points: 5
#     Node 9, Type 0, BuildingBlock: XOMCOT_clean_sbu_0, # of connection points: 5
#     Node 10, Type 0, BuildingBlock: XOMCOT_clean_sbu_0, # of connection points: 5
#     Node 11, Type 0, BuildingBlock: XOMCOT_clean_sbu_0, # of connection points: 5
#     Node 12, Type 0, BuildingBlock: XOMCOT_clean_sbu_0, # of connection points: 5
#     Node 13, Type 0, BuildingBlock: XOMCOT_clean_sbu_0, # of connection points: 5
#     Node 14, Type 0, BuildingBlock: XOMCOT_clean_sbu_0, # of connection points: 5
#     Node 15, Type 0, BuildingBlock: XOMCOT_clean_sbu_0, # of connection points: 5
#     Edge 16, Type (0, 0), None
#     Edge 17, Type (0, 0), None
#     Edge 18, Type (0, 0), None
#     Edge 19, Type (0, 0), None
#     Edge 20, Type (0, 0), None
#     Edge 21, Type (0, 0), None
#     Edge 22, Type (0, 0), None
#     Edge 23, Type (0, 0), None
#     Edge 24, Type (0, 0), None
#     Edge 25, Type (0, 0), None
#     Edge 26, Type (0, 0), None
#     Edge 27, Type (0, 0), None
#     Edge 28, Type (0, 0), None
#     Edge 29, Type (0, 0), None
#     Edge 30, Type (0, 0), None
#     Edge 31, Type (0, 0), None
#     Edge 32, Type (0, 0), None
#     Edge 33, Type (0, 0), None
#     Edge 34, Type (0, 0), None
#     Edge 35, Type (0, 0), None
#     Edge 36, Type (0, 0), None
#     Edge 37, Type (0, 0), None
#     Edge 38, Type (0, 0), None
#     Edge 39, Type (0, 0), None
#     Edge 40, Type (0, 0), None
#     Edge 41, Type (0, 0), None
#     Edge 42, Type (0, 0), None
#     Edge 43, Type (0, 0), None
#     Edge 44, Type (0, 0), None
#     Edge 45, Type (0, 0), None
#     Edge 46, Type (0, 0), None
#     Edge 47, Type (0, 0), None
#     Edge 48, Type (0, 0), None
#     Edge 49, Type (0, 0), None
#     Edge 50, Type (0, 0), None
#     Edge 51, Type (0, 0), None
#     Edge 52, Type (0, 0), None
#     Edge 53, Type (0, 0), None
#     Edge 54, Type (0, 0), None
#     Edge 55, Type (0, 0), None
# Relax obj value: 0.082
# Max RMSD: 0.122
# Mean RMSD: 0.100
data_MOF--net-gan--node1-XOMCOT_clean_sbu_0--edge1-none
_symmetry_space_group_name_H-M    P1
_symmetry_Int_Tables_number       1
_symmetry_cell_setting            triclinic
loop_
_symmetry_equiv_pos_as_xyz
'x, y, z'
_cell_length_a     22.219531
_cell_length_b     22.189804
_cell_length_c     21.228271
_cell_angle_alpha  91.563876
_cell_angle_beta   92.215321
_cell_angle_gamma 91.710003
loop_
_atom_site_label
_atom_site_type_symbol
_atom_site_fract_x
_atom_site_fract_y
_atom_site_fract_z
_atom_type_partial_charge
Co0 Co 0.13649 0.20365 0.14494 0.0
C1 C 0.1964 0.29779 0.21997 0.0
C2 C 0.23346 0.29451 0.12823 0.0
C3 C 0.27266 0.32772 0.16878 0.0
N4 N 0.18646 0.27482 0.16124 0.0
N5 N 0.24922 0.32861 0.22635 0.0
H6 H 0.17039 0.28416 0.25952 0.0
H7 H 0.24267 0.27936 0.08081 0.0
C8 C 0.19516 0.13691 0.04332 0.0
O9 O 0.14197 0.12235 1.01737 0.0
N10 N 0.08746 0.13128 0.13192 0.0
C11 C 0.10541 0.07454 0.14195 0.0
C12 C 0.05752 0.03521 0.12906 0.0
C13 C 0.02893 0.12584 0.11385 0.0
N14 N 1.01001 0.06807 0.11191 0.0
C15 C 0.12969 0.15621 0.26669 0.0
C16 C 0.24262 0.10621 0.27103 0.0
C17 C 0.19894 0.08662 0.31217 0.0
C18 C 0.14342 0.11464 0.31231 0.0
C19 C 0.22695 0.14842 0.22573 0.0
N20 N 0.16948 0.16899 0.22134 0.0
H21 H 0.0846 0.17302 0.26361 0.0
H22 H 0.25955 0.16081 0.19157 0.0
H23 H 0.15067 0.0624 0.15585 0.0
H24 H 1.00119 0.16215 0.09863 0.0
O25 O 0.06963 0.24531 0.17844 0.0
O26 O 0.09251 0.24309 0.07742 0.0
O27 O 0.20071 0.16823 0.09436 0.0
C28 C 0.05738 0.26163 0.12106 0.0
H29 H 0.31809 0.34258 0.15893 0.0
H30 H 0.05815 0.98647 0.12932 0.0
H31 H 0.28617 0.08559 0.27031 0.0
H32 H 0.10896 0.10078 0.34417 0.0
Co33 Co 0.19424 0.95291 0.41159 0.0
C34 C 0.08354 1.00493 0.4752 0.0
C35 C 0.16632 0.05376 0.49923 0.0
C36 C 0.12034 0.0816 0.52984 0.0
N37 N 0.14397 1.00571 0.46438 0.0
N38 N 0.06829 0.05098 0.51513 0.0
H39 H 0.05146 0.97184 0.45432 0.0
H40 H 0.21341 0.06768 0.50266 0.0
C41 C 0.29588 0.93458 0.50159 0.0
O42 O 0.32951 0.9601 0.45969 0.0
N43 N 0.24393 0.89802 0.36088 0.0
C44 C 0.26411 0.84629 0.38523 0.0
C45 C 0.28639 0.8102 0.3389 0.0
C46 C 0.25362 0.89132 0.29768 0.0
N47 N 0.27985 0.83776 0.28358 0.0
C48 C 0.11453 0.86633 0.35525 0.0
C49 C 0.07273 0.81512 0.46273 0.0
C50 C 0.0512 0.79338 0.40299 0.0
C51 C 0.07296 0.81881 0.34907 0.0
C52 C 0.11628 0.86221 0.46688 0.0
N53 N 0.13571 0.88744 0.41321 0.0
H54 H 0.13 0.88621 0.31277 0.0
H55 H 0.13311 0.87938 0.51257 0.0
H56 H 0.25884 0.8327 0.4332 0.0
H57 H 0.23887 0.92284 0.26273 0.0
O58 O 0.16159 0.9896 0.33808 0.0
O59 O 0.24396 1.02334 0.39198 0.0
O60 O 0.23888 0.92748 0.49082 0.0
C61 C 0.20417 1.03051 0.34633 0.0
H62 H 0.12519 0.12049 0.56172 0.0
H63 H 0.30348 0.76563 0.34557 0.0
H64 H 0.05553 0.79642 0.50531 0.0
H65 H 0.0563 0.80351 0.30251 0.0
Co66 Co 0.43855 0.88077 0.63731 0.0
C67 C 0.35977 0.82272 0.73313 0.0
C68 C 0.34588 0.78489 0.63957 0.0
C69 C 0.31498 0.74881 0.67982 0.0
N70 N 0.37339 0.83198 0.67233 0.0
N71 N 0.32387 0.77266 0.73829 0.0
H72 H 0.37826 0.84973 0.77289 0.0
H73 H 0.35015 0.77598 0.58961 0.0
C74 C 0.32441 0.91015 0.559 0.0
O75 O 0.2892 0.88825 0.60145 0.0
N76 N 0.50536 0.92603 0.59665 0.0
C77 C 0.55955 0.90363 0.5832 0.0
C78 C 0.59152 0.94345 0.54743 0.0
C79 C 0.50538 0.98018 0.56692 0.0
N80 N 0.55778 0.99167 0.5368 0.0
C81 C 0.47463 0.97529 0.72258 0.0
C82 C 0.36284 1.00015 0.76699 0.0
C83 C 0.41448 1.02389 0.8002 0.0
C84 C 0.47078 1.01261 0.77599 0.0
C85 C 0.36867 0.96382 0.71274 0.0
N86 N 0.42423 0.95015 0.69217 0.0
H87 H 0.51892 0.9629 0.70864 0.0
H88 H 0.32859 0.9431 0.69109 0.0
H89 H 0.57455 0.85966 0.5953 0.0
H90 H 0.46731 1.00947 0.5658 0.0
O91 O 0.49253 0.84385 0.6974 0.0
O92 O 0.46738 0.80506 0.60247 0.0
O93 O 0.38222 0.90943 0.56616 0.0
C94 C 0.49427 0.7988 0.65789 0.0
H95 H 0.28866 0.70811 0.66733 0.0
H96 H 0.63567 0.9364 0.52928 0.0
H97 H 0.31829 1.00759 0.78383 0.0
H98 H 0.51198 1.03003 0.79971 0.0
Co99 Co 0.33112 0.12368 0.95147 0.0
C100 C 0.26758 0.22109 0.88292 0.0
C101 C 0.26043 0.13553 0.83294 0.0
C102 C 0.22808 0.17632 0.79897 0.0
N103 N 0.28597 0.16354 0.88498 0.0
N104 N 0.23255 0.22976 0.83056 0.0
H105 H 0.27885 0.2553 0.9191 0.0
H106 H 0.26294 0.08803 0.82156 0.0
C107 C 0.41015 0.06034 0.85928 0.0
O108 O 0.45864 0.08805 0.88463 0.0
N109 N 0.3742 0.08115 1.01975 0.0
C110 C 0.36503 0.08731 0.08248 0.0
C111 C 0.40422 0.05209 0.11601 0.0
C112 C 0.41866 0.04065 1.01664 0.0
N113 N 0.43785 1.02302 0.07449 0.0
C114 C 0.42697 0.20384 0.9971 0.0
C115 C 0.45559 0.24872 0.88157 0.0
C116 C 0.48501 0.27321 0.93642 0.0
C117 C 0.47081 0.24985 0.99465 0.0
C118 C 0.41237 0.20243 0.88604 0.0
N119 N 0.39897 0.17986 0.94329 0.0
H120 H 0.41393 0.18938 0.04276 0.0
H121 H 0.38966 0.18468 0.84326 0.0
H122 H 0.33327 0.11684 0.10368 0.0
H123 H 0.43677 1.0239 0.97363 0.0
O124 O 0.29128 0.1706 1.0125 0.0
O125 O 0.25677 0.08203 0.97111 0.0
O126 O 0.35918 0.06549 0.88447 0.0
C127 C 0.24905 0.12884 1.00815 0.0
H128 H 0.20149 0.16674 0.7559 0.0
H129 H 0.40863 0.04944 0.16678 0.0
H130 H 0.46571 0.26537 0.83554 0.0
H131 H 0.49167 0.26855 0.03814 0.0
Co132 Co 0.67887 0.46925 0.88636 0.0
C133 C 0.60018 0.52526 0.98265 0.0
C134 C 0.66027 0.5919 0.94698 0.0
C135 C 0.6193 0.62074 0.98427 0.0
N136 N 0.64773 0.53164 0.94459 0.0
N137 N 0.58146 0.57848 1.00614 0.0
H138 H 0.5778 0.48292 0.9918 0.0
H139 H 0.69493 0.61442 0.92115 0.0
C140 C 0.78274 0.41194 0.96126 0.0
O141 O 0.79447 0.37489 0.91454 0.0
N142 N 0.70613 0.40442 0.82677 0.0
C143 C 0.67535 0.35109 0.81507 0.0
C144 C 0.70601 0.31415 0.77592 0.0
C145 C 0.75534 0.39907 0.78998 0.0
N146 N 0.75623 0.34359 0.76009 0.0
C147 C 0.56064 0.41647 0.88519 0.0
C148 C 0.58501 0.32355 0.96557 0.0
C149 C 0.52918 0.32388 0.93258 0.0
C150 C 0.51646 0.37212 0.89376 0.0
C151 C 0.62833 0.36883 0.95556 0.0
N152 N 0.61666 0.41326 0.91372 0.0
H153 H 0.55011 0.45242 0.85389 0.0
H154 H 0.67178 0.36568 0.97909 0.0
H155 H 0.63229 0.33796 0.83241 0.0
H156 H 0.79028 0.43374 0.78676 0.0
O157 O 0.63457 0.50641 0.8177 0.0
O158 O 0.72895 0.53018 0.84747 0.0
O159 O 0.73856 0.44771 0.95703 0.0
C160 C 0.68169 0.54157 0.81219 0.0
H161 H 0.61643 0.66887 0.99262 0.0
H162 H 0.69172 0.26935 0.7589 0.0
H163 H 0.59619 0.28709 0.99642 0.0
H164 H 0.47309 0.3749 0.86905 0.0
Co165 Co 0.92857 0.3622 0.09509 0.0
C166 C 0.87217 0.2796 0.19015 0.0
C167 C 0.82536 0.27528 0.0998 0.0
C168 C 0.7942 0.23894 0.13981 0.0
N169 N 0.87373 0.30196 0.1312 0.0
N170 N 0.82358 0.24176 0.19627 0.0
H171 H 0.90474 0.29174 0.22792 0.0
H172 H 0.81298 0.28139 0.05075 0.0
C173 C 0.82102 0.41241 1.01995 0.0
O174 O 0.81179 0.45283 0.0644 0.0
N175 N 0.98142 0.4211 0.05416 0.0
C176 C 0.96175 0.47263 1.02906 0.0
C177 C 1.00842 0.50253 1.00164 0.0
C178 C 0.04126 0.42101 0.04201 0.0
N179 N 0.05816 0.47016 1.00966 0.0
C180 C 0.95122 0.45882 0.18037 0.0
C181 C 0.84585 0.45053 0.24423 0.0
C182 C 0.89647 0.48109 0.27258 0.0
C183 C 0.94861 0.48685 0.23915 0.0
C184 C 0.85081 0.42134 0.18519 0.0
N185 N 0.90377 0.4246 0.15429 0.0
H186 H 0.99482 0.45919 0.15995 0.0
H187 H 0.81339 0.39321 0.16656 0.0
H188 H 0.91668 0.48879 1.03169 0.0
H189 H 0.07176 0.38633 0.05598 0.0
O190 O 0.99263 0.3387 0.15086 0.0
O191 O 0.97253 0.29696 0.0559 0.0
O192 O 0.86476 0.37613 1.02522 0.0
C193 C 1.00593 0.29949 0.10818 0.0
H194 H 0.754 0.21157 0.12804 0.0
H195 H 1.00632 0.54571 0.97926 0.0
H196 H 0.80433 0.44613 0.26906 0.0
H197 H 0.98823 0.51093 0.25942 0.0
Co198 Co 0.846 0.60905 0.41663 0.0
C199 C 0.74952 0.69117 0.37365 0.0
C200 C 0.77248 0.62995 0.29917 0.0
C201 C 0.73161 0.66969 0.27512 0.0
N202 N 0.78429 0.64351 0.36106 0.0
N203 N 0.7177 0.70818 0.322 0.0
H204 H 0.74976 0.71502 0.41868 0.0
H205 H 0.79399 0.59572 0.27165 0.0
C206 C 0.89632 0.50769 0.33641 0.0
O207 O 0.94206 0.49905 0.37566 0.0
N208 N 0.90698 0.57738 0.47418 0.0
C209 C 0.94755 0.61206 0.50922 0.0
C210 C 0.97772 0.57686 0.55154 0.0
C211 C 0.91121 0.5217 0.49792 0.0
N212 N 0.95482 0.52034 0.54405 0.0
C213 C 0.89602 0.72549 0.40439 0.0
C214 C 1.00908 0.69115 0.3712 0.0
C215 C 1.00106 0.74936 0.39581 0.0
C216 C 0.94359 0.76733 0.4098 0.0
C217 C 0.96011 0.65002 0.36755 0.0
N218 N 0.90514 0.6667 0.3875 0.0
H219 H 0.85301 0.73955 0.41992 0.0
H220 H 0.96807 0.6042 0.35377 0.0
H221 H 0.95419 0.66023 0.50529 0.0
H222 H 0.88356 0.48302 0.48148 0.0
O223 O 0.82247 0.65636 0.48532 0.0
O224 O 0.78369 0.56488 0.45945 0.0
O225 O 0.85918 0.5488 0.34674 0.0
C226 C 0.78473 0.61279 0.49656 0.0
H227 H 0.71644 0.67226 0.22625 0.0
H228 H 1.01464 0.59114 0.58378 0.0
H229 H 0.05316 0.67692 0.35788 0.0
H230 H 0.93583 0.81292 0.42657 0.0
Co231 Co 0.87152 0.93094 0.95011 0.0
C232 C 0.95373 0.99657 0.04297 0.0
C233 C 0.87245 0.04377 1.02431 0.0
C234 C 0.90699 0.07681 0.06865 0.0
N235 N 0.90168 0.99322 1.00872 0.0
N236 N 0.95728 0.04613 0.08023 0.0
H237 H 0.99067 0.96692 0.03806 0.0
H238 H 0.82955 0.05657 1.00385 0.0
C239 C 0.8826 0.98877 0.82298 0.0
O240 O 0.8713 0.93803 0.79097 0.0
N241 N 0.83909 0.86825 0.89294 0.0
C242 C 0.85439 0.80969 0.89255 0.0
C243 C 0.81407 0.77669 0.85387 0.0
C244 C 0.78844 0.86987 0.85629 0.0
N245 N 0.77323 0.8149 0.83144 0.0
C246 C 0.9706 0.86422 0.99023 0.0
C247 C 1.01487 0.84651 0.87192 0.0
C248 C 0.02902 0.80559 0.91915 0.0
C249 C 1.01181 0.81995 0.98072 0.0
C250 C 0.97733 0.89382 0.88501 0.0
N251 N 0.95074 0.89827 0.94173 0.0
H252 H 0.95203 0.86873 1.03631 0.0
H253 H 0.96681 0.92293 0.84739 0.0
H254 H 0.89062 0.79131 0.92055 0.0
H255 H 0.76272 0.90995 0.84924 0.0
O256 O 0.84659 0.88266 1.01826 0.0
O257 O 0.79133 0.95198 0.97139 0.0
O258 O 0.88416 0.99134 0.88288 0.0
C259 C 0.79758 0.9127 1.01544 0.0
H260 H 0.89726 0.12063 0.08881 0.0
H261 H 0.81433 0.72866 0.84358 0.0
H262 H 0.02954 0.84158 0.82429 0.0
H263 H 0.02643 0.79576 1.02164 0.0
Co264 Co 0.88748 0.17633 0.62689 0.0
C265 C 0.81396 0.26056 0.71393 0.0
C266 C 0.84272 0.29972 0.62917 0.0
C267 C 0.81551 0.3439 0.66451 0.0
N268 N 0.84193 0.24658 0.65929 0.0
N269 N 0.79806 0.3193 0.71808 0.0
H270 H 0.80635 0.23024 0.75168 0.0
H271 H 0.86291 0.30645 0.58425 0.0
C272 C 0.97728 0.25842 0.69452 0.0
O273 O 0.94282 0.25378 0.74304 0.0
N274 N 0.93646 0.11126 0.59017 0.0
C275 C 0.91936 0.05297 0.5777 0.0
C276 C 0.96484 1.02358 0.54715 0.0
C277 C 0.99286 0.11608 0.56688 0.0
N278 N 1.01104 0.06326 0.54039 0.0
C279 C 0.84155 0.12235 0.73285 0.0
C280 C 0.94536 0.06549 0.76893 0.0
C281 C 0.88947 0.04464 0.78947 0.0
C282 C 0.83787 0.07524 0.77382 0.0
C283 C 0.94731 0.11436 0.72842 0.0
N284 N 0.89516 0.14047 0.70879 0.0
H285 H 0.79944 0.13891 0.71458 0.0
H286 H 0.98947 0.1269 0.70783 0.0
H287 H 0.8765 1.03285 0.5896 0.0
H288 H 1.01982 0.15752 0.56847 0.0
O289 O 0.81459 0.13088 0.60464 0.0
O290 O 0.85645 0.19287 0.53951 0.0
O291 O 0.96325 0.22942 0.64234 0.0
C292 C 0.81263 0.15395 0.55024 0.0
H293 H 0.80716 0.38963 0.65083 0.0
H294 H 0.96428 0.97656 0.53213 0.0
H295 H 0.98618 0.04213 0.78088 0.0
H296 H 0.79413 0.0597 0.78892 0.0
Co297 Co 0.69084 0.13423 0.38008 0.0
C298 C 0.7519 0.19277 0.26813 0.0
C299 C 0.81366 0.15462 0.33455 0.0
C300 C 0.84675 0.1847 0.29105 0.0
N301 N 0.7538 0.16094 0.32219 0.0
N302 N 0.80795 0.20876 0.24971 0.0
H303 H 0.71124 0.20419 0.2424 0.0
H304 H 0.83304 0.12974 0.37295 0.0
C305 C 0.75908 0.13735 0.50884 0.0
O306 O 0.71064 0.11817 0.53636 0.0
N307 N 0.62894 0.10447 0.43857 0.0
C308 C 0.57687 0.13061 0.45353 0.0
C309 C 0.5439 0.09287 0.49152 0.0
C310 C 0.62526 0.04963 0.46627 0.0
N311 N 0.57447 0.04201 0.49978 0.0
C312 C 0.64303 0.24709 0.34705 0.0
C313 C 0.64135 0.29779 0.46697 0.0
C314 C 0.60989 0.32474 0.41749 0.0
C315 C 0.61441 0.30125 0.35638 0.0
C316 C 0.67139 0.24448 0.45525 0.0
N317 N 0.66957 0.21796 0.3962 0.0
H318 H 0.63777 0.22581 0.30109 0.0
H319 H 0.68958 0.22219 0.49534 0.0
H320 H 0.56268 0.17378 0.43701 0.0
H321 H 0.65948 1.01624 0.4622 0.0
O322 O 0.63312 0.11729 0.3112 0.0
O323 O 0.69631 0.05041 0.34696 0.0
O324 O 0.75825 0.14269 0.44919 0.0
C325 C 0.65162 0.06283 0.30785 0.0
H326 H 0.89535 0.18759 0.28909 0.0
H327 H 0.50075 0.10212 0.51101 0.0
H328 H 0.63693 0.31381 0.5152 0.0
H329 H 0.58863 0.31971 0.31742 0.0
Co330 Co 0.60132 0.88958 0.20635 0.0
C331 C 0.65792 0.78147 0.26258 0.0
C332 C 0.66011 0.85672 0.3282 0.0
C333 C 0.68821 0.80954 0.35673 0.0
N334 N 0.64217 0.83981 0.26849 0.0
N335 N 0.687 0.76264 0.31516 0.0
H336 H 0.64811 0.75298 0.22123 0.0
H337 H 0.65382 0.90036 0.35031 0.0
C338 C 0.62114 1.01967 0.26129 0.0
O339 O 0.58685 0.0418 0.21657 0.0
N340 N 0.55882 0.93699 0.14266 0.0
C341 C 0.56912 0.93391 0.0802 0.0
C342 C 0.52623 0.96506 0.04736 0.0
C343 C 0.507 0.96767 0.14623 0.0
N344 N 0.48741 0.98642 0.08883 0.0
C345 C 0.69444 0.8467 0.13085 0.0
C346 C 0.73585 0.95905 0.09595 0.0
C347 C 0.75509 0.90737 0.06499 0.0
C348 C 0.73623 0.85064 0.08416 0.0
C349 C 0.69578 0.95307 0.14411 0.0
N350 N 0.6739 0.89744 0.15965 0.0
H351 H 0.67539 0.80294 0.13992 0.0
H352 H 0.67838 0.99358 0.16387 0.0
H353 H 0.60417 0.90856 0.05891 0.0
H354 H 0.48403 0.97549 0.18959 0.0
O355 O 0.56709 0.81884 0.16215 0.0
O356 O 0.52509 0.86641 0.24179 0.0
O357 O 0.6289 0.96285 0.26312 0.0
C358 C 0.52271 0.82232 0.19955 0.0
H359 H 0.70917 0.81041 0.4036 0.0
H360 H 0.5235 0.97068 0.99689 0.0
H361 H 0.75094 1.0036 0.08251 0.0
H362 H 0.75114 0.80992 0.06095 0.0
Co363 Co 0.39344 0.68779 0.12005 0.0
C364 C 0.31915 0.75725 0.2142 0.0
C365 C 0.32146 0.79952 0.12532 0.0
C366 C 0.29516 0.83849 0.16797 0.0
N367 N 0.33706 0.74809 0.15401 0.0
N368 N 0.29423 0.81177 0.22401 0.0
H369 H 0.32948 0.7277 0.25215 0.0
H370 H 0.33242 0.81031 0.07766 0.0
C371 C 0.47261 0.77792 0.19375 0.0
O372 O 0.44035 0.76834 0.24301 0.0
N373 N 0.45005 0.63033 0.08585 0.0
C374 C 0.44251 0.56978 0.08655 0.0
C375 C 0.4904 0.54336 0.05871 0.0
C376 C 0.50284 0.64008 0.05682 0.0
N377 N 0.52832 0.58735 0.04 0.0
C378 C 0.35001 0.62026 0.21829 0.0
C379 C 0.46098 0.58035 0.25958 0.0
C380 C 0.40819 0.54948 0.27569 0.0
C381 C 0.35237 0.57154 0.25735 0.0
C382 C 0.45655 0.63102 0.22206 0.0
N383 N 0.40143 0.64859 0.19973 0.0
H384 H 0.3065 0.63267 0.19915 0.0
H385 H 0.49733 0.65185 0.20539 0.0
H386 H 0.40462 0.54626 0.10631 0.0
H387 H 0.52161 0.68439 0.04772 0.0
O388 O 0.32769 0.63609 0.08661 0.0
O389 O 0.37106 0.70819 1.033 0.0
O390 O 0.46223 0.74775 0.14177 0.0
C391 C 0.33254 0.66244 1.03367 0.0
H392 H 0.28145 0.88401 0.15932 0.0
H393 H 0.49629 0.49541 0.0524 0.0
H394 H 0.50485 0.5647 0.2745 0.0
H395 H 0.31074 0.549 0.26992 0.0
Co396 Co 0.21742 0.62144 0.90466 0.0
C397 C 0.12754 0.52794 0.94566 0.0
C398 C 0.21038 0.52309 0.99951 0.0
C399 C 0.16839 0.4838 1.02445 0.0
N400 N 0.18441 0.55214 0.95065 0.0
N401 N 0.11631 0.48774 0.99064 0.0
H402 H 0.09267 0.54345 0.91405 0.0
H403 H 0.25559 0.53206 1.0187 0.0
C404 C 0.16023 0.5463 0.79418 0.0
O405 O 0.10754 0.56747 0.80684 0.0
N406 N 0.25158 0.69037 0.86028 0.0
C407 C 0.25368 0.74788 0.88366 0.0
C408 C 0.28273 0.78483 0.8429 0.0
C409 C 0.27912 0.6934 0.80453 0.0
N410 N 0.29849 0.75067 0.79346 0.0
C411 C 0.10758 0.66122 0.94657 0.0
C412 C 0.08804 0.73717 0.84783 0.0
C413 C 0.06054 0.74863 0.90547 0.0
C414 C 0.06552 0.70507 0.95192 0.0
C415 C 0.12579 0.68854 0.84214 0.0
N416 N 0.13883 0.65442 0.8931 0.0
H417 H 0.11937 0.63712 0.98853 0.0
H418 H 0.15005 0.68287 0.7993 0.0
H419 H 0.23439 0.76258 0.92724 0.0
H420 H 0.28468 0.65505 0.77294 0.0
O421 O 0.23588 0.66557 0.98286 0.0
O422 O 0.29965 0.6059 0.9363 0.0
O423 O 0.20881 0.56727 0.82384 0.0
C424 C 0.28957 0.64546 0.98142 0.0
H425 H 0.17426 0.45846 0.06699 0.0
H426 H 0.28981 0.83322 0.84799 0.0
H427 H 0.08437 0.76659 0.80838 0.0
H428 H 0.04148 0.70652 0.99506 0.0
Co429 Co 0.09603 0.38064 0.69143 0.0
C430 C 0.17618 0.2937 0.75703 0.0
C431 C 0.15557 0.36815 0.81773 0.0
C432 C 0.1904 0.32932 0.85206 0.0
N433 N 0.1484 0.34719 0.75727 0.0
N434 N 0.20311 0.28279 0.81354 0.0
H435 H 0.17374 0.26142 0.71812 0.0
H436 H 0.13438 0.4074 0.83701 0.0
C437 C 0.16062 0.49154 0.7523 0.0
O438 O 0.21205 0.46599 0.74212 0.0
N439 N 0.04199 0.41185 0.62641 0.0
C440 C 0.02443 0.38151 0.5723 0.0
C441 C 0.98622 0.41613 0.53739 0.0
C442 C 1.01476 0.4654 0.62315 0.0
N443 N 0.98044 0.46857 0.5693 0.0
C444 C 0.16756 0.4499 0.60867 0.0
C445 C 0.23162 0.35368 0.56496 0.0
C446 C 0.23883 0.40981 0.53764 0.0
C447 C 0.20615 0.45834 0.55933 0.0
C448 C 0.19141 0.34684 0.61289 0.0
N449 N 0.16139 0.39489 0.63575 0.0
H450 H 0.14096 0.48725 0.62351 0.0
H451 H 0.18229 0.30222 0.62891 0.0
H452 H 0.03974 0.33768 0.5578 0.0
H453 H 1.02115 0.50167 0.65809 0.0
O454 O 0.07181 0.29993 0.66091 0.0
O455 O 0.02635 0.35147 0.73522 0.0
O456 O 0.11022 0.46465 0.73391 0.0
C457 C 0.02748 0.30328 0.69858 0.0
H458 H 0.20229 0.3332 0.90196 0.0
H459 H 0.96726 0.40528 0.49057 0.0
H460 H 0.25573 0.31499 0.54828 0.0
H461 H 0.21103 0.50244 0.5391 0.0
Co462 Co 0.60468 0.68005 0.695 0.0
C463 C 0.52011 0.61082 0.61045 0.0
C464 C 0.5264 0.57231 0.70218 0.0
C465 C 0.48275 0.54018 0.66691 0.0
N466 N 0.55006 0.61598 0.66637 0.0
N467 N 0.4792 0.56536 0.61027 0.0
H468 H 0.52641 0.64059 0.57157 0.0
H469 H 0.53732 0.56599 0.75153 0.0
C470 C 0.67994 0.5946 0.77177 0.0
O471 O 0.72881 0.61082 0.74296 0.0
N472 N 0.65766 0.74622 0.72893 0.0
C473 C 0.65561 0.80519 0.71373 0.0
C474 C 0.69731 0.8385 0.75018 0.0
C475 C 0.70009 0.7452 0.77606 0.0
N476 N 0.7249 0.8004 0.78879 0.0
C477 C 0.69481 0.69563 0.61021 0.0
C478 C 0.71056 0.57648 0.57503 0.0
C479 C 0.74243 0.62275 0.54602 0.0
C480 C 0.7339 0.68258 0.56409 0.0
C481 C 0.67135 0.59193 0.62265 0.0
N482 N 0.66541 0.65119 0.64063 0.0
H483 H 0.68588 0.74233 0.61853 0.0
H484 H 0.64587 0.5566 0.6447 0.0
H485 H 0.62691 0.82346 0.67764 0.0
H486 H 0.71172 0.70619 0.80229 0.0
O487 O 0.5706 0.73173 0.63238 0.0
O488 O 0.53657 0.72328 0.72831 0.0
O489 O 0.63133 0.62451 0.76558 0.0
C490 C 0.5321 0.74768 0.6727 0.0
H491 H 0.45356 0.50404 0.68239 0.0
H492 H 0.70744 0.88636 0.74765 0.0
H493 H 0.71583 0.52964 0.56124 0.0
H494 H 0.75573 0.72003 0.54131 0.0
Co495 Co 0.36096 0.43704 0.42856 0.0
C496 C 0.42232 0.49664 0.53819 0.0
C497 C 0.37684 0.55953 0.47871 0.0
C498 C 0.4081 0.59179 0.52595 0.0
N499 N 0.38703 0.50042 0.48603 0.0
N500 N 0.43582 0.55178 0.56258 0.0
H501 H 0.44075 0.45529 0.55537 0.0
H502 H 0.35034 0.57793 0.44041 0.0
C503 C 0.40949 0.4961 0.31401 0.0
O504 O 0.44225 0.45005 0.29873 0.0
N505 N 0.33158 0.37473 0.36829 0.0
C506 C 0.31391 0.31754 0.38084 0.0
C507 C 0.28455 0.29179 0.32834 0.0
C508 C 0.31111 0.38328 0.30845 0.0
N509 N 0.28338 0.33326 0.28337 0.0
C510 C 0.44907 0.34915 0.44477 0.0
C511 C 0.54964 0.4189 0.41834 0.0
C512 C 0.55548 0.3577 0.43062 0.0
C513 C 0.50496 0.32343 0.44629 0.0
C514 C 0.49237 0.44368 0.41987 0.0
N515 N 0.44238 0.40745 0.42794 0.0
H516 H 0.41115 0.32172 0.45759 0.0
H517 H 0.48805 0.49141 0.4127 0.0
H518 H 0.31735 0.29697 0.4263 0.0
H519 H 0.31127 0.42605 0.28543 0.0
O520 O 0.33474 0.39051 0.49721 0.0
O521 O 0.279 0.45645 0.44563 0.0
O522 O 0.37417 0.4944 0.35962 0.0
C523 C 0.28449 0.41832 0.49106 0.0
H524 H 0.41176 0.64036 0.53213 0.0
H525 H 0.26261 0.24755 0.32463 0.0
H526 H 0.58835 0.44665 0.40673 0.0
H527 H 0.50822 0.27604 0.4567 0.0
loop_
_geom_bond_atom_site_label_1
_geom_bond_atom_site_label_2
_geom_bond_distance
_geom_bond_site_symmetry_2
_ccdc_geom_bond_type
Co0 N4 2.148 . S
Co0 N10 2.128 . S
Co0 N20 2.194 . S
Co0 O25 2.351 . S
Co0 O26 2.155 . S
Co0 O27 2.096 . S
C1 N4 1.301 . S
C1 N5 1.328 . S
C1 H6 0.930 . S
C2 C3 1.333 . S
C2 N4 1.317 . S
C2 H7 0.930 . S
C3 C2 1.333 . S
C3 N5 1.350 . S
C3 H29 0.931 . S
N4 Co0 2.148 . S
N4 C1 1.301 . S
N4 C2 1.317 . S
N5 C1 1.328 . S
N5 C3 1.350 . S
H6 C1 0.930 . S
H7 C2 0.930 . S
C8 O9 1.224 . S
C8 O27 1.247 . S
O9 C8 1.224 . S
N10 Co0 2.128 . S
N10 C11 1.355 . S
N10 C13 1.311 . S
C11 N10 1.355 . S
C11 C12 1.363 1_455 S
C11 H23 0.929 1_455 S
C12 C11 1.363 1_655 S
C12 N14 1.365 1_654 S
C12 H30 0.931 . S
C13 N10 1.311 . S
C13 N14 1.346 1_554 S
C13 H24 0.929 1_554 S
N14 C12 1.365 1_456 S
N14 C13 1.346 1_556 S
C15 C18 1.365 . S
C15 N20 1.328 . S
C15 H21 0.929 . S
C16 C17 1.362 . S
C16 C19 1.378 . S
C16 H31 0.929 1_545 S
C17 C16 1.362 . S
C17 C18 1.366 . S
C18 C15 1.365 . S
C18 C17 1.366 . S
C18 H32 0.930 . S
C19 C16 1.378 . S
C19 N20 1.315 . S
C19 H22 0.930 . S
N20 Co0 2.194 . S
N20 C15 1.328 . S
N20 C19 1.315 . S
H21 C15 0.929 . S
H22 C19 0.930 . S
H23 C11 0.929 1_655 S
H24 C13 0.929 1_556 S
O25 Co0 2.351 . S
O25 C28 1.244 . S
O26 Co0 2.155 . S
O26 C28 1.240 . S
O27 Co0 2.096 . S
O27 C8 1.247 . S
C28 O25 1.244 . S
C28 O26 1.240 . S
H29 C3 0.931 . S
H30 C12 0.931 . S
H31 C16 0.929 1_565 S
H32 C18 0.930 . S
Co33 N37 2.148 . S
Co33 N43 2.128 . S
Co33 N53 2.194 . S
Co33 O58 2.351 . S
Co33 O59 2.155 . S
Co33 O60 2.096 . S
C34 N37 1.301 . S
C34 N38 1.328 1_565 S
C34 H39 0.930 . S
C35 C36 1.333 1_565 S
C35 N37 1.317 . S
C35 H40 0.930 . S
C36 C35 1.333 1_545 S
C36 N38 1.350 . S
C36 H62 0.931 . S
N37 Co33 2.148 . S
N37 C34 1.301 . S
N37 C35 1.317 . S
N38 C34 1.328 1_545 S
N38 C36 1.350 . S
H39 C34 0.930 . S
H40 C35 0.930 . S
C41 O42 1.224 . S
C41 O60 1.247 . S
O42 C41 1.224 . S
N43 Co33 2.128 . S
N43 C44 1.355 . S
N43 C46 1.311 . S
C44 N43 1.355 . S
C44 C45 1.363 . S
C44 H56 0.929 . S
C45 C44 1.363 . S
C45 N47 1.375 . S
C45 H63 0.931 . S
C46 N43 1.311 . S
C46 N47 1.347 . S
C46 H57 0.929 . S
N47 C45 1.375 . S
N47 C46 1.347 . S
C48 C51 1.365 . S
C48 N53 1.328 . S
C48 H54 0.929 . S
C49 C50 1.362 . S
C49 C52 1.378 . S
C49 H64 0.929 . S
C50 C49 1.362 . S
C50 C51 1.366 . S
C51 C48 1.365 . S
C51 C50 1.366 . S
C51 H65 0.930 1_455 S
C52 C49 1.378 . S
C52 N53 1.315 . S
C52 H55 0.930 . S
N53 Co33 2.194 . S
N53 C48 1.328 . S
N53 C52 1.315 . S
H54 C48 0.929 . S
H55 C52 0.930 . S
H56 C44 0.929 . S
H57 C46 0.929 . S
O58 Co33 2.351 . S
O58 C61 1.244 . S
O59 Co33 2.155 . S
O59 C61 1.240 . S
O60 Co33 2.096 . S
O60 C41 1.247 . S
C61 O58 1.244 . S
C61 O59 1.240 . S
H62 C36 0.931 . S
H63 C45 0.931 . S
H64 C49 0.929 . S
H65 C51 0.930 1_655 S
Co66 N70 2.148 . S
Co66 N76 2.128 . S
Co66 N86 2.194 . S
Co66 O91 2.351 . S
Co66 O92 2.155 . S
Co66 O93 2.096 . S
C67 N70 1.301 . S
C67 N71 1.328 . S
C67 H72 0.930 . S
C68 C69 1.333 . S
C68 N70 1.317 . S
C68 H73 0.930 . S
C69 C68 1.333 . S
C69 N71 1.350 . S
C69 H95 0.931 . S
N70 Co66 2.148 . S
N70 C67 1.301 . S
N70 C68 1.317 . S
N71 C67 1.328 . S
N71 C69 1.350 . S
H72 C67 0.930 . S
H73 C68 0.930 . S
C74 O75 1.224 . S
C74 O93 1.247 . S
O75 C74 1.224 . S
N76 Co66 2.128 . S
N76 C77 1.355 . S
N76 C79 1.311 . S
C77 N76 1.355 . S
C77 C78 1.363 . S
C77 H89 0.929 . S
C78 C77 1.363 . S
C78 N80 1.375 . S
C78 H96 0.931 . S
C79 N76 1.311 . S
C79 N80 1.347 . S
C79 H90 0.929 . S
N80 C78 1.375 . S
N80 C79 1.347 . S
C81 C84 1.365 . S
C81 N86 1.328 . S
C81 H87 0.929 . S
C82 C83 1.362 . S
C82 C85 1.378 . S
C82 H97 0.929 1_565 S
C83 C82 1.362 . S
C83 C84 1.366 . S
C84 C81 1.365 . S
C84 C83 1.366 . S
C84 H98 0.930 . S
C85 C82 1.378 . S
C85 N86 1.315 . S
C85 H88 0.930 . S
N86 Co66 2.194 . S
N86 C81 1.328 . S
N86 C85 1.315 . S
H87 C81 0.929 . S
H88 C85 0.930 . S
H89 C77 0.929 . S
H90 C79 0.929 . S
O91 Co66 2.351 . S
O91 C94 1.244 . S
O92 Co66 2.155 . S
O92 C94 1.240 . S
O93 Co66 2.096 . S
O93 C74 1.247 . S
C94 O91 1.244 . S
C94 O92 1.240 . S
H95 C69 0.931 . S
H96 C78 0.931 . S
H97 C82 0.929 1_545 S
H98 C84 0.930 . S
Co99 N103 2.148 . S
Co99 N109 2.128 . S
Co99 N119 2.194 . S
Co99 O124 2.351 . S
Co99 O125 2.155 . S
Co99 O126 2.096 . S
C100 N103 1.301 . S
C100 N104 1.328 . S
C100 H105 0.930 . S
C101 C102 1.333 . S
C101 N103 1.317 . S
C101 H106 0.930 . S
C102 C101 1.333 . S
C102 N104 1.350 . S
C102 H128 0.931 . S
N103 Co99 2.148 . S
N103 C100 1.301 . S
N103 C101 1.317 . S
N104 C100 1.328 . S
N104 C102 1.350 . S
H105 C100 0.930 . S
H106 C101 0.930 . S
C107 O108 1.224 . S
C107 O126 1.247 . S
O108 C107 1.224 . S
N109 Co99 2.128 . S
N109 C110 1.355 . S
N109 C112 1.311 . S
C110 N109 1.355 . S
C110 C111 1.363 1_556 S
C110 H122 0.929 1_556 S
C111 C110 1.363 1_554 S
C111 N113 1.375 1_554 S
C111 H129 0.931 . S
C112 N109 1.311 . S
C112 N113 1.347 . S
C112 H123 0.929 1_545 S
N113 C111 1.375 1_556 S
N113 C112 1.347 . S
C114 C117 1.365 . S
C114 N119 1.328 . S
C114 H120 0.929 . S
C115 C116 1.362 . S
C115 C118 1.378 . S
C115 H130 0.929 . S
C116 C115 1.362 . S
C116 C117 1.366 . S
C117 C114 1.365 . S
C117 C116 1.366 . S
C117 H131 0.930 . S
C118 C115 1.378 . S
C118 N119 1.315 . S
C118 H121 0.930 . S
N119 Co99 2.194 . S
N119 C114 1.328 . S
N119 C118 1.315 . S
H120 C114 0.929 . S
H121 C118 0.930 . S
H122 C110 0.929 1_554 S
H123 C112 0.929 1_565 S
O124 Co99 2.351 . S
O124 C127 1.244 . S
O125 Co99 2.155 . S
O125 C127 1.240 . S
O126 Co99 2.096 . S
O126 C107 1.247 . S
C127 O124 1.244 . S
C127 O125 1.240 . S
H128 C102 0.931 . S
H129 C111 0.931 . S
H130 C115 0.929 . S
H131 C117 0.930 . S
Co132 N136 2.148 . S
Co132 N142 2.128 . S
Co132 N152 2.194 . S
Co132 O157 2.351 . S
Co132 O158 2.155 . S
Co132 O159 2.096 . S
C133 N136 1.301 . S
C133 N137 1.328 . S
C133 H138 0.930 . S
C134 C135 1.333 1_556 S
C134 N136 1.317 . S
C134 H139 0.930 1_556 S
C135 C134 1.333 1_554 S
C135 N137 1.350 1_554 S
C135 H161 0.931 . S
N136 Co132 2.148 . S
N136 C133 1.301 . S
N136 C134 1.317 . S
N137 C133 1.328 . S
N137 C135 1.350 1_556 S
H138 C133 0.930 . S
H139 C134 0.930 1_554 S
C140 O141 1.224 . S
C140 O159 1.247 . S
O141 C140 1.224 . S
N142 Co132 2.128 . S
N142 C143 1.355 . S
N142 C145 1.311 . S
C143 N142 1.355 . S
C143 C144 1.363 . S
C143 H155 0.929 . S
C144 C143 1.363 . S
C144 N146 1.375 . S
C144 H162 0.931 . S
C145 N142 1.311 . S
C145 N146 1.347 . S
C145 H156 0.929 . S
N146 C144 1.375 . S
N146 C145 1.347 . S
C147 C150 1.365 . S
C147 N152 1.328 . S
C147 H153 0.929 . S
C148 C149 1.362 . S
C148 C151 1.378 . S
C148 H163 0.929 . S
C149 C148 1.362 . S
C149 C150 1.366 . S
C150 C147 1.365 . S
C150 C149 1.366 . S
C150 H164 0.930 . S
C151 C148 1.378 . S
C151 N152 1.315 . S
C151 H154 0.930 . S
N152 Co132 2.194 . S
N152 C147 1.328 . S
N152 C151 1.315 . S
H153 C147 0.929 . S
H154 C151 0.930 . S
H155 C143 0.929 . S
H156 C145 0.929 . S
O157 Co132 2.351 . S
O157 C160 1.244 . S
O158 Co132 2.155 . S
O158 C160 1.240 . S
O159 Co132 2.096 . S
O159 C140 1.247 . S
C160 O157 1.244 . S
C160 O158 1.240 . S
H161 C135 0.931 . S
H162 C144 0.931 . S
H163 C148 0.929 . S
H164 C150 0.930 . S
Co165 N169 2.148 . S
Co165 N175 2.128 . S
Co165 N185 2.194 . S
Co165 O190 2.351 . S
Co165 O191 2.155 . S
Co165 O192 2.096 . S
C166 N169 1.301 . S
C166 N170 1.328 . S
C166 H171 0.930 . S
C167 C168 1.333 . S
C167 N169 1.317 . S
C167 H172 0.930 . S
C168 C167 1.333 . S
C168 N170 1.350 . S
C168 H194 0.931 . S
N169 Co165 2.148 . S
N169 C166 1.301 . S
N169 C167 1.317 . S
N170 C166 1.328 . S
N170 C168 1.350 . S
H171 C166 0.930 . S
H172 C167 0.930 . S
C173 O174 1.224 . S
C173 O192 1.247 . S
O174 C173 1.224 . S
N175 Co165 2.128 . S
N175 C176 1.357 . S
N175 C178 1.311 . S
C176 N175 1.357 . S
C176 C177 1.361 1_655 S
C176 H188 0.928 1_655 S
C177 C176 1.361 1_455 S
C177 N179 1.375 1_455 S
C177 H195 0.931 . S
C178 N175 1.311 . S
C178 N179 1.347 . S
C178 H189 0.929 1_554 S
N179 C177 1.375 1_655 S
N179 C178 1.347 . S
C180 C183 1.365 . S
C180 N185 1.328 . S
C180 H186 0.929 . S
C181 C182 1.362 . S
C181 C184 1.378 . S
C181 H196 0.929 . S
C182 C181 1.362 . S
C182 C183 1.366 . S
C183 C180 1.365 . S
C183 C182 1.366 . S
C183 H197 0.930 . S
C184 C181 1.378 . S
C184 N185 1.315 . S
C184 H187 0.930 . S
N185 Co165 2.194 . S
N185 C180 1.328 . S
N185 C184 1.315 . S
H186 C180 0.929 . S
H187 C184 0.930 . S
H188 C176 0.928 1_455 S
H189 C178 0.929 1_556 S
O190 Co165 2.351 . S
O190 C193 1.244 . S
O191 Co165 2.155 . S
O191 C193 1.240 . S
O192 Co165 2.096 . S
O192 C173 1.247 . S
C193 O190 1.244 . S
C193 O191 1.240 . S
H194 C168 0.931 . S
H195 C177 0.931 . S
H196 C181 0.929 . S
H197 C183 0.930 . S
Co198 N202 2.148 . S
Co198 N208 2.128 . S
Co198 N218 2.194 . S
Co198 O223 2.351 . S
Co198 O224 2.155 . S
Co198 O225 2.096 . S
C199 N202 1.301 . S
C199 N203 1.328 . S
C199 H204 0.930 . S
C200 C201 1.333 . S
C200 N202 1.317 . S
C200 H205 0.930 . S
C201 C200 1.333 . S
C201 N203 1.350 . S
C201 H227 0.931 . S
N202 Co198 2.148 . S
N202 C199 1.301 . S
N202 C200 1.317 . S
N203 C199 1.328 . S
N203 C201 1.350 . S
H204 C199 0.930 . S
H205 C200 0.930 . S
C206 O207 1.224 . S
C206 O225 1.247 . S
O207 C206 1.224 . S
N208 Co198 2.128 . S
N208 C209 1.355 . S
N208 C211 1.311 . S
C209 N208 1.355 . S
C209 C210 1.363 . S
C209 H221 0.929 . S
C210 C209 1.363 . S
C210 N212 1.375 . S
C210 H228 0.931 . S
C211 N208 1.311 . S
C211 N212 1.347 . S
C211 H222 0.929 . S
N212 C210 1.375 . S
N212 C211 1.347 . S
C213 C216 1.365 . S
C213 N218 1.328 . S
C213 H219 0.929 . S
C214 C215 1.362 . S
C214 C217 1.378 . S
C214 H229 0.929 1_655 S
C215 C214 1.362 . S
C215 C216 1.366 . S
C216 C213 1.365 . S
C216 C215 1.366 . S
C216 H230 0.930 . S
C217 C214 1.378 . S
C217 N218 1.315 . S
C217 H220 0.930 . S
N218 Co198 2.194 . S
N218 C213 1.328 . S
N218 C217 1.315 . S
H219 C213 0.929 . S
H220 C217 0.930 . S
H221 C209 0.929 . S
H222 C211 0.929 . S
O223 Co198 2.351 . S
O223 C226 1.244 . S
O224 Co198 2.155 . S
O224 C226 1.240 . S
O225 Co198 2.096 . S
O225 C206 1.247 . S
C226 O223 1.244 . S
C226 O224 1.240 . S
H227 C201 0.931 . S
H228 C210 0.931 . S
H229 C214 0.929 1_455 S
H230 C216 0.930 . S
Co231 N235 2.148 . S
Co231 N241 2.128 . S
Co231 N251 2.194 . S
Co231 O256 2.351 . S
Co231 O257 2.155 . S
Co231 O258 2.096 . S
C232 N235 1.301 . S
C232 N236 1.328 1_565 S
C232 H237 0.930 1_556 S
C233 C234 1.333 . S
C233 N235 1.317 1_545 S
C233 H238 0.930 . S
C234 C233 1.333 . S
C234 N236 1.350 . S
C234 H260 0.931 . S
N235 Co231 2.148 . S
N235 C232 1.301 . S
N235 C233 1.317 1_565 S
N236 C232 1.328 1_545 S
N236 C234 1.350 . S
H237 C232 0.930 1_554 S
H238 C233 0.930 . S
C239 O240 1.224 . S
C239 O258 1.247 . S
O240 C239 1.224 . S
N241 Co231 2.128 . S
N241 C242 1.355 . S
N241 C244 1.311 . S
C242 N241 1.355 . S
C242 C243 1.363 . S
C242 H254 0.929 . S
C243 C242 1.363 . S
C243 N245 1.375 . S
C243 H261 0.931 . S
C244 N241 1.311 . S
C244 N245 1.347 . S
C244 H255 0.929 . S
N245 C243 1.375 . S
N245 C244 1.347 . S
C246 C249 1.365 . S
C246 N251 1.328 . S
C246 H252 0.929 . S
C247 C248 1.366 . S
C247 C250 1.378 . S
C247 H262 0.929 1_655 S
C248 C247 1.366 . S
C248 C249 1.377 . S
C249 C246 1.365 . S
C249 C248 1.377 . S
C249 H263 0.930 . S
C250 C247 1.378 . S
C250 N251 1.315 . S
C250 H253 0.930 . S
N251 Co231 2.194 . S
N251 C246 1.328 . S
N251 C250 1.315 . S
H252 C246 0.929 . S
H253 C250 0.930 . S
H254 C242 0.929 . S
H255 C244 0.929 . S
O256 Co231 2.351 . S
O256 C259 1.244 . S
O257 Co231 2.155 . S
O257 C259 1.240 . S
O258 Co231 2.096 . S
O258 C239 1.247 . S
C259 O256 1.244 . S
C259 O257 1.240 . S
H260 C234 0.931 . S
H261 C243 0.931 . S
H262 C247 0.929 1_455 S
H263 C249 0.930 . S
Co264 N268 2.148 . S
Co264 N274 2.128 . S
Co264 N284 2.194 . S
Co264 O289 2.351 . S
Co264 O290 2.155 . S
Co264 O291 2.096 . S
C265 N268 1.301 . S
C265 N269 1.328 . S
C265 H270 0.930 . S
C266 C267 1.333 . S
C266 N268 1.317 . S
C266 H271 0.930 . S
C267 C266 1.333 . S
C267 N269 1.350 . S
C267 H293 0.931 . S
N268 Co264 2.148 . S
N268 C265 1.301 . S
N268 C266 1.317 . S
N269 C265 1.328 . S
N269 C267 1.350 . S
H270 C265 0.930 . S
H271 C266 0.930 . S
C272 O273 1.224 . S
C272 O291 1.247 . S
O273 C272 1.224 . S
N274 Co264 2.128 . S
N274 C275 1.355 . S
N274 C277 1.311 . S
C275 N274 1.355 . S
C275 C276 1.363 1_545 S
C275 H287 0.929 . S
C276 C275 1.363 1_565 S
C276 N278 1.375 1_565 S
C276 H294 0.931 . S
C277 N274 1.311 . S
C277 N278 1.347 . S
C277 H288 0.929 . S
N278 C276 1.375 1_545 S
N278 C277 1.347 . S
C279 C282 1.365 . S
C279 N284 1.328 . S
C279 H285 0.929 . S
C280 C281 1.362 . S
C280 C283 1.378 . S
C280 H295 0.929 . S
C281 C280 1.362 . S
C281 C282 1.366 . S
C282 C279 1.365 . S
C282 C281 1.366 . S
C282 H296 0.930 1_545 S
C283 C280 1.378 . S
C283 N284 1.315 . S
C283 H286 0.930 . S
N284 Co264 2.194 . S
N284 C279 1.328 . S
N284 C283 1.315 . S
H285 C279 0.929 . S
H286 C283 0.930 . S
H287 C275 0.929 . S
H288 C277 0.929 . S
O289 Co264 2.351 . S
O289 C292 1.244 . S
O290 Co264 2.155 . S
O290 C292 1.240 . S
O291 Co264 2.096 . S
O291 C272 1.247 . S
C292 O289 1.244 . S
C292 O290 1.240 . S
H293 C267 0.931 . S
H294 C276 0.931 . S
H295 C280 0.929 . S
H296 C282 0.930 1_565 S
Co297 N301 2.148 . S
Co297 N307 2.128 . S
Co297 N317 2.194 . S
Co297 O322 2.351 . S
Co297 O323 2.155 . S
Co297 O324 2.096 . S
C298 N301 1.301 . S
C298 N302 1.328 . S
C298 H303 0.930 . S
C299 C300 1.333 . S
C299 N301 1.317 . S
C299 H304 0.930 . S
C300 C299 1.333 . S
C300 N302 1.350 . S
C300 H326 0.931 . S
N301 Co297 2.148 . S
N301 C298 1.301 . S
N301 C299 1.317 . S
N302 C298 1.328 . S
N302 C300 1.350 . S
H303 C298 0.930 . S
H304 C299 0.930 . S
C305 O306 1.224 . S
C305 O324 1.247 . S
O306 C305 1.224 . S
N307 Co297 2.128 . S
N307 C308 1.355 . S
N307 C310 1.311 . S
C308 N307 1.355 . S
C308 C309 1.363 . S
C308 H320 0.929 . S
C309 C308 1.363 . S
C309 N311 1.375 1_545 S
C309 H327 0.932 . S
C310 N307 1.311 . S
C310 N311 1.347 1_545 S
C310 H321 0.929 . S
N311 C309 1.375 1_565 S
N311 C310 1.347 1_565 S
C312 C315 1.365 . S
C312 N317 1.328 . S
C312 H318 0.929 . S
C313 C314 1.362 . S
C313 C316 1.378 . S
C313 H328 0.929 . S
C314 C313 1.362 . S
C314 C315 1.366 . S
C315 C312 1.365 . S
C315 C314 1.366 . S
C315 H329 0.930 . S
C316 C313 1.378 . S
C316 N317 1.315 . S
C316 H319 0.930 . S
N317 Co297 2.194 . S
N317 C312 1.328 . S
N317 C316 1.315 . S
H318 C312 0.929 . S
H319 C316 0.930 . S
H320 C308 0.929 . S
H321 C310 0.929 . S
O322 Co297 2.351 . S
O322 C325 1.244 . S
O323 Co297 2.155 . S
O323 C325 1.240 . S
O324 Co297 2.096 . S
O324 C305 1.247 . S
C325 O322 1.244 . S
C325 O323 1.240 . S
H326 C300 0.931 . S
H327 C309 0.932 . S
H328 C313 0.929 . S
H329 C315 0.930 . S
Co330 N334 2.148 . S
Co330 N340 2.128 . S
Co330 N350 2.194 . S
Co330 O355 2.351 . S
Co330 O356 2.155 . S
Co330 O357 2.096 . S
C331 N334 1.301 . S
C331 N335 1.328 . S
C331 H336 0.930 . S
C332 C333 1.333 . S
C332 N334 1.317 . S
C332 H337 0.930 . S
C333 C332 1.333 . S
C333 N335 1.350 . S
C333 H359 0.931 . S
N334 Co330 2.148 . S
N334 C331 1.301 . S
N334 C332 1.317 . S
N335 C331 1.328 . S
N335 C333 1.350 . S
H336 C331 0.930 . S
H337 C332 0.930 . S
C338 O339 1.224 . S
C338 O357 1.247 . S
O339 C338 1.224 . S
N340 Co330 2.128 . S
N340 C341 1.355 . S
N340 C343 1.311 . S
C341 N340 1.355 . S
C341 C342 1.363 1_554 S
C341 H353 0.929 . S
C342 C341 1.363 1_556 S
C342 N344 1.375 1_556 S
C342 H360 0.931 . S
C343 N340 1.311 . S
C343 N344 1.347 . S
C343 H354 0.929 . S
N344 C342 1.375 1_554 S
N344 C343 1.347 . S
C345 C348 1.365 . S
C345 N350 1.328 . S
C345 H351 0.929 . S
C346 C347 1.362 1_554 S
C346 C349 1.378 . S
C346 H361 0.929 . S
C347 C346 1.362 1_556 S
C347 C348 1.366 1_556 S
C348 C345 1.365 . S
C348 C347 1.366 1_554 S
C348 H362 0.930 1_554 S
C349 C346 1.378 . S
C349 N350 1.315 . S
C349 H352 0.930 . S
N350 Co330 2.194 . S
N350 C345 1.328 . S
N350 C349 1.315 . S
H351 C345 0.929 . S
H352 C349 0.930 . S
H353 C341 0.929 . S
H354 C343 0.929 . S
O355 Co330 2.351 . S
O355 C358 1.244 . S
O356 Co330 2.155 . S
O356 C358 1.240 . S
O357 Co330 2.096 . S
O357 C338 1.247 . S
C358 O355 1.244 . S
C358 O356 1.240 . S
H359 C333 0.931 . S
H360 C342 0.931 . S
H361 C346 0.929 . S
H362 C348 0.930 1_556 S
Co363 N367 2.148 . S
Co363 N373 2.128 . S
Co363 N383 2.194 . S
Co363 O388 2.351 . S
Co363 O389 2.155 . S
Co363 O390 2.096 . S
C364 N367 1.301 . S
C364 N368 1.328 . S
C364 H369 0.930 . S
C365 C366 1.333 . S
C365 N367 1.317 . S
C365 H370 0.930 . S
C366 C365 1.333 . S
C366 N368 1.350 . S
C366 H392 0.931 . S
N367 Co363 2.148 . S
N367 C364 1.301 . S
N367 C365 1.317 . S
N368 C364 1.328 . S
N368 C366 1.350 . S
H369 C364 0.930 . S
H370 C365 0.930 . S
C371 O372 1.224 . S
C371 O390 1.247 . S
O372 C371 1.224 . S
N373 Co363 2.128 . S
N373 C374 1.355 . S
N373 C376 1.311 . S
C374 N373 1.355 . S
C374 C375 1.363 . S
C374 H386 0.929 . S
C375 C374 1.363 . S
C375 N377 1.375 . S
C375 H393 0.931 . S
C376 N373 1.311 . S
C376 N377 1.347 . S
C376 H387 0.929 . S
N377 C375 1.375 . S
N377 C376 1.347 . S
C378 C381 1.365 . S
C378 N383 1.328 . S
C378 H384 0.929 . S
C379 C380 1.362 . S
C379 C382 1.378 . S
C379 H394 0.929 . S
C380 C379 1.362 . S
C380 C381 1.366 . S
C381 C378 1.365 . S
C381 C380 1.366 . S
C381 H395 0.930 . S
C382 C379 1.378 . S
C382 N383 1.315 . S
C382 H385 0.930 . S
N383 Co363 2.194 . S
N383 C378 1.328 . S
N383 C382 1.315 . S
H384 C378 0.929 . S
H385 C382 0.930 . S
H386 C374 0.929 . S
H387 C376 0.929 . S
O388 Co363 2.351 . S
O388 C391 1.244 . S
O389 Co363 2.155 . S
O389 C391 1.240 . S
O390 Co363 2.096 . S
O390 C371 1.247 . S
C391 O388 1.244 . S
C391 O389 1.240 . S
H392 C366 0.931 . S
H393 C375 0.931 . S
H394 C379 0.929 . S
H395 C381 0.930 . S
Co396 N400 2.148 . S
Co396 N406 2.128 . S
Co396 N416 2.194 . S
Co396 O421 2.351 . S
Co396 O422 2.155 . S
Co396 O423 2.096 . S
C397 N400 1.301 . S
C397 N401 1.328 . S
C397 H402 0.930 . S
C398 C399 1.333 . S
C398 N400 1.317 . S
C398 H403 0.930 . S
C399 C398 1.333 . S
C399 N401 1.350 . S
C399 H425 0.931 . S
N400 Co396 2.148 . S
N400 C397 1.301 . S
N400 C398 1.317 . S
N401 C397 1.328 . S
N401 C399 1.350 . S
H402 C397 0.930 . S
H403 C398 0.930 . S
C404 O405 1.224 . S
C404 O423 1.247 . S
O405 C404 1.224 . S
N406 Co396 2.128 . S
N406 C407 1.355 . S
N406 C409 1.311 . S
C407 N406 1.355 . S
C407 C408 1.363 . S
C407 H419 0.929 . S
C408 C407 1.363 . S
C408 N410 1.375 . S
C408 H426 0.931 . S
C409 N406 1.311 . S
C409 N410 1.347 . S
C409 H420 0.929 . S
N410 C408 1.375 . S
N410 C409 1.347 . S
C411 C414 1.365 . S
C411 N416 1.328 . S
C411 H417 0.929 . S
C412 C413 1.362 . S
C412 C415 1.378 . S
C412 H427 0.929 1_455 S
C413 C412 1.362 . S
C413 C414 1.366 . S
C414 C411 1.365 . S
C414 C413 1.366 . S
C414 H428 0.930 . S
C415 C412 1.378 . S
C415 N416 1.315 . S
C415 H418 0.930 . S
N416 Co396 2.194 . S
N416 C411 1.328 . S
N416 C415 1.315 . S
H417 C411 0.929 . S
H418 C415 0.930 . S
H419 C407 0.929 . S
H420 C409 0.929 . S
O421 Co396 2.351 . S
O421 C424 1.244 . S
O422 Co396 2.155 . S
O422 C424 1.240 . S
O423 Co396 2.096 . S
O423 C404 1.247 . S
C424 O421 1.244 . S
C424 O422 1.240 . S
H425 C399 0.931 . S
H426 C408 0.931 . S
H427 C412 0.929 1_655 S
H428 C414 0.930 . S
Co429 N433 2.148 . S
Co429 N439 2.128 . S
Co429 N449 2.194 . S
Co429 O454 2.351 . S
Co429 O455 2.155 . S
Co429 O456 2.096 . S
C430 N433 1.301 . S
C430 N434 1.328 . S
C430 H435 0.930 . S
C431 C432 1.333 . S
C431 N433 1.317 . S
C431 H436 0.930 . S
C432 C431 1.333 . S
C432 N434 1.350 . S
C432 H458 0.931 . S
N433 Co429 2.148 . S
N433 C430 1.301 . S
N433 C431 1.317 . S
N434 C430 1.328 . S
N434 C432 1.350 . S
H435 C430 0.930 . S
H436 C431 0.930 . S
C437 O438 1.224 . S
C437 O456 1.247 . S
O438 C437 1.224 . S
N439 Co429 2.128 . S
N439 C440 1.355 . S
N439 C442 1.311 . S
C440 N439 1.355 . S
C440 C441 1.363 . S
C440 H452 0.929 . S
C441 C440 1.363 . S
C441 N443 1.375 . S
C441 H459 0.931 . S
C442 N439 1.311 . S
C442 N443 1.347 . S
C442 H453 0.929 . S
N443 C441 1.375 . S
N443 C442 1.347 . S
C444 C447 1.365 . S
C444 N449 1.328 . S
C444 H450 0.929 . S
C445 C446 1.362 . S
C445 C448 1.378 . S
C445 H460 0.929 . S
C446 C445 1.362 . S
C446 C447 1.366 . S
C447 C444 1.365 . S
C447 C446 1.366 . S
C447 H461 0.930 . S
C448 C445 1.378 . S
C448 N449 1.315 . S
C448 H451 0.930 . S
N449 Co429 2.194 . S
N449 C444 1.328 . S
N449 C448 1.315 . S
H450 C444 0.929 . S
H451 C448 0.930 . S
H452 C440 0.929 . S
H453 C442 0.929 . S
O454 Co429 2.351 . S
O454 C457 1.244 . S
O455 Co429 2.155 . S
O455 C457 1.240 . S
O456 Co429 2.096 . S
O456 C437 1.247 . S
C457 O454 1.244 . S
C457 O455 1.240 . S
H458 C432 0.931 . S
H459 C441 0.931 . S
H460 C445 0.929 . S
H461 C447 0.930 . S
Co462 N466 2.148 . S
Co462 N472 2.128 . S
Co462 N482 2.194 . S
Co462 O487 2.351 . S
Co462 O488 2.155 . S
Co462 O489 2.096 . S
C463 N466 1.301 . S
C463 N467 1.328 . S
C463 H468 0.930 . S
C464 C465 1.333 . S
C464 N466 1.317 . S
C464 H469 0.930 . S
C465 C464 1.333 . S
C465 N467 1.350 . S
C465 H491 0.931 . S
N466 Co462 2.148 . S
N466 C463 1.301 . S
N466 C464 1.317 . S
N467 C463 1.328 . S
N467 C465 1.350 . S
H468 C463 0.930 . S
H469 C464 0.930 . S
C470 O471 1.224 . S
C470 O489 1.247 . S
O471 C470 1.224 . S
N472 Co462 2.128 . S
N472 C473 1.355 . S
N472 C475 1.311 . S
C473 N472 1.355 . S
C473 C474 1.363 . S
C473 H485 0.929 . S
C474 C473 1.363 . S
C474 N476 1.375 . S
C474 H492 0.931 . S
C475 N472 1.311 . S
C475 N476 1.347 . S
C475 H486 0.929 . S
N476 C474 1.375 . S
N476 C475 1.347 . S
C477 C480 1.365 . S
C477 N482 1.328 . S
C477 H483 0.929 . S
C478 C479 1.362 . S
C478 C481 1.378 . S
C478 H493 0.929 . S
C479 C478 1.362 . S
C479 C480 1.366 . S
C480 C477 1.365 . S
C480 C479 1.366 . S
C480 H494 0.930 . S
C481 C478 1.378 . S
C481 N482 1.315 . S
C481 H484 0.930 . S
N482 Co462 2.194 . S
N482 C477 1.328 . S
N482 C481 1.315 . S
H483 C477 0.929 . S
H484 C481 0.930 . S
H485 C473 0.929 . S
H486 C475 0.929 . S
O487 Co462 2.351 . S
O487 C490 1.244 . S
O488 Co462 2.155 . S
O488 C490 1.240 . S
O489 Co462 2.096 . S
O489 C470 1.247 . S
C490 O487 1.244 . S
C490 O488 1.240 . S
H491 C465 0.931 . S
H492 C474 0.931 . S
H493 C478 0.929 . S
H494 C480 0.930 . S
Co495 N499 2.148 . S
Co495 N505 2.128 . S
Co495 N515 2.194 . S
Co495 O520 2.351 . S
Co495 O521 2.155 . S
Co495 O522 2.096 . S
C496 N499 1.301 . S
C496 N500 1.328 . S
C496 H501 0.930 . S
C497 C498 1.333 . S
C497 N499 1.317 . S
C497 H502 0.930 . S
C498 C497 1.333 . S
C498 N500 1.350 . S
C498 H524 0.931 . S
N499 Co495 2.148 . S
N499 C496 1.301 . S
N499 C497 1.317 . S
N500 C496 1.328 . S
N500 C498 1.350 . S
H501 C496 0.930 . S
H502 C497 0.930 . S
C503 O504 1.224 . S
C503 O522 1.247 . S
O504 C503 1.224 . S
N505 Co495 2.128 . S
N505 C506 1.355 . S
N505 C508 1.311 . S
C506 N505 1.355 . S
C506 C507 1.363 . S
C506 H518 0.929 . S
C507 C506 1.363 . S
C507 N509 1.375 . S
C507 H525 0.931 . S
C508 N505 1.311 . S
C508 N509 1.347 . S
C508 H519 0.929 . S
N509 C507 1.375 . S
N509 C508 1.347 . S
C510 C513 1.365 . S
C510 N515 1.328 . S
C510 H516 0.929 . S
C511 C512 1.362 . S
C511 C514 1.378 . S
C511 H526 0.929 . S
C512 C511 1.362 . S
C512 C513 1.366 . S
C513 C510 1.365 . S
C513 C512 1.366 . S
C513 H527 0.930 . S
C514 C511 1.378 . S
C514 N515 1.315 . S
C514 H517 0.930 . S
N515 Co495 2.194 . S
N515 C510 1.328 . S
N515 C514 1.315 . S
H516 C510 0.929 . S
H517 C514 0.930 . S
H518 C506 0.929 . S
H519 C508 0.929 . S
O520 Co495 2.351 . S
O520 C523 1.244 . S
O521 Co495 2.155 . S
O521 C523 1.240 . S
O522 Co495 2.096 . S
O522 C503 1.247 . S
C523 O520 1.244 . S
C523 O521 1.240 . S
H524 C498 0.931 . S
H525 C507 0.931 . S
H526 C511 0.929 . S
H527 C513 0.930 . S
N5 N509 1.103 . S
N278 N38 2.140 1_655 S
N410 N71 1.535 . S
N113 N344 1.917 1_546 S
N368 N47 2.047 . S
N80 N311 1.703 . S
N104 N434 1.758 . S
N14 N236 1.190 1_455 S
N269 N146 2.182 . S
N401 N179 1.540 1_456 S
N203 N335 1.807 . S
N212 N443 1.728 1_655 S
N137 N377 2.013 1_556 S
N476 N245 1.311 . S
N302 N170 1.639 . S
N500 N467 1.182 . S
C17 C61 1.387 1_545 S
C41 C74 1.955 . S
C83 C107 1.636 1_565 S
C127 C8 2.055 1_556 S
C28 C193 1.495 1_455 S
C149 C116 0.973 . S
C215 C50 0.576 1_655 S
C490 C94 1.447 . S
C281 C239 1.353 1_545 S
C292 C305 2.012 . S
C325 C338 1.860 1_545 S
C347 C259 1.023 . S
C413 C248 0.804 1_455 S
C371 C358 1.871 . S
C272 C457 1.938 1_655 S
C512 C314 0.962 . S
C160 C470 2.091 . S
C140 C173 2.173 1_556 S
C182 C206 1.368 . S
C479 C226 1.244 . S
C380 C503 1.218 . S
C424 C391 2.010 1_556 S
C404 C437 1.967 . S
C523 C446 1.063 . S
