# Generated by pormake.
# Topology irl, (4)-cn, num edge types: 1
# Building blocks:
#     Node 0, Type 0, BuildingBlock: ESEHIV_clean_sbu_0, # of connection points: 4
#     Node 1, Type 0, BuildingBlock: ESEHIV_clean_sbu_0, # of connection points: 4
#     Node 2, Type 0, BuildingBlock: ESEHIV_clean_sbu_0, # of connection points: 4
#     Node 3, Type 0, BuildingBlock: ESEHIV_clean_sbu_0, # of connection points: 4
#     Node 4, Type 0, BuildingBlock: ESEHIV_clean_sbu_0, # of connection points: 4
#     Node 5, Type 0, BuildingBlock: ESEHIV_clean_sbu_0, # of connection points: 4
#     Node 6, Type 0, BuildingBlock: ESEHIV_clean_sbu_0, # of connection points: 4
#     Node 7, Type 0, BuildingBlock: ESEHIV_clean_sbu_0, # of connection points: 4
#     Edge 8, Type (0, 0), BuildingBlock: FUNLAD_clean_linker_1, # of connection points: 2
#     Edge 9, Type (0, 0), BuildingBlock: FUNLAD_clean_linker_1, # of connection points: 2
#     Edge 10, Type (0, 0), BuildingBlock: FUNLAD_clean_linker_1, # of connection points: 2
#     Edge 11, Type (0, 0), BuildingBlock: FUNLAD_clean_linker_1, # of connection points: 2
#     Edge 12, Type (0, 0), BuildingBlock: FUNLAD_clean_linker_1, # of connection points: 2
#     Edge 13, Type (0, 0), BuildingBlock: FUNLAD_clean_linker_1, # of connection points: 2
#     Edge 14, Type (0, 0), BuildingBlock: FUNLAD_clean_linker_1, # of connection points: 2
#     Edge 15, Type (0, 0), BuildingBlock: FUNLAD_clean_linker_1, # of connection points: 2
#     Edge 16, Type (0, 0), BuildingBlock: FUNLAD_clean_linker_1, # of connection points: 2
#     Edge 17, Type (0, 0), BuildingBlock: FUNLAD_clean_linker_1, # of connection points: 2
#     Edge 18, Type (0, 0), BuildingBlock: FUNLAD_clean_linker_1, # of connection points: 2
#     Edge 19, Type (0, 0), BuildingBlock: FUNLAD_clean_linker_1, # of connection points: 2
#     Edge 20, Type (0, 0), BuildingBlock: FUNLAD_clean_linker_1, # of connection points: 2
#     Edge 21, Type (0, 0), BuildingBlock: FUNLAD_clean_linker_1, # of connection points: 2
#     Edge 22, Type (0, 0), BuildingBlock: FUNLAD_clean_linker_1, # of connection points: 2
#     Edge 23, Type (0, 0), BuildingBlock: FUNLAD_clean_linker_1, # of connection points: 2
# Relax obj value: 0.080
# Max RMSD: 0.129
# Mean RMSD: 0.129
data_MOF--net-irl--node1-ESEHIV_clean_sbu_0--edge1-FUNLAD_clean_linker_1
_symmetry_space_group_name_H-M    P1
_symmetry_Int_Tables_number       1
_symmetry_cell_setting            triclinic
loop_
_symmetry_equiv_pos_as_xyz
'x, y, z'
_cell_length_a     11.012547
_cell_length_b     68.747971
_cell_length_c     30.578951
_cell_angle_alpha  89.797932
_cell_angle_beta   89.792342
_cell_angle_gamma 90.381428
loop_
_atom_site_label
_atom_site_type_symbol
_atom_site_fract_x
_atom_site_fract_y
_atom_site_fract_z
_atom_type_partial_charge
Cu0 Cu 0.95901 0.15369 1.00551 0.0
N1 N 0.81781 0.13962 0.01995 0.0
N2 N 0.70736 0.11265 0.03177 0.0
C3 C 0.81709 0.12005 0.02073 0.0
C4 C 0.63583 0.12826 0.03809 0.0
C5 C 0.70439 0.14495 0.03094 0.0
O6 O 0.07364 0.14614 0.05012 0.0
C7 C 0.91096 0.14631 0.91983 0.0
O8 O 0.80322 0.15136 0.93426 0.0
H9 H 0.89622 0.11154 1.01267 0.0
H10 H 0.6737 0.15982 0.03343 0.0
N11 N 0.95129 0.18096 1.00788 0.0
N12 N 0.02456 0.21137 1.01284 0.0
C13 C 0.04964 0.19223 0.01533 0.0
C14 C 0.85992 0.19342 1.0003 0.0
C15 C 0.90483 0.21225 1.00346 0.0
C16 C 0.03204 0.15061 0.08761 0.0
O17 O 0.92807 0.15986 0.08982 0.0
H18 H 0.13911 0.18646 0.02171 0.0
H19 H 0.76802 0.18916 0.99222 0.0
O20 O 0.00041 0.14646 0.94611 0.0
H21 H 0.54076 0.12763 0.04716 0.0
H22 H 0.85344 0.22543 0.99861 0.0
Cu23 Cu 0.79823 0.9042 0.02678 0.0
N24 N 0.72007 0.92839 0.02859 0.0
N25 N 0.69065 0.96059 0.03063 0.0
C26 C 0.77283 0.94609 0.03206 0.0
C27 C 0.5819 0.95166 0.02586 0.0
C28 C 0.60046 0.93185 0.02452 0.0
O29 O 0.91041 0.90306 0.07753 0.0
C30 C 0.94294 0.88943 0.95337 0.0
O31 O 0.97841 0.8756 0.98004 0.0
H32 H 0.86989 0.94833 0.03492 0.0
H33 H 0.53162 0.92076 0.01995 0.0
N34 N 0.6813 0.8842 0.03374 0.0
N35 N 0.57756 0.8561 0.02861 0.0
C36 C 0.67086 0.86697 1.01274 0.0
C37 C 0.59037 0.88418 0.06331 0.0
C38 C 0.52648 0.86699 0.06025 0.0
C39 C 0.86948 0.90719 0.11569 0.0
O40 O 0.75601 0.91269 0.1195 0.0
H41 H 0.73096 0.86238 0.98672 0.0
H42 H 0.57074 0.89597 0.08545 0.0
O43 O 0.87245 0.90264 0.96768 0.0
H44 H 0.49532 0.95883 0.02242 0.0
H45 H 0.44705 0.86304 0.07932 0.0
Cu46 Cu 0.22569 0.91109 0.53867 0.0
N47 N 0.27952 0.93691 0.54551 0.0
N48 N 0.29315 0.96945 0.54494 0.0
C49 C 0.23121 0.95367 0.53053 0.0
C50 C 0.38307 0.96233 0.57013 0.0
C51 C 0.37406 0.94235 0.57049 0.0
O52 O 0.12291 0.90912 0.48559 0.0
C53 C 0.07065 0.91484 0.61342 0.0
O54 O 0.03206 0.93015 0.59196 0.0
H55 H 0.15087 0.95432 0.51029 0.0
H56 H 0.43097 0.93243 0.58857 0.0
N57 N 0.36372 0.89549 0.53046 0.0
N58 N 0.49214 0.87039 0.52655 0.0
C59 C 0.37765 0.87612 0.53637 0.0
C60 C 0.47261 0.90205 0.51647 0.0
C61 C 0.55157 0.88668 0.51416 0.0
C62 C 0.17101 0.91061 0.44746 0.0
O63 O 0.28858 0.91368 0.44434 0.0
H64 H 0.30559 0.86655 0.54762 0.0
H65 H 0.49301 0.91702 0.50814 0.0
O66 O 0.14771 0.9037 0.59499 0.0
H67 H 0.44851 0.97085 0.58826 0.0
H68 H 0.64573 0.88737 0.50389 0.0
Cu69 Cu 0.01719 0.16235 0.5055 0.0
N70 N 0.15815 0.1486 0.52001 0.0
N71 N 0.26594 0.1216 0.53205 0.0
C72 C 0.15919 0.12903 0.51866 0.0
C73 C 0.33532 0.1372 0.54212 0.0
C74 C 0.26845 0.15389 0.53481 0.0
O75 O 0.97911 0.15473 0.44629 0.0
C76 C 0.9404 0.15847 0.5874 0.0
O77 O 0.04055 0.16889 0.59043 0.0
H78 H 0.0816 0.12055 0.50826 0.0
H79 H 0.29764 0.1687 0.54058 0.0
N80 N 0.02288 0.18967 0.50735 0.0
N81 N 0.948 0.21992 0.50704 0.0
C82 C 0.92247 0.20074 0.50492 0.0
C83 C 0.11607 0.20234 0.51088 0.0
C84 C 0.07008 0.22106 0.51076 0.0
C85 C 0.06929 0.15572 0.42021 0.0
O86 O 0.17375 0.16238 0.43466 0.0
H87 H 0.83172 0.19478 0.50159 0.0
H88 H 0.21058 0.19834 0.51303 0.0
O89 O 0.90172 0.15401 0.54958 0.0
H90 H 0.42724 0.13655 0.55445 0.0
H91 H 0.12279 0.23436 0.51262 0.0
Cu92 Cu 0.35897 0.66009 0.02723 0.0
N93 N 0.29231 0.63509 0.02076 0.0
N94 N 0.30549 0.60268 0.01659 0.0
C95 C 0.36601 0.61957 0.02141 0.0
C96 C 0.18746 0.60767 1.01266 0.0
C97 C 0.17957 0.62781 0.01523 0.0
O98 O 0.42312 0.66045 0.08607 0.0
C99 C 0.41826 0.6606 0.94266 0.0
O100 O 0.30127 0.65675 0.94316 0.0
H101 H 0.46345 0.6207 0.02553 0.0
H102 H 0.09799 0.63644 1.01329 0.0
N103 N 0.26068 0.68224 0.0237 0.0
N104 N 0.24322 0.71469 0.02368 0.0
C105 C 0.30275 0.69921 0.0397 0.0
C106 C 0.16851 0.68713 0.99702 0.0
C107 C 0.1575 0.70723 0.99695 0.0
C108 C 0.33937 0.65729 0.11418 0.0
O109 O 0.22801 0.65421 0.10058 0.0
H110 H 0.38387 0.7003 0.05949 0.0
H111 H 0.11935 0.67706 0.97642 0.0
O112 O 0.47289 0.66273 0.97901 0.0
H113 H 0.11242 0.59763 1.00834 0.0
H114 H 0.09586 0.71564 0.97706 0.0
Cu115 Cu 0.4326 0.40315 0.03197 0.0
N116 N 0.53266 0.42544 0.03117 0.0
N117 N 0.55178 0.45788 0.03121 0.0
C118 C 0.48328 0.44249 0.04303 0.0
C119 C 0.65072 0.45032 1.01151 0.0
C120 C 0.6387 0.43018 1.01155 0.0
O121 O 0.35264 0.40364 0.08922 0.0
C122 C 0.41561 0.40408 0.9452 0.0
O123 O 0.52893 0.39961 0.95366 0.0
H124 H 0.39323 0.44363 0.0571 0.0
H125 H 0.69882 0.41996 0.99583 0.0
N126 N 0.49503 0.37785 0.02893 0.0
N127 N 0.46486 0.34566 0.02386 0.0
C128 C 0.42125 0.36346 0.01511 0.0
C129 C 0.59047 0.36881 0.04726 0.0
C130 C 0.57236 0.34883 0.04392 0.0
C131 C 0.42978 0.40612 0.11989 0.0
O132 O 0.54518 0.40804 0.10971 0.0
H133 H 0.33192 0.36606 1.00167 0.0
H134 H 0.6632 0.37609 0.0645 0.0
O135 O 0.34225 0.40602 0.97739 0.0
H136 H 0.72359 0.45865 0.99656 0.0
H137 H 0.63005 0.33768 0.05752 0.0
Cu138 Cu 0.56362 0.41059 0.51645 0.0
N139 N 0.47119 0.43279 0.50471 0.0
N140 N 0.45716 0.4651 0.49662 0.0
C141 C 0.52902 0.44942 0.49366 0.0
C142 C 0.34762 0.45811 0.50938 0.0
C143 C 0.35654 0.43807 0.51434 0.0
O144 O 0.69004 0.41248 0.47162 0.0
C145 C 0.52148 0.41174 0.60377 0.0
O146 O 0.41246 0.40916 0.58741 0.0
H147 H 0.62557 0.45022 0.487 0.0
H148 H 0.2868 0.42837 0.52682 0.0
N149 N 0.49114 0.38589 0.51186 0.0
N150 N 0.50897 0.35344 0.51344 0.0
C151 C 0.54509 0.37049 0.53075 0.0
C152 C 0.41463 0.37832 0.48208 0.0
C153 C 0.42529 0.3582 0.48303 0.0
C154 C 0.69871 0.39968 0.44177 0.0
O155 O 0.68244 0.38128 0.45194 0.0
H156 H 0.62077 0.37193 0.55306 0.0
H157 H 0.36484 0.38677 0.45835 0.0
O158 O 0.61177 0.41283 0.57756 0.0
H159 H 0.26856 0.46683 0.51645 0.0
H160 H 0.38351 0.34818 0.46031 0.0
Cu161 Cu 0.60604 0.66787 0.519 0.0
N162 N 0.68633 0.64399 0.51564 0.0
N163 N 0.6858 0.61152 0.51016 0.0
C164 C 0.62309 0.62802 0.50408 0.0
C165 C 0.79482 0.61728 0.52587 0.0
C166 C 0.7948 0.63744 0.5293 0.0
O167 O 0.52633 0.67052 0.46297 0.0
C168 C 0.57157 0.6652 0.60491 0.0
O169 O 0.6902 0.66539 0.60002 0.0
H170 H 0.52927 0.62844 0.49363 0.0
H171 H 0.86596 0.64647 0.54289 0.0
N172 N 0.6925 0.6912 0.52662 0.0
N173 N 0.70149 0.72355 0.53402 0.0
C174 C 0.6302 0.70761 0.53415 0.0
C175 C 0.80922 0.69687 0.52195 0.0
C176 C 0.81503 0.71697 0.52645 0.0
C177 C 0.60373 0.67336 0.43245 0.0
O178 O 0.71946 0.67438 0.44227 0.0
H179 H 0.53237 0.70791 0.53784 0.0
H180 H 0.88356 0.68726 0.51418 0.0
O181 O 0.50531 0.66596 0.57088 0.0
H182 H 0.86743 0.60772 0.53575 0.0
H183 H 0.89562 0.72595 0.52326 0.0
H184 H 0.81264 0.98578 0.03025 0.0
C185 C 0.71799 0.98118 0.03133 0.0
H186 H 0.53616 0.99077 0.03596 0.0
H187 H 0.67573 0.07354 0.11243 0.0
H188 H 0.59713 0.05758 0.17749 0.0
H189 H 0.54574 1.0226 0.17702 0.0
H190 H 0.57379 1.00331 0.11151 0.0
C191 C 0.63101 0.99488 0.03286 0.0
C192 C 0.66087 1.01614 0.03264 0.0
C193 C 0.6411 1.02737 0.07081 0.0
C194 C 0.66894 0.04766 0.07087 0.0
C195 C 0.65327 0.05825 0.11012 0.0
C196 C 0.60881 0.04923 0.14783 0.0
C197 C 0.57999 1.02953 0.14758 0.0
C198 C 0.59619 1.01864 0.1097 0.0
H199 H 0.57508 0.08898 0.03931 0.0
C200 C 0.67085 0.09243 0.03494 0.0
H201 H 0.84719 0.08082 0.02765 0.0
H202 H 0.69911 0.9994 0.95261 0.0
H203 H 0.77659 1.01537 0.88741 0.0
H204 H 0.82636 0.0504 0.88763 0.0
H205 H 0.79822 0.06971 0.95302 0.0
C206 C 0.75144 0.07776 0.03251 0.0
C207 C 0.71435 0.05681 0.03241 0.0
C208 C 0.73267 0.0456 0.99407 0.0
C209 C 0.70522 1.02532 0.99407 0.0
C210 C 0.72106 1.01472 0.95484 0.0
C211 C 0.76484 1.02373 0.91704 0.0
C212 C 0.79279 0.04346 0.91716 0.0
C213 C 0.77666 0.05435 0.95503 0.0
H214 H 0.17546 0.99294 0.52241 0.0
C215 C 0.26227 0.98961 0.5374 0.0
H216 H 0.42658 1.00143 0.56171 0.0
H217 H 0.36819 0.08206 0.46263 0.0
H218 H 0.50386 0.06587 0.41211 0.0
H219 H 0.55063 1.03104 0.42081 0.0
H220 H 0.46084 1.0121 0.47991 0.0
C221 C 0.33714 1.00436 0.54866 0.0
C222 C 0.30417 1.02523 0.54247 0.0
C223 C 0.35912 0.03625 0.50835 0.0
C224 C 0.33359 0.05646 0.50376 0.0
C225 C 0.3864 0.06683 0.46833 0.0
C226 C 0.46409 0.05769 0.43893 0.0
C227 C 0.49035 0.03807 0.4438 0.0
C228 C 0.4385 1.02739 0.47795 0.0
H229 H 0.39238 0.09797 0.5459 0.0
C230 C 0.30027 0.10139 0.53592 0.0
H231 H 0.12801 0.08962 0.51993 0.0
H232 H 0.18776 1.00872 0.61273 0.0
H233 H 0.05388 1.02495 0.66385 0.0
H234 H 0.01048 0.05996 0.65622 0.0
H235 H 0.10087 0.07896 0.59745 0.0
C236 C 0.2217 0.08665 0.52814 0.0
C237 C 0.25477 0.06575 0.53387 0.0
C238 C 0.20017 0.05473 0.5681 0.0
C239 C 0.22503 0.0345 0.57247 0.0
C240 C 0.17111 1.02404 0.60756 0.0
C241 C 0.09429 1.03319 0.63724 0.0
C242 C 0.06981 0.0529 0.63294 0.0
C243 C 0.12199 0.06362 0.59892 0.0
H244 H 0.46113 0.58335 0.01991 0.0
C245 C 0.36287 0.58384 0.01651 0.0
H246 H 0.20436 0.56677 1.00814 0.0
H247 H 0.48099 0.49372 0.93197 0.0
H248 H 0.37567 0.50539 0.86768 0.0
H249 H 0.26691 0.53662 0.86878 0.0
H250 H 0.26211 0.55636 0.93433 0.0
C251 C 0.30187 0.5669 1.01303 0.0
C252 C 0.36807 0.5479 1.01278 0.0
C253 C 0.37115 0.53655 0.97414 0.0
C254 C 0.43559 0.51863 0.97332 0.0
C255 C 0.435 0.50753 0.93437 0.0
C256 C 0.37467 0.51404 0.89719 0.0
C257 C 0.31336 0.53162 0.89782 0.0
C258 C 0.31125 0.5428 0.93571 0.0
H259 H 0.43554 0.48072 0.0566 0.0
C260 C 0.51257 0.47779 0.03528 0.0
H261 H 0.62898 0.48979 0.98715 0.0
H262 H 0.37175 0.56488 0.09374 0.0
H263 H 0.48481 0.55399 0.157 0.0
H264 H 0.60892 0.52429 0.1538 0.0
H265 H 0.61885 0.5051 0.08751 0.0
C266 C 0.55757 0.4925 1.01087 0.0
C267 C 0.49758 0.51202 1.01115 0.0
C268 C 0.49679 0.52359 0.04953 0.0
C269 C 0.4298 0.54126 0.05069 0.0
C270 C 0.4251 0.55182 0.09035 0.0
C271 C 0.48893 0.54566 0.12706 0.0
C272 C 0.55842 0.52889 0.12532 0.0
C273 C 0.56265 0.51794 0.08713 0.0
H274 H 0.58958 0.48722 0.4774 0.0
C275 C 0.50049 0.48489 0.49207 0.0
H276 H 0.35725 0.4983 0.52637 0.0
H277 H 0.68163 0.5675 0.59721 0.0
H278 H 0.6369 0.54945 0.66359 0.0
H279 H 0.5322 0.51766 0.66072 0.0
H280 H 0.47054 0.50379 0.59149 0.0
C281 C 0.44248 0.50032 0.50897 0.0
C282 C 0.50296 0.51993 0.51028 0.0
C283 C 0.53957 0.52784 0.55102 0.0
C284 C 0.60206 0.54607 0.55262 0.0
C285 C 0.63562 0.55364 0.59392 0.0
C286 C 0.61031 0.54344 0.63236 0.0
C287 C 0.55122 0.52556 0.63075 0.0
C288 C 0.51614 0.51777 0.59071 0.0
H289 H 0.54306 0.59109 0.49162 0.0
C290 C 0.63489 0.59226 0.50441 0.0
H291 H 0.78174 0.57646 0.53047 0.0
H292 H 0.43438 0.51025 0.42725 0.0
H293 H 0.48438 0.52778 0.36053 0.0
H294 H 0.60526 0.55809 0.36278 0.0
H295 H 0.67526 0.57123 0.43175 0.0
C296 C 0.69228 0.57579 0.5158 0.0
C297 C 0.62883 0.55643 0.51347 0.0
C298 C 0.59291 0.54845 0.47265 0.0
C299 C 0.52779 0.53045 0.47116 0.0
C300 C 0.48787 0.52343 0.43015 0.0
C301 C 0.51533 0.53341 0.39161 0.0
C302 C 0.58301 0.55052 0.39289 0.0
C303 C 0.62185 0.55798 0.43279 0.0
H304 H 0.189 0.14049 0.1271 0.0
C305 C 0.09627 0.14576 0.12833 0.0
H306 H 0.94541 0.15297 0.16787 0.0
H307 H 0.06469 0.11271 0.3422 0.0
H308 H 0.94991 0.08624 0.30935 0.0
H309 H 0.90186 0.08662 0.23055 0.0
H310 H 0.96971 0.11338 0.18406 0.0
C311 C 0.03969 0.14841 0.16686 0.0
C312 C 0.09755 0.14545 0.20989 0.0
C313 C 0.05789 0.12974 0.23646 0.0
C314 C 0.08362 0.12971 0.2819 0.0
C315 C 0.04442 0.1137 0.30768 0.0
C316 C 0.97929 0.09837 0.28917 0.0
C317 C 0.95232 0.09857 0.24479 0.0
C318 C 0.99111 0.11403 0.21855 0.0
H319 H 0.96699 0.14907 0.35996 0.0
C320 C 0.05731 0.15026 0.37396 0.0
H321 H 0.24649 0.14877 0.36292 0.0
H322 H 0.19983 0.17653 0.16669 0.0
H323 H 0.32082 0.20232 0.19878 0.0
H324 H 0.36508 0.20242 0.2778 0.0
H325 H 0.28806 0.17683 0.32514 0.0
C326 C 0.15632 0.14759 0.34881 0.0
C327 C 0.14698 0.14561 0.30062 0.0
C328 C 0.19661 0.16041 0.2733 0.0
C329 C 0.17144 0.16035 0.22776 0.0
C330 C 0.21684 0.17577 0.20143 0.0
C331 C 0.28647 0.19069 0.21944 0.0
C332 C 0.31139 0.19074 0.26391 0.0
C333 C 0.26675 0.17589 0.29072 0.0
H334 H -0.0019 0.90848 0.4098 0.0
C335 C 0.09628 0.90935 0.40675 0.0
H336 H 0.24631 0.90963 0.36347 0.0
H337 H 0.99314 0.87325 0.19805 0.0
H338 H 0.10168 0.84522 0.22515 0.0
H339 H 0.20143 0.8459 0.29719 0.0
H340 H 0.19169 0.8746 0.34296 0.0
C341 C 0.14795 0.90948 0.36637 0.0
C342 C 0.07827 0.90872 0.32402 0.0
C343 C 0.08669 0.89206 0.29675 0.0
C344 C 0.03101 0.89182 0.25449 0.0
C345 C 0.03654 0.87455 0.22953 0.0
C346 C 0.09802 0.85826 0.24485 0.0
C347 C 0.15411 0.85864 0.28544 0.0
C348 C 0.14833 0.87524 0.31129 0.0
H349 H 0.0438 0.90362 0.15203 0.0
C350 C 0.94696 0.90603 0.15576 0.0
H351 H 0.80156 0.91071 0.19943 0.0
H352 H 0.0491 0.94347 0.36581 0.0
H353 H 0.94349 0.97175 0.33843 0.0
H354 H 0.84953 0.97156 0.26538 0.0
H355 H 0.86107 0.94313 0.2191 0.0
C356 C 0.89835 0.90802 0.1964 0.0
C357 C 0.96903 0.90848 0.23863 0.0
C358 C 0.96157 0.9252 0.26585 0.0
C359 C 0.01586 0.92532 0.30829 0.0
C360 C 0.00844 0.94243 0.33378 0.0
C361 C 0.94836 0.95883 0.31839 0.0
C362 C 0.8954 0.95872 0.27727 0.0
C363 C 0.90205 0.94221 0.25113 0.0
H364 H 0.96082 0.92202 0.67162 0.0
C365 C 0.03081 0.91224 0.65986 0.0
H366 H 0.1526 0.89006 0.67813 0.0
H367 H 0.04845 0.9336 0.86914 0.0
H368 H 0.1561 0.96104 0.83711 0.0
H369 H 0.21882 0.96073 0.75965 0.0
H370 H 0.17362 0.93308 0.71357 0.0
C371 C 0.08301 0.90009 0.68898 0.0
C372 C 0.04833 0.90011 0.73688 0.0
C373 C 0.07659 0.91631 0.76391 0.0
C374 C 0.04192 0.91635 0.80907 0.0
C375 C 0.07171 0.93279 0.83479 0.0
C376 C 0.13402 0.94863 0.81688 0.0
C377 C 0.16922 0.94846 0.77324 0.0
C378 C 0.14173 0.93252 0.74702 0.0
H379 H 0.04913 0.87799 0.89745 0.0
C380 C 0.98327 0.88896 0.90661 0.0
H381 H 0.87542 0.91213 0.88409 0.0
H382 H 0.98578 0.86632 0.69603 0.0
H383 H 0.87971 0.8387 0.72817 0.0
H384 H 0.81459 0.83912 0.80535 0.0
H385 H 0.85675 0.86696 0.85125 0.0
C386 C 0.93944 0.90086 0.87514 0.0
C387 C 0.98073 0.90008 0.82795 0.0
C388 C 0.95388 0.88377 0.80104 0.0
C389 C 0.98901 0.8837 0.75588 0.0
C390 C 0.96118 0.86717 0.73026 0.0
C391 C 0.89992 0.85124 0.74824 0.0
C392 C 0.86353 0.85146 0.79176 0.0
C393 C 0.88926 0.86751 0.81789 0.0
H394 H 0.01871 0.14341 0.85904 0.0
C395 C 0.92788 0.14239 0.87292 0.0
H396 H 0.74072 0.13832 0.86098 0.0
H397 H 0.77115 0.17868 0.67581 0.0
H398 H 0.64193 0.20068 0.71626 0.0
H399 H 0.60155 0.19542 0.79483 0.0
H400 H 0.69043 0.16823 0.83336 0.0
C401 C 0.83136 0.13928 0.84692 0.0
C402 C 0.84161 0.14057 0.79859 0.0
C403 C 0.78552 0.15628 0.7764 0.0
C404 C 0.80858 0.15933 0.73114 0.0
C405 C 0.75609 0.1756 0.71009 0.0
C406 C 0.6817 0.18837 0.73294 0.0
C407 C 0.65893 0.1854 0.77715 0.0
C408 C 0.71042 0.16965 0.79885 0.0
H409 H 0.79042 0.14489 0.62602 0.0
C410 C 0.88073 0.1513 0.62757 0.0
H411 H 0.03198 0.1583 0.667 0.0
H412 H 0.94025 0.10676 0.82933 0.0
H413 H 0.06226 0.08393 0.78778 0.0
H414 H 0.10484 0.08955 0.7094 0.0
H415 H 0.02482 0.11799 0.67204 0.0
C416 C 0.93952 0.1527 0.66588 0.0
C417 C 0.88691 0.1466 0.70838 0.0
C418 C 0.93393 0.12996 0.72962 0.0
C419 C 0.91069 0.12685 0.77482 0.0
C420 C 0.95769 0.11001 0.79523 0.0
C421 C 0.02715 0.09675 0.7717 0.0
C422 C 0.05109 0.09991 0.72756 0.0
C423 C 0.00526 0.11631 0.70658 0.0
H424 H 0.28527 0.65256 0.18224 0.0
C425 C 0.3607 0.65719 0.16152 0.0
H426 H 0.53785 0.66919 0.16074 0.0
H427 H 0.42751 0.70457 0.35005 0.0
H428 H 0.42509 0.73377 0.30514 0.0
H429 H 0.44249 0.7317 0.22481 0.0
H430 H 0.46245 0.70045 0.18892 0.0
C431 C 0.46321 0.66344 0.18031 0.0
C432 C 0.46815 0.66474 0.2288 0.0
C433 C 0.45879 0.68314 0.24921 0.0
C434 C 0.4502 0.68436 0.2955 0.0
C435 C 0.43727 0.70288 0.31504 0.0
C436 C 0.43488 0.71973 0.28964 0.0
C437 C 0.4445 0.71856 0.24441 0.0
C438 C 0.45591 0.70053 0.22423 0.0
H439 H 0.64172 0.67982 0.36384 0.0
C440 C 0.57076 0.67484 0.38616 0.0
H441 H 0.39575 0.66222 0.39071 0.0
H442 H 0.49291 0.62729 0.20011 0.0
H443 H 0.49516 0.59812 0.24504 0.0
H444 H 0.47794 0.60021 0.32536 0.0
H445 H 0.45813 0.63147 0.3612 0.0
C446 C 0.46533 0.66854 0.36965 0.0
C447 C 0.45349 0.66719 0.32132 0.0
C448 C 0.46172 0.64877 0.3009 0.0
C449 C 0.47029 0.64755 0.25459 0.0
C450 C 0.48312 0.62902 0.23509 0.0
C451 C 0.48541 0.61217 0.26052 0.0
C452 C 0.47589 0.61335 0.30574 0.0
C453 C 0.4646 0.63139 0.32589 0.0
H454 H 0.68896 0.42142 0.38827 0.0
C455 C 0.68124 0.406 0.39585 0.0
H456 H 0.62345 0.37845 0.37343 0.0
H457 H 0.24746 0.40789 0.23529 0.0
H458 H 0.11553 0.39455 0.29172 0.0
H459 H 0.19807 0.38423 0.36281 0.0
H460 H 0.41327 0.38692 0.37785 0.0
C461 C 0.63843 0.39368 0.36522 0.0
C462 C 0.58988 0.40057 0.32232 0.0
C463 C 0.46372 0.39864 0.31353 0.0
C464 C 0.41607 0.40436 0.27215 0.0
C465 C 0.28915 0.40309 0.26536 0.0
C466 C 0.21205 0.3957 0.29769 0.0
C467 C 0.25856 0.38985 0.33772 0.0
C468 C 0.38255 0.39139 0.34584 0.0
H469 H 0.36599 0.39031 0.17827 0.0
C470 C 0.3993 0.40432 0.1667 0.0
H471 H 0.48173 0.43095 0.18142 0.0
H472 H 0.83601 0.40591 0.3279 0.0
H473 H 0.9688 0.41887 0.2715 0.0
H474 H 0.88902 0.42752 0.19896 0.0
H475 H 0.6763 0.42386 0.18261 0.0
C476 C 0.44925 0.41717 0.1947 0.0
C477 C 0.49521 0.41146 0.23896 0.0
C478 C 0.62175 0.41342 0.24787 0.0
C479 C 0.66869 0.40811 0.2896 0.0
C480 C 0.79508 0.41001 0.29718 0.0
C481 C 0.87283 0.41723 0.26493 0.0
C482 C 0.82782 0.42219 0.22413 0.0
C483 C 0.70445 0.42017 0.21537 0.0
H484 H 0.28488 0.40897 0.89057 0.0
C485 C 0.37973 0.40697 0.89896 0.0
H486 H 0.56085 0.4047 0.8763 0.0
H487 H 0.49258 0.37641 0.6868 0.0
H488 H 0.53424 0.3457 0.72257 0.0
H489 H 0.5343 0.34307 0.80305 0.0
H490 H 0.49167 0.37117 0.84821 0.0
C491 C 0.46643 0.40695 0.86753 0.0
C492 C 0.44308 0.40805 0.81971 0.0
C493 C 0.46838 0.39152 0.79362 0.0
C494 C 0.46928 0.39307 0.74721 0.0
C495 C 0.49264 0.3762 0.72215 0.0
C496 C 0.5163 0.35842 0.74228 0.0
C497 C 0.51636 0.35694 0.78757 0.0
C498 C 0.49242 0.37322 0.8131 0.0
H499 H 0.62721 0.4116 0.66563 0.0
C500 C 0.53654 0.41223 0.65183 0.0
H501 H 0.34785 0.4139 0.66462 0.0
H502 H 0.39209 0.4426 0.85981 0.0
H503 H 0.34837 0.47329 0.82403 0.0
H504 H 0.34745 0.47591 0.74355 0.0
H505 H 0.39138 0.44785 0.6983 0.0
C506 C 0.43832 0.41262 0.67836 0.0
C507 C 0.44568 0.41122 0.72687 0.0
C508 C 0.41719 0.42762 0.7529 0.0
C509 C 0.41664 0.42608 0.79938 0.0
C510 C 0.39229 0.44289 0.82446 0.0
C511 C 0.36722 0.46061 0.80433 0.0
C512 C 0.36664 0.46208 0.759 0.0
C513 C 0.39155 0.44585 0.73342 0.0
H514 H 0.57936 0.66453 0.89932 0.0
C515 C 0.48159 0.66233 0.90024 0.0
H516 H 0.31924 0.65953 0.86384 0.0
H517 H 0.50128 0.69921 0.69123 0.0
H518 H 0.40087 0.72673 0.7246 0.0
H519 H 0.33165 0.72526 0.80138 0.0
H520 H 0.36373 0.6963 0.84537 0.0
C521 C 0.41748 0.6611 0.86292 0.0
C522 C 0.47279 0.66269 0.81884 0.0
C523 C 0.45194 0.67961 0.79343 0.0
C524 C 0.49022 0.68034 0.74903 0.0
C525 C 0.47162 0.69766 0.72481 0.0
C526 C 0.41457 0.71362 0.74364 0.0
C527 C 0.37565 0.7128 0.78687 0.0
C528 C 0.39416 0.69606 0.81168 0.0
H529 H 0.42137 0.66441 0.6536 0.0
C530 C 0.51937 0.66469 0.64937 0.0
H531 H 0.69114 0.66465 0.68022 0.0
H532 H 0.52497 0.62792 0.85851 0.0
H533 H 0.62595 0.60041 0.82533 0.0
H534 H 0.69272 0.60165 0.74827 0.0
H535 H 0.65813 0.63037 0.70387 0.0
C536 C 0.59311 0.66483 0.68442 0.0
C537 C 0.54751 0.66399 0.73006 0.0
C538 C 0.57027 0.64719 0.75573 0.0
C539 C 0.53243 0.6465 0.80019 0.0
C540 C 0.55303 0.62933 0.82473 0.0
C541 C 0.61073 0.6134 0.80605 0.0
C542 C 0.64835 0.6141 0.76267 0.0
C543 C 0.62832 0.63072 0.73761 0.0
H544 H 0.30405 0.32921 1.00491 0.0
C545 C 0.39581 0.32792 0.01764 0.0
H546 H 0.52658 0.30821 0.04127 0.0
H547 H 0.13464 0.24437 0.0963 0.0
H548 H 0.22819 0.25237 0.16554 0.0
H549 H 0.38013 0.27876 0.17062 0.0
H550 H 0.43944 0.29734 0.10648 0.0
C551 C 0.43678 0.31001 0.02743 0.0
C552 C 0.35527 0.29248 0.02309 0.0
C553 C 0.32292 0.28143 0.06077 0.0
C554 C 0.23583 0.26601 0.05776 0.0
C555 C 0.20221 0.25584 0.09635 0.0
C556 C 0.25463 0.26038 0.13645 0.0
C557 C 0.3401 0.27525 0.13931 0.0
C558 C 0.37357 0.28578 0.10214 0.0
H559 H 0.206 0.22292 0.02579 0.0
C560 C 0.11295 0.22685 0.01812 0.0
H561 H -0.00457 0.25023 1.00422 0.0
H562 H 0.41296 0.30792 0.94291 0.0
H563 H 0.32157 0.2996 0.87343 0.0
H564 H 0.16507 0.27388 0.86874 0.0
H565 H 0.10008 0.25614 0.93346 0.0
C566 C 0.08621 0.24585 1.0135 0.0
C567 C 0.18185 0.26142 0.01691 0.0
C568 C 0.21711 0.27204 0.97901 0.0
C569 C 0.3052 0.28729 0.98192 0.0
C570 C 0.3428 0.29684 0.943 0.0
C571 C 0.29201 0.29206 0.90277 0.0
C572 C 0.20407 0.27755 0.90012 0.0
C573 C 0.16725 0.26753 0.9376 0.0
H574 H 0.34419 0.73762 0.05677 0.0
C575 C 0.28162 0.73461 0.03015 0.0
H576 H 0.1931 0.74674 0.97525 0.0
H577 H 0.24801 0.83395 0.0425 0.0
H578 H 0.03038 0.82912 0.04827 0.0
H579 H 0.93856 0.79683 0.03621 0.0
H580 H 0.06353 0.76912 0.01714 0.0
C581 C 0.25482 0.74918 1.00229 0.0
C582 C 0.31042 0.76901 1.00764 0.0
C583 C 0.23636 0.78506 0.01859 0.0
C584 C 0.28994 0.80363 0.02672 0.0
C585 C 0.21291 0.81942 0.03702 0.0
C586 C 0.08763 0.81689 0.04023 0.0
C587 C 0.03586 0.7987 0.03326 0.0
C588 C 0.10874 0.78293 0.02244 0.0
H589 H 0.56286 0.83255 0.98084 0.0
C590 C 0.53823 0.83714 1.01364 0.0
H591 H 0.44874 0.82968 0.07238 0.0
H592 H 0.47646 0.74254 0.97855 0.0
H593 H 0.69464 0.74701 0.97431 0.0
H594 H 0.78954 0.77815 0.99502 0.0
H595 H 0.6672 0.80519 0.01955 0.0
C596 C 0.47226 0.82509 0.03953 0.0
C597 C 0.41808 0.80617 0.02466 0.0
C598 C 0.49208 0.79021 1.01246 0.0
C599 C 0.43778 0.77182 1.00272 0.0
C600 C 0.51313 0.75651 0.98822 0.0
C601 C 0.63851 0.75891 0.98534 0.0
C602 C 0.69192 0.77648 0.99691 0.0
C603 C 0.62023 0.79196 1.01056 0.0
H604 H 0.64293 0.85021 0.52045 0.0
C605 C 0.54664 0.85134 0.52805 0.0
H606 H 0.3874 0.83533 0.54333 0.0
H607 H 0.59768 0.75808 0.45855 0.0
H608 H 0.44708 0.76725 0.40486 0.0
H609 H 0.3394 0.79849 0.41048 0.0
H610 H 0.38229 0.82082 0.46973 0.0
C611 C 0.48454 0.83493 0.53745 0.0
C612 C 0.54559 0.81555 0.53582 0.0
C613 C 0.51756 0.8024 0.50161 0.0
C614 C 0.57819 0.78418 0.49884 0.0
C615 C 0.55181 0.77179 0.46314 0.0
C616 C 0.46618 0.77694 0.43183 0.0
C617 C 0.40569 0.79454 0.43496 0.0
C618 C 0.43105 0.80721 0.46922 0.0
H619 H 0.55969 0.74487 0.54526 0.0
C620 C 0.6557 0.7431 0.53782 0.0
H621 H 0.81901 0.75817 0.52301 0.0
H622 H 0.61595 0.83665 0.60724 0.0
H623 H 0.76733 0.82756 0.66072 0.0
H624 H 0.87388 0.7962 0.65548 0.0
H625 H 0.82916 0.77366 0.59665 0.0
C626 C 0.72256 0.75918 0.5299 0.0
C627 C 0.66491 0.77886 0.53096 0.0
C628 C 0.69373 0.79207 0.56494 0.0
C629 C 0.6334 0.81033 0.56761 0.0
C630 C 0.66104 0.82286 0.60291 0.0
C631 C 0.74727 0.81776 0.63405 0.0
C632 C 0.80711 0.80009 0.63112 0.0
C633 C 0.78069 0.7873 0.59716 0.0
H634 H 0.65612 0.3358 0.53912 0.0
C635 C 0.57339 0.33538 0.51979 0.0
H636 H 0.45934 0.31758 0.48151 0.0
H637 H 0.8651 0.25746 0.42814 0.0
H638 H 0.8 0.2702 0.35811 0.0
H639 H 0.65369 0.29713 0.35404 0.0
H640 H 0.57125 0.31147 0.41983 0.0
C641 C 0.54026 0.31835 0.50156 0.0
C642 C 0.62071 0.30079 0.50438 0.0
C643 C 0.66771 0.2924 0.46545 0.0
C644 C 0.75266 0.27684 0.46774 0.0
C645 C 0.79961 0.26911 0.42834 0.0
C646 C 0.76337 0.27634 0.38788 0.0
C647 C 0.68098 0.2915 0.38559 0.0
C648 C 0.63398 0.29956 0.42374 0.0
H649 H 0.76613 0.23141 0.49615 0.0
C650 C 0.85927 0.2353 0.5042 0.0
H651 H 0.97677 0.25845 0.52154 0.0
H652 H 0.53133 0.31041 0.58517 0.0
H653 H 0.59674 0.29757 0.65507 0.0
H654 H 0.75257 0.27202 0.65897 0.0
H655 H 0.84264 0.25894 0.59286 0.0
C656 C 0.88611 0.25415 0.51158 0.0
C657 C 0.79121 0.26963 0.50891 0.0
C658 C 0.74174 0.27758 0.54776 0.0
C659 C 0.65466 0.29283 0.54553 0.0
C660 C 0.6019 0.29956 0.58493 0.0
C661 C 0.63764 0.29214 0.6253 0.0
C662 C 0.72517 0.27773 0.6275 0.0
C663 C 0.77641 0.2704 0.5893 0.0
loop_
_geom_bond_atom_site_label_1
_geom_bond_atom_site_label_2
_geom_bond_distance
_geom_bond_site_symmetry_2
_ccdc_geom_bond_type
Cu0 N1 1.999 . S
Cu0 O6 1.974 . S
Cu0 N11 1.985 . S
Cu0 O20 1.959 1_554 S
N1 Cu0 1.999 . S
N1 C3 1.263 . S
N1 C5 1.389 1_554 S
N2 C3 1.358 . S
N2 C4 1.400 1_554 S
C3 N1 1.263 . S
C3 N2 1.358 . S
C3 H9 0.930 1_455 S
C4 N2 1.400 1_556 S
C4 C5 1.351 . S
C4 H21 0.930 . S
C5 N1 1.389 1_556 S
C5 C4 1.351 . S
C5 H10 0.930 . S
O6 Cu0 1.974 . S
O6 C16 1.282 . S
C7 O8 1.261 1_455 S
C7 O20 1.251 . S
O8 C7 1.261 1_655 S
H9 C3 0.930 1_655 S
H10 C5 0.930 . S
N11 Cu0 1.985 . S
N11 C13 1.335 1_554 S
N11 C14 1.390 . S
N12 C13 1.345 . S
N12 C15 1.336 1_556 S
C13 N11 1.335 1_556 S
C13 N12 1.345 . S
C13 H18 0.930 . S
C14 N11 1.390 . S
C14 C15 1.346 . S
C14 H19 0.930 . S
C15 N12 1.336 1_554 S
C15 C14 1.346 . S
C15 H22 0.929 . S
C16 O6 1.282 . S
C16 O17 1.216 1_455 S
O17 C16 1.216 1_655 S
H18 C13 0.930 . S
H19 C14 0.930 . S
O20 Cu0 1.959 1_556 S
O20 C7 1.251 . S
H21 C4 0.930 . S
H22 C15 0.929 . S
Cu23 N24 1.999 . S
Cu23 O29 1.974 . S
Cu23 N34 1.985 . S
Cu23 O43 1.959 1_554 S
N24 Cu23 1.999 . S
N24 C26 1.263 . S
N24 C28 1.389 1_554 S
N25 C26 1.358 . S
N25 C27 1.400 1_554 S
C26 N24 1.263 . S
C26 N25 1.358 . S
C26 H32 0.930 1_655 S
C27 N25 1.400 1_556 S
C27 C28 1.351 . S
C27 H44 0.930 . S
C28 N24 1.389 1_556 S
C28 C27 1.351 . S
C28 H33 0.930 . S
O29 Cu23 1.974 . S
O29 C39 1.282 . S
C30 O31 1.261 1_655 S
C30 O43 1.251 . S
O31 C30 1.261 1_455 S
H32 C26 0.930 1_455 S
H33 C28 0.930 . S
N34 Cu23 1.985 . S
N34 C36 1.335 1_554 S
N34 C37 1.390 . S
N35 C36 1.345 . S
N35 C38 1.336 1_556 S
C36 N34 1.335 1_556 S
C36 N35 1.345 . S
C36 H41 0.930 . S
C37 N34 1.390 . S
C37 C38 1.346 . S
C37 H42 0.930 . S
C38 N35 1.336 1_554 S
C38 C37 1.346 . S
C38 H45 0.929 . S
C39 O29 1.282 . S
C39 O40 1.216 1_655 S
O40 C39 1.216 1_455 S
H41 C36 0.930 . S
H42 C37 0.930 . S
O43 Cu23 1.959 1_556 S
O43 C30 1.251 . S
H44 C27 0.930 . S
H45 C38 0.929 . S
Cu46 N47 1.999 . S
Cu46 O52 1.974 . S
Cu46 N57 1.985 . S
Cu46 O66 1.959 . S
N47 Cu46 1.999 . S
N47 C49 1.263 . S
N47 C51 1.389 . S
N48 C49 1.358 . S
N48 C50 1.400 . S
C49 N47 1.263 . S
C49 N48 1.358 . S
C49 H55 0.930 . S
C50 N48 1.400 . S
C50 C51 1.351 . S
C50 H67 0.930 . S
C51 N47 1.389 . S
C51 C50 1.351 . S
C51 H56 0.930 . S
O52 Cu46 1.974 . S
O52 C62 1.282 . S
C53 O54 1.261 1_455 S
C53 O66 1.251 . S
O54 C53 1.261 1_655 S
H55 C49 0.930 . S
H56 C51 0.930 . S
N57 Cu46 1.985 . S
N57 C59 1.335 . S
N57 C60 1.390 . S
N58 C59 1.345 . S
N58 C61 1.336 . S
C59 N57 1.335 . S
C59 N58 1.345 . S
C59 H64 0.930 . S
C60 N57 1.390 . S
C60 C61 1.346 . S
C60 H65 0.930 . S
C61 N58 1.336 . S
C61 C60 1.346 . S
C61 H68 0.929 . S
C62 O52 1.282 . S
C62 O63 1.216 1_455 S
O63 C62 1.216 1_655 S
H64 C59 0.930 . S
H65 C60 0.930 . S
O66 Cu46 1.959 . S
O66 C53 1.251 . S
H67 C50 0.930 . S
H68 C61 0.929 . S
Cu69 N70 1.999 . S
Cu69 O75 1.974 . S
Cu69 N80 1.985 . S
Cu69 O89 1.959 . S
N70 Cu69 1.999 . S
N70 C72 1.263 . S
N70 C74 1.389 . S
N71 C72 1.358 . S
N71 C73 1.400 . S
C72 N70 1.263 . S
C72 N71 1.358 . S
C72 H78 0.930 . S
C73 N71 1.400 . S
C73 C74 1.351 . S
C73 H90 0.930 . S
C74 N70 1.389 . S
C74 C73 1.351 . S
C74 H79 0.930 . S
O75 Cu69 1.974 . S
O75 C85 1.282 . S
C76 O77 1.261 1_655 S
C76 O89 1.251 . S
O77 C76 1.261 1_455 S
H78 C72 0.930 . S
H79 C74 0.930 . S
N80 Cu69 1.985 . S
N80 C82 1.335 . S
N80 C83 1.390 . S
N81 C82 1.345 . S
N81 C84 1.336 . S
C82 N80 1.335 . S
C82 N81 1.345 . S
C82 H87 0.930 . S
C83 N80 1.390 . S
C83 C84 1.346 . S
C83 H88 0.930 . S
C84 N81 1.336 . S
C84 C83 1.346 . S
C84 H91 0.929 . S
C85 O75 1.282 . S
C85 O86 1.216 1_655 S
O86 C85 1.216 1_455 S
H87 C82 0.930 . S
H88 C83 0.930 . S
O89 Cu69 1.959 . S
O89 C76 1.251 . S
H90 C73 0.930 . S
H91 C84 0.929 . S
Cu92 N93 1.999 . S
Cu92 O98 1.974 . S
Cu92 N103 1.985 . S
Cu92 O112 1.959 1_554 S
N93 Cu92 1.999 . S
N93 C95 1.263 . S
N93 C97 1.389 1_554 S
N94 C95 1.358 . S
N94 C96 1.400 1_554 S
C95 N93 1.263 . S
C95 N94 1.358 . S
C95 H101 0.930 . S
C96 N94 1.400 1_556 S
C96 C97 1.351 . S
C96 H113 0.930 . S
C97 N93 1.389 1_556 S
C97 C96 1.351 . S
C97 H102 0.930 . S
O98 Cu92 1.974 . S
O98 C108 1.282 . S
C99 O100 1.261 . S
C99 O112 1.251 . S
O100 C99 1.261 . S
H101 C95 0.930 . S
H102 C97 0.930 . S
N103 Cu92 1.985 . S
N103 C105 1.335 1_554 S
N103 C106 1.390 . S
N104 C105 1.345 . S
N104 C107 1.336 1_556 S
C105 N103 1.335 1_556 S
C105 N104 1.345 . S
C105 H110 0.930 . S
C106 N103 1.390 . S
C106 C107 1.346 . S
C106 H111 0.930 . S
C107 N104 1.336 1_554 S
C107 C106 1.346 . S
C107 H114 0.929 . S
C108 O98 1.282 . S
C108 O109 1.216 . S
O109 C108 1.216 . S
H110 C105 0.930 . S
H111 C106 0.930 . S
O112 Cu92 1.959 1_556 S
O112 C99 1.251 . S
H113 C96 0.930 . S
H114 C107 0.929 . S
Cu115 N116 1.999 . S
Cu115 O121 1.974 . S
Cu115 N126 1.985 . S
Cu115 O135 1.959 1_554 S
N116 Cu115 1.999 . S
N116 C118 1.263 . S
N116 C120 1.389 1_554 S
N117 C118 1.358 . S
N117 C119 1.400 1_554 S
C118 N116 1.263 . S
C118 N117 1.358 . S
C118 H124 0.930 . S
C119 N117 1.400 1_556 S
C119 C120 1.351 . S
C119 H136 0.930 . S
C120 N116 1.389 1_556 S
C120 C119 1.351 . S
C120 H125 0.930 . S
O121 Cu115 1.974 . S
O121 C131 1.282 . S
C122 O123 1.261 . S
C122 O135 1.251 . S
O123 C122 1.261 . S
H124 C118 0.930 . S
H125 C120 0.930 . S
N126 Cu115 1.985 . S
N126 C128 1.335 1_554 S
N126 C129 1.390 . S
N127 C128 1.345 . S
N127 C130 1.336 1_556 S
C128 N126 1.335 1_556 S
C128 N127 1.345 . S
C128 H133 0.930 . S
C129 N126 1.390 . S
C129 C130 1.346 . S
C129 H134 0.930 . S
C130 N127 1.336 1_554 S
C130 C129 1.346 . S
C130 H137 0.929 . S
C131 O121 1.282 . S
C131 O132 1.216 . S
O132 C131 1.216 . S
H133 C128 0.930 . S
H134 C129 0.930 . S
O135 Cu115 1.959 1_556 S
O135 C122 1.251 . S
H136 C119 0.930 . S
H137 C130 0.929 . S
Cu138 N139 1.999 . S
Cu138 O144 1.974 . S
Cu138 N149 1.985 . S
Cu138 O158 1.959 . S
N139 Cu138 1.999 . S
N139 C141 1.263 . S
N139 C143 1.389 . S
N140 C141 1.358 . S
N140 C142 1.400 . S
C141 N139 1.263 . S
C141 N140 1.358 . S
C141 H147 0.930 . S
C142 N140 1.400 . S
C142 C143 1.351 . S
C142 H159 0.930 . S
C143 N139 1.389 . S
C143 C142 1.351 . S
C143 H148 0.930 . S
O144 Cu138 1.974 . S
O144 C154 1.282 . S
C145 O146 1.261 . S
C145 O158 1.251 . S
O146 C145 1.261 . S
H147 C141 0.930 . S
H148 C143 0.930 . S
N149 Cu138 1.985 . S
N149 C151 1.335 . S
N149 C152 1.390 . S
N150 C151 1.345 . S
N150 C153 1.336 . S
C151 N149 1.335 . S
C151 N150 1.345 . S
C151 H156 0.930 . S
C152 N149 1.390 . S
C152 C153 1.346 . S
C152 H157 0.930 . S
C153 N150 1.336 . S
C153 C152 1.346 . S
C153 H160 0.929 . S
C154 O144 1.282 . S
C154 O155 1.216 . S
O155 C154 1.216 . S
H156 C151 0.930 . S
H157 C152 0.930 . S
O158 Cu138 1.959 . S
O158 C145 1.251 . S
H159 C142 0.930 . S
H160 C153 0.929 . S
Cu161 N162 1.999 . S
Cu161 O167 1.974 . S
Cu161 N172 1.985 . S
Cu161 O181 1.959 . S
N162 Cu161 1.999 . S
N162 C164 1.263 . S
N162 C166 1.389 . S
N163 C164 1.358 . S
N163 C165 1.400 . S
C164 N162 1.263 . S
C164 N163 1.358 . S
C164 H170 0.930 . S
C165 N163 1.400 . S
C165 C166 1.351 . S
C165 H182 0.930 . S
C166 N162 1.389 . S
C166 C165 1.351 . S
C166 H171 0.930 . S
O167 Cu161 1.974 . S
O167 C177 1.282 . S
C168 O169 1.261 . S
C168 O181 1.251 . S
O169 C168 1.261 . S
H170 C164 0.930 . S
H171 C166 0.930 . S
N172 Cu161 1.985 . S
N172 C174 1.335 . S
N172 C175 1.390 . S
N173 C174 1.345 . S
N173 C176 1.336 . S
C174 N172 1.335 . S
C174 N173 1.345 . S
C174 H179 0.930 . S
C175 N172 1.390 . S
C175 C176 1.346 . S
C175 H180 0.930 . S
C176 N173 1.336 . S
C176 C175 1.346 . S
C176 H183 0.929 . S
C177 O167 1.282 . S
C177 O178 1.216 . S
O178 C177 1.216 . S
H179 C174 0.930 . S
H180 C175 0.930 . S
O181 Cu161 1.959 . S
O181 C168 1.251 . S
H182 C165 0.930 . S
H183 C176 0.929 . S
H184 C185 0.951 1_455 S
C185 H184 0.951 1_655 S
C185 C191 1.265 . S
H186 C191 0.950 . S
H187 C195 0.949 . S
H188 C196 0.950 . S
H189 C197 0.951 . S
H190 C198 0.951 . S
C191 C185 1.265 . S
C191 H186 0.950 . S
C191 C192 1.478 . S
C192 C191 1.478 . S
C192 C193 1.397 . S
C192 C209 1.394 1_654 S
C193 C192 1.397 . S
C193 C194 1.438 1_565 S
C193 C198 1.429 . S
C194 C193 1.438 1_545 S
C194 C195 1.428 . S
C194 C207 1.394 1_655 S
C195 H187 0.949 . S
C195 C194 1.428 . S
C195 C196 1.345 . S
C196 H188 0.950 . S
C196 C195 1.345 . S
C196 C197 1.424 1_545 S
C197 H189 0.951 . S
C197 C196 1.424 1_565 S
C197 C198 1.347 . S
C198 H190 0.951 . S
C198 C193 1.429 . S
C198 C197 1.347 . S
H199 C200 0.951 1_655 S
C200 H199 0.951 1_455 S
C200 C206 1.265 . S
H201 C206 0.950 . S
H202 C210 0.949 . S
H203 C211 0.950 . S
H204 C212 0.951 . S
H205 C213 0.951 . S
C206 C200 1.265 . S
C206 H201 0.950 . S
C206 C207 1.478 . S
C207 C194 1.394 1_455 S
C207 C206 1.478 . S
C207 C208 1.397 1_554 S
C208 C207 1.397 1_556 S
C208 C209 1.438 1_545 S
C208 C213 1.429 . S
C209 C192 1.394 1_456 S
C209 C208 1.438 1_565 S
C209 C210 1.428 . S
C210 H202 0.949 . S
C210 C209 1.428 . S
C210 C211 1.345 . S
C211 H203 0.950 . S
C211 C210 1.345 . S
C211 C212 1.424 1_565 S
C212 H204 0.951 . S
C212 C211 1.424 1_545 S
C212 C213 1.347 . S
C213 H205 0.951 . S
C213 C208 1.429 . S
C213 C212 1.347 . S
H214 C215 0.951 1_655 S
C215 H214 0.951 1_455 S
C215 C221 1.265 . S
H216 C221 0.950 . S
H217 C225 0.949 . S
H218 C226 0.950 . S
H219 C227 0.951 . S
H220 C228 0.951 . S
C221 C215 1.265 . S
C221 H216 0.950 . S
C221 C222 1.478 . S
C222 C221 1.478 . S
C222 C223 1.397 . S
C222 C239 1.394 1_455 S
C223 C222 1.397 . S
C223 C224 1.438 1_565 S
C223 C228 1.429 . S
C224 C223 1.438 1_545 S
C224 C225 1.428 . S
C224 C237 1.394 1_455 S
C225 H217 0.949 . S
C225 C224 1.428 . S
C225 C226 1.345 . S
C226 H218 0.950 . S
C226 C225 1.345 . S
C226 C227 1.424 1_545 S
C227 H219 0.951 . S
C227 C226 1.424 1_565 S
C227 C228 1.347 . S
C228 H220 0.951 . S
C228 C223 1.429 . S
C228 C227 1.347 . S
H229 C230 0.951 1_455 S
C230 H229 0.951 1_655 S
C230 C236 1.265 . S
H231 C236 0.950 . S
H232 C240 0.949 . S
H233 C241 0.950 . S
H234 C242 0.951 . S
H235 C243 0.951 . S
C236 C230 1.265 . S
C236 H231 0.950 . S
C236 C237 1.478 . S
C237 C224 1.394 1_655 S
C237 C236 1.478 . S
C237 C238 1.397 . S
C238 C237 1.397 . S
C238 C239 1.438 1_545 S
C238 C243 1.429 . S
C239 C222 1.394 1_655 S
C239 C238 1.438 1_565 S
C239 C240 1.428 . S
C240 H232 0.949 . S
C240 C239 1.428 . S
C240 C241 1.345 . S
C241 H233 0.950 . S
C241 C240 1.345 . S
C241 C242 1.424 1_565 S
C242 H234 0.951 . S
C242 C241 1.424 1_545 S
C242 C243 1.347 . S
C243 H235 0.951 . S
C243 C238 1.429 . S
C243 C242 1.347 . S
H244 C245 0.951 . S
C245 H244 0.951 . S
C245 C251 1.265 . S
H246 C251 0.950 . S
H247 C255 0.949 . S
H248 C256 0.950 . S
H249 C257 0.951 . S
H250 C258 0.951 . S
C251 C245 1.265 . S
C251 H246 0.950 . S
C251 C252 1.478 . S
C252 C251 1.478 . S
C252 C253 1.397 1_554 S
C252 C269 1.394 . S
C253 C252 1.397 1_556 S
C253 C254 1.438 . S
C253 C258 1.429 . S
C254 C253 1.438 . S
C254 C255 1.428 . S
C254 C267 1.394 1_556 S
C255 H247 0.949 . S
C255 C254 1.428 . S
C255 C256 1.345 . S
C256 H248 0.950 . S
C256 C255 1.345 . S
C256 C257 1.424 . S
C257 H249 0.951 . S
C257 C256 1.424 . S
C257 C258 1.347 . S
C258 H250 0.951 . S
C258 C253 1.429 . S
C258 C257 1.347 . S
H259 C260 0.951 . S
C260 H259 0.951 . S
C260 C266 1.265 . S
H261 C266 0.950 . S
H262 C270 0.949 . S
H263 C271 0.950 . S
H264 C272 0.951 . S
H265 C273 0.951 . S
C266 C260 1.265 . S
C266 H261 0.950 . S
C266 C267 1.478 . S
C267 C254 1.394 1_554 S
C267 C266 1.478 . S
C267 C268 1.397 . S
C268 C267 1.397 . S
C268 C269 1.438 . S
C268 C273 1.429 . S
C269 C252 1.394 . S
C269 C268 1.438 . S
C269 C270 1.428 . S
C270 H262 0.949 . S
C270 C269 1.428 . S
C270 C271 1.345 . S
C271 H263 0.950 . S
C271 C270 1.345 . S
C271 C272 1.424 . S
C272 H264 0.951 . S
C272 C271 1.424 . S
C272 C273 1.347 . S
C273 H265 0.951 . S
C273 C268 1.429 . S
C273 C272 1.347 . S
H274 C275 0.951 . S
C275 H274 0.951 . S
C275 C281 1.265 . S
H276 C281 0.950 . S
H277 C285 0.949 . S
H278 C286 0.950 . S
H279 C287 0.951 . S
H280 C288 0.951 . S
C281 C275 1.265 . S
C281 H276 0.950 . S
C281 C282 1.478 . S
C282 C281 1.478 . S
C282 C283 1.397 . S
C282 C299 1.394 . S
C283 C282 1.397 . S
C283 C284 1.438 . S
C283 C288 1.429 . S
C284 C283 1.438 . S
C284 C285 1.428 . S
C284 C297 1.394 . S
C285 H277 0.949 . S
C285 C284 1.428 . S
C285 C286 1.345 . S
C286 H278 0.950 . S
C286 C285 1.345 . S
C286 C287 1.424 . S
C287 H279 0.951 . S
C287 C286 1.424 . S
C287 C288 1.347 . S
C288 H280 0.951 . S
C288 C283 1.429 . S
C288 C287 1.347 . S
H289 C290 0.951 . S
C290 H289 0.951 . S
C290 C296 1.265 . S
H291 C296 0.950 . S
H292 C300 0.949 . S
H293 C301 0.950 . S
H294 C302 0.951 . S
H295 C303 0.951 . S
C296 C290 1.265 . S
C296 H291 0.950 . S
C296 C297 1.478 . S
C297 C284 1.394 . S
C297 C296 1.478 . S
C297 C298 1.397 . S
C298 C297 1.397 . S
C298 C299 1.438 . S
C298 C303 1.429 . S
C299 C282 1.394 . S
C299 C298 1.438 . S
C299 C300 1.428 . S
C300 H292 0.949 . S
C300 C299 1.428 . S
C300 C301 1.345 . S
C301 H293 0.950 . S
C301 C300 1.345 . S
C301 C302 1.424 . S
C302 H294 0.951 . S
C302 C301 1.424 . S
C302 C303 1.347 . S
C303 H295 0.951 . S
C303 C298 1.429 . S
C303 C302 1.347 . S
H304 C305 0.951 . S
C305 H304 0.951 . S
C305 C311 1.265 1_455 S
H306 C311 0.950 . S
H307 C315 0.949 . S
H308 C316 0.950 . S
H309 C317 0.951 . S
H310 C318 0.951 . S
C311 C305 1.265 1_655 S
C311 H306 0.950 . S
C311 C312 1.478 . S
C312 C311 1.478 . S
C312 C313 1.397 . S
C312 C329 1.394 1_655 S
C313 C312 1.397 . S
C313 C314 1.438 . S
C313 C318 1.429 . S
C314 C313 1.438 . S
C314 C315 1.428 . S
C314 C327 1.394 1_655 S
C315 H307 0.949 . S
C315 C314 1.428 . S
C315 C316 1.345 . S
C316 H308 0.950 . S
C316 C315 1.345 . S
C316 C317 1.424 . S
C317 H309 0.951 . S
C317 C316 1.424 . S
C317 C318 1.347 . S
C318 H310 0.951 . S
C318 C313 1.429 . S
C318 C317 1.347 . S
H319 C320 0.951 . S
C320 H319 0.951 . S
C320 C326 1.265 1_655 S
H321 C326 0.950 . S
H322 C330 0.949 . S
H323 C331 0.950 . S
H324 C332 0.951 . S
H325 C333 0.951 . S
C326 C320 1.265 1_455 S
C326 H321 0.950 . S
C326 C327 1.478 . S
C327 C314 1.394 1_455 S
C327 C326 1.478 . S
C327 C328 1.397 . S
C328 C327 1.397 . S
C328 C329 1.438 . S
C328 C333 1.429 . S
C329 C312 1.394 1_455 S
C329 C328 1.438 . S
C329 C330 1.428 . S
C330 H322 0.949 . S
C330 C329 1.428 . S
C330 C331 1.345 . S
C331 H323 0.950 . S
C331 C330 1.345 . S
C331 C332 1.424 . S
C332 H324 0.951 . S
C332 C331 1.424 . S
C332 C333 1.347 . S
C333 H325 0.951 . S
C333 C328 1.429 . S
C333 C332 1.347 . S
H334 C335 0.951 1_655 S
C335 H334 0.951 1_455 S
C335 C341 1.265 . S
H336 C341 0.950 . S
H337 C345 0.949 . S
H338 C346 0.950 . S
H339 C347 0.951 . S
H340 C348 0.951 . S
C341 C335 1.265 . S
C341 H336 0.950 . S
C341 C342 1.478 . S
C342 C341 1.478 . S
C342 C343 1.397 . S
C342 C359 1.394 1_455 S
C343 C342 1.397 . S
C343 C344 1.438 . S
C343 C348 1.429 . S
C344 C343 1.438 . S
C344 C345 1.428 . S
C344 C357 1.394 1_455 S
C345 H337 0.949 . S
C345 C344 1.428 . S
C345 C346 1.345 . S
C346 H338 0.950 . S
C346 C345 1.345 . S
C346 C347 1.424 . S
C347 H339 0.951 . S
C347 C346 1.424 . S
C347 C348 1.347 . S
C348 H340 0.951 . S
C348 C343 1.429 . S
C348 C347 1.347 . S
H349 C350 0.951 . S
C350 H349 0.951 . S
C350 C356 1.265 1_455 S
H351 C356 0.950 . S
H352 C360 0.949 . S
H353 C361 0.950 . S
H354 C362 0.951 . S
H355 C363 0.951 . S
C356 C350 1.265 1_655 S
C356 H351 0.950 . S
C356 C357 1.478 . S
C357 C344 1.394 1_655 S
C357 C356 1.478 . S
C357 C358 1.397 . S
C358 C357 1.397 . S
C358 C359 1.438 . S
C358 C363 1.429 . S
C359 C342 1.394 1_655 S
C359 C358 1.438 . S
C359 C360 1.428 . S
C360 H352 0.949 . S
C360 C359 1.428 . S
C360 C361 1.345 . S
C361 H353 0.950 . S
C361 C360 1.345 . S
C361 C362 1.424 . S
C362 H354 0.951 . S
C362 C361 1.424 . S
C362 C363 1.347 . S
C363 H355 0.951 . S
C363 C358 1.429 . S
C363 C362 1.347 . S
H364 C365 0.951 1_655 S
C365 H364 0.951 1_455 S
C365 C371 1.265 . S
H366 C371 0.950 . S
H367 C375 0.949 . S
H368 C376 0.950 . S
H369 C377 0.951 . S
H370 C378 0.951 . S
C371 C365 1.265 . S
C371 H366 0.950 . S
C371 C372 1.478 . S
C372 C371 1.478 . S
C372 C373 1.397 . S
C372 C389 1.394 1_455 S
C373 C372 1.397 . S
C373 C374 1.438 . S
C373 C378 1.429 . S
C374 C373 1.438 . S
C374 C375 1.428 . S
C374 C387 1.394 1_455 S
C375 H367 0.949 . S
C375 C374 1.428 . S
C375 C376 1.345 . S
C376 H368 0.950 . S
C376 C375 1.345 . S
C376 C377 1.424 . S
C377 H369 0.951 . S
C377 C376 1.424 . S
C377 C378 1.347 . S
C378 H370 0.951 . S
C378 C373 1.429 . S
C378 C377 1.347 . S
H379 C380 0.951 1_455 S
C380 H379 0.951 1_655 S
C380 C386 1.265 . S
H381 C386 0.950 . S
H382 C390 0.949 . S
H383 C391 0.950 . S
H384 C392 0.951 . S
H385 C393 0.951 . S
C386 C380 1.265 . S
C386 H381 0.950 . S
C386 C387 1.478 . S
C387 C374 1.394 1_655 S
C387 C386 1.478 . S
C387 C388 1.397 . S
C388 C387 1.397 . S
C388 C389 1.438 . S
C388 C393 1.429 . S
C389 C372 1.394 1_655 S
C389 C388 1.438 . S
C389 C390 1.428 . S
C390 H382 0.949 . S
C390 C389 1.428 . S
C390 C391 1.345 . S
C391 H383 0.950 . S
C391 C390 1.345 . S
C391 C392 1.424 . S
C392 H384 0.951 . S
C392 C391 1.424 . S
C392 C393 1.347 . S
C393 H385 0.951 . S
C393 C388 1.429 . S
C393 C392 1.347 . S
H394 C395 0.951 . S
C395 H394 0.951 . S
C395 C401 1.265 1_455 S
H396 C401 0.950 . S
H397 C405 0.949 . S
H398 C406 0.950 . S
H399 C407 0.951 . S
H400 C408 0.951 . S
C401 C395 1.265 1_655 S
C401 H396 0.950 . S
C401 C402 1.478 . S
C402 C401 1.478 . S
C402 C403 1.397 . S
C402 C419 1.394 1_655 S
C403 C402 1.397 . S
C403 C404 1.438 . S
C403 C408 1.429 . S
C404 C403 1.438 . S
C404 C405 1.428 . S
C404 C417 1.394 1_655 S
C405 H397 0.949 . S
C405 C404 1.428 . S
C405 C406 1.345 . S
C406 H398 0.950 . S
C406 C405 1.345 . S
C406 C407 1.424 . S
C407 H399 0.951 . S
C407 C406 1.424 . S
C407 C408 1.347 . S
C408 H400 0.951 . S
C408 C403 1.429 . S
C408 C407 1.347 . S
H409 C410 0.951 . S
C410 H409 0.951 . S
C410 C416 1.265 1_655 S
H411 C416 0.950 . S
H412 C420 0.949 . S
H413 C421 0.950 . S
H414 C422 0.951 . S
H415 C423 0.951 . S
C416 C410 1.265 1_455 S
C416 H411 0.950 . S
C416 C417 1.478 . S
C417 C404 1.394 1_455 S
C417 C416 1.478 . S
C417 C418 1.397 . S
C418 C417 1.397 . S
C418 C419 1.438 . S
C418 C423 1.429 . S
C419 C402 1.394 1_455 S
C419 C418 1.438 . S
C419 C420 1.428 . S
C420 H412 0.949 . S
C420 C419 1.428 . S
C420 C421 1.345 . S
C421 H413 0.950 . S
C421 C420 1.345 . S
C421 C422 1.424 . S
C422 H414 0.951 . S
C422 C421 1.424 . S
C422 C423 1.347 . S
C423 H415 0.951 . S
C423 C418 1.429 . S
C423 C422 1.347 . S
H424 C425 0.951 . S
C425 H424 0.951 . S
C425 C431 1.265 . S
H426 C431 0.950 . S
H427 C435 0.949 . S
H428 C436 0.950 . S
H429 C437 0.951 . S
H430 C438 0.951 . S
C431 C425 1.265 . S
C431 H426 0.950 . S
C431 C432 1.478 . S
C432 C431 1.478 . S
C432 C433 1.397 . S
C432 C449 1.394 . S
C433 C432 1.397 . S
C433 C434 1.438 . S
C433 C438 1.429 . S
C434 C433 1.438 . S
C434 C435 1.428 . S
C434 C447 1.394 . S
C435 H427 0.949 . S
C435 C434 1.428 . S
C435 C436 1.345 . S
C436 H428 0.950 . S
C436 C435 1.345 . S
C436 C437 1.424 . S
C437 H429 0.951 . S
C437 C436 1.424 . S
C437 C438 1.347 . S
C438 H430 0.951 . S
C438 C433 1.429 . S
C438 C437 1.347 . S
H439 C440 0.951 . S
C440 H439 0.951 . S
C440 C446 1.265 . S
H441 C446 0.950 . S
H442 C450 0.949 . S
H443 C451 0.950 . S
H444 C452 0.951 . S
H445 C453 0.951 . S
C446 C440 1.265 . S
C446 H441 0.950 . S
C446 C447 1.478 . S
C447 C434 1.394 . S
C447 C446 1.478 . S
C447 C448 1.397 . S
C448 C447 1.397 . S
C448 C449 1.438 . S
C448 C453 1.429 . S
C449 C432 1.394 . S
C449 C448 1.438 . S
C449 C450 1.428 . S
C450 H442 0.949 . S
C450 C449 1.428 . S
C450 C451 1.345 . S
C451 H443 0.950 . S
C451 C450 1.345 . S
C451 C452 1.424 . S
C452 H444 0.951 . S
C452 C451 1.424 . S
C452 C453 1.347 . S
C453 H445 0.951 . S
C453 C448 1.429 . S
C453 C452 1.347 . S
H454 C455 0.951 . S
C455 H454 0.951 . S
C455 C461 1.265 . S
H456 C461 0.950 . S
H457 C465 0.949 . S
H458 C466 0.950 . S
H459 C467 0.951 . S
H460 C468 0.951 . S
C461 C455 1.265 . S
C461 H456 0.950 . S
C461 C462 1.478 . S
C462 C461 1.478 . S
C462 C463 1.397 . S
C462 C479 1.394 . S
C463 C462 1.397 . S
C463 C464 1.438 . S
C463 C468 1.429 . S
C464 C463 1.438 . S
C464 C465 1.428 . S
C464 C477 1.394 . S
C465 H457 0.949 . S
C465 C464 1.428 . S
C465 C466 1.345 . S
C466 H458 0.950 . S
C466 C465 1.345 . S
C466 C467 1.424 . S
C467 H459 0.951 . S
C467 C466 1.424 . S
C467 C468 1.347 . S
C468 H460 0.951 . S
C468 C463 1.429 . S
C468 C467 1.347 . S
H469 C470 0.951 . S
C470 H469 0.951 . S
C470 C476 1.265 . S
H471 C476 0.950 . S
H472 C480 0.949 . S
H473 C481 0.950 . S
H474 C482 0.951 . S
H475 C483 0.951 . S
C476 C470 1.265 . S
C476 H471 0.950 . S
C476 C477 1.478 . S
C477 C464 1.394 . S
C477 C476 1.478 . S
C477 C478 1.397 . S
C478 C477 1.397 . S
C478 C479 1.438 . S
C478 C483 1.429 . S
C479 C462 1.394 . S
C479 C478 1.438 . S
C479 C480 1.428 . S
C480 H472 0.949 . S
C480 C479 1.428 . S
C480 C481 1.345 . S
C481 H473 0.950 . S
C481 C480 1.345 . S
C481 C482 1.424 . S
C482 H474 0.951 . S
C482 C481 1.424 . S
C482 C483 1.347 . S
C483 H475 0.951 . S
C483 C478 1.429 . S
C483 C482 1.347 . S
H484 C485 0.951 . S
C485 H484 0.951 . S
C485 C491 1.265 . S
H486 C491 0.950 . S
H487 C495 0.949 . S
H488 C496 0.950 . S
H489 C497 0.951 . S
H490 C498 0.951 . S
C491 C485 1.265 . S
C491 H486 0.950 . S
C491 C492 1.478 . S
C492 C491 1.478 . S
C492 C493 1.397 . S
C492 C509 1.394 . S
C493 C492 1.397 . S
C493 C494 1.438 . S
C493 C498 1.429 . S
C494 C493 1.438 . S
C494 C495 1.428 . S
C494 C507 1.394 . S
C495 H487 0.949 . S
C495 C494 1.428 . S
C495 C496 1.345 . S
C496 H488 0.950 . S
C496 C495 1.345 . S
C496 C497 1.424 . S
C497 H489 0.951 . S
C497 C496 1.424 . S
C497 C498 1.347 . S
C498 H490 0.951 . S
C498 C493 1.429 . S
C498 C497 1.347 . S
H499 C500 0.951 . S
C500 H499 0.951 . S
C500 C506 1.265 . S
H501 C506 0.950 . S
H502 C510 0.949 . S
H503 C511 0.950 . S
H504 C512 0.951 . S
H505 C513 0.951 . S
C506 C500 1.265 . S
C506 H501 0.950 . S
C506 C507 1.478 . S
C507 C494 1.394 . S
C507 C506 1.478 . S
C507 C508 1.397 . S
C508 C507 1.397 . S
C508 C509 1.438 . S
C508 C513 1.429 . S
C509 C492 1.394 . S
C509 C508 1.438 . S
C509 C510 1.428 . S
C510 H502 0.949 . S
C510 C509 1.428 . S
C510 C511 1.345 . S
C511 H503 0.950 . S
C511 C510 1.345 . S
C511 C512 1.424 . S
C512 H504 0.951 . S
C512 C511 1.424 . S
C512 C513 1.347 . S
C513 H505 0.951 . S
C513 C508 1.429 . S
C513 C512 1.347 . S
H514 C515 0.951 . S
C515 H514 0.951 . S
C515 C521 1.265 . S
H516 C521 0.950 . S
H517 C525 0.949 . S
H518 C526 0.950 . S
H519 C527 0.951 . S
H520 C528 0.951 . S
C521 C515 1.265 . S
C521 H516 0.950 . S
C521 C522 1.478 . S
C522 C521 1.478 . S
C522 C523 1.397 . S
C522 C539 1.394 . S
C523 C522 1.397 . S
C523 C524 1.438 . S
C523 C528 1.429 . S
C524 C523 1.438 . S
C524 C525 1.428 . S
C524 C537 1.394 . S
C525 H517 0.949 . S
C525 C524 1.428 . S
C525 C526 1.345 . S
C526 H518 0.950 . S
C526 C525 1.345 . S
C526 C527 1.424 . S
C527 H519 0.951 . S
C527 C526 1.424 . S
C527 C528 1.347 . S
C528 H520 0.951 . S
C528 C523 1.429 . S
C528 C527 1.347 . S
H529 C530 0.951 . S
C530 H529 0.951 . S
C530 C536 1.265 . S
H531 C536 0.950 . S
H532 C540 0.949 . S
H533 C541 0.950 . S
H534 C542 0.951 . S
H535 C543 0.951 . S
C536 C530 1.265 . S
C536 H531 0.950 . S
C536 C537 1.478 . S
C537 C524 1.394 . S
C537 C536 1.478 . S
C537 C538 1.397 . S
C538 C537 1.397 . S
C538 C539 1.438 . S
C538 C543 1.429 . S
C539 C522 1.394 . S
C539 C538 1.438 . S
C539 C540 1.428 . S
C540 H532 0.949 . S
C540 C539 1.428 . S
C540 C541 1.345 . S
C541 H533 0.950 . S
C541 C540 1.345 . S
C541 C542 1.424 . S
C542 H534 0.951 . S
C542 C541 1.424 . S
C542 C543 1.347 . S
C543 H535 0.951 . S
C543 C538 1.429 . S
C543 C542 1.347 . S
H544 C545 0.951 . S
C545 H544 0.951 . S
C545 C551 1.265 . S
H546 C551 0.950 . S
H547 C555 0.949 . S
H548 C556 0.950 . S
H549 C557 0.951 . S
H550 C558 0.951 . S
C551 C545 1.265 . S
C551 H546 0.950 . S
C551 C552 1.478 . S
C552 C551 1.478 . S
C552 C553 1.397 1_556 S
C552 C569 1.394 . S
C553 C552 1.397 1_554 S
C553 C554 1.438 . S
C553 C558 1.429 . S
C554 C553 1.438 . S
C554 C555 1.428 . S
C554 C567 1.394 1_554 S
C555 H547 0.949 . S
C555 C554 1.428 . S
C555 C556 1.345 . S
C556 H548 0.950 . S
C556 C555 1.345 . S
C556 C557 1.424 . S
C557 H549 0.951 . S
C557 C556 1.424 . S
C557 C558 1.347 . S
C558 H550 0.951 . S
C558 C553 1.429 . S
C558 C557 1.347 . S
H559 C560 0.951 . S
C560 H559 0.951 . S
C560 C566 1.265 . S
H561 C566 0.950 . S
H562 C570 0.949 . S
H563 C571 0.950 . S
H564 C572 0.951 . S
H565 C573 0.951 . S
C566 C560 1.265 . S
C566 H561 0.950 . S
C566 C567 1.478 . S
C567 C554 1.394 1_556 S
C567 C566 1.478 . S
C567 C568 1.397 . S
C568 C567 1.397 . S
C568 C569 1.438 . S
C568 C573 1.429 . S
C569 C552 1.394 . S
C569 C568 1.438 . S
C569 C570 1.428 . S
C570 H562 0.949 . S
C570 C569 1.428 . S
C570 C571 1.345 . S
C571 H563 0.950 . S
C571 C570 1.345 . S
C571 C572 1.424 . S
C572 H564 0.951 . S
C572 C571 1.424 . S
C572 C573 1.347 . S
C573 H565 0.951 . S
C573 C568 1.429 . S
C573 C572 1.347 . S
H574 C575 0.951 . S
C575 H574 0.951 . S
C575 C581 1.265 . S
H576 C581 0.950 . S
H577 C585 0.949 . S
H578 C586 0.950 . S
H579 C587 0.951 . S
H580 C588 0.951 . S
C581 C575 1.265 . S
C581 H576 0.950 . S
C581 C582 1.478 . S
C582 C581 1.478 . S
C582 C583 1.397 1_556 S
C582 C599 1.394 . S
C583 C582 1.397 1_554 S
C583 C584 1.438 . S
C583 C588 1.429 . S
C584 C583 1.438 . S
C584 C585 1.428 . S
C584 C597 1.394 1_554 S
C585 H577 0.949 . S
C585 C584 1.428 . S
C585 C586 1.345 . S
C586 H578 0.950 . S
C586 C585 1.345 . S
C586 C587 1.424 . S
C587 H579 0.951 . S
C587 C586 1.424 . S
C587 C588 1.347 . S
C588 H580 0.951 . S
C588 C583 1.429 . S
C588 C587 1.347 . S
H589 C590 0.951 . S
C590 H589 0.951 . S
C590 C596 1.265 . S
H591 C596 0.950 . S
H592 C600 0.949 . S
H593 C601 0.950 . S
H594 C602 0.951 . S
H595 C603 0.951 . S
C596 C590 1.265 . S
C596 H591 0.950 . S
C596 C597 1.478 . S
C597 C584 1.394 1_556 S
C597 C596 1.478 . S
C597 C598 1.397 . S
C598 C597 1.397 . S
C598 C599 1.438 . S
C598 C603 1.429 . S
C599 C582 1.394 . S
C599 C598 1.438 . S
C599 C600 1.428 . S
C600 H592 0.949 . S
C600 C599 1.428 . S
C600 C601 1.345 . S
C601 H593 0.950 . S
C601 C600 1.345 . S
C601 C602 1.424 . S
C602 H594 0.951 . S
C602 C601 1.424 . S
C602 C603 1.347 . S
C603 H595 0.951 . S
C603 C598 1.429 . S
C603 C602 1.347 . S
H604 C605 0.951 . S
C605 H604 0.951 . S
C605 C611 1.265 . S
H606 C611 0.950 . S
H607 C615 0.949 . S
H608 C616 0.950 . S
H609 C617 0.951 1_655 S
H610 C618 0.951 . S
C611 C605 1.265 . S
C611 H606 0.950 . S
C611 C612 1.478 . S
C612 C611 1.478 . S
C612 C613 1.397 . S
C612 C629 1.394 . S
C613 C612 1.397 . S
C613 C614 1.438 . S
C613 C618 1.429 . S
C614 C613 1.438 . S
C614 C615 1.428 . S
C614 C627 1.394 . S
C615 H607 0.949 . S
C615 C614 1.428 . S
C615 C616 1.345 . S
C616 H608 0.950 . S
C616 C615 1.345 . S
C616 C617 1.424 . S
C617 H609 0.951 1_455 S
C617 C616 1.424 . S
C617 C618 1.347 . S
C618 H610 0.951 . S
C618 C613 1.429 . S
C618 C617 1.347 . S
H619 C620 0.951 . S
C620 H619 0.951 . S
C620 C626 1.265 . S
H621 C626 0.950 . S
H622 C630 0.949 . S
H623 C631 0.950 . S
H624 C632 0.951 . S
H625 C633 0.951 . S
C626 C620 1.265 . S
C626 H621 0.950 . S
C626 C627 1.478 . S
C627 C614 1.394 . S
C627 C626 1.478 . S
C627 C628 1.397 . S
C628 C627 1.397 . S
C628 C629 1.438 . S
C628 C633 1.429 . S
C629 C612 1.394 . S
C629 C628 1.438 . S
C629 C630 1.428 . S
C630 H622 0.949 . S
C630 C629 1.428 . S
C630 C631 1.345 . S
C631 H623 0.950 . S
C631 C630 1.345 . S
C631 C632 1.424 . S
C632 H624 0.951 . S
C632 C631 1.424 . S
C632 C633 1.347 . S
C633 H625 0.951 . S
C633 C628 1.429 . S
C633 C632 1.347 . S
H634 C635 0.951 . S
C635 H634 0.951 . S
C635 C641 1.265 . S
H636 C641 0.950 . S
H637 C645 0.949 . S
H638 C646 0.950 . S
H639 C647 0.951 . S
H640 C648 0.951 . S
C641 C635 1.265 . S
C641 H636 0.950 . S
C641 C642 1.478 . S
C642 C641 1.478 . S
C642 C643 1.397 . S
C642 C659 1.394 . S
C643 C642 1.397 . S
C643 C644 1.438 . S
C643 C648 1.429 . S
C644 C643 1.438 . S
C644 C645 1.428 . S
C644 C657 1.394 . S
C645 H637 0.949 . S
C645 C644 1.428 . S
C645 C646 1.345 . S
C646 H638 0.950 . S
C646 C645 1.345 . S
C646 C647 1.424 . S
C647 H639 0.951 . S
C647 C646 1.424 . S
C647 C648 1.347 . S
C648 H640 0.951 . S
C648 C643 1.429 . S
C648 C647 1.347 . S
H649 C650 0.951 . S
C650 H649 0.951 . S
C650 C656 1.265 . S
H651 C656 0.950 . S
H652 C660 0.949 . S
H653 C661 0.950 . S
H654 C662 0.951 . S
H655 C663 0.951 . S
C656 C650 1.265 . S
C656 H651 0.950 . S
C656 C657 1.478 . S
C657 C644 1.394 . S
C657 C656 1.478 . S
C657 C658 1.397 . S
C658 C657 1.397 . S
C658 C659 1.438 . S
C658 C663 1.429 . S
C659 C642 1.394 . S
C659 C658 1.438 . S
C659 C660 1.428 . S
C660 H652 0.949 . S
C660 C659 1.428 . S
C660 C661 1.345 . S
C661 H653 0.950 . S
C661 C660 1.345 . S
C661 C662 1.424 . S
C662 H654 0.951 . S
C662 C661 1.424 . S
C662 C663 1.347 . S
C663 H655 0.951 . S
C663 C658 1.429 . S
C663 C662 1.347 . S
C185 N25 1.488 . S
C200 N2 1.492 . S
C215 N48 1.490 . S
C230 N71 1.493 . S
C245 N94 1.425 . S
C260 N117 1.418 . S
C275 N140 1.434 . S
C290 N163 1.416 . S
C305 C16 1.503 . S
C320 C85 1.506 . S
C335 C62 1.472 . S
C350 C39 1.470 1_455 S
C365 C53 1.489 . S
C380 C30 1.487 . S
C395 C7 1.509 . S
C410 C76 1.502 . S
C425 C108 1.473 . S
C440 C177 1.469 . S
C455 C154 1.473 . S
C470 C131 1.469 . S
C485 C122 1.504 . S
C500 C145 1.507 . S
C515 C99 1.504 . S
C530 C168 1.507 . S
C545 N127 1.488 . S
C560 N12 1.484 . S
C575 N104 1.483 . S
C590 N35 1.489 . S
C605 N58 1.477 . S
C620 N173 1.491 . S
C635 N150 1.483 . S
C650 N81 1.486 . S
