# Generated by pormake.
# Topology sod, (4)-cn, num edge types: 1
# Building blocks:
#     Node 0, Type 0, BuildingBlock: CEKHIL_clean_sbu_0, # of connection points: 4
#     Node 1, Type 0, BuildingBlock: CEKHIL_clean_sbu_0, # of connection points: 4
#     Node 2, Type 0, BuildingBlock: CEKHIL_clean_sbu_0, # of connection points: 4
#     Node 3, Type 0, BuildingBlock: CEKHIL_clean_sbu_0, # of connection points: 4
#     Node 4, Type 0, BuildingBlock: CEKHIL_clean_sbu_0, # of connection points: 4
#     Node 5, Type 0, BuildingBlock: CEKHIL_clean_sbu_0, # of connection points: 4
#     Node 6, Type 0, BuildingBlock: CEKHIL_clean_sbu_0, # of connection points: 4
#     Node 7, Type 0, BuildingBlock: CEKHIL_clean_sbu_0, # of connection points: 4
#     Node 8, Type 0, BuildingBlock: CEKHIL_clean_sbu_0, # of connection points: 4
#     Node 9, Type 0, BuildingBlock: CEKHIL_clean_sbu_0, # of connection points: 4
#     Node 10, Type 0, BuildingBlock: CEKHIL_clean_sbu_0, # of connection points: 4
#     Node 11, Type 0, BuildingBlock: CEKHIL_clean_sbu_0, # of connection points: 4
#     Edge 12, Type (0, 0), BuildingBlock: XUDNAN_clean_linker_2, # of connection points: 2
#     Edge 13, Type (0, 0), BuildingBlock: XUDNAN_clean_linker_2, # of connection points: 2
#     Edge 14, Type (0, 0), BuildingBlock: XUDNAN_clean_linker_2, # of connection points: 2
#     Edge 15, Type (0, 0), BuildingBlock: XUDNAN_clean_linker_2, # of connection points: 2
#     Edge 16, Type (0, 0), BuildingBlock: XUDNAN_clean_linker_2, # of connection points: 2
#     Edge 17, Type (0, 0), BuildingBlock: XUDNAN_clean_linker_2, # of connection points: 2
#     Edge 18, Type (0, 0), BuildingBlock: XUDNAN_clean_linker_2, # of connection points: 2
#     Edge 19, Type (0, 0), BuildingBlock: XUDNAN_clean_linker_2, # of connection points: 2
#     Edge 20, Type (0, 0), BuildingBlock: XUDNAN_clean_linker_2, # of connection points: 2
#     Edge 21, Type (0, 0), BuildingBlock: XUDNAN_clean_linker_2, # of connection points: 2
#     Edge 22, Type (0, 0), BuildingBlock: XUDNAN_clean_linker_2, # of connection points: 2
#     Edge 23, Type (0, 0), BuildingBlock: XUDNAN_clean_linker_2, # of connection points: 2
#     Edge 24, Type (0, 0), BuildingBlock: XUDNAN_clean_linker_2, # of connection points: 2
#     Edge 25, Type (0, 0), BuildingBlock: XUDNAN_clean_linker_2, # of connection points: 2
#     Edge 26, Type (0, 0), BuildingBlock: XUDNAN_clean_linker_2, # of connection points: 2
#     Edge 27, Type (0, 0), BuildingBlock: XUDNAN_clean_linker_2, # of connection points: 2
#     Edge 28, Type (0, 0), BuildingBlock: XUDNAN_clean_linker_2, # of connection points: 2
#     Edge 29, Type (0, 0), BuildingBlock: XUDNAN_clean_linker_2, # of connection points: 2
#     Edge 30, Type (0, 0), BuildingBlock: XUDNAN_clean_linker_2, # of connection points: 2
#     Edge 31, Type (0, 0), BuildingBlock: XUDNAN_clean_linker_2, # of connection points: 2
#     Edge 32, Type (0, 0), BuildingBlock: XUDNAN_clean_linker_2, # of connection points: 2
#     Edge 33, Type (0, 0), BuildingBlock: XUDNAN_clean_linker_2, # of connection points: 2
#     Edge 34, Type (0, 0), BuildingBlock: XUDNAN_clean_linker_2, # of connection points: 2
#     Edge 35, Type (0, 0), BuildingBlock: XUDNAN_clean_linker_2, # of connection points: 2
# Relax obj value: 0.139
# Max RMSD: 0.179
# Mean RMSD: 0.169
data_MOF--net-sod--node1-CEKHIL_clean_sbu_0--edge1-XUDNAN_clean_linker_2
_symmetry_space_group_name_H-M    P1
_symmetry_Int_Tables_number       1
_symmetry_cell_setting            triclinic
loop_
_symmetry_equiv_pos_as_xyz
'x, y, z'
_cell_length_a     41.627056
_cell_length_b     42.012174
_cell_length_c     41.86466
_cell_angle_alpha  92.101424
_cell_angle_beta   90.104252
_cell_angle_gamma 91.106148
loop_
_atom_site_label
_atom_site_type_symbol
_atom_site_fract_x
_atom_site_fract_y
_atom_site_fract_z
_atom_type_partial_charge
Co0 Co 0.01313 0.26975 0.51244 0.0
O1 O 0.99013 0.30409 0.49295 0.0
O2 O 0.04095 0.2917 0.48419 0.0
C3 C 0.97469 0.23164 0.50671 0.0
O4 O 0.04582 0.23682 0.52346 0.0
Co5 Co 0.99543 0.23389 0.57265 0.0
O6 O 0.02909 0.2028 0.55999 0.0
C7 C 0.017 0.3013 0.5783 0.0
C8 C 0.01723 0.31018 0.47859 0.0
C9 C 0.049 0.21116 0.53872 0.0
O10 O 0.02632 0.2999 0.54899 0.0
O11 O 1.0023 0.27818 0.59147 0.0
O12 O 0.99327 0.23823 0.48274 0.0
O13 O 0.97857 0.24918 0.53244 0.0
Co14 Co 0.7669 0.01264 0.5182 0.0
O15 O 0.80376 0.99585 0.49465 0.0
O16 O 0.78985 0.98411 0.54397 0.0
C17 C 0.72968 0.00764 0.47907 0.0
O18 O 0.73154 0.02037 0.5507 0.0
Co19 Co 0.72896 0.07292 0.50544 0.0
O20 O 0.69735 0.05822 0.5376 0.0
C21 C 0.79671 0.07812 0.52543 0.0
C22 C 0.80982 0.98064 0.52055 0.0
C23 C 0.70533 0.0355 0.55505 0.0
O24 O 0.7949 0.04931 0.53472 0.0
O25 O 0.77359 0.09148 0.51124 0.0
O26 O 0.7379 0.98302 0.49508 0.0
O27 O 0.7458 0.03372 0.48541 0.0
Co28 Co 1.00176 0.77322 0.53262 0.0
O29 O 0.98409 0.74002 0.559 0.0
O30 O 0.03551 0.75397 0.55611 0.0
C31 C 0.96528 0.81113 0.54381 0.0
O32 O 0.02994 0.8064 0.51117 0.0
Co33 Co 0.96648 0.80179 0.47525 0.0
O34 O 0.99955 0.83637 0.48031 0.0
C35 C 0.9922 0.73678 0.46916 0.0
C36 C 0.01356 0.73563 0.56811 0.0
C37 C 0.02577 0.83136 0.49487 0.0
O38 O 0.00716 0.74101 0.49601 0.0
O39 O 0.97316 0.75727 0.45808 0.0
O40 O 0.98851 0.8063 0.56383 0.0
O41 O 0.96314 0.79109 0.5198 0.0
Co42 Co 0.26378 0.02361 0.50614 0.0
O43 O 0.23518 0.04635 0.47921 0.0
O44 O 0.23913 0.05338 0.53181 0.0
C45 C 0.30801 0.02778 0.47554 0.0
O46 O 0.29151 0.00715 0.54191 0.0
Co47 Co 0.29336 0.9596 0.48469 0.0
O48 O 0.31987 0.96517 0.52389 0.0
C49 C 0.22483 0.96137 0.50021 0.0
C50 C 0.22555 0.061 0.50526 0.0
C51 C 0.31337 0.98632 0.54532 0.0
O52 O 0.22912 0.99001 0.51147 0.0
O53 O 0.24708 0.94529 0.4866 0.0
O54 O 0.29951 0.05126 0.49461 0.0
O55 O 0.28797 0.00383 0.4732 0.0
Co56 Co 0.52882 0.03689 0.27258 0.0
O57 O 0.5501 0.05939 0.23761 0.0
O58 O 0.50241 0.06986 0.25779 0.0
C59 C 0.57072 0.0333 0.30717 0.0
O60 O 0.49789 0.02454 0.30781 0.0
Co61 Co 0.54148 0.97123 0.29983 0.0
O62 O 0.50801 0.97955 0.33256 0.0
C63 C 0.52146 0.97702 0.23292 0.0
C64 C 0.52402 0.07617 0.23674 0.0
C65 C 0.49183 0.0046 0.32964 0.0
O66 O 0.51 0.00483 0.23963 0.0
O67 O 0.53756 0.96167 0.25308 0.0
O68 O 0.55562 0.06012 0.30529 0.0
O69 O 0.56167 0.01119 0.28686 0.0
Co70 Co 0.01671 0.50227 0.27214 0.0
O71 O 0.04653 0.48839 0.30376 0.0
O72 O 0.99609 0.47117 0.29842 0.0
C73 C 0.05073 0.49916 0.23043 0.0
O74 O 0.97909 0.5087 0.24192 0.0
Co75 Co 0.02624 0.56402 0.23524 0.0
O76 O 0.99024 0.54754 0.20802 0.0
C77 C 0.00883 0.56791 0.30337 0.0
C78 C 0.02328 0.47012 0.31359 0.0
C79 C 0.97244 0.52465 0.21715 0.0
O80 O 1.00331 0.53768 0.30277 0.0
O81 O 0.01985 0.58279 0.27949 0.0
O82 O 0.03572 0.4738 0.23998 0.0
O83 O 0.04655 0.52494 0.24763 0.0
Co84 Co 0.51692 0.99897 0.76846 0.0
O85 O 0.54214 0.98192 0.80287 0.0
O86 O 0.49094 0.97025 0.79205 0.0
C87 C 0.55348 0.99422 0.72908 0.0
O88 O 0.48259 0.00785 0.73575 0.0
Co89 Co 0.5321 0.05976 0.73189 0.0
O90 O 0.49583 0.04682 0.70292 0.0
C91 C 0.51539 0.06405 0.8003 0.0
C92 C 0.51575 0.96664 0.81015 0.0
C93 C 0.47714 0.02423 0.71111 0.0
O94 O 0.50394 0.03539 0.79809 0.0
O95 O 0.53009 0.0771 0.77721 0.0
O96 O 0.53656 0.96947 0.73741 0.0
O97 O 0.54971 0.01998 0.74633 0.0
Co98 Co 0.03121 0.54077 0.77231 0.0
O99 O 0.05938 0.55677 0.73959 0.0
O100 O 0.0086 0.57007 0.74629 0.0
C101 C 0.0662 0.54669 0.81343 0.0
O102 O 0.9949 0.5324 0.80381 0.0
Co103 Co 0.04409 0.48059 0.81059 0.0
O104 O 0.00818 0.49497 0.8382 0.0
C105 C 0.02566 0.47396 0.74252 0.0
C106 C 0.03518 0.57341 0.73049 0.0
C107 C 0.98962 0.51662 0.82913 0.0
O108 O 0.0182 0.50361 0.74258 0.0
O109 O 0.03835 0.461 0.76656 0.0
O110 O 0.05027 0.57094 0.80384 0.0
O111 O 0.06243 0.5206 0.79647 0.0
Co112 Co 0.26622 0.51422 0.01807 0.0
O113 O 0.29966 0.49942 0.98923 0.0
O114 O 0.28657 0.47778 0.03497 0.0
C115 C 0.2277 0.52218 0.98133 0.0
O116 O 0.23314 0.51945 0.05356 0.0
Co117 Co 0.2361 0.58105 0.01925 0.0
O118 O 0.2043 0.56367 0.04949 0.0
C119 C 0.30386 0.57375 0.03732 0.0
C120 C 0.30507 0.47787 0.01012 0.0
C121 C 0.20955 0.53715 0.06208 0.0
O122 O 0.29906 0.54359 0.04003 0.0
O123 O 0.2824 0.59236 0.02729 0.0
O124 O 0.23286 0.49352 0.99081 0.0
O125 O 0.24734 0.54409 0.99224 0.0
Co126 Co 0.50059 0.27013 0.02968 0.0
O127 O 0.47415 0.24129 0.05362 0.0
O128 O 0.5256 0.25154 0.06333 0.0
C129 C 0.46487 0.31032 0.02743 0.0
O130 O 0.53564 0.29942 0.01169 0.0
Co131 Co 0.4798 0.29155 0.96196 0.0
O132 O 0.51824 0.31977 0.96585 0.0
C133 C 0.50382 0.22686 0.96968 0.0
C134 C 0.49953 0.23593 0.0706 0.0
C135 C 0.53909 0.31791 0.98796 0.0
O136 O 0.51216 0.23356 0.99889 0.0
O137 O 0.48867 0.24588 0.95219 0.0
O138 O 0.48212 0.30727 0.05307 0.0
O139 O 0.46755 0.28774 0.0061 0.0
Co140 Co 0.76288 0.52073 0.00624 0.0
O141 O 0.73277 0.54135 0.97902 0.0
O142 O 0.73446 0.54716 0.03175 0.0
C143 C 0.80681 0.53105 0.97642 0.0
O144 O 0.79132 0.50608 0.04246 0.0
Co145 Co 0.80265 0.46234 0.9835 0.0
O146 O 0.82483 0.46768 0.02523 0.0
C147 C 0.73259 0.45622 0.99218 0.0
C148 C 0.7215 0.5549 0.00495 0.0
C149 C 0.81471 0.4871 0.0468 0.0
O150 O 0.73238 0.4826 0.0089 0.0
O151 O 0.75746 0.44612 0.97735 0.0
O152 O 0.79578 0.55281 0.99617 0.0
O153 O 0.78986 0.50507 0.97371 0.0
Co154 Co 0.5114 0.76841 0.01018 0.0
O155 O 0.48111 0.79705 0.99224 0.0
O156 O 0.53133 0.79088 0.97597 0.0
C157 C 0.47824 0.72578 0.01271 0.0
O158 O 0.54945 0.74071 0.02021 0.0
Co159 Co 0.50425 0.73938 0.07639 0.0
O160 O 0.53867 0.71009 0.06175 0.0
C161 C 0.51577 0.8083 0.07109 0.0
C162 C 0.50428 0.80541 0.97326 0.0
C163 C 0.55576 0.71706 0.0377 0.0
O164 O 0.52457 0.80363 0.0419 0.0
O165 O 0.5046 0.78617 0.08834 0.0
O166 O 0.49253 0.73205 0.98597 0.0
O167 O 0.4825 0.74641 0.03603 0.0
H168 H 0.97303 0.34012 0.4409 0.0
H169 H 0.07349 0.34114 0.46897 0.0
H170 H 0.08502 0.38388 0.43186 0.0
H171 H 0.9876 0.35046 0.35842 0.0
H172 H 0.9539 0.37583 0.35213 0.0
H173 H 0.95235 0.34727 0.38314 0.0
H174 H 0.94033 0.39232 0.42508 0.0
H175 H 0.94169 0.42102 0.39413 0.0
H176 H 0.96717 0.42645 0.42884 0.0
H177 H 0.08685 0.42425 0.39053 0.0
H178 H 0.07879 0.46004 0.34599 0.0
H179 H 0.97767 0.43261 0.34243 0.0
C180 C 0.99726 0.34983 0.43956 0.0
C181 C 0.02235 0.33747 0.45787 0.0
C182 C 0.05392 0.35024 0.45509 0.0
C183 C 0.06073 0.3746 0.43417 0.0
C184 C 0.03575 0.3859 0.41597 0.0
C185 C 0.00463 0.37404 0.41831 0.0
C186 C 0.98282 0.38933 0.39443 0.0
C187 C 0.96832 0.36422 0.37062 0.0
C188 C 0.95644 0.40842 0.41165 0.0
C189 C 0.00668 0.4112 0.37819 0.0
C190 C 0.03698 0.40899 0.39129 0.0
C191 C 0.06321 0.42637 0.38013 0.0
C192 C 0.0584 0.4466 0.35479 0.0
C193 C 0.02765 0.44911 0.34074 0.0
C194 C 1.00147 0.4312 0.35271 0.0
H195 H 0.70052 0.05749 0.44995 0.0
H196 H 0.69971 0.95432 0.45377 0.0
H197 H 0.65806 0.9509 0.41179 0.0
H198 H 0.6136 0.0646 0.43685 0.0
H199 H 0.61813 0.09708 0.41016 0.0
H200 H 0.64739 0.09191 0.44124 0.0
H201 H 0.69269 0.09045 0.39895 0.0
H202 H 0.66359 0.09552 0.36775 0.0
H203 H 0.68999 0.062 0.36571 0.0
H204 H 0.62131 0.95778 0.36697 0.0
H205 H 0.58656 0.97395 0.32401 0.0
H206 H 0.60559 0.07363 0.35012 0.0
C207 C 0.69137 0.03421 0.44206 0.0
C208 C 0.70346 0.00608 0.45506 0.0
C209 C 0.69083 0.97611 0.44423 0.0
C210 C 0.6672 0.97394 0.42037 0.0
C211 C 0.65608 1.00199 0.40784 0.0
C212 C 0.66732 0.03161 0.41846 0.0
C213 C 0.65103 0.05787 0.40059 0.0
C214 C 0.63137 0.07912 0.42359 0.0
C215 C 0.67581 0.07762 0.38216 0.0
C216 C 0.62928 0.03823 0.37789 0.0
C217 C 0.633 0.00609 0.3826 0.0
C218 C 0.61759 0.98285 0.36352 0.0
C219 C 0.59765 0.99248 0.33905 0.0
C220 C 0.59238 0.02521 0.33392 0.0
C221 C 0.60848 0.04848 0.35378 0.0
H222 H 0.97961 0.62495 0.31195 0.0
H223 H 0.02961 0.55247 0.36241 0.0
H224 H 0.02987 0.58707 0.41171 0.0
H225 H 0.01804 0.69172 0.34524 0.0
H226 H 0.98285 0.71593 0.34876 0.0
H227 H 0.98448 0.68453 0.31847 0.0
H228 H 0.93184 0.65931 0.34 0.0
H229 H 0.92978 0.69093 0.37015 0.0
H230 H 0.92914 0.64999 0.38161 0.0
H231 H 0.02971 0.63272 0.45361 0.0
H232 H 0.02364 0.68263 0.4862 0.0
H233 H 0.97096 0.72313 0.40829 0.0
C234 C 0.99004 0.61621 0.3336 0.0
C235 C 0.00456 0.58622 0.33363 0.0
C236 C 0.01805 0.57535 0.36221 0.0
C237 C 0.01845 0.59487 0.39019 0.0
C238 C 0.00452 0.62475 0.38923 0.0
C239 C 0.98985 0.63498 0.36185 0.0
C240 C 0.97652 0.66797 0.36695 0.0
C241 C 0.99138 0.6914 0.34346 0.0
C242 C 0.93963 0.66698 0.36454 0.0
C243 C 0.98748 0.67546 0.40088 0.0
C244 C 1.00342 0.65027 0.4135 0.0
C245 C 0.01681 0.65241 0.44412 0.0
C246 C 0.0134 0.68092 0.46237 0.0
C247 C 0.99671 0.70684 0.44993 0.0
C248 C 0.98366 0.7038 0.41874 0.0
H249 H 0.33909 0.97882 0.44341 0.0
H250 H 0.34402 0.08078 0.46427 0.0
H251 H 0.39206 0.08517 0.4303 0.0
H252 H 0.42626 0.96764 0.44388 0.0
H253 H 0.42502 0.93773 0.41189 0.0
H254 H 0.39113 0.94227 0.43829 0.0
H255 H 0.35397 0.9498 0.38958 0.0
H256 H 0.38773 0.94543 0.36304 0.0
H257 H 0.36354 0.98051 0.36197 0.0
H258 H 0.43648 0.0796 0.39133 0.0
H259 H 0.47841 0.06372 0.3528 0.0
H260 H 0.44829 0.9647 0.35927 0.0
C261 C 0.35043 1.002 0.4409 0.0
C262 C 0.33774 0.02952 0.45634 0.0
C263 C 0.35333 0.0594 0.45271 0.0
C264 C 0.3806 0.06216 0.43341 0.0
C265 C 0.39234 0.03472 0.41828 0.0
C266 C 0.37813 0.00512 0.42209 0.0
C267 C 0.39601 0.97948 0.40322 0.0
C268 C 0.41047 0.95535 0.42566 0.0
C269 C 0.374 0.96283 0.37795 0.0
C270 C 0.42208 0.99944 0.38778 0.0
C271 C 0.41924 0.03127 0.39672 0.0
C272 C 0.43925 0.05472 0.38445 0.0
C273 C 0.46288 0.04547 0.36247 0.0
C274 C 0.4667 0.013 0.35324 0.0
C275 C 0.44617 0.98963 0.36629 0.0
H276 H 0.98693 0.60669 0.70266 0.0
H277 H 0.08964 0.591 0.69867 0.0
H278 H 0.09479 0.63009 0.65625 0.0
H279 H 0.9757 0.61541 0.61718 0.0
H280 H 0.94605 0.64587 0.62233 0.0
H281 H 0.95028 0.61623 0.65201 0.0
H282 H 0.95884 0.66081 0.69575 0.0
H283 H 0.95474 0.69058 0.66622 0.0
H284 H 0.99024 0.6904 0.69093 0.0
H285 H 0.08934 0.67251 0.61631 0.0
H286 H 0.07345 0.71373 0.57934 0.0
H287 H 0.97382 0.70107 0.60745 0.0
C288 C 0.01049 0.61135 0.69274 0.0
C289 C 0.03793 0.5958 0.70403 0.0
C290 C 0.06829 0.60254 0.69039 0.0
C291 C 0.07146 0.62475 0.6663 0.0
C292 C 0.044 0.63984 0.65592 0.0
C293 C 0.01405 0.63328 0.66848 0.0
C294 C 0.98842 0.65292 0.65304 0.0
C295 C 0.96365 0.63131 0.63507 0.0
C296 C 0.97211 0.67499 0.67798 0.0
C297 C 0.00873 0.67179 0.63006 0.0
C298 C 0.04073 0.66389 0.63225 0.0
C299 C 0.06433 0.67872 0.61421 0.0
C300 C 0.05504 0.7022 0.59333 0.0
C301 C 0.02238 0.71058 0.59039 0.0
C302 C 0.99893 0.69501 0.60897 0.0
H303 H 0.44552 0.05933 0.66643 0.0
H304 H 0.44559 0.96691 0.70969 0.0
H305 H 0.40121 0.94856 0.67444 0.0
H306 H 0.35738 0.06203 0.65657 0.0
H307 H 0.36008 0.08142 0.61894 0.0
H308 H 0.39107 0.08817 0.64868 0.0
H309 H 0.43406 0.07023 0.60747 0.0
H310 H 0.40323 0.06345 0.57765 0.0
H311 H 0.42977 0.03176 0.58723 0.0
H312 H 0.36137 0.93792 0.63092 0.0
H313 H 0.32503 0.93738 0.58402 0.0
H314 H 0.34665 0.03745 0.57141 0.0
C315 C 0.43595 0.03537 0.66866 0.0
C316 C 0.4491 0.01461 0.69087 0.0
C317 C 0.43586 0.9834 0.69307 0.0
C318 C 0.41063 0.97266 0.6731 0.0
C319 C 0.3984 0.99354 0.65134 0.0
C320 C 0.41023 0.02437 0.64924 0.0
C321 C 0.39284 0.04169 0.62337 0.0
C322 C 0.37423 0.07001 0.63776 0.0
C323 C 0.41638 0.0524 0.59739 0.0
C324 C 0.37015 0.01545 0.61073 0.0
C325 C 0.37388 0.98784 0.6272 0.0
C326 C 0.35765 0.95955 0.61828 0.0
C327 C 0.33716 0.95942 0.59167 0.0
C328 C 0.33268 0.9875 0.57478 0.0
C329 C 0.34905 0.01594 0.58465 0.0
H330 H 0.01681 0.30917 0.64335 0.0
H331 H 0.02628 0.36176 0.55646 0.0
H332 H 0.02717 0.41243 0.58869 0.0
H333 H 0.96507 0.36233 0.6848 0.0
H334 H 0.98352 0.35745 0.72325 0.0
H335 H 0.98434 0.32553 0.69338 0.0
H336 H 0.0465 0.3243 0.6971 0.0
H337 H 0.04583 0.35583 0.72737 0.0
H338 H 0.06963 0.36045 0.69186 0.0
H339 H 0.02397 0.45774 0.63125 0.0
H340 H 0.02406 0.49278 0.68025 0.0
H341 H 0.01818 0.40936 0.73821 0.0
C342 C 0.01932 0.3313 0.63103 0.0
C343 C 0.02141 0.33149 0.59738 0.0
C344 C 0.02487 0.36101 0.58226 0.0
C345 C 0.02514 0.38991 0.60034 0.0
C346 C 0.02224 0.38882 0.63349 0.0
C347 C 0.01995 0.36019 0.64865 0.0
C348 C 0.01776 0.36519 0.68451 0.0
C349 C 0.98577 0.35183 0.69721 0.0
C350 C 0.04665 0.35059 0.70118 0.0
C351 C 0.01904 0.40116 0.6873 0.0
C352 C 0.02126 0.41451 0.65768 0.0
C353 C 0.02242 0.44748 0.65455 0.0
C354 C 0.02219 0.4672 0.68247 0.0
C355 C 0.02121 0.45379 0.71303 0.0
C356 C 0.01911 0.42035 0.71522 0.0
H357 H 0.57549 0.0451 0.69587 0.0
H358 H 0.58038 0.94222 0.69931 0.0
H359 H 0.61929 0.94186 0.65464 0.0
H360 H 0.57963 0.04817 0.6089 0.0
H361 H 0.60319 0.08465 0.60993 0.0
H362 H 0.57552 0.07665 0.64184 0.0
H363 H 0.62179 0.0844 0.68301 0.0
H364 H 0.64965 0.09221 0.65125 0.0
H365 H 0.65743 0.06095 0.67843 0.0
H366 H 0.66047 0.95319 0.6128 0.0
H367 H 0.69739 0.97443 0.5725 0.0
H368 H 0.66303 0.06984 0.59319 0.0
C369 C 0.58461 0.02246 0.68711 0.0
C370 C 0.57511 0.99363 0.70112 0.0
C371 C 0.58734 0.96451 0.68885 0.0
C372 C 0.60948 0.96412 0.66358 0.0
C373 C 0.61864 0.99301 0.65055 0.0
C374 C 0.60622 0.0216 0.66152 0.0
C375 C 0.61971 0.04923 0.64303 0.0
C376 C 0.59291 0.06564 0.62484 0.0
C377 C 0.63825 0.0731 0.66526 0.0
C378 C 0.64216 0.03177 0.62026 0.0
C379 C 0.64131 0.99939 0.62527 0.0
C380 C 0.66104 0.97842 0.6084 0.0
C381 C 0.68206 0.99077 0.58569 0.0
C382 C 0.68299 0.02377 0.57965 0.0
C383 C 0.66257 0.04449 0.59707 0.0
H384 H 0.42592 0.34527 0.06838 0.0
H385 H 0.46003 0.33898 0.97061 0.0
H386 H 0.42551 0.38293 0.95655 0.0
H387 H 0.34486 0.3576 0.04733 0.0
H388 H 0.3364 0.38493 0.08031 0.0
H389 H 0.36689 0.35551 0.0843 0.0
H390 H 0.40875 0.3999 0.0997 0.0
H391 H 0.37829 0.42946 0.09599 0.0
H392 H 0.41503 0.43256 0.07351 0.0
H393 H 0.38568 0.42605 0.95186 0.0
H394 H 0.34125 0.46418 0.9569 0.0
H395 H 0.32959 0.44073 0.05639 0.0
C396 C 0.42661 0.35375 0.04427 0.0
C397 C 0.44616 0.33896 0.02073 0.0
C398 C 0.44563 0.34998 0.98916 0.0
C399 C 0.42604 0.37508 0.98088 0.0
C400 C 0.40656 0.38876 0.00431 0.0
C401 C 0.40648 0.37848 0.03535 0.0
C402 C 0.38117 0.39565 0.05509 0.0
C403 C 0.35583 0.37201 0.06748 0.0
C404 C 0.39675 0.41558 0.08271 0.0
C405 C 0.36702 0.41679 0.03019 0.0
C406 C 0.38234 0.41273 1.00118 0.0
C407 C 0.37348 0.42951 0.97449 0.0
C408 C 0.34821 0.45107 0.97752 0.0
C409 C 0.33183 0.45528 0.00689 0.0
C410 C 0.3415 0.43788 0.03351 0.0
H411 H 0.3211 0.63185 0.06344 0.0
H412 H 0.35966 0.54713 0.0169 0.0
H413 H 0.41128 0.57583 0.00858 0.0
H414 H 0.35243 0.68599 0.01408 0.0
H415 H 0.36216 0.7167 0.04391 0.0
H416 H 0.33038 0.68832 0.0511 0.0
H417 H 0.35799 0.67214 0.10343 0.0
H418 H 0.38957 0.70111 0.09687 0.0
H419 H 0.39931 0.66007 0.10251 0.0
H420 H 0.45383 0.61742 0.99526 0.0
H421 H 0.48788 0.66567 0.98729 0.0
H422 H 0.42326 0.72143 0.04678 0.0
C423 C 0.34092 0.619 0.05275 0.0
C424 C 0.33664 0.58728 0.04107 0.0
C425 C 0.36276 0.57127 0.02658 0.0
C426 C 0.39204 0.58748 0.0215 0.0
C427 C 0.39496 0.61935 0.03187 0.0
C428 C 0.37044 0.63459 0.0482 0.0
C429 C 0.37888 0.66929 0.05548 0.0
C430 C 0.35452 0.69135 0.04022 0.0
C431 C 0.38161 0.67604 0.09173 0.0
C432 C 0.41133 0.67162 0.03949 0.0
C433 C 0.42021 0.64267 0.02579 0.0
C434 C 0.4476 0.63996 0.00673 0.0
C435 C 0.4666 0.66744 1.00206 0.0
C436 C 0.45827 0.69694 0.0168 0.0
C437 C 0.43046 0.69891 0.03586 0.0
H438 H 0.57564 0.35079 0.03453 0.0
H439 H 0.56982 0.32799 0.93266 0.0
H440 H 0.61738 0.36196 0.92359 0.0
H441 H 0.59905 0.43342 0.02637 0.0
H442 H 0.62637 0.43509 0.05987 0.0
H443 H 0.59241 0.40781 0.05944 0.0
H444 H 0.63034 0.36063 0.06747 0.0
H445 H 0.66437 0.38781 0.06825 0.0
H446 H 0.66324 0.35424 0.04017 0.0
H447 H 0.66456 0.39714 0.92453 0.0
H448 H 0.71115 0.4327 0.93559 0.0
H449 H 0.68719 0.43673 0.0365 0.0
C450 C 0.58475 0.35275 0.01046 0.0
C451 C 0.56914 0.3367 0.98425 0.0
C452 C 0.58134 0.34016 0.953 0.0
C453 C 0.60834 0.35939 0.9476 0.0
C454 C 0.62281 0.37539 0.97364 0.0
C455 C 0.61166 0.37246 0.00448 0.0
C456 C 0.63175 0.3932 0.02781 0.0
C457 C 0.61116 0.41891 0.04435 0.0
C458 C 0.64842 0.37274 0.05238 0.0
C459 C 0.65594 0.40787 0.00514 0.0
C460 C 0.65011 0.39702 0.97406 0.0
C461 C 0.66937 0.40597 0.94871 0.0
C462 C 0.69574 0.42616 0.95523 0.0
C463 C 0.70258 0.43753 0.98679 0.0
C464 C 0.68214 0.42871 0.0121 0.0
H465 H 0.68374 0.57812 0.05412 0.0
H466 H 0.7033 0.58759 0.95308 0.0
H467 H 0.66446 0.63114 0.95121 0.0
H468 H 0.59809 0.59186 0.04826 0.0
H469 H 0.59614 0.61342 0.0862 0.0
H470 H 0.62586 0.58327 0.07976 0.0
H471 H 0.67081 0.62448 0.09538 0.0
H472 H 0.64125 0.65483 0.10163 0.0
H473 H 0.674 0.66108 0.07432 0.0
H474 H 0.62554 0.67504 0.96066 0.0
H475 H 0.5844 0.71273 0.97918 0.0
H476 H 0.58728 0.67325 0.07358 0.0
C477 C 0.67974 0.58931 0.0316 0.0
C478 C 0.69662 0.57955 0.00374 0.0
C479 C 0.69057 0.59459 0.97468 0.0
C480 C 0.66868 0.61947 0.97341 0.0
C481 C 0.6527 0.62878 1.00134 0.0
C482 C 0.65753 0.61389 0.02979 0.0
C483 C 0.6364 0.62791 0.05604 0.0
C484 C 0.61272 0.60261 0.06828 0.0
C485 C 0.65684 0.64297 0.08346 0.0
C486 C 0.61912 0.65312 0.03792 0.0
C487 C 0.62921 0.65341 0.00651 0.0
C488 C 0.6173 0.67494 0.98516 0.0
C489 C 0.59404 0.69641 0.99601 0.0
C490 C 0.58254 0.69604 0.02788 0.0
C491 C 0.59548 0.67412 0.04909 0.0
H492 H 0.54476 0.8219 0.9246 0.0
H493 H 0.4564 0.84881 0.97251 0.0
H494 H 0.45217 0.8949 0.93794 0.0
H495 H 0.57671 0.90075 0.91345 0.0
H496 H 0.5924 0.89169 0.87411 0.0
H497 H 0.58892 0.86082 0.90273 0.0
H498 H 0.55443 0.82627 0.86269 0.0
H499 H 0.55809 0.85688 0.83384 0.0
H500 H 0.51888 0.84274 0.84564 0.0
H501 H 0.4567 0.93701 0.89812 0.0
H502 H 0.46822 0.97174 0.85311 0.0
H503 H 0.55424 0.91882 0.83095 0.0
C504 C 0.52451 0.83749 0.92777 0.0
C505 C 0.50087 0.83182 0.95124 0.0
C506 C 0.47465 0.85261 0.95456 0.0
C507 C 0.47216 0.87894 0.93518 0.0
C508 C 0.496 0.88404 0.91252 0.0
C509 C 0.52153 0.8638 0.90845 0.0
C510 C 0.54321 0.87416 0.88147 0.0
C511 C 0.57733 0.88235 0.89369 0.0
C512 C 0.54367 0.84849 0.8543 0.0
C513 C 0.52607 0.90366 0.87127 0.0
C514 C 0.49884 0.90876 0.88954 0.0
C515 C 0.47804 0.93343 0.88381 0.0
C516 C 0.48478 0.95301 0.85828 0.0
C517 C 0.51226 0.94806 0.83904 0.0
C518 C 0.53351 0.92345 0.84588 0.0
H519 H 0.19282 0.4829 0.93909 0.0
H520 H 0.20135 0.58041 0.97654 0.0
H521 H 0.1585 0.59624 0.9403 0.0
H522 H 0.18244 0.50304 0.85848 0.0
H523 H 0.15395 0.47136 0.8485 0.0
H524 H 0.183 0.46651 0.87977 0.0
H525 H 0.13716 0.45415 0.91948 0.0
H526 H 0.10794 0.45888 0.88827 0.0
H527 H 0.10515 0.48208 0.9252 0.0
H528 H 0.11703 0.60265 0.8983 0.0
H529 H 0.08032 0.59916 0.85182 0.0
H530 H 0.0993 0.49818 0.83974 0.0
C531 C 0.18518 0.50741 0.94002 0.0
C532 C 0.20026 0.53035 0.96087 0.0
C533 C 0.19013 0.56236 0.96091 0.0
C534 C 0.1657 0.57163 0.94043 0.0
C535 C 0.15167 0.54868 0.9198 0.0
C536 C 0.16099 0.51723 0.91931 0.0
C537 C 0.14339 0.49793 0.89315 0.0
C538 C 0.16711 0.48389 0.86852 0.0
C539 C 0.12214 0.47171 0.90738 0.0
C540 C 0.1232 0.52357 0.87887 0.0
C541 C 0.12811 0.55257 0.89487 0.0
C542 C 0.1128 0.58002 0.88566 0.0
C543 C 0.09202 0.57783 0.85923 0.0
C544 C 0.08695 0.54846 0.84218 0.0
C545 C 0.10262 0.52098 0.85236 0.0
H546 H 0.5361 0.12524 0.81325 0.0
H547 H 0.48965 0.04458 0.85739 0.0
H548 H 0.48815 0.07544 0.90891 0.0
H549 H 0.58502 0.15143 0.88178 0.0
H550 H 0.5803 0.19296 0.87386 0.0
H551 H 0.57958 0.16365 0.84133 0.0
H552 H 0.5238 0.18308 0.82334 0.0
H553 H 0.5247 0.21274 0.85538 0.0
H554 H 0.49137 0.18478 0.85181 0.0
H555 H 0.48965 0.11716 0.95542 0.0
H556 H 0.48887 0.16684 0.98955 0.0
H557 H 0.53438 0.21843 0.91373 0.0
C558 C 0.52568 0.11384 0.83367 0.0
C559 C 0.51295 0.08244 0.83114 0.0
C560 C 0.49947 0.06866 0.85862 0.0
C561 C 0.49876 0.0859 0.88808 0.0
C562 C 0.51184 0.11677 0.8897 0.0
C563 C 0.52487 0.13055 0.86305 0.0
C564 C 0.53571 0.16457 0.87016 0.0
C565 C 0.57233 0.16835 0.86657 0.0
C566 C 0.51781 0.18764 0.84893 0.0
C567 C 0.5258 0.16831 0.90474 0.0
C568 C 0.51267 0.14039 0.91599 0.0
C569 C 0.50027 0.13899 0.94693 0.0
C570 C 0.50017 0.16715 0.96628 0.0
C571 C 0.51198 0.19611 0.95425 0.0
C572 C 0.52576 0.19635 0.92356 0.0
H573 H 0.95328 0.47703 0.86589 0.0
H574 H 0.96328 0.57523 0.83828 0.0
H575 H 0.91923 0.59031 0.8751 0.0
H576 H 0.86646 0.47678 0.86976 0.0
H577 H 0.8647 0.45087 0.90312 0.0
H578 H 0.89762 0.44828 0.87537 0.0
H579 H 0.93789 0.45718 0.92231 0.0
H580 H 0.90505 0.46015 0.95015 0.0
H581 H 0.93455 0.49201 0.94847 0.0
H582 H 0.87583 0.59498 0.91735 0.0
H583 H 0.83114 0.58751 0.95557 0.0
H584 H 0.84685 0.48572 0.95196 0.0
C585 C 0.94614 0.50169 0.86758 0.0
C586 C 0.96175 0.52502 0.84939 0.0
C587 C 0.9515 0.55697 0.85192 0.0
C588 C 0.92669 0.56579 0.87292 0.0
C589 C 0.91202 0.54227 0.89082 0.0
C590 C 0.92094 0.51076 0.88786 0.0
C591 C 0.90027 0.48983 0.90855 0.0
C592 C 0.88112 0.46498 0.88797 0.0
C593 C 0.92066 0.47386 0.93387 0.0
C594 C 0.87844 0.51448 0.92374 0.0
C595 C 0.88594 0.54468 0.91367 0.0
C596 C 0.86957 0.5714 0.92518 0.0
C597 C 0.8444 0.56699 0.94701 0.0
C598 C 0.83554 0.53607 0.95651 0.0
C599 C 0.85301 0.50961 0.9449 0.0
H600 H 0.56523 0.10932 0.19542 0.0
H601 H 0.46506 0.0963 0.22204 0.0
H602 H 0.4492 0.13516 0.18334 0.0
H603 H 0.56065 0.19469 0.18487 0.0
H604 H 0.58685 0.19515 0.15065 0.0
H605 H 0.59144 0.16531 0.18008 0.0
H606 H 0.58526 0.12086 0.1359 0.0
H607 H 0.58074 0.15058 0.10634 0.0
H608 H 0.55031 0.1199 0.11037 0.0
H609 H 0.44264 0.1742 0.14216 0.0
H610 H 0.44628 0.21361 0.10023 0.0
H611 H 0.55011 0.20537 0.09937 0.0
C612 C 0.54002 0.11463 0.19291 0.0
C613 C 0.51648 0.09962 0.21204 0.0
C614 C 0.48373 0.10744 0.20806 0.0
C615 C 0.47431 0.12953 0.18597 0.0
C616 C 0.49782 0.1441 0.16781 0.0
C617 C 0.53001 0.13724 0.17089 0.0
C618 C 0.54998 0.15726 0.14832 0.0
C619 C 0.57363 0.17942 0.16711 0.0
C620 C 0.56762 0.13587 0.12378 0.0
C621 C 0.52385 0.17616 0.13236 0.0
C622 C 0.49399 0.16783 0.14401 0.0
C623 C 0.46589 0.18109 0.13286 0.0
C624 C 0.4682 0.20347 0.10898 0.0
C625 C 0.49841 0.21276 0.09659 0.0
C626 C 0.52668 0.199 0.10862 0.0
H627 H 0.94252 0.55904 0.1715 0.0
H628 H 0.93786 0.46857 0.21839 0.0
H629 H 0.89335 0.45073 0.18263 0.0
H630 H 0.85511 0.56532 0.15807 0.0
H631 H 0.86064 0.58296 0.1198 0.0
H632 H 0.89037 0.58956 0.15081 0.0
H633 H 0.93439 0.56808 0.11249 0.0
H634 H 0.90484 0.56137 0.08144 0.0
H635 H 0.9293 0.52902 0.09367 0.0
H636 H 0.85456 0.44012 0.13731 0.0
H637 H 0.82123 0.43928 0.08813 0.0
H638 H 0.84809 0.5377 0.07321 0.0
C639 C 0.93183 0.53565 0.1746 0.0
C640 C 0.94374 0.5152 0.19777 0.0
C641 C 0.92908 0.48476 0.20097 0.0
C642 C 0.90379 0.47438 0.18073 0.0
C643 C 0.89304 0.49491 0.15778 0.0
C644 C 0.90628 0.52509 0.15491 0.0
C645 C 0.89112 0.54206 0.12751 0.0
C646 C 0.87324 0.57173 0.13979 0.0
C647 C 0.91642 0.55062 0.10229 0.0
C648 C 0.86792 0.51638 0.11485 0.0
C649 C 0.86945 0.48932 0.13261 0.0
C650 C 0.85253 0.4614 0.12371 0.0
C651 C 0.83375 0.46109 0.09583 0.0
C652 C 0.83167 0.48864 0.07763 0.0
C653 C 0.8486 0.5167 0.08745 0.0
H654 H 0.55972 0.8354 0.1122 0.0
H655 H 0.47073 0.85301 0.06301 0.0
H656 H 0.46489 0.90369 0.09463 0.0
H657 H 0.53635 0.85955 0.18644 0.0
H658 H 0.57391 0.87823 0.19884 0.0
H659 H 0.57358 0.84676 0.16865 0.0
H660 H 0.60333 0.8836 0.12957 0.0
H661 H 0.60398 0.91525 0.15984 0.0
H662 H 0.58684 0.92176 0.12111 0.0
H663 H 0.46508 0.94837 0.13836 0.0
H664 H 0.47247 0.9822 0.18805 0.0
H665 H 0.56245 0.93545 0.20559 0.0
C666 C 0.53972 0.85063 0.10734 0.0
C667 C 0.51597 0.84091 0.08499 0.0
C668 C 0.48947 0.86066 0.07973 0.0
C669 C 0.48596 0.88939 0.0976 0.0
C670 C 0.50946 0.89812 0.12022 0.0
C671 C 0.53615 0.87949 0.12463 0.0
C672 C 0.55672 0.89252 0.15199 0.0
C673 C 0.56031 0.8678 0.178 0.0
C674 C 0.58967 0.90397 0.13989 0.0
C675 C 0.53665 0.92026 0.16344 0.0
C676 C 0.50969 0.92364 0.14474 0.0
C677 C 0.48649 0.9463 0.15278 0.0
C678 C 0.49082 0.96545 0.18097 0.0
C679 C 0.51788 0.96134 0.20077 0.0
C680 C 0.54135 0.93912 0.1911 0.0
H681 H 0.16893 0.57212 0.1008 0.0
H682 H 0.19917 0.47553 0.07847 0.0
H683 H 0.16021 0.45519 0.11748 0.0
H684 H 0.15978 0.56189 0.18537 0.0
H685 H 0.12533 0.58711 0.1889 0.0
H686 H 0.15489 0.59397 0.15844 0.0
H687 H 0.11028 0.58952 0.11514 0.0
H688 H 0.08061 0.58242 0.14547 0.0
H689 H 0.08488 0.55427 0.11229 0.0
H690 H 0.11696 0.44511 0.15779 0.0
H691 H 0.07621 0.44654 0.20067 0.0
H692 H 0.07608 0.54975 0.19884 0.0
C693 C 0.16731 0.5467 0.1041 0.0
C694 C 0.18703 0.52541 0.08651 0.0
C695 C 0.18443 0.49232 0.09177 0.0
C696 C 0.16224 0.4805 0.11374 0.0
C697 C 0.14304 0.50208 0.13053 0.0
C698 C 0.14562 0.53451 0.12631 0.0
C699 C 0.12305 0.55265 0.14836 0.0
C700 C 0.14189 0.57523 0.17165 0.0
C701 C 0.09823 0.57078 0.12916 0.0
C702 C 0.10737 0.52535 0.16559 0.0
C703 C 0.11895 0.49635 0.15465 0.0
C704 C 0.10781 0.46768 0.16667 0.0
C705 C 0.08459 0.46872 0.19091 0.0
C706 C 0.07312 0.49823 0.20312 0.0
C707 C 0.08453 0.52684 0.19005 0.0
H708 H 0.8342 0.93193 0.48228 0.0
H709 H 0.84967 0.98649 0.571 0.0
H710 H 0.89354 0.95096 0.5853 0.0
H711 H 0.84339 0.85741 0.51498 0.0
H712 H 0.86376 0.83914 0.48128 0.0
H713 H 0.83685 0.87142 0.47533 0.0
H714 H 0.8822 0.90321 0.44767 0.0
H715 H 0.90919 0.87083 0.45322 0.0
H716 H 0.91995 0.91041 0.4681 0.0
H717 H 0.93255 0.90722 0.59233 0.0
H718 H 0.96456 0.85816 0.59105 0.0
H719 H 0.9222 0.83026 0.49917 0.0
C720 C 0.84764 0.93689 0.50412 0.0
C721 C 0.8391 0.9622 0.52533 0.0
C722 C 0.85625 0.96737 0.55433 0.0
C723 C 0.88116 0.94734 0.56267 0.0
C724 C 0.88849 0.92197 0.54184 0.0
C725 C 0.87239 0.91668 0.51309 0.0
C726 C 0.88331 0.8861 0.49643 0.0
C727 C 0.85515 0.86211 0.49175 0.0
C728 C 0.89964 0.89306 0.46446 0.0
C729 C 0.90739 0.87484 0.52062 0.0
C730 C 0.91034 0.89607 0.54643 0.0
C731 C 0.93066 0.89049 0.57211 0.0
C732 C 0.94864 0.86252 0.57127 0.0
C733 C 0.94591 0.84036 0.5451 0.0
C734 C 0.92491 0.84672 0.51954 0.0
H735 H 0.91333 0.23084 0.52813 0.0
H736 H 0.986 0.17067 0.48512 0.0
H737 H 0.9496 0.12352 0.48996 0.0
H738 H 0.88072 0.17567 0.58345 0.0
H739 H 0.83967 0.18706 0.57758 0.0
H740 H 0.8719 0.21558 0.57219 0.0
H741 H 0.85203 0.22519 0.51468 0.0
H742 H 0.81944 0.19714 0.52011 0.0
H743 H 0.84652 0.19172 0.48689 0.0
H744 H 0.90587 0.08278 0.50259 0.0
H745 H 0.85489 0.05314 0.51136 0.0
H746 H 0.80899 0.14126 0.54048 0.0
C747 C 0.92143 0.20769 0.51962 0.0
C748 C 0.95232 0.2041 0.50634 0.0
C749 C 0.96223 0.17371 0.49514 0.0
C750 C 0.94187 0.14688 0.49811 0.0
C751 C 0.91159 0.15113 0.51177 0.0
C752 C 0.90112 0.18094 0.52155 0.0
C753 C 0.86672 0.17956 0.53322 0.0
C754 C 0.86465 0.19009 0.56872 0.0
C755 C 0.84489 0.19958 0.51248 0.0
C756 C 0.85933 0.1443 0.52845 0.0
C757 C 0.88579 0.12816 0.5169 0.0
C758 C 0.88496 0.09523 0.51139 0.0
C759 C 0.85602 0.07856 0.51673 0.0
C760 C 0.82815 0.09497 0.52667 0.0
C761 C 0.83001 0.12818 0.53299 0.0
H762 H 0.08964 0.82419 0.50978 0.0
H763 H 0.02164 0.89329 0.47742 0.0
H764 H 0.06484 0.93433 0.47768 0.0
H765 H 0.13596 0.87853 0.56169 0.0
H766 H 0.17389 0.86074 0.5518 0.0
H767 H 0.13748 0.83682 0.55017 0.0
H768 H 0.14923 0.82015 0.49121 0.0
H769 H 0.18575 0.84383 0.49272 0.0
H770 H 0.156 0.85048 0.46246 0.0
H771 H 0.1147 0.96846 0.48361 0.0
H772 H 0.16955 0.99182 0.48813 0.0
H773 H 0.20621 0.89986 0.51255 0.0
C774 C 0.08381 0.84794 0.50273 0.0
C775 C 0.05217 0.8555 0.49363 0.0
C776 C 0.04567 0.88684 0.48436 0.0
C777 C 0.07001 0.9104 0.48462 0.0
C778 C 0.10082 0.90221 0.49395 0.0
C779 C 0.10793 0.87166 0.50243 0.0
C780 C 0.14331 0.86891 0.51039 0.0
C781 C 0.14792 0.86077 0.5456 0.0
C782 C 0.15952 0.8444 0.48784 0.0
C783 C 0.15508 0.90254 0.50444 0.0
C784 C 0.12999 0.92154 0.49576 0.0
C785 C 0.13458 0.95378 0.49015 0.0
C786 C 0.16573 0.96686 0.49294 0.0
C787 C 0.19198 0.94756 0.50053 0.0
C788 C 0.18653 0.91502 0.50647 0.0
H789 H 0.08145 0.16732 0.57433 0.0
H790 H 0.07689 0.20765 0.48041 0.0
H791 H 0.12093 0.17354 0.46202 0.0
H792 H 0.16826 0.16281 0.57653 0.0
H793 H 0.16856 0.12576 0.59691 0.0
H794 H 0.13576 0.15266 0.60292 0.0
H795 H 0.09531 0.10756 0.58573 0.0
H796 H 0.12801 0.08054 0.57967 0.0
H797 H 0.10018 0.08689 0.54759 0.0
H798 H 0.16396 0.13442 0.45271 0.0
H799 H 0.20659 0.09447 0.45433 0.0
H800 H 0.18663 0.08109 0.55472 0.0
C801 C 0.08972 0.16883 0.54992 0.0
C802 C 0.07571 0.1902 0.52885 0.0
C803 C 0.08738 0.19168 0.49711 0.0
C804 C 0.11232 0.1723 0.48633 0.0
C805 C 0.12574 0.15167 0.5076 0.0
C806 C 0.11518 0.14992 0.5388 0.0
C807 C 0.13473 0.12624 0.55682 0.0
C808 C 0.1529 0.14287 0.58496 0.0
C809 C 0.11327 0.09867 0.56811 0.0
C810 C 0.15768 0.115 0.53078 0.0
C811 C 0.15177 0.12981 0.50252 0.0
C812 C 0.16904 0.1228 0.47475 0.0
C813 C 0.19314 0.10005 0.47587 0.0
C814 C 0.20005 0.08493 0.50466 0.0
C815 C 0.1821 0.0926 0.53248 0.0
loop_
_geom_bond_atom_site_label_1
_geom_bond_atom_site_label_2
_geom_bond_distance
_geom_bond_site_symmetry_2
_ccdc_geom_bond_type
Co0 O1 2.216 1_455 S
Co0 O2 2.091 . S
Co0 O4 2.004 . S
Co0 O10 2.021 . S
Co0 O12 2.137 1_455 S
Co0 O13 2.244 1_455 S
O1 Co0 2.216 1_655 S
O1 C8 1.247 . S
O2 Co0 2.091 . S
O2 C8 1.261 1_455 S
C3 O12 1.247 . S
C3 O13 1.272 . S
O4 Co0 2.004 . S
O4 C9 1.259 . S
Co5 O6 2.061 1_655 S
Co5 O11 2.052 . S
Co5 O13 2.135 . S
O6 Co5 2.061 1_455 S
O6 C9 1.235 . S
C7 O10 1.238 . S
C7 O11 1.241 1_455 S
C8 O1 1.247 . S
C8 O2 1.261 1_655 S
C9 O4 1.259 . S
C9 O6 1.235 . S
O10 Co0 2.021 . S
O10 C7 1.238 . S
O11 Co5 2.052 . S
O11 C7 1.241 1_655 S
O12 Co0 2.137 1_655 S
O12 C3 1.247 . S
O13 Co0 2.244 1_655 S
O13 C3 1.272 . S
O13 Co5 2.135 . S
Co14 O15 2.210 1_545 S
Co14 O16 2.074 1_545 S
Co14 O18 2.006 . S
Co14 O24 2.035 . S
Co14 O26 2.129 1_545 S
Co14 O27 2.255 . S
O15 Co14 2.210 1_565 S
O15 C22 1.247 . S
O16 Co14 2.074 1_565 S
O16 C22 1.261 . S
C17 O26 1.247 1_545 S
C17 O27 1.272 . S
O18 Co14 2.006 . S
O18 C23 1.259 . S
Co19 O20 2.061 . S
Co19 O25 2.052 . S
Co19 O27 2.135 . S
O20 Co19 2.061 . S
O20 C23 1.235 . S
C21 O24 1.238 . S
C21 O25 1.241 . S
C22 O15 1.247 . S
C22 O16 1.261 . S
C23 O18 1.259 . S
C23 O20 1.235 . S
O24 Co14 2.035 . S
O24 C21 1.238 . S
O25 Co19 2.052 . S
O25 C21 1.241 . S
O26 Co14 2.129 1_565 S
O26 C17 1.247 1_565 S
O27 Co14 2.255 . S
O27 C17 1.272 . S
O27 Co19 2.135 . S
Co28 O29 2.216 1_455 S
Co28 O30 2.091 . S
Co28 O32 2.004 . S
Co28 O38 2.021 . S
Co28 O40 2.137 1_455 S
Co28 O41 2.244 1_455 S
O29 Co28 2.216 1_655 S
O29 C36 1.247 1_655 S
O30 Co28 2.091 . S
O30 C36 1.261 . S
C31 O40 1.247 . S
C31 O41 1.272 . S
O32 Co28 2.004 . S
O32 C37 1.259 . S
Co33 O34 2.055 1_655 S
Co33 O39 2.051 1_655 S
Co33 O41 2.138 . S
O34 Co33 2.055 1_455 S
O34 C37 1.235 . S
C35 O38 1.238 . S
C35 O39 1.241 . S
C36 O29 1.247 1_455 S
C36 O30 1.261 . S
C37 O32 1.259 . S
C37 O34 1.235 . S
O38 Co28 2.021 . S
O38 C35 1.238 . S
O39 Co33 2.051 1_455 S
O39 C35 1.241 . S
O40 Co28 2.137 1_655 S
O40 C31 1.247 . S
O41 Co28 2.244 1_655 S
O41 C31 1.272 . S
O41 Co33 2.138 . S
Co42 O43 2.216 . S
Co42 O44 2.091 . S
Co42 O46 2.004 . S
Co42 O52 2.021 1_545 S
Co42 O54 2.137 . S
Co42 O55 2.244 . S
O43 Co42 2.216 . S
O43 C50 1.247 . S
O44 Co42 2.091 . S
O44 C50 1.261 . S
C45 O54 1.247 . S
C45 O55 1.272 . S
O46 Co42 2.004 . S
O46 C51 1.259 . S
Co47 O48 2.061 . S
Co47 O53 2.052 . S
Co47 O55 2.135 1_565 S
O48 Co47 2.061 . S
O48 C51 1.235 1_565 S
C49 O52 1.238 . S
C49 O53 1.241 . S
C50 O43 1.247 . S
C50 O44 1.261 . S
C51 O46 1.259 . S
C51 O48 1.235 1_545 S
O52 Co42 2.021 1_565 S
O52 C49 1.238 . S
O53 Co47 2.052 . S
O53 C49 1.241 . S
O54 Co42 2.137 . S
O54 C45 1.247 . S
O55 Co42 2.244 . S
O55 C45 1.272 . S
O55 Co47 2.135 1_545 S
Co56 O57 2.216 . S
Co56 O58 2.091 . S
Co56 O60 2.004 . S
Co56 O66 2.021 1_545 S
Co56 O68 2.137 . S
Co56 O69 2.244 1_545 S
O57 Co56 2.216 . S
O57 C64 1.247 . S
O58 Co56 2.091 . S
O58 C64 1.261 . S
C59 O68 1.247 . S
C59 O69 1.272 1_545 S
O60 Co56 2.004 . S
O60 C65 1.253 1_545 S
Co61 O62 2.061 . S
Co61 O67 2.052 . S
Co61 O69 2.135 . S
O62 Co61 2.061 . S
O62 C65 1.241 . S
C63 O66 1.238 . S
C63 O67 1.241 . S
C64 O57 1.247 . S
C64 O58 1.261 . S
C65 O60 1.253 1_565 S
C65 O62 1.241 . S
O66 Co56 2.021 1_565 S
O66 C63 1.238 . S
O67 Co61 2.052 . S
O67 C63 1.241 . S
O68 Co56 2.137 . S
O68 C59 1.247 . S
O69 Co56 2.244 1_565 S
O69 C59 1.272 1_565 S
O69 Co61 2.135 . S
Co70 O71 2.216 . S
Co70 O72 2.091 1_455 S
Co70 O74 2.004 1_455 S
Co70 O80 2.021 1_455 S
Co70 O82 2.137 . S
Co70 O83 2.244 . S
O71 Co70 2.216 . S
O71 C78 1.247 . S
O72 Co70 2.091 1_655 S
O72 C78 1.261 1_655 S
C73 O82 1.247 . S
C73 O83 1.272 . S
O74 Co70 2.004 1_655 S
O74 C79 1.259 . S
Co75 O76 2.061 1_455 S
Co75 O81 2.052 . S
Co75 O83 2.135 . S
O76 Co75 2.061 1_655 S
O76 C79 1.235 . S
C77 O80 1.238 1_455 S
C77 O81 1.241 . S
C78 O71 1.247 . S
C78 O72 1.261 1_455 S
C79 O74 1.259 . S
C79 O76 1.235 . S
O80 Co70 2.021 1_655 S
O80 C77 1.238 1_655 S
O81 Co75 2.052 . S
O81 C77 1.241 . S
O82 Co70 2.137 . S
O82 C73 1.247 . S
O83 Co70 2.244 . S
O83 C73 1.272 . S
O83 Co75 2.135 . S
Co84 O85 2.216 1_545 S
Co84 O86 2.091 1_545 S
Co84 O88 2.004 . S
Co84 O94 2.021 . S
Co84 O96 2.137 1_545 S
Co84 O97 2.244 . S
O85 Co84 2.216 1_565 S
O85 C92 1.247 . S
O86 Co84 2.091 1_565 S
O86 C92 1.261 . S
C87 O96 1.247 1_545 S
C87 O97 1.272 . S
O88 Co84 2.004 . S
O88 C93 1.259 . S
Co89 O90 2.061 . S
Co89 O95 2.052 . S
Co89 O97 2.135 . S
O90 Co89 2.061 . S
O90 C93 1.235 . S
C91 O94 1.238 . S
C91 O95 1.241 . S
C92 O85 1.247 . S
C92 O86 1.261 . S
C93 O88 1.259 . S
C93 O90 1.235 . S
O94 Co84 2.021 . S
O94 C91 1.238 . S
O95 Co89 2.052 . S
O95 C91 1.241 . S
O96 Co84 2.137 1_565 S
O96 C87 1.247 1_565 S
O97 Co84 2.244 . S
O97 C87 1.272 . S
O97 Co89 2.135 . S
Co98 O99 2.216 . S
Co98 O100 2.091 1_455 S
Co98 O102 2.004 1_455 S
Co98 O108 2.021 1_455 S
Co98 O110 2.137 . S
Co98 O111 2.244 . S
O99 Co98 2.216 . S
O99 C106 1.247 . S
O100 Co98 2.091 1_655 S
O100 C106 1.261 1_655 S
C101 O110 1.247 . S
C101 O111 1.272 . S
O102 Co98 2.004 1_655 S
O102 C107 1.259 . S
Co103 O104 2.061 1_455 S
Co103 O109 2.052 . S
Co103 O111 2.135 . S
O104 Co103 2.061 1_655 S
O104 C107 1.235 . S
C105 O108 1.238 . S
C105 O109 1.240 1_655 S
C106 O99 1.247 . S
C106 O100 1.261 1_455 S
C107 O102 1.259 . S
C107 O104 1.235 . S
O108 Co98 2.021 1_655 S
O108 C105 1.238 . S
O109 Co103 2.052 . S
O109 C105 1.240 1_455 S
O110 Co98 2.137 . S
O110 C101 1.247 . S
O111 Co98 2.244 . S
O111 C101 1.272 . S
O111 Co103 2.135 . S
Co112 O113 2.216 1_554 S
Co112 O114 2.091 . S
Co112 O116 2.004 . S
Co112 O122 2.021 . S
Co112 O124 2.137 1_554 S
Co112 O125 2.244 1_554 S
O113 Co112 2.216 1_556 S
O113 C120 1.247 1_556 S
O114 Co112 2.091 . S
O114 C120 1.261 . S
C115 O124 1.247 . S
C115 O125 1.272 . S
O116 Co112 2.004 . S
O116 C121 1.259 . S
Co117 O118 2.061 . S
Co117 O123 2.052 . S
Co117 O125 2.135 1_554 S
O118 Co117 2.061 . S
O118 C121 1.235 . S
C119 O122 1.238 . S
C119 O123 1.241 . S
C120 O113 1.247 1_554 S
C120 O114 1.261 . S
C121 O116 1.259 . S
C121 O118 1.235 . S
O122 Co112 2.021 . S
O122 C119 1.238 . S
O123 Co117 2.052 . S
O123 C119 1.241 . S
O124 Co112 2.137 1_556 S
O124 C115 1.247 . S
O125 Co112 2.244 1_556 S
O125 C115 1.272 . S
O125 Co117 2.135 1_556 S
Co126 O127 2.216 . S
Co126 O128 2.091 . S
Co126 O130 2.004 . S
Co126 O136 2.021 1_554 S
Co126 O138 2.137 . S
Co126 O139 2.244 1_554 S
O127 Co126 2.216 . S
O127 C134 1.247 . S
O128 Co126 2.091 . S
O128 C134 1.261 . S
C129 O138 1.247 . S
C129 O139 1.272 1_554 S
O130 Co126 2.004 . S
O130 C135 1.259 1_554 S
Co131 O132 2.061 . S
Co131 O137 2.052 . S
Co131 O139 2.135 . S
O132 Co131 2.061 . S
O132 C135 1.235 . S
C133 O136 1.238 . S
C133 O137 1.241 . S
C134 O127 1.247 . S
C134 O128 1.261 . S
C135 O130 1.259 1_556 S
C135 O132 1.235 . S
O136 Co126 2.021 1_556 S
O136 C133 1.238 . S
O137 Co131 2.052 . S
O137 C133 1.241 . S
O138 Co126 2.137 . S
O138 C129 1.247 . S
O139 Co126 2.244 1_556 S
O139 C129 1.272 1_556 S
O139 Co131 2.135 . S
Co140 O141 2.216 1_554 S
Co140 O142 2.091 . S
Co140 O144 2.004 . S
Co140 O150 2.021 . S
Co140 O152 2.137 1_554 S
Co140 O153 2.244 1_554 S
O141 Co140 2.216 1_556 S
O141 C148 1.247 1_556 S
O142 Co140 2.091 . S
O142 C148 1.261 . S
C143 O152 1.247 . S
C143 O153 1.272 . S
O144 Co140 2.004 . S
O144 C149 1.259 . S
Co145 O146 2.052 1_556 S
Co145 O151 2.051 1_556 S
Co145 O153 2.140 . S
O146 Co145 2.052 1_554 S
O146 C149 1.235 . S
C147 O150 1.238 . S
C147 O151 1.241 . S
C148 O141 1.247 1_554 S
C148 O142 1.261 . S
C149 O144 1.259 . S
C149 O146 1.235 . S
O150 Co140 2.021 . S
O150 C147 1.238 . S
O151 Co145 2.051 1_554 S
O151 C147 1.241 . S
O152 Co140 2.137 1_556 S
O152 C143 1.247 . S
O153 Co140 2.244 1_556 S
O153 C143 1.272 . S
O153 Co145 2.140 . S
Co154 O155 2.216 1_554 S
Co154 O156 2.091 1_554 S
Co154 O158 2.004 . S
Co154 O164 2.021 . S
Co154 O166 2.137 1_554 S
Co154 O167 2.244 . S
O155 Co154 2.216 1_556 S
O155 C162 1.247 . S
O156 Co154 2.091 1_556 S
O156 C162 1.261 . S
C157 O166 1.247 1_554 S
C157 O167 1.272 . S
O158 Co154 2.004 . S
O158 C163 1.259 . S
Co159 O160 2.061 . S
Co159 O165 2.052 . S
Co159 O167 2.135 . S
O160 Co159 2.061 . S
O160 C163 1.235 . S
C161 O164 1.238 . S
C161 O165 1.241 . S
C162 O155 1.247 . S
C162 O156 1.261 . S
C163 O158 1.259 . S
C163 O160 1.235 . S
O164 Co154 2.021 . S
O164 C161 1.238 . S
O165 Co159 2.052 . S
O165 C161 1.241 . S
O166 Co154 2.137 1_556 S
O166 C157 1.247 1_556 S
O167 Co154 2.244 . S
O167 C157 1.272 . S
O167 Co159 2.135 . S
H168 C180 0.930 . S
H169 C182 0.930 . S
H170 C183 0.930 . S
H171 C187 0.959 . S
H172 C187 0.959 . S
H173 C187 0.961 . S
H174 C188 0.960 . S
H175 C188 0.961 . S
H176 C188 0.959 . S
H177 C191 0.929 . S
H178 C192 0.931 . S
H179 C194 0.929 1_655 S
C180 H168 0.930 . S
C180 C181 1.399 . S
C180 C185 1.399 . S
C181 C180 1.399 . S
C181 C182 1.376 1_655 S
C182 H169 0.930 . S
C182 C181 1.376 1_455 S
C182 C183 1.388 . S
C183 H170 0.930 . S
C183 C182 1.388 . S
C183 C184 1.390 . S
C184 C183 1.390 . S
C184 C185 1.394 1_455 S
C184 C190 1.465 . S
C185 C180 1.399 . S
C185 C184 1.394 1_655 S
C185 C186 1.516 . S
C186 C185 1.516 . S
C186 C187 1.502 . S
C186 C188 1.561 1_655 S
C186 C189 1.526 1_655 S
C187 H171 0.959 . S
C187 H172 0.959 . S
C187 H173 0.961 . S
C187 C186 1.502 . S
C188 H174 0.960 . S
C188 H175 0.961 . S
C188 H176 0.959 . S
C188 C186 1.561 1_455 S
C189 C186 1.526 1_455 S
C189 C190 1.396 . S
C189 C194 1.390 . S
C190 C184 1.465 . S
C190 C189 1.396 . S
C190 C191 1.399 . S
C191 H177 0.929 . S
C191 C190 1.399 . S
C191 C192 1.385 . S
C192 H178 0.931 . S
C192 C191 1.385 . S
C192 C193 1.389 . S
C193 C192 1.389 . S
C193 C194 1.387 . S
C194 H179 0.929 1_455 S
C194 C189 1.390 . S
C194 C193 1.387 . S
H195 C207 0.930 . S
H196 C209 0.930 . S
H197 C210 0.930 . S
H198 C214 0.959 . S
H199 C214 0.959 . S
H200 C214 0.961 . S
H201 C215 0.960 . S
H202 C215 0.961 . S
H203 C215 0.959 . S
H204 C218 0.929 . S
H205 C219 0.931 . S
H206 C221 0.930 . S
C207 H195 0.930 . S
C207 C208 1.382 1_545 S
C207 C212 1.399 . S
C208 C207 1.382 1_565 S
C208 C209 1.395 . S
C209 H196 0.930 . S
C209 C208 1.395 . S
C209 C210 1.388 . S
C210 H197 0.930 . S
C210 C209 1.388 . S
C210 C211 1.390 . S
C211 C210 1.390 . S
C211 C212 1.394 1_565 S
C211 C217 1.465 . S
C212 C207 1.399 . S
C212 C211 1.394 1_545 S
C212 C213 1.516 . S
C213 C212 1.516 . S
C213 C214 1.502 . S
C213 C215 1.561 . S
C213 C216 1.526 . S
C214 H198 0.959 . S
C214 H199 0.959 . S
C214 H200 0.961 . S
C214 C213 1.502 . S
C215 H201 0.960 . S
C215 H202 0.961 . S
C215 H203 0.959 . S
C215 C213 1.561 . S
C216 C213 1.526 . S
C216 C217 1.396 1_545 S
C216 C221 1.390 . S
C217 C211 1.465 . S
C217 C216 1.396 1_565 S
C217 C218 1.399 . S
C218 H204 0.929 . S
C218 C217 1.399 . S
C218 C219 1.385 . S
C219 H205 0.931 . S
C219 C218 1.385 . S
C219 C220 1.389 1_565 S
C220 C219 1.389 1_545 S
C220 C221 1.387 . S
C221 H206 0.930 . S
C221 C216 1.390 . S
C221 C220 1.387 . S
H222 C234 0.930 . S
H223 C236 0.930 . S
H224 C237 0.930 . S
H225 C241 0.959 . S
H226 C241 0.959 . S
H227 C241 0.961 . S
H228 C242 0.960 . S
H229 C242 0.961 . S
H230 C242 0.959 1_455 S
H231 C245 0.929 . S
H232 C246 0.931 . S
H233 C248 0.930 1_655 S
C234 H222 0.930 . S
C234 C235 1.399 1_655 S
C234 C239 1.399 . S
C235 C234 1.399 1_455 S
C235 C236 1.376 . S
C236 H223 0.930 . S
C236 C235 1.376 . S
C236 C237 1.388 . S
C237 H224 0.930 . S
C237 C236 1.388 . S
C237 C238 1.390 . S
C238 C237 1.390 . S
C238 C239 1.394 1_455 S
C238 C244 1.465 . S
C239 C234 1.399 . S
C239 C238 1.394 1_655 S
C239 C240 1.516 . S
C240 C239 1.516 . S
C240 C241 1.502 . S
C240 C242 1.561 . S
C240 C243 1.526 1_655 S
C241 H225 0.959 . S
C241 H226 0.959 . S
C241 H227 0.961 . S
C241 C240 1.502 . S
C242 H228 0.960 . S
C242 H229 0.961 . S
C242 H230 0.959 1_655 S
C242 C240 1.561 . S
C243 C240 1.526 1_455 S
C243 C244 1.396 . S
C243 C248 1.390 . S
C244 C238 1.465 . S
C244 C243 1.396 . S
C244 C245 1.399 . S
C245 H231 0.929 . S
C245 C244 1.399 . S
C245 C246 1.385 . S
C246 H232 0.931 . S
C246 C245 1.385 . S
C246 C247 1.389 . S
C247 C246 1.389 . S
C247 C248 1.387 . S
C248 H233 0.930 1_455 S
C248 C243 1.390 . S
C248 C247 1.387 . S
H249 C261 0.930 1_565 S
H250 C263 0.930 . S
H251 C264 0.930 . S
H252 C268 0.959 1_545 S
H253 C268 0.959 . S
H254 C268 0.961 . S
H255 C269 0.960 . S
H256 C269 0.961 . S
H257 C269 0.959 . S
H258 C272 0.929 . S
H259 C273 0.931 . S
H260 C275 0.930 . S
C261 H249 0.930 1_545 S
C261 C262 1.399 . S
C261 C266 1.399 . S
C262 C261 1.399 . S
C262 C263 1.376 . S
C263 H250 0.930 . S
C263 C262 1.376 . S
C263 C264 1.388 . S
C264 H251 0.930 . S
C264 C263 1.388 . S
C264 C265 1.390 . S
C265 C264 1.390 . S
C265 C266 1.394 . S
C265 C271 1.465 . S
C266 C261 1.399 . S
C266 C265 1.394 . S
C266 C267 1.516 1_545 S
C267 C266 1.516 1_565 S
C267 C268 1.502 . S
C267 C269 1.561 . S
C267 C270 1.526 . S
C268 H252 0.959 1_565 S
C268 H253 0.959 . S
C268 H254 0.961 . S
C268 C267 1.502 . S
C269 H255 0.960 . S
C269 H256 0.961 . S
C269 H257 0.959 . S
C269 C267 1.561 . S
C270 C267 1.526 . S
C270 C271 1.396 1_565 S
C270 C275 1.390 . S
C271 C265 1.465 . S
C271 C270 1.396 1_545 S
C271 C272 1.399 . S
C272 H258 0.929 . S
C272 C271 1.399 . S
C272 C273 1.385 . S
C273 H259 0.931 . S
C273 C272 1.385 . S
C273 C274 1.389 . S
C274 C273 1.389 . S
C274 C275 1.387 1_545 S
C275 H260 0.930 . S
C275 C270 1.390 . S
C275 C274 1.387 1_565 S
H276 C288 0.930 . S
H277 C290 0.930 . S
H278 C291 0.930 . S
H279 C295 0.959 . S
H280 C295 0.959 . S
H281 C295 0.961 . S
H282 C296 0.960 . S
H283 C296 0.961 . S
H284 C296 0.959 . S
H285 C299 0.929 . S
H286 C300 0.931 . S
H287 C302 0.930 1_655 S
C288 H276 0.930 . S
C288 C289 1.399 . S
C288 C293 1.399 . S
C289 C288 1.399 . S
C289 C290 1.376 . S
C290 H277 0.930 . S
C290 C289 1.376 . S
C290 C291 1.388 . S
C291 H278 0.930 . S
C291 C290 1.388 . S
C291 C292 1.390 . S
C292 C291 1.390 . S
C292 C293 1.394 . S
C292 C298 1.465 . S
C293 C288 1.399 . S
C293 C292 1.394 . S
C293 C294 1.516 . S
C294 C293 1.516 . S
C294 C295 1.502 1_455 S
C294 C296 1.561 . S
C294 C297 1.526 . S
C295 H279 0.959 . S
C295 H280 0.959 . S
C295 H281 0.961 . S
C295 C294 1.502 1_655 S
C296 H282 0.960 . S
C296 H283 0.961 . S
C296 H284 0.959 . S
C296 C294 1.561 . S
C297 C294 1.526 . S
C297 C298 1.396 . S
C297 C302 1.390 . S
C298 C292 1.465 . S
C298 C297 1.396 . S
C298 C299 1.399 . S
C299 H285 0.929 . S
C299 C298 1.399 . S
C299 C300 1.385 . S
C300 H286 0.931 . S
C300 C299 1.385 . S
C300 C301 1.389 . S
C301 C300 1.389 . S
C301 C302 1.387 . S
C302 H287 0.930 1_455 S
C302 C297 1.390 . S
C302 C301 1.387 . S
H303 C315 0.930 . S
H304 C317 0.930 . S
H305 C318 0.930 . S
H306 C322 0.959 . S
H307 C322 0.959 . S
H308 C322 0.961 . S
H309 C323 0.960 . S
H310 C323 0.961 . S
H311 C323 0.959 . S
H312 C326 0.929 . S
H313 C327 0.931 . S
H314 C329 0.930 . S
C315 H303 0.930 . S
C315 C316 1.399 . S
C315 C320 1.399 . S
C316 C315 1.399 . S
C316 C317 1.376 1_545 S
C317 H304 0.930 . S
C317 C316 1.376 1_565 S
C317 C318 1.388 . S
C318 H305 0.930 . S
C318 C317 1.388 . S
C318 C319 1.390 1_565 S
C319 C318 1.390 1_545 S
C319 C320 1.394 . S
C319 C325 1.465 . S
C320 C315 1.399 . S
C320 C319 1.394 . S
C320 C321 1.516 . S
C321 C320 1.516 . S
C321 C322 1.502 . S
C321 C323 1.561 . S
C321 C324 1.526 . S
C322 H306 0.959 . S
C322 H307 0.959 . S
C322 H308 0.961 . S
C322 C321 1.502 . S
C323 H309 0.960 . S
C323 H310 0.961 . S
C323 H311 0.959 . S
C323 C321 1.561 . S
C324 C321 1.526 . S
C324 C325 1.396 . S
C324 C329 1.390 . S
C325 C319 1.465 . S
C325 C324 1.396 . S
C325 C326 1.399 1_545 S
C326 H312 0.929 . S
C326 C325 1.399 1_565 S
C326 C327 1.385 . S
C327 H313 0.931 . S
C327 C326 1.385 . S
C327 C328 1.389 1_565 S
C328 C327 1.389 1_545 S
C328 C329 1.387 . S
C329 H314 0.930 . S
C329 C324 1.390 . S
C329 C328 1.387 . S
H330 C342 0.930 . S
H331 C344 0.930 . S
H332 C345 0.930 . S
H333 C349 0.959 . S
H334 C349 0.959 . S
H335 C349 0.961 . S
H336 C350 0.960 . S
H337 C350 0.961 . S
H338 C350 0.959 . S
H339 C353 0.929 . S
H340 C354 0.931 . S
H341 C356 0.930 . S
C342 H330 0.930 . S
C342 C343 1.399 . S
C342 C347 1.399 . S
C343 C342 1.399 . S
C343 C344 1.376 . S
C344 H331 0.930 . S
C344 C343 1.376 . S
C344 C345 1.388 . S
C345 H332 0.930 . S
C345 C344 1.388 . S
C345 C346 1.390 . S
C346 C345 1.390 . S
C346 C347 1.394 . S
C346 C352 1.465 . S
C347 C342 1.399 . S
C347 C346 1.394 . S
C347 C348 1.516 . S
C348 C347 1.516 . S
C348 C349 1.502 1_455 S
C348 C350 1.561 . S
C348 C351 1.526 . S
C349 H333 0.959 . S
C349 H334 0.959 . S
C349 H335 0.961 . S
C349 C348 1.502 1_655 S
C350 H336 0.960 . S
C350 H337 0.961 . S
C350 H338 0.959 . S
C350 C348 1.561 . S
C351 C348 1.526 . S
C351 C352 1.396 . S
C351 C356 1.390 . S
C352 C346 1.465 . S
C352 C351 1.396 . S
C352 C353 1.399 . S
C353 H339 0.929 . S
C353 C352 1.399 . S
C353 C354 1.385 1_455 S
C354 H340 0.931 . S
C354 C353 1.385 1_655 S
C354 C355 1.389 . S
C355 C354 1.389 . S
C355 C356 1.387 1_655 S
C356 H341 0.930 . S
C356 C351 1.390 . S
C356 C355 1.387 1_455 S
H357 C369 0.930 . S
H358 C371 0.930 . S
H359 C372 0.930 . S
H360 C376 0.959 . S
H361 C376 0.959 . S
H362 C376 0.961 . S
H363 C377 0.960 . S
H364 C377 0.961 . S
H365 C377 0.959 . S
H366 C380 0.929 . S
H367 C381 0.931 . S
H368 C383 0.930 . S
C369 H357 0.930 . S
C369 C370 1.399 . S
C369 C374 1.399 . S
C370 C369 1.399 . S
C370 C371 1.376 1_545 S
C371 H358 0.930 . S
C371 C370 1.376 1_565 S
C371 C372 1.388 . S
C372 H359 0.930 . S
C372 C371 1.388 . S
C372 C373 1.376 1_565 S
C373 C372 1.376 1_545 S
C373 C374 1.409 . S
C373 C379 1.467 . S
C374 C369 1.399 . S
C374 C373 1.409 . S
C374 C375 1.516 . S
C375 C374 1.516 . S
C375 C376 1.502 . S
C375 C377 1.561 . S
C375 C378 1.526 . S
C376 H360 0.959 . S
C376 H361 0.959 . S
C376 H362 0.961 . S
C376 C375 1.502 . S
C377 H363 0.960 . S
C377 H364 0.961 . S
C377 H365 0.959 . S
C377 C375 1.561 . S
C378 C375 1.526 . S
C378 C379 1.396 . S
C378 C383 1.390 . S
C379 C373 1.467 . S
C379 C378 1.396 . S
C379 C380 1.399 1_545 S
C380 H366 0.929 . S
C380 C379 1.399 1_565 S
C380 C381 1.385 . S
C381 H367 0.931 . S
C381 C380 1.385 . S
C381 C382 1.389 1_565 S
C382 C381 1.389 1_545 S
C382 C383 1.387 . S
C383 H368 0.930 . S
C383 C378 1.390 . S
C383 C382 1.387 . S
H384 C396 0.930 . S
H385 C398 0.930 . S
H386 C399 0.930 . S
H387 C403 0.959 . S
H388 C403 0.959 . S
H389 C403 0.961 . S
H390 C404 0.960 . S
H391 C404 0.961 . S
H392 C404 0.959 . S
H393 C407 0.929 . S
H394 C408 0.931 . S
H395 C410 0.930 . S
C396 H384 0.930 . S
C396 C397 1.399 . S
C396 C401 1.399 . S
C397 C396 1.399 . S
C397 C398 1.376 1_554 S
C398 H385 0.930 . S
C398 C397 1.376 1_556 S
C398 C399 1.388 . S
C399 H386 0.930 . S
C399 C398 1.388 . S
C399 C400 1.397 . S
C400 C399 1.397 . S
C400 C401 1.383 1_556 S
C400 C406 1.467 . S
C401 C396 1.399 . S
C401 C400 1.383 1_554 S
C401 C402 1.516 . S
C402 C401 1.516 . S
C402 C403 1.502 . S
C402 C404 1.561 . S
C402 C405 1.526 . S
C403 H387 0.959 . S
C403 H388 0.959 . S
C403 H389 0.961 . S
C403 C402 1.502 . S
C404 H390 0.960 . S
C404 H391 0.961 . S
C404 H392 0.959 . S
C404 C402 1.561 . S
C405 C402 1.526 . S
C405 C406 1.396 1_554 S
C405 C410 1.390 . S
C406 C400 1.467 . S
C406 C405 1.396 1_556 S
C406 C407 1.399 . S
C407 H393 0.929 . S
C407 C406 1.399 . S
C407 C408 1.385 . S
C408 H394 0.931 . S
C408 C407 1.385 . S
C408 C409 1.389 . S
C409 C408 1.389 . S
C409 C410 1.387 1_556 S
C410 H395 0.930 . S
C410 C405 1.390 . S
C410 C409 1.387 1_554 S
H411 C423 0.930 . S
H412 C425 0.930 . S
H413 C426 0.930 . S
H414 C430 0.959 . S
H415 C430 0.959 . S
H416 C430 0.961 . S
H417 C431 0.960 . S
H418 C431 0.961 . S
H419 C431 0.959 . S
H420 C434 0.929 . S
H421 C435 0.931 . S
H422 C437 0.930 . S
C423 H411 0.930 . S
C423 C424 1.399 . S
C423 C428 1.399 . S
C424 C423 1.399 . S
C424 C425 1.376 1_554 S
C425 H412 0.930 . S
C425 C424 1.376 1_556 S
C425 C426 1.388 . S
C426 H413 0.930 . S
C426 C425 1.388 . S
C426 C427 1.390 1_556 S
C427 C426 1.390 1_554 S
C427 C428 1.394 . S
C427 C433 1.471 . S
C428 C423 1.399 . S
C428 C427 1.394 . S
C428 C429 1.516 . S
C429 C428 1.516 . S
C429 C430 1.502 . S
C429 C431 1.561 . S
C429 C432 1.526 . S
C430 H414 0.959 . S
C430 H415 0.959 . S
C430 H416 0.961 . S
C430 C429 1.502 . S
C431 H417 0.960 . S
C431 H418 0.961 . S
C431 H419 0.959 . S
C431 C429 1.561 . S
C432 C429 1.526 . S
C432 C433 1.422 . S
C432 C437 1.390 . S
C433 C427 1.471 . S
C433 C432 1.422 . S
C433 C434 1.373 1_554 S
C434 H420 0.929 . S
C434 C433 1.373 1_556 S
C434 C435 1.385 . S
C435 H421 0.931 . S
C435 C434 1.385 . S
C435 C436 1.389 1_556 S
C436 C435 1.389 1_554 S
C436 C437 1.387 . S
C437 H422 0.930 . S
C437 C432 1.390 . S
C437 C436 1.387 . S
H438 C450 0.930 . S
H439 C452 0.930 . S
H440 C453 0.930 . S
H441 C457 0.959 . S
H442 C457 0.959 . S
H443 C457 0.961 . S
H444 C458 0.960 . S
H445 C458 0.961 . S
H446 C458 0.959 . S
H447 C461 0.929 . S
H448 C462 0.931 . S
H449 C464 0.930 . S
C450 H438 0.930 . S
C450 C451 1.399 1_554 S
C450 C455 1.399 . S
C451 C450 1.399 1_556 S
C451 C452 1.376 . S
C452 H439 0.930 . S
C452 C451 1.376 . S
C452 C453 1.388 . S
C453 H440 0.930 . S
C453 C452 1.388 . S
C453 C454 1.390 . S
C454 C453 1.390 . S
C454 C455 1.394 1_556 S
C454 C460 1.463 1_556 S
C455 C450 1.399 . S
C455 C454 1.394 1_554 S
C455 C456 1.516 . S
C456 C455 1.516 . S
C456 C457 1.502 . S
C456 C458 1.561 . S
C456 C459 1.526 . S
C457 H441 0.959 . S
C457 H442 0.959 . S
C457 H443 0.961 . S
C457 C456 1.502 . S
C458 H444 0.960 . S
C458 H445 0.961 . S
C458 H446 0.959 . S
C458 C456 1.561 . S
C459 C456 1.526 . S
C459 C460 1.425 . S
C459 C464 1.390 . S
C460 C454 1.463 1_554 S
C460 C459 1.425 . S
C460 C461 1.379 1_554 S
C461 H447 0.929 . S
C461 C460 1.379 1_556 S
C461 C462 1.385 . S
C462 H448 0.931 . S
C462 C461 1.385 . S
C462 C463 1.389 1_556 S
C463 C462 1.389 1_554 S
C463 C464 1.387 . S
C464 H449 0.930 . S
C464 C459 1.390 . S
C464 C463 1.387 . S
H465 C477 0.930 . S
H466 C479 0.930 . S
H467 C480 0.930 . S
H468 C484 0.959 . S
H469 C484 0.959 . S
H470 C484 0.961 . S
H471 C485 0.960 . S
H472 C485 0.961 . S
H473 C485 0.959 . S
H474 C488 0.929 . S
H475 C489 0.931 . S
H476 C491 0.930 . S
C477 H465 0.930 . S
C477 C478 1.419 . S
C477 C482 1.399 . S
C478 C477 1.419 . S
C478 C479 1.355 1_554 S
C479 H466 0.930 . S
C479 C478 1.355 1_556 S
C479 C480 1.388 . S
C480 H467 0.930 . S
C480 C479 1.388 . S
C480 C481 1.390 . S
C481 C480 1.390 . S
C481 C482 1.394 1_556 S
C481 C487 1.465 1_556 S
C482 C477 1.399 . S
C482 C481 1.394 1_554 S
C482 C483 1.516 . S
C483 C482 1.516 . S
C483 C484 1.502 . S
C483 C485 1.561 . S
C483 C486 1.526 . S
C484 H468 0.959 . S
C484 H469 0.959 . S
C484 H470 0.961 . S
C484 C483 1.502 . S
C485 H471 0.960 . S
C485 H472 0.961 . S
C485 H473 0.959 . S
C485 C483 1.561 . S
C486 C483 1.526 . S
C486 C487 1.396 . S
C486 C491 1.390 . S
C487 C481 1.465 1_554 S
C487 C486 1.396 . S
C487 C488 1.399 1_554 S
C488 H474 0.929 . S
C488 C487 1.399 1_556 S
C488 C489 1.385 . S
C489 H475 0.931 . S
C489 C488 1.385 . S
C489 C490 1.389 1_556 S
C490 C489 1.389 1_554 S
C490 C491 1.387 . S
C491 H476 0.930 . S
C491 C486 1.390 . S
C491 C490 1.387 . S
H492 C504 0.930 . S
H493 C506 0.930 . S
H494 C507 0.930 . S
H495 C511 0.959 . S
H496 C511 0.959 . S
H497 C511 0.961 . S
H498 C512 0.960 . S
H499 C512 0.961 . S
H500 C512 0.959 . S
H501 C515 0.929 . S
H502 C516 0.931 . S
H503 C518 0.930 . S
C504 H492 0.930 . S
C504 C505 1.399 . S
C504 C509 1.399 . S
C505 C504 1.399 . S
C505 C506 1.376 . S
C506 H493 0.930 . S
C506 C505 1.376 . S
C506 C507 1.388 . S
C507 H494 0.930 . S
C507 C506 1.388 . S
C507 C508 1.390 . S
C508 C507 1.390 . S
C508 C509 1.394 . S
C508 C514 1.465 . S
C509 C504 1.399 . S
C509 C508 1.394 . S
C509 C510 1.516 . S
C510 C509 1.516 . S
C510 C511 1.502 . S
C510 C512 1.561 . S
C510 C513 1.526 . S
C511 H495 0.959 . S
C511 H496 0.959 . S
C511 H497 0.961 . S
C511 C510 1.502 . S
C512 H498 0.960 . S
C512 H499 0.961 . S
C512 H500 0.959 . S
C512 C510 1.561 . S
C513 C510 1.526 . S
C513 C514 1.396 . S
C513 C518 1.390 . S
C514 C508 1.465 . S
C514 C513 1.396 . S
C514 C515 1.399 . S
C515 H501 0.929 . S
C515 C514 1.399 . S
C515 C516 1.385 . S
C516 H502 0.931 . S
C516 C515 1.385 . S
C516 C517 1.389 . S
C517 C516 1.389 . S
C517 C518 1.387 . S
C518 H503 0.930 . S
C518 C513 1.390 . S
C518 C517 1.387 . S
H519 C531 0.930 . S
H520 C533 0.930 . S
H521 C534 0.930 . S
H522 C538 0.959 . S
H523 C538 0.959 . S
H524 C538 0.961 . S
H525 C539 0.960 . S
H526 C539 0.961 . S
H527 C539 0.959 . S
H528 C542 0.929 . S
H529 C543 0.931 . S
H530 C545 0.930 . S
C531 H519 0.930 . S
C531 C532 1.399 . S
C531 C536 1.399 . S
C532 C531 1.399 . S
C532 C533 1.376 . S
C533 H520 0.930 . S
C533 C532 1.376 . S
C533 C534 1.388 . S
C534 H521 0.930 . S
C534 C533 1.388 . S
C534 C535 1.390 . S
C535 C534 1.390 . S
C535 C536 1.394 . S
C535 C541 1.465 . S
C536 C531 1.399 . S
C536 C535 1.394 . S
C536 C537 1.516 . S
C537 C536 1.516 . S
C537 C538 1.502 . S
C537 C539 1.561 . S
C537 C540 1.526 . S
C538 H522 0.959 . S
C538 H523 0.959 . S
C538 H524 0.961 . S
C538 C537 1.502 . S
C539 H525 0.960 . S
C539 H526 0.961 . S
C539 H527 0.959 . S
C539 C537 1.561 . S
C540 C537 1.526 . S
C540 C541 1.396 . S
C540 C545 1.390 . S
C541 C535 1.465 . S
C541 C540 1.396 . S
C541 C542 1.399 . S
C542 H528 0.929 . S
C542 C541 1.399 . S
C542 C543 1.385 . S
C543 H529 0.931 . S
C543 C542 1.385 . S
C543 C544 1.389 . S
C544 C543 1.389 . S
C544 C545 1.387 . S
C545 H530 0.930 . S
C545 C540 1.390 . S
C545 C544 1.387 . S
H546 C558 0.930 . S
H547 C560 0.930 . S
H548 C561 0.930 . S
H549 C565 0.959 . S
H550 C565 0.959 . S
H551 C565 0.961 . S
H552 C566 0.960 . S
H553 C566 0.961 . S
H554 C566 0.959 . S
H555 C569 0.929 . S
H556 C570 0.931 . S
H557 C572 0.930 . S
C558 H546 0.930 . S
C558 C559 1.399 . S
C558 C563 1.399 . S
C559 C558 1.399 . S
C559 C560 1.376 . S
C560 H547 0.930 . S
C560 C559 1.376 . S
C560 C561 1.388 . S
C561 H548 0.930 . S
C561 C560 1.388 . S
C561 C562 1.390 . S
C562 C561 1.390 . S
C562 C563 1.394 . S
C562 C568 1.465 . S
C563 C558 1.399 . S
C563 C562 1.394 . S
C563 C564 1.516 . S
C564 C563 1.516 . S
C564 C565 1.502 . S
C564 C566 1.561 . S
C564 C567 1.526 . S
C565 H549 0.959 . S
C565 H550 0.959 . S
C565 H551 0.961 . S
C565 C564 1.502 . S
C566 H552 0.960 . S
C566 H553 0.961 . S
C566 H554 0.959 . S
C566 C564 1.561 . S
C567 C564 1.526 . S
C567 C568 1.396 . S
C567 C572 1.390 . S
C568 C562 1.465 . S
C568 C567 1.396 . S
C568 C569 1.399 . S
C569 H555 0.929 . S
C569 C568 1.399 . S
C569 C570 1.385 . S
C570 H556 0.931 . S
C570 C569 1.385 . S
C570 C571 1.389 . S
C571 C570 1.389 . S
C571 C572 1.387 . S
C572 H557 0.930 . S
C572 C567 1.390 . S
C572 C571 1.387 . S
H573 C585 0.930 . S
H574 C587 0.930 . S
H575 C588 0.930 . S
H576 C592 0.959 . S
H577 C592 0.959 . S
H578 C592 0.961 . S
H579 C593 0.960 . S
H580 C593 0.961 . S
H581 C593 0.959 . S
H582 C596 0.929 . S
H583 C597 0.931 . S
H584 C599 0.930 . S
C585 H573 0.930 . S
C585 C586 1.399 . S
C585 C590 1.399 . S
C586 C585 1.399 . S
C586 C587 1.376 . S
C587 H574 0.930 . S
C587 C586 1.376 . S
C587 C588 1.388 . S
C588 H575 0.930 . S
C588 C587 1.388 . S
C588 C589 1.390 . S
C589 C588 1.390 . S
C589 C590 1.394 . S
C589 C595 1.465 . S
C590 C585 1.399 . S
C590 C589 1.394 . S
C590 C591 1.516 . S
C591 C590 1.516 . S
C591 C592 1.502 . S
C591 C593 1.561 . S
C591 C594 1.526 . S
C592 H576 0.959 . S
C592 H577 0.959 . S
C592 H578 0.961 . S
C592 C591 1.502 . S
C593 H579 0.960 . S
C593 H580 0.961 . S
C593 H581 0.959 . S
C593 C591 1.561 . S
C594 C591 1.526 . S
C594 C595 1.396 . S
C594 C599 1.390 . S
C595 C589 1.465 . S
C595 C594 1.396 . S
C595 C596 1.399 . S
C596 H582 0.929 . S
C596 C595 1.399 . S
C596 C597 1.385 . S
C597 H583 0.931 . S
C597 C596 1.385 . S
C597 C598 1.389 . S
C598 C597 1.389 . S
C598 C599 1.387 . S
C599 H584 0.930 . S
C599 C594 1.390 . S
C599 C598 1.387 . S
H600 C612 0.930 . S
H601 C614 0.930 . S
H602 C615 0.930 . S
H603 C619 0.959 . S
H604 C619 0.959 . S
H605 C619 0.961 . S
H606 C620 0.960 . S
H607 C620 0.961 . S
H608 C620 0.959 . S
H609 C623 0.929 . S
H610 C624 0.931 . S
H611 C626 0.930 . S
C612 H600 0.930 . S
C612 C613 1.399 . S
C612 C617 1.399 . S
C613 C612 1.399 . S
C613 C614 1.376 . S
C614 H601 0.930 . S
C614 C613 1.376 . S
C614 C615 1.388 . S
C615 H602 0.930 . S
C615 C614 1.388 . S
C615 C616 1.390 . S
C616 C615 1.390 . S
C616 C617 1.394 . S
C616 C622 1.465 . S
C617 C612 1.399 . S
C617 C616 1.394 . S
C617 C618 1.516 . S
C618 C617 1.516 . S
C618 C619 1.502 . S
C618 C620 1.561 . S
C618 C621 1.526 . S
C619 H603 0.959 . S
C619 H604 0.959 . S
C619 H605 0.961 . S
C619 C618 1.502 . S
C620 H606 0.960 . S
C620 H607 0.961 . S
C620 H608 0.959 . S
C620 C618 1.561 . S
C621 C618 1.526 . S
C621 C622 1.396 . S
C621 C626 1.390 . S
C622 C616 1.465 . S
C622 C621 1.396 . S
C622 C623 1.399 . S
C623 H609 0.929 . S
C623 C622 1.399 . S
C623 C624 1.385 . S
C624 H610 0.931 . S
C624 C623 1.385 . S
C624 C625 1.389 . S
C625 C624 1.389 . S
C625 C626 1.387 . S
C626 H611 0.930 . S
C626 C621 1.390 . S
C626 C625 1.387 . S
H627 C639 0.930 . S
H628 C641 0.930 . S
H629 C642 0.930 . S
H630 C646 0.959 . S
H631 C646 0.959 . S
H632 C646 0.961 . S
H633 C647 0.960 . S
H634 C647 0.961 . S
H635 C647 0.959 . S
H636 C650 0.929 . S
H637 C651 0.931 . S
H638 C653 0.930 . S
C639 H627 0.930 . S
C639 C640 1.399 . S
C639 C644 1.399 . S
C640 C639 1.399 . S
C640 C641 1.376 . S
C641 H628 0.930 . S
C641 C640 1.376 . S
C641 C642 1.388 . S
C642 H629 0.930 . S
C642 C641 1.388 . S
C642 C643 1.390 . S
C643 C642 1.390 . S
C643 C644 1.394 . S
C643 C649 1.465 . S
C644 C639 1.399 . S
C644 C643 1.394 . S
C644 C645 1.516 . S
C645 C644 1.516 . S
C645 C646 1.502 . S
C645 C647 1.561 . S
C645 C648 1.526 . S
C646 H630 0.959 . S
C646 H631 0.959 . S
C646 H632 0.961 . S
C646 C645 1.502 . S
C647 H633 0.960 . S
C647 H634 0.961 . S
C647 H635 0.959 . S
C647 C645 1.561 . S
C648 C645 1.526 . S
C648 C649 1.396 . S
C648 C653 1.390 . S
C649 C643 1.465 . S
C649 C648 1.396 . S
C649 C650 1.399 . S
C650 H636 0.929 . S
C650 C649 1.399 . S
C650 C651 1.385 . S
C651 H637 0.931 . S
C651 C650 1.385 . S
C651 C652 1.389 . S
C652 C651 1.389 . S
C652 C653 1.387 . S
C653 H638 0.930 . S
C653 C648 1.390 . S
C653 C652 1.387 . S
H654 C666 0.930 . S
H655 C668 0.930 . S
H656 C669 0.930 . S
H657 C673 0.959 . S
H658 C673 0.959 . S
H659 C673 0.961 . S
H660 C674 0.960 . S
H661 C674 0.961 . S
H662 C674 0.959 . S
H663 C677 0.929 . S
H664 C678 0.931 . S
H665 C680 0.930 . S
C666 H654 0.930 . S
C666 C667 1.399 . S
C666 C671 1.399 . S
C667 C666 1.399 . S
C667 C668 1.376 . S
C668 H655 0.930 . S
C668 C667 1.376 . S
C668 C669 1.388 . S
C669 H656 0.930 . S
C669 C668 1.388 . S
C669 C670 1.390 . S
C670 C669 1.390 . S
C670 C671 1.394 . S
C670 C676 1.465 . S
C671 C666 1.399 . S
C671 C670 1.394 . S
C671 C672 1.516 . S
C672 C671 1.516 . S
C672 C673 1.502 . S
C672 C674 1.561 . S
C672 C675 1.526 . S
C673 H657 0.959 . S
C673 H658 0.959 . S
C673 H659 0.961 . S
C673 C672 1.502 . S
C674 H660 0.960 . S
C674 H661 0.961 . S
C674 H662 0.959 . S
C674 C672 1.561 . S
C675 C672 1.526 . S
C675 C676 1.396 . S
C675 C680 1.390 . S
C676 C670 1.465 . S
C676 C675 1.396 . S
C676 C677 1.399 . S
C677 H663 0.929 . S
C677 C676 1.399 . S
C677 C678 1.385 . S
C678 H664 0.931 . S
C678 C677 1.385 . S
C678 C679 1.389 . S
C679 C678 1.389 . S
C679 C680 1.387 . S
C680 H665 0.930 . S
C680 C675 1.390 . S
C680 C679 1.387 . S
H681 C693 0.930 . S
H682 C695 0.930 . S
H683 C696 0.930 . S
H684 C700 0.959 . S
H685 C700 0.959 . S
H686 C700 0.961 . S
H687 C701 0.960 . S
H688 C701 0.961 . S
H689 C701 0.959 . S
H690 C704 0.929 . S
H691 C705 0.931 . S
H692 C707 0.930 . S
C693 H681 0.930 . S
C693 C694 1.399 . S
C693 C698 1.399 . S
C694 C693 1.399 . S
C694 C695 1.376 . S
C695 H682 0.930 . S
C695 C694 1.376 . S
C695 C696 1.388 . S
C696 H683 0.930 . S
C696 C695 1.388 . S
C696 C697 1.390 . S
C697 C696 1.390 . S
C697 C698 1.394 . S
C697 C703 1.465 . S
C698 C693 1.399 . S
C698 C697 1.394 . S
C698 C699 1.516 . S
C699 C698 1.516 . S
C699 C700 1.502 . S
C699 C701 1.561 . S
C699 C702 1.526 . S
C700 H684 0.959 . S
C700 H685 0.959 . S
C700 H686 0.961 . S
C700 C699 1.502 . S
C701 H687 0.960 . S
C701 H688 0.961 . S
C701 H689 0.959 . S
C701 C699 1.561 . S
C702 C699 1.526 . S
C702 C703 1.396 . S
C702 C707 1.390 . S
C703 C697 1.465 . S
C703 C702 1.396 . S
C703 C704 1.399 . S
C704 H690 0.929 . S
C704 C703 1.399 . S
C704 C705 1.385 . S
C705 H691 0.931 . S
C705 C704 1.385 . S
C705 C706 1.389 . S
C706 C705 1.389 . S
C706 C707 1.387 . S
C707 H692 0.930 . S
C707 C702 1.390 . S
C707 C706 1.387 . S
H708 C720 0.930 . S
H709 C722 0.930 . S
H710 C723 0.930 . S
H711 C727 0.959 . S
H712 C727 0.959 . S
H713 C727 0.961 . S
H714 C728 0.960 . S
H715 C728 0.961 . S
H716 C728 0.959 . S
H717 C731 0.929 . S
H718 C732 0.931 . S
H719 C734 0.930 . S
C720 H708 0.930 . S
C720 C721 1.399 . S
C720 C725 1.399 . S
C721 C720 1.399 . S
C721 C722 1.376 . S
C722 H709 0.930 . S
C722 C721 1.376 . S
C722 C723 1.388 . S
C723 H710 0.930 . S
C723 C722 1.388 . S
C723 C724 1.390 . S
C724 C723 1.390 . S
C724 C725 1.394 . S
C724 C730 1.465 . S
C725 C720 1.399 . S
C725 C724 1.394 . S
C725 C726 1.516 . S
C726 C725 1.516 . S
C726 C727 1.502 . S
C726 C728 1.561 . S
C726 C729 1.526 . S
C727 H711 0.959 . S
C727 H712 0.959 . S
C727 H713 0.961 . S
C727 C726 1.502 . S
C728 H714 0.960 . S
C728 H715 0.961 . S
C728 H716 0.959 . S
C728 C726 1.561 . S
C729 C726 1.526 . S
C729 C730 1.396 . S
C729 C734 1.390 . S
C730 C724 1.465 . S
C730 C729 1.396 . S
C730 C731 1.399 . S
C731 H717 0.929 . S
C731 C730 1.399 . S
C731 C732 1.385 . S
C732 H718 0.931 . S
C732 C731 1.385 . S
C732 C733 1.389 . S
C733 C732 1.389 . S
C733 C734 1.387 . S
C734 H719 0.930 . S
C734 C729 1.390 . S
C734 C733 1.387 . S
H735 C747 0.930 . S
H736 C749 0.930 . S
H737 C750 0.930 . S
H738 C754 0.959 . S
H739 C754 0.959 . S
H740 C754 0.961 . S
H741 C755 0.960 . S
H742 C755 0.961 . S
H743 C755 0.959 . S
H744 C758 0.929 . S
H745 C759 0.931 . S
H746 C761 0.930 . S
C747 H735 0.930 . S
C747 C748 1.399 . S
C747 C752 1.399 . S
C748 C747 1.399 . S
C748 C749 1.376 . S
C749 H736 0.930 . S
C749 C748 1.376 . S
C749 C750 1.388 . S
C750 H737 0.930 . S
C750 C749 1.388 . S
C750 C751 1.390 . S
C751 C750 1.390 . S
C751 C752 1.394 . S
C751 C757 1.465 . S
C752 C747 1.399 . S
C752 C751 1.394 . S
C752 C753 1.516 . S
C753 C752 1.516 . S
C753 C754 1.502 . S
C753 C755 1.561 . S
C753 C756 1.526 . S
C754 H738 0.959 . S
C754 H739 0.959 . S
C754 H740 0.961 . S
C754 C753 1.502 . S
C755 H741 0.960 . S
C755 H742 0.961 . S
C755 H743 0.959 . S
C755 C753 1.561 . S
C756 C753 1.526 . S
C756 C757 1.396 . S
C756 C761 1.390 . S
C757 C751 1.465 . S
C757 C756 1.396 . S
C757 C758 1.399 . S
C758 H744 0.929 . S
C758 C757 1.399 . S
C758 C759 1.385 . S
C759 H745 0.931 . S
C759 C758 1.385 . S
C759 C760 1.389 . S
C760 C759 1.389 . S
C760 C761 1.387 . S
C761 H746 0.930 . S
C761 C756 1.390 . S
C761 C760 1.387 . S
H762 C774 0.930 . S
H763 C776 0.930 . S
H764 C777 0.930 . S
H765 C781 0.959 . S
H766 C781 0.959 . S
H767 C781 0.961 . S
H768 C782 0.960 . S
H769 C782 0.961 . S
H770 C782 0.959 . S
H771 C785 0.929 . S
H772 C786 0.931 . S
H773 C788 0.930 . S
C774 H762 0.930 . S
C774 C775 1.399 . S
C774 C779 1.399 . S
C775 C774 1.399 . S
C775 C776 1.376 . S
C776 H763 0.930 . S
C776 C775 1.376 . S
C776 C777 1.388 . S
C777 H764 0.930 . S
C777 C776 1.388 . S
C777 C778 1.390 . S
C778 C777 1.390 . S
C778 C779 1.394 . S
C778 C784 1.465 . S
C779 C774 1.399 . S
C779 C778 1.394 . S
C779 C780 1.516 . S
C780 C779 1.516 . S
C780 C781 1.502 . S
C780 C782 1.561 . S
C780 C783 1.526 . S
C781 H765 0.959 . S
C781 H766 0.959 . S
C781 H767 0.961 . S
C781 C780 1.502 . S
C782 H768 0.960 . S
C782 H769 0.961 . S
C782 H770 0.959 . S
C782 C780 1.561 . S
C783 C780 1.526 . S
C783 C784 1.396 . S
C783 C788 1.390 . S
C784 C778 1.465 . S
C784 C783 1.396 . S
C784 C785 1.399 . S
C785 H771 0.929 . S
C785 C784 1.399 . S
C785 C786 1.385 . S
C786 H772 0.931 . S
C786 C785 1.385 . S
C786 C787 1.389 . S
C787 C786 1.389 . S
C787 C788 1.387 . S
C788 H773 0.930 . S
C788 C783 1.390 . S
C788 C787 1.387 . S
H789 C801 0.930 . S
H790 C803 0.930 . S
H791 C804 0.930 . S
H792 C808 0.959 . S
H793 C808 0.959 . S
H794 C808 0.961 . S
H795 C809 0.960 . S
H796 C809 0.961 . S
H797 C809 0.959 . S
H798 C812 0.929 . S
H799 C813 0.931 . S
H800 C815 0.930 . S
C801 H789 0.930 . S
C801 C802 1.399 . S
C801 C806 1.399 . S
C802 C801 1.399 . S
C802 C803 1.376 . S
C803 H790 0.930 . S
C803 C802 1.376 . S
C803 C804 1.388 . S
C804 H791 0.930 . S
C804 C803 1.388 . S
C804 C805 1.390 . S
C805 C804 1.390 . S
C805 C806 1.394 . S
C805 C811 1.465 . S
C806 C801 1.399 . S
C806 C805 1.394 . S
C806 C807 1.516 . S
C807 C806 1.516 . S
C807 C808 1.502 . S
C807 C809 1.561 . S
C807 C810 1.526 . S
C808 H792 0.959 . S
C808 H793 0.959 . S
C808 H794 0.961 . S
C808 C807 1.502 . S
C809 H795 0.960 . S
C809 H796 0.961 . S
C809 H797 0.959 . S
C809 C807 1.561 . S
C810 C807 1.526 . S
C810 C811 1.396 . S
C810 C815 1.390 . S
C811 C805 1.465 . S
C811 C810 1.396 . S
C811 C812 1.399 . S
C812 H798 0.929 . S
C812 C811 1.399 . S
C812 C813 1.385 . S
C813 H799 0.931 . S
C813 C812 1.385 . S
C813 C814 1.389 . S
C814 C813 1.389 . S
C814 C815 1.387 . S
C815 H800 0.930 . S
C815 C810 1.390 . S
C815 C814 1.387 . S
C181 C8 1.445 . S
C193 C78 1.478 . S
C208 C17 1.544 1_565 S
C220 C59 1.523 . S
C235 C77 1.342 . S
C247 C35 1.377 . S
C262 C45 1.451 . S
C274 C65 1.442 1_545 S
C289 C106 1.516 . S
C301 C36 1.498 . S
C316 C93 1.354 . S
C328 C51 1.369 . S
C343 C7 1.437 . S
C355 C105 1.428 . S
C370 C87 1.489 . S
C382 C23 1.472 . S
C397 C129 1.514 . S
C409 C120 1.534 1_556 S
C424 C119 1.460 . S
C436 C157 1.487 . S
C451 C135 1.401 . S
C463 C147 1.329 . S
C478 C148 1.441 . S
C490 C163 1.419 . S
C505 C162 1.479 . S
C517 C92 1.462 . S
C532 C115 1.523 . S
C544 C101 1.536 . S
C559 C91 1.350 . S
C571 C133 1.340 . S
C586 C107 1.426 . S
C598 C143 1.452 . S
C613 C64 1.479 . S
C625 C134 1.517 . S
C640 C79 1.352 . S
C652 C149 1.364 . S
C667 C161 1.386 . S
C679 C63 1.421 . S
C694 C121 1.453 . S
C706 C73 1.479 . S
C721 C22 1.491 . S
C733 C31 1.540 . S
C748 C3 1.497 . S
C760 C21 1.427 . S
C775 C37 1.399 . S
C787 C49 1.332 . S
C802 C9 1.407 . S
C814 C50 1.439 . S
