# Generated by pormake.
# Topology sxc, (6)-cn, num edge types: 1
# Building blocks:
#     Node 0, Type 0, BuildingBlock: KUMJIN_clean_sbu_0, # of connection points: 6
#     Node 1, Type 0, BuildingBlock: KUMJIN_clean_sbu_0, # of connection points: 6
#     Node 2, Type 0, BuildingBlock: KUMJIN_clean_sbu_0, # of connection points: 6
#     Edge 3, Type (0, 0), BuildingBlock: ZUJKAS_clean_linker_0, # of connection points: 2
#     Edge 4, Type (0, 0), BuildingBlock: ZUJKAS_clean_linker_0, # of connection points: 2
#     Edge 5, Type (0, 0), BuildingBlock: ZUJKAS_clean_linker_0, # of connection points: 2
#     Edge 6, Type (0, 0), BuildingBlock: ZUJKAS_clean_linker_0, # of connection points: 2
#     Edge 7, Type (0, 0), BuildingBlock: ZUJKAS_clean_linker_0, # of connection points: 2
#     Edge 8, Type (0, 0), BuildingBlock: ZUJKAS_clean_linker_0, # of connection points: 2
#     Edge 9, Type (0, 0), BuildingBlock: ZUJKAS_clean_linker_0, # of connection points: 2
#     Edge 10, Type (0, 0), BuildingBlock: ZUJKAS_clean_linker_0, # of connection points: 2
#     Edge 11, Type (0, 0), BuildingBlock: ZUJKAS_clean_linker_0, # of connection points: 2
# Relax obj value: 0.146
# Max RMSD: 0.135
# Mean RMSD: 0.120
data_MOF--net-sxc--node1-KUMJIN_clean_sbu_0--edge1-ZUJKAS_clean_linker_0
_symmetry_space_group_name_H-M    P1
_symmetry_Int_Tables_number       1
_symmetry_cell_setting            triclinic
loop_
_symmetry_equiv_pos_as_xyz
'x, y, z'
_cell_length_a     20.01683
_cell_length_b     22.351736
_cell_length_c     59.145887
_cell_angle_alpha  112.54996
_cell_angle_beta   94.856771
_cell_angle_gamma 102.79918
loop_
_atom_site_label
_atom_site_type_symbol
_atom_site_fract_x
_atom_site_fract_y
_atom_site_fract_z
_atom_type_partial_charge
Eu0 Eu 0.17124 0.1632 -0.00871 0.0
C1 C 0.89086 0.14772 0.97088 0.0
C2 C 0.88295 0.22819 0.0114 0.0
C3 C 0.79696 0.20243 0.97518 0.0
C4 C 0.91546 0.18093 -0.00354 0.0
C5 C 0.83194 0.15929 0.96003 0.0
C6 C 0.82246 0.23689 0.00079 0.0
C7 C 0.84766 0.08743 0.91961 0.0
N8 N 0.92638 0.10722 0.95642 0.0
C9 C 0.90532 0.07711 0.93106 0.0
C10 C 0.81045 0.12825 0.93415 0.0
Eu11 Eu 1.01503 0.08255 0.97795 0.0
N12 N 0.97493 0.17249 0.0063 0.0
C13 C 1.00937 0.21773 0.02982 0.0
C14 C 0.91425 0.26833 0.03631 0.0
C15 C 0.97887 0.26451 0.04531 0.0
H16 H 0.93027 0.04198 0.91936 0.0
H17 H 1.00609 0.29863 0.06404 0.0
H18 H 0.7965 0.27215 0.0121 0.0
H19 H 0.83112 0.06267 0.89955 0.0
H20 H 0.06145 0.22024 0.0368 0.0
H21 H 0.36571 0.051 0.01543 0.0
H22 H 0.89111 0.30528 0.04828 0.0
H23 H 0.13534 0.30815 0.02499 0.0
H24 H 0.26489 0.0562 -0.01027 0.0
H25 H 0.18504 0.40894 0.06433 0.0
H26 H 0.75131 0.21114 0.96715 0.0
H27 H 0.42369 0.14767 0.05549 0.0
H28 H 0.42999 0.26434 0.08667 0.0
H29 H 0.76553 0.13588 0.9252 0.0
H30 H 0.38146 0.36184 0.09977 0.0
N31 N 0.26203 0.15158 0.01607 0.0
C32 C 0.28757 0.09689 0.0078 0.0
C33 C 0.37859 0.1495 0.04454 0.0
C34 C 0.35347 0.20648 0.05249 0.0
C35 C 0.34565 0.09459 0.02203 0.0
C36 C 0.29486 0.20632 0.03748 0.0
H37 H 0.28986 0.41602 0.09169 0.0
N38 N 0.21027 0.25845 0.02996 0.0
C39 C 0.20889 0.36778 0.05905 0.0
C40 C 0.26783 0.26136 0.04474 0.0
C41 C 0.18069 0.31056 0.03673 0.0
C42 C 0.26811 0.37163 0.07442 0.0
C43 C 0.29826 0.31791 0.06739 0.0
O44 O 0.23653 0.25042 -0.01188 0.0
O45 O 0.07439 0.19382 0.98196 0.0
O46 O 1.04561 0.07811 0.94121 0.0
O47 O 0.16038 0.08664 0.95174 0.0
O48 O 0.07549 0.1964 0.98202 0.0
O49 O 0.25 0.15171 0.96768 0.0
O50 O 0.95487 0.98501 0.94867 0.0
O51 O 0.11276 0.04836 0.98279 0.0
O52 O 0.15418 0.14415 0.02622 0.0
O53 O 1.03512 0.09615 0.01818 0.0
O54 O 0.11191 0.04587 0.98275 0.0
O55 O 0.93311 1.01539 0.98597 0.0
C56 C 0.05419 0.24606 0.97916 0.0
C57 C 0.35154 0.24441 0.98577 0.0
C58 C 0.45036 0.34407 0.00737 0.0
C59 C 0.38042 0.31415 -0.00475 0.0
C60 C 0.492 0.30286 0.0096 0.0
C61 C 0.39414 0.20367 -0.01229 0.0
C62 C 0.46389 0.23297 -0.00028 0.0
C63 C 0.1058 0.07213 0.93467 0.0
C64 C 0.27617 0.21653 0.97543 0.0
C65 C 0.35717 0.31871 0.08234 0.0
C66 C 0.38477 0.26316 0.07489 0.0
C67 C 0.13234 0.99444 0.98427 0.0
C68 C 0.83905 0.94106 0.95315 0.0
C69 C 0.79811 0.91517 0.96708 0.0
C70 C 0.72703 0.88159 0.95782 0.0
C71 C 0.69568 0.87781 0.935 0.0
C72 C 0.80785 0.9334 0.92963 0.0
C73 C 0.73616 0.90371 0.92099 0.0
C74 C 0.09695 0.11905 0.03301 0.0
C75 C 0.9146 0.97037 0.96302 0.0
H76 H 0.34805 0.34516 -0.00708 0.0
H77 H 0.54614 0.32458 0.01886 0.0
H78 H 0.37364 0.14945 0.98025 0.0
H79 H 0.49622 0.20141 0.0014 0.0
H80 H 0.82237 0.9187 0.98484 0.0
H81 H 0.64097 0.85179 0.92742 0.0
H82 H 0.83855 0.94862 0.91764 0.0
H83 H 0.71241 0.89853 0.90295 0.0
Eu84 Eu 0.17258 0.19083 0.34071 0.0
C85 C 0.96141 0.98598 0.27044 0.0
C86 C 0.88175 0.94581 0.29362 0.0
C87 C 0.83553 0.95253 0.25571 0.0
C88 C 0.95055 0.97114 0.2909 0.0
C89 C 0.90351 0.97632 0.25263 0.0
C90 C 0.82475 0.93644 0.27592 0.0
C91 C 0.98317 1.0048 0.22775 0.0
N92 N 1.02787 1.00737 0.26738 0.0
C93 C 1.03856 1.01138 0.24531 0.0
C94 C 0.91531 0.98842 0.23164 0.0
Eu95 Eu 0.1182 1.01712 0.29898 0.0
N96 N 1.0065 0.98172 0.30818 0.0
C97 C 0.99657 0.96572 0.32803 0.0
C98 C 0.87187 0.93075 0.31415 0.0
C99 C 0.92954 0.94071 0.33138 0.0
H100 H 0.08922 1.01642 0.24026 0.0
H101 H 0.92246 0.92861 0.34723 0.0
H102 H 0.77191 0.91607 0.27753 0.0
H103 H 0.99282 1.01004 0.21077 0.0
H104 H 1.03938 0.97059 0.34141 0.0
H105 H 0.18902 0.39767 0.3116 0.0
H106 H 0.81997 0.9114 0.31685 0.0
H107 H 0.30283 0.17276 0.37635 0.0
H108 H 0.13106 0.30976 0.32476 0.0
H109 H 0.4306 0.2096 0.3868 0.0
H110 H 0.79083 0.94472 0.24217 0.0
H111 H 0.31576 0.421 0.3116 0.0
H112 H 0.43046 0.40277 0.32357 0.0
H113 H 0.87226 0.98189 0.21771 0.0
H114 H 0.49672 0.35164 0.34435 0.0
N115 N 0.22363 0.28184 0.33087 0.0
C116 C 0.18645 0.31985 0.32481 0.0
C117 C 0.29055 0.38234 0.3173 0.0
C118 C 0.3294 0.34792 0.32597 0.0
C119 C 0.21901 0.3694 0.31731 0.0
C120 C 0.29401 0.29739 0.33286 0.0
H121 H 0.49734 0.2821 0.369 0.0
N122 N 0.2958 0.22273 0.35224 0.0
C123 C 0.40338 0.22562 0.37453 0.0
C124 C 0.33129 0.26751 0.34413 0.0
C125 C 0.33047 0.20458 0.36841 0.0
C126 C 0.44087 0.26633 0.36437 0.0
C127 C 0.40494 0.28912 0.34943 0.0
O128 O 0.11306 0.21006 0.37096 0.0
O129 O 0.07453 0.10173 0.32372 0.0
O130 O 0.16347 0.07849 0.27819 0.0
O131 O 0.15685 0.18653 0.30147 0.0
O132 O 0.06799 0.19233 0.32278 0.0
O133 O 0.20344 0.28661 0.37353 0.0
O134 O 0.1094 0.93464 0.26297 0.0
O135 O 0.21479 0.10332 0.3206 0.0
O136 O 0.1807 0.12968 0.3631 0.0
O137 O 0.14907 1.01545 0.33651 0.0
O138 O 0.23267 1.01485 0.29865 0.0
O139 O 0.11336 0.91606 0.2963 0.0
C140 C 1.03166 0.13148 0.3177 0.0
C141 C 0.11426 0.32362 0.39448 0.0
C142 C 0.11101 0.44064 0.40887 0.0
C143 C 0.14449 0.39041 0.39829 0.0
C144 C 0.04671 0.42388 0.41591 0.0
C145 C 0.05049 0.30772 0.40209 0.0
C146 C 1.017 0.3577 0.41273 0.0
C147 C 0.16412 0.13984 0.28066 0.0
C148 C 0.15085 0.27165 0.3837 0.0
C149 C 0.44021 0.33565 0.34091 0.0
C150 C 0.40248 0.36481 0.3291 0.0
C151 C 0.2647 0.07594 0.31382 0.0
C152 C 0.17395 0.86015 0.26572 0.0
C153 C 0.19331 0.82388 0.27864 0.0
C154 C 0.25207 0.79974 0.27483 0.0
C155 C 0.29096 0.80994 0.2574 0.0
C156 C 0.21247 0.86912 0.24783 0.0
C157 C 0.27046 0.84383 0.24368 0.0
C158 C 0.16945 0.06565 0.35889 0.0
C159 C 0.11768 0.89288 0.2727 0.0
H160 H 0.19344 0.40329 0.39237 0.0
H161 H 1.01958 0.4618 0.42376 0.0
H162 H 1.02655 0.25677 0.39979 0.0
H163 H 0.96764 0.34497 0.41835 0.0
H164 H 0.16434 0.81675 0.29254 0.0
H165 H 0.33685 0.7919 0.25449 0.0
H166 H 0.19895 0.89691 0.23747 0.0
H167 H 0.30032 0.85166 0.23013 0.0
Eu168 Eu 0.1708 0.93985 0.62796 0.0
C169 C 0.09171 0.16268 0.68214 0.0
C170 C 1.02361 0.18117 0.65075 0.0
C171 C 0.98447 0.19546 0.68972 0.0
C172 C 0.08132 0.16237 0.65863 0.0
C173 C 1.04413 0.18114 0.69817 0.0
C174 C 0.97442 0.19584 0.66611 0.0
C175 C 0.12289 0.18065 0.73111 0.0
N176 N 0.15027 0.14917 0.68993 0.0
C177 C 0.16897 0.16411 0.71477 0.0
C178 C 0.0592 0.18736 0.72259 0.0
Eu179 Eu 0.2222 0.1141 0.6595 0.0
N180 N 0.12877 0.14632 0.64382 0.0
C181 C 0.1259 0.15668 0.62246 0.0
C182 C 1.01729 0.18537 0.62774 0.0
C183 C 0.0695 0.17444 0.61378 0.0
H184 H 0.22019 0.165 0.72245 0.0
H185 H 0.06712 0.18099 0.59655 0.0
H186 H 0.92914 0.20885 0.6601 0.0
H187 H 0.13739 0.18991 0.75046 0.0
H188 H 0.16786 0.15392 0.61226 0.0
H189 H 0.19667 0.79115 0.68229 0.0
H190 H 0.97374 0.19941 0.62103 0.0
H191 H 0.25563 0.94239 0.58143 0.0
H192 H 0.13584 0.84675 0.66188 0.0
H193 H 0.36134 0.91869 0.56625 0.0
H194 H 0.94694 0.20851 0.70163 0.0
H195 H 0.31544 0.78338 0.67585 0.0
H196 H 0.4127 0.79962 0.65285 0.0
H197 H 1.02393 0.20114 0.73539 0.0
H198 H 0.45654 0.83208 0.6204 0.0
N199 N 0.22222 0.87752 0.64618 0.0
C200 C 0.18872 0.84597 0.65956 0.0
C201 C 0.2896 0.80934 0.6673 0.0
C202 C 0.32044 0.8347 0.65129 0.0
C203 C 0.22263 0.81358 0.67096 0.0
C204 C 0.28461 0.86829 0.64067 0.0
H205 H 0.43629 0.87381 0.58732 0.0
N206 N 0.27172 0.91589 0.61196 0.0
C207 C 0.34797 0.9103 0.58235 0.0
C208 C 0.30936 0.88666 0.62256 0.0
C209 C 0.28846 0.92496 0.59136 0.0
C210 C 0.38996 0.88474 0.59421 0.0
C211 C 0.3704 0.87169 0.61437 0.0
O212 O 0.12295 0.88365 0.58855 0.0
O213 O 0.12209 1.02832 0.63852 0.0
O214 O 0.23451 0.0744 0.68908 0.0
O215 O 0.16725 0.9642 0.66882 0.0
O216 O 0.07506 0.94765 0.64616 0.0
O217 O 0.10466 0.83613 0.61359 0.0
O218 O 0.26572 0.21734 0.68734 0.0
O219 O 0.26946 1.02796 0.63985 0.0
O220 O 0.15553 0.98493 0.60016 0.0
O221 O 0.2377 0.08767 0.61944 0.0
O222 O 0.32008 0.09499 0.67542 0.0
O223 O 0.29083 0.19016 0.65075 0.0
C224 C 0.06895 1.00458 0.64674 0.0
C225 C 1.01043 0.81059 0.58132 0.0
C226 C 0.89309 0.74627 0.5798 0.0
C227 C 0.9655 0.76585 0.58836 0.0
C228 C 0.86574 0.77167 0.56385 0.0
C229 C 0.98216 0.83485 0.56509 0.0
C230 C 0.91023 0.81549 0.55648 0.0
C231 C 0.20113 1.01699 0.68929 0.0
C232 C 0.0861 0.8325 0.59144 0.0
C233 C 0.40879 0.84258 0.62607 0.0
C234 C 0.38396 0.82433 0.6446 0.0
C235 C 0.32485 0.04382 0.65622 0.0
C236 C 0.37912 0.26845 0.68465 0.0
C237 C 0.41853 0.31056 0.67531 0.0
C238 C 0.49007 0.34096 0.68504 0.0
C239 C 0.52184 0.3289 0.70439 0.0
C240 C 0.41156 0.25691 0.70404 0.0
C241 C 0.48259 0.28719 0.71384 0.0
C242 C 0.1969 0.03824 0.5992 0.0
C243 C 0.30489 0.23581 0.6735 0.0
H244 H 0.98687 0.74747 0.60106 0.0
H245 H 0.81015 0.75715 0.55689 0.0
H246 H 1.01537 0.8691 0.55916 0.0
H247 H 0.88887 0.83465 0.54409 0.0
H248 H 0.39363 0.31848 0.66008 0.0
H249 H 0.57682 0.35213 0.71231 0.0
H250 H 0.38224 0.2244 0.71155 0.0
H251 H 0.50731 0.27819 0.72877 0.0
H252 H 1.04305 0.37147 0.01565 0.0
H253 H 0.05083 0.48247 0.01571 0.0
H254 H 0.13517 0.4229 0.94891 0.0
H255 H 0.12409 0.31176 0.94866 0.0
H256 H 0.07643 0.59604 0.01924 0.0
H257 H 0.09877 0.53603 0.92138 0.0
H258 H 0.06667 0.47016 0.93125 0.0
H259 H 0.15921 0.51137 0.93779 0.0
C260 C 0.06689 0.38137 0.00122 0.0
C261 C 0.0887 0.32631 0.98351 0.0
C262 C 0.07001 0.44842 0.0009 0.0
C263 C 0.09309 0.47123 0.98216 0.0
C264 C 0.11488 0.41592 0.96427 0.0
H265 H 0.08721 0.85713 0.9436 0.0
H266 H 0.07829 0.74554 0.94373 0.0
C267 C 0.11102 0.3485 0.96456 0.0
C268 C 0.09301 0.54792 0.98182 0.0
H269 H 0.10732 0.64669 0.94608 0.0
C270 C 0.08345 0.60463 0.00269 0.0
C271 C 0.10024 0.56938 0.96129 0.0
C272 C 0.10634 0.51898 0.93652 0.0
C273 C 0.0816 0.67252 0.00378 0.0
C274 C 0.09161 0.69486 0.9836 0.0
C275 C 0.10031 0.63794 0.96261 0.0
C276 C 0.09201 0.77189 0.98355 0.0
C277 C 0.06595 0.71976 0.02745 0.0
C278 C 0.10237 0.83575 0.00509 0.0
C279 C 0.10488 0.90267 0.00478 0.0
C280 C 0.09597 0.91768 0.98303 0.0
C281 C 0.08803 0.85444 0.9615 0.0
C282 C 0.08479 0.78693 0.96167 0.0
H283 H 1.04324 0.69311 0.03864 0.0
H284 H 0.11514 0.75783 0.03904 0.0
H285 H 1.02844 0.74565 0.02325 0.0
H286 H 0.11284 0.83655 0.02337 0.0
H287 H 0.11832 0.94539 0.02274 0.0
H288 H 0.35675 0.0492 0.3437 0.0
H289 H 0.48234 0.06238 0.34602 0.0
H290 H 0.48225 0.15369 0.29381 0.0
H291 H 0.35746 0.14411 0.29293 0.0
H292 H 0.56427 1.01688 0.32185 0.0
H293 H 0.65854 0.27689 0.33092 0.0
H294 H 0.57051 0.24343 0.33347 0.0
H295 H 0.59357 0.22819 0.30325 0.0
C296 C 0.38392 0.07509 0.33355 0.0
C297 C 0.34551 0.09962 0.31947 0.0
C298 C 0.45699 0.08169 0.33451 0.0
C299 C 0.4966 0.11107 0.32067 0.0
C300 C 0.4574 0.13388 0.30595 0.0
H301 H 0.93234 0.14923 0.28736 0.0
H302 H 0.80883 0.14342 0.2886 0.0
C303 C 0.38436 0.12836 0.30539 0.0
C304 C 0.57607 0.11382 0.32075 0.0
H305 H 0.73679 0.20901 0.31903 0.0
C306 C 0.6013 0.05979 0.32148 0.0
C307 C 0.62839 0.16885 0.32044 0.0
C308 C 0.61164 0.23287 0.32226 0.0
C309 C 0.67282 0.0583 0.3213 0.0
C310 C 0.72449 0.11227 0.32017 0.0
C311 C 0.69952 0.16644 0.31954 0.0
C312 C 0.80311 0.1135 0.31926 0.0
C313 C 0.69141 0.99709 0.32183 0.0
C314 C 0.84595 0.0993 0.336 0.0
C315 C 0.91812 0.10222 0.33513 0.0
C316 C 0.95177 0.11881 0.3173 0.0
C317 C 0.90943 0.1342 0.30097 0.0
C318 C 0.83763 0.13134 0.30183 0.0
H319 H 0.64547 0.95204 0.31413 0.0
H320 H 0.73307 0.98549 0.31113 0.0
H321 H 0.71035 1.00684 0.34144 0.0
H322 H 0.82425 0.08748 0.3504 0.0
H323 H 0.94811 0.09301 0.34895 0.0
H324 H 0.76949 0.757 0.59521 0.0
H325 H 0.69802 0.68627 0.61218 0.0
H326 H 0.84127 0.56359 0.60089 0.0
H327 H 0.91222 0.63295 0.58348 0.0
H328 H 0.6375 0.5366 0.58921 0.0
H329 H 0.83101 0.63657 0.67732 0.0
H330 H 0.83094 0.6802 0.65717 0.0
H331 H 0.86434 0.60795 0.64889 0.0
C332 C 0.78509 0.71427 0.59596 0.0
C333 C 0.8467 0.70076 0.5882 0.0
C334 C 0.7445 0.67428 0.60577 0.0
C335 C 0.76522 0.62062 0.60806 0.0
C336 C 0.82529 0.6056 0.5996 0.0
H337 H 0.61789 0.3396 0.6724 0.0
H338 H 0.6836 0.40748 0.65327 0.0
C339 C 0.86571 0.64531 0.58973 0.0
C340 C 0.72485 0.5809 0.61977 0.0
H341 H 0.7336 0.54611 0.67107 0.0
C342 C 0.65814 0.53873 0.60715 0.0
C343 C 0.75252 0.58394 0.64308 0.0
C344 C 0.82343 0.62992 0.65758 0.0
C345 C 0.61853 0.49821 0.61711 0.0
C346 C 0.64606 0.50145 0.64052 0.0
C347 C 0.71279 0.54385 0.65313 0.0
C348 C 0.60652 0.46121 0.65229 0.0
C349 C 0.54842 0.45114 0.60221 0.0
C350 C 0.54228 0.47013 0.6585 0.0
C351 C 0.5048 0.43159 0.66943 0.0
C352 C 0.53134 0.38398 0.67454 0.0
C353 C 0.59652 0.37632 0.66885 0.0
C354 C 0.63384 0.41471 0.65782 0.0
H355 H 0.54351 0.44141 0.58217 0.0
H356 H 0.53953 0.40219 0.60381 0.0
H357 H 0.50675 0.47432 0.60949 0.0
H358 H 0.52125 0.50705 0.65497 0.0
H359 H 0.4552 0.43925 0.674 0.0
H360 H 0.98433 1.00609 0.68124 0.0
H361 H 0.86344 1.01216 0.68085 0.0
H362 H 0.85978 1.03336 0.61148 0.0
H363 H 0.9807 1.02523 0.61165 0.0
H364 H 0.79026 0.09364 0.68462 0.0
H365 H 0.67801 0.89996 0.58926 0.0
H366 H 0.76652 0.91473 0.60371 0.0
H367 H 0.74522 0.96845 0.58962 0.0
C368 C 0.95835 1.01265 0.66588 0.0
C369 C 0.99539 1.01713 0.6469 0.0
C370 C 0.88776 1.01603 0.66562 0.0
C371 C 0.84819 1.02221 0.64595 0.0
C372 C 0.88536 1.0267 0.62683 0.0
H373 H 0.40397 0.05609 0.61982 0.0
H374 H 0.52527 0.05091 0.61709 0.0
C375 C 0.95641 1.02338 0.62714 0.0
C376 C 0.77004 1.02457 0.64601 0.0
H377 H 0.60287 0.96184 0.61011 0.0
C378 C 0.74991 0.06411 0.66815 0.0
C379 C 0.71397 0.98713 0.62494 0.0
C380 C 0.72662 0.93965 0.60061 0.0
C381 C 0.67948 0.06804 0.66974 0.0
C382 C 0.6234 1.03039 0.64875 0.0
C383 C 0.64344 0.99131 0.62652 0.0
C384 C 0.54508 1.03071 0.64967 0.0
C385 C 0.66668 0.11501 0.69416 0.0
C386 C 0.51085 1.01983 0.66841 0.0
C387 C 0.44039 1.02228 0.66983 0.0
C388 C 0.39842 1.03404 0.65227 0.0
C389 C 0.43207 0.04461 0.63339 0.0
C390 C 0.50288 0.04214 0.63194 0.0
H391 H 0.7149 0.15554 0.70533 0.0
H392 H 0.62554 0.1388 0.6912 0.0
H393 H 0.64967 0.08607 0.70525 0.0
H394 H 0.53866 1.00909 0.68224 0.0
H395 H 0.41842 1.01481 0.68498 0.0
H396 H 0.77127 0.79729 0.97424 0.0
H397 H 0.70936 0.73033 -0.00605 0.0
H398 H 0.53469 0.81212 -0.0099 0.0
H399 H 0.59683 0.87925 0.96971 0.0
H400 H 0.65795 0.76537 0.03739 0.0
H401 H 0.44611 0.6098 0.954 0.0
H402 H 0.52406 0.66591 0.9526 0.0
H403 H 0.45793 0.69932 0.96758 0.0
C404 C 0.72005 0.80181 0.97787 0.0
C405 C 0.68887 0.84366 0.97061 0.0
C406 C 0.68473 0.76354 -0.01085 0.0
C407 C 0.61749 0.76623 -0.00655 0.0
C408 C 0.58632 0.80889 0.98667 0.0
H409 H 0.38976 0.444 0.03088 0.0
H410 H 0.42505 0.56021 0.03481 0.0
C411 C 0.62168 0.84706 0.97509 0.0
C412 C 0.5802 0.72056 0.00369 0.0
H413 H 0.45581 0.571 0.98523 0.0
C414 C 0.61256 0.72375 0.02632 0.0
C415 C 0.52102 0.66641 -0.01083 0.0
C416 C 0.48522 0.6595 0.96442 0.0
C417 C 0.59088 0.67123 0.03375 0.0
C418 C 0.53514 0.6151 0.01832 0.0
C419 C 0.49865 0.61465 -0.00307 0.0
C420 C 0.52118 0.55166 0.02146 0.0
C421 C 0.63018 0.67376 0.05713 0.0
C422 C 0.56483 0.50963 0.01332 0.0
C423 C 0.54425 0.44297 0.01049 0.0
C424 C 0.47972 0.41764 0.01584 0.0
C425 C 0.43909 0.46184 0.02609 0.0
C426 C 0.45927 0.52824 0.02856 0.0
H427 H 0.66217 0.72568 0.06957 0.0
H428 H 0.59346 0.65472 0.06748 0.0
H429 H 0.66547 0.64071 0.05198 0.0
H430 H 0.6125 0.52704 0.00749 0.0
H431 H 0.57638 0.41016 0.00237 0.0
H432 H 0.04648 0.5091 0.38925 0.0
H433 H 0.10477 0.59912 0.37804 0.0
H434 H 0.30169 0.61319 0.41838 0.0
H435 H 0.24356 0.52189 0.42923 0.0
H436 H 0.19881 0.73125 0.39953 0.0
H437 H 0.32094 0.53338 0.34486 0.0
H438 H 0.24953 0.5146 0.35994 0.0
H439 H 0.33544 0.56082 0.37807 0.0
C440 C 0.10162 0.53335 0.3966 0.0
C441 C 0.14091 0.50808 0.40968 0.0
C442 C 0.13495 0.58466 0.39016 0.0
C443 C 0.20773 0.61135 0.39687 0.0
C444 C 0.24567 0.59213 0.41264 0.0
H445 H 0.3579 0.85487 0.31465 0.0
H446 H 0.36985 0.81549 0.34797 0.0
C447 C 0.21247 0.54033 0.41888 0.0
C448 C 0.24355 0.64883 0.38352 0.0
H449 H 0.32696 0.62372 0.33401 0.0
C450 C 0.22869 0.70901 0.38569 0.0
C451 C 0.28192 0.61895 0.36533 0.0
C452 C 0.29777 0.5532 0.36168 0.0
C453 C 0.2472 0.73778 0.36902 0.0
C454 C 0.28194 0.70566 0.35 0.0
C455 C 0.30098 0.64819 0.34887 0.0
C456 C 0.28646 0.72347 0.32858 0.0
C457 C 0.22477 0.79921 0.37054 0.0
C458 C 0.23785 0.683 0.30643 0.0
C459 C 0.23099 0.70527 0.28759 0.0
C460 C 0.27338 0.76776 0.29061 0.0
C461 C 0.32576 0.80586 0.31191 0.0
C462 C 0.3322 0.78381 0.33092 0.0
H463 H 0.19269 0.81441 0.38507 0.0
H464 H 0.27158 0.84198 0.37488 0.0
H465 H 0.19397 0.78932 0.35234 0.0
H466 H 0.20192 0.63644 0.30446 0.0
H467 H 0.18953 0.67601 0.27145 0.0
H468 H 0.22808 0.08309 0.24234 0.0
H469 H 0.21676 0.08825 0.20174 0.0
H470 H 0.09422 0.22939 0.22634 0.0
H471 H 0.10616 0.22491 0.26732 0.0
H472 H 0.0925 0.04848 0.16954 0.0
H473 H 0.22869 0.31515 0.19189 0.0
H474 H 0.23939 0.27699 0.2134 0.0
H475 H 0.16232 0.30347 0.20964 0.0
C476 C 0.19993 0.11637 0.23931 0.0
C477 C 0.16786 0.15347 0.25804 0.0
C478 C 0.19322 0.11903 0.21602 0.0
C479 C 0.15461 0.15913 0.21086 0.0
C480 C 0.12511 0.19875 0.22991 0.0
H481 H 0.9909 0.0877 0.05682 0.0
H482 H 1.00082 0.09842 0.09989 0.0
C483 C 0.13207 0.1963 0.25337 0.0
C484 C 0.14177 0.15526 0.18502 0.0
H485 H 0.16969 0.24731 0.15025 0.0
C486 C 0.10924 0.09205 0.16535 0.0
C487 C 0.16384 0.21196 0.17948 0.0
C488 C 0.20104 0.2807 0.19964 0.0
C489 C 0.09883 0.0838 0.14038 0.0
C490 C 0.12051 0.14052 0.13482 0.0
C491 C 0.15262 0.20388 0.15449 0.0
C492 C 0.11355 0.1345 0.10864 0.0
C493 C 0.06671 1.01396 0.1201 0.0
C494 C 0.17335 0.15206 0.09922 0.0
C495 C 0.16784 0.14598 0.07464 0.0
C496 C 0.10228 0.12262 0.05882 0.0
C497 C 1.04229 0.10526 0.06832 0.0
C498 C 0.04788 0.1113 0.09298 0.0
H499 H 0.06794 0.97424 0.12692 0.0
H500 H 1.01141 1.00862 0.11329 0.0
H501 H 0.09424 1.00519 0.10408 0.0
H502 H 0.2246 0.17002 0.11087 0.0
H503 H 0.21526 0.15976 0.06811 0.0
H504 H 0.25171 0.99792 0.37352 0.0
H505 H 0.26486 0.98943 0.41392 0.0
H506 H 0.10569 0.09208 0.43447 0.0
H507 H 0.09569 0.10353 0.39504 0.0
H508 H 0.20851 0.14621 0.47097 0.0
H509 H 0.15407 0.86973 0.44033 0.0
H510 H 0.22682 0.90519 0.42936 0.0
H511 H 0.1405 0.90696 0.41876 0.0
C512 C 0.21904 1.01759 0.38663 0.0
C513 C 0.17259 0.0512 0.38127 0.0
C514 C 0.22627 1.01258 0.40968 0.0
C515 C 0.18584 0.03963 0.4274 0.0
C516 C 0.13789 0.0711 0.4214 0.0
H517 H 0.10103 0.96316 0.55609 0.0
H518 H 0.10387 0.96527 0.51523 0.0
C519 C 0.13188 0.07735 0.39878 0.0
C520 C 0.19496 0.03917 0.45274 0.0
H521 H 0.19058 0.9371 0.48371 0.0
C522 C 0.20448 0.10029 0.47367 0.0
C523 C 0.18963 0.97948 0.45651 0.0
C524 C 0.17652 0.91154 0.43505 0.0
C525 C 0.20688 0.10327 0.49793 0.0
C526 C 0.20237 0.04379 0.50173 0.0
C527 C 0.19438 0.98284 0.48091 0.0
C528 C 0.20194 0.04293 0.52688 0.0
C529 C 0.21115 0.16979 0.51905 0.0
C530 C 0.25623 0.08564 0.54727 0.0
C531 C 0.25415 0.08523 0.57087 0.0
C532 C 0.1984 0.04112 0.5745 0.0
C533 C 0.14477 0.99775 0.554 0.0
C534 C 0.14645 0.99876 0.53054 0.0
H535 H 0.19425 0.20489 0.51217 0.0
H536 H 0.17833 0.16264 0.53253 0.0
H537 H 0.26602 0.19411 0.52907 0.0
H538 H 0.30061 0.11901 0.54491 0.0
H539 H 0.2968 0.11862 0.58617 0.0
H540 H 0.1023 0.93149 0.7004 0.0
H541 H 0.08885 0.93504 0.74164 0.0
H542 H 0.27721 0.09873 0.77494 0.0
H543 H 0.29087 0.09566 0.7338 0.0
H544 H 0.17332 0.92216 0.77865 0.0
H545 H 0.13341 0.17784 0.81251 0.0
H546 H 0.13035 0.12756 0.78 0.0
H547 H 0.21288 0.17232 0.8009 0.0
C548 C 0.14145 0.96762 0.71644 0.0
C549 C 0.1973 1.01377 0.71381 0.0
C550 C 0.13352 0.96976 0.74004 0.0
C551 C 0.18116 1.01811 0.7615 0.0
C552 C 0.23878 0.0621 0.75877 0.0
H553 H 0.21639 0.03978 0.91309 0.0
H554 H 0.2341 1.02324 0.87084 0.0
C555 C 0.24666 0.06009 0.73521 0.0
C556 C 0.16954 1.02367 0.78672 0.0
H557 H 0.14217 0.13152 0.84219 0.0
C558 C 0.16654 0.96793 0.79255 0.0
C559 C 0.15965 0.08308 0.80477 0.0
C560 C 0.15855 0.14346 0.79925 0.0
C561 C 0.15496 0.97036 0.81602 0.0
C562 C 0.14684 1.03034 0.83425 0.0
C563 C 0.14898 0.08574 0.8283 0.0
C564 C 0.13477 0.03651 0.85948 0.0
C565 C 0.1501 0.90831 0.82096 0.0
C566 C 0.0733 0.04995 0.86728 0.0
C567 C 0.06298 0.05936 0.8914 0.0
C568 C 0.1142 0.05612 0.9084 0.0
C569 C 0.17559 0.04214 0.90047 0.0
C570 C 0.18571 1.03238 0.87626 0.0
H571 H 0.1413 0.8623 0.80343 0.0
H572 H 0.19964 0.91473 0.83271 0.0
H573 H 0.10714 0.90066 0.83115 0.0
H574 H 1.03346 0.05388 0.85475 0.0
H575 H 1.01569 0.07124 0.8969 0.0
loop_
_geom_bond_atom_site_label_1
_geom_bond_atom_site_label_2
_geom_bond_distance
_geom_bond_site_symmetry_2
_ccdc_geom_bond_type
Eu0 N31 2.657 1_554 S
Eu0 N38 2.609 . S
Eu0 O44 2.558 . S
Eu0 O45 2.608 1_454 S
Eu0 O47 2.339 1_554 S
Eu0 O48 2.563 . S
Eu0 O49 2.419 1_554 S
Eu0 O51 2.380 . S
Eu0 O52 2.432 . S
Eu0 C64 2.848 . S
C1 C4 1.429 . S
C1 C5 1.411 . S
C1 N8 1.377 . S
C2 C4 1.420 1_554 S
C2 C6 1.423 1_554 S
C2 C14 1.392 . S
C3 C5 1.420 . S
C3 C6 1.351 . S
C3 H26 0.931 . S
C4 C1 1.429 . S
C4 C2 1.420 1_556 S
C4 N12 1.362 1_556 S
C5 C1 1.411 . S
C5 C3 1.420 . S
C5 C10 1.395 . S
C6 C2 1.423 1_556 S
C6 C3 1.351 . S
C6 H18 0.930 . S
C7 C9 1.400 . S
C7 C10 1.386 . S
C7 H19 0.930 1_545 S
N8 C1 1.377 . S
N8 C9 1.321 . S
N8 Eu11 2.609 . S
C9 C7 1.400 . S
C9 N8 1.321 . S
C9 H16 0.930 1_545 S
C10 C5 1.395 . S
C10 C7 1.386 . S
C10 H29 0.930 . S
Eu11 N8 2.609 . S
Eu11 N12 2.657 1_556 S
Eu11 O45 2.377 . S
Eu11 O46 2.432 . S
Eu11 O50 2.558 1_545 S
Eu11 O51 2.612 1_656 S
Eu11 O53 2.339 1_556 S
Eu11 O54 2.563 1_545 S
Eu11 O55 2.419 1_546 S
Eu11 C75 2.848 1_545 S
N12 C4 1.362 1_554 S
N12 Eu11 2.657 1_554 S
N12 C13 1.334 . S
C13 N12 1.334 . S
C13 C15 1.413 . S
C13 H20 0.929 . S
C14 C2 1.392 . S
C14 C15 1.367 . S
C14 H22 0.930 . S
C15 C13 1.413 . S
C15 C14 1.367 . S
C15 H17 0.930 . S
H16 C9 0.930 1_565 S
H17 C15 0.930 . S
H18 C6 0.930 . S
H19 C7 0.930 1_565 S
H20 C13 0.929 . S
H21 C35 0.930 . S
H22 C14 0.930 . S
H23 C41 0.930 . S
H24 C32 0.929 . S
H25 C39 0.930 . S
H26 C3 0.931 . S
H27 C33 0.930 . S
H28 C66 0.930 . S
H29 C10 0.930 . S
H30 C65 0.931 . S
N31 Eu0 2.657 1_556 S
N31 C32 1.334 . S
N31 C36 1.362 1_556 S
C32 H24 0.929 . S
C32 N31 1.334 . S
C32 C35 1.413 1_545 S
C33 H27 0.930 . S
C33 C34 1.392 . S
C33 C35 1.367 . S
C34 C33 1.392 . S
C34 C36 1.420 1_566 S
C34 C66 1.423 1_556 S
C35 H21 0.930 . S
C35 C32 1.413 1_565 S
C35 C33 1.367 . S
C36 N31 1.362 1_554 S
C36 C34 1.420 1_544 S
C36 C40 1.429 . S
H37 C42 0.930 . S
N38 Eu0 2.609 . S
N38 C40 1.377 . S
N38 C41 1.321 . S
C39 H25 0.930 . S
C39 C41 1.400 . S
C39 C42 1.386 . S
C40 C36 1.429 . S
C40 N38 1.377 . S
C40 C43 1.411 . S
C41 H23 0.930 . S
C41 N38 1.321 . S
C41 C39 1.400 . S
C42 H37 0.930 . S
C42 C39 1.386 . S
C42 C43 1.395 . S
C43 C40 1.411 . S
C43 C42 1.395 . S
C43 C65 1.420 . S
O44 Eu0 2.558 . S
O44 C64 1.257 . S
O45 Eu0 2.608 1_656 S
O45 Eu11 2.377 . S
O45 C56 1.279 1_656 S
O46 Eu11 2.432 . S
O46 C63 1.264 1_655 S
O47 Eu0 2.339 1_556 S
O47 C63 1.254 . S
O48 Eu0 2.563 . S
O48 C56 1.235 . S
O49 Eu0 2.419 1_556 S
O49 C64 1.249 1_556 S
O50 Eu11 2.558 1_565 S
O50 C75 1.257 . S
O51 Eu0 2.380 . S
O51 Eu11 2.612 1_454 S
O51 C67 1.276 1_444 S
O52 Eu0 2.432 . S
O52 C74 1.264 1_455 S
O53 Eu11 2.339 1_554 S
O53 C74 1.254 . S
O54 Eu11 2.563 1_565 S
O54 C67 1.235 . S
O55 Eu11 2.419 1_564 S
O55 C75 1.249 1_554 S
C56 O45 1.279 1_454 S
C56 O48 1.235 . S
C57 C59 1.393 . S
C57 C61 1.395 . S
C57 C64 1.492 . S
C58 C59 1.392 . S
C58 C60 1.386 . S
C59 C57 1.393 . S
C59 C58 1.392 . S
C59 H76 0.930 1_554 S
C60 C58 1.386 . S
C60 C62 1.395 . S
C60 H77 0.930 . S
C61 C57 1.395 . S
C61 C62 1.379 . S
C61 H78 0.930 . S
C62 C60 1.395 . S
C62 C61 1.379 . S
C62 H79 0.930 . S
C63 O46 1.264 1_455 S
C63 O47 1.254 . S
C64 Eu0 2.848 . S
C64 O44 1.257 . S
C64 O49 1.249 1_554 S
C64 C57 1.492 . S
C65 H30 0.931 . S
C65 C43 1.420 . S
C65 C66 1.351 1_545 S
C66 H28 0.930 . S
C66 C34 1.423 1_554 S
C66 C65 1.351 1_565 S
C67 O51 1.276 1_666 S
C67 O54 1.235 . S
C68 C69 1.393 . S
C68 C72 1.395 . S
C68 C75 1.492 . S
C69 C68 1.393 . S
C69 C70 1.392 . S
C69 H80 0.930 1_556 S
C70 C69 1.392 . S
C70 C71 1.386 . S
C71 C70 1.386 . S
C71 C73 1.395 . S
C71 H81 0.930 . S
C72 C68 1.395 . S
C72 C73 1.379 . S
C72 H82 0.930 . S
C73 C71 1.395 . S
C73 C72 1.379 . S
C73 H83 0.930 . S
C74 O52 1.264 1_655 S
C74 O53 1.254 . S
C75 Eu11 2.848 1_565 S
C75 O50 1.257 . S
C75 O55 1.249 1_556 S
C75 C68 1.492 . S
H76 C59 0.930 1_556 S
H77 C60 0.930 . S
H78 C61 0.930 . S
H79 C62 0.930 . S
H80 C69 0.930 1_554 S
H81 C71 0.930 . S
H82 C72 0.930 . S
H83 C73 0.930 . S
Eu84 N115 2.657 . S
Eu84 N122 2.609 . S
Eu84 O128 2.558 . S
Eu84 O129 2.612 . S
Eu84 O131 2.339 . S
Eu84 O132 2.563 . S
Eu84 O133 2.419 . S
Eu84 O135 2.380 . S
Eu84 O136 2.432 . S
Eu84 C148 2.848 . S
C85 C88 1.429 . S
C85 C89 1.411 . S
C85 N92 1.377 1_655 S
C86 C88 1.420 . S
C86 C90 1.423 . S
C86 C98 1.392 . S
C87 C89 1.420 . S
C87 C90 1.351 . S
C87 H110 0.931 . S
C88 C85 1.429 . S
C88 C86 1.420 . S
C88 N96 1.362 . S
C89 C85 1.411 . S
C89 C87 1.420 . S
C89 C94 1.395 . S
C90 C86 1.423 . S
C90 C87 1.351 . S
C90 H102 0.930 . S
C91 C93 1.400 1_655 S
C91 C94 1.386 . S
C91 H103 0.930 . S
N92 C85 1.377 1_455 S
N92 C93 1.321 . S
N92 Eu95 2.609 1_565 S
C93 C91 1.400 1_455 S
C93 N92 1.321 . S
C93 H100 0.930 . S
C94 C89 1.395 . S
C94 C91 1.386 . S
C94 H113 0.930 . S
Eu95 N92 2.609 1_545 S
Eu95 N96 2.657 1_445 S
Eu95 O129 2.380 . S
Eu95 O130 2.432 . S
Eu95 O134 2.558 1_545 S
Eu95 O135 2.612 . S
Eu95 O137 2.339 . S
Eu95 O138 2.563 . S
Eu95 O139 2.419 1_545 S
Eu95 C159 2.848 1_545 S
N96 C88 1.362 . S
N96 Eu95 2.657 1_665 S
N96 C97 1.334 . S
C97 N96 1.334 . S
C97 C99 1.413 . S
C97 H104 0.929 1_665 S
C98 C86 1.392 . S
C98 C99 1.367 . S
C98 H106 0.930 . S
C99 C97 1.413 . S
C99 C98 1.367 . S
C99 H101 0.930 . S
H100 C93 0.930 . S
H101 C99 0.930 . S
H102 C90 0.930 . S
H103 C91 0.930 . S
H104 C97 0.929 1_445 S
H105 C119 0.930 . S
H106 C98 0.930 . S
H107 C125 0.930 . S
H108 C116 0.929 . S
H109 C123 0.930 . S
H110 C87 0.931 . S
H111 C117 0.930 . S
H112 C150 0.930 . S
H113 C94 0.930 . S
H114 C149 0.931 . S
N115 Eu84 2.657 . S
N115 C116 1.334 . S
N115 C120 1.362 . S
C116 H108 0.929 . S
C116 N115 1.334 . S
C116 C119 1.413 . S
C117 H111 0.930 . S
C117 C118 1.392 . S
C117 C119 1.367 . S
C118 C117 1.392 . S
C118 C120 1.420 . S
C118 C150 1.423 . S
C119 H105 0.930 . S
C119 C116 1.413 . S
C119 C117 1.367 . S
C120 N115 1.362 . S
C120 C118 1.420 . S
C120 C124 1.429 . S
H121 C126 0.930 . S
N122 Eu84 2.609 . S
N122 C124 1.377 . S
N122 C125 1.321 . S
C123 H109 0.930 . S
C123 C125 1.400 . S
C123 C126 1.386 . S
C124 C120 1.429 . S
C124 N122 1.377 . S
C124 C127 1.411 . S
C125 H107 0.930 . S
C125 N122 1.321 . S
C125 C123 1.400 . S
C126 H121 0.930 . S
C126 C123 1.386 . S
C126 C127 1.395 . S
C127 C124 1.411 . S
C127 C126 1.395 . S
C127 C149 1.420 . S
O128 Eu84 2.558 . S
O128 C148 1.257 . S
O129 Eu84 2.612 . S
O129 Eu95 2.380 . S
O129 C140 1.276 . S
O130 Eu95 2.432 . S
O130 C147 1.264 . S
O131 Eu84 2.339 . S
O131 C147 1.254 . S
O132 Eu84 2.563 . S
O132 C140 1.235 . S
O133 Eu84 2.419 . S
O133 C148 1.249 . S
O134 Eu95 2.558 1_565 S
O134 C159 1.257 . S
O135 Eu84 2.380 . S
O135 Eu95 2.612 . S
O135 C151 1.276 . S
O136 Eu84 2.432 . S
O136 C158 1.264 . S
O137 Eu95 2.339 . S
O137 C158 1.254 . S
O138 Eu95 2.563 . S
O138 C151 1.235 . S
O139 Eu95 2.419 1_565 S
O139 C159 1.249 . S
C140 O129 1.276 . S
C140 O132 1.235 . S
C141 C143 1.393 . S
C141 C145 1.395 . S
C141 C148 1.492 . S
C142 C143 1.392 . S
C142 C144 1.386 . S
C143 C141 1.393 . S
C143 C142 1.392 . S
C143 H160 0.930 . S
C144 C142 1.386 . S
C144 C146 1.395 . S
C144 H161 0.930 . S
C145 C141 1.395 . S
C145 C146 1.379 . S
C145 H162 0.930 . S
C146 C144 1.395 . S
C146 C145 1.379 . S
C146 H163 0.930 . S
C147 O130 1.264 . S
C147 O131 1.254 . S
C148 Eu84 2.848 . S
C148 O128 1.257 . S
C148 O133 1.249 . S
C148 C141 1.492 . S
C149 H114 0.931 . S
C149 C127 1.420 . S
C149 C150 1.351 . S
C150 H112 0.930 . S
C150 C118 1.423 . S
C150 C149 1.351 . S
C151 O135 1.276 . S
C151 O138 1.235 . S
C152 C153 1.393 . S
C152 C156 1.395 . S
C152 C159 1.492 . S
C153 C152 1.393 . S
C153 C154 1.392 . S
C153 H164 0.930 . S
C154 C153 1.392 . S
C154 C155 1.386 . S
C155 C154 1.386 . S
C155 C157 1.395 . S
C155 H165 0.930 . S
C156 C152 1.395 . S
C156 C157 1.379 . S
C156 H166 0.930 . S
C157 C155 1.395 . S
C157 C156 1.379 . S
C157 H167 0.930 . S
C158 O136 1.264 . S
C158 O137 1.254 . S
C159 Eu95 2.848 1_565 S
C159 O134 1.257 . S
C159 O139 1.249 . S
C159 C152 1.492 . S
H160 C143 0.930 . S
H161 C144 0.930 . S
H162 C145 0.930 . S
H163 C146 0.930 . S
H164 C153 0.930 . S
H165 C155 0.930 . S
H166 C156 0.930 . S
H167 C157 0.930 . S
Eu168 N199 2.657 . S
Eu168 N206 2.609 . S
Eu168 O212 2.558 . S
Eu168 O213 2.612 1_565 S
Eu168 O215 2.339 . S
Eu168 O216 2.563 . S
Eu168 O217 2.419 . S
Eu168 O219 2.380 . S
Eu168 O220 2.432 . S
Eu168 C232 2.848 . S
C169 C172 1.429 . S
C169 C173 1.411 . S
C169 N176 1.377 . S
C170 C172 1.420 . S
C170 C174 1.423 . S
C170 C182 1.392 . S
C171 C173 1.420 . S
C171 C174 1.351 . S
C171 H194 0.931 . S
C172 C169 1.429 . S
C172 C170 1.420 . S
C172 N180 1.362 . S
C173 C169 1.411 . S
C173 C171 1.420 . S
C173 C178 1.395 . S
C174 C170 1.423 . S
C174 C171 1.351 . S
C174 H186 0.930 . S
C175 C177 1.400 . S
C175 C178 1.386 . S
C175 H187 0.930 . S
N176 C169 1.377 . S
N176 C177 1.321 . S
N176 Eu179 2.609 . S
C177 C175 1.400 . S
C177 N176 1.321 . S
C177 H184 0.930 . S
C178 C173 1.395 . S
C178 C175 1.386 . S
C178 H197 0.930 . S
Eu179 N176 2.609 . S
Eu179 N180 2.657 . S
Eu179 O213 2.380 . S
Eu179 O214 2.432 . S
Eu179 O218 2.558 . S
Eu179 O219 2.612 1_545 S
Eu179 O221 2.339 . S
Eu179 O222 2.563 . S
Eu179 O223 2.419 . S
Eu179 C243 2.848 . S
N180 C172 1.362 . S
N180 Eu179 2.657 . S
N180 C181 1.334 . S
C181 N180 1.334 . S
C181 C183 1.413 . S
C181 H188 0.929 . S
C182 C170 1.392 . S
C182 C183 1.367 . S
C182 H190 0.930 1_455 S
C183 C181 1.413 . S
C183 C182 1.367 . S
C183 H185 0.930 . S
H184 C177 0.930 . S
H185 C183 0.930 . S
H186 C174 0.930 . S
H187 C175 0.930 . S
H188 C181 0.929 . S
H189 C203 0.930 . S
H190 C182 0.930 1_655 S
H191 C209 0.930 . S
H192 C200 0.929 . S
H193 C207 0.930 . S
H194 C171 0.931 . S
H195 C201 0.930 . S
H196 C234 0.930 . S
H197 C178 0.930 . S
H198 C233 0.931 . S
N199 Eu168 2.657 . S
N199 C200 1.334 . S
N199 C204 1.362 . S
C200 H192 0.929 . S
C200 N199 1.334 . S
C200 C203 1.413 . S
C201 H195 0.930 . S
C201 C202 1.392 . S
C201 C203 1.367 . S
C202 C201 1.392 . S
C202 C204 1.420 . S
C202 C234 1.423 . S
C203 H189 0.930 . S
C203 C200 1.413 . S
C203 C201 1.367 . S
C204 N199 1.362 . S
C204 C202 1.420 . S
C204 C208 1.429 . S
H205 C210 0.930 . S
N206 Eu168 2.609 . S
N206 C208 1.377 . S
N206 C209 1.321 . S
C207 H193 0.930 . S
C207 C209 1.400 . S
C207 C210 1.386 . S
C208 C204 1.429 . S
C208 N206 1.377 . S
C208 C211 1.411 . S
C209 H191 0.930 . S
C209 N206 1.321 . S
C209 C207 1.400 . S
C210 H205 0.930 . S
C210 C207 1.386 . S
C210 C211 1.395 . S
C211 C208 1.411 . S
C211 C210 1.395 . S
C211 C233 1.420 . S
O212 Eu168 2.558 . S
O212 C232 1.257 . S
O213 Eu168 2.612 1_545 S
O213 Eu179 2.380 . S
O213 C224 1.276 1_545 S
O214 Eu179 2.432 . S
O214 C231 1.264 . S
O215 Eu168 2.339 . S
O215 C231 1.254 1_565 S
O216 Eu168 2.563 . S
O216 C224 1.235 . S
O217 Eu168 2.419 . S
O217 C232 1.249 . S
O218 Eu179 2.558 . S
O218 C243 1.257 . S
O219 Eu168 2.380 . S
O219 Eu179 2.612 1_565 S
O219 C235 1.276 1_565 S
O220 Eu168 2.432 . S
O220 C242 1.264 . S
O221 Eu179 2.339 . S
O221 C242 1.254 1_545 S
O222 Eu179 2.563 . S
O222 C235 1.235 . S
O223 Eu179 2.419 . S
O223 C243 1.249 . S
C224 O213 1.276 1_565 S
C224 O216 1.235 . S
C225 C227 1.393 . S
C225 C229 1.395 . S
C225 C232 1.492 1_655 S
C226 C227 1.392 . S
C226 C228 1.386 . S
C227 C225 1.393 . S
C227 C226 1.392 . S
C227 H244 0.930 . S
C228 C226 1.386 . S
C228 C230 1.395 . S
C228 H245 0.930 . S
C229 C225 1.395 . S
C229 C230 1.379 . S
C229 H246 0.930 . S
C230 C228 1.395 . S
C230 C229 1.379 . S
C230 H247 0.930 . S
C231 O214 1.264 . S
C231 O215 1.254 1_545 S
C232 Eu168 2.848 . S
C232 O212 1.257 . S
C232 O217 1.249 . S
C232 C225 1.492 1_455 S
C233 H198 0.931 . S
C233 C211 1.420 . S
C233 C234 1.351 . S
C234 H196 0.930 . S
C234 C202 1.423 . S
C234 C233 1.351 . S
C235 O219 1.276 1_545 S
C235 O222 1.235 . S
C236 C237 1.393 . S
C236 C240 1.395 . S
C236 C243 1.492 . S
C237 C236 1.393 . S
C237 C238 1.392 . S
C237 H248 0.930 . S
C238 C237 1.392 . S
C238 C239 1.386 . S
C239 C238 1.386 . S
C239 C241 1.395 . S
C239 H249 0.930 . S
C240 C236 1.395 . S
C240 C241 1.379 . S
C240 H250 0.930 . S
C241 C239 1.395 . S
C241 C240 1.379 . S
C241 H251 0.930 . S
C242 O220 1.264 . S
C242 O221 1.254 1_565 S
C243 Eu179 2.848 . S
C243 O218 1.257 . S
C243 O223 1.249 . S
C243 C236 1.492 . S
H244 C227 0.930 . S
H245 C228 0.930 . S
H246 C229 0.930 . S
H247 C230 0.930 . S
H248 C237 0.930 . S
H249 C239 0.930 . S
H250 C240 0.930 . S
H251 C241 0.930 . S
H252 C260 0.929 . S
H253 C262 0.930 . S
H254 C264 0.930 . S
H255 C267 0.929 . S
H256 C270 0.930 . S
H257 C272 0.960 . S
H258 C272 0.960 . S
H259 C272 0.960 . S
C260 H252 0.929 . S
C260 C261 1.377 . S
C260 C262 1.384 . S
C261 C260 1.377 . S
C261 C267 1.390 1_554 S
C262 H253 0.930 . S
C262 C260 1.384 . S
C262 C263 1.372 . S
C263 C262 1.372 . S
C263 C264 1.400 1_554 S
C263 C268 1.490 1_655 S
C264 H254 0.930 . S
C264 C263 1.400 1_556 S
C264 C267 1.386 . S
H265 C281 0.930 . S
H266 C282 0.931 . S
C267 H255 0.929 . S
C267 C261 1.390 1_556 S
C267 C264 1.386 . S
C268 C263 1.490 1_455 S
C268 C270 1.395 . S
C268 C271 1.403 1_454 S
H269 C275 0.930 . S
C270 H256 0.930 . S
C270 C268 1.395 . S
C270 C273 1.403 . S
C271 C268 1.403 1_656 S
C271 C272 1.524 . S
C271 C275 1.400 . S
C272 H257 0.960 . S
C272 H258 0.960 . S
C272 H259 0.960 . S
C272 C271 1.524 . S
C273 C270 1.403 . S
C273 C274 1.392 . S
C273 C277 1.495 . S
C274 C273 1.392 . S
C274 C275 1.385 1_454 S
C274 C276 1.478 . S
C275 H269 0.930 . S
C275 C271 1.400 . S
C275 C274 1.385 1_656 S
C276 C274 1.478 . S
C276 C278 1.381 . S
C276 C282 1.383 1_554 S
C277 C273 1.495 . S
C277 H283 0.959 . S
C277 H284 0.961 . S
C277 H285 0.960 . S
C278 C276 1.381 . S
C278 C279 1.394 . S
C278 H286 0.930 . S
C279 C278 1.394 . S
C279 C280 1.406 . S
C279 H287 0.938 . S
C280 C279 1.406 . S
C280 C281 1.365 1_554 S
C281 H265 0.930 . S
C281 C280 1.365 1_556 S
C281 C282 1.379 . S
C282 H266 0.931 . S
C282 C276 1.383 1_556 S
C282 C281 1.379 . S
H283 C277 0.959 . S
H284 C277 0.961 . S
H285 C277 0.960 . S
H286 C278 0.930 . S
H287 C279 0.938 . S
H288 C296 0.929 . S
H289 C298 0.930 . S
H290 C300 0.930 . S
H291 C303 0.929 . S
H292 C306 0.930 . S
H293 C308 0.960 . S
H294 C308 0.960 . S
H295 C308 0.960 . S
C296 H288 0.929 . S
C296 C297 1.377 . S
C296 C298 1.384 . S
C297 C296 1.377 . S
C297 C303 1.390 . S
C298 H289 0.930 . S
C298 C296 1.384 . S
C298 C299 1.372 . S
C299 C298 1.372 . S
C299 C300 1.400 . S
C299 C304 1.490 . S
C300 H290 0.930 . S
C300 C299 1.400 . S
C300 C303 1.386 . S
H301 C317 0.930 . S
H302 C318 0.931 . S
C303 H291 0.929 . S
C303 C297 1.390 . S
C303 C300 1.386 . S
C304 C299 1.490 . S
C304 C306 1.395 . S
C304 C307 1.403 . S
H305 C311 0.930 . S
C306 H292 0.930 . S
C306 C304 1.395 . S
C306 C309 1.403 . S
C307 C304 1.403 . S
C307 C308 1.524 . S
C307 C311 1.400 . S
C308 H293 0.960 . S
C308 H294 0.960 . S
C308 H295 0.960 . S
C308 C307 1.524 . S
C309 C306 1.403 . S
C309 C310 1.392 . S
C309 C313 1.495 1_545 S
C310 C309 1.392 . S
C310 C311 1.385 . S
C310 C312 1.478 . S
C311 H305 0.930 . S
C311 C307 1.400 . S
C311 C310 1.385 . S
C312 C310 1.478 . S
C312 C314 1.381 . S
C312 C318 1.383 . S
C313 C309 1.495 1_565 S
C313 H319 0.959 . S
C313 H320 0.961 . S
C313 H321 0.960 . S
C314 C312 1.381 . S
C314 C315 1.394 . S
C314 H322 0.930 . S
C315 C314 1.394 . S
C315 C316 1.383 . S
C315 H323 0.929 . S
C316 C315 1.383 . S
C316 C317 1.377 . S
C317 H301 0.930 . S
C317 C316 1.377 . S
C317 C318 1.379 . S
C318 H302 0.931 . S
C318 C312 1.383 . S
C318 C317 1.379 . S
H319 C313 0.959 . S
H320 C313 0.961 . S
H321 C313 0.960 . S
H322 C314 0.930 . S
H323 C315 0.929 . S
H324 C332 0.929 . S
H325 C334 0.930 . S
H326 C336 0.930 . S
H327 C339 0.929 . S
H328 C342 0.930 . S
H329 C344 0.960 . S
H330 C344 0.960 . S
H331 C344 0.960 . S
C332 H324 0.929 . S
C332 C333 1.377 . S
C332 C334 1.384 . S
C333 C332 1.377 . S
C333 C339 1.390 . S
C334 H325 0.930 . S
C334 C332 1.384 . S
C334 C335 1.372 . S
C335 C334 1.372 . S
C335 C336 1.400 . S
C335 C340 1.490 . S
C336 H326 0.930 . S
C336 C335 1.400 . S
C336 C339 1.386 . S
H337 C353 0.930 . S
H338 C354 0.931 . S
C339 H327 0.929 . S
C339 C333 1.390 . S
C339 C336 1.386 . S
C340 C335 1.490 . S
C340 C342 1.395 . S
C340 C343 1.403 . S
H341 C347 0.930 . S
C342 H328 0.930 . S
C342 C340 1.395 . S
C342 C345 1.403 . S
C343 C340 1.403 . S
C343 C344 1.524 . S
C343 C347 1.400 . S
C344 H329 0.960 . S
C344 H330 0.960 . S
C344 H331 0.960 . S
C344 C343 1.524 . S
C345 C342 1.403 . S
C345 C346 1.392 . S
C345 C349 1.495 . S
C346 C345 1.392 . S
C346 C347 1.385 . S
C346 C348 1.478 . S
C347 H341 0.930 . S
C347 C343 1.400 . S
C347 C346 1.385 . S
C348 C346 1.478 . S
C348 C350 1.381 . S
C348 C354 1.383 . S
C349 C345 1.495 . S
C349 H355 0.959 . S
C349 H356 0.961 . S
C349 H357 0.960 . S
C350 C348 1.381 . S
C350 C351 1.394 . S
C350 H358 0.930 . S
C351 C350 1.394 . S
C351 C352 1.383 . S
C351 H359 0.929 . S
C352 C351 1.383 . S
C352 C353 1.377 . S
C353 H337 0.930 . S
C353 C352 1.377 . S
C353 C354 1.379 . S
C354 H338 0.931 . S
C354 C348 1.383 . S
C354 C353 1.379 . S
H355 C349 0.959 . S
H356 C349 0.961 . S
H357 C349 0.960 . S
H358 C350 0.930 . S
H359 C351 0.929 . S
H360 C368 0.929 . S
H361 C370 0.930 . S
H362 C372 0.930 . S
H363 C375 0.929 . S
H364 C378 0.930 . S
H365 C380 0.960 . S
H366 C380 0.960 . S
H367 C380 0.960 . S
C368 H360 0.929 . S
C368 C369 1.377 . S
C368 C370 1.384 . S
C369 C368 1.377 . S
C369 C375 1.390 1_545 S
C370 H361 0.930 . S
C370 C368 1.384 . S
C370 C371 1.372 . S
C371 C370 1.372 . S
C371 C372 1.400 1_545 S
C371 C376 1.490 . S
C372 H362 0.930 . S
C372 C371 1.400 1_565 S
C372 C375 1.386 . S
H373 C389 0.930 . S
H374 C390 0.931 . S
C375 H363 0.929 . S
C375 C369 1.390 1_565 S
C375 C372 1.386 . S
C376 C371 1.490 . S
C376 C378 1.395 . S
C376 C379 1.403 1_545 S
H377 C383 0.930 . S
C378 H364 0.930 . S
C378 C376 1.395 . S
C378 C381 1.403 . S
C379 C376 1.403 1_565 S
C379 C380 1.524 . S
C379 C383 1.400 . S
C380 H365 0.960 . S
C380 H366 0.960 . S
C380 H367 0.960 . S
C380 C379 1.524 . S
C381 C378 1.403 . S
C381 C382 1.392 . S
C381 C385 1.495 . S
C382 C381 1.392 . S
C382 C383 1.385 1_545 S
C382 C384 1.478 . S
C383 H377 0.930 . S
C383 C379 1.400 . S
C383 C382 1.385 1_565 S
C384 C382 1.478 . S
C384 C386 1.381 . S
C384 C390 1.383 1_545 S
C385 C381 1.495 . S
C385 H391 0.959 . S
C385 H392 0.961 . S
C385 H393 0.960 . S
C386 C384 1.381 . S
C386 C387 1.394 . S
C386 H394 0.930 . S
C387 C386 1.394 . S
C387 C388 1.383 . S
C387 H395 0.929 . S
C388 C387 1.383 . S
C388 C389 1.377 1_545 S
C389 H373 0.930 . S
C389 C388 1.377 1_565 S
C389 C390 1.379 . S
C390 H374 0.931 . S
C390 C384 1.383 1_565 S
C390 C389 1.379 . S
H391 C385 0.959 . S
H392 C385 0.961 . S
H393 C385 0.960 . S
H394 C386 0.930 . S
H395 C387 0.929 . S
H396 C404 0.929 . S
H397 C406 0.930 . S
H398 C408 0.930 . S
H399 C411 0.929 . S
H400 C414 0.930 . S
H401 C416 0.960 . S
H402 C416 0.960 . S
H403 C416 0.960 . S
C404 H396 0.929 . S
C404 C405 1.377 1_556 S
C404 C406 1.384 . S
C405 C404 1.377 1_554 S
C405 C411 1.390 . S
C406 H397 0.930 . S
C406 C404 1.384 . S
C406 C407 1.372 1_556 S
C407 C406 1.372 1_554 S
C407 C408 1.400 . S
C407 C412 1.490 . S
C408 H398 0.930 . S
C408 C407 1.400 . S
C408 C411 1.386 . S
H409 C425 0.930 . S
H410 C426 0.931 . S
C411 H399 0.929 . S
C411 C405 1.390 . S
C411 C408 1.386 . S
C412 C407 1.490 . S
C412 C414 1.395 . S
C412 C415 1.403 1_554 S
H413 C419 0.930 . S
C414 H400 0.930 . S
C414 C412 1.395 . S
C414 C417 1.403 . S
C415 C412 1.403 1_556 S
C415 C416 1.524 . S
C415 C419 1.400 . S
C416 H401 0.960 . S
C416 H402 0.960 . S
C416 H403 0.960 . S
C416 C415 1.524 . S
C417 C414 1.403 . S
C417 C418 1.403 . S
C417 C421 1.495 . S
C418 C417 1.403 . S
C418 C419 1.357 1_554 S
C418 C420 1.496 1_554 S
C419 H413 0.930 . S
C419 C415 1.400 . S
C419 C418 1.357 1_556 S
C420 C418 1.496 1_556 S
C420 C422 1.382 . S
C420 C426 1.381 1_556 S
C421 C417 1.495 . S
C421 H427 0.959 . S
C421 H428 0.961 . S
C421 H429 0.960 . S
C422 C420 1.382 . S
C422 C423 1.394 . S
C422 H430 0.930 . S
C423 C422 1.394 . S
C423 C424 1.383 . S
C423 H431 0.929 . S
C424 C423 1.383 . S
C424 C425 1.377 1_556 S
C425 H409 0.930 . S
C425 C424 1.377 1_554 S
C425 C426 1.379 . S
C426 H410 0.931 . S
C426 C420 1.381 1_554 S
C426 C425 1.379 . S
H427 C421 0.959 . S
H428 C421 0.961 . S
H429 C421 0.960 . S
H430 C422 0.930 . S
H431 C423 0.929 . S
H432 C440 0.929 . S
H433 C442 0.930 . S
H434 C444 0.930 . S
H435 C447 0.929 . S
H436 C450 0.930 . S
H437 C452 0.960 . S
H438 C452 0.960 . S
H439 C452 0.960 . S
C440 H432 0.929 . S
C440 C441 1.377 . S
C440 C442 1.384 . S
C441 C440 1.377 . S
C441 C447 1.390 . S
C442 H433 0.930 . S
C442 C440 1.384 . S
C442 C443 1.372 . S
C443 C442 1.372 . S
C443 C444 1.400 . S
C443 C448 1.490 . S
C444 H434 0.930 . S
C444 C443 1.400 . S
C444 C447 1.386 . S
H445 C461 0.930 . S
H446 C462 0.931 . S
C447 H435 0.929 . S
C447 C441 1.390 . S
C447 C444 1.386 . S
C448 C443 1.490 . S
C448 C450 1.395 . S
C448 C451 1.403 . S
H449 C455 0.930 . S
C450 H436 0.930 . S
C450 C448 1.395 . S
C450 C453 1.403 . S
C451 C448 1.403 . S
C451 C452 1.524 . S
C451 C455 1.400 . S
C452 H437 0.960 . S
C452 H438 0.960 . S
C452 H439 0.960 . S
C452 C451 1.524 . S
C453 C450 1.403 . S
C453 C454 1.392 . S
C453 C457 1.495 . S
C454 C453 1.392 . S
C454 C455 1.385 . S
C454 C456 1.478 . S
C455 H449 0.930 . S
C455 C451 1.400 . S
C455 C454 1.385 . S
C456 C454 1.478 . S
C456 C458 1.381 . S
C456 C462 1.383 . S
C457 C453 1.495 . S
C457 H463 0.959 . S
C457 H464 0.961 . S
C457 H465 0.960 . S
C458 C456 1.381 . S
C458 C459 1.394 . S
C458 H466 0.930 . S
C459 C458 1.394 . S
C459 C460 1.383 . S
C459 H467 0.929 . S
C460 C459 1.383 . S
C460 C461 1.377 . S
C461 H445 0.930 . S
C461 C460 1.377 . S
C461 C462 1.379 . S
C462 H446 0.931 . S
C462 C456 1.383 . S
C462 C461 1.379 . S
H463 C457 0.959 . S
H464 C457 0.961 . S
H465 C457 0.960 . S
H466 C458 0.930 . S
H467 C459 0.929 . S
H468 C476 0.929 . S
H469 C478 0.930 . S
H470 C480 0.930 1_655 S
H471 C483 0.929 . S
H472 C486 0.930 . S
H473 C488 0.960 . S
H474 C488 0.960 . S
H475 C488 0.961 1_655 S
C476 H468 0.929 . S
C476 C477 1.377 . S
C476 C478 1.384 . S
C477 C476 1.377 . S
C477 C483 1.390 . S
C478 H469 0.930 . S
C478 C476 1.384 . S
C478 C479 1.372 . S
C479 C478 1.372 . S
C479 C480 1.400 . S
C479 C484 1.490 . S
C480 H470 0.930 1_455 S
C480 C479 1.400 . S
C480 C483 1.386 . S
H481 C497 0.930 . S
H482 C498 0.931 . S
C483 H471 0.929 . S
C483 C477 1.390 . S
C483 C480 1.386 . S
C484 C479 1.490 . S
C484 C486 1.395 . S
C484 C487 1.403 . S
H485 C491 0.930 . S
C486 H472 0.930 . S
C486 C484 1.395 . S
C486 C489 1.403 . S
C487 C484 1.403 . S
C487 C488 1.524 . S
C487 C491 1.400 . S
C488 H473 0.960 . S
C488 H474 0.960 . S
C488 H475 0.961 1_455 S
C488 C487 1.524 . S
C489 C486 1.403 . S
C489 C490 1.392 . S
C489 C493 1.495 1_545 S
C490 C489 1.392 . S
C490 C491 1.385 . S
C490 C492 1.478 . S
C491 H485 0.930 . S
C491 C487 1.400 . S
C491 C490 1.385 . S
C492 C490 1.478 . S
C492 C494 1.381 . S
C492 C498 1.383 1_455 S
C493 C489 1.495 1_565 S
C493 H499 0.959 . S
C493 H500 0.961 . S
C493 H501 0.960 1_565 S
C494 C492 1.381 . S
C494 C495 1.394 . S
C494 H502 0.930 . S
C495 C494 1.394 . S
C495 C496 1.383 . S
C495 H503 0.929 . S
C496 C495 1.383 . S
C496 C497 1.377 1_455 S
C497 H481 0.930 . S
C497 C496 1.377 1_655 S
C497 C498 1.379 . S
C498 H482 0.931 . S
C498 C492 1.383 1_655 S
C498 C497 1.379 . S
H499 C493 0.959 . S
H500 C493 0.961 . S
H501 C493 0.960 1_545 S
H502 C494 0.930 . S
H503 C495 0.929 . S
H504 C512 0.929 . S
H505 C514 0.930 . S
H506 C516 0.930 . S
H507 C519 0.929 . S
H508 C522 0.930 . S
H509 C524 0.960 . S
H510 C524 0.960 . S
H511 C524 0.960 . S
C512 H504 0.929 . S
C512 C513 1.377 . S
C512 C514 1.384 . S
C513 C512 1.377 . S
C513 C519 1.390 . S
C514 H505 0.930 . S
C514 C512 1.384 . S
C514 C515 1.372 . S
C515 C514 1.372 . S
C515 C516 1.400 . S
C515 C520 1.490 . S
C516 H506 0.930 . S
C516 C515 1.400 . S
C516 C519 1.386 . S
H517 C533 0.930 1_565 S
H518 C534 0.931 . S
C519 H507 0.929 . S
C519 C513 1.390 . S
C519 C516 1.386 . S
C520 C515 1.490 . S
C520 C522 1.395 . S
C520 C523 1.412 . S
H521 C527 0.930 . S
C522 H508 0.930 . S
C522 C520 1.395 . S
C522 C525 1.403 . S
C523 C520 1.412 . S
C523 C524 1.519 1_545 S
C523 C527 1.395 1_545 S
C524 H509 0.960 . S
C524 H510 0.960 . S
C524 H511 0.960 . S
C524 C523 1.519 1_565 S
C525 C522 1.403 . S
C525 C526 1.392 . S
C525 C529 1.495 . S
C526 C525 1.392 . S
C526 C527 1.385 1_545 S
C526 C528 1.478 . S
C527 H521 0.930 . S
C527 C523 1.395 1_565 S
C527 C526 1.385 1_565 S
C528 C526 1.478 . S
C528 C530 1.381 . S
C528 C534 1.383 . S
C529 C525 1.495 . S
C529 H535 0.959 . S
C529 H536 0.961 . S
C529 H537 0.960 . S
C530 C528 1.381 . S
C530 C531 1.394 . S
C530 H538 0.930 . S
C531 C530 1.394 . S
C531 C532 1.383 . S
C531 H539 0.929 . S
C532 C531 1.383 . S
C532 C533 1.377 . S
C533 H517 0.930 1_545 S
C533 C532 1.377 . S
C533 C534 1.379 . S
C534 H518 0.931 . S
C534 C528 1.383 . S
C534 C533 1.379 . S
H535 C529 0.959 . S
H536 C529 0.961 . S
H537 C529 0.960 . S
H538 C530 0.930 . S
H539 C531 0.929 . S
H540 C548 0.929 . S
H541 C550 0.930 . S
H542 C552 0.930 . S
H543 C555 0.929 . S
H544 C558 0.930 1_665 S
H545 C560 0.960 . S
H546 C560 0.960 . S
H547 C560 0.960 . S
C548 H540 0.929 . S
C548 C549 1.377 . S
C548 C550 1.384 . S
C549 C548 1.377 . S
C549 C555 1.390 1_545 S
C550 H541 0.930 . S
C550 C548 1.384 . S
C550 C551 1.372 . S
C551 C550 1.372 . S
C551 C552 1.400 1_545 S
C551 C556 1.490 . S
C552 H542 0.930 . S
C552 C551 1.400 1_565 S
C552 C555 1.386 . S
H553 C569 0.930 . S
H554 C570 0.931 1_565 S
C555 H543 0.929 . S
C555 C549 1.390 1_565 S
C555 C552 1.386 . S
C556 C551 1.490 . S
C556 C558 1.395 . S
C556 C559 1.403 . S
H557 C563 0.930 . S
C558 H544 0.930 1_445 S
C558 C556 1.395 . S
C558 C561 1.403 . S
C559 C556 1.403 . S
C559 C560 1.524 . S
C559 C563 1.400 . S
C560 H545 0.960 . S
C560 H546 0.960 . S
C560 H547 0.960 . S
C560 C559 1.524 . S
C561 C558 1.403 . S
C561 C562 1.392 . S
C561 C565 1.495 1_445 S
C562 C561 1.392 . S
C562 C563 1.385 . S
C562 C564 1.478 . S
C563 H557 0.930 . S
C563 C559 1.400 . S
C563 C562 1.385 . S
C564 C562 1.478 . S
C564 C566 1.372 1_455 S
C564 C570 1.383 . S
C565 C561 1.495 1_665 S
C565 H571 0.959 . S
C565 H572 0.961 . S
C565 H573 0.960 1_565 S
C566 C564 1.372 1_655 S
C566 C567 1.398 . S
C566 H574 0.936 . S
C567 C566 1.398 . S
C567 C568 1.383 1_655 S
C567 H575 0.929 . S
C568 C567 1.383 1_455 S
C568 C569 1.377 . S
C569 H553 0.930 . S
C569 C568 1.377 . S
C569 C570 1.379 . S
C570 H554 0.931 1_545 S
C570 C564 1.383 . S
C570 C569 1.379 . S
H571 C565 0.959 . S
H572 C565 0.961 . S
H573 C565 0.960 1_545 S
H574 C566 0.936 . S
H575 C567 0.929 . S
C261 C56 4.253 1_655 S
C280 C67 4.246 1_454 S
C297 C151 2.672 . S
C316 C140 2.674 1_655 S
C333 C226 0.652 . S
C352 C238 0.708 . S
C369 C224 2.588 1_645 S
C388 C235 2.574 . S
C405 C70 0.678 1_554 S
C424 C58 0.620 1_556 S
C441 C142 1.344 . S
C460 C154 1.382 . S
C477 C147 1.576 . S
C496 C74 1.591 1_455 S
C513 C158 1.594 . S
C532 C242 1.554 1_545 S
C549 C231 1.633 . S
C568 C63 1.589 . S
