# Generated by pormake.
# Topology whz, (6)-cn, num edge types: 1
# Building blocks:
#     Node 0, Type 0, BuildingBlock: HISSIN_clean_sbu_0, # of connection points: 6
#     Node 1, Type 0, BuildingBlock: HISSIN_clean_sbu_0, # of connection points: 6
#     Node 2, Type 0, BuildingBlock: HISSIN_clean_sbu_0, # of connection points: 6
#     Node 3, Type 0, BuildingBlock: HISSIN_clean_sbu_0, # of connection points: 6
#     Node 4, Type 0, BuildingBlock: HISSIN_clean_sbu_0, # of connection points: 6
#     Node 5, Type 0, BuildingBlock: HISSIN_clean_sbu_0, # of connection points: 6
#     Node 6, Type 0, BuildingBlock: HISSIN_clean_sbu_0, # of connection points: 6
#     Node 7, Type 0, BuildingBlock: HISSIN_clean_sbu_0, # of connection points: 6
#     Node 8, Type 0, BuildingBlock: HISSIN_clean_sbu_0, # of connection points: 6
#     Node 9, Type 0, BuildingBlock: HISSIN_clean_sbu_0, # of connection points: 6
#     Node 10, Type 0, BuildingBlock: HISSIN_clean_sbu_0, # of connection points: 6
#     Node 11, Type 0, BuildingBlock: HISSIN_clean_sbu_0, # of connection points: 6
#     Node 12, Type 0, BuildingBlock: HISSIN_clean_sbu_0, # of connection points: 6
#     Node 13, Type 0, BuildingBlock: HISSIN_clean_sbu_0, # of connection points: 6
#     Node 14, Type 0, BuildingBlock: HISSIN_clean_sbu_0, # of connection points: 6
#     Node 15, Type 0, BuildingBlock: HISSIN_clean_sbu_0, # of connection points: 6
#     Edge 16, Type (0, 0), BuildingBlock: XIVTED_clean_linker_0, # of connection points: 2
#     Edge 17, Type (0, 0), BuildingBlock: XIVTED_clean_linker_0, # of connection points: 2
#     Edge 18, Type (0, 0), BuildingBlock: XIVTED_clean_linker_0, # of connection points: 2
#     Edge 19, Type (0, 0), BuildingBlock: XIVTED_clean_linker_0, # of connection points: 2
#     Edge 20, Type (0, 0), BuildingBlock: XIVTED_clean_linker_0, # of connection points: 2
#     Edge 21, Type (0, 0), BuildingBlock: XIVTED_clean_linker_0, # of connection points: 2
#     Edge 22, Type (0, 0), BuildingBlock: XIVTED_clean_linker_0, # of connection points: 2
#     Edge 23, Type (0, 0), BuildingBlock: XIVTED_clean_linker_0, # of connection points: 2
#     Edge 24, Type (0, 0), BuildingBlock: XIVTED_clean_linker_0, # of connection points: 2
#     Edge 25, Type (0, 0), BuildingBlock: XIVTED_clean_linker_0, # of connection points: 2
#     Edge 26, Type (0, 0), BuildingBlock: XIVTED_clean_linker_0, # of connection points: 2
#     Edge 27, Type (0, 0), BuildingBlock: XIVTED_clean_linker_0, # of connection points: 2
#     Edge 28, Type (0, 0), BuildingBlock: XIVTED_clean_linker_0, # of connection points: 2
#     Edge 29, Type (0, 0), BuildingBlock: XIVTED_clean_linker_0, # of connection points: 2
#     Edge 30, Type (0, 0), BuildingBlock: XIVTED_clean_linker_0, # of connection points: 2
#     Edge 31, Type (0, 0), BuildingBlock: XIVTED_clean_linker_0, # of connection points: 2
#     Edge 32, Type (0, 0), BuildingBlock: XIVTED_clean_linker_0, # of connection points: 2
#     Edge 33, Type (0, 0), BuildingBlock: XIVTED_clean_linker_0, # of connection points: 2
#     Edge 34, Type (0, 0), BuildingBlock: XIVTED_clean_linker_0, # of connection points: 2
#     Edge 35, Type (0, 0), BuildingBlock: XIVTED_clean_linker_0, # of connection points: 2
#     Edge 36, Type (0, 0), BuildingBlock: XIVTED_clean_linker_0, # of connection points: 2
#     Edge 37, Type (0, 0), BuildingBlock: XIVTED_clean_linker_0, # of connection points: 2
#     Edge 38, Type (0, 0), BuildingBlock: XIVTED_clean_linker_0, # of connection points: 2
#     Edge 39, Type (0, 0), BuildingBlock: XIVTED_clean_linker_0, # of connection points: 2
#     Edge 40, Type (0, 0), BuildingBlock: XIVTED_clean_linker_0, # of connection points: 2
#     Edge 41, Type (0, 0), BuildingBlock: XIVTED_clean_linker_0, # of connection points: 2
#     Edge 42, Type (0, 0), BuildingBlock: XIVTED_clean_linker_0, # of connection points: 2
#     Edge 43, Type (0, 0), BuildingBlock: XIVTED_clean_linker_0, # of connection points: 2
#     Edge 44, Type (0, 0), BuildingBlock: XIVTED_clean_linker_0, # of connection points: 2
#     Edge 45, Type (0, 0), BuildingBlock: XIVTED_clean_linker_0, # of connection points: 2
#     Edge 46, Type (0, 0), BuildingBlock: XIVTED_clean_linker_0, # of connection points: 2
#     Edge 47, Type (0, 0), BuildingBlock: XIVTED_clean_linker_0, # of connection points: 2
#     Edge 48, Type (0, 0), BuildingBlock: XIVTED_clean_linker_0, # of connection points: 2
#     Edge 49, Type (0, 0), BuildingBlock: XIVTED_clean_linker_0, # of connection points: 2
#     Edge 50, Type (0, 0), BuildingBlock: XIVTED_clean_linker_0, # of connection points: 2
#     Edge 51, Type (0, 0), BuildingBlock: XIVTED_clean_linker_0, # of connection points: 2
#     Edge 52, Type (0, 0), BuildingBlock: XIVTED_clean_linker_0, # of connection points: 2
#     Edge 53, Type (0, 0), BuildingBlock: XIVTED_clean_linker_0, # of connection points: 2
#     Edge 54, Type (0, 0), BuildingBlock: XIVTED_clean_linker_0, # of connection points: 2
#     Edge 55, Type (0, 0), BuildingBlock: XIVTED_clean_linker_0, # of connection points: 2
#     Edge 56, Type (0, 0), BuildingBlock: XIVTED_clean_linker_0, # of connection points: 2
#     Edge 57, Type (0, 0), BuildingBlock: XIVTED_clean_linker_0, # of connection points: 2
#     Edge 58, Type (0, 0), BuildingBlock: XIVTED_clean_linker_0, # of connection points: 2
#     Edge 59, Type (0, 0), BuildingBlock: XIVTED_clean_linker_0, # of connection points: 2
#     Edge 60, Type (0, 0), BuildingBlock: XIVTED_clean_linker_0, # of connection points: 2
#     Edge 61, Type (0, 0), BuildingBlock: XIVTED_clean_linker_0, # of connection points: 2
#     Edge 62, Type (0, 0), BuildingBlock: XIVTED_clean_linker_0, # of connection points: 2
#     Edge 63, Type (0, 0), BuildingBlock: XIVTED_clean_linker_0, # of connection points: 2
# Relax obj value: 0.717
# Max RMSD: 0.314
# Mean RMSD: 0.313
data_MOF--net-whz--node1-HISSIN_clean_sbu_0--edge1-XIVTED_clean_linker_0
_symmetry_space_group_name_H-M    P1
_symmetry_Int_Tables_number       1
_symmetry_cell_setting            triclinic
loop_
_symmetry_equiv_pos_as_xyz
'x, y, z'
_cell_length_a     35.347787
_cell_length_b     35.281138
_cell_length_c     71.843818
_cell_angle_alpha  89.987232
_cell_angle_beta   90.244226
_cell_angle_gamma 89.96686
loop_
_atom_site_label
_atom_site_type_symbol
_atom_site_fract_x
_atom_site_fract_y
_atom_site_fract_z
_atom_type_partial_charge
Eu0 Eu 0.29953 0.23381 0.17983 0.0
Eu1 Eu 0.31329 0.18153 0.14328 0.0
C2 C 0.3287 0.14884 0.18518 0.0
C3 C 0.23758 0.28114 0.21397 0.0
C4 C 0.22607 0.24954 0.22437 0.0
C5 C 0.1746 0.3082 0.21744 0.0
C6 C 0.1894 0.2474 0.23133 0.0
C7 C 0.21153 0.31048 0.21059 0.0
C8 C 0.16305 0.27657 0.2279 0.0
C9 C 0.27443 0.28127 0.2044 0.0
O10 O 0.26257 0.15478 0.15659 0.0
O11 O 0.24273 0.20654 0.17305 0.0
C12 C 0.2369 0.17211 0.16661 0.0
O13 O 0.31219 0.26596 0.15394 0.0
O14 O 0.30535 0.13197 0.12505 0.0
O15 O 0.33717 0.18035 0.11537 0.0
O16 O 0.27329 0.23114 0.13716 0.0
C17 C 0.2852 0.26502 0.14169 0.0
O18 O 0.36345 0.23366 0.17873 0.0
O19 O 0.36904 0.21226 0.14849 0.0
O20 O 0.34009 0.14827 0.16759 0.0
O21 O 0.2984 0.25417 0.20856 0.0
O22 O 0.27206 0.2872 0.18651 0.0
O23 O 0.30698 0.17583 0.19175 0.0
C24 C 0.30403 0.14477 0.09225 0.0
C25 C 0.29298 0.17714 0.08217 0.0
C26 C 0.28544 0.10581 0.06563 0.0
C27 C 0.27871 0.17391 0.06398 0.0
C28 C 0.2999 0.1091 0.0838 0.0
C29 C 0.27485 0.13819 0.05535 0.0
C30 C 0.32223 0.14778 0.11092 0.0
C31 C 0.38385 0.22715 0.16374 0.0
H32 H 0.2452 0.22611 0.22697 0.0
H33 H 0.15513 0.33113 0.21447 0.0
H34 H 0.18207 0.22308 0.23976 0.0
H35 H 0.21949 0.33479 0.20226 0.0
H36 H 0.29594 0.20512 0.08821 0.0
H37 H 0.28239 0.07776 0.0597 0.0
H38 H 0.27147 0.19963 0.05656 0.0
H39 H 0.3083 0.08367 0.0912 0.0
Eu40 Eu 0.55801 0.54821 0.4304 0.0
Eu41 Eu 0.60925 0.56305 0.39362 0.0
C42 C 0.63499 0.59291 0.43567 0.0
C43 C 0.48242 0.49772 0.45717 0.0
C44 C 0.45229 0.49865 0.46968 0.0
C45 C 0.46801 0.43194 0.45003 0.0
C46 C 0.43067 0.46618 0.47272 0.0
C47 C 0.48965 0.46451 0.44701 0.0
C48 C 0.43879 0.43216 0.46324 0.0
C49 C 0.50482 0.53202 0.454 0.0
O50 O 0.62438 0.50401 0.40317 0.0
O51 O 0.60656 0.50645 0.43392 0.0
C52 C 0.62604 0.49078 0.42031 0.0
O53 O 0.54884 0.50233 0.40978 0.0
O54 O 0.65854 0.55137 0.37596 0.0
O55 O 0.61456 0.58914 0.36622 0.0
O56 O 0.55041 0.54092 0.38513 0.0
C57 C 0.53682 0.51056 0.39325 0.0
O58 O 0.53783 0.60359 0.41735 0.0
O59 O 0.59065 0.62167 0.40136 0.0
O60 O 0.64585 0.5812 0.41891 0.0
O61 O 0.49866 0.54805 0.43791 0.0
O62 O 0.54084 0.53031 0.45824 0.0
O63 O 0.60016 0.58899 0.44158 0.0
C64 C 0.64767 0.55397 0.34311 0.0
C65 C 0.61503 0.54224 0.33346 0.0
C66 C 0.6854 0.53674 0.31603 0.0
C67 C 0.61755 0.52816 0.31523 0.0
C68 C 0.68283 0.5509 0.33423 0.0
C69 C 0.65278 0.52532 0.30617 0.0
C70 C 0.64558 0.57114 0.36198 0.0
C71 C 0.55809 0.6298 0.40899 0.0
H72 H 0.44598 0.52426 0.47739 0.0
H73 H 0.47491 0.40628 0.44249 0.0
H74 H 0.40893 0.46726 0.48328 0.0
H75 H 0.51244 0.46359 0.437 0.0
H76 H 0.58747 0.54435 0.33992 0.0
H77 H 0.7131 0.53441 0.30976 0.0
H78 H 0.5917 0.52013 0.30812 0.0
H79 H 0.70842 0.55976 0.34135 0.0
Eu80 Eu 0.21638 0.83114 0.6886 0.0
Eu81 Eu 0.22369 0.86181 0.64554 0.0
C82 C 0.18521 0.90858 0.67862 0.0
C83 C 0.1682 0.82133 0.73452 0.0
C84 C 0.14391 0.85192 0.73064 0.0
C85 C 0.13189 0.80746 0.76217 0.0
C86 C 0.11496 0.86141 0.74297 0.0
C87 C 0.16114 0.79833 0.74995 0.0
C88 C 0.10952 0.84003 0.75922 0.0
C89 C 0.20211 0.81498 0.72316 0.0
O90 O 0.28288 0.86556 0.65678 0.0
O91 O 0.26744 0.87062 0.68773 0.0
C92 C 0.29171 0.8748 0.67398 0.0
O93 O 0.26094 0.79344 0.67699 0.0
O94 O 0.23928 0.90609 0.62537 0.0
O95 O 0.20887 0.85614 0.61618 0.0
O96 O 0.25024 0.80229 0.64549 0.0
C97 C 0.26627 0.7838 0.65955 0.0
O98 O 0.17394 0.7979 0.67191 0.0
O99 O 0.16299 0.84225 0.64936 0.0
O100 O 0.21182 0.91094 0.66592 0.0
O101 O 0.19901 0.79017 0.70978 0.0
O102 O 0.21974 0.84565 0.71793 0.0
O103 O 0.17278 0.87509 0.68269 0.0
C104 C 0.24467 0.88918 0.59291 0.0
C105 C 0.24975 0.85648 0.58198 0.0
C106 C 0.26831 0.92717 0.567 0.0
C107 C 0.26359 0.85917 0.56373 0.0
C108 C 0.25447 0.92446 0.58524 0.0
C109 C 0.27261 0.89463 0.55584 0.0
C110 C 0.22493 0.88783 0.6112 0.0
C111 C 0.15202 0.81262 0.65903 0.0
H112 H 0.14854 0.86962 0.71858 0.0
H113 H 0.12887 0.79074 0.77473 0.0
H114 H 0.09827 0.88663 0.74035 0.0
H115 H 0.17938 0.77444 0.75306 0.0
H116 H 0.24207 0.82884 0.58732 0.0
H117 H 0.27552 0.95492 0.56164 0.0
H118 H 0.26607 0.83345 0.5556 0.0
H119 H 0.25051 0.95021 0.59321 0.0
Eu120 Eu 0.98299 0.48522 0.93267 0.0
Eu121 Eu 0.9297 0.47795 0.89568 0.0
C122 C 0.9041 0.44447 0.93693 0.0
C123 C 0.05868 0.53112 0.96094 0.0
C124 C 0.08797 0.5301 0.97405 0.0
C125 C 0.07439 0.59651 0.95371 0.0
C126 C 0.10981 0.56245 0.97734 0.0
C127 C 0.05246 0.56426 0.95055 0.0
C128 C 0.1028 0.59634 0.96746 0.0
C129 C 0.03576 0.49726 0.95734 0.0
O130 O 0.91954 0.53727 0.90682 0.0
O131 O 0.93494 0.52657 0.9375 0.0
C132 C 0.91803 0.54691 0.92453 0.0
O133 O 0.99469 0.53314 0.91354 0.0
O134 O 0.88099 0.49489 0.87836 0.0
O135 O 0.92054 0.45308 0.86824 0.0
O136 O 0.98835 0.49983 0.88706 0.0
C137 C 1.00432 0.52759 0.89638 0.0
O138 O 1.00248 0.4329 0.91715 0.0
O139 O 0.94804 0.41781 0.9016 0.0
O140 O 0.89313 0.46021 0.92094 0.0
O141 O 0.04191 0.48168 0.94119 0.0
O142 O 0.99968 0.4998 0.96113 0.0
O143 O 0.93978 0.44362 0.94203 0.0
C144 C 0.88946 0.49093 0.84529 0.0
C145 C 0.92239 0.49861 0.83505 0.0
C146 C 0.85174 0.51036 0.81835 0.0
C147 C 0.92 0.51167 0.81661 0.0
C148 C 0.85418 0.49719 0.83677 0.0
C149 C 0.88462 0.51754 0.80788 0.0
C150 C 0.89118 0.47399 0.86427 0.0
C151 C 0.9811 0.4081 0.90844 0.0
H152 H 0.09345 0.50458 0.98201 0.0
H153 H 0.06822 0.62193 0.94581 0.0
H154 H 0.13083 0.56134 0.98833 0.0
H155 H 0.0302 0.56544 0.94021 0.0
H156 H 0.95005 0.49392 0.84118 0.0
H157 H 0.82398 0.51509 0.81238 0.0
H158 H 0.94603 0.51635 0.80907 0.0
H159 H 0.82834 0.49142 0.84432 0.0
Eu160 Eu 0.72676 0.85572 0.94339 0.0
Eu161 Eu 0.74261 0.79606 0.90995 0.0
C162 C 0.76081 0.77538 0.94909 0.0
C163 C 0.73589 0.90076 0.99267 0.0
C164 C 0.76347 0.87613 1.00001 0.0
C165 C 0.74037 0.93867 1.02097 0.0
C166 C 0.77922 0.88264 1.01774 0.0
C167 C 0.72467 0.93211 1.0033 0.0
C168 C 0.76782 0.91399 1.02854 0.0
C169 C 0.71651 0.89295 0.97468 0.0
O170 O 0.67891 0.79559 0.91037 0.0
O171 O 0.67177 0.8228 0.93935 0.0
C172 C 0.65777 0.805 0.92469 0.0
O173 O 0.70046 0.88409 0.91758 0.0
O174 O 0.74424 0.76932 0.88253 0.0
O175 O 0.77254 0.74276 0.90603 0.0
O176 O 0.73404 0.85129 0.89517 0.0
C177 C 0.71233 0.87973 0.9002 0.0
O178 O 0.77669 0.88185 0.92907 0.0
O179 O 0.79785 0.82788 0.91464 0.0
O180 O 0.73301 0.76928 0.93768 0.0
O181 O 0.73005 0.90852 0.95962 0.0
O182 O 0.70577 0.85807 0.97183 0.0
O183 O 0.77074 0.81085 0.95077 0.0
C184 C 0.80587 0.74408 0.87819 0.0
C185 C 0.81937 0.77729 0.8698 0.0
C186 C 0.86604 0.71337 0.87177 0.0
C187 C 0.85546 0.77832 0.86212 0.0
C188 C 0.82964 0.71229 0.87936 0.0
C189 C 0.87928 0.74634 0.86286 0.0
C190 C 0.76938 0.74433 0.88797 0.0
C191 C 0.80256 0.86352 0.91961 0.0
H192 H 0.77254 0.85162 0.99211 0.0
H193 H 0.73033 0.96277 1.02886 0.0
H194 H 0.80057 0.86325 1.0229 0.0
H195 H 0.70315 0.95128 0.99806 0.0
H196 H 0.80209 0.80264 0.8692 0.0
H197 H 0.88368 0.68834 0.87278 0.0
H198 H 0.8641 0.80399 0.85505 0.0
H199 H 0.8202 0.68679 0.88635 0.0
Eu200 Eu 0.42356 0.47103 0.68878 0.0
Eu201 Eu 0.45087 0.4639 0.64529 0.0
C202 C 0.50484 0.50654 0.67472 0.0
C203 C 0.39616 0.49342 0.7411 0.0
C204 C 0.429 0.50238 0.75132 0.0
C205 C 0.3581 0.51538 0.76722 0.0
C206 C 0.42635 0.51735 0.76938 0.0
C207 C 0.36077 0.50048 0.7492 0.0
C208 C 0.39083 0.52355 0.77772 0.0
C209 C 0.39776 0.4729 0.72304 0.0
O210 O 0.4821 0.41737 0.66026 0.0
O211 O 0.4416 0.40969 0.68481 0.0
C212 C 0.46894 0.39701 0.67408 0.0
O213 O 0.37334 0.46156 0.66868 0.0
O214 O 0.48823 0.44584 0.62273 0.0
O215 O 0.43403 0.47185 0.61646 0.0
O216 O 0.40638 0.42115 0.65136 0.0
C217 C 0.37372 0.43467 0.656 0.0
O218 O 0.42347 0.53101 0.67845 0.0
O219 O 0.41382 0.51662 0.6477 0.0
O220 O 0.49432 0.50244 0.65728 0.0
O221 O 0.37933 0.48669 0.70879 0.0
O222 O 0.4296 0.45704 0.71822 0.0
O223 O 0.48425 0.49423 0.68887 0.0
C224 C 0.45307 0.42117 0.59748 0.0
C225 C 0.41885 0.40134 0.59954 0.0
C226 C 0.46647 0.38456 0.56978 0.0
C227 C 0.40772 0.37448 0.58634 0.0
C228 C 0.47732 0.41177 0.58287 0.0
C229 C 0.43099 0.36657 0.57104 0.0
C230 C 0.4627 0.45269 0.61001 0.0
C231 C 0.41247 0.54082 0.66165 0.0
H232 H 0.45675 0.49697 0.74556 0.0
H233 H 0.33026 0.52038 0.77296 0.0
H234 H 0.45221 0.52298 0.77702 0.0
H235 H 0.33499 0.49358 0.74172 0.0
H236 H 0.40006 0.40776 0.61094 0.0
H237 H 0.48477 0.3796 0.55797 0.0
H238 H 0.38027 0.36112 0.58764 0.0
H239 H 0.50395 0.42654 0.58114 0.0
Eu240 Eu 0.8178 0.17177 0.44051 0.0
Eu241 Eu 0.82699 0.20107 0.39725 0.0
C242 C 0.77991 0.25199 0.42602 0.0
C243 C 0.80036 0.14473 0.49394 0.0
C244 C 0.79624 0.17749 0.50489 0.0
C245 C 0.78259 0.10669 0.52094 0.0
C246 C 0.7857 0.17485 0.52369 0.0
C247 C 0.79317 0.10939 0.50218 0.0
C248 C 0.77892 0.13934 0.53213 0.0
C249 C 0.81703 0.14607 0.47493 0.0
O250 O 0.8696 0.23429 0.41373 0.0
O251 O 0.87893 0.19101 0.43696 0.0
C252 C 0.89065 0.22014 0.42708 0.0
O253 O 0.83031 0.12213 0.42054 0.0
O254 O 0.84595 0.24058 0.37574 0.0
O255 O 0.82223 0.18612 0.36801 0.0
O256 O 0.87016 0.157 0.40368 0.0
C257 C 0.85721 0.12379 0.40794 0.0
O258 O 0.75873 0.16769 0.42868 0.0
O259 O 0.77639 0.16136 0.3981 0.0
O260 O 0.78468 0.2415 0.40864 0.0
O261 O 0.80025 0.12882 0.4611 0.0
O262 O 0.83412 0.17699 0.46968 0.0
O263 O 0.79292 0.23198 0.44031 0.0
C264 C 0.87354 0.20812 0.3505 0.0
C265 C 0.89706 0.17675 0.35398 0.0
C266 C 0.90789 0.22049 0.32211 0.0
C267 C 0.9247 0.16623 0.34113 0.0
C268 C 0.88 0.23067 0.33486 0.0
C269 C 0.92958 0.18733 0.32473 0.0
C270 C 0.84085 0.21591 0.36245 0.0
C271 C 0.75122 0.15746 0.41143 0.0
H272 H 0.80214 0.2052 0.49909 0.0
H273 H 0.7768 0.07883 0.52652 0.0
H274 H 0.7839 0.20077 0.53167 0.0
H275 H 0.79648 0.08359 0.49417 0.0
H276 H 0.89283 0.15942 0.36621 0.0
H277 H 0.91038 0.2371 0.30949 0.0
H278 H 0.94096 0.14065 0.34356 0.0
H279 H 0.8623 0.25511 0.33203 0.0
Eu280 Eu 0.11634 0.56841 0.18738 0.0
Eu281 Eu 0.08415 0.57469 0.14443 0.0
C282 C 0.03928 0.52362 0.17387 0.0
C283 C 0.14444 0.54878 0.24008 0.0
C284 C 0.11233 0.5437 0.25133 0.0
C285 C 0.18351 0.52456 0.2656 0.0
C286 C 0.11584 0.5296 0.26954 0.0
C287 C 0.17998 0.53868 0.24741 0.0
C288 C 0.15156 0.5203 0.27708 0.0
C289 C 0.14217 0.56881 0.22182 0.0
O290 O 0.05015 0.61566 0.16152 0.0
O291 O 0.09639 0.62911 0.18266 0.0
C292 C 0.06558 0.63901 0.17352 0.0
O293 O 0.16504 0.58006 0.16697 0.0
O294 O 0.04353 0.595 0.1236 0.0
O295 O 0.09558 0.56783 0.11495 0.0
O296 O 0.12894 0.618 0.14939 0.0
C297 C 0.16241 0.60586 0.15382 0.0
O298 O 0.12432 0.50929 0.17643 0.0
O299 O 0.1229 0.52311 0.14506 0.0
O300 O 0.04776 0.52961 0.15635 0.0
O301 O 0.16131 0.55563 0.20774 0.0
O302 O 0.10973 0.58313 0.21669 0.0
O303 O 0.05795 0.53981 0.1878 0.0
C304 C 0.07575 0.62066 0.09783 0.0
C305 C 0.10821 0.64253 0.10137 0.0
C306 C 0.0655 0.65566 0.06929 0.0
C307 C 0.12028 0.66954 0.08851 0.0
C308 C 0.05372 0.62831 0.08207 0.0
C309 C 0.09971 0.67546 0.07203 0.0
C310 C 0.0666 0.58833 0.10987 0.0
C311 C 0.13092 0.50003 0.159 0.0
H312 H 0.08451 0.5516 0.24628 0.0
H313 H 0.21143 0.51716 0.27069 0.0
H314 H 0.09056 0.52719 0.27791 0.0
H315 H 0.20531 0.54263 0.2392 0.0
H316 H 0.1253 0.6373 0.11361 0.0
H317 H 0.04934 0.65911 0.05655 0.0
H318 H 0.1467 0.6843 0.09095 0.0
H319 H 0.02849 0.61187 0.07919 0.0
Eu320 Eu 0.81058 0.7162 0.68595 0.0
Eu321 Eu 0.81355 0.67387 0.6453 0.0
C322 C 0.84989 0.63825 0.6828 0.0
C323 C 0.85096 0.7602 0.72851 0.0
C324 C 0.88615 0.74466 0.72361 0.0
C325 C 0.88013 0.79027 0.75519 0.0
C326 C 0.91792 0.75076 0.73486 0.0
C327 C 0.84837 0.78397 0.74399 0.0
C328 C 0.91497 0.77268 0.75111 0.0
C329 C 0.81692 0.75034 0.71783 0.0
O330 O 0.75393 0.66666 0.65524 0.0
O331 O 0.76409 0.67135 0.68677 0.0
C332 C 0.74345 0.65994 0.67247 0.0
O333 O 0.76331 0.74184 0.66983 0.0
O334 O 0.79956 0.6266 0.62651 0.0
O335 O 0.83389 0.67318 0.61669 0.0
O336 O 0.78807 0.7331 0.64069 0.0
C337 C 0.76475 0.75059 0.65217 0.0
O338 O 0.85601 0.74494 0.669 0.0
O339 O 0.87291 0.69465 0.65089 0.0
O340 O 0.82803 0.63046 0.66834 0.0
O341 O 0.81264 0.76846 0.70212 0.0
O342 O 0.8103 0.71404 0.71622 0.0
O343 O 0.85692 0.67348 0.68689 0.0
C344 C 0.79733 0.64034 0.59382 0.0
C345 C 0.78404 0.67323 0.58487 0.0
C346 C 0.77966 0.60369 0.56631 0.0
C347 C 0.769 0.67139 0.56676 0.0
C348 C 0.79471 0.60559 0.58439 0.0
C349 C 0.76684 0.6366 0.55711 0.0
C350 C 0.81654 0.64182 0.61226 0.0
C351 C 0.88104 0.72726 0.6587 0.0
H352 H 0.8887 0.72659 0.7115 0.0
H353 H 0.8766 0.80677 0.76778 0.0
H354 H 0.9443 0.73693 0.73133 0.0
H355 H 0.82148 0.79639 0.74786 0.0
H356 H 0.78586 0.70051 0.59174 0.0
H357 H 0.7779 0.57629 0.55958 0.0
H358 H 0.75985 0.69745 0.56017 0.0
H359 H 0.80486 0.57982 0.59093 0.0
Eu360 Eu 0.06871 0.06622 0.9356 0.0
Eu361 Eu 0.11157 0.06224 0.89518 0.0
C362 C 0.14831 0.10161 0.93158 0.0
C363 C 0.02828 0.1124 0.97753 0.0
C364 C 0.04807 0.14559 0.9729 0.0
C365 C 1.0006 0.14471 1.00383 0.0
C366 C 0.04539 0.17772 0.98417 0.0
C367 C 1.00351 0.11255 0.99262 0.0
C368 C 1.02268 0.17712 1.00016 0.0
C369 C 0.03521 0.07726 0.96724 0.0
O370 O 0.11744 1.00367 0.90751 0.0
O371 O 0.11305 1.01994 0.93841 0.0
C372 C 0.12332 0.99614 0.92523 0.0
O373 O 0.0418 1.0173 0.92109 0.0
O374 O 0.15683 0.0424 0.87659 0.0
O375 O 0.1144 0.08144 0.86636 0.0
O376 O 0.05211 0.0375 0.89116 0.0
C377 C 0.03395 1.01617 0.90331 0.0
O378 O 0.04174 0.1106 0.91727 0.0
O379 O 0.09264 0.12337 0.89894 0.0
O380 O 0.15533 0.07794 0.91778 0.0
O381 O 1.01685 0.07379 0.95154 0.0
O382 O 0.07076 0.06756 0.96584 0.0
O383 O 0.11342 0.1107 0.93526 0.0
C384 C 0.14399 0.04178 0.84348 0.0
C385 C 0.11833 0.05283 0.82944 0.0
C386 C 0.17673 1.00281 0.82043 0.0
C387 C 0.12207 0.03946 0.81115 0.0
C388 C 0.17296 1.0162 0.83876 0.0
C389 C 0.15174 1.01478 0.80625 0.0
C390 C 0.14359 0.06058 0.86213 0.0
C391 C 0.06057 0.13396 0.90656 0.0
H392 H 0.06699 0.14606 0.96108 0.0
H393 H 0.98329 0.14302 1.01621 0.0
H394 H 0.06265 0.20222 0.98098 0.0
H395 H 0.98784 0.08724 0.99626 0.0
H396 H 0.09596 0.07291 0.83239 0.0
H397 H 0.19956 0.98335 0.81734 0.0
H398 H 0.10248 0.04976 0.80068 0.0
H399 H 0.19346 1.00733 0.84913 0.0
Eu400 Eu 0.73893 0.31272 0.1822 0.0
Eu401 Eu 0.72324 0.3618 0.14445 0.0
C402 C 0.69442 0.39023 0.18596 0.0
C403 C 0.7925 0.24184 0.2112 0.0
C404 C 0.79616 0.2038 0.20556 0.0
C405 C 0.85652 0.2395 0.22352 0.0
C406 C 0.82955 0.18369 0.20905 0.0
C407 C 0.82326 0.2596 0.21998 0.0
C408 C 0.85993 0.20113 0.21836 0.0
C409 C 0.75709 0.26284 0.20729 0.0
O410 O 0.78376 0.37355 0.15278 0.0
O411 O 0.78025 0.36175 0.18415 0.0
C412 C 0.79726 0.37734 0.16979 0.0
O413 O 0.78358 0.29967 0.16146 0.0
O414 O 0.73355 0.41109 0.12643 0.0
O415 O 0.6989 0.3648 0.1165 0.0
O416 O 0.74389 0.30201 0.13703 0.0
C417 C 0.77437 0.28803 0.14497 0.0
O418 O 0.68381 0.29113 0.16966 0.0
O419 O 0.66489 0.34299 0.15289 0.0
O420 O 0.70662 0.40026 0.16918 0.0
O421 O 0.75665 0.29934 0.21063 0.0
O422 O 0.74048 0.25424 0.19159 0.0
O423 O 0.69764 0.35549 0.19227 0.0
C424 C 0.73442 0.39861 0.09368 0.0
C425 C 0.74907 0.3662 0.08488 0.0
C426 C 0.7522 0.43591 0.06642 0.0
C427 C 0.76486 0.36859 0.067 0.0
C428 C 0.73632 0.43345 0.08427 0.0
C429 C 0.76661 0.40348 0.05742 0.0
C430 C 0.7157 0.39651 0.1122 0.0
C431 C 0.65712 0.31089 0.16127 0.0
H432 H 0.77301 0.18943 0.19861 0.0
H433 H 0.87889 0.2537 0.23114 0.0
H434 H 0.83124 0.15425 0.20486 0.0
H435 H 0.82153 0.28888 0.22442 0.0
H436 H 0.74796 0.33888 0.09174 0.0
H437 H 0.75351 0.46341 0.05977 0.0
H438 H 0.77513 0.34283 0.06058 0.0
H439 H 0.72526 0.45889 0.09072 0.0
Eu440 Eu 0.47631 0.98094 0.43343 0.0
Eu441 Eu 0.43053 0.97419 0.39428 0.0
C442 C 0.3978 0.93954 0.43412 0.0
C443 C 0.55014 0.02689 0.46155 0.0
C444 C 0.5788 0.03309 0.44827 0.0
C445 C 0.56858 0.08501 0.47704 0.0
C446 C 0.60274 0.06446 0.44969 0.0
C447 C 0.54502 0.05343 0.47578 0.0
C448 C 0.59807 0.09065 0.46417 0.0
C449 C 0.52413 0.99429 0.45993 0.0
O450 O 0.4211 0.03391 0.40467 0.0
O451 O 0.42715 1.02192 0.43587 0.0
C452 C 0.41506 0.04343 0.42212 0.0
O453 O 0.49458 0.02801 0.41516 0.0
O454 O 0.38235 0.98833 0.3761 0.0
O455 O 0.42817 0.95385 0.3656 0.0
O456 O 0.49087 0.99557 0.38822 0.0
C457 C 0.50641 1.02251 0.39834 0.0
O458 O 0.49848 0.92862 0.41876 0.0
O459 O 0.44719 0.91391 0.40072 0.0
O460 O 0.38969 0.95578 0.41785 0.0
O461 O 0.48803 1.00158 0.46161 0.0
O462 O 0.53109 0.97098 0.44629 0.0
O463 O 0.43216 0.93928 0.44099 0.0
C464 C 0.39419 0.99135 0.34316 0.0
C465 C 0.42443 0.99126 0.33044 0.0
C466 C 0.35519 1.02256 0.31953 0.0
C467 C 0.41994 1.00631 0.31244 0.0
C468 C 0.35966 1.00749 0.33749 0.0
C469 C 0.38506 1.02173 0.30659 0.0
C470 C 0.39686 0.97171 0.36155 0.0
C471 C 0.47855 0.90389 0.40919 0.0
H472 H 0.58315 1.01353 0.43687 0.0
H473 H 0.5648 0.10399 0.48873 0.0
H474 H 0.62547 0.06769 0.43976 0.0
H475 H 0.52301 0.04956 0.48606 0.0
H476 H 0.45139 0.97878 0.33421 0.0
H477 H 0.3281 0.03478 0.31579 0.0
H478 H 0.44356 1.00473 0.30293 0.0
H479 H 0.33573 1.00778 0.34686 0.0
Eu480 Eu 0.22973 0.36384 0.43796 0.0
Eu481 Eu 0.22521 0.32052 0.39772 0.0
C482 C 0.27813 0.28807 0.42943 0.0
C483 C 0.2471 0.39609 0.49012 0.0
C484 C 0.23086 0.37374 0.50423 0.0
C485 C 0.28785 0.42507 0.51375 0.0
C486 C 0.24259 0.37728 0.52281 0.0
C487 C 0.27605 0.42155 0.49513 0.0
C488 C 0.27082 0.40346 0.52795 0.0
C489 C 0.23042 0.39639 0.47098 0.0
O490 O 0.185 0.29113 0.41713 0.0
O491 O 0.16947 0.34249 0.43455 0.0
C492 C 0.16071 0.30921 0.42759 0.0
O493 O 0.2119 0.40683 0.4154 0.0
O494 O 0.22111 0.2674 0.38232 0.0
O495 O 0.21942 0.32112 0.36756 0.0
O496 O 0.17922 0.36373 0.39847 0.0
C497 C 0.18768 0.39899 0.4019 0.0
O498 O 0.28713 0.37275 0.42493 0.0
O499 O 0.27 0.36607 0.39414 0.0
O500 O 0.27628 0.29699 0.41178 0.0
O501 O 0.25077 0.40807 0.45699 0.0
O502 O 0.20829 0.36842 0.46629 0.0
O503 O 0.2564 0.30499 0.44184 0.0
C504 C 0.1786 0.27294 0.35732 0.0
C505 C 0.14395 0.28995 0.36197 0.0
C506 C 0.1472 0.23748 0.33295 0.0
C507 C 0.11135 0.28194 0.35161 0.0
C508 C 0.17975 0.24568 0.34324 0.0
C509 C 0.11296 0.25664 0.33652 0.0
C510 C 0.21368 0.28458 0.36665 0.0
C511 C 0.29371 0.37807 0.40708 0.0
H512 H 0.20804 0.35429 0.50104 0.0
H513 H 0.31014 0.44504 0.51703 0.0
H514 H 0.22836 0.36046 0.53326 0.0
H515 H 0.28898 0.43949 0.48471 0.0
H516 H 0.14248 0.31065 0.37309 0.0
H517 H 0.14975 0.21832 0.32125 0.0
H518 H 0.08546 0.29704 0.35474 0.0
H519 H 0.20618 0.23201 0.33963 0.0
Eu520 Eu 0.92981 0.98146 0.1923 0.0
Eu521 Eu 0.98742 0.99607 0.15813 0.0
C522 C 1.01062 1.01362 0.19684 0.0
C523 C 0.89201 0.98874 0.24319 0.0
C524 C 0.86433 1.01567 0.24801 0.0
C525 C 0.91277 0.98804 0.27572 0.0
C526 C 0.86077 0.02842 0.26647 0.0
C527 C 0.91625 0.97526 0.25733 0.0
C528 C 0.88473 1.01451 0.28065 0.0
C529 C 0.89376 0.97241 0.224 0.0
O530 O 0.9875 0.93237 0.15885 0.0
O531 O 0.96189 0.92585 0.18817 0.0
C532 C 0.97894 0.9115 0.17343 0.0
O533 O 0.89882 0.95609 0.16688 0.0
O534 O 1.01402 0.99812 0.13073 0.0
O535 O 0.04165 1.02405 0.15458 0.0
O536 O 0.93253 0.98598 0.14345 0.0
C537 C 0.90327 0.96622 0.14917 0.0
O538 O 0.90211 0.02943 0.17709 0.0
O539 O 0.95513 0.05137 0.16232 0.0
O540 O 1.01405 0.98495 0.18575 0.0
O541 O 0.88047 0.99227 0.21011 0.0
O542 O 0.92449 0.95425 0.21944 0.0
O543 O 0.9758 0.02472 0.19935 0.0
C544 C 0.04392 0.05798 0.1269 0.0
C545 C 1.01281 0.07366 0.11749 0.0
C546 C 0.07906 0.11625 0.12169 0.0
C547 C 1.01501 0.10995 0.10995 0.0
C548 C 0.07691 0.07967 0.12914 0.0
C549 C 0.04819 0.13174 0.11187 0.0
C550 C 0.04045 1.02138 0.13651 0.0
C551 C 0.91944 0.05536 0.16722 0.0
H552 H 0.84496 0.02651 0.23757 0.0
H553 H 0.93143 0.9762 0.28621 0.0
H554 H 0.83917 0.0492 0.26961 0.0
H555 H 0.93757 0.95411 0.25429 0.0
H556 H 0.98663 0.05797 0.116 0.0
H557 H 0.10491 0.13227 0.12357 0.0
H558 H 0.99091 0.12038 0.10213 0.0
H559 H 0.10083 0.06848 0.13687 0.0
Eu560 Eu 0.31223 0.68176 0.93912 0.0
Eu561 Eu 0.30315 0.73347 0.90177 0.0
C562 C 0.26167 0.75536 0.93809 0.0
C563 C 0.29956 0.64361 0.98997 0.0
C564 C 0.31149 0.66905 1.00391 0.0
C565 C 0.26123 0.61112 1.01332 0.0
C566 C 0.2987 0.66543 1.02228 0.0
C567 C 0.27401 0.61477 0.99491 0.0
C568 C 0.27375 0.63612 1.02736 0.0
C569 C 0.31636 0.64478 0.97091 0.0
O570 O 0.3567 0.75334 0.91632 0.0
O571 O 0.37192 0.69984 0.9327 0.0
C572 C 0.38165 0.73226 0.92517 0.0
O573 O 0.33139 0.64463 0.91439 0.0
O574 O 0.28848 0.7491 0.87318 0.0
O575 O 0.30366 0.79254 0.89326 0.0
O576 O 0.34539 0.69074 0.89258 0.0
C577 C 0.34653 0.65545 0.89833 0.0
O578 O 0.25356 0.66955 0.92777 0.0
O579 O 0.26334 0.68405 0.89698 0.0
O580 O 0.25556 0.74443 0.92114 0.0
O581 O 0.29573 0.6337 0.95682 0.0
O582 O 0.33735 0.67388 0.96666 0.0
O583 O 0.29031 0.74069 0.94726 0.0
C584 C 0.25431 0.80662 0.87282 0.0
C585 C 0.25404 0.83426 0.85888 0.0
C586 C 0.1882 0.82007 0.87931 0.0
C587 C 0.22076 0.85409 0.85484 0.0
C588 C 0.22144 0.80017 0.88326 0.0
C589 C 0.1872 0.84664 0.86474 0.0
C590 C 0.28905 0.78538 0.87694 0.0
C591 C 0.24381 0.66696 0.91008 0.0
H592 H 0.33151 0.69135 1.00076 0.0
H593 H 0.24154 0.58858 1.01654 0.0
H594 H 0.30945 0.68498 1.03264 0.0
H595 H 0.26441 0.5945 0.9846 0.0
H596 H 0.27928 0.83989 0.85084 0.0
H597 H 0.16299 0.81378 0.88724 0.0
H598 H 0.22092 0.87378 0.84328 0.0
H599 H 0.22126 0.7792 0.89424 0.0
Eu600 Eu 0.61405 0.05964 0.68953 0.0
Eu601 Eu 0.58059 0.0662 0.64712 0.0
C602 C 0.53581 1.01572 0.6771 0.0
C603 C 0.64299 0.03629 0.74165 0.0
C604 C 0.67323 1.01148 0.74541 0.0
C605 C 0.62208 0.02808 0.77385 0.0
C606 C 0.67806 0.99553 0.76316 0.0
C607 C 0.61726 0.04405 0.75608 0.0
C608 C 0.65298 1.00412 0.77778 0.0
C609 C 0.64117 0.0577 0.72372 0.0
O610 O 0.5435 0.10205 0.66531 0.0
O611 O 0.59066 0.11906 0.68525 0.0
C612 C 0.55833 0.12665 0.67691 0.0
O613 O 0.66243 0.07568 0.66948 0.0
O614 O 0.55416 0.10045 0.62543 0.0
O615 O 0.57455 0.04414 0.61889 0.0
O616 O 0.62443 0.11075 0.65113 0.0
C617 C 0.65839 0.10083 0.65603 0.0
O618 O 0.61921 1.00136 0.67708 0.0
O619 O 0.62753 1.02219 0.64727 0.0
O620 O 0.5428 1.0226 0.65949 0.0
O621 O 0.65915 0.04448 0.70926 0.0
O622 O 0.60931 0.07391 0.71906 0.0
O623 O 0.55602 0.03059 0.69083 0.0
C624 C 0.58625 0.09197 0.59697 0.0
C625 C 0.60717 0.1257 0.59903 0.0
C626 C 0.61332 0.08336 0.56638 0.0
C627 C 0.63064 0.13839 0.58471 0.0
C628 C 0.58952 0.07099 0.58054 0.0
C629 C 0.63418 0.1171 0.56833 0.0
C630 C 0.5634 0.07674 0.6123 0.0
C631 C 0.63091 0.99555 0.65998 0.0
H632 H 0.69389 1.00514 0.73476 0.0
H633 H 0.60236 0.03578 0.7847 0.0
H634 H 0.70185 0.97673 0.76546 0.0
H635 H 0.59398 0.06353 0.75385 0.0
H636 H 0.60565 0.14215 0.61174 0.0
H637 H 0.61481 0.06682 0.5537 0.0
H638 H 0.64617 0.16459 0.58648 0.0
H639 H 0.5739 0.04482 0.57873 0.0
H640 H 0.12251 0.33579 0.2428 0.0
H641 H 0.08376 0.1961 0.31683 0.0
H642 H 0.11659 0.21495 0.23392 0.0
H643 H 0.07376 0.31729 0.32261 0.0
H644 H 0.06339 0.20157 0.2845 0.0
H645 H 0.07457 0.33025 0.26662 0.0
C646 C 0.11041 0.30813 0.24541 0.0
C647 C 0.12544 0.27543 0.23712 0.0
C648 C 0.06428 0.22693 0.29298 0.0
C649 C 0.07171 0.26869 0.2652 0.0
C650 C 0.07585 0.22373 0.31151 0.0
C651 C 0.08296 0.25654 0.322 0.0
C652 C 0.06098 0.2632 0.28498 0.0
C653 C 0.07044 0.29132 0.31476 0.0
C654 C 0.08291 0.30492 0.25917 0.0
C655 C 0.10765 0.24065 0.24086 0.0
N656 N 0.06147 0.29397 0.29643 0.0
N657 N 0.08274 0.23794 0.25512 0.0
H658 H 0.46622 0.31223 0.54984 0.0
H659 H 0.36461 0.41777 0.47275 0.0
H660 H 0.362 0.37477 0.55459 0.0
H661 H 0.4741 0.36427 0.46936 0.0
H662 H 0.34643 0.37182 0.49649 0.0
H663 H 0.45173 0.3002 0.51711 0.0
C664 C 0.43958 0.32222 0.54415 0.0
C665 C 0.41602 0.34589 0.55466 0.0
C666 C 0.37397 0.36926 0.49007 0.0
C667 C 0.39987 0.33339 0.51722 0.0
C668 C 0.38438 0.39555 0.47651 0.0
C669 C 0.42174 0.39627 0.46995 0.0
C670 C 0.40152 0.34452 0.49734 0.0
C671 C 0.44549 0.3658 0.4746 0.0
C672 C 0.43123 0.31532 0.52546 0.0
C673 C 0.38135 0.3571 0.54685 0.0
N674 N 0.43549 0.34194 0.48854 0.0
N675 N 0.37487 0.35186 0.5284 0.0
H676 H 0.0597 0.80324 0.78246 0.0
H677 H 0.17052 0.91826 0.85159 0.0
H678 H 0.11003 0.91247 0.77229 0.0
H679 H 0.1199 0.80886 0.8614 0.0
H680 H 0.12077 0.93204 0.82895 0.0
H681 H 0.05072 0.8209 0.81498 0.0
C682 C 0.06755 0.83151 0.78692 0.0
C683 C 0.08757 0.85565 0.77498 0.0
C684 C 0.11973 0.90549 0.83651 0.0
C685 C 0.07899 0.87539 0.81216 0.0
C686 C 0.1483 0.89757 0.84941 0.0
C687 C 0.15061 0.86149 0.85758 0.0
C688 C 0.0942 0.87664 0.83144 0.0
C689 C 0.12013 0.83655 0.85493 0.0
C690 C 0.06251 0.84165 0.80552 0.0
C691 C 0.09574 0.89244 0.78122 0.0
N692 N 0.09388 0.84405 0.8416 0.0
N693 N 0.09278 0.90072 0.79959 0.0
H694 H 0.17589 0.60937 0.97978 0.0
H695 H 0.06741 0.72732 0.04821 0.0
H696 H 0.06961 0.66644 0.97003 0.0
H697 H 0.17153 0.66766 0.05914 0.0
H698 H 0.08665 0.73547 1.01589 0.0
H699 H 0.19285 0.65852 1.00219 0.0
C700 C 0.15656 0.63279 0.98192 0.0
C701 C 0.12018 0.63236 0.97397 0.0
C702 C 0.10606 0.72182 1.02548 0.0
C703 C 0.13912 0.68817 0.99973 0.0
C704 C 0.09501 0.71722 0.04396 0.0
C705 C 0.11714 0.69524 0.05606 0.0
C706 C 0.13854 0.70285 1.01907 0.0
C707 C 0.15312 0.68386 0.05007 0.0
C708 C 0.16635 0.66102 0.99466 0.0
C709 C 0.09732 0.66453 0.97641 0.0
N710 N 0.16216 0.68654 1.03179 0.0
N711 N 0.10659 0.69047 0.98957 0.0
H712 H 0.93054 0.80465 0.85819 0.0
H713 H 0.95561 0.71096 0.76262 0.0
H714 H 0.91082 0.68796 0.84293 0.0
H715 H 0.94207 0.83049 0.77327 0.0
H716 H 0.97971 0.70264 0.79409 0.0
H717 H 0.97242 0.81119 0.8314 0.0
C718 C 0.93578 0.78008 0.84955 0.0
C719 C 0.9152 0.74638 0.85213 0.0
C720 C 0.97294 0.731 0.78933 0.0
C721 C 0.96342 0.75361 0.82175 0.0
C722 C 0.95928 0.73586 0.77126 0.0
C723 C 0.94478 0.77118 0.7657 0.0
C724 C 0.97108 0.76142 0.80189 0.0
C725 C 0.95111 0.80238 0.77741 0.0
C726 C 0.96002 0.78378 0.83437 0.0
C727 C 0.92487 0.71495 0.84117 0.0
N728 N 0.96255 0.7966 0.79525 0.0
N729 N 0.94743 0.71965 0.82612 0.0
H730 H 0.85913 0.12914 0.23279 0.0
H731 H 0.93056 0.114 0.31228 0.0
H732 H 0.93523 0.22115 0.2204 0.0
H733 H 0.97692 0.22426 0.3004 0.0
H734 H 0.93971 0.09607 0.27999 0.0
H735 H 0.90374 0.10518 0.25529 0.0
C736 C 0.88598 0.14363 0.23427 0.0
C737 C 0.89242 0.17858 0.22552 0.0
C738 C 0.94838 0.12409 0.28436 0.0
C739 C 0.94364 0.15201 0.25207 0.0
C740 C 0.94385 0.13412 0.30301 0.0
C741 C 0.95079 0.17153 0.30874 0.0
C742 C 0.95845 0.15228 0.27143 0.0
C743 C 0.96913 0.1958 0.29625 0.0
C744 C 0.91181 0.1299 0.24736 0.0
C745 C 0.92818 0.19529 0.22772 0.0
N746 N 0.9711 0.18625 0.278 0.0
N747 N 0.95189 0.18266 0.24128 0.0
H748 H 0.11041 0.16033 0.09385 0.0
H749 H 0.96878 0.21137 1.02202 0.0
H750 H 0.99401 0.18694 0.10624 0.0
H751 H 0.08914 0.20723 1.01277 0.0
H752 H 0.98057 0.23158 0.05394 0.0
H753 H 0.10849 0.20508 0.06832 0.0
C754 C 0.0847 0.17643 0.09164 0.0
C755 C 0.05157 0.16807 0.10153 0.0
C756 C 1.00451 0.22765 0.04478 0.0
C757 C 0.04868 0.21813 0.07158 0.0
C758 C 0.99769 0.21612 1.0265 0.0
C759 C 0.02803 0.20559 1.0151 0.0
C760 C 0.04183 0.22732 0.05169 0.0
C761 C 0.06483 0.21367 1.02132 0.0
C762 C 0.08353 0.20206 0.07688 0.0
C763 C 1.01955 0.19072 0.09818 0.0
N764 N 0.07079 0.2227 1.03945 0.0
N765 N 1.01839 0.21368 0.08303 0.0
H766 H 0.67532 0.08255 0.46337 0.0
H767 H 0.68437 0.07694 0.54757 0.0
H768 H 0.58873 0.16526 0.47455 0.0
H769 H 0.63568 0.18832 0.55304 0.0
H770 H 0.70281 0.09191 0.51614 0.0
H771 H 0.71527 0.11217 0.48687 0.0
C772 C 0.66515 0.10788 0.47024 0.0
C773 C 0.62735 0.1195 0.46832 0.0
C774 C 0.68989 0.11415 0.52428 0.0
C775 C 0.67139 0.15101 0.49608 0.0
C776 C 0.67875 0.10516 0.54227 0.0
C777 C 0.65695 0.13079 0.5525 0.0
C778 C 0.67876 0.14897 0.51636 0.0
C779 C 0.65159 0.16737 0.54533 0.0
C780 C 0.68786 0.12449 0.48392 0.0
C781 C 0.61677 0.15368 0.47677 0.0
N782 N 0.66136 0.17502 0.52743 0.0
N783 N 0.638 0.16738 0.49102 0.0
H784 H 0.21041 0.06063 0.9438 0.0
H785 H 0.21987 0.18138 1.03814 0.0
H786 H 0.14886 0.16426 0.95341 0.0
H787 H 0.29502 0.08734 1.02764 0.0
H788 H 0.19578 0.17602 1.00648 0.0
H789 H 0.24506 0.071 0.97321 0.0
C790 C 0.20508 0.08616 0.95174 0.0
C791 C 0.17679 0.1117 0.94606 0.0
C792 C 0.2177 0.15661 1.01102 0.0
C793 C 0.21533 0.12313 0.97999 0.0
C794 C 0.23169 0.15978 1.02919 0.0
C795 C 0.25977 0.13488 1.0358 0.0
C796 C 0.23148 0.12812 0.99914 0.0
C797 C 0.27304 0.10691 1.0234 0.0
C798 C 0.22448 0.09182 0.96867 0.0
C799 C 0.17042 0.14381 0.9572 0.0
N800 N 0.25873 0.10421 1.00576 0.0
N801 N 0.18913 0.14835 0.97361 0.0
H802 H 0.70057 0.5478 0.2778 0.0
H803 H 0.63423 0.38228 0.20878 0.0
H804 H 0.61134 0.46806 0.28975 0.0
H805 H 0.72364 0.46024 0.19514 0.0
H806 H 0.6206 0.41905 0.23672 0.0
H807 H 0.70608 0.52067 0.24654 0.0
C808 C 0.68213 0.52459 0.27394 0.0
C809 C 0.65556 0.51018 0.28667 0.0
C810 C 0.6428 0.42869 0.22752 0.0
C811 C 0.66142 0.47928 0.25056 0.0
C812 C 0.65034 0.40785 0.21143 0.0
C813 C 0.67991 0.41837 0.19952 0.0
C814 C 0.66543 0.46011 0.23207 0.0
C815 C 0.70021 0.45148 0.20379 0.0
C816 C 0.68512 0.50932 0.25597 0.0
C817 C 0.632 0.48055 0.28053 0.0
N818 N 0.69298 0.47088 0.21986 0.0
N819 N 0.63564 0.46608 0.26305 0.0
H820 H 0.31952 0.84613 0.53657 0.0
H821 H 0.3326 0.97575 0.44494 0.0
H822 H 0.25654 0.95008 0.52972 0.0
H823 H 0.39823 0.87456 0.45419 0.0
H824 H 0.29702 0.96228 0.47359 0.0
H825 H 0.34208 0.85218 0.50467 0.0
C826 C 0.31008 0.8701 0.52836 0.0
C827 C 0.28613 0.89771 0.53608 0.0
C828 C 0.31859 0.94253 0.4691 0.0
C829 C 0.31243 0.90506 0.49921 0.0
C830 C 0.33844 0.94989 0.45256 0.0
C831 C 0.36813 0.926 0.44706 0.0
C832 C 0.3286 0.91107 0.48019 0.0
C833 C 0.37535 0.89355 0.45784 0.0
C834 C 0.32317 0.87363 0.51007 0.0
C835 C 0.2755 0.92838 0.52461 0.0
N836 N 0.35609 0.88727 0.4739 0.0
N837 N 0.28879 0.9313 0.50686 0.0
H838 H 0.80935 0.57612 0.69511 0.0
H839 H 0.93112 0.56799 0.78961 0.0
H840 H 0.91234 0.63852 0.70478 0.0
H841 H 0.83223 0.49853 0.78058 0.0
H842 H 0.92641 0.59026 0.7576 0.0
H843 H 0.81951 0.54257 0.72483 0.0
C844 C 0.83474 0.5818 0.70313 0.0
C845 C 0.86016 0.61001 0.69736 0.0
C846 C 0.90578 0.56999 0.76254 0.0
C847 C 0.87136 0.57272 0.73165 0.0
C848 C 0.90857 0.55703 0.78091 0.0
C849 C 0.88206 0.53118 0.78806 0.0
C850 C 0.87613 0.55733 0.75098 0.0
C851 C 0.85305 0.51886 0.77594 0.0
C852 C 0.84026 0.56306 0.72024 0.0
C853 C 0.89205 0.61692 0.70862 0.0
N854 N 0.8508 0.5321 0.7581 0.0
N855 N 0.8965 0.5988 0.72519 0.0
H856 H 0.87002 0.89738 0.14011 0.0
H857 H 0.78622 0.98245 0.04446 0.0
H858 H 0.87345 1.01511 0.12432 0.0
H859 H 0.78774 0.86245 0.05609 0.0
H860 H 0.81273 0.99443 0.07522 0.0
H861 H 0.83378 0.88358 0.11138 0.0
C862 C 0.86224 0.92041 0.13088 0.0
C863 C 0.87455 0.95747 0.13463 0.0
C864 C 0.80721 0.96541 0.07114 0.0
C865 C 0.83399 0.94195 0.10167 0.0
C866 C 0.7918 0.95852 0.05351 0.0
C867 C 0.78449 0.92132 0.04749 0.0
C868 C 0.81569 0.93499 0.08311 0.0
C869 C 0.79323 0.89159 0.05992 0.0
C870 C 0.84199 0.91251 0.11438 0.0
C871 C 0.86448 0.98614 0.12198 0.0
N872 N 0.80835 0.89904 0.07708 0.0
N873 N 0.84508 0.97779 0.10614 0.0
H874 H 0.408 0.66329 0.87623 0.0
H875 H 0.34002 0.50294 0.80497 0.0
H876 H 0.31677 0.5863 0.88828 0.0
H877 H 0.43477 0.57737 0.79532 0.0
H878 H 0.33397 0.52906 0.83637 0.0
H879 H 0.42242 0.62706 0.8482 0.0
C880 C 0.39162 0.63805 0.87321 0.0
C881 C 0.36129 0.62766 0.88468 0.0
C882 C 0.35625 0.53949 0.82744 0.0
C883 C 0.37677 0.5866 0.85208 0.0
C884 C 0.35955 0.52482 0.80939 0.0
C885 C 0.38778 0.53813 0.79726 0.0
C886 C 0.38124 0.56788 0.83352 0.0
C887 C 0.41272 0.56594 0.80408 0.0
C888 C 0.39966 0.61752 0.85708 0.0
C889 C 0.34075 0.59496 0.87997 0.0
N890 N 0.40868 0.57999 0.82162 0.0
N891 N 0.34848 0.57592 0.86387 0.0
H892 H 0.73809 0.19045 0.55336 0.0
H893 H 0.71345 0.05397 0.64159 0.0
H894 H 0.79274 0.08117 0.55743 0.0
H895 H 0.66881 0.16738 0.63798 0.0
H896 H 0.748 0.06483 0.61237 0.0
H897 H 0.71739 0.18396 0.58541 0.0
C898 C 0.74638 0.16527 0.56095 0.0
C899 C 0.76735 0.13633 0.55228 0.0
C900 C 0.73137 0.08766 0.61822 0.0
C901 C 0.74239 0.12824 0.58942 0.0
C902 C 0.71215 0.08165 0.63508 0.0
C903 C 0.68858 0.10999 0.64239 0.0
C904 C 0.72687 0.12222 0.6086 0.0
C905 C 0.68695 0.14487 0.63296 0.0
C906 C 0.73411 0.16143 0.57935 0.0
C907 C 0.77595 0.10401 0.5631 0.0
N908 N 0.7054 0.14983 0.61656 0.0
N909 N 0.76326 0.10075 0.58095 0.0
H910 H 0.12317 0.40006 0.38135 0.0
H911 H 0.20833 0.53602 0.30257 0.0
H912 H 0.22934 0.45864 0.38788 0.0
H913 H 0.10378 0.47381 0.29704 0.0
H914 H 0.21449 0.51278 0.33456 0.0
H915 H 0.11258 0.43323 0.352 0.0
C916 C 0.14381 0.42079 0.37684 0.0
C917 C 0.17705 0.42678 0.38722 0.0
C918 C 0.19012 0.50438 0.32637 0.0
C919 C 0.16569 0.46419 0.35304 0.0
C920 C 0.18669 0.51738 0.30798 0.0
C921 C 0.15552 0.50681 0.29685 0.0
C922 C 0.16221 0.48053 0.33385 0.0
C923 C 0.12811 0.48319 0.30498 0.0
C924 C 0.13793 0.43947 0.35993 0.0
C925 C 0.20303 0.4536 0.38052 0.0
N926 N 0.1322 0.47083 0.32284 0.0
N927 N 0.19705 0.47093 0.36373 0.0
H928 H 0.70764 0.67708 0.54184 0.0
H929 H 0.70716 0.56763 0.44375 0.0
H930 H 0.78999 0.59151 0.52774 0.0
H931 H 0.62354 0.6496 0.46046 0.0
H932 H 0.74325 0.58158 0.47237 0.0
H933 H 0.6814 0.67234 0.51049 0.0
C934 C 0.72054 0.65752 0.53214 0.0
C935 C 0.75112 0.63458 0.53767 0.0
C936 C 0.71736 0.59702 0.46958 0.0
C937 C 0.72058 0.6286 0.50142 0.0
C938 C 0.69706 0.58943 0.45311 0.0
C939 C 0.66236 0.60758 0.44968 0.0
C940 C 0.70284 0.62299 0.48265 0.0
C941 C 0.65015 0.63493 0.46254 0.0
C942 C 0.70534 0.65467 0.51418 0.0
C943 C 0.76602 0.60935 0.52435 0.0
N944 N 0.6701 0.64153 0.47843 0.0
N945 N 0.75057 0.60694 0.50694 0.0
H946 H 0.2186 1.00534 0.78701 0.0
H947 H 0.1188 0.93113 0.69365 0.0
H948 H 0.09762 0.99736 0.77976 0.0
H949 H 0.23911 0.94769 0.69842 0.0
H950 H 0.11043 0.96061 0.72415 0.0
H951 H 0.22682 0.98706 0.7544 0.0
C952 C 0.1937 0.99956 0.77865 0.0
C953 C 0.15729 1.00288 0.78635 0.0
C954 C 0.13863 0.95875 0.7184 0.0
C955 C 0.16664 0.98246 0.74864 0.0
C956 C 0.14335 0.94243 0.70082 0.0
C957 C 0.17961 0.93762 0.69328 0.0
C958 C 0.1705 0.96988 0.72881 0.0
C959 C 0.21057 0.95162 0.70349 0.0
C960 C 0.19847 0.98949 0.75992 0.0
C961 C 0.12624 0.9957 0.77454 0.0
N962 N 0.20538 0.96658 0.72083 0.0
N963 N 0.13164 0.98575 0.75641 0.0
H964 H 0.82741 0.36403 0.0432 0.0
H965 H 0.8333 0.47344 0.94506 0.0
H966 H 0.74524 0.44902 1.02767 0.0
H967 H 0.91334 0.38806 0.96232 0.0
H968 H 0.79651 0.46109 0.9735 0.0
H969 H 0.85549 0.36921 1.0124 0.0
C970 C 0.81491 0.38357 1.03331 0.0
C971 C 0.78372 0.40611 1.03829 0.0
C972 C 0.8218 0.44463 0.97089 0.0
C973 C 0.81653 0.41265 1.00262 0.0
C974 C 0.84253 0.45135 0.95452 0.0
C975 C 0.87645 0.4317 0.95123 0.0
C976 C 0.83506 0.41804 0.98404 0.0
C977 C 0.88745 0.40397 0.96425 0.0
C978 C 0.83121 0.38668 1.01565 0.0
C979 C 0.76956 0.43141 1.02473 0.0
N980 N 0.8671 0.39823 0.98003 0.0
N981 N 0.78607 0.43406 1.00762 0.0
H982 H 0.28278 0.10124 0.20395 0.0
H983 H 0.43567 0.05978 0.28386 0.0
H984 H 0.39978 0.13315 0.19881 0.0
H985 H 0.32161 1.0162 0.28429 0.0
H986 H 0.42484 0.08375 0.25225 0.0
H987 H 0.29816 0.066 0.23231 0.0
C988 C 0.31202 0.09973 0.20851 0.0
C989 C 0.34018 0.1194 0.1988 0.0
C990 C 0.40227 0.06877 0.25924 0.0
C991 C 0.35792 0.08054 0.23191 0.0
C992 C 0.40844 0.05492 0.27734 0.0
C993 C 0.37944 0.03608 0.28704 0.0
C994 C 0.36678 0.0639 0.25065 0.0
C995 C 0.34466 0.0312 0.27772 0.0
C996 C 0.32076 0.07996 0.22485 0.0
C997 C 0.37741 0.11754 0.20564 0.0
N998 N 0.33933 0.0451 0.26021 0.0
N999 N 0.38515 0.09889 0.2219 0.0
H1000 H 0.34395 0.36963 0.64222 0.0
H1001 H 0.28898 0.46992 0.5462 0.0
H1002 H 0.34022 0.49081 0.63547 0.0
H1003 H 0.27632 0.34988 0.55591 0.0
H1004 H 0.30556 0.47837 0.57902 0.0
H1005 H 0.31405 0.36218 0.61165 0.0
C1006 C 0.33532 0.39472 0.63461 0.0
C1007 C 0.34389 0.43089 0.64158 0.0
C1008 C 0.29892 0.45021 0.574 0.0
C1009 C 0.31157 0.42264 0.60598 0.0
C1010 C 0.28983 0.44524 0.55515 0.0
C1011 C 0.28131 0.40904 0.54806 0.0
C1012 C 0.29977 0.41877 0.58602 0.0
C1013 C 0.28216 0.37841 0.56063 0.0
C1014 C 0.31877 0.39048 0.617 0.0
C1015 C 0.33335 0.46244 0.63082 0.0
N1016 N 0.29144 0.38394 0.57887 0.0
N1017 N 0.31838 0.45759 0.61344 0.0
H1018 H 0.81872 0.02766 0.30005 0.0
H1019 H 0.92291 0.1003 0.39239 0.0
H1020 H 0.94002 0.02894 0.30692 0.0
H1021 H 0.80233 0.08453 0.38893 0.0
H1022 H 0.92979 0.06988 0.36201 0.0
H1023 H 0.81194 0.04665 0.33266 0.0
C1024 C 0.84398 0.03208 0.30834 0.0
C1025 C 0.88005 0.02666 0.30055 0.0
C1026 C 0.90184 0.07215 0.36802 0.0
C1027 C 0.87237 0.04799 0.33821 0.0
C1028 C 0.89798 0.08904 0.38553 0.0
C1029 C 0.86207 0.09441 0.39338 0.0
C1030 C 0.86945 0.06108 0.358 0.0
C1031 C 0.8306 0.08033 0.38358 0.0
C1032 C 0.84004 0.04256 0.32706 0.0
C1033 C 0.91161 0.03222 0.31224 0.0
N1034 N 0.83495 0.06488 0.36629 0.0
N1035 N 0.90703 0.04271 0.33035 0.0
H1036 H 0.1849 0.67223 0.1384 0.0
H1037 H 0.26277 0.56972 0.04698 0.0
H1038 H 0.20281 0.55171 0.1351 0.0
H1039 H 0.25744 0.6912 0.05344 0.0
H1040 H 0.24331 0.56246 0.07944 0.0
H1041 H 0.21626 0.67991 0.10835 0.0
C1042 C 0.19682 0.64751 0.13166 0.0
C1043 C 0.1919 0.61138 0.13946 0.0
C1044 C 0.24662 0.59072 0.07379 0.0
C1045 C 0.22624 0.61965 0.10444 0.0
C1046 C 0.25738 0.59493 0.05514 0.0
C1047 C 0.26171 0.63119 0.04725 0.0
C1048 C 0.23989 0.62295 0.08479 0.0
C1049 C 0.255 0.66267 0.05882 0.0
C1050 C 0.21425 0.65182 0.11434 0.0
C1051 C 0.20677 0.58017 0.12981 0.0
N1052 N 0.2443 0.6578 0.07687 0.0
N1053 N 0.22273 0.58494 0.11269 0.0
H1054 H 0.60115 0.98009 0.80416 0.0
H1055 H 0.76088 0.91303 0.87645 0.0
H1056 H 0.72107 0.99513 0.79594 0.0
H1057 H 0.64211 0.90649 0.88915 0.0
H1058 H 0.7458 0.94684 0.84776 0.0
H1059 H 0.61423 0.95603 0.83561 0.0
C1060 C 0.63021 0.97858 0.80893 0.0
C1061 C 0.66004 0.98944 0.79713 0.0
C1062 C 0.72288 0.93862 0.85685 0.0
C1063 C 0.67519 0.96167 0.83328 0.0
C1064 C 0.73155 0.91951 0.87334 0.0
C1065 C 0.70274 0.90727 0.88529 0.0
C1066 C 0.68492 0.94508 0.85191 0.0
C1067 C 0.66518 0.916 0.88046 0.0
C1068 C 0.63763 0.96474 0.82693 0.0
C1069 C 0.69708 0.98641 0.8042 0.0
N1070 N 0.65729 0.93397 0.86401 0.0
N1071 N 0.70351 0.97279 0.82167 0.0
H1072 H 0.42655 0.24594 0.13344 0.0
H1073 H 0.62382 0.26353 0.18675 0.0
H1074 H 0.43377 0.23502 0.19315 0.0
H1075 H 0.59932 0.32704 0.13683 0.0
H1076 H 0.55741 0.24304 0.18774 0.0
H1077 H 0.49289 0.26588 0.13284 0.0
C1078 C 0.44211 0.24752 0.14644 0.0
C1079 C 0.42441 0.2388 0.16339 0.0
C1080 C 0.56665 0.26141 0.17657 0.0
C1081 C 0.5008 0.26122 0.16271 0.0
C1082 C 0.6046 0.27294 0.17591 0.0
C1083 C 0.61728 0.29704 0.16165 0.0
C1084 C 0.54129 0.27331 0.16264 0.0
C1085 C 0.59088 0.30856 0.1481 0.0
C1086 C 0.47996 0.25911 0.14607 0.0
C1087 C 0.44613 0.24165 0.17978 0.0
N1088 N 0.55432 0.29635 0.14883 0.0
N1089 N 0.48324 0.25229 0.17902 0.0
H1090 H 0.5643 0.68045 0.38033 0.0
H1091 H 0.51247 0.86357 0.43709 0.0
H1092 H 0.5214 0.66984 0.43616 0.0
H1093 H 0.47178 0.85229 0.38071 0.0
H1094 H 0.52987 0.79606 0.43697 0.0
H1095 H 0.54381 0.74716 0.37993 0.0
C1096 C 0.55051 0.69216 0.39248 0.0
C1097 C 0.5443 0.66955 0.40827 0.0
C1098 C 0.51722 0.80849 0.42463 0.0
C1099 C 0.52199 0.74593 0.40807 0.0
C1100 C 0.50756 0.84698 0.42462 0.0
C1101 C 0.49074 0.86357 0.40886 0.0
C1102 C 0.51114 0.78665 0.40857 0.0
C1103 C 0.48463 0.8406 0.39315 0.0
C1104 C 0.53879 0.7301 0.39221 0.0
C1105 C 0.52637 0.68618 0.42365 0.0
N1106 N 0.49527 0.80342 0.39331 0.0
N1107 N 0.51635 0.72352 0.42329 0.0
H1108 H 0.9183 0.76981 0.68463 0.0
H1109 H 0.10535 0.81104 0.62823 0.0
H1110 H 0.933 0.71843 0.63066 0.0
H1111 H 0.1082 0.78456 0.68684 0.0
H1112 H 0.03854 0.79071 0.62717 0.0
H1113 H 0.98452 0.79031 0.68402 0.0
C1114 C 0.93531 0.76327 0.67254 0.0
C1115 C 0.92014 0.74233 0.65767 0.0
C1116 C 0.05403 0.78928 0.64019 0.0
C1117 C 0.9957 0.76623 0.65682 0.0
C1118 C 0.09198 0.80087 0.64082 0.0
C1119 C 0.1124 0.7991 0.6576 0.0
C1120 C 0.0362 0.77718 0.65659 0.0
C1121 C 0.09369 0.7859 0.67355 0.0
C1122 C 0.9731 0.77478 0.67227 0.0
C1123 C 0.94366 0.7344 0.64243 0.0
N1124 N 0.05658 0.77591 0.6727 0.0
N1125 N 0.98026 0.74662 0.64231 0.0
H1126 H 1.02022 0.36793 0.9346 0.0
H1127 H 0.06767 0.18432 0.87736 0.0
H1128 H 0.97079 0.3569 0.87991 0.0
H1129 H 0.02538 0.17533 0.93339 0.0
H1130 H 0.04783 0.25152 0.87684 0.0
H1131 H 0.0389 0.30089 0.93343 0.0
C1132 C 1.01367 0.35151 0.92226 0.0
C1133 C 0.99387 0.368 0.90733 0.0
C1134 C 0.04286 0.2346 0.88917 0.0
C1135 C 1.01595 0.29161 0.90578 0.0
C1136 C 0.05421 0.19642 0.8895 0.0
C1137 C 0.0479 0.17412 0.90539 0.0
C1138 C 0.02647 0.25082 0.90507 0.0
C1139 C 0.03046 0.19131 0.92078 0.0
C1140 C 0.02417 0.3133 0.92166 0.0
C1141 C 0.98586 0.34523 0.89174 0.0
N1142 N 1.02089 0.22868 0.92035 0.0
N1143 N 0.99729 0.30825 0.89126 0.0
H1144 H 0.61051 0.79552 0.8946 0.0
H1145 H 0.43577 0.71406 0.95123 0.0
H1146 H 0.61183 0.79088 0.95458 0.0
H1147 H 0.41972 0.77748 0.90048 0.0
H1148 H 0.50283 0.73243 0.95131 0.0
H1149 H 0.54291 0.77915 0.89492 0.0
C1150 C 0.59666 0.79088 0.90782 0.0
C1151 C 0.61692 0.79463 0.92459 0.0
C1152 C 0.48454 0.74242 0.94021 0.0
C1153 C 0.53972 0.77534 0.92502 0.0
C1154 C 0.44631 0.7319 0.94013 0.0
C1155 C 0.42198 0.74443 0.92589 0.0
C1156 C 0.4989 0.76477 0.92567 0.0
C1157 C 0.43731 0.76746 0.91183 0.0
C1158 C 0.55807 0.78176 0.90799 0.0
C1159 C 0.59735 0.7885 0.94132 0.0
N1160 N 0.47481 0.77653 0.91196 0.0
N1161 N 0.56001 0.7788 0.94111 0.0
H1162 H 0.47324 0.35274 0.70568 0.0
H1163 H 0.51387 0.16199 0.65109 0.0
H1164 H 0.49414 0.3505 0.64658 0.0
H1165 H 0.56601 0.17988 0.70478 0.0
H1166 H 0.49179 0.22768 0.65131 0.0
H1167 H 0.49407 0.28602 0.70762 0.0
C1168 C 0.48221 0.33827 0.69316 0.0
C1169 C 0.48222 0.35726 0.67597 0.0
C1170 C 0.50781 0.2171 0.6631 0.0
C1171 C 0.50488 0.28114 0.67803 0.0
C1172 C 0.5202 0.17953 0.66308 0.0
C1173 C 0.54187 0.16535 0.67796 0.0
C1174 C 0.51631 0.24062 0.67829 0.0
C1175 C 0.54949 0.18969 0.69301 0.0
C1176 C 0.49413 0.30036 0.69429 0.0
C1177 C 0.49404 0.33714 0.66016 0.0
N1178 N 0.53653 0.22616 0.69286 0.0
N1179 N 0.50445 0.30015 0.66153 0.0
H1180 H 0.12394 0.26419 0.4027 0.0
H1181 H 0.93636 0.2233 0.45838 0.0
H1182 H 0.10804 0.3205 0.45539 0.0
H1183 H 0.93529 0.24759 0.39953 0.0
H1184 H 1.00278 0.24517 0.45986 0.0
H1185 H 0.05822 0.24282 0.40362 0.0
C1186 C 0.10679 0.27167 0.4146 0.0
C1187 C 0.12156 0.29421 0.42901 0.0
C1188 C 0.98773 0.24578 0.44671 0.0
C1189 C 0.0463 0.26922 0.43021 0.0
C1190 C 0.95003 0.23324 0.44583 0.0
C1191 C 0.93021 0.23389 0.42884 0.0
C1192 C 1.0059 0.25772 0.43036 0.0
C1193 C 0.94929 0.24697 0.41297 0.0
C1194 C 0.06922 0.25961 0.41504 0.0
C1195 C 0.09772 0.30326 0.44399 0.0
N1196 N 0.98609 0.25786 0.41407 0.0
N1197 N 0.06125 0.29048 0.4443 0.0
H1198 H 0.07611 0.6916 0.20148 0.0
H1199 H 0.9913 0.86466 0.14361 0.0
H1200 H 1.02203 0.67681 0.14803 0.0
H1201 H 0.99273 0.86563 0.20364 0.0
H1202 H 1.01089 0.79798 0.14418 0.0
H1203 H 0.05373 0.7577 0.20195 0.0
C1204 C 0.05943 0.70214 0.18991 0.0
C1205 C 0.05079 0.67847 0.17475 0.0
C1206 C 1.00682 0.81279 0.15723 0.0
C1207 C 0.02586 0.7542 0.17502 0.0
C1208 C 0.99579 0.8509 0.15691 0.0
C1209 C 0.99026 0.87083 0.1736 0.0
C1210 C 1.01327 0.79453 0.17434 0.0
C1211 C 0.9964 0.85135 0.19044 0.0
C1212 C 0.04663 0.73981 0.1902 0.0
C1213 C 0.02913 0.69379 0.1601 0.0
N1214 N 1.00791 0.81444 0.19039 0.0
N1215 N 1.0178 0.73066 0.16051 0.0
H1216 H 0.21268 0.27346 0.12684 0.0
H1217 H 0.17649 0.45998 0.18253 0.0
H1218 H 0.304 0.33624 0.15235 0.0
H1219 H 0.13069 0.45727 0.12677 0.0
H1220 H 0.21253 0.40249 0.17572 0.0
H1221 H 0.17228 0.33058 0.12941 0.0
C1222 C 0.22445 0.29923 0.13265 0.0
C1223 C 0.26174 0.29984 0.13955 0.0
C1224 C 0.19435 0.4144 0.16504 0.0
C1225 C 0.21561 0.36421 0.14303 0.0
C1226 C 0.17362 0.44708 0.16891 0.0
C1227 C 0.15065 0.46365 0.15516 0.0
C1228 C 0.19158 0.39745 0.14742 0.0
C1229 C 0.1483 0.44558 0.13771 0.0
C1230 C 0.20138 0.33164 0.13417 0.0
C1231 C 0.27538 0.33408 0.14703 0.0
N1232 N 0.16842 0.41324 0.13433 0.0
N1233 N 0.2522 0.36446 0.1489 0.0
H1234 H 0.30687 0.42369 0.37669 0.0
H1235 H 0.5278 0.43535 0.3963 0.0
H1236 H 0.36182 0.37528 0.42487 0.0
H1237 H 0.46996 0.53569 0.37712 0.0
H1238 H 0.46764 0.40168 0.39701 0.0
H1239 H 0.36688 0.45532 0.36845 0.0
C1240 C 0.33158 0.41948 0.38542 0.0
C1241 C 0.32943 0.39684 0.4015 0.0
C1242 C 0.46819 0.43075 0.39216 0.0
C1243 C 0.39778 0.43195 0.39191 0.0
C1244 C 0.50255 0.44989 0.3915 0.0
C1245 C 0.5039 0.4884 0.38663 0.0
C1246 C 0.4347 0.44998 0.38772 0.0
C1247 C 0.4702 0.50591 0.38075 0.0
C1248 C 0.3656 0.43762 0.38075 0.0
C1249 C 0.36214 0.39257 0.41242 0.0
N1250 N 0.43667 0.48665 0.38168 0.0
N1251 N 0.39496 0.40963 0.40733 0.0
H1252 H 0.26739 0.73168 0.63048 0.0
H1253 H 0.4186 0.60201 0.6846 0.0
H1254 H 0.32434 0.76169 0.68161 0.0
H1255 H 0.36793 0.56699 0.63263 0.0
H1256 H 0.38714 0.66297 0.68173 0.0
H1257 H 0.30669 0.67382 0.62884 0.0
C1258 C 0.28843 0.72642 0.64118 0.0
C1259 C 0.29219 0.75129 0.65634 0.0
C1260 C 0.38292 0.64218 0.67084 0.0
C1261 C 0.33695 0.6855 0.65461 0.0
C1262 C 0.40095 0.60719 0.6725 0.0
C1263 C 0.39577 0.57912 0.65892 0.0
C1264 C 0.35898 0.64941 0.65556 0.0
C1265 C 0.37274 0.58781 0.64345 0.0
C1266 C 0.3107 0.69336 0.64029 0.0
C1267 C 0.31988 0.74307 0.66983 0.0
N1268 N 0.35487 0.62206 0.64227 0.0
N1269 N 0.34085 0.71099 0.66869 0.0
H1270 H 0.06916 0.50555 0.87778 0.0
H1271 H 0.17983 0.6621 0.93079 0.0
H1272 H 1.0129 0.60238 0.90157 0.0
H1273 H 0.22663 0.62697 0.87818 0.0
H1274 H 0.12046 0.6308 0.92253 0.0
H1275 H 0.12917 0.54161 0.87823 0.0
C1276 C 0.06907 0.53484 0.88229 0.0
C1277 C 0.03604 0.5511 0.8896 0.0
C1278 C 0.14371 0.62994 0.91279 0.0
C1279 C 0.10426 0.59138 0.891 0.0
C1280 C 0.17767 0.6476 0.91753 0.0
C1281 C 0.20814 0.64723 0.90512 0.0
C1282 C 0.14031 0.61076 0.89573 0.0
C1283 C 0.20362 0.62809 0.88807 0.0
C1284 C 0.10333 0.55518 0.88279 0.0
C1285 C 0.03772 0.58881 0.8958 0.0
N1286 N 0.17041 0.61013 0.88393 0.0
N1287 N 0.07131 0.60727 0.89679 0.0
H1288 H 0.74937 0.70448 0.96275 0.0
H1289 H 0.91111 0.61268 0.90459 0.0
H1290 H 0.83466 0.77532 0.93795 0.0
H1291 H 0.8793 0.56128 0.95669 0.0
H1292 H 0.8771 0.67054 0.91368 0.0
H1293 H 0.79108 0.6493 0.95871 0.0
C1294 C 0.77732 0.70852 0.95695 0.0
C1295 C 0.78891 0.74454 0.951 0.0
C1296 C 0.87783 0.64664 0.92314 0.0
C1297 C 0.83569 0.68148 0.9454 0.0
C1298 C 0.89694 0.61358 0.91793 0.0
C1299 C 0.89799 0.58216 0.92992 0.0
C1300 C 0.8587 0.6479 0.94022 0.0
C1301 C 0.87931 0.58494 0.94709 0.0
C1302 C 0.80093 0.67708 0.95453 0.0
C1303 C 0.82499 0.74816 0.94307 0.0
N1304 N 0.85993 0.61702 0.95162 0.0
N1305 N 0.84679 0.71688 0.94013 0.0
H1306 H 0.70411 0.64456 0.70517 0.0
H1307 H 0.56457 0.50342 0.65169 0.0
H1308 H 0.70219 0.62381 0.64593 0.0
H1309 H 0.53038 0.5518 0.70415 0.0
H1310 H 0.62273 0.53935 0.65312 0.0
H1311 H 0.64661 0.60507 0.70822 0.0
C1312 C 0.6917 0.63189 0.69285 0.0
C1313 C 0.70816 0.63764 0.67525 0.0
C1314 C 0.6027 0.54229 0.6644 0.0
C1315 C 0.64319 0.59225 0.67873 0.0
C1316 C 0.56936 0.52163 0.66362 0.0
C1317 C 0.54212 0.52508 0.67766 0.0
C1318 C 0.60938 0.56707 0.6793 0.0
C1319 C 0.55055 0.5485 0.69298 0.0
C1320 C 0.65894 0.60945 0.69462 0.0
C1321 C 0.6908 0.6205 0.6598 0.0
N1322 N 0.58343 0.56905 0.69333 0.0
N1323 N 0.65966 0.59863 0.66194 0.0
H1324 H 0.78841 0.31345 0.4044 0.0
H1325 H 0.62713 0.44207 0.45079 0.0
H1326 H 0.72875 0.27563 0.45322 0.0
H1327 H 0.68015 0.46183 0.39766 0.0
H1328 H 0.66694 0.38501 0.45475 0.0
H1329 H 0.7533 0.37229 0.40503 0.0
C1330 C 0.76788 0.31766 0.41538 0.0
C1331 C 0.76122 0.2893 0.42864 0.0
C1332 C 0.66978 0.40203 0.44229 0.0
C1333 C 0.71993 0.3573 0.42933 0.0
C1334 C 0.64716 0.43461 0.44003 0.0
C1335 C 0.65004 0.45677 0.42379 0.0
C1336 C 0.69568 0.39196 0.42832 0.0
C1337 C 0.67647 0.44567 0.41033 0.0
C1338 C 0.74767 0.35141 0.41571 0.0
C1339 C 0.7347 0.29677 0.44271 0.0
N1340 N 0.69804 0.41431 0.41292 0.0
N1341 N 0.7146 0.32999 0.44258 0.0
H1342 H 0.85058 0.38972 0.14342 0.0
H1343 H 0.98698 0.52261 0.20276 0.0
H1344 H 0.82835 0.40897 0.20168 0.0
H1345 H 1.01842 0.46475 0.15224 0.0
H1346 H 0.92842 0.48423 0.20372 0.0
H1347 H 0.91093 0.42163 0.1468 0.0
C1348 C 0.85835 0.40077 0.15698 0.0
C1349 C 0.83421 0.39671 0.17227 0.0
C1350 C 0.94854 0.47975 0.19261 0.0
C1351 C 0.90399 0.43369 0.1763 0.0
C1352 C 0.98195 0.50146 0.19211 0.0
C1353 C 1.00728 0.49733 0.17722 0.0
C1354 C 0.94071 0.45407 0.17809 0.0
C1355 C 0.99938 0.46956 0.16377 0.0
C1356 C 0.89308 0.41885 0.15894 0.0
C1357 C 0.84619 0.41143 0.18953 0.0
N1358 N 0.96681 0.44944 0.16443 0.0
N1359 N 0.88018 0.42963 0.19107 0.0
H1360 H 0.69161 0.76021 0.66114 0.0
H1361 H 0.68067 0.97876 0.63167 0.0
H1362 H 0.78222 0.81348 0.63094 0.0
H1363 H 0.62025 0.92792 0.67735 0.0
H1364 H 0.71019 0.91682 0.62516 0.0
H1365 H 0.65576 0.81915 0.65979 0.0
C1366 C 0.7035 0.78417 0.65375 0.0
C1367 C 0.73993 0.78206 0.64618 0.0
C1368 C 0.69028 0.91934 0.63651 0.0
C1369 C 0.69945 0.85022 0.64507 0.0
C1370 C 0.6734 0.95456 0.64022 0.0
C1371 C 0.64818 0.95853 0.65518 0.0
C1372 C 0.68115 0.88786 0.64759 0.0
C1373 C 0.63981 0.92632 0.66582 0.0
C1374 C 0.68319 0.81794 0.65315 0.0
C1375 C 0.75408 0.81394 0.63681 0.0
N1376 N 0.65614 0.89248 0.66179 0.0
N1377 N 0.734 0.84707 0.63676 0.0
H1378 H 0.87107 0.8339 0.90864 0.0
H1379 H 0.96473 0.03754 0.89018 0.0
H1380 H 0.81286 0.94007 0.91696 0.0
H1381 H 0.03015 0.93974 0.90615 0.0
H1382 H 0.90709 0.99851 0.89097 0.0
H1383 H 0.92804 0.86932 0.89964 0.0
C1384 C 0.87021 0.86459 0.90854 0.0
C1385 C 0.83732 0.88404 0.9139 0.0
C1386 C 0.93421 0.98538 0.89382 0.0
C1387 C 0.90198 0.92458 0.90315 0.0
C1388 C 0.96708 1.0075 0.89308 0.0
C1389 C 1.00212 0.99159 0.89783 0.0
C1390 C 0.93659 0.94712 0.89924 0.0
C1391 C 1.0036 0.95281 0.90214 0.0
C1392 C 0.90267 0.88474 0.90337 0.0
C1393 C 0.83775 0.92386 0.91329 0.0
N1394 N 0.97129 0.9319 0.90284 0.0
N1395 N 0.86949 0.94276 0.90802 0.0
H1396 H 0.84351 0.06764 0.17095 0.0
H1397 H 0.7442 0.2192 0.13565 0.0
H1398 H 0.9443 0.11909 0.14851 0.0
H1399 H 0.84987 0.2786 0.14194 0.0
H1400 H 0.77852 0.15882 0.13764 0.0
H1401 H 0.80666 0.1214 0.16001 0.0
C1402 C 0.85797 0.09016 0.16362 0.0
C1403 C 0.89725 0.08875 0.16075 0.0
C1404 C 0.79432 0.18505 0.13833 0.0
C1405 C 0.85457 0.1504 0.14754 0.0
C1406 C 0.77478 0.21948 0.13667 0.0
C1407 C 0.79431 0.2538 0.13853 0.0
C1408 C 0.83354 0.18519 0.142 0.0
C1409 C 0.83388 0.25262 0.14033 0.0
C1410 C 0.83664 0.1207 0.15706 0.0
C1411 C 0.91415 0.11895 0.15111 0.0
N1412 N 0.85216 0.21892 0.14224 0.0
N1413 N 0.89277 0.14873 0.14504 0.0
H1414 H 0.5718 1.00059 0.38002 0.0
H1415 H 0.68449 0.16468 0.43031 0.0
H1416 H 0.51721 0.09636 0.40573 0.0
H1417 H 0.73347 0.10939 0.38257 0.0
H1418 H 0.62385 0.13474 0.42301 0.0
H1419 H 0.63229 0.0357 0.381 0.0
C1420 C 0.57222 0.02943 0.38517 0.0
C1421 C 0.53943 0.04566 0.39272 0.0
C1422 C 0.64782 0.12925 0.41407 0.0
C1423 C 0.60832 0.08502 0.39468 0.0
C1424 C 0.68251 0.14623 0.41829 0.0
C1425 C 0.71412 0.1397 0.407 0.0
C1426 C 0.64476 0.1046 0.39874 0.0
C1427 C 0.70977 0.11541 0.39159 0.0
C1428 C 0.60677 0.04925 0.38598 0.0
C1429 C 0.54182 0.08277 0.39975 0.0
N1430 N 0.67586 0.09835 0.38802 0.0
N1431 N 0.57562 0.10082 0.40087 0.0
H1432 H 0.34741 0.2763 0.41515 0.0
H1433 H 0.37598 0.06549 0.45351 0.0
H1434 H 0.26792 0.22817 0.45386 0.0
H1435 H 0.41337 0.10592 0.39999 0.0
H1436 H 0.34606 0.12766 0.45918 0.0
H1437 H 0.38378 0.2177 0.416 0.0
C1438 C 0.33808 0.25357 0.42419 0.0
C1439 C 0.30443 0.25695 0.43432 0.0
C1440 C 0.36096 0.12276 0.44627 0.0
C1441 C 0.34566 0.18921 0.43505 0.0
C1442 C 0.37805 0.08744 0.44302 0.0
C1443 C 0.39699 0.08045 0.42619 0.0
C1444 C 0.36375 0.15143 0.43277 0.0
C1445 C 0.39878 0.10982 0.41307 0.0
C1446 C 0.35871 0.22 0.42454 0.0
C1447 C 0.2938 0.22669 0.44589 0.0
N1448 N 0.38259 0.14392 0.41668 0.0
N1449 N 0.31412 0.1937 0.44575 0.0
H1450 H 1.01091 0.09229 0.19836 0.0
H1451 H 0.22119 0.09755 0.16023 0.0
H1452 H 0.08474 0.99504 0.1964 0.0
H1453 H 0.17296 0.19796 0.18501 0.0
H1454 H 0.16648 0.06142 0.1703 0.0
H1455 H 0.06583 0.13344 0.192 0.0
C1456 C 0.03873 0.07969 0.19714 0.0
C1457 C 0.04324 0.0401 0.19789 0.0
C1458 C 0.16777 0.09136 0.17358 0.0
C1459 C 0.10558 0.08671 0.19001 0.0
C1460 C 0.19898 0.11219 0.16768 0.0
C1461 C 0.2019 0.15102 0.17172 0.0
C1462 C 0.13868 0.10924 0.18352 0.0
C1463 C 0.17197 0.16811 0.18154 0.0
C1464 C 0.06995 0.10314 0.19333 0.0
C1465 C 0.07988 0.02533 0.19588 0.0
N1466 N 0.14148 0.14715 0.18705 0.0
N1467 N 0.10935 0.04847 0.19178 0.0
H1468 H 0.11991 0.92949 0.90624 0.0
H1469 H 0.28337 0.82065 0.95662 0.0
H1470 H 0.16806 0.9798 0.95567 0.0
H1471 H 0.1869 0.76357 0.93278 0.0
H1472 H 0.24678 0.88038 0.9565 0.0
H1473 H 0.15073 0.86961 0.91416 0.0
C1474 C 0.13695 0.9279 0.91879 0.0
C1475 C 0.14132 0.95961 0.93035 0.0
C1476 C 0.23342 0.85445 0.95182 0.0
C1477 C 0.17708 0.89112 0.93942 0.0
C1478 C 0.25409 0.82034 0.95212 0.0
C1479 C 0.23808 0.7872 0.9447 0.0
C1480 C 0.19707 0.85511 0.94374 0.0
C1481 C 0.20032 0.78854 0.93858 0.0
C1482 C 0.15434 0.89365 0.92338 0.0
C1483 C 0.16375 0.95586 0.94648 0.0
N1484 N 0.18146 0.82198 0.93786 0.0
N1485 N 0.18126 0.9223 0.95045 0.0
H1486 H 0.31587 0.91809 0.70384 0.0
H1487 H 0.51888 0.95279 0.65762 0.0
H1488 H 0.35423 0.86937 0.65217 0.0
H1489 H 0.4806 1.0186 0.70445 0.0
H1490 H 0.46188 0.9146 0.65933 0.0
H1491 H 0.37812 0.94862 0.70767 0.0
C1492 C 0.33744 0.91347 0.69342 0.0
C1493 C 0.32969 0.89134 0.67757 0.0
C1494 C 0.4658 0.93714 0.66938 0.0
C1495 C 0.40078 0.92592 0.68192 0.0
C1496 C 0.49851 0.95892 0.66845 0.0
C1497 C 0.50429 0.98915 0.68079 0.0
C1498 C 0.43803 0.94572 0.68264 0.0
C1499 C 0.47716 0.9955 0.69468 0.0
C1500 C 0.37287 0.93099 0.69559 0.0
C1501 C 0.35864 0.88646 0.66451 0.0
N1502 N 0.44481 0.97426 0.69508 0.0
N1503 N 0.39266 0.90359 0.66697 0.0
loop_
_geom_bond_atom_site_label_1
_geom_bond_atom_site_label_2
_geom_bond_distance
_geom_bond_site_symmetry_2
_ccdc_geom_bond_type
Eu0 C9 2.828 . S
Eu0 O11 2.392 . S
Eu0 O13 2.418 . S
Eu0 O18 2.373 . S
Eu0 O21 2.488 . S
Eu0 O22 2.471 . S
Eu0 O23 2.349 . S
Eu1 O10 2.373 . S
Eu1 O14 2.488 . S
Eu1 O15 2.471 . S
Eu1 O16 2.349 . S
Eu1 O19 2.392 . S
Eu1 O20 2.418 . S
Eu1 C30 2.828 . S
C2 O20 1.244 . S
C2 O23 1.265 . S
C3 C4 1.379 . S
C3 C7 1.373 . S
C3 C9 1.505 . S
C4 C3 1.379 . S
C4 C6 1.369 . S
C4 H32 0.930 . S
C5 C7 1.383 . S
C5 C8 1.382 . S
C5 H33 0.930 . S
C6 C4 1.369 . S
C6 C8 1.392 . S
C6 H34 0.930 . S
C7 C3 1.373 . S
C7 C5 1.383 . S
C7 H35 0.931 . S
C8 C5 1.382 . S
C8 C6 1.392 . S
C9 Eu0 2.828 . S
C9 C3 1.505 . S
C9 O21 1.249 . S
C9 O22 1.244 . S
O10 Eu1 2.373 . S
O10 C12 1.258 . S
O11 Eu0 2.392 . S
O11 C12 1.242 . S
C12 O10 1.258 . S
C12 O11 1.242 . S
O13 Eu0 2.418 . S
O13 C17 1.244 . S
O14 Eu1 2.488 . S
O14 C30 1.249 . S
O15 Eu1 2.471 . S
O15 C30 1.244 . S
O16 Eu1 2.349 . S
O16 C17 1.265 . S
C17 O13 1.244 . S
C17 O16 1.265 . S
O18 Eu0 2.373 . S
O18 C31 1.258 . S
O19 Eu1 2.392 . S
O19 C31 1.242 . S
O20 Eu1 2.418 . S
O20 C2 1.244 . S
O21 Eu0 2.488 . S
O21 C9 1.249 . S
O22 Eu0 2.471 . S
O22 C9 1.244 . S
O23 Eu0 2.349 . S
O23 C2 1.265 . S
C24 C25 1.379 . S
C24 C28 1.373 . S
C24 C30 1.505 . S
C25 C24 1.379 . S
C25 C27 1.369 . S
C25 H36 0.930 . S
C26 C28 1.383 . S
C26 C29 1.382 . S
C26 H37 0.930 1_545 S
C27 C25 1.369 . S
C27 C29 1.392 . S
C27 H38 0.930 . S
C28 C24 1.373 . S
C28 C26 1.383 . S
C28 H39 0.931 . S
C29 C26 1.382 . S
C29 C27 1.392 . S
C30 Eu1 2.828 . S
C30 O14 1.249 . S
C30 O15 1.244 . S
C30 C24 1.505 . S
C31 O18 1.258 . S
C31 O19 1.242 . S
H32 C4 0.930 . S
H33 C5 0.930 . S
H34 C6 0.930 . S
H35 C7 0.931 . S
H36 C25 0.930 . S
H37 C26 0.930 1_565 S
H38 C27 0.930 . S
H39 C28 0.931 . S
Eu40 C49 2.828 . S
Eu40 O51 2.392 . S
Eu40 O53 2.418 . S
Eu40 O58 2.373 . S
Eu40 O61 2.488 . S
Eu40 O62 2.471 . S
Eu40 O63 2.349 . S
Eu41 O50 2.373 . S
Eu41 O54 2.488 . S
Eu41 O55 2.471 . S
Eu41 O56 2.349 . S
Eu41 O59 2.392 . S
Eu41 O60 2.418 . S
Eu41 C70 2.828 . S
C42 O60 1.244 . S
C42 O63 1.265 . S
C43 C44 1.379 . S
C43 C47 1.373 . S
C43 C49 1.505 . S
C44 C43 1.379 . S
C44 C46 1.369 . S
C44 H72 0.930 . S
C45 C47 1.383 . S
C45 C48 1.382 . S
C45 H73 0.930 . S
C46 C44 1.369 . S
C46 C48 1.392 . S
C46 H74 0.930 . S
C47 C43 1.373 . S
C47 C45 1.383 . S
C47 H75 0.931 . S
C48 C45 1.382 . S
C48 C46 1.392 . S
C49 Eu40 2.828 . S
C49 C43 1.505 . S
C49 O61 1.249 . S
C49 O62 1.244 . S
O50 Eu41 2.373 . S
O50 C52 1.258 . S
O51 Eu40 2.392 . S
O51 C52 1.242 . S
C52 O50 1.258 . S
C52 O51 1.242 . S
O53 Eu40 2.418 . S
O53 C57 1.244 . S
O54 Eu41 2.488 . S
O54 C70 1.249 . S
O55 Eu41 2.471 . S
O55 C70 1.244 . S
O56 Eu41 2.349 . S
O56 C57 1.265 . S
C57 O53 1.244 . S
C57 O56 1.265 . S
O58 Eu40 2.373 . S
O58 C71 1.258 . S
O59 Eu41 2.392 . S
O59 C71 1.242 . S
O60 Eu41 2.418 . S
O60 C42 1.244 . S
O61 Eu40 2.488 . S
O61 C49 1.249 . S
O62 Eu40 2.471 . S
O62 C49 1.244 . S
O63 Eu40 2.349 . S
O63 C42 1.265 . S
C64 C65 1.379 . S
C64 C68 1.373 . S
C64 C70 1.505 . S
C65 C64 1.379 . S
C65 C67 1.369 . S
C65 H76 0.930 . S
C66 C68 1.383 . S
C66 C69 1.382 . S
C66 H77 0.930 . S
C67 C65 1.369 . S
C67 C69 1.392 . S
C67 H78 0.930 . S
C68 C64 1.373 . S
C68 C66 1.383 . S
C68 H79 0.931 . S
C69 C66 1.382 . S
C69 C67 1.392 . S
C70 Eu41 2.828 . S
C70 O54 1.249 . S
C70 O55 1.244 . S
C70 C64 1.505 . S
C71 O58 1.258 . S
C71 O59 1.242 . S
H72 C44 0.930 . S
H73 C45 0.930 . S
H74 C46 0.930 . S
H75 C47 0.931 . S
H76 C65 0.930 . S
H77 C66 0.930 . S
H78 C67 0.930 . S
H79 C68 0.931 . S
Eu80 C89 2.828 . S
Eu80 O91 2.392 . S
Eu80 O93 2.418 . S
Eu80 O98 2.373 . S
Eu80 O101 2.488 . S
Eu80 O102 2.471 . S
Eu80 O103 2.349 . S
Eu81 O90 2.373 . S
Eu81 O94 2.488 . S
Eu81 O95 2.471 . S
Eu81 O96 2.349 . S
Eu81 O99 2.392 . S
Eu81 O100 2.418 . S
Eu81 C110 2.828 . S
C82 O100 1.244 . S
C82 O103 1.265 . S
C83 C84 1.379 . S
C83 C87 1.373 . S
C83 C89 1.505 . S
C84 C83 1.379 . S
C84 C86 1.369 . S
C84 H112 0.930 . S
C85 C87 1.383 . S
C85 C88 1.382 . S
C85 H113 0.930 . S
C86 C84 1.369 . S
C86 C88 1.392 . S
C86 H114 0.930 . S
C87 C83 1.373 . S
C87 C85 1.383 . S
C87 H115 0.931 . S
C88 C85 1.382 . S
C88 C86 1.392 . S
C89 Eu80 2.828 . S
C89 C83 1.505 . S
C89 O101 1.249 . S
C89 O102 1.244 . S
O90 Eu81 2.373 . S
O90 C92 1.258 . S
O91 Eu80 2.392 . S
O91 C92 1.242 . S
C92 O90 1.258 . S
C92 O91 1.242 . S
O93 Eu80 2.418 . S
O93 C97 1.244 . S
O94 Eu81 2.488 . S
O94 C110 1.249 . S
O95 Eu81 2.471 . S
O95 C110 1.244 . S
O96 Eu81 2.349 . S
O96 C97 1.265 . S
C97 O93 1.244 . S
C97 O96 1.265 . S
O98 Eu80 2.373 . S
O98 C111 1.258 . S
O99 Eu81 2.392 . S
O99 C111 1.242 . S
O100 Eu81 2.418 . S
O100 C82 1.244 . S
O101 Eu80 2.488 . S
O101 C89 1.249 . S
O102 Eu80 2.471 . S
O102 C89 1.244 . S
O103 Eu80 2.349 . S
O103 C82 1.265 . S
C104 C105 1.379 . S
C104 C108 1.373 . S
C104 C110 1.505 . S
C105 C104 1.379 . S
C105 C107 1.369 . S
C105 H116 0.930 . S
C106 C108 1.383 . S
C106 C109 1.382 . S
C106 H117 0.930 1_565 S
C107 C105 1.369 . S
C107 C109 1.392 . S
C107 H118 0.930 . S
C108 C104 1.373 . S
C108 C106 1.383 . S
C108 H119 0.931 . S
C109 C106 1.382 . S
C109 C107 1.392 . S
C110 Eu81 2.828 . S
C110 O94 1.249 . S
C110 O95 1.244 . S
C110 C104 1.505 . S
C111 O98 1.258 . S
C111 O99 1.242 . S
H112 C84 0.930 . S
H113 C85 0.930 . S
H114 C86 0.930 . S
H115 C87 0.931 . S
H116 C105 0.930 . S
H117 C106 0.930 1_545 S
H118 C107 0.930 . S
H119 C108 0.931 . S
Eu120 C129 2.828 . S
Eu120 O131 2.392 . S
Eu120 O133 2.418 . S
Eu120 O138 2.373 . S
Eu120 O141 2.488 . S
Eu120 O142 2.471 . S
Eu120 O143 2.349 . S
Eu121 O130 2.373 . S
Eu121 O134 2.488 . S
Eu121 O135 2.471 . S
Eu121 O136 2.349 . S
Eu121 O139 2.392 . S
Eu121 O140 2.418 . S
Eu121 C150 2.828 . S
C122 O140 1.244 . S
C122 O143 1.265 . S
C123 C124 1.379 . S
C123 C127 1.373 . S
C123 C129 1.505 . S
C124 C123 1.379 . S
C124 C126 1.369 . S
C124 H152 0.930 . S
C125 C127 1.383 1_455 S
C125 C128 1.382 1_455 S
C125 H153 0.930 . S
C126 C124 1.369 . S
C126 C128 1.392 . S
C126 H154 0.930 . S
C127 C123 1.373 . S
C127 C125 1.383 1_655 S
C127 H155 0.931 1_655 S
C128 C125 1.382 1_655 S
C128 C126 1.392 . S
C129 Eu120 2.828 . S
C129 C123 1.505 . S
C129 O141 1.249 . S
C129 O142 1.244 . S
O130 Eu121 2.373 . S
O130 C132 1.258 . S
O131 Eu120 2.392 . S
O131 C132 1.242 . S
C132 O130 1.258 . S
C132 O131 1.242 . S
O133 Eu120 2.418 . S
O133 C137 1.244 . S
O134 Eu121 2.488 . S
O134 C150 1.249 . S
O135 Eu121 2.471 . S
O135 C150 1.244 . S
O136 Eu121 2.349 . S
O136 C137 1.265 . S
C137 O133 1.244 . S
C137 O136 1.265 . S
O138 Eu120 2.373 . S
O138 C151 1.258 . S
O139 Eu121 2.392 . S
O139 C151 1.242 . S
O140 Eu121 2.418 . S
O140 C122 1.244 . S
O141 Eu120 2.488 . S
O141 C129 1.249 . S
O142 Eu120 2.471 . S
O142 C129 1.244 . S
O143 Eu120 2.349 . S
O143 C122 1.265 . S
C144 C145 1.379 . S
C144 C148 1.373 . S
C144 C150 1.505 . S
C145 C144 1.379 . S
C145 C147 1.369 . S
C145 H156 0.930 . S
C146 C148 1.383 . S
C146 C149 1.382 . S
C146 H157 0.930 . S
C147 C145 1.369 . S
C147 C149 1.392 . S
C147 H158 0.930 . S
C148 C144 1.373 . S
C148 C146 1.383 . S
C148 H159 0.931 . S
C149 C146 1.382 . S
C149 C147 1.392 . S
C150 Eu121 2.828 . S
C150 O134 1.249 . S
C150 O135 1.244 . S
C150 C144 1.505 . S
C151 O138 1.258 . S
C151 O139 1.242 . S
H152 C124 0.930 . S
H153 C125 0.930 . S
H154 C126 0.930 . S
H155 C127 0.931 1_455 S
H156 C145 0.930 . S
H157 C146 0.930 . S
H158 C147 0.930 . S
H159 C148 0.931 . S
Eu160 C169 2.828 . S
Eu160 O171 2.392 . S
Eu160 O173 2.418 . S
Eu160 O178 2.373 . S
Eu160 O181 2.488 . S
Eu160 O182 2.471 . S
Eu160 O183 2.349 . S
Eu161 O170 2.373 . S
Eu161 O174 2.488 . S
Eu161 O175 2.471 . S
Eu161 O176 2.349 . S
Eu161 O179 2.392 . S
Eu161 O180 2.418 . S
Eu161 C190 2.828 . S
C162 O180 1.244 . S
C162 O183 1.265 . S
C163 C164 1.379 . S
C163 C167 1.373 . S
C163 C169 1.505 . S
C164 C163 1.379 . S
C164 C166 1.369 . S
C164 H192 0.930 . S
C165 C167 1.383 . S
C165 C168 1.382 . S
C165 H193 0.930 1_565 S
C166 C164 1.369 . S
C166 C168 1.392 . S
C166 H194 0.930 . S
C167 C163 1.373 . S
C167 C165 1.383 . S
C167 H195 0.931 . S
C168 C165 1.382 . S
C168 C166 1.392 . S
C169 Eu160 2.828 . S
C169 C163 1.505 . S
C169 O181 1.249 . S
C169 O182 1.244 . S
O170 Eu161 2.373 . S
O170 C172 1.258 . S
O171 Eu160 2.392 . S
O171 C172 1.242 . S
C172 O170 1.258 . S
C172 O171 1.242 . S
O173 Eu160 2.418 . S
O173 C177 1.244 . S
O174 Eu161 2.488 . S
O174 C190 1.249 . S
O175 Eu161 2.471 . S
O175 C190 1.244 . S
O176 Eu161 2.349 . S
O176 C177 1.265 . S
C177 O173 1.244 . S
C177 O176 1.265 . S
O178 Eu160 2.373 . S
O178 C191 1.258 . S
O179 Eu161 2.392 . S
O179 C191 1.242 . S
O180 Eu161 2.418 . S
O180 C162 1.244 . S
O181 Eu160 2.488 . S
O181 C169 1.249 . S
O182 Eu160 2.471 . S
O182 C169 1.244 . S
O183 Eu160 2.349 . S
O183 C162 1.265 . S
C184 C185 1.379 . S
C184 C188 1.373 . S
C184 C190 1.505 . S
C185 C184 1.379 . S
C185 C187 1.369 . S
C185 H196 0.930 . S
C186 C188 1.383 . S
C186 C189 1.382 . S
C186 H197 0.930 . S
C187 C185 1.369 . S
C187 C189 1.392 . S
C187 H198 0.930 . S
C188 C184 1.373 . S
C188 C186 1.383 . S
C188 H199 0.931 . S
C189 C186 1.382 . S
C189 C187 1.392 . S
C190 Eu161 2.828 . S
C190 O174 1.249 . S
C190 O175 1.244 . S
C190 C184 1.505 . S
C191 O178 1.258 . S
C191 O179 1.242 . S
H192 C164 0.930 . S
H193 C165 0.930 1_545 S
H194 C166 0.930 . S
H195 C167 0.931 . S
H196 C185 0.930 . S
H197 C186 0.930 . S
H198 C187 0.930 . S
H199 C188 0.931 . S
Eu200 C209 2.828 . S
Eu200 O211 2.392 . S
Eu200 O213 2.418 . S
Eu200 O218 2.373 . S
Eu200 O221 2.488 . S
Eu200 O222 2.471 . S
Eu200 O223 2.349 . S
Eu201 O210 2.373 . S
Eu201 O214 2.488 . S
Eu201 O215 2.471 . S
Eu201 O216 2.349 . S
Eu201 O219 2.392 . S
Eu201 O220 2.418 . S
Eu201 C230 2.828 . S
C202 O220 1.244 . S
C202 O223 1.265 . S
C203 C204 1.379 . S
C203 C207 1.373 . S
C203 C209 1.505 . S
C204 C203 1.379 . S
C204 C206 1.369 . S
C204 H232 0.930 . S
C205 C207 1.383 . S
C205 C208 1.382 . S
C205 H233 0.930 . S
C206 C204 1.369 . S
C206 C208 1.392 . S
C206 H234 0.930 . S
C207 C203 1.373 . S
C207 C205 1.383 . S
C207 H235 0.931 . S
C208 C205 1.382 . S
C208 C206 1.392 . S
C209 Eu200 2.828 . S
C209 C203 1.505 . S
C209 O221 1.249 . S
C209 O222 1.244 . S
O210 Eu201 2.373 . S
O210 C212 1.258 . S
O211 Eu200 2.392 . S
O211 C212 1.242 . S
C212 O210 1.258 . S
C212 O211 1.242 . S
O213 Eu200 2.418 . S
O213 C217 1.244 . S
O214 Eu201 2.488 . S
O214 C230 1.249 . S
O215 Eu201 2.471 . S
O215 C230 1.244 . S
O216 Eu201 2.349 . S
O216 C217 1.265 . S
C217 O213 1.244 . S
C217 O216 1.265 . S
O218 Eu200 2.373 . S
O218 C231 1.258 . S
O219 Eu201 2.392 . S
O219 C231 1.242 . S
O220 Eu201 2.418 . S
O220 C202 1.244 . S
O221 Eu200 2.488 . S
O221 C209 1.249 . S
O222 Eu200 2.471 . S
O222 C209 1.244 . S
O223 Eu200 2.349 . S
O223 C202 1.265 . S
C224 C225 1.379 . S
C224 C228 1.373 . S
C224 C230 1.505 . S
C225 C224 1.379 . S
C225 C227 1.369 . S
C225 H236 0.930 . S
C226 C228 1.383 . S
C226 C229 1.382 . S
C226 H237 0.930 . S
C227 C225 1.369 . S
C227 C229 1.392 . S
C227 H238 0.930 . S
C228 C224 1.373 . S
C228 C226 1.383 . S
C228 H239 0.931 . S
C229 C226 1.382 . S
C229 C227 1.392 . S
C230 Eu201 2.828 . S
C230 O214 1.249 . S
C230 O215 1.244 . S
C230 C224 1.505 . S
C231 O218 1.258 . S
C231 O219 1.242 . S
H232 C204 0.930 . S
H233 C205 0.930 . S
H234 C206 0.930 . S
H235 C207 0.931 . S
H236 C225 0.930 . S
H237 C226 0.930 . S
H238 C227 0.930 . S
H239 C228 0.931 . S
Eu240 C249 2.828 . S
Eu240 O251 2.392 . S
Eu240 O253 2.418 . S
Eu240 O258 2.373 . S
Eu240 O261 2.488 . S
Eu240 O262 2.471 . S
Eu240 O263 2.349 . S
Eu241 O250 2.373 . S
Eu241 O254 2.488 . S
Eu241 O255 2.471 . S
Eu241 O256 2.349 . S
Eu241 O259 2.392 . S
Eu241 O260 2.418 . S
Eu241 C270 2.828 . S
C242 O260 1.244 . S
C242 O263 1.265 . S
C243 C244 1.379 . S
C243 C247 1.373 . S
C243 C249 1.505 . S
C244 C243 1.379 . S
C244 C246 1.369 . S
C244 H272 0.930 . S
C245 C247 1.383 . S
C245 C248 1.382 . S
C245 H273 0.930 1_545 S
C246 C244 1.369 . S
C246 C248 1.392 . S
C246 H274 0.930 . S
C247 C243 1.373 . S
C247 C245 1.383 . S
C247 H275 0.931 . S
C248 C245 1.382 . S
C248 C246 1.392 . S
C249 Eu240 2.828 . S
C249 C243 1.505 . S
C249 O261 1.249 . S
C249 O262 1.244 . S
O250 Eu241 2.373 . S
O250 C252 1.258 . S
O251 Eu240 2.392 . S
O251 C252 1.242 . S
C252 O250 1.258 . S
C252 O251 1.242 . S
O253 Eu240 2.418 . S
O253 C257 1.244 . S
O254 Eu241 2.488 . S
O254 C270 1.249 . S
O255 Eu241 2.471 . S
O255 C270 1.244 . S
O256 Eu241 2.349 . S
O256 C257 1.265 . S
C257 O253 1.244 . S
C257 O256 1.265 . S
O258 Eu240 2.373 . S
O258 C271 1.258 . S
O259 Eu241 2.392 . S
O259 C271 1.242 . S
O260 Eu241 2.418 . S
O260 C242 1.244 . S
O261 Eu240 2.488 . S
O261 C249 1.249 . S
O262 Eu240 2.471 . S
O262 C249 1.244 . S
O263 Eu240 2.349 . S
O263 C242 1.265 . S
C264 C265 1.379 . S
C264 C268 1.373 . S
C264 C270 1.505 . S
C265 C264 1.379 . S
C265 C267 1.369 . S
C265 H276 0.930 . S
C266 C268 1.383 . S
C266 C269 1.382 . S
C266 H277 0.930 . S
C267 C265 1.369 . S
C267 C269 1.392 . S
C267 H278 0.930 . S
C268 C264 1.373 . S
C268 C266 1.383 . S
C268 H279 0.931 . S
C269 C266 1.382 . S
C269 C267 1.392 . S
C270 Eu241 2.828 . S
C270 O254 1.249 . S
C270 O255 1.244 . S
C270 C264 1.505 . S
C271 O258 1.258 . S
C271 O259 1.242 . S
H272 C244 0.930 . S
H273 C245 0.930 1_565 S
H274 C246 0.930 . S
H275 C247 0.931 . S
H276 C265 0.930 . S
H277 C266 0.930 . S
H278 C267 0.930 . S
H279 C268 0.931 . S
Eu280 C289 2.828 . S
Eu280 O291 2.392 . S
Eu280 O293 2.418 . S
Eu280 O298 2.373 . S
Eu280 O301 2.488 . S
Eu280 O302 2.471 . S
Eu280 O303 2.349 . S
Eu281 O290 2.373 . S
Eu281 O294 2.488 . S
Eu281 O295 2.471 . S
Eu281 O296 2.349 . S
Eu281 O299 2.392 . S
Eu281 O300 2.418 . S
Eu281 C310 2.828 . S
C282 O300 1.244 . S
C282 O303 1.265 . S
C283 C284 1.379 . S
C283 C287 1.373 . S
C283 C289 1.505 . S
C284 C283 1.379 . S
C284 C286 1.369 . S
C284 H312 0.930 . S
C285 C287 1.383 . S
C285 C288 1.382 . S
C285 H313 0.930 . S
C286 C284 1.369 . S
C286 C288 1.392 . S
C286 H314 0.930 . S
C287 C283 1.373 . S
C287 C285 1.383 . S
C287 H315 0.931 . S
C288 C285 1.382 . S
C288 C286 1.392 . S
C289 Eu280 2.828 . S
C289 C283 1.505 . S
C289 O301 1.249 . S
C289 O302 1.244 . S
O290 Eu281 2.373 . S
O290 C292 1.258 . S
O291 Eu280 2.392 . S
O291 C292 1.242 . S
C292 O290 1.258 . S
C292 O291 1.242 . S
O293 Eu280 2.418 . S
O293 C297 1.244 . S
O294 Eu281 2.488 . S
O294 C310 1.249 . S
O295 Eu281 2.471 . S
O295 C310 1.244 . S
O296 Eu281 2.349 . S
O296 C297 1.265 . S
C297 O293 1.244 . S
C297 O296 1.265 . S
O298 Eu280 2.373 . S
O298 C311 1.258 . S
O299 Eu281 2.392 . S
O299 C311 1.242 . S
O300 Eu281 2.418 . S
O300 C282 1.244 . S
O301 Eu280 2.488 . S
O301 C289 1.249 . S
O302 Eu280 2.471 . S
O302 C289 1.244 . S
O303 Eu280 2.349 . S
O303 C282 1.265 . S
C304 C305 1.379 . S
C304 C308 1.373 . S
C304 C310 1.505 . S
C305 C304 1.379 . S
C305 C307 1.369 . S
C305 H316 0.930 . S
C306 C308 1.383 1_655 S
C306 C309 1.382 1_655 S
C306 H317 0.930 . S
C307 C305 1.369 . S
C307 C309 1.392 . S
C307 H318 0.930 . S
C308 C304 1.373 . S
C308 C306 1.383 1_455 S
C308 H319 0.931 1_455 S
C309 C306 1.382 1_455 S
C309 C307 1.392 . S
C310 Eu281 2.828 . S
C310 O294 1.249 . S
C310 O295 1.244 . S
C310 C304 1.505 . S
C311 O298 1.258 . S
C311 O299 1.242 . S
H312 C284 0.930 . S
H313 C285 0.930 . S
H314 C286 0.930 . S
H315 C287 0.931 . S
H316 C305 0.930 . S
H317 C306 0.930 . S
H318 C307 0.930 . S
H319 C308 0.931 1_655 S
Eu320 C329 2.828 . S
Eu320 O331 2.392 . S
Eu320 O333 2.418 . S
Eu320 O338 2.373 . S
Eu320 O341 2.488 . S
Eu320 O342 2.471 . S
Eu320 O343 2.349 . S
Eu321 O330 2.373 . S
Eu321 O334 2.488 . S
Eu321 O335 2.471 . S
Eu321 O336 2.349 . S
Eu321 O339 2.392 . S
Eu321 O340 2.418 . S
Eu321 C350 2.828 . S
C322 O340 1.244 . S
C322 O343 1.265 . S
C323 C324 1.379 . S
C323 C327 1.373 . S
C323 C329 1.505 . S
C324 C323 1.379 . S
C324 C326 1.369 . S
C324 H352 0.930 . S
C325 C327 1.383 . S
C325 C328 1.382 . S
C325 H353 0.930 . S
C326 C324 1.369 . S
C326 C328 1.392 . S
C326 H354 0.930 . S
C327 C323 1.373 . S
C327 C325 1.383 . S
C327 H355 0.931 . S
C328 C325 1.382 . S
C328 C326 1.392 . S
C329 Eu320 2.828 . S
C329 C323 1.505 . S
C329 O341 1.249 . S
C329 O342 1.244 . S
O330 Eu321 2.373 . S
O330 C332 1.258 . S
O331 Eu320 2.392 . S
O331 C332 1.242 . S
C332 O330 1.258 . S
C332 O331 1.242 . S
O333 Eu320 2.418 . S
O333 C337 1.244 . S
O334 Eu321 2.488 . S
O334 C350 1.249 . S
O335 Eu321 2.471 . S
O335 C350 1.244 . S
O336 Eu321 2.349 . S
O336 C337 1.265 . S
C337 O333 1.244 . S
C337 O336 1.265 . S
O338 Eu320 2.373 . S
O338 C351 1.258 . S
O339 Eu321 2.392 . S
O339 C351 1.242 . S
O340 Eu321 2.418 . S
O340 C322 1.244 . S
O341 Eu320 2.488 . S
O341 C329 1.249 . S
O342 Eu320 2.471 . S
O342 C329 1.244 . S
O343 Eu320 2.349 . S
O343 C322 1.265 . S
C344 C345 1.379 . S
C344 C348 1.373 . S
C344 C350 1.505 . S
C345 C344 1.379 . S
C345 C347 1.369 . S
C345 H356 0.930 . S
C346 C348 1.383 . S
C346 C349 1.382 . S
C346 H357 0.930 . S
C347 C345 1.369 . S
C347 C349 1.392 . S
C347 H358 0.930 . S
C348 C344 1.373 . S
C348 C346 1.383 . S
C348 H359 0.931 . S
C349 C346 1.382 . S
C349 C347 1.392 . S
C350 Eu321 2.828 . S
C350 O334 1.249 . S
C350 O335 1.244 . S
C350 C344 1.505 . S
C351 O338 1.258 . S
C351 O339 1.242 . S
H352 C324 0.930 . S
H353 C325 0.930 . S
H354 C326 0.930 . S
H355 C327 0.931 . S
H356 C345 0.930 . S
H357 C346 0.930 . S
H358 C347 0.930 . S
H359 C348 0.931 . S
Eu360 C369 2.828 . S
Eu360 O371 2.392 1_545 S
Eu360 O373 2.418 1_545 S
Eu360 O378 2.373 . S
Eu360 O381 2.488 . S
Eu360 O382 2.471 . S
Eu360 O383 2.349 . S
Eu361 O370 2.373 1_545 S
Eu361 O374 2.488 . S
Eu361 O375 2.471 . S
Eu361 O376 2.349 . S
Eu361 O379 2.392 . S
Eu361 O380 2.418 . S
Eu361 C390 2.828 . S
C362 O380 1.244 . S
C362 O383 1.265 . S
C363 C364 1.379 . S
C363 C367 1.373 . S
C363 C369 1.505 . S
C364 C363 1.379 . S
C364 C366 1.369 . S
C364 H392 0.930 . S
C365 C367 1.383 1_655 S
C365 C368 1.382 1_655 S
C365 H393 0.930 . S
C366 C364 1.369 . S
C366 C368 1.392 . S
C366 H394 0.930 . S
C367 C363 1.373 . S
C367 C365 1.383 1_455 S
C367 H395 0.931 1_455 S
C368 C365 1.382 1_455 S
C368 C366 1.392 . S
C369 Eu360 2.828 . S
C369 C363 1.505 . S
C369 O381 1.249 . S
C369 O382 1.244 . S
O370 Eu361 2.373 1_565 S
O370 C372 1.258 . S
O371 Eu360 2.392 1_565 S
O371 C372 1.242 . S
C372 O370 1.258 . S
C372 O371 1.242 . S
O373 Eu360 2.418 1_565 S
O373 C377 1.244 1_565 S
O374 Eu361 2.488 . S
O374 C390 1.249 . S
O375 Eu361 2.471 . S
O375 C390 1.244 . S
O376 Eu361 2.349 . S
O376 C377 1.265 . S
C377 O373 1.244 1_545 S
C377 O376 1.265 . S
O378 Eu360 2.373 . S
O378 C391 1.258 . S
O379 Eu361 2.392 . S
O379 C391 1.242 . S
O380 Eu361 2.418 . S
O380 C362 1.244 . S
O381 Eu360 2.488 . S
O381 C369 1.249 . S
O382 Eu360 2.471 . S
O382 C369 1.244 . S
O383 Eu360 2.349 . S
O383 C362 1.265 . S
C384 C385 1.379 1_545 S
C384 C388 1.373 . S
C384 C390 1.505 . S
C385 C384 1.379 1_565 S
C385 C387 1.369 . S
C385 H396 0.930 . S
C386 C388 1.383 . S
C386 C389 1.382 1_545 S
C386 H397 0.930 . S
C387 C385 1.369 . S
C387 C389 1.392 . S
C387 H398 0.930 . S
C388 C384 1.373 . S
C388 C386 1.383 . S
C388 H399 0.931 . S
C389 C386 1.382 1_565 S
C389 C387 1.392 . S
C390 Eu361 2.828 . S
C390 O374 1.249 . S
C390 O375 1.244 . S
C390 C384 1.505 . S
C391 O378 1.258 . S
C391 O379 1.242 . S
H392 C364 0.930 . S
H393 C365 0.930 . S
H394 C366 0.930 . S
H395 C367 0.931 1_655 S
H396 C385 0.930 . S
H397 C386 0.930 . S
H398 C387 0.930 . S
H399 C388 0.931 . S
Eu400 C409 2.828 . S
Eu400 O411 2.392 . S
Eu400 O413 2.418 . S
Eu400 O418 2.373 . S
Eu400 O421 2.488 . S
Eu400 O422 2.471 . S
Eu400 O423 2.349 . S
Eu401 O410 2.373 . S
Eu401 O414 2.488 . S
Eu401 O415 2.471 . S
Eu401 O416 2.349 . S
Eu401 O419 2.392 . S
Eu401 O420 2.418 . S
Eu401 C430 2.828 . S
C402 O420 1.244 . S
C402 O423 1.265 . S
C403 C404 1.379 . S
C403 C407 1.373 . S
C403 C409 1.505 . S
C404 C403 1.379 . S
C404 C406 1.369 . S
C404 H432 0.930 . S
C405 C407 1.383 . S
C405 C408 1.382 . S
C405 H433 0.930 . S
C406 C404 1.369 . S
C406 C408 1.392 . S
C406 H434 0.930 . S
C407 C403 1.373 . S
C407 C405 1.383 . S
C407 H435 0.931 . S
C408 C405 1.382 . S
C408 C406 1.392 . S
C409 Eu400 2.828 . S
C409 C403 1.505 . S
C409 O421 1.249 . S
C409 O422 1.244 . S
O410 Eu401 2.373 . S
O410 C412 1.258 . S
O411 Eu400 2.392 . S
O411 C412 1.242 . S
C412 O410 1.258 . S
C412 O411 1.242 . S
O413 Eu400 2.418 . S
O413 C417 1.244 . S
O414 Eu401 2.488 . S
O414 C430 1.249 . S
O415 Eu401 2.471 . S
O415 C430 1.244 . S
O416 Eu401 2.349 . S
O416 C417 1.265 . S
C417 O413 1.244 . S
C417 O416 1.265 . S
O418 Eu400 2.373 . S
O418 C431 1.258 . S
O419 Eu401 2.392 . S
O419 C431 1.242 . S
O420 Eu401 2.418 . S
O420 C402 1.244 . S
O421 Eu400 2.488 . S
O421 C409 1.249 . S
O422 Eu400 2.471 . S
O422 C409 1.244 . S
O423 Eu400 2.349 . S
O423 C402 1.265 . S
C424 C425 1.379 . S
C424 C428 1.373 . S
C424 C430 1.505 . S
C425 C424 1.379 . S
C425 C427 1.369 . S
C425 H436 0.930 . S
C426 C428 1.383 . S
C426 C429 1.382 . S
C426 H437 0.930 . S
C427 C425 1.369 . S
C427 C429 1.392 . S
C427 H438 0.930 . S
C428 C424 1.373 . S
C428 C426 1.383 . S
C428 H439 0.931 . S
C429 C426 1.382 . S
C429 C427 1.392 . S
C430 Eu401 2.828 . S
C430 O414 1.249 . S
C430 O415 1.244 . S
C430 C424 1.505 . S
C431 O418 1.258 . S
C431 O419 1.242 . S
H432 C404 0.930 . S
H433 C405 0.930 . S
H434 C406 0.930 . S
H435 C407 0.931 . S
H436 C425 0.930 . S
H437 C426 0.930 . S
H438 C427 0.930 . S
H439 C428 0.931 . S
Eu440 C449 2.828 . S
Eu440 O451 2.392 1_565 S
Eu440 O453 2.418 1_565 S
Eu440 O458 2.373 . S
Eu440 O461 2.488 . S
Eu440 O462 2.471 . S
Eu440 O463 2.349 . S
Eu441 O450 2.373 1_565 S
Eu441 O454 2.488 . S
Eu441 O455 2.471 . S
Eu441 O456 2.349 . S
Eu441 O459 2.392 . S
Eu441 O460 2.418 . S
Eu441 C470 2.828 . S
C442 O460 1.244 . S
C442 O463 1.265 . S
C443 C444 1.379 . S
C443 C447 1.373 . S
C443 C449 1.505 . S
C444 C443 1.379 . S
C444 C446 1.369 . S
C444 H472 0.930 . S
C445 C447 1.383 . S
C445 C448 1.382 . S
C445 H473 0.930 . S
C446 C444 1.369 . S
C446 C448 1.392 . S
C446 H474 0.930 . S
C447 C443 1.373 . S
C447 C445 1.383 . S
C447 H475 0.931 . S
C448 C445 1.382 . S
C448 C446 1.392 . S
C449 Eu440 2.828 . S
C449 C443 1.505 . S
C449 O461 1.249 . S
C449 O462 1.244 . S
O450 Eu441 2.373 1_545 S
O450 C452 1.258 . S
O451 Eu440 2.392 1_545 S
O451 C452 1.242 . S
C452 O450 1.258 . S
C452 O451 1.242 . S
O453 Eu440 2.418 1_545 S
O453 C457 1.244 1_545 S
O454 Eu441 2.488 . S
O454 C470 1.249 . S
O455 Eu441 2.471 . S
O455 C470 1.244 . S
O456 Eu441 2.349 . S
O456 C457 1.265 . S
C457 O453 1.244 1_565 S
C457 O456 1.265 . S
O458 Eu440 2.373 . S
O458 C471 1.258 . S
O459 Eu441 2.392 . S
O459 C471 1.242 . S
O460 Eu441 2.418 . S
O460 C442 1.244 . S
O461 Eu440 2.488 . S
O461 C449 1.249 . S
O462 Eu440 2.471 . S
O462 C449 1.244 . S
O463 Eu440 2.349 . S
O463 C442 1.265 . S
C464 C465 1.379 1_565 S
C464 C468 1.373 . S
C464 C470 1.505 . S
C465 C464 1.379 1_545 S
C465 C467 1.369 . S
C465 H476 0.930 . S
C466 C468 1.383 . S
C466 C469 1.382 1_565 S
C466 H477 0.930 . S
C467 C465 1.369 . S
C467 C469 1.392 . S
C467 H478 0.930 . S
C468 C464 1.373 . S
C468 C466 1.383 . S
C468 H479 0.931 . S
C469 C466 1.382 1_545 S
C469 C467 1.392 . S
C470 Eu441 2.828 . S
C470 O454 1.249 . S
C470 O455 1.244 . S
C470 C464 1.505 . S
C471 O458 1.258 . S
C471 O459 1.242 . S
H472 C444 0.930 . S
H473 C445 0.930 . S
H474 C446 0.930 . S
H475 C447 0.931 . S
H476 C465 0.930 . S
H477 C466 0.930 . S
H478 C467 0.930 . S
H479 C468 0.931 . S
Eu480 C489 2.828 . S
Eu480 O491 2.392 . S
Eu480 O493 2.418 . S
Eu480 O498 2.373 . S
Eu480 O501 2.488 . S
Eu480 O502 2.471 . S
Eu480 O503 2.349 . S
Eu481 O490 2.373 . S
Eu481 O494 2.488 . S
Eu481 O495 2.471 . S
Eu481 O496 2.349 . S
Eu481 O499 2.392 . S
Eu481 O500 2.418 . S
Eu481 C510 2.828 . S
C482 O500 1.244 . S
C482 O503 1.265 . S
C483 C484 1.379 . S
C483 C487 1.373 . S
C483 C489 1.505 . S
C484 C483 1.379 . S
C484 C486 1.369 . S
C484 H512 0.930 . S
C485 C487 1.383 . S
C485 C488 1.382 . S
C485 H513 0.930 . S
C486 C484 1.369 . S
C486 C488 1.392 . S
C486 H514 0.930 . S
C487 C483 1.373 . S
C487 C485 1.383 . S
C487 H515 0.931 . S
C488 C485 1.382 . S
C488 C486 1.392 . S
C489 Eu480 2.828 . S
C489 C483 1.505 . S
C489 O501 1.249 . S
C489 O502 1.244 . S
O490 Eu481 2.373 . S
O490 C492 1.258 . S
O491 Eu480 2.392 . S
O491 C492 1.242 . S
C492 O490 1.258 . S
C492 O491 1.242 . S
O493 Eu480 2.418 . S
O493 C497 1.244 . S
O494 Eu481 2.488 . S
O494 C510 1.249 . S
O495 Eu481 2.471 . S
O495 C510 1.244 . S
O496 Eu481 2.349 . S
O496 C497 1.265 . S
C497 O493 1.244 . S
C497 O496 1.265 . S
O498 Eu480 2.373 . S
O498 C511 1.258 . S
O499 Eu481 2.392 . S
O499 C511 1.242 . S
O500 Eu481 2.418 . S
O500 C482 1.244 . S
O501 Eu480 2.488 . S
O501 C489 1.249 . S
O502 Eu480 2.471 . S
O502 C489 1.244 . S
O503 Eu480 2.349 . S
O503 C482 1.265 . S
C504 C505 1.379 . S
C504 C508 1.373 . S
C504 C510 1.505 . S
C505 C504 1.379 . S
C505 C507 1.369 . S
C505 H516 0.930 . S
C506 C508 1.383 . S
C506 C509 1.382 . S
C506 H517 0.930 . S
C507 C505 1.369 . S
C507 C509 1.392 . S
C507 H518 0.930 . S
C508 C504 1.373 . S
C508 C506 1.383 . S
C508 H519 0.931 . S
C509 C506 1.382 . S
C509 C507 1.392 . S
C510 Eu481 2.828 . S
C510 O494 1.249 . S
C510 O495 1.244 . S
C510 C504 1.505 . S
C511 O498 1.258 . S
C511 O499 1.242 . S
H512 C484 0.930 . S
H513 C485 0.930 . S
H514 C486 0.930 . S
H515 C487 0.931 . S
H516 C505 0.930 . S
H517 C506 0.930 . S
H518 C507 0.930 . S
H519 C508 0.931 . S
Eu520 C529 2.828 . S
Eu520 O531 2.392 . S
Eu520 O533 2.418 . S
Eu520 O538 2.373 1_565 S
Eu520 O541 2.488 . S
Eu520 O542 2.471 . S
Eu520 O543 2.349 . S
Eu521 O530 2.373 . S
Eu521 O534 2.488 . S
Eu521 O535 2.471 . S
Eu521 O536 2.349 . S
Eu521 O539 2.392 1_565 S
Eu521 O540 2.418 1_565 S
Eu521 C550 2.828 . S
C522 O540 1.244 1_565 S
C522 O543 1.265 . S
C523 C524 1.379 1_565 S
C523 C527 1.373 . S
C523 C529 1.505 . S
C524 C523 1.379 1_545 S
C524 C526 1.369 . S
C524 H552 0.930 . S
C525 C527 1.383 . S
C525 C528 1.382 1_565 S
C525 H553 0.930 . S
C526 C524 1.369 . S
C526 C528 1.392 . S
C526 H554 0.930 . S
C527 C523 1.373 . S
C527 C525 1.383 . S
C527 H555 0.931 . S
C528 C525 1.382 1_545 S
C528 C526 1.392 . S
C529 Eu520 2.828 . S
C529 C523 1.505 . S
C529 O541 1.249 . S
C529 O542 1.244 . S
O530 Eu521 2.373 . S
O530 C532 1.258 . S
O531 Eu520 2.392 . S
O531 C532 1.242 . S
C532 O530 1.258 . S
C532 O531 1.242 . S
O533 Eu520 2.418 . S
O533 C537 1.244 . S
O534 Eu521 2.488 . S
O534 C550 1.249 . S
O535 Eu521 2.471 . S
O535 C550 1.244 . S
O536 Eu521 2.349 . S
O536 C537 1.265 . S
C537 O533 1.244 . S
C537 O536 1.265 . S
O538 Eu520 2.373 1_545 S
O538 C551 1.258 . S
O539 Eu521 2.392 1_545 S
O539 C551 1.242 . S
O540 Eu521 2.418 1_545 S
O540 C522 1.244 1_545 S
O541 Eu520 2.488 . S
O541 C529 1.249 . S
O542 Eu520 2.471 . S
O542 C529 1.244 . S
O543 Eu520 2.349 . S
O543 C522 1.265 . S
C544 C545 1.379 . S
C544 C548 1.373 . S
C544 C550 1.505 . S
C545 C544 1.379 . S
C545 C547 1.369 . S
C545 H556 0.930 . S
C546 C548 1.383 1_455 S
C546 C549 1.382 1_455 S
C546 H557 0.930 . S
C547 C545 1.369 . S
C547 C549 1.392 . S
C547 H558 0.930 . S
C548 C544 1.373 . S
C548 C546 1.383 1_655 S
C548 H559 0.931 1_655 S
C549 C546 1.382 1_655 S
C549 C547 1.392 . S
C550 Eu521 2.828 . S
C550 O534 1.249 . S
C550 O535 1.244 . S
C550 C544 1.505 . S
C551 O538 1.258 . S
C551 O539 1.242 . S
H552 C524 0.930 . S
H553 C525 0.930 . S
H554 C526 0.930 . S
H555 C527 0.931 . S
H556 C545 0.930 . S
H557 C546 0.930 . S
H558 C547 0.930 . S
H559 C548 0.931 1_455 S
Eu560 C569 2.828 . S
Eu560 O571 2.392 . S
Eu560 O573 2.418 . S
Eu560 O578 2.373 . S
Eu560 O581 2.488 . S
Eu560 O582 2.471 . S
Eu560 O583 2.349 . S
Eu561 O570 2.373 . S
Eu561 O574 2.488 . S
Eu561 O575 2.471 . S
Eu561 O576 2.349 . S
Eu561 O579 2.392 . S
Eu561 O580 2.418 . S
Eu561 C590 2.828 . S
C562 O580 1.244 . S
C562 O583 1.265 . S
C563 C564 1.379 . S
C563 C567 1.373 . S
C563 C569 1.505 . S
C564 C563 1.379 . S
C564 C566 1.369 . S
C564 H592 0.930 . S
C565 C567 1.383 . S
C565 C568 1.382 . S
C565 H593 0.930 . S
C566 C564 1.369 . S
C566 C568 1.392 . S
C566 H594 0.930 . S
C567 C563 1.373 . S
C567 C565 1.383 . S
C567 H595 0.931 . S
C568 C565 1.382 . S
C568 C566 1.392 . S
C569 Eu560 2.828 . S
C569 C563 1.505 . S
C569 O581 1.249 . S
C569 O582 1.244 . S
O570 Eu561 2.373 . S
O570 C572 1.258 . S
O571 Eu560 2.392 . S
O571 C572 1.242 . S
C572 O570 1.258 . S
C572 O571 1.242 . S
O573 Eu560 2.418 . S
O573 C577 1.244 . S
O574 Eu561 2.488 . S
O574 C590 1.249 . S
O575 Eu561 2.471 . S
O575 C590 1.244 . S
O576 Eu561 2.349 . S
O576 C577 1.265 . S
C577 O573 1.244 . S
C577 O576 1.265 . S
O578 Eu560 2.373 . S
O578 C591 1.258 . S
O579 Eu561 2.392 . S
O579 C591 1.242 . S
O580 Eu561 2.418 . S
O580 C562 1.244 . S
O581 Eu560 2.488 . S
O581 C569 1.249 . S
O582 Eu560 2.471 . S
O582 C569 1.244 . S
O583 Eu560 2.349 . S
O583 C562 1.265 . S
C584 C585 1.379 . S
C584 C588 1.373 . S
C584 C590 1.505 . S
C585 C584 1.379 . S
C585 C587 1.369 . S
C585 H596 0.930 . S
C586 C588 1.383 . S
C586 C589 1.382 . S
C586 H597 0.930 . S
C587 C585 1.369 . S
C587 C589 1.392 . S
C587 H598 0.930 . S
C588 C584 1.373 . S
C588 C586 1.383 . S
C588 H599 0.931 . S
C589 C586 1.382 . S
C589 C587 1.392 . S
C590 Eu561 2.828 . S
C590 O574 1.249 . S
C590 O575 1.244 . S
C590 C584 1.505 . S
C591 O578 1.258 . S
C591 O579 1.242 . S
H592 C564 0.930 . S
H593 C565 0.930 . S
H594 C566 0.930 . S
H595 C567 0.931 . S
H596 C585 0.930 . S
H597 C586 0.930 . S
H598 C587 0.930 . S
H599 C588 0.931 . S
Eu600 C609 2.828 . S
Eu600 O611 2.392 . S
Eu600 O613 2.418 . S
Eu600 O618 2.373 1_545 S
Eu600 O621 2.488 . S
Eu600 O622 2.471 . S
Eu600 O623 2.349 . S
Eu601 O610 2.373 . S
Eu601 O614 2.488 . S
Eu601 O615 2.471 . S
Eu601 O616 2.349 . S
Eu601 O619 2.392 1_545 S
Eu601 O620 2.418 1_545 S
Eu601 C630 2.828 . S
C602 O620 1.244 1_545 S
C602 O623 1.265 . S
C603 C604 1.379 1_545 S
C603 C607 1.373 . S
C603 C609 1.505 . S
C604 C603 1.379 1_565 S
C604 C606 1.369 . S
C604 H632 0.930 . S
C605 C607 1.383 . S
C605 C608 1.382 1_545 S
C605 H633 0.930 . S
C606 C604 1.369 . S
C606 C608 1.392 . S
C606 H634 0.930 . S
C607 C603 1.373 . S
C607 C605 1.383 . S
C607 H635 0.931 . S
C608 C605 1.382 1_565 S
C608 C606 1.392 . S
C609 Eu600 2.828 . S
C609 C603 1.505 . S
C609 O621 1.249 . S
C609 O622 1.244 . S
O610 Eu601 2.373 . S
O610 C612 1.258 . S
O611 Eu600 2.392 . S
O611 C612 1.242 . S
C612 O610 1.258 . S
C612 O611 1.242 . S
O613 Eu600 2.418 . S
O613 C617 1.244 . S
O614 Eu601 2.488 . S
O614 C630 1.249 . S
O615 Eu601 2.471 . S
O615 C630 1.244 . S
O616 Eu601 2.349 . S
O616 C617 1.265 . S
C617 O613 1.244 . S
C617 O616 1.265 . S
O618 Eu600 2.373 1_565 S
O618 C631 1.258 . S
O619 Eu601 2.392 1_565 S
O619 C631 1.242 . S
O620 Eu601 2.418 1_565 S
O620 C602 1.244 1_565 S
O621 Eu600 2.488 . S
O621 C609 1.249 . S
O622 Eu600 2.471 . S
O622 C609 1.244 . S
O623 Eu600 2.349 . S
O623 C602 1.265 . S
C624 C625 1.379 . S
C624 C628 1.373 . S
C624 C630 1.505 . S
C625 C624 1.379 . S
C625 C627 1.369 . S
C625 H636 0.930 . S
C626 C628 1.383 . S
C626 C629 1.382 . S
C626 H637 0.930 . S
C627 C625 1.369 . S
C627 C629 1.392 . S
C627 H638 0.930 . S
C628 C624 1.373 . S
C628 C626 1.383 . S
C628 H639 0.931 . S
C629 C626 1.382 . S
C629 C627 1.392 . S
C630 Eu601 2.828 . S
C630 O614 1.249 . S
C630 O615 1.244 . S
C630 C624 1.505 . S
C631 O618 1.258 . S
C631 O619 1.242 . S
H632 C604 0.930 . S
H633 C605 0.930 . S
H634 C606 0.930 . S
H635 C607 0.931 . S
H636 C625 0.930 . S
H637 C626 0.930 . S
H638 C627 0.930 . S
H639 C628 0.931 . S
H640 C646 0.930 . S
H641 C650 0.930 . S
H642 C655 0.929 . S
H643 C653 0.929 . S
H644 C648 0.929 . S
H645 C654 0.929 . S
C646 H640 0.930 . S
C646 C647 1.367 . S
C646 C654 1.378 . S
C647 C646 1.367 . S
C647 C655 1.433 . S
C648 H644 0.929 . S
C648 C650 1.378 . S
C648 C652 1.350 . S
C649 C652 1.463 . S
C649 C654 1.350 . S
C649 N657 1.427 . S
C650 H641 0.930 . S
C650 C648 1.378 . S
C650 C651 1.367 . S
C651 C650 1.367 . S
C651 C653 1.433 . S
C652 C648 1.350 . S
C652 C649 1.463 . S
C652 N656 1.427 . S
C653 H643 0.929 . S
C653 C651 1.433 . S
C653 N656 1.384 . S
C654 H645 0.929 . S
C654 C646 1.378 . S
C654 C649 1.350 . S
C655 H642 0.929 . S
C655 C647 1.433 . S
C655 N657 1.384 . S
N656 C652 1.427 . S
N656 C653 1.384 . S
N657 C649 1.427 . S
N657 C655 1.384 . S
H658 C664 0.930 . S
H659 C668 0.930 . S
H660 C673 0.929 . S
H661 C671 0.929 . S
H662 C666 0.929 . S
H663 C672 0.929 . S
C664 H658 0.930 . S
C664 C665 1.367 . S
C664 C672 1.378 . S
C665 C664 1.367 . S
C665 C673 1.433 . S
C666 H662 0.929 . S
C666 C668 1.378 . S
C666 C670 1.350 . S
C667 C670 1.463 . S
C667 C672 1.350 . S
C667 N675 1.427 . S
C668 H659 0.930 . S
C668 C666 1.378 . S
C668 C669 1.367 . S
C669 C668 1.367 . S
C669 C671 1.433 . S
C670 C666 1.350 . S
C670 C667 1.463 . S
C670 N674 1.427 . S
C671 H661 0.929 . S
C671 C669 1.433 . S
C671 N674 1.384 . S
C672 H663 0.929 . S
C672 C664 1.378 . S
C672 C667 1.350 . S
C673 H660 0.929 . S
C673 C665 1.433 . S
C673 N675 1.384 . S
N674 C670 1.427 . S
N674 C671 1.384 . S
N675 C667 1.427 . S
N675 C673 1.384 . S
H676 C682 0.930 . S
H677 C686 0.930 . S
H678 C691 0.929 . S
H679 C689 0.929 . S
H680 C684 0.929 . S
H681 C690 0.929 . S
C682 H676 0.930 . S
C682 C683 1.367 . S
C682 C690 1.378 . S
C683 C682 1.367 . S
C683 C691 1.433 . S
C684 H680 0.929 . S
C684 C686 1.378 . S
C684 C688 1.350 . S
C685 C688 1.463 . S
C685 C690 1.350 . S
C685 N693 1.427 . S
C686 H677 0.930 . S
C686 C684 1.378 . S
C686 C687 1.367 . S
C687 C686 1.367 . S
C687 C689 1.433 . S
C688 C684 1.350 . S
C688 C685 1.463 . S
C688 N692 1.427 . S
C689 H679 0.929 . S
C689 C687 1.433 . S
C689 N692 1.384 . S
C690 H681 0.929 . S
C690 C682 1.378 . S
C690 C685 1.350 . S
C691 H678 0.929 . S
C691 C683 1.433 . S
C691 N693 1.384 . S
N692 C688 1.427 . S
N692 C689 1.384 . S
N693 C685 1.427 . S
N693 C691 1.384 . S
H694 C700 0.907 1_554 S
H695 C704 0.907 1_556 S
H696 C709 0.929 . S
H697 C707 0.929 . S
H698 C702 0.929 . S
H699 C708 0.929 . S
C700 H694 0.907 1_556 S
C700 C701 1.409 . S
C700 C708 1.361 1_556 S
C701 C700 1.409 . S
C701 C709 1.433 1_455 S
C702 H698 0.929 . S
C702 C704 1.361 1_556 S
C702 C706 1.350 1_556 S
C703 C706 1.463 1_456 S
C703 C708 1.350 1_556 S
C703 N711 1.427 1_455 S
C704 H695 0.907 1_554 S
C704 C702 1.361 1_554 S
C704 C705 1.409 . S
C705 C704 1.409 . S
C705 C707 1.433 1_655 S
C706 C702 1.350 1_554 S
C706 C703 1.463 1_654 S
C706 N710 1.427 1_655 S
C707 H697 0.929 . S
C707 C705 1.433 1_455 S
C707 N710 1.384 . S
C708 H699 0.929 . S
C708 C700 1.361 1_554 S
C708 C703 1.350 1_554 S
C709 H696 0.929 . S
C709 C701 1.433 1_655 S
C709 N711 1.384 . S
N710 C706 1.427 1_455 S
N710 C707 1.384 . S
N711 C703 1.427 1_655 S
N711 C709 1.384 . S
H712 C718 0.930 . S
H713 C722 0.930 . S
H714 C727 0.929 . S
H715 C725 0.929 . S
H716 C720 0.929 . S
H717 C726 0.929 . S
C718 H712 0.930 . S
C718 C719 1.367 . S
C718 C726 1.378 . S
C719 C718 1.367 . S
C719 C727 1.433 . S
C720 H716 0.929 . S
C720 C722 1.378 . S
C720 C724 1.350 . S
C721 C724 1.463 . S
C721 C726 1.350 . S
C721 N729 1.427 . S
C722 H713 0.930 . S
C722 C720 1.378 . S
C722 C723 1.367 . S
C723 C722 1.367 . S
C723 C725 1.433 . S
C724 C720 1.350 . S
C724 C721 1.463 . S
C724 N728 1.427 . S
C725 H715 0.929 . S
C725 C723 1.433 . S
C725 N728 1.384 . S
C726 H717 0.929 . S
C726 C718 1.378 . S
C726 C721 1.350 . S
C727 H714 0.929 . S
C727 C719 1.433 . S
C727 N729 1.384 . S
N728 C724 1.427 . S
N728 C725 1.384 . S
N729 C721 1.427 . S
N729 C727 1.384 . S
H730 C736 0.930 . S
H731 C740 0.930 . S
H732 C745 0.929 . S
H733 C743 0.929 . S
H734 C738 0.929 . S
H735 C744 0.929 . S
C736 H730 0.930 . S
C736 C737 1.367 . S
C736 C744 1.378 . S
C737 C736 1.367 . S
C737 C745 1.433 . S
C738 H734 0.929 . S
C738 C740 1.378 . S
C738 C742 1.350 . S
C739 C742 1.463 . S
C739 C744 1.350 . S
C739 N747 1.427 . S
C740 H731 0.930 . S
C740 C738 1.378 . S
C740 C741 1.367 . S
C741 C740 1.367 . S
C741 C743 1.433 . S
C742 C738 1.350 . S
C742 C739 1.463 . S
C742 N746 1.427 . S
C743 H733 0.929 . S
C743 C741 1.433 . S
C743 N746 1.384 . S
C744 H735 0.929 . S
C744 C736 1.378 . S
C744 C739 1.350 . S
C745 H732 0.929 . S
C745 C737 1.433 . S
C745 N747 1.384 . S
N746 C742 1.427 . S
N746 C743 1.384 . S
N747 C739 1.427 . S
N747 C745 1.384 . S
H748 C754 0.930 . S
H749 C758 0.930 . S
H750 C763 0.929 . S
H751 C761 0.929 . S
H752 C756 0.929 . S
H753 C762 0.929 . S
C754 H748 0.930 . S
C754 C755 1.367 . S
C754 C762 1.378 . S
C755 C754 1.367 . S
C755 C763 1.433 1_455 S
C756 H752 0.929 . S
C756 C758 1.378 . S
C756 C760 1.350 . S
C757 C760 1.463 1_464 S
C757 C762 1.350 . S
C757 N765 1.427 1_455 S
C758 H749 0.930 . S
C758 C756 1.378 . S
C758 C759 1.367 . S
C759 C758 1.367 . S
C759 C761 1.433 1_655 S
C760 C756 1.350 . S
C760 C757 1.463 1_646 S
C760 N764 1.427 1_655 S
C761 H751 0.929 . S
C761 C759 1.433 1_455 S
C761 N764 1.384 . S
C762 H753 0.929 . S
C762 C754 1.378 . S
C762 C757 1.350 . S
C763 H750 0.929 . S
C763 C755 1.433 1_655 S
C763 N765 1.384 . S
N764 C760 1.427 1_455 S
N764 C761 1.384 . S
N765 C757 1.427 1_655 S
N765 C763 1.384 . S
H766 C772 0.930 . S
H767 C776 0.930 . S
H768 C781 0.929 . S
H769 C779 0.929 . S
H770 C774 0.929 . S
H771 C780 0.929 . S
C772 H766 0.930 . S
C772 C773 1.367 . S
C772 C780 1.378 . S
C773 C772 1.367 . S
C773 C781 1.433 . S
C774 H770 0.929 . S
C774 C776 1.378 . S
C774 C778 1.350 . S
C775 C778 1.463 1_565 S
C775 C780 1.350 . S
C775 N783 1.427 . S
C776 H767 0.930 . S
C776 C774 1.378 . S
C776 C777 1.367 . S
C777 C776 1.367 . S
C777 C779 1.433 . S
C778 C774 1.350 . S
C778 C775 1.463 1_545 S
C778 N782 1.427 . S
C779 H769 0.929 . S
C779 C777 1.433 . S
C779 N782 1.384 . S
C780 H771 0.929 . S
C780 C772 1.378 . S
C780 C775 1.350 . S
C781 H768 0.929 . S
C781 C773 1.433 . S
C781 N783 1.384 . S
N782 C778 1.427 . S
N782 C779 1.384 . S
N783 C775 1.427 . S
N783 C781 1.384 . S
H784 C790 0.930 1_565 S
H785 C794 0.930 . S
H786 C799 0.929 . S
H787 C797 0.929 1_554 S
H788 C792 0.929 . S
H789 C798 0.929 1_565 S
C790 H784 0.930 1_545 S
C790 C791 1.367 . S
C790 C798 1.378 . S
C791 C790 1.367 . S
C791 C799 1.433 . S
C792 H788 0.929 . S
C792 C794 1.378 1_556 S
C792 C796 1.350 . S
C793 C796 1.463 . S
C793 C798 1.350 . S
C793 N801 1.427 . S
C794 H785 0.930 . S
C794 C792 1.378 1_554 S
C794 C795 1.367 . S
C795 C794 1.367 . S
C795 C797 1.433 1_544 S
C796 C792 1.350 . S
C796 C793 1.463 . S
C796 N800 1.407 1_545 S
C797 H787 0.929 1_556 S
C797 C795 1.433 1_566 S
C797 N800 1.387 . S
C798 H789 0.929 1_545 S
C798 C790 1.378 . S
C798 C793 1.350 . S
C799 H786 0.929 . S
C799 C791 1.433 . S
C799 N801 1.384 . S
N800 C796 1.407 1_565 S
N800 C797 1.387 . S
N801 C793 1.427 . S
N801 C799 1.384 . S
H802 C808 0.930 . S
H803 C812 0.930 . S
H804 C817 0.929 . S
H805 C815 0.929 . S
H806 C810 0.929 . S
H807 C816 0.929 . S
C808 H802 0.930 . S
C808 C809 1.367 . S
C808 C816 1.378 . S
C809 C808 1.367 . S
C809 C817 1.433 . S
C810 H806 0.929 . S
C810 C812 1.378 . S
C810 C814 1.350 . S
C811 C814 1.463 . S
C811 C816 1.350 . S
C811 N819 1.427 . S
C812 H803 0.930 . S
C812 C810 1.378 . S
C812 C813 1.367 . S
C813 C812 1.367 . S
C813 C815 1.433 . S
C814 C810 1.350 . S
C814 C811 1.463 . S
C814 N818 1.427 . S
C815 H805 0.929 . S
C815 C813 1.433 . S
C815 N818 1.384 . S
C816 H807 0.929 . S
C816 C808 1.378 . S
C816 C811 1.350 . S
C817 H804 0.929 . S
C817 C809 1.433 . S
C817 N819 1.384 . S
N818 C814 1.427 . S
N818 C815 1.384 . S
N819 C811 1.427 . S
N819 C817 1.384 . S
H820 C826 0.930 . S
H821 C830 0.930 1_545 S
H822 C835 0.929 . S
H823 C833 0.929 . S
H824 C828 0.929 1_545 S
H825 C834 0.929 . S
C826 H820 0.930 . S
C826 C827 1.367 . S
C826 C834 1.378 . S
C827 C826 1.367 . S
C827 C835 1.433 1_565 S
C828 H824 0.929 1_565 S
C828 C830 1.378 . S
C828 C832 1.350 . S
C829 C832 1.463 . S
C829 C834 1.350 . S
C829 N837 1.427 1_565 S
C830 H821 0.930 1_565 S
C830 C828 1.378 . S
C830 C831 1.367 . S
C831 C830 1.367 . S
C831 C833 1.433 . S
C832 C828 1.350 . S
C832 C829 1.463 . S
C832 N836 1.427 . S
C833 H823 0.929 . S
C833 C831 1.433 . S
C833 N836 1.384 . S
C834 H825 0.929 . S
C834 C826 1.378 . S
C834 C829 1.350 . S
C835 H822 0.929 . S
C835 C827 1.433 1_545 S
C835 N837 1.384 . S
N836 C832 1.427 . S
N836 C833 1.384 . S
N837 C829 1.427 1_545 S
N837 C835 1.384 . S
H838 C844 0.930 . S
H839 C848 0.930 . S
H840 C853 0.929 . S
H841 C851 0.929 . S
H842 C846 0.929 . S
H843 C852 0.929 . S
C844 H838 0.930 . S
C844 C845 1.367 . S
C844 C852 1.378 . S
C845 C844 1.367 . S
C845 C853 1.433 . S
C846 H842 0.929 . S
C846 C848 1.378 . S
C846 C850 1.350 . S
C847 C850 1.463 . S
C847 C852 1.350 . S
C847 N855 1.427 . S
C848 H839 0.930 . S
C848 C846 1.378 . S
C848 C849 1.367 . S
C849 C848 1.367 . S
C849 C851 1.433 . S
C850 C846 1.350 . S
C850 C847 1.463 . S
C850 N854 1.427 . S
C851 H841 0.929 . S
C851 C849 1.433 . S
C851 N854 1.384 . S
C852 H843 0.929 . S
C852 C844 1.378 . S
C852 C847 1.350 . S
C853 H840 0.929 . S
C853 C845 1.433 . S
C853 N855 1.384 . S
N854 C850 1.427 . S
N854 C851 1.384 . S
N855 C847 1.427 . S
N855 C853 1.384 . S
H856 C862 0.930 . S
H857 C866 0.930 1_556 S
H858 C871 0.929 . S
H859 C869 0.952 . S
H860 C864 0.929 1_545 S
H861 C870 0.929 . S
C862 H856 0.930 . S
C862 C863 1.367 . S
C862 C870 1.378 . S
C863 C862 1.367 . S
C863 C871 1.433 . S
C864 H860 0.929 1_565 S
C864 C866 1.379 1_565 S
C864 C868 1.350 . S
C865 C868 1.463 . S
C865 C870 1.350 . S
C865 N873 1.427 . S
C866 H857 0.930 1_554 S
C866 C864 1.379 1_545 S
C866 C867 1.366 1_544 S
C867 C866 1.366 1_566 S
C867 C869 1.453 . S
C868 C864 1.350 . S
C868 C865 1.463 . S
C868 N872 1.427 . S
C869 H859 0.952 . S
C869 C867 1.453 . S
C869 N872 1.342 1_556 S
C870 H861 0.929 . S
C870 C862 1.378 . S
C870 C865 1.350 . S
C871 H858 0.929 . S
C871 C863 1.433 . S
C871 N873 1.384 . S
N872 C868 1.427 . S
N872 C869 1.342 1_554 S
N873 C865 1.427 . S
N873 C871 1.384 . S
H874 C880 0.930 . S
H875 C884 0.930 . S
H876 C889 0.929 . S
H877 C887 0.929 . S
H878 C882 0.929 . S
H879 C888 0.929 . S
C880 H874 0.930 . S
C880 C881 1.367 . S
C880 C888 1.378 . S
C881 C880 1.367 . S
C881 C889 1.433 . S
C882 H878 0.929 . S
C882 C884 1.378 . S
C882 C886 1.350 . S
C883 C886 1.463 . S
C883 C888 1.350 . S
C883 N891 1.427 . S
C884 H875 0.930 . S
C884 C882 1.378 . S
C884 C885 1.367 . S
C885 C884 1.367 . S
C885 C887 1.433 . S
C886 C882 1.350 . S
C886 C883 1.463 . S
C886 N890 1.427 . S
C887 H877 0.929 . S
C887 C885 1.433 . S
C887 N890 1.384 . S
C888 H879 0.929 . S
C888 C880 1.378 . S
C888 C883 1.350 . S
C889 H876 0.929 . S
C889 C881 1.433 . S
C889 N891 1.384 . S
N890 C886 1.427 . S
N890 C887 1.384 . S
N891 C883 1.427 . S
N891 C889 1.384 . S
H892 C898 0.930 . S
H893 C902 0.930 . S
H894 C907 0.929 . S
H895 C905 0.929 . S
H896 C900 0.929 1_565 S
H897 C906 0.929 . S
C898 H892 0.930 . S
C898 C899 1.367 . S
C898 C906 1.378 . S
C899 C898 1.367 . S
C899 C907 1.433 1_545 S
C900 H896 0.929 1_545 S
C900 C902 1.378 . S
C900 C904 1.350 . S
C901 C904 1.463 . S
C901 C906 1.350 . S
C901 N909 1.427 . S
C902 H893 0.930 . S
C902 C900 1.378 . S
C902 C903 1.367 . S
C903 C902 1.367 . S
C903 C905 1.433 . S
C904 C900 1.350 . S
C904 C901 1.463 . S
C904 N908 1.427 . S
C905 H895 0.929 . S
C905 C903 1.433 . S
C905 N908 1.384 . S
C906 H897 0.929 . S
C906 C898 1.378 . S
C906 C901 1.350 . S
C907 H894 0.929 . S
C907 C899 1.433 1_565 S
C907 N909 1.384 1_565 S
N908 C904 1.427 . S
N908 C905 1.384 . S
N909 C901 1.427 . S
N909 C907 1.384 1_545 S
H910 C916 0.930 . S
H911 C920 0.930 . S
H912 C925 0.929 . S
H913 C923 0.929 . S
H914 C918 0.929 . S
H915 C924 0.929 . S
C916 H910 0.930 . S
C916 C917 1.367 . S
C916 C924 1.378 . S
C917 C916 1.367 . S
C917 C925 1.433 . S
C918 H914 0.929 . S
C918 C920 1.378 . S
C918 C922 1.350 . S
C919 C922 1.463 . S
C919 C924 1.350 . S
C919 N927 1.427 . S
C920 H911 0.930 . S
C920 C918 1.378 . S
C920 C921 1.367 . S
C921 C920 1.367 . S
C921 C923 1.433 . S
C922 C918 1.350 . S
C922 C919 1.463 . S
C922 N926 1.427 . S
C923 H913 0.929 . S
C923 C921 1.433 . S
C923 N926 1.384 . S
C924 H915 0.929 . S
C924 C916 1.378 . S
C924 C919 1.350 . S
C925 H912 0.929 . S
C925 C917 1.433 . S
C925 N927 1.384 . S
N926 C922 1.427 . S
N926 C923 1.384 . S
N927 C919 1.427 . S
N927 C925 1.384 . S
H928 C934 0.930 . S
H929 C938 0.930 . S
H930 C943 0.929 . S
H931 C941 0.929 . S
H932 C936 0.929 . S
H933 C942 0.929 . S
C934 H928 0.930 . S
C934 C935 1.367 . S
C934 C942 1.378 . S
C935 C934 1.367 . S
C935 C943 1.433 . S
C936 H932 0.929 . S
C936 C938 1.378 . S
C936 C940 1.350 . S
C937 C940 1.463 . S
C937 C942 1.350 . S
C937 N945 1.427 . S
C938 H929 0.930 . S
C938 C936 1.378 . S
C938 C939 1.367 . S
C939 C938 1.367 . S
C939 C941 1.433 . S
C940 C936 1.350 . S
C940 C937 1.463 . S
C940 N944 1.427 . S
C941 H931 0.929 . S
C941 C939 1.433 . S
C941 N944 1.384 . S
C942 H933 0.929 . S
C942 C934 1.378 . S
C942 C937 1.350 . S
C943 H930 0.929 . S
C943 C935 1.433 . S
C943 N945 1.384 . S
N944 C940 1.427 . S
N944 C941 1.384 . S
N945 C937 1.427 . S
N945 C943 1.384 . S
H946 C952 0.930 1_545 S
H947 C956 0.930 . S
H948 C961 0.929 . S
H949 C959 0.929 . S
H950 C954 0.929 . S
H951 C960 0.929 1_545 S
C952 H946 0.930 1_565 S
C952 C953 1.367 . S
C952 C960 1.378 . S
C953 C952 1.367 . S
C953 C961 1.433 . S
C954 H950 0.929 . S
C954 C956 1.378 . S
C954 C958 1.350 . S
C955 C958 1.463 . S
C955 C960 1.350 . S
C955 N963 1.427 . S
C956 H947 0.930 . S
C956 C954 1.378 . S
C956 C957 1.367 . S
C957 C956 1.367 . S
C957 C959 1.433 . S
C958 C954 1.350 . S
C958 C955 1.463 . S
C958 N962 1.427 . S
C959 H949 0.929 . S
C959 C957 1.433 . S
C959 N962 1.384 . S
C960 H951 0.929 1_565 S
C960 C952 1.378 . S
C960 C955 1.350 . S
C961 H948 0.929 . S
C961 C953 1.433 . S
C961 N963 1.384 . S
N962 C958 1.427 . S
N962 C959 1.384 . S
N963 C955 1.427 . S
N963 C961 1.384 . S
H964 C970 0.930 . S
H965 C974 0.930 . S
H966 C979 0.905 1_554 S
H967 C977 0.929 . S
H968 C972 0.929 . S
H969 C978 0.929 . S
C970 H964 0.930 . S
C970 C971 1.367 . S
C970 C978 1.378 1_554 S
C971 C970 1.367 . S
C971 C979 1.403 1_554 S
C972 H968 0.929 . S
C972 C974 1.378 . S
C972 C976 1.350 . S
C973 C976 1.463 . S
C973 C978 1.350 . S
C973 N981 1.427 . S
C974 H965 0.930 . S
C974 C972 1.378 . S
C974 C975 1.367 . S
C975 C974 1.367 . S
C975 C977 1.433 . S
C976 C972 1.350 . S
C976 C973 1.463 . S
C976 N980 1.427 . S
C977 H967 0.929 . S
C977 C975 1.433 . S
C977 N980 1.384 . S
C978 H969 0.929 . S
C978 C970 1.378 1_556 S
C978 C973 1.350 . S
C979 H966 0.905 1_556 S
C979 C971 1.403 1_556 S
C979 N981 1.442 . S
N980 C976 1.427 . S
N980 C977 1.384 . S
N981 C973 1.427 . S
N981 C979 1.442 . S
H982 C988 0.930 . S
H983 C992 0.930 . S
H984 C997 0.929 . S
H985 C995 0.929 . S
H986 C990 0.929 . S
H987 C996 0.929 . S
C988 H982 0.930 . S
C988 C989 1.367 . S
C988 C996 1.378 . S
C989 C988 1.367 . S
C989 C997 1.433 . S
C990 H986 0.929 . S
C990 C992 1.378 . S
C990 C994 1.350 . S
C991 C994 1.463 . S
C991 C996 1.350 . S
C991 N999 1.427 . S
C992 H983 0.930 . S
C992 C990 1.378 . S
C992 C993 1.367 . S
C993 C992 1.367 . S
C993 C995 1.433 . S
C994 C990 1.350 . S
C994 C991 1.463 . S
C994 N998 1.427 . S
C995 H985 0.929 . S
C995 C993 1.433 . S
C995 N998 1.384 . S
C996 H987 0.929 . S
C996 C988 1.378 . S
C996 C991 1.350 . S
C997 H984 0.929 . S
C997 C989 1.433 . S
C997 N999 1.384 . S
N998 C994 1.427 . S
N998 C995 1.384 . S
N999 C991 1.427 . S
N999 C997 1.384 . S
H1000 C1006 0.930 . S
H1001 C1010 0.930 . S
H1002 C1015 0.929 . S
H1003 C1013 0.929 . S
H1004 C1008 0.929 . S
H1005 C1014 0.929 . S
C1006 H1000 0.930 . S
C1006 C1007 1.367 . S
C1006 C1014 1.378 . S
C1007 C1006 1.367 . S
C1007 C1015 1.433 . S
C1008 H1004 0.929 . S
C1008 C1010 1.378 . S
C1008 C1012 1.350 . S
C1009 C1012 1.463 . S
C1009 C1014 1.350 . S
C1009 N1017 1.427 . S
C1010 H1001 0.930 . S
C1010 C1008 1.378 . S
C1010 C1011 1.367 . S
C1011 C1010 1.367 . S
C1011 C1013 1.433 . S
C1012 C1008 1.350 . S
C1012 C1009 1.463 . S
C1012 N1016 1.427 . S
C1013 H1003 0.929 . S
C1013 C1011 1.433 . S
C1013 N1016 1.384 . S
C1014 H1005 0.929 . S
C1014 C1006 1.378 . S
C1014 C1009 1.350 . S
C1015 H1002 0.929 . S
C1015 C1007 1.433 . S
C1015 N1017 1.384 . S
N1016 C1012 1.427 . S
N1016 C1013 1.384 . S
N1017 C1009 1.427 . S
N1017 C1015 1.384 . S
H1018 C1024 0.930 . S
H1019 C1028 0.930 . S
H1020 C1033 0.929 1_565 S
H1021 C1031 0.929 . S
H1022 C1026 0.929 1_565 S
H1023 C1032 0.929 . S
C1024 H1018 0.930 . S
C1024 C1025 1.367 . S
C1024 C1032 1.378 . S
C1025 C1024 1.367 . S
C1025 C1033 1.433 . S
C1026 H1022 0.929 1_545 S
C1026 C1028 1.378 . S
C1026 C1030 1.350 . S
C1027 C1030 1.463 . S
C1027 C1032 1.350 . S
C1027 N1035 1.427 . S
C1028 H1019 0.930 . S
C1028 C1026 1.378 . S
C1028 C1029 1.367 . S
C1029 C1028 1.367 . S
C1029 C1031 1.433 . S
C1030 C1026 1.350 . S
C1030 C1027 1.463 . S
C1030 N1034 1.427 . S
C1031 H1021 0.929 . S
C1031 C1029 1.433 . S
C1031 N1034 1.384 . S
C1032 H1023 0.929 . S
C1032 C1024 1.378 . S
C1032 C1027 1.350 . S
C1033 H1020 0.929 1_545 S
C1033 C1025 1.433 . S
C1033 N1035 1.384 . S
N1034 C1030 1.427 . S
N1034 C1031 1.384 . S
N1035 C1027 1.427 . S
N1035 C1033 1.384 . S
H1036 C1042 0.930 . S
H1037 C1046 0.918 1_556 S
H1038 C1051 0.929 . S
H1039 C1049 0.929 . S
H1040 C1044 0.929 . S
H1041 C1050 0.929 . S
C1042 H1036 0.930 . S
C1042 C1043 1.367 . S
C1042 C1050 1.378 . S
C1043 C1042 1.367 . S
C1043 C1051 1.433 . S
C1044 H1040 0.929 . S
C1044 C1046 1.406 . S
C1044 C1048 1.350 . S
C1045 C1048 1.463 . S
C1045 C1050 1.350 . S
C1045 N1053 1.427 . S
C1046 H1037 0.918 1_554 S
C1046 C1044 1.406 . S
C1046 C1047 1.352 1_554 S
C1047 C1046 1.352 1_556 S
C1047 C1049 1.433 . S
C1048 C1044 1.350 . S
C1048 C1045 1.463 . S
C1048 N1052 1.427 . S
C1049 H1039 0.929 . S
C1049 C1047 1.433 . S
C1049 N1052 1.384 1_556 S
C1050 H1041 0.929 . S
C1050 C1042 1.378 . S
C1050 C1045 1.350 . S
C1051 H1038 0.929 . S
C1051 C1043 1.433 . S
C1051 N1053 1.384 . S
N1052 C1048 1.427 . S
N1052 C1049 1.384 1_554 S
N1053 C1045 1.427 . S
N1053 C1051 1.384 . S
H1054 C1060 0.930 1_545 S
H1055 C1064 0.930 . S
H1056 C1069 0.929 . S
H1057 C1067 0.929 . S
H1058 C1062 0.929 . S
H1059 C1068 0.929 1_545 S
C1060 H1054 0.930 1_565 S
C1060 C1061 1.367 . S
C1060 C1068 1.378 . S
C1061 C1060 1.367 . S
C1061 C1069 1.433 . S
C1062 H1058 0.929 . S
C1062 C1064 1.378 . S
C1062 C1066 1.350 . S
C1063 C1066 1.463 . S
C1063 C1068 1.350 . S
C1063 N1071 1.427 . S
C1064 H1055 0.930 . S
C1064 C1062 1.378 . S
C1064 C1065 1.367 . S
C1065 C1064 1.367 . S
C1065 C1067 1.433 . S
C1066 C1062 1.350 . S
C1066 C1063 1.463 . S
C1066 N1070 1.427 . S
C1067 H1057 0.929 . S
C1067 C1065 1.433 . S
C1067 N1070 1.384 . S
C1068 H1059 0.929 1_565 S
C1068 C1060 1.378 . S
C1068 C1063 1.350 . S
C1069 H1056 0.929 . S
C1069 C1061 1.433 . S
C1069 N1071 1.384 . S
N1070 C1066 1.427 . S
N1070 C1067 1.384 . S
N1071 C1063 1.427 . S
N1071 C1069 1.384 . S
H1072 C1078 0.930 . S
H1073 C1082 0.930 . S
H1074 C1087 0.929 . S
H1075 C1085 0.929 . S
H1076 C1080 0.929 . S
H1077 C1086 0.929 . S
C1078 H1072 0.930 . S
C1078 C1079 1.367 . S
C1078 C1086 1.378 . S
C1079 C1078 1.367 . S
C1079 C1087 1.433 . S
C1080 H1076 0.929 . S
C1080 C1082 1.378 . S
C1080 C1084 1.350 . S
C1081 C1084 1.463 . S
C1081 C1086 1.350 . S
C1081 N1089 1.427 . S
C1082 H1073 0.930 . S
C1082 C1080 1.378 . S
C1082 C1083 1.367 . S
C1083 C1082 1.367 . S
C1083 C1085 1.433 . S
C1084 C1080 1.350 . S
C1084 C1081 1.463 . S
C1084 N1088 1.427 . S
C1085 H1075 0.929 . S
C1085 C1083 1.433 . S
C1085 N1088 1.384 . S
C1086 H1077 0.929 . S
C1086 C1078 1.378 . S
C1086 C1081 1.350 . S
C1087 H1074 0.929 . S
C1087 C1079 1.433 . S
C1087 N1089 1.384 . S
N1088 C1084 1.427 . S
N1088 C1085 1.384 . S
N1089 C1081 1.427 . S
N1089 C1087 1.384 . S
H1090 C1096 0.930 . S
H1091 C1100 0.930 . S
H1092 C1105 0.929 . S
H1093 C1103 0.929 . S
H1094 C1098 0.929 . S
H1095 C1104 0.929 . S
C1096 H1090 0.930 . S
C1096 C1097 1.367 . S
C1096 C1104 1.378 . S
C1097 C1096 1.367 . S
C1097 C1105 1.433 . S
C1098 H1094 0.929 . S
C1098 C1100 1.378 . S
C1098 C1102 1.350 . S
C1099 C1102 1.463 . S
C1099 C1104 1.350 . S
C1099 N1107 1.427 . S
C1100 H1091 0.930 . S
C1100 C1098 1.378 . S
C1100 C1101 1.367 . S
C1101 C1100 1.367 . S
C1101 C1103 1.433 . S
C1102 C1098 1.350 . S
C1102 C1099 1.463 . S
C1102 N1106 1.427 . S
C1103 H1093 0.929 . S
C1103 C1101 1.433 . S
C1103 N1106 1.384 . S
C1104 H1095 0.929 . S
C1104 C1096 1.378 . S
C1104 C1099 1.350 . S
C1105 H1092 0.929 . S
C1105 C1097 1.433 . S
C1105 N1107 1.384 . S
N1106 C1102 1.427 . S
N1106 C1103 1.384 . S
N1107 C1099 1.427 . S
N1107 C1105 1.384 . S
H1108 C1114 0.930 . S
H1109 C1118 0.930 . S
H1110 C1123 0.929 . S
H1111 C1121 0.929 . S
H1112 C1116 0.929 . S
H1113 C1122 0.929 . S
C1114 H1108 0.930 . S
C1114 C1115 1.367 . S
C1114 C1122 1.378 . S
C1115 C1114 1.367 . S
C1115 C1123 1.433 . S
C1116 H1112 0.929 . S
C1116 C1118 1.378 . S
C1116 C1120 1.350 . S
C1117 C1120 1.463 1_655 S
C1117 C1122 1.350 . S
C1117 N1125 1.427 . S
C1118 H1109 0.930 . S
C1118 C1116 1.378 . S
C1118 C1119 1.367 . S
C1119 C1118 1.367 . S
C1119 C1121 1.433 . S
C1120 C1116 1.350 . S
C1120 C1117 1.463 1_455 S
C1120 N1124 1.427 . S
C1121 H1111 0.929 . S
C1121 C1119 1.433 . S
C1121 N1124 1.384 . S
C1122 H1113 0.929 . S
C1122 C1114 1.378 . S
C1122 C1117 1.350 . S
C1123 H1110 0.929 . S
C1123 C1115 1.433 . S
C1123 N1125 1.384 . S
N1124 C1120 1.427 . S
N1124 C1121 1.384 . S
N1125 C1117 1.427 . S
N1125 C1123 1.384 . S
H1126 C1132 0.930 . S
H1127 C1136 0.930 . S
H1128 C1141 0.929 . S
H1129 C1139 0.929 . S
H1130 C1134 0.929 . S
H1131 C1140 0.929 . S
C1132 H1126 0.930 . S
C1132 C1133 1.367 . S
C1132 C1140 1.378 . S
C1133 C1132 1.367 . S
C1133 C1141 1.433 . S
C1134 H1130 0.929 . S
C1134 C1136 1.378 . S
C1134 C1138 1.350 . S
C1135 C1138 1.463 1_655 S
C1135 C1140 1.350 . S
C1135 N1143 1.427 1_655 S
C1136 H1127 0.930 . S
C1136 C1134 1.378 . S
C1136 C1137 1.367 . S
C1137 C1136 1.367 . S
C1137 C1139 1.433 . S
C1138 C1134 1.350 . S
C1138 C1135 1.463 1_455 S
C1138 N1142 1.427 1_455 S
C1139 H1129 0.929 . S
C1139 C1137 1.433 . S
C1139 N1142 1.384 1_455 S
C1140 H1131 0.929 . S
C1140 C1132 1.378 . S
C1140 C1135 1.350 . S
C1141 H1128 0.929 . S
C1141 C1133 1.433 . S
C1141 N1143 1.384 1_655 S
N1142 C1138 1.427 1_655 S
N1142 C1139 1.384 1_655 S
N1143 C1135 1.427 1_455 S
N1143 C1141 1.384 1_455 S
H1144 C1150 0.930 . S
H1145 C1154 0.930 . S
H1146 C1159 0.929 . S
H1147 C1157 0.929 . S
H1148 C1152 0.929 . S
H1149 C1158 0.929 . S
C1150 H1144 0.930 . S
C1150 C1151 1.367 . S
C1150 C1158 1.378 . S
C1151 C1150 1.367 . S
C1151 C1159 1.433 . S
C1152 H1148 0.929 . S
C1152 C1154 1.378 . S
C1152 C1156 1.350 . S
C1153 C1156 1.463 . S
C1153 C1158 1.350 . S
C1153 N1161 1.427 . S
C1154 H1145 0.930 . S
C1154 C1152 1.378 . S
C1154 C1155 1.367 . S
C1155 C1154 1.367 . S
C1155 C1157 1.433 . S
C1156 C1152 1.350 . S
C1156 C1153 1.463 . S
C1156 N1160 1.427 . S
C1157 H1147 0.929 . S
C1157 C1155 1.433 . S
C1157 N1160 1.384 . S
C1158 H1149 0.929 . S
C1158 C1150 1.378 . S
C1158 C1153 1.350 . S
C1159 H1146 0.929 . S
C1159 C1151 1.433 . S
C1159 N1161 1.384 . S
N1160 C1156 1.427 . S
N1160 C1157 1.384 . S
N1161 C1153 1.427 . S
N1161 C1159 1.384 . S
H1162 C1168 0.930 . S
H1163 C1172 0.930 . S
H1164 C1177 0.929 . S
H1165 C1175 0.929 . S
H1166 C1170 0.929 . S
H1167 C1176 0.929 . S
C1168 H1162 0.930 . S
C1168 C1169 1.367 . S
C1168 C1176 1.378 . S
C1169 C1168 1.367 . S
C1169 C1177 1.433 . S
C1170 H1166 0.929 . S
C1170 C1172 1.378 . S
C1170 C1174 1.350 . S
C1171 C1174 1.463 . S
C1171 C1176 1.350 . S
C1171 N1179 1.427 . S
C1172 H1163 0.930 . S
C1172 C1170 1.378 . S
C1172 C1173 1.367 . S
C1173 C1172 1.367 . S
C1173 C1175 1.433 . S
C1174 C1170 1.350 . S
C1174 C1171 1.463 . S
C1174 N1178 1.427 . S
C1175 H1165 0.929 . S
C1175 C1173 1.433 . S
C1175 N1178 1.384 . S
C1176 H1167 0.929 . S
C1176 C1168 1.378 . S
C1176 C1171 1.350 . S
C1177 H1164 0.929 . S
C1177 C1169 1.433 . S
C1177 N1179 1.384 . S
N1178 C1174 1.427 . S
N1178 C1175 1.384 . S
N1179 C1171 1.427 . S
N1179 C1177 1.384 . S
H1180 C1186 0.930 . S
H1181 C1190 0.930 . S
H1182 C1195 0.929 . S
H1183 C1193 0.929 . S
H1184 C1188 0.929 . S
H1185 C1194 0.929 . S
C1186 H1180 0.930 . S
C1186 C1187 1.367 . S
C1186 C1194 1.378 . S
C1187 C1186 1.367 . S
C1187 C1195 1.433 . S
C1188 H1184 0.929 . S
C1188 C1190 1.378 . S
C1188 C1192 1.350 . S
C1189 C1192 1.463 1_455 S
C1189 C1194 1.350 . S
C1189 N1197 1.427 . S
C1190 H1181 0.930 . S
C1190 C1188 1.378 . S
C1190 C1191 1.367 . S
C1191 C1190 1.367 . S
C1191 C1193 1.433 . S
C1192 C1188 1.350 . S
C1192 C1189 1.463 1_655 S
C1192 N1196 1.427 . S
C1193 H1183 0.929 . S
C1193 C1191 1.433 . S
C1193 N1196 1.384 . S
C1194 H1185 0.929 . S
C1194 C1186 1.378 . S
C1194 C1189 1.350 . S
C1195 H1182 0.929 . S
C1195 C1187 1.433 . S
C1195 N1197 1.384 . S
N1196 C1192 1.427 . S
N1196 C1193 1.384 . S
N1197 C1189 1.427 . S
N1197 C1195 1.384 . S
H1198 C1204 0.930 . S
H1199 C1208 0.930 . S
H1200 C1213 0.929 . S
H1201 C1211 0.929 . S
H1202 C1206 0.929 . S
H1203 C1212 0.929 . S
C1204 H1198 0.930 . S
C1204 C1205 1.367 . S
C1204 C1212 1.378 . S
C1205 C1204 1.367 . S
C1205 C1213 1.433 . S
C1206 H1202 0.929 . S
C1206 C1208 1.378 . S
C1206 C1210 1.350 . S
C1207 C1210 1.463 1_455 S
C1207 C1212 1.350 . S
C1207 N1215 1.427 . S
C1208 H1199 0.930 . S
C1208 C1206 1.378 . S
C1208 C1209 1.367 . S
C1209 C1208 1.367 . S
C1209 C1211 1.433 . S
C1210 C1206 1.350 . S
C1210 C1207 1.463 1_655 S
C1210 N1214 1.427 . S
C1211 H1201 0.929 . S
C1211 C1209 1.433 . S
C1211 N1214 1.384 . S
C1212 H1203 0.929 . S
C1212 C1204 1.378 . S
C1212 C1207 1.350 . S
C1213 H1200 0.929 . S
C1213 C1205 1.433 . S
C1213 N1215 1.384 . S
N1214 C1210 1.427 . S
N1214 C1211 1.384 . S
N1215 C1207 1.427 . S
N1215 C1213 1.384 . S
H1216 C1222 0.930 . S
H1217 C1226 0.930 . S
H1218 C1231 0.929 . S
H1219 C1229 0.929 . S
H1220 C1224 0.929 . S
H1221 C1230 0.929 . S
C1222 H1216 0.930 . S
C1222 C1223 1.367 . S
C1222 C1230 1.378 . S
C1223 C1222 1.367 . S
C1223 C1231 1.433 . S
C1224 H1220 0.929 . S
C1224 C1226 1.378 . S
C1224 C1228 1.350 . S
C1225 C1228 1.463 . S
C1225 C1230 1.350 . S
C1225 N1233 1.427 . S
C1226 H1217 0.930 . S
C1226 C1224 1.378 . S
C1226 C1227 1.367 . S
C1227 C1226 1.367 . S
C1227 C1229 1.433 . S
C1228 C1224 1.350 . S
C1228 C1225 1.463 . S
C1228 N1232 1.427 . S
C1229 H1219 0.929 . S
C1229 C1227 1.433 . S
C1229 N1232 1.384 . S
C1230 H1221 0.929 . S
C1230 C1222 1.378 . S
C1230 C1225 1.350 . S
C1231 H1218 0.929 . S
C1231 C1223 1.433 . S
C1231 N1233 1.384 . S
N1232 C1228 1.427 . S
N1232 C1229 1.384 . S
N1233 C1225 1.427 . S
N1233 C1231 1.384 . S
H1234 C1240 0.930 . S
H1235 C1244 0.930 . S
H1236 C1249 0.929 . S
H1237 C1247 0.929 . S
H1238 C1242 0.929 . S
H1239 C1248 0.929 . S
C1240 H1234 0.930 . S
C1240 C1241 1.367 . S
C1240 C1248 1.378 . S
C1241 C1240 1.367 . S
C1241 C1249 1.433 . S
C1242 H1238 0.929 . S
C1242 C1244 1.378 . S
C1242 C1246 1.350 . S
C1243 C1246 1.463 . S
C1243 C1248 1.350 . S
C1243 N1251 1.427 . S
C1244 H1235 0.930 . S
C1244 C1242 1.378 . S
C1244 C1245 1.367 . S
C1245 C1244 1.367 . S
C1245 C1247 1.433 . S
C1246 C1242 1.350 . S
C1246 C1243 1.463 . S
C1246 N1250 1.427 . S
C1247 H1237 0.929 . S
C1247 C1245 1.433 . S
C1247 N1250 1.384 . S
C1248 H1239 0.929 . S
C1248 C1240 1.378 . S
C1248 C1243 1.350 . S
C1249 H1236 0.929 . S
C1249 C1241 1.433 . S
C1249 N1251 1.384 . S
N1250 C1246 1.427 . S
N1250 C1247 1.384 . S
N1251 C1243 1.427 . S
N1251 C1249 1.384 . S
H1252 C1258 0.930 . S
H1253 C1262 0.930 . S
H1254 C1267 0.929 . S
H1255 C1265 0.929 . S
H1256 C1260 0.929 . S
H1257 C1266 0.929 . S
C1258 H1252 0.930 . S
C1258 C1259 1.367 . S
C1258 C1266 1.378 . S
C1259 C1258 1.367 . S
C1259 C1267 1.433 . S
C1260 H1256 0.929 . S
C1260 C1262 1.378 . S
C1260 C1264 1.350 . S
C1261 C1264 1.463 . S
C1261 C1266 1.350 . S
C1261 N1269 1.427 . S
C1262 H1253 0.930 . S
C1262 C1260 1.378 . S
C1262 C1263 1.367 . S
C1263 C1262 1.367 . S
C1263 C1265 1.433 . S
C1264 C1260 1.350 . S
C1264 C1261 1.463 . S
C1264 N1268 1.427 . S
C1265 H1255 0.929 . S
C1265 C1263 1.433 . S
C1265 N1268 1.384 . S
C1266 H1257 0.929 . S
C1266 C1258 1.378 . S
C1266 C1261 1.350 . S
C1267 H1254 0.929 . S
C1267 C1259 1.433 . S
C1267 N1269 1.384 . S
N1268 C1264 1.427 . S
N1268 C1265 1.384 . S
N1269 C1261 1.427 . S
N1269 C1267 1.384 . S
H1270 C1276 0.930 1_655 S
H1271 C1280 0.930 . S
H1272 C1285 0.929 1_655 S
H1273 C1283 0.929 . S
H1274 C1278 0.929 . S
H1275 C1284 0.929 . S
C1276 H1270 0.930 1_455 S
C1276 C1277 1.367 1_455 S
C1276 C1284 1.378 . S
C1277 C1276 1.367 1_655 S
C1277 C1285 1.433 1_655 S
C1278 H1274 0.929 . S
C1278 C1280 1.378 . S
C1278 C1282 1.350 . S
C1279 C1282 1.463 . S
C1279 C1284 1.350 . S
C1279 N1287 1.427 . S
C1280 H1271 0.930 . S
C1280 C1278 1.378 . S
C1280 C1281 1.367 . S
C1281 C1280 1.367 . S
C1281 C1283 1.433 . S
C1282 C1278 1.350 . S
C1282 C1279 1.463 . S
C1282 N1286 1.427 . S
C1283 H1273 0.929 . S
C1283 C1281 1.433 . S
C1283 N1286 1.384 . S
C1284 H1275 0.929 . S
C1284 C1276 1.378 . S
C1284 C1279 1.350 . S
C1285 H1272 0.929 1_455 S
C1285 C1277 1.433 1_455 S
C1285 N1287 1.384 . S
N1286 C1282 1.427 . S
N1286 C1283 1.384 . S
N1287 C1279 1.427 . S
N1287 C1285 1.384 . S
H1288 C1294 0.930 . S
H1289 C1298 0.930 . S
H1290 C1303 0.929 . S
H1291 C1301 0.929 . S
H1292 C1296 0.929 . S
H1293 C1302 0.929 . S
C1294 H1288 0.930 . S
C1294 C1295 1.367 . S
C1294 C1302 1.378 . S
C1295 C1294 1.367 . S
C1295 C1303 1.433 . S
C1296 H1292 0.929 . S
C1296 C1298 1.378 . S
C1296 C1300 1.350 . S
C1297 C1300 1.463 . S
C1297 C1302 1.350 . S
C1297 N1305 1.427 . S
C1298 H1289 0.930 . S
C1298 C1296 1.378 . S
C1298 C1299 1.367 . S
C1299 C1298 1.367 . S
C1299 C1301 1.433 . S
C1300 C1296 1.350 . S
C1300 C1297 1.463 . S
C1300 N1304 1.427 . S
C1301 H1291 0.929 . S
C1301 C1299 1.433 . S
C1301 N1304 1.384 . S
C1302 H1293 0.929 . S
C1302 C1294 1.378 . S
C1302 C1297 1.350 . S
C1303 H1290 0.929 . S
C1303 C1295 1.433 . S
C1303 N1305 1.384 . S
N1304 C1300 1.427 . S
N1304 C1301 1.384 . S
N1305 C1297 1.427 . S
N1305 C1303 1.384 . S
H1306 C1312 0.930 . S
H1307 C1316 0.930 . S
H1308 C1321 0.929 . S
H1309 C1319 0.929 . S
H1310 C1314 0.929 . S
H1311 C1320 0.929 . S
C1312 H1306 0.930 . S
C1312 C1313 1.367 . S
C1312 C1320 1.378 . S
C1313 C1312 1.367 . S
C1313 C1321 1.433 . S
C1314 H1310 0.929 . S
C1314 C1316 1.378 . S
C1314 C1318 1.350 . S
C1315 C1318 1.463 . S
C1315 C1320 1.350 . S
C1315 N1323 1.427 . S
C1316 H1307 0.930 . S
C1316 C1314 1.378 . S
C1316 C1317 1.367 . S
C1317 C1316 1.367 . S
C1317 C1319 1.433 . S
C1318 C1314 1.350 . S
C1318 C1315 1.463 . S
C1318 N1322 1.427 . S
C1319 H1309 0.929 . S
C1319 C1317 1.433 . S
C1319 N1322 1.384 . S
C1320 H1311 0.929 . S
C1320 C1312 1.378 . S
C1320 C1315 1.350 . S
C1321 H1308 0.929 . S
C1321 C1313 1.433 . S
C1321 N1323 1.384 . S
N1322 C1318 1.427 . S
N1322 C1319 1.384 . S
N1323 C1315 1.427 . S
N1323 C1321 1.384 . S
H1324 C1330 0.930 . S
H1325 C1334 0.930 . S
H1326 C1339 0.929 . S
H1327 C1337 0.929 . S
H1328 C1332 0.929 . S
H1329 C1338 0.929 . S
C1330 H1324 0.930 . S
C1330 C1331 1.367 . S
C1330 C1338 1.378 . S
C1331 C1330 1.367 . S
C1331 C1339 1.433 . S
C1332 H1328 0.929 . S
C1332 C1334 1.378 . S
C1332 C1336 1.350 . S
C1333 C1336 1.463 . S
C1333 C1338 1.350 . S
C1333 N1341 1.427 . S
C1334 H1325 0.930 . S
C1334 C1332 1.378 . S
C1334 C1335 1.367 . S
C1335 C1334 1.367 . S
C1335 C1337 1.433 . S
C1336 C1332 1.350 . S
C1336 C1333 1.463 . S
C1336 N1340 1.427 . S
C1337 H1327 0.929 . S
C1337 C1335 1.433 . S
C1337 N1340 1.384 . S
C1338 H1329 0.929 . S
C1338 C1330 1.378 . S
C1338 C1333 1.350 . S
C1339 H1326 0.929 . S
C1339 C1331 1.433 . S
C1339 N1341 1.384 . S
N1340 C1336 1.427 . S
N1340 C1337 1.384 . S
N1341 C1333 1.427 . S
N1341 C1339 1.384 . S
H1342 C1348 0.930 . S
H1343 C1352 0.930 1_455 S
H1344 C1357 0.929 . S
H1345 C1355 0.929 1_455 S
H1346 C1350 0.929 . S
H1347 C1356 0.929 . S
C1348 H1342 0.930 . S
C1348 C1349 1.367 . S
C1348 C1356 1.378 . S
C1349 C1348 1.367 . S
C1349 C1357 1.433 . S
C1350 H1346 0.929 . S
C1350 C1352 1.378 . S
C1350 C1354 1.350 . S
C1351 C1354 1.463 . S
C1351 C1356 1.350 . S
C1351 N1359 1.427 . S
C1352 H1343 0.930 1_655 S
C1352 C1350 1.378 . S
C1352 C1353 1.367 1_655 S
C1353 C1352 1.367 1_455 S
C1353 C1355 1.433 1_455 S
C1354 C1350 1.350 . S
C1354 C1351 1.463 . S
C1354 N1358 1.427 . S
C1355 H1345 0.929 1_655 S
C1355 C1353 1.433 1_655 S
C1355 N1358 1.384 . S
C1356 H1347 0.929 . S
C1356 C1348 1.378 . S
C1356 C1351 1.350 . S
C1357 H1344 0.929 . S
C1357 C1349 1.433 . S
C1357 N1359 1.384 . S
N1358 C1354 1.427 . S
N1358 C1355 1.384 . S
N1359 C1351 1.427 . S
N1359 C1357 1.384 . S
H1360 C1366 0.930 . S
H1361 C1370 0.930 . S
H1362 C1375 0.929 . S
H1363 C1373 0.929 . S
H1364 C1368 0.929 . S
H1365 C1374 0.929 . S
C1366 H1360 0.930 . S
C1366 C1367 1.367 . S
C1366 C1374 1.378 . S
C1367 C1366 1.367 . S
C1367 C1375 1.433 . S
C1368 H1364 0.929 . S
C1368 C1370 1.378 . S
C1368 C1372 1.350 . S
C1369 C1372 1.463 . S
C1369 C1374 1.350 . S
C1369 N1377 1.427 . S
C1370 H1361 0.930 . S
C1370 C1368 1.378 . S
C1370 C1371 1.367 . S
C1371 C1370 1.367 . S
C1371 C1373 1.433 . S
C1372 C1368 1.350 . S
C1372 C1369 1.463 . S
C1372 N1376 1.427 . S
C1373 H1363 0.929 . S
C1373 C1371 1.433 . S
C1373 N1376 1.384 . S
C1374 H1365 0.929 . S
C1374 C1366 1.378 . S
C1374 C1369 1.350 . S
C1375 H1362 0.929 . S
C1375 C1367 1.433 . S
C1375 N1377 1.384 . S
N1376 C1372 1.427 . S
N1376 C1373 1.384 . S
N1377 C1369 1.427 . S
N1377 C1375 1.384 . S
H1378 C1384 0.930 . S
H1379 C1388 0.930 . S
H1380 C1393 0.929 . S
H1381 C1391 0.929 . S
H1382 C1386 0.929 1_545 S
H1383 C1392 0.929 . S
C1384 H1378 0.930 . S
C1384 C1385 1.367 . S
C1384 C1392 1.378 . S
C1385 C1384 1.367 . S
C1385 C1393 1.433 . S
C1386 H1382 0.929 1_565 S
C1386 C1388 1.378 1_565 S
C1386 C1390 1.350 . S
C1387 C1390 1.463 . S
C1387 C1392 1.350 . S
C1387 N1395 1.427 . S
C1388 H1379 0.930 . S
C1388 C1386 1.378 1_545 S
C1388 C1389 1.367 1_645 S
C1389 C1388 1.367 1_465 S
C1389 C1391 1.433 . S
C1390 C1386 1.350 . S
C1390 C1387 1.463 . S
C1390 N1394 1.427 . S
C1391 H1381 0.929 . S
C1391 C1389 1.433 . S
C1391 N1394 1.384 1_455 S
C1392 H1383 0.929 . S
C1392 C1384 1.378 . S
C1392 C1387 1.350 . S
C1393 H1380 0.929 . S
C1393 C1385 1.433 . S
C1393 N1395 1.384 . S
N1394 C1390 1.427 . S
N1394 C1391 1.384 1_655 S
N1395 C1387 1.427 . S
N1395 C1393 1.384 . S
H1396 C1402 0.930 . S
H1397 C1406 0.930 . S
H1398 C1411 0.929 . S
H1399 C1409 0.929 . S
H1400 C1404 0.929 . S
H1401 C1410 0.929 . S
C1402 H1396 0.930 . S
C1402 C1403 1.367 . S
C1402 C1410 1.378 . S
C1403 C1402 1.367 . S
C1403 C1411 1.433 . S
C1404 H1400 0.929 . S
C1404 C1406 1.378 . S
C1404 C1408 1.350 . S
C1405 C1408 1.463 . S
C1405 C1410 1.350 . S
C1405 N1413 1.427 . S
C1406 H1397 0.930 . S
C1406 C1404 1.378 . S
C1406 C1407 1.367 . S
C1407 C1406 1.367 . S
C1407 C1409 1.433 . S
C1408 C1404 1.350 . S
C1408 C1405 1.463 . S
C1408 N1412 1.427 . S
C1409 H1399 0.929 . S
C1409 C1407 1.433 . S
C1409 N1412 1.384 . S
C1410 H1401 0.929 . S
C1410 C1402 1.378 . S
C1410 C1405 1.350 . S
C1411 H1398 0.929 . S
C1411 C1403 1.433 . S
C1411 N1413 1.384 . S
N1412 C1408 1.427 . S
N1412 C1409 1.384 . S
N1413 C1405 1.427 . S
N1413 C1411 1.384 . S
H1414 C1420 0.930 . S
H1415 C1424 0.930 . S
H1416 C1429 0.929 . S
H1417 C1427 0.929 . S
H1418 C1422 0.929 . S
H1419 C1428 0.929 . S
C1420 H1414 0.930 . S
C1420 C1421 1.367 . S
C1420 C1428 1.378 . S
C1421 C1420 1.367 . S
C1421 C1429 1.433 . S
C1422 H1418 0.929 . S
C1422 C1424 1.378 . S
C1422 C1426 1.350 . S
C1423 C1426 1.463 . S
C1423 C1428 1.350 . S
C1423 N1431 1.427 . S
C1424 H1415 0.930 . S
C1424 C1422 1.378 . S
C1424 C1425 1.367 . S
C1425 C1424 1.367 . S
C1425 C1427 1.433 . S
C1426 C1422 1.350 . S
C1426 C1423 1.463 . S
C1426 N1430 1.427 . S
C1427 H1417 0.929 . S
C1427 C1425 1.433 . S
C1427 N1430 1.384 . S
C1428 H1419 0.929 . S
C1428 C1420 1.378 . S
C1428 C1423 1.350 . S
C1429 H1416 0.929 . S
C1429 C1421 1.433 . S
C1429 N1431 1.384 . S
N1430 C1426 1.427 . S
N1430 C1427 1.384 . S
N1431 C1423 1.427 . S
N1431 C1429 1.384 . S
H1432 C1438 0.930 . S
H1433 C1442 0.930 . S
H1434 C1447 0.929 . S
H1435 C1445 0.929 . S
H1436 C1440 0.929 . S
H1437 C1446 0.929 . S
C1438 H1432 0.930 . S
C1438 C1439 1.367 . S
C1438 C1446 1.378 . S
C1439 C1438 1.367 . S
C1439 C1447 1.433 . S
C1440 H1436 0.929 . S
C1440 C1442 1.378 . S
C1440 C1444 1.350 . S
C1441 C1444 1.463 . S
C1441 C1446 1.350 . S
C1441 N1449 1.427 . S
C1442 H1433 0.930 . S
C1442 C1440 1.378 . S
C1442 C1443 1.367 . S
C1443 C1442 1.367 . S
C1443 C1445 1.433 . S
C1444 C1440 1.350 . S
C1444 C1441 1.463 . S
C1444 N1448 1.427 . S
C1445 H1435 0.929 . S
C1445 C1443 1.433 . S
C1445 N1448 1.384 . S
C1446 H1437 0.929 . S
C1446 C1438 1.378 . S
C1446 C1441 1.350 . S
C1447 H1434 0.929 . S
C1447 C1439 1.433 . S
C1447 N1449 1.384 . S
N1448 C1444 1.427 . S
N1448 C1445 1.384 . S
N1449 C1441 1.427 . S
N1449 C1447 1.384 . S
H1450 C1456 0.930 . S
H1451 C1460 0.930 . S
H1452 C1465 0.929 . S
H1453 C1463 0.929 . S
H1454 C1458 0.929 . S
H1455 C1464 0.929 . S
C1456 H1450 0.930 . S
C1456 C1457 1.367 . S
C1456 C1464 1.378 1_655 S
C1457 C1456 1.367 . S
C1457 C1465 1.433 1_645 S
C1458 H1454 0.929 . S
C1458 C1460 1.378 . S
C1458 C1462 1.350 . S
C1459 C1462 1.463 . S
C1459 C1464 1.350 . S
C1459 N1467 1.427 . S
C1460 H1451 0.930 . S
C1460 C1458 1.378 . S
C1460 C1461 1.367 . S
C1461 C1460 1.367 . S
C1461 C1463 1.433 . S
C1462 C1458 1.350 . S
C1462 C1459 1.463 . S
C1462 N1466 1.427 . S
C1463 H1453 0.929 . S
C1463 C1461 1.433 . S
C1463 N1466 1.384 . S
C1464 H1455 0.929 . S
C1464 C1456 1.378 1_455 S
C1464 C1459 1.350 . S
C1465 H1452 0.929 . S
C1465 C1457 1.433 1_465 S
C1465 N1467 1.384 1_565 S
N1466 C1462 1.427 . S
N1466 C1463 1.384 . S
N1467 C1459 1.427 . S
N1467 C1465 1.384 1_545 S
H1468 C1474 0.930 . S
H1469 C1478 0.930 . S
H1470 C1483 0.929 . S
H1471 C1481 0.929 . S
H1472 C1476 0.929 . S
H1473 C1482 0.929 . S
C1474 H1468 0.930 . S
C1474 C1475 1.367 . S
C1474 C1482 1.378 . S
C1475 C1474 1.367 . S
C1475 C1483 1.433 . S
C1476 H1472 0.929 . S
C1476 C1478 1.378 . S
C1476 C1480 1.350 . S
C1477 C1480 1.463 . S
C1477 C1482 1.350 . S
C1477 N1485 1.427 . S
C1478 H1469 0.930 . S
C1478 C1476 1.378 . S
C1478 C1479 1.367 . S
C1479 C1478 1.367 . S
C1479 C1481 1.433 . S
C1480 C1476 1.350 . S
C1480 C1477 1.463 . S
C1480 N1484 1.427 . S
C1481 H1471 0.929 . S
C1481 C1479 1.433 . S
C1481 N1484 1.384 . S
C1482 H1473 0.929 . S
C1482 C1474 1.378 . S
C1482 C1477 1.350 . S
C1483 H1470 0.929 . S
C1483 C1475 1.433 . S
C1483 N1485 1.384 . S
N1484 C1480 1.427 . S
N1484 C1481 1.384 . S
N1485 C1477 1.427 . S
N1485 C1483 1.384 . S
H1486 C1492 0.930 . S
H1487 C1496 0.930 . S
H1488 C1501 0.929 . S
H1489 C1499 0.931 . S
H1490 C1494 0.929 . S
H1491 C1500 0.929 . S
C1492 H1486 0.930 . S
C1492 C1493 1.367 . S
C1492 C1500 1.378 . S
C1493 C1492 1.367 . S
C1493 C1501 1.433 . S
C1494 H1490 0.929 . S
C1494 C1496 1.378 . S
C1494 C1498 1.350 . S
C1495 C1498 1.463 . S
C1495 C1500 1.350 . S
C1495 N1503 1.427 . S
C1496 H1487 0.930 . S
C1496 C1494 1.378 . S
C1496 C1497 1.367 . S
C1497 C1496 1.367 . S
C1497 C1499 1.432 1_565 S
C1498 C1494 1.350 . S
C1498 C1495 1.463 . S
C1498 N1502 1.427 . S
C1499 H1489 0.931 . S
C1499 C1497 1.432 1_545 S
C1499 N1502 1.382 1_545 S
C1500 H1491 0.929 . S
C1500 C1492 1.378 . S
C1500 C1495 1.350 . S
C1501 H1488 0.929 . S
C1501 C1493 1.433 . S
C1501 N1503 1.384 . S
N1502 C1498 1.427 . S
N1502 C1499 1.382 1_565 S
N1503 C1495 1.427 . S
N1503 C1501 1.384 . S
C647 C8 0.843 . S
C651 C509 0.843 . S
C665 C229 0.828 . S
C669 C48 0.828 . S
C683 C88 0.823 . S
C687 C589 0.823 . S
C701 C128 0.845 1_455 S
C705 C309 0.845 1_655 S
C719 C189 0.806 . S
C723 C328 0.806 . S
C737 C408 0.826 . S
C741 C269 0.826 . S
C755 C549 0.824 1_455 S
C759 C368 0.824 1_655 S
C773 C448 0.798 . S
C777 C629 0.798 . S
C791 C362 2.177 . S
C795 C29 2.131 . S
C809 C69 2.133 . S
C813 C402 2.174 . S
C827 C109 2.130 . S
C831 C442 2.175 . S
C845 C322 2.177 . S
C849 C149 2.131 . S
C863 C537 2.183 . S
C867 C168 2.142 . S
C881 C577 2.176 . S
C885 C208 2.135 . S
C899 C248 2.133 . S
C903 C617 2.179 . S
C917 C497 2.180 . S
C921 C288 2.141 . S
C935 C349 2.130 . S
C939 C42 2.174 . S
C953 C389 2.137 . S
C957 C82 2.177 . S
C971 C429 2.130 . S
C975 C122 2.174 . S
C989 C2 2.175 . S
C993 C469 2.130 . S
C1007 C217 2.175 . S
C1011 C488 2.134 . S
C1025 C528 2.141 . S
C1029 C257 2.183 . S
C1043 C297 2.183 . S
C1047 C568 2.142 . S
C1061 C608 2.131 . S
C1065 C177 2.174 . S
C1079 C31 3.119 . S
C1083 C431 3.122 . S
C1097 C71 3.119 . S
C1101 C471 3.122 . S
C1115 C351 3.122 . S
C1119 C111 3.119 . S
C1133 C151 3.121 . S
C1137 C391 3.118 . S
C1151 C172 3.122 . S
C1155 C572 3.119 . S
C1169 C212 3.118 . S
C1173 C612 3.121 . S
C1187 C492 3.122 . S
C1191 C252 3.119 . S
C1205 C292 3.118 . S
C1209 C532 3.121 . S
C1223 C17 1.843 . S
C1227 C311 2.093 . S
C1241 C511 2.088 . S
C1245 C57 1.832 . S
C1259 C97 1.848 . S
C1263 C231 2.095 . S
C1277 C137 1.850 . S
C1281 C591 2.095 . S
C1295 C162 1.849 . S
C1299 C132 2.093 . S
C1313 C332 2.087 . S
C1317 C202 1.834 . S
C1331 C242 1.832 . S
C1335 C52 2.087 . S
C1349 C412 2.095 . S
C1353 C282 1.851 . S
C1367 C337 1.831 . S
C1371 C631 2.088 . S
C1385 C191 2.088 . S
C1389 C377 1.838 1_565 S
C1403 C551 2.095 . S
C1407 C417 1.852 . S
C1421 C457 1.851 1_545 S
C1425 C271 2.094 . S
C1439 C482 1.832 . S
C1443 C452 2.089 . S
C1457 C522 1.837 1_545 S
C1461 C12 2.091 . S
C1475 C372 2.094 . S
C1479 C562 1.852 . S
C1493 C92 2.089 . S
C1497 C602 1.833 1_565 S
