# Generated by pormake.
# Topology ths, (3)-cn, num edge types: 1
# Building blocks:
#     Node 0, Type 0, BuildingBlock: WUSLED_clean_sbu_0, # of connection points: 3
#     Node 1, Type 0, BuildingBlock: WUSLED_clean_sbu_0, # of connection points: 3
#     Node 2, Type 0, BuildingBlock: WUSLED_clean_sbu_0, # of connection points: 3
#     Node 3, Type 0, BuildingBlock: WUSLED_clean_sbu_0, # of connection points: 3
#     Node 4, Type 0, BuildingBlock: WUSLED_clean_sbu_0, # of connection points: 3
#     Node 5, Type 0, BuildingBlock: WUSLED_clean_sbu_0, # of connection points: 3
#     Node 6, Type 0, BuildingBlock: WUSLED_clean_sbu_0, # of connection points: 3
#     Node 7, Type 0, BuildingBlock: WUSLED_clean_sbu_0, # of connection points: 3
#     Edge 8, Type (0, 0), BuildingBlock: XUDNAN_clean_linker_2, # of connection points: 2
#     Edge 9, Type (0, 0), BuildingBlock: XUDNAN_clean_linker_2, # of connection points: 2
#     Edge 10, Type (0, 0), BuildingBlock: XUDNAN_clean_linker_2, # of connection points: 2
#     Edge 11, Type (0, 0), BuildingBlock: XUDNAN_clean_linker_2, # of connection points: 2
#     Edge 12, Type (0, 0), BuildingBlock: XUDNAN_clean_linker_2, # of connection points: 2
#     Edge 13, Type (0, 0), BuildingBlock: XUDNAN_clean_linker_2, # of connection points: 2
#     Edge 14, Type (0, 0), BuildingBlock: XUDNAN_clean_linker_2, # of connection points: 2
#     Edge 15, Type (0, 0), BuildingBlock: XUDNAN_clean_linker_2, # of connection points: 2
#     Edge 16, Type (0, 0), BuildingBlock: XUDNAN_clean_linker_2, # of connection points: 2
#     Edge 17, Type (0, 0), BuildingBlock: XUDNAN_clean_linker_2, # of connection points: 2
#     Edge 18, Type (0, 0), BuildingBlock: XUDNAN_clean_linker_2, # of connection points: 2
#     Edge 19, Type (0, 0), BuildingBlock: XUDNAN_clean_linker_2, # of connection points: 2
# Relax obj value: 0.000
# Max RMSD: 0.003
# Mean RMSD: 0.003
data_MOF--net-ths--node1-WUSLED_clean_sbu_0--edge1-XUDNAN_clean_linker_2
_symmetry_space_group_name_H-M    P1
_symmetry_Int_Tables_number       1
_symmetry_cell_setting            triclinic
loop_
_symmetry_equiv_pos_as_xyz
'x, y, z'
_cell_length_a     39.90743
_cell_length_b     39.951314
_cell_length_c     133.96531
_cell_angle_alpha  89.131323
_cell_angle_beta   90.599521
_cell_angle_gamma 89.876513
loop_
_atom_site_label
_atom_site_type_symbol
_atom_site_fract_x
_atom_site_fract_y
_atom_site_fract_z
_atom_type_partial_charge
C0 C 0.07969 0.83615 0.04608 0.0
C1 C 0.07011 0.86399 0.05167 0.0
C2 C 0.07518 0.90022 0.0369 0.0
C3 C 0.06798 0.89586 0.04712 0.0
C4 C 0.08572 0.87231 0.03147 0.0
C5 C 0.08791 0.84068 0.03601 0.0
U6 U 0.07898 0.76955 0.06754 0.0
O7 O 0.05216 0.72148 0.0679 0.0
O8 O 0.10706 0.72205 0.06844 0.0
C9 C 0.0799 0.70371 0.06767 0.0
C10 C 0.07999 0.80186 0.0503 0.0
C11 C 0.08096 0.67744 0.06007 0.0
C12 C 0.07618 0.65987 0.04283 0.0
C13 C 0.07444 0.68499 0.04998 0.0
C14 C 0.09092 0.61934 0.05578 0.0
C15 C 0.08468 0.62673 0.04562 0.0
C16 C 0.08908 0.64448 0.06292 0.0
C17 C 0.07695 0.79159 0.09519 0.0
C18 C 0.06184 0.7525 0.10849 0.0
C19 C 0.09245 0.80296 0.11242 0.0
C20 C 0.0922 0.81216 0.10229 0.0
C21 C 0.07732 0.77295 0.11567 0.0
C22 C 0.0618 0.76163 0.09836 0.0
C23 C 0.07752 0.80148 0.08453 0.0
O24 O 0.10728 0.79254 0.05517 0.0
O25 O 0.05228 0.79174 0.05461 0.0
O26 O 0.05047 0.79446 0.07928 0.0
O27 O 0.10543 0.79471 0.07984 0.0
H28 H 0.06369 0.86097 0.05947 0.0
H29 H 0.05969 0.91683 0.05149 0.0
H30 H 0.09205 0.87485 1.02366 0.0
H31 H 0.09552 0.81953 0.03159 0.0
H32 H 0.07071 0.66643 0.03511 0.0
H33 H 0.06811 0.71031 0.04763 0.0
H34 H 0.09795 0.59428 0.05819 0.0
H35 H 0.09432 0.63823 0.07068 0.0
H36 H 0.04952 0.72947 0.1107 0.0
H37 H 0.10509 0.81908 0.11767 0.0
H38 H 0.10421 0.83528 0.09999 0.0
H39 H 0.04996 0.74526 0.09301 0.0
C40 C 0.51836 0.77818 0.29437 0.0
C41 C 0.48958 0.77962 0.30029 0.0
C42 C 0.45415 0.78329 0.28534 0.0
C43 C 0.4577 0.78206 0.29581 0.0
C44 C 0.48315 0.78107 0.27948 0.0
C45 C 0.51487 0.77858 0.28396 0.0
U46 U 0.5787 0.77796 0.31689 0.0
O47 O 0.62688 0.75174 0.31913 0.0
O48 O 0.62512 0.80664 0.31912 0.0
C49 C 0.64411 0.77974 0.31944 0.0
C50 C 0.55225 0.77756 0.29884 0.0
C51 C 0.67471 0.78136 0.31339 0.0
C52 C 0.70399 0.77721 0.29759 0.0
C53 C 0.67446 0.77432 0.30315 0.0
C54 C 0.73413 0.79399 0.31247 0.0
C55 C 0.73412 0.78747 0.30218 0.0
C56 C 0.70477 0.79097 0.318 0.0
C57 C 0.543 0.78055 0.34348 0.0
C58 C 0.5741 0.77092 0.35901 0.0
C59 C 0.51999 0.79845 0.35926 0.0
C60 C 0.51731 0.79554 0.3489 0.0
C61 C 0.54847 0.78635 0.36445 0.0
C62 C 0.57148 0.7682 0.3486 0.0
C63 C 0.5395 0.7787 0.33253 0.0
O64 O 0.56133 0.80504 0.30339 0.0
O65 O 0.56068 0.75014 0.30382 0.0
O66 O 0.54982 0.75096 0.32837 0.0
O67 O 0.54808 0.80584 0.32754 0.0
H68 H 0.49182 0.77942 0.30836 0.0
H69 H 0.43595 0.78394 0.30054 0.0
H70 H 0.48135 0.78136 0.27141 0.0
H71 H 0.53679 0.77739 0.27927 0.0
H72 H 0.70308 0.77221 0.28967 0.0
H73 H 0.65142 0.76697 0.29944 0.0
H74 H 0.75693 0.80141 0.31629 0.0
H75 H 0.70549 0.79642 0.3259 0.0
H76 H 0.59646 0.76159 0.36277 0.0
H77 H 0.49959 0.81002 0.36322 0.0
H78 H 0.49513 0.80517 0.3451 0.0
H79 H 0.59172 0.7567 0.34455 0.0
C80 C 0.58162 0.34206 0.54643 0.0
C81 C 0.58074 0.36625 0.5539 0.0
C82 C 0.57459 0.41067 0.5413 0.0
C83 C 0.57733 0.40019 0.55137 0.0
C84 C 0.57591 0.38628 0.53383 0.0
C85 C 0.57935 0.35228 0.53639 0.0
U86 U 0.5826 0.27216 0.56601 0.0
O87 O 0.55979 0.22205 0.56592 0.0
O88 O 0.61432 0.22716 0.56763 0.0
C89 C 0.58889 0.20662 0.56658 0.0
C90 C 0.58428 0.30621 0.54908 0.0
C91 C 0.59418 0.17811 0.5599 0.0
C92 C 0.58712 0.14992 0.54401 0.0
C93 C 0.58205 0.17798 0.55001 0.0
C94 C 0.61657 0.12212 0.5577 0.0
C95 C 0.6046 0.12169 0.54778 0.0
C96 C 0.6114 0.14998 0.56366 0.0
C97 C 0.57326 0.29689 0.59354 0.0
C98 C 0.58107 0.31484 0.61067 0.0
C99 C 0.55841 0.25987 0.60738 0.0
C100 C 0.56098 0.26608 0.59709 0.0
C101 C 0.5683 0.28425 0.6143 0.0
C102 C 0.58346 0.32108 0.6004 0.0
C103 C 0.5752 0.30469 0.58276 0.0
O104 O 0.61132 0.29744 0.55417 0.0
O105 O 0.55683 0.2926 0.55263 0.0
O106 O 0.5499 0.29466 0.57721 0.0
O107 O 0.60447 0.29963 0.57864 0.0
H108 H 0.58253 0.35883 0.56171 0.0
H109 H 0.57696 0.41826 0.55731 0.0
H110 H 0.57352 0.39336 0.52602 0.0
H111 H 0.5799 0.33393 0.53052 0.0
H112 H 0.5778 0.1505 0.53639 0.0
H113 H 0.56871 0.19948 0.54694 0.0
H114 H 0.62961 0.10067 0.56092 0.0
H115 H 0.62077 0.14949 0.57129 0.0
H116 H 0.58855 0.33431 0.61577 0.0
H117 H 0.54887 0.23589 0.60992 0.0
H118 H 0.55319 0.24694 0.59192 0.0
H119 H 0.59299 0.34501 0.5978 0.0
C120 C 1.01595 0.25697 0.79553 0.0
C121 C 0.9873 0.26234 0.80129 0.0
C122 C 0.95141 0.24864 0.78705 0.0
C123 C 0.95524 0.2583 0.79707 0.0
C124 C 0.98034 0.2437 0.78133 0.0
C125 C 1.01222 0.2478 0.78553 0.0
U126 U 0.0789 0.27005 0.81717 0.0
O127 O 0.12723 0.24521 0.82012 0.0
O128 O 0.12578 0.29931 0.81706 0.0
C129 C 0.14462 0.27252 0.81831 0.0
C130 C 0.05 0.2605 0.79972 0.0
C131 C 0.17289 0.26905 0.81135 0.0
C132 C 0.2005 0.24047 0.79778 0.0
C133 C 0.1725 0.24494 0.80382 0.0
C134 C 0.2292 0.28511 0.80637 0.0
C135 C 0.22934 0.26022 0.79906 0.0
C136 C 0.20129 0.28936 0.81248 0.0
C137 C 0.04774 0.28139 0.84405 0.0
C138 C 0.07957 0.27245 0.85947 0.0
C139 C 1.02698 0.30277 0.85971 0.0
C140 C 1.02339 0.29864 0.84941 0.0
C141 C 0.05505 0.28963 0.86489 0.0
C142 C 0.07603 0.26848 0.84913 0.0
C143 C 0.04245 0.27647 0.83325 0.0
O144 O 0.05789 0.29025 0.80306 0.0
O145 O 0.06039 0.23592 0.80561 0.0
O146 O 0.05182 0.24737 0.82975 0.0
O147 O 0.05034 0.30185 0.82738 0.0
H148 H 0.98974 0.26941 0.80904 0.0
H149 H 0.93351 0.26208 0.8017 0.0
H150 H 0.97837 0.23683 0.77356 0.0
H151 H 0.03405 0.24371 0.78096 0.0
H152 H 0.19965 0.22141 0.79212 0.0
H153 H 0.15077 0.22916 0.80271 0.0
H154 H 0.25109 0.30057 0.80759 0.0
H155 H 0.20212 0.30813 0.81823 0.0
H156 H 0.10164 0.26233 0.86321 0.0
H157 H 1.0074 0.31572 0.86366 0.0
H158 H 1.00132 0.30866 0.84564 0.0
H159 H 0.09524 0.25518 0.84512 0.0
C160 C 0.07646 0.20194 1.00587 0.0
C161 C 0.08242 0.17781 0.9986 0.0
C162 C 0.07292 0.13293 1.01081 0.0
C163 C 0.08078 0.14368 1.00105 0.0
C164 C 0.06741 0.15729 1.01811 0.0
C165 C 0.06914 0.19147 1.01565 0.0
U166 U 0.07695 0.27201 0.98632 0.0
O167 O 0.04949 0.31993 0.98559 0.0
O168 O 0.10454 0.31957 0.98567 0.0
C169 C 0.07708 0.33782 0.98564 0.0
C170 C 0.07696 0.23791 1.00326 0.0
C171 C 0.07731 0.3678 0.99191 0.0
C172 C 0.09066 0.39696 1.00728 0.0
C173 C 0.08846 0.36711 1.0019 0.0
C174 C 0.06989 0.42801 0.99283 0.0
C175 C 0.08202 0.42784 1.00272 0.0
C176 C 0.06758 0.39834 0.9875 0.0
C177 C 0.07555 0.24982 0.95868 0.0
C178 C 0.08442 0.29112 0.94545 0.0
C179 C 0.06283 0.2363 0.94142 0.0
C180 C 0.06423 0.22709 0.95154 0.0
C181 C 0.07279 0.2685 0.93823 0.0
C182 C 0.08566 0.28191 0.95558 0.0
C183 C 0.07607 0.23994 0.96933 0.0
O184 O 0.10446 0.24876 0.99897 0.0
O185 O 0.04953 0.24949 0.99891 0.0
O186 O 0.04884 0.24721 0.97429 0.0
O187 O 0.10376 0.24678 0.97428 0.0
H188 H 0.08812 0.18539 0.99101 0.0
H189 H 0.08572 0.12571 0.99527 0.0
H190 H 0.06093 0.14999 1.02566 0.0
H191 H 0.06433 0.20975 1.02135 0.0
H192 H 0.10017 0.39604 1.01488 0.0
H193 H 0.09608 0.34371 1.00544 0.0
H194 H 0.06246 0.45123 0.98915 0.0
H195 H 0.05878 0.39937 0.97982 0.0
H196 H 0.09273 0.31594 0.94329 0.0
H197 H 0.05324 0.21839 0.93612 0.0
H198 H 0.05614 0.20227 0.9538 0.0
H199 H 0.09443 0.29988 0.96099 0.0
C200 C 0.15062 0.7772 0.25631 0.0
C201 C 0.17417 0.77802 0.24862 0.0
C202 C 0.21976 0.78284 0.2608 0.0
C203 C 0.2084 0.78083 0.25083 0.0
C204 C 0.19601 0.78142 0.26849 0.0
C205 C 0.16175 0.77868 0.26626 0.0
U206 U 0.07876 0.76792 0.2376 0.0
O207 O 0.03154 0.73965 0.23876 0.0
O208 O 0.03033 0.79405 0.23633 0.0
C209 C 1.01289 0.76678 0.23814 0.0
C210 C 0.11448 0.77521 0.25403 0.0
C211 C 0.98655 0.76987 0.2457 0.0
C212 C 0.96835 0.78504 0.2623 0.0
C213 C 0.99404 0.78058 0.25539 0.0
C214 C 0.9275 0.76735 0.24998 0.0
C215 C 0.93468 0.77882 0.25965 0.0
C216 C 0.95319 0.76298 0.24308 0.0
C217 C 0.10251 0.75733 0.20982 0.0
C218 C 0.07199 0.77177 0.1945 0.0
C219 C 0.11762 0.73177 0.19413 0.0
C220 C 0.12263 0.73547 0.2044 0.0
C221 C 0.09236 0.74998 0.18903 0.0
C222 C 0.07694 0.77534 0.20481 0.0
C223 C 0.11 0.76183 0.22054 0.0
O224 O 0.10207 0.80051 0.24879 0.0
O225 O 0.10386 0.74604 0.2509 0.0
O226 O 0.10332 0.73627 0.22648 0.0
O227 O 0.10205 0.79087 0.22437 0.0
H228 H 0.16605 0.7767 0.24089 0.0
H229 H 0.22598 0.78133 0.24473 0.0
H230 H 0.20381 0.78322 0.27623 0.0
H231 H 0.14391 0.77807 0.2723 0.0
H232 H 0.97487 0.79342 0.26972 0.0
H233 H 1.01969 0.78588 0.25757 0.0
H234 H 0.9019 0.76267 0.24763 0.0
H235 H 0.94693 0.75474 0.23562 0.0
H236 H 0.05212 0.7859 0.19081 0.0
H237 H 0.13409 0.71516 0.19015 0.0
H238 H 0.14265 0.72152 0.20809 0.0
H239 H 0.061 0.79235 0.20883 0.0
C240 C 0.58142 0.70868 0.5073 0.0
C241 C 0.5777 0.68063 0.5012 0.0
C242 C 0.57437 0.64413 0.51595 0.0
C243 C 0.57433 0.64854 0.5055 0.0
C244 C 0.57881 0.67237 0.52197 0.0
C245 C 0.58228 0.70424 0.51769 0.0
U246 U 0.58168 0.77442 0.48576 0.0
O247 O 0.55738 0.82406 0.48539 0.0
O248 O 0.61202 0.82005 0.48425 0.0
C249 C 0.58608 0.84009 0.48517 0.0
C250 C 0.5835 0.74294 0.50315 0.0
C251 C 0.58999 0.86736 0.4924 0.0
C252 C 0.61056 0.88854 0.50824 0.0
C253 C 0.60563 0.8619 0.50171 0.0
C254 C 0.58328 0.92623 0.49637 0.0
C255 C 0.59974 0.92111 0.50561 0.0
C256 C 0.57855 0.89961 0.48983 0.0
C257 C 0.57318 0.7506 0.45836 0.0
C258 C 0.58012 0.79124 0.44485 0.0
C259 C 0.55947 0.73569 0.44126 0.0
C260 C 0.56182 0.72716 0.45142 0.0
C261 C 0.56847 0.7679 0.43784 0.0
C262 C 0.58236 0.7827 0.45501 0.0
C263 C 0.57507 0.74138 0.46904 0.0
O264 O 0.61048 0.75023 0.49801 0.0
O265 O 0.55583 0.75492 0.49905 0.0
O266 O 0.54947 0.75088 0.47442 0.0
O267 O 0.60413 0.74665 0.47345 0.0
H268 H 0.57695 0.68363 0.49315 0.0
H269 H 0.57079 0.62734 0.50066 0.0
H270 H 0.57957 0.66984 0.53003 0.0
H271 H 0.58528 0.72557 0.52252 0.0
H272 H 0.62287 0.88363 0.51536 0.0
H273 H 0.61439 0.83713 0.50389 0.0
H274 H 0.5749 0.95099 0.49407 0.0
H275 H 0.56638 0.90432 0.48267 0.0
H276 H 0.58773 0.8161 0.44248 0.0
H277 H 0.54994 0.71724 0.43613 0.0
H278 H 0.5545 0.7023 0.45388 0.0
H279 H 0.59122 0.80115 0.46025 0.0
C280 C 0.65089 0.26101 0.75551 0.0
C281 C 0.67459 0.25287 0.74827 0.0
C282 C 0.71916 0.25306 0.76089 0.0
C283 C 0.70839 0.24887 0.75094 0.0
C284 C 0.69536 0.26202 0.76806 0.0
C285 C 0.66153 0.26588 0.76539 0.0
U286 U 0.57937 0.26772 0.73633 0.0
O287 O 0.53093 0.24187 0.73576 0.0
O288 O 0.53218 0.29662 0.73686 0.0
C289 C 0.51359 0.26948 0.73702 0.0
C290 C 0.61499 0.26363 0.75293 0.0
C291 C 0.48729 0.26781 0.74469 0.0
C292 C 0.46409 0.24322 0.75984 0.0
C293 C 0.49069 0.24696 0.75319 0.0
C294 C 0.43089 0.28233 0.74989 0.0
C295 C 0.43367 0.26044 0.75819 0.0
C296 C 0.45741 0.28585 0.7432 0.0
C297 C 0.6006 0.2696 0.70839 0.0
C298 C 0.61668 0.26288 0.69108 0.0
C299 C 0.55928 0.27679 0.69505 0.0
C300 C 0.56765 0.27662 0.70524 0.0
C301 C 0.5837 0.26985 0.68783 0.0
C302 C 0.62499 0.26278 0.70125 0.0
C303 C 0.61001 0.26866 0.71905 0.0
O304 O 0.60528 0.29222 0.74886 0.0
O305 O 0.60209 0.23748 0.74847 0.0
O306 O 0.60239 0.24094 0.7239 0.0
O307 O 0.60347 0.29581 0.72411 0.0
H308 H 0.66688 0.24923 0.74059 0.0
H309 H 0.72612 0.24246 0.74521 0.0
H310 H 0.70271 0.26515 0.7758 0.0
H311 H 0.64358 0.27218 0.77108 0.0
H312 H 0.46719 0.22654 0.76623 0.0
H313 H 0.5136 0.23297 0.75456 0.0
H314 H 0.40774 0.29576 0.74837 0.0
H315 H 0.45425 0.30204 0.73669 0.0
H316 H 0.63601 0.25689 0.68578 0.0
H317 H 0.53375 0.28264 0.69283 0.0
H318 H 0.54845 0.28191 0.71066 0.0
H319 H 0.65052 0.2571 0.70355 0.0
H320 H 0.06512 0.44379 1.02206 0.0
H321 H 0.10997 0.48494 0.99518 0.0
H322 H 0.1161 0.53956 1.0033 0.0
H323 H 1.01811 0.51678 0.02821 0.0
H324 H 1.02454 0.51234 0.04151 0.0
H325 H 1.02469 0.47587 0.03377 0.0
H326 H 0.0836 0.45971 0.04059 0.0
H327 H 0.08359 0.4961 0.04837 0.0
H328 H 0.11727 0.48961 0.03975 0.0
H329 H 0.11655 0.58994 1.01408 0.0
H330 H 0.11152 0.63307 0.02693 0.0
H331 H 0.06541 0.56028 0.04687 0.0
C332 C 0.07657 0.46421 1.01794 0.0
C333 C 0.0869 0.46011 1.00796 0.0
C334 C 0.10145 0.48758 1.00278 0.0
C335 C 0.10521 0.51868 1.00735 0.0
C336 C 0.09436 0.52206 1.01712 0.0
C337 C 0.08039 0.49563 1.02239 0.0
C338 C 0.07012 0.5064 0.03274 0.0
C339 C 0.03211 0.50263 0.03413 0.0
C340 C 0.08983 0.48679 0.04084 0.0
C341 C 0.08036 0.54298 0.03242 0.0
C342 C 0.09438 0.55139 1.02335 0.0
C343 C 0.10555 0.58369 1.02122 0.0
C344 C 0.10232 0.60812 0.02855 0.0
C345 C 0.08787 0.60029 0.03792 0.0
C346 C 0.07686 0.56712 0.03984 0.0
H347 H 0.87772 0.74127 0.26314 0.0
H348 H 0.92883 0.83183 0.27225 0.0
H349 H 0.88304 0.84387 0.28388 0.0
H350 H 0.79381 0.77511 0.26375 0.0
H351 H 0.77537 0.73707 0.26854 0.0
H352 H 0.81234 0.73517 0.26096 0.0
H353 H 0.84328 0.70165 0.27498 0.0
H354 H 0.80638 0.70336 0.28259 0.0
H355 H 0.84579 0.71861 0.28736 0.0
H356 H 0.83173 0.84655 0.29442 0.0
H357 H 0.77876 0.83907 0.30348 0.0
H358 H 0.76022 0.7469 0.28761 0.0
C359 C 0.87921 0.76374 0.26753 0.0
C360 C 0.90709 0.78552 0.26679 0.0
C361 C 0.90813 0.81445 0.27278 0.0
C362 C 0.88208 0.82166 0.27937 0.0
C363 C 0.85503 0.79974 0.2799 0.0
C364 C 0.8534 0.77132 0.27417 0.0
C365 C 0.82155 0.75181 0.27626 0.0
C366 C 0.79947 0.74968 0.26681 0.0
C367 C 0.82975 0.71679 0.28055 0.0
C368 C 0.80553 0.77376 0.28403 0.0
C369 C 0.82532 0.80127 0.28601 0.0
C370 C 0.81609 0.82504 0.29297 0.0
C371 C 0.786 0.82046 0.29811 0.0
C372 C 0.76535 0.79229 0.29632 0.0
C373 C 0.77526 0.76882 0.2891 0.0
H374 H 0.60246 0.44724 0.52577 0.0
H375 H 0.53488 0.45594 0.55081 0.0
H376 H 0.52684 0.51582 0.54678 0.0
H377 H 0.64169 0.52701 0.52832 0.0
H378 H 0.64459 0.53517 0.51509 0.0
H379 H 0.64473 0.4927 0.51979 0.0
H380 H 0.59414 0.47891 0.50831 0.0
H381 H 0.59383 0.52137 0.50358 0.0
H382 H 0.55651 0.50379 0.50899 0.0
H383 H 0.52657 0.57473 0.54031 0.0
H384 H 0.53437 0.62929 0.53183 0.0
H385 H 0.6017 0.58312 0.5108 0.0
C386 C 0.58569 0.46163 0.53035 0.0
C387 C 0.56947 0.44677 0.53866 0.0
C388 C 0.54807 0.46674 0.54451 0.0
C389 C 0.54312 0.50077 0.54224 0.0
C390 C 0.55959 0.51461 0.53406 0.0
C391 C 0.58041 0.49574 0.52818 0.0
C392 C 0.59548 0.51705 0.51989 0.0
C393 C 0.6339 0.51804 0.52084 0.0
C394 C 0.58431 0.50453 0.50958 0.0
C395 C 0.58004 0.55087 0.52208 0.0
C396 C 0.55936 0.54879 0.53028 0.0
C397 C 0.5427 0.57669 0.53388 0.0
C398 C 0.54746 0.60763 0.52904 0.0
C399 C 0.5688 0.61062 0.52068 0.0
C400 C 0.58501 0.58165 0.51712 0.0
H401 H 0.89403 0.28672 0.78912 0.0
H402 H 0.93219 0.19793 0.77476 0.0
H403 H 0.87725 0.18961 0.7666 0.0
H404 H 0.81029 0.25439 0.79372 0.0
H405 H 0.79002 0.29405 0.79123 0.0
H406 H 0.83228 0.29289 0.79609 0.0
H407 H 0.85189 0.32967 0.78118 0.0
H408 H 0.80973 0.33085 0.77626 0.0
H409 H 0.84349 0.31623 0.76861 0.0
H410 H 0.81877 0.19134 0.7597 0.0
H411 H 0.75993 0.20226 0.75484 0.0
H412 H 0.75899 0.2897 0.77368 0.0
C413 C 0.89071 0.26531 0.78436 0.0
C414 C 0.91759 0.2431 0.78254 0.0
C415 C 0.91223 0.21561 0.77615 0.0
C416 C 0.88103 0.21055 0.77152 0.0
C417 C 0.85526 0.2331 0.77336 0.0
C418 C 0.85964 0.25986 0.77965 0.0
C419 C 0.8278 0.28055 0.78025 0.0
C420 C 0.8143 0.28045 0.79096 0.0
C421 C 0.83359 0.31645 0.77634 0.0
C422 C 0.80493 0.26125 0.7733 0.0
C423 C 0.82133 0.234 0.7694 0.0
C424 C 0.80565 0.21262 0.7627 0.0
C425 C 0.77227 0.21917 0.75993 0.0
C426 C 0.75479 0.2469 0.76383 0.0
C427 C 0.7715 0.26813 0.77063 0.0
H428 H 0.38963 0.30643 0.76594 0.0
H429 H 0.41116 0.19999 0.76512 0.0
H430 H 0.36159 0.18858 0.77548 0.0
H431 H 0.36089 0.3072 0.79152 0.0
H432 H 0.32855 0.33787 0.78904 0.0
H433 H 0.36596 0.3378 0.78163 0.0
H434 H 0.32979 0.33341 0.76553 0.0
H435 H 0.29228 0.3334 0.77289 0.0
H436 H 0.30005 0.29974 0.76441 0.0
H437 H 0.30873 0.18838 0.78541 0.0
H438 H 0.2576 0.19965 0.79502 0.0
H439 H 0.27034 0.30626 0.7897 0.0
C440 C 0.38388 0.28073 0.76794 0.0
C441 C 0.40439 0.25409 0.76474 0.0
C442 C 0.39614 0.22083 0.76759 0.0
C443 C 0.3679 0.21408 0.77342 0.0
C444 C 0.34817 0.24085 0.77641 0.0
C445 C 0.35588 0.27354 0.77384 0.0
C446 C 0.33057 0.2977 0.77811 0.0
C447 C 0.34751 0.32154 0.78552 0.0
C448 C 0.31208 0.31721 0.76974 0.0
C449 C 0.30733 0.27345 0.78342 0.0
C450 C 0.31789 0.24077 0.7823 0.0
C451 C 0.30025 0.21387 0.78636 0.0
C452 C 0.27112 0.22051 0.79176 0.0
C453 C 0.25991 0.2538 0.7931 0.0
C454 C 0.27841 0.28057 0.78887 0.0
H455 H 0.2575 0.75306 0.27593 0.0
H456 H 0.26436 0.82318 0.25096 0.0
H457 H 0.3245 0.83093 0.25461 0.0
H458 H 0.31411 0.79692 0.29245 0.0
H459 H 0.33247 0.75921 0.29767 0.0
H460 H 0.28983 0.75896 0.29312 0.0
H461 H 0.30405 0.71001 0.28141 0.0
H462 H 0.34671 0.71009 0.28594 0.0
H463 H 0.33807 0.71449 0.27275 0.0
H464 H 0.38373 0.83131 0.2609 0.0
H465 H 0.43847 0.82395 0.26934 0.0
H466 H 0.39388 0.75359 0.29032 0.0
C467 C 0.27158 0.77024 0.27128 0.0
C468 C 0.25611 0.78738 0.26311 0.0
C469 C 0.27564 0.80933 0.25715 0.0
C470 C 0.30981 0.81409 0.2592 0.0
C471 C 0.32424 0.79677 0.26727 0.0
C472 C 0.30582 0.77526 0.27322 0.0
C473 C 0.32764 0.7595 0.28137 0.0
C474 C 0.31527 0.76924 0.29177 0.0
C475 C 0.32921 0.72125 0.2803 0.0
C476 C 0.36117 0.77555 0.27908 0.0
C477 C 0.35857 0.79696 0.2709 0.0
C478 C 0.3861 0.81452 0.26729 0.0
C479 C 0.41717 0.81 0.2721 0.0
C480 C 0.42066 0.78802 0.28047 0.0
C481 C 0.39207 0.77076 0.28401 0.0
H482 H 0.55764 0.97329 0.51043 0.0
H483 H 0.6578 0.93406 0.51587 0.0
H484 H 0.67014 0.98167 0.52682 0.0
H485 H 0.58043 0.06096 0.50979 0.0
H486 H 0.54321 0.0745 0.5161 0.0
H487 H 0.54213 0.03746 0.50859 0.0
H488 H 0.52064 1.00285 0.52372 0.0
H489 H 0.52153 0.03979 0.53126 0.0
H490 H 0.54417 1.00281 0.53528 0.0
H491 H 0.67187 0.03338 0.53713 0.0
H492 H 0.66226 0.08482 0.54663 0.0
H493 H 0.56076 0.09077 0.53474 0.0
C494 C 0.58224 0.97484 0.51387 0.0
C495 C 0.60673 0.94981 0.5123 0.0
C496 C 0.63847 0.9526 0.51706 0.0
C497 C 0.64581 0.9797 0.52324 0.0
C498 C 0.62116 1.00389 0.52462 0.0
C499 C 0.58996 1.00171 0.52011 0.0
C500 C 0.56776 0.03081 0.52303 0.0
C501 C 0.5578 0.05219 0.51383 0.0
C502 C 0.53669 1.01831 0.52866 0.0
C503 C 0.59138 0.04966 0.52988 0.0
C504 C 0.62207 0.0337 0.53065 0.0
C505 C 0.6479 0.04603 0.53661 0.0
C506 C 0.64212 0.0752 0.54202 0.0
C507 C 0.61069 0.09182 0.5415 0.0
C508 C 0.58515 0.07892 0.53524 0.0
H509 H 0.09373 0.96314 0.04335 0.0
H510 H 0.0458 0.91192 1.0187 0.0
H511 H 0.03953 0.96562 1.00958 0.0
H512 H 0.04218 0.03866 0.04177 0.0
H513 H 0.07638 0.06627 0.04475 0.0
H514 H 0.07646 1.02387 0.04953 0.0
H515 H 0.13454 1.01387 0.04164 0.0
H516 H 0.13461 0.0562 0.03682 0.0
H517 H 0.13995 1.0217 0.02847 0.0
H518 H 0.03909 1.02427 1.00295 0.0
H519 H 0.04437 0.08457 0.99922 0.0
H520 H 0.09328 0.09865 0.02797 0.0
C521 C 0.0816 0.96332 0.03608 0.0
C522 C 0.07045 0.9332 0.03172 0.0
C523 C 0.05502 0.93451 1.02214 0.0
C524 C 0.05115 0.96494 1.01692 0.0
C525 C 0.06276 0.99404 1.02136 0.0
C526 C 0.07762 0.9936 0.03072 0.0
C527 C 0.08848 0.02855 0.03366 0.0
C528 C 0.06975 0.04001 0.04298 0.0
C529 C 0.12666 0.03016 0.03524 0.0
C530 C 0.07754 0.04855 1.02445 0.0
C531 C 0.06268 0.02809 1.01748 0.0
C532 C 0.05076 0.04056 1.00835 0.0
C533 C 0.05413 0.07487 1.00627 0.0
C534 C 0.06947 0.0965 1.01325 0.0
C535 C 0.08117 0.08297 1.02249 0.0
H536 H 0.08061 0.79965 0.17489 0.0
H537 H 0.09432 0.69224 0.17826 0.0
H538 H 0.09063 0.68638 0.15997 0.0
H539 H 1.02082 0.79639 0.15401 0.0
H540 H 0.03768 0.83315 0.14795 0.0
H541 H 0.04004 0.82873 0.16134 0.0
H542 H 0.10438 0.83692 0.16073 0.0
H543 H 0.10225 0.84113 0.14734 0.0
H544 H 0.12919 0.8099 0.15306 0.0
H545 H 0.08809 0.69236 0.1413 0.0
H546 H 0.08582 0.70958 0.12357 0.0
H547 H 0.07171 0.81295 0.13225 0.0
C548 C 0.08227 0.77483 0.1718 0.0
C549 C 0.08785 0.7464 0.17804 0.0
C550 C 0.09046 0.71444 0.17365 0.0
C551 C 0.08822 0.71082 0.16326 0.0
C552 C 0.08323 0.73938 0.15733 0.0
C553 C 0.0801 0.77075 0.16143 0.0
C554 C 0.0757 0.79745 0.15335 0.0
C555 C 0.04152 0.81496 0.15422 0.0
C556 C 0.1046 0.82284 0.15364 0.0
C557 C 0.07717 0.77621 0.14407 0.0
C558 C 0.08145 0.74278 0.14655 0.0
C559 C 0.08435 0.71843 0.13927 0.0
C560 C 0.08282 0.72848 0.1292 0.0
C561 C 0.07832 0.76264 0.12644 0.0
C562 C 0.07541 0.78669 0.13405 0.0
H563 H 0.58193 0.72949 0.42135 0.0
H564 H 0.54643 0.82775 0.42985 0.0
H565 H 0.53977 0.84361 0.41209 0.0
H566 H 0.6276 0.75628 0.39945 0.0
H567 H 0.61588 0.72031 0.39225 0.0
H568 H 0.61913 0.71689 0.40566 0.0
H569 H 0.5581 0.69512 0.40645 0.0
H570 H 0.55469 0.69837 0.39306 0.0
H571 H 0.52483 0.71959 0.40075 0.0
H572 H 0.53525 0.84844 0.39347 0.0
H573 H 0.53306 0.84186 0.37519 0.0
H574 H 0.57027 0.74012 0.37862 0.0
C575 C 0.57264 0.75431 0.41949 0.0
C576 C 0.56492 0.77742 0.42706 0.0
C577 C 0.55314 0.80977 0.42425 0.0
C578 C 0.54906 0.81897 0.41416 0.0
C579 C 0.55685 0.7956 0.40693 0.0
C580 C 0.56838 0.76394 0.40944 0.0
C581 C 0.57428 0.74337 0.40019 0.0
C582 C 0.61143 0.73365 0.39934 0.0
C583 C 0.55162 0.71228 0.40011 0.0
C584 C 0.56403 0.76837 0.39208 0.0
C585 C 0.55412 0.79835 0.39615 0.0
C586 C 0.54295 0.82509 0.3902 0.0
C587 C 0.54163 0.82103 0.37982 0.0
C588 C 0.55137 0.79045 0.37546 0.0
C589 C 0.56299 0.76392 0.38171 0.0
H590 H 0.61278 0.30017 0.62934 0.0
H591 H 0.51555 0.25493 0.62405 0.0
H592 H 0.50882 0.24623 0.64222 0.0
H593 H 0.63778 0.24589 0.64986 0.0
H594 H 0.65861 0.27864 0.65662 0.0
H595 H 0.65591 0.28084 0.64319 0.0
H596 H 0.62789 0.33926 0.64415 0.0
H597 H 0.63049 0.33724 0.65758 0.0
H598 H 0.59058 0.34424 0.65146 0.0
H599 H 0.51233 0.24339 0.66107 0.0
H600 H 0.52653 0.24507 0.67904 0.0
H601 H 0.62094 0.29332 0.672 0.0
C602 C 0.58999 0.28856 0.632 0.0
C603 C 0.56469 0.2782 0.62524 0.0
C604 C 0.53547 0.26269 0.62905 0.0
C605 C 0.53133 0.25783 0.63937 0.0
C606 C 0.55666 0.26852 0.64581 0.0
C607 C 0.58548 0.28344 0.64226 0.0
C608 C 0.60898 0.29256 0.65075 0.0
C609 C 0.64229 0.27333 0.65006 0.0
C610 C 0.61481 0.33058 0.651 0.0
C611 C 0.58879 0.28065 0.65963 0.0
C612 C 0.55868 0.26686 0.65663 0.0
C613 C 0.53583 0.25419 0.66351 0.0
C614 C 0.54403 0.25548 0.67371 0.0
C615 C 0.57485 0.26936 0.67698 0.0
C616 C 0.59736 0.28217 0.66978 0.0
H617 H 0.08605 0.23055 0.92164 0.0
H618 H 0.05319 0.32947 0.9304 0.0
H619 H 0.04786 0.34628 0.91267 0.0
H620 H 0.13327 0.25672 0.89993 0.0
H621 H 0.12058 0.22134 0.89261 0.0
H622 H 0.12347 0.21743 0.90601 0.0
H623 H 0.06176 0.19753 0.90664 0.0
H624 H 0.05873 0.20127 0.89325 0.0
H625 H 0.02938 0.22317 0.90094 0.0
H626 H 0.04406 0.35188 0.894 0.0
H627 H 0.04173 0.3457 0.8757 0.0
H628 H 0.07546 0.24273 0.879 0.0
C629 C 0.07764 0.25574 0.91985 0.0
C630 C 0.07025 0.27872 0.92748 0.0
C631 C 0.05964 0.31154 0.92475 0.0
C632 C 0.05633 0.32129 0.91468 0.0
C633 C 0.0637 0.298 0.90739 0.0
C634 C 0.07412 0.26589 0.90983 0.0
C635 C 0.07956 0.24543 0.90054 0.0
C636 C 0.11641 0.2346 0.89973 0.0
C637 C 0.05594 0.21506 0.90033 0.0
C638 C 0.07025 0.27097 0.89249 0.0
C639 C 0.0613 0.30116 0.8966 0.0
C640 C 0.05105 0.32836 0.89069 0.0
C641 C 0.04963 0.32455 0.8803 0.0
C642 C 0.05833 0.29372 0.87589 0.0
C643 C 0.06907 0.26674 0.88211 0.0
loop_
_geom_bond_atom_site_label_1
_geom_bond_atom_site_label_2
_geom_bond_distance
_geom_bond_site_symmetry_2
_ccdc_geom_bond_type
C0 C1 1.264 . S
C0 C5 1.479 . S
C0 C10 1.465 . S
C1 C0 1.264 . S
C1 C3 1.339 . S
C1 H28 0.931 . S
C2 C3 1.395 . S
C2 C4 1.320 . S
C3 C1 1.339 . S
C3 C2 1.395 . S
C3 H29 0.929 . S
C4 C2 1.320 . S
C4 C5 1.405 . S
C4 H30 0.930 . S
C5 C0 1.479 . S
C5 C4 1.405 . S
C5 H31 0.931 . S
U6 O7 2.454 . S
U6 O8 2.458 . S
U6 C9 2.984 . S
U6 C10 2.847 . S
U6 C23 2.882 . S
U6 O24 2.441 . S
U6 O25 2.420 . S
U6 O26 2.455 . S
U6 O27 2.449 . S
O7 U6 2.454 . S
O7 C9 1.353 . S
O8 U6 2.458 . S
O8 C9 1.286 . S
C9 U6 2.984 . S
C9 O7 1.353 . S
C9 O8 1.286 . S
C9 C11 1.363 . S
C10 C0 1.465 . S
C10 U6 2.847 . S
C10 O24 1.249 . S
C10 O25 1.202 . S
C11 C9 1.363 . S
C11 C13 1.408 . S
C11 C16 1.342 . S
C12 C13 1.310 . S
C12 C15 1.461 . S
C12 H32 0.932 . S
C13 C11 1.408 . S
C13 C12 1.310 . S
C13 H33 0.930 . S
C14 C15 1.474 . S
C14 C16 1.285 . S
C14 H34 0.929 . S
C15 C12 1.461 . S
C15 C14 1.474 . S
C16 C11 1.342 . S
C16 C14 1.285 . S
C16 H35 0.930 . S
C17 C20 1.424 . S
C17 C22 1.245 . S
C17 C23 1.428 . S
C18 C21 1.260 . S
C18 C22 1.477 . S
C18 H36 0.932 . S
C19 C20 1.384 . S
C19 C21 1.479 . S
C19 H37 0.929 . S
C20 C17 1.424 . S
C20 C19 1.384 . S
C20 H38 0.928 . S
C21 C18 1.260 . S
C21 C19 1.479 . S
C22 C17 1.245 . S
C22 C18 1.477 . S
C22 H39 0.932 . S
C23 U6 2.882 . S
C23 C17 1.428 . S
C23 O26 1.301 . S
C23 O27 1.282 . S
O24 U6 2.441 . S
O24 C10 1.249 . S
O25 U6 2.420 . S
O25 C10 1.202 . S
O26 U6 2.455 . S
O26 C23 1.301 . S
O27 U6 2.449 . S
O27 C23 1.282 . S
H28 C1 0.931 . S
H29 C3 0.929 . S
H30 C4 0.930 . S
H31 C5 0.931 . S
H32 C12 0.932 . S
H33 C13 0.930 . S
H34 C14 0.929 . S
H35 C16 0.930 . S
H36 C18 0.932 . S
H37 C19 0.929 . S
H38 C20 0.928 . S
H39 C22 0.932 . S
C40 C41 1.264 . S
C40 C45 1.479 . S
C40 C50 1.465 . S
C41 C40 1.264 . S
C41 C43 1.339 . S
C41 H68 0.931 . S
C42 C43 1.395 . S
C42 C44 1.320 . S
C43 C41 1.339 . S
C43 C42 1.395 . S
C43 H69 0.929 . S
C44 C42 1.320 . S
C44 C45 1.405 . S
C44 H70 0.930 . S
C45 C40 1.479 . S
C45 C44 1.405 . S
C45 H71 0.931 . S
U46 O47 2.454 . S
U46 O48 2.458 . S
U46 C49 2.984 . S
U46 C50 2.847 . S
U46 C63 2.882 . S
U46 O64 2.441 . S
U46 O65 2.420 . S
U46 O66 2.455 . S
U46 O67 2.449 . S
O47 U46 2.454 . S
O47 C49 1.353 . S
O48 U46 2.458 . S
O48 C49 1.286 . S
C49 U46 2.984 . S
C49 O47 1.353 . S
C49 O48 1.286 . S
C49 C51 1.363 . S
C50 C40 1.465 . S
C50 U46 2.847 . S
C50 O64 1.249 . S
C50 O65 1.202 . S
C51 C49 1.363 . S
C51 C53 1.408 . S
C51 C56 1.342 . S
C52 C53 1.310 . S
C52 C55 1.461 . S
C52 H72 0.932 . S
C53 C51 1.408 . S
C53 C52 1.310 . S
C53 H73 0.930 . S
C54 C55 1.474 . S
C54 C56 1.285 . S
C54 H74 0.929 . S
C55 C52 1.461 . S
C55 C54 1.474 . S
C56 C51 1.342 . S
C56 C54 1.285 . S
C56 H75 0.930 . S
C57 C60 1.424 . S
C57 C62 1.245 . S
C57 C63 1.428 . S
C58 C61 1.260 . S
C58 C62 1.477 . S
C58 H76 0.932 . S
C59 C60 1.384 . S
C59 C61 1.479 . S
C59 H77 0.929 . S
C60 C57 1.424 . S
C60 C59 1.384 . S
C60 H78 0.928 . S
C61 C58 1.260 . S
C61 C59 1.479 . S
C62 C57 1.245 . S
C62 C58 1.477 . S
C62 H79 0.932 . S
C63 U46 2.882 . S
C63 C57 1.428 . S
C63 O66 1.301 . S
C63 O67 1.282 . S
O64 U46 2.441 . S
O64 C50 1.249 . S
O65 U46 2.420 . S
O65 C50 1.202 . S
O66 U46 2.455 . S
O66 C63 1.301 . S
O67 U46 2.449 . S
O67 C63 1.282 . S
H68 C41 0.931 . S
H69 C43 0.929 . S
H70 C44 0.930 . S
H71 C45 0.931 . S
H72 C52 0.932 . S
H73 C53 0.930 . S
H74 C54 0.929 . S
H75 C56 0.930 . S
H76 C58 0.932 . S
H77 C59 0.929 . S
H78 C60 0.928 . S
H79 C62 0.932 . S
C80 C81 1.264 . S
C80 C85 1.479 . S
C80 C90 1.465 . S
C81 C80 1.264 . S
C81 C83 1.339 . S
C81 H108 0.931 . S
C82 C83 1.395 . S
C82 C84 1.320 . S
C83 C81 1.339 . S
C83 C82 1.395 . S
C83 H109 0.929 . S
C84 C82 1.320 . S
C84 C85 1.405 . S
C84 H110 0.930 . S
C85 C80 1.479 . S
C85 C84 1.405 . S
C85 H111 0.931 . S
U86 O87 2.454 . S
U86 O88 2.458 . S
U86 C89 2.984 . S
U86 C90 2.847 . S
U86 C103 2.882 . S
U86 O104 2.441 . S
U86 O105 2.420 . S
U86 O106 2.455 . S
U86 O107 2.449 . S
O87 U86 2.454 . S
O87 C89 1.353 . S
O88 U86 2.458 . S
O88 C89 1.286 . S
C89 U86 2.984 . S
C89 O87 1.353 . S
C89 O88 1.286 . S
C89 C91 1.363 . S
C90 C80 1.465 . S
C90 U86 2.847 . S
C90 O104 1.249 . S
C90 O105 1.202 . S
C91 C89 1.363 . S
C91 C93 1.408 . S
C91 C96 1.342 . S
C92 C93 1.310 . S
C92 C95 1.461 . S
C92 H112 0.932 . S
C93 C91 1.408 . S
C93 C92 1.310 . S
C93 H113 0.930 . S
C94 C95 1.474 . S
C94 C96 1.285 . S
C94 H114 0.929 . S
C95 C92 1.461 . S
C95 C94 1.474 . S
C96 C91 1.342 . S
C96 C94 1.285 . S
C96 H115 0.930 . S
C97 C100 1.424 . S
C97 C102 1.245 . S
C97 C103 1.428 . S
C98 C101 1.260 . S
C98 C102 1.477 . S
C98 H116 0.932 . S
C99 C100 1.384 . S
C99 C101 1.479 . S
C99 H117 0.929 . S
C100 C97 1.424 . S
C100 C99 1.384 . S
C100 H118 0.928 . S
C101 C98 1.260 . S
C101 C99 1.479 . S
C102 C97 1.245 . S
C102 C98 1.477 . S
C102 H119 0.932 . S
C103 U86 2.882 . S
C103 C97 1.428 . S
C103 O106 1.301 . S
C103 O107 1.282 . S
O104 U86 2.441 . S
O104 C90 1.249 . S
O105 U86 2.420 . S
O105 C90 1.202 . S
O106 U86 2.455 . S
O106 C103 1.301 . S
O107 U86 2.449 . S
O107 C103 1.282 . S
H108 C81 0.931 . S
H109 C83 0.929 . S
H110 C84 0.930 . S
H111 C85 0.931 . S
H112 C92 0.932 . S
H113 C93 0.930 . S
H114 C94 0.929 . S
H115 C96 0.930 . S
H116 C98 0.932 . S
H117 C99 0.929 . S
H118 C100 0.928 . S
H119 C102 0.932 . S
C120 C121 1.264 . S
C120 C125 1.479 . S
C120 C130 1.465 . S
C121 C120 1.264 . S
C121 C123 1.339 . S
C121 H148 0.931 . S
C122 C123 1.395 . S
C122 C124 1.320 . S
C123 C121 1.339 . S
C123 C122 1.395 . S
C123 H149 0.929 . S
C124 C122 1.320 . S
C124 C125 1.405 . S
C124 H150 0.930 . S
C125 C120 1.479 . S
C125 C124 1.405 . S
C125 H151 0.931 . S
U126 O127 2.454 . S
U126 O128 2.458 . S
U126 C129 2.984 . S
U126 C130 2.847 1_455 S
U126 C143 2.882 . S
U126 O144 2.441 . S
U126 O145 2.413 1_455 S
U126 O146 2.455 . S
U126 O147 2.449 . S
O127 U126 2.454 . S
O127 C129 1.353 . S
O128 U126 2.458 . S
O128 C129 1.286 . S
C129 U126 2.984 . S
C129 O127 1.353 . S
C129 O128 1.286 . S
C129 C131 1.363 . S
C130 C120 1.465 . S
C130 U126 2.847 1_655 S
C130 O144 1.249 1_655 S
C130 O145 1.202 . S
C131 C129 1.363 . S
C131 C133 1.408 . S
C131 C136 1.342 . S
C132 C133 1.310 . S
C132 C135 1.461 . S
C132 H152 0.932 . S
C133 C131 1.408 . S
C133 C132 1.310 . S
C133 H153 0.930 . S
C134 C135 1.474 . S
C134 C136 1.285 . S
C134 H154 0.929 . S
C135 C132 1.461 . S
C135 C134 1.474 . S
C136 C131 1.342 . S
C136 C134 1.285 . S
C136 H155 0.930 . S
C137 C140 1.424 . S
C137 C142 1.245 . S
C137 C143 1.428 . S
C138 C141 1.260 . S
C138 C142 1.477 . S
C138 H156 0.932 . S
C139 C140 1.384 . S
C139 C141 1.479 . S
C139 H157 0.929 . S
C140 C137 1.424 . S
C140 C139 1.384 . S
C140 H158 0.928 . S
C141 C138 1.260 . S
C141 C139 1.479 . S
C142 C137 1.245 . S
C142 C138 1.477 . S
C142 H159 0.932 . S
C143 U126 2.882 . S
C143 C137 1.428 . S
C143 O146 1.301 . S
C143 O147 1.282 . S
O144 U126 2.441 . S
O144 C130 1.249 1_455 S
O145 U126 2.413 1_655 S
O145 C130 1.202 . S
O146 U126 2.455 . S
O146 C143 1.301 . S
O147 U126 2.449 . S
O147 C143 1.282 . S
H148 C121 0.931 . S
H149 C123 0.929 . S
H150 C124 0.930 . S
H151 C125 0.931 . S
H152 C132 0.932 . S
H153 C133 0.930 . S
H154 C134 0.929 . S
H155 C136 0.930 . S
H156 C138 0.932 . S
H157 C139 0.929 . S
H158 C140 0.928 . S
H159 C142 0.932 . S
C160 C161 1.264 . S
C160 C165 1.479 . S
C160 C170 1.465 . S
C161 C160 1.264 . S
C161 C163 1.339 . S
C161 H188 0.931 . S
C162 C163 1.395 . S
C162 C164 1.320 . S
C163 C161 1.339 . S
C163 C162 1.395 . S
C163 H189 0.929 . S
C164 C162 1.320 . S
C164 C165 1.405 . S
C164 H190 0.930 . S
C165 C160 1.479 . S
C165 C164 1.405 . S
C165 H191 0.931 . S
U166 O167 2.454 . S
U166 O168 2.458 . S
U166 C169 2.984 . S
U166 C170 2.847 . S
U166 C183 2.882 . S
U166 O184 2.441 . S
U166 O185 2.420 . S
U166 O186 2.455 . S
U166 O187 2.449 . S
O167 U166 2.454 . S
O167 C169 1.353 . S
O168 U166 2.458 . S
O168 C169 1.286 . S
C169 U166 2.984 . S
C169 O167 1.353 . S
C169 O168 1.286 . S
C169 C171 1.363 . S
C170 C160 1.465 . S
C170 U166 2.847 . S
C170 O184 1.249 . S
C170 O185 1.202 . S
C171 C169 1.363 . S
C171 C173 1.408 . S
C171 C176 1.342 . S
C172 C173 1.310 . S
C172 C175 1.461 . S
C172 H192 0.932 . S
C173 C171 1.408 . S
C173 C172 1.310 . S
C173 H193 0.930 . S
C174 C175 1.474 . S
C174 C176 1.285 . S
C174 H194 0.929 . S
C175 C172 1.461 . S
C175 C174 1.474 . S
C176 C171 1.342 . S
C176 C174 1.285 . S
C176 H195 0.930 . S
C177 C180 1.424 . S
C177 C182 1.245 . S
C177 C183 1.428 . S
C178 C181 1.260 . S
C178 C182 1.477 . S
C178 H196 0.932 . S
C179 C180 1.384 . S
C179 C181 1.479 . S
C179 H197 0.929 . S
C180 C177 1.424 . S
C180 C179 1.384 . S
C180 H198 0.928 . S
C181 C178 1.260 . S
C181 C179 1.479 . S
C182 C177 1.245 . S
C182 C178 1.477 . S
C182 H199 0.932 . S
C183 U166 2.882 . S
C183 C177 1.428 . S
C183 O186 1.301 . S
C183 O187 1.282 . S
O184 U166 2.441 . S
O184 C170 1.249 . S
O185 U166 2.420 . S
O185 C170 1.202 . S
O186 U166 2.455 . S
O186 C183 1.301 . S
O187 U166 2.449 . S
O187 C183 1.282 . S
H188 C161 0.931 . S
H189 C163 0.929 . S
H190 C164 0.930 . S
H191 C165 0.931 . S
H192 C172 0.932 . S
H193 C173 0.930 . S
H194 C174 0.929 . S
H195 C176 0.930 . S
H196 C178 0.932 . S
H197 C179 0.929 . S
H198 C180 0.928 . S
H199 C182 0.932 . S
C200 C201 1.264 . S
C200 C205 1.479 . S
C200 C210 1.465 . S
C201 C200 1.264 . S
C201 C203 1.339 . S
C201 H228 0.931 . S
C202 C203 1.395 . S
C202 C204 1.320 . S
C203 C201 1.339 . S
C203 C202 1.395 . S
C203 H229 0.929 . S
C204 C202 1.320 . S
C204 C205 1.405 . S
C204 H230 0.930 . S
C205 C200 1.479 . S
C205 C204 1.405 . S
C205 H231 0.931 . S
U206 O207 2.454 . S
U206 O208 2.458 1_455 S
U206 C209 2.984 1_455 S
U206 C210 2.847 . S
U206 C223 2.882 . S
U206 O224 2.441 . S
U206 O225 2.420 . S
U206 O226 2.455 . S
U206 O227 2.449 . S
O207 U206 2.454 . S
O207 C209 1.353 1_455 S
O208 U206 2.458 1_655 S
O208 C209 1.286 . S
C209 U206 2.984 1_655 S
C209 O207 1.353 1_655 S
C209 O208 1.286 . S
C209 C211 1.363 . S
C210 C200 1.465 . S
C210 U206 2.847 . S
C210 O224 1.249 . S
C210 O225 1.202 . S
C211 C209 1.363 . S
C211 C213 1.408 . S
C211 C216 1.342 . S
C212 C213 1.310 . S
C212 C215 1.461 . S
C212 H232 0.932 . S
C213 C211 1.408 . S
C213 C212 1.310 . S
C213 H233 0.930 . S
C214 C215 1.474 . S
C214 C216 1.285 . S
C214 H234 0.929 . S
C215 C212 1.461 . S
C215 C214 1.474 . S
C216 C211 1.342 . S
C216 C214 1.285 . S
C216 H235 0.930 . S
C217 C220 1.424 . S
C217 C222 1.245 . S
C217 C223 1.428 . S
C218 C221 1.260 . S
C218 C222 1.477 . S
C218 H236 0.932 . S
C219 C220 1.384 . S
C219 C221 1.479 . S
C219 H237 0.929 . S
C220 C217 1.424 . S
C220 C219 1.384 . S
C220 H238 0.928 . S
C221 C218 1.260 . S
C221 C219 1.479 . S
C222 C217 1.245 . S
C222 C218 1.477 . S
C222 H239 0.932 . S
C223 U206 2.882 . S
C223 C217 1.428 . S
C223 O226 1.301 . S
C223 O227 1.282 . S
O224 U206 2.441 . S
O224 C210 1.249 . S
O225 U206 2.420 . S
O225 C210 1.202 . S
O226 U206 2.455 . S
O226 C223 1.301 . S
O227 U206 2.449 . S
O227 C223 1.282 . S
H228 C201 0.931 . S
H229 C203 0.929 . S
H230 C204 0.930 . S
H231 C205 0.931 . S
H232 C212 0.932 . S
H233 C213 0.930 . S
H234 C214 0.929 . S
H235 C216 0.930 . S
H236 C218 0.932 . S
H237 C219 0.929 . S
H238 C220 0.928 . S
H239 C222 0.932 . S
C240 C241 1.264 . S
C240 C245 1.479 . S
C240 C250 1.465 . S
C241 C240 1.264 . S
C241 C243 1.339 . S
C241 H268 0.931 . S
C242 C243 1.395 . S
C242 C244 1.320 . S
C243 C241 1.339 . S
C243 C242 1.395 . S
C243 H269 0.929 . S
C244 C242 1.320 . S
C244 C245 1.405 . S
C244 H270 0.930 . S
C245 C240 1.479 . S
C245 C244 1.405 . S
C245 H271 0.931 . S
U246 O247 2.454 . S
U246 O248 2.458 . S
U246 C249 2.984 . S
U246 C250 2.847 . S
U246 C263 2.882 . S
U246 O264 2.441 . S
U246 O265 2.420 . S
U246 O266 2.455 . S
U246 O267 2.449 . S
O247 U246 2.454 . S
O247 C249 1.353 . S
O248 U246 2.458 . S
O248 C249 1.286 . S
C249 U246 2.984 . S
C249 O247 1.353 . S
C249 O248 1.286 . S
C249 C251 1.363 . S
C250 C240 1.465 . S
C250 U246 2.847 . S
C250 O264 1.249 . S
C250 O265 1.202 . S
C251 C249 1.363 . S
C251 C253 1.408 . S
C251 C256 1.342 . S
C252 C253 1.310 . S
C252 C255 1.461 . S
C252 H272 0.932 . S
C253 C251 1.408 . S
C253 C252 1.310 . S
C253 H273 0.930 . S
C254 C255 1.474 . S
C254 C256 1.285 . S
C254 H274 0.929 . S
C255 C252 1.461 . S
C255 C254 1.474 . S
C256 C251 1.342 . S
C256 C254 1.285 . S
C256 H275 0.930 . S
C257 C260 1.424 . S
C257 C262 1.245 . S
C257 C263 1.428 . S
C258 C261 1.260 . S
C258 C262 1.477 . S
C258 H276 0.932 . S
C259 C260 1.384 . S
C259 C261 1.479 . S
C259 H277 0.929 . S
C260 C257 1.424 . S
C260 C259 1.384 . S
C260 H278 0.928 . S
C261 C258 1.260 . S
C261 C259 1.479 . S
C262 C257 1.245 . S
C262 C258 1.477 . S
C262 H279 0.932 . S
C263 U246 2.882 . S
C263 C257 1.428 . S
C263 O266 1.301 . S
C263 O267 1.282 . S
O264 U246 2.441 . S
O264 C250 1.249 . S
O265 U246 2.420 . S
O265 C250 1.202 . S
O266 U246 2.455 . S
O266 C263 1.301 . S
O267 U246 2.449 . S
O267 C263 1.282 . S
H268 C241 0.931 . S
H269 C243 0.929 . S
H270 C244 0.930 . S
H271 C245 0.931 . S
H272 C252 0.932 . S
H273 C253 0.930 . S
H274 C254 0.929 . S
H275 C256 0.930 . S
H276 C258 0.932 . S
H277 C259 0.929 . S
H278 C260 0.928 . S
H279 C262 0.932 . S
C280 C281 1.264 . S
C280 C285 1.479 . S
C280 C290 1.465 . S
C281 C280 1.264 . S
C281 C283 1.339 . S
C281 H308 0.931 . S
C282 C283 1.395 . S
C282 C284 1.320 . S
C283 C281 1.339 . S
C283 C282 1.395 . S
C283 H309 0.929 . S
C284 C282 1.320 . S
C284 C285 1.405 . S
C284 H310 0.930 . S
C285 C280 1.479 . S
C285 C284 1.405 . S
C285 H311 0.931 . S
U286 O287 2.454 . S
U286 O288 2.458 . S
U286 C289 2.984 . S
U286 C290 2.847 . S
U286 C303 2.882 . S
U286 O304 2.441 . S
U286 O305 2.420 . S
U286 O306 2.455 . S
U286 O307 2.449 . S
O287 U286 2.454 . S
O287 C289 1.353 . S
O288 U286 2.458 . S
O288 C289 1.286 . S
C289 U286 2.984 . S
C289 O287 1.353 . S
C289 O288 1.286 . S
C289 C291 1.363 . S
C290 C280 1.465 . S
C290 U286 2.847 . S
C290 O304 1.249 . S
C290 O305 1.202 . S
C291 C289 1.363 . S
C291 C293 1.408 . S
C291 C296 1.342 . S
C292 C293 1.310 . S
C292 C295 1.461 . S
C292 H312 0.932 . S
C293 C291 1.408 . S
C293 C292 1.310 . S
C293 H313 0.930 . S
C294 C295 1.474 . S
C294 C296 1.285 . S
C294 H314 0.929 . S
C295 C292 1.461 . S
C295 C294 1.474 . S
C296 C291 1.342 . S
C296 C294 1.285 . S
C296 H315 0.930 . S
C297 C300 1.424 . S
C297 C302 1.245 . S
C297 C303 1.428 . S
C298 C301 1.260 . S
C298 C302 1.477 . S
C298 H316 0.932 . S
C299 C300 1.384 . S
C299 C301 1.479 . S
C299 H317 0.929 . S
C300 C297 1.424 . S
C300 C299 1.384 . S
C300 H318 0.928 . S
C301 C298 1.260 . S
C301 C299 1.479 . S
C302 C297 1.245 . S
C302 C298 1.477 . S
C302 H319 0.932 . S
C303 U286 2.882 . S
C303 C297 1.428 . S
C303 O306 1.301 . S
C303 O307 1.282 . S
O304 U286 2.441 . S
O304 C290 1.249 . S
O305 U286 2.420 . S
O305 C290 1.202 . S
O306 U286 2.455 . S
O306 C303 1.301 . S
O307 U286 2.449 . S
O307 C303 1.282 . S
H308 C281 0.931 . S
H309 C283 0.929 . S
H310 C284 0.930 . S
H311 C285 0.931 . S
H312 C292 0.932 . S
H313 C293 0.930 . S
H314 C294 0.929 . S
H315 C296 0.930 . S
H316 C298 0.932 . S
H317 C299 0.929 . S
H318 C300 0.928 . S
H319 C302 0.932 . S
H320 C332 0.982 . S
H321 C334 0.930 . S
H322 C335 0.930 . S
H323 C339 0.971 . S
H324 C339 0.967 . S
H325 C339 0.970 . S
H326 C340 0.960 . S
H327 C340 0.961 . S
H328 C340 0.959 . S
H329 C343 0.929 . S
H330 C344 0.931 . S
H331 C346 0.930 . S
C332 H320 0.982 . S
C332 C333 1.399 . S
C332 C337 1.415 . S
C333 C332 1.399 . S
C333 C334 1.376 . S
C334 H321 0.930 . S
C334 C333 1.376 . S
C334 C335 1.388 . S
C335 H322 0.930 . S
C335 C334 1.388 . S
C335 C336 1.390 . S
C336 C335 1.390 . S
C336 C337 1.415 . S
C336 C342 1.485 . S
C337 C332 1.415 . S
C337 C336 1.415 . S
C337 C338 1.481 1_556 S
C338 C337 1.481 1_554 S
C338 C339 1.474 1_455 S
C338 C340 1.561 . S
C338 C341 1.526 . S
C339 H323 0.971 . S
C339 H324 0.967 . S
C339 H325 0.970 . S
C339 C338 1.474 1_655 S
C340 H326 0.960 . S
C340 H327 0.961 . S
C340 H328 0.959 . S
C340 C338 1.561 . S
C341 C338 1.526 . S
C341 C342 1.363 1_554 S
C341 C346 1.390 . S
C342 C336 1.485 . S
C342 C341 1.363 1_556 S
C342 C343 1.408 . S
C343 H329 0.929 . S
C343 C342 1.408 . S
C343 C344 1.385 1_556 S
C344 H330 0.931 . S
C344 C343 1.385 1_554 S
C344 C345 1.389 . S
C345 C344 1.389 . S
C345 C346 1.387 . S
C346 H331 0.930 . S
C346 C341 1.390 . S
C346 C345 1.387 . S
H347 C359 0.930 . S
H348 C361 0.930 . S
H349 C362 0.930 . S
H350 C366 0.959 . S
H351 C366 0.959 . S
H352 C366 0.961 . S
H353 C367 0.960 . S
H354 C367 0.961 . S
H355 C367 0.959 . S
H356 C370 0.929 . S
H357 C371 0.931 . S
H358 C373 0.930 . S
C359 H347 0.930 . S
C359 C360 1.399 . S
C359 C364 1.399 . S
C360 C359 1.399 . S
C360 C361 1.376 . S
C361 H348 0.930 . S
C361 C360 1.376 . S
C361 C362 1.388 . S
C362 H349 0.930 . S
C362 C361 1.388 . S
C362 C363 1.390 . S
C363 C362 1.390 . S
C363 C364 1.394 . S
C363 C369 1.465 . S
C364 C359 1.399 . S
C364 C363 1.394 . S
C364 C365 1.516 . S
C365 C364 1.516 . S
C365 C366 1.502 . S
C365 C367 1.561 . S
C365 C368 1.526 . S
C366 H350 0.959 . S
C366 H351 0.959 . S
C366 H352 0.961 . S
C366 C365 1.502 . S
C367 H353 0.960 . S
C367 H354 0.961 . S
C367 H355 0.959 . S
C367 C365 1.561 . S
C368 C365 1.526 . S
C368 C369 1.396 . S
C368 C373 1.390 . S
C369 C363 1.465 . S
C369 C368 1.396 . S
C369 C370 1.399 . S
C370 H356 0.929 . S
C370 C369 1.399 . S
C370 C371 1.385 . S
C371 H357 0.931 . S
C371 C370 1.385 . S
C371 C372 1.389 . S
C372 C371 1.389 . S
C372 C373 1.387 . S
C373 H358 0.930 . S
C373 C368 1.390 . S
C373 C372 1.387 . S
H374 C386 0.930 . S
H375 C388 0.930 . S
H376 C389 0.930 . S
H377 C393 0.959 . S
H378 C393 0.959 . S
H379 C393 0.961 . S
H380 C394 0.960 . S
H381 C394 0.961 . S
H382 C394 0.959 . S
H383 C397 0.929 . S
H384 C398 0.931 . S
H385 C400 0.930 . S
C386 H374 0.930 . S
C386 C387 1.399 . S
C386 C391 1.399 . S
C387 C386 1.399 . S
C387 C388 1.376 . S
C388 H375 0.930 . S
C388 C387 1.376 . S
C388 C389 1.388 . S
C389 H376 0.930 . S
C389 C388 1.388 . S
C389 C390 1.390 . S
C390 C389 1.390 . S
C390 C391 1.394 . S
C390 C396 1.465 . S
C391 C386 1.399 . S
C391 C390 1.394 . S
C391 C392 1.516 . S
C392 C391 1.516 . S
C392 C393 1.502 . S
C392 C394 1.561 . S
C392 C395 1.526 . S
C393 H377 0.959 . S
C393 H378 0.959 . S
C393 H379 0.961 . S
C393 C392 1.502 . S
C394 H380 0.960 . S
C394 H381 0.961 . S
C394 H382 0.959 . S
C394 C392 1.561 . S
C395 C392 1.526 . S
C395 C396 1.396 . S
C395 C400 1.390 . S
C396 C390 1.465 . S
C396 C395 1.396 . S
C396 C397 1.399 . S
C397 H383 0.929 . S
C397 C396 1.399 . S
C397 C398 1.385 . S
C398 H384 0.931 . S
C398 C397 1.385 . S
C398 C399 1.389 . S
C399 C398 1.389 . S
C399 C400 1.387 . S
C400 H385 0.930 . S
C400 C395 1.390 . S
C400 C399 1.387 . S
H401 C413 0.930 . S
H402 C415 0.930 . S
H403 C416 0.930 . S
H404 C420 0.959 . S
H405 C420 0.959 . S
H406 C420 0.961 . S
H407 C421 0.960 . S
H408 C421 0.961 . S
H409 C421 0.959 . S
H410 C424 0.929 . S
H411 C425 0.931 . S
H412 C427 0.930 . S
C413 H401 0.930 . S
C413 C414 1.399 . S
C413 C418 1.399 . S
C414 C413 1.399 . S
C414 C415 1.376 . S
C415 H402 0.930 . S
C415 C414 1.376 . S
C415 C416 1.388 . S
C416 H403 0.930 . S
C416 C415 1.388 . S
C416 C417 1.390 . S
C417 C416 1.390 . S
C417 C418 1.394 . S
C417 C423 1.465 . S
C418 C413 1.399 . S
C418 C417 1.394 . S
C418 C419 1.516 . S
C419 C418 1.516 . S
C419 C420 1.502 . S
C419 C421 1.561 . S
C419 C422 1.526 . S
C420 H404 0.959 . S
C420 H405 0.959 . S
C420 H406 0.961 . S
C420 C419 1.502 . S
C421 H407 0.960 . S
C421 H408 0.961 . S
C421 H409 0.959 . S
C421 C419 1.561 . S
C422 C419 1.526 . S
C422 C423 1.396 . S
C422 C427 1.390 . S
C423 C417 1.465 . S
C423 C422 1.396 . S
C423 C424 1.399 . S
C424 H410 0.929 . S
C424 C423 1.399 . S
C424 C425 1.385 . S
C425 H411 0.931 . S
C425 C424 1.385 . S
C425 C426 1.389 . S
C426 C425 1.389 . S
C426 C427 1.387 . S
C427 H412 0.930 . S
C427 C422 1.390 . S
C427 C426 1.387 . S
H428 C440 0.930 . S
H429 C442 0.930 . S
H430 C443 0.930 . S
H431 C447 0.959 . S
H432 C447 0.959 . S
H433 C447 0.961 . S
H434 C448 0.960 . S
H435 C448 0.961 . S
H436 C448 0.959 . S
H437 C451 0.929 . S
H438 C452 0.931 . S
H439 C454 0.930 . S
C440 H428 0.930 . S
C440 C441 1.399 . S
C440 C445 1.399 . S
C441 C440 1.399 . S
C441 C442 1.376 . S
C442 H429 0.930 . S
C442 C441 1.376 . S
C442 C443 1.388 . S
C443 H430 0.930 . S
C443 C442 1.388 . S
C443 C444 1.390 . S
C444 C443 1.390 . S
C444 C445 1.394 . S
C444 C450 1.465 . S
C445 C440 1.399 . S
C445 C444 1.394 . S
C445 C446 1.516 . S
C446 C445 1.516 . S
C446 C447 1.502 . S
C446 C448 1.561 . S
C446 C449 1.526 . S
C447 H431 0.959 . S
C447 H432 0.959 . S
C447 H433 0.961 . S
C447 C446 1.502 . S
C448 H434 0.960 . S
C448 H435 0.961 . S
C448 H436 0.959 . S
C448 C446 1.561 . S
C449 C446 1.526 . S
C449 C450 1.396 . S
C449 C454 1.390 . S
C450 C444 1.465 . S
C450 C449 1.396 . S
C450 C451 1.399 . S
C451 H437 0.929 . S
C451 C450 1.399 . S
C451 C452 1.385 . S
C452 H438 0.931 . S
C452 C451 1.385 . S
C452 C453 1.389 . S
C453 C452 1.389 . S
C453 C454 1.387 . S
C454 H439 0.930 . S
C454 C449 1.390 . S
C454 C453 1.387 . S
H455 C467 0.930 . S
H456 C469 0.930 . S
H457 C470 0.930 . S
H458 C474 0.959 . S
H459 C474 0.959 . S
H460 C474 0.961 . S
H461 C475 0.960 . S
H462 C475 0.961 . S
H463 C475 0.959 . S
H464 C478 0.929 . S
H465 C479 0.931 . S
H466 C481 0.930 . S
C467 H455 0.930 . S
C467 C468 1.399 . S
C467 C472 1.399 . S
C468 C467 1.399 . S
C468 C469 1.376 . S
C469 H456 0.930 . S
C469 C468 1.376 . S
C469 C470 1.388 . S
C470 H457 0.930 . S
C470 C469 1.388 . S
C470 C471 1.390 . S
C471 C470 1.390 . S
C471 C472 1.394 . S
C471 C477 1.465 . S
C472 C467 1.399 . S
C472 C471 1.394 . S
C472 C473 1.516 . S
C473 C472 1.516 . S
C473 C474 1.502 . S
C473 C475 1.561 . S
C473 C476 1.526 . S
C474 H458 0.959 . S
C474 H459 0.959 . S
C474 H460 0.961 . S
C474 C473 1.502 . S
C475 H461 0.960 . S
C475 H462 0.961 . S
C475 H463 0.959 . S
C475 C473 1.561 . S
C476 C473 1.526 . S
C476 C477 1.396 . S
C476 C481 1.390 . S
C477 C471 1.465 . S
C477 C476 1.396 . S
C477 C478 1.399 . S
C478 H464 0.929 . S
C478 C477 1.399 . S
C478 C479 1.385 . S
C479 H465 0.931 . S
C479 C478 1.385 . S
C479 C480 1.389 . S
C480 C479 1.389 . S
C480 C481 1.387 . S
C481 H466 0.930 . S
C481 C476 1.390 . S
C481 C480 1.387 . S
H482 C494 0.930 . S
H483 C496 0.930 . S
H484 C497 0.930 . S
H485 C501 0.959 . S
H486 C501 0.959 . S
H487 C501 0.961 . S
H488 C502 0.960 . S
H489 C502 0.961 1_545 S
H490 C502 0.959 . S
H491 C505 0.929 . S
H492 C506 0.931 . S
H493 C508 0.930 . S
C494 H482 0.930 . S
C494 C495 1.399 . S
C494 C499 1.399 . S
C495 C494 1.399 . S
C495 C496 1.376 . S
C496 H483 0.930 . S
C496 C495 1.376 . S
C496 C497 1.388 . S
C497 H484 0.930 . S
C497 C496 1.388 . S
C497 C498 1.390 . S
C498 C497 1.390 . S
C498 C499 1.394 . S
C498 C504 1.465 1_565 S
C499 C494 1.399 . S
C499 C498 1.394 . S
C499 C500 1.516 1_565 S
C500 C499 1.516 1_545 S
C500 C501 1.502 . S
C500 C502 1.561 1_545 S
C500 C503 1.526 . S
C501 H485 0.959 . S
C501 H486 0.959 . S
C501 H487 0.961 . S
C501 C500 1.502 . S
C502 H488 0.960 . S
C502 H489 0.961 1_565 S
C502 H490 0.959 . S
C502 C500 1.561 1_565 S
C503 C500 1.526 . S
C503 C504 1.396 . S
C503 C508 1.390 . S
C504 C498 1.465 1_545 S
C504 C503 1.396 . S
C504 C505 1.399 . S
C505 H491 0.929 . S
C505 C504 1.399 . S
C505 C506 1.385 . S
C506 H492 0.931 . S
C506 C505 1.385 . S
C506 C507 1.389 . S
C507 C506 1.389 . S
C507 C508 1.387 . S
C508 H493 0.930 . S
C508 C503 1.390 . S
C508 C507 1.387 . S
H509 C521 0.930 . S
H510 C523 0.908 1_556 S
H511 C524 0.930 . S
H512 C528 0.959 . S
H513 C528 0.959 . S
H514 C528 0.961 . S
H515 C529 0.960 . S
H516 C529 0.961 . S
H517 C529 0.959 . S
H518 C532 0.929 1_565 S
H519 C533 0.931 . S
H520 C535 0.930 1_554 S
C521 H509 0.930 . S
C521 C522 1.399 . S
C521 C526 1.399 . S
C522 C521 1.399 . S
C522 C523 1.376 . S
C523 H510 0.908 1_554 S
C523 C522 1.376 . S
C523 C524 1.388 1_554 S
C524 H511 0.930 . S
C524 C523 1.388 1_556 S
C524 C525 1.390 . S
C525 C524 1.390 . S
C525 C526 1.394 1_556 S
C525 C531 1.465 1_565 S
C526 C521 1.399 . S
C526 C525 1.394 1_554 S
C526 C527 1.516 1_565 S
C527 C526 1.516 1_545 S
C527 C528 1.502 . S
C527 C529 1.561 . S
C527 C530 1.497 1_554 S
C528 H512 0.959 . S
C528 H513 0.959 . S
C528 H514 0.961 . S
C528 C527 1.502 . S
C529 H515 0.960 . S
C529 H516 0.961 . S
C529 H517 0.959 . S
C529 C527 1.561 . S
C530 C527 1.497 1_556 S
C530 C531 1.418 . S
C530 C535 1.399 . S
C531 C525 1.465 1_545 S
C531 C530 1.418 . S
C531 C532 1.399 . S
C532 H518 0.929 1_545 S
C532 C531 1.399 . S
C532 C533 1.385 . S
C533 H519 0.931 . S
C533 C532 1.385 . S
C533 C534 1.389 . S
C534 C533 1.389 . S
C534 C535 1.387 . S
C535 H520 0.930 1_556 S
C535 C530 1.399 . S
C535 C534 1.387 . S
H536 C548 0.930 . S
H537 C550 0.930 . S
H538 C551 0.930 . S
H539 C555 0.959 1_655 S
H540 C555 0.959 . S
H541 C555 0.961 . S
H542 C556 0.960 . S
H543 C556 0.961 . S
H544 C556 0.959 . S
H545 C559 0.929 . S
H546 C560 0.931 . S
H547 C562 0.930 . S
C548 H536 0.930 . S
C548 C549 1.399 . S
C548 C553 1.399 . S
C549 C548 1.399 . S
C549 C550 1.376 . S
C550 H537 0.930 . S
C550 C549 1.376 . S
C550 C551 1.388 . S
C551 H538 0.930 . S
C551 C550 1.388 . S
C551 C552 1.390 . S
C552 C551 1.390 . S
C552 C553 1.394 . S
C552 C558 1.465 . S
C553 C548 1.399 . S
C553 C552 1.394 . S
C553 C554 1.516 . S
C554 C553 1.516 . S
C554 C555 1.502 . S
C554 C556 1.561 . S
C554 C557 1.526 . S
C555 H539 0.959 1_455 S
C555 H540 0.959 . S
C555 H541 0.961 . S
C555 C554 1.502 . S
C556 H542 0.960 . S
C556 H543 0.961 . S
C556 H544 0.959 . S
C556 C554 1.561 . S
C557 C554 1.526 . S
C557 C558 1.396 . S
C557 C562 1.390 . S
C558 C552 1.465 . S
C558 C557 1.396 . S
C558 C559 1.399 . S
C559 H545 0.929 . S
C559 C558 1.399 . S
C559 C560 1.385 . S
C560 H546 0.931 . S
C560 C559 1.385 . S
C560 C561 1.389 . S
C561 C560 1.389 . S
C561 C562 1.387 . S
C562 H547 0.930 . S
C562 C557 1.390 . S
C562 C561 1.387 . S
H563 C575 0.930 . S
H564 C577 0.930 . S
H565 C578 0.930 . S
H566 C582 0.959 . S
H567 C582 0.959 . S
H568 C582 0.961 . S
H569 C583 0.960 . S
H570 C583 0.961 . S
H571 C583 0.959 . S
H572 C586 0.929 . S
H573 C587 0.931 . S
H574 C589 0.930 . S
C575 H563 0.930 . S
C575 C576 1.399 . S
C575 C580 1.399 . S
C576 C575 1.399 . S
C576 C577 1.376 . S
C577 H564 0.930 . S
C577 C576 1.376 . S
C577 C578 1.388 . S
C578 H565 0.930 . S
C578 C577 1.388 . S
C578 C579 1.390 . S
C579 C578 1.390 . S
C579 C580 1.394 . S
C579 C585 1.465 . S
C580 C575 1.399 . S
C580 C579 1.394 . S
C580 C581 1.516 . S
C581 C580 1.516 . S
C581 C582 1.502 . S
C581 C583 1.561 . S
C581 C584 1.526 . S
C582 H566 0.959 . S
C582 H567 0.959 . S
C582 H568 0.961 . S
C582 C581 1.502 . S
C583 H569 0.960 . S
C583 H570 0.961 . S
C583 H571 0.959 . S
C583 C581 1.561 . S
C584 C581 1.526 . S
C584 C585 1.396 . S
C584 C589 1.390 . S
C585 C579 1.465 . S
C585 C584 1.396 . S
C585 C586 1.399 . S
C586 H572 0.929 . S
C586 C585 1.399 . S
C586 C587 1.385 . S
C587 H573 0.931 . S
C587 C586 1.385 . S
C587 C588 1.389 . S
C588 C587 1.389 . S
C588 C589 1.387 . S
C589 H574 0.930 . S
C589 C584 1.390 . S
C589 C588 1.387 . S
H590 C602 0.930 . S
H591 C604 0.930 . S
H592 C605 0.930 . S
H593 C609 0.959 . S
H594 C609 0.959 . S
H595 C609 0.961 . S
H596 C610 0.960 . S
H597 C610 0.961 . S
H598 C610 0.959 . S
H599 C613 0.929 . S
H600 C614 0.931 . S
H601 C616 0.930 . S
C602 H590 0.930 . S
C602 C603 1.399 . S
C602 C607 1.399 . S
C603 C602 1.399 . S
C603 C604 1.376 . S
C604 H591 0.930 . S
C604 C603 1.376 . S
C604 C605 1.388 . S
C605 H592 0.930 . S
C605 C604 1.388 . S
C605 C606 1.390 . S
C606 C605 1.390 . S
C606 C607 1.394 . S
C606 C612 1.465 . S
C607 C602 1.399 . S
C607 C606 1.394 . S
C607 C608 1.516 . S
C608 C607 1.516 . S
C608 C609 1.502 . S
C608 C610 1.561 . S
C608 C611 1.526 . S
C609 H593 0.959 . S
C609 H594 0.959 . S
C609 H595 0.961 . S
C609 C608 1.502 . S
C610 H596 0.960 . S
C610 H597 0.961 . S
C610 H598 0.959 . S
C610 C608 1.561 . S
C611 C608 1.526 . S
C611 C612 1.396 . S
C611 C616 1.390 . S
C612 C606 1.465 . S
C612 C611 1.396 . S
C612 C613 1.399 . S
C613 H599 0.929 . S
C613 C612 1.399 . S
C613 C614 1.385 . S
C614 H600 0.931 . S
C614 C613 1.385 . S
C614 C615 1.389 . S
C615 C614 1.389 . S
C615 C616 1.387 . S
C616 H601 0.930 . S
C616 C611 1.390 . S
C616 C615 1.387 . S
H617 C629 0.930 . S
H618 C631 0.930 . S
H619 C632 0.930 . S
H620 C636 0.959 . S
H621 C636 0.959 . S
H622 C636 0.961 . S
H623 C637 0.960 . S
H624 C637 0.961 . S
H625 C637 0.959 . S
H626 C640 0.929 . S
H627 C641 0.931 . S
H628 C643 0.930 . S
C629 H617 0.930 . S
C629 C630 1.399 . S
C629 C634 1.399 . S
C630 C629 1.399 . S
C630 C631 1.376 . S
C631 H618 0.930 . S
C631 C630 1.376 . S
C631 C632 1.388 . S
C632 H619 0.930 . S
C632 C631 1.388 . S
C632 C633 1.390 . S
C633 C632 1.390 . S
C633 C634 1.394 . S
C633 C639 1.465 . S
C634 C629 1.399 . S
C634 C633 1.394 . S
C634 C635 1.516 . S
C635 C634 1.516 . S
C635 C636 1.502 . S
C635 C637 1.561 . S
C635 C638 1.526 . S
C636 H620 0.959 . S
C636 H621 0.959 . S
C636 H622 0.961 . S
C636 C635 1.502 . S
C637 H623 0.960 . S
C637 H624 0.961 . S
C637 H625 0.959 . S
C637 C635 1.561 . S
C638 C635 1.526 . S
C638 C639 1.396 . S
C638 C643 1.390 . S
C639 C633 1.465 . S
C639 C638 1.396 . S
C639 C640 1.399 . S
C640 H626 0.929 . S
C640 C639 1.399 . S
C640 C641 1.385 . S
C641 H627 0.931 . S
C641 C640 1.385 . S
C641 C642 1.389 . S
C642 C641 1.389 . S
C642 C643 1.387 . S
C643 H628 0.930 . S
C643 C638 1.390 . S
C643 C642 1.387 . S
C333 C175 1.494 . S
C345 C15 1.494 . S
C360 C215 1.493 . S
C372 C55 1.494 . S
C387 C82 1.474 . S
C399 C242 1.470 . S
C414 C122 1.465 . S
C426 C282 1.474 . S
C441 C295 1.491 . S
C453 C135 1.492 . S
C468 C202 1.498 . S
C480 C42 1.489 . S
C495 C255 1.493 . S
C507 C95 1.497 . S
C522 C2 1.474 . S
C534 C162 1.489 . S
C549 C221 1.467 . S
C561 C21 1.491 . S
C576 C261 1.473 . S
C588 C61 1.495 . S
C603 C101 1.495 . S
C615 C301 1.494 . S
C630 C181 1.468 . S
C642 C141 1.493 . S
