# Generated by pormake.
# Topology ske, (6)-cn, num edge types: 1
# Building blocks:
#     Node 0, Type 0, BuildingBlock: KUMJIN_clean_sbu_1, # of connection points: 6
#     Node 1, Type 0, BuildingBlock: KUMJIN_clean_sbu_1, # of connection points: 6
#     Node 2, Type 0, BuildingBlock: KUMJIN_clean_sbu_1, # of connection points: 6
#     Node 3, Type 0, BuildingBlock: KUMJIN_clean_sbu_1, # of connection points: 6
#     Node 4, Type 0, BuildingBlock: KUMJIN_clean_sbu_1, # of connection points: 6
#     Node 5, Type 0, BuildingBlock: KUMJIN_clean_sbu_1, # of connection points: 6
#     Node 6, Type 0, BuildingBlock: KUMJIN_clean_sbu_1, # of connection points: 6
#     Node 7, Type 0, BuildingBlock: KUMJIN_clean_sbu_1, # of connection points: 6
#     Edge 8, Type (0, 0), BuildingBlock: UVAHIK_clean_linker_0, # of connection points: 2
#     Edge 9, Type (0, 0), BuildingBlock: UVAHIK_clean_linker_0, # of connection points: 2
#     Edge 10, Type (0, 0), BuildingBlock: UVAHIK_clean_linker_0, # of connection points: 2
#     Edge 11, Type (0, 0), BuildingBlock: UVAHIK_clean_linker_0, # of connection points: 2
#     Edge 12, Type (0, 0), BuildingBlock: UVAHIK_clean_linker_0, # of connection points: 2
#     Edge 13, Type (0, 0), BuildingBlock: UVAHIK_clean_linker_0, # of connection points: 2
#     Edge 14, Type (0, 0), BuildingBlock: UVAHIK_clean_linker_0, # of connection points: 2
#     Edge 15, Type (0, 0), BuildingBlock: UVAHIK_clean_linker_0, # of connection points: 2
#     Edge 16, Type (0, 0), BuildingBlock: UVAHIK_clean_linker_0, # of connection points: 2
#     Edge 17, Type (0, 0), BuildingBlock: UVAHIK_clean_linker_0, # of connection points: 2
#     Edge 18, Type (0, 0), BuildingBlock: UVAHIK_clean_linker_0, # of connection points: 2
#     Edge 19, Type (0, 0), BuildingBlock: UVAHIK_clean_linker_0, # of connection points: 2
#     Edge 20, Type (0, 0), BuildingBlock: UVAHIK_clean_linker_0, # of connection points: 2
#     Edge 21, Type (0, 0), BuildingBlock: UVAHIK_clean_linker_0, # of connection points: 2
#     Edge 22, Type (0, 0), BuildingBlock: UVAHIK_clean_linker_0, # of connection points: 2
#     Edge 23, Type (0, 0), BuildingBlock: UVAHIK_clean_linker_0, # of connection points: 2
#     Edge 24, Type (0, 0), BuildingBlock: UVAHIK_clean_linker_0, # of connection points: 2
#     Edge 25, Type (0, 0), BuildingBlock: UVAHIK_clean_linker_0, # of connection points: 2
#     Edge 26, Type (0, 0), BuildingBlock: UVAHIK_clean_linker_0, # of connection points: 2
#     Edge 27, Type (0, 0), BuildingBlock: UVAHIK_clean_linker_0, # of connection points: 2
#     Edge 28, Type (0, 0), BuildingBlock: UVAHIK_clean_linker_0, # of connection points: 2
#     Edge 29, Type (0, 0), BuildingBlock: UVAHIK_clean_linker_0, # of connection points: 2
#     Edge 30, Type (0, 0), BuildingBlock: UVAHIK_clean_linker_0, # of connection points: 2
#     Edge 31, Type (0, 0), BuildingBlock: UVAHIK_clean_linker_0, # of connection points: 2
# Relax obj value: 0.219
# Max RMSD: 0.230
# Mean RMSD: 0.228
data_MOF--net-ske--node1-KUMJIN_clean_sbu_1--edge1-UVAHIK_clean_linker_0
_symmetry_space_group_name_H-M    P1
_symmetry_Int_Tables_number       1
_symmetry_cell_setting            triclinic
loop_
_symmetry_equiv_pos_as_xyz
'x, y, z'
_cell_length_a     115.7532
_cell_length_b     38.830488
_cell_length_c     19.491198
_cell_angle_alpha  97.627589
_cell_angle_beta   89.959241
_cell_angle_gamma 89.981805
loop_
_atom_site_label
_atom_site_type_symbol
_atom_site_fract_x
_atom_site_fract_y
_atom_site_fract_z
_atom_type_partial_charge
Eu0 Eu 0.14931 0.25226 0.53038 0.0
C1 C 0.10754 0.2088 0.68489 0.0
N2 N 0.10989 0.19948 0.61661 0.0
C3 C 0.10675 0.13958 0.62934 0.0
C4 C 0.10537 0.18353 0.72903 0.0
C5 C 0.10868 0.16568 0.58765 0.0
C6 C 0.10535 0.14848 0.70066 0.0
C7 C 0.10337 0.25451 0.77917 0.0
C8 C 0.10652 0.24378 0.70976 0.0
C9 C 0.10185 0.22949 0.82425 0.0
C10 C 0.10287 0.19407 0.79925 0.0
Eu11 Eu 0.11436 0.24558 0.55225 0.0
N12 N 0.10839 0.2674 0.6655 0.0
C13 C 0.10174 0.29004 0.80086 0.0
C14 C 0.10621 0.30187 0.68505 0.0
C15 C 0.103 0.31376 0.7533 0.0
H16 H 0.10914 0.15872 0.53224 0.0
H17 H 0.10156 0.34119 0.76928 0.0
H18 H 0.15176 0.32894 0.47128 0.0
H19 H 0.16222 0.12327 0.40518 0.0
H20 H 0.10731 0.32013 0.64821 0.0
H21 H 0.09932 0.29933 0.8538 0.0
H22 H 0.15736 0.16764 0.50334 0.0
H23 H 0.10619 0.11269 0.6063 0.0
H24 H 0.09965 0.23723 0.87813 0.0
H25 H 0.10136 0.17503 0.83416 0.0
H26 H 0.15598 0.35179 0.36116 0.0
H27 H 0.10374 0.12825 0.73278 0.0
H28 H 0.16425 0.13993 0.28756 0.0
N29 N 0.15355 0.27613 0.42766 0.0
C30 C 0.15657 0.25346 0.37134 0.0
C31 C 0.15609 0.32407 0.36321 0.0
C32 C 0.15898 0.26522 0.30747 0.0
C33 C 0.15366 0.31115 0.42528 0.0
C34 C 0.15863 0.30099 0.30382 0.0
N35 N 0.15524 0.20821 0.44102 0.0
C36 C 0.15762 0.17492 0.45184 0.0
C37 C 0.16039 0.19418 0.3206 0.0
C38 C 0.15721 0.21841 0.37794 0.0
C39 C 0.16182 0.15936 0.33027 0.0
C40 C 0.16064 0.14983 0.3965 0.0
H41 H 0.16043 0.31105 0.25566 0.0
H42 H 0.16338 0.24949 0.19978 0.0
H43 H 0.16468 0.18726 0.21133 0.0
O44 O 0.16708 0.23712 0.54881 0.0
O45 O 0.13654 0.26593 0.44829 0.0
O46 O 0.12168 0.22715 0.44474 0.0
O47 O 0.16165 0.28934 0.58458 0.0
O48 O 0.14159 0.20249 0.55993 0.0
O49 O 0.12417 0.19795 0.50251 0.0
O50 O 0.10206 0.27775 0.50434 0.0
O51 O 0.12603 0.26753 0.64216 0.0
O52 O 0.1425 0.23505 0.6306 0.0
O53 O 0.09633 0.22953 0.53607 0.0
O54 O 0.12141 0.29815 0.53343 0.0
O55 O 0.14039 0.30274 0.57425 0.0
C56 C 0.12923 0.24474 0.4128 0.0
C57 C 0.18145 0.28007 0.55432 0.0
C58 C 0.20234 0.28677 0.57015 0.0
C59 C 0.2031 0.29827 0.50489 0.0
C60 C 0.18247 0.2914 0.48921 0.0
C61 C 0.19321 0.3007 0.46496 0.0
C62 C 0.19142 0.27806 0.595 0.0
C63 C 0.13328 0.18379 0.52776 0.0
C64 C 0.17028 0.26762 0.57794 0.0
C65 C 0.16167 0.24102 0.24958 0.0
C66 C 0.16236 0.20557 0.25611 0.0
C67 C 0.13415 0.25008 0.66936 0.0
C68 C 0.08673 0.24848 0.44132 0.0
C69 C 0.06785 0.24253 0.38468 0.0
C70 C 0.07347 0.23511 0.32035 0.0
C71 C 0.09216 0.24085 0.37674 0.0
C72 C 0.0746 0.24914 0.44512 0.0
C73 C 0.08553 0.23422 0.3166 0.0
C74 C 0.13066 0.31652 0.55477 0.0
C75 C 0.09353 0.256 0.50523 0.0
H76 H 0.21136 0.30544 0.48481 0.0
H77 H 0.17505 0.29253 0.45648 0.0
H78 H 0.1939 0.30941 0.4146 0.0
H79 H 0.19073 0.26862 0.64477 0.0
H80 H 0.06854 0.22953 0.27298 0.0
H81 H 0.10149 0.24011 0.37284 0.0
H82 H 0.07045 0.25534 0.4951 0.0
H83 H 0.08976 0.22833 0.26687 0.0
Eu84 Eu 0.89602 0.24919 0.5588 0.0
C85 C 0.85032 0.24303 0.38535 0.0
N86 N 0.8565 0.26659 0.42857 0.0
C87 C 0.85578 0.30679 0.34532 0.0
C88 C 0.84694 0.25022 0.31922 0.0
C89 C 0.85896 0.29852 0.41037 0.0
C90 C 0.84981 0.28247 0.29935 0.0
C91 C 0.84164 0.18575 0.36222 0.0
C92 C 0.8477 0.21114 0.40662 0.0
C93 C 0.83825 0.19285 0.29634 0.0
C94 C 0.8409 0.22498 0.27491 0.0
Eu95 Eu 0.86122 0.25007 0.53783 0.0
N96 N 0.85118 0.20479 0.47034 0.0
C97 C 0.83917 0.1539 0.38533 0.0
C98 C 0.84861 0.17412 0.49371 0.0
C99 C 0.84264 0.14812 0.45147 0.0
H100 H 0.86325 0.31782 0.44589 0.0
H101 H 0.84066 0.12376 0.47013 0.0
H102 H 0.8969 0.16535 0.59447 0.0
H103 H 0.91002 0.36792 0.71722 0.0
H104 H 0.85095 0.17 0.54558 0.0
H105 H 0.83454 0.13373 0.35273 0.0
H106 H 0.90255 0.33222 0.61191 0.0
H107 H 0.85788 0.33201 0.33084 0.0
H108 H 0.8336 0.17363 0.26151 0.0
H109 H 0.83826 0.23002 0.22386 0.0
H110 H 0.89977 0.13468 0.69519 0.0
H111 H 0.8474 0.28894 0.2489 0.0
H112 H 0.91447 0.34036 0.8215 0.0
N113 N 0.89908 0.21579 0.6507 0.0
C114 C 0.90324 0.23391 0.71034 0.0
C115 C 0.90052 0.16269 0.70065 0.0
C116 C 0.90556 0.21709 0.76877 0.0
C117 C 0.89848 0.1804 0.64391 0.0
C118 C 0.90387 0.18118 0.76374 0.0
N119 N 0.90269 0.28538 0.657 0.0
C120 C 0.90442 0.32015 0.65748 0.0
C121 C 0.90954 0.28881 0.77426 0.0
C122 C 0.9053 0.26945 0.71314 0.0
C123 C 0.91124 0.3246 0.77547 0.0
C124 C 0.90869 0.34031 0.71678 0.0
H125 H 0.90553 0.16734 0.80747 0.0
H126 H 0.91142 0.22389 0.8753 0.0
H127 H 0.91489 0.2866 0.88011 0.0
O128 O 0.91284 0.27128 0.53778 0.0
O129 O 0.88436 0.27324 0.64741 0.0
O130 O 0.86867 0.23752 0.63903 0.0
O131 O 0.91048 0.21582 0.52062 0.0
O132 O 0.88913 0.29678 0.51825 0.0
O133 O 0.87041 0.30238 0.56197 0.0
O134 O 0.84409 0.2394 0.57774 0.0
O135 O 0.87168 0.23225 0.44016 0.0
O136 O 0.88964 0.25867 0.45258 0.0
O137 O 0.84983 0.29243 0.58121 0.0
O138 O 0.86964 0.20363 0.57545 0.0
O139 O 0.88685 0.19897 0.51607 0.0
C140 C 0.87623 0.25671 0.67674 0.0
C141 C 0.92415 0.23981 0.45058 0.0
C142 C 0.94286 0.23991 0.39212 0.0
C143 C 0.93705 0.23665 0.32813 0.0
C144 C 0.91854 0.23665 0.38633 0.0
C145 C 0.92499 0.2351 0.32545 0.0
C146 C 0.93627 0.24152 0.45333 0.0
C147 C 0.87991 0.31543 0.53792 0.0
C148 C 0.9175 0.2415 0.51523 0.0
C149 C 0.90968 0.2364 0.82989 0.0
C150 C 0.91171 0.2721 0.83255 0.0
C151 C 0.88108 0.24457 0.41419 0.0
C152 C 0.82983 0.28099 0.56331 0.0
C153 C 0.80877 0.28303 0.57396 0.0
C154 C 0.80811 0.29432 0.50847 0.0
C155 C 0.82894 0.29278 0.49849 0.0
C156 C 0.81972 0.27644 0.60122 0.0
C157 C 0.81814 0.2993 0.47127 0.0
C158 C 0.87752 0.18488 0.53928 0.0
C159 C 0.84118 0.27194 0.59035 0.0
H160 H 0.94182 0.23478 0.27996 0.0
H161 H 0.90921 0.23527 0.38328 0.0
H162 H 0.92062 0.23252 0.27593 0.0
H163 H 0.94052 0.24451 0.50329 0.0
H164 H 0.79983 0.29987 0.48652 0.0
H165 H 0.83656 0.29692 0.46877 0.0
H166 H 0.82035 0.26722 0.65122 0.0
H167 H 0.81754 0.30828 0.42113 0.0
Eu168 Eu 0.1486 0.73933 0.49033 0.0
C169 C 0.10607 0.75047 0.31212 0.0
N170 N 0.10905 0.77315 0.36841 0.0
C171 C 0.10613 0.82121 0.30503 0.0
C172 C 0.10351 0.76236 0.24856 0.0
C173 C 0.10869 0.80817 0.3668 0.0
C174 C 0.10367 0.79819 0.2454 0.0
C175 C 0.10233 0.6912 0.26104 0.0
C176 C 0.10555 0.71533 0.31844 0.0
C177 C 0.10027 0.70272 0.19677 0.0
C178 C 0.10085 0.73822 0.19056 0.0
Eu179 Eu 0.11375 0.74928 0.46984 0.0
N180 N 0.10759 0.70499 0.38137 0.0
C181 C 0.10093 0.65635 0.27046 0.0
C182 C 0.1052 0.67164 0.39199 0.0
C183 C 0.10214 0.64669 0.33654 0.0
H184 H 0.11066 0.82585 0.41294 0.0
H185 H 0.10054 0.62011 0.34504 0.0
H186 H 0.15364 0.65313 0.47705 0.0
H187 H 0.16107 0.83832 0.70262 0.0
H188 H 0.10546 0.66409 0.44328 0.0
H189 H 0.09847 0.637 0.22771 0.0
H190 H 0.15548 0.8153 0.58245 0.0
H191 H 0.1061 0.84896 0.30334 0.0
H192 H 0.09795 0.68446 0.15194 0.0
H193 H 0.09905 0.74678 0.14096 0.0
H194 H 0.15645 0.60832 0.55448 0.0
H195 H 0.10178 0.80835 0.19747 0.0
H196 H 0.16321 0.79817 0.79047 0.0
N197 N 0.15284 0.69487 0.55908 0.0
C198 C 0.1551 0.70524 0.62706 0.0
C199 C 0.15589 0.63547 0.57585 0.0
C200 C 0.15721 0.68083 0.67309 0.0
C201 C 0.15404 0.6608 0.53227 0.0
C202 C 0.15722 0.64547 0.64691 0.0
N203 N 0.15428 0.76311 0.60336 0.0
C204 C 0.15645 0.79776 0.62074 0.0
C205 C 0.15918 0.75229 0.71863 0.0
C206 C 0.15609 0.74043 0.64965 0.0
C207 C 0.16082 0.788 0.73794 0.0
C208 C 0.15961 0.81077 0.6885 0.0
H209 H 0.15877 0.62586 0.68053 0.0
H210 H 0.16111 0.67415 0.77931 0.0
H211 H 0.16284 0.7368 0.81923 0.0
O212 O 0.1623 0.77002 0.44911 0.0
O213 O 0.13692 0.76119 0.58097 0.0
O214 O 0.12006 0.73052 0.5695 0.0
O215 O 0.16545 0.7167 0.46142 0.0
O216 O 0.14237 0.79266 0.46963 0.0
O217 O 0.12349 0.79834 0.51223 0.0
O218 O 0.09517 0.74057 0.47861 0.0
O219 O 0.12641 0.76318 0.388 0.0
O220 O 0.14075 0.72266 0.38342 0.0
O221 O 0.1028 0.78702 0.5326 0.0
O222 O 0.12066 0.69881 0.49989 0.0
O223 O 0.13817 0.69219 0.44333 0.0
C224 C 0.1286 0.74439 0.60811 0.0
C225 C 0.18144 0.75419 0.47587 0.0
C226 C 0.20207 0.7655 0.46103 0.0
C227 C 0.2035 0.76705 0.53316 0.0
C228 C 0.18319 0.75566 0.54737 0.0
C229 C 0.19412 0.76231 0.57579 0.0
C230 C 0.1909 0.75916 0.43276 0.0
C231 C 0.13338 0.81161 0.4939 0.0
C232 C 0.16995 0.74527 0.44582 0.0
C233 C 0.15965 0.69251 0.74293 0.0
C234 C 0.16067 0.72818 0.76563 0.0
C235 C 0.1335 0.74144 0.35206 0.0
C236 C 0.08655 0.76374 0.58404 0.0
C237 C 0.06758 0.75876 0.63736 0.0
C238 C 0.07312 0.75369 0.69954 0.0
C239 C 0.09188 0.75844 0.64641 0.0
C240 C 0.07443 0.76388 0.57972 0.0
C241 C 0.08517 0.75355 0.70386 0.0
C242 C 0.12912 0.6792 0.47174 0.0
C243 C 0.09347 0.76832 0.52254 0.0
H244 H 0.21194 0.77101 0.55676 0.0
H245 H 0.17618 0.75092 0.58124 0.0
H246 H 0.19537 0.76314 0.63102 0.0
H247 H 0.18956 0.75785 0.37746 0.0
H248 H 0.06814 0.75018 0.74514 0.0
H249 H 0.10121 0.75805 0.6507 0.0
H250 H 0.07035 0.76735 0.53104 0.0
H251 H 0.08933 0.74962 0.75195 0.0
Eu252 Eu 0.89669 0.74957 0.46644 0.0
C253 C 0.85546 0.70558 0.62353 0.0
N254 N 0.85775 0.69528 0.55553 0.0
C255 C 0.85484 0.63579 0.57223 0.0
C256 C 0.85341 0.6811 0.66953 0.0
C257 C 0.85664 0.66117 0.52869 0.0
C258 C 0.85348 0.64575 0.6433 0.0
C259 C 0.85133 0.75252 0.71533 0.0
C260 C 0.85442 0.74074 0.64626 0.0
C261 C 0.84989 0.72834 0.76223 0.0
C262 C 0.85096 0.69269 0.73941 0.0
Eu263 Eu 0.86186 0.73989 0.48687 0.0
N264 N 0.8562 0.76351 0.60008 0.0
C265 C 0.84967 0.78821 0.73482 0.0
C266 C 0.85403 0.79814 0.61766 0.0
C267 C 0.85087 0.81105 0.68551 0.0
H268 H 0.85703 0.65352 0.47348 0.0
H269 H 0.84939 0.83859 0.69979 0.0
H270 H 0.89985 0.82628 0.41014 0.0
H271 H 0.91024 0.62073 0.34162 0.0
H272 H 0.85499 0.81574 0.57947 0.0
H273 H 0.84729 0.79831 0.78742 0.0
H274 H 0.90518 0.66462 0.43988 0.0
H275 H 0.85435 0.60865 0.55082 0.0
H276 H 0.84772 0.7369 0.81588 0.0
H277 H 0.84953 0.67429 0.77575 0.0
H278 H 0.90449 0.84958 0.30083 0.0
H279 H 0.85197 0.6261 0.67688 0.0
H280 H 0.91236 0.63772 0.22437 0.0
N281 N 0.9015 0.77364 0.36533 0.0
C282 C 0.90454 0.75105 0.30898 0.0
C283 C 0.90447 0.82182 0.30234 0.0
C284 C 0.90714 0.76304 0.24558 0.0
C285 C 0.90185 0.80867 0.36395 0.0
C286 C 0.90697 0.79889 0.24263 0.0
N287 N 0.90302 0.70549 0.378 0.0
C288 C 0.90547 0.67217 0.3886 0.0
C289 C 0.90838 0.69185 0.25777 0.0
C290 C 0.90509 0.7159 0.31515 0.0
C291 C 0.90983 0.65701 0.26712 0.0
C292 C 0.90861 0.64729 0.33316 0.0
H293 H 0.9089 0.80913 0.19484 0.0
H294 H 0.91171 0.74762 0.13805 0.0
H295 H 0.91286 0.68528 0.14877 0.0
O296 O 0.91528 0.74101 0.47564 0.0
O297 O 0.88411 0.76376 0.38453 0.0
O298 O 0.86967 0.72356 0.37966 0.0
O299 O 0.90753 0.78713 0.53034 0.0
O300 O 0.8897 0.69889 0.4952 0.0
O301 O 0.87221 0.69286 0.43848 0.0
O302 O 0.84809 0.77065 0.44651 0.0
O303 O 0.87357 0.76143 0.57745 0.0
O304 O 0.89032 0.73022 0.56534 0.0
O305 O 0.84502 0.71723 0.45835 0.0
O306 O 0.86809 0.79322 0.46629 0.0
O307 O 0.88696 0.79871 0.50888 0.0
C308 C 0.877 0.74219 0.34846 0.0
C309 C 0.92375 0.76372 0.58175 0.0
C310 C 0.94266 0.75856 0.6355 0.0
C311 C 0.93706 0.7533 0.69741 0.0
C312 C 0.91836 0.75821 0.64386 0.0
C313 C 0.92501 0.75314 0.70138 0.0
C314 C 0.93588 0.76386 0.57778 0.0
C315 C 0.88128 0.67951 0.46589 0.0
C316 C 0.91689 0.76856 0.5202 0.0
C317 C 0.90987 0.73898 0.18754 0.0
C318 C 0.91048 0.70346 0.1936 0.0
C319 C 0.88185 0.74435 0.60429 0.0
C320 C 0.82898 0.75461 0.47355 0.0
C321 C 0.80835 0.76595 0.45916 0.0
C322 C 0.80693 0.76721 0.53124 0.0
C323 C 0.82724 0.7558 0.54502 0.0
C324 C 0.81952 0.75973 0.43068 0.0
C325 C 0.81631 0.76232 0.57364 0.0
C326 C 0.87708 0.81208 0.49065 0.0
C327 C 0.84047 0.74584 0.44318 0.0
H328 H 0.942 0.74965 0.74308 0.0
H329 H 0.90903 0.75781 0.64788 0.0
H330 H 0.9208 0.74905 0.74926 0.0
H331 H 0.94 0.7675 0.52931 0.0
H332 H 0.79848 0.77109 0.55496 0.0
H333 H 0.83426 0.75096 0.57868 0.0
H334 H 0.82085 0.75866 0.37541 0.0
H335 H 0.81506 0.76293 0.62884 0.0
Eu336 Eu 0.64926 0.74995 0.04366 0.0
C337 C 0.60722 0.7341 0.21611 0.0
N338 N 0.61137 0.71599 0.15639 0.0
C339 C 0.60992 0.66286 0.20623 0.0
C340 C 0.60489 0.71725 0.27451 0.0
C341 C 0.61197 0.68059 0.14952 0.0
C342 C 0.60657 0.68133 0.26938 0.0
C343 C 0.60095 0.78901 0.28025 0.0
C344 C 0.60518 0.76966 0.21903 0.0
C345 C 0.59877 0.77226 0.33849 0.0
C346 C 0.60078 0.73654 0.33571 0.0
Eu347 Eu 0.61445 0.74944 0.06458 0.0
N348 N 0.6078 0.78561 0.16294 0.0
C349 C 0.59927 0.82482 0.28158 0.0
C350 C 0.60609 0.8204 0.16355 0.0
C351 C 0.60183 0.84055 0.22294 0.0
H352 H 0.61355 0.66556 0.10005 0.0
H353 H 0.60053 0.86819 0.22349 0.0
H354 H 0.64738 0.81758 0.95135 0.0
H355 H 0.66978 0.62344 0.97697 0.0
H356 H 0.60799 0.83251 0.11802 0.0
H357 H 0.59604 0.84057 0.32769 0.0
H358 H 0.65948 0.66987 0.05207 0.0
H359 H 0.61066 0.63484 0.2007 0.0
H360 H 0.5956 0.78676 0.38612 0.0
H361 H 0.59903 0.72401 0.3811 0.0
H362 H 0.65285 0.83158 0.83629 0.0
H363 H 0.6049 0.66747 0.31308 0.0
H364 H 0.67597 0.63315 0.85952 0.0
N365 N 0.6541 0.76628 0.93438 0.0
C366 C 0.66027 0.74261 0.89133 0.0
C367 C 0.65491 0.80636 0.85092 0.0
C368 C 0.66371 0.74968 0.8252 0.0
C369 C 0.65168 0.7982 0.91598 0.0
C370 C 0.66089 0.78193 0.80513 0.0
N371 N 0.65932 0.70453 0.97656 0.0
C372 C 0.66186 0.67388 1.00017 0.0
C373 C 0.66892 0.68523 0.86862 0.0
C374 C 0.66284 0.71074 0.91281 0.0
C375 C 0.67134 0.65341 0.89196 0.0
C376 C 0.66782 0.64778 0.95813 0.0
H377 H 0.66334 0.78831 0.75466 0.0
H378 H 0.67244 0.72927 0.73002 0.0
H379 H 0.67701 0.6729 0.76804 0.0
O380 O 0.66636 0.73921 0.08374 0.0
O381 O 0.63884 0.73249 0.9458 0.0
O382 O 0.62087 0.75897 0.95842 0.0
O383 O 0.66061 0.79226 0.08755 0.0
O384 O 0.64076 0.70347 0.08083 0.0
O385 O 0.62356 0.69916 0.02146 0.0
O386 O 0.59764 0.77167 0.04413 0.0
O387 O 0.62612 0.77338 0.15309 0.0
O388 O 0.64173 0.73731 0.14461 0.0
O389 O 0.59999 0.71622 0.02599 0.0
O390 O 0.62137 0.79704 0.02412 0.0
O391 O 0.64011 0.80245 0.06736 0.0
C392 C 0.62944 0.74486 0.91996 0.0
C393 C 0.68062 0.78086 0.06995 0.0
C394 C 0.70167 0.78293 0.08105 0.0
C395 C 0.70239 0.7943 0.01564 0.0
C396 C 0.68157 0.79271 1.00521 0.0
C397 C 0.69239 0.7993 0.97826 0.0
C398 C 0.69071 0.77629 0.10805 0.0
C399 C 0.63288 0.68489 0.04438 0.0
C400 C 0.66925 0.77175 0.09667 0.0
C401 C 0.66976 0.72432 0.78108 0.0
C402 C 0.67235 0.6922 0.80272 0.0
C403 C 0.63422 0.75672 0.18238 0.0
C404 C 0.58634 0.74065 0.95649 0.0
C405 C 0.56767 0.74085 0.8979 0.0
C406 C 0.57352 0.73898 0.83414 0.0
C407 C 0.59199 0.73878 0.89245 0.0
C408 C 0.57421 0.74167 0.95906 0.0
C409 C 0.58558 0.73796 0.83162 0.0
C410 C 0.63063 0.81558 0.04334 0.0
C411 C 0.59297 0.74198 0.0211 0.0
H412 H 0.71069 0.79988 0.99389 0.0
H413 H 0.67397 0.79685 0.97533 0.0
H414 H 0.69302 0.80833 0.92818 0.0
H415 H 0.69004 0.76702 0.15797 0.0
H416 H 0.56877 0.73782 0.78604 0.0
H417 H 0.60133 0.73791 0.88952 0.0
H418 H 0.56991 0.74359 1.00883 0.0
H419 H 0.58998 0.73642 0.78228 0.0
Eu420 Eu 0.39576 0.75031 0.06341 0.0
C421 C 0.34978 0.74372 0.89135 0.0
N422 N 0.35603 0.76735 0.93397 0.0
C423 C 0.35518 0.8073 0.85028 0.0
C424 C 0.34628 0.75074 0.82533 0.0
C425 C 0.35847 0.79918 0.91525 0.0
C426 C 0.34912 0.78292 0.80493 0.0
C427 C 0.34106 0.68646 0.86937 0.0
C428 C 0.3472 0.71192 0.91313 0.0
C429 C 0.33756 0.69339 0.80358 0.0
C430 C 0.34016 0.72543 0.78164 0.0
Eu431 Eu 0.36095 0.75113 0.04317 0.0
N432 N 0.35079 0.70575 0.97675 0.0
C433 C 0.33863 0.65471 0.893 0.0
C434 C 0.34825 0.67518 1.00066 0.0
C435 C 0.34221 0.64912 0.95905 0.0
H436 H 0.36285 0.81851 0.95028 0.0
H437 H 0.34025 0.62484 0.97812 0.0
H438 H 0.39663 0.66629 0.09807 0.0
H439 H 0.40975 0.86866 0.22313 0.0
H440 H 0.35067 0.67121 0.05248 0.0
H441 H 0.33394 0.63448 0.8609 0.0
H442 H 0.40227 0.83326 0.11748 0.0
H443 H 0.35726 0.83245 0.83538 0.0
H444 H 0.33284 0.67412 0.76923 0.0
H445 H 0.33743 0.73035 0.73067 0.0
H446 H 0.39949 0.63531 0.19838 0.0
H447 H 0.34662 0.78926 0.75454 0.0
H448 H 0.41421 0.84076 0.32701 0.0
N449 N 0.39881 0.71661 0.15486 0.0
C450 C 0.40296 0.73457 0.21468 0.0
C451 C 0.40023 0.66333 0.20416 0.0
C452 C 0.40527 0.71757 0.27288 0.0
C453 C 0.39821 0.68121 0.14766 0.0
C454 C 0.40357 0.68165 0.26744 0.0
N455 N 0.40242 0.78624 0.16198 0.0
C456 C 0.40415 0.82103 0.16287 0.0
C457 C 0.40927 0.78932 0.2792 0.0
C458 C 0.40502 0.77013 0.21789 0.0
C459 C 0.41098 0.82513 0.28082 0.0
C460 C 0.40843 0.84103 0.22237 0.0
H461 H 0.40523 0.66767 0.31097 0.0
H462 H 0.41112 0.72406 0.37942 0.0
H463 H 0.4146 0.7868 0.38495 0.0
O464 O 0.41257 0.77253 0.04282 0.0
O465 O 0.38411 0.77436 0.15205 0.0
O466 O 0.36851 0.73831 0.14379 0.0
O467 O 0.41024 0.71709 0.02483 0.0
O468 O 0.38888 0.79802 0.02316 0.0
O469 O 0.37013 0.80355 0.06649 0.0
O470 O 0.34385 0.7407 0.08375 0.0
O471 O 0.3713 0.73383 0.94489 0.0
O472 O 0.38935 0.75982 0.95727 0.0
O473 O 0.34971 0.79365 0.08758 0.0
O474 O 0.36946 0.70458 0.07992 0.0
O475 O 0.38662 0.70017 0.02005 0.0
C476 C 0.37601 0.75774 0.18148 0.0
C477 C 0.42391 0.74146 0.95534 0.0
C478 C 0.44262 0.74144 0.89693 0.0
C479 C 0.43681 0.73966 0.83312 0.0
C480 C 0.4183 0.73967 0.89126 0.0
C481 C 0.42474 0.73879 0.83049 0.0
C482 C 0.43604 0.74233 0.95802 0.0
C483 C 0.37963 0.8166 0.04231 0.0
C484 C 0.41726 0.74284 0.0199 0.0
C485 C 0.40939 0.73671 0.33418 0.0
C486 C 0.41142 0.77242 0.33725 0.0
C487 C 0.38074 0.74597 0.91896 0.0
C488 C 0.32966 0.78265 0.07041 0.0
C489 C 0.30861 0.78452 0.08146 0.0
C490 C 0.30791 0.7965 0.01662 0.0
C491 C 0.32873 0.79508 1.00623 0.0
C492 C 0.31957 0.77768 0.1082 0.0
C493 C 0.31791 0.80188 0.97954 0.0
C494 C 0.3773 0.68596 0.04306 0.0
C495 C 0.34103 0.7733 0.09682 0.0
H496 H 0.44158 0.73847 0.78506 0.0
H497 H 0.40896 0.73893 0.88826 0.0
H498 H 0.42037 0.73733 0.78111 0.0
H499 H 0.44032 0.74418 1.00782 0.0
H500 H 0.29961 0.80224 0.99508 0.0
H501 H 0.33634 0.79949 0.97656 0.0
H502 H 0.32023 0.76793 0.15765 0.0
H503 H 0.31729 0.81136 0.9299 0.0
Eu504 Eu 0.64857 0.23939 0.98062 0.0
C505 C 0.606 0.25009 0.8024 0.0
N506 N 0.60897 0.27269 0.85885 0.0
C507 C 0.60595 0.32088 0.79595 0.0
C508 C 0.60341 0.26208 0.73901 0.0
C509 C 0.60856 0.30772 0.85755 0.0
C510 C 0.60351 0.29795 0.73617 0.0
C511 C 0.60233 0.19085 0.75089 0.0
C512 C 0.60553 0.21491 0.80843 0.0
C513 C 0.60024 0.20248 0.68677 0.0
C514 C 0.60077 0.23802 0.68086 0.0
Eu515 Eu 0.61375 0.24863 0.95997 0.0
N516 N 0.6076 0.20446 0.87123 0.0
C517 C 0.60097 0.15595 0.76004 0.0
C518 C 0.60524 0.17106 0.88161 0.0
C519 C 0.6022 0.14617 0.82601 0.0
H520 H 0.61051 0.32534 0.9038 0.0
H521 H 0.60064 0.11955 0.83431 0.0
H522 H 0.65368 0.15317 0.96741 0.0
H523 H 0.66083 0.33848 0.19317 0.0
H524 H 0.60552 0.16342 0.93282 0.0
H525 H 0.59852 0.13665 0.71717 0.0
H526 H 0.6553 0.31542 0.07293 0.0
H527 H 0.60588 0.34865 0.79452 0.0
H528 H 0.59793 0.18429 0.64183 0.0
H529 H 0.59894 0.24668 0.63138 0.0
H530 H 0.65649 0.10841 0.04486 0.0
H531 H 0.60159 0.30819 0.68839 0.0
H532 H 0.66303 0.29833 0.28097 0.0
N533 N 0.65283 0.19494 0.0494 0.0
C534 C 0.65509 0.20533 0.11739 0.0
C535 C 0.65592 0.13555 0.06622 0.0
C536 C 0.6572 0.18093 0.16344 0.0
C537 C 0.65405 0.16086 0.02262 0.0
C538 C 0.65724 0.14558 0.13728 0.0
N539 N 0.6542 0.2632 0.09374 0.0
C540 C 0.65629 0.29788 0.11119 0.0
C541 C 0.65909 0.25241 0.20903 0.0
C542 C 0.65603 0.24052 0.14001 0.0
C543 C 0.66067 0.28815 0.2284 0.0
C544 C 0.65942 0.31091 0.179 0.0
H545 H 0.65881 0.12598 0.17091 0.0
H546 H 0.6611 0.17428 0.26969 0.0
H547 H 0.66274 0.23695 0.30965 0.0
O548 O 0.66225 0.27029 0.9397 0.0
O549 O 0.63683 0.26084 0.07121 0.0
O550 O 0.62009 0.22961 0.05924 0.0
O551 O 0.66547 0.21701 0.95212 0.0
O552 O 0.64226 0.29272 0.96027 0.0
O553 O 0.62336 0.29794 1.00255 0.0
O554 O 0.59517 0.23971 0.96868 0.0
O555 O 0.62637 0.26297 0.87832 0.0
O556 O 0.64079 0.22275 0.87353 0.0
O557 O 0.60277 0.28604 0.02338 0.0
O558 O 0.62076 0.19808 0.9893 0.0
O559 O 0.6383 0.19206 0.93291 0.0
C560 C 0.62856 0.24373 0.09811 0.0
C561 C 0.6814 0.25473 0.96673 0.0
C562 C 0.70201 0.26634 0.95198 0.0
C563 C 0.70344 0.26787 0.02409 0.0
C564 C 0.68315 0.2562 0.03823 0.0
C565 C 0.69407 0.26298 0.06669 0.0
C566 C 0.69085 0.25985 0.92367 0.0
C567 C 0.63323 0.31147 0.98471 0.0
C568 C 0.66993 0.24565 0.93657 0.0
C569 C 0.65962 0.19263 0.2333 0.0
C570 C 0.6606 0.22831 0.25602 0.0
C571 C 0.63349 0.24139 0.84226 0.0
C572 C 0.58654 0.26241 0.07439 0.0
C573 C 0.56758 0.25727 0.12771 0.0
C574 C 0.57313 0.2519 0.18968 0.0
C575 C 0.59188 0.25681 0.13656 0.0
C576 C 0.57442 0.26261 0.07017 0.0
C577 C 0.58518 0.25169 0.1939 0.0
C578 C 0.62925 0.17872 0.96071 0.0
C579 C 0.59345 0.26729 0.01302 0.0
H580 H 0.71188 0.27196 0.0477 0.0
H581 H 0.67615 0.25135 0.07207 0.0
H582 H 0.69533 0.26381 0.12191 0.0
H583 H 0.68951 0.25856 0.86837 0.0
H584 H 0.56815 0.24821 0.23521 0.0
H585 H 0.60121 0.25637 0.14077 0.0
H586 H 0.57034 0.26632 0.02164 0.0
H587 H 0.58934 0.24753 0.24184 0.0
Eu588 Eu 0.39656 0.24975 0.96049 0.0
C589 C 0.35526 0.20636 0.11819 0.0
N590 N 0.35749 0.19605 0.05013 0.0
C591 C 0.35442 0.13663 0.06669 0.0
C592 C 0.35315 0.1819 0.16413 0.0
C593 C 0.35627 0.162 0.0232 0.0
C594 C 0.35311 0.14657 0.1378 0.0
C595 C 0.35125 0.25335 0.2101 0.0
C596 C 0.35431 0.24154 0.141 0.0
C597 C 0.34976 0.22918 0.25697 0.0
C598 C 0.35074 0.19351 0.23407 0.0
Eu599 Eu 0.36174 0.24061 0.98155 0.0
N600 N 0.35612 0.26428 0.09482 0.0
C601 C 0.34966 0.28906 0.22965 0.0
C602 C 0.354 0.29894 0.11245 0.0
C603 C 0.35088 0.31189 0.18034 0.0
H604 H 0.35663 0.15438 0.96797 0.0
H605 H 0.34945 0.33946 0.19465 0.0
H606 H 0.3998 0.3264 0.90406 0.0
H607 H 0.40971 0.12061 0.83515 0.0
H608 H 0.35498 0.31653 0.07426 0.0
H609 H 0.3473 0.29919 0.28228 0.0
H610 H 0.40482 0.16457 0.93358 0.0
H611 H 0.35384 0.10951 0.0452 0.0
H612 H 0.34762 0.23775 0.31066 0.0
H613 H 0.34928 0.17511 0.27037 0.0
H614 H 0.40442 0.34961 0.79463 0.0
H615 H 0.35156 0.12692 0.17134 0.0
H616 H 0.41181 0.13759 0.71789 0.0
N617 N 0.40134 0.27372 0.85923 0.0
C618 C 0.4043 0.25108 0.80281 0.0
C619 C 0.40435 0.32185 0.79615 0.0
C620 C 0.40689 0.26302 0.73934 0.0
C621 C 0.40175 0.30875 0.85782 0.0
C622 C 0.40678 0.29887 0.73639 0.0
N623 N 0.40272 0.20553 0.87183 0.0
C624 C 0.40509 0.17215 0.88232 0.0
C625 C 0.40799 0.1918 0.75146 0.0
C626 C 0.40478 0.21592 0.80895 0.0
C627 C 0.40935 0.15692 0.76072 0.0
C628 C 0.40814 0.14721 0.82677 0.0
H629 H 0.40871 0.30907 0.68855 0.0
H630 H 0.41136 0.24752 0.63169 0.0
H631 H 0.41238 0.18515 0.64234 0.0
O632 O 0.41513 0.24083 0.96908 0.0
O633 O 0.38393 0.26411 0.87893 0.0
O634 O 0.36949 0.22398 0.8743 0.0
O635 O 0.40752 0.28714 0.02389 0.0
O636 O 0.38953 0.19923 0.98983 0.0
O637 O 0.372 0.19328 0.93353 0.0
O638 O 0.34807 0.27166 0.94095 0.0
O639 O 0.37349 0.26206 0.07195 0.0
O640 O 0.39021 0.23071 0.05977 0.0
O641 O 0.34482 0.2184 0.95334 0.0
O642 O 0.36804 0.2939 0.96107 0.0
O643 O 0.38695 0.29913 1.00303 0.0
C644 C 0.3768 0.24256 0.84295 0.0
C645 C 0.42373 0.26345 0.07483 0.0
C646 C 0.44268 0.25809 0.12804 0.0
C647 C 0.43711 0.25282 0.19007 0.0
C648 C 0.41838 0.25794 0.13705 0.0
C649 C 0.42506 0.25276 0.19436 0.0
C650 C 0.43586 0.2635 0.07054 0.0
C651 C 0.38105 0.17989 0.96114 0.0
C652 C 0.41684 0.26838 0.01349 0.0
C653 C 0.40953 0.23891 0.68123 0.0
C654 C 0.41007 0.20338 0.68725 0.0
C655 C 0.38175 0.24492 0.09876 0.0
C656 C 0.32892 0.25631 0.96854 0.0
C657 C 0.30836 0.26868 0.95438 0.0
C658 C 0.30691 0.26967 0.02639 0.0
C659 C 0.32716 0.25724 0.03994 0.0
C660 C 0.3195 0.26211 0.92585 0.0
C661 C 0.31625 0.26415 0.06865 0.0
C662 C 0.37707 0.31265 0.98529 0.0
C663 C 0.34036 0.2471 0.93801 0.0
H664 H 0.44208 0.24908 0.23557 0.0
H665 H 0.40905 0.25762 0.14132 0.0
H666 H 0.42089 0.24867 0.24234 0.0
H667 H 0.43995 0.26714 0.02197 0.0
H668 H 0.29848 0.27379 0.05016 0.0
H669 H 0.33414 0.25187 0.07347 0.0
H670 H 0.32086 0.26125 0.87063 0.0
H671 H 0.31499 0.26455 0.12379 0.0
C672 C 0.21376 0.29799 0.68053 0.0
C673 C 0.21302 0.28326 0.61084 0.0
C674 C 0.22413 0.29653 0.71707 0.0
C675 C 0.25136 0.24808 0.72051 0.0
H676 H 0.26339 0.3333 0.82123 0.0
C677 C 0.29677 0.25288 0.84498 0.0
C678 C 0.2981 0.27314 0.90988 0.0
C679 C 0.28665 0.255 0.80634 0.0
C680 C 0.26011 0.3091 0.79428 0.0
H681 H 0.22237 0.2544 0.52551 0.0
H682 H 0.2404 0.25135 0.58959 0.0
H683 H 0.24489 0.33393 0.76173 0.0
H684 H 0.28997 0.31283 0.98309 0.0
H685 H 0.27225 0.31537 0.91775 0.0
H686 H 0.26635 0.22291 0.75425 0.0
C687 C 0.23302 0.26427 0.61581 0.0
C688 C 0.2495 0.30955 0.76005 0.0
C689 C 0.22273 0.2662 0.57905 0.0
C690 C 0.28919 0.29631 0.93399 0.0
C691 C 0.27905 0.29815 0.89582 0.0
C692 C 0.26189 0.2475 0.75552 0.0
C693 C 0.23389 0.27978 0.68494 0.0
C694 C 0.24502 0.27906 0.72271 0.0
C695 C 0.27755 0.27724 0.83177 0.0
C696 C 0.26644 0.27802 0.79291 0.0
H697 H 0.20642 0.31141 0.70618 0.0
H698 H 0.22453 0.30847 0.77049 0.0
H699 H 0.24807 0.22411 0.69258 0.0
H700 H 0.30338 0.23455 0.82481 0.0
H701 H 0.28595 0.23895 0.75667 0.0
C702 C 0.72118 0.29357 0.93058 0.0
C703 C 0.71228 0.27026 0.90723 0.0
C704 C 0.73134 0.295 0.89234 0.0
C705 C 0.74863 0.2432 0.75406 0.0
H706 H 0.76557 0.32959 0.75794 0.0
C707 C 0.7885 0.26086 0.5809 0.0
C708 C 0.79801 0.27868 0.61347 0.0
C709 C 0.77808 0.25877 0.61642 0.0
C710 C 0.76098 0.30522 0.75688 0.0
H711 H 0.70703 0.23095 0.82346 0.0
H712 H 0.72452 0.23457 0.75515 0.0
H713 H 0.74695 0.32942 0.81622 0.0
H714 H 0.8041 0.30791 0.70895 0.0
H715 H 0.78579 0.30462 0.77097 0.0
H716 H 0.76262 0.21934 0.69298 0.0
C717 C 0.72379 0.25108 0.80427 0.0
C718 C 0.7503 0.30504 0.79044 0.0
C719 C 0.71364 0.24939 0.84299 0.0
C720 C 0.79693 0.29386 0.68273 0.0
C721 C 0.78644 0.29222 0.71795 0.0
C722 C 0.75925 0.2435 0.71968 0.0
C723 C 0.73287 0.27352 0.82895 0.0
C724 C 0.744 0.27398 0.7901 0.0
C725 C 0.77687 0.27489 0.68497 0.0
C726 C 0.76558 0.27446 0.72123 0.0
H727 H 0.72038 0.31052 0.97915 0.0
H728 H 0.73813 0.31237 0.91372 0.0
H729 H 0.74419 0.21864 0.75352 0.0
H730 H 0.78912 0.24873 0.52766 0.0
H731 H 0.77084 0.24537 0.58959 0.0
C732 C 0.29683 0.79377 0.19061 0.0
C733 C 0.29787 0.77958 0.1208 0.0
C734 C 0.28639 0.79134 0.22604 0.0
C735 C 0.25494 0.77434 0.19448 0.0
H736 H 0.25473 0.76746 0.39105 0.0
C737 C 0.21368 0.74833 0.35194 0.0
C738 C 0.21236 0.7692 0.4163 0.0
C739 C 0.22387 0.74965 0.31347 0.0
C740 C 0.25466 0.76959 0.33619 0.0
H741 H 0.28897 0.75046 0.03409 0.0
H742 H 0.27092 0.74507 0.09622 0.0
H743 H 0.27309 0.76781 0.32997 0.0
H744 H 0.22055 0.80935 0.48822 0.0
H745 H 0.23835 0.81087 0.42209 0.0
H746 H 0.23643 0.77526 0.20103 0.0
C747 C 0.27799 0.75917 0.12331 0.0
C748 C 0.26519 0.76994 0.30111 0.0
C749 C 0.28837 0.76203 0.0877 0.0
C750 C 0.22134 0.79222 0.43986 0.0
C751 C 0.23155 0.7932 0.40192 0.0
C752 C 0.24439 0.77349 0.22948 0.0
C753 C 0.27678 0.77421 0.19275 0.0
C754 C 0.26551 0.77264 0.22981 0.0
C755 C 0.233 0.77159 0.33883 0.0
C756 C 0.24415 0.77145 0.30084 0.0
H757 H 0.30397 0.80776 0.21719 0.0
H758 H 0.2858 0.80376 0.27902 0.0
H759 H 0.25478 0.77706 0.13993 0.0
H760 H 0.20702 0.73003 0.33238 0.0
H761 H 0.22477 0.73262 0.26504 0.0
C762 C 0.72194 0.76077 0.08819 0.0
C763 C 0.71241 0.77851 0.12072 0.0
C764 C 0.73235 0.75864 0.12385 0.0
C765 C 0.74933 0.80487 0.26499 0.0
H766 H 0.76622 0.71838 0.26056 0.0
C767 C 0.78913 0.79302 0.43834 0.0
C768 C 0.79807 0.76988 0.41461 0.0
C769 C 0.77896 0.79445 0.40023 0.0
C770 C 0.76175 0.74292 0.26141 0.0
H771 H 0.70625 0.80755 0.21628 0.0
H772 H 0.72451 0.80418 0.27855 0.0
H773 H 0.7478 0.71912 0.2 0.0
H774 H 0.80338 0.7309 0.33034 0.0
H775 H 0.78587 0.73454 0.26227 0.0
H776 H 0.76331 0.82902 0.32468 0.0
C777 C 0.7239 0.79188 0.22545 0.0
C778 C 0.75114 0.74324 0.22702 0.0
C779 C 0.71343 0.79356 0.19008 0.0
C780 C 0.79673 0.7492 0.35016 0.0
C781 C 0.78658 0.7509 0.31157 0.0
C782 C 0.76 0.80468 0.29858 0.0
C783 C 0.7335 0.77464 0.19251 0.0
C784 C 0.74477 0.77417 0.22891 0.0
C785 C 0.77747 0.77317 0.3366 0.0
C786 C 0.76633 0.77365 0.29784 0.0
H787 H 0.72137 0.74874 0.03488 0.0
H788 H 0.7396 0.74531 0.09703 0.0
H789 H 0.74471 0.82923 0.26633 0.0
H790 H 0.7899 0.80982 0.4871 0.0
H791 H 0.77215 0.81168 0.42187 0.0
C792 C 0.14391 0.86588 0.47332 0.0
C793 C 0.13417 0.8499 0.49849 0.0
C794 C 0.14434 0.90198 0.47508 0.0
C795 C 0.12524 0.9787 0.48538 0.0
H796 H 0.15327 0.03056 0.53579 0.0
C797 C 0.14014 0.12949 0.57044 0.0
C798 C 0.13409 0.1456 0.52104 0.0
C799 C 0.14066 0.0933 0.56511 0.0
C800 C 0.14536 0.01644 0.52195 0.0
H801 H 0.11736 0.85958 0.547 0.0
H802 H 0.1182 0.92224 0.55079 0.0
H803 H 0.15316 0.96755 0.53369 0.0
H804 H 0.12412 0.13679 0.42632 0.0
H805 H 0.12509 0.07351 0.41652 0.0
H806 H 0.11733 0.02754 0.47548 0.0
C807 C 0.12541 0.90688 0.52842 0.0
C808 C 0.14533 0.98032 0.52001 0.0
C809 C 0.12498 0.87089 0.52662 0.0
C810 C 0.12872 0.12495 0.46556 0.0
C811 C 0.12926 0.08877 0.4601 0.0
C812 C 0.12526 0.01475 0.48735 0.0
C813 C 0.13503 0.92284 0.50206 0.0
C814 C 0.13524 0.96108 0.5022 0.0
C815 C 0.13516 0.07252 0.51011 0.0
C816 C 0.1353 0.03407 0.50599 0.0
H817 H 0.15115 0.85052 0.45128 0.0
H818 H 0.15184 0.91348 0.45391 0.0
H819 H 0.11736 0.9646 0.4705 0.0
H820 H 0.1443 0.14487 0.61395 0.0
H821 H 0.14514 0.08162 0.60498 0.0
C822 C 0.88967 0.36707 0.49914 0.0
C823 C 0.8802 0.35296 0.53102 0.0
C824 C 0.88988 0.40219 0.49075 0.0
C825 C 0.89117 0.48071 0.5162 0.0
H826 H 0.86341 0.52547 0.46019 0.0
C827 C 0.88766 0.629 0.52284 0.0
C828 C 0.88179 0.64173 0.46844 0.0
C829 C 0.88764 0.59357 0.5284 0.0
C830 C 0.87126 0.51325 0.47521 0.0
H831 H 0.86352 0.36493 0.57932 0.0
H832 H 0.86396 0.42641 0.56531 0.0
H833 H 0.86294 0.46394 0.47424 0.0
H834 H 0.87166 0.62742 0.37567 0.0
H835 H 0.87168 0.56515 0.38497 0.0
H836 H 0.89954 0.52979 0.51611 0.0
C837 C 0.87116 0.4101 0.54606 0.0
C838 C 0.87095 0.47813 0.48414 0.0
C839 C 0.87095 0.3749 0.55452 0.0
C840 C 0.87615 0.61825 0.41853 0.0
C841 C 0.87611 0.58271 0.42409 0.0
C842 C 0.89147 0.51578 0.5073 0.0
C843 C 0.88063 0.42412 0.51402 0.0
C844 C 0.8809 0.46147 0.5048 0.0
C845 C 0.88179 0.57003 0.47942 0.0
C846 C 0.88152 0.53248 0.48688 0.0
H847 H 0.89692 0.35094 0.4799 0.0
H848 H 0.89723 0.41204 0.46496 0.0
H849 H 0.89896 0.46876 0.53281 0.0
H850 H 0.89205 0.64655 0.56224 0.0
H851 H 0.89197 0.58473 0.57209 0.0
C852 C 0.88543 0.87132 0.52463 0.0
C853 C 0.8763 0.8504 0.49564 0.0
C854 C 0.88499 0.90735 0.52705 0.0
C855 C 0.88523 0.97961 0.48632 0.0
H856 H 0.85704 0.031 0.53556 0.0
C857 C 0.88212 0.12667 0.47431 0.0
C858 C 0.87649 0.14667 0.52971 0.0
C859 C 0.88148 0.09045 0.46644 0.0
C860 C 0.865 0.01703 0.52204 0.0
H861 H 0.85942 0.85117 0.44741 0.0
H862 H 0.85871 0.9142 0.45106 0.0
H863 H 0.85716 0.96788 0.53121 0.0
H864 H 0.8659 0.1446 0.62081 0.0
H865 H 0.86486 0.08134 0.60756 0.0
H866 H 0.89318 0.02867 0.47922 0.0
C867 C 0.86617 0.90262 0.47248 0.0
C868 C 0.86503 0.98083 0.5188 0.0
C869 C 0.86661 0.86648 0.47014 0.0
C870 C 0.87017 0.12981 0.57696 0.0
C871 C 0.86956 0.09358 0.56924 0.0
C872 C 0.8852 0.01573 0.48965 0.0
C873 C 0.87541 0.92343 0.50043 0.0
C874 C 0.87518 0.96175 0.5015 0.0
C875 C 0.87527 0.07346 0.51415 0.0
C876 C 0.87511 0.03491 0.50798 0.0
H877 H 0.893 0.85993 0.5453 0.0
H878 H 0.89215 0.92264 0.5502 0.0
H879 H 0.89315 0.96566 0.47182 0.0
H880 H 0.88701 0.13904 0.43694 0.0
H881 H 0.88585 0.07574 0.42288 0.0
C882 C 0.1343 0.61733 0.42888 0.0
C883 C 0.1287 0.6417 0.47739 0.0
C884 C 0.13441 0.58215 0.43761 0.0
C885 C 0.11925 0.51764 0.52875 0.0
H886 H 0.14754 0.4646 0.49454 0.0
C887 C 0.13961 0.37601 0.57517 0.0
C888 C 0.13023 0.35446 0.55235 0.0
C889 C 0.13942 0.41137 0.56798 0.0
C890 C 0.13961 0.47916 0.50498 0.0
H891 H 0.11856 0.64842 0.57178 0.0
H892 H 0.11883 0.58736 0.58737 0.0
H893 H 0.14714 0.52562 0.47658 0.0
H894 H 0.1132 0.35353 0.50525 0.0
H895 H 0.11294 0.41477 0.49244 0.0
H896 H 0.11178 0.47155 0.55862 0.0
C897 C 0.12307 0.59517 0.54234 0.0
C898 C 0.13934 0.51397 0.49373 0.0
C899 C 0.12294 0.6302 0.53352 0.0
C900 C 0.12058 0.36926 0.52369 0.0
C901 C 0.12039 0.40451 0.51653 0.0
C902 C 0.11953 0.48292 0.5401 0.0
C903 C 0.12886 0.57074 0.49479 0.0
C904 C 0.12915 0.53359 0.50545 0.0
C905 C 0.12984 0.42595 0.53807 0.0
C906 C 0.1297 0.46322 0.52815 0.0
H907 H 0.13868 0.62554 0.38468 0.0
H908 H 0.13879 0.56388 0.39947 0.0
H909 H 0.11123 0.53192 0.53769 0.0
H910 H 0.14717 0.36552 0.59771 0.0
H911 H 0.14677 0.42731 0.58597 0.0
C912 C 0.6283 0.62698 0.97811 0.0
C913 C 0.6339 0.64664 0.03401 0.0
C914 C 0.62892 0.59074 0.96937 0.0
C915 C 0.64531 0.51668 0.02333 0.0
H916 H 0.61721 0.46572 0.97017 0.0
C917 C 0.62481 0.37058 0.01959 0.0
C918 C 0.634 0.34984 0.99064 0.0
C919 C 0.62526 0.40667 0.02325 0.0
C920 C 0.62512 0.47954 0.9855 0.0
H921 H 0.64441 0.64393 0.1251 0.0
H922 H 0.64542 0.58063 0.11032 0.0
H923 H 0.6172 0.52879 0.97978 0.0
H924 H 0.65098 0.35102 0.94368 0.0
H925 H 0.6517 0.41416 0.94946 0.0
H926 H 0.65311 0.46731 0.03109 0.0
C927 C 0.64076 0.59316 0.07229 0.0
C928 C 0.62516 0.51571 0.9901 0.0
C929 C 0.64017 0.62942 0.08088 0.0
C930 C 0.64374 0.36617 0.96633 0.0
C931 C 0.64418 0.40239 0.96991 0.0
C932 C 0.64527 0.48042 0.01882 0.0
C933 C 0.63508 0.57337 0.01668 0.0
C934 C 0.63523 0.53476 1.00946 0.0
C935 C 0.6349 0.42303 0.99791 0.0
C936 C 0.63514 0.46145 1.00041 0.0
H937 H 0.62346 0.63963 0.94099 0.0
H938 H 0.62459 0.57633 0.92541 0.0
H939 H 0.65325 0.53054 0.03764 0.0
H940 H 0.61719 0.35901 0.03935 0.0
H941 H 0.61805 0.4218 0.04639 0.0
C942 C 0.38936 0.8681 1.00274 0.0
C943 C 0.37988 0.85407 0.03462 0.0
C944 C 0.38954 0.90312 0.99348 0.0
C945 C 0.39075 0.98165 0.01682 0.0
H946 H 0.363 0.02592 0.95936 0.0
C947 C 0.38735 0.12972 0.01941 0.0
C948 C 0.38147 0.14216 0.96471 0.0
C949 C 0.38727 0.09439 0.02596 0.0
C950 C 0.37085 0.01384 0.97478 0.0
H951 H 0.36313 0.8661 0.082 0.0
H952 H 0.36352 0.92741 0.06652 0.0
H953 H 0.36254 0.96458 0.97497 0.0
H954 H 0.37128 0.12737 0.87238 0.0
H955 H 0.37121 0.06527 0.88339 0.0
H956 H 0.39912 0.03065 0.01553 0.0
C957 C 0.37076 0.91111 0.04793 0.0
C958 C 0.37054 0.97882 0.98461 0.0
C959 C 0.37058 0.87601 0.05724 0.0
C960 C 0.37577 0.11845 0.91549 0.0
C961 C 0.37568 0.083 0.92203 0.0
C962 C 0.39105 0.01661 1.00702 0.0
C963 C 0.38024 0.92506 0.01589 0.0
C964 C 0.3805 0.96233 1.0058 0.0
C965 C 0.38138 0.07062 0.97765 0.0
C966 C 0.3811 0.03315 0.98606 0.0
H967 H 0.39665 0.85199 0.98415 0.0
H968 H 0.3969 0.91288 0.9677 0.0
H969 H 0.39854 0.96986 0.03384 0.0
H970 H 0.39179 0.14743 0.05829 0.0
H971 H 0.39162 0.08582 0.06987 0.0
C972 C 0.36652 0.36728 0.96683 0.0
C973 C 0.37629 0.35101 0.99094 0.0
C974 C 0.36607 0.40348 0.97011 0.0
C975 C 0.36497 0.48153 0.01851 0.0
H976 H 0.39297 0.52988 0.97804 0.0
C977 C 0.37004 0.63052 0.07981 0.0
C978 C 0.37626 0.64772 0.03266 0.0
C979 C 0.36945 0.59427 0.0713 0.0
C980 C 0.38503 0.51681 0.98875 0.0
H981 H 0.39314 0.36026 0.03896 0.0
H982 H 0.39225 0.42305 0.04549 0.0
H983 H 0.393 0.46682 0.96885 0.0
H984 H 0.38661 0.64067 0.93922 0.0
H985 H 0.38549 0.57736 0.92376 0.0
H986 H 0.35697 0.53164 0.03731 0.0
C987 C 0.38504 0.40787 0.02273 0.0
C988 C 0.38509 0.48064 0.98439 0.0
C989 C 0.3855 0.37179 0.01938 0.0
C990 C 0.38181 0.62804 0.97654 0.0
C991 C 0.38119 0.5918 0.96787 0.0
C992 C 0.36491 0.51778 0.02278 0.0
C993 C 0.37537 0.42416 0.99761 0.0
C994 C 0.3751 0.46257 0.99984 0.0
C995 C 0.37509 0.57445 0.01549 0.0
C996 C 0.37496 0.53586 1.0084 0.0
H997 H 0.35928 0.3521 0.94456 0.0
H998 H 0.35853 0.4152 0.94982 0.0
H999 H 0.35715 0.46843 0.03118 0.0
H1000 H 0.36584 0.64506 0.12421 0.0
H1001 H 0.36484 0.58176 0.10956 0.0
C1002 C 0.63456 0.11721 0.9155 0.0
C1003 C 0.62884 0.14101 0.96457 0.0
C1004 C 0.63465 0.08179 0.92233 0.0
C1005 C 0.61926 0.01562 1.00779 0.0
H1006 H 0.64778 0.96349 0.97611 0.0
C1007 C 0.63968 0.87497 0.05845 0.0
C1008 C 0.63039 0.85306 0.03573 0.0
C1009 C 0.63951 0.91007 0.04914 0.0
C1010 C 0.63977 0.97776 0.98566 0.0
H1011 H 0.61849 0.14645 0.05815 0.0
H1012 H 0.61867 0.0849 0.07023 0.0
H1013 H 0.64733 0.02479 0.96018 0.0
H1014 H 0.61364 0.85105 0.9851 0.0
H1015 H 0.61341 0.91194 0.96868 0.0
H1016 H 0.61176 0.96893 0.03481 0.0
C1017 C 0.62303 0.09339 0.02623 0.0
C1018 C 0.63948 0.01275 0.97564 0.0
C1019 C 0.62295 0.12868 0.01939 0.0
C1020 C 0.62092 0.86713 1.00378 0.0
C1021 C 0.62076 0.90215 0.99453 0.0
C1022 C 0.61955 0.98068 0.01778 0.0
C1023 C 0.62894 0.06953 0.97809 0.0
C1024 C 0.62922 0.0321 0.98676 0.0
C1025 C 0.63005 0.92405 0.01701 0.0
C1026 C 0.62981 0.96132 1.00687 0.0
H1027 H 0.63905 0.12604 0.8723 0.0
H1028 H 0.63914 0.064 0.88381 0.0
H1029 H 0.61119 0.02968 0.0162 0.0
H1030 H 0.64711 0.86503 0.08326 0.0
H1031 H 0.64675 0.92635 0.06779 0.0
C1032 C 0.12974 0.27521 0.30736 0.0
C1033 C 0.12863 0.24418 0.33642 0.0
C1034 C 0.13015 0.27494 0.23541 0.0
C1035 C 0.12488 0.21837 0.06564 0.0
H1036 H 0.14321 0.28924 0.99417 0.0
C1037 C 0.1361 0.21735 0.77194 0.0
C1038 C 0.13414 0.24875 0.7453 0.0
C1039 C 0.13532 0.21578 0.84349 0.0
C1040 C 0.138 0.26937 0.01325 0.0
H1041 H 0.12702 0.18842 0.31283 0.0
H1042 H 0.12809 0.18753 0.1871 0.0
H1043 H 0.1422 0.28779 0.11851 0.0
H1044 H 0.13 0.30317 0.77264 0.0
H1045 H 0.12905 0.3008 0.89755 0.0
H1046 H 0.12105 0.19946 0.95928 0.0
C1047 C 0.12835 0.2124 0.21954 0.0
C1048 C 0.13733 0.26862 0.08495 0.0
C1049 C 0.12774 0.21279 0.29179 0.0
C1050 C 0.1316 0.27865 0.79174 0.0
C1051 C 0.13107 0.27728 0.86327 0.0
C1052 C 0.12571 0.21881 0.99372 0.0
C1053 C 0.12967 0.24349 0.18999 0.0
C1054 C 0.13065 0.24337 0.11269 0.0
C1055 C 0.13285 0.2458 0.89017 0.0
C1056 C 0.1322 0.24451 0.9666 0.0
H1057 H 0.13034 0.29986 0.3405 0.0
H1058 H 0.13086 0.2996 0.21562 0.0
H1059 H 0.1195 0.19876 0.0842 0.0
H1060 H 0.13794 0.19381 0.73724 0.0
H1061 H 0.13676 0.19115 0.86242 0.0
C1062 C 0.88805 0.26964 0.30925 0.0
C1063 C 0.88161 0.24443 0.33809 0.0
C1064 C 0.88776 0.27118 0.23784 0.0
C1065 C 0.88176 0.21915 0.06967 0.0
H1066 H 0.87607 0.30789 1.00532 0.0
C1067 C 0.87199 0.22817 0.78196 0.0
C1068 C 0.87632 0.25675 0.75284 0.0
C1069 C 0.87275 0.22706 0.85331 0.0
C1070 C 0.87785 0.28294 0.02208 0.0
H1071 H 0.87012 0.20037 0.31432 0.0
H1072 H 0.86972 0.20286 0.18981 0.0
H1073 H 0.87768 0.30479 0.12913 0.0
H1074 H 0.88436 0.30725 0.77596 0.0
H1075 H 0.88608 0.30495 0.89998 0.0
H1076 H 0.88219 0.19725 0.96308 0.0
C1077 C 0.87495 0.22151 0.22237 0.0
C1078 C 0.87874 0.2812 0.09324 0.0
C1079 C 0.87514 0.22021 0.29376 0.0
C1080 C 0.88111 0.28465 0.79685 0.0
C1081 C 0.88196 0.28345 0.86818 0.0
C1082 C 0.88102 0.22093 0.99851 0.0
C1083 C 0.88117 0.24722 0.19361 0.0
C1084 C 0.88062 0.24925 0.11788 0.0
C1085 C 0.87787 0.25449 0.8975 0.0
C1086 C 0.87895 0.2528 0.97357 0.0
H1087 H 0.89307 0.28878 0.34206 0.0
H1088 H 0.89272 0.29111 0.21714 0.0
H1089 H 0.88337 0.19421 0.087 0.0
H1090 H 0.86822 0.20627 0.74941 0.0
H1091 H 0.86926 0.20464 0.87376 0.0
C1092 C 0.13466 0.70911 0.23113 0.0
C1093 C 0.1339 0.74062 0.27553 0.0
C1094 C 0.13392 0.70853 0.1589 0.0
C1095 C 0.12491 0.76448 0.02387 0.0
H1096 H 0.14114 0.69492 0.89862 0.0
C1097 C 0.13092 0.77354 0.73019 0.0
C1098 C 0.1284 0.74351 0.68413 0.0
C1099 C 0.13131 0.77248 0.80185 0.0
C1100 C 0.13649 0.71438 0.93295 0.0
H1101 H 0.13215 0.79628 0.2791 0.0
H1102 H 0.13142 0.79569 0.15421 0.0
H1103 H 0.14268 0.69448 0.02355 0.0
H1104 H 0.12443 0.68873 0.67689 0.0
H1105 H 0.12536 0.68659 0.8022 0.0
H1106 H 0.11907 0.78497 0.93288 0.0
C1107 C 0.13215 0.77109 0.17422 0.0
C1108 C 0.13732 0.71409 1.00488 0.0
C1109 C 0.13271 0.77155 0.24618 0.0
C1110 C 0.12627 0.71234 0.71125 0.0
C1111 C 0.12691 0.71108 0.7829 0.0
C1112 C 0.12425 0.76509 0.95213 0.0
C1113 C 0.13258 0.73954 0.12908 0.0
C1114 C 0.13157 0.73924 0.05177 0.0
C1115 C 0.12941 0.74117 0.8292 0.0
C1116 C 0.13003 0.74008 0.90566 0.0
H1117 H 0.13541 0.6848 0.25237 0.0
H1118 H 0.13411 0.6836 0.12668 0.0
H1119 H 0.12006 0.78378 0.05735 0.0
H1120 H 0.13264 0.79789 0.71068 0.0
H1121 H 0.13335 0.79606 0.83587 0.0
C1122 C 0.88426 0.71229 0.70736 0.0
C1123 C 0.8821 0.74345 0.68029 0.0
C1124 C 0.88367 0.71105 0.77905 0.0
C1125 C 0.88643 0.76508 0.94812 0.0
H1126 H 0.8679 0.69491 0.02024 0.0
C1127 C 0.87797 0.77213 0.24237 0.0
C1128 C 0.87669 0.74128 0.27191 0.0
C1129 C 0.87855 0.77154 0.17038 0.0
C1130 C 0.87329 0.71439 1.00138 0.0
H1131 H 0.87786 0.79785 0.70695 0.0
H1132 H 0.87723 0.79604 0.83214 0.0
H1133 H 0.86942 0.69515 0.89525 0.0
H1134 H 0.87506 0.68549 0.24907 0.0
H1135 H 0.87642 0.68406 0.12336 0.0
H1136 H 0.89066 0.78384 0.0532 0.0
C1137 C 0.87926 0.77246 0.79808 0.0
C1138 C 0.87411 0.71456 0.92941 0.0
C1139 C 0.8796 0.7735 0.72641 0.0
C1140 C 0.87588 0.70974 0.22768 0.0
C1141 C 0.87665 0.70903 0.15543 0.0
C1142 C 0.88578 0.76458 0.0199 0.0
C1143 C 0.88119 0.74116 0.82539 0.0
C1144 C 0.8806 0.74012 0.90187 0.0
C1145 C 0.87807 0.73995 0.12541 0.0
C1146 C 0.87908 0.7395 0.04806 0.0
H1147 H 0.8861 0.68868 0.67292 0.0
H1148 H 0.88524 0.68657 0.79834 0.0
H1149 H 0.89163 0.78485 0.92866 0.0
H1150 H 0.87855 0.79688 0.27517 0.0
H1151 H 0.87934 0.79609 0.15022 0.0
C1152 C 0.62937 0.78478 0.30251 0.0
C1153 C 0.63413 0.75681 0.2585 0.0
C1154 C 0.62852 0.78364 0.37387 0.0
C1155 C 0.62941 0.7212 0.50435 0.0
H1156 H 0.63285 0.80509 0.63476 0.0
C1157 C 0.63537 0.72054 0.79946 0.0
C1158 C 0.62892 0.74478 0.84388 0.0
C1159 C 0.63555 0.72184 0.72807 0.0
C1160 C 0.63176 0.78149 0.59893 0.0
H1161 H 0.64218 0.70624 0.25511 0.0
H1162 H 0.64115 0.70472 0.37948 0.0
H1163 H 0.63444 0.8081 0.5109 0.0
H1164 H 0.61747 0.78921 0.84803 0.0
H1165 H 0.61781 0.79154 0.72311 0.0
H1166 H 0.62706 0.69455 0.59295 0.0
C1167 C 0.63768 0.72715 0.35902 0.0
C1168 C 0.63264 0.78318 0.52774 0.0
C1169 C 0.63843 0.7282 0.28765 0.0
C1170 C 0.62248 0.77005 0.81515 0.0
C1171 C 0.62276 0.77158 0.74373 0.0
C1172 C 0.62868 0.71947 0.57553 0.0
C1173 C 0.63258 0.75466 0.40321 0.0
C1174 C 0.63151 0.75303 0.47931 0.0
C1175 C 0.62933 0.74757 0.69941 0.0
C1176 C 0.62986 0.74957 0.62366 0.0
H1177 H 0.62614 0.80741 0.28159 0.0
H1178 H 0.62442 0.80521 0.40567 0.0
H1179 H 0.62821 0.69752 0.46898 0.0
H1180 H 0.64039 0.70067 0.81995 0.0
H1181 H 0.64077 0.70315 0.69543 0.0
C1182 C 0.37473 0.72184 0.79856 0.0
C1183 C 0.38126 0.74589 0.84289 0.0
C1184 C 0.37457 0.72313 0.72718 0.0
C1185 C 0.3785 0.78261 0.59797 0.0
H1186 H 0.38195 0.69856 0.46807 0.0
C1187 C 0.38088 0.78581 0.30152 0.0
C1188 C 0.37611 0.75785 0.25759 0.0
C1189 C 0.38173 0.78468 0.37287 0.0
C1190 C 0.38078 0.72227 0.50343 0.0
H1191 H 0.39284 0.78997 0.84688 0.0
H1192 H 0.39252 0.79231 0.72195 0.0
H1193 H 0.38308 0.69561 0.59203 0.0
H1194 H 0.36803 0.70735 0.25434 0.0
H1195 H 0.36905 0.70586 0.3787 0.0
H1196 H 0.37585 0.80923 0.50995 0.0
C1197 C 0.3875 0.7725 0.74265 0.0
C1198 C 0.3815 0.72054 0.5746 0.0
C1199 C 0.38777 0.77096 0.81406 0.0
C1200 C 0.37179 0.7293 0.28682 0.0
C1201 C 0.37254 0.72826 0.35818 0.0
C1202 C 0.37762 0.7843 0.5268 0.0
C1203 C 0.38087 0.74867 0.69843 0.0
C1204 C 0.38035 0.75067 0.6227 0.0
C1205 C 0.37765 0.75574 0.40229 0.0
C1206 C 0.37872 0.75412 0.47837 0.0
H1207 H 0.36966 0.70211 0.81912 0.0
H1208 H 0.3693 0.70459 0.6946 0.0
H1209 H 0.37744 0.80622 0.63381 0.0
H1210 H 0.38412 0.80841 0.28054 0.0
H1211 H 0.38583 0.80623 0.4046 0.0
C1212 C 0.62622 0.21163 0.20119 0.0
C1213 C 0.62832 0.24283 0.17412 0.0
C1214 C 0.62684 0.21037 0.27287 0.0
C1215 C 0.62405 0.26438 0.44206 0.0
H1216 H 0.64263 0.19421 0.51382 0.0
C1217 C 0.63255 0.27135 0.7362 0.0
C1218 C 0.63383 0.24049 0.7657 0.0
C1219 C 0.63197 0.27079 0.66421 0.0
C1220 C 0.63723 0.21369 0.49506 0.0
H1221 H 0.63247 0.29727 0.20077 0.0
H1222 H 0.63314 0.29544 0.32595 0.0
H1223 H 0.64109 0.1945 0.38885 0.0
H1224 H 0.63548 0.1847 0.74277 0.0
H1225 H 0.63412 0.18331 0.61707 0.0
H1226 H 0.61983 0.2831 0.54723 0.0
C1227 C 0.63114 0.27184 0.2919 0.0
C1228 C 0.63639 0.21389 0.4231 0.0
C1229 C 0.63078 0.27289 0.22024 0.0
C1230 C 0.63465 0.20896 0.72142 0.0
C1231 C 0.63388 0.20827 0.64917 0.0
C1232 C 0.62472 0.26386 0.51383 0.0
C1233 C 0.62928 0.24051 0.31921 0.0
C1234 C 0.62988 0.23945 0.39569 0.0
C1235 C 0.63246 0.23921 0.6192 0.0
C1236 C 0.63143 0.23878 0.54186 0.0
H1237 H 0.62442 0.188 0.16676 0.0
H1238 H 0.62532 0.18587 0.29214 0.0
H1239 H 0.61883 0.28415 0.42272 0.0
H1240 H 0.63195 0.2961 0.76902 0.0
H1241 H 0.63117 0.29534 0.64408 0.0
C1242 C 0.38409 0.2128 0.20181 0.0
C1243 C 0.38199 0.244 0.17477 0.0
C1244 C 0.38347 0.21154 0.27349 0.0
C1245 C 0.38626 0.26552 0.44269 0.0
H1246 H 0.36767 0.19541 0.51457 0.0
C1247 C 0.37774 0.27253 0.73688 0.0
C1248 C 0.37646 0.24167 0.76639 0.0
C1249 C 0.37833 0.27195 0.66489 0.0
C1250 C 0.37308 0.21487 0.49577 0.0
H1251 H 0.37785 0.29846 0.20148 0.0
H1252 H 0.37718 0.29662 0.32666 0.0
H1253 H 0.36922 0.19569 0.38959 0.0
H1254 H 0.37482 0.18588 0.74349 0.0
H1255 H 0.37617 0.18448 0.61777 0.0
H1256 H 0.39047 0.28423 0.54782 0.0
C1257 C 0.37918 0.27301 0.29258 0.0
C1258 C 0.37392 0.21507 0.42381 0.0
C1259 C 0.37954 0.27408 0.22092 0.0
C1260 C 0.37564 0.21014 0.72212 0.0
C1261 C 0.37641 0.20944 0.64987 0.0
C1262 C 0.38559 0.26501 0.51446 0.0
C1263 C 0.38104 0.24167 0.31986 0.0
C1264 C 0.38043 0.24061 0.39635 0.0
C1265 C 0.37784 0.24037 0.61988 0.0
C1266 C 0.37887 0.23995 0.54253 0.0
H1267 H 0.38589 0.18916 0.16735 0.0
H1268 H 0.38499 0.18702 0.29274 0.0
H1269 H 0.39148 0.28527 0.4233 0.0
H1270 H 0.37834 0.29727 0.76969 0.0
H1271 H 0.37913 0.2965 0.64475 0.0
C1272 C 0.04911 0.22803 0.43993 0.0
C1273 C 0.055 0.24338 0.38859 0.0
C1274 C 0.03702 0.22834 0.44277 0.0
C1275 C 0.01137 0.2741 0.38688 0.0
H1276 H 0.99509 0.19009 0.41659 0.0
C1277 C 0.96198 0.25972 0.34924 0.0
C1278 C 0.95575 0.24143 0.39481 0.0
C1279 C 0.97406 0.26059 0.35072 0.0
C1280 C 0.99948 0.21395 0.40924 0.0
H1281 H 0.05277 0.27167 0.3008 0.0
H1282 H 0.0317 0.272 0.30546 0.0
H1283 H 0.01615 0.1906 0.41564 0.0
H1284 H 0.95746 0.20965 0.47778 0.0
H1285 H 0.97849 0.21197 0.48166 0.0
H1286 H 0.99473 0.29756 0.38078 0.0
C1287 C 0.03643 0.25982 0.3437 0.0
C1288 C 0.01157 0.2142 0.40859 0.0
C1289 C 0.0485 0.25932 0.34058 0.0
C1290 C 0.96194 0.2243 0.44237 0.0
C1291 C 0.97403 0.22525 0.44398 0.0
C1292 C 0.99928 0.27391 0.38785 0.0
C1293 C 0.03053 0.24422 0.39465 0.0
C1294 C 0.01766 0.24422 0.39704 0.0
C1295 C 0.98026 0.24329 0.39798 0.0
C1296 C 0.99316 0.24377 0.39867 0.0
H1297 H 0.05385 0.2153 0.47735 0.0
H1298 H 0.03276 0.21635 0.48304 0.0
H1299 H 0.01579 0.29782 0.3789 0.0
H1300 H 0.95752 0.27359 0.31249 0.0
H1301 H 0.97853 0.27442 0.31395 0.0
C1302 C 0.96199 0.73396 0.66262 0.0
C1303 C 0.95552 0.75827 0.63124 0.0
C1304 C 0.97406 0.73386 0.65955 0.0
C1305 C 0.99908 0.78964 0.63153 0.0
H1306 H 0.01568 0.70213 0.6055 0.0
C1307 C 0.04883 0.78245 0.59746 0.0
C1308 C 0.05473 0.75842 0.63272 0.0
C1309 C 0.03674 0.78236 0.59414 0.0
C1310 C 0.01119 0.7268 0.61347 0.0
H1311 H 0.95676 0.80166 0.5721 0.0
H1312 H 0.97783 0.80113 0.56577 0.0
H1313 H 0.99463 0.70209 0.60517 0.0
H1314 H 0.05249 0.71502 0.69097 0.0
H1315 H 0.03147 0.71526 0.68624 0.0
H1316 H 0.01565 0.81433 0.64022 0.0
C1317 C 0.97355 0.78232 0.59336 0.0
C1318 C 0.9991 0.72678 0.61329 0.0
C1319 C 0.96146 0.78237 0.59633 0.0
C1320 C 0.04824 0.73416 0.66407 0.0
C1321 C 0.03617 0.73402 0.66063 0.0
C1322 C 0.01117 0.78965 0.6317 0.0
C1323 C 0.98 0.75808 0.62503 0.0
C1324 C 0.99288 0.75819 0.62282 0.0
C1325 C 0.03026 0.75816 0.62577 0.0
C1326 C 0.01738 0.75823 0.62318 0.0
H1327 H 0.95771 0.71476 0.68925 0.0
H1328 H 0.97874 0.71507 0.68519 0.0
H1329 H 0.99458 0.8143 0.63993 0.0
H1330 H 0.05354 0.80169 0.57323 0.0
H1331 H 0.03248 0.80111 0.5663 0.0
C1332 C 0.54862 0.72285 0.94493 0.0
C1333 C 0.55479 0.74187 0.90036 0.0
C1334 C 0.53653 0.72329 0.94606 0.0
C1335 C 0.51121 0.74166 0.84042 0.0
H1336 H 0.49456 0.74525 0.0139 0.0
C1337 C 0.4618 0.76198 0.85671 0.0
C1338 C 0.4555 0.74232 0.89952 0.0
C1339 C 0.47388 0.76231 0.85803 0.0
C1340 C 0.49907 0.74386 0.96491 0.0
H1341 H 0.553 0.77705 0.82337 0.0
H1342 H 0.53196 0.77783 0.82538 0.0
H1343 H 0.51564 0.74516 0.01409 0.0
H1344 H 0.45706 0.70741 0.97715 0.0
H1345 H 0.47813 0.70798 0.97946 0.0
H1346 H 0.49467 0.74029 0.79119 0.0
C1347 C 0.53646 0.76204 0.85859 0.0
C1348 C 0.51117 0.74381 0.96503 0.0
C1349 C 0.54855 0.7616 0.85745 0.0
C1350 C 0.46161 0.72323 0.94417 0.0
C1351 C 0.47371 0.72355 0.94549 0.0
C1352 C 0.49913 0.74171 0.84031 0.0
C1353 C 0.53029 0.74277 0.90266 0.0
C1354 C 0.5174 0.74276 0.90277 0.0
C1355 C 0.48 0.74297 0.9022 0.0
C1356 C 0.49289 0.74286 0.90255 0.0
H1357 H 0.55314 0.707 0.97798 0.0
H1358 H 0.53207 0.70776 0.97997 0.0
H1359 H 0.51571 0.7402 0.79138 0.0
H1360 H 0.45738 0.77748 0.82257 0.0
H1361 H 0.47842 0.77806 0.8249 0.0
C1362 C 0.46146 0.28182 0.08855 0.0
C1363 C 0.45553 0.25769 0.12343 0.0
C1364 C 0.47355 0.28166 0.08527 0.0
C1365 C 0.49907 0.22586 0.10407 0.0
H1366 H 0.5157 0.31326 0.13175 0.0
C1367 C 0.54823 0.23267 0.15419 0.0
C1368 C 0.55473 0.25704 0.12317 0.0
C1369 C 0.53616 0.23263 0.15087 0.0
C1370 C 0.5112 0.28862 0.123 0.0
H1371 H 0.45772 0.21403 0.18103 0.0
H1372 H 0.47875 0.21415 0.1764 0.0
H1373 H 0.49463 0.31339 0.13179 0.0
H1374 H 0.55356 0.30057 0.06439 0.0
H1375 H 0.5325 0.30016 0.05764 0.0
H1376 H 0.51563 0.20107 0.0957 0.0
C1377 C 0.47406 0.23305 0.15104 0.0
C1378 C 0.4991 0.2887 0.12303 0.0
C1379 C 0.462 0.23325 0.15443 0.0
C1380 C 0.54884 0.28125 0.08835 0.0
C1381 C 0.53675 0.28126 0.08514 0.0
C1382 C 0.51115 0.22578 0.10404 0.0
C1383 C 0.48001 0.2573 0.11657 0.0
C1384 C 0.49288 0.25731 0.11408 0.0
C1385 C 0.53026 0.25697 0.11645 0.0
C1386 C 0.51738 0.25715 0.11402 0.0
H1387 H 0.45676 0.30119 0.0646 0.0
H1388 H 0.47783 0.3005 0.05774 0.0
H1389 H 0.49457 0.20121 0.09575 0.0
H1390 H 0.55247 0.21339 0.18075 0.0
H1391 H 0.53145 0.2138 0.17624 0.0
loop_
_geom_bond_atom_site_label_1
_geom_bond_atom_site_label_2
_geom_bond_distance
_geom_bond_site_symmetry_2
_ccdc_geom_bond_type
Eu0 N29 2.600 . S
Eu0 N35 2.562 . S
Eu0 O44 2.462 . S
Eu0 O45 2.373 . S
Eu0 O47 2.432 . S
Eu0 O48 2.291 . S
Eu0 O52 2.335 . S
Eu0 O55 2.372 . S
Eu0 C64 2.787 . S
C1 N2 1.365 . S
C1 C4 1.405 . S
C1 C8 1.448 . S
N2 C1 1.365 . S
N2 C5 1.319 . S
N2 Eu11 2.600 . S
C3 C5 1.397 . S
C3 C6 1.367 . S
C3 H23 0.931 . S
C4 C1 1.405 . S
C4 C6 1.403 . S
C4 C10 1.439 . S
C5 N2 1.319 . S
C5 C3 1.397 . S
C5 H16 0.930 . S
C6 C3 1.367 . S
C6 C4 1.403 . S
C6 H27 0.929 . S
C7 C8 1.430 . S
C7 C9 1.387 . S
C7 C13 1.404 . S
C8 C1 1.448 . S
C8 C7 1.430 . S
C8 N12 1.351 . S
C9 C7 1.387 . S
C9 C10 1.374 . S
C9 H24 0.931 . S
C10 C4 1.439 . S
C10 C9 1.374 . S
C10 H25 0.931 . S
Eu11 N2 2.600 . S
Eu11 N12 2.562 . S
Eu11 O46 2.335 . S
Eu11 O49 2.372 . S
Eu11 O50 2.462 . S
Eu11 O51 2.373 . S
Eu11 O53 2.432 . S
Eu11 O54 2.291 . S
Eu11 C75 2.787 . S
N12 C8 1.351 . S
N12 Eu11 2.562 . S
N12 C14 1.325 . S
C13 C7 1.404 . S
C13 C15 1.366 . S
C13 H21 0.930 . S
C14 N12 1.325 . S
C14 C15 1.416 . S
C14 H20 0.929 . S
C15 C13 1.366 . S
C15 C14 1.416 . S
C15 H17 0.930 . S
H16 C5 0.930 . S
H17 C15 0.930 . S
H18 C33 0.930 . S
H19 C40 0.930 . S
H20 C14 0.929 . S
H21 C13 0.930 . S
H22 C36 0.929 . S
H23 C3 0.931 . S
H24 C9 0.931 . S
H25 C10 0.931 . S
H26 C31 0.931 . S
H27 C6 0.929 . S
H28 C39 0.930 . S
N29 Eu0 2.600 . S
N29 C30 1.365 . S
N29 C33 1.319 . S
C30 N29 1.365 . S
C30 C32 1.405 . S
C30 C38 1.448 . S
C31 H26 0.931 . S
C31 C33 1.397 . S
C31 C34 1.367 . S
C32 C30 1.405 . S
C32 C34 1.403 . S
C32 C65 1.439 . S
C33 H18 0.930 . S
C33 N29 1.319 . S
C33 C31 1.397 . S
C34 C31 1.367 . S
C34 C32 1.403 . S
C34 H41 0.929 . S
N35 Eu0 2.562 . S
N35 C36 1.325 . S
N35 C38 1.351 . S
C36 H22 0.929 . S
C36 N35 1.325 . S
C36 C40 1.416 . S
C37 C38 1.430 . S
C37 C39 1.404 . S
C37 C66 1.387 . S
C38 C30 1.448 . S
C38 N35 1.351 . S
C38 C37 1.430 . S
C39 H28 0.930 . S
C39 C37 1.404 . S
C39 C40 1.366 . S
C40 H19 0.930 . S
C40 C36 1.416 . S
C40 C39 1.366 . S
H41 C34 0.929 . S
H42 C65 0.931 . S
H43 C66 0.931 . S
O44 Eu0 2.462 . S
O44 C64 1.252 . S
O45 Eu0 2.373 . S
O45 C56 1.249 . S
O46 Eu11 2.335 . S
O46 C56 1.264 . S
O47 Eu0 2.432 . S
O47 C64 1.268 . S
O48 Eu0 2.291 . S
O48 C63 1.255 . S
O49 Eu11 2.372 . S
O49 C63 1.257 . S
O50 Eu11 2.462 . S
O50 C75 1.252 . S
O51 Eu11 2.373 . S
O51 C67 1.249 . S
O52 Eu0 2.335 . S
O52 C67 1.264 . S
O53 Eu11 2.432 . S
O53 C75 1.268 . S
O54 Eu11 2.291 . S
O54 C74 1.255 . S
O55 Eu0 2.372 . S
O55 C74 1.257 . S
C56 O45 1.249 . S
C56 O46 1.264 . S
C57 C60 1.382 . S
C57 C62 1.390 . S
C57 C64 1.506 . S
C58 C59 1.398 . S
C58 C62 1.392 . S
C59 C58 1.398 . S
C59 C61 1.372 . S
C59 H76 0.931 . S
C60 C57 1.382 . S
C60 C61 1.390 . S
C60 H77 0.931 . S
C61 C59 1.372 . S
C61 C60 1.390 . S
C61 H78 0.929 . S
C62 C57 1.390 . S
C62 C58 1.392 . S
C62 H79 0.930 . S
C63 O48 1.255 . S
C63 O49 1.257 . S
C64 Eu0 2.787 . S
C64 O44 1.252 . S
C64 O47 1.268 . S
C64 C57 1.506 . S
C65 C32 1.439 . S
C65 H42 0.931 . S
C65 C66 1.374 . S
C66 C37 1.387 . S
C66 H43 0.931 . S
C66 C65 1.374 . S
C67 O51 1.249 . S
C67 O52 1.264 . S
C68 C71 1.382 . S
C68 C72 1.390 . S
C68 C75 1.506 . S
C69 C70 1.398 . S
C69 C72 1.392 . S
C70 C69 1.398 . S
C70 C73 1.372 . S
C70 H80 0.931 . S
C71 C68 1.382 . S
C71 C73 1.390 . S
C71 H81 0.931 . S
C72 C68 1.390 . S
C72 C69 1.392 . S
C72 H82 0.930 . S
C73 C70 1.372 . S
C73 C71 1.390 . S
C73 H83 0.929 . S
C74 O54 1.255 . S
C74 O55 1.257 . S
C75 Eu11 2.787 . S
C75 O50 1.252 . S
C75 O53 1.268 . S
C75 C68 1.506 . S
H76 C59 0.931 . S
H77 C60 0.931 . S
H78 C61 0.929 . S
H79 C62 0.930 . S
H80 C70 0.931 . S
H81 C71 0.931 . S
H82 C72 0.930 . S
H83 C73 0.929 . S
Eu84 N113 2.600 . S
Eu84 N119 2.562 . S
Eu84 O128 2.462 . S
Eu84 O129 2.373 . S
Eu84 O131 2.432 . S
Eu84 O132 2.291 . S
Eu84 O136 2.335 . S
Eu84 O139 2.372 . S
Eu84 C148 2.787 . S
C85 N86 1.365 . S
C85 C88 1.405 . S
C85 C92 1.448 . S
N86 C85 1.365 . S
N86 C89 1.319 . S
N86 Eu95 2.600 . S
C87 C89 1.397 . S
C87 C90 1.367 . S
C87 H107 0.931 . S
C88 C85 1.405 . S
C88 C90 1.403 . S
C88 C94 1.439 . S
C89 N86 1.319 . S
C89 C87 1.397 . S
C89 H100 0.930 . S
C90 C87 1.367 . S
C90 C88 1.403 . S
C90 H111 0.929 . S
C91 C92 1.430 . S
C91 C93 1.387 . S
C91 C97 1.404 . S
C92 C85 1.448 . S
C92 C91 1.430 . S
C92 N96 1.351 . S
C93 C91 1.387 . S
C93 C94 1.374 . S
C93 H108 0.931 . S
C94 C88 1.439 . S
C94 C93 1.374 . S
C94 H109 0.931 . S
Eu95 N86 2.600 . S
Eu95 N96 2.562 . S
Eu95 O130 2.335 . S
Eu95 O133 2.372 . S
Eu95 O134 2.462 . S
Eu95 O135 2.373 . S
Eu95 O137 2.432 . S
Eu95 O138 2.291 . S
Eu95 C159 2.787 . S
N96 C92 1.351 . S
N96 Eu95 2.562 . S
N96 C98 1.325 . S
C97 C91 1.404 . S
C97 C99 1.366 . S
C97 H105 0.930 . S
C98 N96 1.325 . S
C98 C99 1.416 . S
C98 H104 0.929 . S
C99 C97 1.366 . S
C99 C98 1.416 . S
C99 H101 0.930 . S
H100 C89 0.930 . S
H101 C99 0.930 . S
H102 C117 0.930 . S
H103 C124 0.930 . S
H104 C98 0.929 . S
H105 C97 0.930 . S
H106 C120 0.929 . S
H107 C87 0.931 . S
H108 C93 0.931 . S
H109 C94 0.931 . S
H110 C115 0.931 . S
H111 C90 0.929 . S
H112 C123 0.930 . S
N113 Eu84 2.600 . S
N113 C114 1.365 . S
N113 C117 1.319 . S
C114 N113 1.365 . S
C114 C116 1.405 . S
C114 C122 1.448 . S
C115 H110 0.931 . S
C115 C117 1.397 . S
C115 C118 1.367 . S
C116 C114 1.405 . S
C116 C118 1.403 . S
C116 C149 1.439 . S
C117 H102 0.930 . S
C117 N113 1.319 . S
C117 C115 1.397 . S
C118 C115 1.367 . S
C118 C116 1.403 . S
C118 H125 0.929 . S
N119 Eu84 2.562 . S
N119 C120 1.325 . S
N119 C122 1.351 . S
C120 H106 0.929 . S
C120 N119 1.325 . S
C120 C124 1.416 . S
C121 C122 1.430 . S
C121 C123 1.404 . S
C121 C150 1.387 . S
C122 C114 1.448 . S
C122 N119 1.351 . S
C122 C121 1.430 . S
C123 H112 0.930 . S
C123 C121 1.404 . S
C123 C124 1.366 . S
C124 H103 0.930 . S
C124 C120 1.416 . S
C124 C123 1.366 . S
H125 C118 0.929 . S
H126 C149 0.931 . S
H127 C150 0.931 . S
O128 Eu84 2.462 . S
O128 C148 1.252 . S
O129 Eu84 2.373 . S
O129 C140 1.249 . S
O130 Eu95 2.335 . S
O130 C140 1.264 . S
O131 Eu84 2.432 . S
O131 C148 1.268 . S
O132 Eu84 2.291 . S
O132 C147 1.255 . S
O133 Eu95 2.372 . S
O133 C147 1.257 . S
O134 Eu95 2.462 . S
O134 C159 1.252 . S
O135 Eu95 2.373 . S
O135 C151 1.249 . S
O136 Eu84 2.335 . S
O136 C151 1.264 . S
O137 Eu95 2.432 . S
O137 C159 1.268 . S
O138 Eu95 2.291 . S
O138 C158 1.255 . S
O139 Eu84 2.372 . S
O139 C158 1.257 . S
C140 O129 1.249 . S
C140 O130 1.264 . S
C141 C144 1.382 . S
C141 C146 1.390 . S
C141 C148 1.506 . S
C142 C143 1.398 . S
C142 C146 1.392 . S
C143 C142 1.398 . S
C143 C145 1.372 . S
C143 H160 0.931 . S
C144 C141 1.382 . S
C144 C145 1.390 . S
C144 H161 0.931 . S
C145 C143 1.372 . S
C145 C144 1.390 . S
C145 H162 0.929 . S
C146 C141 1.390 . S
C146 C142 1.392 . S
C146 H163 0.930 . S
C147 O132 1.255 . S
C147 O133 1.257 . S
C148 Eu84 2.787 . S
C148 O128 1.252 . S
C148 O131 1.268 . S
C148 C141 1.506 . S
C149 C116 1.439 . S
C149 H126 0.931 . S
C149 C150 1.374 . S
C150 C121 1.387 . S
C150 H127 0.931 . S
C150 C149 1.374 . S
C151 O135 1.249 . S
C151 O136 1.264 . S
C152 C155 1.382 . S
C152 C156 1.390 . S
C152 C159 1.506 . S
C153 C154 1.398 . S
C153 C156 1.392 . S
C154 C153 1.398 . S
C154 C157 1.372 . S
C154 H164 0.931 . S
C155 C152 1.382 . S
C155 C157 1.390 . S
C155 H165 0.931 . S
C156 C152 1.390 . S
C156 C153 1.392 . S
C156 H166 0.930 . S
C157 C154 1.372 . S
C157 C155 1.390 . S
C157 H167 0.929 . S
C158 O138 1.255 . S
C158 O139 1.257 . S
C159 Eu95 2.787 . S
C159 O134 1.252 . S
C159 O137 1.268 . S
C159 C152 1.506 . S
H160 C143 0.931 . S
H161 C144 0.931 . S
H162 C145 0.929 . S
H163 C146 0.930 . S
H164 C154 0.931 . S
H165 C155 0.931 . S
H166 C156 0.930 . S
H167 C157 0.929 . S
Eu168 N197 2.600 . S
Eu168 N203 2.562 . S
Eu168 O212 2.462 . S
Eu168 O213 2.373 . S
Eu168 O215 2.432 . S
Eu168 O216 2.291 . S
Eu168 O220 2.335 . S
Eu168 O223 2.372 . S
Eu168 C232 2.787 . S
C169 N170 1.365 . S
C169 C172 1.405 . S
C169 C176 1.448 . S
N170 C169 1.365 . S
N170 C173 1.319 . S
N170 Eu179 2.600 . S
C171 C173 1.397 . S
C171 C174 1.367 . S
C171 H191 0.931 . S
C172 C169 1.405 . S
C172 C174 1.403 . S
C172 C178 1.439 . S
C173 N170 1.319 . S
C173 C171 1.397 . S
C173 H184 0.930 . S
C174 C171 1.367 . S
C174 C172 1.403 . S
C174 H195 0.929 . S
C175 C176 1.430 . S
C175 C177 1.387 . S
C175 C181 1.404 . S
C176 C169 1.448 . S
C176 C175 1.430 . S
C176 N180 1.351 . S
C177 C175 1.387 . S
C177 C178 1.374 . S
C177 H192 0.931 . S
C178 C172 1.439 . S
C178 C177 1.374 . S
C178 H193 0.931 . S
Eu179 N170 2.600 . S
Eu179 N180 2.562 . S
Eu179 O214 2.335 . S
Eu179 O217 2.372 . S
Eu179 O218 2.462 . S
Eu179 O219 2.373 . S
Eu179 O221 2.432 . S
Eu179 O222 2.291 . S
Eu179 C243 2.787 . S
N180 C176 1.351 . S
N180 Eu179 2.562 . S
N180 C182 1.325 . S
C181 C175 1.404 . S
C181 C183 1.366 . S
C181 H189 0.930 . S
C182 N180 1.325 . S
C182 C183 1.416 . S
C182 H188 0.929 . S
C183 C181 1.366 . S
C183 C182 1.416 . S
C183 H185 0.930 . S
H184 C173 0.930 . S
H185 C183 0.930 . S
H186 C201 0.930 . S
H187 C208 0.930 . S
H188 C182 0.929 . S
H189 C181 0.930 . S
H190 C204 0.929 . S
H191 C171 0.931 . S
H192 C177 0.931 . S
H193 C178 0.931 . S
H194 C199 0.931 . S
H195 C174 0.929 . S
H196 C207 0.930 . S
N197 Eu168 2.600 . S
N197 C198 1.365 . S
N197 C201 1.319 . S
C198 N197 1.365 . S
C198 C200 1.405 . S
C198 C206 1.448 . S
C199 H194 0.931 . S
C199 C201 1.397 . S
C199 C202 1.367 . S
C200 C198 1.405 . S
C200 C202 1.403 . S
C200 C233 1.439 . S
C201 H186 0.930 . S
C201 N197 1.319 . S
C201 C199 1.397 . S
C202 C199 1.367 . S
C202 C200 1.403 . S
C202 H209 0.929 . S
N203 Eu168 2.562 . S
N203 C204 1.325 . S
N203 C206 1.351 . S
C204 H190 0.929 . S
C204 N203 1.325 . S
C204 C208 1.416 . S
C205 C206 1.430 . S
C205 C207 1.404 . S
C205 C234 1.387 . S
C206 C198 1.448 . S
C206 N203 1.351 . S
C206 C205 1.430 . S
C207 H196 0.930 . S
C207 C205 1.404 . S
C207 C208 1.366 . S
C208 H187 0.930 . S
C208 C204 1.416 . S
C208 C207 1.366 . S
H209 C202 0.929 . S
H210 C233 0.931 . S
H211 C234 0.931 . S
O212 Eu168 2.462 . S
O212 C232 1.252 . S
O213 Eu168 2.373 . S
O213 C224 1.249 . S
O214 Eu179 2.335 . S
O214 C224 1.264 . S
O215 Eu168 2.432 . S
O215 C232 1.268 . S
O216 Eu168 2.291 . S
O216 C231 1.255 . S
O217 Eu179 2.372 . S
O217 C231 1.257 . S
O218 Eu179 2.462 . S
O218 C243 1.252 . S
O219 Eu179 2.373 . S
O219 C235 1.249 . S
O220 Eu168 2.335 . S
O220 C235 1.264 . S
O221 Eu179 2.432 . S
O221 C243 1.268 . S
O222 Eu179 2.291 . S
O222 C242 1.255 . S
O223 Eu168 2.372 . S
O223 C242 1.257 . S
C224 O213 1.249 . S
C224 O214 1.264 . S
C225 C228 1.382 . S
C225 C230 1.390 . S
C225 C232 1.506 . S
C226 C227 1.398 . S
C226 C230 1.392 . S
C227 C226 1.398 . S
C227 C229 1.372 . S
C227 H244 0.931 . S
C228 C225 1.382 . S
C228 C229 1.390 . S
C228 H245 0.931 . S
C229 C227 1.372 . S
C229 C228 1.390 . S
C229 H246 0.929 . S
C230 C225 1.390 . S
C230 C226 1.392 . S
C230 H247 0.930 . S
C231 O216 1.255 . S
C231 O217 1.257 . S
C232 Eu168 2.787 . S
C232 O212 1.252 . S
C232 O215 1.268 . S
C232 C225 1.506 . S
C233 C200 1.439 . S
C233 H210 0.931 . S
C233 C234 1.374 . S
C234 C205 1.387 . S
C234 H211 0.931 . S
C234 C233 1.374 . S
C235 O219 1.249 . S
C235 O220 1.264 . S
C236 C239 1.382 . S
C236 C240 1.390 . S
C236 C243 1.506 . S
C237 C238 1.398 . S
C237 C240 1.392 . S
C238 C237 1.398 . S
C238 C241 1.372 . S
C238 H248 0.931 . S
C239 C236 1.382 . S
C239 C241 1.390 . S
C239 H249 0.931 . S
C240 C236 1.390 . S
C240 C237 1.392 . S
C240 H250 0.930 . S
C241 C238 1.372 . S
C241 C239 1.390 . S
C241 H251 0.929 . S
C242 O222 1.255 . S
C242 O223 1.257 . S
C243 Eu179 2.787 . S
C243 O218 1.252 . S
C243 O221 1.268 . S
C243 C236 1.506 . S
H244 C227 0.931 . S
H245 C228 0.931 . S
H246 C229 0.929 . S
H247 C230 0.930 . S
H248 C238 0.931 . S
H249 C239 0.931 . S
H250 C240 0.930 . S
H251 C241 0.929 . S
Eu252 N281 2.600 . S
Eu252 N287 2.562 . S
Eu252 O296 2.462 . S
Eu252 O297 2.373 . S
Eu252 O299 2.432 . S
Eu252 O300 2.291 . S
Eu252 O304 2.335 . S
Eu252 O307 2.372 . S
Eu252 C316 2.787 . S
C253 N254 1.365 . S
C253 C256 1.405 . S
C253 C260 1.448 . S
N254 C253 1.365 . S
N254 C257 1.319 . S
N254 Eu263 2.600 . S
C255 C257 1.397 . S
C255 C258 1.367 . S
C255 H275 0.931 . S
C256 C253 1.405 . S
C256 C258 1.403 . S
C256 C262 1.439 . S
C257 N254 1.319 . S
C257 C255 1.397 . S
C257 H268 0.930 . S
C258 C255 1.367 . S
C258 C256 1.403 . S
C258 H279 0.929 . S
C259 C260 1.430 . S
C259 C261 1.387 . S
C259 C265 1.404 . S
C260 C253 1.448 . S
C260 C259 1.430 . S
C260 N264 1.351 . S
C261 C259 1.387 . S
C261 C262 1.374 . S
C261 H276 0.931 . S
C262 C256 1.439 . S
C262 C261 1.374 . S
C262 H277 0.931 . S
Eu263 N254 2.600 . S
Eu263 N264 2.562 . S
Eu263 O298 2.335 . S
Eu263 O301 2.372 . S
Eu263 O302 2.462 . S
Eu263 O303 2.373 . S
Eu263 O305 2.432 . S
Eu263 O306 2.291 . S
Eu263 C327 2.787 . S
N264 C260 1.351 . S
N264 Eu263 2.562 . S
N264 C266 1.325 . S
C265 C259 1.404 . S
C265 C267 1.366 . S
C265 H273 0.930 . S
C266 N264 1.325 . S
C266 C267 1.416 . S
C266 H272 0.929 . S
C267 C265 1.366 . S
C267 C266 1.416 . S
C267 H269 0.930 . S
H268 C257 0.930 . S
H269 C267 0.930 . S
H270 C285 0.930 . S
H271 C292 0.930 . S
H272 C266 0.929 . S
H273 C265 0.930 . S
H274 C288 0.929 . S
H275 C255 0.931 . S
H276 C261 0.931 . S
H277 C262 0.931 . S
H278 C283 0.931 . S
H279 C258 0.929 . S
H280 C291 0.930 . S
N281 Eu252 2.600 . S
N281 C282 1.365 . S
N281 C285 1.319 . S
C282 N281 1.365 . S
C282 C284 1.405 . S
C282 C290 1.448 . S
C283 H278 0.931 . S
C283 C285 1.397 . S
C283 C286 1.367 . S
C284 C282 1.405 . S
C284 C286 1.403 . S
C284 C317 1.439 . S
C285 H270 0.930 . S
C285 N281 1.319 . S
C285 C283 1.397 . S
C286 C283 1.367 . S
C286 C284 1.403 . S
C286 H293 0.929 . S
N287 Eu252 2.562 . S
N287 C288 1.325 . S
N287 C290 1.351 . S
C288 H274 0.929 . S
C288 N287 1.325 . S
C288 C292 1.416 . S
C289 C290 1.430 . S
C289 C291 1.404 . S
C289 C318 1.387 . S
C290 C282 1.448 . S
C290 N287 1.351 . S
C290 C289 1.430 . S
C291 H280 0.930 . S
C291 C289 1.404 . S
C291 C292 1.366 . S
C292 H271 0.930 . S
C292 C288 1.416 . S
C292 C291 1.366 . S
H293 C286 0.929 . S
H294 C317 0.931 . S
H295 C318 0.931 . S
O296 Eu252 2.462 . S
O296 C316 1.252 . S
O297 Eu252 2.373 . S
O297 C308 1.249 . S
O298 Eu263 2.335 . S
O298 C308 1.264 . S
O299 Eu252 2.432 . S
O299 C316 1.268 . S
O300 Eu252 2.291 . S
O300 C315 1.255 . S
O301 Eu263 2.372 . S
O301 C315 1.257 . S
O302 Eu263 2.462 . S
O302 C327 1.252 . S
O303 Eu263 2.373 . S
O303 C319 1.249 . S
O304 Eu252 2.335 . S
O304 C319 1.264 . S
O305 Eu263 2.432 . S
O305 C327 1.268 . S
O306 Eu263 2.291 . S
O306 C326 1.255 . S
O307 Eu252 2.372 . S
O307 C326 1.257 . S
C308 O297 1.249 . S
C308 O298 1.264 . S
C309 C312 1.382 . S
C309 C314 1.390 . S
C309 C316 1.506 . S
C310 C311 1.398 . S
C310 C314 1.392 . S
C311 C310 1.398 . S
C311 C313 1.372 . S
C311 H328 0.931 . S
C312 C309 1.382 . S
C312 C313 1.390 . S
C312 H329 0.931 . S
C313 C311 1.372 . S
C313 C312 1.390 . S
C313 H330 0.929 . S
C314 C309 1.390 . S
C314 C310 1.392 . S
C314 H331 0.930 . S
C315 O300 1.255 . S
C315 O301 1.257 . S
C316 Eu252 2.787 . S
C316 O296 1.252 . S
C316 O299 1.268 . S
C316 C309 1.506 . S
C317 C284 1.439 . S
C317 H294 0.931 . S
C317 C318 1.374 . S
C318 C289 1.387 . S
C318 H295 0.931 . S
C318 C317 1.374 . S
C319 O303 1.249 . S
C319 O304 1.264 . S
C320 C323 1.382 . S
C320 C324 1.390 . S
C320 C327 1.506 . S
C321 C322 1.398 . S
C321 C324 1.392 . S
C322 C321 1.398 . S
C322 C325 1.372 . S
C322 H332 0.931 . S
C323 C320 1.382 . S
C323 C325 1.390 . S
C323 H333 0.931 . S
C324 C320 1.390 . S
C324 C321 1.392 . S
C324 H334 0.930 . S
C325 C322 1.372 . S
C325 C323 1.390 . S
C325 H335 0.929 . S
C326 O306 1.255 . S
C326 O307 1.257 . S
C327 Eu263 2.787 . S
C327 O302 1.252 . S
C327 O305 1.268 . S
C327 C320 1.506 . S
H328 C311 0.931 . S
H329 C312 0.931 . S
H330 C313 0.929 . S
H331 C314 0.930 . S
H332 C322 0.931 . S
H333 C323 0.931 . S
H334 C324 0.930 . S
H335 C325 0.929 . S
Eu336 N365 2.600 . S
Eu336 N371 2.562 . S
Eu336 O380 2.462 1_556 S
Eu336 O381 2.373 . S
Eu336 O383 2.432 1_556 S
Eu336 O384 2.291 . S
Eu336 O388 2.335 1_556 S
Eu336 O391 2.372 1_556 S
Eu336 C400 2.787 1_556 S
C337 N338 1.365 . S
C337 C340 1.405 . S
C337 C344 1.448 . S
N338 C337 1.365 . S
N338 C341 1.319 . S
N338 Eu347 2.600 . S
C339 C341 1.397 . S
C339 C342 1.367 . S
C339 H359 0.931 . S
C340 C337 1.405 . S
C340 C342 1.403 . S
C340 C346 1.439 . S
C341 N338 1.319 . S
C341 C339 1.397 . S
C341 H352 0.930 . S
C342 C339 1.367 . S
C342 C340 1.403 . S
C342 H363 0.929 . S
C343 C344 1.430 . S
C343 C345 1.387 . S
C343 C349 1.404 . S
C344 C337 1.448 . S
C344 C343 1.430 . S
C344 N348 1.351 . S
C345 C343 1.387 . S
C345 C346 1.374 . S
C345 H360 0.931 . S
C346 C340 1.439 . S
C346 C345 1.374 . S
C346 H361 0.931 . S
Eu347 N338 2.600 . S
Eu347 N348 2.562 . S
Eu347 O382 2.335 1_554 S
Eu347 O385 2.372 1_554 S
Eu347 O386 2.462 1_554 S
Eu347 O387 2.373 . S
Eu347 O389 2.432 1_554 S
Eu347 O390 2.291 . S
Eu347 C411 2.787 1_554 S
N348 C344 1.351 . S
N348 Eu347 2.562 . S
N348 C350 1.325 . S
C349 C343 1.404 . S
C349 C351 1.366 . S
C349 H357 0.930 . S
C350 N348 1.325 . S
C350 C351 1.416 . S
C350 H356 0.929 . S
C351 C349 1.366 . S
C351 C350 1.416 . S
C351 H353 0.930 . S
H352 C341 0.930 . S
H353 C351 0.930 . S
H354 C369 0.930 . S
H355 C376 0.930 . S
H356 C350 0.929 . S
H357 C349 0.930 . S
H358 C372 0.929 . S
H359 C339 0.931 . S
H360 C345 0.931 . S
H361 C346 0.931 . S
H362 C367 0.931 . S
H363 C342 0.929 . S
H364 C375 0.930 . S
N365 Eu336 2.600 . S
N365 C366 1.365 . S
N365 C369 1.319 . S
C366 N365 1.365 . S
C366 C368 1.405 . S
C366 C374 1.448 . S
C367 H362 0.931 . S
C367 C369 1.397 . S
C367 C370 1.367 . S
C368 C366 1.405 . S
C368 C370 1.403 . S
C368 C401 1.439 . S
C369 H354 0.930 . S
C369 N365 1.319 . S
C369 C367 1.397 . S
C370 C367 1.367 . S
C370 C368 1.403 . S
C370 H377 0.929 . S
N371 Eu336 2.562 . S
N371 C372 1.325 . S
N371 C374 1.351 . S
C372 H358 0.929 . S
C372 N371 1.325 . S
C372 C376 1.416 . S
C373 C374 1.430 . S
C373 C375 1.404 . S
C373 C402 1.387 . S
C374 C366 1.448 . S
C374 N371 1.351 . S
C374 C373 1.430 . S
C375 H364 0.930 . S
C375 C373 1.404 . S
C375 C376 1.366 . S
C376 H355 0.930 . S
C376 C372 1.416 . S
C376 C375 1.366 . S
H377 C370 0.929 . S
H378 C401 0.931 . S
H379 C402 0.931 . S
O380 Eu336 2.462 1_554 S
O380 C400 1.252 . S
O381 Eu336 2.373 . S
O381 C392 1.249 . S
O382 Eu347 2.335 1_556 S
O382 C392 1.264 . S
O383 Eu336 2.432 1_554 S
O383 C400 1.268 . S
O384 Eu336 2.291 . S
O384 C399 1.255 . S
O385 Eu347 2.372 1_556 S
O385 C399 1.257 . S
O386 Eu347 2.462 1_556 S
O386 C411 1.252 . S
O387 Eu347 2.373 . S
O387 C403 1.249 . S
O388 Eu336 2.335 1_554 S
O388 C403 1.264 . S
O389 Eu347 2.432 1_556 S
O389 C411 1.268 . S
O390 Eu347 2.291 . S
O390 C410 1.255 . S
O391 Eu336 2.372 1_554 S
O391 C410 1.257 . S
C392 O381 1.249 . S
C392 O382 1.264 . S
C393 C396 1.382 . S
C393 C398 1.390 . S
C393 C400 1.506 . S
C394 C395 1.398 . S
C394 C398 1.392 . S
C395 C394 1.398 . S
C395 C397 1.372 . S
C395 H412 0.931 . S
C396 C393 1.382 . S
C396 C397 1.390 . S
C396 H413 0.931 . S
C397 C395 1.372 . S
C397 C396 1.390 . S
C397 H414 0.929 . S
C398 C393 1.390 . S
C398 C394 1.392 . S
C398 H415 0.930 . S
C399 O384 1.255 . S
C399 O385 1.257 . S
C400 Eu336 2.787 1_554 S
C400 O380 1.252 . S
C400 O383 1.268 . S
C400 C393 1.506 . S
C401 C368 1.439 . S
C401 H378 0.931 . S
C401 C402 1.374 . S
C402 C373 1.387 . S
C402 H379 0.931 . S
C402 C401 1.374 . S
C403 O387 1.249 . S
C403 O388 1.264 . S
C404 C407 1.382 . S
C404 C408 1.390 . S
C404 C411 1.506 . S
C405 C406 1.398 . S
C405 C408 1.392 . S
C406 C405 1.398 . S
C406 C409 1.372 . S
C406 H416 0.931 . S
C407 C404 1.382 . S
C407 C409 1.390 . S
C407 H417 0.931 . S
C408 C404 1.390 . S
C408 C405 1.392 . S
C408 H418 0.930 . S
C409 C406 1.372 . S
C409 C407 1.390 . S
C409 H419 0.929 . S
C410 O390 1.255 . S
C410 O391 1.257 . S
C411 Eu347 2.787 1_556 S
C411 O386 1.252 . S
C411 O389 1.268 . S
C411 C404 1.506 . S
H412 C395 0.931 . S
H413 C396 0.931 . S
H414 C397 0.929 . S
H415 C398 0.930 . S
H416 C406 0.931 . S
H417 C407 0.931 . S
H418 C408 0.930 . S
H419 C409 0.929 . S
Eu420 N449 2.600 . S
Eu420 N455 2.562 . S
Eu420 O464 2.462 1_554 S
Eu420 O465 2.373 . S
Eu420 O467 2.432 1_554 S
Eu420 O468 2.291 . S
Eu420 O472 2.335 1_554 S
Eu420 O475 2.372 1_554 S
Eu420 C484 2.787 1_554 S
C421 N422 1.365 . S
C421 C424 1.405 . S
C421 C428 1.448 . S
N422 C421 1.365 . S
N422 C425 1.319 . S
N422 Eu431 2.600 . S
C423 C425 1.397 . S
C423 C426 1.367 . S
C423 H443 0.931 . S
C424 C421 1.405 . S
C424 C426 1.403 . S
C424 C430 1.439 . S
C425 N422 1.319 . S
C425 C423 1.397 . S
C425 H436 0.930 . S
C426 C423 1.367 . S
C426 C424 1.403 . S
C426 H447 0.929 . S
C427 C428 1.430 . S
C427 C429 1.387 . S
C427 C433 1.404 . S
C428 C421 1.448 . S
C428 C427 1.430 . S
C428 N432 1.351 . S
C429 C427 1.387 . S
C429 C430 1.374 . S
C429 H444 0.931 . S
C430 C424 1.439 . S
C430 C429 1.374 . S
C430 H445 0.931 . S
Eu431 N422 2.600 . S
Eu431 N432 2.562 . S
Eu431 O466 2.335 1_556 S
Eu431 O469 2.372 1_556 S
Eu431 O470 2.462 1_556 S
Eu431 O471 2.373 . S
Eu431 O473 2.432 1_556 S
Eu431 O474 2.291 . S
Eu431 C495 2.787 1_556 S
N432 C428 1.351 . S
N432 Eu431 2.562 . S
N432 C434 1.325 . S
C433 C427 1.404 . S
C433 C435 1.366 . S
C433 H441 0.930 . S
C434 N432 1.325 . S
C434 C435 1.416 . S
C434 H440 0.929 . S
C435 C433 1.366 . S
C435 C434 1.416 . S
C435 H437 0.930 . S
H436 C425 0.930 . S
H437 C435 0.930 . S
H438 C453 0.930 . S
H439 C460 0.930 . S
H440 C434 0.929 . S
H441 C433 0.930 . S
H442 C456 0.929 . S
H443 C423 0.931 . S
H444 C429 0.931 . S
H445 C430 0.931 . S
H446 C451 0.931 . S
H447 C426 0.929 . S
H448 C459 0.930 . S
N449 Eu420 2.600 . S
N449 C450 1.365 . S
N449 C453 1.319 . S
C450 N449 1.365 . S
C450 C452 1.405 . S
C450 C458 1.448 . S
C451 H446 0.931 . S
C451 C453 1.397 . S
C451 C454 1.367 . S
C452 C450 1.405 . S
C452 C454 1.403 . S
C452 C485 1.439 . S
C453 H438 0.930 . S
C453 N449 1.319 . S
C453 C451 1.397 . S
C454 C451 1.367 . S
C454 C452 1.403 . S
C454 H461 0.929 . S
N455 Eu420 2.562 . S
N455 C456 1.325 . S
N455 C458 1.351 . S
C456 H442 0.929 . S
C456 N455 1.325 . S
C456 C460 1.416 . S
C457 C458 1.430 . S
C457 C459 1.404 . S
C457 C486 1.387 . S
C458 C450 1.448 . S
C458 N455 1.351 . S
C458 C457 1.430 . S
C459 H448 0.930 . S
C459 C457 1.404 . S
C459 C460 1.366 . S
C460 H439 0.930 . S
C460 C456 1.416 . S
C460 C459 1.366 . S
H461 C454 0.929 . S
H462 C485 0.931 . S
H463 C486 0.931 . S
O464 Eu420 2.462 1_556 S
O464 C484 1.252 . S
O465 Eu420 2.373 . S
O465 C476 1.249 . S
O466 Eu431 2.335 1_554 S
O466 C476 1.264 . S
O467 Eu420 2.432 1_556 S
O467 C484 1.268 . S
O468 Eu420 2.291 . S
O468 C483 1.255 . S
O469 Eu431 2.372 1_554 S
O469 C483 1.257 . S
O470 Eu431 2.462 1_554 S
O470 C495 1.252 . S
O471 Eu431 2.373 . S
O471 C487 1.249 . S
O472 Eu420 2.335 1_556 S
O472 C487 1.264 . S
O473 Eu431 2.432 1_554 S
O473 C495 1.268 . S
O474 Eu431 2.291 . S
O474 C494 1.255 . S
O475 Eu420 2.372 1_556 S
O475 C494 1.257 . S
C476 O465 1.249 . S
C476 O466 1.264 . S
C477 C480 1.382 . S
C477 C482 1.390 . S
C477 C484 1.506 . S
C478 C479 1.398 . S
C478 C482 1.392 . S
C479 C478 1.398 . S
C479 C481 1.372 . S
C479 H496 0.931 . S
C480 C477 1.382 . S
C480 C481 1.390 . S
C480 H497 0.931 . S
C481 C479 1.372 . S
C481 C480 1.390 . S
C481 H498 0.929 . S
C482 C477 1.390 . S
C482 C478 1.392 . S
C482 H499 0.930 . S
C483 O468 1.255 . S
C483 O469 1.257 . S
C484 Eu420 2.787 1_556 S
C484 O464 1.252 . S
C484 O467 1.268 . S
C484 C477 1.506 . S
C485 C452 1.439 . S
C485 H462 0.931 . S
C485 C486 1.374 . S
C486 C457 1.387 . S
C486 H463 0.931 . S
C486 C485 1.374 . S
C487 O471 1.249 . S
C487 O472 1.264 . S
C488 C491 1.382 . S
C488 C492 1.390 . S
C488 C495 1.506 . S
C489 C490 1.398 . S
C489 C492 1.392 . S
C490 C489 1.398 . S
C490 C493 1.372 . S
C490 H500 0.931 . S
C491 C488 1.382 . S
C491 C493 1.390 . S
C491 H501 0.931 . S
C492 C488 1.390 . S
C492 C489 1.392 . S
C492 H502 0.930 . S
C493 C490 1.372 . S
C493 C491 1.390 . S
C493 H503 0.929 . S
C494 O474 1.255 . S
C494 O475 1.257 . S
C495 Eu431 2.787 1_554 S
C495 O470 1.252 . S
C495 O473 1.268 . S
C495 C488 1.506 . S
H496 C479 0.931 . S
H497 C480 0.931 . S
H498 C481 0.929 . S
H499 C482 0.930 . S
H500 C490 0.931 . S
H501 C491 0.931 . S
H502 C492 0.930 . S
H503 C493 0.929 . S
Eu504 N533 2.600 . S
Eu504 N539 2.562 . S
Eu504 O548 2.462 1_554 S
Eu504 O549 2.373 . S
Eu504 O551 2.432 1_554 S
Eu504 O552 2.291 . S
Eu504 O556 2.335 1_554 S
Eu504 O559 2.372 1_554 S
Eu504 C568 2.787 1_554 S
C505 N506 1.365 . S
C505 C508 1.405 . S
C505 C512 1.448 . S
N506 C505 1.365 . S
N506 C509 1.319 . S
N506 Eu515 2.600 . S
C507 C509 1.397 . S
C507 C510 1.367 . S
C507 H527 0.931 . S
C508 C505 1.405 . S
C508 C510 1.403 . S
C508 C514 1.439 . S
C509 N506 1.319 . S
C509 C507 1.397 . S
C509 H520 0.930 . S
C510 C507 1.367 . S
C510 C508 1.403 . S
C510 H531 0.929 . S
C511 C512 1.430 . S
C511 C513 1.387 . S
C511 C517 1.404 . S
C512 C505 1.448 . S
C512 C511 1.430 . S
C512 N516 1.351 . S
C513 C511 1.387 . S
C513 C514 1.374 . S
C513 H528 0.931 . S
C514 C508 1.439 . S
C514 C513 1.374 . S
C514 H529 0.931 . S
Eu515 N506 2.600 . S
Eu515 N516 2.562 . S
Eu515 O550 2.335 1_556 S
Eu515 O553 2.372 1_556 S
Eu515 O554 2.462 1_556 S
Eu515 O555 2.373 . S
Eu515 O557 2.432 1_556 S
Eu515 O558 2.291 . S
Eu515 C579 2.787 1_556 S
N516 C512 1.351 . S
N516 Eu515 2.562 . S
N516 C518 1.325 . S
C517 C511 1.404 . S
C517 C519 1.366 . S
C517 H525 0.930 . S
C518 N516 1.325 . S
C518 C519 1.416 . S
C518 H524 0.929 . S
C519 C517 1.366 . S
C519 C518 1.416 . S
C519 H521 0.930 . S
H520 C509 0.930 . S
H521 C519 0.930 . S
H522 C537 0.930 . S
H523 C544 0.930 . S
H524 C518 0.929 . S
H525 C517 0.930 . S
H526 C540 0.929 . S
H527 C507 0.931 . S
H528 C513 0.931 . S
H529 C514 0.931 . S
H530 C535 0.931 . S
H531 C510 0.929 . S
H532 C543 0.930 . S
N533 Eu504 2.600 . S
N533 C534 1.365 . S
N533 C537 1.319 . S
C534 N533 1.365 . S
C534 C536 1.405 . S
C534 C542 1.448 . S
C535 H530 0.931 . S
C535 C537 1.397 . S
C535 C538 1.367 . S
C536 C534 1.405 . S
C536 C538 1.403 . S
C536 C569 1.439 . S
C537 H522 0.930 . S
C537 N533 1.319 . S
C537 C535 1.397 . S
C538 C535 1.367 . S
C538 C536 1.403 . S
C538 H545 0.929 . S
N539 Eu504 2.562 . S
N539 C540 1.325 . S
N539 C542 1.351 . S
C540 H526 0.929 . S
C540 N539 1.325 . S
C540 C544 1.416 . S
C541 C542 1.430 . S
C541 C543 1.404 . S
C541 C570 1.387 . S
C542 C534 1.448 . S
C542 N539 1.351 . S
C542 C541 1.430 . S
C543 H532 0.930 . S
C543 C541 1.404 . S
C543 C544 1.366 . S
C544 H523 0.930 . S
C544 C540 1.416 . S
C544 C543 1.366 . S
H545 C538 0.929 . S
H546 C569 0.931 . S
H547 C570 0.931 . S
O548 Eu504 2.462 1_556 S
O548 C568 1.252 . S
O549 Eu504 2.373 . S
O549 C560 1.249 . S
O550 Eu515 2.335 1_554 S
O550 C560 1.264 . S
O551 Eu504 2.432 1_556 S
O551 C568 1.268 . S
O552 Eu504 2.291 . S
O552 C567 1.255 . S
O553 Eu515 2.372 1_554 S
O553 C567 1.257 . S
O554 Eu515 2.462 1_554 S
O554 C579 1.252 . S
O555 Eu515 2.373 . S
O555 C571 1.249 . S
O556 Eu504 2.335 1_556 S
O556 C571 1.264 . S
O557 Eu515 2.432 1_554 S
O557 C579 1.268 . S
O558 Eu515 2.291 . S
O558 C578 1.255 . S
O559 Eu504 2.372 1_556 S
O559 C578 1.257 . S
C560 O549 1.249 . S
C560 O550 1.264 . S
C561 C564 1.382 . S
C561 C566 1.390 . S
C561 C568 1.506 . S
C562 C563 1.398 . S
C562 C566 1.392 . S
C563 C562 1.398 . S
C563 C565 1.372 . S
C563 H580 0.931 . S
C564 C561 1.382 . S
C564 C565 1.390 . S
C564 H581 0.931 . S
C565 C563 1.372 . S
C565 C564 1.390 . S
C565 H582 0.929 . S
C566 C561 1.390 . S
C566 C562 1.392 . S
C566 H583 0.930 . S
C567 O552 1.255 . S
C567 O553 1.257 . S
C568 Eu504 2.787 1_556 S
C568 O548 1.252 . S
C568 O551 1.268 . S
C568 C561 1.506 . S
C569 C536 1.439 . S
C569 H546 0.931 . S
C569 C570 1.374 . S
C570 C541 1.387 . S
C570 H547 0.931 . S
C570 C569 1.374 . S
C571 O555 1.249 . S
C571 O556 1.264 . S
C572 C575 1.382 . S
C572 C576 1.390 . S
C572 C579 1.506 . S
C573 C574 1.398 . S
C573 C576 1.392 . S
C574 C573 1.398 . S
C574 C577 1.372 . S
C574 H584 0.931 . S
C575 C572 1.382 . S
C575 C577 1.390 . S
C575 H585 0.931 . S
C576 C572 1.390 . S
C576 C573 1.392 . S
C576 H586 0.930 . S
C577 C574 1.372 . S
C577 C575 1.390 . S
C577 H587 0.929 . S
C578 O558 1.255 . S
C578 O559 1.257 . S
C579 Eu515 2.787 1_554 S
C579 O554 1.252 . S
C579 O557 1.268 . S
C579 C572 1.506 . S
H580 C563 0.931 . S
H581 C564 0.931 . S
H582 C565 0.929 . S
H583 C566 0.930 . S
H584 C574 0.931 . S
H585 C575 0.931 . S
H586 C576 0.930 . S
H587 C577 0.929 . S
Eu588 N617 2.600 . S
Eu588 N623 2.562 . S
Eu588 O632 2.462 1_556 S
Eu588 O633 2.373 . S
Eu588 O635 2.432 1_556 S
Eu588 O636 2.291 . S
Eu588 O640 2.335 1_556 S
Eu588 O643 2.372 1_556 S
Eu588 C652 2.787 1_556 S
C589 N590 1.365 . S
C589 C592 1.405 . S
C589 C596 1.448 . S
N590 C589 1.365 . S
N590 C593 1.319 . S
N590 Eu599 2.600 . S
C591 C593 1.397 . S
C591 C594 1.367 . S
C591 H611 0.931 . S
C592 C589 1.405 . S
C592 C594 1.403 . S
C592 C598 1.439 . S
C593 N590 1.319 . S
C593 C591 1.397 . S
C593 H604 0.930 . S
C594 C591 1.367 . S
C594 C592 1.403 . S
C594 H615 0.929 . S
C595 C596 1.430 . S
C595 C597 1.387 . S
C595 C601 1.404 . S
C596 C589 1.448 . S
C596 C595 1.430 . S
C596 N600 1.351 . S
C597 C595 1.387 . S
C597 C598 1.374 . S
C597 H612 0.931 . S
C598 C592 1.439 . S
C598 C597 1.374 . S
C598 H613 0.931 . S
Eu599 N590 2.600 . S
Eu599 N600 2.562 . S
Eu599 O634 2.335 1_554 S
Eu599 O637 2.372 1_554 S
Eu599 O638 2.462 1_554 S
Eu599 O639 2.373 . S
Eu599 O641 2.432 1_554 S
Eu599 O642 2.291 . S
Eu599 C663 2.787 1_554 S
N600 C596 1.351 . S
N600 Eu599 2.562 . S
N600 C602 1.325 . S
C601 C595 1.404 . S
C601 C603 1.366 . S
C601 H609 0.930 . S
C602 N600 1.325 . S
C602 C603 1.416 . S
C602 H608 0.929 . S
C603 C601 1.366 . S
C603 C602 1.416 . S
C603 H605 0.930 . S
H604 C593 0.930 . S
H605 C603 0.930 . S
H606 C621 0.930 . S
H607 C628 0.930 . S
H608 C602 0.929 . S
H609 C601 0.930 . S
H610 C624 0.929 . S
H611 C591 0.931 . S
H612 C597 0.931 . S
H613 C598 0.931 . S
H614 C619 0.931 . S
H615 C594 0.929 . S
H616 C627 0.930 . S
N617 Eu588 2.600 . S
N617 C618 1.365 . S
N617 C621 1.319 . S
C618 N617 1.365 . S
C618 C620 1.405 . S
C618 C626 1.448 . S
C619 H614 0.931 . S
C619 C621 1.397 . S
C619 C622 1.367 . S
C620 C618 1.405 . S
C620 C622 1.403 . S
C620 C653 1.439 . S
C621 H606 0.930 . S
C621 N617 1.319 . S
C621 C619 1.397 . S
C622 C619 1.367 . S
C622 C620 1.403 . S
C622 H629 0.929 . S
N623 Eu588 2.562 . S
N623 C624 1.325 . S
N623 C626 1.351 . S
C624 H610 0.929 . S
C624 N623 1.325 . S
C624 C628 1.416 . S
C625 C626 1.430 . S
C625 C627 1.404 . S
C625 C654 1.387 . S
C626 C618 1.448 . S
C626 N623 1.351 . S
C626 C625 1.430 . S
C627 H616 0.930 . S
C627 C625 1.404 . S
C627 C628 1.366 . S
C628 H607 0.930 . S
C628 C624 1.416 . S
C628 C627 1.366 . S
H629 C622 0.929 . S
H630 C653 0.931 . S
H631 C654 0.931 . S
O632 Eu588 2.462 1_554 S
O632 C652 1.252 . S
O633 Eu588 2.373 . S
O633 C644 1.249 . S
O634 Eu599 2.335 1_556 S
O634 C644 1.264 . S
O635 Eu588 2.432 1_554 S
O635 C652 1.268 . S
O636 Eu588 2.291 . S
O636 C651 1.255 . S
O637 Eu599 2.372 1_556 S
O637 C651 1.257 . S
O638 Eu599 2.462 1_556 S
O638 C663 1.252 . S
O639 Eu599 2.373 . S
O639 C655 1.249 . S
O640 Eu588 2.335 1_554 S
O640 C655 1.264 . S
O641 Eu599 2.432 1_556 S
O641 C663 1.268 . S
O642 Eu599 2.291 . S
O642 C662 1.255 . S
O643 Eu588 2.372 1_554 S
O643 C662 1.257 . S
C644 O633 1.249 . S
C644 O634 1.264 . S
C645 C648 1.382 . S
C645 C650 1.390 . S
C645 C652 1.506 . S
C646 C647 1.398 . S
C646 C650 1.392 . S
C647 C646 1.398 . S
C647 C649 1.372 . S
C647 H664 0.931 . S
C648 C645 1.382 . S
C648 C649 1.390 . S
C648 H665 0.931 . S
C649 C647 1.372 . S
C649 C648 1.390 . S
C649 H666 0.929 . S
C650 C645 1.390 . S
C650 C646 1.392 . S
C650 H667 0.930 . S
C651 O636 1.255 . S
C651 O637 1.257 . S
C652 Eu588 2.787 1_554 S
C652 O632 1.252 . S
C652 O635 1.268 . S
C652 C645 1.506 . S
C653 C620 1.439 . S
C653 H630 0.931 . S
C653 C654 1.374 . S
C654 C625 1.387 . S
C654 H631 0.931 . S
C654 C653 1.374 . S
C655 O639 1.249 . S
C655 O640 1.264 . S
C656 C659 1.382 . S
C656 C660 1.390 . S
C656 C663 1.506 . S
C657 C658 1.398 . S
C657 C660 1.392 . S
C658 C657 1.398 . S
C658 C661 1.372 . S
C658 H668 0.931 . S
C659 C656 1.382 . S
C659 C661 1.390 . S
C659 H669 0.931 . S
C660 C656 1.390 . S
C660 C657 1.392 . S
C660 H670 0.930 . S
C661 C658 1.372 . S
C661 C659 1.390 . S
C661 H671 0.929 . S
C662 O642 1.255 . S
C662 O643 1.257 . S
C663 Eu599 2.787 1_556 S
C663 O638 1.252 . S
C663 O641 1.268 . S
C663 C656 1.506 . S
H664 C647 0.931 . S
H665 C648 0.931 . S
H666 C649 0.929 . S
H667 C650 0.930 . S
H668 C658 0.931 . S
H669 C659 0.931 . S
H670 C660 0.930 . S
H671 C661 0.929 . S
C672 C673 1.349 . S
C672 C674 1.327 . S
C672 H697 0.950 . S
C673 C672 1.349 . S
C673 C689 1.349 . S
C674 C672 1.327 . S
C674 C693 1.429 . S
C674 H698 0.950 . S
C675 C692 1.574 . S
C675 C694 1.368 . S
C675 H699 0.949 . S
H676 C680 0.949 . S
C677 C678 1.349 . S
C677 C679 1.327 . S
C677 H700 0.950 . S
C678 C677 1.349 . S
C678 C690 1.349 . S
C679 C677 1.327 . S
C679 C695 1.429 . S
C679 H701 0.950 . S
C680 H676 0.949 . S
C680 C688 1.574 . S
C680 C696 1.368 . S
H681 C689 0.950 . S
H682 C687 0.950 . S
H683 C688 0.949 . S
H684 C690 0.950 . S
H685 C691 0.950 . S
H686 C692 0.949 . S
C687 H682 0.950 . S
C687 C689 1.327 . S
C687 C693 1.429 . S
C688 C680 1.574 . S
C688 H683 0.949 . S
C688 C694 1.368 . S
C689 C673 1.349 . S
C689 H681 0.950 . S
C689 C687 1.327 . S
C690 C678 1.349 . S
C690 H684 0.950 . S
C690 C691 1.327 . S
C691 H685 0.950 . S
C691 C690 1.327 . S
C691 C695 1.429 . S
C692 C675 1.574 . S
C692 H686 0.949 . S
C692 C696 1.368 . S
C693 C674 1.429 . S
C693 C687 1.429 . S
C693 C694 1.523 . S
C694 C675 1.368 . S
C694 C688 1.368 . S
C694 C693 1.523 . S
C695 C679 1.429 . S
C695 C691 1.429 . S
C695 C696 1.523 . S
C696 C680 1.368 . S
C696 C692 1.368 . S
C696 C695 1.523 . S
H697 C672 0.950 . S
H698 C674 0.950 . S
H699 C675 0.949 . S
H700 C677 0.950 . S
H701 C679 0.950 . S
C702 C703 1.349 . S
C702 C704 1.327 . S
C702 H727 0.950 . S
C703 C702 1.349 . S
C703 C719 1.349 . S
C704 C702 1.327 . S
C704 C723 1.429 . S
C704 H728 0.950 . S
C705 C722 1.574 . S
C705 C724 1.368 . S
C705 H729 0.949 . S
H706 C710 0.949 . S
C707 C708 1.349 . S
C707 C709 1.327 . S
C707 H730 0.950 . S
C708 C707 1.349 . S
C708 C720 1.349 . S
C709 C707 1.327 . S
C709 C725 1.429 . S
C709 H731 0.950 . S
C710 H706 0.949 . S
C710 C718 1.574 . S
C710 C726 1.368 . S
H711 C719 0.950 . S
H712 C717 0.950 . S
H713 C718 0.949 . S
H714 C720 0.950 . S
H715 C721 0.950 . S
H716 C722 0.949 . S
C717 H712 0.950 . S
C717 C719 1.327 . S
C717 C723 1.429 . S
C718 C710 1.574 . S
C718 H713 0.949 . S
C718 C724 1.368 . S
C719 C703 1.349 . S
C719 H711 0.950 . S
C719 C717 1.327 . S
C720 C708 1.349 . S
C720 H714 0.950 . S
C720 C721 1.327 . S
C721 H715 0.950 . S
C721 C720 1.327 . S
C721 C725 1.429 . S
C722 C705 1.574 . S
C722 H716 0.949 . S
C722 C726 1.368 . S
C723 C704 1.429 . S
C723 C717 1.429 . S
C723 C724 1.523 . S
C724 C705 1.368 . S
C724 C718 1.368 . S
C724 C723 1.523 . S
C725 C709 1.429 . S
C725 C721 1.429 . S
C725 C726 1.523 . S
C726 C710 1.368 . S
C726 C722 1.368 . S
C726 C725 1.523 . S
H727 C702 0.950 . S
H728 C704 0.950 . S
H729 C705 0.949 . S
H730 C707 0.950 . S
H731 C709 0.950 . S
C732 C733 1.349 . S
C732 C734 1.327 . S
C732 H757 0.950 . S
C733 C732 1.349 . S
C733 C749 1.349 . S
C734 C732 1.327 . S
C734 C753 1.429 . S
C734 H758 0.950 . S
C735 C752 1.574 . S
C735 C754 1.368 . S
C735 H759 0.949 . S
H736 C740 0.949 . S
C737 C738 1.349 . S
C737 C739 1.327 . S
C737 H760 0.950 . S
C738 C737 1.349 . S
C738 C750 1.349 . S
C739 C737 1.327 . S
C739 C755 1.429 . S
C739 H761 0.950 . S
C740 H736 0.949 . S
C740 C748 1.574 . S
C740 C756 1.368 . S
H741 C749 0.950 . S
H742 C747 0.950 . S
H743 C748 0.949 . S
H744 C750 0.950 . S
H745 C751 0.950 . S
H746 C752 0.949 . S
C747 H742 0.950 . S
C747 C749 1.327 . S
C747 C753 1.429 . S
C748 C740 1.574 . S
C748 H743 0.949 . S
C748 C754 1.368 . S
C749 C733 1.349 . S
C749 H741 0.950 . S
C749 C747 1.327 . S
C750 C738 1.349 . S
C750 H744 0.950 . S
C750 C751 1.327 . S
C751 H745 0.950 . S
C751 C750 1.327 . S
C751 C755 1.429 . S
C752 C735 1.574 . S
C752 H746 0.949 . S
C752 C756 1.368 . S
C753 C734 1.429 . S
C753 C747 1.429 . S
C753 C754 1.523 . S
C754 C735 1.368 . S
C754 C748 1.368 . S
C754 C753 1.523 . S
C755 C739 1.429 . S
C755 C751 1.429 . S
C755 C756 1.523 . S
C756 C740 1.368 . S
C756 C752 1.368 . S
C756 C755 1.523 . S
H757 C732 0.950 . S
H758 C734 0.950 . S
H759 C735 0.949 . S
H760 C737 0.950 . S
H761 C739 0.950 . S
C762 C763 1.349 . S
C762 C764 1.327 . S
C762 H787 0.950 . S
C763 C762 1.349 . S
C763 C779 1.349 . S
C764 C762 1.327 . S
C764 C783 1.429 . S
C764 H788 0.950 . S
C765 C782 1.574 . S
C765 C784 1.368 . S
C765 H789 0.949 . S
H766 C770 0.949 . S
C767 C768 1.349 . S
C767 C769 1.327 . S
C767 H790 0.950 . S
C768 C767 1.349 . S
C768 C780 1.349 . S
C769 C767 1.327 . S
C769 C785 1.429 . S
C769 H791 0.950 . S
C770 H766 0.949 . S
C770 C778 1.574 . S
C770 C786 1.368 . S
H771 C779 0.950 . S
H772 C777 0.950 . S
H773 C778 0.949 . S
H774 C780 0.950 . S
H775 C781 0.950 . S
H776 C782 0.949 . S
C777 H772 0.950 . S
C777 C779 1.327 . S
C777 C783 1.429 . S
C778 C770 1.574 . S
C778 H773 0.949 . S
C778 C784 1.368 . S
C779 C763 1.349 . S
C779 H771 0.950 . S
C779 C777 1.327 . S
C780 C768 1.349 . S
C780 H774 0.950 . S
C780 C781 1.327 . S
C781 H775 0.950 . S
C781 C780 1.327 . S
C781 C785 1.429 . S
C782 C765 1.574 . S
C782 H776 0.949 . S
C782 C786 1.368 . S
C783 C764 1.429 . S
C783 C777 1.429 . S
C783 C784 1.523 . S
C784 C765 1.368 . S
C784 C778 1.368 . S
C784 C783 1.523 . S
C785 C769 1.429 . S
C785 C781 1.429 . S
C785 C786 1.523 . S
C786 C770 1.368 . S
C786 C782 1.368 . S
C786 C785 1.523 . S
H787 C762 0.950 . S
H788 C764 0.950 . S
H789 C765 0.949 . S
H790 C767 0.950 . S
H791 C769 0.950 . S
C792 C793 1.349 . S
C792 C794 1.327 . S
C792 H817 0.950 . S
C793 C792 1.349 . S
C793 C809 1.349 . S
C794 C792 1.327 . S
C794 C813 1.429 . S
C794 H818 0.950 . S
C795 C812 1.574 1_565 S
C795 C814 1.368 . S
C795 H819 0.949 . S
H796 C800 0.949 . S
C797 C798 1.349 . S
C797 C799 1.327 . S
C797 H820 0.950 . S
C798 C797 1.349 . S
C798 C810 1.349 . S
C799 C797 1.327 . S
C799 C815 1.429 . S
C799 H821 0.950 . S
C800 H796 0.949 . S
C800 C808 1.574 1_545 S
C800 C816 1.368 . S
H801 C809 0.950 . S
H802 C807 0.950 . S
H803 C808 0.949 . S
H804 C810 0.950 . S
H805 C811 0.950 . S
H806 C812 0.949 . S
C807 H802 0.950 . S
C807 C809 1.327 . S
C807 C813 1.429 . S
C808 C800 1.574 1_565 S
C808 H803 0.949 . S
C808 C814 1.368 . S
C809 C793 1.349 . S
C809 H801 0.950 . S
C809 C807 1.327 . S
C810 C798 1.349 . S
C810 H804 0.950 . S
C810 C811 1.327 . S
C811 H805 0.950 . S
C811 C810 1.327 . S
C811 C815 1.429 . S
C812 C795 1.574 1_545 S
C812 H806 0.949 . S
C812 C816 1.368 . S
C813 C794 1.429 . S
C813 C807 1.429 . S
C813 C814 1.523 . S
C814 C795 1.368 . S
C814 C808 1.368 . S
C814 C813 1.523 . S
C815 C799 1.429 . S
C815 C811 1.429 . S
C815 C816 1.523 . S
C816 C800 1.368 . S
C816 C812 1.368 . S
C816 C815 1.523 . S
H817 C792 0.950 . S
H818 C794 0.950 . S
H819 C795 0.949 . S
H820 C797 0.950 . S
H821 C799 0.950 . S
C822 C823 1.349 . S
C822 C824 1.327 . S
C822 H847 0.950 . S
C823 C822 1.349 . S
C823 C839 1.349 . S
C824 C822 1.327 . S
C824 C843 1.429 . S
C824 H848 0.950 . S
C825 C842 1.574 . S
C825 C844 1.368 . S
C825 H849 0.949 . S
H826 C830 0.949 . S
C827 C828 1.349 . S
C827 C829 1.327 . S
C827 H850 0.950 . S
C828 C827 1.349 . S
C828 C840 1.349 . S
C829 C827 1.327 . S
C829 C845 1.429 . S
C829 H851 0.950 . S
C830 H826 0.949 . S
C830 C838 1.574 . S
C830 C846 1.368 . S
H831 C839 0.950 . S
H832 C837 0.950 . S
H833 C838 0.949 . S
H834 C840 0.950 . S
H835 C841 0.950 . S
H836 C842 0.949 . S
C837 H832 0.950 . S
C837 C839 1.327 . S
C837 C843 1.429 . S
C838 C830 1.574 . S
C838 H833 0.949 . S
C838 C844 1.368 . S
C839 C823 1.349 . S
C839 H831 0.950 . S
C839 C837 1.327 . S
C840 C828 1.349 . S
C840 H834 0.950 . S
C840 C841 1.327 . S
C841 H835 0.950 . S
C841 C840 1.327 . S
C841 C845 1.429 . S
C842 C825 1.574 . S
C842 H836 0.949 . S
C842 C846 1.368 . S
C843 C824 1.429 . S
C843 C837 1.429 . S
C843 C844 1.523 . S
C844 C825 1.368 . S
C844 C838 1.368 . S
C844 C843 1.523 . S
C845 C829 1.429 . S
C845 C841 1.429 . S
C845 C846 1.523 . S
C846 C830 1.368 . S
C846 C842 1.368 . S
C846 C845 1.523 . S
H847 C822 0.950 . S
H848 C824 0.950 . S
H849 C825 0.949 . S
H850 C827 0.950 . S
H851 C829 0.950 . S
C852 C853 1.349 . S
C852 C854 1.327 . S
C852 H877 0.950 . S
C853 C852 1.349 . S
C853 C869 1.349 . S
C854 C852 1.327 . S
C854 C873 1.429 . S
C854 H878 0.950 . S
C855 C872 1.574 1_565 S
C855 C874 1.368 . S
C855 H879 0.949 . S
H856 C860 0.949 . S
C857 C858 1.349 . S
C857 C859 1.327 . S
C857 H880 0.950 . S
C858 C857 1.349 . S
C858 C870 1.349 . S
C859 C857 1.327 . S
C859 C875 1.429 . S
C859 H881 0.950 . S
C860 H856 0.949 . S
C860 C868 1.574 1_545 S
C860 C876 1.368 . S
H861 C869 0.950 . S
H862 C867 0.950 . S
H863 C868 0.949 . S
H864 C870 0.950 . S
H865 C871 0.950 . S
H866 C872 0.949 . S
C867 H862 0.950 . S
C867 C869 1.327 . S
C867 C873 1.429 . S
C868 C860 1.574 1_565 S
C868 H863 0.949 . S
C868 C874 1.368 . S
C869 C853 1.349 . S
C869 H861 0.950 . S
C869 C867 1.327 . S
C870 C858 1.349 . S
C870 H864 0.950 . S
C870 C871 1.327 . S
C871 H865 0.950 . S
C871 C870 1.327 . S
C871 C875 1.429 . S
C872 C855 1.574 1_545 S
C872 H866 0.949 . S
C872 C876 1.368 . S
C873 C854 1.429 . S
C873 C867 1.429 . S
C873 C874 1.523 . S
C874 C855 1.368 . S
C874 C868 1.368 . S
C874 C873 1.523 . S
C875 C859 1.429 . S
C875 C871 1.429 . S
C875 C876 1.523 . S
C876 C860 1.368 . S
C876 C872 1.368 . S
C876 C875 1.523 . S
H877 C852 0.950 . S
H878 C854 0.950 . S
H879 C855 0.949 . S
H880 C857 0.950 . S
H881 C859 0.950 . S
C882 C883 1.349 . S
C882 C884 1.327 . S
C882 H907 0.950 . S
C883 C882 1.349 . S
C883 C899 1.349 . S
C884 C882 1.327 . S
C884 C903 1.429 . S
C884 H908 0.950 . S
C885 C902 1.574 . S
C885 C904 1.368 . S
C885 H909 0.949 . S
H886 C890 0.949 . S
C887 C888 1.349 . S
C887 C889 1.327 . S
C887 H910 0.950 . S
C888 C887 1.349 . S
C888 C900 1.349 . S
C889 C887 1.327 . S
C889 C905 1.429 . S
C889 H911 0.950 . S
C890 H886 0.949 . S
C890 C898 1.574 . S
C890 C906 1.368 . S
H891 C899 0.950 . S
H892 C897 0.950 . S
H893 C898 0.949 . S
H894 C900 0.950 . S
H895 C901 0.950 . S
H896 C902 0.949 . S
C897 H892 0.950 . S
C897 C899 1.327 . S
C897 C903 1.429 . S
C898 C890 1.574 . S
C898 H893 0.949 . S
C898 C904 1.368 . S
C899 C883 1.349 . S
C899 H891 0.950 . S
C899 C897 1.327 . S
C900 C888 1.349 . S
C900 H894 0.950 . S
C900 C901 1.327 . S
C901 H895 0.950 . S
C901 C900 1.327 . S
C901 C905 1.429 . S
C902 C885 1.574 . S
C902 H896 0.949 . S
C902 C906 1.368 . S
C903 C884 1.429 . S
C903 C897 1.429 . S
C903 C904 1.523 . S
C904 C885 1.368 . S
C904 C898 1.368 . S
C904 C903 1.523 . S
C905 C889 1.429 . S
C905 C901 1.429 . S
C905 C906 1.523 . S
C906 C890 1.368 . S
C906 C902 1.368 . S
C906 C905 1.523 . S
H907 C882 0.950 . S
H908 C884 0.950 . S
H909 C885 0.949 . S
H910 C887 0.950 . S
H911 C889 0.950 . S
C912 C913 1.349 . S
C912 C914 1.327 . S
C912 H937 0.950 . S
C913 C912 1.349 . S
C913 C929 1.349 1_556 S
C914 C912 1.327 . S
C914 C933 1.429 . S
C914 H938 0.950 . S
C915 C932 1.574 . S
C915 C934 1.368 1_554 S
C915 H939 0.949 . S
H916 C920 0.949 . S
C917 C918 1.349 . S
C917 C919 1.327 . S
C917 H940 0.950 . S
C918 C917 1.349 . S
C918 C930 1.349 1_554 S
C919 C917 1.327 . S
C919 C935 1.429 . S
C919 H941 0.950 . S
C920 H916 0.949 . S
C920 C928 1.574 . S
C920 C936 1.368 1_556 S
H921 C929 0.950 . S
H922 C927 0.950 . S
H923 C928 0.949 . S
H924 C930 0.950 . S
H925 C931 0.950 . S
H926 C932 0.949 . S
C927 H922 0.950 . S
C927 C929 1.327 . S
C927 C933 1.429 1_554 S
C928 C920 1.574 . S
C928 H923 0.949 . S
C928 C934 1.368 . S
C929 C913 1.349 1_554 S
C929 H921 0.950 . S
C929 C927 1.327 . S
C930 C918 1.349 1_556 S
C930 H924 0.950 . S
C930 C931 1.327 . S
C931 H925 0.950 . S
C931 C930 1.327 . S
C931 C935 1.429 1_556 S
C932 C915 1.574 . S
C932 H926 0.949 . S
C932 C936 1.368 . S
C933 C914 1.429 . S
C933 C927 1.429 1_556 S
C933 C934 1.523 . S
C934 C915 1.368 1_556 S
C934 C928 1.368 . S
C934 C933 1.523 . S
C935 C919 1.429 . S
C935 C931 1.429 1_554 S
C935 C936 1.523 . S
C936 C920 1.368 1_554 S
C936 C932 1.368 . S
C936 C935 1.523 . S
H937 C912 0.950 . S
H938 C914 0.950 . S
H939 C915 0.949 . S
H940 C917 0.950 . S
H941 C919 0.950 . S
C942 C943 1.349 1_556 S
C942 C944 1.327 . S
C942 H967 0.950 . S
C943 C942 1.349 1_554 S
C943 C959 1.349 . S
C944 C942 1.327 . S
C944 C963 1.429 1_556 S
C944 H968 0.950 . S
C945 C962 1.574 1_565 S
C945 C964 1.368 . S
C945 H969 0.949 . S
H946 C950 0.949 . S
C947 C948 1.349 1_554 S
C947 C949 1.327 . S
C947 H970 0.950 . S
C948 C947 1.349 1_556 S
C948 C960 1.349 . S
C949 C947 1.327 . S
C949 C965 1.429 1_554 S
C949 H971 0.950 . S
C950 H946 0.949 . S
C950 C958 1.574 1_545 S
C950 C966 1.368 . S
H951 C959 0.950 . S
H952 C957 0.950 . S
H953 C958 0.949 . S
H954 C960 0.950 . S
H955 C961 0.950 . S
H956 C962 0.949 . S
C957 H952 0.950 . S
C957 C959 1.327 . S
C957 C963 1.429 . S
C958 C950 1.574 1_565 S
C958 H953 0.949 . S
C958 C964 1.368 1_556 S
C959 C943 1.349 . S
C959 H951 0.950 . S
C959 C957 1.327 . S
C960 C948 1.349 . S
C960 H954 0.950 . S
C960 C961 1.327 . S
C961 H955 0.950 . S
C961 C960 1.327 . S
C961 C965 1.429 . S
C962 C945 1.574 1_545 S
C962 H956 0.949 . S
C962 C966 1.368 1_554 S
C963 C944 1.429 1_554 S
C963 C957 1.429 . S
C963 C964 1.523 . S
C964 C945 1.368 . S
C964 C958 1.368 1_554 S
C964 C963 1.523 . S
C965 C949 1.429 1_556 S
C965 C961 1.429 . S
C965 C966 1.523 . S
C966 C950 1.368 . S
C966 C962 1.368 1_556 S
C966 C965 1.523 . S
H967 C942 0.950 . S
H968 C944 0.950 . S
H969 C945 0.949 . S
H970 C947 0.950 . S
H971 C949 0.950 . S
C972 C973 1.349 1_556 S
C972 C974 1.327 . S
C972 H997 0.950 . S
C973 C972 1.349 1_554 S
C973 C989 1.349 . S
C974 C972 1.327 . S
C974 C993 1.429 1_556 S
C974 H998 0.950 . S
C975 C992 1.574 . S
C975 C994 1.368 . S
C975 H999 0.949 . S
H976 C980 0.949 . S
C977 C978 1.349 1_554 S
C977 C979 1.327 . S
C977 H1000 0.950 . S
C978 C977 1.349 1_556 S
C978 C990 1.349 . S
C979 C977 1.327 . S
C979 C995 1.429 1_554 S
C979 H1001 0.950 . S
C980 H976 0.949 . S
C980 C988 1.574 . S
C980 C996 1.368 . S
H981 C989 0.950 . S
H982 C987 0.950 . S
H983 C988 0.949 . S
H984 C990 0.950 . S
H985 C991 0.950 . S
H986 C992 0.949 . S
C987 H982 0.950 . S
C987 C989 1.327 . S
C987 C993 1.429 . S
C988 C980 1.574 . S
C988 H983 0.949 . S
C988 C994 1.368 1_556 S
C989 C973 1.349 . S
C989 H981 0.950 . S
C989 C987 1.327 . S
C990 C978 1.349 . S
C990 H984 0.950 . S
C990 C991 1.327 . S
C991 H985 0.950 . S
C991 C990 1.327 . S
C991 C995 1.429 . S
C992 C975 1.574 . S
C992 H986 0.949 . S
C992 C996 1.368 1_554 S
C993 C974 1.429 1_554 S
C993 C987 1.429 . S
C993 C994 1.523 . S
C994 C975 1.368 . S
C994 C988 1.368 1_554 S
C994 C993 1.523 . S
C995 C979 1.429 1_556 S
C995 C991 1.429 . S
C995 C996 1.523 . S
C996 C980 1.368 . S
C996 C992 1.368 1_556 S
C996 C995 1.523 . S
H997 C972 0.950 . S
H998 C974 0.950 . S
H999 C975 0.949 . S
H1000 C977 0.950 . S
H1001 C979 0.950 . S
C1002 C1003 1.349 . S
C1002 C1004 1.327 . S
C1002 H1027 0.950 . S
C1003 C1002 1.349 . S
C1003 C1019 1.349 1_556 S
C1004 C1002 1.327 . S
C1004 C1023 1.429 . S
C1004 H1028 0.950 . S
C1005 C1022 1.574 1_545 S
C1005 C1024 1.368 1_554 S
C1005 H1029 0.949 . S
H1006 C1010 0.949 . S
C1007 C1008 1.349 . S
C1007 C1009 1.327 . S
C1007 H1030 0.950 . S
C1008 C1007 1.349 . S
C1008 C1020 1.349 1_554 S
C1009 C1007 1.327 . S
C1009 C1025 1.429 . S
C1009 H1031 0.950 . S
C1010 H1006 0.949 . S
C1010 C1018 1.574 1_565 S
C1010 C1026 1.368 1_556 S
H1011 C1019 0.950 . S
H1012 C1017 0.950 . S
H1013 C1018 0.949 . S
H1014 C1020 0.950 . S
H1015 C1021 0.950 . S
H1016 C1022 0.949 . S
C1017 H1012 0.950 . S
C1017 C1019 1.327 . S
C1017 C1023 1.429 1_554 S
C1018 C1010 1.574 1_545 S
C1018 H1013 0.949 . S
C1018 C1024 1.368 . S
C1019 C1003 1.349 1_554 S
C1019 H1011 0.950 . S
C1019 C1017 1.327 . S
C1020 C1008 1.349 1_556 S
C1020 H1014 0.950 . S
C1020 C1021 1.327 . S
C1021 H1015 0.950 . S
C1021 C1020 1.327 . S
C1021 C1025 1.429 1_556 S
C1022 C1005 1.574 1_565 S
C1022 H1016 0.949 . S
C1022 C1026 1.368 . S
C1023 C1004 1.429 . S
C1023 C1017 1.429 1_556 S
C1023 C1024 1.523 . S
C1024 C1005 1.368 1_556 S
C1024 C1018 1.368 . S
C1024 C1023 1.523 . S
C1025 C1009 1.429 . S
C1025 C1021 1.429 1_554 S
C1025 C1026 1.523 . S
C1026 C1010 1.368 1_554 S
C1026 C1022 1.368 . S
C1026 C1025 1.523 . S
H1027 C1002 0.950 . S
H1028 C1004 0.950 . S
H1029 C1005 0.949 . S
H1030 C1007 0.950 . S
H1031 C1009 0.950 . S
C1032 C1033 1.349 . S
C1032 C1034 1.327 . S
C1032 H1057 0.950 . S
C1033 C1032 1.349 . S
C1033 C1049 1.349 . S
C1034 C1032 1.327 . S
C1034 C1053 1.429 . S
C1034 H1058 0.950 . S
C1035 C1052 1.574 1_554 S
C1035 C1054 1.368 . S
C1035 H1059 0.949 . S
H1036 C1040 0.949 . S
C1037 C1038 1.349 . S
C1037 C1039 1.327 . S
C1037 H1060 0.950 . S
C1038 C1037 1.349 . S
C1038 C1050 1.349 . S
C1039 C1037 1.327 . S
C1039 C1055 1.429 . S
C1039 H1061 0.950 . S
C1040 H1036 0.949 . S
C1040 C1048 1.574 1_556 S
C1040 C1056 1.368 . S
H1041 C1049 0.950 . S
H1042 C1047 0.950 . S
H1043 C1048 0.949 . S
H1044 C1050 0.950 . S
H1045 C1051 0.950 . S
H1046 C1052 0.949 . S
C1047 H1042 0.950 . S
C1047 C1049 1.327 . S
C1047 C1053 1.429 . S
C1048 C1040 1.574 1_554 S
C1048 H1043 0.949 . S
C1048 C1054 1.368 . S
C1049 C1033 1.349 . S
C1049 H1041 0.950 . S
C1049 C1047 1.327 . S
C1050 C1038 1.349 . S
C1050 H1044 0.950 . S
C1050 C1051 1.327 . S
C1051 H1045 0.950 . S
C1051 C1050 1.327 . S
C1051 C1055 1.429 . S
C1052 C1035 1.574 1_556 S
C1052 H1046 0.949 . S
C1052 C1056 1.368 . S
C1053 C1034 1.429 . S
C1053 C1047 1.429 . S
C1053 C1054 1.523 . S
C1054 C1035 1.368 . S
C1054 C1048 1.368 . S
C1054 C1053 1.523 . S
C1055 C1039 1.429 . S
C1055 C1051 1.429 . S
C1055 C1056 1.523 . S
C1056 C1040 1.368 . S
C1056 C1052 1.368 . S
C1056 C1055 1.523 . S
H1057 C1032 0.950 . S
H1058 C1034 0.950 . S
H1059 C1035 0.949 . S
H1060 C1037 0.950 . S
H1061 C1039 0.950 . S
C1062 C1063 1.349 . S
C1062 C1064 1.327 . S
C1062 H1087 0.950 . S
C1063 C1062 1.349 . S
C1063 C1079 1.349 . S
C1064 C1062 1.327 . S
C1064 C1083 1.429 . S
C1064 H1088 0.950 . S
C1065 C1082 1.574 1_554 S
C1065 C1084 1.368 . S
C1065 H1089 0.949 . S
H1066 C1070 0.949 . S
C1067 C1068 1.349 . S
C1067 C1069 1.327 . S
C1067 H1090 0.950 . S
C1068 C1067 1.349 . S
C1068 C1080 1.349 . S
C1069 C1067 1.327 . S
C1069 C1085 1.429 . S
C1069 H1091 0.950 . S
C1070 H1066 0.949 . S
C1070 C1078 1.574 1_556 S
C1070 C1086 1.368 . S
H1071 C1079 0.950 . S
H1072 C1077 0.950 . S
H1073 C1078 0.949 . S
H1074 C1080 0.950 . S
H1075 C1081 0.950 . S
H1076 C1082 0.949 . S
C1077 H1072 0.950 . S
C1077 C1079 1.327 . S
C1077 C1083 1.429 . S
C1078 C1070 1.574 1_554 S
C1078 H1073 0.949 . S
C1078 C1084 1.368 . S
C1079 C1063 1.349 . S
C1079 H1071 0.950 . S
C1079 C1077 1.327 . S
C1080 C1068 1.349 . S
C1080 H1074 0.950 . S
C1080 C1081 1.327 . S
C1081 H1075 0.950 . S
C1081 C1080 1.327 . S
C1081 C1085 1.429 . S
C1082 C1065 1.574 1_556 S
C1082 H1076 0.949 . S
C1082 C1086 1.368 . S
C1083 C1064 1.429 . S
C1083 C1077 1.429 . S
C1083 C1084 1.523 . S
C1084 C1065 1.368 . S
C1084 C1078 1.368 . S
C1084 C1083 1.523 . S
C1085 C1069 1.429 . S
C1085 C1081 1.429 . S
C1085 C1086 1.523 . S
C1086 C1070 1.368 . S
C1086 C1082 1.368 . S
C1086 C1085 1.523 . S
H1087 C1062 0.950 . S
H1088 C1064 0.950 . S
H1089 C1065 0.949 . S
H1090 C1067 0.950 . S
H1091 C1069 0.950 . S
C1092 C1093 1.349 . S
C1092 C1094 1.327 . S
C1092 H1117 0.950 . S
C1093 C1092 1.349 . S
C1093 C1109 1.349 . S
C1094 C1092 1.327 . S
C1094 C1113 1.429 . S
C1094 H1118 0.950 . S
C1095 C1112 1.574 1_554 S
C1095 C1114 1.368 . S
C1095 H1119 0.949 . S
H1096 C1100 0.949 . S
C1097 C1098 1.349 . S
C1097 C1099 1.327 . S
C1097 H1120 0.950 . S
C1098 C1097 1.349 . S
C1098 C1110 1.349 . S
C1099 C1097 1.327 . S
C1099 C1115 1.429 . S
C1099 H1121 0.950 . S
C1100 H1096 0.949 . S
C1100 C1108 1.574 1_556 S
C1100 C1116 1.368 . S
H1101 C1109 0.950 . S
H1102 C1107 0.950 . S
H1103 C1108 0.949 . S
H1104 C1110 0.950 . S
H1105 C1111 0.950 . S
H1106 C1112 0.949 . S
C1107 H1102 0.950 . S
C1107 C1109 1.327 . S
C1107 C1113 1.429 . S
C1108 C1100 1.574 1_554 S
C1108 H1103 0.949 . S
C1108 C1114 1.368 . S
C1109 C1093 1.349 . S
C1109 H1101 0.950 . S
C1109 C1107 1.327 . S
C1110 C1098 1.349 . S
C1110 H1104 0.950 . S
C1110 C1111 1.327 . S
C1111 H1105 0.950 . S
C1111 C1110 1.327 . S
C1111 C1115 1.429 . S
C1112 C1095 1.574 1_556 S
C1112 H1106 0.949 . S
C1112 C1116 1.368 . S
C1113 C1094 1.429 . S
C1113 C1107 1.429 . S
C1113 C1114 1.523 . S
C1114 C1095 1.368 . S
C1114 C1108 1.368 . S
C1114 C1113 1.523 . S
C1115 C1099 1.429 . S
C1115 C1111 1.429 . S
C1115 C1116 1.523 . S
C1116 C1100 1.368 . S
C1116 C1112 1.368 . S
C1116 C1115 1.523 . S
H1117 C1092 0.950 . S
H1118 C1094 0.950 . S
H1119 C1095 0.949 . S
H1120 C1097 0.950 . S
H1121 C1099 0.950 . S
C1122 C1123 1.349 . S
C1122 C1124 1.327 . S
C1122 H1147 0.950 . S
C1123 C1122 1.349 . S
C1123 C1139 1.349 . S
C1124 C1122 1.327 . S
C1124 C1143 1.429 . S
C1124 H1148 0.950 . S
C1125 C1142 1.574 1_556 S
C1125 C1144 1.368 . S
C1125 H1149 0.949 . S
H1126 C1130 0.949 . S
C1127 C1128 1.349 . S
C1127 C1129 1.327 . S
C1127 H1150 0.950 . S
C1128 C1127 1.349 . S
C1128 C1140 1.349 . S
C1129 C1127 1.327 . S
C1129 C1145 1.429 . S
C1129 H1151 0.950 . S
C1130 H1126 0.949 . S
C1130 C1138 1.574 1_554 S
C1130 C1146 1.368 . S
H1131 C1139 0.950 . S
H1132 C1137 0.950 . S
H1133 C1138 0.949 . S
H1134 C1140 0.950 . S
H1135 C1141 0.950 . S
H1136 C1142 0.949 . S
C1137 H1132 0.950 . S
C1137 C1139 1.327 . S
C1137 C1143 1.429 . S
C1138 C1130 1.574 1_556 S
C1138 H1133 0.949 . S
C1138 C1144 1.368 . S
C1139 C1123 1.349 . S
C1139 H1131 0.950 . S
C1139 C1137 1.327 . S
C1140 C1128 1.349 . S
C1140 H1134 0.950 . S
C1140 C1141 1.327 . S
C1141 H1135 0.950 . S
C1141 C1140 1.327 . S
C1141 C1145 1.429 . S
C1142 C1125 1.574 1_554 S
C1142 H1136 0.949 . S
C1142 C1146 1.368 . S
C1143 C1124 1.429 . S
C1143 C1137 1.429 . S
C1143 C1144 1.523 . S
C1144 C1125 1.368 . S
C1144 C1138 1.368 . S
C1144 C1143 1.523 . S
C1145 C1129 1.429 . S
C1145 C1141 1.429 . S
C1145 C1146 1.523 . S
C1146 C1130 1.368 . S
C1146 C1142 1.368 . S
C1146 C1145 1.523 . S
H1147 C1122 0.950 . S
H1148 C1124 0.950 . S
H1149 C1125 0.949 . S
H1150 C1127 0.950 . S
H1151 C1129 0.950 . S
C1152 C1153 1.349 . S
C1152 C1154 1.327 . S
C1152 H1177 0.950 . S
C1153 C1152 1.349 . S
C1153 C1169 1.349 . S
C1154 C1152 1.327 . S
C1154 C1173 1.429 . S
C1154 H1178 0.950 . S
C1155 C1172 1.574 . S
C1155 C1174 1.368 . S
C1155 H1179 0.949 . S
H1156 C1160 0.949 . S
C1157 C1158 1.349 . S
C1157 C1159 1.327 . S
C1157 H1180 0.950 . S
C1158 C1157 1.349 . S
C1158 C1170 1.349 . S
C1159 C1157 1.327 . S
C1159 C1175 1.429 . S
C1159 H1181 0.950 . S
C1160 H1156 0.949 . S
C1160 C1168 1.574 . S
C1160 C1176 1.368 . S
H1161 C1169 0.950 . S
H1162 C1167 0.950 . S
H1163 C1168 0.949 . S
H1164 C1170 0.950 . S
H1165 C1171 0.950 . S
H1166 C1172 0.949 . S
C1167 H1162 0.950 . S
C1167 C1169 1.327 . S
C1167 C1173 1.429 . S
C1168 C1160 1.574 . S
C1168 H1163 0.949 . S
C1168 C1174 1.368 . S
C1169 C1153 1.349 . S
C1169 H1161 0.950 . S
C1169 C1167 1.327 . S
C1170 C1158 1.349 . S
C1170 H1164 0.950 . S
C1170 C1171 1.327 . S
C1171 H1165 0.950 . S
C1171 C1170 1.327 . S
C1171 C1175 1.429 . S
C1172 C1155 1.574 . S
C1172 H1166 0.949 . S
C1172 C1176 1.368 . S
C1173 C1154 1.429 . S
C1173 C1167 1.429 . S
C1173 C1174 1.523 . S
C1174 C1155 1.368 . S
C1174 C1168 1.368 . S
C1174 C1173 1.523 . S
C1175 C1159 1.429 . S
C1175 C1171 1.429 . S
C1175 C1176 1.523 . S
C1176 C1160 1.368 . S
C1176 C1172 1.368 . S
C1176 C1175 1.523 . S
H1177 C1152 0.950 . S
H1178 C1154 0.950 . S
H1179 C1155 0.949 . S
H1180 C1157 0.950 . S
H1181 C1159 0.950 . S
C1182 C1183 1.349 . S
C1182 C1184 1.327 . S
C1182 H1207 0.950 . S
C1183 C1182 1.349 . S
C1183 C1199 1.349 . S
C1184 C1182 1.327 . S
C1184 C1203 1.429 . S
C1184 H1208 0.950 . S
C1185 C1202 1.574 . S
C1185 C1204 1.368 . S
C1185 H1209 0.949 . S
H1186 C1190 0.949 . S
C1187 C1188 1.349 . S
C1187 C1189 1.327 . S
C1187 H1210 0.950 . S
C1188 C1187 1.349 . S
C1188 C1200 1.349 . S
C1189 C1187 1.327 . S
C1189 C1205 1.429 . S
C1189 H1211 0.950 . S
C1190 H1186 0.949 . S
C1190 C1198 1.574 . S
C1190 C1206 1.368 . S
H1191 C1199 0.950 . S
H1192 C1197 0.950 . S
H1193 C1198 0.949 . S
H1194 C1200 0.950 . S
H1195 C1201 0.950 . S
H1196 C1202 0.949 . S
C1197 H1192 0.950 . S
C1197 C1199 1.327 . S
C1197 C1203 1.429 . S
C1198 C1190 1.574 . S
C1198 H1193 0.949 . S
C1198 C1204 1.368 . S
C1199 C1183 1.349 . S
C1199 H1191 0.950 . S
C1199 C1197 1.327 . S
C1200 C1188 1.349 . S
C1200 H1194 0.950 . S
C1200 C1201 1.327 . S
C1201 H1195 0.950 . S
C1201 C1200 1.327 . S
C1201 C1205 1.429 . S
C1202 C1185 1.574 . S
C1202 H1196 0.949 . S
C1202 C1206 1.368 . S
C1203 C1184 1.429 . S
C1203 C1197 1.429 . S
C1203 C1204 1.523 . S
C1204 C1185 1.368 . S
C1204 C1198 1.368 . S
C1204 C1203 1.523 . S
C1205 C1189 1.429 . S
C1205 C1201 1.429 . S
C1205 C1206 1.523 . S
C1206 C1190 1.368 . S
C1206 C1202 1.368 . S
C1206 C1205 1.523 . S
H1207 C1182 0.950 . S
H1208 C1184 0.950 . S
H1209 C1185 0.949 . S
H1210 C1187 0.950 . S
H1211 C1189 0.950 . S
C1212 C1213 1.349 . S
C1212 C1214 1.327 . S
C1212 H1237 0.950 . S
C1213 C1212 1.349 . S
C1213 C1229 1.349 . S
C1214 C1212 1.327 . S
C1214 C1233 1.429 . S
C1214 H1238 0.950 . S
C1215 C1232 1.574 . S
C1215 C1234 1.368 . S
C1215 H1239 0.949 . S
H1216 C1220 0.949 . S
C1217 C1218 1.349 . S
C1217 C1219 1.327 . S
C1217 H1240 0.950 . S
C1218 C1217 1.349 . S
C1218 C1230 1.349 . S
C1219 C1217 1.327 . S
C1219 C1235 1.429 . S
C1219 H1241 0.950 . S
C1220 H1216 0.949 . S
C1220 C1228 1.574 . S
C1220 C1236 1.368 . S
H1221 C1229 0.950 . S
H1222 C1227 0.950 . S
H1223 C1228 0.949 . S
H1224 C1230 0.950 . S
H1225 C1231 0.950 . S
H1226 C1232 0.949 . S
C1227 H1222 0.950 . S
C1227 C1229 1.327 . S
C1227 C1233 1.429 . S
C1228 C1220 1.574 . S
C1228 H1223 0.949 . S
C1228 C1234 1.368 . S
C1229 C1213 1.349 . S
C1229 H1221 0.950 . S
C1229 C1227 1.327 . S
C1230 C1218 1.349 . S
C1230 H1224 0.950 . S
C1230 C1231 1.327 . S
C1231 H1225 0.950 . S
C1231 C1230 1.327 . S
C1231 C1235 1.429 . S
C1232 C1215 1.574 . S
C1232 H1226 0.949 . S
C1232 C1236 1.368 . S
C1233 C1214 1.429 . S
C1233 C1227 1.429 . S
C1233 C1234 1.523 . S
C1234 C1215 1.368 . S
C1234 C1228 1.368 . S
C1234 C1233 1.523 . S
C1235 C1219 1.429 . S
C1235 C1231 1.429 . S
C1235 C1236 1.523 . S
C1236 C1220 1.368 . S
C1236 C1232 1.368 . S
C1236 C1235 1.523 . S
H1237 C1212 0.950 . S
H1238 C1214 0.950 . S
H1239 C1215 0.949 . S
H1240 C1217 0.950 . S
H1241 C1219 0.950 . S
C1242 C1243 1.349 . S
C1242 C1244 1.327 . S
C1242 H1267 0.950 . S
C1243 C1242 1.349 . S
C1243 C1259 1.349 . S
C1244 C1242 1.327 . S
C1244 C1263 1.429 . S
C1244 H1268 0.950 . S
C1245 C1262 1.574 . S
C1245 C1264 1.368 . S
C1245 H1269 0.949 . S
H1246 C1250 0.949 . S
C1247 C1248 1.349 . S
C1247 C1249 1.327 . S
C1247 H1270 0.950 . S
C1248 C1247 1.349 . S
C1248 C1260 1.349 . S
C1249 C1247 1.327 . S
C1249 C1265 1.429 . S
C1249 H1271 0.950 . S
C1250 H1246 0.949 . S
C1250 C1258 1.574 . S
C1250 C1266 1.368 . S
H1251 C1259 0.950 . S
H1252 C1257 0.950 . S
H1253 C1258 0.949 . S
H1254 C1260 0.950 . S
H1255 C1261 0.950 . S
H1256 C1262 0.949 . S
C1257 H1252 0.950 . S
C1257 C1259 1.327 . S
C1257 C1263 1.429 . S
C1258 C1250 1.574 . S
C1258 H1253 0.949 . S
C1258 C1264 1.368 . S
C1259 C1243 1.349 . S
C1259 H1251 0.950 . S
C1259 C1257 1.327 . S
C1260 C1248 1.349 . S
C1260 H1254 0.950 . S
C1260 C1261 1.327 . S
C1261 H1255 0.950 . S
C1261 C1260 1.327 . S
C1261 C1265 1.429 . S
C1262 C1245 1.574 . S
C1262 H1256 0.949 . S
C1262 C1266 1.368 . S
C1263 C1244 1.429 . S
C1263 C1257 1.429 . S
C1263 C1264 1.523 . S
C1264 C1245 1.368 . S
C1264 C1258 1.368 . S
C1264 C1263 1.523 . S
C1265 C1249 1.429 . S
C1265 C1261 1.429 . S
C1265 C1266 1.523 . S
C1266 C1250 1.368 . S
C1266 C1262 1.368 . S
C1266 C1265 1.523 . S
H1267 C1242 0.950 . S
H1268 C1244 0.950 . S
H1269 C1245 0.949 . S
H1270 C1247 0.950 . S
H1271 C1249 0.950 . S
C1272 C1273 1.349 . S
C1272 C1274 1.327 . S
C1272 H1297 0.950 . S
C1273 C1272 1.349 . S
C1273 C1289 1.349 . S
C1274 C1272 1.327 . S
C1274 C1293 1.429 . S
C1274 H1298 0.950 . S
C1275 C1292 1.574 1_455 S
C1275 C1294 1.368 . S
C1275 H1299 0.949 . S
H1276 C1280 0.949 . S
C1277 C1278 1.349 . S
C1277 C1279 1.327 . S
C1277 H1300 0.950 . S
C1278 C1277 1.349 . S
C1278 C1290 1.349 . S
C1279 C1277 1.327 . S
C1279 C1295 1.429 . S
C1279 H1301 0.950 . S
C1280 H1276 0.949 . S
C1280 C1288 1.574 1_655 S
C1280 C1296 1.368 . S
H1281 C1289 0.950 . S
H1282 C1287 0.950 . S
H1283 C1288 0.949 . S
H1284 C1290 0.950 . S
H1285 C1291 0.950 . S
H1286 C1292 0.949 . S
C1287 H1282 0.950 . S
C1287 C1289 1.327 . S
C1287 C1293 1.429 . S
C1288 C1280 1.574 1_455 S
C1288 H1283 0.949 . S
C1288 C1294 1.368 . S
C1289 C1273 1.349 . S
C1289 H1281 0.950 . S
C1289 C1287 1.327 . S
C1290 C1278 1.349 . S
C1290 H1284 0.950 . S
C1290 C1291 1.327 . S
C1291 H1285 0.950 . S
C1291 C1290 1.327 . S
C1291 C1295 1.429 . S
C1292 C1275 1.574 1_655 S
C1292 H1286 0.949 . S
C1292 C1296 1.368 . S
C1293 C1274 1.429 . S
C1293 C1287 1.429 . S
C1293 C1294 1.523 . S
C1294 C1275 1.368 . S
C1294 C1288 1.368 . S
C1294 C1293 1.523 . S
C1295 C1279 1.429 . S
C1295 C1291 1.429 . S
C1295 C1296 1.523 . S
C1296 C1280 1.368 . S
C1296 C1292 1.368 . S
C1296 C1295 1.523 . S
H1297 C1272 0.950 . S
H1298 C1274 0.950 . S
H1299 C1275 0.949 . S
H1300 C1277 0.950 . S
H1301 C1279 0.950 . S
C1302 C1303 1.349 . S
C1302 C1304 1.327 . S
C1302 H1327 0.950 . S
C1303 C1302 1.349 . S
C1303 C1319 1.349 . S
C1304 C1302 1.327 . S
C1304 C1323 1.429 . S
C1304 H1328 0.950 . S
C1305 C1322 1.574 1_655 S
C1305 C1324 1.368 . S
C1305 H1329 0.949 . S
H1306 C1310 0.949 . S
C1307 C1308 1.349 . S
C1307 C1309 1.327 . S
C1307 H1330 0.950 . S
C1308 C1307 1.349 . S
C1308 C1320 1.349 . S
C1309 C1307 1.327 . S
C1309 C1325 1.429 . S
C1309 H1331 0.950 . S
C1310 H1306 0.949 . S
C1310 C1318 1.574 1_455 S
C1310 C1326 1.368 . S
H1311 C1319 0.950 . S
H1312 C1317 0.950 . S
H1313 C1318 0.949 . S
H1314 C1320 0.950 . S
H1315 C1321 0.950 . S
H1316 C1322 0.949 . S
C1317 H1312 0.950 . S
C1317 C1319 1.327 . S
C1317 C1323 1.429 . S
C1318 C1310 1.574 1_655 S
C1318 H1313 0.949 . S
C1318 C1324 1.368 . S
C1319 C1303 1.349 . S
C1319 H1311 0.950 . S
C1319 C1317 1.327 . S
C1320 C1308 1.349 . S
C1320 H1314 0.950 . S
C1320 C1321 1.327 . S
C1321 H1315 0.950 . S
C1321 C1320 1.327 . S
C1321 C1325 1.429 . S
C1322 C1305 1.574 1_455 S
C1322 H1316 0.949 . S
C1322 C1326 1.368 . S
C1323 C1304 1.429 . S
C1323 C1317 1.429 . S
C1323 C1324 1.523 . S
C1324 C1305 1.368 . S
C1324 C1318 1.368 . S
C1324 C1323 1.523 . S
C1325 C1309 1.429 . S
C1325 C1321 1.429 . S
C1325 C1326 1.523 . S
C1326 C1310 1.368 . S
C1326 C1322 1.368 . S
C1326 C1325 1.523 . S
H1327 C1302 0.950 . S
H1328 C1304 0.950 . S
H1329 C1305 0.949 . S
H1330 C1307 0.950 . S
H1331 C1309 0.950 . S
C1332 C1333 1.349 . S
C1332 C1334 1.327 . S
C1332 H1357 0.950 . S
C1333 C1332 1.349 . S
C1333 C1349 1.349 . S
C1334 C1332 1.327 . S
C1334 C1353 1.429 . S
C1334 H1358 0.950 . S
C1335 C1352 1.574 . S
C1335 C1354 1.368 . S
C1335 H1359 0.949 . S
H1336 C1340 0.949 . S
C1337 C1338 1.349 . S
C1337 C1339 1.327 . S
C1337 H1360 0.950 . S
C1338 C1337 1.349 . S
C1338 C1350 1.349 . S
C1339 C1337 1.327 . S
C1339 C1355 1.429 . S
C1339 H1361 0.950 . S
C1340 H1336 0.949 . S
C1340 C1348 1.574 . S
C1340 C1356 1.368 . S
H1341 C1349 0.950 . S
H1342 C1347 0.950 . S
H1343 C1348 0.949 . S
H1344 C1350 0.950 . S
H1345 C1351 0.950 . S
H1346 C1352 0.949 . S
C1347 H1342 0.950 . S
C1347 C1349 1.327 . S
C1347 C1353 1.429 . S
C1348 C1340 1.574 . S
C1348 H1343 0.949 . S
C1348 C1354 1.368 . S
C1349 C1333 1.349 . S
C1349 H1341 0.950 . S
C1349 C1347 1.327 . S
C1350 C1338 1.349 . S
C1350 H1344 0.950 . S
C1350 C1351 1.327 . S
C1351 H1345 0.950 . S
C1351 C1350 1.327 . S
C1351 C1355 1.429 . S
C1352 C1335 1.574 . S
C1352 H1346 0.949 . S
C1352 C1356 1.368 . S
C1353 C1334 1.429 . S
C1353 C1347 1.429 . S
C1353 C1354 1.523 . S
C1354 C1335 1.368 . S
C1354 C1348 1.368 . S
C1354 C1353 1.523 . S
C1355 C1339 1.429 . S
C1355 C1351 1.429 . S
C1355 C1356 1.523 . S
C1356 C1340 1.368 . S
C1356 C1352 1.368 . S
C1356 C1355 1.523 . S
H1357 C1332 0.950 . S
H1358 C1334 0.950 . S
H1359 C1335 0.949 . S
H1360 C1337 0.950 . S
H1361 C1339 0.950 . S
C1362 C1363 1.349 . S
C1362 C1364 1.327 . S
C1362 H1387 0.950 . S
C1363 C1362 1.349 . S
C1363 C1379 1.349 . S
C1364 C1362 1.327 . S
C1364 C1383 1.429 . S
C1364 H1388 0.950 . S
C1365 C1382 1.574 . S
C1365 C1384 1.368 . S
C1365 H1389 0.949 . S
H1366 C1370 0.949 . S
C1367 C1368 1.349 . S
C1367 C1369 1.327 . S
C1367 H1390 0.950 . S
C1368 C1367 1.349 . S
C1368 C1380 1.349 . S
C1369 C1367 1.327 . S
C1369 C1385 1.429 . S
C1369 H1391 0.950 . S
C1370 H1366 0.949 . S
C1370 C1378 1.574 . S
C1370 C1386 1.368 . S
H1371 C1379 0.950 . S
H1372 C1377 0.950 . S
H1373 C1378 0.949 . S
H1374 C1380 0.950 . S
H1375 C1381 0.950 . S
H1376 C1382 0.949 . S
C1377 H1372 0.950 . S
C1377 C1379 1.327 . S
C1377 C1383 1.429 . S
C1378 C1370 1.574 . S
C1378 H1373 0.949 . S
C1378 C1384 1.368 . S
C1379 C1363 1.349 . S
C1379 H1371 0.950 . S
C1379 C1377 1.327 . S
C1380 C1368 1.349 . S
C1380 H1374 0.950 . S
C1380 C1381 1.327 . S
C1381 H1375 0.950 . S
C1381 C1380 1.327 . S
C1381 C1385 1.429 . S
C1382 C1365 1.574 . S
C1382 H1376 0.949 . S
C1382 C1386 1.368 . S
C1383 C1364 1.429 . S
C1383 C1377 1.429 . S
C1383 C1384 1.523 . S
C1384 C1365 1.368 . S
C1384 C1378 1.368 . S
C1384 C1383 1.523 . S
C1385 C1369 1.429 . S
C1385 C1381 1.429 . S
C1385 C1386 1.523 . S
C1386 C1370 1.368 . S
C1386 C1382 1.368 . S
C1386 C1385 1.523 . S
H1387 C1362 0.950 . S
H1388 C1364 0.950 . S
H1389 C1365 0.949 . S
H1390 C1367 0.950 . S
H1391 C1369 0.950 . S
C673 C58 1.585 . S
C678 C657 1.585 . S
C703 C562 1.586 . S
C708 C153 1.585 . S
C733 C489 1.586 . S
C738 C226 1.585 . S
C763 C394 1.586 . S
C768 C321 1.585 . S
C793 C231 2.599 . S
C798 C63 2.599 . S
C823 C147 0.502 . S
C828 C315 0.502 . S
C853 C326 2.599 . S
C858 C158 2.598 . S
C883 C242 0.502 . S
C888 C74 0.502 . S
C913 C399 2.610 . S
C918 C567 2.609 . S
C943 C483 0.483 . S
C948 C651 0.484 . S
C973 C662 2.610 . S
C978 C494 2.609 . S
C1003 C578 0.483 . S
C1008 C410 0.484 . S
C1033 C56 1.736 . S
C1038 C67 1.736 . S
C1063 C151 1.736 . S
C1068 C140 1.736 . S
C1093 C235 1.736 . S
C1098 C224 1.736 . S
C1123 C319 1.736 . S
C1128 C308 1.736 . S
C1153 C403 1.736 . S
C1158 C392 1.736 . S
C1183 C487 1.736 . S
C1188 C476 1.736 . S
C1213 C560 1.736 . S
C1218 C571 1.736 . S
C1243 C655 1.736 . S
C1248 C644 1.736 . S
C1273 C69 2.051 . S
C1278 C142 2.051 . S
C1303 C310 2.051 . S
C1308 C237 2.051 . S
C1333 C405 2.051 . S
C1338 C478 2.051 . S
C1363 C646 2.051 . S
C1368 C573 2.051 . S
