# Generated by pormake.
# Topology unp, (4)-cn, num edge types: 1
# Building blocks:
#     Node 0, Type 0, BuildingBlock: NAHDIM_clean_sbu_0, # of connection points: 4
#     Node 1, Type 0, BuildingBlock: NAHDIM_clean_sbu_0, # of connection points: 4
#     Node 2, Type 0, BuildingBlock: NAHDIM_clean_sbu_0, # of connection points: 4
#     Node 3, Type 0, BuildingBlock: NAHDIM_clean_sbu_0, # of connection points: 4
#     Node 4, Type 0, BuildingBlock: NAHDIM_clean_sbu_0, # of connection points: 4
#     Node 5, Type 0, BuildingBlock: NAHDIM_clean_sbu_0, # of connection points: 4
#     Node 6, Type 0, BuildingBlock: NAHDIM_clean_sbu_0, # of connection points: 4
#     Node 7, Type 0, BuildingBlock: NAHDIM_clean_sbu_0, # of connection points: 4
#     Node 8, Type 0, BuildingBlock: NAHDIM_clean_sbu_0, # of connection points: 4
#     Node 9, Type 0, BuildingBlock: NAHDIM_clean_sbu_0, # of connection points: 4
#     Node 10, Type 0, BuildingBlock: NAHDIM_clean_sbu_0, # of connection points: 4
#     Node 11, Type 0, BuildingBlock: NAHDIM_clean_sbu_0, # of connection points: 4
#     Node 12, Type 0, BuildingBlock: NAHDIM_clean_sbu_0, # of connection points: 4
#     Node 13, Type 0, BuildingBlock: NAHDIM_clean_sbu_0, # of connection points: 4
#     Node 14, Type 0, BuildingBlock: NAHDIM_clean_sbu_0, # of connection points: 4
#     Node 15, Type 0, BuildingBlock: NAHDIM_clean_sbu_0, # of connection points: 4
#     Node 16, Type 0, BuildingBlock: NAHDIM_clean_sbu_0, # of connection points: 4
#     Node 17, Type 0, BuildingBlock: NAHDIM_clean_sbu_0, # of connection points: 4
#     Edge 18, Type (0, 0), BuildingBlock: OJICUG_clean_linker_0, # of connection points: 2
#     Edge 19, Type (0, 0), BuildingBlock: OJICUG_clean_linker_0, # of connection points: 2
#     Edge 20, Type (0, 0), BuildingBlock: OJICUG_clean_linker_0, # of connection points: 2
#     Edge 21, Type (0, 0), BuildingBlock: OJICUG_clean_linker_0, # of connection points: 2
#     Edge 22, Type (0, 0), BuildingBlock: OJICUG_clean_linker_0, # of connection points: 2
#     Edge 23, Type (0, 0), BuildingBlock: OJICUG_clean_linker_0, # of connection points: 2
#     Edge 24, Type (0, 0), BuildingBlock: OJICUG_clean_linker_0, # of connection points: 2
#     Edge 25, Type (0, 0), BuildingBlock: OJICUG_clean_linker_0, # of connection points: 2
#     Edge 26, Type (0, 0), BuildingBlock: OJICUG_clean_linker_0, # of connection points: 2
#     Edge 27, Type (0, 0), BuildingBlock: OJICUG_clean_linker_0, # of connection points: 2
#     Edge 28, Type (0, 0), BuildingBlock: OJICUG_clean_linker_0, # of connection points: 2
#     Edge 29, Type (0, 0), BuildingBlock: OJICUG_clean_linker_0, # of connection points: 2
#     Edge 30, Type (0, 0), BuildingBlock: OJICUG_clean_linker_0, # of connection points: 2
#     Edge 31, Type (0, 0), BuildingBlock: OJICUG_clean_linker_0, # of connection points: 2
#     Edge 32, Type (0, 0), BuildingBlock: OJICUG_clean_linker_0, # of connection points: 2
#     Edge 33, Type (0, 0), BuildingBlock: OJICUG_clean_linker_0, # of connection points: 2
#     Edge 34, Type (0, 0), BuildingBlock: OJICUG_clean_linker_0, # of connection points: 2
#     Edge 35, Type (0, 0), BuildingBlock: OJICUG_clean_linker_0, # of connection points: 2
#     Edge 36, Type (0, 0), BuildingBlock: OJICUG_clean_linker_0, # of connection points: 2
#     Edge 37, Type (0, 0), BuildingBlock: OJICUG_clean_linker_0, # of connection points: 2
#     Edge 38, Type (0, 0), BuildingBlock: OJICUG_clean_linker_0, # of connection points: 2
#     Edge 39, Type (0, 0), BuildingBlock: OJICUG_clean_linker_0, # of connection points: 2
#     Edge 40, Type (0, 0), BuildingBlock: OJICUG_clean_linker_0, # of connection points: 2
#     Edge 41, Type (0, 0), BuildingBlock: OJICUG_clean_linker_0, # of connection points: 2
#     Edge 42, Type (0, 0), BuildingBlock: OJICUG_clean_linker_0, # of connection points: 2
#     Edge 43, Type (0, 0), BuildingBlock: OJICUG_clean_linker_0, # of connection points: 2
#     Edge 44, Type (0, 0), BuildingBlock: OJICUG_clean_linker_0, # of connection points: 2
#     Edge 45, Type (0, 0), BuildingBlock: OJICUG_clean_linker_0, # of connection points: 2
#     Edge 46, Type (0, 0), BuildingBlock: OJICUG_clean_linker_0, # of connection points: 2
#     Edge 47, Type (0, 0), BuildingBlock: OJICUG_clean_linker_0, # of connection points: 2
#     Edge 48, Type (0, 0), BuildingBlock: OJICUG_clean_linker_0, # of connection points: 2
#     Edge 49, Type (0, 0), BuildingBlock: OJICUG_clean_linker_0, # of connection points: 2
#     Edge 50, Type (0, 0), BuildingBlock: OJICUG_clean_linker_0, # of connection points: 2
#     Edge 51, Type (0, 0), BuildingBlock: OJICUG_clean_linker_0, # of connection points: 2
#     Edge 52, Type (0, 0), BuildingBlock: OJICUG_clean_linker_0, # of connection points: 2
#     Edge 53, Type (0, 0), BuildingBlock: OJICUG_clean_linker_0, # of connection points: 2
# Relax obj value: 0.390
# Max RMSD: 0.208
# Mean RMSD: 0.206
data_MOF--net-unp--node1-NAHDIM_clean_sbu_0--edge1-OJICUG_clean_linker_0
_symmetry_space_group_name_H-M    P1
_symmetry_Int_Tables_number       1
_symmetry_cell_setting            triclinic
loop_
_symmetry_equiv_pos_as_xyz
'x, y, z'
_cell_length_a     34.306056
_cell_length_b     34.283678
_cell_length_c     45.777155
_cell_angle_alpha  90.194494
_cell_angle_beta   89.784255
_cell_angle_gamma 120.3085
loop_
_atom_site_label
_atom_site_type_symbol
_atom_site_fract_x
_atom_site_fract_y
_atom_site_fract_z
_atom_type_partial_charge
C0 C 0.24624 0.26881 0.13156 0.0
O1 O 0.24875 0.26791 0.10294 0.0
O2 O 0.14797 0.13003 0.13825 0.0
Zn3 Zn 0.15876 0.18945 0.12249 0.0
O4 O 0.17084 0.19034 0.07936 0.0
C5 C 0.07447 0.16832 0.14829 0.0
O6 O 0.08938 0.15302 0.16915 0.0
O7 O 0.21025 0.23979 0.1443 0.0
C8 C 0.14003 0.15746 0.06503 0.0
O9 O 0.10399 0.12696 0.07905 0.0
C10 C 0.16741 0.10945 0.12843 0.0
O11 O 0.19823 0.12851 0.10791 0.0
O12 O 0.10048 0.18938 0.12701 0.0
C13 C 0.72293 0.99101 0.12935 0.0
O14 O 0.72125 0.99364 0.10081 0.0
O15 O 0.86291 0.03607 0.13346 0.0
Zn16 Zn 0.80391 0.98769 0.11682 0.0
O17 O 0.80173 0.00345 0.07479 0.0
C18 C 0.8255 0.92392 0.13992 0.0
O19 O 0.83726 0.95164 0.16231 0.0
O20 O 0.75376 0.98581 0.14068 0.0
C21 C 0.78356 0.97342 0.05507 0.0
O22 O 0.76358 0.93059 0.06245 0.0
C23 C 0.88535 0.07601 0.12348 0.0
O24 O 0.86884 0.08804 0.10171 0.0
O25 O 0.80627 0.93026 0.11828 0.0
C26 C 0.00248 0.74885 0.13045 0.0
O27 O 0.0067 0.74659 0.10206 0.0
O28 O 0.95976 0.84636 0.1303 0.0
Zn29 Zn 0.00981 0.83541 0.11774 0.0
O30 O 0.00367 0.82257 0.07456 0.0
C31 C 0.07029 0.91813 0.14619 0.0
O32 O 0.0381 0.90095 0.16599 0.0
O33 O 0.00497 0.78411 0.14146 0.0
C34 C 0.00563 0.85396 0.0588 0.0
O35 O 0.01179 0.89104 0.07156 0.0
C36 C 0.92155 0.82996 0.11792 0.0
O37 O 0.91196 0.8022 0.09573 0.0
O38 O 0.06768 0.89399 0.12433 0.0
C39 C 0.26012 0.24674 0.87285 0.0
O40 O 0.25333 0.25163 0.90054 0.0
O41 O 0.1261 0.14905 0.86704 0.0
Zn42 Zn 0.18481 0.15736 0.88247 0.0
O43 O 0.18711 0.16887 0.92574 0.0
C44 C 0.16129 0.07363 0.85475 0.0
O45 O 0.14821 0.0911 0.83416 0.0
O46 O 0.23605 0.20847 0.86076 0.0
C47 C 0.15524 0.13803 0.94069 0.0
O48 O 0.12423 0.10165 0.92723 0.0
C49 C 0.10415 0.16613 0.87832 0.0
O50 O 0.12094 0.19315 0.90098 0.0
O51 O 0.182 0.09779 0.87679 0.0
C52 C 0.7451 0.00906 0.85812 0.0
O53 O 0.74113 0.00997 0.88662 0.0
O54 O 0.83905 0.96244 0.85732 0.0
Zn55 Zn 0.82798 0.01108 0.87257 0.0
O56 O 0.80713 0.99564 0.91427 0.0
C57 C 0.91536 0.07468 0.85101 0.0
O58 O 0.90059 0.04674 0.82868 0.0
O59 O 0.78073 0.0121 0.84734 0.0
C60 C 0.81705 0.02568 0.93374 0.0
O61 O 0.84043 0.06852 0.92638 0.0
C62 C 0.81919 0.9222 0.86693 0.0
O63 O 0.78814 0.91027 0.88728 0.0
O64 O 0.88832 0.06859 0.87186 0.0
C65 C 0.9845 0.72631 0.86904 0.0
O66 O 0.99151 0.73128 0.89735 0.0
O67 O 0.02306 0.86184 0.86149 0.0
Zn68 Zn 0.972 0.8027 0.87637 0.0
O69 O 0.97919 0.80155 0.91993 0.0
C70 C 0.91273 0.82565 0.84753 0.0
O71 O 0.94487 0.84045 0.82772 0.0
O72 O 0.97363 0.75185 0.85569 0.0
C73 C 0.98114 0.83478 0.93364 0.0
O74 O 0.97798 0.86581 0.91879 0.0
C75 C 0.06235 0.88223 0.87258 0.0
O76 O 0.07192 0.8631 0.89402 0.0
O77 O 0.91491 0.80401 0.86934 0.0
C78 C 0.92535 0.60273 0.46591 0.0
O79 O 0.93081 0.60775 0.43748 0.0
O80 O 0.82828 0.46271 0.46409 0.0
Zn81 Zn 0.84075 0.52357 0.45023 0.0
O82 O 0.86021 0.53104 0.40809 0.0
C83 C 0.75518 0.50078 0.4739 0.0
O84 O 0.77063 0.48713 0.49541 0.0
O85 O 0.88859 0.57064 0.47604 0.0
C86 C 0.83013 0.50691 0.3895 0.0
O87 O 0.78879 0.47925 0.39865 0.0
C88 C 0.84405 0.43966 0.45273 0.0
O89 O 0.87215 0.4563 0.43057 0.0
O90 O 0.78135 0.52192 0.4527 0.0
C91 C 0.40155 0.32265 0.46289 0.0
O92 O 0.39474 0.31849 0.43454 0.0
O93 O 0.54257 0.3658 0.46267 0.0
Zn94 Zn 0.48132 0.31634 0.44947 0.0
O95 O 0.47579 0.324 0.40637 0.0
C96 C 0.50122 0.25448 0.47749 0.0
O97 O 0.51588 0.28603 0.4977 0.0
O98 O 0.43467 0.32063 0.47347 0.0
C99 C 0.50582 0.32282 0.39069 0.0
O100 O 0.53633 0.31634 0.40348 0.0
C101 C 0.56479 0.40471 0.45113 0.0
O102 O 0.54696 0.4154 0.42945 0.0
O103 O 0.48091 0.25807 0.45541 0.0
C104 C 0.67539 0.07834 0.46184 0.0
O105 O 0.67298 0.07625 0.43319 0.0
O106 O 0.63298 0.17511 0.46942 0.0
Zn107 Zn 0.68158 0.16472 0.45305 0.0
O108 O 0.66961 0.1522 0.41008 0.0
C109 C 0.74539 0.25006 0.47769 0.0
O110 O 0.71545 0.23546 0.49891 0.0
O111 O 0.681 0.11369 0.47472 0.0
C112 C 0.66749 0.18295 0.39599 0.0
O113 O 0.67321 0.21884 0.4102 0.0
C114 C 0.5928 0.15567 0.45976 0.0
O115 O 0.5808 0.12493 0.43917 0.0
O116 O 0.74011 0.22352 0.45669 0.0
C117 C 0.90905 0.58631 0.1976 0.0
O118 O 0.88811 0.58874 0.22101 0.0
O119 O 0.78691 0.49268 0.18852 0.0
Zn120 Zn 0.84231 0.49434 0.20433 0.0
O121 O 0.83931 0.49793 0.24819 0.0
C122 C 0.84513 0.41133 0.21038 0.0
O123 O 0.86878 0.43083 0.23397 0.0
O124 O 0.89674 0.54776 0.18654 0.0
C125 C 0.87161 0.51406 0.26641 0.0
O126 O 0.91335 0.53146 0.25701 0.0
C127 C 0.76775 0.51167 0.20111 0.0
O128 O 0.78605 0.53592 0.22472 0.0
O129 O 0.83452 0.43387 0.19351 0.0
C130 C 0.40771 0.3523 0.20016 0.0
O131 O 0.40508 0.34708 0.22865 0.0
O132 O 0.5075 0.31638 0.193 0.0
Zn133 Zn 0.49659 0.36502 0.2087 0.0
O134 O 0.48573 0.35506 0.25202 0.0
C135 C 0.57849 0.42837 0.18063 0.0
O136 O 0.56077 0.39859 0.15942 0.0
O137 O 0.4444 0.36228 0.18723 0.0
C138 C 0.51657 0.35296 0.26597 0.0
O139 O 0.55185 0.35767 0.2515 0.0
C140 C 0.48759 0.27603 0.20242 0.0
O141 O 0.45615 0.26382 0.22254 0.0
O142 O 0.55474 0.42346 0.20318 0.0
C143 C 0.64616 0.07106 0.20224 0.0
O144 O 0.65597 0.07642 0.23021 0.0
O145 O 0.68854 0.20509 0.2017 0.0
Zn146 Zn 0.63327 0.14625 0.21278 0.0
O147 O 0.63616 0.13938 0.25619 0.0
C148 C 0.58082 0.17846 0.18427 0.0
O149 O 0.61515 0.19487 0.16605 0.0
O150 O 0.63329 0.09596 0.19016 0.0
C151 C 0.63803 0.17144 0.2713 0.0
O152 O 0.63661 0.20447 0.25781 0.0
C153 C 0.72673 0.21959 0.21378 0.0
O154 O 0.73154 0.19432 0.2333 0.0
O155 O 0.57925 0.1529 0.20484 0.0
C156 C 0.58667 0.92098 0.78699 0.0
O157 O 0.59028 0.91478 0.759 0.0
O158 O 0.48916 0.78549 0.79374 0.0
Zn159 Zn 0.49738 0.84454 0.7789 0.0
O160 O 0.5073 0.84714 0.73545 0.0
C161 C 0.41566 0.82229 0.80874 0.0
O162 O 0.43411 0.80925 0.82869 0.0
O163 O 0.54933 0.8959 0.79989 0.0
C164 C 0.47636 0.81542 0.72048 0.0
O165 O 0.44036 0.7839 0.734 0.0
C166 C 0.50548 0.76332 0.78177 0.0
O167 O 0.53186 0.78023 0.75882 0.0
O168 O 0.43843 0.84228 0.78607 0.0
C169 C 0.06393 0.64358 0.80121 0.0
O170 O 0.06311 0.64468 0.77255 0.0
O171 O 0.20353 0.68684 0.80604 0.0
Zn172 Zn 0.14365 0.63726 0.79112 0.0
O173 O 0.14146 0.64796 0.74814 0.0
C174 C 0.16658 0.57522 0.81582 0.0
O175 O 0.18232 0.60586 0.83663 0.0
O176 O 0.09403 0.63839 0.81369 0.0
C177 C 0.17396 0.65011 0.7334 0.0
O178 O 0.20468 0.64485 0.74697 0.0
C179 C 0.22356 0.72678 0.79589 0.0
O180 O 0.20346 0.73775 0.77586 0.0
O181 O 0.14431 0.57923 0.79512 0.0
C182 C 0.34427 0.4028 0.79912 0.0
O183 O 0.34338 0.39781 0.77063 0.0
O184 O 0.30025 0.49835 0.79956 0.0
Zn185 Zn 0.34873 0.4869 0.78447 0.0
O186 O 0.33511 0.46712 0.74244 0.0
C187 C 0.41237 0.57361 0.80702 0.0
O188 O 0.38382 0.55856 0.82903 0.0
O189 O 0.34898 0.43924 0.80972 0.0
C190 C 0.34006 0.49675 0.72386 0.0
O191 O 0.354 0.53816 0.73287 0.0
C192 C 0.26052 0.48078 0.78933 0.0
O193 O 0.24837 0.45164 0.76773 0.0
O194 O 0.40666 0.5469 0.78602 0.0
C195 C 0.59955 0.91594 0.52962 0.0
O196 O 0.5957 0.91815 0.55805 0.0
O197 O 0.46499 0.81403 0.52351 0.0
Zn198 Zn 0.52526 0.82558 0.53797 0.0
O199 O 0.52665 0.83553 0.58139 0.0
C200 C 0.50541 0.7435 0.50972 0.0
O201 O 0.4917 0.76038 0.48913 0.0
O202 O 0.57433 0.87883 0.51653 0.0
C203 C 0.49413 0.80404 0.59558 0.0
O204 O 0.46354 0.76842 0.58128 0.0
C205 C 0.44497 0.83372 0.53386 0.0
O206 O 0.46529 0.86523 0.55382 0.0
O207 O 0.52591 0.76799 0.53168 0.0
C208 C 0.07981 0.67216 0.54064 0.0
O209 O 0.07426 0.65899 0.56801 0.0
O210 O 0.17082 0.6311 0.5392 0.0
Zn211 Zn 0.16841 0.68658 0.55082 0.0
O212 O 0.15922 0.6835 0.59434 0.0
C213 C 0.2525 0.739 0.5209 0.0
O214 O 0.23337 0.70489 0.50255 0.0
O215 O 0.11837 0.68741 0.52883 0.0
C216 C 0.18945 0.68103 0.6088 0.0
O217 O 0.22342 0.68224 0.59461 0.0
C218 C 0.14706 0.59297 0.5515 0.0
O219 O 0.11752 0.58833 0.57155 0.0
O220 O 0.22955 0.74037 0.54232 0.0
C221 C 0.33228 0.41378 0.53193 0.0
O222 O 0.35636 0.43509 0.55502 0.0
O223 O 0.36023 0.53535 0.5221 0.0
Zn224 Zn 0.30713 0.48011 0.53924 0.0
O225 O 0.31572 0.48442 0.58296 0.0
C226 C 0.22089 0.4761 0.54694 0.0
O227 O 0.21763 0.45313 0.57064 0.0
O228 O 0.30559 0.42562 0.5214 0.0
C229 C 0.30013 0.45254 0.60152 0.0
O230 O 0.27516 0.41054 0.59263 0.0
C231 C 0.39934 0.55496 0.53346 0.0
O232 O 0.40671 0.53739 0.55678 0.0
O233 O 0.25366 0.48679 0.5295 0.0
C234 C 0.32398 0.31783 0.19644 0.0
C235 C 0.36653 0.33873 0.18282 0.0
H236 H 0.25237 0.27954 0.19085 0.0
C237 C 0.3689 0.34195 0.15218 0.0
H238 H 0.32097 0.31511 0.22 0.0
C239 C 0.32953 0.32167 0.13545 0.0
C240 C 0.28707 0.29761 0.14904 0.0
H241 H 0.4012 0.35828 0.14102 0.0
H242 H 0.33257 0.32283 0.11187 0.0
C243 C 0.28463 0.29736 0.17971 0.0
C244 C 0.69894 0.0024 0.17879 0.0
C245 C 0.69542 0.00295 0.14823 0.0
H246 H 0.68553 0.023 0.21992 0.0
C247 C 0.6697 0.02017 0.13594 0.0
H248 H 0.7181 0.98891 0.18896 0.0
C249 C 0.65114 0.0399 0.15371 0.0
C250 C 0.65779 0.04259 0.1841 0.0
H251 H 0.66601 0.02076 0.11249 0.0
H252 H 0.63356 0.05504 0.14346 0.0
C253 C 0.68023 0.02195 0.19655 0.0
C254 C 0.9552 0.67032 0.19502 0.0
C255 C 0.94074 0.62813 0.18189 0.0
H256 H 0.98681 0.74168 0.1892 0.0
C257 C 0.95267 0.6266 0.15267 0.0
H258 H 0.94707 0.67268 0.21761 0.0
C259 C 0.97542 0.66632 0.13626 0.0
C260 C 0.98674 0.70819 0.14884 0.0
H261 H 0.94223 0.59459 0.14198 0.0
H262 H 0.98198 0.66387 0.11336 0.0
C263 C 0.97805 0.70993 0.17871 0.0
C264 C 0.31476 0.32029 0.80669 0.0
C265 C 0.3311 0.36366 0.81853 0.0
H266 H 0.27969 0.2491 0.81465 0.0
C267 C 0.32965 0.36841 0.84896 0.0
H268 H 0.31569 0.31547 0.78335 0.0
C269 C 0.30911 0.33035 0.86692 0.0
C270 C 0.28944 0.28679 0.85479 0.0
H271 H 0.34239 0.40141 0.85882 0.0
H272 H 0.30657 0.3351 0.89011 0.0
C273 C 0.29404 0.2822 0.82464 0.0
C274 C 0.6624 0.97901 0.85165 0.0
C275 C 0.70535 0.9951 0.83921 0.0
H276 H 0.59098 0.943 0.84482 0.0
C277 C 0.70903 0.99235 0.80877 0.0
H278 H 0.6584 0.98089 0.875 0.0
C279 C 0.67036 0.97076 0.79144 0.0
C280 C 0.62727 0.95127 0.80425 0.0
H281 H 0.74169 0.00487 0.79847 0.0
H282 H 0.67428 0.96722 0.76827 0.0
C283 C 0.62371 0.95715 0.83435 0.0
C284 C 0.01116 0.67368 0.8051 0.0
C285 C 0.03602 0.65657 0.81878 0.0
H286 H 0.97498 0.70897 0.81035 0.0
C287 C 0.03806 0.65684 0.84945 0.0
H288 H 0.00863 0.67365 0.78153 0.0
C289 C 0.01863 0.67695 0.86599 0.0
C290 C -0.00301 0.69738 0.85216 0.0
H291 H 0.05653 0.64346 0.86067 0.0
H292 H 0.02274 0.67859 0.88949 0.0
C293 C 0.99192 0.694 0.82164 0.0
C294 C 0.95882 0.6208 0.51602 0.0
C295 C 0.96419 0.62807 0.4857 0.0
H296 H 0.99124 0.62957 0.55727 0.0
C297 C 0.0078 0.65556 0.47428 0.0
H298 H 0.92561 0.60018 0.52555 0.0
C299 C 0.0455 0.67232 0.49249 0.0
C300 C 0.04025 0.66204 0.52246 0.0
H301 H 0.01309 0.66212 0.45105 0.0
H302 H 0.07878 0.69144 0.48279 0.0
C303 C -0.00352 0.63768 0.53422 0.0
C304 C 0.37036 0.36834 0.52838 0.0
C305 C 0.34231 0.38247 0.51577 0.0
H306 H 0.41045 0.33757 0.52168 0.0
C307 C 0.32855 0.37076 0.48661 0.0
H308 H 0.38108 0.37632 0.55092 0.0
C309 C 0.3456 0.34861 0.46971 0.0
C310 C 0.37652 0.33768 0.48176 0.0
H311 H 0.30673 0.38098 0.47632 0.0
H312 H 0.33639 0.34225 0.44686 0.0
C313 C 0.38719 0.34608 0.51159 0.0
C314 C 0.66528 0.03961 0.50981 0.0
C315 C 0.66389 0.03757 0.47913 0.0
H316 H 0.64658 0.00268 0.5499 0.0
C317 C 0.64685 0.99541 0.46532 0.0
H318 H 0.67866 0.07163 0.52112 0.0
C319 C 0.6283 0.95581 0.48184 0.0
C320 C 0.62664 0.95766 0.51248 0.0
H321 H 0.64563 0.99271 0.44172 0.0
H322 H 0.61337 0.92368 0.47052 0.0
C323 C 0.64692 4e-05 0.52632 0.0
C324 C 0.00894 0.16563 0.12242 0.0
C325 C 0.02558 0.15174 0.14577 0.0
H326 H 0.95121 0.15285 0.09722 0.0
C327 C 0.99476 0.1171 0.16421 0.0
H328 H 0.0318 0.19246 0.10792 0.0
C329 C 0.94866 0.09414 0.15791 0.0
C330 C 0.93241 0.10568 0.13322 0.0
H331 H 0.00638 0.10573 0.1825 0.0
H332 H 0.92604 0.06595 0.17163 0.0
C333 C 0.96272 0.14292 0.11627 0.0
C334 C 0.83342 0.86493 0.11232 0.0
C335 C 0.8434 0.89281 0.13706 0.0
H336 H 0.85002 0.82264 0.08698 0.0
C337 C 0.8752 0.89498 0.15725 0.0
H338 H 0.80891 0.86234 0.09642 0.0
C339 C 0.89903 0.87264 0.15169 0.0
C340 C 0.89121 0.84722 0.12599 0.0
H341 H 0.88358 0.91594 0.1766 0.0
H342 H 0.92485 0.87676 0.167 0.0
C343 C 0.85697 0.84217 0.10691 0.0
C344 C 0.15852 0.03342 0.11882 0.0
C345 C 0.14971 0.06169 0.13651 0.0
H346 H 0.14042 0.96549 0.10814 0.0
C347 C 0.11976 0.04276 0.16018 0.0
H348 H 0.1816 0.04701 0.10049 0.0
C349 C 0.0965 0.99613 0.16474 0.0
C350 C 0.10235 0.96742 0.14552 0.0
H351 H 0.11266 0.06374 0.17441 0.0
H352 H 0.07192 0.98248 0.18227 0.0
C353 C 0.13489 0.98667 0.1232 0.0
C354 C 0.08487 0.94911 0.84041 0.0
C355 C 0.09374 0.92995 0.86475 0.0
H356 H 0.10006 0.00957 0.81774 0.0
C357 C 0.12985 0.95798 0.88323 0.0
H358 H 0.05757 0.92832 0.82557 0.0
C359 C 0.1541 0.00472 0.87884 0.0
C360 C 0.14292 0.02423 0.85575 0.0
H361 H 0.13769 0.94422 0.90209 0.0
H362 H 0.18001 0.02573 0.89444 0.0
C363 C 0.10936 0.99573 0.83586 0.0
C364 C 0.0412 0.12481 0.84273 0.0
C365 C 0.05732 0.14995 0.86866 0.0
H366 H 0.98379 0.08218 0.81644 0.0
C367 C 0.02709 0.15546 0.88658 0.0
H368 H 0.06375 0.12034 0.82828 0.0
C369 C 0.98104 0.13327 0.87989 0.0
C370 C 0.96447 0.10551 0.85499 0.0
H371 H 0.0385 0.1748 0.90665 0.0
H372 H 0.95819 0.13612 0.89497 0.0
C373 C 0.99531 0.10303 0.83588 0.0
C374 C 0.88849 0.87896 0.82979 0.0
C375 C 0.8815 0.84354 0.84848 0.0
H376 H 0.87415 0.93166 0.821 0.0
C377 C 0.84876 0.83007 0.87067 0.0
H378 H 0.91326 0.89005 0.81238 0.0
C379 C 0.82609 0.85384 0.87551 0.0
C380 C 0.83608 0.89174 0.85841 0.0
H381 H 0.84236 0.80269 0.88531 0.0
H382 H 0.80281 0.84414 0.89373 0.0
C383 C 0.86619 0.90297 0.83481 0.0
C384 C 0.67586 0.4496 0.4906 0.0
C385 C 0.70603 0.48276 0.47107 0.0
H386 H 0.60751 0.39892 0.49959 0.0
C387 C 0.68855 0.494 0.44685 0.0
H388 H 0.68811 0.44024 0.50956 0.0
C389 C 0.64213 0.47039 0.44122 0.0
C390 C 0.61244 0.43488 0.45958 0.0
H391 H 0.71088 0.51954 0.43145 0.0
H392 H 0.62991 0.47837 0.42166 0.0
C393 C 0.6296 0.42575 0.48483 0.0
C394 C 0.50404 0.18957 0.45437 0.0
C395 C 0.51753 0.22193 0.47681 0.0
H396 H 0.51693 0.14257 0.4316 0.0
C397 C 0.55149 0.22707 0.4962 0.0
H398 H 0.47775 0.18457 0.43919 0.0
C399 C 0.57421 0.20335 0.49167 0.0
C400 C 0.56308 0.17361 0.46788 0.0
H401 H 0.56254 0.25149 0.51382 0.0
H402 H 0.60195 0.20996 0.50601 0.0
C403 C 0.52648 0.16546 0.45003 0.0
C404 C 0.83112 0.36175 0.44425 0.0
C405 C 0.82573 0.39225 0.46196 0.0
H406 H 0.81013 0.29253 0.43549 0.0
C407 C 0.79894 0.37609 0.48726 0.0
H408 H 0.85174 0.3732 0.4247 0.0
C409 C 0.77543 0.32997 0.4936 0.0
C410 C 0.77788 0.29899 0.47461 0.0
H411 H 0.79455 0.39884 0.50157 0.0
H412 H 0.75335 0.31848 0.51249 0.0
C413 C 0.80727 0.3155 0.45045 0.0
C414 C 0.79885 0.28833 0.22906 0.0
C415 C 0.76267 0.26711 0.20936 0.0
H416 H 0.85386 0.35086 0.24468 0.0
C417 C 0.75855 0.29301 0.18718 0.0
H418 H 0.80314 0.26926 0.24629 0.0
C419 C 0.78783 0.33968 0.18609 0.0
C420 C 0.82161 0.36153 0.20734 0.0
H421 H 0.73136 0.27757 0.17143 0.0
H422 H 0.78216 0.35886 0.1696 0.0
C423 C 0.82797 0.33515 0.22812 0.0
C424 C 0.7024 0.47431 0.16678 0.0
C425 C 0.72144 0.49935 0.19242 0.0
H426 H 0.64213 0.43302 0.1425 0.0
C427 C 0.69408 0.5076 0.21138 0.0
H428 H 0.72275 0.46792 0.1515 0.0
C429 C 0.64772 0.48742 0.20627 0.0
C430 C 0.62799 0.45888 0.18202 0.0
H431 H 0.70781 0.52713 0.23119 0.0
H432 H 0.62702 0.49193 0.22231 0.0
C433 C 0.65614 0.45442 0.16156 0.0
C434 C 0.53704 0.25828 0.17163 0.0
C435 C 0.50504 0.24588 0.19418 0.0
H436 H 0.58543 0.24604 0.15036 0.0
C437 C 0.49351 0.20697 0.21063 0.0
H438 H 0.54632 0.28781 0.15835 0.0
C439 C 0.51613 0.18307 0.20614 0.0
C440 C 0.55049 0.19746 0.18498 0.0
H441 H 0.4688 0.19638 0.22806 0.0
H442 H 0.50823 0.15469 0.22024 0.0
C443 C 0.55939 0.2342 0.16699 0.0
C444 C 0.29194 0.74734 0.82596 0.0
C445 C 0.27176 0.75737 0.80275 0.0
H446 H 0.35335 0.76081 0.8465 0.0
C447 C 0.29911 0.79375 0.78423 0.0
H448 H 0.27169 0.71979 0.84078 0.0
C449 C 0.34606 0.81711 0.78736 0.0
C450 C 0.36644 0.80479 0.80924 0.0
H451 H 0.28455 0.80244 0.76621 0.0
H452 H 0.36643 0.84324 0.7717 0.0
C453 C 0.33879 0.77099 0.82928 0.0
C454 C 0.19362 0.49068 0.78227 0.0
C455 C 0.23085 0.49799 0.79914 0.0
H456 H 0.14356 0.50917 0.77449 0.0
C457 C 0.24212 0.52559 0.82408 0.0
H458 H 0.18392 0.46938 0.76302 0.0
C459 C 0.21874 0.54802 0.83082 0.0
C460 C 0.18391 0.5437 0.81259 0.0
H461 H 0.27029 0.53144 0.83774 0.0
H462 H 0.22982 0.5708 0.84937 0.0
C463 C 0.17046 0.51348 0.78887 0.0
C464 C 0.46374 0.69949 0.81678 0.0
C465 C 0.48889 0.71612 0.79089 0.0
H466 H 0.42068 0.64149 0.84255 0.0
C467 C 0.49396 0.68609 0.77246 0.0
H468 H 0.45959 0.72184 0.8316 0.0
C469 C 0.47137 0.63982 0.77866 0.0
C470 C 0.4436 0.6228 0.80352 0.0
H471 H 0.51328 0.69787 0.75241 0.0
H472 H 0.4739 0.6172 0.7632 0.0
C473 C 0.44153 0.65337 0.8231 0.0
C474 C 0.49648 0.67519 0.53556 0.0
C475 C 0.48625 0.69406 0.51163 0.0
H476 H 0.47721 0.616 0.5611 0.0
C477 C 0.45207 0.66515 0.49223 0.0
H478 H 0.52292 0.69649 0.55077 0.0
C479 C 0.42564 0.61908 0.49829 0.0
C480 C 0.43314 0.60096 0.52372 0.0
H481 H 0.44355 0.67847 0.47344 0.0
H482 H 0.39773 0.59817 0.48389 0.0
C483 C 0.47023 0.62901 0.5415 0.0
C484 C 0.329 0.76081 0.50137 0.0
C485 C 0.30207 0.76955 0.52042 0.0
H486 H 0.39543 0.77442 0.49062 0.0
C487 C 0.32327 0.8041 0.54135 0.0
H488 H 0.31381 0.73461 0.48489 0.0
C489 C 0.37021 0.82713 0.54454 0.0
C490 C 0.39677 0.81582 0.527 0.0
H491 H 0.3035 0.81187 0.55623 0.0
H492 H 0.38533 0.852 0.56181 0.0
C493 C 0.37584 0.78357 0.50471 0.0
C494 C 0.20522 0.53205 0.52272 0.0
C495 C 0.19416 0.49894 0.54429 0.0
H496 H 0.19886 0.58773 0.50805 0.0
C497 C 0.16199 0.49272 0.56567 0.0
H498 H 0.22959 0.53756 0.50577 0.0
C499 C 0.14414 0.52146 0.56686 0.0
C500 C 0.15838 0.55711 0.54682 0.0
H501 H 0.15248 0.46731 0.58249 0.0
H502 H 0.12133 0.51739 0.58455 0.0
C503 C 0.1877 0.56097 0.52406 0.0
C504 C 0.18169 0.18618 0.01754 0.0
C505 C 0.14452 0.15286 0.03325 0.0
H506 H 0.21429 0.20774 0.97588 0.0
C507 C 0.11133 0.11468 0.01831 0.0
H508 H 0.20784 0.21599 0.02845 0.0
C509 C 0.11508 0.10989 0.98833 0.0
C510 C 0.15205 0.14323 0.97254 0.0
H511 H 0.08231 0.08831 0.02974 0.0
H512 H 0.08879 0.08004 0.97753 0.0
C513 C 0.18538 0.18145 0.98745 0.0
C514 C 0.81957 0.04532 0.98671 0.0
C515 C 0.80509 0.01237 0.96464 0.0
H516 H 0.82395 0.05889 0.03259 0.0
C517 C 0.78085 0.96648 0.97249 0.0
H518 H 0.83818 0.08095 0.9814 0.0
C519 C 0.77262 0.9538 0.00185 0.0
C520 C 0.78851 0.98675 0.02398 0.0
H521 H 0.76902 0.94023 0.956 0.0
H522 H 0.75476 0.91817 0.00718 0.0
C523 C 0.8114 0.03264 0.01608 0.0
C524 C 0.99293 0.87797 0.97995 0.0
C525 C 0.9876 0.83926 0.96565 0.0
H526 H 0.00294 0.91296 0.02039 0.0
C527 C 0.98861 0.80532 0.98222 0.0
H528 H 0.99244 0.90482 0.96785 0.0
C529 C 0.99456 0.80997 0.01252 0.0
C530 C -0.00019 0.84873 0.02677 0.0
H531 H 0.98463 0.7751 0.97182 0.0
H532 H 0.99503 0.78322 0.02476 0.0
C533 C -0.00097 0.88268 0.01012 0.0
C534 C 0.81661 0.48867 0.30783 0.0
C535 C 0.86158 0.51266 0.29798 0.0
H536 H 0.77156 0.46796 0.34431 0.0
C537 C 0.89635 0.53508 0.31851 0.0
H538 H 0.78898 0.47095 0.29262 0.0
C539 C 0.88626 0.53358 0.34829 0.0
C540 C 0.84124 0.50932 0.35808 0.0
H541 H 0.93132 0.55392 0.31159 0.0
H542 H 0.91372 0.55116 0.36363 0.0
C543 C 0.80659 0.48687 0.33752 0.0
C544 C 0.47721 0.34272 0.31417 0.0
C545 C 0.51306 0.34489 0.29784 0.0
H546 H 0.44675 0.33413 0.35643 0.0
C547 C 0.54598 0.3393 0.31227 0.0
H548 H 0.4513 0.34688 0.30366 0.0
C549 C 0.54328 0.33185 0.34233 0.0
C550 C 0.50769 0.32996 0.35874 0.0
H551 H 0.57397 0.34064 0.30037 0.0
H552 H 0.56936 0.32781 0.35269 0.0
C553 C 0.47461 0.33543 0.34437 0.0
C554 C 0.65485 0.21259 0.34945 0.0
C555 C 0.65879 0.17889 0.36421 0.0
H556 H 0.645 0.23651 0.30872 0.0
C557 C 0.65471 0.14189 0.34828 0.0
H558 H 0.65765 0.24147 0.36107 0.0
C559 C 0.64744 0.13904 0.31809 0.0
C560 C 0.64402 0.17309 0.30333 0.0
H561 H 0.65752 0.11534 0.35905 0.0
H562 H 0.64489 0.11039 0.30631 0.0
C563 C 0.64752 0.20971 0.31938 0.0
C564 C 0.5232 0.84437 0.6434 0.0
C565 C 0.48997 0.80741 0.62752 0.0
H566 H 0.54507 0.87595 0.6853 0.0
C567 C 0.45227 0.77344 0.64245 0.0
H568 H 0.55264 0.87111 0.63252 0.0
C569 C 0.44785 0.77627 0.67257 0.0
C570 C 0.4811 0.81308 0.68851 0.0
H571 H 0.42598 0.74454 0.63088 0.0
H572 H 0.41837 0.74943 0.68335 0.0
C573 C 0.51885 0.84714 0.67363 0.0
C574 C 0.14858 0.67105 0.65631 0.0
C575 C 0.18565 0.6745 0.6408 0.0
H576 H 0.11569 0.66061 0.69783 0.0
C577 C 0.21889 0.67047 0.65608 0.0
H578 H 0.12239 0.67397 0.64514 0.0
C579 C 0.215 0.66272 0.68611 0.0
C580 C 0.17781 0.65886 0.70162 0.0
H581 H 0.24789 0.67296 0.64482 0.0
H582 H 0.24119 0.6596 0.69711 0.0
C583 C 0.14472 0.66334 0.68646 0.0
C584 C 0.29878 0.42901 0.6536 0.0
C585 C 0.31018 0.46331 0.63289 0.0
H586 H 0.29957 0.41264 0.69867 0.0
C587 C 0.33158 0.50849 0.64238 0.0
H588 H 0.28236 0.3939 0.64697 0.0
C589 C 0.34116 0.51917 0.67189 0.0
C590 C 0.32993 0.48498 0.69262 0.0
H591 H 0.34079 0.53577 0.62702 0.0
H592 H 0.35756 0.55433 0.67841 0.0
C593 C 0.30874 0.43976 0.68319 0.0
loop_
_geom_bond_atom_site_label_1
_geom_bond_atom_site_label_2
_geom_bond_distance
_geom_bond_site_symmetry_2
_ccdc_geom_bond_type
C0 O1 1.160 . S
C0 O7 1.185 . S
O1 C0 1.160 . S
O2 Zn3 1.899 . S
O2 C10 1.284 . S
Zn3 O2 1.899 . S
Zn3 O4 2.032 . S
Zn3 O7 2.086 . S
Zn3 O12 1.977 . S
O4 Zn3 2.032 . S
O4 C8 1.278 . S
C5 O6 1.203 . S
C5 O12 1.267 . S
O6 C5 1.203 . S
O7 C0 1.185 . S
O7 Zn3 2.086 . S
C8 O4 1.278 . S
C8 O9 1.211 . S
O9 C8 1.211 . S
C10 O2 1.284 . S
C10 O11 1.273 . S
O11 C10 1.273 . S
O12 Zn3 1.977 . S
O12 C5 1.267 . S
C13 O14 1.160 . S
C13 O20 1.185 1_545 S
O14 C13 1.160 . S
O15 Zn16 1.899 1_545 S
O15 C23 1.284 . S
Zn16 O15 1.899 1_565 S
Zn16 O17 2.032 1_565 S
Zn16 O20 2.086 . S
Zn16 O25 1.977 . S
O17 Zn16 2.032 1_545 S
O17 C21 1.278 1_545 S
C18 O19 1.203 . S
C18 O25 1.267 . S
O19 C18 1.203 . S
O20 C13 1.185 1_565 S
O20 Zn16 2.086 . S
C21 O17 1.278 1_565 S
C21 O22 1.211 . S
O22 C21 1.211 . S
C23 O15 1.284 . S
C23 O24 1.273 . S
O24 C23 1.273 . S
O25 Zn16 1.977 . S
O25 C18 1.267 . S
C26 O27 1.160 . S
C26 O33 1.185 1_655 S
O27 C26 1.160 . S
O28 Zn29 1.899 1_655 S
O28 C36 1.284 . S
Zn29 O28 1.899 1_455 S
Zn29 O30 2.032 1_455 S
Zn29 O33 2.086 . S
Zn29 O38 1.977 . S
O30 Zn29 2.032 1_655 S
O30 C34 1.278 1_655 S
C31 O32 1.203 . S
C31 O38 1.267 . S
O32 C31 1.203 . S
O33 C26 1.185 1_455 S
O33 Zn29 2.086 . S
C34 O30 1.278 1_455 S
C34 O35 1.211 . S
O35 C34 1.211 . S
C36 O28 1.284 . S
C36 O37 1.273 . S
O37 C36 1.273 . S
O38 Zn29 1.977 . S
O38 C31 1.267 . S
C39 O40 1.160 . S
C39 O46 1.185 . S
O40 C39 1.160 . S
O41 Zn42 1.899 . S
O41 C49 1.284 . S
Zn42 O41 1.899 . S
Zn42 O43 2.032 . S
Zn42 O46 2.086 . S
Zn42 O51 1.977 . S
O43 Zn42 2.032 . S
O43 C47 1.278 . S
C44 O45 1.203 . S
C44 O51 1.267 . S
O45 C44 1.203 . S
O46 C39 1.185 . S
O46 Zn42 2.086 . S
C47 O43 1.278 . S
C47 O48 1.211 . S
O48 C47 1.211 . S
C49 O41 1.284 . S
C49 O50 1.273 . S
O50 C49 1.273 . S
O51 Zn42 1.977 . S
O51 C44 1.267 . S
C52 O53 1.160 . S
C52 O59 1.185 1_565 S
O53 C52 1.160 . S
O54 Zn55 1.899 1_565 S
O54 C62 1.284 . S
Zn55 O54 1.899 1_545 S
Zn55 O56 2.032 1_545 S
Zn55 O59 2.086 . S
Zn55 O64 1.977 . S
O56 Zn55 2.032 1_565 S
O56 C60 1.278 1_565 S
C57 O58 1.203 . S
C57 O64 1.267 . S
O58 C57 1.203 . S
O59 C52 1.185 1_545 S
O59 Zn55 2.086 . S
C60 O56 1.278 1_545 S
C60 O61 1.211 . S
O61 C60 1.211 . S
C62 O54 1.284 . S
C62 O63 1.273 . S
O63 C62 1.273 . S
O64 Zn55 1.977 . S
O64 C57 1.267 . S
C65 O66 1.160 . S
C65 O72 1.185 1_455 S
O66 C65 1.160 . S
O67 Zn68 1.899 1_455 S
O67 C75 1.284 . S
Zn68 O67 1.899 1_655 S
Zn68 O69 2.032 1_655 S
Zn68 O72 2.086 . S
Zn68 O77 1.977 . S
O69 Zn68 2.032 1_455 S
O69 C73 1.278 1_455 S
C70 O71 1.203 . S
C70 O77 1.267 . S
O71 C70 1.203 . S
O72 C65 1.185 1_655 S
O72 Zn68 2.086 . S
C73 O69 1.278 1_655 S
C73 O74 1.211 . S
O74 C73 1.211 . S
C75 O67 1.284 . S
C75 O76 1.273 . S
O76 C75 1.273 . S
O77 Zn68 1.977 . S
O77 C70 1.267 . S
C78 O79 1.160 . S
C78 O85 1.185 . S
O79 C78 1.160 . S
O80 Zn81 1.899 . S
O80 C88 1.284 . S
Zn81 O80 1.899 . S
Zn81 O82 2.032 . S
Zn81 O85 2.086 . S
Zn81 O90 1.977 . S
O82 Zn81 2.032 . S
O82 C86 1.278 . S
C83 O84 1.203 . S
C83 O90 1.267 . S
O84 C83 1.203 . S
O85 C78 1.185 . S
O85 Zn81 2.086 . S
C86 O82 1.278 . S
C86 O87 1.211 . S
O87 C86 1.211 . S
C88 O80 1.284 . S
C88 O89 1.273 . S
O89 C88 1.273 . S
O90 Zn81 1.977 . S
O90 C83 1.267 . S
C91 O92 1.160 . S
C91 O98 1.185 . S
O92 C91 1.160 . S
O93 Zn94 1.899 . S
O93 C101 1.284 . S
Zn94 O93 1.899 . S
Zn94 O95 2.032 . S
Zn94 O98 2.086 . S
Zn94 O103 1.977 . S
O95 Zn94 2.032 . S
O95 C99 1.278 . S
C96 O97 1.203 . S
C96 O103 1.267 . S
O97 C96 1.203 . S
O98 C91 1.185 . S
O98 Zn94 2.086 . S
C99 O95 1.278 . S
C99 O100 1.211 . S
O100 C99 1.211 . S
C101 O93 1.284 . S
C101 O102 1.273 . S
O102 C101 1.273 . S
O103 Zn94 1.977 . S
O103 C96 1.267 . S
C104 O105 1.160 . S
C104 O111 1.185 . S
O105 C104 1.160 . S
O106 Zn107 1.899 . S
O106 C114 1.284 . S
Zn107 O106 1.899 . S
Zn107 O108 2.032 . S
Zn107 O111 2.086 . S
Zn107 O116 1.977 . S
O108 Zn107 2.032 . S
O108 C112 1.278 . S
C109 O110 1.203 . S
C109 O116 1.267 . S
O110 C109 1.203 . S
O111 C104 1.185 . S
O111 Zn107 2.086 . S
C112 O108 1.278 . S
C112 O113 1.211 . S
O113 C112 1.211 . S
C114 O106 1.284 . S
C114 O115 1.273 . S
O115 C114 1.273 . S
O116 Zn107 1.977 . S
O116 C109 1.267 . S
C117 O118 1.160 . S
C117 O124 1.185 . S
O118 C117 1.160 . S
O119 Zn120 1.899 . S
O119 C127 1.284 . S
Zn120 O119 1.899 . S
Zn120 O121 2.032 . S
Zn120 O124 2.086 . S
Zn120 O129 1.977 . S
O121 Zn120 2.032 . S
O121 C125 1.278 . S
C122 O123 1.203 . S
C122 O129 1.267 . S
O123 C122 1.203 . S
O124 C117 1.185 . S
O124 Zn120 2.086 . S
C125 O121 1.278 . S
C125 O126 1.211 . S
O126 C125 1.211 . S
C127 O119 1.284 . S
C127 O128 1.273 . S
O128 C127 1.273 . S
O129 Zn120 1.977 . S
O129 C122 1.267 . S
C130 O131 1.160 . S
C130 O137 1.185 . S
O131 C130 1.160 . S
O132 Zn133 1.899 . S
O132 C140 1.284 . S
Zn133 O132 1.899 . S
Zn133 O134 2.032 . S
Zn133 O137 2.086 . S
Zn133 O142 1.977 . S
O134 Zn133 2.032 . S
O134 C138 1.278 . S
C135 O136 1.203 . S
C135 O142 1.267 . S
O136 C135 1.203 . S
O137 C130 1.185 . S
O137 Zn133 2.086 . S
C138 O134 1.278 . S
C138 O139 1.211 . S
O139 C138 1.211 . S
C140 O132 1.284 . S
C140 O141 1.273 . S
O141 C140 1.273 . S
O142 Zn133 1.977 . S
O142 C135 1.267 . S
C143 O144 1.160 . S
C143 O150 1.185 . S
O144 C143 1.160 . S
O145 Zn146 1.899 . S
O145 C153 1.284 . S
Zn146 O145 1.899 . S
Zn146 O147 2.032 . S
Zn146 O150 2.086 . S
Zn146 O155 1.977 . S
O147 Zn146 2.032 . S
O147 C151 1.278 . S
C148 O149 1.203 . S
C148 O155 1.267 . S
O149 C148 1.203 . S
O150 C143 1.185 . S
O150 Zn146 2.086 . S
C151 O147 1.278 . S
C151 O152 1.211 . S
O152 C151 1.211 . S
C153 O145 1.284 . S
C153 O154 1.273 . S
O154 C153 1.273 . S
O155 Zn146 1.977 . S
O155 C148 1.267 . S
C156 O157 1.160 . S
C156 O163 1.185 . S
O157 C156 1.160 . S
O158 Zn159 1.899 . S
O158 C166 1.284 . S
Zn159 O158 1.899 . S
Zn159 O160 2.032 . S
Zn159 O163 2.086 . S
Zn159 O168 1.977 . S
O160 Zn159 2.032 . S
O160 C164 1.278 . S
C161 O162 1.203 . S
C161 O168 1.267 . S
O162 C161 1.203 . S
O163 C156 1.185 . S
O163 Zn159 2.086 . S
C164 O160 1.278 . S
C164 O165 1.211 . S
O165 C164 1.211 . S
C166 O158 1.284 . S
C166 O167 1.273 . S
O167 C166 1.273 . S
O168 Zn159 1.977 . S
O168 C161 1.267 . S
C169 O170 1.160 . S
C169 O176 1.185 . S
O170 C169 1.160 . S
O171 Zn172 1.899 . S
O171 C179 1.284 . S
Zn172 O171 1.899 . S
Zn172 O173 2.032 . S
Zn172 O176 2.086 . S
Zn172 O181 1.977 . S
O173 Zn172 2.032 . S
O173 C177 1.278 . S
C174 O175 1.203 . S
C174 O181 1.267 . S
O175 C174 1.203 . S
O176 C169 1.185 . S
O176 Zn172 2.086 . S
C177 O173 1.278 . S
C177 O178 1.211 . S
O178 C177 1.211 . S
C179 O171 1.284 . S
C179 O180 1.273 . S
O180 C179 1.273 . S
O181 Zn172 1.977 . S
O181 C174 1.267 . S
C182 O183 1.160 . S
C182 O189 1.185 . S
O183 C182 1.160 . S
O184 Zn185 1.899 . S
O184 C192 1.284 . S
Zn185 O184 1.899 . S
Zn185 O186 2.032 . S
Zn185 O189 2.086 . S
Zn185 O194 1.977 . S
O186 Zn185 2.032 . S
O186 C190 1.278 . S
C187 O188 1.203 . S
C187 O194 1.267 . S
O188 C187 1.203 . S
O189 C182 1.185 . S
O189 Zn185 2.086 . S
C190 O186 1.278 . S
C190 O191 1.211 . S
O191 C190 1.211 . S
C192 O184 1.284 . S
C192 O193 1.273 . S
O193 C192 1.273 . S
O194 Zn185 1.977 . S
O194 C187 1.267 . S
C195 O196 1.160 . S
C195 O202 1.185 . S
O196 C195 1.160 . S
O197 Zn198 1.899 . S
O197 C205 1.284 . S
Zn198 O197 1.899 . S
Zn198 O199 2.032 . S
Zn198 O202 2.086 . S
Zn198 O207 1.977 . S
O199 Zn198 2.032 . S
O199 C203 1.278 . S
C200 O201 1.203 . S
C200 O207 1.267 . S
O201 C200 1.203 . S
O202 C195 1.185 . S
O202 Zn198 2.086 . S
C203 O199 1.278 . S
C203 O204 1.211 . S
O204 C203 1.211 . S
C205 O197 1.284 . S
C205 O206 1.273 . S
O206 C205 1.273 . S
O207 Zn198 1.977 . S
O207 C200 1.267 . S
C208 O209 1.160 . S
C208 O215 1.185 . S
O209 C208 1.160 . S
O210 Zn211 1.899 . S
O210 C218 1.284 . S
Zn211 O210 1.899 . S
Zn211 O212 2.032 . S
Zn211 O215 2.086 . S
Zn211 O220 1.977 . S
O212 Zn211 2.032 . S
O212 C216 1.278 . S
C213 O214 1.203 . S
C213 O220 1.267 . S
O214 C213 1.203 . S
O215 C208 1.185 . S
O215 Zn211 2.086 . S
C216 O212 1.278 . S
C216 O217 1.211 . S
O217 C216 1.211 . S
C218 O210 1.284 . S
C218 O219 1.273 . S
O219 C218 1.273 . S
O220 Zn211 1.977 . S
O220 C213 1.267 . S
C221 O222 1.160 . S
C221 O228 1.185 . S
O222 C221 1.160 . S
O223 Zn224 1.899 . S
O223 C231 1.284 . S
Zn224 O223 1.899 . S
Zn224 O225 2.032 . S
Zn224 O228 2.086 . S
Zn224 O233 1.977 . S
O225 Zn224 2.032 . S
O225 C229 1.278 . S
C226 O227 1.203 . S
C226 O233 1.267 . S
O227 C226 1.203 . S
O228 C221 1.185 . S
O228 Zn224 2.086 . S
C229 O225 1.278 . S
C229 O230 1.211 . S
O230 C229 1.211 . S
C231 O223 1.284 . S
C231 O232 1.273 . S
O232 C231 1.273 . S
O233 Zn224 1.977 . S
O233 C226 1.267 . S
C234 C235 1.387 . S
C234 H238 0.950 . S
C234 C243 1.390 . S
C235 C234 1.387 . S
C235 C237 1.387 . S
H236 C243 0.950 . S
C237 C235 1.387 . S
C237 C239 1.390 . S
C237 H241 0.950 . S
H238 C234 0.950 . S
C239 C237 1.390 . S
C239 C240 1.387 . S
C239 H242 0.950 . S
C240 C239 1.387 . S
C240 C243 1.387 . S
H241 C237 0.950 . S
H242 C239 0.950 . S
C243 C234 1.390 . S
C243 H236 0.950 . S
C243 C240 1.387 . S
C244 C245 1.387 . S
C244 H248 0.950 . S
C244 C253 1.390 . S
C245 C244 1.387 . S
C245 C247 1.387 . S
H246 C253 0.950 . S
C247 C245 1.387 . S
C247 C249 1.390 . S
C247 H251 0.950 . S
H248 C244 0.950 . S
C249 C247 1.390 . S
C249 C250 1.387 . S
C249 H252 0.950 . S
C250 C249 1.387 . S
C250 C253 1.387 . S
H251 C247 0.950 . S
H252 C249 0.950 . S
C253 C244 1.390 . S
C253 H246 0.950 . S
C253 C250 1.387 . S
C254 C255 1.387 . S
C254 H258 0.950 . S
C254 C263 1.390 . S
C255 C254 1.387 . S
C255 C257 1.387 . S
H256 C263 0.950 1_455 S
C257 C255 1.387 . S
C257 C259 1.390 . S
C257 H261 0.950 . S
H258 C254 0.950 . S
C259 C257 1.390 . S
C259 C260 1.387 . S
C259 H262 0.950 . S
C260 C259 1.387 . S
C260 C263 1.387 . S
H261 C257 0.950 . S
H262 C259 0.950 . S
C263 C254 1.390 . S
C263 H256 0.950 1_655 S
C263 C260 1.387 . S
C264 C265 1.387 . S
C264 H268 0.950 . S
C264 C273 1.390 . S
C265 C264 1.387 . S
C265 C267 1.387 . S
H266 C273 0.950 . S
C267 C265 1.387 . S
C267 C269 1.390 . S
C267 H271 0.950 . S
H268 C264 0.950 . S
C269 C267 1.390 . S
C269 C270 1.387 . S
C269 H272 0.950 . S
C270 C269 1.387 . S
C270 C273 1.387 . S
H271 C267 0.950 . S
H272 C269 0.950 . S
C273 C264 1.390 . S
C273 H266 0.950 . S
C273 C270 1.387 . S
C274 C275 1.387 . S
C274 H278 0.950 . S
C274 C283 1.390 . S
C275 C274 1.387 . S
C275 C277 1.387 . S
H276 C283 0.950 . S
C277 C275 1.387 . S
C277 C279 1.390 . S
C277 H281 0.950 . S
H278 C274 0.950 . S
C279 C277 1.390 . S
C279 C280 1.387 . S
C279 H282 0.950 . S
C280 C279 1.387 . S
C280 C283 1.387 . S
H281 C277 0.950 . S
H282 C279 0.950 . S
C283 C274 1.390 . S
C283 H276 0.950 . S
C283 C280 1.387 . S
C284 C285 1.387 . S
C284 H288 0.950 . S
C284 C293 1.390 . S
C285 C284 1.387 . S
C285 C287 1.387 . S
H286 C293 0.950 . S
C287 C285 1.387 . S
C287 C289 1.390 . S
C287 H291 0.950 . S
H288 C284 0.950 . S
C289 C287 1.390 . S
C289 C290 1.387 . S
C289 H292 0.950 . S
C290 C289 1.387 . S
C290 C293 1.387 . S
H291 C287 0.950 . S
H292 C289 0.950 . S
C293 C284 1.390 . S
C293 H286 0.950 . S
C293 C290 1.387 . S
C294 C295 1.387 . S
C294 H298 0.950 . S
C294 C303 1.390 1_655 S
C295 C294 1.387 . S
C295 C297 1.387 . S
H296 C303 0.950 . S
C297 C295 1.387 . S
C297 C299 1.390 1_655 S
C297 H301 0.950 . S
H298 C294 0.950 . S
C299 C297 1.390 1_455 S
C299 C300 1.387 . S
C299 H302 0.950 . S
C300 C299 1.387 . S
C300 C303 1.387 . S
H301 C297 0.950 . S
H302 C299 0.950 . S
C303 C294 1.390 1_455 S
C303 H296 0.950 . S
C303 C300 1.387 . S
C304 C305 1.387 . S
C304 H308 0.950 . S
C304 C313 1.390 . S
C305 C304 1.387 . S
C305 C307 1.387 . S
H306 C313 0.950 . S
C307 C305 1.387 . S
C307 C309 1.390 . S
C307 H311 0.950 . S
H308 C304 0.950 . S
C309 C307 1.390 . S
C309 C310 1.387 . S
C309 H312 0.950 . S
C310 C309 1.387 . S
C310 C313 1.387 . S
H311 C307 0.950 . S
H312 C309 0.950 . S
C313 C304 1.390 . S
C313 H306 0.950 . S
C313 C310 1.387 . S
C314 C315 1.387 . S
C314 H318 0.950 . S
C314 C323 1.390 1_545 S
C315 C314 1.387 . S
C315 C317 1.387 . S
H316 C323 0.950 . S
C317 C315 1.387 . S
C317 C319 1.390 1_545 S
C317 H321 0.950 . S
H318 C314 0.950 . S
C319 C317 1.390 1_565 S
C319 C320 1.387 . S
C319 H322 0.950 . S
C320 C319 1.387 . S
C320 C323 1.387 . S
H321 C317 0.950 . S
H322 C319 0.950 . S
C323 C314 1.390 1_565 S
C323 H316 0.950 . S
C323 C320 1.387 . S
C324 C325 1.387 . S
C324 H328 0.950 . S
C324 C333 1.390 1_455 S
C325 C324 1.387 . S
C325 C327 1.387 . S
H326 C333 0.950 . S
C327 C325 1.387 . S
C327 C329 1.390 1_455 S
C327 H331 0.950 . S
H328 C324 0.950 . S
C329 C327 1.390 1_655 S
C329 C330 1.387 . S
C329 H332 0.950 . S
C330 C329 1.387 . S
C330 C333 1.387 . S
H331 C327 0.950 . S
H332 C329 0.950 . S
C333 C324 1.390 1_655 S
C333 H326 0.950 . S
C333 C330 1.387 . S
C334 C335 1.387 . S
C334 H338 0.950 . S
C334 C343 1.390 . S
C335 C334 1.387 . S
C335 C337 1.387 . S
H336 C343 0.950 . S
C337 C335 1.387 . S
C337 C339 1.390 . S
C337 H341 0.950 . S
H338 C334 0.950 . S
C339 C337 1.390 . S
C339 C340 1.387 . S
C339 H342 0.950 . S
C340 C339 1.387 . S
C340 C343 1.387 . S
H341 C337 0.950 . S
H342 C339 0.950 . S
C343 C334 1.390 . S
C343 H336 0.950 . S
C343 C340 1.387 . S
C344 C345 1.387 . S
C344 H348 0.950 . S
C344 C353 1.390 1_545 S
C345 C344 1.387 . S
C345 C347 1.387 . S
H346 C353 0.950 . S
C347 C345 1.387 . S
C347 C349 1.390 1_545 S
C347 H351 0.950 . S
H348 C344 0.950 . S
C349 C347 1.390 1_565 S
C349 C350 1.387 . S
C349 H352 0.950 . S
C350 C349 1.387 . S
C350 C353 1.387 . S
H351 C347 0.950 . S
H352 C349 0.950 . S
C353 C344 1.390 1_565 S
C353 H346 0.950 . S
C353 C350 1.387 . S
C354 C355 1.387 . S
C354 H358 0.950 . S
C354 C363 1.390 1_565 S
C355 C354 1.387 . S
C355 C357 1.387 . S
H356 C363 0.950 . S
C357 C355 1.387 . S
C357 C359 1.390 1_565 S
C357 H361 0.950 . S
H358 C354 0.950 . S
C359 C357 1.390 1_545 S
C359 C360 1.387 . S
C359 H362 0.950 . S
C360 C359 1.387 . S
C360 C363 1.387 . S
H361 C357 0.950 . S
H362 C359 0.950 . S
C363 C354 1.390 1_545 S
C363 H356 0.950 . S
C363 C360 1.387 . S
C364 C365 1.387 . S
C364 H368 0.950 . S
C364 C373 1.390 1_455 S
C365 C364 1.387 . S
C365 C367 1.387 . S
H366 C373 0.950 . S
C367 C365 1.387 . S
C367 C369 1.390 1_455 S
C367 H371 0.950 . S
H368 C364 0.950 . S
C369 C367 1.390 1_655 S
C369 C370 1.387 . S
C369 H372 0.950 . S
C370 C369 1.387 . S
C370 C373 1.387 . S
H371 C367 0.950 . S
H372 C369 0.950 . S
C373 C364 1.390 1_655 S
C373 H366 0.950 . S
C373 C370 1.387 . S
C374 C375 1.387 . S
C374 H378 0.950 . S
C374 C383 1.390 . S
C375 C374 1.387 . S
C375 C377 1.387 . S
H376 C383 0.950 . S
C377 C375 1.387 . S
C377 C379 1.390 . S
C377 H381 0.950 . S
H378 C374 0.950 . S
C379 C377 1.390 . S
C379 C380 1.387 . S
C379 H382 0.950 . S
C380 C379 1.387 . S
C380 C383 1.387 . S
H381 C377 0.950 . S
H382 C379 0.950 . S
C383 C374 1.390 . S
C383 H376 0.950 . S
C383 C380 1.387 . S
C384 C385 1.387 . S
C384 H388 0.950 . S
C384 C393 1.390 . S
C385 C384 1.387 . S
C385 C387 1.387 . S
H386 C393 0.950 . S
C387 C385 1.387 . S
C387 C389 1.390 . S
C387 H391 0.950 . S
H388 C384 0.950 . S
C389 C387 1.390 . S
C389 C390 1.387 . S
C389 H392 0.950 . S
C390 C389 1.387 . S
C390 C393 1.387 . S
H391 C387 0.950 . S
H392 C389 0.950 . S
C393 C384 1.390 . S
C393 H386 0.950 . S
C393 C390 1.387 . S
C394 C395 1.387 . S
C394 H398 0.950 . S
C394 C403 1.390 . S
C395 C394 1.387 . S
C395 C397 1.387 . S
H396 C403 0.950 . S
C397 C395 1.387 . S
C397 C399 1.390 . S
C397 H401 0.950 . S
H398 C394 0.950 . S
C399 C397 1.390 . S
C399 C400 1.387 . S
C399 H402 0.950 . S
C400 C399 1.387 . S
C400 C403 1.387 . S
H401 C397 0.950 . S
H402 C399 0.950 . S
C403 C394 1.390 . S
C403 H396 0.950 . S
C403 C400 1.387 . S
C404 C405 1.387 . S
C404 H408 0.950 . S
C404 C413 1.390 . S
C405 C404 1.387 . S
C405 C407 1.387 . S
H406 C413 0.950 . S
C407 C405 1.387 . S
C407 C409 1.390 . S
C407 H411 0.950 . S
H408 C404 0.950 . S
C409 C407 1.390 . S
C409 C410 1.387 . S
C409 H412 0.950 . S
C410 C409 1.387 . S
C410 C413 1.387 . S
H411 C407 0.950 . S
H412 C409 0.950 . S
C413 C404 1.390 . S
C413 H406 0.950 . S
C413 C410 1.387 . S
C414 C415 1.387 . S
C414 H418 0.950 . S
C414 C423 1.390 . S
C415 C414 1.387 . S
C415 C417 1.387 . S
H416 C423 0.950 . S
C417 C415 1.387 . S
C417 C419 1.390 . S
C417 H421 0.950 . S
H418 C414 0.950 . S
C419 C417 1.390 . S
C419 C420 1.387 . S
C419 H422 0.950 . S
C420 C419 1.387 . S
C420 C423 1.387 . S
H421 C417 0.950 . S
H422 C419 0.950 . S
C423 C414 1.390 . S
C423 H416 0.950 . S
C423 C420 1.387 . S
C424 C425 1.387 . S
C424 H428 0.950 . S
C424 C433 1.390 . S
C425 C424 1.387 . S
C425 C427 1.387 . S
H426 C433 0.950 . S
C427 C425 1.387 . S
C427 C429 1.390 . S
C427 H431 0.950 . S
H428 C424 0.950 . S
C429 C427 1.390 . S
C429 C430 1.387 . S
C429 H432 0.950 . S
C430 C429 1.387 . S
C430 C433 1.387 . S
H431 C427 0.950 . S
H432 C429 0.950 . S
C433 C424 1.390 . S
C433 H426 0.950 . S
C433 C430 1.387 . S
C434 C435 1.387 . S
C434 H438 0.950 . S
C434 C443 1.390 . S
C435 C434 1.387 . S
C435 C437 1.387 . S
H436 C443 0.950 . S
C437 C435 1.387 . S
C437 C439 1.390 . S
C437 H441 0.950 . S
H438 C434 0.950 . S
C439 C437 1.390 . S
C439 C440 1.387 . S
C439 H442 0.950 . S
C440 C439 1.387 . S
C440 C443 1.387 . S
H441 C437 0.950 . S
H442 C439 0.950 . S
C443 C434 1.390 . S
C443 H436 0.950 . S
C443 C440 1.387 . S
C444 C445 1.387 . S
C444 H448 0.950 . S
C444 C453 1.390 . S
C445 C444 1.387 . S
C445 C447 1.387 . S
H446 C453 0.950 . S
C447 C445 1.387 . S
C447 C449 1.390 . S
C447 H451 0.950 . S
H448 C444 0.950 . S
C449 C447 1.390 . S
C449 C450 1.387 . S
C449 H452 0.950 . S
C450 C449 1.387 . S
C450 C453 1.387 . S
H451 C447 0.950 . S
H452 C449 0.950 . S
C453 C444 1.390 . S
C453 H446 0.950 . S
C453 C450 1.387 . S
C454 C455 1.387 . S
C454 H458 0.950 . S
C454 C463 1.390 . S
C455 C454 1.387 . S
C455 C457 1.387 . S
H456 C463 0.950 . S
C457 C455 1.387 . S
C457 C459 1.390 . S
C457 H461 0.950 . S
H458 C454 0.950 . S
C459 C457 1.390 . S
C459 C460 1.387 . S
C459 H462 0.950 . S
C460 C459 1.387 . S
C460 C463 1.387 . S
H461 C457 0.950 . S
H462 C459 0.950 . S
C463 C454 1.390 . S
C463 H456 0.950 . S
C463 C460 1.387 . S
C464 C465 1.387 . S
C464 H468 0.950 . S
C464 C473 1.390 . S
C465 C464 1.387 . S
C465 C467 1.387 . S
H466 C473 0.950 . S
C467 C465 1.387 . S
C467 C469 1.390 . S
C467 H471 0.950 . S
H468 C464 0.950 . S
C469 C467 1.390 . S
C469 C470 1.387 . S
C469 H472 0.950 . S
C470 C469 1.387 . S
C470 C473 1.387 . S
H471 C467 0.950 . S
H472 C469 0.950 . S
C473 C464 1.390 . S
C473 H466 0.950 . S
C473 C470 1.387 . S
C474 C475 1.387 . S
C474 H478 0.950 . S
C474 C483 1.390 . S
C475 C474 1.387 . S
C475 C477 1.387 . S
H476 C483 0.950 . S
C477 C475 1.387 . S
C477 C479 1.390 . S
C477 H481 0.950 . S
H478 C474 0.950 . S
C479 C477 1.390 . S
C479 C480 1.387 . S
C479 H482 0.950 . S
C480 C479 1.387 . S
C480 C483 1.387 . S
H481 C477 0.950 . S
H482 C479 0.950 . S
C483 C474 1.390 . S
C483 H476 0.950 . S
C483 C480 1.387 . S
C484 C485 1.387 . S
C484 H488 0.950 . S
C484 C493 1.390 . S
C485 C484 1.387 . S
C485 C487 1.387 . S
H486 C493 0.950 . S
C487 C485 1.387 . S
C487 C489 1.390 . S
C487 H491 0.950 . S
H488 C484 0.950 . S
C489 C487 1.390 . S
C489 C490 1.387 . S
C489 H492 0.950 . S
C490 C489 1.387 . S
C490 C493 1.387 . S
H491 C487 0.950 . S
H492 C489 0.950 . S
C493 C484 1.390 . S
C493 H486 0.950 . S
C493 C490 1.387 . S
C494 C495 1.387 . S
C494 H498 0.950 . S
C494 C503 1.390 . S
C495 C494 1.387 . S
C495 C497 1.387 . S
H496 C503 0.950 . S
C497 C495 1.387 . S
C497 C499 1.390 . S
C497 H501 0.950 . S
H498 C494 0.950 . S
C499 C497 1.390 . S
C499 C500 1.387 . S
C499 H502 0.950 . S
C500 C499 1.387 . S
C500 C503 1.387 . S
H501 C497 0.950 . S
H502 C499 0.950 . S
C503 C494 1.390 . S
C503 H496 0.950 . S
C503 C500 1.387 . S
C504 C505 1.387 . S
C504 H508 0.950 . S
C504 C513 1.390 1_554 S
C505 C504 1.387 . S
C505 C507 1.387 . S
H506 C513 0.950 . S
C507 C505 1.387 . S
C507 C509 1.390 1_554 S
C507 H511 0.950 . S
H508 C504 0.950 . S
C509 C507 1.390 1_556 S
C509 C510 1.387 . S
C509 H512 0.950 . S
C510 C509 1.387 . S
C510 C513 1.387 . S
H511 C507 0.950 . S
H512 C509 0.950 . S
C513 C504 1.390 1_556 S
C513 H506 0.950 . S
C513 C510 1.387 . S
C514 C515 1.387 . S
C514 H518 0.950 . S
C514 C523 1.390 1_556 S
C515 C514 1.387 . S
C515 C517 1.387 1_545 S
H516 C523 0.950 . S
C517 C515 1.387 1_565 S
C517 C519 1.390 1_556 S
C517 H521 0.950 . S
H518 C514 0.950 . S
C519 C517 1.390 1_554 S
C519 C520 1.387 . S
C519 H522 0.950 . S
C520 C519 1.387 . S
C520 C523 1.387 1_565 S
H521 C517 0.950 . S
H522 C519 0.950 . S
C523 C514 1.390 1_554 S
C523 H516 0.950 . S
C523 C520 1.387 1_545 S
C524 C525 1.387 1_455 S
C524 H528 0.950 . S
C524 C533 1.390 1_556 S
C525 C524 1.387 1_655 S
C525 C527 1.387 . S
H526 C533 0.950 . S
C527 C525 1.387 . S
C527 C529 1.390 1_556 S
C527 H531 0.950 . S
H528 C524 0.950 . S
C529 C527 1.390 1_554 S
C529 C530 1.387 1_655 S
C529 H532 0.950 . S
C530 C529 1.387 1_455 S
C530 C533 1.387 . S
H531 C527 0.950 . S
H532 C529 0.950 . S
C533 C524 1.390 1_554 S
C533 H526 0.950 . S
C533 C530 1.387 . S
C534 C535 1.387 . S
C534 H538 0.950 . S
C534 C543 1.390 . S
C535 C534 1.387 . S
C535 C537 1.387 . S
H536 C543 0.950 . S
C537 C535 1.387 . S
C537 C539 1.390 . S
C537 H541 0.950 . S
H538 C534 0.950 . S
C539 C537 1.390 . S
C539 C540 1.387 . S
C539 H542 0.950 . S
C540 C539 1.387 . S
C540 C543 1.387 . S
H541 C537 0.950 . S
H542 C539 0.950 . S
C543 C534 1.390 . S
C543 H536 0.950 . S
C543 C540 1.387 . S
C544 C545 1.387 . S
C544 H548 0.950 . S
C544 C553 1.390 . S
C545 C544 1.387 . S
C545 C547 1.387 . S
H546 C553 0.950 . S
C547 C545 1.387 . S
C547 C549 1.390 . S
C547 H551 0.950 . S
H548 C544 0.950 . S
C549 C547 1.390 . S
C549 C550 1.387 . S
C549 H552 0.950 . S
C550 C549 1.387 . S
C550 C553 1.387 . S
H551 C547 0.950 . S
H552 C549 0.950 . S
C553 C544 1.390 . S
C553 H546 0.950 . S
C553 C550 1.387 . S
C554 C555 1.387 . S
C554 H558 0.950 . S
C554 C563 1.390 . S
C555 C554 1.387 . S
C555 C557 1.387 . S
H556 C563 0.950 . S
C557 C555 1.387 . S
C557 C559 1.390 . S
C557 H561 0.950 . S
H558 C554 0.950 . S
C559 C557 1.390 . S
C559 C560 1.387 . S
C559 H562 0.950 . S
C560 C559 1.387 . S
C560 C563 1.387 . S
H561 C557 0.950 . S
H562 C559 0.950 . S
C563 C554 1.390 . S
C563 H556 0.950 . S
C563 C560 1.387 . S
C564 C565 1.387 . S
C564 H568 0.950 . S
C564 C573 1.390 . S
C565 C564 1.387 . S
C565 C567 1.387 . S
H566 C573 0.950 . S
C567 C565 1.387 . S
C567 C569 1.390 . S
C567 H571 0.950 . S
H568 C564 0.950 . S
C569 C567 1.390 . S
C569 C570 1.387 . S
C569 H572 0.950 . S
C570 C569 1.387 . S
C570 C573 1.387 . S
H571 C567 0.950 . S
H572 C569 0.950 . S
C573 C564 1.390 . S
C573 H566 0.950 . S
C573 C570 1.387 . S
C574 C575 1.387 . S
C574 H578 0.950 . S
C574 C583 1.390 . S
C575 C574 1.387 . S
C575 C577 1.387 . S
H576 C583 0.950 . S
C577 C575 1.387 . S
C577 C579 1.390 . S
C577 H581 0.950 . S
H578 C574 0.950 . S
C579 C577 1.390 . S
C579 C580 1.387 . S
C579 H582 0.950 . S
C580 C579 1.387 . S
C580 C583 1.387 . S
H581 C577 0.950 . S
H582 C579 0.950 . S
C583 C574 1.390 . S
C583 H576 0.950 . S
C583 C580 1.387 . S
C584 C585 1.387 . S
C584 H588 0.950 . S
C584 C593 1.390 . S
C585 C584 1.387 . S
C585 C587 1.387 . S
H586 C593 0.950 . S
C587 C585 1.387 . S
C587 C589 1.390 . S
C587 H591 0.950 . S
H588 C584 0.950 . S
C589 C587 1.390 . S
C589 C590 1.387 . S
C589 H592 0.950 . S
C590 C589 1.387 . S
C590 C593 1.387 . S
H591 C587 0.950 . S
H592 C589 0.950 . S
C593 C584 1.390 . S
C593 H586 0.950 . S
C593 C590 1.387 . S
C235 C130 1.216 . S
C240 C0 1.217 . S
C245 C13 1.215 . S
C250 C143 1.199 . S
C255 C117 1.204 . S
C260 C26 1.218 . S
C265 C182 1.216 . S
C270 C39 1.216 . S
C275 C52 1.216 . S
C280 C156 1.206 . S
C285 C169 1.202 . S
C290 C65 1.213 . S
C295 C78 1.226 . S
C300 C208 1.229 . S
C305 C221 1.224 . S
C310 C91 1.228 . S
C315 C104 1.230 . S
C320 C195 1.224 . S
C325 C5 1.039 . S
C330 C23 1.252 . S
C335 C18 1.040 . S
C340 C36 1.236 . S
C345 C10 1.263 . S
C350 C31 1.054 . S
C355 C75 1.253 . S
C360 C44 1.033 . S
C365 C49 1.262 . S
C370 C57 1.047 . S
C375 C70 1.033 . S
C380 C62 1.236 . S
C385 C83 1.046 . S
C390 C101 1.272 . S
C395 C96 1.045 . S
C400 C114 1.262 . S
C405 C88 1.260 . S
C410 C109 1.048 . S
C415 C153 1.274 . S
C420 C122 1.056 . S
C425 C127 1.253 . S
C430 C135 1.035 . S
C435 C140 1.261 . S
C440 C148 1.036 . S
C445 C179 1.273 . S
C450 C161 1.051 . S
C455 C192 1.262 . S
C460 C174 1.042 . S
C465 C166 1.253 . S
C470 C187 1.034 . S
C475 C200 1.050 . S
C480 C231 1.272 . S
C485 C213 1.043 . S
C490 C205 1.258 . S
C495 C226 1.038 . S
C500 C218 1.262 . S
C505 C8 1.525 . S
C510 C47 1.527 . S
C515 C60 1.512 . S
C520 C21 1.508 . S
C525 C73 1.509 . S
C530 C34 1.513 . S
C535 C125 1.530 . S
C540 C86 1.529 . S
C545 C138 1.520 . S
C550 C99 1.521 . S
C555 C112 1.530 . S
C560 C151 1.531 . S
C565 C203 1.530 . S
C570 C164 1.528 . S
C575 C216 1.529 . S
C580 C177 1.530 . S
C585 C229 1.521 . S
C590 C190 1.521 . S
