# Generated by pormake.
# Topology umw, (4)-cn, num edge types: 1
# Building blocks:
#     Node 0, Type 0, BuildingBlock: QUQFOY_clean_sbu_1, # of connection points: 4
#     Node 1, Type 0, BuildingBlock: QUQFOY_clean_sbu_1, # of connection points: 4
#     Node 2, Type 0, BuildingBlock: QUQFOY_clean_sbu_1, # of connection points: 4
#     Node 3, Type 0, BuildingBlock: QUQFOY_clean_sbu_1, # of connection points: 4
#     Node 4, Type 0, BuildingBlock: QUQFOY_clean_sbu_1, # of connection points: 4
#     Node 5, Type 0, BuildingBlock: QUQFOY_clean_sbu_1, # of connection points: 4
#     Node 6, Type 0, BuildingBlock: QUQFOY_clean_sbu_1, # of connection points: 4
#     Node 7, Type 0, BuildingBlock: QUQFOY_clean_sbu_1, # of connection points: 4
#     Edge 8, Type (0, 0), BuildingBlock: FUNLAD_clean_linker_0, # of connection points: 2
#     Edge 9, Type (0, 0), BuildingBlock: FUNLAD_clean_linker_0, # of connection points: 2
#     Edge 10, Type (0, 0), BuildingBlock: FUNLAD_clean_linker_0, # of connection points: 2
#     Edge 11, Type (0, 0), BuildingBlock: FUNLAD_clean_linker_0, # of connection points: 2
#     Edge 12, Type (0, 0), BuildingBlock: FUNLAD_clean_linker_0, # of connection points: 2
#     Edge 13, Type (0, 0), BuildingBlock: FUNLAD_clean_linker_0, # of connection points: 2
#     Edge 14, Type (0, 0), BuildingBlock: FUNLAD_clean_linker_0, # of connection points: 2
#     Edge 15, Type (0, 0), BuildingBlock: FUNLAD_clean_linker_0, # of connection points: 2
#     Edge 16, Type (0, 0), BuildingBlock: FUNLAD_clean_linker_0, # of connection points: 2
#     Edge 17, Type (0, 0), BuildingBlock: FUNLAD_clean_linker_0, # of connection points: 2
#     Edge 18, Type (0, 0), BuildingBlock: FUNLAD_clean_linker_0, # of connection points: 2
#     Edge 19, Type (0, 0), BuildingBlock: FUNLAD_clean_linker_0, # of connection points: 2
#     Edge 20, Type (0, 0), BuildingBlock: FUNLAD_clean_linker_0, # of connection points: 2
#     Edge 21, Type (0, 0), BuildingBlock: FUNLAD_clean_linker_0, # of connection points: 2
#     Edge 22, Type (0, 0), BuildingBlock: FUNLAD_clean_linker_0, # of connection points: 2
#     Edge 23, Type (0, 0), BuildingBlock: FUNLAD_clean_linker_0, # of connection points: 2
# Relax obj value: 0.050
# Max RMSD: 0.095
# Mean RMSD: 0.095
data_MOF--net-umw--node1-QUQFOY_clean_sbu_1--edge1-FUNLAD_clean_linker_0
_symmetry_space_group_name_H-M    P1
_symmetry_Int_Tables_number       1
_symmetry_cell_setting            triclinic
loop_
_symmetry_equiv_pos_as_xyz
'x, y, z'
_cell_length_a     49.574237
_cell_length_b     49.556996
_cell_length_c     32.543099
_cell_angle_alpha  89.963852
_cell_angle_beta   90.011872
_cell_angle_gamma 90.035195
loop_
_atom_site_label
_atom_site_type_symbol
_atom_site_fract_x
_atom_site_fract_y
_atom_site_fract_z
_atom_type_partial_charge
O0 O 0.42312 0.18313 0.40299 0.0
Cd1 Cd 0.39748 0.17422 0.35549 0.0
Cd2 Cd 0.44726 0.17528 0.31472 0.0
O3 O 0.4607 0.19195 0.36935 0.0
O4 O 0.36229 0.1773 0.38433 0.0
O5 O 0.37469 0.20511 0.33476 0.0
C6 C 0.35752 0.1986 0.36293 0.0
C7 C 0.46043 0.19313 0.25123 0.0
C8 C 0.44736 0.19137 0.4027 0.0
C9 C 0.41726 0.12218 0.3211 0.0
O10 O 0.43937 0.13433 0.31393 0.0
O11 O 0.39693 0.1351 0.33439 0.0
O12 O 0.47705 0.17996 0.27416 0.0
O13 O 0.43637 0.19724 0.26522 0.0
O14 O 0.80398 0.42711 0.63895 0.0
Cd15 Cd 0.81923 0.40115 0.59577 0.0
Cd16 Cd 0.8184 0.45445 0.55412 0.0
O17 O 0.80025 0.46665 0.60818 0.0
O18 O 0.82164 0.36873 0.63167 0.0
O19 O 0.79451 0.37063 0.57817 0.0
C20 C 0.803 0.35768 0.61006 0.0
C21 C 0.80169 0.46991 0.49107 0.0
C22 C 0.79705 0.45175 0.63959 0.0
C23 C 0.87179 0.42519 0.56513 0.0
O24 O 0.85929 0.44666 0.55539 0.0
O25 O 0.85914 0.40478 0.57891 0.0
O26 O 0.81485 0.48552 0.51558 0.0
O27 O 0.79725 0.44541 0.5029 0.0
O28 O 0.57333 0.81403 0.89888 0.0
Cd29 Cd 0.60298 0.82007 0.85621 0.0
Cd30 Cd 0.55415 0.82376 0.80693 0.0
O31 O 0.53623 0.81177 0.86158 0.0
O32 O 0.63507 0.81616 0.89245 0.0
O33 O 0.6261 0.78776 0.84211 0.0
C34 C 0.64091 0.7943 0.87319 0.0
C35 C 0.53902 0.80562 0.74457 0.0
C36 C 0.5481 0.81021 0.89614 0.0
C37 C 0.59101 0.87277 0.81437 0.0
O38 O 0.56865 0.8628 0.80263 0.0
O39 O 0.60803 0.85856 0.83397 0.0
O40 O 0.52469 0.82254 0.76519 0.0
O41 O 0.56181 0.79814 0.76011 0.0
O42 O 0.18002 0.57013 0.1464 0.0
Cd43 Cd 0.17188 0.59678 0.09958 0.0
Cd44 Cd 0.17279 0.54739 0.05702 0.0
O45 O 0.18846 0.53299 0.11142 0.0
O46 O 0.17296 0.6316 0.12991 0.0
O47 O 0.20272 0.62087 0.08215 0.0
C48 C 0.19453 0.63755 0.10993 0.0
C49 C 0.19208 0.53488 0.9944 0.0
C50 C 0.18777 0.54573 0.14527 0.0
C51 C 0.12022 0.57767 0.06179 0.0
O52 O 0.13193 0.5553 0.05506 0.0
O53 O 0.13341 0.59766 0.07571 0.0
O54 O 0.1781 0.51812 0.01596 0.0
O55 O 0.19592 0.55879 0.00914 0.0
O56 O 0.42033 0.81258 0.23792 0.0
Cd57 Cd 0.39303 0.81963 0.28403 0.0
Cd58 Cd 0.44261 0.82214 0.32705 0.0
O59 O 0.45811 0.80713 0.27269 0.0
O60 O 0.35902 0.81559 0.25227 0.0
O61 O 0.37068 0.78757 0.3019 0.0
C62 C 0.35424 0.79388 0.27266 0.0
C63 C 0.4564 0.8044 0.39032 0.0
C64 C 0.44518 0.80655 0.23897 0.0
C65 C 0.40868 0.87276 0.32042 0.0
O66 O 0.43154 0.86232 0.32826 0.0
O67 O 0.38963 0.8584 0.30608 0.0
O68 O 0.47217 0.81928 0.36841 0.0
O69 O 0.43286 0.79872 0.37556 0.0
O70 O 0.18507 0.42303 0.48664 0.0
Cd71 Cd 0.17434 0.39573 0.53129 0.0
Cd72 Cd 0.17345 0.44548 0.57581 0.0
O73 O 0.18954 0.4607 0.52216 0.0
O74 O 0.17542 0.36165 0.49903 0.0
O75 O 0.20372 0.37019 0.54979 0.0
C76 C 0.19599 0.35448 0.52043 0.0
C77 C 0.19198 0.45804 0.63898 0.0
C78 C 0.19142 0.44782 0.48854 0.0
C79 C 0.12141 0.41437 0.56699 0.0
O80 O 0.13281 0.43646 0.57659 0.0
O81 O 0.13497 0.39511 0.55161 0.0
O82 O 0.17768 0.47457 0.61749 0.0
O83 O 0.19647 0.43433 0.62396 0.0
O84 O 0.57312 0.18324 0.74094 0.0
Cd85 Cd 0.60436 0.17231 0.7785 0.0
Cd86 Cd 0.55492 0.16853 0.83238 0.0
O87 O 0.53632 0.182 0.77913 0.0
O88 O 0.63329 0.17251 0.73608 0.0
O89 O 0.63349 0.20021 0.78896 0.0
C90 C 0.64435 0.19239 0.75495 0.0
C91 C 0.54089 0.18611 0.89572 0.0
C92 C 0.54787 0.1864 0.7449 0.0
C93 C 0.59038 0.11892 0.81934 0.0
O94 O 0.5691 0.12931 0.83436 0.0
O95 O 0.60674 0.13292 0.79811 0.0
O96 O 0.52616 0.16943 0.87527 0.0
O97 O 0.56357 0.19348 0.87966 0.0
O98 O 0.80994 0.57492 0.98212 0.0
Cd99 Cd 0.82019 0.59556 0.03454 0.0
Cd100 Cd 0.81622 0.54353 0.06457 0.0
O101 O 0.79725 0.53615 0.00909 0.0
O102 O 0.81991 0.63325 0.01365 0.0
O103 O 0.79041 0.61813 0.05907 0.0
C104 C 0.79861 0.63734 0.03531 0.0
C105 C 0.79806 0.52829 0.12663 0.0
C106 C 0.79917 0.55182 0.97829 0.0
C107 C 0.87098 0.56967 0.06306 0.0
O108 O 0.8577 0.54773 0.06428 0.0
O109 O 0.85901 0.59187 0.05615 0.0
O110 O 0.80921 0.51193 0.10094 0.0
O111 O 0.79618 0.55341 0.11624 0.0
C112 C 0.44413 0.20099 0.4779 0.0
C113 C 0.45995 0.19938 0.44209 0.0
C114 C 0.45594 0.20647 0.51589 0.0
C115 C 0.48397 0.21023 0.51905 0.0
C116 C 0.49961 0.20994 0.48303 0.0
C117 C 0.48775 0.2045 0.4449 0.0
C118 C 0.49771 0.21363 0.5593 0.0
C119 C 0.48795 0.20335 0.59476 0.0
C120 C 0.50338 0.20245 0.63399 0.0
C121 C 0.48965 0.19621 0.67064 0.0
C122 C 0.50383 0.19207 0.70734 0.0
C123 C 0.5321 0.19387 0.70797 0.0
H124 H 0.54329 0.20926 0.60783 0.0
C125 C 0.54571 0.20106 0.67166 0.0
C126 C 0.53162 0.20517 0.63516 0.0
H127 H 0.5675 0.20269 0.67098 0.0
H128 H 0.42254 0.19768 0.47676 0.0
H129 H 0.44299 0.20762 0.54258 0.0
H130 H 0.52122 0.21308 0.48454 0.0
H131 H 0.50048 0.20361 0.41788 0.0
H132 H 0.51733 0.22328 0.55871 0.0
H133 H 0.4683 0.1937 0.59498 0.0
H134 H 0.46792 0.19384 0.67067 0.0
H135 H 0.49274 0.18653 0.73475 0.0
C136 C 0.7874 0.49093 0.68626 0.0
C137 C 0.78698 0.46304 0.67874 0.0
C138 C 0.78196 0.5009 0.72565 0.0
C139 C 0.77571 0.48309 0.75813 0.0
C140 C 0.77379 0.4554 0.74977 0.0
C141 C 0.77931 0.44549 0.71062 0.0
C142 C 0.77424 0.4918 0.80178 0.0
C143 C 0.77116 0.51756 0.81401 0.0
C144 C 0.7754 0.52628 0.85723 0.0
C145 C 0.78412 0.55278 0.86433 0.0
C146 C 0.79125 0.56115 0.90376 0.0
C147 C 0.78961 0.54324 0.93722 0.0
H148 H 0.76473 0.48843 0.88715 0.0
C149 C 0.77952 0.51711 0.93059 0.0
C150 C 0.77238 0.50871 0.89101 0.0
H151 H 0.77758 0.50297 0.95582 0.0
H152 H 0.79334 0.50494 0.66235 0.0
H153 H 0.78418 0.52234 0.73068 0.0
H154 H 0.769 0.4412 0.77404 0.0
H155 H 0.77852 0.42387 0.70578 0.0
H156 H 0.77767 0.47622 0.82462 0.0
H157 H 0.76783 0.53327 0.79136 0.0
H158 H 0.78638 0.56683 0.83902 0.0
H159 H 0.7986 0.58156 0.90778 0.0
C160 C 0.44375 0.79646 0.16381 0.0
C161 C 0.45893 0.79968 0.2 0.0
C162 C 0.45646 0.79194 0.12622 0.0
C163 C 0.48475 0.79077 0.12386 0.0
C164 C 0.49987 0.79273 0.16028 0.0
C165 C 0.48712 0.79721 0.19801 0.0
C166 C 0.4992 0.7882 0.08407 0.0
C167 C 0.48885 0.79679 0.04797 0.0
C168 C 0.50444 0.79782 0.00897 0.0
C169 C 0.49048 0.80019 0.97151 0.0
C170 C 0.5045 0.80351 0.93449 0.0
C171 C 0.5328 0.80474 0.93432 0.0
H172 H 0.54449 0.79778 0.03655 0.0
C173 C 0.54673 0.8019 0.97172 0.0
C174 C 0.53279 0.79862 0.00855 0.0
H175 H 0.56855 0.80283 0.97285 0.0
H176 H 0.42194 0.79773 0.16433 0.0
H177 H 0.44398 0.78941 0.09924 0.0
H178 H 0.52169 0.79159 0.1594 0.0
H179 H 0.49938 0.7994 0.22536 0.0
H180 H 0.51963 0.78043 0.08536 0.0
H181 H 0.46839 0.8045 0.04681 0.0
H182 H 0.46863 0.79989 0.97094 0.0
H183 H 0.49315 0.80569 0.90623 0.0
C184 C 0.20629 0.44661 0.41529 0.0
C185 C 0.19997 0.46173 0.45052 0.0
C186 C 0.21185 0.45943 0.37809 0.0
C187 C 0.21083 0.48773 0.37514 0.0
C188 C 0.20608 0.50288 0.41089 0.0
C189 C 0.20067 0.49003 0.44826 0.0
C190 C 0.21336 0.50207 0.33523 0.0
C191 C 0.20684 0.49059 0.29898 0.0
C192 C 0.20479 0.50568 0.25967 0.0
C193 C 0.2051 0.49119 0.22257 0.0
C194 C 0.20039 0.50423 0.18515 0.0
C195 C 0.19501 0.53205 0.18414 0.0
H196 H 0.19882 0.54555 0.28626 0.0
C197 C 0.19532 0.54666 0.22116 0.0
C198 C 0.20006 0.53366 0.25849 0.0
H199 H 0.19121 0.56812 0.22154 0.0
H200 H 0.20653 0.42476 0.41622 0.0
H201 H 0.21664 0.447 0.35179 0.0
H202 H 0.20552 0.52472 0.4096 0.0
H203 H 0.1961 0.50225 0.47495 0.0
H204 H 0.21885 0.52325 0.33639 0.0
H205 H 0.20136 0.46941 0.29786 0.0
H206 H 0.20846 0.46959 0.22261 0.0
H207 H 0.20027 0.49238 0.15719 0.0
C208 C 0.31565 0.20771 0.40305 0.0
C209 C 0.33501 0.21659 0.37453 0.0
C210 C 0.29743 0.22586 0.42053 0.0
C211 C 0.29817 0.25334 0.40977 0.0
C212 C 0.31673 0.26196 0.37988 0.0
C213 C 0.33485 0.24374 0.36216 0.0
C214 C 0.28156 0.27378 0.43152 0.0
C215 C 0.25813 0.26803 0.45055 0.0
C216 C 0.24231 0.28896 0.47227 0.0
C217 C 0.21413 0.28883 0.46887 0.0
C218 C 0.19889 0.3096 0.48623 0.0
C219 C 0.21153 0.33041 0.50835 0.0
H220 H 0.27659 0.30925 0.49996 0.0
C221 C 0.23958 0.32956 0.51413 0.0
C222 C 0.2549 0.30911 0.49594 0.0
H223 H 0.24982 0.34542 0.53092 0.0
H224 H 0.31533 0.18692 0.41336 0.0
H225 H 0.28386 0.21844 0.44398 0.0
H226 H 0.31775 0.28303 0.37108 0.0
H227 H 0.34967 0.25124 0.34051 0.0
H228 H 0.28866 0.29455 0.43106 0.0
H229 H 0.24928 0.24807 0.4478 0.0
H230 H 0.20398 0.2733 0.45125 0.0
H231 H 0.17726 0.30975 0.48143 0.0
C232 C 0.76595 0.3232 0.60667 0.0
C233 C 0.78988 0.33265 0.62476 0.0
C234 C 0.75116 0.30246 0.62533 0.0
C235 C 0.76014 0.29075 0.66238 0.0
C236 C 0.78467 0.2994 0.67925 0.0
C237 C 0.79946 0.31998 0.66057 0.0
C238 C 0.74338 0.27148 0.68629 0.0
C239 C 0.72441 0.25561 0.66934 0.0
C240 C 0.70615 0.23821 0.69398 0.0
C241 C 0.69506 0.2152 0.67554 0.0
C242 C 0.67596 0.19963 0.6963 0.0
C243 C 0.66716 0.20699 0.73583 0.0
H244 H 0.70563 0.26316 0.74894 0.0
C245 C 0.67869 0.22967 0.75481 0.0
C246 C 0.69802 0.24516 0.7341 0.0
H247 H 0.67217 0.23598 0.78508 0.0
H248 H 0.75794 0.33269 0.57929 0.0
H249 H 0.73206 0.29676 0.61178 0.0
H250 H 0.79205 0.29077 0.70772 0.0
H251 H 0.81785 0.32674 0.67532 0.0
H252 H 0.74709 0.27021 0.71915 0.0
H253 H 0.72238 0.25484 0.63613 0.0
H254 H 0.70085 0.20948 0.64463 0.0
H255 H 0.66744 0.18232 0.68067 0.0
C256 C 0.75416 0.66076 0.03128 0.0
C257 C 0.78239 0.66181 0.02815 0.0
C258 C 0.73839 0.6817 0.01534 0.0
C259 C 0.75067 0.70416 0.99663 0.0
C260 C 0.77888 0.70618 0.99663 0.0
C261 C 0.79462 0.68501 0.01172 0.0
C262 C 0.73459 0.72527 0.97569 0.0
C263 C 0.71283 0.71914 0.9527 0.0
C264 C 0.69676 0.73952 0.92983 0.0
C265 C 0.68091 0.73111 0.89638 0.0
C266 C 0.66384 0.74926 0.87619 0.0
C267 C 0.66205 0.77616 0.88945 0.0
H268 H 0.70704 0.77393 0.96823 0.0
C269 C 0.67853 0.78479 0.92207 0.0
C270 C 0.69566 0.76671 0.9421 0.0
H271 H 0.67751 0.80536 0.9332 0.0
H272 H 0.74421 0.64307 0.04366 0.0
H273 H 0.71663 0.68 0.01677 0.0
H274 H 0.78876 0.72348 0.98289 0.0
H275 H 0.81637 0.68633 0.00904 0.0
H276 H 0.74233 0.74576 0.97627 0.0
H277 H 0.7071 0.69809 0.94911 0.0
H278 H 0.68133 0.71026 0.88635 0.0
H279 H 0.65125 0.74195 0.85138 0.0
C280 C 0.23867 0.66136 0.11784 0.0
C281 C 0.21048 0.66138 0.12198 0.0
C282 C 0.25412 0.68175 0.13603 0.0
C283 C 0.24154 0.70267 0.15808 0.0
C284 C 0.21331 0.7036 0.1598 0.0
C285 C 0.19792 0.68294 0.14243 0.0
C286 C 0.25737 0.72364 0.17978 0.0
C287 C 0.28044 0.71789 0.19982 0.0
C288 C 0.29675 0.73843 0.22195 0.0
C289 C 0.31461 0.72999 0.25293 0.0
C290 C 0.33219 0.74837 0.27161 0.0
C291 C 0.33248 0.77551 0.25917 0.0
H292 H 0.28327 0.77313 0.18654 0.0
C293 C 0.3139 0.78416 0.22931 0.0
C294 C 0.29626 0.76586 0.21084 0.0
H295 H 0.31371 0.80492 0.21889 0.0
H296 H 0.24885 0.64493 0.10234 0.0
H297 H 0.27587 0.68096 0.13325 0.0
H298 H 0.20319 0.71973 0.17613 0.0
H299 H 0.17619 0.68348 0.14593 0.0
H300 H 0.24869 0.74371 0.18177 0.0
H301 H 0.28735 0.69709 0.20104 0.0
H302 H 0.31545 0.70896 0.262 0.0
H303 H 0.34642 0.74105 0.29428 0.0
C304 C 0.42634 0.91863 0.33831 0.0
C305 C 0.40488 0.90224 0.32511 0.0
C306 C 0.42368 0.94667 0.339 0.0
C307 C 0.39951 0.95898 0.32624 0.0
C308 C 0.37765 0.94258 0.31495 0.0
C309 C 0.38032 0.9145 0.31416 0.0
C310 C 0.39647 0.98879 0.32464 0.0
C311 C 0.41745 0.00544 0.31742 0.0
C312 C 0.41557 0.03539 0.31583 0.0
C313 C 0.43763 0.04989 0.30009 0.0
C314 C 0.43781 0.07806 0.30054 0.0
C315 C 0.41588 0.09246 0.31683 0.0
H316 H 0.37611 0.03965 0.34457 0.0
C317 C 0.39346 0.07804 0.33161 0.0
C318 C 0.39333 0.04982 0.33135 0.0
H319 H 0.3763 0.08851 0.34465 0.0
H320 H 0.44543 0.90986 0.34745 0.0
H321 H 0.44062 0.95859 0.34955 0.0
H322 H 0.35868 0.95154 0.30561 0.0
H323 H 0.36331 0.90248 0.3041 0.0
H324 H 0.37619 0.99681 0.32719 0.0
H325 H 0.43715 0.99673 0.31129 0.0
H326 H 0.45506 0.03938 0.28799 0.0
H327 H 0.45541 0.0885 0.28886 0.0
C328 C 0.91605 0.40246 0.57887 0.0
C329 C 0.90163 0.42451 0.56285 0.0
C330 C 0.94424 0.40268 0.57968 0.0
C331 C 0.95869 0.4249 0.56401 0.0
C332 C 0.94423 0.44673 0.5475 0.0
C333 C 0.91606 0.44655 0.54684 0.0
C334 C 0.98862 0.42674 0.56589 0.0
C335 C 0.00505 0.40539 0.5715 0.0
C336 C 0.03492 0.40782 0.57267 0.0
C337 C 0.05065 0.38563 0.56083 0.0
C338 C 0.07877 0.38751 0.55992 0.0
C339 C 0.09179 0.4116 0.57127 0.0
H340 H 0.03657 0.44879 0.59647 0.0
C341 C 0.07607 0.43346 0.58479 0.0
C342 C 0.04795 0.43159 0.5856 0.0
H343 H 0.08543 0.45222 0.59419 0.0
H344 H 0.90559 0.38526 0.59183 0.0
H345 H 0.95439 0.38573 0.59371 0.0
H346 H 0.95477 0.46416 0.53537 0.0
H347 H 0.90561 0.4639 0.53433 0.0
H348 H -0.00256 0.44654 0.56084 0.0
H349 H 0.9967 0.38517 0.57279 0.0
H350 H 0.04115 0.36695 0.5513 0.0
H351 H 0.09025 0.3702 0.5496 0.0
C352 C 0.6139 0.91576 0.83435 0.0
C353 C 0.59634 0.90179 0.80792 0.0
C354 C 0.61673 0.94374 0.83123 0.0
C355 C 0.60236 0.95817 0.80119 0.0
C356 C 0.58594 0.94407 0.77342 0.0
C357 C 0.58264 0.91616 0.77709 0.0
C358 C 0.60374 0.98795 0.79872 0.0
C359 C 0.6038 0.00356 0.83255 0.0
C360 C 0.60192 0.03333 0.8302 0.0
C361 C 0.58612 0.04719 0.85905 0.0
C362 C 0.5826 0.0751 0.85594 0.0
C363 C 0.59542 0.08972 0.8245 0.0
H364 H 0.62811 0.03788 0.77727 0.0
C365 C 0.61223 0.07595 0.79675 0.0
C366 C 0.6153 0.048 0.79938 0.0
H367 H 0.62243 0.08666 0.77223 0.0
H368 H 0.62474 0.90523 0.85839 0.0
H369 H 0.63 0.95407 0.85247 0.0
H370 H 0.57488 0.95479 0.74979 0.0
H371 H 0.56912 0.90589 0.75613 0.0
H372 H 0.60189 0.99723 0.76857 0.0
H373 H 0.60257 0.99422 0.86273 0.0
H374 H 0.57581 0.03628 0.88328 0.0
H375 H 0.56969 0.08519 0.87795 0.0
C376 C 0.91568 0.59328 0.06529 0.0
C377 C 0.90073 0.56919 0.06698 0.0
C378 C 0.94386 0.59273 0.06585 0.0
C379 C 0.95776 0.56798 0.06778 0.0
C380 C 0.94277 0.54402 0.07091 0.0
C381 C 0.9146 0.54457 0.07042 0.0
C382 C 0.98771 0.56615 0.06707 0.0
C383 C 0.00405 0.58595 0.05332 0.0
C384 C 0.03387 0.58348 0.05316 0.0
C385 C 0.04959 0.60675 0.05862 0.0
C386 C 0.07769 0.60501 0.06048 0.0
C387 C 0.09068 0.57994 0.05621 0.0
H388 H 0.03542 0.54033 0.04156 0.0
C389 C 0.07497 0.55682 0.04884 0.0
C390 C 0.04686 0.55854 0.04736 0.0
H391 H 0.08432 0.53723 0.04509 0.0
H392 H 0.90564 0.61263 0.06308 0.0
H393 H 0.95445 0.61178 0.06497 0.0
H394 H 0.95289 0.52468 0.07295 0.0
H395 H 0.90374 0.52563 0.07195 0.0
H396 H 0.99656 0.5474 0.07788 0.0
H397 H 0.99569 0.60497 0.04289 0.0
H398 H 0.04007 0.62626 0.06258 0.0
H399 H 0.08919 0.62325 0.06589 0.0
C400 C 0.5072 0.18747 0.95295 0.0
C401 C 0.53247 0.19517 0.93721 0.0
C402 C 0.50002 0.19358 0.99341 0.0
C403 C 0.51793 0.2077 0.0192 0.0
C404 C 0.54292 0.216 0.0031 0.0
C405 C 0.55007 0.20995 0.96249 0.0
C406 C 0.51238 0.21162 0.06384 0.0
C407 C 0.48743 0.21076 0.08044 0.0
C408 C 0.48205 0.20979 0.12551 0.0
C409 C 0.45587 0.21531 0.13984 0.0
C410 C 0.44907 0.2112 0.18115 0.0
C411 C 0.46829 0.20122 0.20901 0.0
H412 H 0.52176 0.19562 0.14424 0.0
C413 C 0.49473 0.19665 0.19507 0.0
C414 C 0.50155 0.2008 0.15386 0.0
H415 H 0.51003 0.18888 0.21568 0.0
H416 H 0.49318 0.17597 0.93437 0.0
H417 H 0.48091 0.18608 0.00467 0.0
H418 H 0.55722 0.2267 0.02229 0.0
H419 H 0.56972 0.21612 0.95136 0.0
H420 H 0.52971 0.21483 0.08363 0.0
H421 H 0.46999 0.21015 0.0603 0.0
H422 H 0.44037 0.22207 0.11874 0.0
H423 H 0.42849 0.21485 0.19084 0.0
C424 C 0.77996 0.53675 0.19764 0.0
C425 C 0.78965 0.51868 0.16784 0.0
C426 C 0.77511 0.52802 0.23794 0.0
C427 C 0.78008 0.50102 0.24933 0.0
C428 C 0.78832 0.48275 0.21887 0.0
C429 C 0.79313 0.49144 0.1787 0.0
C430 C 0.77806 0.49115 0.29256 0.0
C431 C 0.77979 0.50743 0.32569 0.0
C432 C 0.78275 0.49749 0.36875 0.0
C433 C 0.79358 0.51517 0.39815 0.0
C434 C 0.79893 0.50638 0.43809 0.0
C435 C 0.79343 0.47964 0.44985 0.0
H436 H 0.7668 0.45693 0.35991 0.0
C437 C 0.78141 0.4622 0.42114 0.0
C438 C 0.77603 0.47102 0.38102 0.0
H439 H 0.77667 0.44155 0.42937 0.0
H440 H 0.77677 0.55781 0.19015 0.0
H441 H 0.76777 0.54261 0.25993 0.0
H442 H 0.79201 0.46178 0.22647 0.0
H443 H 0.80038 0.4769 0.15646 0.0
H444 H 0.77797 0.46945 0.2969 0.0
H445 H 0.78187 0.52902 0.32112 0.0
H446 H 0.79871 0.53572 0.38988 0.0
H447 H 0.80801 0.52045 0.45948 0.0
C448 C 0.50465 0.80423 0.6883 0.0
C449 C 0.53018 0.79672 0.7032 0.0
C450 C 0.49723 0.79878 0.64771 0.0
C451 C 0.51518 0.78554 0.62095 0.0
C452 C 0.54039 0.77728 0.63626 0.0
C453 C 0.54777 0.78265 0.67701 0.0
C454 C 0.50945 0.78268 0.57619 0.0
C455 C 0.4844 0.78349 0.55995 0.0
C456 C 0.47883 0.78562 0.51504 0.0
C457 C 0.45294 0.77921 0.50034 0.0
C458 C 0.44592 0.78412 0.45931 0.0
C459 C 0.46459 0.79587 0.43218 0.0
H460 H 0.51774 0.80241 0.49746 0.0
C461 C 0.49076 0.80148 0.44651 0.0
C462 C 0.49781 0.79648 0.48739 0.0
H463 H 0.50563 0.81062 0.42646 0.0
H464 H 0.49063 0.81518 0.70761 0.0
H465 H 0.47793 0.80617 0.63711 0.0
H466 H 0.55472 0.76725 0.61633 0.0
H467 H 0.56763 0.77667 0.68747 0.0
H468 H 0.52671 0.78038 0.55597 0.0
H469 H 0.46704 0.78315 0.58027 0.0
H470 H 0.43784 0.77103 0.52094 0.0
H471 H 0.42556 0.77965 0.44931 0.0
C472 C 0.19689 0.50106 0.9379 0.0
C473 C 0.20161 0.52725 0.95285 0.0
C474 C 0.20265 0.49448 0.89712 0.0
C475 C 0.2135 0.51394 0.87022 0.0
C476 C 0.21917 0.53982 0.88566 0.0
C477 C 0.21339 0.54641 0.92657 0.0
C478 C 0.21623 0.50895 0.82524 0.0
C479 C 0.21634 0.48414 0.80811 0.0
C480 C 0.21336 0.47914 0.76317 0.0
C481 C 0.21951 0.45342 0.74753 0.0
C482 C 0.21366 0.4468 0.70666 0.0
C483 C 0.20131 0.46573 0.68062 0.0
H484 H 0.19606 0.51817 0.74727 0.0
C485 C 0.19601 0.49174 0.6958 0.0
C486 C 0.20185 0.49836 0.73655 0.0
H487 H 0.18644 0.50681 0.67659 0.0
H488 H 0.18776 0.48581 0.9573 0.0
H489 H 0.19726 0.47451 0.88659 0.0
H490 H 0.22735 0.55529 0.86567 0.0
H491 H 0.21724 0.56678 0.9371 0.0
H492 H 0.21733 0.52662 0.8056 0.0
H493 H 0.21786 0.46648 0.8277 0.0
H494 H 0.22818 0.43813 0.76733 0.0
H495 H 0.21797 0.42656 0.69594 0.0
loop_
_geom_bond_atom_site_label_1
_geom_bond_atom_site_label_2
_geom_bond_distance
_geom_bond_site_symmetry_2
_ccdc_geom_bond_type
O0 Cd1 2.223 . S
O0 C8 1.315 . S
Cd1 O0 2.223 . S
Cd1 O4 2.297 . S
Cd1 O5 2.439 . S
Cd1 O11 2.240 . S
Cd2 O3 2.240 . S
Cd2 O10 2.223 . S
Cd2 O12 2.297 . S
Cd2 O13 2.439 . S
O3 Cd2 2.240 . S
O3 C8 1.279 . S
O4 Cd1 2.297 . S
O4 C6 1.247 . S
O5 Cd1 2.439 . S
O5 C6 1.208 . S
C6 O4 1.247 . S
C6 O5 1.208 . S
C7 O12 1.247 . S
C7 O13 1.208 . S
C8 O0 1.315 . S
C8 O3 1.279 . S
C9 O10 1.315 . S
C9 O11 1.279 . S
O10 Cd2 2.223 . S
O10 C9 1.315 . S
O11 Cd1 2.240 . S
O11 C9 1.279 . S
O12 Cd2 2.297 . S
O12 C7 1.247 . S
O13 Cd2 2.439 . S
O13 C7 1.208 . S
O14 Cd15 2.223 . S
O14 C22 1.315 . S
Cd15 O14 2.223 . S
Cd15 O18 2.297 . S
Cd15 O19 2.439 . S
Cd15 O25 2.240 . S
Cd16 O17 2.240 . S
Cd16 O24 2.223 . S
Cd16 O26 2.297 . S
Cd16 O27 2.439 . S
O17 Cd16 2.240 . S
O17 C22 1.279 . S
O18 Cd15 2.297 . S
O18 C20 1.247 . S
O19 Cd15 2.439 . S
O19 C20 1.208 . S
C20 O18 1.247 . S
C20 O19 1.208 . S
C21 O26 1.247 . S
C21 O27 1.208 . S
C22 O14 1.315 . S
C22 O17 1.279 . S
C23 O24 1.315 . S
C23 O25 1.279 . S
O24 Cd16 2.223 . S
O24 C23 1.315 . S
O25 Cd15 2.240 . S
O25 C23 1.279 . S
O26 Cd16 2.297 . S
O26 C21 1.247 . S
O27 Cd16 2.439 . S
O27 C21 1.208 . S
O28 Cd29 2.223 . S
O28 C36 1.315 . S
Cd29 O28 2.223 . S
Cd29 O32 2.297 . S
Cd29 O33 2.439 . S
Cd29 O39 2.240 . S
Cd30 O31 2.240 . S
Cd30 O38 2.223 . S
Cd30 O40 2.297 . S
Cd30 O41 2.439 . S
O31 Cd30 2.240 . S
O31 C36 1.279 . S
O32 Cd29 2.297 . S
O32 C34 1.247 . S
O33 Cd29 2.439 . S
O33 C34 1.208 . S
C34 O32 1.247 . S
C34 O33 1.208 . S
C35 O40 1.247 . S
C35 O41 1.208 . S
C36 O28 1.315 . S
C36 O31 1.279 . S
C37 O38 1.315 . S
C37 O39 1.279 . S
O38 Cd30 2.223 . S
O38 C37 1.315 . S
O39 Cd29 2.240 . S
O39 C37 1.279 . S
O40 Cd30 2.297 . S
O40 C35 1.247 . S
O41 Cd30 2.439 . S
O41 C35 1.208 . S
O42 Cd43 2.223 . S
O42 C50 1.315 . S
Cd43 O42 2.223 . S
Cd43 O46 2.297 . S
Cd43 O47 2.439 . S
Cd43 O53 2.240 . S
Cd44 O45 2.240 . S
Cd44 O52 2.223 . S
Cd44 O54 2.297 1_554 S
Cd44 O55 2.439 . S
O45 Cd44 2.240 . S
O45 C50 1.279 . S
O46 Cd43 2.297 . S
O46 C48 1.247 . S
O47 Cd43 2.439 . S
O47 C48 1.208 . S
C48 O46 1.247 . S
C48 O47 1.208 . S
C49 O54 1.247 . S
C49 O55 1.208 1_556 S
C50 O42 1.315 . S
C50 O45 1.279 . S
C51 O52 1.315 . S
C51 O53 1.279 . S
O52 Cd44 2.223 . S
O52 C51 1.315 . S
O53 Cd43 2.240 . S
O53 C51 1.279 . S
O54 Cd44 2.297 1_556 S
O54 C49 1.247 . S
O55 Cd44 2.439 . S
O55 C49 1.208 1_554 S
O56 Cd57 2.223 . S
O56 C64 1.315 . S
Cd57 O56 2.223 . S
Cd57 O60 2.297 . S
Cd57 O61 2.439 . S
Cd57 O67 2.240 . S
Cd58 O59 2.240 . S
Cd58 O66 2.223 . S
Cd58 O68 2.297 . S
Cd58 O69 2.439 . S
O59 Cd58 2.240 . S
O59 C64 1.279 . S
O60 Cd57 2.297 . S
O60 C62 1.247 . S
O61 Cd57 2.439 . S
O61 C62 1.208 . S
C62 O60 1.247 . S
C62 O61 1.208 . S
C63 O68 1.247 . S
C63 O69 1.208 . S
C64 O56 1.315 . S
C64 O59 1.279 . S
C65 O66 1.315 . S
C65 O67 1.279 . S
O66 Cd58 2.223 . S
O66 C65 1.315 . S
O67 Cd57 2.240 . S
O67 C65 1.279 . S
O68 Cd58 2.297 . S
O68 C63 1.247 . S
O69 Cd58 2.439 . S
O69 C63 1.208 . S
O70 Cd71 2.223 . S
O70 C78 1.315 . S
Cd71 O70 2.223 . S
Cd71 O74 2.297 . S
Cd71 O75 2.439 . S
Cd71 O81 2.240 . S
Cd72 O73 2.240 . S
Cd72 O80 2.223 . S
Cd72 O82 2.297 . S
Cd72 O83 2.439 . S
O73 Cd72 2.240 . S
O73 C78 1.279 . S
O74 Cd71 2.297 . S
O74 C76 1.247 . S
O75 Cd71 2.439 . S
O75 C76 1.208 . S
C76 O74 1.247 . S
C76 O75 1.208 . S
C77 O82 1.247 . S
C77 O83 1.208 . S
C78 O70 1.315 . S
C78 O73 1.279 . S
C79 O80 1.315 . S
C79 O81 1.279 . S
O80 Cd72 2.223 . S
O80 C79 1.315 . S
O81 Cd71 2.240 . S
O81 C79 1.279 . S
O82 Cd72 2.297 . S
O82 C77 1.247 . S
O83 Cd72 2.439 . S
O83 C77 1.208 . S
O84 Cd85 2.223 . S
O84 C92 1.315 . S
Cd85 O84 2.223 . S
Cd85 O88 2.297 . S
Cd85 O89 2.439 . S
Cd85 O95 2.240 . S
Cd86 O87 2.240 . S
Cd86 O94 2.223 . S
Cd86 O96 2.297 . S
Cd86 O97 2.439 . S
O87 Cd86 2.240 . S
O87 C92 1.279 . S
O88 Cd85 2.297 . S
O88 C90 1.247 . S
O89 Cd85 2.439 . S
O89 C90 1.208 . S
C90 O88 1.247 . S
C90 O89 1.208 . S
C91 O96 1.247 . S
C91 O97 1.208 . S
C92 O84 1.315 . S
C92 O87 1.279 . S
C93 O94 1.315 . S
C93 O95 1.279 . S
O94 Cd86 2.223 . S
O94 C93 1.315 . S
O95 Cd85 2.240 . S
O95 C93 1.279 . S
O96 Cd86 2.297 . S
O96 C91 1.247 . S
O97 Cd86 2.439 . S
O97 C91 1.208 . S
O98 Cd99 2.223 1_556 S
O98 C106 1.315 . S
Cd99 O98 2.223 1_554 S
Cd99 O102 2.297 1_554 S
Cd99 O103 2.439 . S
Cd99 O109 2.240 . S
Cd100 O101 2.240 . S
Cd100 O108 2.223 . S
Cd100 O110 2.297 . S
Cd100 O111 2.439 . S
O101 Cd100 2.240 . S
O101 C106 1.279 1_554 S
O102 Cd99 2.297 1_556 S
O102 C104 1.247 1_556 S
O103 Cd99 2.439 . S
O103 C104 1.208 . S
C104 O102 1.247 1_554 S
C104 O103 1.208 . S
C105 O110 1.247 . S
C105 O111 1.208 . S
C106 O98 1.315 . S
C106 O101 1.279 1_556 S
C107 O108 1.315 . S
C107 O109 1.279 . S
O108 Cd100 2.223 . S
O108 C107 1.315 . S
O109 Cd99 2.240 . S
O109 C107 1.279 . S
O110 Cd100 2.297 . S
O110 C105 1.247 . S
O111 Cd100 2.439 . S
O111 C105 1.208 . S
C112 C113 1.386 . S
C112 C114 1.383 . S
C112 H128 0.951 . S
C113 C112 1.386 . S
C113 C117 1.383 . S
C114 C112 1.383 . S
C114 C115 1.402 . S
C114 H129 0.951 . S
C115 C114 1.402 . S
C115 C116 1.375 . S
C115 C118 1.481 . S
C116 C115 1.375 . S
C116 C117 1.367 . S
C116 H130 0.951 . S
C117 C113 1.383 . S
C117 C116 1.367 . S
C117 H131 0.950 . S
C118 C115 1.481 . S
C118 C119 1.297 . S
C118 H132 0.950 . S
C119 C118 1.297 . S
C119 C120 1.479 . S
C119 H133 0.950 . S
C120 C119 1.479 . S
C120 C121 1.375 . S
C120 C126 1.404 . S
C121 C120 1.375 . S
C121 C122 1.369 . S
C121 H134 0.950 . S
C122 C121 1.369 . S
C122 C123 1.392 . S
C122 H135 0.951 . S
C123 C122 1.392 . S
C123 C125 1.384 . S
H124 C126 0.949 . S
C125 C123 1.384 . S
C125 C126 1.385 . S
C125 H127 0.950 . S
C126 C120 1.404 . S
C126 H124 0.949 . S
C126 C125 1.385 . S
H127 C125 0.950 . S
H128 C112 0.951 . S
H129 C114 0.951 . S
H130 C116 0.951 . S
H131 C117 0.950 . S
H132 C118 0.950 . S
H133 C119 0.950 . S
H134 C121 0.950 . S
H135 C122 0.951 . S
C136 C137 1.386 . S
C136 C138 1.383 . S
C136 H152 0.951 . S
C137 C136 1.386 . S
C137 C141 1.383 . S
C138 C136 1.383 . S
C138 C139 1.402 . S
C138 H153 0.951 . S
C139 C138 1.402 . S
C139 C140 1.375 . S
C139 C142 1.481 . S
C140 C139 1.375 . S
C140 C141 1.367 . S
C140 H154 0.951 . S
C141 C137 1.383 . S
C141 C140 1.367 . S
C141 H155 0.950 . S
C142 C139 1.481 . S
C142 C143 1.297 . S
C142 H156 0.950 . S
C143 C142 1.297 . S
C143 C144 1.479 . S
C143 H157 0.950 . S
C144 C143 1.479 . S
C144 C145 1.375 . S
C144 C150 1.404 . S
C145 C144 1.375 . S
C145 C146 1.369 . S
C145 H158 0.950 . S
C146 C145 1.369 . S
C146 C147 1.392 . S
C146 H159 0.951 . S
C147 C146 1.392 . S
C147 C149 1.384 . S
H148 C150 0.949 . S
C149 C147 1.384 . S
C149 C150 1.385 . S
C149 H151 0.950 . S
C150 C144 1.404 . S
C150 H148 0.949 . S
C150 C149 1.385 . S
H151 C149 0.950 . S
H152 C136 0.951 . S
H153 C138 0.951 . S
H154 C140 0.951 . S
H155 C141 0.950 . S
H156 C142 0.950 . S
H157 C143 0.950 . S
H158 C145 0.950 . S
H159 C146 0.951 . S
C160 C161 1.386 . S
C160 C162 1.383 . S
C160 H176 0.951 . S
C161 C160 1.386 . S
C161 C165 1.383 . S
C162 C160 1.383 . S
C162 C163 1.402 . S
C162 H177 0.951 . S
C163 C162 1.402 . S
C163 C164 1.375 . S
C163 C166 1.481 . S
C164 C163 1.375 . S
C164 C165 1.367 . S
C164 H178 0.951 . S
C165 C161 1.383 . S
C165 C164 1.367 . S
C165 H179 0.950 . S
C166 C163 1.481 . S
C166 C167 1.297 . S
C166 H180 0.950 . S
C167 C166 1.297 . S
C167 C168 1.479 . S
C167 H181 0.950 . S
C168 C167 1.479 . S
C168 C169 1.375 1_554 S
C168 C174 1.404 . S
C169 C168 1.375 1_556 S
C169 C170 1.369 . S
C169 H182 0.950 . S
C170 C169 1.369 . S
C170 C171 1.392 . S
C170 H183 0.951 . S
C171 C170 1.392 . S
C171 C173 1.384 . S
H172 C174 0.949 . S
C173 C171 1.384 . S
C173 C174 1.385 1_556 S
C173 H175 0.950 . S
C174 C168 1.404 . S
C174 H172 0.949 . S
C174 C173 1.385 1_554 S
H175 C173 0.950 . S
H176 C160 0.951 . S
H177 C162 0.951 . S
H178 C164 0.951 . S
H179 C165 0.950 . S
H180 C166 0.950 . S
H181 C167 0.950 . S
H182 C169 0.950 . S
H183 C170 0.951 . S
C184 C185 1.386 . S
C184 C186 1.383 . S
C184 H200 0.951 . S
C185 C184 1.386 . S
C185 C189 1.383 . S
C186 C184 1.383 . S
C186 C187 1.402 . S
C186 H201 0.951 . S
C187 C186 1.402 . S
C187 C188 1.375 . S
C187 C190 1.481 . S
C188 C187 1.375 . S
C188 C189 1.367 . S
C188 H202 0.951 . S
C189 C185 1.383 . S
C189 C188 1.367 . S
C189 H203 0.950 . S
C190 C187 1.481 . S
C190 C191 1.297 . S
C190 H204 0.950 . S
C191 C190 1.297 . S
C191 C192 1.479 . S
C191 H205 0.950 . S
C192 C191 1.479 . S
C192 C193 1.375 . S
C192 C198 1.404 . S
C193 C192 1.375 . S
C193 C194 1.369 . S
C193 H206 0.950 . S
C194 C193 1.369 . S
C194 C195 1.392 . S
C194 H207 0.951 . S
C195 C194 1.392 . S
C195 C197 1.384 . S
H196 C198 0.949 . S
C197 C195 1.384 . S
C197 C198 1.385 . S
C197 H199 0.950 . S
C198 C192 1.404 . S
C198 H196 0.949 . S
C198 C197 1.385 . S
H199 C197 0.950 . S
H200 C184 0.951 . S
H201 C186 0.951 . S
H202 C188 0.951 . S
H203 C189 0.950 . S
H204 C190 0.950 . S
H205 C191 0.950 . S
H206 C193 0.950 . S
H207 C194 0.951 . S
C208 C209 1.386 . S
C208 C210 1.383 . S
C208 H224 0.951 . S
C209 C208 1.386 . S
C209 C213 1.383 . S
C210 C208 1.383 . S
C210 C211 1.402 . S
C210 H225 0.951 . S
C211 C210 1.402 . S
C211 C212 1.375 . S
C211 C214 1.481 . S
C212 C211 1.375 . S
C212 C213 1.367 . S
C212 H226 0.951 . S
C213 C209 1.383 . S
C213 C212 1.367 . S
C213 H227 0.950 . S
C214 C211 1.481 . S
C214 C215 1.297 . S
C214 H228 0.950 . S
C215 C214 1.297 . S
C215 C216 1.479 . S
C215 H229 0.950 . S
C216 C215 1.479 . S
C216 C217 1.375 . S
C216 C222 1.404 . S
C217 C216 1.375 . S
C217 C218 1.369 . S
C217 H230 0.950 . S
C218 C217 1.369 . S
C218 C219 1.392 . S
C218 H231 0.951 . S
C219 C218 1.392 . S
C219 C221 1.384 . S
H220 C222 0.949 . S
C221 C219 1.384 . S
C221 C222 1.385 . S
C221 H223 0.950 . S
C222 C216 1.404 . S
C222 H220 0.949 . S
C222 C221 1.385 . S
H223 C221 0.950 . S
H224 C208 0.951 . S
H225 C210 0.951 . S
H226 C212 0.951 . S
H227 C213 0.950 . S
H228 C214 0.950 . S
H229 C215 0.950 . S
H230 C217 0.950 . S
H231 C218 0.951 . S
C232 C233 1.386 . S
C232 C234 1.383 . S
C232 H248 0.951 . S
C233 C232 1.386 . S
C233 C237 1.383 . S
C234 C232 1.383 . S
C234 C235 1.402 . S
C234 H249 0.951 . S
C235 C234 1.402 . S
C235 C236 1.375 . S
C235 C238 1.481 . S
C236 C235 1.375 . S
C236 C237 1.367 . S
C236 H250 0.951 . S
C237 C233 1.383 . S
C237 C236 1.367 . S
C237 H251 0.950 . S
C238 C235 1.481 . S
C238 C239 1.297 . S
C238 H252 0.950 . S
C239 C238 1.297 . S
C239 C240 1.479 . S
C239 H253 0.950 . S
C240 C239 1.479 . S
C240 C241 1.375 . S
C240 C246 1.404 . S
C241 C240 1.375 . S
C241 C242 1.369 . S
C241 H254 0.950 . S
C242 C241 1.369 . S
C242 C243 1.392 . S
C242 H255 0.951 . S
C243 C242 1.392 . S
C243 C245 1.384 . S
H244 C246 0.949 . S
C245 C243 1.384 . S
C245 C246 1.385 . S
C245 H247 0.950 . S
C246 C240 1.404 . S
C246 H244 0.949 . S
C246 C245 1.385 . S
H247 C245 0.950 . S
H248 C232 0.951 . S
H249 C234 0.951 . S
H250 C236 0.951 . S
H251 C237 0.950 . S
H252 C238 0.950 . S
H253 C239 0.950 . S
H254 C241 0.950 . S
H255 C242 0.951 . S
C256 C257 1.386 1_556 S
C256 C258 1.383 . S
C256 H272 0.947 1_556 S
C257 C256 1.386 1_554 S
C257 C261 1.383 1_554 S
C258 C256 1.383 . S
C258 C259 1.402 . S
C258 H273 0.951 . S
C259 C258 1.402 . S
C259 C260 1.375 . S
C259 C262 1.481 . S
C260 C259 1.375 . S
C260 C261 1.367 . S
C260 H274 0.951 . S
C261 C257 1.383 1_556 S
C261 C260 1.367 . S
C261 H275 0.950 . S
C262 C259 1.481 . S
C262 C263 1.297 . S
C262 H276 0.950 . S
C263 C262 1.297 . S
C263 C264 1.479 . S
C263 H277 0.950 . S
C264 C263 1.479 . S
C264 C265 1.375 . S
C264 C270 1.404 . S
C265 C264 1.375 . S
C265 C266 1.369 . S
C265 H278 0.950 . S
C266 C265 1.369 . S
C266 C267 1.392 . S
C266 H279 0.951 . S
C267 C266 1.392 . S
C267 C269 1.384 . S
H268 C270 0.949 . S
C269 C267 1.384 . S
C269 C270 1.385 . S
C269 H271 0.950 . S
C270 C264 1.404 . S
C270 H268 0.949 . S
C270 C269 1.385 . S
H271 C269 0.950 . S
H272 C256 0.947 1_554 S
H273 C258 0.951 . S
H274 C260 0.951 . S
H275 C261 0.950 . S
H276 C262 0.950 . S
H277 C263 0.950 . S
H278 C265 0.950 . S
H279 C266 0.951 . S
C280 C281 1.386 . S
C280 C282 1.383 . S
C280 H296 0.951 . S
C281 C280 1.386 . S
C281 C285 1.383 . S
C282 C280 1.383 . S
C282 C283 1.402 . S
C282 H297 0.951 . S
C283 C282 1.402 . S
C283 C284 1.375 . S
C283 C286 1.481 . S
C284 C283 1.375 . S
C284 C285 1.367 . S
C284 H298 0.951 . S
C285 C281 1.383 . S
C285 C284 1.367 . S
C285 H299 0.950 . S
C286 C283 1.481 . S
C286 C287 1.297 . S
C286 H300 0.950 . S
C287 C286 1.297 . S
C287 C288 1.479 . S
C287 H301 0.950 . S
C288 C287 1.479 . S
C288 C289 1.375 . S
C288 C294 1.404 . S
C289 C288 1.375 . S
C289 C290 1.369 . S
C289 H302 0.950 . S
C290 C289 1.369 . S
C290 C291 1.392 . S
C290 H303 0.951 . S
C291 C290 1.392 . S
C291 C293 1.384 . S
H292 C294 0.949 . S
C293 C291 1.384 . S
C293 C294 1.385 . S
C293 H295 0.950 . S
C294 C288 1.404 . S
C294 H292 0.949 . S
C294 C293 1.385 . S
H295 C293 0.950 . S
H296 C280 0.951 . S
H297 C282 0.951 . S
H298 C284 0.951 . S
H299 C285 0.950 . S
H300 C286 0.950 . S
H301 C287 0.950 . S
H302 C289 0.950 . S
H303 C290 0.951 . S
C304 C305 1.386 . S
C304 C306 1.383 . S
C304 H320 0.951 . S
C305 C304 1.386 . S
C305 C309 1.383 . S
C306 C304 1.383 . S
C306 C307 1.402 . S
C306 H321 0.951 . S
C307 C306 1.402 . S
C307 C308 1.375 . S
C307 C310 1.481 . S
C308 C307 1.375 . S
C308 C309 1.367 . S
C308 H322 0.951 . S
C309 C305 1.383 . S
C309 C308 1.367 . S
C309 H323 0.950 . S
C310 C307 1.481 . S
C310 C311 1.297 1_565 S
C310 H324 0.945 1_565 S
C311 C310 1.297 1_545 S
C311 C312 1.479 . S
C311 H325 0.950 . S
C312 C311 1.479 . S
C312 C313 1.375 . S
C312 C318 1.404 . S
C313 C312 1.375 . S
C313 C314 1.369 . S
C313 H326 0.950 . S
C314 C313 1.369 . S
C314 C315 1.392 . S
C314 H327 0.951 . S
C315 C314 1.392 . S
C315 C317 1.384 . S
H316 C318 0.949 . S
C317 C315 1.384 . S
C317 C318 1.385 . S
C317 H319 0.950 . S
C318 C312 1.404 . S
C318 H316 0.949 . S
C318 C317 1.385 . S
H319 C317 0.950 . S
H320 C304 0.951 . S
H321 C306 0.951 . S
H322 C308 0.951 . S
H323 C309 0.950 . S
H324 C310 0.945 1_545 S
H325 C311 0.950 . S
H326 C313 0.950 . S
H327 C314 0.951 . S
C328 C329 1.386 . S
C328 C330 1.383 . S
C328 H344 0.951 . S
C329 C328 1.386 . S
C329 C333 1.383 . S
C330 C328 1.383 . S
C330 C331 1.402 . S
C330 H345 0.951 . S
C331 C330 1.402 . S
C331 C332 1.375 . S
C331 C334 1.481 . S
C332 C331 1.375 . S
C332 C333 1.367 . S
C332 H346 0.951 . S
C333 C329 1.383 . S
C333 C332 1.367 . S
C333 H347 0.950 . S
C334 C331 1.481 . S
C334 C335 1.297 1_655 S
C334 H348 0.939 1_655 S
C335 C334 1.297 1_455 S
C335 C336 1.479 . S
C335 H349 0.934 1_455 S
C336 C335 1.479 . S
C336 C337 1.375 . S
C336 C342 1.404 . S
C337 C336 1.375 . S
C337 C338 1.369 . S
C337 H350 0.950 . S
C338 C337 1.369 . S
C338 C339 1.392 . S
C338 H351 0.951 . S
C339 C338 1.392 . S
C339 C341 1.384 . S
H340 C342 0.949 . S
C341 C339 1.384 . S
C341 C342 1.385 . S
C341 H343 0.950 . S
C342 C336 1.404 . S
C342 H340 0.949 . S
C342 C341 1.385 . S
H343 C341 0.950 . S
H344 C328 0.951 . S
H345 C330 0.951 . S
H346 C332 0.951 . S
H347 C333 0.950 . S
H348 C334 0.939 1_455 S
H349 C335 0.934 1_655 S
H350 C337 0.950 . S
H351 C338 0.951 . S
C352 C353 1.386 . S
C352 C354 1.383 . S
C352 H368 0.951 . S
C353 C352 1.386 . S
C353 C357 1.383 . S
C354 C352 1.383 . S
C354 C355 1.402 . S
C354 H369 0.951 . S
C355 C354 1.402 . S
C355 C356 1.375 . S
C355 C358 1.481 . S
C356 C355 1.375 . S
C356 C357 1.367 . S
C356 H370 0.951 . S
C357 C353 1.383 . S
C357 C356 1.367 . S
C357 H371 0.950 . S
C358 C355 1.481 . S
C358 C359 1.297 1_565 S
C358 H372 0.950 . S
C359 C358 1.297 1_545 S
C359 C360 1.479 . S
C359 H373 0.950 . S
C360 C359 1.479 . S
C360 C361 1.375 . S
C360 C366 1.404 . S
C361 C360 1.375 . S
C361 C362 1.369 . S
C361 H374 0.950 . S
C362 C361 1.369 . S
C362 C363 1.392 . S
C362 H375 0.951 . S
C363 C362 1.392 . S
C363 C365 1.384 . S
H364 C366 0.949 . S
C365 C363 1.384 . S
C365 C366 1.385 . S
C365 H367 0.950 . S
C366 C360 1.404 . S
C366 H364 0.949 . S
C366 C365 1.385 . S
H367 C365 0.950 . S
H368 C352 0.951 . S
H369 C354 0.951 . S
H370 C356 0.951 . S
H371 C357 0.950 . S
H372 C358 0.950 . S
H373 C359 0.950 . S
H374 C361 0.950 . S
H375 C362 0.951 . S
C376 C377 1.386 . S
C376 C378 1.383 . S
C376 H392 0.951 . S
C377 C376 1.386 . S
C377 C381 1.383 . S
C378 C376 1.383 . S
C378 C379 1.402 . S
C378 H393 0.951 . S
C379 C378 1.402 . S
C379 C380 1.375 . S
C379 C382 1.481 . S
C380 C379 1.375 . S
C380 C381 1.367 . S
C380 H394 0.951 1_554 S
C381 C377 1.383 . S
C381 C380 1.367 . S
C381 H395 0.950 1_554 S
C382 C379 1.481 . S
C382 C383 1.297 1_655 S
C382 H396 0.932 1_655 S
C383 C382 1.297 1_455 S
C383 C384 1.479 . S
C383 H397 0.941 1_455 S
C384 C383 1.479 . S
C384 C385 1.375 . S
C384 C390 1.404 . S
C385 C384 1.375 . S
C385 C386 1.369 . S
C385 H398 0.950 . S
C386 C385 1.369 . S
C386 C387 1.392 . S
C386 H399 0.951 . S
C387 C386 1.392 . S
C387 C389 1.384 . S
H388 C390 0.949 . S
C389 C387 1.384 . S
C389 C390 1.385 . S
C389 H391 0.950 . S
C390 C384 1.404 . S
C390 H388 0.949 . S
C390 C389 1.385 . S
H391 C389 0.950 . S
H392 C376 0.951 . S
H393 C378 0.951 . S
H394 C380 0.951 1_556 S
H395 C381 0.950 1_556 S
H396 C382 0.932 1_455 S
H397 C383 0.941 1_655 S
H398 C385 0.950 . S
H399 C386 0.951 . S
C400 C401 1.386 . S
C400 C402 1.383 . S
C400 H416 0.951 . S
C401 C400 1.386 . S
C401 C405 1.383 . S
C402 C400 1.383 . S
C402 C403 1.402 1_556 S
C402 H417 0.951 1_556 S
C403 C402 1.402 1_554 S
C403 C404 1.375 1_554 S
C403 C406 1.481 . S
C404 C403 1.375 1_556 S
C404 C405 1.367 . S
C404 H418 0.951 1_556 S
C405 C401 1.383 . S
C405 C404 1.367 . S
C405 H419 0.950 . S
C406 C403 1.481 . S
C406 C407 1.297 . S
C406 H420 0.950 . S
C407 C406 1.297 . S
C407 C408 1.479 . S
C407 H421 0.950 . S
C408 C407 1.479 . S
C408 C409 1.375 . S
C408 C414 1.404 . S
C409 C408 1.375 . S
C409 C410 1.369 . S
C409 H422 0.950 . S
C410 C409 1.369 . S
C410 C411 1.392 . S
C410 H423 0.951 . S
C411 C410 1.392 . S
C411 C413 1.384 . S
H412 C414 0.949 . S
C413 C411 1.384 . S
C413 C414 1.385 . S
C413 H415 0.950 . S
C414 C408 1.404 . S
C414 H412 0.949 . S
C414 C413 1.385 . S
H415 C413 0.950 . S
H416 C400 0.951 . S
H417 C402 0.951 1_554 S
H418 C404 0.951 1_554 S
H419 C405 0.950 . S
H420 C406 0.950 . S
H421 C407 0.950 . S
H422 C409 0.950 . S
H423 C410 0.951 . S
C424 C425 1.386 . S
C424 C426 1.383 . S
C424 H440 0.951 . S
C425 C424 1.386 . S
C425 C429 1.383 . S
C426 C424 1.383 . S
C426 C427 1.402 . S
C426 H441 0.951 . S
C427 C426 1.402 . S
C427 C428 1.375 . S
C427 C430 1.481 . S
C428 C427 1.375 . S
C428 C429 1.367 . S
C428 H442 0.951 . S
C429 C425 1.383 . S
C429 C428 1.367 . S
C429 H443 0.950 . S
C430 C427 1.481 . S
C430 C431 1.297 . S
C430 H444 0.950 . S
C431 C430 1.297 . S
C431 C432 1.479 . S
C431 H445 0.950 . S
C432 C431 1.479 . S
C432 C433 1.375 . S
C432 C438 1.404 . S
C433 C432 1.375 . S
C433 C434 1.369 . S
C433 H446 0.950 . S
C434 C433 1.369 . S
C434 C435 1.392 . S
C434 H447 0.951 . S
C435 C434 1.392 . S
C435 C437 1.384 . S
H436 C438 0.949 . S
C437 C435 1.384 . S
C437 C438 1.385 . S
C437 H439 0.950 . S
C438 C432 1.404 . S
C438 H436 0.949 . S
C438 C437 1.385 . S
H439 C437 0.950 . S
H440 C424 0.951 . S
H441 C426 0.951 . S
H442 C428 0.951 . S
H443 C429 0.950 . S
H444 C430 0.950 . S
H445 C431 0.950 . S
H446 C433 0.950 . S
H447 C434 0.951 . S
C448 C449 1.386 . S
C448 C450 1.383 . S
C448 H464 0.951 . S
C449 C448 1.386 . S
C449 C453 1.383 . S
C450 C448 1.383 . S
C450 C451 1.402 . S
C450 H465 0.951 . S
C451 C450 1.402 . S
C451 C452 1.375 . S
C451 C454 1.481 . S
C452 C451 1.375 . S
C452 C453 1.367 . S
C452 H466 0.951 . S
C453 C449 1.383 . S
C453 C452 1.367 . S
C453 H467 0.950 . S
C454 C451 1.481 . S
C454 C455 1.297 . S
C454 H468 0.950 . S
C455 C454 1.297 . S
C455 C456 1.479 . S
C455 H469 0.950 . S
C456 C455 1.479 . S
C456 C457 1.375 . S
C456 C462 1.404 . S
C457 C456 1.375 . S
C457 C458 1.369 . S
C457 H470 0.950 . S
C458 C457 1.369 . S
C458 C459 1.392 . S
C458 H471 0.951 . S
C459 C458 1.392 . S
C459 C461 1.384 . S
H460 C462 0.949 . S
C461 C459 1.384 . S
C461 C462 1.385 . S
C461 H463 0.950 . S
C462 C456 1.404 . S
C462 H460 0.949 . S
C462 C461 1.385 . S
H463 C461 0.950 . S
H464 C448 0.951 . S
H465 C450 0.951 . S
H466 C452 0.951 . S
H467 C453 0.950 . S
H468 C454 0.950 . S
H469 C455 0.950 . S
H470 C457 0.950 . S
H471 C458 0.951 . S
C472 C473 1.386 . S
C472 C474 1.383 . S
C472 H488 0.951 . S
C473 C472 1.386 . S
C473 C477 1.383 . S
C474 C472 1.383 . S
C474 C475 1.402 . S
C474 H489 0.951 . S
C475 C474 1.402 . S
C475 C476 1.375 . S
C475 C478 1.481 . S
C476 C475 1.375 . S
C476 C477 1.367 . S
C476 H490 0.951 . S
C477 C473 1.383 . S
C477 C476 1.367 . S
C477 H491 0.950 . S
C478 C475 1.481 . S
C478 C479 1.297 . S
C478 H492 0.950 . S
C479 C478 1.297 . S
C479 C480 1.479 . S
C479 H493 0.950 . S
C480 C479 1.479 . S
C480 C481 1.375 . S
C480 C486 1.404 . S
C481 C480 1.375 . S
C481 C482 1.369 . S
C481 H494 0.950 . S
C482 C481 1.369 . S
C482 C483 1.392 . S
C482 H495 0.951 . S
C483 C482 1.392 . S
C483 C485 1.384 . S
H484 C486 0.949 . S
C485 C483 1.384 . S
C485 C486 1.385 . S
C485 H487 0.950 . S
C486 C480 1.404 . S
C486 H484 0.949 . S
C486 C485 1.385 . S
H487 C485 0.950 . S
H488 C472 0.951 . S
H489 C474 0.951 . S
H490 C476 0.951 . S
H491 C477 0.950 . S
H492 C478 0.950 . S
H493 C479 0.950 . S
H494 C481 0.950 . S
H495 C482 0.951 . S
C113 C8 1.125 . S
C123 C92 1.147 . S
C137 C22 1.104 . S
C147 C106 1.070 . S
C161 C64 1.139 . S
C171 C36 1.070 . S
C185 C78 1.110 . S
C195 C50 1.158 . S
C209 C6 1.521 . S
C219 C76 1.542 . S
C233 C20 1.481 . S
C243 C90 1.477 . S
C257 C104 1.503 . S
C267 C34 1.466 . S
C281 C48 1.520 . S
C291 C62 1.493 . S
C305 C65 1.562 . S
C315 C9 1.502 . S
C329 C23 1.540 . S
C339 C79 1.523 . S
C353 C37 1.543 . S
C363 C93 1.563 . S
C377 C107 1.546 . S
C387 C51 1.515 . S
C401 C91 1.348 . S
C411 C7 1.262 . S
C425 C105 1.289 . S
C435 C21 1.362 . S
C449 C35 1.309 . S
C459 C63 1.336 . S
C473 C49 1.338 . S
C483 C77 1.285 . S
