# Generated by pormake.
# Topology wjp, (5)-cn, num edge types: 1
# Building blocks:
#     Node 0, Type 0, BuildingBlock: BEQFEK_clean_sbu_0, # of connection points: 5
#     Node 1, Type 0, BuildingBlock: BEQFEK_clean_sbu_0, # of connection points: 5
#     Node 2, Type 0, BuildingBlock: BEQFEK_clean_sbu_0, # of connection points: 5
#     Node 3, Type 0, BuildingBlock: BEQFEK_clean_sbu_0, # of connection points: 5
#     Node 4, Type 0, BuildingBlock: BEQFEK_clean_sbu_0, # of connection points: 5
#     Node 5, Type 0, BuildingBlock: BEQFEK_clean_sbu_0, # of connection points: 5
#     Node 6, Type 0, BuildingBlock: BEQFEK_clean_sbu_0, # of connection points: 5
#     Node 7, Type 0, BuildingBlock: BEQFEK_clean_sbu_0, # of connection points: 5
#     Node 8, Type 0, BuildingBlock: BEQFEK_clean_sbu_0, # of connection points: 5
#     Node 9, Type 0, BuildingBlock: BEQFEK_clean_sbu_0, # of connection points: 5
#     Node 10, Type 0, BuildingBlock: BEQFEK_clean_sbu_0, # of connection points: 5
#     Node 11, Type 0, BuildingBlock: BEQFEK_clean_sbu_0, # of connection points: 5
#     Edge 12, Type (0, 0), BuildingBlock: XIVTED_clean_linker_0, # of connection points: 2
#     Edge 13, Type (0, 0), BuildingBlock: XIVTED_clean_linker_0, # of connection points: 2
#     Edge 14, Type (0, 0), BuildingBlock: XIVTED_clean_linker_0, # of connection points: 2
#     Edge 15, Type (0, 0), BuildingBlock: XIVTED_clean_linker_0, # of connection points: 2
#     Edge 16, Type (0, 0), BuildingBlock: XIVTED_clean_linker_0, # of connection points: 2
#     Edge 17, Type (0, 0), BuildingBlock: XIVTED_clean_linker_0, # of connection points: 2
#     Edge 18, Type (0, 0), BuildingBlock: XIVTED_clean_linker_0, # of connection points: 2
#     Edge 19, Type (0, 0), BuildingBlock: XIVTED_clean_linker_0, # of connection points: 2
#     Edge 20, Type (0, 0), BuildingBlock: XIVTED_clean_linker_0, # of connection points: 2
#     Edge 21, Type (0, 0), BuildingBlock: XIVTED_clean_linker_0, # of connection points: 2
#     Edge 22, Type (0, 0), BuildingBlock: XIVTED_clean_linker_0, # of connection points: 2
#     Edge 23, Type (0, 0), BuildingBlock: XIVTED_clean_linker_0, # of connection points: 2
#     Edge 24, Type (0, 0), BuildingBlock: XIVTED_clean_linker_0, # of connection points: 2
#     Edge 25, Type (0, 0), BuildingBlock: XIVTED_clean_linker_0, # of connection points: 2
#     Edge 26, Type (0, 0), BuildingBlock: XIVTED_clean_linker_0, # of connection points: 2
#     Edge 27, Type (0, 0), BuildingBlock: XIVTED_clean_linker_0, # of connection points: 2
#     Edge 28, Type (0, 0), BuildingBlock: XIVTED_clean_linker_0, # of connection points: 2
#     Edge 29, Type (0, 0), BuildingBlock: XIVTED_clean_linker_0, # of connection points: 2
#     Edge 30, Type (0, 0), BuildingBlock: XIVTED_clean_linker_0, # of connection points: 2
#     Edge 31, Type (0, 0), BuildingBlock: XIVTED_clean_linker_0, # of connection points: 2
#     Edge 32, Type (0, 0), BuildingBlock: XIVTED_clean_linker_0, # of connection points: 2
#     Edge 33, Type (0, 0), BuildingBlock: XIVTED_clean_linker_0, # of connection points: 2
#     Edge 34, Type (0, 0), BuildingBlock: XIVTED_clean_linker_0, # of connection points: 2
#     Edge 35, Type (0, 0), BuildingBlock: XIVTED_clean_linker_0, # of connection points: 2
#     Edge 36, Type (0, 0), BuildingBlock: XIVTED_clean_linker_0, # of connection points: 2
#     Edge 37, Type (0, 0), BuildingBlock: XIVTED_clean_linker_0, # of connection points: 2
#     Edge 38, Type (0, 0), BuildingBlock: XIVTED_clean_linker_0, # of connection points: 2
#     Edge 39, Type (0, 0), BuildingBlock: XIVTED_clean_linker_0, # of connection points: 2
#     Edge 40, Type (0, 0), BuildingBlock: XIVTED_clean_linker_0, # of connection points: 2
#     Edge 41, Type (0, 0), BuildingBlock: XIVTED_clean_linker_0, # of connection points: 2
# Relax obj value: 0.469
# Max RMSD: 0.250
# Mean RMSD: 0.250
data_MOF--net-wjp--node1-BEQFEK_clean_sbu_0--edge1-XIVTED_clean_linker_0
_symmetry_space_group_name_H-M    P1
_symmetry_Int_Tables_number       1
_symmetry_cell_setting            triclinic
loop_
_symmetry_equiv_pos_as_xyz
'x, y, z'
_cell_length_a     41.595882
_cell_length_b     41.612562
_cell_length_c     59.930938
_cell_angle_alpha  90.026593
_cell_angle_beta   89.938337
_cell_angle_gamma 120.03525
loop_
_atom_site_label
_atom_site_type_symbol
_atom_site_fract_x
_atom_site_fract_y
_atom_site_fract_z
_atom_type_partial_charge
Co0 Co 0.26998 0.207 0.50687 0.0
Co1 Co 0.33199 0.28734 0.49526 0.0
C2 C 0.34461 0.24602 0.53069 0.0
O3 O 0.31177 0.21978 0.52721 0.0
O4 O 0.35846 0.27611 0.51954 0.0
C5 C 0.25361 0.1347 0.51187 0.0
O6 O 0.29001 0.15216 0.5106 0.0
C7 C 0.40022 0.35136 0.47633 0.0
C8 C 0.37778 0.38739 0.46626 0.0
C9 C 0.40969 0.38485 0.46602 0.0
N10 N 0.3641 0.33471 0.48213 0.0
N11 N 0.35102 0.35654 0.47613 0.0
C12 C 0.42547 0.33655 0.4818 0.0
H13 H 0.40978 0.30862 0.48947 0.0
H14 H 0.43962 0.33481 0.46657 0.0
H15 H 0.44729 0.35585 0.4935 0.0
C16 C 0.27807 0.19428 0.45946 0.0
N17 N 0.28688 0.21692 0.47723 0.0
N18 N 0.31515 0.24978 0.47222 0.0
C19 C 0.32609 0.24831 0.45111 0.0
C20 C 0.30288 0.21312 0.44244 0.0
C21 C 0.24786 0.15443 0.45912 0.0
H22 H 0.2591 0.13685 0.46522 0.0
H23 H 0.2373 0.14525 0.44197 0.0
H24 H 0.22442 0.15031 0.46988 0.0
O25 O 0.24392 0.23342 0.51432 0.0
O26 O 0.28863 0.2914 0.50805 0.0
H27 H 0.35695 0.30499 0.4406 0.0
H28 H 0.3598 0.27259 0.42172 0.0
C29 C 0.35867 0.2793 0.43953 0.0
H30 H 0.38448 0.2842 0.44788 0.0
H31 H 0.32359 0.35013 0.4785 0.0
O32 O 0.23707 0.15334 0.51078 0.0
C33 C 0.25554 0.26806 0.5142 0.0
Co34 Co 0.05449 0.26486 0.66002 0.0
Co35 Co 0.04527 0.33412 0.65799 0.0
C36 C 0.10202 0.33611 0.6872 0.0
O37 O 0.09083 0.30316 0.68057 0.0
O38 O 0.08676 0.35424 0.6803 0.0
C39 C 0.1065 0.24483 0.65384 0.0
O40 O 0.12486 0.28073 0.64997 0.0
C41 C 0.05208 0.40682 0.64595 0.0
C42 C 0.99287 0.3887 0.64043 0.0
C43 C 0.0282 0.41928 0.6394 0.0
N44 N 0.03165 0.37023 0.65036 0.0
N45 N 0.9963 0.35981 0.64724 0.0
C46 C 0.09323 0.42964 0.64895 0.0
H47 H 0.10495 0.41207 0.65422 0.0
H48 H 0.10666 0.44417 0.63322 0.0
H49 H 0.0995 0.45126 0.66177 0.0
C50 C 0.06687 0.27809 0.61197 0.0
N51 N 0.05714 0.2857 0.63183 0.0
N52 N 0.05953 0.31841 0.63108 0.0
C53 C 0.07365 0.33368 0.61089 0.0
C54 C 0.07877 0.30857 0.59819 0.0
C55 C 0.06825 0.24361 0.60672 0.0
H56 H 0.05047 0.22088 0.61836 0.0
H57 H 0.09737 0.24958 0.60762 0.0
H58 H 0.05841 0.23442 0.58943 0.0
O59 O 0.00428 0.24172 0.67158 0.0
O60 O -0.00194 0.29163 0.67172 0.0
H61 H 0.06192 0.37784 0.60708 0.0
H62 H 0.0938 0.37786 0.58659 0.0
C63 C 0.08525 0.37261 0.60438 0.0
H64 H 0.10901 0.39194 0.61491 0.0
H65 H 0.97446 0.33266 0.64925 0.0
O66 O 0.07204 0.22915 0.65825 0.0
C67 C 0.98514 0.2571 0.67561 0.0
Co68 Co 0.79139 0.07014 0.83442 0.0
Co69 Co 0.70999 0.051 0.82693 0.0
C70 C 0.75576 0.10815 0.85954 0.0
O71 O 0.78172 0.10174 0.85463 0.0
O72 O 0.72394 0.09024 0.85038 0.0
C73 C 0.864 0.12626 0.8337 0.0
O74 O 0.84651 0.14506 0.83163 0.0
C75 C 0.6429 0.05222 0.81126 0.0
C76 C 0.60572 0.99249 0.80443 0.0
C77 C 0.60789 0.02671 0.80339 0.0
N78 N 0.66079 0.03379 0.8165 0.0
N79 N 0.63827 0.99812 0.81248 0.0
C80 C 0.65823 0.09287 0.81493 0.0
H81 H 0.68763 0.10643 0.82036 0.0
H82 H 0.65619 0.10626 0.79944 0.0
H83 H 0.64147 0.09687 0.82789 0.0
C84 C 0.79717 0.08531 0.78631 0.0
N85 N 0.77706 0.0733 0.80519 0.0
N86 N 0.74411 0.06964 0.80195 0.0
C87 C 0.74326 0.08135 0.78096 0.0
C88 C 0.77689 0.09159 0.77047 0.0
C89 C 0.83626 0.09315 0.78371 0.0
H90 H 0.84174 0.0755 0.79511 0.0
H91 H 0.85577 0.12288 0.78727 0.0
H92 H 0.84143 0.08769 0.76634 0.0
O93 O 0.76656 0.01892 0.84447 0.0
O94 O 0.70807 0.00543 0.84076 0.0
H95 H 0.6855 0.05814 0.77368 0.0
H96 H 0.71626 0.09131 0.75326 0.0
C97 C 0.71191 0.08458 0.77133 0.0
H98 H 0.70998 0.10698 0.78011 0.0
H99 H 0.64532 0.97759 0.81496 0.0
O100 O 0.8452 0.09118 0.83551 0.0
C101 C 0.732 0.99623 0.84635 0.0
Co102 Co 0.72941 0.78739 0.00639 0.0
Co103 Co 0.66752 0.70919 0.99121 0.0
C104 C 0.65418 0.74429 0.02969 0.0
O105 O 0.68734 0.77059 0.02723 0.0
O106 O 0.63988 0.71644 0.01654 0.0
C107 C 0.74591 0.85847 0.01732 0.0
O108 O 0.70945 0.84121 0.01732 0.0
C109 C 0.60059 0.64528 0.97109 0.0
C110 C 0.6281 0.62315 0.94943 0.0
C111 C 0.59379 0.61863 0.95496 0.0
N112 N 0.63746 0.6649 0.97471 0.0
N113 N 0.65356 0.65113 0.96192 0.0
C114 C 0.57318 0.6543 0.98122 0.0
H115 H 0.587 0.684 0.98604 0.0
H116 H 0.55016 0.64781 0.96942 0.0
H117 H 0.56128 0.63722 0.99646 0.0
C118 C 0.72121 0.8072 0.96043 0.0
N119 N 0.71257 0.78219 0.97689 0.0
N120 N 0.68459 0.75002 0.9706 0.0
C121 C 0.67363 0.75413 0.95005 0.0
C122 C 0.69668 0.79041 0.94297 0.0
C123 C 0.75089 0.84716 0.96193 0.0
H124 H 0.77494 0.84991 0.97148 0.0
H125 H 0.73956 0.86293 0.97056 0.0
H126 H 0.76045 0.85952 0.94515 0.0
O127 O 0.75572 0.7603 0.01075 0.0
O128 O 0.71025 0.70331 1.00296 0.0
H129 H 0.64643 0.70149 0.93369 0.0
H130 H 0.63606 0.73516 0.92189 0.0
C131 C 0.64113 0.72444 0.93767 0.0
H132 H 0.61603 0.71325 0.94833 0.0
H133 H 0.68221 0.66185 0.96109 0.0
O134 O 0.76216 0.84021 0.01304 0.0
C135 C 0.74352 0.72565 0.00921 0.0
Co136 Co 0.94043 0.73385 0.15786 0.0
Co137 Co 0.95295 0.66674 0.15596 0.0
C138 C 0.89531 0.66305 0.18546 0.0
O139 O 0.9051 0.69558 0.17868 0.0
O140 O 0.91165 0.64597 0.17853 0.0
C141 C 0.88766 0.75347 0.15339 0.0
O142 O 0.86883 0.71761 0.14943 0.0
C143 C 0.94641 0.59442 0.14431 0.0
C144 C 0.00548 0.61227 0.13838 0.0
C145 C 0.97006 0.58176 0.13762 0.0
N146 N 0.96704 0.63102 0.14852 0.0
N147 N 0.00231 0.64133 0.14517 0.0
C148 C 0.90529 0.57187 0.14767 0.0
H149 H 0.89347 0.59001 0.15126 0.0
H150 H 0.89161 0.55472 0.13274 0.0
H151 H 0.89938 0.55261 0.16188 0.0
C152 C 0.92786 0.72005 0.10985 0.0
N153 N 0.93789 0.71301 0.12976 0.0
N154 N 0.93805 0.68151 0.12889 0.0
C155 C 0.92571 0.66645 0.10843 0.0
C156 C 0.91878 0.69038 0.09576 0.0
C157 C 0.92351 0.75297 0.10494 0.0
H158 H 0.94047 0.77608 0.11653 0.0
H159 H 0.89381 0.74491 0.10635 0.0
H160 H 0.93257 0.76288 0.08766 0.0
O161 O 0.99071 0.75815 0.16911 0.0
O162 O -0.00037 0.7099 0.16952 0.0
H163 H 0.94286 0.62611 0.10482 0.0
H164 H 0.91172 0.62436 0.08326 0.0
C165 C 0.91824 0.62893 0.10134 0.0
H166 H 0.89424 0.60752 0.11088 0.0
H167 H 0.02422 0.6685 0.14698 0.0
O168 O 0.92241 0.76903 0.15667 0.0
C169 C 0.0111 0.74421 0.17322 0.0
Co170 Co 0.20508 0.92951 0.33971 0.0
Co171 Co 0.28593 0.95043 0.32722 0.0
C172 C 0.24521 0.89295 0.36101 0.0
O173 O 0.21847 0.89907 0.35832 0.0
O174 O 0.27544 0.91086 0.35008 0.0
C175 C 0.13166 0.87372 0.34516 0.0
O176 O 0.14792 0.85362 0.34446 0.0
C177 C 0.35037 0.95001 0.30603 0.0
C178 C 0.38089 0.0079 0.29385 0.0
C179 C 0.3806 0.97449 0.29309 0.0
N180 N 0.33324 0.96813 0.31353 0.0
N181 N 0.3522 0.00289 0.3066 0.0
C182 C 0.33568 0.90936 0.30929 0.0
H183 H 0.30632 0.89535 0.31491 0.0
H184 H 0.33804 0.89649 0.2936 0.0
H185 H 0.35245 0.90549 0.32226 0.0
C186 C 0.19226 0.9118 0.29192 0.0
N187 N 0.21507 0.92518 0.30964 0.0
N188 N 0.2483 0.93127 0.30411 0.0
C189 C 0.247 0.92065 0.28258 0.0
C190 C 0.2115 0.90798 0.2743 0.0
C191 C 0.15185 0.90007 0.29222 0.0
H192 H 0.14702 0.91885 0.30303 0.0
H193 H 0.13576 0.8713 0.29869 0.0
H194 H 0.14154 0.90038 0.27522 0.0
O195 O 0.23114 0.98135 0.34889 0.0
O196 O 0.28932 0.99594 0.34207 0.0
H197 H 0.30377 0.94892 0.272 0.0
H198 H 0.27189 0.91592 0.25202 0.0
C199 C 0.27845 0.92143 0.27006 0.0
H200 H 0.28375 0.89976 0.27681 0.0
H201 H 0.34434 0.02272 0.30956 0.0
O202 O 0.15142 0.90881 0.34382 0.0
C203 C 0.26571 0.00466 0.34914 0.0
Co204 Co 0.7849 0.72739 0.33302 0.0
Co205 Co 0.70516 0.66483 0.34549 0.0
C206 C 0.7438 0.65341 0.30825 0.0
O207 O 0.76992 0.68636 0.31164 0.0
O208 O 0.71478 0.63848 0.32045 0.0
C209 C 0.8565 0.74232 0.32626 0.0
O210 O 0.83822 0.70586 0.32659 0.0
C211 C 0.6407 0.59783 0.36531 0.0
C212 C 0.61112 0.62428 0.38031 0.0
C213 C 0.61058 0.5908 0.37881 0.0
N214 N 0.65841 0.634 0.35959 0.0
N215 N 0.64011 0.64934 0.36829 0.0
C216 C 0.65457 0.57187 0.35967 0.0
H217 H 0.68389 0.58753 0.35399 0.0
H218 H 0.65206 0.55446 0.37433 0.0
H219 H 0.63744 0.55324 0.34597 0.0
C220 C 0.79983 0.71786 0.3798 0.0
N221 N 0.7764 0.70943 0.36247 0.0
N222 N 0.74374 0.68111 0.36778 0.0
C223 C 0.74609 0.66983 0.38863 0.0
C224 C 0.78167 0.6928 0.39681 0.0
C225 C 0.83966 0.74813 0.37976 0.0
H226 H 0.84327 0.7718 0.36944 0.0
H227 H 0.85703 0.73713 0.37292 0.0
H228 H 0.84955 0.75825 0.3969 0.0
O229 O 0.75866 0.75427 0.32721 0.0
O230 O 0.70116 0.7083 0.33324 0.0
H231 H 0.69 0.63967 0.40032 0.0
H232 H 0.72306 0.63604 0.41812 0.0
C233 C 0.71544 0.63743 0.40055 0.0
H234 H 0.70961 0.61152 0.39193 0.0
H235 H 0.64841 0.67743 0.36685 0.0
O236 O 0.8386 0.7595 0.32839 0.0
C237 C 0.72383 0.74177 0.3275 0.0
Co238 Co 0.0633 0.78635 0.50112 0.0
Co239 Co 0.04242 0.70535 0.51262 0.0
C240 C 0.10048 0.74706 0.47939 0.0
O241 O 0.09417 0.77358 0.48244 0.0
O242 O 0.0824 0.71648 0.48991 0.0
C243 C 0.12016 0.85882 0.4979 0.0
O244 O 0.13893 0.84136 0.50025 0.0
C245 C 0.04354 0.64104 0.53306 0.0
C246 C 0.98537 0.60899 0.54468 0.0
C247 C 0.01922 0.61014 0.54558 0.0
N248 N 0.02491 0.65768 0.52568 0.0
N249 N 0.99 0.63784 0.53226 0.0
C250 C 0.08445 0.65682 0.53014 0.0
H251 H 0.09798 0.68635 0.52498 0.0
H252 H 0.09715 0.65426 0.54583 0.0
H253 H 0.08925 0.64097 0.51695 0.0
C254 C 0.07874 0.7975 0.54917 0.0
N255 N 0.06652 0.77536 0.5311 0.0
N256 N 0.06095 0.7422 0.53625 0.0
C257 C 0.07103 0.74299 0.55785 0.0
C258 C 0.08263 0.77803 0.56659 0.0
C259 C 0.08907 0.83753 0.54947 0.0
H260 H 0.07128 0.84238 0.53781 0.0
H261 H 0.11861 0.8549 0.54455 0.0
H262 H 0.08588 0.84626 0.56641 0.0
O263 O 0.01183 0.76077 0.49145 0.0
O264 O 0.99707 0.70239 0.49769 0.0
H265 H 0.07537 0.71748 0.58819 0.0
H266 H 0.09309 0.70721 0.56345 0.0
C267 C 0.07067 0.71153 0.57005 0.0
H268 H 0.0436 0.68589 0.56763 0.0
H269 H 0.96978 0.64517 0.52931 0.0
O270 O 0.08492 0.84012 0.49752 0.0
C271 C 0.98852 0.72622 0.49082 0.0
Co272 Co 0.26878 0.05889 0.67082 0.0
Co273 Co 0.3296 0.0388 0.68153 0.0
C274 C 0.34444 0.09612 0.64807 0.0
O275 O 0.31154 0.08937 0.65146 0.0
O276 O 0.3577 0.07871 0.65856 0.0
C277 C 0.25158 0.11443 0.66522 0.0
O278 O 0.28781 0.13438 0.6674 0.0
C279 C 0.39569 0.04 0.70106 0.0
C280 C 0.37 0.98159 0.71208 0.0
C281 C 0.4027 0.01544 0.71296 0.0
N282 N 0.36019 0.02146 0.69404 0.0
N283 N 0.34537 0.98643 0.70026 0.0
C284 C 0.4207 0.08095 0.69833 0.0
H285 H 0.4045 0.09447 0.6936 0.0
H286 H 0.43631 0.09341 0.71397 0.0
H287 H 0.44108 0.08604 0.6849 0.0
C288 C 0.27561 0.07672 0.71858 0.0
N289 N 0.28445 0.06352 0.70053 0.0
N290 N 0.31182 0.05745 0.70541 0.0
C291 C 0.32179 0.06777 0.72692 0.0
C292 C 0.2992 0.08031 0.73582 0.0
C293 C 0.24713 0.08869 0.71882 0.0
H294 H 0.22317 0.07001 0.7082 0.0
H295 H 0.25978 0.11743 0.7123 0.0
H296 H 0.23702 0.08847 0.73597 0.0
O297 O 0.24276 0.00713 0.66178 0.0
O298 O 0.28702 0.99308 0.6671 0.0
H299 H 0.35111 0.03967 0.73602 0.0
H300 H 0.35157 0.07094 0.75707 0.0
C301 C 0.35276 0.06675 0.73886 0.0
H302 H 0.3796 0.08923 0.7324 0.0
H303 H 0.31775 0.9662 0.69744 0.0
O304 O 0.23578 0.07935 0.66679 0.0
C305 C 0.25422 0.98406 0.66087 0.0
Co306 Co 0.21001 0.27109 0.83157 0.0
Co307 Co 0.2891 0.33112 0.84658 0.0
C308 C 0.25529 0.34504 0.80764 0.0
O309 O 0.22817 0.3124 0.81028 0.0
O310 O 0.28297 0.35892 0.8209 0.0
C311 C 0.1393 0.25565 0.81981 0.0
O312 O 0.15705 0.29205 0.81858 0.0
C313 C 0.35347 0.39752 0.86648 0.0
C314 C 0.37618 0.36997 0.88757 0.0
C315 C 0.38048 0.40428 0.88232 0.0
N316 N 0.33385 0.36071 0.86275 0.0
N317 N 0.34797 0.34457 0.87517 0.0
C318 C 0.34403 0.4249 0.8568 0.0
H319 H 0.31426 0.41094 0.8521 0.0
H320 H 0.35041 0.44761 0.86883 0.0
H321 H 0.36094 0.43721 0.84154 0.0
C322 C 0.19083 0.28103 0.8773 0.0
N323 N 0.21573 0.28872 0.86088 0.0
N324 N 0.24848 0.31562 0.86726 0.0
C325 C 0.24498 0.32666 0.88795 0.0
C326 C 0.20839 0.30494 0.8949 0.0
C327 C 0.15046 0.25249 0.87579 0.0
H328 H 0.14687 0.22757 0.86686 0.0
H329 H 0.13581 0.26432 0.86642 0.0
H330 H 0.13758 0.2442 0.89255 0.0
O331 O 0.23546 0.24323 0.82747 0.0
O332 O 0.2932 0.28725 0.83502 0.0
H333 H 0.29796 0.35125 0.90389 0.0
H334 H 0.26559 0.36242 0.91689 0.0
C335 C 0.27562 0.35779 0.9007 0.0
H336 H 0.28736 0.38355 0.89064 0.0
H337 H 0.33731 0.31593 0.87586 0.0
O338 O 0.15712 0.23934 0.82504 0.0
C339 C 0.26987 0.25419 0.82888 0.0
Co340 Co 0.93294 0.20709 0.00841 0.0
Co341 Co 0.95205 0.2882 0.01734 0.0
C342 C 0.89373 0.24363 0.98534 0.0
O343 O 0.90061 0.21773 0.98944 0.0
O344 O 0.91183 0.27525 0.99476 0.0
C345 C 0.87674 0.13445 0.00867 0.0
O346 O 0.85811 0.1519 0.0118 0.0
C347 C 0.95275 0.35481 0.03593 0.0
C348 C 0.01069 0.38526 0.04805 0.0
C349 C 0.97759 0.38563 0.0483 0.0
N350 N 0.97035 0.33667 0.02932 0.0
N351 N 0.00517 0.35563 0.03613 0.0
C352 C 0.9122 0.34056 0.03257 0.0
H353 H 0.89786 0.31117 0.02707 0.0
H354 H 0.89939 0.34332 0.04817 0.0
H355 H 0.90867 0.3574 0.01948 0.0
C356 C 0.91895 0.19954 0.05666 0.0
N357 N 0.93085 0.22039 0.03805 0.0
N358 N 0.93416 0.25305 0.04187 0.0
C359 C 0.92227 0.2529 0.06297 0.0
C360 C 0.91223 0.21899 0.07291 0.0
C361 C 0.91106 0.16036 0.05848 0.0
H362 H 0.92818 0.15515 0.04645 0.0
H363 H 0.88114 0.14101 0.05533 0.0
H364 H 0.91731 0.15471 0.07553 0.0
O365 O 0.98376 0.23233 0.99761 0.0
O366 O 0.99695 0.29057 1.00216 0.0
H367 H 0.94489 0.31001 0.0717 0.0
H368 H 0.91101 0.27796 0.09124 0.0
C369 C 0.9184 0.28345 0.0733 0.0
H370 H 0.89621 0.28575 0.06455 0.0
H371 H 0.02463 0.34709 0.03379 0.0
O372 O 0.91176 0.15327 0.00637 0.0
C373 C 0.00614 0.26696 0.99582 0.0
Co374 Co 0.72694 0.93847 0.17704 0.0
Co375 Co 0.65998 0.95111 0.18108 0.0
C376 C 0.65561 0.89496 0.14984 0.0
O377 O 0.68834 0.90449 0.15606 0.0
O378 O 0.63863 0.91081 0.15773 0.0
C379 C 0.74678 0.88557 0.17908 0.0
O380 O 0.71096 0.86633 0.18317 0.0
C381 C 0.58786 0.94401 0.19446 0.0
C382 C 0.6058 0.00295 0.20088 0.0
C383 C 0.57534 0.96751 0.20174 0.0
N384 N 0.62433 0.96476 0.18978 0.0
N385 N 0.63468 -5e-05 0.19347 0.0
C386 C 0.56525 0.90298 0.1909 0.0
H387 H 0.58329 0.89137 0.18647 0.0
H388 H 0.549 0.889 0.20607 0.0
H389 H 0.54515 0.89725 0.1772 0.0
C390 C 0.71455 0.92369 0.22497 0.0
N391 N 0.70664 0.93418 0.2055 0.0
N392 N 0.67548 0.93489 0.20731 0.0
C393 C 0.66155 0.9226 0.22802 0.0
C394 C 0.68591 0.91515 0.23981 0.0
C395 C 0.74744 0.91884 0.22884 0.0
H396 H 0.77034 0.93653 0.21728 0.0
H397 H 0.73919 0.88926 0.22642 0.0
H398 H 0.75771 0.92652 0.24618 0.0
O399 O 0.75115 0.9895 0.1672 0.0
O400 O 0.70309 -0.00123 0.1682 0.0
H401 H 0.62256 0.94115 0.23315 0.0
H402 H 0.62146 0.90977 0.25436 0.0
C403 C 0.62489 0.91616 0.23623 0.0
H404 H 0.60245 0.89239 0.22708 0.0
H405 H 0.66174 0.02193 0.19139 0.0
O406 O 0.76219 0.92049 0.17675 0.0
C407 C 0.73738 0.01035 0.16426 0.0
H408 H 0.5801 0.5166 0.3676 0.0
H409 H 0.45232 0.37245 0.43598 0.0
H410 H 0.58318 0.58915 0.42004 0.0
H411 H 0.44513 0.45949 0.47055 0.0
H412 H 0.50597 0.41932 0.41527 0.0
H413 H 0.53552 0.46324 0.38945 0.0
C414 C 0.57213 0.52126 0.38394 0.0
C415 C 0.58562 0.55741 0.39205 0.0
C416 C 0.49284 0.42834 0.42736 0.0
C417 C 0.53447 0.49644 0.41731 0.0
C418 C 0.46268 0.40147 0.43962 0.0
C419 C 0.44481 0.41221 0.45532 0.0
C420 C 0.50478 0.46614 0.43071 0.0
C421 C 0.45831 0.45013 0.45866 0.0
C422 C 0.54655 0.49067 0.3965 0.0
C423 C 0.57335 0.56181 0.41304 0.0
N424 N 0.48741 0.47567 0.44646 0.0
N425 N 0.54842 0.53179 0.42482 0.0
H426 H -0.00218 0.46122 0.65068 0.0
H427 H 0.06691 0.58264 0.53926 0.0
H428 H 0.07525 0.45658 0.60483 0.0
H429 H 0.9897 0.58496 0.58647 0.0
H430 H 0.07688 0.54244 0.56486 0.0
H431 H 0.00165 0.51324 0.62963 0.0
C432 C 0.01638 0.4719 0.63647 0.0
C433 C 0.03672 0.45515 0.62967 0.0
C434 C 0.05808 0.55212 0.56968 0.0
C435 C 0.04034 0.51372 0.60494 0.0
C436 C 0.05252 0.5752 0.55511 0.0
C437 C 0.02745 0.58717 0.56075 0.0
C438 C 0.03836 0.54102 0.58993 0.0
C439 C 0.00897 0.57604 0.58132 0.0
C440 C 0.01843 0.50142 0.62435 0.0
C441 C 0.05995 0.46949 0.61096 0.0
N442 N 0.0147 0.55357 0.59508 0.0
N443 N 0.06079 0.49772 0.59904 0.0
H444 H 0.47768 0.06397 0.70609 0.0
H445 H 0.53485 0.99077 0.8137 0.0
H446 H 0.39997 0.98396 0.75291 0.0
H447 H 0.61525 0.07461 0.76986 0.0
H448 H 0.48525 0.99307 0.79336 0.0
H449 H 0.52882 0.07322 0.73062 0.0
C450 C 0.47132 0.04881 0.72165 0.0
C451 C 0.43451 0.02323 0.72749 0.0
C452 C 0.51375 0.01151 0.78836 0.0
C453 C 0.49268 0.03323 0.7554 0.0
C454 C 0.542 0.01027 0.80005 0.0
C455 C 0.57905 0.03299 0.79365 0.0
C456 C 0.52256 0.03508 0.76978 0.0
C457 C 0.58702 0.05743 0.77568 0.0
C458 C 0.50051 0.05395 0.73559 0.0
C459 C 0.42794 0.0037 0.74762 0.0
N460 N 0.55891 0.05757 0.76417 0.0
N461 N 0.45668 0.00903 0.76076 0.0
H462 H 0.58187 0.60425 0.91071 0.0
H463 H 0.39569 0.41565 0.92653 0.0
H464 H 0.52637 0.57253 0.97442 0.0
H465 H 0.42557 0.47214 0.86312 0.0
H466 H 0.44387 0.47208 0.94456 0.0
H467 H 0.52563 0.55562 0.89278 0.0
C468 C 0.55759 0.58724 0.92086 0.0
C469 C 0.55857 0.59227 0.94403 0.0
C470 C 0.43952 0.47234 0.92677 0.0
C471 C 0.49455 0.53633 0.92376 0.0
C472 C 0.41222 0.44016 0.91647 0.0
C473 C 0.40679 0.43942 0.89336 0.0
C474 C 0.46218 0.50368 0.91374 0.0
C475 C 0.42876 0.47179 0.88103 0.0
C476 C 0.52552 0.55967 0.91063 0.0
C477 C 0.52651 0.56966 0.95648 0.0
N478 N 0.45597 0.50254 0.89133 0.0
N479 N 0.49589 0.54219 0.94621 0.0
H480 H 0.00517 0.40893 0.0897 0.0
H481 H 0.92236 0.54425 0.1034 0.0
H482 H 0.93323 0.41663 0.04083 0.0
H483 H 0.00029 0.53962 0.14875 0.0
H484 H 0.91762 0.49082 0.08322 0.0
H485 H 0.99617 0.45052 0.11399 0.0
C486 C 0.98736 0.41937 0.08409 0.0
C487 C 0.97004 0.40943 0.06317 0.0
C488 C 0.93511 0.50097 0.09787 0.0
C489 C 0.9596 0.45735 0.09099 0.0
C490 C 0.93736 0.53107 0.10961 0.0
C491 C 0.96116 0.54571 0.12802 0.0
C492 C 0.95709 0.4858 0.10457 0.0
C493 C 0.9814 0.52883 0.13473 0.0
C494 C 0.98207 0.44301 0.09804 0.0
C495 C 0.94683 0.42333 0.05692 0.0
N496 N 0.97905 0.4999 0.12294 0.0
N497 N 0.94252 0.44693 0.07072 0.0
H498 H 0.5376 0.91881 0.2356 0.0
H499 H 0.40333 0.00254 0.25167 0.0
H500 H 0.53349 -0.00157 0.19149 0.0
H501 H 0.41095 0.92931 0.2996 0.0
H502 H 0.44449 0.99369 0.22685 0.0
H503 H 0.48436 0.91387 0.25621 0.0
C504 C 0.52458 0.93417 0.22976 0.0
C505 C 0.53935 0.95852 0.21157 0.0
C506 C 0.43703 0.97925 0.2427 0.0
C507 C 0.47961 0.95417 0.2355 0.0
C508 C 0.41362 0.98443 0.25695 0.0
C509 C 0.40379 0.96672 0.27778 0.0
C510 C 0.45127 0.9565 0.24936 0.0
C511 C 0.41753 0.94319 0.2836 0.0
C512 C 0.49459 0.9318 0.24173 0.0
C513 C 0.52264 0.97915 0.20533 0.0
N514 N 0.44092 0.93901 0.26952 0.0
N515 N 0.49381 0.97664 0.21733 0.0
H516 H 0.19475 0.90613 0.50001 0.0
H517 H 0.17828 0.08901 0.50832 0.0
H518 H 0.08994 0.90412 0.49831 0.0
H519 H 0.28113 0.08771 0.51407 0.0
H520 H 0.14493 0.0214 0.50455 0.0
H521 H 0.22669 0.97321 0.50428 0.0
C522 C 0.17845 0.91985 0.50041 0.0
C523 C 0.13964 0.89957 0.49883 0.0
C524 C 0.17478 0.03596 0.50674 0.0
C525 C 0.17602 0.97638 0.50388 0.0
C526 C 0.19378 0.07448 0.50898 0.0
C527 C 0.23251 0.09393 0.51144 0.0
C528 C 0.19474 0.01697 0.50694 0.0
C529 C 0.25127 0.07383 0.51211 0.0
C530 C 0.1967 0.95817 0.50294 0.0
C531 C 0.11993 0.91877 0.49944 0.0
N532 N 0.2322 0.03645 0.50978 0.0
N533 N 0.13838 0.95622 0.50197 0.0
H534 H 0.07791 0.1704 0.66126 0.0
H535 H 0.27755 0.18747 0.65645 0.0
H536 H 0.17952 0.27114 0.64484 0.0
H537 H 0.17595 0.08317 0.66596 0.0
H538 H 0.24128 0.21809 0.65152 0.0
H539 H 0.11251 0.13712 0.66218 0.0
C540 C 0.10742 0.18544 0.65773 0.0
C541 C 0.12599 0.2236 0.65316 0.0
C542 C 0.22684 0.18847 0.65459 0.0
C543 C 0.16554 0.18593 0.65424 0.0
C544 C 0.24756 0.171 0.65748 0.0
C545 C 0.22969 0.13279 0.66173 0.0
C546 C 0.18797 0.16764 0.6561 0.0
C547 C 0.19078 0.11274 0.66274 0.0
C548 C 0.12711 0.16646 0.65825 0.0
C549 C 0.16414 0.24175 0.6486 0.0
N550 N 0.17114 0.13048 0.66006 0.0
N551 N 0.18269 0.22277 0.64939 0.0
H552 H 0.09302 0.18121 0.82637 0.0
H553 H 0.91113 0.19961 0.82532 0.0
H554 H 0.09296 0.28254 0.81079 0.0
H555 H 0.90886 0.09576 0.83565 0.0
H556 H 0.97792 0.23014 0.81941 0.0
H557 H 0.02534 0.14865 0.8285 0.0
C558 C 0.07875 0.19651 0.82316 0.0
C559 C 0.09857 0.23468 0.81858 0.0
C560 C 0.96284 0.20067 0.82295 0.0
C561 C 0.02142 0.19778 0.82122 0.0
C562 C 0.92472 0.18325 0.82644 0.0
C563 C 0.90451 0.14515 0.83107 0.0
C564 C 0.98087 0.17984 0.8242 0.0
C565 C 0.92348 0.12526 0.8322 0.0
C566 C 0.04015 0.17794 0.82445 0.0
C567 C 0.07875 0.25314 0.81453 0.0
N568 N 0.96071 0.1429 0.82882 0.0
N569 N 0.04123 0.23454 0.81611 0.0
H570 H 0.82062 0.90462 0.01123 0.0
H571 H 0.80363 0.0872 0.01763 0.0
H572 H 0.7194 0.90478 0.02715 0.0
H573 H 0.90686 0.0894 0.00455 0.0
H574 H 0.7729 0.02019 0.02216 0.0
H575 H 0.8537 0.97245 0.01039 0.0
C576 C 0.80546 0.91893 0.01478 0.0
C577 C 0.76718 0.89913 0.01909 0.0
C578 C 0.80228 0.03528 0.01831 0.0
C579 C 0.80464 0.9764 0.01795 0.0
C580 C 0.81982 0.07355 0.01562 0.0
C581 C 0.8578 0.09382 0.01059 0.0
C582 C 0.82283 0.01711 0.01588 0.0
C583 C 0.87745 0.07474 0.00832 0.0
C584 C 0.82431 0.9576 0.01422 0.0
C585 C 0.74887 0.91897 0.02357 0.0
N586 N 0.85969 0.03734 0.01094 0.0
N587 N 0.76774 0.95653 0.02274 0.0
H588 H 0.72011 0.81111 0.17838 0.0
H589 H 0.91785 0.82823 0.15982 0.0
H590 H 0.82168 0.9166 0.17273 0.0
H591 H 0.81316 0.72645 0.15191 0.0
H592 H 0.884 0.86142 0.16624 0.0
H593 H 0.75495 0.77956 0.17121 0.0
C594 C 0.74981 0.82764 0.17574 0.0
C595 C 0.76808 0.8665 0.17609 0.0
C596 C 0.86853 0.83187 0.16297 0.0
C597 C 0.80805 0.83059 0.16773 0.0
C598 C 0.88778 0.81295 0.15929 0.0
C599 C 0.86821 0.77456 0.15545 0.0
C600 C 0.82956 0.81209 0.16293 0.0
C601 C 0.82934 0.75606 0.15486 0.0
C602 C 0.76965 0.80961 0.17152 0.0
C603 C 0.80656 0.88655 0.17253 0.0
N604 N 0.81127 0.775 0.15871 0.0
N605 N 0.82537 0.86831 0.16848 0.0
H606 H 0.0887 0.90646 0.34258 0.0
H607 H 0.9021 0.71314 0.32355 0.0
H608 H 0.08204 0.79951 0.34431 0.0
H609 H 0.9037 0.81715 0.33128 0.0
H610 H 0.96906 0.74559 0.32865 0.0
H611 H 0.02149 0.87519 0.337 0.0
C612 C 0.07307 0.87642 0.34198 0.0
C613 C 0.09094 0.85552 0.34386 0.0
C614 C 0.95483 0.76138 0.32918 0.0
C615 C 0.0144 0.81976 0.33723 0.0
C616 C 0.91659 0.74289 0.32616 0.0
C617 C 0.89731 0.76248 0.32708 0.0
C618 C 0.97401 0.79977 0.33313 0.0
C619 C 0.91754 0.801 0.33045 0.0
C620 C 0.03478 0.85863 0.33871 0.0
C621 C 0.06943 0.81672 0.3429 0.0
N622 N 0.95488 0.81844 0.33344 0.0
N623 N 0.0323 0.80011 0.33955 0.0
H624 H 0.33397 0.05568 0.36651 0.0
H625 H 0.25892 0.19036 0.4057 0.0
H626 H 0.22528 0.03949 0.3519 0.0
H627 H 0.3553 0.19364 0.43444 0.0
H628 H 0.25549 0.14539 0.37807 0.0
H629 H 0.35029 0.11517 0.38443 0.0
C630 C 0.31376 0.06483 0.36681 0.0
C631 C 0.27802 0.04233 0.35801 0.0
C632 C 0.27794 0.1565 0.39008 0.0
C633 C 0.29658 0.11027 0.37815 0.0
C634 C 0.28009 0.18245 0.40564 0.0
C635 C 0.30742 0.19555 0.42221 0.0
C636 C 0.30312 0.14333 0.39127 0.0
C637 C 0.33396 0.18419 0.42175 0.0
C638 C 0.32306 0.09871 0.37704 0.0
C639 C 0.25294 0.0556 0.35879 0.0
N640 N 0.33085 0.15821 0.40673 0.0
N641 N 0.26263 0.0885 0.36875 0.0
H642 H 0.18024 0.2282 0.51325 0.0
H643 H 0.06139 0.27966 0.55629 0.0
H644 H 0.27096 0.33599 0.53147 0.0
H645 H 0.15393 0.35204 0.59794 0.0
H646 H 0.10446 0.27604 0.52992 0.0
H647 H 0.13669 0.24531 0.5281 0.0
C648 C 0.19101 0.2558 0.52011 0.0
C649 C 0.22939 0.2806 0.52124 0.0
C650 C 0.11552 0.29298 0.54472 0.0
C651 C 0.17916 0.30097 0.53803 0.0
C652 C 0.09096 0.29563 0.55949 0.0
C653 C 0.10426 0.31611 0.5792 0.0
C654 C 0.15353 0.31016 0.55008 0.0
C655 C 0.14275 0.3361 0.58278 0.0
C656 C 0.16595 0.26582 0.52834 0.0
C657 C 0.24159 0.31603 0.53025 0.0
N658 N 0.16607 0.33213 0.56855 0.0
N659 N 0.21655 0.32493 0.5387 0.0
H660 H 0.79265 0.07009 0.73114 0.0
H661 H 0.94188 0.27935 0.69847 0.0
H662 H 0.80123 0.16511 0.76524 0.0
H663 H 0.94222 0.1818 0.67433 0.0
H664 H 0.88209 0.23893 0.71697 0.0
H665 H 0.83756 0.11149 0.70341 0.0
C666 C 0.80302 0.09967 0.73224 0.0
C667 C 0.79323 0.11435 0.75028 0.0
C668 C 0.89513 0.22649 0.70739 0.0
C669 C 0.8457 0.16205 0.71931 0.0
C670 C 0.92921 0.24953 0.69682 0.0
C671 C 0.9474 0.23395 0.68514 0.0
C672 C 0.87903 0.18768 0.706 0.0
C673 C 0.9296 0.1951 0.68347 0.0
C674 C 0.82902 0.12337 0.71662 0.0
C675 C 0.80794 0.15288 0.75134 0.0
N676 N 0.89665 0.17342 0.69387 0.0
N677 N 0.83397 0.17554 0.73627 0.0
H678 H 0.66505 0.94677 0.86588 0.0
H679 H 0.74301 0.81577 0.90736 0.0
H680 H 0.77215 0.961 0.84852 0.0
H681 H 0.64457 0.81027 0.93458 0.0
H682 H 0.74624 0.85999 0.87927 0.0
H683 H 0.64999 0.88875 0.88519 0.0
C684 C 0.68515 0.93746 0.86586 0.0
C685 C 0.72013 0.95906 0.85586 0.0
C686 C 0.72349 0.84868 0.8911 0.0
C687 C 0.70306 0.89284 0.87773 0.0
C688 C 0.72153 0.82324 0.90696 0.0
C689 C 0.69351 0.80957 0.92313 0.0
C690 C 0.69745 0.86085 0.89162 0.0
C691 C 0.66648 0.82024 0.92221 0.0
C692 C 0.67659 0.90443 0.87691 0.0
C693 C 0.74508 0.94562 0.8563 0.0
N694 N 0.66937 0.84571 0.90689 0.0
N695 N 0.73615 0.91361 0.86715 0.0
H696 H 0.81833 0.76133 0.0041 0.0
H697 H 0.84595 0.63739 0.09222 0.0
H698 H 0.72658 0.6589 0.02856 0.0
H699 H 0.93576 0.72569 0.05557 0.0
H700 H 0.80173 0.63783 0.06536 0.0
H701 H 0.86142 0.74332 0.01903 0.0
C702 C 0.80725 0.73477 0.01243 0.0
C703 C 0.76886 0.71179 0.01537 0.0
C704 C 0.83117 0.65639 0.06278 0.0
C705 C 0.81822 0.69111 0.03293 0.0
C706 C 0.8564 0.65585 0.07798 0.0
C707 C 0.8944 0.68173 0.07608 0.0
C708 C 0.84416 0.68334 0.04581 0.0
C709 C 0.90659 0.70548 0.05761 0.0
C710 C 0.8319 0.72439 0.0209 0.0
C711 C 0.75602 0.67747 0.02603 0.0
N712 N 0.88151 0.70625 0.04343 0.0
N713 N 0.7807 0.66847 0.03486 0.0
H714 H 0.05139 0.81954 0.1712 0.0
H715 H 0.1952 0.8375 0.26485 0.0
H716 H 0.05547 0.72515 0.19754 0.0
H717 H 0.1868 0.92917 0.23841 0.0
H718 H 0.15244 0.79712 0.23574 0.0
H719 H 0.10841 0.86074 0.19098 0.0
C720 C 0.06446 0.80743 0.18106 0.0
C721 C 0.04824 0.76876 0.18302 0.0
C722 C 0.1606 0.82624 0.23596 0.0
C723 C 0.1138 0.81611 0.20601 0.0
C724 C 0.18521 0.84928 0.25241 0.0
C725 C 0.19436 0.88653 0.25383 0.0
C726 C 0.14503 0.8407 0.22101 0.0
C727 C 0.18039 0.90056 0.2377 0.0
C728 C 0.09717 0.83106 0.19234 0.0
C729 C 0.06688 0.75478 0.19571 0.0
N730 N 0.15607 0.87754 0.22211 0.0
N731 N 0.09842 0.77846 0.20703 0.0
H732 H 0.93804 0.65889 0.47211 0.0
H733 H 0.80527 0.73657 0.43361 0.0
H734 H 0.9537 0.76666 0.48889 0.0
H735 H 0.80117 0.64024 0.40415 0.0
H736 H 0.84971 0.73895 0.46126 0.0
H737 H 0.87917 0.64363 0.45373 0.0
C738 C 0.92888 0.67909 0.4722 0.0
C739 C 0.95108 0.7143 0.48174 0.0
C740 C 0.83858 0.71678 0.44906 0.0
C741 C 0.88389 0.69698 0.46104 0.0
C742 C 0.81298 0.71526 0.43347 0.0
C743 C 0.79975 0.6882 0.41675 0.0
C744 C 0.85133 0.69125 0.44771 0.0
C745 C 0.81077 0.6614 0.41696 0.0
C746 C 0.89537 0.67041 0.46169 0.0
C747 C 0.93784 0.73941 0.48143 0.0
N748 N 0.83642 0.66389 0.43202 0.0
N749 N 0.90532 0.73034 0.47117 0.0
H750 H 0.0611 0.80212 0.60268 0.0
H751 H 0.27082 0.93295 0.6429 0.0
H752 H 0.15335 0.79495 0.57586 0.0
H753 H 0.17886 0.94931 0.65901 0.0
H754 H 0.22706 0.87374 0.62496 0.0
H755 H 0.10237 0.84608 0.6308 0.0
C756 C 0.08989 0.80899 0.60325 0.0
C757 C 0.10403 0.79512 0.58709 0.0
C758 C 0.21653 0.89015 0.63269 0.0
C759 C 0.15171 0.84621 0.61856 0.0
C760 C 0.24145 0.92388 0.64294 0.0
C761 C 0.22855 0.9464 0.65212 0.0
C762 C 0.1785 0.87881 0.6319 0.0
C763 C 0.19018 0.93322 0.65179 0.0
C764 C 0.11355 0.83434 0.61911 0.0
C765 C 0.14155 0.80507 0.58822 0.0
N766 N 0.16665 0.90052 0.64174 0.0
N767 N 0.16434 0.83055 0.60348 0.0
H768 H 0.33766 0.26964 0.81171 0.0
H769 H 0.2539 0.05951 0.77205 0.0
H770 H 0.22997 0.17887 0.83015 0.0
H771 H 0.3547 0.15019 0.74538 0.0
H772 H 0.2534 0.10091 0.8009 0.0
H773 H 0.35235 0.22484 0.79449 0.0
C774 C 0.31746 0.24029 0.81255 0.0
C775 C 0.28232 0.22798 0.82201 0.0
C776 C 0.27614 0.1117 0.78908 0.0
C777 C 0.29882 0.17678 0.80245 0.0
C778 C 0.27654 0.08795 0.77278 0.0
C779 C 0.30432 0.10167 0.75646 0.0
C780 C 0.30345 0.14955 0.78879 0.0
C781 C 0.33289 0.13874 0.75782 0.0
C782 C 0.32577 0.21476 0.80266 0.0
C783 C 0.25716 0.18964 0.82266 0.0
N784 N 0.33142 0.16167 0.77349 0.0
N785 N 0.26575 0.16553 0.81284 0.0
H786 H 0.05388 0.33403 0.97586 0.0
H787 H 0.1857 0.25915 0.93072 0.0
H788 H 0.04219 0.22774 0.99234 0.0
H789 H 0.1875 0.35604 0.904 0.0
H790 H 0.14245 0.25533 0.95974 0.0
H791 H 0.11116 0.34986 0.95532 0.0
C792 C 0.06361 0.31427 0.97543 0.0
C793 C 0.04294 0.27929 0.98555 0.0
C794 C 0.15277 0.2779 0.94782 0.0
C795 C 0.10831 0.29724 0.96229 0.0
C796 C 0.17767 0.28021 0.93144 0.0
C797 C 0.19006 0.308 0.91519 0.0
C798 C 0.13981 0.30331 0.94773 0.0
C799 C 0.17859 0.33439 0.91646 0.0
C800 C 0.09621 0.32327 0.96368 0.0
C801 C 0.05686 0.25478 0.9845 0.0
N802 N 0.15366 0.33116 0.93231 0.0
N803 N 0.08845 0.26413 0.97299 0.0
H804 H 0.81194 0.05145 0.17002 0.0
H805 H 0.84 0.20041 0.0779 0.0
H806 H 0.72024 0.05628 0.14 0.0
H807 H 0.92914 0.19565 0.11121 0.0
H808 H 0.79588 0.1555 0.10485 0.0
H809 H 0.85485 0.11078 0.15307 0.0
C810 C 0.80078 0.06518 0.15993 0.0
C811 C 0.76245 0.04855 0.1561 0.0
C812 C 0.82518 0.16497 0.10665 0.0
C813 C 0.81179 0.11679 0.13631 0.0
C814 C 0.85036 0.19085 0.09143 0.0
C815 C 0.88809 0.20156 0.09248 0.0
C816 C 0.83799 0.14963 0.12285 0.0
C817 C 0.90021 0.18801 0.10996 0.0
C818 C 0.82537 0.09923 0.15029 0.0
C819 C 0.74961 0.06802 0.14324 0.0
N820 N 0.87518 0.16236 0.12427 0.0
N821 N 0.77431 0.10087 0.13346 0.0
H822 H 0.65546 0.72329 0.31001 0.0
H823 H 0.72336 0.93484 0.27918 0.0
H824 H 0.76086 0.8173 0.3287 0.0
H825 H 0.63432 0.84214 0.24488 0.0
H826 H 0.72562 0.89185 0.30618 0.0
H827 H 0.6371 0.76622 0.2941 0.0
C828 C 0.67446 0.75292 0.3111 0.0
C829 C 0.70997 0.76674 0.32036 0.0
C830 C 0.70492 0.88089 0.29309 0.0
C831 C 0.68905 0.8158 0.30251 0.0
C832 C 0.70339 0.90546 0.27787 0.0
C833 C 0.67876 0.89185 0.25984 0.0
C834 C 0.68179 0.84244 0.29012 0.0
C835 C 0.65361 0.85359 0.25867 0.0
C836 C 0.664 0.77735 0.302 0.0
C837 C 0.73346 0.80538 0.32138 0.0
N838 N 0.65619 0.83005 0.27337 0.0
N839 N 0.72268 0.82847 0.31245 0.0
H840 H 0.36734 0.27492 0.57255 0.0
H841 H 0.37082 0.09246 0.6068 0.0
H842 H 0.36841 0.19701 0.5257 0.0
H843 H 0.36553 0.16826 0.65355 0.0
H844 H 0.38783 0.13919 0.57728 0.0
H845 H 0.38443 0.24581 0.60238 0.0
C846 C 0.37273 0.25269 0.56842 0.0
C847 C 0.36675 0.2384 0.54673 0.0
C848 C 0.38407 0.1461 0.59414 0.0
C849 C 0.38482 0.20403 0.5807 0.0
C850 C 0.37483 0.11954 0.61101 0.0
C851 C 0.36698 0.12672 0.63256 0.0
C852 C 0.38494 0.17971 0.59891 0.0
C853 C 0.37154 0.16184 0.63709 0.0
C854 C 0.38205 0.23575 0.58546 0.0
C855 C 0.37303 0.20889 0.54228 0.0
N856 N 0.37961 0.18679 0.62037 0.0
N857 N 0.38114 0.1923 0.55915 0.0
H858 H 0.16372 0.33054 0.6837 0.0
H859 H 0.22129 0.38595 0.8092 0.0
H860 H 0.11435 0.37934 0.72481 0.0
H861 H 0.27592 0.34758 0.76447 0.0
H862 H 0.19129 0.39682 0.7772 0.0
H863 H 0.21293 0.34848 0.71105 0.0
C864 C 0.16356 0.34554 0.69844 0.0
C865 C 0.13467 0.35305 0.70216 0.0
C866 C 0.21089 0.38734 0.77425 0.0
C867 C 0.19084 0.37316 0.73399 0.0
C868 C 0.22847 0.3817 0.79249 0.0
C869 C 0.25157 0.36648 0.78936 0.0
C870 C 0.21598 0.37698 0.75279 0.0
C871 C 0.25884 0.36002 0.76752 0.0
C872 C 0.19179 0.35588 0.71408 0.0
C873 C 0.13609 0.37295 0.72139 0.0
N874 N 0.24062 0.36469 0.75011 0.0
N875 N 0.16333 0.38166 0.73686 0.0
H876 H 0.81112 0.17948 0.85782 0.0
H877 H 0.82274 0.18758 0.98752 0.0
H878 H 0.72162 0.10187 0.8997 0.0
H879 H 0.89811 0.27883 0.94591 0.0
H880 H 0.77937 0.16186 0.95635 0.0
H881 H 0.83711 0.22201 0.88937 0.0
C882 C 0.79632 0.172 0.87358 0.0
C883 C 0.76427 0.13724 0.87627 0.0
C884 C 0.80483 0.18806 0.9541 0.0
C885 C 0.79456 0.18507 0.91273 0.0
C886 C 0.82952 0.20282 0.97194 0.0
C887 C 0.86393 0.2353 0.96918 0.0
C888 C 0.81515 0.20533 0.93313 0.0
C889 C 0.87169 0.25384 0.94868 0.0
C890 C 0.81122 0.19621 0.89163 0.0
C891 C 0.74627 0.12858 0.89699 0.0
N892 N 0.84784 0.23812 0.93124 0.0
N893 N 0.76215 0.152 0.91461 0.0
H894 H 0.64269 0.71893 0.07244 0.0
H895 H 0.61808 0.88919 0.11068 0.0
H896 H 0.62101 0.78575 0.02689 0.0
H897 H 0.65395 0.82953 0.15307 0.0
H898 H 0.6021 0.84156 0.08162 0.0
H899 H 0.62869 0.74784 0.10375 0.0
C900 C 0.63327 0.73846 0.06904 0.0
C901 C 0.63236 0.74958 0.04714 0.0
C902 C 0.61269 0.83851 0.09749 0.0
C903 C 0.61823 0.78432 0.08278 0.0
C904 C 0.62156 0.86554 0.11408 0.0
C905 C 0.63768 0.86339 0.13414 0.0
C906 C 0.61984 0.8092 0.10118 0.0
C907 C 0.642 0.83242 0.13769 0.0
C908 C 0.62583 0.75544 0.0869 0.0
C909 C 0.62134 0.77602 0.0436 0.0
N910 N 0.63352 0.80683 0.12135 0.0
N911 N 0.61531 0.79298 0.06123 0.0
H912 H 0.83148 0.66486 0.18266 0.0
H913 H 0.78496 0.61976 0.31007 0.0
H914 H 0.88703 0.62267 0.22376 0.0
H915 H 0.72046 0.64579 0.26525 0.0
H916 H 0.81475 0.60877 0.27798 0.0
H917 H 0.78384 0.64714 0.21116 0.0
C918 C 0.83327 0.65125 0.19763 0.0
C919 C 0.86342 0.64556 0.20099 0.0
C920 C 0.79317 0.6156 0.27508 0.0
C921 C 0.80917 0.62583 0.23413 0.0
C922 C 0.77582 0.62139 0.2934 0.0
C923 C 0.7498 0.63303 0.29021 0.0
C924 C 0.785 0.62238 0.25344 0.0
C925 C 0.73987 0.63614 0.26835 0.0
C926 C 0.80598 0.64107 0.21393 0.0
C927 C 0.86421 0.62756 0.22057 0.0
N928 N 0.75793 0.63149 0.25081 0.0
N929 N 0.83788 0.61901 0.23666 0.0
H930 H 0.27809 0.89825 0.40141 0.0
H931 H 0.09603 0.71426 0.43903 0.0
H932 H 0.19482 0.82033 0.35647 0.0
H933 H 0.17278 0.79858 0.48392 0.0
H934 H 0.14207 0.74221 0.40893 0.0
H935 H 0.25075 0.85224 0.43152 0.0
C936 C 0.25506 0.87086 0.3977 0.0
C937 C 0.23864 0.86288 0.37654 0.0
C938 C 0.14933 0.75395 0.42554 0.0
C939 C 0.20642 0.81069 0.41085 0.0
C940 C 0.12319 0.73769 0.44274 0.0
C941 C 0.13079 0.75422 0.46386 0.0
C942 C 0.18298 0.78708 0.42959 0.0
C943 C 0.16601 0.78508 0.46777 0.0
C944 C 0.23914 0.84472 0.4149 0.0
C945 C 0.20825 0.82736 0.37263 0.0
N946 N 0.19057 0.80089 0.45073 0.0
N947 N 0.19273 0.8028 0.38969 0.0
loop_
_geom_bond_atom_site_label_1
_geom_bond_atom_site_label_2
_geom_bond_distance
_geom_bond_site_symmetry_2
_ccdc_geom_bond_type
Co0 O3 1.970 . S
Co0 N17 1.989 . S
Co0 O25 1.967 . S
Co0 O32 1.920 . S
Co1 O4 1.966 . S
Co1 N10 2.022 . S
Co1 N18 1.993 . S
Co1 O26 1.941 . S
C2 O3 1.258 . S
C2 O4 1.263 . S
O3 Co0 1.970 . S
O3 C2 1.258 . S
O4 Co1 1.966 . S
O4 C2 1.263 . S
C5 O6 1.235 . S
C5 O32 1.289 . S
O6 C5 1.235 . S
C7 C9 1.400 . S
C7 N10 1.351 . S
C7 C12 1.501 . S
C8 C9 1.387 . S
C8 N11 1.341 . S
C9 C7 1.400 . S
C9 C8 1.387 . S
N10 Co1 2.022 . S
N10 C7 1.351 . S
N10 N11 1.365 . S
N11 C8 1.341 . S
N11 N10 1.365 . S
N11 H31 0.862 . S
C12 C7 1.501 . S
C12 H13 0.961 . S
C12 H14 0.961 . S
C12 H15 0.960 . S
H13 C12 0.961 . S
H14 C12 0.961 . S
H15 C12 0.960 . S
C16 N17 1.342 . S
C16 C20 1.401 . S
C16 C21 1.499 . S
N17 Co0 1.989 . S
N17 C16 1.342 . S
N17 N18 1.388 . S
N18 Co1 1.993 . S
N18 N17 1.388 . S
N18 C19 1.346 . S
C19 N18 1.346 . S
C19 C20 1.396 . S
C19 C29 1.510 . S
C20 C16 1.401 . S
C20 C19 1.396 . S
C21 C16 1.499 . S
C21 H22 0.959 . S
C21 H23 0.960 . S
C21 H24 0.961 . S
H22 C21 0.959 . S
H23 C21 0.960 . S
H24 C21 0.961 . S
O25 Co0 1.967 . S
O25 C33 1.258 . S
O26 Co1 1.941 . S
O26 C33 1.266 . S
H27 C29 0.959 . S
H28 C29 0.961 . S
C29 C19 1.510 . S
C29 H27 0.959 . S
C29 H28 0.961 . S
C29 H30 0.960 . S
H30 C29 0.960 . S
H31 N11 0.862 . S
O32 Co0 1.920 . S
O32 C5 1.289 . S
C33 O25 1.258 . S
C33 O26 1.266 . S
Co34 O37 1.970 . S
Co34 N51 1.989 . S
Co34 O59 1.967 . S
Co34 O66 1.920 . S
Co35 O38 1.966 . S
Co35 N44 2.022 . S
Co35 N52 1.993 . S
Co35 O60 1.941 . S
C36 O37 1.258 . S
C36 O38 1.263 . S
O37 Co34 1.970 . S
O37 C36 1.258 . S
O38 Co35 1.966 . S
O38 C36 1.263 . S
C39 O40 1.235 . S
C39 O66 1.289 . S
O40 C39 1.235 . S
C41 C43 1.400 . S
C41 N44 1.351 . S
C41 C46 1.501 . S
C42 C43 1.387 . S
C42 N45 1.341 . S
C43 C41 1.400 . S
C43 C42 1.387 . S
N44 Co35 2.022 . S
N44 C41 1.351 . S
N44 N45 1.365 . S
N45 C42 1.341 . S
N45 N44 1.365 . S
N45 H65 0.862 . S
C46 C41 1.501 . S
C46 H47 0.961 . S
C46 H48 0.961 . S
C46 H49 0.960 . S
H47 C46 0.961 . S
H48 C46 0.961 . S
H49 C46 0.960 . S
C50 N51 1.342 . S
C50 C54 1.401 . S
C50 C55 1.499 . S
N51 Co34 1.989 . S
N51 C50 1.342 . S
N51 N52 1.388 . S
N52 Co35 1.993 . S
N52 N51 1.388 . S
N52 C53 1.346 . S
C53 N52 1.346 . S
C53 C54 1.396 . S
C53 C63 1.510 . S
C54 C50 1.401 . S
C54 C53 1.396 . S
C55 C50 1.499 . S
C55 H56 0.959 . S
C55 H57 0.960 . S
C55 H58 0.961 . S
H56 C55 0.959 . S
H57 C55 0.960 . S
H58 C55 0.961 . S
O59 Co34 1.967 . S
O59 C67 1.258 . S
O60 Co35 1.941 . S
O60 C67 1.266 . S
H61 C63 0.959 . S
H62 C63 0.961 . S
C63 C53 1.510 . S
C63 H61 0.959 . S
C63 H62 0.961 . S
C63 H64 0.960 . S
H64 C63 0.960 . S
H65 N45 0.862 . S
O66 Co34 1.920 . S
O66 C39 1.289 . S
C67 O59 1.258 . S
C67 O60 1.266 . S
Co68 O71 1.970 . S
Co68 N85 1.989 . S
Co68 O93 1.967 . S
Co68 O100 1.920 . S
Co69 O72 1.966 . S
Co69 N78 2.022 . S
Co69 N86 1.993 . S
Co69 O94 1.941 . S
C70 O71 1.258 . S
C70 O72 1.263 . S
O71 Co68 1.970 . S
O71 C70 1.258 . S
O72 Co69 1.966 . S
O72 C70 1.263 . S
C73 O74 1.235 . S
C73 O100 1.289 . S
O74 C73 1.235 . S
C75 C77 1.400 . S
C75 N78 1.351 . S
C75 C80 1.501 . S
C76 C77 1.387 . S
C76 N79 1.341 . S
C77 C75 1.400 . S
C77 C76 1.387 . S
N78 Co69 2.022 . S
N78 C75 1.351 . S
N78 N79 1.365 . S
N79 C76 1.341 . S
N79 N78 1.365 . S
N79 H99 0.862 . S
C80 C75 1.501 . S
C80 H81 0.961 . S
C80 H82 0.961 . S
C80 H83 0.960 . S
H81 C80 0.961 . S
H82 C80 0.961 . S
H83 C80 0.960 . S
C84 N85 1.342 . S
C84 C88 1.401 . S
C84 C89 1.499 . S
N85 Co68 1.989 . S
N85 C84 1.342 . S
N85 N86 1.388 . S
N86 Co69 1.993 . S
N86 N85 1.388 . S
N86 C87 1.346 . S
C87 N86 1.346 . S
C87 C88 1.396 . S
C87 C97 1.510 . S
C88 C84 1.401 . S
C88 C87 1.396 . S
C89 C84 1.499 . S
C89 H90 0.959 . S
C89 H91 0.960 . S
C89 H92 0.961 . S
H90 C89 0.959 . S
H91 C89 0.960 . S
H92 C89 0.961 . S
O93 Co68 1.967 . S
O93 C101 1.258 . S
O94 Co69 1.941 . S
O94 C101 1.266 . S
H95 C97 0.959 . S
H96 C97 0.961 . S
C97 C87 1.510 . S
C97 H95 0.959 . S
C97 H96 0.961 . S
C97 H98 0.960 . S
H98 C97 0.960 . S
H99 N79 0.862 . S
O100 Co68 1.920 . S
O100 C73 1.289 . S
C101 O93 1.258 . S
C101 O94 1.266 . S
Co102 O105 1.970 . S
Co102 N119 1.989 . S
Co102 O127 1.967 . S
Co102 O134 1.920 . S
Co103 O106 1.966 . S
Co103 N112 2.022 . S
Co103 N120 1.993 . S
Co103 O128 1.941 . S
C104 O105 1.258 1_554 S
C104 O106 1.263 1_554 S
O105 Co102 1.970 . S
O105 C104 1.258 1_556 S
O106 Co103 1.966 . S
O106 C104 1.263 1_556 S
C107 O108 1.235 . S
C107 O134 1.289 . S
O108 C107 1.235 . S
C109 C111 1.400 . S
C109 N112 1.351 . S
C109 C114 1.501 . S
C110 C111 1.387 . S
C110 N113 1.341 . S
C111 C109 1.400 . S
C111 C110 1.387 . S
N112 Co103 2.022 . S
N112 C109 1.351 . S
N112 N113 1.365 . S
N113 C110 1.341 . S
N113 N112 1.365 . S
N113 H133 0.862 . S
C114 C109 1.501 . S
C114 H115 0.961 . S
C114 H116 0.961 . S
C114 H117 0.960 . S
H115 C114 0.961 . S
H116 C114 0.961 . S
H117 C114 0.960 . S
C118 N119 1.342 . S
C118 C122 1.401 . S
C118 C123 1.499 . S
N119 Co102 1.989 . S
N119 C118 1.342 . S
N119 N120 1.388 . S
N120 Co103 1.993 . S
N120 N119 1.388 . S
N120 C121 1.346 . S
C121 N120 1.346 . S
C121 C122 1.396 . S
C121 C131 1.510 . S
C122 C118 1.401 . S
C122 C121 1.396 . S
C123 C118 1.499 . S
C123 H124 0.959 . S
C123 H125 0.960 . S
C123 H126 0.961 . S
H124 C123 0.959 . S
H125 C123 0.960 . S
H126 C123 0.961 . S
O127 Co102 1.967 . S
O127 C135 1.258 . S
O128 Co103 1.941 . S
O128 C135 1.266 . S
H129 C131 0.959 . S
H130 C131 0.961 . S
C131 C121 1.510 . S
C131 H129 0.959 . S
C131 H130 0.961 . S
C131 H132 0.960 . S
H132 C131 0.960 . S
H133 N113 0.862 . S
O134 Co102 1.920 . S
O134 C107 1.289 . S
C135 O127 1.258 . S
C135 O128 1.266 . S
Co136 O139 1.970 . S
Co136 N153 1.989 . S
Co136 O161 1.967 . S
Co136 O168 1.920 . S
Co137 O140 1.966 . S
Co137 N146 2.022 . S
Co137 N154 1.993 . S
Co137 O162 1.941 . S
C138 O139 1.258 . S
C138 O140 1.263 . S
O139 Co136 1.970 . S
O139 C138 1.258 . S
O140 Co137 1.966 . S
O140 C138 1.263 . S
C141 O142 1.235 . S
C141 O168 1.289 . S
O142 C141 1.235 . S
C143 C145 1.400 . S
C143 N146 1.351 . S
C143 C148 1.501 . S
C144 C145 1.387 . S
C144 N147 1.341 . S
C145 C143 1.400 . S
C145 C144 1.387 . S
N146 Co137 2.022 . S
N146 C143 1.351 . S
N146 N147 1.365 . S
N147 C144 1.341 . S
N147 N146 1.365 . S
N147 H167 0.862 . S
C148 C143 1.501 . S
C148 H149 0.961 . S
C148 H150 0.961 . S
C148 H151 0.960 . S
H149 C148 0.961 . S
H150 C148 0.961 . S
H151 C148 0.960 . S
C152 N153 1.342 . S
C152 C156 1.401 . S
C152 C157 1.499 . S
N153 Co136 1.989 . S
N153 C152 1.342 . S
N153 N154 1.388 . S
N154 Co137 1.993 . S
N154 N153 1.388 . S
N154 C155 1.346 . S
C155 N154 1.346 . S
C155 C156 1.396 . S
C155 C165 1.510 . S
C156 C152 1.401 . S
C156 C155 1.396 . S
C157 C152 1.499 . S
C157 H158 0.959 . S
C157 H159 0.960 . S
C157 H160 0.961 . S
H158 C157 0.959 . S
H159 C157 0.960 . S
H160 C157 0.961 . S
O161 Co136 1.967 . S
O161 C169 1.258 . S
O162 Co137 1.941 . S
O162 C169 1.266 . S
H163 C165 0.959 . S
H164 C165 0.961 . S
C165 C155 1.510 . S
C165 H163 0.959 . S
C165 H164 0.961 . S
C165 H166 0.960 . S
H166 C165 0.960 . S
H167 N147 0.862 . S
O168 Co136 1.920 . S
O168 C141 1.289 . S
C169 O161 1.258 . S
C169 O162 1.266 . S
Co170 O173 1.970 . S
Co170 N187 1.989 . S
Co170 O195 1.967 . S
Co170 O202 1.920 . S
Co171 O174 1.966 . S
Co171 N180 2.022 . S
Co171 N188 1.993 . S
Co171 O196 1.941 . S
C172 O173 1.258 . S
C172 O174 1.263 . S
O173 Co170 1.970 . S
O173 C172 1.258 . S
O174 Co171 1.966 . S
O174 C172 1.263 . S
C175 O176 1.235 . S
C175 O202 1.289 . S
O176 C175 1.235 . S
C177 C179 1.400 . S
C177 N180 1.351 . S
C177 C182 1.501 . S
C178 C179 1.387 . S
C178 N181 1.341 . S
C179 C177 1.400 . S
C179 C178 1.387 . S
N180 Co171 2.022 . S
N180 C177 1.351 . S
N180 N181 1.365 . S
N181 C178 1.341 . S
N181 N180 1.365 . S
N181 H201 0.862 . S
C182 C177 1.501 . S
C182 H183 0.961 . S
C182 H184 0.961 . S
C182 H185 0.960 . S
H183 C182 0.961 . S
H184 C182 0.961 . S
H185 C182 0.960 . S
C186 N187 1.342 . S
C186 C190 1.401 . S
C186 C191 1.499 . S
N187 Co170 1.989 . S
N187 C186 1.342 . S
N187 N188 1.388 . S
N188 Co171 1.993 . S
N188 N187 1.388 . S
N188 C189 1.346 . S
C189 N188 1.346 . S
C189 C190 1.396 . S
C189 C199 1.510 . S
C190 C186 1.401 . S
C190 C189 1.396 . S
C191 C186 1.499 . S
C191 H192 0.959 . S
C191 H193 0.960 . S
C191 H194 0.961 . S
H192 C191 0.959 . S
H193 C191 0.960 . S
H194 C191 0.961 . S
O195 Co170 1.967 . S
O195 C203 1.258 . S
O196 Co171 1.941 . S
O196 C203 1.266 . S
H197 C199 0.959 . S
H198 C199 0.961 . S
C199 C189 1.510 . S
C199 H197 0.959 . S
C199 H198 0.961 . S
C199 H200 0.960 . S
H200 C199 0.960 . S
H201 N181 0.862 . S
O202 Co170 1.920 . S
O202 C175 1.289 . S
C203 O195 1.258 . S
C203 O196 1.266 . S
Co204 O207 1.970 . S
Co204 N221 1.989 . S
Co204 O229 1.967 . S
Co204 O236 1.920 . S
Co205 O208 1.966 . S
Co205 N214 2.022 . S
Co205 N222 1.993 . S
Co205 O230 1.941 . S
C206 O207 1.258 . S
C206 O208 1.263 . S
O207 Co204 1.970 . S
O207 C206 1.258 . S
O208 Co205 1.966 . S
O208 C206 1.263 . S
C209 O210 1.235 . S
C209 O236 1.289 . S
O210 C209 1.235 . S
C211 C213 1.400 . S
C211 N214 1.351 . S
C211 C216 1.501 . S
C212 C213 1.387 . S
C212 N215 1.341 . S
C213 C211 1.400 . S
C213 C212 1.387 . S
N214 Co205 2.022 . S
N214 C211 1.351 . S
N214 N215 1.365 . S
N215 C212 1.341 . S
N215 N214 1.365 . S
N215 H235 0.862 . S
C216 C211 1.501 . S
C216 H217 0.961 . S
C216 H218 0.961 . S
C216 H219 0.960 . S
H217 C216 0.961 . S
H218 C216 0.961 . S
H219 C216 0.960 . S
C220 N221 1.342 . S
C220 C224 1.401 . S
C220 C225 1.499 . S
N221 Co204 1.989 . S
N221 C220 1.342 . S
N221 N222 1.388 . S
N222 Co205 1.993 . S
N222 N221 1.388 . S
N222 C223 1.346 . S
C223 N222 1.346 . S
C223 C224 1.396 . S
C223 C233 1.510 . S
C224 C220 1.401 . S
C224 C223 1.396 . S
C225 C220 1.499 . S
C225 H226 0.959 . S
C225 H227 0.960 . S
C225 H228 0.961 . S
H226 C225 0.959 . S
H227 C225 0.960 . S
H228 C225 0.961 . S
O229 Co204 1.967 . S
O229 C237 1.258 . S
O230 Co205 1.941 . S
O230 C237 1.266 . S
H231 C233 0.959 . S
H232 C233 0.961 . S
C233 C223 1.510 . S
C233 H231 0.959 . S
C233 H232 0.961 . S
C233 H234 0.960 . S
H234 C233 0.960 . S
H235 N215 0.862 . S
O236 Co204 1.920 . S
O236 C209 1.289 . S
C237 O229 1.258 . S
C237 O230 1.266 . S
Co238 O241 1.970 . S
Co238 N255 1.989 . S
Co238 O263 1.967 . S
Co238 O270 1.920 . S
Co239 O242 1.966 . S
Co239 N248 2.022 . S
Co239 N256 1.993 . S
Co239 O264 1.941 . S
C240 O241 1.258 . S
C240 O242 1.263 . S
O241 Co238 1.970 . S
O241 C240 1.258 . S
O242 Co239 1.966 . S
O242 C240 1.263 . S
C243 O244 1.235 . S
C243 O270 1.289 . S
O244 C243 1.235 . S
C245 C247 1.400 . S
C245 N248 1.351 . S
C245 C250 1.501 . S
C246 C247 1.387 . S
C246 N249 1.341 . S
C247 C245 1.400 . S
C247 C246 1.387 . S
N248 Co239 2.022 . S
N248 C245 1.351 . S
N248 N249 1.365 . S
N249 C246 1.341 . S
N249 N248 1.365 . S
N249 H269 0.862 . S
C250 C245 1.501 . S
C250 H251 0.961 . S
C250 H252 0.961 . S
C250 H253 0.960 . S
H251 C250 0.961 . S
H252 C250 0.961 . S
H253 C250 0.960 . S
C254 N255 1.342 . S
C254 C258 1.401 . S
C254 C259 1.499 . S
N255 Co238 1.989 . S
N255 C254 1.342 . S
N255 N256 1.388 . S
N256 Co239 1.993 . S
N256 N255 1.388 . S
N256 C257 1.346 . S
C257 N256 1.346 . S
C257 C258 1.396 . S
C257 C267 1.510 . S
C258 C254 1.401 . S
C258 C257 1.396 . S
C259 C254 1.499 . S
C259 H260 0.959 . S
C259 H261 0.960 . S
C259 H262 0.961 . S
H260 C259 0.959 . S
H261 C259 0.960 . S
H262 C259 0.961 . S
O263 Co238 1.967 . S
O263 C271 1.258 . S
O264 Co239 1.941 . S
O264 C271 1.266 . S
H265 C267 0.959 . S
H266 C267 0.961 . S
C267 C257 1.510 . S
C267 H265 0.959 . S
C267 H266 0.961 . S
C267 H268 0.960 . S
H268 C267 0.960 . S
H269 N249 0.862 . S
O270 Co238 1.920 . S
O270 C243 1.289 . S
C271 O263 1.258 . S
C271 O264 1.266 . S
Co272 O275 1.970 . S
Co272 N289 1.989 . S
Co272 O297 1.967 . S
Co272 O304 1.920 . S
Co273 O276 1.966 . S
Co273 N282 2.022 . S
Co273 N290 1.993 . S
Co273 O298 1.941 . S
C274 O275 1.258 . S
C274 O276 1.263 . S
O275 Co272 1.970 . S
O275 C274 1.258 . S
O276 Co273 1.966 . S
O276 C274 1.263 . S
C277 O278 1.235 . S
C277 O304 1.289 . S
O278 C277 1.235 . S
C279 C281 1.400 . S
C279 N282 1.351 . S
C279 C284 1.501 . S
C280 C281 1.387 . S
C280 N283 1.341 . S
C281 C279 1.400 . S
C281 C280 1.387 . S
N282 Co273 2.022 . S
N282 C279 1.351 . S
N282 N283 1.365 . S
N283 C280 1.341 . S
N283 N282 1.365 . S
N283 H303 0.862 . S
C284 C279 1.501 . S
C284 H285 0.961 . S
C284 H286 0.961 . S
C284 H287 0.960 . S
H285 C284 0.961 . S
H286 C284 0.961 . S
H287 C284 0.960 . S
C288 N289 1.342 . S
C288 C292 1.401 . S
C288 C293 1.499 . S
N289 Co272 1.989 . S
N289 C288 1.342 . S
N289 N290 1.388 . S
N290 Co273 1.993 . S
N290 N289 1.388 . S
N290 C291 1.346 . S
C291 N290 1.346 . S
C291 C292 1.396 . S
C291 C301 1.510 . S
C292 C288 1.401 . S
C292 C291 1.396 . S
C293 C288 1.499 . S
C293 H294 0.959 . S
C293 H295 0.960 . S
C293 H296 0.961 . S
H294 C293 0.959 . S
H295 C293 0.960 . S
H296 C293 0.961 . S
O297 Co272 1.967 . S
O297 C305 1.258 . S
O298 Co273 1.941 . S
O298 C305 1.266 . S
H299 C301 0.959 . S
H300 C301 0.961 . S
C301 C291 1.510 . S
C301 H299 0.959 . S
C301 H300 0.961 . S
C301 H302 0.960 . S
H302 C301 0.960 . S
H303 N283 0.862 . S
O304 Co272 1.920 . S
O304 C277 1.289 . S
C305 O297 1.258 . S
C305 O298 1.266 . S
Co306 O309 1.970 . S
Co306 N323 1.989 . S
Co306 O331 1.967 . S
Co306 O338 1.920 . S
Co307 O310 1.966 . S
Co307 N316 2.022 . S
Co307 N324 1.993 . S
Co307 O332 1.941 . S
C308 O309 1.258 . S
C308 O310 1.263 . S
O309 Co306 1.970 . S
O309 C308 1.258 . S
O310 Co307 1.966 . S
O310 C308 1.263 . S
C311 O312 1.235 . S
C311 O338 1.289 . S
O312 C311 1.235 . S
C313 C315 1.400 . S
C313 N316 1.351 . S
C313 C318 1.501 . S
C314 C315 1.387 . S
C314 N317 1.341 . S
C315 C313 1.400 . S
C315 C314 1.387 . S
N316 Co307 2.022 . S
N316 C313 1.351 . S
N316 N317 1.365 . S
N317 C314 1.341 . S
N317 N316 1.365 . S
N317 H337 0.862 . S
C318 C313 1.501 . S
C318 H319 0.961 . S
C318 H320 0.961 . S
C318 H321 0.960 . S
H319 C318 0.961 . S
H320 C318 0.961 . S
H321 C318 0.960 . S
C322 N323 1.342 . S
C322 C326 1.401 . S
C322 C327 1.499 . S
N323 Co306 1.989 . S
N323 C322 1.342 . S
N323 N324 1.388 . S
N324 Co307 1.993 . S
N324 N323 1.388 . S
N324 C325 1.346 . S
C325 N324 1.346 . S
C325 C326 1.396 . S
C325 C335 1.510 . S
C326 C322 1.401 . S
C326 C325 1.396 . S
C327 C322 1.499 . S
C327 H328 0.959 . S
C327 H329 0.960 . S
C327 H330 0.961 . S
H328 C327 0.959 . S
H329 C327 0.960 . S
H330 C327 0.961 . S
O331 Co306 1.967 . S
O331 C339 1.258 . S
O332 Co307 1.941 . S
O332 C339 1.266 . S
H333 C335 0.959 . S
H334 C335 0.961 . S
C335 C325 1.510 . S
C335 H333 0.959 . S
C335 H334 0.961 . S
C335 H336 0.960 . S
H336 C335 0.960 . S
H337 N317 0.862 . S
O338 Co306 1.920 . S
O338 C311 1.289 . S
C339 O331 1.258 . S
C339 O332 1.266 . S
Co340 O343 1.970 . S
Co340 N357 1.989 . S
Co340 O365 1.967 . S
Co340 O372 1.920 . S
Co341 O344 1.966 . S
Co341 N350 2.022 . S
Co341 N358 1.993 . S
Co341 O366 1.941 . S
C342 O343 1.258 1_556 S
C342 O344 1.263 1_556 S
O343 Co340 1.970 . S
O343 C342 1.258 1_554 S
O344 Co341 1.966 . S
O344 C342 1.263 1_554 S
C345 O346 1.235 . S
C345 O372 1.289 . S
O346 C345 1.235 . S
C347 C349 1.400 . S
C347 N350 1.351 . S
C347 C352 1.501 . S
C348 C349 1.387 . S
C348 N351 1.341 . S
C349 C347 1.400 . S
C349 C348 1.387 . S
N350 Co341 2.022 . S
N350 C347 1.351 . S
N350 N351 1.365 . S
N351 C348 1.341 . S
N351 N350 1.365 . S
N351 H371 0.862 . S
C352 C347 1.501 . S
C352 H353 0.961 . S
C352 H354 0.961 . S
C352 H355 0.960 . S
H353 C352 0.961 . S
H354 C352 0.961 . S
H355 C352 0.960 . S
C356 N357 1.342 . S
C356 C360 1.401 . S
C356 C361 1.499 . S
N357 Co340 1.989 . S
N357 C356 1.342 . S
N357 N358 1.388 . S
N358 Co341 1.993 . S
N358 N357 1.388 . S
N358 C359 1.346 . S
C359 N358 1.346 . S
C359 C360 1.396 . S
C359 C369 1.510 . S
C360 C356 1.401 . S
C360 C359 1.396 . S
C361 C356 1.499 . S
C361 H362 0.959 . S
C361 H363 0.960 . S
C361 H364 0.961 . S
H362 C361 0.959 . S
H363 C361 0.960 . S
H364 C361 0.961 . S
O365 Co340 1.967 . S
O365 C373 1.258 . S
O366 Co341 1.941 . S
O366 C373 1.266 . S
H367 C369 0.959 . S
H368 C369 0.961 . S
C369 C359 1.510 . S
C369 H367 0.959 . S
C369 H368 0.961 . S
C369 H370 0.960 . S
H370 C369 0.960 . S
H371 N351 0.862 . S
O372 Co340 1.920 . S
O372 C345 1.289 . S
C373 O365 1.258 . S
C373 O366 1.266 . S
Co374 O377 1.970 . S
Co374 N391 1.989 . S
Co374 O399 1.967 . S
Co374 O406 1.920 . S
Co375 O378 1.966 . S
Co375 N384 2.022 . S
Co375 N392 1.993 . S
Co375 O400 1.941 . S
C376 O377 1.258 . S
C376 O378 1.263 . S
O377 Co374 1.970 . S
O377 C376 1.258 . S
O378 Co375 1.966 . S
O378 C376 1.263 . S
C379 O380 1.235 . S
C379 O406 1.289 . S
O380 C379 1.235 . S
C381 C383 1.400 . S
C381 N384 1.351 . S
C381 C386 1.501 . S
C382 C383 1.387 . S
C382 N385 1.341 . S
C383 C381 1.400 . S
C383 C382 1.387 . S
N384 Co375 2.022 . S
N384 C381 1.351 . S
N384 N385 1.365 . S
N385 C382 1.341 . S
N385 N384 1.365 . S
N385 H405 0.862 . S
C386 C381 1.501 . S
C386 H387 0.961 . S
C386 H388 0.961 . S
C386 H389 0.960 . S
H387 C386 0.961 . S
H388 C386 0.961 . S
H389 C386 0.960 . S
C390 N391 1.342 . S
C390 C394 1.401 . S
C390 C395 1.499 . S
N391 Co374 1.989 . S
N391 C390 1.342 . S
N391 N392 1.388 . S
N392 Co375 1.993 . S
N392 N391 1.388 . S
N392 C393 1.346 . S
C393 N392 1.346 . S
C393 C394 1.396 . S
C393 C403 1.510 . S
C394 C390 1.401 . S
C394 C393 1.396 . S
C395 C390 1.499 . S
C395 H396 0.959 . S
C395 H397 0.960 . S
C395 H398 0.961 . S
H396 C395 0.959 . S
H397 C395 0.960 . S
H398 C395 0.961 . S
O399 Co374 1.967 . S
O399 C407 1.258 . S
O400 Co375 1.941 . S
O400 C407 1.266 . S
H401 C403 0.959 . S
H402 C403 0.961 . S
C403 C393 1.510 . S
C403 H401 0.959 . S
C403 H402 0.961 . S
C403 H404 0.960 . S
H404 C403 0.960 . S
H405 N385 0.862 . S
O406 Co374 1.920 . S
O406 C379 1.289 . S
C407 O399 1.258 . S
C407 O400 1.266 . S
H408 C414 0.930 . S
H409 C418 0.930 . S
H410 C423 0.929 . S
H411 C421 0.929 . S
H412 C416 0.929 . S
H413 C422 0.929 . S
C414 H408 0.930 . S
C414 C415 1.367 . S
C414 C422 1.378 . S
C415 C414 1.367 . S
C415 C423 1.433 . S
C416 H412 0.929 . S
C416 C418 1.378 . S
C416 C420 1.350 . S
C417 C420 1.463 . S
C417 C422 1.350 . S
C417 N425 1.427 . S
C418 H409 0.930 . S
C418 C416 1.378 . S
C418 C419 1.367 . S
C419 C418 1.367 . S
C419 C421 1.433 . S
C420 C416 1.350 . S
C420 C417 1.463 . S
C420 N424 1.427 . S
C421 H411 0.929 . S
C421 C419 1.433 . S
C421 N424 1.384 . S
C422 H413 0.929 . S
C422 C414 1.378 . S
C422 C417 1.350 . S
C423 H410 0.929 . S
C423 C415 1.433 . S
C423 N425 1.384 . S
N424 C420 1.427 . S
N424 C421 1.384 . S
N425 C417 1.427 . S
N425 C423 1.384 . S
H426 C432 0.930 . S
H427 C436 0.930 . S
H428 C441 0.929 . S
H429 C439 0.929 . S
H430 C434 0.929 . S
H431 C440 0.929 . S
C432 H426 0.930 . S
C432 C433 1.367 . S
C432 C440 1.378 . S
C433 C432 1.367 . S
C433 C441 1.433 . S
C434 H430 0.929 . S
C434 C436 1.378 . S
C434 C438 1.350 . S
C435 C438 1.463 . S
C435 C440 1.350 . S
C435 N443 1.427 . S
C436 H427 0.930 . S
C436 C434 1.378 . S
C436 C437 1.367 . S
C437 C436 1.367 . S
C437 C439 1.433 . S
C438 C434 1.350 . S
C438 C435 1.463 . S
C438 N442 1.427 . S
C439 H429 0.929 . S
C439 C437 1.433 . S
C439 N442 1.384 . S
C440 H431 0.929 . S
C440 C432 1.378 . S
C440 C435 1.350 . S
C441 H428 0.929 . S
C441 C433 1.433 . S
C441 N443 1.384 . S
N442 C438 1.427 . S
N442 C439 1.384 . S
N443 C435 1.427 . S
N443 C441 1.384 . S
H444 C450 0.930 . S
H445 C454 0.930 . S
H446 C459 0.929 . S
H447 C457 0.929 . S
H448 C452 0.929 . S
H449 C458 0.929 . S
C450 H444 0.930 . S
C450 C451 1.367 . S
C450 C458 1.378 . S
C451 C450 1.367 . S
C451 C459 1.433 . S
C452 H448 0.929 . S
C452 C454 1.378 . S
C452 C456 1.350 . S
C453 C456 1.463 . S
C453 C458 1.350 . S
C453 N461 1.427 . S
C454 H445 0.930 . S
C454 C452 1.378 . S
C454 C455 1.367 . S
C455 C454 1.367 . S
C455 C457 1.433 . S
C456 C452 1.350 . S
C456 C453 1.463 . S
C456 N460 1.427 . S
C457 H447 0.929 . S
C457 C455 1.433 . S
C457 N460 1.384 . S
C458 H449 0.929 . S
C458 C450 1.378 . S
C458 C453 1.350 . S
C459 H446 0.929 . S
C459 C451 1.433 . S
C459 N461 1.384 . S
N460 C456 1.427 . S
N460 C457 1.384 . S
N461 C453 1.427 . S
N461 C459 1.384 . S
H462 C468 0.930 . S
H463 C472 0.930 . S
H464 C477 0.929 . S
H465 C475 0.929 . S
H466 C470 0.929 . S
H467 C476 0.929 . S
C468 H462 0.930 . S
C468 C469 1.367 . S
C468 C476 1.378 . S
C469 C468 1.367 . S
C469 C477 1.433 . S
C470 H466 0.929 . S
C470 C472 1.378 . S
C470 C474 1.350 . S
C471 C474 1.463 . S
C471 C476 1.350 . S
C471 N479 1.427 . S
C472 H463 0.930 . S
C472 C470 1.378 . S
C472 C473 1.367 . S
C473 C472 1.367 . S
C473 C475 1.433 . S
C474 C470 1.350 . S
C474 C471 1.463 . S
C474 N478 1.427 . S
C475 H465 0.929 . S
C475 C473 1.433 . S
C475 N478 1.384 . S
C476 H467 0.929 . S
C476 C468 1.378 . S
C476 C471 1.350 . S
C477 H464 0.929 . S
C477 C469 1.433 . S
C477 N479 1.384 . S
N478 C474 1.427 . S
N478 C475 1.384 . S
N479 C471 1.427 . S
N479 C477 1.384 . S
H480 C486 0.930 . S
H481 C490 0.930 . S
H482 C495 0.929 . S
H483 C493 0.929 . S
H484 C488 0.929 . S
H485 C494 0.929 . S
C486 H480 0.930 . S
C486 C487 1.367 . S
C486 C494 1.378 . S
C487 C486 1.367 . S
C487 C495 1.433 . S
C488 H484 0.929 . S
C488 C490 1.378 . S
C488 C492 1.350 . S
C489 C492 1.463 . S
C489 C494 1.350 . S
C489 N497 1.427 . S
C490 H481 0.930 . S
C490 C488 1.378 . S
C490 C491 1.367 . S
C491 C490 1.367 . S
C491 C493 1.433 . S
C492 C488 1.350 . S
C492 C489 1.463 . S
C492 N496 1.427 . S
C493 H483 0.929 . S
C493 C491 1.433 . S
C493 N496 1.384 . S
C494 H485 0.929 . S
C494 C486 1.378 . S
C494 C489 1.350 . S
C495 H482 0.929 . S
C495 C487 1.433 . S
C495 N497 1.384 . S
N496 C492 1.427 . S
N496 C493 1.384 . S
N497 C489 1.427 . S
N497 C495 1.384 . S
H498 C504 0.930 . S
H499 C508 0.930 . S
H500 C513 0.929 . S
H501 C511 0.929 . S
H502 C506 0.929 . S
H503 C512 0.929 . S
C504 H498 0.930 . S
C504 C505 1.367 . S
C504 C512 1.378 . S
C505 C504 1.367 . S
C505 C513 1.433 . S
C506 H502 0.929 . S
C506 C508 1.378 . S
C506 C510 1.350 . S
C507 C510 1.463 . S
C507 C512 1.350 . S
C507 N515 1.427 . S
C508 H499 0.930 . S
C508 C506 1.378 . S
C508 C509 1.367 . S
C509 C508 1.367 . S
C509 C511 1.433 . S
C510 C506 1.350 . S
C510 C507 1.463 . S
C510 N514 1.427 . S
C511 H501 0.929 . S
C511 C509 1.433 . S
C511 N514 1.384 . S
C512 H503 0.929 . S
C512 C504 1.378 . S
C512 C507 1.350 . S
C513 H500 0.929 . S
C513 C505 1.433 . S
C513 N515 1.384 . S
N514 C510 1.427 . S
N514 C511 1.384 . S
N515 C507 1.427 . S
N515 C513 1.384 . S
H516 C522 0.930 . S
H517 C526 0.930 . S
H518 C531 0.929 . S
H519 C529 0.929 . S
H520 C524 0.929 . S
H521 C530 0.929 . S
C522 H516 0.930 . S
C522 C523 1.367 . S
C522 C530 1.378 . S
C523 C522 1.367 . S
C523 C531 1.433 . S
C524 H520 0.929 . S
C524 C526 1.378 . S
C524 C528 1.350 . S
C525 C528 1.463 1_565 S
C525 C530 1.350 . S
C525 N533 1.427 . S
C526 H517 0.930 . S
C526 C524 1.378 . S
C526 C527 1.367 . S
C527 C526 1.367 . S
C527 C529 1.433 . S
C528 C524 1.350 . S
C528 C525 1.463 1_545 S
C528 N532 1.427 . S
C529 H519 0.929 . S
C529 C527 1.433 . S
C529 N532 1.384 . S
C530 H521 0.929 . S
C530 C522 1.378 . S
C530 C525 1.350 . S
C531 H518 0.929 . S
C531 C523 1.433 . S
C531 N533 1.384 . S
N532 C528 1.427 . S
N532 C529 1.384 . S
N533 C525 1.427 . S
N533 C531 1.384 . S
H534 C540 0.930 . S
H535 C544 0.930 . S
H536 C549 0.929 . S
H537 C547 0.929 . S
H538 C542 0.929 . S
H539 C548 0.929 . S
C540 H534 0.930 . S
C540 C541 1.367 . S
C540 C548 1.378 . S
C541 C540 1.367 . S
C541 C549 1.433 . S
C542 H538 0.929 . S
C542 C544 1.378 . S
C542 C546 1.350 . S
C543 C546 1.463 . S
C543 C548 1.350 . S
C543 N551 1.427 . S
C544 H535 0.930 . S
C544 C542 1.378 . S
C544 C545 1.367 . S
C545 C544 1.367 . S
C545 C547 1.433 . S
C546 C542 1.350 . S
C546 C543 1.463 . S
C546 N550 1.427 . S
C547 H537 0.929 . S
C547 C545 1.433 . S
C547 N550 1.384 . S
C548 H539 0.929 . S
C548 C540 1.378 . S
C548 C543 1.350 . S
C549 H536 0.929 . S
C549 C541 1.433 . S
C549 N551 1.384 . S
N550 C546 1.427 . S
N550 C547 1.384 . S
N551 C543 1.427 . S
N551 C549 1.384 . S
H552 C558 0.930 . S
H553 C562 0.930 . S
H554 C567 0.929 . S
H555 C565 0.929 . S
H556 C560 0.929 . S
H557 C566 0.929 . S
C558 H552 0.930 . S
C558 C559 1.367 . S
C558 C566 1.378 . S
C559 C558 1.367 . S
C559 C567 1.433 . S
C560 H556 0.929 . S
C560 C562 1.378 . S
C560 C564 1.350 . S
C561 C564 1.463 1_455 S
C561 C566 1.350 . S
C561 N569 1.427 . S
C562 H553 0.930 . S
C562 C560 1.378 . S
C562 C563 1.367 . S
C563 C562 1.367 . S
C563 C565 1.433 . S
C564 C560 1.350 . S
C564 C561 1.463 1_655 S
C564 N568 1.427 . S
C565 H555 0.929 . S
C565 C563 1.433 . S
C565 N568 1.384 . S
C566 H557 0.929 . S
C566 C558 1.378 . S
C566 C561 1.350 . S
C567 H554 0.929 . S
C567 C559 1.433 . S
C567 N569 1.384 . S
N568 C564 1.427 . S
N568 C565 1.384 . S
N569 C561 1.427 . S
N569 C567 1.384 . S
H570 C576 0.930 . S
H571 C580 0.930 . S
H572 C585 0.929 . S
H573 C583 0.929 . S
H574 C578 0.929 . S
H575 C584 0.929 . S
C576 H570 0.930 . S
C576 C577 1.367 1_554 S
C576 C584 1.378 . S
C577 C576 1.367 1_556 S
C577 C585 1.433 . S
C578 H574 0.929 . S
C578 C580 1.378 . S
C578 C582 1.350 1_556 S
C579 C582 1.463 1_566 S
C579 C584 1.350 1_556 S
C579 N587 1.427 . S
C580 H571 0.930 . S
C580 C578 1.378 . S
C580 C581 1.367 1_556 S
C581 C580 1.367 1_554 S
C581 C583 1.433 . S
C582 C578 1.350 1_554 S
C582 C579 1.463 1_544 S
C582 N586 1.427 . S
C583 H573 0.929 . S
C583 C581 1.433 . S
C583 N586 1.384 . S
C584 H575 0.929 . S
C584 C576 1.378 . S
C584 C579 1.350 1_554 S
C585 H572 0.929 . S
C585 C577 1.433 . S
C585 N587 1.384 . S
N586 C582 1.427 . S
N586 C583 1.384 . S
N587 C579 1.427 . S
N587 C585 1.384 . S
H588 C594 0.930 . S
H589 C598 0.930 . S
H590 C603 0.929 . S
H591 C601 0.929 . S
H592 C596 0.929 . S
H593 C602 0.929 . S
C594 H588 0.930 . S
C594 C595 1.367 . S
C594 C602 1.378 . S
C595 C594 1.367 . S
C595 C603 1.433 . S
C596 H592 0.929 . S
C596 C598 1.378 . S
C596 C600 1.350 . S
C597 C600 1.463 . S
C597 C602 1.350 . S
C597 N605 1.427 . S
C598 H589 0.930 . S
C598 C596 1.378 . S
C598 C599 1.367 . S
C599 C598 1.367 . S
C599 C601 1.433 . S
C600 C596 1.350 . S
C600 C597 1.463 . S
C600 N604 1.427 . S
C601 H591 0.929 . S
C601 C599 1.433 . S
C601 N604 1.384 . S
C602 H593 0.929 . S
C602 C594 1.378 . S
C602 C597 1.350 . S
C603 H590 0.929 . S
C603 C595 1.433 . S
C603 N605 1.384 . S
N604 C600 1.427 . S
N604 C601 1.384 . S
N605 C597 1.427 . S
N605 C603 1.384 . S
H606 C612 0.930 . S
H607 C616 0.930 . S
H608 C621 0.929 . S
H609 C619 0.929 . S
H610 C614 0.929 . S
H611 C620 0.929 . S
C612 H606 0.930 . S
C612 C613 1.367 . S
C612 C620 1.378 . S
C613 C612 1.367 . S
C613 C621 1.433 . S
C614 H610 0.929 . S
C614 C616 1.378 . S
C614 C618 1.350 . S
C615 C618 1.463 1_455 S
C615 C620 1.350 . S
C615 N623 1.427 . S
C616 H607 0.930 . S
C616 C614 1.378 . S
C616 C617 1.367 . S
C617 C616 1.367 . S
C617 C619 1.433 . S
C618 C614 1.350 . S
C618 C615 1.463 1_655 S
C618 N622 1.427 . S
C619 H609 0.929 . S
C619 C617 1.433 . S
C619 N622 1.384 . S
C620 H611 0.929 . S
C620 C612 1.378 . S
C620 C615 1.350 . S
C621 H608 0.929 . S
C621 C613 1.433 . S
C621 N623 1.384 . S
N622 C618 1.427 . S
N622 C619 1.384 . S
N623 C615 1.427 . S
N623 C621 1.384 . S
H624 C630 0.930 . S
H625 C634 0.930 . S
H626 C639 0.929 1_565 S
H627 C637 0.929 . S
H628 C632 0.929 . S
H629 C638 0.929 . S
C630 H624 0.930 . S
C630 C631 1.367 . S
C630 C638 1.378 . S
C631 C630 1.367 . S
C631 C639 1.433 . S
C632 H628 0.929 . S
C632 C634 1.378 . S
C632 C636 1.350 . S
C633 C636 1.463 . S
C633 C638 1.350 . S
C633 N641 1.427 . S
C634 H625 0.930 . S
C634 C632 1.378 . S
C634 C635 1.367 . S
C635 C634 1.367 . S
C635 C637 1.433 . S
C636 C632 1.350 . S
C636 C633 1.463 . S
C636 N640 1.427 . S
C637 H627 0.929 . S
C637 C635 1.433 . S
C637 N640 1.384 . S
C638 H629 0.929 . S
C638 C630 1.378 . S
C638 C633 1.350 . S
C639 H626 0.929 1_545 S
C639 C631 1.433 . S
C639 N641 1.384 . S
N640 C636 1.427 . S
N640 C637 1.384 . S
N641 C633 1.427 . S
N641 C639 1.384 . S
H642 C648 0.930 . S
H643 C652 0.930 . S
H644 C657 0.929 . S
H645 C655 0.929 . S
H646 C650 0.929 . S
H647 C656 0.929 . S
C648 H642 0.930 . S
C648 C649 1.367 . S
C648 C656 1.378 . S
C649 C648 1.367 . S
C649 C657 1.433 . S
C650 H646 0.929 . S
C650 C652 1.378 . S
C650 C654 1.350 . S
C651 C654 1.463 . S
C651 C656 1.350 . S
C651 N659 1.427 . S
C652 H643 0.930 . S
C652 C650 1.378 . S
C652 C653 1.367 . S
C653 C652 1.367 . S
C653 C655 1.433 . S
C654 C650 1.350 . S
C654 C651 1.463 . S
C654 N658 1.427 . S
C655 H645 0.929 . S
C655 C653 1.433 . S
C655 N658 1.384 . S
C656 H647 0.929 . S
C656 C648 1.378 . S
C656 C651 1.350 . S
C657 H644 0.929 . S
C657 C649 1.433 . S
C657 N659 1.384 . S
N658 C654 1.427 . S
N658 C655 1.384 . S
N659 C651 1.427 . S
N659 C657 1.384 . S
H660 C666 0.930 . S
H661 C670 0.930 . S
H662 C675 0.929 . S
H663 C673 0.929 1_455 S
H664 C668 0.929 . S
H665 C674 0.929 . S
C666 H660 0.930 . S
C666 C667 1.367 . S
C666 C674 1.378 . S
C667 C666 1.367 . S
C667 C675 1.433 . S
C668 H664 0.929 . S
C668 C670 1.378 . S
C668 C672 1.350 . S
C669 C672 1.463 . S
C669 C674 1.350 . S
C669 N677 1.427 . S
C670 H661 0.930 . S
C670 C668 1.378 . S
C670 C671 1.367 . S
C671 C670 1.367 . S
C671 C673 1.433 . S
C672 C668 1.350 . S
C672 C669 1.463 . S
C672 N676 1.427 . S
C673 H663 0.929 1_655 S
C673 C671 1.433 . S
C673 N676 1.384 . S
C674 H665 0.929 . S
C674 C666 1.378 . S
C674 C669 1.350 . S
C675 H662 0.929 . S
C675 C667 1.433 . S
C675 N677 1.384 . S
N676 C672 1.427 . S
N676 C673 1.384 . S
N677 C669 1.427 . S
N677 C675 1.384 . S
H678 C684 0.930 1_545 S
H679 C688 0.930 . S
H680 C693 0.929 . S
H681 C691 0.929 . S
H682 C686 0.929 . S
H683 C692 0.929 . S
C684 H678 0.930 1_565 S
C684 C685 1.367 . S
C684 C692 1.378 . S
C685 C684 1.367 . S
C685 C693 1.433 . S
C686 H682 0.929 . S
C686 C688 1.378 . S
C686 C690 1.350 . S
C687 C690 1.463 . S
C687 C692 1.350 . S
C687 N695 1.427 . S
C688 H679 0.930 . S
C688 C686 1.378 . S
C688 C689 1.367 . S
C689 C688 1.367 . S
C689 C691 1.433 . S
C690 C686 1.350 . S
C690 C687 1.463 . S
C690 N694 1.427 . S
C691 H681 0.929 . S
C691 C689 1.433 . S
C691 N694 1.384 . S
C692 H683 0.929 . S
C692 C684 1.378 . S
C692 C687 1.350 . S
C693 H680 0.929 . S
C693 C685 1.433 . S
C693 N695 1.384 . S
N694 C690 1.427 . S
N694 C691 1.384 . S
N695 C687 1.427 . S
N695 C693 1.384 . S
H696 C702 0.930 . S
H697 C706 0.930 . S
H698 C711 0.929 . S
H699 C709 0.929 . S
H700 C704 0.929 . S
H701 C710 0.929 . S
C702 H696 0.930 . S
C702 C703 1.367 . S
C702 C710 1.378 . S
C703 C702 1.367 . S
C703 C711 1.433 1_556 S
C704 H700 0.929 . S
C704 C706 1.378 . S
C704 C708 1.350 . S
C705 C708 1.463 . S
C705 C710 1.350 1_554 S
C705 N713 1.427 . S
C706 H697 0.930 . S
C706 C704 1.378 . S
C706 C707 1.367 . S
C707 C706 1.367 . S
C707 C709 1.433 . S
C708 C704 1.350 . S
C708 C705 1.463 . S
C708 N712 1.427 . S
C709 H699 0.929 . S
C709 C707 1.433 . S
C709 N712 1.384 . S
C710 H701 0.929 . S
C710 C702 1.378 . S
C710 C705 1.350 1_556 S
C711 H698 0.929 . S
C711 C703 1.433 1_554 S
C711 N713 1.384 . S
N712 C708 1.427 . S
N712 C709 1.384 . S
N713 C705 1.427 . S
N713 C711 1.384 . S
H714 C720 0.930 1_655 S
H715 C724 0.930 . S
H716 C729 0.929 . S
H717 C727 0.929 . S
H718 C722 0.929 . S
H719 C728 0.929 . S
C720 H714 0.930 1_455 S
C720 C721 1.367 . S
C720 C728 1.378 . S
C721 C720 1.367 . S
C721 C729 1.433 . S
C722 H718 0.929 . S
C722 C724 1.378 . S
C722 C726 1.350 . S
C723 C726 1.463 . S
C723 C728 1.350 . S
C723 N731 1.427 . S
C724 H715 0.930 . S
C724 C722 1.378 . S
C724 C725 1.367 . S
C725 C724 1.367 . S
C725 C727 1.433 . S
C726 C722 1.350 . S
C726 C723 1.463 . S
C726 N730 1.427 . S
C727 H717 0.929 . S
C727 C725 1.433 . S
C727 N730 1.384 . S
C728 H719 0.929 . S
C728 C720 1.378 . S
C728 C723 1.350 . S
C729 H716 0.929 . S
C729 C721 1.433 . S
C729 N731 1.384 . S
N730 C726 1.427 . S
N730 C727 1.384 . S
N731 C723 1.427 . S
N731 C729 1.384 . S
H732 C738 0.930 . S
H733 C742 0.930 . S
H734 C747 0.929 1_455 S
H735 C745 0.929 . S
H736 C740 0.929 . S
H737 C746 0.929 . S
C738 H732 0.930 . S
C738 C739 1.367 . S
C738 C746 1.378 . S
C739 C738 1.367 . S
C739 C747 1.433 . S
C740 H736 0.929 . S
C740 C742 1.378 . S
C740 C744 1.350 . S
C741 C744 1.463 . S
C741 C746 1.350 . S
C741 N749 1.427 . S
C742 H733 0.930 . S
C742 C740 1.378 . S
C742 C743 1.367 . S
C743 C742 1.367 . S
C743 C745 1.433 . S
C744 C740 1.350 . S
C744 C741 1.463 . S
C744 N748 1.427 . S
C745 H735 0.929 . S
C745 C743 1.433 . S
C745 N748 1.384 . S
C746 H737 0.929 . S
C746 C738 1.378 . S
C746 C741 1.350 . S
C747 H734 0.929 1_655 S
C747 C739 1.433 . S
C747 N749 1.384 . S
N748 C744 1.427 . S
N748 C745 1.384 . S
N749 C741 1.427 . S
N749 C747 1.384 . S
H750 C756 0.930 . S
H751 C760 0.930 . S
H752 C765 0.929 . S
H753 C763 0.929 1_545 S
H754 C758 0.929 . S
H755 C764 0.929 . S
C756 H750 0.930 . S
C756 C757 1.367 . S
C756 C764 1.378 . S
C757 C756 1.367 . S
C757 C765 1.433 . S
C758 H754 0.929 . S
C758 C760 1.378 . S
C758 C762 1.350 . S
C759 C762 1.463 . S
C759 C764 1.350 . S
C759 N767 1.427 . S
C760 H751 0.930 . S
C760 C758 1.378 . S
C760 C761 1.367 . S
C761 C760 1.367 . S
C761 C763 1.433 . S
C762 C758 1.350 . S
C762 C759 1.463 . S
C762 N766 1.427 . S
C763 H753 0.929 1_565 S
C763 C761 1.433 . S
C763 N766 1.384 . S
C764 H755 0.929 . S
C764 C756 1.378 . S
C764 C759 1.350 . S
C765 H752 0.929 . S
C765 C757 1.433 . S
C765 N767 1.384 . S
N766 C762 1.427 . S
N766 C763 1.384 . S
N767 C759 1.427 . S
N767 C765 1.384 . S
H768 C774 0.930 . S
H769 C778 0.930 . S
H770 C783 0.929 . S
H771 C781 0.929 . S
H772 C776 0.929 . S
H773 C782 0.929 . S
C774 H768 0.930 . S
C774 C775 1.367 . S
C774 C782 1.378 . S
C775 C774 1.367 . S
C775 C783 1.433 . S
C776 H772 0.929 . S
C776 C778 1.378 . S
C776 C780 1.350 . S
C777 C780 1.463 . S
C777 C782 1.350 . S
C777 N785 1.427 . S
C778 H769 0.930 . S
C778 C776 1.378 . S
C778 C779 1.367 . S
C779 C778 1.367 . S
C779 C781 1.433 . S
C780 C776 1.350 . S
C780 C777 1.463 . S
C780 N784 1.427 . S
C781 H771 0.929 . S
C781 C779 1.433 . S
C781 N784 1.384 . S
C782 H773 0.929 . S
C782 C774 1.378 . S
C782 C777 1.350 . S
C783 H770 0.929 . S
C783 C775 1.433 . S
C783 N785 1.384 . S
N784 C780 1.427 . S
N784 C781 1.384 . S
N785 C777 1.427 . S
N785 C783 1.384 . S
H786 C792 0.930 1_655 S
H787 C796 0.930 . S
H788 C801 0.929 . S
H789 C799 0.929 . S
H790 C794 0.929 . S
H791 C800 0.929 . S
C792 H786 0.930 1_455 S
C792 C793 1.367 1_556 S
C792 C800 1.378 . S
C793 C792 1.367 1_554 S
C793 C801 1.433 . S
C794 H790 0.929 . S
C794 C796 1.378 . S
C794 C798 1.350 . S
C795 C798 1.463 . S
C795 C800 1.350 . S
C795 N803 1.427 1_556 S
C796 H787 0.930 . S
C796 C794 1.378 . S
C796 C797 1.367 . S
C797 C796 1.367 . S
C797 C799 1.433 . S
C798 C794 1.350 . S
C798 C795 1.463 . S
C798 N802 1.427 . S
C799 H789 0.929 . S
C799 C797 1.433 . S
C799 N802 1.384 . S
C800 H791 0.929 . S
C800 C792 1.378 . S
C800 C795 1.350 . S
C801 H788 0.929 . S
C801 C793 1.433 . S
C801 N803 1.384 . S
N802 C798 1.427 . S
N802 C799 1.384 . S
N803 C795 1.427 1_554 S
N803 C801 1.384 . S
H804 C810 0.930 . S
H805 C814 0.930 . S
H806 C819 0.929 1_565 S
H807 C817 0.929 . S
H808 C812 0.929 . S
H809 C818 0.929 . S
C810 H804 0.930 . S
C810 C811 1.367 . S
C810 C818 1.378 . S
C811 C810 1.367 . S
C811 C819 1.433 . S
C812 H808 0.929 . S
C812 C814 1.378 . S
C812 C816 1.350 . S
C813 C816 1.463 . S
C813 C818 1.350 . S
C813 N821 1.427 . S
C814 H805 0.930 . S
C814 C812 1.378 . S
C814 C815 1.367 . S
C815 C814 1.367 . S
C815 C817 1.433 . S
C816 C812 1.350 . S
C816 C813 1.463 . S
C816 N820 1.427 . S
C817 H807 0.929 . S
C817 C815 1.433 . S
C817 N820 1.384 . S
C818 H809 0.929 . S
C818 C810 1.378 . S
C818 C813 1.350 . S
C819 H806 0.929 1_545 S
C819 C811 1.433 . S
C819 N821 1.384 . S
N820 C816 1.427 . S
N820 C817 1.384 . S
N821 C813 1.427 . S
N821 C819 1.384 . S
H822 C828 0.930 . S
H823 C832 0.930 . S
H824 C837 0.929 . S
H825 C835 0.929 . S
H826 C830 0.929 . S
H827 C836 0.929 . S
C828 H822 0.930 . S
C828 C829 1.367 . S
C828 C836 1.378 . S
C829 C828 1.367 . S
C829 C837 1.433 . S
C830 H826 0.929 . S
C830 C832 1.378 . S
C830 C834 1.350 . S
C831 C834 1.463 . S
C831 C836 1.350 . S
C831 N839 1.427 . S
C832 H823 0.930 . S
C832 C830 1.378 . S
C832 C833 1.367 . S
C833 C832 1.367 . S
C833 C835 1.433 . S
C834 C830 1.350 . S
C834 C831 1.463 . S
C834 N838 1.427 . S
C835 H825 0.929 . S
C835 C833 1.433 . S
C835 N838 1.384 . S
C836 H827 0.929 . S
C836 C828 1.378 . S
C836 C831 1.350 . S
C837 H824 0.929 . S
C837 C829 1.433 . S
C837 N839 1.384 . S
N838 C834 1.427 . S
N838 C835 1.384 . S
N839 C831 1.427 . S
N839 C837 1.384 . S
H840 C846 0.930 . S
H841 C850 0.930 . S
H842 C855 0.929 . S
H843 C853 0.929 . S
H844 C848 0.929 . S
H845 C854 0.929 . S
C846 H840 0.930 . S
C846 C847 1.367 . S
C846 C854 1.378 . S
C847 C846 1.367 . S
C847 C855 1.433 . S
C848 H844 0.929 . S
C848 C850 1.378 . S
C848 C852 1.350 . S
C849 C852 1.463 . S
C849 C854 1.350 . S
C849 N857 1.427 . S
C850 H841 0.930 . S
C850 C848 1.378 . S
C850 C851 1.367 . S
C851 C850 1.367 . S
C851 C853 1.433 . S
C852 C848 1.350 . S
C852 C849 1.463 . S
C852 N856 1.427 . S
C853 H843 0.929 . S
C853 C851 1.433 . S
C853 N856 1.384 . S
C854 H845 0.929 . S
C854 C846 1.378 . S
C854 C849 1.350 . S
C855 H842 0.929 . S
C855 C847 1.433 . S
C855 N857 1.384 . S
N856 C852 1.427 . S
N856 C853 1.384 . S
N857 C849 1.427 . S
N857 C855 1.384 . S
H858 C864 0.930 . S
H859 C868 0.930 . S
H860 C873 0.929 . S
H861 C871 0.929 . S
H862 C866 0.929 . S
H863 C872 0.929 . S
C864 H858 0.930 . S
C864 C865 1.367 . S
C864 C872 1.378 . S
C865 C864 1.367 . S
C865 C873 1.433 . S
C866 H862 0.929 . S
C866 C868 1.378 . S
C866 C870 1.350 . S
C867 C870 1.463 . S
C867 C872 1.350 . S
C867 N875 1.427 . S
C868 H859 0.930 . S
C868 C866 1.378 . S
C868 C869 1.367 . S
C869 C868 1.367 . S
C869 C871 1.433 . S
C870 C866 1.350 . S
C870 C867 1.463 . S
C870 N874 1.427 . S
C871 H861 0.929 . S
C871 C869 1.433 . S
C871 N874 1.384 . S
C872 H863 0.929 . S
C872 C864 1.378 . S
C872 C867 1.350 . S
C873 H860 0.929 . S
C873 C865 1.433 . S
C873 N875 1.384 . S
N874 C870 1.427 . S
N874 C871 1.384 . S
N875 C867 1.427 . S
N875 C873 1.384 . S
H876 C882 0.930 . S
H877 C886 0.930 . S
H878 C891 0.929 . S
H879 C889 0.929 . S
H880 C884 0.929 . S
H881 C890 0.929 . S
C882 H876 0.930 . S
C882 C883 1.367 . S
C882 C890 1.378 . S
C883 C882 1.367 . S
C883 C891 1.433 . S
C884 H880 0.929 . S
C884 C886 1.378 . S
C884 C888 1.350 . S
C885 C888 1.463 . S
C885 C890 1.350 . S
C885 N893 1.427 . S
C886 H877 0.930 . S
C886 C884 1.378 . S
C886 C887 1.367 . S
C887 C886 1.367 . S
C887 C889 1.433 . S
C888 C884 1.350 . S
C888 C885 1.463 . S
C888 N892 1.427 . S
C889 H879 0.929 . S
C889 C887 1.433 . S
C889 N892 1.384 . S
C890 H881 0.929 . S
C890 C882 1.378 . S
C890 C885 1.350 . S
C891 H878 0.929 . S
C891 C883 1.433 . S
C891 N893 1.384 . S
N892 C888 1.427 . S
N892 C889 1.384 . S
N893 C885 1.427 . S
N893 C891 1.384 . S
H894 C900 0.930 . S
H895 C904 0.930 . S
H896 C909 0.929 . S
H897 C907 0.929 . S
H898 C902 0.929 . S
H899 C908 0.929 . S
C900 H894 0.930 . S
C900 C901 1.367 . S
C900 C908 1.378 . S
C901 C900 1.367 . S
C901 C909 1.433 . S
C902 H898 0.929 . S
C902 C904 1.378 . S
C902 C906 1.350 . S
C903 C906 1.463 . S
C903 C908 1.350 . S
C903 N911 1.427 . S
C904 H895 0.930 . S
C904 C902 1.378 . S
C904 C905 1.367 . S
C905 C904 1.367 . S
C905 C907 1.433 . S
C906 C902 1.350 . S
C906 C903 1.463 . S
C906 N910 1.427 . S
C907 H897 0.929 . S
C907 C905 1.433 . S
C907 N910 1.384 . S
C908 H899 0.929 . S
C908 C900 1.378 . S
C908 C903 1.350 . S
C909 H896 0.929 . S
C909 C901 1.433 . S
C909 N911 1.384 . S
N910 C906 1.427 . S
N910 C907 1.384 . S
N911 C903 1.427 . S
N911 C909 1.384 . S
H912 C918 0.930 . S
H913 C922 0.930 . S
H914 C927 0.929 . S
H915 C925 0.929 . S
H916 C920 0.929 . S
H917 C926 0.929 . S
C918 H912 0.930 . S
C918 C919 1.367 . S
C918 C926 1.378 . S
C919 C918 1.367 . S
C919 C927 1.433 . S
C920 H916 0.929 . S
C920 C922 1.378 . S
C920 C924 1.350 . S
C921 C924 1.463 . S
C921 C926 1.350 . S
C921 N929 1.427 . S
C922 H913 0.930 . S
C922 C920 1.378 . S
C922 C923 1.367 . S
C923 C922 1.367 . S
C923 C925 1.433 . S
C924 C920 1.350 . S
C924 C921 1.463 . S
C924 N928 1.427 . S
C925 H915 0.929 . S
C925 C923 1.433 . S
C925 N928 1.384 . S
C926 H917 0.929 . S
C926 C918 1.378 . S
C926 C921 1.350 . S
C927 H914 0.929 . S
C927 C919 1.433 . S
C927 N929 1.384 . S
N928 C924 1.427 . S
N928 C925 1.384 . S
N929 C921 1.427 . S
N929 C927 1.384 . S
H930 C936 0.930 . S
H931 C940 0.930 . S
H932 C945 0.929 . S
H933 C943 0.929 . S
H934 C938 0.929 . S
H935 C944 0.929 . S
C936 H930 0.930 . S
C936 C937 1.367 . S
C936 C944 1.378 . S
C937 C936 1.367 . S
C937 C945 1.433 . S
C938 H934 0.929 . S
C938 C940 1.378 . S
C938 C942 1.350 . S
C939 C942 1.463 . S
C939 C944 1.350 . S
C939 N947 1.427 . S
C940 H931 0.930 . S
C940 C938 1.378 . S
C940 C941 1.367 . S
C941 C940 1.367 . S
C941 C943 1.433 . S
C942 C938 1.350 . S
C942 C939 1.463 . S
C942 N946 1.427 . S
C943 H933 0.929 . S
C943 C941 1.433 . S
C943 N946 1.384 . S
C944 H935 0.929 . S
C944 C936 1.378 . S
C944 C939 1.350 . S
C945 H932 0.929 . S
C945 C937 1.433 . S
C945 N947 1.384 . S
N946 C942 1.427 . S
N946 C943 1.384 . S
N947 C939 1.427 . S
N947 C945 1.384 . S
C415 C213 1.391 . S
C419 C9 1.405 . S
C433 C43 1.403 . S
C437 C247 1.396 . S
C451 C281 1.402 . S
C455 C77 1.397 . S
C469 C111 1.391 . S
C473 C315 1.400 . S
C487 C349 1.391 . S
C491 C145 1.401 . S
C505 C383 1.392 . S
C509 C179 1.400 . S
C523 C243 0.367 . S
C527 C5 0.387 . S
C541 C39 0.400 . S
C545 C277 0.347 . S
C559 C311 0.379 . S
C563 C73 0.376 . S
C577 C107 0.382 . S
C581 C345 0.360 . S
C595 C379 0.346 . S
C599 C141 0.399 . S
C613 C175 0.381 . S
C617 C209 0.374 . S
C631 C203 1.370 1_545 S
C635 C20 1.315 . S
C649 C33 1.366 . S
C653 C54 1.327 . S
C667 C88 1.313 . S
C671 C67 1.371 1_655 S
C685 C101 1.365 1_565 S
C689 C122 1.327 . S
C703 C135 1.376 . S
C707 C156 1.308 . S
C721 C169 1.368 1_455 S
C725 C190 1.324 . S
C739 C271 1.374 1_655 S
C743 C224 1.310 . S
C757 C258 1.309 . S
C761 C305 1.374 1_565 S
C775 C339 1.370 . S
C779 C292 1.315 . S
C793 C373 1.365 1_455 S
C797 C326 1.327 . S
C811 C407 1.376 1_545 S
C815 C360 1.307 . S
C829 C237 1.365 . S
C833 C394 1.327 . S
C847 C2 1.876 . S
C851 C274 1.873 . S
C865 C36 1.866 . S
C869 C308 1.875 . S
C883 C70 1.877 . S
C887 C342 1.866 . S
C901 C104 1.871 . S
C905 C376 1.877 . S
C919 C138 1.867 . S
C923 C206 1.872 . S
C937 C172 1.878 . S
C941 C240 1.871 . S
