# Generated by pormake.
# Topology toc-e, (7)-cn, num edge types: 1
# Building blocks:
#     Node 0, Type 0, BuildingBlock: NUHQUE_clean_sbu_2, # of connection points: 7
#     Node 1, Type 0, BuildingBlock: NUHQUE_clean_sbu_2, # of connection points: 7
#     Node 2, Type 0, BuildingBlock: NUHQUE_clean_sbu_2, # of connection points: 7
#     Node 3, Type 0, BuildingBlock: NUHQUE_clean_sbu_2, # of connection points: 7
#     Node 4, Type 0, BuildingBlock: NUHQUE_clean_sbu_2, # of connection points: 7
#     Node 5, Type 0, BuildingBlock: NUHQUE_clean_sbu_2, # of connection points: 7
#     Node 6, Type 0, BuildingBlock: NUHQUE_clean_sbu_2, # of connection points: 7
#     Node 7, Type 0, BuildingBlock: NUHQUE_clean_sbu_2, # of connection points: 7
#     Node 8, Type 0, BuildingBlock: NUHQUE_clean_sbu_2, # of connection points: 7
#     Node 9, Type 0, BuildingBlock: NUHQUE_clean_sbu_2, # of connection points: 7
#     Node 10, Type 0, BuildingBlock: NUHQUE_clean_sbu_2, # of connection points: 7
#     Node 11, Type 0, BuildingBlock: NUHQUE_clean_sbu_2, # of connection points: 7
#     Node 12, Type 0, BuildingBlock: NUHQUE_clean_sbu_2, # of connection points: 7
#     Node 13, Type 0, BuildingBlock: NUHQUE_clean_sbu_2, # of connection points: 7
#     Node 14, Type 0, BuildingBlock: NUHQUE_clean_sbu_2, # of connection points: 7
#     Node 15, Type 0, BuildingBlock: NUHQUE_clean_sbu_2, # of connection points: 7
#     Node 16, Type 0, BuildingBlock: NUHQUE_clean_sbu_2, # of connection points: 7
#     Node 17, Type 0, BuildingBlock: NUHQUE_clean_sbu_2, # of connection points: 7
#     Node 18, Type 0, BuildingBlock: NUHQUE_clean_sbu_2, # of connection points: 7
#     Node 19, Type 0, BuildingBlock: NUHQUE_clean_sbu_2, # of connection points: 7
#     Node 20, Type 0, BuildingBlock: NUHQUE_clean_sbu_2, # of connection points: 7
#     Node 21, Type 0, BuildingBlock: NUHQUE_clean_sbu_2, # of connection points: 7
#     Node 22, Type 0, BuildingBlock: NUHQUE_clean_sbu_2, # of connection points: 7
#     Node 23, Type 0, BuildingBlock: NUHQUE_clean_sbu_2, # of connection points: 7
#     Edge 24, Type (0, 0), BuildingBlock: TEMPAE_clean_linker_10, # of connection points: 2
#     Edge 25, Type (0, 0), BuildingBlock: TEMPAE_clean_linker_10, # of connection points: 2
#     Edge 26, Type (0, 0), BuildingBlock: TEMPAE_clean_linker_10, # of connection points: 2
#     Edge 27, Type (0, 0), BuildingBlock: TEMPAE_clean_linker_10, # of connection points: 2
#     Edge 28, Type (0, 0), BuildingBlock: TEMPAE_clean_linker_10, # of connection points: 2
#     Edge 29, Type (0, 0), BuildingBlock: TEMPAE_clean_linker_10, # of connection points: 2
#     Edge 30, Type (0, 0), BuildingBlock: TEMPAE_clean_linker_10, # of connection points: 2
#     Edge 31, Type (0, 0), BuildingBlock: TEMPAE_clean_linker_10, # of connection points: 2
#     Edge 32, Type (0, 0), BuildingBlock: TEMPAE_clean_linker_10, # of connection points: 2
#     Edge 33, Type (0, 0), BuildingBlock: TEMPAE_clean_linker_10, # of connection points: 2
#     Edge 34, Type (0, 0), BuildingBlock: TEMPAE_clean_linker_10, # of connection points: 2
#     Edge 35, Type (0, 0), BuildingBlock: TEMPAE_clean_linker_10, # of connection points: 2
#     Edge 36, Type (0, 0), BuildingBlock: TEMPAE_clean_linker_10, # of connection points: 2
#     Edge 37, Type (0, 0), BuildingBlock: TEMPAE_clean_linker_10, # of connection points: 2
#     Edge 38, Type (0, 0), BuildingBlock: TEMPAE_clean_linker_10, # of connection points: 2
#     Edge 39, Type (0, 0), BuildingBlock: TEMPAE_clean_linker_10, # of connection points: 2
#     Edge 40, Type (0, 0), BuildingBlock: TEMPAE_clean_linker_10, # of connection points: 2
#     Edge 41, Type (0, 0), BuildingBlock: TEMPAE_clean_linker_10, # of connection points: 2
#     Edge 42, Type (0, 0), BuildingBlock: TEMPAE_clean_linker_10, # of connection points: 2
#     Edge 43, Type (0, 0), BuildingBlock: TEMPAE_clean_linker_10, # of connection points: 2
#     Edge 44, Type (0, 0), BuildingBlock: TEMPAE_clean_linker_10, # of connection points: 2
#     Edge 45, Type (0, 0), BuildingBlock: TEMPAE_clean_linker_10, # of connection points: 2
#     Edge 46, Type (0, 0), BuildingBlock: TEMPAE_clean_linker_10, # of connection points: 2
#     Edge 47, Type (0, 0), BuildingBlock: TEMPAE_clean_linker_10, # of connection points: 2
#     Edge 48, Type (0, 0), BuildingBlock: TEMPAE_clean_linker_10, # of connection points: 2
#     Edge 49, Type (0, 0), BuildingBlock: TEMPAE_clean_linker_10, # of connection points: 2
#     Edge 50, Type (0, 0), BuildingBlock: TEMPAE_clean_linker_10, # of connection points: 2
#     Edge 51, Type (0, 0), BuildingBlock: TEMPAE_clean_linker_10, # of connection points: 2
#     Edge 52, Type (0, 0), BuildingBlock: TEMPAE_clean_linker_10, # of connection points: 2
#     Edge 53, Type (0, 0), BuildingBlock: TEMPAE_clean_linker_10, # of connection points: 2
#     Edge 54, Type (0, 0), BuildingBlock: TEMPAE_clean_linker_10, # of connection points: 2
#     Edge 55, Type (0, 0), BuildingBlock: TEMPAE_clean_linker_10, # of connection points: 2
#     Edge 56, Type (0, 0), BuildingBlock: TEMPAE_clean_linker_10, # of connection points: 2
#     Edge 57, Type (0, 0), BuildingBlock: TEMPAE_clean_linker_10, # of connection points: 2
#     Edge 58, Type (0, 0), BuildingBlock: TEMPAE_clean_linker_10, # of connection points: 2
#     Edge 59, Type (0, 0), BuildingBlock: TEMPAE_clean_linker_10, # of connection points: 2
#     Edge 60, Type (0, 0), BuildingBlock: TEMPAE_clean_linker_10, # of connection points: 2
#     Edge 61, Type (0, 0), BuildingBlock: TEMPAE_clean_linker_10, # of connection points: 2
#     Edge 62, Type (0, 0), BuildingBlock: TEMPAE_clean_linker_10, # of connection points: 2
#     Edge 63, Type (0, 0), BuildingBlock: TEMPAE_clean_linker_10, # of connection points: 2
#     Edge 64, Type (0, 0), BuildingBlock: TEMPAE_clean_linker_10, # of connection points: 2
#     Edge 65, Type (0, 0), BuildingBlock: TEMPAE_clean_linker_10, # of connection points: 2
#     Edge 66, Type (0, 0), BuildingBlock: TEMPAE_clean_linker_10, # of connection points: 2
#     Edge 67, Type (0, 0), BuildingBlock: TEMPAE_clean_linker_10, # of connection points: 2
#     Edge 68, Type (0, 0), BuildingBlock: TEMPAE_clean_linker_10, # of connection points: 2
#     Edge 69, Type (0, 0), BuildingBlock: TEMPAE_clean_linker_10, # of connection points: 2
#     Edge 70, Type (0, 0), BuildingBlock: TEMPAE_clean_linker_10, # of connection points: 2
#     Edge 71, Type (0, 0), BuildingBlock: TEMPAE_clean_linker_10, # of connection points: 2
#     Edge 72, Type (0, 0), BuildingBlock: TEMPAE_clean_linker_10, # of connection points: 2
#     Edge 73, Type (0, 0), BuildingBlock: TEMPAE_clean_linker_10, # of connection points: 2
#     Edge 74, Type (0, 0), BuildingBlock: TEMPAE_clean_linker_10, # of connection points: 2
#     Edge 75, Type (0, 0), BuildingBlock: TEMPAE_clean_linker_10, # of connection points: 2
#     Edge 76, Type (0, 0), BuildingBlock: TEMPAE_clean_linker_10, # of connection points: 2
#     Edge 77, Type (0, 0), BuildingBlock: TEMPAE_clean_linker_10, # of connection points: 2
#     Edge 78, Type (0, 0), BuildingBlock: TEMPAE_clean_linker_10, # of connection points: 2
#     Edge 79, Type (0, 0), BuildingBlock: TEMPAE_clean_linker_10, # of connection points: 2
#     Edge 80, Type (0, 0), BuildingBlock: TEMPAE_clean_linker_10, # of connection points: 2
#     Edge 81, Type (0, 0), BuildingBlock: TEMPAE_clean_linker_10, # of connection points: 2
#     Edge 82, Type (0, 0), BuildingBlock: TEMPAE_clean_linker_10, # of connection points: 2
#     Edge 83, Type (0, 0), BuildingBlock: TEMPAE_clean_linker_10, # of connection points: 2
#     Edge 84, Type (0, 0), BuildingBlock: TEMPAE_clean_linker_10, # of connection points: 2
#     Edge 85, Type (0, 0), BuildingBlock: TEMPAE_clean_linker_10, # of connection points: 2
#     Edge 86, Type (0, 0), BuildingBlock: TEMPAE_clean_linker_10, # of connection points: 2
#     Edge 87, Type (0, 0), BuildingBlock: TEMPAE_clean_linker_10, # of connection points: 2
#     Edge 88, Type (0, 0), BuildingBlock: TEMPAE_clean_linker_10, # of connection points: 2
#     Edge 89, Type (0, 0), BuildingBlock: TEMPAE_clean_linker_10, # of connection points: 2
#     Edge 90, Type (0, 0), BuildingBlock: TEMPAE_clean_linker_10, # of connection points: 2
#     Edge 91, Type (0, 0), BuildingBlock: TEMPAE_clean_linker_10, # of connection points: 2
#     Edge 92, Type (0, 0), BuildingBlock: TEMPAE_clean_linker_10, # of connection points: 2
#     Edge 93, Type (0, 0), BuildingBlock: TEMPAE_clean_linker_10, # of connection points: 2
#     Edge 94, Type (0, 0), BuildingBlock: TEMPAE_clean_linker_10, # of connection points: 2
#     Edge 95, Type (0, 0), BuildingBlock: TEMPAE_clean_linker_10, # of connection points: 2
#     Edge 96, Type (0, 0), BuildingBlock: TEMPAE_clean_linker_10, # of connection points: 2
#     Edge 97, Type (0, 0), BuildingBlock: TEMPAE_clean_linker_10, # of connection points: 2
#     Edge 98, Type (0, 0), BuildingBlock: TEMPAE_clean_linker_10, # of connection points: 2
#     Edge 99, Type (0, 0), BuildingBlock: TEMPAE_clean_linker_10, # of connection points: 2
#     Edge 100, Type (0, 0), BuildingBlock: TEMPAE_clean_linker_10, # of connection points: 2
#     Edge 101, Type (0, 0), BuildingBlock: TEMPAE_clean_linker_10, # of connection points: 2
#     Edge 102, Type (0, 0), BuildingBlock: TEMPAE_clean_linker_10, # of connection points: 2
#     Edge 103, Type (0, 0), BuildingBlock: TEMPAE_clean_linker_10, # of connection points: 2
#     Edge 104, Type (0, 0), BuildingBlock: TEMPAE_clean_linker_10, # of connection points: 2
#     Edge 105, Type (0, 0), BuildingBlock: TEMPAE_clean_linker_10, # of connection points: 2
#     Edge 106, Type (0, 0), BuildingBlock: TEMPAE_clean_linker_10, # of connection points: 2
#     Edge 107, Type (0, 0), BuildingBlock: TEMPAE_clean_linker_10, # of connection points: 2
# Relax obj value: 0.247
# Max RMSD: 0.246
# Mean RMSD: 0.246
data_MOF--net-toc-e--node1-NUHQUE_clean_sbu_2--edge1-TEMPAE_clean_linker_10
_symmetry_space_group_name_H-M    P1
_symmetry_Int_Tables_number       1
_symmetry_cell_setting            triclinic
loop_
_symmetry_equiv_pos_as_xyz
'x, y, z'
_cell_length_a     53.916695
_cell_length_b     53.825596
_cell_length_c     53.864652
_cell_angle_alpha  90.017372
_cell_angle_beta   90.244701
_cell_angle_gamma 90.01549
loop_
_atom_site_label
_atom_site_type_symbol
_atom_site_fract_x
_atom_site_fract_y
_atom_site_fract_z
_atom_type_partial_charge
O0 O 0.17718 0.36165 0.69057 0.0
Tb1 Tb 0.15266 0.34659 0.66115 0.0
Eu2 Eu 0.14698 0.3379 0.59477 0.0
C3 C 0.20043 0.36884 0.68731 0.0
O4 O 0.20894 0.37138 0.66464 0.0
C5 C 0.18345 0.30963 0.62864 0.0
O6 O 0.12729 0.33123 0.55818 0.0
C7 C 0.17923 0.37322 0.58944 0.0
C8 C 0.10592 0.31939 0.55758 0.0
O9 O 0.09784 0.30899 0.57808 0.0
C10 C 0.1053 0.36292 0.6303 0.0
C11 C 0.18435 0.39898 0.58152 0.0
C12 C 0.18935 0.41644 0.60015 0.0
C13 C 0.19292 0.44156 0.59448 0.0
C14 C 0.19423 0.44859 0.5694 0.0
C15 C 0.19106 0.43114 0.55031 0.0
C16 C 0.1854 0.40633 0.55637 0.0
O17 O 0.18409 0.33109 0.64056 0.0
O18 O 0.16571 0.30516 0.61237 0.0
O19 O 0.13212 0.33504 0.69366 0.0
O20 O 0.13878 0.30852 0.66515 0.0
C21 C 0.12855 0.31226 0.6867 0.0
O22 O 0.11029 0.34782 0.61179 0.0
O23 O 0.12272 0.37043 0.64615 0.0
O24 O 0.17524 0.35615 0.57241 0.0
O25 O 0.16575 0.37028 0.60959 0.0
H26 H 0.18961 0.41046 0.61936 0.0
H27 H 0.19646 0.46796 0.56441 0.0
H28 H 0.18222 0.39293 0.54168 0.0
O29 O 0.6552 0.68603 0.19013 0.0
Tb30 Tb 0.67335 0.65942 0.16476 0.0
Eu31 Eu 0.68531 0.65225 0.10048 0.0
C32 C 0.67011 0.7005 0.20343 0.0
O33 O 0.6941 0.69801 0.20002 0.0
C34 C 0.71232 0.69092 0.13356 0.0
O35 O 0.69363 0.63233 0.06446 0.0
C36 C 0.64875 0.68281 0.09331 0.0
C37 C 0.70586 0.61117 0.06453 0.0
O38 O 0.71594 0.60351 0.08542 0.0
C39 C 0.65939 0.61064 0.1349 0.0
C40 C 0.62253 0.68541 0.08558 0.0
C41 C 0.60493 0.68923 0.10429 0.0
C42 C 0.57961 0.69037 0.09875 0.0
C43 C 0.57204 0.68923 0.07383 0.0
C44 C 0.58932 0.68678 0.05462 0.0
C45 C 0.61473 0.68484 0.06048 0.0
O46 O 0.69112 0.69119 0.14591 0.0
O47 O 0.7172 0.67274 0.11792 0.0
O48 O 0.68038 0.64071 0.19964 0.0
O49 O 0.71002 0.64427 0.1737 0.0
C50 C 0.70342 0.63552 0.19527 0.0
O51 O 0.6758 0.61532 0.11757 0.0
O52 O 0.65063 0.62865 0.14933 0.0
O53 O 0.66555 0.67815 0.0763 0.0
O54 O 0.65293 0.67127 0.11449 0.0
H55 H 0.61098 0.69064 0.12346 0.0
H56 H 0.55246 0.68946 0.06919 0.0
H57 H 0.62811 0.68252 0.04572 0.0
O58 O 0.34405 0.14635 0.69254 0.0
Tb59 Tb 0.36862 0.16421 0.66498 0.0
Eu60 Eu 0.37611 0.17285 0.60001 0.0
C61 C 0.31999 0.14274 0.68894 0.0
O62 O 0.31107 0.14416 0.66626 0.0
C63 C 0.33641 0.20028 0.63088 0.0
O64 O 0.39678 0.17893 0.56405 0.0
C65 C 0.3503 0.13221 0.59758 0.0
C66 C 0.4156 0.19449 0.56329 0.0
O67 O 0.42025 0.2083 0.5829 0.0
C68 C 0.41841 0.15449 0.63722 0.0
C69 C 0.35176 0.10529 0.59218 0.0
C70 C 0.35257 0.08864 0.61223 0.0
C71 C 0.35324 0.0631 0.60809 0.0
C72 C 0.3529 0.05386 0.58385 0.0
C73 C 0.35183 0.07001 0.56339 0.0
C74 C 0.35105 0.09586 0.56768 0.0
O75 O 0.33683 0.17963 0.6442 0.0
O76 O 0.35354 0.20457 0.61412 0.0
O77 O 0.38684 0.17493 0.69927 0.0
O78 O 0.38086 0.20251 0.67151 0.0
C79 C 0.39004 0.19807 0.6935 0.0
O80 O 0.41241 0.17068 0.62006 0.0
O81 O 0.40099 0.14335 0.65054 0.0
O82 O 0.35201 0.14796 0.57898 0.0
O83 O 0.36145 0.13998 0.61792 0.0
H84 H 0.35289 0.09548 0.63118 0.0
H85 H 0.35332 0.03391 0.58101 0.0
H86 H 0.35012 0.10848 0.55204 0.0
O87 O 0.8556 0.84196 0.19681 0.0
Tb88 Tb 0.83874 0.8647 0.1672 0.0
Eu89 Eu 0.83446 0.89387 0.08422 0.0
C90 C 0.8641 0.81914 0.1937 0.0
O91 O 0.86735 0.81064 0.17109 0.0
C92 C 0.81585 0.84769 0.11649 0.0
O93 O 0.81181 0.92263 0.06378 0.0
C94 C 0.86947 0.87826 0.05526 0.0
C95 C 0.80718 0.94508 0.07215 0.0
O96 O 0.81173 0.95033 0.09552 0.0
C97 C 0.85453 0.91254 0.14158 0.0
C98 C 0.89151 0.86225 0.05591 0.0
C99 C 0.90407 0.85828 0.07833 0.0
C100 C 0.92725 0.84652 0.07857 0.0
C101 C 0.93694 0.83701 0.05636 0.0
C102 C 0.92447 0.84067 0.03369 0.0
C103 C 0.90164 0.85335 0.03363 0.0
O104 O 0.83694 0.85186 0.12851 0.0
O105 O 0.81076 0.86106 0.0964 0.0
O106 O 0.80099 0.85323 0.17645 0.0
O107 O 0.81164 0.89073 0.18176 0.0
C108 C 0.79368 0.87492 0.18406 0.0
O109 O 0.84712 0.89737 0.12393 0.0
O110 O 0.85632 0.90168 0.16349 0.0
O111 O 0.8709 0.89902 0.06819 0.0
O112 O 0.84788 0.86708 0.05709 0.0
H113 H 0.89672 0.86607 0.09537 0.0
H114 H 0.95541 0.82905 0.05634 0.0
H115 H 0.89226 0.85714 0.01619 0.0
O116 O 0.18101 0.15639 0.83962 0.0
Tb117 Tb 0.15339 0.17414 0.86401 0.0
Eu118 Eu 0.14445 0.18716 0.92913 0.0
C119 C 0.19505 0.1719 0.82668 0.0
O120 O 0.19128 0.19579 0.82999 0.0
C121 C 0.18402 0.21226 0.89669 0.0
O122 O 0.12177 0.19281 0.96394 0.0
C123 C 0.17346 0.14922 0.93491 0.0
C124 C 0.10164 0.20666 0.96352 0.0
O125 O 0.09685 0.21988 0.94356 0.0
C126 C 0.10377 0.16478 0.89162 0.0
C127 C 0.17633 0.1231 0.94264 0.0
C128 C 0.18195 0.10585 0.92402 0.0
C129 C 0.18358 0.08048 0.92928 0.0
C130 C 0.18097 0.07261 0.95396 0.0
C131 C 0.17657 0.08963 0.97316 0.0
C132 C 0.17424 0.11507 0.9675 0.0
O133 O 0.18402 0.19019 0.88588 0.0
O134 O 0.16639 0.21819 0.91249 0.0
O135 O 0.13515 0.18192 0.82895 0.0
O136 O 0.14095 0.2117 0.85449 0.0
C137 C 0.13183 0.20545 0.8329 0.0
O138 O 0.10896 0.18226 0.9078 0.0
O139 O 0.12172 0.15317 0.87949 0.0
O140 O 0.1708 0.1665 0.95199 0.0
O141 O 0.16041 0.1533 0.9146 0.0
H142 H 0.1844 0.11223 0.90509 0.0
H143 H 0.18162 0.05297 0.95834 0.0
H144 H 0.17042 0.12826 0.98219 0.0
O145 O 0.85774 0.67239 0.33403 0.0
Tb146 Tb 0.84331 0.64868 0.36405 0.0
Eu147 Eu 0.83644 0.64285 0.42816 0.0
C148 C 0.86602 0.69532 0.33707 0.0
O149 O 0.86986 0.70376 0.35965 0.0
C150 C 0.80743 0.68112 0.39669 0.0
O151 O 0.82985 0.62363 0.46482 0.0
C152 C 0.87287 0.67401 0.43299 0.0
C153 C 0.81645 0.60323 0.46576 0.0
O154 O 0.80471 0.59594 0.44561 0.0
C155 C 0.8611 0.60117 0.39294 0.0
C156 C 0.89934 0.67728 0.43941 0.0
C157 C 0.91599 0.6813 0.41989 0.0
C158 C 0.94148 0.68334 0.42433 0.0
C159 C 0.95013 0.68273 0.44892 0.0
C160 C 0.93378 0.67997 0.46889 0.0
C161 C 0.90822 0.67727 0.46414 0.0
O162 O 0.82793 0.68123 0.38329 0.0
O163 O 0.80339 0.66304 0.41267 0.0
O164 O 0.83057 0.62804 0.33195 0.0
O165 O 0.80561 0.63357 0.36196 0.0
C166 C 0.80846 0.62352 0.34015 0.0
O167 O 0.84576 0.60567 0.41131 0.0
O168 O 0.8683 0.61919 0.37779 0.0
O169 O 0.85702 0.66936 0.45089 0.0
O170 O 0.86787 0.66203 0.41223 0.0
H171 H 0.90909 0.68223 0.40097 0.0
H172 H 0.96987 0.68364 0.45271 0.0
H173 H 0.89556 0.67478 0.4795 0.0
O174 O 0.34896 0.36414 0.8275 0.0
Tb175 Tb 0.37331 0.34974 0.85736 0.0
Eu176 Eu 0.37909 0.34361 0.92358 0.0
C177 C 0.32572 0.37151 0.8305 0.0
O178 O 0.3172 0.37484 0.85306 0.0
C179 C 0.34158 0.31491 0.89157 0.0
O180 O 0.39861 0.33918 0.96064 0.0
C181 C 0.34726 0.37959 0.92596 0.0
C182 C 0.41906 0.32591 0.96236 0.0
O183 O 0.42627 0.31314 0.94289 0.0
C184 C 0.4212 0.36627 0.88725 0.0
C185 C 0.34198 0.40577 0.93209 0.0
C186 C 0.33732 0.42193 0.91226 0.0
C187 C 0.33382 0.44733 0.91623 0.0
C188 C 0.33297 0.45614 0.94075 0.0
C189 C 0.33546 0.44003 0.96116 0.0
C190 C 0.34054 0.41472 0.95668 0.0
O191 O 0.34157 0.33573 0.87855 0.0
O192 O 0.3595 0.31052 0.90767 0.0
O193 O 0.39318 0.33654 0.82506 0.0
O194 O 0.38643 0.31129 0.85467 0.0
C195 C 0.39641 0.31399 0.83284 0.0
O196 O 0.416 0.35167 0.90609 0.0
O197 O 0.40385 0.37355 0.87122 0.0
O198 O 0.35061 0.36358 0.94411 0.0
O199 O 0.36138 0.37542 0.90649 0.0
H200 H 0.33725 0.4147 0.89347 0.0
H201 H 0.33166 0.47594 0.94408 0.0
H202 H 0.34315 0.4021 0.97213 0.0
O203 O 0.63731 0.83982 0.34697 0.0
Tb204 Tb 0.65994 0.86581 0.36936 0.0
Eu205 Eu 0.68658 0.88583 0.42914 0.0
C206 C 0.63855 0.81538 0.34947 0.0
O207 O 0.64619 0.80616 0.37071 0.0
C208 C 0.70156 0.83748 0.39964 0.0
O209 O 0.70294 0.9111 0.45856 0.0
C210 C 0.64693 0.86567 0.44764 0.0
C211 C 0.69278 0.9333 0.46042 0.0
O212 O 0.67522 0.93925 0.44452 0.0
C213 C 0.65948 0.91915 0.38957 0.0
C214 C 0.62704 0.84757 0.44286 0.0
C215 C 0.61882 0.84324 0.41856 0.0
C216 C 0.59574 0.83195 0.41418 0.0
C217 C 0.58229 0.82251 0.43443 0.0
C218 C 0.59039 0.82645 0.45897 0.0
C219 C 0.61306 0.8388 0.46296 0.0
O220 O 0.67825 0.83699 0.3919 0.0
O221 O 0.7108 0.85729 0.41073 0.0
O222 O 0.66332 0.87818 0.33141 0.0
O223 O 0.69603 0.87579 0.35361 0.0
C224 C 0.68712 0.88129 0.33172 0.0
O225 O 0.68149 0.91397 0.39862 0.0
O226 O 0.6441 0.90077 0.3839 0.0
O227 O 0.66933 0.85712 0.45205 0.0
O228 O 0.64672 0.88582 0.4339 0.0
H229 H 0.62903 0.85113 0.40319 0.0
H230 H 0.5642 0.8143 0.43127 0.0
H231 H 0.61878 0.84354 0.4817 0.0
O232 O 0.69314 0.17733 0.37166 0.0
Tb233 Tb 0.6631 0.15486 0.35522 0.0
Eu234 Eu 0.59907 0.14925 0.34819 0.0
C235 C 0.6907 0.20055 0.37929 0.0
O236 O 0.66839 0.20991 0.38208 0.0
C237 C 0.62982 0.18992 0.32135 0.0
O238 O 0.56305 0.12897 0.34096 0.0
C239 C 0.59596 0.17461 0.38908 0.0
C240 C 0.56234 0.11058 0.32486 0.0
O241 O 0.58195 0.10647 0.31105 0.0
C242 C 0.6347 0.10592 0.36709 0.0
C243 C 0.59061 0.17349 0.41602 0.0
C244 C 0.61067 0.17261 0.43275 0.0
C245 C 0.60663 0.17342 0.45828 0.0
C246 C 0.58249 0.17486 0.46744 0.0
C247 C 0.562 0.17536 0.45128 0.0
C248 C 0.56617 0.1751 0.42542 0.0
O249 O 0.64419 0.1885 0.34131 0.0
O250 O 0.61296 0.17276 0.31691 0.0
O251 O 0.69572 0.13539 0.34223 0.0
O252 O 0.6663 0.14229 0.31663 0.0
C253 C 0.68818 0.13237 0.31957 0.0
O254 O 0.61767 0.11211 0.35081 0.0
O255 O 0.6488 0.12331 0.37744 0.0
O256 O 0.57741 0.17241 0.37327 0.0
O257 O 0.61655 0.16397 0.3814 0.0
H258 H 0.62955 0.17146 0.42598 0.0
H259 H 0.5797 0.1753 0.48737 0.0
H260 H 0.5505 0.17591 0.41279 0.0
O261 O 0.84483 0.19237 0.87851 0.0
Tb262 Tb 0.86361 0.16319 0.85688 0.0
Eu263 Eu 0.88075 0.10097 0.84669 0.0
C264 C 0.82084 0.19153 0.88363 0.0
O265 O 0.80872 0.17063 0.88033 0.0
C266 C 0.83291 0.1259 0.82578 0.0
O267 O 0.90455 0.06825 0.8359 0.0
C268 C 0.86145 0.09101 0.88955 0.0
C269 C 0.92429 0.06403 0.84973 0.0
O270 O 0.92907 0.07934 0.86815 0.0
C271 C 0.91781 0.14385 0.86413 0.0
C272 C 0.84012 0.09436 0.90626 0.0
C273 C 0.83086 0.11818 0.91119 0.0
C274 C 0.81718 0.12288 0.93289 0.0
C275 C 0.80965 0.10238 0.94742 0.0
C276 C 0.81746 0.07814 0.94182 0.0
C277 C 0.83287 0.07434 0.92121 0.0
O278 O 0.83325 0.13791 0.84714 0.0
O279 O 0.85243 0.1132 0.81877 0.0
O280 O 0.86004 0.19555 0.83319 0.0
O281 O 0.88352 0.16612 0.82149 0.0
C282 C 0.87484 0.18796 0.81595 0.0
O283 O 0.91324 0.12721 0.8468 0.0
O284 O 0.89944 0.1555 0.87573 0.0
O285 O 0.87547 0.11053 0.88529 0.0
O286 O 0.8589 0.07626 0.87027 0.0
H287 H 0.83671 0.13342 0.89952 0.0
H288 H 0.80007 0.1053 0.96479 0.0
H289 H 0.84042 0.05602 0.91763 0.0
O290 O 0.83192 0.34484 0.36313 0.0
Tb291 Tb 0.8612 0.36813 0.34677 0.0
Eu292 Eu 0.92491 0.37443 0.33701 0.0
C293 C 0.83528 0.32226 0.37218 0.0
O294 O 0.85795 0.31392 0.37547 0.0
C295 C 0.89239 0.33482 0.30996 0.0
O296 O 0.96125 0.3929 0.32725 0.0
C297 C 0.9325 0.34618 0.37539 0.0
C298 C 0.96168 0.41471 0.31624 0.0
O299 O 0.94078 0.42407 0.3078 0.0
C300 C 0.89056 0.41593 0.36264 0.0
C301 C 0.93878 0.34744 0.40217 0.0
C302 C 0.91938 0.34971 0.41929 0.0
C303 C 0.92432 0.35136 0.44462 0.0
C304 C 0.94876 0.3502 0.45323 0.0
C305 C 0.96856 0.34718 0.4367 0.0
C306 C 0.9635 0.34559 0.41101 0.0
O307 O 0.87929 0.3352 0.33069 0.0
O308 O 0.90866 0.35251 0.30533 0.0
O309 O 0.82835 0.38865 0.33605 0.0
O310 O 0.8568 0.38334 0.30924 0.0
C311 C 0.83518 0.39329 0.3135 0.0
O312 O 0.90791 0.41155 0.34615 0.0
O313 O 0.87622 0.39772 0.37094 0.0
O314 O 0.94996 0.35155 0.35932 0.0
O315 O 0.91054 0.35471 0.36881 0.0
H316 H 0.90028 0.35081 0.41299 0.0
H317 H 0.95229 0.35128 0.47305 0.0
H318 H 0.97866 0.34323 0.39809 0.0
O319 O 0.68168 0.33863 0.87866 0.0
Tb320 Tb 0.65988 0.36438 0.85537 0.0
Eu321 Eu 0.65052 0.42865 0.84635 0.0
C322 C 0.7058 0.3408 0.8828 0.0
O323 O 0.71678 0.36213 0.87851 0.0
C324 C 0.69089 0.39813 0.81998 0.0
O325 O 0.63098 0.46483 0.83781 0.0
C326 C 0.67824 0.4349 0.88539 0.0
C327 C 0.61015 0.46507 0.82498 0.0
O328 O 0.60242 0.44431 0.8147 0.0
C329 C 0.60801 0.39076 0.86689 0.0
C330 C 0.67765 0.44131 0.91211 0.0
C331 C 0.67598 0.42184 0.9293 0.0
C332 C 0.67516 0.42667 0.95466 0.0
C333 C 0.67662 0.45114 0.96322 0.0
C334 C 0.67903 0.47103 0.94658 0.0
C335 C 0.67975 0.46604 0.92085 0.0
O336 O 0.69104 0.38654 0.84157 0.0
O337 O 0.67282 0.41367 0.81466 0.0
O338 O 0.65793 0.32682 0.84143 0.0
O339 O 0.64391 0.35597 0.81864 0.0
C340 C 0.64768 0.33209 0.82033 0.0
O341 O 0.61373 0.41027 0.85332 0.0
O342 O 0.62494 0.37441 0.87446 0.0
O343 O 0.67413 0.45263 0.8691 0.0
O344 O 0.66829 0.41346 0.87899 0.0
H345 H 0.67465 0.40274 0.923 0.0
H346 H 0.67611 0.45463 0.98305 0.0
H347 H 0.68163 0.48127 0.90785 0.0
O348 O 0.68981 0.3504 0.15594 0.0
Tb349 Tb 0.6622 0.37509 0.17337 0.0
Eu350 Eu 0.5977 0.38061 0.18215 0.0
C351 C 0.68534 0.32748 0.14824 0.0
O352 O 0.66232 0.31965 0.14666 0.0
C353 C 0.63053 0.3434 0.21111 0.0
O354 O 0.56068 0.39839 0.19007 0.0
C355 C 0.59256 0.34899 0.14611 0.0
C356 C 0.55954 0.41944 0.2024 0.0
O357 O 0.57994 0.42834 0.21245 0.0
C358 C 0.63229 0.42356 0.15819 0.0
C359 C 0.58619 0.34428 0.11983 0.0
C360 C 0.60551 0.33661 0.10433 0.0
C361 C 0.6019 0.33379 0.07876 0.0
C362 C 0.57782 0.33673 0.06909 0.0
C363 C 0.55772 0.34271 0.08445 0.0
C364 C 0.56195 0.34664 0.11 0.0
O365 O 0.64338 0.34296 0.19024 0.0
O366 O 0.61437 0.36127 0.21511 0.0
O367 O 0.6965 0.39362 0.18326 0.0
O368 O 0.66861 0.38962 0.21088 0.0
C369 C 0.69064 0.39834 0.20608 0.0
O370 O 0.61363 0.41819 0.17288 0.0
O371 O 0.64782 0.40608 0.15038 0.0
O372 O 0.57474 0.35394 0.16194 0.0
O373 O 0.61325 0.36129 0.15055 0.0
H374 H 0.62377 0.33365 0.11226 0.0
H375 H 0.5746 0.33511 0.04929 0.0
H376 H 0.54667 0.35189 0.1219 0.0
O377 O 0.68396 0.17869 0.64591 0.0
Tb378 Tb 0.65777 0.15709 0.66894 0.0
Eu379 Eu 0.6365 0.09547 0.69125 0.0
C380 C 0.70836 0.17652 0.64806 0.0
O381 O 0.71744 0.15641 0.65841 0.0
C382 C 0.68347 0.12498 0.71069 0.0
O383 O 0.61096 0.0659 0.70641 0.0
C384 C 0.65706 0.07719 0.65173 0.0
C385 C 0.58855 0.06471 0.69664 0.0
O386 O 0.5822 0.08149 0.68009 0.0
C387 C 0.60456 0.13684 0.66508 0.0
C388 C 0.675 0.08008 0.63141 0.0
C389 C 0.67914 0.10349 0.6209 0.0
C390 C 0.68992 0.10556 0.59732 0.0
C391 C 0.69893 0.08405 0.58554 0.0
C392 C 0.69555 0.06041 0.59609 0.0
C393 C 0.68364 0.05867 0.61924 0.0
O394 O 0.6855 0.13377 0.68786 0.0
O395 O 0.66351 0.11291 0.7178 0.0
O396 O 0.65164 0.19629 0.6755 0.0
O397 O 0.64319 0.1708 0.70443 0.0
C398 C 0.64341 0.19415 0.69794 0.0
O399 O 0.60917 0.12665 0.6867 0.0
O400 O 0.62321 0.14414 0.65087 0.0
O401 O 0.66542 0.07263 0.67422 0.0
O402 O 0.63746 0.09171 0.65127 0.0
H403 H 0.67152 0.11986 0.62981 0.0
H404 H 0.70588 0.08537 0.56673 0.0
H405 H 0.67964 0.04055 0.62705 0.0
O406 O 0.81949 0.17476 0.14869 0.0
Tb407 Tb 0.84864 0.15011 0.16368 0.0
Eu408 Eu 0.91306 0.14256 0.16857 0.0
C409 C 0.82315 0.19774 0.14078 0.0
O410 O 0.84591 0.20557 0.13706 0.0
C411 C 0.88386 0.18241 0.19794 0.0
O412 O 0.94923 0.12232 0.17548 0.0
C413 C 0.91673 0.17141 0.13012 0.0
C414 C 0.94966 0.10276 0.19015 0.0
O415 O 0.92943 0.09701 0.2024 0.0
C416 C 0.87597 0.10076 0.14717 0.0
C417 C 0.92203 0.17343 0.10323 0.0
C418 C 0.90192 0.17567 0.08673 0.0
C419 C 0.90591 0.17909 0.0614 0.0
C420 C 0.93008 0.18029 0.05222 0.0
C421 C 0.95062 0.17835 0.06824 0.0
C422 C 0.94648 0.17516 0.09392 0.0
O423 O 0.86935 0.18245 0.17806 0.0
O424 O 0.89971 0.16416 0.20153 0.0
O425 O 0.81535 0.13208 0.177 0.0
O426 O 0.84578 0.13652 0.20195 0.0
C427 C 0.8233 0.12794 0.19935 0.0
O428 O 0.89481 0.10563 0.16192 0.0
O429 O 0.86056 0.11864 0.13989 0.0
O430 O 0.93525 0.16731 0.14557 0.0
O431 O 0.89599 0.16027 0.13663 0.0
H432 H 0.88303 0.17471 0.0935 0.0
H433 H 0.93283 0.18286 0.03245 0.0
H434 H 0.96219 0.1739 0.10646 0.0
O435 O 0.84193 0.33311 0.65168 0.0
Tb436 Tb 0.87077 0.35671 0.66901 0.0
Eu437 Eu 0.87773 0.42193 0.6788 0.0
C438 C 0.82773 0.32052 0.66735 0.0
O439 O 0.83186 0.3238 0.69119 0.0
C440 C 0.84234 0.38923 0.70913 0.0
O441 O 0.89686 0.45877 0.68503 0.0
C442 C 0.8449 0.42599 0.64369 0.0
C443 C 0.91784 0.45961 0.69758 0.0
O444 O 0.92579 0.43926 0.70847 0.0
C445 C 0.91905 0.38666 0.65349 0.0
C446 C 0.84023 0.4328 0.61753 0.0
C447 C 0.8348 0.41349 0.6009 0.0
C448 C 0.83191 0.41807 0.5755 0.0
C449 C 0.83283 0.44272 0.56704 0.0
C450 C 0.83693 0.46254 0.58346 0.0
C451 C 0.84065 0.45757 0.60887 0.0
O452 O 0.84064 0.37663 0.68811 0.0
O453 O 0.86047 0.40522 0.71252 0.0
O454 O 0.8879 0.34568 0.70432 0.0
O455 O 0.88554 0.31977 0.67446 0.0
C456 C 0.89303 0.32307 0.69714 0.0
O457 O 0.91436 0.40502 0.66882 0.0
O458 O 0.90136 0.37123 0.64577 0.0
O459 O 0.84931 0.44377 0.65989 0.0
O460 O 0.85808 0.40575 0.6476 0.0
H461 H 0.83363 0.39459 0.60776 0.0
H462 H 0.83119 0.44663 0.54737 0.0
H463 H 0.84433 0.47276 0.62156 0.0
O464 O 0.3671 0.68586 0.17786 0.0
Tb465 Tb 0.34884 0.66108 0.15086 0.0
Eu466 Eu 0.33909 0.5966 0.14235 0.0
C467 C 0.35203 0.69837 0.19268 0.0
O468 O 0.3281 0.69452 0.19001 0.0
C469 C 0.31284 0.62741 0.18248 0.0
O470 O 0.33242 0.56124 0.12082 0.0
C471 C 0.37784 0.59052 0.17032 0.0
C472 C 0.35097 0.55354 0.10699 0.0
O473 O 0.37188 0.56609 0.10775 0.0
C474 C 0.36217 0.633 0.10133 0.0
C475 C 0.40427 0.58336 0.16931 0.0
C476 C 0.42202 0.60221 0.16669 0.0
C477 C 0.44715 0.59648 0.16534 0.0
C478 C 0.45489 0.5718 0.16711 0.0
C479 C 0.43766 0.5526 0.17053 0.0
C480 C 0.41221 0.55843 0.17182 0.0
O481 O 0.33402 0.63981 0.18238 0.0
O482 O 0.30752 0.61189 0.16435 0.0
O483 O 0.33892 0.6963 0.134 0.0
O484 O 0.3108 0.66885 0.13869 0.0
C485 C 0.31566 0.69116 0.13057 0.0
O486 O 0.34568 0.61565 0.10588 0.0
O487 O 0.3711 0.64731 0.11934 0.0
O488 O 0.36107 0.57306 0.16699 0.0
O489 O 0.37188 0.61179 0.15977 0.0
H490 H 0.41636 0.62149 0.16515 0.0
H491 H 0.47455 0.5676 0.16627 0.0
H492 H 0.39881 0.54368 0.17452 0.0
O493 O 0.38008 0.83709 0.3368 0.0
Tb494 Tb 0.35756 0.86186 0.36028 0.0
Eu495 Eu 0.35137 0.92516 0.3727 0.0
C496 C 0.38123 0.83998 0.31243 0.0
O497 O 0.37485 0.86149 0.3029 0.0
C498 C 0.32154 0.89819 0.33204 0.0
O499 O 0.34741 0.96035 0.39519 0.0
C500 C 0.39127 0.927 0.34593 0.0
C501 C 0.33179 0.961 0.41389 0.0
O502 O 0.31713 0.94184 0.41748 0.0
C503 C 0.36789 0.8844 0.41307 0.0
C504 C 0.41822 0.9324 0.34597 0.0
C505 C 0.4349 0.91235 0.34606 0.0
C506 C 0.46039 0.91645 0.34428 0.0
C507 C 0.4695 0.94069 0.34264 0.0
C508 C 0.45338 0.96116 0.343 0.0
C509 C 0.42758 0.95691 0.34424 0.0
O510 O 0.34248 0.8856 0.33065 0.0
O511 O 0.31817 0.91386 0.35039 0.0
O512 O 0.34167 0.82492 0.36053 0.0
O513 O 0.32224 0.85395 0.37894 0.0
C514 C 0.32216 0.83041 0.37331 0.0
O515 O 0.3532 0.90315 0.40795 0.0
O516 O 0.37773 0.87058 0.3952 0.0
O517 O 0.37567 0.94571 0.34785 0.0
O518 O 0.38389 0.90688 0.35767 0.0
H519 H 0.42812 0.89342 0.34738 0.0
H520 H 0.48938 0.94357 0.34151 0.0
H521 H 0.41498 0.97258 0.34414 0.0
O522 O 0.19318 0.87018 0.84315 0.0
Tb523 Tb 0.16627 0.85255 0.8686 0.0
Eu524 Eu 0.10258 0.83928 0.87824 0.0
C525 C 0.18905 0.87332 0.81908 0.0
O526 O 0.16637 0.87068 0.81052 0.0
C527 C 0.13406 0.81369 0.83821 0.0
O528 O 0.0706 0.82973 0.90336 0.0
C529 C 0.09268 0.87707 0.85002 0.0
C530 C 0.048 0.82385 0.89621 0.0
O531 O 0.04304 0.82097 0.87248 0.0
C532 C 0.13807 0.86638 0.91757 0.0
C533 C 0.08568 0.90365 0.8502 0.0
C534 C 0.10431 0.9215 0.854 0.0
C535 C 0.09876 0.94673 0.85325 0.0
C536 C 0.07464 0.95451 0.848 0.0
C537 C 0.05576 0.93718 0.84351 0.0
C538 C 0.0612 0.9116 0.84492 0.0
O539 O 0.14557 0.83539 0.83774 0.0
O540 O 0.11895 0.80811 0.85649 0.0
O541 O 0.20056 0.84243 0.88721 0.0
O542 O 0.1725 0.81492 0.88281 0.0
C543 C 0.19455 0.81955 0.89165 0.0
O544 O 0.12231 0.84823 0.91374 0.0
O545 O 0.15163 0.87559 0.89923 0.0
O546 O 0.07583 0.86046 0.85604 0.0
O547 O 0.11504 0.87162 0.85834 0.0
H548 H 0.12324 0.91595 0.85804 0.0
H549 H 0.07047 0.97424 0.8477 0.0
H550 H 0.04665 0.89811 0.8415 0.0
O551 O 0.15299 0.68348 0.33814 0.0
Tb552 Tb 0.17013 0.66049 0.36748 0.0
Eu553 Eu 0.18169 0.59556 0.37895 0.0
C554 C 0.16883 0.69533 0.32354 0.0
O555 O 0.19259 0.69159 0.32763 0.0
C556 C 0.2081 0.62636 0.33849 0.0
O557 O 0.18973 0.56413 0.40574 0.0
C558 C 0.14339 0.58599 0.35123 0.0
C559 C 0.19249 0.54052 0.39995 0.0
O560 O 0.1932 0.53378 0.37653 0.0
C561 C 0.15613 0.63354 0.41728 0.0
C562 C 0.11694 0.57871 0.35239 0.0
C563 C 0.09905 0.5974 0.35543 0.0
C564 C 0.07395 0.5915 0.35647 0.0
C565 C 0.06633 0.56684 0.35417 0.0
C566 C 0.08363 0.5478 0.35035 0.0
C567 C 0.10909 0.5538 0.34924 0.0
O568 O 0.18649 0.63793 0.3377 0.0
O569 O 0.21322 0.61089 0.35673 0.0
O570 O 0.20627 0.67136 0.38299 0.0
O571 O 0.17702 0.6979 0.38031 0.0
C572 C 0.19987 0.69444 0.38707 0.0
O573 O 0.17355 0.61689 0.41374 0.0
O574 O 0.14726 0.64721 0.39875 0.0
O575 O 0.16026 0.56916 0.35665 0.0
O576 O 0.149 0.60832 0.35958 0.0
H577 H 0.10453 0.61669 0.35739 0.0
H578 H 0.04667 0.56254 0.35483 0.0
H579 H 0.12257 0.53921 0.34613 0.0
O580 O 0.33649 0.65828 0.8424 0.0
Tb581 Tb 0.36417 0.67491 0.86799 0.0
Eu582 Eu 0.4299 0.6843 0.87688 0.0
C583 C 0.34001 0.65564 0.8182 0.0
O584 O 0.36247 0.65848 0.80933 0.0
C585 C 0.39754 0.71311 0.83892 0.0
O586 O 0.46605 0.69214 0.89691 0.0
C587 C 0.43643 0.64684 0.84724 0.0
C588 C 0.4663 0.70356 0.91852 0.0
O589 O 0.44547 0.71285 0.92704 0.0
C590 C 0.39299 0.65922 0.91666 0.0
C591 C 0.44279 0.62009 0.84747 0.0
C592 C 0.42337 0.60278 0.84855 0.0
C593 C 0.42833 0.57744 0.84968 0.0
C594 C 0.4528 0.56901 0.84902 0.0
C595 C 0.47261 0.58577 0.84707 0.0
C596 C 0.46756 0.61147 0.8461 0.0
O597 O 0.3855 0.69176 0.83769 0.0
O598 O 0.41399 0.71702 0.85663 0.0
O599 O 0.33048 0.68553 0.88712 0.0
O600 O 0.35884 0.7126 0.88239 0.0
C601 C 0.33694 0.7083 0.89154 0.0
O602 O 0.41121 0.67498 0.91286 0.0
O603 O 0.37861 0.6512 0.89824 0.0
O604 O 0.45406 0.66293 0.85242 0.0
O605 O 0.41484 0.65293 0.85681 0.0
H606 H 0.40424 0.60895 0.84932 0.0
H607 H 0.45639 0.54919 0.84983 0.0
H608 H 0.48278 0.62454 0.8447 0.0
O609 O 0.14976 0.83468 0.17774 0.0
Tb610 Tb 0.16792 0.86249 0.15359 0.0
Eu611 Eu 0.17165 0.92854 0.14776 0.0
C612 C 0.14673 0.83763 0.20197 0.0
O613 O 0.14941 0.8599 0.21155 0.0
C614 C 0.20285 0.8979 0.18531 0.0
O615 O 0.17658 0.96604 0.12961 0.0
C616 C 0.13179 0.92883 0.1746 0.0
C617 C 0.19141 0.96838 0.11042 0.0
O618 O 0.20494 0.94922 0.10376 0.0
C619 C 0.15433 0.89175 0.10413 0.0
C620 C 0.10467 0.93325 0.17318 0.0
C621 C 0.08884 0.91275 0.16995 0.0
C622 C 0.06318 0.9159 0.16941 0.0
C623 C 0.05303 0.93963 0.17203 0.0
C624 C 0.0683 0.96058 0.17472 0.0
C625 C 0.09425 0.95726 0.17579 0.0
O626 O 0.18307 0.88338 0.18542 0.0
O627 O 0.20516 0.9154 0.16848 0.0
O628 O 0.1798 0.82813 0.13631 0.0
O629 O 0.20638 0.8569 0.14169 0.0
C630 C 0.20272 0.83455 0.13311 0.0
O631 O 0.16783 0.9111 0.11025 0.0
O632 O 0.14629 0.87575 0.12107 0.0
O633 O 0.14668 0.94811 0.17277 0.0
O634 O 0.1403 0.90887 0.16333 0.0
H635 H 0.0964 0.89422 0.16767 0.0
H636 H 0.03304 0.94182 0.17115 0.0
H637 H 0.10618 0.9733 0.17812 0.0
O638 O 0.1877 0.65718 0.67881 0.0
Tb639 Tb 0.16145 0.67277 0.65135 0.0
Eu640 Eu 0.09518 0.68104 0.6443 0.0
C641 C 0.19976 0.67377 0.69254 0.0
O642 O 0.19486 0.69732 0.68836 0.0
C643 C 0.12775 0.70816 0.68286 0.0
O644 O 0.05859 0.6888 0.62519 0.0
C645 C 0.08985 0.64197 0.67199 0.0
C646 C 0.05767 0.70091 0.60399 0.0
O647 O 0.07808 0.71111 0.59547 0.0
C648 C 0.1316 0.65815 0.60281 0.0
C649 C 0.08374 0.61524 0.6701 0.0
C650 C 0.10319 0.59832 0.66658 0.0
C651 C 0.0984 0.57305 0.66399 0.0
C652 C 0.07409 0.56426 0.66554 0.0
C653 C 0.05426 0.58058 0.66981 0.0
C654 C 0.05918 0.60622 0.67228 0.0
O655 O 0.1396 0.6867 0.68266 0.0
O656 O 0.11096 0.71298 0.66575 0.0
O657 O 0.19537 0.68345 0.63278 0.0
O658 O 0.16764 0.71101 0.63895 0.0
C659 C 0.18954 0.70663 0.6297 0.0
O660 O 0.11351 0.67373 0.60771 0.0
O661 O 0.14689 0.64989 0.6204 0.0
O662 O 0.07193 0.65813 0.66825 0.0
O663 O 0.11112 0.64891 0.6623 0.0
H664 H 0.12219 0.60477 0.66519 0.0
H665 H 0.07069 0.54447 0.66378 0.0
H666 H 0.044 0.61898 0.67553 0.0
O667 O 0.33863 0.8697 0.67829 0.0
Tb668 Tb 0.36367 0.8525 0.65094 0.0
Eu669 Eu 0.42721 0.83464 0.63633 0.0
C670 C 0.3278 0.85374 0.69357 0.0
O671 O 0.33344 0.83015 0.69084 0.0
C672 C 0.39761 0.81809 0.68308 0.0
O673 O 0.45786 0.82017 0.61177 0.0
C674 C 0.44308 0.87554 0.65635 0.0
C675 C 0.47235 0.83714 0.60182 0.0
O676 O 0.4683 0.86053 0.60743 0.0
C677 C 0.38767 0.85806 0.5993 0.0
C678 C 0.44146 0.894 0.6765 0.0
C679 C 0.41836 0.90366 0.6834 0.0
C680 C 0.41674 0.92699 0.69499 0.0
C681 C 0.4388 0.93871 0.70287 0.0
C682 C 0.46218 0.92851 0.69755 0.0
C683 C 0.46328 0.90605 0.68423 0.0
O684 O 0.38757 0.84042 0.68173 0.0
O685 O 0.41017 0.80911 0.66426 0.0
O686 O 0.32911 0.84182 0.63329 0.0
O687 O 0.35577 0.81366 0.64159 0.0
C688 C 0.334 0.81826 0.63195 0.0
O689 O 0.40085 0.8381 0.6041 0.0
O690 O 0.37824 0.8715 0.61767 0.0
O691 O 0.45347 0.85391 0.66085 0.0
O692 O 0.42448 0.87448 0.64051 0.0
H693 H 0.40163 0.89439 0.67712 0.0
H694 H 0.43802 0.95727 0.71058 0.0
H695 H 0.48109 0.89879 0.6784 0.0
C696 C 0.17172 0.44077 0.50905 0.0
C697 C 0.1928 0.44001 0.52431 0.0
C698 C 0.17177 0.4545 0.48678 0.0
C699 C 0.19347 0.46757 0.47964 0.0
C700 C 0.21528 0.4653 0.49421 0.0
C701 C 0.21461 0.45172 0.51644 0.0
C702 C 0.14809 0.45649 0.47189 0.0
C703 C 0.2389 0.47862 0.48724 0.0
C704 C 0.19874 0.49665 0.41516 0.0
C705 C 0.19305 0.52162 0.42011 0.0
C706 C 0.19876 0.47873 0.43425 0.0
C707 C 0.19268 0.48589 0.4588 0.0
C708 C 0.18667 0.51102 0.46381 0.0
C709 C 0.18706 0.52852 0.4445 0.0
C710 C 0.20551 0.45221 0.42821 0.0
C711 C 0.17988 0.51949 0.48965 0.0
H712 H 0.15476 0.432 0.51532 0.0
H713 H 0.23087 0.45121 0.52835 0.0
H714 H 0.14025 0.47542 0.47407 0.0
H715 H 0.15179 0.45367 0.45185 0.0
H716 H 0.13397 0.44278 0.47798 0.0
H717 H 0.25495 0.47246 0.49869 0.0
H718 H 0.24327 0.4755 0.46738 0.0
H719 H 0.23643 0.49891 0.48991 0.0
H720 H 0.20334 0.4911 0.3964 0.0
H721 H 0.18239 0.54768 0.44855 0.0
H722 H 0.19029 0.43955 0.43381 0.0
H723 H 0.22226 0.44669 0.4389 0.0
H724 H 0.20923 0.44949 0.40812 0.0
H725 H 0.16395 0.50852 0.49662 0.0
H726 H 0.17492 0.53952 0.49031 0.0
H727 H 0.19567 0.51626 0.50252 0.0
C728 C 0.48794 0.71294 0.95866 0.0
C729 C 0.48883 0.70306 0.93458 0.0
C730 C 0.5079 0.71013 0.97526 0.0
C731 C 0.52947 0.69721 0.96764 0.0
C732 C 0.53098 0.68815 0.943 0.0
C733 C 0.51062 0.69111 0.92678 0.0
C734 C 0.50541 0.72007 1.00137 0.0
C735 C 0.55367 0.67444 0.93409 0.0
C736 C 0.58336 0.70592 0.01271 0.0
C737 C 0.57963 0.68587 0.02883 0.0
C738 C 0.56839 0.70893 0.99141 0.0
C739 C 0.54926 0.69153 0.98632 0.0
C740 C 0.54697 0.67014 1.00146 0.0
C741 C 0.56216 0.66761 0.02252 0.0
C742 C 0.57168 0.73181 0.9756 0.0
C743 C 0.52698 0.65103 0.99677 0.0
H744 H 0.47127 0.72225 0.96491 0.0
H745 H 0.51155 0.68343 0.90821 0.0
H746 H 0.50541 0.7044 0.01476 0.0
H747 H 0.52145 0.73212 1.00605 0.0
H748 H 0.48809 0.73092 1.00394 0.0
H749 H 0.55325 0.67128 0.91371 0.0
H750 H 0.57074 0.68493 0.93893 0.0
H751 H 0.55486 0.65615 0.94351 0.0
H752 H 0.59666 0.72019 0.01774 0.0
H753 H 0.55921 0.65217 0.03511 0.0
H754 H 0.55662 0.74522 0.97971 0.0
H755 H 0.57043 0.72708 0.95559 0.0
H756 H 0.58975 0.74108 0.97925 0.0
H757 H 0.50861 0.65915 1.00121 0.0
H758 H 0.52962 0.63409 1.00827 0.0
H759 H 0.52662 0.64554 0.97693 0.0
C760 C 0.33355 0.06711 0.52037 0.0
C761 C 0.35118 0.05924 0.53791 0.0
C762 C 0.33031 0.05424 0.49781 0.0
C763 C 0.34497 0.03297 0.49278 0.0
C764 C 0.36377 0.0259 0.5098 0.0
C765 C 0.36672 0.03918 0.53201 0.0
C766 C 0.31029 0.06256 0.48002 0.0
C767 C 0.37987 1.00339 0.50525 0.0
C768 C 0.31946 0.97927 0.45473 0.0
C769 C 0.33299 0.98126 0.43262 0.0
C770 C 0.32248 0.99657 0.47401 0.0
C771 C 0.33928 0.01659 0.47112 0.0
C772 C 0.35209 0.01943 0.44839 0.0
C773 C 0.3489 1.00166 0.42944 0.0
C774 C 0.30856 0.9927 0.49799 0.0
C775 C 0.36995 0.04065 0.44445 0.0
H776 H 0.32144 0.08255 0.52481 0.0
H777 H 0.38072 0.03331 0.54527 0.0
H778 H 0.31746 0.06312 0.46076 0.0
H779 H 0.29476 0.04904 0.48035 0.0
H780 H 0.30289 0.08119 0.48489 0.0
H781 H 0.39487 1.00152 0.51933 0.0
H782 H 0.36829 0.98635 0.50575 0.0
H783 H 0.38841 1.00441 0.48658 0.0
H784 H 0.3071 0.96363 0.45741 0.0
H785 H 0.35935 1.00344 0.4124 0.0
H786 H 0.29852 1.00988 0.50323 0.0
H787 H 0.3219 0.98848 0.51316 0.0
H788 H 0.29499 0.97721 0.4967 0.0
H789 H 0.36125 0.05853 0.44984 0.0
H790 H 0.37615 0.04196 0.42485 0.0
H791 H 0.38651 0.03805 0.45646 0.0
C792 C 0.03286 0.8309 0.93939 0.0
C793 C 0.02798 0.82286 0.91506 0.0
C794 C 0.01404 0.83194 0.95724 0.0
C795 C 0.98967 0.82444 0.95079 0.0
C796 C 0.9847 0.81563 0.92648 0.0
C797 C 1.00389 0.8151 0.90883 0.0
C798 C 0.02016 0.84168 0.98287 0.0
C799 C 0.95905 0.80714 0.91905 0.0
C800 C 0.94959 0.81184 1.00721 0.0
C801 C 0.93744 0.83469 1.01013 0.0
C802 C 0.96541 0.80758 0.98699 0.0
C803 C 0.96947 0.82677 0.96948 0.0
C804 C 0.9562 0.84939 0.97163 0.0
C805 C 0.94026 0.85302 0.99186 0.0
C806 C 0.97888 0.78307 0.98518 0.0
C807 C 0.96015 0.87044 0.95354 0.0
H808 H 0.05135 0.83703 0.94445 0.0
H809 H 0.99997 0.80879 0.89011 0.0
H810 H 1.00899 0.85855 0.98674 0.0
H811 H 0.01531 0.82763 0.9971 0.0
H812 H 0.04011 0.84646 0.98499 0.0
H813 H 0.95854 0.79936 0.89995 0.0
H814 H 0.95231 0.7928 0.93219 0.0
H815 H 0.94595 0.823 0.91999 0.0
H816 H 0.94735 0.79758 0.02124 0.0
H817 H 0.93118 0.87083 0.99418 0.0
H818 H 0.99877 0.78583 0.98977 0.0
H819 H 0.97786 0.7757 0.96596 0.0
H820 H 0.97116 0.76897 0.99808 0.0
H821 H 0.97915 0.87803 0.95598 0.0
H822 H 0.94663 0.88576 0.95627 0.0
H823 H 0.95859 0.86367 0.93415 0.0
C824 C 0.17565 1.01138 0.10094 0.0
C825 C 0.19042 0.9909 0.09449 0.0
C826 C 0.17255 0.03154 0.08455 0.0
C827 C 0.18426 0.03106 0.06107 0.0
C828 C 0.19994 1.01088 0.05491 0.0
C829 C 0.20291 0.99117 0.0717 0.0
C830 C 0.15593 0.05282 0.09194 0.0
C831 C 0.21269 1.00948 0.03002 0.0
C832 C 0.15723 0.06063 1.00331 0.0
C833 C 0.17427 0.07974 0.99873 0.0
C834 C 0.15913 0.04579 0.02462 0.0
C835 C 0.17855 0.05022 0.04185 0.0
C836 C 0.19441 0.07096 0.03843 0.0
C837 C 0.19211 0.0855 0.0168 0.0
C838 C 0.14174 0.02398 0.02745 0.0
C839 C 0.21512 0.07654 0.05651 0.0
H840 H 0.16599 1.01141 0.11855 0.0
H841 H 0.21438 0.97549 0.0665 0.0
H842 H 0.16513 0.07086 0.08815 0.0
H843 H 0.13865 0.05226 0.08071 0.0
H844 H 0.15085 0.05205 0.11189 0.0
H845 H 0.22539 0.99329 0.02865 0.0
H846 H 0.19858 1.00798 0.01503 0.0
H847 H 0.2235 0.02667 0.02661 0.0
H848 H 0.14342 0.0562 0.98928 0.0
H849 H 0.20542 0.10015 0.01317 0.0
H850 H 0.13431 0.02314 0.0466 0.0
H851 H 0.15204 1.00646 0.02408 0.0
H852 H 0.12592 0.02487 0.01419 0.0
H853 H 0.22279 0.09549 0.05377 0.0
H854 H 0.23032 0.06291 0.05387 0.0
H855 H 0.20859 0.07475 0.07593 0.0
C856 C 0.93957 0.69894 0.51096 0.0
C857 C 0.94449 0.6796 0.49429 0.0
C858 C 0.95466 0.70259 0.53207 0.0
C859 C 0.97507 0.68652 0.53645 0.0
C860 C 0.97874 0.66578 0.52069 0.0
C861 C 0.96341 0.6626 0.49983 0.0
C862 C 0.94994 0.72474 0.54854 0.0
C863 C 1.00012 0.64808 0.52463 0.0
C864 C 0.03509 0.71083 0.56451 0.0
C865 C 0.035 0.69997 0.58819 0.0
C866 C 0.01517 0.70748 0.54797 0.0
C867 C 0.99449 0.69297 0.55523 0.0
C868 C 0.99371 0.68296 0.57953 0.0
C869 C 0.01399 0.68653 0.59571 0.0
C870 C 0.01683 0.7185 0.52224 0.0
C871 C 0.97199 0.66751 0.58804 0.0
H872 H 0.9251 0.71223 0.50655 0.0
H873 H 0.96721 0.64765 0.48688 0.0
H874 H 0.95163 0.71954 0.5684 0.0
H875 H 0.96406 0.73925 0.54478 0.0
H876 H 0.93127 0.73287 0.54525 0.0
H877 H 0.99873 0.63142 0.51252 0.0
H878 H 0.01783 0.65772 0.5205 0.0
H879 H 1.00096 0.6419 0.54426 0.0
H880 H 0.05115 0.7213 0.5585 0.0
H881 H 0.01368 0.67809 0.61397 0.0
H882 H 0.99991 0.72944 0.51798 0.0
H883 H 0.018 0.70335 0.50831 0.0
H884 H 0.03328 0.73073 0.52007 0.0
H885 H 0.95425 0.67696 0.58355 0.0
H886 H 0.97268 0.66376 0.60831 0.0
H887 H 0.97199 0.64947 0.57807 0.0
C888 C 0.3307 0.51403 0.09229 0.0
C889 C 0.34801 0.53313 0.08878 0.0
C890 C 0.32776 0.49506 0.07446 0.0
C891 C 0.34179 0.49584 0.05226 0.0
C892 C 0.35943 0.51504 0.04884 0.0
C893 C 0.36258 0.53314 0.06729 0.0
C894 C 0.30945 0.47442 0.0792 0.0
C895 C 0.37426 0.51714 0.02518 0.0
C896 C 0.35083 0.44372 1.00544 0.0
C897 C 0.33401 0.45069 0.98674 0.0
C898 C 0.35221 0.45701 0.02795 0.0
C899 C 0.33684 0.47808 0.03154 0.0
C900 C 0.31871 0.48409 0.01346 0.0
C901 C 0.31721 0.47004 0.99159 0.0
C902 C 0.37117 0.44944 0.04718 0.0
C903 C 0.30219 0.50658 0.0162 0.0
H904 H 0.3196 0.51382 0.10902 0.0
H905 H 0.37595 0.5479 0.06444 0.0
H906 H 0.29344 0.47621 0.06634 0.0
H907 H 0.31817 0.45611 0.07559 0.0
H908 H 0.3024 0.4747 0.09855 0.0
H909 H 0.38801 0.5325 0.02591 0.0
H910 H 0.38427 0.49955 0.02145 0.0
H911 H 0.36152 0.52048 1.00929 0.0
H912 H 0.36384 0.42877 1.00203 0.0
H913 H 0.30359 0.47508 0.97762 0.0
H914 H 0.36316 0.45039 0.0661 0.0
H915 H 0.38712 0.46245 0.04661 0.0
H916 H 0.37822 0.43034 0.04388 0.0
H917 H 0.29276 0.50638 0.03444 0.0
H918 H 0.28787 0.50765 1.00135 0.0
H919 H 0.31366 0.52369 0.01545 0.0
C920 C 0.54809 0.82871 0.47805 0.0
C921 C 0.57318 0.82196 0.48015 0.0
C922 C 0.53208 0.82745 0.49847 0.0
C923 C 0.54134 0.81943 0.52176 0.0
C924 C 0.56634 0.81157 0.52382 0.0
C925 C 0.58199 0.81298 0.50301 0.0
C926 C 0.5056 0.83615 0.4954 0.0
C927 C 0.5769 0.80284 0.54829 0.0
C928 C 0.50874 0.84939 0.57627 0.0
C929 C 0.49174 0.83098 0.58333 0.0
C930 C 0.52564 0.84539 0.557 0.0
C931 C 0.52564 0.82236 0.54432 0.0
C932 C 0.50929 0.80325 0.55202 0.0
C933 C 0.4925 0.80777 0.57151 0.0
C934 C 0.54278 0.86629 0.54952 0.0
C935 C 0.50879 0.77844 0.539 0.0
H936 H 0.54113 0.83621 0.4607 0.0
H937 H 0.60129 0.80759 0.50476 0.0
H938 H 0.49257 0.82232 0.50328 0.0
H939 H 0.50294 0.85379 0.50572 0.0
H940 H 0.50059 0.83936 0.47563 0.0
H941 H 0.59558 0.79441 0.54617 0.0
H942 H 0.57843 0.81882 0.56122 0.0
H943 H 0.56438 0.78902 0.55699 0.0
H944 H 0.50848 0.86731 0.58545 0.0
H945 H 0.47944 0.79346 0.57687 0.0
H946 H 0.53796 0.87269 0.53053 0.0
H947 H 0.56226 0.85969 0.54909 0.0
H948 H 0.54164 0.88242 0.56233 0.0
H949 H 0.50138 0.78083 0.5199 0.0
H950 H 0.49706 0.76468 0.54887 0.0
H951 H 0.52785 0.77087 0.53732 0.0
C952 C 0.42964 0.17831 0.52178 0.0
C953 C 0.4335 0.19391 0.54234 0.0
C954 C 0.44799 0.17544 0.50345 0.0
C955 C 0.47083 0.18827 0.50585 0.0
C956 C 0.47433 0.20488 0.52597 0.0
C957 C 0.45564 0.20757 0.54385 0.0
C958 C 0.44338 0.15778 0.48216 0.0
C959 C 0.49842 0.21884 0.5294 0.0
C960 C 0.53094 0.16053 0.48224 0.0
C961 C 0.53663 0.17611 0.46216 0.0
C962 C 0.50903 0.16357 0.49584 0.0
C963 C 0.49209 0.18252 0.48908 0.0
C964 C 0.49689 0.19723 0.46778 0.0
C965 C 0.51916 0.19387 0.45456 0.0
C966 C 0.50476 0.1474 0.51835 0.0
C967 C 0.47918 0.21741 0.45977 0.0
H968 H 0.41258 0.16775 0.52035 0.0
H969 H 0.45885 0.21972 0.55959 0.0
H970 H 0.44858 0.16655 0.46429 0.0
H971 H 0.45513 0.14102 0.48449 0.0
H972 H 0.42368 0.15181 0.48109 0.0
H973 H 0.49753 0.23243 0.5449 0.0
H974 H 0.51361 0.20549 0.53335 0.0
H975 H 0.50331 0.2289 0.51213 0.0
H976 H 0.54418 0.14646 0.48793 0.0
H977 H 0.52346 0.20599 0.43909 0.0
H978 H 0.48603 0.13891 0.51756 0.0
H979 H 0.50566 0.15896 0.5354 0.0
H980 H 0.51874 0.13233 0.52 0.0
H981 H 0.45983 0.21037 0.45958 0.0
H982 H 0.48371 0.22476 0.44106 0.0
H983 H 0.48 0.23297 0.47326 0.0
C984 C 0.78928 0.0544 0.97038 0.0
C985 C 0.81285 0.05775 0.95993 0.0
C986 C 0.78523 0.03641 0.98886 0.0
C987 C 0.80527 0.02158 0.99726 0.0
C988 C 0.82906 0.0248 0.98666 0.0
C989 C 0.83254 0.04278 0.96813 0.0
C990 C 0.75958 0.03342 0.99958 0.0
C991 C 0.85099 1.00951 0.9952 0.0
C992 C 0.80554 0.99014 0.06049 0.0
C993 C 0.802 0.96517 0.05396 0.0
C994 C 0.80563 1.00892 0.04236 0.0
C995 C 0.80162 1.00262 0.01711 0.0
C996 C 0.79629 0.97768 1.01066 0.0
C997 C 0.79666 0.95926 0.02912 0.0
C998 C 0.81154 0.03525 0.05007 0.0
C999 C 0.79163 0.97019 0.98403 0.0
H1000 H 0.77402 0.06594 0.96411 0.0
H1001 H 0.85092 0.04564 0.96057 0.0
H1002 H 0.7532 0.01395 0.99726 0.0
H1003 H 0.76002 0.03736 0.01979 0.0
H1004 H 0.74586 0.04599 0.99065 0.0
H1005 H 0.86825 0.01429 0.98507 0.0
H1006 H 0.85423 0.01244 0.01535 0.0
H1007 H 0.84708 0.98946 0.99245 0.0
H1008 H 0.8096 0.99489 0.07959 0.0
H1009 H 0.79369 0.94004 0.02388 0.0
H1010 H 0.79769 0.04832 0.04218 0.0
H1011 H 0.82994 0.04062 0.04265 0.0
H1012 H 0.81195 0.03749 0.07057 0.0
H1013 H 0.77763 0.9826 0.97536 0.0
H1014 H 0.78509 0.95068 0.98242 0.0
H1015 H 0.80902 0.97212 0.97326 0.0
C1016 C 0.0971 0.33313 0.51369 0.0
C1017 C 0.08945 0.32088 0.53538 0.0
C1018 C 0.08051 0.33711 0.4938 0.0
C1019 C 0.05563 0.32889 0.49573 0.0
C1020 C 0.04813 0.31565 0.51716 0.0
C1021 C 0.06512 0.31172 0.5366 0.0
C1022 C 0.08933 0.35107 0.4712 0.0
C1023 C 0.02176 0.30668 0.52015 0.0
C1024 C 1.00175 0.36249 0.46529 0.0
C1025 C 0.99405 0.34528 0.44725 0.0
C1026 C 0.02275 0.35812 0.48011 0.0
C1027 C 0.03663 0.33605 0.47673 0.0
C1028 C 0.03018 0.31964 0.45712 0.0
C1029 C 1.00889 0.32443 0.4426 0.0
C1030 C 0.02888 0.37622 0.50068 0.0
C1031 C 0.04467 0.29611 0.45264 0.0
H1032 H 0.11587 0.34022 0.5125 0.0
H1033 H 0.05896 0.30223 0.55321 0.0
H1034 H 0.08344 0.34138 0.45398 0.0
H1035 H 0.08081 0.36983 0.47089 0.0
H1036 H 0.10982 0.35324 0.47103 0.0
H1037 H 0.0193 0.29528 0.53715 0.0
H1038 H 1.00907 0.32288 0.52121 0.0
H1039 H 0.01606 0.29546 0.50382 0.0
H1040 H 0.99043 0.37877 0.46877 0.0
H1041 H 1.00296 0.31103 0.42876 0.0
H1042 H 0.04889 0.381 0.50046 0.0
H1043 H 0.0249 0.3675 0.51891 0.0
H1044 H 0.01794 0.39365 0.49922 0.0
H1045 H 0.0649 0.29984 0.45332 0.0
H1046 H 0.03998 0.28755 0.43445 0.0
H1047 H 0.04046 0.28249 0.4675 0.0
C1048 C 0.66425 0.50416 0.97536 0.0
C1049 C 0.681 0.49658 0.95699 0.0
C1050 C 0.66865 0.52545 0.98973 0.0
C1051 C 0.6903 0.53973 0.98558 0.0
C1052 C 0.70628 0.53329 0.96573 0.0
C1053 C 0.70145 0.51172 0.95164 0.0
C1054 C 0.65101 0.53157 1.01058 0.0
C1055 C 0.72937 0.54817 0.96046 0.0
C1056 C 0.69227 0.60116 0.02085 0.0
C1057 C 0.70492 0.59429 0.04264 0.0
C1058 C 0.68851 0.58403 1.00141 0.0
C1059 C 0.69742 0.55939 1.00389 0.0
C1060 C 0.7112 0.55274 0.02534 0.0
C1061 C 0.71484 0.57025 0.04435 0.0
C1062 C 0.67395 0.59196 0.97877 0.0
C1063 C 0.72097 0.52668 0.02888 0.0
H1064 H 0.64828 0.4926 0.97937 0.0
H1065 H 0.7145 0.50588 0.93754 0.0
H1066 H 0.66033 0.52823 0.02869 0.0
H1067 H 0.64572 0.55147 1.00994 0.0
H1068 H 0.63387 0.52014 1.00982 0.0
H1069 H 0.7376 0.54327 0.94224 0.0
H1070 H 0.72526 0.56837 0.96071 0.0
H1071 H 0.74337 0.54454 0.97517 0.0
H1072 H 0.68458 0.6197 0.01927 0.0
H1073 H 0.72469 0.5647 0.06103 0.0
H1074 H 0.65543 0.58298 0.97899 0.0
H1075 H 0.68344 0.58587 0.96158 0.0
H1076 H 0.6713 0.61241 0.97805 0.0
H1077 H 0.7052 0.51357 0.03073 0.0
H1078 H 0.73291 0.52499 0.04565 0.0
H1079 H 0.73184 0.52084 0.01244 0.0
C1080 C 0.52969 0.36011 0.05181 0.0
C1081 C 0.53274 0.34497 0.0728 0.0
C1082 C 0.50853 0.3582 0.03664 0.0
C1083 C 0.48987 0.34066 0.04255 0.0
C1084 C 0.49198 0.32667 0.06479 0.0
C1085 C 0.51343 0.32901 0.07969 0.0
C1086 C 0.5071 0.37364 0.01327 0.0
C1087 C 0.47248 0.30791 0.0719 0.0
C1088 C 0.43046 0.34462 1.00381 0.0
C1089 C 0.43551 0.32773 0.98459 0.0
C1090 C 0.44746 0.34836 0.02342 0.0
C1091 C 0.47006 0.33492 0.02385 0.0
C1092 C 0.47474 0.31713 1.00504 0.0
C1093 C 0.45747 0.31377 0.98572 0.0
C1094 C 0.4417 0.36744 0.0431 0.0
C1095 C 0.49854 0.30233 1.0047 0.0
H1096 H 0.54459 0.37254 0.04649 0.0
H1097 H 0.51582 0.31714 0.09579 0.0
H1098 H 0.50953 0.36146 0.99683 0.0
H1099 H 0.48864 0.38258 0.01156 0.0
H1100 H 0.5216 0.3883 0.01279 0.0
H1101 H 0.4748 0.30144 0.09135 0.0
H1102 H 0.45362 0.31586 0.06965 0.0
H1103 H 0.47377 0.29156 0.05941 0.0
H1104 H 0.41357 0.35552 1.00315 0.0
H1105 H 0.46157 0.3006 0.97108 0.0
H1106 H 0.45448 0.38348 0.04119 0.0
H1107 H 0.44469 0.3595 0.06188 0.0
H1108 H 0.42233 0.37435 0.04172 0.0
H1109 H 0.5145 0.31502 1.00185 0.0
H1110 H 0.49866 0.2881 0.98976 0.0
H1111 H 0.50139 0.29289 0.02279 0.0
C1112 C 0.71117 0.9429 0.50252 0.0
C1113 C 0.69873 0.95076 0.48099 0.0
C1114 C 0.71397 0.95894 0.52308 0.0
C1115 C 0.70416 0.98337 0.52198 0.0
C1116 C 0.69254 0.99165 0.49985 0.0
C1117 C 0.68998 0.9753 0.47973 0.0
C1118 C 0.72658 0.94947 0.54626 0.0
C1119 C 0.68196 0.01756 0.49768 0.0
C1120 C 0.68204 0.01936 0.57838 0.0
C1121 C 0.70026 0.03788 0.58058 0.0
C1122 C 0.68394 1.00048 0.56044 0.0
C1123 C 0.70453 1.00006 0.54419 0.0
C1124 C 0.72378 0.01771 0.54738 0.0
C1125 C 0.7214 0.0364 0.56549 0.0
C1126 C 0.66297 0.98207 0.55774 0.0
C1127 C 0.74614 0.01785 0.53063 0.0
H1128 H 0.71795 0.92398 0.50367 0.0
H1129 H 0.68055 0.98167 0.46309 0.0
H1130 H 0.74102 0.96277 0.55256 0.0
H1131 H 0.7128 0.94786 0.56141 0.0
H1132 H 0.73531 0.931 0.54339 0.0
H1133 H 0.67453 0.02148 0.47882 0.0
H1134 H 0.66675 0.01999 0.51128 0.0
H1135 H 0.69642 0.03156 0.50211 0.0
H1136 H 0.66546 0.02045 0.58963 0.0
H1137 H 0.73568 0.05048 0.5672 0.0
H1138 H 0.6703 0.96287 0.55635 0.0
H1139 H 0.65254 0.98599 0.54037 0.0
H1140 H 0.64983 0.98297 0.57356 0.0
H1141 H 0.75376 0.99882 0.52857 0.0
H1142 H 0.76102 0.03028 0.53772 0.0
H1143 H 0.74056 0.02435 0.51187 0.0
C1144 C 0.99368 0.19653 0.0674 0.0
C1145 C 0.97603 0.18006 0.05755 0.0
C1146 C 0.01622 0.20102 0.055 0.0
C1147 C 0.02121 0.18869 0.03228 0.0
C1148 C 1.00399 0.17105 0.02303 0.0
C1149 C 0.98171 0.16695 0.03577 0.0
C1150 C 0.03408 0.2199 0.06552 0.0
C1151 C 1.00853 0.15734 0.99899 0.0
C1152 C 0.06068 0.21834 0.98199 0.0
C1153 C 0.08264 0.20439 0.98337 0.0
C1154 C 0.04103 0.21416 0.99853 0.0
C1155 C 0.04327 0.19554 0.01699 0.0
C1156 C 0.06581 0.18217 0.01924 0.0
C1157 C 0.08522 0.18677 1.00243 0.0
C1158 C 0.01739 0.2289 0.99546 0.0
C1159 C 0.069 0.16219 0.03864 0.0
H1160 H 0.98936 0.20681 0.08414 0.0
H1161 H 0.96829 0.15393 0.02825 0.0
H1162 H 0.05319 0.21228 0.06593 0.0
H1163 H 0.03431 0.23657 0.05342 0.0
H1164 H 0.02891 0.22576 0.08459 0.0
H1165 H 0.99427 0.14289 0.99532 0.0
H1166 H 1.0084 0.17069 0.98329 0.0
H1167 H 0.02705 0.14836 0.99934 0.0
H1168 H 0.05847 0.23206 0.96743 0.0
H1169 H 0.10208 0.17586 1.00369 0.0
H1170 H 0.01177 0.23712 0.01346 0.0
H1171 H 1.0022 0.21638 0.98931 0.0
H1172 H 0.0193 0.24407 0.98161 0.0
H1173 H 0.06338 0.1692 0.05716 0.0
H1174 H 0.08843 0.15542 0.03979 0.0
H1175 H 0.05678 0.14622 0.03409 0.0
C1176 C 0.80468 0.56407 0.48782 0.0
C1177 C 0.81761 0.58668 0.48784 0.0
C1178 C 0.80809 0.54657 0.50685 0.0
C1179 C 0.82483 0.55176 0.52654 0.0
C1180 C 0.83695 0.5751 0.5274 0.0
C1181 C 0.83324 0.59227 0.50803 0.0
C1182 C 0.79473 0.52195 0.50517 0.0
C1183 C 0.8548 0.58143 0.54812 0.0
C1184 C 0.82028 0.50592 0.5802 0.0
C1185 C 0.83773 0.48806 0.57303 0.0
C1186 C 0.8169 0.52777 0.56618 0.0
C1187 C 0.83132 0.53169 0.54456 0.0
C1188 C 0.85028 0.51455 0.53848 0.0
C1189 C 0.85324 0.49299 0.5528 0.0
C1190 C 0.79669 0.54569 0.57345 0.0
C1191 C 0.86621 0.51796 0.51573 0.0
H1192 H 0.79248 0.55958 0.47242 0.0
H1193 H 0.84328 0.60971 0.50829 0.0
H1194 H 0.80839 0.50684 0.5021 0.0
H1195 H 0.78504 0.5179 0.52284 0.0
H1196 H 0.78095 0.52153 0.48979 0.0
H1197 H 0.86011 0.60137 0.54796 0.0
H1198 H 0.84657 0.57691 0.56641 0.0
H1199 H 0.87187 0.57011 0.54617 0.0
H1200 H 0.80816 0.50204 0.59574 0.0
H1201 H 0.86683 0.47919 0.54732 0.0
H1202 H 0.78078 0.54366 0.56048 0.0
H1203 H 0.80332 0.56515 0.57211 0.0
H1204 H 0.79 0.54226 0.59263 0.0
H1205 H 0.85468 0.5155 0.49879 0.0
H1206 H 0.88175 0.50442 0.51507 0.0
H1207 H 0.87401 0.53702 0.51519 0.0
C1208 C 0.53767 0.45981 0.20904 0.0
C1209 C 0.53678 0.43494 0.20132 0.0
C1210 C 0.51766 0.47594 0.20478 0.0
C1211 C 0.49601 0.46695 0.19279 0.0
C1212 C 0.49435 0.44149 0.18636 0.0
C1213 C 0.51484 0.42581 0.19053 0.0
C1214 C 0.52034 0.50299 0.21181 0.0
C1215 C 0.47146 0.43109 0.17394 0.0
C1216 C 0.44311 0.51355 0.19528 0.0
C1217 C 0.44729 0.52694 0.17339 0.0
C1218 C 0.45755 0.49252 0.20109 0.0
C1219 C 0.47659 0.48496 0.18465 0.0
C1220 C 0.47926 0.49717 0.16153 0.0
C1221 C 0.46452 0.51794 0.15618 0.0
C1222 C 0.45377 0.47971 0.22568 0.0
C1223 C 0.49922 0.48977 0.14337 0.0
H1224 H 0.55449 0.46708 0.21741 0.0
H1225 H 0.5139 0.40657 0.18464 0.0
H1226 H 0.52064 0.51455 0.19475 0.0
H1227 H 0.50427 0.50909 0.22304 0.0
H1228 H 0.53761 0.50666 0.22252 0.0
H1229 H 0.47144 0.41045 0.17384 0.0
H1230 H 0.45446 0.43772 0.1834 0.0
H1231 H 0.47057 0.43767 0.15444 0.0
H1232 H 0.42986 0.52055 0.20866 0.0
H1233 H 0.46762 0.52822 0.13915 0.0
H1234 H 0.46867 0.4854 0.23876 0.0
H1235 H 0.45488 0.45924 0.22352 0.0
H1236 H 0.43561 0.48457 0.23405 0.0
H1237 H 0.51768 0.49462 0.15118 0.0
H1238 H 0.49707 0.49929 0.12519 0.0
H1239 H 0.49897 0.46942 0.14021 0.0
C1240 C 0.52153 0.09515 0.34135 0.0
C1241 C 0.54165 0.09229 0.32513 0.0
C1242 C 0.50371 0.07623 0.34412 0.0
C1243 C 0.50617 0.05384 0.3305 0.0
C1244 C 0.52575 0.0514 0.31322 0.0
C1245 C 0.54315 0.07064 0.31069 0.0
C1246 C 0.483 0.07969 0.36255 0.0
C1247 C 0.52919 0.02784 0.29838 0.0
C1248 C 0.48483 0.99227 0.35717 0.0
C1249 C 0.46416 0.98664 0.34226 0.0
C1250 C 0.49794 0.01457 0.35426 0.0
C1251 C 0.49013 0.03193 0.33609 0.0
C1252 C 0.46836 0.02709 0.32203 0.0
C1253 C 0.45561 1.00445 0.32527 0.0
C1254 C 0.52097 0.01891 0.36975 0.0
C1255 C 0.45927 0.04521 0.30267 0.0
H1256 H 0.52012 0.11183 0.35253 0.0
H1257 H 0.55855 0.06821 0.29805 0.0
H1258 H 0.46496 0.07419 0.35421 0.0
H1259 H 0.48625 0.06753 0.37887 0.0
H1260 H 0.48165 0.09921 0.36912 0.0
H1261 H 0.54405 0.02963 0.28427 0.0
H1262 H 0.53409 0.01234 0.31108 0.0
H1263 H 0.51165 0.0227 0.28883 0.0
H1264 H 0.49126 0.97876 0.37067 0.0
H1265 H 0.43969 1.0002 0.31366 0.0
H1266 H 0.52011 0.03734 0.37892 0.0
H1267 H 0.53755 0.0189 0.3576 0.0
H1268 H 0.52355 1.00444 0.38425 0.0
H1269 H 0.45885 0.06434 0.31033 0.0
H1270 H 0.44047 0.04036 0.29569 0.0
H1271 H 0.47225 0.04528 0.28674 0.0
C1272 C 0.96434 0.04194 0.85652 0.0
C1273 C 0.94074 0.04236 0.84551 0.0
C1274 C 0.98016 0.02148 0.85374 0.0
C1275 C 0.97213 1.00061 0.83981 0.0
C1276 C 0.9483 1.00084 0.8286 0.0
C1277 C 0.93292 0.02182 0.83144 0.0
C1278 C 1.00557 0.0223 0.86569 0.0
C1279 C 0.93905 0.97889 0.81381 0.0
C1280 C 0.02753 0.96359 0.81837 0.0
C1281 C 0.03064 0.94697 0.83817 0.0
C1282 C 1.0071 0.97968 0.81734 0.0
C1283 C 0.98936 0.97914 0.83663 0.0
C1284 C 0.99108 0.96057 0.85525 0.0
C1285 C 0.01181 0.94468 0.85584 0.0
C1286 C 1.00607 0.99904 0.79708 0.0
C1287 C 0.9724 0.95909 0.87597 0.0
H1288 H 0.97061 0.05778 0.8673 0.0
H1289 H 0.91463 0.02197 0.82302 0.0
H1290 H 0.0201 0.02002 0.85134 0.0
H1291 H 1.00903 0.04001 0.87573 0.0
H1292 H 1.00761 1.00672 0.87902 0.0
H1293 H 0.92005 0.98192 0.80633 0.0
H1294 H 0.95173 0.97512 0.7981 0.0
H1295 H 0.93893 0.96204 0.82566 0.0
H1296 H 0.0422 0.9654 0.80476 0.0
H1297 H 0.01433 0.93199 0.87128 0.0
H1298 H 0.01188 0.01726 0.80481 0.0
H1299 H 0.98691 1.00117 0.78983 0.0
H1300 H 0.01855 0.99436 0.7814 0.0
H1301 H 0.97598 0.9743 0.88944 0.0
H1302 H 0.97355 0.94111 0.88603 0.0
H1303 H 0.95327 0.96152 0.8687 0.0
C1304 C 0.05692 0.51268 0.36394 0.0
C1305 C 0.07401 0.52218 0.34684 0.0
C1306 C 0.04207 0.49209 0.35811 0.0
C1307 C 0.04446 0.48055 0.33461 0.0
C1308 C 0.06331 0.48863 0.31819 0.0
C1309 C 0.07787 0.50947 0.32448 0.0
C1310 C 0.02233 0.48415 0.37628 0.0
C1311 C 0.06678 0.47656 0.29317 0.0
C1312 C 1.00658 0.42118 0.32751 0.0
C1313 C 0.98438 0.43039 0.31732 0.0
C1314 C 0.02698 0.43696 0.33189 0.0
C1315 C 0.02503 0.46258 0.32623 0.0
C1316 C 1.00312 0.47167 0.3148 0.0
C1317 C 0.98318 0.45548 0.31037 0.0
C1318 C 0.0501 0.42644 0.34375 0.0
C1319 C 1.00013 0.49888 0.30857 0.0
H1320 H 0.05401 0.52246 0.38129 0.0
H1321 H 0.09097 0.51686 0.31117 0.0
H1322 H 1.00377 0.48913 0.3688 0.0
H1323 H 0.02266 0.46371 0.37888 0.0
H1324 H 0.02464 0.49319 0.39469 0.0
H1325 H 0.08477 0.4818 0.28466 0.0
H1326 H 0.06583 0.45603 0.29475 0.0
H1327 H 0.05163 0.48252 0.28051 0.0
H1328 H 1.00777 0.4018 0.33284 0.0
H1329 H 0.96618 0.46282 0.30246 0.0
H1330 H 0.05123 0.43261 0.36338 0.0
H1331 H 0.06691 0.4334 0.3342 0.0
H1332 H 0.05025 0.4058 0.34339 0.0
H1333 H 0.99991 0.50996 0.32595 0.0
H1334 H 0.98272 0.50266 0.29813 0.0
H1335 H 0.01604 0.50544 0.29735 0.0
C1336 C 0.50551 0.55769 0.86351 0.0
C1337 C 0.49813 0.57545 0.84592 0.0
C1338 C 0.52657 0.54291 0.85979 0.0
C1339 C 0.54077 0.54602 0.83795 0.0
C1340 C 0.5346 0.56535 0.82113 0.0
C1341 C 0.51327 0.57987 0.82531 0.0
C1342 C 0.53242 0.52264 0.8783 0.0
C1343 C 0.54944 0.56951 0.79782 0.0
C1344 C 0.60121 0.50932 0.83716 0.0
C1345 C 0.59375 0.48728 0.82531 0.0
C1346 C 0.5846 0.52926 0.84025 0.0
C1347 C 0.55989 0.52702 0.83149 0.0
C1348 C 0.55263 0.50526 0.81855 0.0
C1349 C 0.56964 0.48576 0.81553 0.0
C1350 C 0.59316 0.55222 0.8539 0.0
C1351 C 0.52644 0.50198 0.80902 0.0
H1352 H 0.49388 0.55438 0.87956 0.0
H1353 H 0.50754 0.59349 0.81162 0.0
H1354 H 0.52861 0.50424 0.86978 0.0
H1355 H 0.55234 0.52307 0.88349 0.0
H1356 H 0.52119 0.52431 0.89546 0.0
H1357 H 0.54492 0.58758 0.78893 0.0
H1358 H 0.56961 0.56891 0.80191 0.0
H1359 H 0.54535 0.55444 0.78435 0.0
H1360 H 0.61982 0.51074 0.84471 0.0
H1361 H 0.56365 0.46888 0.80631 0.0
H1362 H 0.58437 0.55285 0.87247 0.0
H1363 H 0.58738 0.56921 0.84376 0.0
H1364 H 0.61361 0.55257 0.85644 0.0
H1365 H 0.51345 0.50106 0.82492 0.0
H1366 H 0.52423 0.48478 0.7978 0.0
H1367 H 0.52092 0.51812 0.79746 0.0
C1368 C 0.03749 0.9913 0.15853 0.0
C1369 C 0.05644 0.98559 0.17555 0.0
C1370 C 0.02292 0.01272 0.16116 0.0
C1371 C 0.02752 0.02913 0.1812 0.0
C1372 C 0.04773 0.0244 0.19748 0.0
C1373 C 0.06197 1.00262 0.19448 0.0
C1374 C 1.00166 0.01694 0.1433 0.0
C1375 C 0.05346 0.04159 0.21886 0.0
C1376 C 0.99271 0.09068 0.17665 0.0
C1377 C 0.97123 0.08549 0.19036 0.0
C1378 C 0.01193 0.07306 0.1746 0.0
C1379 C 1.00951 0.04961 0.18631 0.0
C1380 C 0.98833 0.04473 0.20101 0.0
C1381 C 0.96957 0.06271 0.20294 0.0
C1382 C 0.0343 0.07913 0.159 0.0
C1383 C 0.98482 0.01995 0.21367 0.0
H1384 H 0.03343 0.97843 0.14356 0.0
H1385 H 0.07658 0.99832 0.20768 0.0
H1386 H 0.98379 0.01509 0.15329 0.0
H1387 H 1.00243 0.03603 0.13559 0.0
H1388 H 1.00174 1.00349 0.12765 0.0
H1389 H 0.07168 0.03736 0.22758 0.0
H1390 H 0.05346 0.06122 0.21257 0.0
H1391 H 0.03885 0.03974 0.23319 0.0
H1392 H 0.99425 0.10824 0.16695 0.0
H1393 H 0.95312 0.05847 0.21362 0.0
H1394 H 0.03376 0.06802 0.14165 0.0
H1395 H 0.05163 0.07415 0.16901 0.0
H1396 H 0.03504 0.09913 0.15394 0.0
H1397 H 0.98258 1.00517 0.19946 0.0
H1398 H 0.96829 0.01973 0.22591 0.0
H1399 H 1.00142 0.01523 0.22496 0.0
C1400 C 0.92623 0.50368 0.6844 0.0
C1401 C 0.9341 0.48188 0.69639 0.0
C1402 C 0.94265 0.52367 0.68064 0.0
C1403 C 0.9676 0.52168 0.68877 0.0
C1404 C 0.9753 0.50015 0.70182 0.0
C1405 C 0.95846 0.48063 0.70557 0.0
C1406 C 0.93361 0.54643 0.66699 0.0
C1407 C 1.00175 0.49709 0.71066 0.0
C1408 C 0.02092 0.55207 0.65481 0.0
C1409 C 0.02891 0.56993 0.67206 0.0
C1410 C 0.99999 0.5373 0.65932 0.0
C1411 C 0.98647 0.54063 0.68155 0.0
C1412 C 0.99316 0.56011 0.69801 0.0
C1413 C 0.0144 0.57453 0.6931 0.0
C1414 C 0.99359 0.51683 0.64119 0.0
C1415 C 0.97896 0.56457 0.72166 0.0
H1416 H 0.90742 0.5049 0.67734 0.0
H1417 H 0.96477 0.46392 0.71488 0.0
H1418 H 0.93967 0.56357 0.67672 0.0
H1419 H 0.94179 0.54684 0.64813 0.0
H1420 H 0.91308 0.5467 0.6651 0.0
H1421 H 1.00436 0.48001 0.72195 0.0
H1422 H 0.01431 0.49611 0.69441 0.0
H1423 H 1.00749 0.51336 0.72194 0.0
H1424 H 0.03192 0.5487 0.63834 0.0
H1425 H 0.02052 0.58828 0.7065 0.0
H1426 H 0.97355 0.51727 0.63652 0.0
H1427 H 0.99756 0.49853 0.64982 0.0
H1428 H 1.00438 0.51826 0.62372 0.0
H1429 H 0.95869 0.56389 0.71814 0.0
H1430 H 0.9837 0.58277 0.73019 0.0
H1431 H 0.98344 0.5497 0.73522 0.0
C1432 C 0.5023 0.94705 0.68285 0.0
C1433 C 0.48483 0.94392 0.70185 0.0
C1434 C 0.52119 0.96494 0.68477 0.0
C1435 C 0.52262 0.98025 0.70613 0.0
C1436 C 0.50605 0.97613 0.72604 0.0
C1437 C 0.4874 0.958 0.72368 0.0
C1438 C 0.53854 0.96861 0.66315 0.0
C1439 C 0.50694 0.99195 0.74916 0.0
C1440 C 0.57973 0.02175 0.7129 0.0
C1441 C 0.57135 0.04383 0.70185 0.0
C1442 C 0.56394 1.001 0.71508 0.0
C1443 C 0.53921 1.00247 0.70614 0.0
C1444 C 0.53045 0.02508 0.69592 0.0
C1445 C 0.5466 0.04539 0.69386 0.0
C1446 C 0.57395 0.97724 0.72608 0.0
C1447 C 0.50417 0.02761 0.68637 0.0
H1448 H 0.50035 0.93659 0.66577 0.0
H1449 H 0.47415 0.95553 0.73856 0.0
H1450 H 0.53403 0.98636 0.65366 0.0
H1451 H 0.55802 0.96986 0.66971 0.0
H1452 H 0.53709 0.95331 0.64937 0.0
H1453 H 0.49516 0.98429 0.76419 0.0
H1454 H 0.52626 0.99364 0.75613 0.0
H1455 H 0.50032 1.01095 0.74469 0.0
H1456 H 0.59885 0.02038 0.71904 0.0
H1457 H 0.53988 0.06243 0.68547 0.0
H1458 H 0.57481 0.96272 0.71148 0.0
H1459 H 0.5614 0.97029 0.7408 0.0
H1460 H 0.59282 0.97969 0.73409 0.0
H1461 H 0.50123 0.01484 0.67045 0.0
H1462 H 0.49988 0.04682 0.68019 0.0
H1463 H 0.49079 0.02229 0.70102 0.0
C1464 C 0.20667 0.27133 0.61542 0.0
C1465 C 0.20519 0.29268 0.63031 0.0
C1466 C 0.22768 0.25585 0.61617 0.0
C1467 C 0.24772 0.26179 0.63221 0.0
C1468 C 0.24613 0.28301 0.64765 0.0
C1469 C 0.22492 0.29816 0.64654 0.0
C1470 C 0.2286 0.23333 0.59948 0.0
C1471 C 0.26702 0.29 0.66508 0.0
C1472 C 0.29456 0.21113 0.64812 0.0
C1473 C 0.31398 0.21638 0.63162 0.0
C1474 C 0.27296 0.22575 0.64861 0.0
C1475 C 0.27067 0.24623 0.63225 0.0
C1476 C 0.29031 0.25183 0.61577 0.0
C1477 C 0.31169 0.23688 0.61566 0.0
C1478 C 0.25252 0.21917 0.66653 0.0
C1479 C 0.28868 0.27356 0.59812 0.0
H1480 H 0.19153 0.26684 0.60291 0.0
H1481 H 0.22395 0.31449 0.65827 0.0
H1482 H 0.24423 0.23513 0.58628 0.0
H1483 H 0.23199 0.21636 0.61068 0.0
H1484 H 0.21117 0.23078 0.58869 0.0
H1485 H 0.26253 0.30657 0.67652 0.0
H1486 H 0.27134 0.27426 0.67766 0.0
H1487 H 0.28403 0.29398 0.65427 0.0
H1488 H 0.29614 0.19547 0.66066 0.0
H1489 H 0.32657 0.24122 0.60291 0.0
H1490 H 0.23516 0.21515 0.65615 0.0
H1491 H 0.24869 0.23515 0.67895 0.0
H1492 H 0.25723 0.20276 0.67815 0.0
H1493 H 0.2725 0.27121 0.58554 0.0
H1494 H 0.30564 0.27561 0.58666 0.0
H1495 H 0.28577 0.29102 0.60867 0.0
C1496 C 0.72299 0.73368 0.14967 0.0
C1497 C 0.7285 0.71355 0.13396 0.0
C1498 C 0.73719 0.75568 0.14932 0.0
C1499 C 0.75743 0.75787 0.13275 0.0
C1500 C 0.76349 0.73741 0.11732 0.0
C1501 C 0.74906 0.71557 0.11814 0.0
C1502 C 0.73011 0.77685 0.16627 0.0
C1503 C 0.7849 0.7388 0.09941 0.0
C1504 C 0.77763 0.82176 0.10943 0.0
C1505 C 0.79964 0.82603 0.12284 0.0
C1506 C 0.76349 0.80005 0.11296 0.0
C1507 C 0.77137 0.78196 0.1304 0.0
C1508 C 0.79305 0.78655 0.14469 0.0
C1509 C 0.80692 0.80842 0.14067 0.0
C1510 C 0.74046 0.79614 0.09738 0.0
C1511 C 0.80207 0.76803 0.16372 0.0
H1512 H 0.70727 0.73244 0.16208 0.0
H1513 H 0.75365 0.70022 0.10598 0.0
H1514 H 0.74653 0.78343 0.17688 0.0
H1515 H 0.72331 0.79274 0.15503 0.0
H1516 H 0.71539 0.7715 0.17962 0.0
H1517 H 0.78799 0.72097 0.08951 0.0
H1518 H 0.7813 0.75353 0.08544 0.0
H1519 H 0.80218 0.74391 0.10944 0.0
H1520 H 0.77168 0.83516 0.09563 0.0
H1521 H 0.82379 0.81145 0.15114 0.0
H1522 H 0.72429 0.79247 0.1095 0.0
H1523 H 0.74292 0.7796 0.08533 0.0
H1524 H 0.73619 0.8124 0.08542 0.0
H1525 H 0.78685 0.76304 0.17658 0.0
H1526 H 0.81797 0.77524 0.17476 0.0
H1527 H 0.80794 0.7507 0.15424 0.0
C1528 C 0.31619 0.27945 0.90831 0.0
C1529 C 0.31887 0.29919 0.89152 0.0
C1530 C 0.29426 0.26528 0.90898 0.0
C1531 C 0.27454 0.2709 0.89243 0.0
C1532 C 0.27729 0.29054 0.87519 0.0
C1533 C 0.29937 0.30441 0.87494 0.0
C1534 C 0.2921 0.24442 0.92758 0.0
C1535 C 0.25683 0.29706 0.85709 0.0
C1536 C 0.2264 0.22068 0.87965 0.0
C1537 C 0.20678 0.22785 0.89517 0.0
C1538 C 0.2484 0.23461 0.8784 0.0
C1539 C 0.25103 0.25623 0.89315 0.0
C1540 C 0.23123 0.26375 0.90866 0.0
C1541 C 0.20933 0.24953 0.90944 0.0
C1542 C 0.26893 0.22601 0.86145 0.0
C1543 C 0.23326 0.28674 0.92461 0.0
H1544 H 0.33111 0.27521 0.92116 0.0
H1545 H 0.30125 0.3195 0.86176 0.0
H1546 H 0.2762 0.24791 0.94011 0.0
H1547 H 0.28841 0.22664 0.91782 0.0
H1548 H 0.30915 0.24227 0.93904 0.0
H1549 H 0.26201 0.31265 0.84463 0.0
H1550 H 0.25211 0.28066 0.84552 0.0
H1551 H 0.23984 0.30233 0.86738 0.0
H1552 H 0.22472 0.204 0.86851 0.0
H1553 H 0.19432 0.2553 0.92144 0.0
H1554 H 0.28572 0.22157 0.87256 0.0
H1555 H 0.27402 0.24107 0.84837 0.0
H1556 H 0.26363 0.20931 0.85052 0.0
H1557 H 0.2491 0.28483 0.93769 0.0
H1558 H 0.21615 0.29023 0.93548 0.0
H1559 H 0.237 0.3032 0.91281 0.0
C1560 C 0.79527 0.72279 0.37937 0.0
C1561 C 0.79081 0.70332 0.39617 0.0
C1562 C 0.78042 0.7443 0.37912 0.0
C1563 C 0.76054 0.7466 0.3961 0.0
C1564 C 0.75567 0.72685 0.41281 0.0
C1565 C 0.7708 0.70549 0.41263 0.0
C1566 C 0.78626 0.76476 0.36087 0.0
C1567 C 0.73468 0.72847 0.4312 0.0
C1568 C 0.7384 0.81187 0.41295 0.0
C1569 C 0.71673 0.81429 0.39859 0.0
C1570 C 0.75271 0.78998 0.41235 0.0
C1571 C 0.74537 0.76995 0.39689 0.0
C1572 C 0.72365 0.77235 0.38215 0.0
C1573 C 0.70965 0.79442 0.38319 0.0
C1574 C 0.7757 0.78829 0.42837 0.0
C1575 C 0.71521 0.75163 0.3652 0.0
H1576 H 0.81055 0.72134 0.36644 0.0
H1577 H 0.76708 0.69061 0.42564 0.0
H1578 H 0.76963 0.76907 0.34946 0.0
H1579 H 0.79134 0.78196 0.37106 0.0
H1580 H 0.80175 0.75978 0.34828 0.0
H1581 H 0.73284 0.7113 0.44248 0.0
H1582 H 0.73777 0.74441 0.4439 0.0
H1583 H 0.71691 0.73184 0.4213 0.0
H1584 H 0.74412 0.82703 0.42492 0.0
H1585 H 0.69328 0.79618 0.37165 0.0
H1586 H 0.79219 0.78494 0.41659 0.0
H1587 H 0.77411 0.77231 0.44128 0.0
H1588 H 0.77888 0.80543 0.43943 0.0
H1589 H 0.72994 0.74729 0.35156 0.0
H1590 H 0.69794 0.75638 0.35492 0.0
H1591 H 0.71187 0.73451 0.37617 0.0
C1592 C 0.6474 0.23196 0.31058 0.0
C1593 C 0.63062 0.21262 0.30541 0.0
C1594 C 0.6482 0.25355 0.29581 0.0
C1595 C 0.63186 0.256 0.27526 0.0
C1596 C 0.615 0.23649 0.26985 0.0
C1597 C 0.61459 0.21513 0.28493 0.0
C1598 C 0.6665 0.27381 0.30225 0.0
C1599 C 0.59732 0.23821 0.24811 0.0
C1600 C 0.61653 0.32036 0.24937 0.0
C1601 C 0.63151 0.3215 0.22813 0.0
C1602 C 0.61673 0.29938 0.26502 0.0
C1603 C 0.63228 0.27891 0.2594 0.0
C1604 C 0.64774 0.2801 0.23821 0.0
C1605 C 0.64719 0.30131 0.22291 0.0
C1606 C 0.60003 0.29898 0.28744 0.0
C1607 C 0.66463 0.25879 0.23147 0.0
H1608 H 0.65996 0.23028 0.32626 0.0
H1609 H 0.6016 0.20036 0.28063 0.0
H1610 H 0.67891 0.27736 0.28626 0.0
H1611 H 0.65646 0.29137 0.30614 0.0
H1612 H 0.67808 0.26904 0.31868 0.0
H1613 H 0.58544 0.22143 0.24628 0.0
H1614 H 0.58517 0.2547 0.25024 0.0
H1615 H 0.60787 0.24068 0.23064 0.0
H1616 H 0.60441 0.33581 0.2537 0.0
H1617 H 0.65895 0.30192 0.20665 0.0
H1618 H 0.61114 0.29562 0.30449 0.0
H1619 H 0.58654 0.2835 0.28575 0.0
H1620 H 0.5896 0.31663 0.28971 0.0
H1621 H 0.6772 0.25445 0.24724 0.0
H1622 H 0.67605 0.26287 0.21484 0.0
H1623 H 0.65343 0.24189 0.22772 0.0
C1624 C 0.72505 0.14223 0.7234 0.0
C1625 C 0.70511 0.12611 0.72795 0.0
C1626 C 0.74558 0.14333 0.73962 0.0
C1627 C 0.74629 0.12786 0.76091 0.0
C1628 C 0.7261 0.11176 0.76575 0.0
C1629 C 0.70577 0.11116 0.74932 0.0
C1630 C 0.76659 0.16092 0.73385 0.0
C1631 C 0.72613 0.09484 0.7881 0.0
C1632 C 0.80907 0.11074 0.78868 0.0
C1633 C 0.81043 0.12623 0.80963 0.0
C1634 C 0.78841 0.1112 0.7727 0.0
C1635 C 0.76854 0.12767 0.77759 0.0
C1636 C 0.76979 0.14344 0.79866 0.0
C1637 C 0.79066 0.14247 0.81447 0.0
C1638 C 0.78781 0.09395 0.75058 0.0
C1639 C 0.74909 0.16137 0.80446 0.0
H1640 H 0.72457 0.15416 0.70723 0.0
H1641 H 0.6905 0.09865 0.75311 0.0
H1642 H 0.76984 0.17358 0.74979 0.0
H1643 H 0.78395 0.15026 0.73094 0.0
H1644 H 0.76288 0.17228 0.71701 0.0
H1645 H 0.70874 0.08389 0.78962 0.0
H1646 H 0.74199 0.08176 0.78699 0.0
H1647 H 0.72857 0.10588 0.80533 0.0
H1648 H 0.82421 0.09812 0.78471 0.0
H1649 H 0.79158 0.15465 0.83046 0.0
H1650 H 0.78591 0.10486 0.73321 0.0
H1651 H 0.77145 0.08151 0.75175 0.0
H1652 H 0.80478 0.08232 0.74929 0.0
H1653 H 0.74603 0.17405 0.78851 0.0
H1654 H 0.75307 0.17272 0.82126 0.0
H1655 H 0.73155 0.15103 0.80743 0.0
C1656 C 0.87428 0.29314 0.2986 0.0
C1657 C 0.89067 0.31271 0.29319 0.0
C1658 C 0.87262 0.272 0.28325 0.0
C1659 C 0.88767 0.2702 0.26181 0.0
C1660 C 0.90409 0.28996 0.25611 0.0
C1661 C 0.9054 0.31091 0.2718 0.0
C1662 C 0.85483 0.25147 0.2901 0.0
C1663 C 0.92043 0.28892 0.23345 0.0
C1664 C 0.90113 0.2059 0.23471 0.0
C1665 C 0.88459 0.20471 0.21452 0.0
C1666 C 0.90226 0.22698 0.25021 0.0
C1667 C 0.88647 0.24754 0.24555 0.0
C1668 C 0.86961 0.2464 0.22531 0.0
C1669 C 0.86886 0.22508 0.2101 0.0
C1670 C 0.92046 0.22728 0.27159 0.0
C1671 C 0.85238 0.26778 0.21962 0.0
H1672 H 0.86272 0.29425 0.31497 0.0
H1673 H 0.91807 0.32586 0.26731 0.0
H1674 H 0.84158 0.24814 0.27464 0.0
H1675 H 0.86519 0.23392 0.29316 0.0
H1676 H 0.84413 0.25581 0.30714 0.0
H1677 H 0.93195 0.3059 0.23135 0.0
H1678 H 0.93291 0.27257 0.23461 0.0
H1679 H 0.90887 0.28662 0.21651 0.0
H1680 H 0.91334 0.19034 0.23842 0.0
H1681 H 0.85593 0.22445 0.19465 0.0
H1682 H 0.91045 0.23007 0.28932 0.0
H1683 H 0.93352 0.24307 0.26947 0.0
H1684 H 0.93135 0.20981 0.27287 0.0
H1685 H 0.84054 0.27175 0.23594 0.0
H1686 H 0.8402 0.26397 0.20337 0.0
H1687 H 0.86333 0.2848 0.21581 0.0
C1688 C 0.73223 0.37966 0.8094 0.0
C1689 C 0.71303 0.39637 0.80364 0.0
C1690 C 0.75349 0.37785 0.79447 0.0
C1691 C 0.75572 0.39312 0.77319 0.0
C1692 C 0.73634 0.4099 0.76716 0.0
C1693 C 0.71524 0.41129 0.7824 0.0
C1694 C 0.77359 0.35961 0.80153 0.0
C1695 C 0.73796 0.42647 0.74461 0.0
C1696 C 0.82007 0.40564 0.74675 0.0
C1697 C 0.82072 0.38949 0.72629 0.0
C1698 C 0.79913 0.4069 0.76223 0.0
C1699 C 0.77832 0.39156 0.75727 0.0
C1700 C 0.77905 0.37487 0.73695 0.0
C1701 C 0.80015 0.37409 0.72172 0.0
C1702 C 0.79916 0.42489 0.78374 0.0
C1703 C 0.75739 0.35803 0.73108 0.0
H1704 H 0.7307 0.36789 0.82564 0.0
H1705 H 0.70053 0.42421 0.77772 0.0
H1706 H 0.77672 0.34632 0.78611 0.0
H1707 H 0.7913 0.36961 0.80475 0.0
H1708 H 0.76895 0.34892 0.81854 0.0
H1709 H 0.72133 0.43846 0.74241 0.0
H1710 H 0.75461 0.43852 0.74602 0.0
H1711 H 0.74004 0.415 0.72763 0.0
H1712 H 0.8358 0.4176 0.75053 0.0
H1713 H 0.80035 0.36152 0.70601 0.0
H1714 H 0.79589 0.41477 0.80136 0.0
H1715 H 0.78382 0.43845 0.78147 0.0
H1716 H 0.8169 0.43527 0.78535 0.0
H1717 H 0.75271 0.34659 0.74753 0.0
H1718 H 0.76125 0.34542 0.71522 0.0
H1719 H 0.74081 0.36937 0.72652 0.0
C1720 C 0.30303 0.64395 0.22488 0.0
C1721 C 0.29735 0.62764 0.2053 0.0
C1722 C 0.28895 0.64421 0.24678 0.0
C1723 C 0.26878 0.62758 0.24938 0.0
C1724 C 0.2629 0.61109 0.2297 0.0
C1725 C 0.27716 0.61139 0.20788 0.0
C1726 C 0.29569 0.66232 0.26715 0.0
C1727 C 0.24156 0.59304 0.23173 0.0
C1728 C 0.24552 0.61215 0.31441 0.0
C1729 C 0.22417 0.62697 0.31606 0.0
C1730 C 0.26024 0.6122 0.29288 0.0
C1731 C 0.25363 0.62761 0.27256 0.0
C1732 C 0.23236 0.64291 0.27428 0.0
C1733 C 0.21785 0.64226 0.29586 0.0
C1734 C 0.28275 0.59558 0.29176 0.0
C1735 C 0.22475 0.65984 0.25322 0.0
H1736 H 0.31856 0.65659 0.22317 0.0
H1737 H 0.27258 0.59869 0.19293 0.0
H1738 H 0.27953 0.67427 0.27154 0.0
H1739 H 0.30059 0.65203 0.28433 0.0
H1740 H 0.31155 0.67443 0.26202 0.0
H1741 H 0.23955 0.58123 0.21492 0.0
H1742 H 0.2443 0.5808 0.24808 0.0
H1743 H 0.22398 0.60333 0.2346 0.0
H1744 H 0.25063 0.60027 0.32985 0.0
H1745 H 0.20137 0.65372 0.29676 0.0
H1746 H 0.29961 0.60686 0.28833 0.0
H1747 H 0.28086 0.58236 0.27605 0.0
H1748 H 0.28549 0.58481 0.30915 0.0
H1749 H 0.24032 0.67235 0.24826 0.0
H1750 H 0.20836 0.67141 0.25793 0.0
H1751 H 0.22027 0.64863 0.23651 0.0
C1752 C 0.21674 0.88057 0.22643 0.0
C1753 C 0.22037 0.89731 0.20677 0.0
C1754 C 0.23286 0.88012 0.24703 0.0
C1755 C 0.25324 0.89671 0.24804 0.0
C1756 C 0.25717 0.91346 0.22815 0.0
C1757 C 0.24072 0.91357 0.20781 0.0
C1758 C 0.22798 0.86194 0.2678 0.0
C1759 C 0.27874 0.93136 0.22839 0.0
C1760 C 0.28253 0.91267 0.31065 0.0
C1761 C 0.3038 0.89764 0.31076 0.0
C1762 C 0.26582 0.91237 0.2905 0.0
C1763 C 0.27044 0.89668 0.26989 0.0
C1764 C 0.29175 0.88128 0.27001 0.0
C1765 C 0.30809 0.88191 0.29041 0.0
C1766 C 0.24328 0.92898 0.29118 0.0
C1767 C 0.2974 0.86425 0.24847 0.0
H1768 H 0.20119 0.86782 0.22583 0.0
H1769 H 0.24382 0.9265 0.19272 0.0
H1770 H 0.24426 0.84959 0.27039 0.0
H1771 H 0.22525 0.87213 0.28549 0.0
H1772 H 0.21136 0.85025 0.26421 0.0
H1773 H 0.27938 0.94304 0.2114 0.0
H1774 H 0.27748 0.94374 0.24481 0.0
H1775 H 0.29644 0.92097 0.22998 0.0
H1776 H 0.27892 0.92478 0.3263 0.0
H1777 H 0.32433 0.87006 0.29032 0.0
H1778 H 0.22618 0.91769 0.28906 0.0
H1779 H 0.2438 0.94223 0.27541 0.0
H1780 H 0.24205 0.93973 0.30874 0.0
H1781 H 0.2817 0.85128 0.24533 0.0
H1782 H 0.31454 0.85319 0.25156 0.0
H1783 H 0.29965 0.87531 0.23125 0.0
C1784 C 0.14651 0.71829 0.72427 0.0
C1785 C 0.12985 0.72438 0.7051 0.0
C1786 C 0.14839 0.73292 0.74577 0.0
C1787 C 0.13304 0.75408 0.74837 0.0
C1788 C 0.11641 0.76056 0.72898 0.0
C1789 C 0.11508 0.74569 0.70754 0.0
C1790 C 0.16654 0.72548 0.76587 0.0
C1791 C 0.09976 0.783 0.73105 0.0
C1792 C 0.11862 0.77721 0.81349 0.0
C1793 C 0.13443 0.79781 0.81564 0.0
C1794 C 0.11809 0.76278 0.79175 0.0
C1795 C 0.13382 0.769 0.77168 0.0
C1796 C 0.15013 0.78951 0.77389 0.0
C1797 C 0.15024 0.80364 0.79582 0.0
C1798 C 0.10048 0.74101 0.79015 0.0
C1799 C 0.16734 0.79665 0.75301 0.0
H1800 H 0.158 0.70187 0.72266 0.0
H1801 H 0.10222 0.75063 0.69284 0.0
H1802 H 0.17887 0.74131 0.77059 0.0
H1803 H 0.1563 0.72045 0.78297 0.0
H1804 H 0.17824 0.70943 0.76031 0.0
H1805 H 0.08833 0.7859 0.71408 0.0
H1806 H 0.08717 0.7808 0.74715 0.0
H1807 H 0.11104 0.79992 0.7344 0.0
H1808 H 0.10638 0.77249 0.82867 0.0
H1809 H 0.1627 0.81938 0.79733 0.0
H1810 H 0.11096 0.72368 0.78643 0.0
H1811 H 0.08737 0.74372 0.77444 0.0
H1812 H 0.08961 0.73849 0.80744 0.0
H1813 H 0.1796 0.7808 0.74834 0.0
H1814 H 0.17909 0.81296 0.75777 0.0
H1815 H 0.15639 0.80112 0.73611 0.0
C1816 C 0.37799 0.7268 0.7989 0.0
C1817 C 0.39595 0.73051 0.81751 0.0
C1818 C 0.37702 0.74204 0.77774 0.0
C1819 C 0.39446 0.76152 0.77501 0.0
C1820 C 0.41215 0.76586 0.79406 0.0
C1821 C 0.41264 0.75037 0.8151 0.0
C1822 C 0.35772 0.73684 0.758 0.0
C1823 C 0.43107 0.78641 0.79187 0.0
C1824 C 0.41032 0.7817 0.70927 0.0
C1825 C 0.39686 0.80389 0.70677 0.0
C1826 C 0.40977 0.7679 0.73138 0.0
C1827 C 0.39521 0.77628 0.75154 0.0
C1828 C 0.38144 0.79858 0.74914 0.0
C1829 C 0.38258 0.81221 0.72687 0.0
C1830 C 0.42479 0.74427 0.73316 0.0
C1831 C 0.36544 0.80802 0.77005 0.0
H1832 H 0.36478 0.71173 0.80068 0.0
H1833 H 0.42651 0.7535 0.82938 0.0
H1834 H 0.347 0.75395 0.75386 0.0
H1835 H 0.36696 0.73109 0.74056 0.0
H1836 H 0.34459 0.72196 0.76359 0.0
H1837 H 0.44268 0.78826 0.80885 0.0
H1838 H 0.44341 0.78269 0.77586 0.0
H1839 H 0.42168 0.8044 0.78828 0.0
H1840 H 0.42143 0.77506 0.69392 0.0
H1841 H 0.37214 0.82932 0.72519 0.0
H1842 H 0.41236 0.72828 0.73685 0.0
H1843 H 0.43805 0.74553 0.74891 0.0
H1844 H 0.43537 0.74043 0.71593 0.0
H1845 H 0.35176 0.79361 0.77544 0.0
H1846 H 0.35525 0.82523 0.76496 0.0
H1847 H 0.37712 0.81188 0.78661 0.0
C1848 C 0.11728 0.54198 0.63627 0.0
C1849 C 0.11871 0.55594 0.65805 0.0
C1850 C 0.13597 0.52519 0.63018 0.0
C1851 C 0.15635 0.52199 0.64662 0.0
C1852 C 0.1582 0.53654 0.66843 0.0
C1853 C 0.13937 0.55371 0.67375 0.0
C1854 C 0.13336 0.51024 0.60652 0.0
C1855 C 0.17968 0.53373 0.68626 0.0
C1856 C 0.17468 0.45712 0.63418 0.0
C1857 C 0.1911 0.46077 0.6143 0.0
C1858 C 0.16627 0.47716 0.64827 0.0
C1859 C 0.17377 0.50141 0.64171 0.0
C1860 C 0.19327 0.50481 0.6246 0.0
C1861 C 0.20203 0.48427 0.61126 0.0
C1862 C 0.14633 0.47266 0.66736 0.0
C1863 C 0.20236 0.53039 0.61776 0.0
H1864 H 0.10141 0.5442 0.62402 0.0
H1865 H 0.1404 0.56487 0.69048 0.0
H1866 H 0.13064 0.49033 0.61111 0.0
H1867 H 0.1174 0.51645 0.59498 0.0
H1868 H 0.15046 0.51175 0.59524 0.0
H1869 H 0.1763 0.54347 0.70411 0.0
H1870 H 0.18344 0.51384 0.69016 0.0
H1871 H 0.19664 0.54166 0.67779 0.0
H1872 H 0.16613 0.43919 0.63724 0.0
H1873 H 0.2158 0.4871 0.59695 0.0
H1874 H 0.12788 0.47601 0.65876 0.0
H1875 H 0.14836 0.48551 0.68334 0.0
H1876 H 0.14675 0.45323 0.67433 0.0
H1877 H 0.18943 0.53869 0.60397 0.0
H1878 H 0.22113 0.52969 0.60936 0.0
H1879 H 0.20287 0.54278 0.6342 0.0
C1880 C 0.56501 0.67277 0.13898 0.0
C1881 C 0.56087 0.68877 0.11879 0.0
C1882 C 0.54519 0.66411 0.15317 0.0
C1883 C 0.52082 0.67102 0.14638 0.0
C1884 C 0.51699 0.69035 0.12904 0.0
C1885 C 0.53726 0.69928 0.11555 0.0
C1886 C 0.55005 0.6445 0.17261 0.0
C1887 C 0.49127 0.69886 0.122 0.0
C1888 C 0.48038 0.61442 0.1397 0.0
C1889 C 0.46531 0.61619 0.16059 0.0
C1890 C 0.49787 0.63276 0.13454 0.0
C1891 C 0.50062 0.65311 0.15107 0.0
C1892 C 0.48525 0.65511 0.1722 0.0
C1893 C 0.46739 0.63666 0.17653 0.0
C1894 C 0.51369 0.63001 0.11157 0.0
C1895 C 0.48759 0.67649 0.19019 0.0
H1896 H 0.58318 0.66474 0.14212 0.0
H1897 H 0.53415 0.71266 0.10082 0.0
H1898 H 0.537 0.64638 0.18837 0.0
H1899 H 0.5473 0.62584 0.16426 0.0
H1900 H 0.56937 0.64557 0.17981 0.0
H1901 H 0.4916 0.71732 0.11279 0.0
H1902 H 0.48296 0.68525 0.10889 0.0
H1903 H 0.47915 0.69987 0.13854 0.0
H1904 H 0.47832 0.59867 0.12728 0.0
H1905 H 0.45544 0.63793 0.19262 0.0
H1906 H 0.53341 0.6275 0.117 0.0
H1907 H 0.51246 0.64701 0.09998 0.0
H1908 H 0.50805 0.61386 0.1 0.0
H1909 H 0.4789 0.67213 0.20834 0.0
H1910 H 0.47806 0.69299 0.18234 0.0
H1911 H 0.50729 0.68156 0.1934 0.0
C1912 C 0.38891 0.96194 0.70867 0.0
C1913 C 0.39376 0.94222 0.69227 0.0
C1914 C 0.37497 0.98255 0.70081 0.0
C1915 C 0.36555 0.98303 0.67629 0.0
C1916 C 0.36606 0.96116 0.66179 0.0
C1917 C 0.3803 0.94102 0.66988 0.0
C1918 C 0.37337 1.00502 0.71743 0.0
C1919 C 0.35512 0.96041 0.63594 0.0
C1920 C 0.33575 0.03668 0.64179 0.0
C1921 C 0.35632 0.0458 0.62891 0.0
C1922 C 0.33853 0.01742 0.65918 0.0
C1923 C 0.36235 1.00709 0.66325 0.0
C1924 C 0.38334 0.01764 0.65141 0.0
C1925 C 0.37999 0.03686 0.63431 0.0
C1926 C 0.31575 1.00728 0.67179 0.0
C1927 C 0.40921 1.00747 0.65537 0.0
H1928 H 0.39814 0.96252 0.72658 0.0
H1929 H 0.38322 0.92586 0.65701 0.0
H1930 H 0.38878 0.01792 0.71299 0.0
H1931 H 0.35565 0.01511 0.7145 0.0
H1932 H 0.37503 0.99975 0.73731 0.0
H1933 H 0.3532 0.94107 0.62896 0.0
H1934 H 0.33664 0.96942 0.63551 0.0
H1935 H 0.36742 0.97075 0.62307 0.0
H1936 H 0.31744 0.04388 0.63752 0.0
H1937 H 0.39578 0.04423 0.62429 0.0
H1938 H 0.32023 0.99858 0.68993 0.0
H1939 H 0.30708 0.99298 0.65971 0.0
H1940 H 0.30183 0.0222 0.67474 0.0
H1941 H 0.41366 1.00659 0.67547 0.0
H1942 H 0.42358 0.01894 0.64608 0.0
H1943 H 0.41033 0.98829 0.64787 0.0
C1944 C 0.94767 0.87373 0.10944 0.0
C1945 C 0.94391 0.8497 0.10019 0.0
C1946 C 0.96742 0.87894 0.12544 0.0
C1947 C 0.98352 0.85948 0.13282 0.0
C1948 C 0.9783 0.83472 0.12561 0.0
C1949 C 0.95875 0.83015 0.1089 0.0
C1950 C 0.97237 0.90573 0.13241 0.0
C1951 C 0.99424 0.81329 0.13407 0.0
C1952 C 0.04733 0.88643 0.13814 0.0
C1953 C 0.04679 0.89518 0.16254 0.0
C1954 C 0.02775 0.87218 0.12872 0.0
C1955 C 1.00758 0.86618 0.14441 0.0
C1956 C 1.0087 0.87221 0.16996 0.0
C1957 C 0.02811 0.88726 0.17867 0.0
C1958 C 0.02728 0.86626 0.1013 0.0
C1959 C 0.9883 0.86479 0.18753 0.0
H1960 H 0.9364 0.88893 0.10253 0.0
H1961 H 0.9557 0.81151 0.10186 0.0
H1962 H 0.97401 0.90768 0.15283 0.0
H1963 H 0.9902 0.91188 0.12421 0.0
H1964 H 0.95749 0.91844 0.12583 0.0
H1965 H 0.98344 0.79572 0.13442 0.0
H1966 H 1.00979 0.81077 0.1209 0.0
H1967 H 1.00219 0.81667 0.15281 0.0
H1968 H 0.06191 0.89269 0.1258 0.0
H1969 H 0.02798 0.89394 0.19767 0.0
H1970 H 0.01278 0.87763 0.09202 0.0
H1971 H 0.02255 0.84646 0.09824 0.0
H1972 H 0.04536 0.87017 0.09226 0.0
H1973 H 0.99494 0.86468 0.20709 0.0
H1974 H 0.98091 0.84612 0.1828 0.0
H1975 H 0.9728 0.87827 0.18609 0.0
C1976 C 0.13935 0.96762 0.8458 0.0
C1977 C 0.11777 0.96502 0.85994 0.0
C1978 C 0.15715 0.9856 0.85209 0.0
C1979 C 0.15312 1.00083 0.8731 0.0
C1980 C 0.13166 0.99746 0.88788 0.0
C1981 C 0.11414 0.97971 0.88092 0.0
C1982 C 0.17951 0.98882 0.83566 0.0
C1983 C 0.12681 0.01296 0.91079 0.0
C1984 C 0.19514 0.03856 0.91266 0.0
C1985 C 0.18412 0.06189 0.90892 0.0
C1986 C 0.188 0.01815 0.89817 0.0
C1987 C 0.16997 0.02156 0.87936 0.0
C1988 C 0.16281 0.04581 0.87237 0.0
C1989 C 0.16964 0.06576 0.88753 0.0
C1990 C 0.19681 0.99258 0.90551 0.0
C1991 C 0.14466 0.05027 0.85144 0.0
H1992 H 0.14197 0.95602 0.82956 0.0
H1993 H 0.09751 0.97722 0.89192 0.0
H1994 H 0.17547 1.00337 0.82164 0.0
H1995 H 0.19609 0.99477 0.84637 0.0
H1996 H 0.18394 0.97136 0.82559 0.0
H1997 H 0.11009 1.00669 0.92102 0.0
H1998 H 0.14294 0.01211 0.92362 0.0
H1999 H 0.12407 0.03268 0.90544 0.0
H2000 H 0.20743 0.03568 0.92838 0.0
H2001 H 0.16127 0.08371 0.884 0.0
H2002 H 0.19889 0.98043 0.88901 0.0
H2003 H 0.18288 0.98395 0.91793 0.0
H2004 H 0.21478 0.99342 0.91565 0.0
H2005 H 0.14831 0.03753 0.83568 0.0
H2006 H 0.14555 0.06976 0.84469 0.0
H2007 H 0.12554 0.04668 0.85813 0.0
C2008 C 0.98281 0.69346 0.40581 0.0
C2009 C 0.95945 0.68214 0.40356 0.0
C2010 C 1.00292 0.6848 0.39191 0.0
C2011 C 0.99914 0.66494 0.37516 0.0
C2012 C 0.97478 0.65728 0.36918 0.0
C2013 C 0.95514 0.66568 0.38378 0.0
C2014 C 0.02858 0.69417 0.398 0.0
C2015 C 0.96992 0.63717 0.35023 0.0
C2016 C 0.0528 0.63105 0.34485 0.0
C2017 C 0.05562 0.61103 0.36123 0.0
C2018 C 0.03459 0.64917 0.34905 0.0
C2019 C 0.01964 0.64736 0.37049 0.0
C2020 C 0.02318 0.6275 0.38748 0.0
C2021 C 0.04097 0.60943 0.38243 0.0
C2022 C 0.03145 0.67 0.33055 0.0
C2023 C 1.00787 0.62499 0.41082 0.0
H2024 H 0.98598 0.70723 0.42017 0.0
H2025 H 0.93711 0.65709 0.38135 0.0
H2026 H 0.03768 0.68106 0.41107 0.0
H2027 H 0.04014 0.69522 0.38106 0.0
H2028 H 0.028 0.71279 0.4069 0.0
H2029 H 0.95041 0.63765 0.3435 0.0
H2030 H 0.98254 0.63906 0.33412 0.0
H2031 H 0.97332 0.61875 0.35887 0.0
H2032 H 0.06444 0.63217 0.32852 0.0
H2033 H 0.04357 0.594 0.39513 0.0
H2034 H 0.04136 0.68669 0.33746 0.0
H2035 H 0.01164 0.67502 0.32804 0.0
H2036 H 0.03933 0.66505 0.31218 0.0
H2037 H 1.00887 0.64234 0.42192 0.0
H2038 H 0.01416 0.60933 0.42271 0.0
H2039 H 0.98814 0.6218 0.40585 0.0
C2040 C 0.32356 0.48847 0.89676 0.0
C2041 C 0.33515 0.46516 0.89519 0.0
C2042 C 0.33224 0.50853 0.88268 0.0
C2043 C 0.3524 0.50474 0.86644 0.0
C2044 C 0.36021 0.48034 0.86089 0.0
C2045 C 0.35184 0.46078 0.87569 0.0
C2046 C 0.32257 0.53422 0.8881 0.0
C2047 C 0.38058 0.47541 0.84241 0.0
C2048 C 0.38847 0.55749 0.83685 0.0
C2049 C 0.40805 0.5598 0.85386 0.0
C2050 C 0.36963 0.53992 0.8407 0.0
C2051 C 0.37028 0.52514 0.86242 0.0
C2052 C 0.38961 0.52835 0.8801 0.0
C2053 C 0.40839 0.54547 0.87541 0.0
C2054 C 0.34929 0.53725 0.82155 0.0
C2055 C 0.39092 0.51325 0.90377 0.0
H2056 H 0.30952 0.4917 0.91074 0.0
H2057 H 0.36068 0.44284 0.87364 0.0
H2058 H 0.33518 0.54352 0.90154 0.0
H2059 H 0.322 0.54565 0.87099 0.0
H2060 H 0.30371 0.53357 0.89633 0.0
H2061 H 0.38022 0.45584 0.83583 0.0
H2062 H 0.37896 0.48797 0.82615 0.0
H2063 H 0.39883 0.47886 0.8514 0.0
H2064 H 0.38826 0.56898 0.82032 0.0
H2065 H 0.42344 0.54776 0.88866 0.0
H2066 H 0.33277 0.54779 0.82776 0.0
H2067 H 0.34368 0.51756 0.81912 0.0
H2068 H 0.35503 0.54479 0.80325 0.0
H2069 H 0.37324 0.51474 0.91413 0.0
H2070 H 0.40624 0.51938 0.91621 0.0
H2071 H 0.39389 0.49337 0.89924 0.0
C2072 C 0.49235 0.8881 0.3266 0.0
C2073 C 0.478 0.89578 0.34679 0.0
C2074 C 0.51234 0.87172 0.33009 0.0
C2075 C 0.51852 0.86393 0.35444 0.0
C2076 C 0.50289 0.87044 0.37458 0.0
C2077 C 0.48261 0.8861 0.37038 0.0
C2078 C 0.52763 0.86428 0.30792 0.0
C2079 C 0.5088 0.86277 0.40096 0.0
C2080 C 0.56504 0.81967 0.38116 0.0
C2081 C 0.58229 0.83683 0.39056 0.0
C2082 C 0.54553 0.82759 0.36571 0.0
C2083 C 0.54322 0.85316 0.36013 0.0
C2084 C 0.56282 0.8696 0.36616 0.0
C2085 C 0.58223 0.86117 0.3812 0.0
C2086 C 0.52594 0.80918 0.35789 0.0
C2087 C 0.56152 0.89697 0.36001 0.0
H2088 H 0.48853 0.89561 0.30831 0.0
H2089 H 0.47137 0.89224 0.38588 0.0
H2090 H 0.54154 0.87895 0.30406 0.0
H2091 H 0.53755 0.84648 0.31102 0.0
H2092 H 0.51571 0.86245 0.29114 0.0
H2093 H 0.49419 0.86859 0.41424 0.0
H2094 H 0.5109 0.84232 0.40219 0.0
H2095 H 0.52664 0.87123 0.40691 0.0
H2096 H 0.56545 0.80062 0.38768 0.0
H2097 H 0.59554 0.87462 0.38808 0.0
H2098 H 0.5181 0.81406 0.33943 0.0
H2099 H 0.51058 0.80939 0.37153 0.0
H2100 H 0.53354 0.79001 0.35717 0.0
H2101 H 0.55639 0.89971 0.34027 0.0
H2102 H 0.57942 0.90659 0.36359 0.0
H2103 H 0.54701 0.90592 0.37152 0.0
C2104 C 0.66102 0.1376 0.58119 0.0
C2105 C 0.68519 0.12797 0.58198 0.0
C2106 C 0.65291 0.15172 0.56097 0.0
C2107 C 0.66951 0.15657 0.54128 0.0
C2108 C 0.69488 0.15039 0.54391 0.0
C2109 C 0.70245 0.13586 0.56422 0.0
C2110 C 0.62571 0.1583 0.55918 0.0
C2111 C 0.71344 0.1567 0.52403 0.0
C2112 C 0.63589 0.14643 0.48083 0.0
C2113 C 0.6273 0.17036 0.47582 0.0
C2114 C 0.65151 0.14199 0.50114 0.0
C2115 C 0.65897 0.16216 0.51643 0.0
C2116 C 0.65227 0.18672 0.50984 0.0
C2117 C 0.636 0.19052 0.48977 0.0
C2118 C 0.65808 0.11542 0.50748 0.0
C2119 C 0.66073 0.20883 0.52486 0.0
H2120 H 0.64749 0.13173 0.59481 0.0
H2121 H 0.72133 0.12897 0.56509 0.0
H2122 H 0.62332 0.17784 0.5532 0.0
H2123 H 0.61662 0.14628 0.54507 0.0
H2124 H 0.61597 0.15572 0.57714 0.0
H2125 H 0.73262 0.15721 0.53165 0.0
H2126 H 0.71277 0.14232 0.50927 0.0
H2127 H 0.70913 0.1749 0.51535 0.0
H2128 H 0.62897 0.13098 0.46988 0.0
H2129 H 0.62929 0.20905 0.48563 0.0
H2130 H 0.64914 0.11012 0.52524 0.0
H2131 H 0.67839 0.11345 0.51002 0.0
H2132 H 0.65196 0.10214 0.49289 0.0
H2133 H 0.64705 0.21262 0.53971 0.0
H2134 H 0.66195 0.22571 0.51306 0.0
H2135 H 0.67904 0.20549 0.53373 0.0
C2136 C 0.87826 0.15677 0.03266 0.0
C2137 C 0.88489 0.17906 0.04401 0.0
C2138 C 0.86021 0.15623 0.01399 0.0
C2139 C 0.84865 0.17875 1.00641 0.0
C2140 C 0.85438 0.2012 0.0189 0.0
C2141 C 0.87255 0.20107 0.03773 0.0
C2142 C 0.85462 0.13162 1.00156 0.0
C2143 C 0.84161 0.2253 0.01241 0.0
C2144 C 0.83841 0.16347 0.94122 0.0
C2145 C 0.81736 0.14829 0.94431 0.0
C2146 C 0.84662 0.1788 0.96054 0.0
C2147 C 0.83364 0.17847 0.98324 0.0
C2148 C 0.80929 0.16883 0.98376 0.0
C2149 C 0.80111 0.15402 0.96387 0.0
C2150 C 0.87174 0.19097 0.95834 0.0
C2151 C 0.79378 0.17036 1.00689 0.0
H2152 H 0.88785 0.13983 0.0379 0.0
H2153 H 0.87762 0.21822 0.04702 0.0
H2154 H 0.83442 0.1278 1.00195 0.0
H2155 H 0.86048 0.13223 0.98185 0.0
H2156 H 0.86433 0.11585 1.01067 0.0
H2157 H 0.85248 0.24164 0.01882 0.0
H2158 H 0.83827 0.22701 0.99215 0.0
H2159 H 0.8233 0.22581 0.02172 0.0
H2160 H 0.85077 0.16086 0.92569 0.0
H2161 H 0.78363 0.14422 0.96546 0.0
H2162 H 0.88607 0.17838 0.96619 0.0
H2163 H 0.8724 0.20869 0.96883 0.0
H2164 H 0.87648 0.19471 0.93863 0.0
H2165 H 0.79905 0.155 0.01961 0.0
H2166 H 0.77372 0.1685 1.00246 0.0
H2167 H 0.79701 0.1882 0.01672 0.0
C2168 C 0.8482 0.37706 0.56128 0.0
C2169 C 0.83221 0.39729 0.55732 0.0
C2170 C 0.85618 0.36252 0.54136 0.0
C2171 C 0.84862 0.36903 0.51709 0.0
C2172 C 0.82898 0.38608 0.51365 0.0
C2173 C 0.82073 0.39993 0.53403 0.0
C2174 C 0.87595 0.34319 0.54587 0.0
C2175 C 0.81955 0.39259 0.48808 0.0
C2176 C 0.90492 0.37722 0.4769 0.0
C2177 C 0.90401 0.356 0.46208 0.0
C2178 C 0.88625 0.3821 0.49405 0.0
C2179 C 0.86638 0.36499 0.49666 0.0
C2180 C 0.86499 0.34381 0.48115 0.0
C2181 C 0.88391 0.33961 0.46384 0.0
C2182 C 0.88827 0.40529 0.50982 0.0
C2183 C 0.84436 0.32502 0.4834 0.0
H2184 H 0.85689 0.37423 0.57922 0.0
H2185 H 0.80723 0.41457 0.5311 0.0
H2186 H 0.87368 0.32726 0.53298 0.0
H2187 H 0.89447 0.35156 0.54254 0.0
H2188 H 0.8755 0.33623 0.56528 0.0
H2189 H 0.80064 0.40075 0.48886 0.0
H2190 H 0.83214 0.40651 0.47964 0.0
H2191 H 0.81921 0.37602 0.47584 0.0
H2192 H 0.92035 0.39001 0.47506 0.0
H2193 H 0.88334 0.32321 0.45214 0.0
H2194 H 0.89105 0.40009 0.52956 0.0
H2195 H 0.87093 0.41631 0.50853 0.0
H2196 H 0.90398 0.41736 0.50414 0.0
H2197 H 0.84991 0.31062 0.49707 0.0
H2198 H 0.84085 0.31557 0.46538 0.0
H2199 H 0.82683 0.33358 0.48989 0.0
C2200 C 0.68571 0.3851 0.97249 0.0
C2201 C 0.67052 0.40623 0.97209 0.0
C2202 C 0.68073 0.36541 0.98881 0.0
C2203 C 0.65998 0.36707 1.00471 0.0
C2204 C 0.64429 0.38825 1.00377 0.0
C2205 C 0.64994 0.40762 0.9876 0.0
C2206 C 0.69817 0.3435 0.98939 0.0
C2207 C 0.6216 0.39074 0.02004 0.0
C2208 C 0.62076 0.32207 0.03781 0.0
C2209 C 0.62353 0.33219 0.06171 0.0
C2210 C 0.63604 0.33006 0.01842 0.0
C2211 C 0.65467 0.34782 0.02352 0.0
C2212 C 0.66133 0.35294 0.04835 0.0
C2213 C 0.64533 0.34549 0.06728 0.0
C2214 C 0.62943 0.3229 0.99215 0.0
C2215 C 0.68252 0.37018 0.05458 0.0
H2216 H 0.70164 0.38415 0.9603 0.0
H2217 H 0.63802 0.42384 0.9868 0.0
H2218 H 0.71353 0.34754 1.00256 0.0
H2219 H 0.68887 0.3262 0.99555 0.0
H2220 H 0.70649 0.34027 0.97082 0.0
H2221 H 0.61068 0.40772 0.01574 0.0
H2222 H 0.60928 0.3744 0.01765 0.0
H2223 H 0.62727 0.3916 0.03984 0.0
H2224 H 0.60503 0.31023 0.03361 0.0
H2225 H 0.64854 0.35288 0.0857 0.0
H2226 H 0.64621 0.32196 0.98033 0.0
H2227 H 0.61685 0.33719 0.9842 0.0
H2228 H 0.61971 0.30471 0.99152 0.0
H2229 H 0.69821 0.36742 0.04161 0.0
H2230 H 0.68918 0.36727 0.07391 0.0
H2231 H 0.67613 0.38971 0.05285 0.0
C2232 C 0.86314 0.4524 0.37429 0.0
C2233 C 0.88692 0.44244 0.37059 0.0
C2234 C 0.85955 0.47824 0.37797 0.0
C2235 C 0.88024 0.49465 0.37869 0.0
C2236 C 0.90433 0.48446 0.37587 0.0
C2237 C 0.90731 0.45874 0.37149 0.0
C2238 C 0.83346 0.4881 0.38022 0.0
C2239 C 0.92708 0.50077 0.3772 0.0
C2240 C 0.87143 0.56455 0.36516 0.0
C2241 C 0.8689 0.57464 0.38906 0.0
C2242 C 0.87497 0.5387 0.3615 0.0
C2243 C 0.87674 0.5224 0.38224 0.0
C2244 C 0.8751 0.53272 0.40642 0.0
C2245 C 0.87084 0.55845 0.40949 0.0
C2246 C 0.87595 0.52869 0.33536 0.0
C2247 C 0.87758 0.51654 0.42918 0.0
H2248 H 0.84722 0.44015 0.37314 0.0
H2249 H 0.92577 0.45135 0.36855 0.0
H2250 H 0.83123 0.49799 0.39814 0.0
H2251 H 0.82982 0.50176 0.36521 0.0
H2252 H 0.81933 0.47312 0.37906 0.0
H2253 H 0.94455 0.48989 0.3761 0.0
H2254 H 0.9268 0.51438 0.36175 0.0
H2255 H 0.92713 0.5115 0.3948 0.0
H2256 H 0.86947 0.5767 0.34922 0.0
H2257 H 0.86883 0.56593 0.42806 0.0
H2258 H 0.86086 0.51494 0.33253 0.0
H2259 H 0.89376 0.51887 0.33228 0.0
H2260 H 0.87403 0.54359 0.32121 0.0
H2261 H 0.86222 0.50285 0.4297 0.0
H2262 H 0.87728 0.5275 0.44666 0.0
H2263 H 0.89519 0.50588 0.42843 0.0
C2264 C 0.46333 0.37493 0.90546 0.0
C2265 C 0.44793 0.37349 0.88433 0.0
C2266 C 0.48922 0.3782 0.90354 0.0
C2267 C 0.50049 0.37955 0.87984 0.0
C2268 C 0.48501 0.37848 0.85839 0.0
C2269 C 0.45898 0.37573 0.86088 0.0
C2270 C 0.50457 0.37986 0.927 0.0
C2271 C 0.49606 0.37944 0.83273 0.0
C2272 C 0.56527 0.40839 0.87332 0.0
C2273 C 0.58098 0.3875 0.87283 0.0
C2274 C 0.53934 0.40608 0.87592 0.0
C2275 C 0.52835 0.38221 0.8776 0.0
C2276 C 0.54411 0.36101 0.87742 0.0
C2277 C 0.57016 0.36389 0.87529 0.0
C2278 C 0.52367 0.42932 0.87665 0.0
C2279 C 0.53336 0.33517 0.87879 0.0
H2280 H 0.4551 0.37318 0.92371 0.0
H2281 H 0.44742 0.37418 0.84444 0.0
H2282 H 0.51781 0.36411 0.92786 0.0
H2283 H 0.51567 0.39723 0.92697 0.0
H2284 H 0.49298 0.37952 0.944 0.0
H2285 H 0.48169 0.37839 0.81792 0.0
H2286 H 0.50676 0.39687 0.83033 0.0
H2287 H 0.50921 0.36377 0.8303 0.0
H2288 H 0.57329 0.42676 0.87146 0.0
H2289 H 0.58195 0.34761 0.87456 0.0
H2290 H 0.51245 0.42964 0.89387 0.0
H2291 H 0.51052 0.42944 0.86075 0.0
H2292 H 0.53503 0.44653 0.87589 0.0
H2293 H 0.52256 0.33297 0.89613 0.0
H2294 H 0.54791 0.32057 0.87823 0.0
H2295 H 0.52036 0.33218 0.86304 0.0
C2296 C 0.63069 0.9565 0.391 0.0
C2297 C 0.65366 0.94593 0.38489 0.0
C2298 C 0.62697 0.98256 0.38977 0.0
C2299 C 0.64644 0.99843 0.38164 0.0
C2300 C 0.66937 0.98759 0.37479 0.0
C2301 C 0.67275 0.96173 0.37684 0.0
C2302 C 0.60236 0.99321 0.39767 0.0
C2303 C 0.69042 1.00333 0.36513 0.0
C2304 C 0.63078 0.06166 0.35323 0.0
C2305 C 0.63833 0.07863 0.37169 0.0
C2306 C 0.63305 0.0358 0.35639 0.0
C2307 C 0.64269 0.02612 0.37888 0.0
C2308 C 0.65009 0.04306 0.39784 0.0
C2309 C 0.64814 0.06908 0.39392 0.0
C2310 C 0.62559 0.01884 0.33529 0.0
C2311 C 0.65999 0.03365 0.42233 0.0
H2312 H 0.61599 0.94453 0.39768 0.0
H2313 H 0.69059 0.95377 0.37211 0.0
H2314 H 0.60528 1.00695 0.41276 0.0
H2315 H 0.59353 1.00319 0.38194 0.0
H2316 H 0.58938 0.97864 0.4043 0.0
H2317 H 0.70688 0.99204 0.36003 0.0
H2318 H 0.68423 0.01388 0.34853 0.0
H2319 H 0.6961 0.0171 0.37939 0.0
H2320 H 0.62333 0.06864 0.33586 0.0
H2321 H 0.65381 0.08188 0.4084 0.0
H2322 H 0.61123 1.00552 0.34155 0.0
H2323 H 0.64184 1.00781 0.32919 0.0
H2324 H 0.61819 0.02924 0.31905 0.0
H2325 H 0.64669 0.02028 0.43059 0.0
H2326 H 0.66336 0.04894 0.43579 0.0
H2327 H 0.67765 0.02353 0.41938 0.0
C2328 C 0.95446 0.15006 0.89313 0.0
C2329 C 0.94449 0.14956 0.86903 0.0
C2330 C 0.98043 0.15147 0.89708 0.0
C2331 C 0.99681 0.15297 0.87648 0.0
C2332 C 0.98661 0.15327 0.8522 0.0
C2333 C 0.96078 0.15122 0.84882 0.0
C2334 C 0.9904 0.15075 0.92329 0.0
C2335 C 1.003 0.15573 0.82966 0.0
C2336 C 0.06098 0.18162 0.88633 0.0
C2337 C 0.07687 0.16091 0.88586 0.0
C2338 C 0.03517 0.17925 0.88324 0.0
C2339 C 0.02448 0.15542 0.88013 0.0
C2340 C 0.04039 0.13432 0.87953 0.0
C2341 C 0.06642 0.13733 0.8821 0.0
C2342 C 0.01934 0.20241 0.88321 0.0
C2343 C 0.02983 0.10851 0.87666 0.0
H2344 H 0.94206 0.14828 0.90882 0.0
H2345 H 0.95324 0.15076 0.83013 0.0
H2346 H 1.00335 0.13486 0.92542 0.0
H2347 H 1.00109 0.16791 0.9273 0.0
H2348 H 0.97542 0.14896 0.93728 0.0
H2349 H 0.99215 0.15642 0.81209 0.0
H2350 H 0.01435 0.17288 0.83109 0.0
H2351 H 0.01601 0.13981 0.82872 0.0
H2352 H 0.06883 0.19997 0.8891 0.0
H2353 H 0.07846 0.1212 0.88203 0.0
H2354 H 1.00576 0.20161 0.8986 0.0
H2355 H 1.00861 0.20359 0.86562 0.0
H2356 H 0.03053 0.21962 0.88527 0.0
H2357 H 0.01624 0.10486 0.89164 0.0
H2358 H 0.04443 0.09396 0.87731 0.0
H2359 H 0.01972 0.10696 0.85875 0.0
C2360 C 0.86179 0.95192 0.11601 0.0
C2361 C 0.85786 0.94022 0.13898 0.0
C2362 C 0.86388 0.97818 0.11415 0.0
C2363 C 0.86247 0.99326 0.13582 0.0
C2364 C 0.85869 0.9814 0.159 0.0
C2365 C 0.85652 0.9553 0.16027 0.0
C2366 C 0.8677 0.98976 0.08897 0.0
C2367 C 0.85689 0.99635 0.18265 0.0
C2368 C 0.89274 0.05758 0.14081 0.0
C2369 C 0.87237 0.07395 0.13993 0.0
C2370 C 0.88989 0.03164 0.1382 0.0
C2371 C 0.86595 0.02124 0.13477 0.0
C2372 C 0.84535 0.03773 0.13279 0.0
C2373 C 0.84881 0.06377 0.13527 0.0
C2374 C 0.91251 0.01525 0.14044 0.0
C2375 C 0.8193 0.02801 0.12972 0.0
H2376 H 0.86304 0.9406 0.09944 0.0
H2377 H 0.85343 0.94667 0.17817 0.0
H2378 H 0.85544 1.00615 0.08652 0.0
H2379 H 0.88713 0.99635 0.08747 0.0
H2380 H 0.86404 0.97638 0.07368 0.0
H2381 H 0.8537 0.98448 0.1992 0.0
H2382 H 0.87423 1.00709 0.18559 0.0
H2383 H 0.84146 1.00991 0.18113 0.0
H2384 H 0.91111 0.06504 0.14431 0.0
H2385 H 0.83283 0.07598 0.13488 0.0
H2386 H 0.91341 1.00221 0.12451 0.0
H2387 H 0.91123 1.0039 0.15759 0.0
H2388 H 0.93001 0.02613 0.14117 0.0
H2389 H 0.81885 1.00999 0.11979 0.0
H2390 H 0.80748 0.04154 0.11955 0.0
H2391 H 0.81107 0.02519 0.14836 0.0
C2392 C 0.95653 0.36008 0.64323 0.0
C2393 C 0.94564 0.38362 0.6459 0.0
C2394 C 0.98255 0.35736 0.64055 0.0
C2395 C 0.99817 0.37868 0.64002 0.0
C2396 C 0.98705 0.40249 0.6417 0.0
C2397 C 0.96118 0.40462 0.64488 0.0
C2398 C 0.99343 0.33159 0.63922 0.0
C2399 C 1.00256 0.42583 0.64061 0.0
C2400 C 0.06761 0.37274 0.65661 0.0
C2401 C 0.07861 0.37031 0.63316 0.0
C2402 C 0.04157 0.3754 0.65913 0.0
C2403 C 0.02604 0.37618 0.63771 0.0
C2404 C 0.03726 0.37467 0.614 0.0
C2405 C 0.06316 0.37149 0.61205 0.0
C2406 C 0.03058 0.37652 0.68481 0.0
C2407 C 0.02186 0.37602 0.59056 0.0
H2408 H 0.94487 0.34373 0.64447 0.0
H2409 H 0.95307 0.42293 0.64699 0.0
H2410 H 1.00434 0.32943 0.62194 0.0
H2411 H 1.00636 0.32869 0.65504 0.0
H2412 H 0.97895 0.31691 0.6397 0.0
H2413 H 0.99106 0.44295 0.64094 0.0
H2414 H 0.01556 0.42638 0.65661 0.0
H2415 H 0.01391 0.42589 0.62347 0.0
H2416 H 0.0792 0.37136 0.67304 0.0
H2417 H 0.07136 0.36955 0.59381 0.0
H2418 H 0.01749 0.36082 0.68739 0.0
H2419 H 0.01983 0.39393 0.68711 0.0
H2420 H 0.04498 0.37565 0.6996 0.0
H2421 H 1.00877 0.36013 0.58982 0.0
H2422 H 0.03342 0.37568 0.57354 0.0
H2423 H 1.01059 0.39327 0.5905 0.0
C2424 C 0.64832 0.57312 0.16139 0.0
C2425 C 0.65163 0.58392 0.13789 0.0
C2426 C 0.64515 0.54707 0.1642 0.0
C2427 C 0.64462 0.53125 0.143 0.0
C2428 C 0.64704 0.54229 0.1192 0.0
C2429 C 0.65087 0.56819 0.11701 0.0
C2430 C 0.64327 0.53635 0.18999 0.0
C2431 C 0.64594 0.52669 0.09592 0.0
C2432 C 0.6594 0.46118 0.14922 0.0
C2433 C 0.63572 0.45051 0.15139 0.0
C2434 C 0.66258 0.48724 0.14668 0.0
C2435 C 0.64159 0.50327 0.14561 0.0
C2436 C 0.61764 0.49241 0.14692 0.0
C2437 C 0.61504 0.46646 0.15015 0.0
C2438 C 0.68851 0.49774 0.14595 0.0
C2439 C 0.5946 0.50826 0.14515 0.0
H2440 H 0.64941 0.58488 0.1777 0.0
H2441 H 0.65354 0.57618 0.09874 0.0
H2442 H 0.6256 0.52601 0.19201 0.0
H2443 H 0.65857 0.52291 0.19312 0.0
H2444 H 0.64421 0.5509 0.20459 0.0
H2445 H 0.64656 0.53815 0.07879 0.0
H2446 H 0.66177 0.51354 0.09562 0.0
H2447 H 0.62868 0.51545 0.09568 0.0
H2448 H 0.67555 0.44926 0.15065 0.0
H2449 H 0.59662 0.45859 0.1519 0.0
H2450 H 0.69113 0.51107 0.16147 0.0
H2451 H 0.69136 0.50815 0.12843 0.0
H2452 H 0.70292 0.48305 0.1474 0.0
H2453 H 0.59399 0.52146 0.16095 0.0
H2454 H 0.57734 0.49699 0.14527 0.0
H2455 H 0.59501 0.51946 0.12786 0.0
C2456 C 0.568 0.13655 0.63525 0.0
C2457 C 0.57796 0.14148 0.65884 0.0
C2458 C 0.54203 0.13719 0.63107 0.0
C2459 C 0.52567 0.14335 0.65081 0.0
C2460 C 0.53586 0.14904 0.67441 0.0
C2461 C 0.56166 0.14776 0.67814 0.0
C2462 C 0.53203 0.13072 0.60569 0.0
C2463 C 0.5195 0.1565 0.69585 0.0
C2464 C 0.46186 0.17051 0.63625 0.0
C2465 C 0.44559 0.15083 0.64178 0.0
C2466 C 0.48771 0.16816 0.63881 0.0
C2467 C 0.49805 0.14533 0.64674 0.0
C2468 C 0.48182 0.12522 0.65226 0.0
C2469 C 0.45577 0.12829 0.65 0.0
C2470 C 0.50393 0.1904 0.63342 0.0
C2471 C 0.49201 0.10043 0.66041 0.0
H2472 H 0.58039 0.13121 0.62038 0.0
H2473 H 0.56917 0.15156 0.69647 0.0
H2474 H 0.52134 0.14659 0.59801 0.0
H2475 H 0.54699 0.12586 0.59243 0.0
H2476 H 0.51906 0.11477 0.60714 0.0
H2477 H 0.53033 0.16078 0.71291 0.0
H2478 H 0.50841 0.17312 0.69076 0.0
H2479 H 0.50625 0.14134 0.70012 0.0
H2480 H 0.45431 0.18813 0.63006 0.0
H2481 H 0.44347 0.11291 0.65408 0.0
H2482 H 0.51763 0.18574 0.61886 0.0
H2483 H 0.5145 0.19563 0.65035 0.0
H2484 H 0.49304 0.20677 0.62716 0.0
H2485 H 0.50592 0.09372 0.64683 0.0
H2486 H 0.47724 0.08618 0.66231 0.0
H2487 H 0.50166 0.10242 0.67854 0.0
C2488 C 0.39428 0.87214 0.45037 0.0
C2489 C 0.37127 0.8786 0.44001 0.0
C2490 C 0.39729 0.86985 0.47644 0.0
C2491 C 0.37668 0.87353 0.49248 0.0
C2492 C 0.35333 0.87937 0.48189 0.0
C2493 C 0.35102 0.88208 0.45602 0.0
C2494 C 0.42261 0.86395 0.48689 0.0
C2495 C 0.33063 0.8827 0.49788 0.0
C2496 C 0.37769 0.84315 0.55661 0.0
C2497 C 0.38232 0.86328 0.57259 0.0
C2498 C 0.3757 0.84629 0.53075 0.0
C2499 C 0.37902 0.87015 0.52019 0.0
C2500 C 0.38344 0.8907 0.53625 0.0
C2501 C 0.38478 0.88707 0.56229 0.0
C2502 C 0.37009 0.82394 0.51471 0.0
C2503 C 0.38735 0.91642 0.52586 0.0
H2504 H 0.41009 0.86978 0.43823 0.0
H2505 H 0.33312 0.887 0.4482 0.0
H2506 H 0.42831 0.87865 0.50019 0.0
H2507 H 0.422 0.8462 0.49732 0.0
H2508 H 0.43691 0.86242 0.47218 0.0
H2509 H 0.31371 0.88675 0.48676 0.0
H2510 H 0.32731 0.86563 0.50894 0.0
H2511 H 0.3336 0.89815 0.51119 0.0
H2512 H 0.37576 0.82469 0.56442 0.0
H2513 H 0.38879 0.90262 0.57444 0.0
H2514 H 0.38548 0.82077 0.50149 0.0
H2515 H 0.35307 0.82734 0.50356 0.0
H2516 H 0.36739 0.80678 0.52582 0.0
H2517 H 0.39111 0.93035 0.54063 0.0
H2518 H 0.37074 0.92237 0.51521 0.0
H2519 H 0.40319 0.91625 0.51277 0.0
C2520 C 0.119 0.87639 0.95856 0.0
C2521 C 0.14042 0.87512 0.94382 0.0
C2522 C 0.12034 0.87984 0.98446 0.0
C2523 C 0.14377 0.88152 0.99636 0.0
C2524 C 0.16553 0.88087 0.9815 0.0
C2525 C 0.1636 0.8779 0.95541 0.0
C2526 C 0.09658 0.88103 0.99916 0.0
C2527 C 0.19092 0.88227 0.99328 0.0
C2528 C 0.14812 0.90972 0.06156 0.0
C2529 C 0.14872 0.88865 0.07703 0.0
C2530 C 0.14624 0.90767 0.03553 0.0
C2531 C 0.14537 0.8839 0.02427 0.0
C2532 C 0.14558 0.8625 0.03978 0.0
C2533 C 0.14702 0.86512 0.06592 0.0
C2534 C 0.14545 0.93106 0.02007 0.0
C2535 C 0.14499 0.83677 0.02869 0.0
H2536 H 0.10099 0.87407 0.94979 0.0
H2537 H 0.18024 0.87636 0.9443 0.0
H2538 H 0.09548 0.86487 0.01188 0.0
H2539 H 0.09631 0.89804 1.01079 0.0
H2540 H 0.07986 0.88099 0.98703 0.0
H2541 H 0.20599 0.88198 0.97929 0.0
H2542 H 0.19264 0.89947 1.0045 0.0
H2543 H 0.19352 0.86634 1.00611 0.0
H2544 H 0.14942 0.92803 0.06986 0.0
H2545 H 0.14789 0.84873 0.07758 0.0
H2546 H 0.12848 0.9312 1.00834 0.0
H2547 H 0.1616 0.9316 1.00739 0.0
H2548 H 0.14566 0.94816 0.03164 0.0
H2549 H 0.12794 0.83432 0.01736 0.0
H2550 H 0.14557 0.82201 0.0431 0.0
H2551 H 0.16104 0.83427 0.0161 0.0
C2552 C 0.15791 0.64795 0.56529 0.0
C2553 C 0.13448 0.65085 0.57615 0.0
C2554 C 0.16049 0.64523 0.53926 0.0
C2555 C 0.13912 0.64487 0.52367 0.0
C2556 C 0.11541 0.64683 0.53475 0.0
C2557 C 0.11343 0.65006 0.56063 0.0
C2558 C 0.18616 0.64357 0.52836 0.0
C2559 C 0.09204 0.64588 0.51922 0.0
C2560 C 0.14546 0.66056 0.4542 0.0
C2561 C 0.14785 0.63691 0.44352 0.0
C2562 C 0.14255 0.66346 0.48017 0.0
C2563 C 0.14148 0.64222 0.49586 0.0
C2564 C 0.14275 0.61832 0.48489 0.0
C2565 C 0.14623 0.616 0.45907 0.0
C2566 C 0.14163 0.6893 0.49096 0.0
C2567 C 0.14104 0.59508 0.50048 0.0
H2568 H 0.17429 0.64899 0.57698 0.0
H2569 H 0.09521 0.65231 0.56878 0.0
H2570 H 0.18815 0.62604 0.51772 0.0
H2571 H 0.18907 0.65912 0.51517 0.0
H2572 H 0.20089 0.64427 0.54282 0.0
H2573 H 0.07499 0.6467 0.53071 0.0
H2574 H 0.09173 0.66166 0.50599 0.0
H2575 H 0.09165 0.62854 0.50808 0.0
H2576 H 0.14721 0.67681 0.44245 0.0
H2577 H 0.14819 0.59764 0.45103 0.0
H2578 H 0.15751 0.69202 0.50386 0.0
H2579 H 0.12443 0.69179 0.50189 0.0
H2580 H 0.14234 0.7039 0.4764 0.0
H2581 H 0.15727 0.59395 0.51315 0.0
H2582 H 0.14048 0.57794 0.48899 0.0
H2583 H 0.12418 0.59567 0.5122 0.0
C2584 C 0.36471 0.65002 0.95284 0.0
C2585 C 0.38871 0.65148 0.94297 0.0
C2586 C 0.36088 0.64709 0.97867 0.0
C2587 C 0.38151 0.64489 0.99507 0.0
C2588 C 0.40574 0.64538 0.98496 0.0
C2589 C 0.40901 0.64903 0.95926 0.0
C2590 C 0.33473 0.64718 0.98852 0.0
C2591 C 0.42833 0.64243 1.00136 0.0
C2592 C 0.37429 0.6598 0.06463 0.0
C2593 C 0.36988 0.63623 0.07483 0.0
C2594 C 0.37794 0.66294 0.03879 0.0
C2595 C 0.37783 0.64196 0.02272 0.0
C2596 C 0.37422 0.61807 0.03314 0.0
C2597 C 0.37002 0.61556 0.05884 0.0
C2598 C 0.38112 0.68883 0.02857 0.0
C2599 C 0.3747 0.59504 0.01712 0.0
H2600 H 0.34893 0.65244 0.94054 0.0
H2601 H 0.42765 0.65028 0.95186 0.0
H2602 H 0.33097 0.62967 0.99868 0.0
H2603 H 0.33246 0.66267 1.00192 0.0
H2604 H 0.32069 0.64926 0.97351 0.0
H2605 H 0.44582 0.64193 0.99053 0.0
H2606 H 0.42942 0.65805 0.01474 0.0
H2607 H 0.42689 0.62504 0.01233 0.0
H2608 H 0.37379 0.67592 0.07669 0.0
H2609 H 0.36662 0.59725 0.06645 0.0
H2610 H 0.36623 0.69277 0.01483 0.0
H2611 H 0.39906 0.69034 0.01869 0.0
H2612 H 0.38054 0.70323 0.04333 0.0
H2613 H 0.36079 0.59655 1.00197 0.0
H2614 H 0.37083 0.5779 0.02788 0.0
H2615 H 0.39317 0.59319 1.0083 0.0
C2616 C 0.1022 0.29904 0.72164 0.0
C2617 C 0.12008 0.29305 0.70387 0.0
C2618 C 0.0986 0.28385 0.74242 0.0
C2619 C 0.11402 0.26288 0.7458 0.0
C2620 C 0.13086 0.25581 0.72692 0.0
C2621 C 0.13338 0.27087 0.70586 0.0
C2622 C 0.07968 0.29133 0.76159 0.0
C2623 C 0.14792 0.23376 0.73002 0.0
C2624 C 0.13495 0.2455 0.81061 0.0
C2625 C 0.12332 0.22252 0.81352 0.0
C2626 C 0.13132 0.25938 0.78888 0.0
C2627 C 0.11503 0.25027 0.77022 0.0
C2628 C 0.10163 0.22806 0.77418 0.0
C2629 C 0.10634 0.21414 0.79565 0.0
C2630 C 0.14628 0.28281 0.78515 0.0
C2631 C 0.08338 0.21832 0.75521 0.0
H2632 H 0.09192 0.31628 0.71992 0.0
H2633 H 0.14741 0.26651 0.69215 0.0
H2634 H 0.06954 0.27483 0.76859 0.0
H2635 H 0.08923 0.30008 0.77764 0.0
H2636 H 0.06605 0.30485 0.75399 0.0
H2637 H 0.15853 0.22969 0.71286 0.0
H2638 H 0.1613 0.23752 0.74529 0.0
H2639 H 0.13722 0.21697 0.73521 0.0
H2640 H 0.14828 0.25172 0.8244 0.0
H2641 H 0.09733 0.19629 0.79811 0.0
H2642 H 0.13387 0.29861 0.78063 0.0
H2643 H 0.15905 0.28032 0.76922 0.0
H2644 H 0.15745 0.28776 0.80181 0.0
H2645 H 0.07148 0.23356 0.74803 0.0
H2646 H 0.07132 0.20355 0.76304 0.0
H2647 H 0.09359 0.21042 0.73922 0.0
C2648 C 0.71042 0.60713 0.23057 0.0
C2649 C 0.71984 0.62481 0.21405 0.0
C2650 C 0.72377 0.6004 0.25188 0.0
C2651 C 0.74643 0.61255 0.25713 0.0
C2652 C 0.75662 0.62943 0.23969 0.0
C2653 C 0.74331 0.63503 0.21802 0.0
C2654 C 0.71289 0.58149 0.26943 0.0
C2655 C 0.78061 0.64306 0.2448 0.0
C2656 C 0.76664 0.62837 0.32226 0.0
C2657 C 0.78864 0.61477 0.3238 0.0
C2658 C 0.75147 0.62648 0.30116 0.0
C2659 C 0.75826 0.60997 0.28183 0.0
C2660 C 0.77877 0.5939 0.28496 0.0
C2661 C 0.7941 0.59688 0.30579 0.0
C2662 C 0.72987 0.64414 0.2984 0.0
C2663 C 0.78584 0.57522 0.26534 0.0
H2664 H 0.69221 0.5992 0.22725 0.0
H2665 H 0.75032 0.64889 0.20523 0.0
H2666 H 0.72752 0.56902 0.27687 0.0
H2667 H 0.70429 0.59117 0.2854 0.0
H2668 H 0.69838 0.57003 0.26021 0.0
H2669 H 0.78636 0.65491 0.22895 0.0
H2670 H 0.77843 0.65506 0.26142 0.0
H2671 H 0.79571 0.62967 0.24886 0.0
H2672 H 0.76269 0.64237 0.33618 0.0
H2673 H 0.8112 0.58634 0.30719 0.0
H2674 H 0.71297 0.63404 0.29236 0.0
H2675 H 0.73419 0.6581 0.28387 0.0
H2676 H 0.72575 0.65413 0.31596 0.0
H2677 H 0.76912 0.56614 0.25737 0.0
H2678 H 0.79839 0.56068 0.27291 0.0
H2679 H 0.7956 0.58482 0.25 0.0
C2680 C 0.42164 0.29904 0.79775 0.0
C2681 C 0.40429 0.29396 0.81632 0.0
C2682 C 0.42471 0.28277 0.77771 0.0
C2683 C 0.40931 0.26158 0.7759 0.0
C2684 C 0.39297 0.25554 0.79556 0.0
C2685 C 0.39097 0.2717 0.81585 0.0
C2686 C 0.44311 0.28922 0.75767 0.0
C2687 C 0.37596 0.23328 0.79412 0.0
C2688 C 0.38721 0.23968 0.71286 0.0
C2689 C 0.39889 0.21658 0.71133 0.0
C2690 C 0.39123 0.25509 0.73347 0.0
C2691 C 0.40796 0.2474 0.75236 0.0
C2692 C 0.42145 0.22506 0.74965 0.0
C2693 C 0.41635 0.20962 0.72934 0.0
C2694 C 0.37619 0.27864 0.7359 0.0
C2695 C 0.44018 0.21679 0.76885 0.0
H2696 H 0.43194 0.31635 0.79829 0.0
H2697 H 0.37735 0.26804 0.83016 0.0
H2698 H 0.45321 0.27241 0.75141 0.0
H2699 H 0.43311 0.29693 0.74137 0.0
H2700 H 0.4568 0.30326 0.76412 0.0
H2701 H 0.36561 0.23028 0.81166 0.0
H2702 H 0.36235 0.23599 0.77884 0.0
H2703 H 0.38666 0.21623 0.78987 0.0
H2704 H 0.37354 0.24481 0.69895 0.0
H2705 H 0.42541 0.19168 0.72795 0.0
H2706 H 0.38856 0.29476 0.73923 0.0
H2707 H 0.36366 0.27711 0.75213 0.0
H2708 H 0.36477 0.28243 0.71911 0.0
H2709 H 0.45213 0.23256 0.77466 0.0
H2710 H 0.45215 0.20157 0.76181 0.0
H2711 H 0.43038 0.20999 0.78559 0.0
C2712 C 0.76835 0.9029 0.21002 0.0
C2713 C 0.77201 0.87928 0.19977 0.0
C2714 C 0.75232 0.90623 0.23009 0.0
C2715 C 0.73981 0.88539 0.23993 0.0
C2716 C 0.74169 0.86195 0.22812 0.0
C2717 C 0.75784 0.85918 0.20803 0.0
C2718 C 0.7504 0.93157 0.24197 0.0
C2719 C 0.72824 0.83938 0.23791 0.0
C2720 C 0.72705 0.88215 0.30882 0.0
C2721 C 0.70146 0.88615 0.30922 0.0
C2722 C 0.73997 0.88269 0.28631 0.0
C2723 C 0.72685 0.88744 0.26394 0.0
C2724 C 0.70123 0.89283 0.2645 0.0
C2725 C 0.68881 0.89208 0.28721 0.0
C2726 C 0.7674 0.87702 0.28632 0.0
C2727 C 0.68673 0.89815 0.24105 0.0
H2728 H 0.77923 0.9185 0.20343 0.0
H2729 H 0.76064 0.84093 0.19996 0.0
H2730 H 0.73079 0.93621 0.24603 0.0
H2731 H 0.76062 0.93152 0.2599 0.0
H2732 H 0.75833 0.94637 0.23002 0.0
H2733 H 0.72943 0.82333 0.22499 0.0
H2734 H 0.73647 0.83383 0.256 0.0
H2735 H 0.7084 0.84369 0.24118 0.0
H2736 H 0.73673 0.87751 0.32588 0.0
H2737 H 0.66896 0.89526 0.28759 0.0
H2738 H 0.7777 0.89195 0.2766 0.0
H2739 H 0.7708 0.85945 0.2761 0.0
H2740 H 0.77506 0.87509 0.30541 0.0
H2741 H 0.69632 0.91238 0.2297 0.0
H2742 H 0.66761 0.90471 0.24501 0.0
H2743 H 0.68548 0.881 0.22968 0.0
C2744 C 0.70532 0.13611 0.27719 0.0
C2745 C 0.70458 0.12356 0.29986 0.0
C2746 C 0.72518 0.13245 0.26087 0.0
C2747 C 0.74409 0.11523 0.2672 0.0
C2748 C 0.74203 0.10083 0.28904 0.0
C2749 C 0.72249 0.10555 0.30541 0.0
C2750 C 0.72693 0.14844 0.2379 0.0
C2751 C 0.76122 0.08157 0.29587 0.0
C2752 C 0.78774 0.10311 0.21395 0.0
C2753 C 0.80682 0.11994 0.21931 0.0
C2754 C 0.76805 0.09974 0.23049 0.0
C2755 C 0.7671 0.11434 0.25228 0.0
C2756 C 0.78719 0.13023 0.25847 0.0
C2757 C 0.80712 0.13252 0.24199 0.0
C2758 C 0.74754 0.08181 0.22382 0.0
C2759 C 0.78667 0.1464 0.28138 0.0
H2760 H 0.69154 0.15023 0.27316 0.0
H2761 H 0.72173 0.09585 0.32304 0.0
H2762 H 0.74324 0.16094 0.2395 0.0
H2763 H 0.72967 0.13672 0.22121 0.0
H2764 H 0.7101 0.16002 0.23505 0.0
H2765 H 0.75455 0.06896 0.31074 0.0
H2766 H 0.76632 0.07027 0.27943 0.0
H2767 H 0.7783 0.09095 0.30259 0.0
H2768 H 0.78767 0.09339 0.19631 0.0
H2769 H 0.82182 0.14575 0.24586 0.0
H2770 H 0.73116 0.09232 0.21705 0.0
H2771 H 0.74169 0.07102 0.24034 0.0
H2772 H 0.7533 0.06866 0.20902 0.0
H2773 H 0.77139 0.16013 0.27971 0.0
H2774 H 0.80436 0.15665 0.28422 0.0
H2775 H 0.78299 0.13502 0.29811 0.0
C2776 C 0.90696 0.20547 0.78797 0.0
C2777 C 0.88208 0.20348 0.79497 0.0
C2778 C 0.91443 0.224 0.77122 0.0
C2779 C 0.89637 0.2402 0.76103 0.0
C2780 C 0.87101 0.23708 0.76704 0.0
C2781 C 0.86426 0.219 0.7843 0.0
C2782 C 0.94165 0.22711 0.76561 0.0
C2783 C 0.85102 0.25343 0.75594 0.0
C2784 C 0.90405 0.30589 0.73873 0.0
C2785 C 0.90094 0.30247 0.71318 0.0
C2786 C 0.90559 0.28532 0.75464 0.0
C2787 C 0.90347 0.26105 0.74462 0.0
C2788 C 0.90293 0.25761 0.71862 0.0
C2789 C 0.90187 0.27845 0.70317 0.0
C2790 C 0.90696 0.28962 0.7823 0.0
C2791 C 0.90053 0.2321 0.70717 0.0
H2792 H 0.92071 0.1936 0.79671 0.0
H2793 H 0.84503 0.2173 0.78989 0.0
H2794 H 0.94467 0.22974 0.74543 0.0
H2795 H 0.94867 0.244 0.77513 0.0
H2796 H 0.95276 0.21094 0.77202 0.0
H2797 H 0.83209 0.24725 0.76117 0.0
H2798 H 0.85357 0.27285 0.76238 0.0
H2799 H 0.85235 0.25347 0.73539 0.0
H2800 H 0.90366 0.3245 0.74642 0.0
H2801 H 0.89982 0.27579 0.6833 0.0
H2802 H 0.91969 0.27606 0.7912 0.0
H2803 H 0.88829 0.28694 0.79048 0.0
H2804 H 0.91334 0.30873 0.78679 0.0
H2805 H 0.91278 0.21854 0.71668 0.0
H2806 H 0.90506 0.23226 0.68707 0.0
H2807 H 0.88114 0.22551 0.70928 0.0
C2808 C 0.80127 0.42186 0.30204 0.0
C2809 C 0.81813 0.40343 0.29495 0.0
C2810 C 0.78052 0.42726 0.28729 0.0
C2811 C 0.77618 0.41306 0.26562 0.0
C2812 C 0.79417 0.39565 0.25752 0.0
C2813 C 0.81527 0.39135 0.27218 0.0
C2814 C 0.7624 0.44679 0.29588 0.0
C2815 C 0.79003 0.37987 0.23468 0.0
C2816 C 0.711 0.39497 0.2471 0.0
C2817 C 0.70882 0.4071 0.22429 0.0
C2818 C 0.73248 0.3978 0.26155 0.0
C2819 C 0.75162 0.41382 0.25322 0.0
C2820 C 0.74817 0.42812 0.23148 0.0
C2821 C 0.72695 0.42416 0.21692 0.0
C2822 C 0.73562 0.38195 0.28449 0.0
C2823 C 0.76759 0.44624 0.22265 0.0
H2824 H 0.80369 0.4312 0.31974 0.0
H2825 H 0.82827 0.3769 0.26698 0.0
H2826 H 0.75536 0.45783 0.27995 0.0
H2827 H 0.74625 0.43766 0.30473 0.0
H2828 H 0.77095 0.45959 0.30965 0.0
H2829 H 0.80649 0.36836 0.2301 0.0
H2830 H 0.77399 0.36732 0.23774 0.0
H2831 H 0.78552 0.39172 0.21845 0.0
H2832 H 0.69699 0.38159 0.25253 0.0
H2833 H 0.72505 0.43357 0.19921 0.0
H2834 H 0.74084 0.39361 0.30065 0.0
H2835 H 0.75085 0.3684 0.28153 0.0
H2836 H 0.71847 0.37151 0.28913 0.0
H2837 H 0.77542 0.45694 0.23846 0.0
H2838 H 0.75992 0.45946 0.20877 0.0
H2839 H 0.78304 0.43591 0.21388 0.0
C2840 C 0.64804 0.23875 0.7075 0.0
C2841 C 0.63838 0.21552 0.71407 0.0
C2842 C 0.6463 0.25901 0.72363 0.0
C2843 C 0.63393 0.25607 0.74654 0.0
C2844 C 0.62254 0.23309 0.75244 0.0
C2845 C 0.62528 0.21284 0.73625 0.0
C2846 C 0.65942 0.2829 0.71697 0.0
C2847 C 0.6086 0.22955 0.77642 0.0
C2848 C 0.65971 0.29299 0.80025 0.0
C2849 C 0.64371 0.31343 0.80093 0.0
C2850 C 0.65663 0.27426 0.7826 0.0
C2851 C 0.6365 0.27562 0.76573 0.0
C2852 C 0.61994 0.29606 0.76659 0.0
C2853 C 0.62403 0.3151 0.78403 0.0
C2854 C 0.67523 0.25324 0.7818 0.0
C2855 C 0.59789 0.29763 0.74932 0.0
H2856 H 0.6582 0.24079 0.69029 0.0
H2857 H 0.61758 0.19489 0.7411 0.0
H2858 H 0.64697 0.29906 0.71957 0.0
H2859 H 0.67561 0.28553 0.72951 0.0
H2860 H 0.66616 0.28289 0.69751 0.0
H2861 H 0.59728 0.2123 0.77622 0.0
H2862 H 0.62197 0.22838 0.79209 0.0
H2863 H 0.59626 0.24564 0.77999 0.0
H2864 H 0.67502 0.29185 0.81334 0.0
H2865 H 0.61155 0.33087 0.78489 0.0
H2866 H 0.68391 0.25233 0.76317 0.0
H2867 H 0.66576 0.23525 0.78501 0.0
H2868 H 0.69015 0.25537 0.79593 0.0
H2869 H 0.60422 0.2985 0.72978 0.0
H2870 H 0.58617 0.31415 0.75315 0.0
H2871 H 0.58635 0.28066 0.75118 0.0
C2872 C 0.27477 0.71125 0.13611 0.0
C2873 C 0.29736 0.71001 0.12358 0.0
C2874 C 0.25972 0.73238 0.13406 0.0
C2875 C 0.26718 0.75219 0.11842 0.0
C2876 C 0.28904 0.75001 0.10416 0.0
C2877 C 0.30418 0.72909 0.10733 0.0
C2878 C 0.23677 0.73423 0.14994 0.0
C2879 C 0.29706 0.77026 0.08655 0.0
C2880 C 0.216 0.79889 0.10758 0.0
C2881 C 0.22185 0.81694 0.12536 0.0
C2882 C 0.23171 0.77856 0.10364 0.0
C2883 C 0.25311 0.77585 0.11866 0.0
C2884 C 0.25972 0.79478 0.13577 0.0
C2885 C 0.24413 0.81543 0.13861 0.0
C2886 C 0.22463 0.75931 0.08449 0.0
C2887 C 0.28215 0.79231 0.15248 0.0
H2888 H 0.26979 0.69655 0.14893 0.0
H2889 H 0.32176 0.72798 0.09766 0.0
H2890 H 0.23892 0.74975 0.16336 0.0
H2891 H 0.22031 0.7384 0.13826 0.0
H2892 H 0.23315 0.71687 0.16048 0.0
H2893 H 0.31214 0.76398 0.07405 0.0
H2894 H 0.28115 0.77664 0.07507 0.0
H2895 H 0.30387 0.78649 0.0973 0.0
H2896 H 0.19867 0.80023 0.09736 0.0
H2897 H 0.24835 0.82933 0.15258 0.0
H2898 H 0.2175 0.74247 0.09392 0.0
H2899 H 0.24105 0.75369 0.07349 0.0
H2900 H 0.21004 0.76623 0.07161 0.0
H2901 H 0.27953 0.77633 0.16523 0.0
H2902 H 0.28543 0.80927 0.16379 0.0
H2903 H 0.29898 0.7885 0.14136 0.0
C2904 C 0.29129 0.81201 0.40241 0.0
C2905 C 0.30288 0.81226 0.37923 0.0
C2906 C 0.27461 0.79291 0.40852 0.0
C2907 C 0.26893 0.77444 0.39061 0.0
C2908 C 0.28025 0.77516 0.36696 0.0
C2909 C 0.29746 0.79382 0.36177 0.0
C2910 C 0.26346 0.79216 0.43416 0.0
C2911 C 0.27405 0.75639 0.34698 0.0
C2912 C 0.24116 0.71082 0.40074 0.0
C2913 C 0.21669 0.71506 0.39317 0.0
C2914 C 0.25804 0.73064 0.4025 0.0
C2915 C 0.25029 0.75488 0.39569 0.0
C2916 C 0.22517 0.75936 0.38957 0.0
C2917 C 0.2086 0.73942 0.38877 0.0
C2918 C 0.28453 0.72537 0.40996 0.0
C2919 C 0.21626 0.78472 0.38143 0.0
H2920 H 0.29595 0.82617 0.41597 0.0
H2921 H 0.30654 0.79417 0.34384 0.0
H2922 H 0.24295 0.79318 0.43294 0.0
H2923 H 0.26815 0.77427 0.44326 0.0
H2924 H 0.27019 0.80763 0.44608 0.0
H2925 H 0.28387 0.76022 0.3293 0.0
H2926 H 0.27915 0.73745 0.35329 0.0
H2927 H 0.25379 0.75641 0.34325 0.0
H2928 H 0.24732 0.692 0.4044 0.0
H2929 H 0.18961 0.74276 0.38297 0.0
H2930 H 0.29164 0.74008 0.42256 0.0
H2931 H 0.2964 0.72525 0.3932 0.0
H2932 H 0.28637 0.70707 0.41933 0.0
H2933 H 0.22284 0.79932 0.39438 0.0
H2934 H 0.1957 0.78572 0.38021 0.0
H2935 H 0.22398 0.78901 0.36285 0.0
C2936 C 0.21402 0.77816 0.88841 0.0
C2937 C 0.21243 0.80109 0.90042 0.0
C2938 C 0.23493 0.76306 0.89171 0.0
C2939 C 0.25405 0.77083 0.90814 0.0
C2940 C 0.25118 0.79282 0.9222 0.0
C2941 C 0.23059 0.80805 0.91772 0.0
C2942 C 0.23751 0.73995 0.876 0.0
C2943 C 0.27056 0.80107 0.94075 0.0
C2944 C 0.30167 0.72042 0.91805 0.0
C2945 C 0.31946 0.72702 0.90039 0.0
C2946 C 0.28121 0.73578 0.92254 0.0
C2947 C 0.27808 0.75751 0.90813 0.0
C2948 C 0.29686 0.76496 0.89134 0.0
C2949 C 0.31767 0.74975 0.88803 0.0
C2950 C 0.2622 0.72789 0.94146 0.0
C2951 C 0.29398 0.78778 0.87526 0.0
H2952 H 0.19999 0.77305 0.87485 0.0
H2953 H 0.22914 0.82586 0.92704 0.0
H2954 H 0.25321 0.7423 0.86293 0.0
H2955 H 0.24176 0.72364 0.88784 0.0
H2956 H 0.22046 0.73592 0.86507 0.0
H2957 H 0.26325 0.81545 0.95358 0.0
H2958 H 0.27737 0.78507 0.95183 0.0
H2959 H 0.28667 0.80904 0.93078 0.0
H2960 H 0.30327 0.70276 0.92762 0.0
H2961 H 0.3314 0.75458 0.87418 0.0
H2962 H 0.24592 0.71969 0.93183 0.0
H2963 H 0.25558 0.7441 0.9523 0.0
H2964 H 0.26979 0.71378 0.95449 0.0
H2965 H 0.27806 0.78517 0.86237 0.0
H2966 H 0.31083 0.79162 0.8641 0.0
H2967 H 0.28993 0.8043 0.88684 0.0
C2968 C 0.20899 0.74792 0.63519 0.0
C2969 C 0.20777 0.72536 0.6224 0.0
C2970 C 0.23 0.76312 0.63321 0.0
C2971 C 0.2497 0.75578 0.61747 0.0
C2972 C 0.24746 0.73406 0.60287 0.0
C2973 C 0.22663 0.71882 0.60587 0.0
C2974 C 0.23192 0.78597 0.64939 0.0
C2975 C 0.26765 0.72615 0.58522 0.0
C2976 C 0.29739 0.80613 0.60704 0.0
C2977 C 0.3154 0.7998 0.62473 0.0
C2978 C 0.27659 0.79101 0.60321 0.0
C2979 C 0.27344 0.76964 0.61813 0.0
C2980 C 0.29223 0.76259 0.63523 0.0
C2981 C 0.31328 0.77765 0.63805 0.0
C2982 C 0.25741 0.79859 0.58416 0.0
C2983 C 0.28932 0.74014 0.65178 0.0
H2984 H 0.19447 0.75269 0.64822 0.0
H2985 H 0.22554 0.70127 0.59601 0.0
H2986 H 0.24709 0.78344 0.66316 0.0
H2987 H 0.23661 0.80247 0.63803 0.0
H2988 H 0.21444 0.78979 0.65956 0.0
H2989 H 0.26132 0.71119 0.57246 0.0
H2990 H 0.2741 0.74217 0.57401 0.0
H2991 H 0.2838 0.71916 0.59595 0.0
H2992 H 0.2992 0.82334 0.59674 0.0
H2993 H 0.32716 0.77304 0.65193 0.0
H2994 H 0.24064 0.80566 0.5937 0.0
H2995 H 0.25167 0.78237 0.57279 0.0
H2996 H 0.2644 0.81338 0.57162 0.0
H2997 H 0.27326 0.7429 0.66431 0.0
H2998 H 0.30609 0.73664 0.66332 0.0
H2999 H 0.28546 0.72335 0.64047 0.0
C3000 C 0.85243 0.80517 0.23679 0.0
C3001 C 0.86699 0.80201 0.21544 0.0
C3002 C 0.85293 0.78771 0.25637 0.0
C3003 C 0.86892 0.7668 0.25508 0.0
C3004 C 0.88424 0.76396 0.2339 0.0
C3005 C 0.88279 0.7813 0.21425 0.0
C3006 C 0.83574 0.79129 0.27813 0.0
C3007 C 0.90208 0.74246 0.2319 0.0
C3008 C 0.88358 0.73364 0.31655 0.0
C3009 C 0.86828 0.71253 0.31533 0.0
C3010 C 0.88452 0.75097 0.29688 0.0
C3011 C 0.86921 0.7477 0.27563 0.0
C3012 C 0.85376 0.72636 0.27429 0.0
C3013 C 0.85375 0.70894 0.29391 0.0
C3014 C 0.90178 0.77295 0.29896 0.0
C3015 C 0.83663 0.72228 0.25243 0.0
H3016 H 0.83986 0.82085 0.23779 0.0
H3017 H 0.8941 0.77863 0.19787 0.0
H3018 H 0.82318 0.77504 0.27976 0.0
H3019 H 0.84659 0.79243 0.29563 0.0
H3020 H 0.82429 0.80835 0.27633 0.0
H3021 H 0.91389 0.74373 0.2151 0.0
H3022 H 0.91425 0.74179 0.24855 0.0
H3023 H 0.89164 0.72472 0.23121 0.0
H3024 H 0.8949 0.73662 0.33297 0.0
H3025 H 0.8416 0.69293 0.29286 0.0
H3026 H 0.89088 0.79041 0.2996 0.0
H3027 H 0.91387 0.77395 0.28237 0.0
H3028 H 0.91369 0.77201 0.31582 0.0
H3029 H 0.82357 0.73814 0.25076 0.0
H3030 H 0.82571 0.70486 0.25414 0.0
H3031 H 0.84745 0.7215 0.23498 0.0
C3032 C 0.31161 0.35851 0.78757 0.0
C3033 C 0.30833 0.37343 0.80872 0.0
C3034 C 0.29395 0.35817 0.76806 0.0
C3035 C 0.27268 0.37371 0.76915 0.0
C3036 C 0.26971 0.38939 0.79014 0.0
C3037 C 0.28724 0.38875 0.80974 0.0
C3038 C 0.29772 0.3406 0.74657 0.0
C3039 C 0.24789 0.40684 0.79197 0.0
C3040 C 0.2388 0.38697 0.70753 0.0
C3041 C 0.21783 0.37153 0.709 0.0
C3042 C 0.25631 0.38837 0.72711 0.0
C3043 C 0.25345 0.37332 0.74856 0.0
C3044 C 0.2323 0.35765 0.75011 0.0
C3045 C 0.21465 0.35724 0.73059 0.0
C3046 C 0.27799 0.40594 0.72477 0.0
C3047 C 0.22864 0.34072 0.77213 0.0
H3048 H 0.32757 0.34631 0.78668 0.0
H3049 H 0.28445 0.40035 0.82594 0.0
H3050 H 0.28171 0.32771 0.74512 0.0
H3051 H 0.2986 0.35114 0.72891 0.0
H3052 H 0.31497 0.32947 0.74854 0.0
H3053 H 0.24901 0.41898 0.80862 0.0
H3054 H 0.24685 0.41873 0.77517 0.0
H3055 H 0.2304 0.39603 0.79283 0.0
H3056 H 0.24151 0.3981 0.69099 0.0
H3057 H 0.19877 0.34495 0.73184 0.0
H3058 H 0.29557 0.39526 0.72426 0.0
H3059 H 0.2789 0.41835 0.74121 0.0
H3060 H 0.27679 0.41755 0.70777 0.0
H3061 H 0.24474 0.32798 0.77394 0.0
H3062 H 0.21147 0.32942 0.7705 0.0
H3063 H 0.22771 0.35178 0.78946 0.0
C3064 C 0.6786 0.73495 0.23375 0.0
C3065 C 0.66132 0.71869 0.22271 0.0
C3066 C 0.67204 0.75111 0.25322 0.0
C3067 C 0.64739 0.75138 0.26222 0.0
C3068 C 0.62955 0.73563 0.25067 0.0
C3069 C 0.63669 0.71949 0.23111 0.0
C3070 C 0.69184 0.76743 0.26465 0.0
C3071 C 0.60301 0.73543 0.25938 0.0
C3072 C 0.64203 0.77304 0.32973 0.0
C3073 C 0.63656 0.79849 0.32728 0.0
C3074 C 0.64444 0.75738 0.30887 0.0
C3075 C 0.64106 0.76709 0.28461 0.0
C3076 C 0.63425 0.79247 0.28202 0.0
C3077 C 0.63221 0.80783 0.30328 0.0
C3078 C 0.65205 0.73068 0.31281 0.0
C3079 C 0.6303 0.80376 0.25669 0.0
H3080 H 0.69766 0.73486 0.22742 0.0
H3081 H 0.62312 0.70714 0.22279 0.0
H3082 H 0.68598 0.78718 0.26411 0.0
H3083 H 0.69455 0.76235 0.28445 0.0
H3084 H 0.70993 0.76575 0.255 0.0
H3085 H 0.59094 0.72371 0.2474 0.0
H3086 H 0.60218 0.72824 0.27866 0.0
H3087 H 0.59551 0.75463 0.25965 0.0
H3088 H 0.64555 0.76543 0.34804 0.0
H3089 H 0.62807 0.8274 0.30096 0.0
H3090 H 0.67107 0.72782 0.30556 0.0
H3091 H 0.63952 0.71803 0.30241 0.0
H3092 H 0.65187 0.72533 0.33273 0.0
H3093 H 0.64842 0.80562 0.24717 0.0
H3094 H 0.62161 0.82244 0.25778 0.0
H3095 H 0.61843 0.79154 0.24505 0.0
C3096 C 0.31071 0.14166 0.73515 0.0
C3097 C 0.30232 0.14106 0.71041 0.0
C3098 C 0.2939 0.14341 0.75521 0.0
C3099 C 0.26798 0.14487 0.7506 0.0
C3100 C 0.25942 0.14328 0.72572 0.0
C3101 C 0.27655 0.1413 0.7061 0.0
C3102 C 0.30401 0.14488 0.78133 0.0
C3103 C 0.23212 0.14509 0.71963 0.0
C3104 C 0.21942 0.13893 0.80279 0.0
C3105 C 0.21424 0.16396 0.80811 0.0
C3106 C 0.23721 0.13231 0.78459 0.0
C3107 C 0.25007 0.15109 0.77121 0.0
C3108 C 0.24505 0.17629 0.77681 0.0
C3109 C 0.22747 0.18233 0.79507 0.0
C3110 C 0.24206 0.10522 0.77945 0.0
C3111 C 0.25794 0.19709 0.76311 0.0
H3112 H 0.33047 0.14154 0.73887 0.0
H3113 H 0.26965 0.14094 0.68718 0.0
H3114 H 0.30136 0.16395 0.78868 0.0
H3115 H 0.29378 0.132 0.79369 0.0
H3116 H 0.32409 0.14032 0.7822 0.0
H3117 H 0.22819 0.14111 0.69976 0.0
H3118 H 0.22133 0.13196 0.73121 0.0
H3119 H 0.2254 0.1641 0.7239 0.0
H3120 H 0.20948 0.12454 0.8127 0.0
H3121 H 0.2239 0.20177 0.79888 0.0
H3122 H 0.26218 0.10121 0.78127 0.0
H3123 H 0.2366 0.10073 0.76008 0.0
H3124 H 0.23169 0.09284 0.79223 0.0
H3125 H 0.27834 0.19525 0.76513 0.0
H3126 H 0.25237 0.21574 0.76995 0.0
H3127 H 0.25356 0.19594 0.74299 0.0
C3128 C 0.20578 0.87321 0.77546 0.0
C3129 C 0.21009 0.87617 0.80108 0.0
C3130 C 0.22541 0.87266 0.75824 0.0
C3131 C 0.25025 0.87548 0.76653 0.0
C3132 C 0.25468 0.87968 0.79222 0.0
C3133 C 0.23466 0.87976 0.80916 0.0
C3134 C 0.21957 0.86763 0.73126 0.0
C3135 C 0.28072 0.88306 0.802 0.0
C3136 C 0.29931 0.84179 0.72822 0.0
C3137 C 0.30908 0.86065 0.71298 0.0
C3138 C 0.28072 0.84655 0.74582 0.0
C3139 C 0.27144 0.87096 0.74883 0.0
C3140 C 0.28164 0.89035 0.73407 0.0
C3141 C 0.30024 0.88497 0.71628 0.0
C3142 C 0.27054 0.82513 0.76079 0.0
C3143 C 0.27258 0.9167 0.73682 0.0
H3144 H 0.187 0.87025 0.76883 0.0
H3145 H 0.23835 0.88209 0.82881 0.0
H3146 H 0.22878 0.88156 0.71925 0.0
H3147 H 0.22688 0.8491 0.726 0.0
H3148 H 0.19932 0.86796 0.72737 0.0
H3149 H 0.28095 0.88937 0.82164 0.0
H3150 H 0.29088 0.86518 0.80081 0.0
H3151 H 0.29092 0.89676 0.79053 0.0
H3152 H 0.30594 0.8229 0.72618 0.0
H3153 H 0.30762 0.89973 0.70479 0.0
H3154 H 0.25048 0.82276 0.75674 0.0
H3155 H 0.2724 0.82906 0.78092 0.0
H3156 H 0.28013 0.80733 0.75672 0.0
H3157 H 0.25284 0.91786 0.73103 0.0
H3158 H 0.28352 0.92996 0.72546 0.0
H3159 H 0.27359 0.92249 0.75657 0.0
C3160 C 0.14097 0.79142 0.20992 0.0
C3161 C 0.14415 0.8157 0.21903 0.0
C3162 C 0.14144 0.77061 0.226 0.0
C3163 C 0.14562 0.77395 0.25185 0.0
C3164 C 0.14801 0.79847 0.26119 0.0
C3165 C 0.14706 0.81888 0.24482 0.0
C3166 C 0.13845 0.74494 0.21515 0.0
C3167 C 0.15299 0.80316 0.2884 0.0
C3168 C 0.13704 0.72217 0.30062 0.0
C3169 C 0.1615 0.71377 0.30389 0.0
C3170 C 0.13132 0.74109 0.28315 0.0
C3171 C 0.15047 0.75204 0.26872 0.0
C3172 C 0.175 0.74304 0.27154 0.0
C3173 C 0.18011 0.72412 0.28882 0.0
C3174 C 0.10485 0.74978 0.28055 0.0
C3175 C 0.19618 0.75401 0.25688 0.0
H3176 H 0.1387 0.78859 0.19012 0.0
H3177 H 0.14967 0.83742 0.25225 0.0
H3178 H 0.15649 0.73506 0.21581 0.0
H3179 H 0.12507 0.73394 0.22623 0.0
H3180 H 0.13196 0.74551 0.19555 0.0
H3181 H 0.15253 0.82325 0.29311 0.0
H3182 H 0.13914 0.79333 0.29996 0.0
H3183 H 0.17154 0.79573 0.29345 0.0
H3184 H 0.12248 0.71437 0.31202 0.0
H3185 H 0.19909 0.71778 0.29083 0.0
H3186 H 0.0992 0.74975 0.26072 0.0
H3187 H 0.10327 0.76917 0.28734 0.0
H3188 H 0.09177 0.73796 0.29119 0.0
H3189 H 0.19213 0.75297 0.23671 0.0
H3190 H 0.21405 0.74438 0.26054 0.0
H3191 H 0.19842 0.77394 0.2617 0.0
C3192 C 0.2265 0.64299 0.71702 0.0
C3193 C 0.21882 0.66743 0.71201 0.0
C3194 C 0.24521 0.63798 0.73496 0.0
C3195 C 0.25668 0.65783 0.74817 0.0
C3196 C 0.24863 0.68242 0.7434 0.0
C3197 C 0.22993 0.68684 0.72564 0.0
C3198 C 0.25298 0.61147 0.73955 0.0
C3199 C 0.26017 0.70431 0.7567 0.0
C3200 C 0.29396 0.651 0.80883 0.0
C3201 C 0.31856 0.6528 0.80046 0.0
C3202 C 0.27369 0.65118 0.79201 0.0
C3203 C 0.27792 0.65348 0.76608 0.0
C3204 C 0.30274 0.65441 0.75754 0.0
C3205 C 0.32259 0.65395 0.77468 0.0
C3206 C 0.24766 0.64994 0.80209 0.0
C3207 C 0.30839 0.65723 0.73025 0.0
H3208 H 0.21809 0.62782 0.70678 0.0
H3209 H 0.22423 0.70585 0.72226 0.0
H3210 H 0.27261 0.60894 0.73398 0.0
H3211 H 0.2518 0.60712 0.75964 0.0
H3212 H 0.24134 0.59801 0.72907 0.0
H3213 H 0.25142 0.72224 0.75141 0.0
H3214 H 0.25849 0.70195 0.77708 0.0
H3215 H 0.28025 0.70533 0.75237 0.0
H3216 H 0.29045 0.6501 0.8286 0.0
H3217 H 0.34139 0.65543 0.76779 0.0
H3218 H 0.23657 0.636 0.7917 0.0
H3219 H 0.23845 0.66821 0.79961 0.0
H3220 H 0.24739 0.64513 0.82214 0.0
H3221 H 0.29824 0.64303 0.71927 0.0
H3222 H 0.32853 0.65551 0.72631 0.0
H3223 H 0.30202 0.67573 0.72375 0.0
C3224 C 0.38232 0.82146 0.26957 0.0
C3225 C 0.38435 0.81814 0.2954 0.0
C3226 C 0.3806 0.80111 0.25319 0.0
C3227 C 0.38118 0.77654 0.26262 0.0
C3228 C 0.38485 0.773 0.28851 0.0
C3229 C 0.38625 0.79376 0.30457 0.0
C3230 C 0.37645 0.80602 0.22588 0.0
C3231 C 0.38588 0.74723 0.29947 0.0
C3232 C 0.34281 0.72938 0.22608 0.0
C3233 C 0.36059 0.71716 0.21142 0.0
C3234 C 0.3494 0.74813 0.24304 0.0
C3235 C 0.3746 0.75504 0.24589 0.0
C3236 C 0.39285 0.74235 0.23173 0.0
C3237 C 0.38564 0.72365 0.21461 0.0
C3238 C 0.32916 0.76103 0.25746 0.0
C3239 C 0.41993 0.74886 0.23436 0.0
H3240 H 0.38085 0.84009 0.26209 0.0
H3241 H 0.3878 0.79082 0.32442 0.0
H3242 H 0.38934 0.79474 0.21453 0.0
H3243 H 0.35728 0.80049 0.22069 0.0
H3244 H 0.37901 0.82593 0.22107 0.0
H3245 H 0.39263 0.7474 0.31899 0.0
H3246 H 0.36706 0.73889 0.29911 0.0
H3247 H 0.39816 0.73508 0.28831 0.0
H3248 H 0.32338 0.72458 0.22407 0.0
H3249 H 0.39958 0.71435 0.20354 0.0
H3250 H 0.32875 0.78106 0.25257 0.0
H3251 H 0.33294 0.75973 0.27767 0.0
H3252 H 0.31053 0.75302 0.25369 0.0
H3253 H 0.42311 0.76808 0.22765 0.0
H3254 H 0.43202 0.73604 0.22369 0.0
H3255 H 0.42554 0.74832 0.25419 0.0
C3256 C 0.78649 0.2149 0.90485 0.0
C3257 C 0.80637 0.21474 0.88811 0.0
C3258 C 0.77039 0.23554 0.90668 0.0
C3259 C 0.77345 0.25621 0.89059 0.0
C3260 C 0.79374 0.25619 0.87384 0.0
C3261 C 0.81015 0.23573 0.87314 0.0
C3262 C 0.74975 0.23497 0.92549 0.0
C3263 C 0.79745 0.27726 0.85574 0.0
C3264 C 0.71643 0.29605 0.87473 0.0
C3265 C 0.72141 0.31829 0.88744 0.0
C3266 C 0.73307 0.27579 0.87567 0.0
C3267 C 0.75493 0.27729 0.89042 0.0
C3268 C 0.75941 0.29934 0.90421 0.0
C3269 C 0.74295 0.31969 0.90211 0.0
C3270 C 0.72776 0.25316 0.85995 0.0
C3271 C 0.78183 0.30161 0.92091 0.0
H3272 H 0.78338 0.1987 0.9164 0.0
H3273 H 0.82514 0.23554 0.85979 0.0
H3274 H 0.7495 0.25251 0.93632 0.0
H3275 H 0.73162 0.23339 0.91582 0.0
H3276 H 0.75163 0.21911 0.93857 0.0
H3277 H 0.81414 0.2746 0.84401 0.0
H3278 H 0.78096 0.27886 0.84344 0.0
H3279 H 0.79931 0.29511 0.86585 0.0
H3280 H 0.70012 0.29493 0.86294 0.0
H3281 H 0.74702 0.33683 0.9119 0.0
H3282 H 0.72658 0.23639 0.87184 0.0
H3283 H 0.74318 0.25014 0.84671 0.0
H3284 H 0.71018 0.25494 0.84925 0.0
H3285 H 0.78308 0.28529 0.93343 0.0
H3286 H 0.78134 0.31877 0.93236 0.0
H3287 H 0.79893 0.30189 0.90955 0.0
C3288 C 0.71624 0.22206 0.63819 0.0
C3289 C 0.7254 0.19819 0.64357 0.0
C3290 C 0.73203 0.24311 0.63813 0.0
C3291 C 0.75767 0.24045 0.64378 0.0
C3292 C 0.76716 0.21623 0.64798 0.0
C3293 C 0.75106 0.19557 0.64773 0.0
C3294 C 0.72096 0.2684 0.63335 0.0
C3295 C 0.79417 0.21222 0.65431 0.0
C3296 C 0.80617 0.2926 0.63542 0.0
C3297 C 0.80833 0.30189 0.65972 0.0
C3298 C 0.78916 0.27327 0.62961 0.0
C3299 C 0.77397 0.26286 0.6485 0.0
C3300 C 0.77556 0.27287 0.67277 0.0
C3301 C 0.79249 0.2921 0.67799 0.0
C3302 C 0.78794 0.26348 0.60341 0.0
C3303 C 0.75996 0.26264 0.69366 0.0
H3304 H 0.69653 0.2245 0.63503 0.0
H3305 H 0.75855 0.17736 0.6519 0.0
H3306 H 0.71994 0.27886 0.65107 0.0
H3307 H 0.73283 0.27923 0.62052 0.0
H3308 H 0.70198 0.26712 0.62536 0.0
H3309 H 0.79921 0.19221 0.65473 0.0
H3310 H 0.80619 0.2218 0.64066 0.0
H3311 H 0.79824 0.22034 0.67283 0.0
H3312 H 0.81819 0.29993 0.62111 0.0
H3313 H 0.79361 0.29915 0.69681 0.0
H3314 H 0.76841 0.2629 0.59685 0.0
H3315 H 0.79512 0.24418 0.60293 0.0
H3316 H 0.79897 0.27498 0.59036 0.0
H3317 H 0.74003 0.26313 0.68849 0.0
H3318 H 0.7625 0.27316 0.71123 0.0
H3319 H 0.76494 0.24293 0.69708 0.0
C3320 C 0.80337 0.23673 0.12363 0.0
C3321 C 0.80199 0.21575 0.13908 0.0
C3322 C 0.78443 0.25489 0.12336 0.0
C3323 C 0.76384 0.25264 0.13955 0.0
C3324 C 0.76235 0.23143 0.15515 0.0
C3325 C 0.78116 0.21315 0.15445 0.0
C3326 C 0.78659 0.27666 0.10585 0.0
C3327 C 0.74124 0.2284 0.17323 0.0
C3328 C 0.72847 0.31185 0.15779 0.0
C3329 C 0.70622 0.30952 0.14432 0.0
C3330 C 0.74725 0.29358 0.15644 0.0
C3331 C 0.74421 0.27267 0.14063 0.0
C3332 C 0.72213 0.27071 0.12631 0.0
C3333 C 0.70331 0.28884 0.12864 0.0
C3334 C 0.77003 0.29628 0.17261 0.0
C3335 C 0.71825 0.24929 0.10864 0.0
H3336 H 0.81934 0.23897 0.11168 0.0
H3337 H 0.78002 0.19725 0.16675 0.0
H3338 H 0.76941 0.27844 0.09457 0.0
H3339 H 0.78873 0.2941 0.1166 0.0
H3340 H 0.80266 0.27481 0.09313 0.0
H3341 H 0.74275 0.21098 0.18419 0.0
H3342 H 0.74093 0.24438 0.18625 0.0
H3343 H 0.72327 0.22833 0.16315 0.0
H3344 H 0.73081 0.32752 0.17024 0.0
H3345 H 0.68624 0.28683 0.11813 0.0
H3346 H 0.78694 0.29655 0.16096 0.0
H3347 H 0.7716 0.28005 0.18523 0.0
H3348 H 0.76963 0.31349 0.18399 0.0
H3349 H 0.73423 0.24778 0.09581 0.0
H3350 H 0.70099 0.25133 0.09749 0.0
H3351 H 0.71721 0.23162 0.11918 0.0
C3352 C 0.71232 0.23862 0.39619 0.0
C3353 C 0.71289 0.21717 0.38134 0.0
C3354 C 0.7323 0.25561 0.39655 0.0
C3355 C 0.75315 0.25164 0.38104 0.0
C3356 C 0.75385 0.22991 0.36611 0.0
C3357 C 0.73397 0.21284 0.36672 0.0
C3358 C 0.73093 0.27802 0.41332 0.0
C3359 C 0.77525 0.2251 0.34877 0.0
C3360 C 0.79189 0.30819 0.36173 0.0
C3361 C 0.81362 0.30527 0.37592 0.0
C3362 C 0.77221 0.29095 0.36319 0.0
C3363 C 0.7738 0.27053 0.3798 0.0
C3364 C 0.79538 0.26797 0.39477 0.0
C3365 C 0.81512 0.28507 0.39236 0.0
C3366 C 0.74997 0.2942 0.34637 0.0
C3367 C 0.79772 0.24702 0.41324 0.0
H3368 H 0.69615 0.24218 0.40754 0.0
H3369 H 0.73449 0.19656 0.35489 0.0
H3370 H 0.74792 0.27927 0.42495 0.0
H3371 H 0.72997 0.29519 0.40198 0.0
H3372 H 0.7145 0.27746 0.42569 0.0
H3373 H 0.77313 0.20736 0.33843 0.0
H3374 H 0.77671 0.24052 0.33517 0.0
H3375 H 0.79293 0.22454 0.35934 0.0
H3376 H 0.79062 0.32351 0.34873 0.0
H3377 H 0.83177 0.28264 0.40344 0.0
H3378 H 0.73283 0.29581 0.35756 0.0
H3379 H 0.74783 0.27761 0.33431 0.0
H3380 H 0.75156 0.31091 0.33438 0.0
H3381 H 0.7814 0.24684 0.42574 0.0
H3382 H 0.81482 0.24855 0.42472 0.0
H3383 H 0.79802 0.22896 0.40334 0.0
loop_
_geom_bond_atom_site_label_1
_geom_bond_atom_site_label_2
_geom_bond_distance
_geom_bond_site_symmetry_2
_ccdc_geom_bond_type
O0 Tb1 2.292 . S
O0 C3 1.255 . S
Tb1 O0 2.292 . S
Tb1 O17 2.326 . S
Tb1 O19 2.500 . S
Tb1 O20 2.473 . S
Tb1 O23 2.324 . S
Eu2 O6 2.292 . S
Eu2 C7 2.852 . S
Eu2 O18 2.324 . S
Eu2 O22 2.326 . S
Eu2 O24 2.500 . S
Eu2 O25 2.473 . S
C3 O0 1.255 . S
C3 O4 1.247 . S
O4 C3 1.247 . S
C5 O17 1.242 . S
C5 O18 1.258 . S
O6 Eu2 2.292 . S
O6 C8 1.255 . S
C7 Eu2 2.852 . S
C7 C11 1.503 . S
C7 O24 1.273 . S
C7 O25 1.257 . S
C8 O6 1.255 . S
C8 O9 1.247 . S
O9 C8 1.247 . S
C10 O22 1.242 . S
C10 O23 1.258 . S
C11 C7 1.503 . S
C11 C12 1.379 . S
C11 C16 1.392 . S
C12 C11 1.379 . S
C12 C13 1.404 . S
C12 H26 0.929 . S
C13 C12 1.404 . S
C13 C14 1.389 . S
C14 C13 1.389 . S
C14 C15 1.399 . S
C14 H27 0.931 . S
C15 C14 1.399 . S
C15 C16 1.390 . S
C16 C11 1.392 . S
C16 C15 1.390 . S
C16 H28 0.929 . S
O17 Tb1 2.326 . S
O17 C5 1.242 . S
O18 Eu2 2.324 . S
O18 C5 1.258 . S
O19 Tb1 2.500 . S
O19 C21 1.273 . S
O20 Tb1 2.473 . S
O20 C21 1.257 . S
C21 O19 1.273 . S
C21 O20 1.257 . S
O22 Eu2 2.326 . S
O22 C10 1.242 . S
O23 Tb1 2.324 . S
O23 C10 1.258 . S
O24 Eu2 2.500 . S
O24 C7 1.273 . S
O25 Eu2 2.473 . S
O25 C7 1.257 . S
H26 C12 0.929 . S
H27 C14 0.931 . S
H28 C16 0.929 . S
O29 Tb30 2.292 . S
O29 C32 1.255 . S
Tb30 O29 2.292 . S
Tb30 O46 2.326 . S
Tb30 O48 2.500 . S
Tb30 O49 2.473 . S
Tb30 O52 2.324 . S
Eu31 O35 2.292 . S
Eu31 C36 2.852 . S
Eu31 O47 2.324 . S
Eu31 O51 2.326 . S
Eu31 O53 2.500 . S
Eu31 O54 2.473 . S
C32 O29 1.255 . S
C32 O33 1.247 . S
O33 C32 1.247 . S
C34 O46 1.242 . S
C34 O47 1.258 . S
O35 Eu31 2.292 . S
O35 C37 1.255 . S
C36 Eu31 2.852 . S
C36 C40 1.503 . S
C36 O53 1.273 . S
C36 O54 1.257 . S
C37 O35 1.255 . S
C37 O38 1.247 . S
O38 C37 1.247 . S
C39 O51 1.242 . S
C39 O52 1.258 . S
C40 C36 1.503 . S
C40 C41 1.379 . S
C40 C45 1.392 . S
C41 C40 1.379 . S
C41 C42 1.404 . S
C41 H55 0.929 . S
C42 C41 1.404 . S
C42 C43 1.389 . S
C43 C42 1.389 . S
C43 C44 1.399 . S
C43 H56 0.931 . S
C44 C43 1.399 . S
C44 C45 1.390 . S
C45 C40 1.392 . S
C45 C44 1.390 . S
C45 H57 0.929 . S
O46 Tb30 2.326 . S
O46 C34 1.242 . S
O47 Eu31 2.324 . S
O47 C34 1.258 . S
O48 Tb30 2.500 . S
O48 C50 1.273 . S
O49 Tb30 2.473 . S
O49 C50 1.257 . S
C50 O48 1.273 . S
C50 O49 1.257 . S
O51 Eu31 2.326 . S
O51 C39 1.242 . S
O52 Tb30 2.324 . S
O52 C39 1.258 . S
O53 Eu31 2.500 . S
O53 C36 1.273 . S
O54 Eu31 2.473 . S
O54 C36 1.257 . S
H55 C41 0.929 . S
H56 C43 0.931 . S
H57 C45 0.929 . S
O58 Tb59 2.292 . S
O58 C61 1.255 . S
Tb59 O58 2.292 . S
Tb59 O75 2.326 . S
Tb59 O77 2.500 . S
Tb59 O78 2.473 . S
Tb59 O81 2.324 . S
Eu60 O64 2.292 . S
Eu60 C65 2.852 . S
Eu60 O76 2.324 . S
Eu60 O80 2.326 . S
Eu60 O82 2.500 . S
Eu60 O83 2.473 . S
C61 O58 1.255 . S
C61 O62 1.247 . S
O62 C61 1.247 . S
C63 O75 1.242 . S
C63 O76 1.258 . S
O64 Eu60 2.292 . S
O64 C66 1.255 . S
C65 Eu60 2.852 . S
C65 C69 1.503 . S
C65 O82 1.273 . S
C65 O83 1.257 . S
C66 O64 1.255 . S
C66 O67 1.247 . S
O67 C66 1.247 . S
C68 O80 1.242 . S
C68 O81 1.258 . S
C69 C65 1.503 . S
C69 C70 1.379 . S
C69 C74 1.392 . S
C70 C69 1.379 . S
C70 C71 1.404 . S
C70 H84 0.929 . S
C71 C70 1.404 . S
C71 C72 1.389 . S
C72 C71 1.389 . S
C72 C73 1.399 . S
C72 H85 0.931 . S
C73 C72 1.399 . S
C73 C74 1.390 . S
C74 C69 1.392 . S
C74 C73 1.390 . S
C74 H86 0.929 . S
O75 Tb59 2.326 . S
O75 C63 1.242 . S
O76 Eu60 2.324 . S
O76 C63 1.258 . S
O77 Tb59 2.500 . S
O77 C79 1.273 . S
O78 Tb59 2.473 . S
O78 C79 1.257 . S
C79 O77 1.273 . S
C79 O78 1.257 . S
O80 Eu60 2.326 . S
O80 C68 1.242 . S
O81 Tb59 2.324 . S
O81 C68 1.258 . S
O82 Eu60 2.500 . S
O82 C65 1.273 . S
O83 Eu60 2.473 . S
O83 C65 1.257 . S
H84 C70 0.929 . S
H85 C72 0.931 . S
H86 C74 0.929 . S
O87 Tb88 2.292 . S
O87 C90 1.255 . S
Tb88 O87 2.292 . S
Tb88 O104 2.326 . S
Tb88 O106 2.500 . S
Tb88 O107 2.473 . S
Tb88 O110 2.324 . S
Eu89 O93 2.292 . S
Eu89 C94 2.852 . S
Eu89 O105 2.324 . S
Eu89 O109 2.326 . S
Eu89 O111 2.500 . S
Eu89 O112 2.473 . S
C90 O87 1.255 . S
C90 O91 1.247 . S
O91 C90 1.247 . S
C92 O104 1.242 . S
C92 O105 1.258 . S
O93 Eu89 2.292 . S
O93 C95 1.255 . S
C94 Eu89 2.852 . S
C94 C98 1.503 . S
C94 O111 1.273 . S
C94 O112 1.257 . S
C95 O93 1.255 . S
C95 O96 1.247 . S
O96 C95 1.247 . S
C97 O109 1.242 . S
C97 O110 1.258 . S
C98 C94 1.503 . S
C98 C99 1.379 . S
C98 C103 1.392 . S
C99 C98 1.379 . S
C99 C100 1.404 . S
C99 H113 0.929 . S
C100 C99 1.404 . S
C100 C101 1.389 . S
C101 C100 1.389 . S
C101 C102 1.399 . S
C101 H114 0.931 . S
C102 C101 1.399 . S
C102 C103 1.390 . S
C103 C98 1.392 . S
C103 C102 1.390 . S
C103 H115 0.929 . S
O104 Tb88 2.326 . S
O104 C92 1.242 . S
O105 Eu89 2.324 . S
O105 C92 1.258 . S
O106 Tb88 2.500 . S
O106 C108 1.273 . S
O107 Tb88 2.473 . S
O107 C108 1.257 . S
C108 O106 1.273 . S
C108 O107 1.257 . S
O109 Eu89 2.326 . S
O109 C97 1.242 . S
O110 Tb88 2.324 . S
O110 C97 1.258 . S
O111 Eu89 2.500 . S
O111 C94 1.273 . S
O112 Eu89 2.473 . S
O112 C94 1.257 . S
H113 C99 0.929 . S
H114 C101 0.931 . S
H115 C103 0.929 . S
O116 Tb117 2.292 . S
O116 C119 1.255 . S
Tb117 O116 2.292 . S
Tb117 O133 2.326 . S
Tb117 O135 2.500 . S
Tb117 O136 2.473 . S
Tb117 O139 2.324 . S
Eu118 O122 2.292 . S
Eu118 C123 2.852 . S
Eu118 O134 2.324 . S
Eu118 O138 2.326 . S
Eu118 O140 2.500 . S
Eu118 O141 2.473 . S
C119 O116 1.255 . S
C119 O120 1.247 . S
O120 C119 1.247 . S
C121 O133 1.242 . S
C121 O134 1.258 . S
O122 Eu118 2.292 . S
O122 C124 1.255 . S
C123 Eu118 2.852 . S
C123 C127 1.503 . S
C123 O140 1.273 . S
C123 O141 1.257 . S
C124 O122 1.255 . S
C124 O125 1.247 . S
O125 C124 1.247 . S
C126 O138 1.242 . S
C126 O139 1.258 . S
C127 C123 1.503 . S
C127 C128 1.379 . S
C127 C132 1.392 . S
C128 C127 1.379 . S
C128 C129 1.404 . S
C128 H142 0.929 . S
C129 C128 1.404 . S
C129 C130 1.389 . S
C130 C129 1.389 . S
C130 C131 1.399 . S
C130 H143 0.931 . S
C131 C130 1.399 . S
C131 C132 1.390 . S
C132 C127 1.392 . S
C132 C131 1.390 . S
C132 H144 0.929 . S
O133 Tb117 2.326 . S
O133 C121 1.242 . S
O134 Eu118 2.324 . S
O134 C121 1.258 . S
O135 Tb117 2.500 . S
O135 C137 1.273 . S
O136 Tb117 2.473 . S
O136 C137 1.257 . S
C137 O135 1.273 . S
C137 O136 1.257 . S
O138 Eu118 2.326 . S
O138 C126 1.242 . S
O139 Tb117 2.324 . S
O139 C126 1.258 . S
O140 Eu118 2.500 . S
O140 C123 1.273 . S
O141 Eu118 2.473 . S
O141 C123 1.257 . S
H142 C128 0.929 . S
H143 C130 0.931 . S
H144 C132 0.929 . S
O145 Tb146 2.292 . S
O145 C148 1.255 . S
Tb146 O145 2.292 . S
Tb146 O162 2.326 . S
Tb146 O164 2.500 . S
Tb146 O165 2.473 . S
Tb146 O168 2.324 . S
Eu147 O151 2.292 . S
Eu147 C152 2.852 . S
Eu147 O163 2.324 . S
Eu147 O167 2.326 . S
Eu147 O169 2.500 . S
Eu147 O170 2.473 . S
C148 O145 1.255 . S
C148 O149 1.247 . S
O149 C148 1.247 . S
C150 O162 1.242 . S
C150 O163 1.258 . S
O151 Eu147 2.292 . S
O151 C153 1.255 . S
C152 Eu147 2.852 . S
C152 C156 1.503 . S
C152 O169 1.273 . S
C152 O170 1.257 . S
C153 O151 1.255 . S
C153 O154 1.247 . S
O154 C153 1.247 . S
C155 O167 1.242 . S
C155 O168 1.258 . S
C156 C152 1.503 . S
C156 C157 1.379 . S
C156 C161 1.392 . S
C157 C156 1.379 . S
C157 C158 1.404 . S
C157 H171 0.929 . S
C158 C157 1.404 . S
C158 C159 1.389 . S
C159 C158 1.389 . S
C159 C160 1.399 . S
C159 H172 0.931 . S
C160 C159 1.399 . S
C160 C161 1.390 . S
C161 C156 1.392 . S
C161 C160 1.390 . S
C161 H173 0.929 . S
O162 Tb146 2.326 . S
O162 C150 1.242 . S
O163 Eu147 2.324 . S
O163 C150 1.258 . S
O164 Tb146 2.500 . S
O164 C166 1.273 . S
O165 Tb146 2.473 . S
O165 C166 1.257 . S
C166 O164 1.273 . S
C166 O165 1.257 . S
O167 Eu147 2.326 . S
O167 C155 1.242 . S
O168 Tb146 2.324 . S
O168 C155 1.258 . S
O169 Eu147 2.500 . S
O169 C152 1.273 . S
O170 Eu147 2.473 . S
O170 C152 1.257 . S
H171 C157 0.929 . S
H172 C159 0.931 . S
H173 C161 0.929 . S
O174 Tb175 2.292 . S
O174 C177 1.255 . S
Tb175 O174 2.292 . S
Tb175 O191 2.326 . S
Tb175 O193 2.500 . S
Tb175 O194 2.473 . S
Tb175 O197 2.324 . S
Eu176 O180 2.292 . S
Eu176 C181 2.852 . S
Eu176 O192 2.324 . S
Eu176 O196 2.326 . S
Eu176 O198 2.500 . S
Eu176 O199 2.473 . S
C177 O174 1.255 . S
C177 O178 1.247 . S
O178 C177 1.247 . S
C179 O191 1.242 . S
C179 O192 1.258 . S
O180 Eu176 2.292 . S
O180 C182 1.255 . S
C181 Eu176 2.852 . S
C181 C185 1.503 . S
C181 O198 1.273 . S
C181 O199 1.257 . S
C182 O180 1.255 . S
C182 O183 1.247 . S
O183 C182 1.247 . S
C184 O196 1.242 . S
C184 O197 1.258 . S
C185 C181 1.503 . S
C185 C186 1.379 . S
C185 C190 1.392 . S
C186 C185 1.379 . S
C186 C187 1.404 . S
C186 H200 0.929 . S
C187 C186 1.404 . S
C187 C188 1.389 . S
C188 C187 1.389 . S
C188 C189 1.399 . S
C188 H201 0.931 . S
C189 C188 1.399 . S
C189 C190 1.390 . S
C190 C185 1.392 . S
C190 C189 1.390 . S
C190 H202 0.929 . S
O191 Tb175 2.326 . S
O191 C179 1.242 . S
O192 Eu176 2.324 . S
O192 C179 1.258 . S
O193 Tb175 2.500 . S
O193 C195 1.273 . S
O194 Tb175 2.473 . S
O194 C195 1.257 . S
C195 O193 1.273 . S
C195 O194 1.257 . S
O196 Eu176 2.326 . S
O196 C184 1.242 . S
O197 Tb175 2.324 . S
O197 C184 1.258 . S
O198 Eu176 2.500 . S
O198 C181 1.273 . S
O199 Eu176 2.473 . S
O199 C181 1.257 . S
H200 C186 0.929 . S
H201 C188 0.931 . S
H202 C190 0.929 . S
O203 Tb204 2.292 . S
O203 C206 1.255 . S
Tb204 O203 2.292 . S
Tb204 O220 2.326 . S
Tb204 O222 2.500 . S
Tb204 O223 2.473 . S
Tb204 O226 2.324 . S
Eu205 O209 2.292 . S
Eu205 C210 2.852 . S
Eu205 O221 2.324 . S
Eu205 O225 2.326 . S
Eu205 O227 2.500 . S
Eu205 O228 2.473 . S
C206 O203 1.255 . S
C206 O207 1.247 . S
O207 C206 1.247 . S
C208 O220 1.242 . S
C208 O221 1.258 . S
O209 Eu205 2.292 . S
O209 C211 1.255 . S
C210 Eu205 2.852 . S
C210 C214 1.503 . S
C210 O227 1.273 . S
C210 O228 1.257 . S
C211 O209 1.255 . S
C211 O212 1.247 . S
O212 C211 1.247 . S
C213 O225 1.242 . S
C213 O226 1.258 . S
C214 C210 1.503 . S
C214 C215 1.379 . S
C214 C219 1.392 . S
C215 C214 1.379 . S
C215 C216 1.404 . S
C215 H229 0.929 . S
C216 C215 1.404 . S
C216 C217 1.389 . S
C217 C216 1.389 . S
C217 C218 1.399 . S
C217 H230 0.931 . S
C218 C217 1.399 . S
C218 C219 1.390 . S
C219 C214 1.392 . S
C219 C218 1.390 . S
C219 H231 0.929 . S
O220 Tb204 2.326 . S
O220 C208 1.242 . S
O221 Eu205 2.324 . S
O221 C208 1.258 . S
O222 Tb204 2.500 . S
O222 C224 1.273 . S
O223 Tb204 2.473 . S
O223 C224 1.257 . S
C224 O222 1.273 . S
C224 O223 1.257 . S
O225 Eu205 2.326 . S
O225 C213 1.242 . S
O226 Tb204 2.324 . S
O226 C213 1.258 . S
O227 Eu205 2.500 . S
O227 C210 1.273 . S
O228 Eu205 2.473 . S
O228 C210 1.257 . S
H229 C215 0.929 . S
H230 C217 0.931 . S
H231 C219 0.929 . S
O232 Tb233 2.292 . S
O232 C235 1.255 . S
Tb233 O232 2.292 . S
Tb233 O249 2.326 . S
Tb233 O251 2.500 . S
Tb233 O252 2.473 . S
Tb233 O255 2.324 . S
Eu234 O238 2.292 . S
Eu234 C239 2.852 . S
Eu234 O250 2.324 . S
Eu234 O254 2.326 . S
Eu234 O256 2.500 . S
Eu234 O257 2.473 . S
C235 O232 1.255 . S
C235 O236 1.247 . S
O236 C235 1.247 . S
C237 O249 1.242 . S
C237 O250 1.258 . S
O238 Eu234 2.292 . S
O238 C240 1.255 . S
C239 Eu234 2.852 . S
C239 C243 1.503 . S
C239 O256 1.273 . S
C239 O257 1.257 . S
C240 O238 1.255 . S
C240 O241 1.247 . S
O241 C240 1.247 . S
C242 O254 1.242 . S
C242 O255 1.258 . S
C243 C239 1.503 . S
C243 C244 1.379 . S
C243 C248 1.392 . S
C244 C243 1.379 . S
C244 C245 1.404 . S
C244 H258 0.929 . S
C245 C244 1.404 . S
C245 C246 1.389 . S
C246 C245 1.389 . S
C246 C247 1.399 . S
C246 H259 0.931 . S
C247 C246 1.399 . S
C247 C248 1.390 . S
C248 C243 1.392 . S
C248 C247 1.390 . S
C248 H260 0.929 . S
O249 Tb233 2.326 . S
O249 C237 1.242 . S
O250 Eu234 2.324 . S
O250 C237 1.258 . S
O251 Tb233 2.500 . S
O251 C253 1.273 . S
O252 Tb233 2.473 . S
O252 C253 1.257 . S
C253 O251 1.273 . S
C253 O252 1.257 . S
O254 Eu234 2.326 . S
O254 C242 1.242 . S
O255 Tb233 2.324 . S
O255 C242 1.258 . S
O256 Eu234 2.500 . S
O256 C239 1.273 . S
O257 Eu234 2.473 . S
O257 C239 1.257 . S
H258 C244 0.929 . S
H259 C246 0.931 . S
H260 C248 0.929 . S
O261 Tb262 2.292 . S
O261 C264 1.255 . S
Tb262 O261 2.292 . S
Tb262 O278 2.326 . S
Tb262 O280 2.500 . S
Tb262 O281 2.473 . S
Tb262 O284 2.324 . S
Eu263 O267 2.292 . S
Eu263 C268 2.852 . S
Eu263 O279 2.324 . S
Eu263 O283 2.326 . S
Eu263 O285 2.500 . S
Eu263 O286 2.473 . S
C264 O261 1.255 . S
C264 O265 1.247 . S
O265 C264 1.247 . S
C266 O278 1.242 . S
C266 O279 1.258 . S
O267 Eu263 2.292 . S
O267 C269 1.255 . S
C268 Eu263 2.852 . S
C268 C272 1.503 . S
C268 O285 1.273 . S
C268 O286 1.257 . S
C269 O267 1.255 . S
C269 O270 1.247 . S
O270 C269 1.247 . S
C271 O283 1.242 . S
C271 O284 1.258 . S
C272 C268 1.503 . S
C272 C273 1.379 . S
C272 C277 1.392 . S
C273 C272 1.379 . S
C273 C274 1.404 . S
C273 H287 0.929 . S
C274 C273 1.404 . S
C274 C275 1.389 . S
C275 C274 1.389 . S
C275 C276 1.399 . S
C275 H288 0.931 . S
C276 C275 1.399 . S
C276 C277 1.390 . S
C277 C272 1.392 . S
C277 C276 1.390 . S
C277 H289 0.929 . S
O278 Tb262 2.326 . S
O278 C266 1.242 . S
O279 Eu263 2.324 . S
O279 C266 1.258 . S
O280 Tb262 2.500 . S
O280 C282 1.273 . S
O281 Tb262 2.473 . S
O281 C282 1.257 . S
C282 O280 1.273 . S
C282 O281 1.257 . S
O283 Eu263 2.326 . S
O283 C271 1.242 . S
O284 Tb262 2.324 . S
O284 C271 1.258 . S
O285 Eu263 2.500 . S
O285 C268 1.273 . S
O286 Eu263 2.473 . S
O286 C268 1.257 . S
H287 C273 0.929 . S
H288 C275 0.931 . S
H289 C277 0.929 . S
O290 Tb291 2.292 . S
O290 C293 1.255 . S
Tb291 O290 2.292 . S
Tb291 O307 2.326 . S
Tb291 O309 2.500 . S
Tb291 O310 2.473 . S
Tb291 O313 2.324 . S
Eu292 O296 2.292 . S
Eu292 C297 2.852 . S
Eu292 O308 2.324 . S
Eu292 O312 2.326 . S
Eu292 O314 2.500 . S
Eu292 O315 2.473 . S
C293 O290 1.255 . S
C293 O294 1.247 . S
O294 C293 1.247 . S
C295 O307 1.242 . S
C295 O308 1.258 . S
O296 Eu292 2.292 . S
O296 C298 1.255 . S
C297 Eu292 2.852 . S
C297 C301 1.503 . S
C297 O314 1.273 . S
C297 O315 1.257 . S
C298 O296 1.255 . S
C298 O299 1.247 . S
O299 C298 1.247 . S
C300 O312 1.242 . S
C300 O313 1.258 . S
C301 C297 1.503 . S
C301 C302 1.379 . S
C301 C306 1.392 . S
C302 C301 1.379 . S
C302 C303 1.404 . S
C302 H316 0.929 . S
C303 C302 1.404 . S
C303 C304 1.389 . S
C304 C303 1.389 . S
C304 C305 1.399 . S
C304 H317 0.931 . S
C305 C304 1.399 . S
C305 C306 1.390 . S
C306 C301 1.392 . S
C306 C305 1.390 . S
C306 H318 0.929 . S
O307 Tb291 2.326 . S
O307 C295 1.242 . S
O308 Eu292 2.324 . S
O308 C295 1.258 . S
O309 Tb291 2.500 . S
O309 C311 1.273 . S
O310 Tb291 2.473 . S
O310 C311 1.257 . S
C311 O309 1.273 . S
C311 O310 1.257 . S
O312 Eu292 2.326 . S
O312 C300 1.242 . S
O313 Tb291 2.324 . S
O313 C300 1.258 . S
O314 Eu292 2.500 . S
O314 C297 1.273 . S
O315 Eu292 2.473 . S
O315 C297 1.257 . S
H316 C302 0.929 . S
H317 C304 0.931 . S
H318 C306 0.929 . S
O319 Tb320 2.292 . S
O319 C322 1.255 . S
Tb320 O319 2.292 . S
Tb320 O336 2.326 . S
Tb320 O338 2.500 . S
Tb320 O339 2.473 . S
Tb320 O342 2.324 . S
Eu321 O325 2.292 . S
Eu321 C326 2.852 . S
Eu321 O337 2.324 . S
Eu321 O341 2.326 . S
Eu321 O343 2.500 . S
Eu321 O344 2.473 . S
C322 O319 1.255 . S
C322 O323 1.247 . S
O323 C322 1.247 . S
C324 O336 1.242 . S
C324 O337 1.258 . S
O325 Eu321 2.292 . S
O325 C327 1.255 . S
C326 Eu321 2.852 . S
C326 C330 1.503 . S
C326 O343 1.273 . S
C326 O344 1.257 . S
C327 O325 1.255 . S
C327 O328 1.247 . S
O328 C327 1.247 . S
C329 O341 1.242 . S
C329 O342 1.258 . S
C330 C326 1.503 . S
C330 C331 1.379 . S
C330 C335 1.392 . S
C331 C330 1.379 . S
C331 C332 1.404 . S
C331 H345 0.929 . S
C332 C331 1.404 . S
C332 C333 1.389 . S
C333 C332 1.389 . S
C333 C334 1.399 . S
C333 H346 0.931 . S
C334 C333 1.399 . S
C334 C335 1.390 . S
C335 C330 1.392 . S
C335 C334 1.390 . S
C335 H347 0.929 . S
O336 Tb320 2.326 . S
O336 C324 1.242 . S
O337 Eu321 2.324 . S
O337 C324 1.258 . S
O338 Tb320 2.500 . S
O338 C340 1.273 . S
O339 Tb320 2.473 . S
O339 C340 1.257 . S
C340 O338 1.273 . S
C340 O339 1.257 . S
O341 Eu321 2.326 . S
O341 C329 1.242 . S
O342 Tb320 2.324 . S
O342 C329 1.258 . S
O343 Eu321 2.500 . S
O343 C326 1.273 . S
O344 Eu321 2.473 . S
O344 C326 1.257 . S
H345 C331 0.929 . S
H346 C333 0.931 . S
H347 C335 0.929 . S
O348 Tb349 2.292 . S
O348 C351 1.255 . S
Tb349 O348 2.292 . S
Tb349 O365 2.326 . S
Tb349 O367 2.500 . S
Tb349 O368 2.473 . S
Tb349 O371 2.324 . S
Eu350 O354 2.292 . S
Eu350 C355 2.852 . S
Eu350 O366 2.324 . S
Eu350 O370 2.326 . S
Eu350 O372 2.500 . S
Eu350 O373 2.473 . S
C351 O348 1.255 . S
C351 O352 1.247 . S
O352 C351 1.247 . S
C353 O365 1.242 . S
C353 O366 1.258 . S
O354 Eu350 2.292 . S
O354 C356 1.255 . S
C355 Eu350 2.852 . S
C355 C359 1.503 . S
C355 O372 1.273 . S
C355 O373 1.257 . S
C356 O354 1.255 . S
C356 O357 1.247 . S
O357 C356 1.247 . S
C358 O370 1.242 . S
C358 O371 1.258 . S
C359 C355 1.503 . S
C359 C360 1.379 . S
C359 C364 1.392 . S
C360 C359 1.379 . S
C360 C361 1.404 . S
C360 H374 0.929 . S
C361 C360 1.404 . S
C361 C362 1.389 . S
C362 C361 1.389 . S
C362 C363 1.399 . S
C362 H375 0.931 . S
C363 C362 1.399 . S
C363 C364 1.390 . S
C364 C359 1.392 . S
C364 C363 1.390 . S
C364 H376 0.929 . S
O365 Tb349 2.326 . S
O365 C353 1.242 . S
O366 Eu350 2.324 . S
O366 C353 1.258 . S
O367 Tb349 2.500 . S
O367 C369 1.273 . S
O368 Tb349 2.473 . S
O368 C369 1.257 . S
C369 O367 1.273 . S
C369 O368 1.257 . S
O370 Eu350 2.326 . S
O370 C358 1.242 . S
O371 Tb349 2.324 . S
O371 C358 1.258 . S
O372 Eu350 2.500 . S
O372 C355 1.273 . S
O373 Eu350 2.473 . S
O373 C355 1.257 . S
H374 C360 0.929 . S
H375 C362 0.931 . S
H376 C364 0.929 . S
O377 Tb378 2.292 . S
O377 C380 1.255 . S
Tb378 O377 2.292 . S
Tb378 O394 2.326 . S
Tb378 O396 2.500 . S
Tb378 O397 2.473 . S
Tb378 O400 2.324 . S
Eu379 O383 2.292 . S
Eu379 C384 2.852 . S
Eu379 O395 2.324 . S
Eu379 O399 2.326 . S
Eu379 O401 2.500 . S
Eu379 O402 2.473 . S
C380 O377 1.255 . S
C380 O381 1.247 . S
O381 C380 1.247 . S
C382 O394 1.242 . S
C382 O395 1.258 . S
O383 Eu379 2.292 . S
O383 C385 1.255 . S
C384 Eu379 2.852 . S
C384 C388 1.503 . S
C384 O401 1.273 . S
C384 O402 1.257 . S
C385 O383 1.255 . S
C385 O386 1.247 . S
O386 C385 1.247 . S
C387 O399 1.242 . S
C387 O400 1.258 . S
C388 C384 1.503 . S
C388 C389 1.379 . S
C388 C393 1.392 . S
C389 C388 1.379 . S
C389 C390 1.404 . S
C389 H403 0.929 . S
C390 C389 1.404 . S
C390 C391 1.389 . S
C391 C390 1.389 . S
C391 C392 1.399 . S
C391 H404 0.931 . S
C392 C391 1.399 . S
C392 C393 1.390 . S
C393 C388 1.392 . S
C393 C392 1.390 . S
C393 H405 0.929 . S
O394 Tb378 2.326 . S
O394 C382 1.242 . S
O395 Eu379 2.324 . S
O395 C382 1.258 . S
O396 Tb378 2.500 . S
O396 C398 1.273 . S
O397 Tb378 2.473 . S
O397 C398 1.257 . S
C398 O396 1.273 . S
C398 O397 1.257 . S
O399 Eu379 2.326 . S
O399 C387 1.242 . S
O400 Tb378 2.324 . S
O400 C387 1.258 . S
O401 Eu379 2.500 . S
O401 C384 1.273 . S
O402 Eu379 2.473 . S
O402 C384 1.257 . S
H403 C389 0.929 . S
H404 C391 0.931 . S
H405 C393 0.929 . S
O406 Tb407 2.292 . S
O406 C409 1.255 . S
Tb407 O406 2.292 . S
Tb407 O423 2.326 . S
Tb407 O425 2.500 . S
Tb407 O426 2.473 . S
Tb407 O429 2.324 . S
Eu408 O412 2.292 . S
Eu408 C413 2.852 . S
Eu408 O424 2.324 . S
Eu408 O428 2.326 . S
Eu408 O430 2.500 . S
Eu408 O431 2.473 . S
C409 O406 1.255 . S
C409 O410 1.247 . S
O410 C409 1.247 . S
C411 O423 1.242 . S
C411 O424 1.258 . S
O412 Eu408 2.292 . S
O412 C414 1.255 . S
C413 Eu408 2.852 . S
C413 C417 1.503 . S
C413 O430 1.273 . S
C413 O431 1.257 . S
C414 O412 1.255 . S
C414 O415 1.247 . S
O415 C414 1.247 . S
C416 O428 1.242 . S
C416 O429 1.258 . S
C417 C413 1.503 . S
C417 C418 1.379 . S
C417 C422 1.392 . S
C418 C417 1.379 . S
C418 C419 1.404 . S
C418 H432 0.929 . S
C419 C418 1.404 . S
C419 C420 1.389 . S
C420 C419 1.389 . S
C420 C421 1.399 . S
C420 H433 0.931 . S
C421 C420 1.399 . S
C421 C422 1.390 . S
C422 C417 1.392 . S
C422 C421 1.390 . S
C422 H434 0.929 . S
O423 Tb407 2.326 . S
O423 C411 1.242 . S
O424 Eu408 2.324 . S
O424 C411 1.258 . S
O425 Tb407 2.500 . S
O425 C427 1.273 . S
O426 Tb407 2.473 . S
O426 C427 1.257 . S
C427 O425 1.273 . S
C427 O426 1.257 . S
O428 Eu408 2.326 . S
O428 C416 1.242 . S
O429 Tb407 2.324 . S
O429 C416 1.258 . S
O430 Eu408 2.500 . S
O430 C413 1.273 . S
O431 Eu408 2.473 . S
O431 C413 1.257 . S
H432 C418 0.929 . S
H433 C420 0.931 . S
H434 C422 0.929 . S
O435 Tb436 2.292 . S
O435 C438 1.255 . S
Tb436 O435 2.292 . S
Tb436 O452 2.326 . S
Tb436 O454 2.500 . S
Tb436 O455 2.473 . S
Tb436 O458 2.324 . S
Eu437 O441 2.292 . S
Eu437 C442 2.852 . S
Eu437 O453 2.324 . S
Eu437 O457 2.326 . S
Eu437 O459 2.500 . S
Eu437 O460 2.473 . S
C438 O435 1.255 . S
C438 O439 1.247 . S
O439 C438 1.247 . S
C440 O452 1.242 . S
C440 O453 1.258 . S
O441 Eu437 2.292 . S
O441 C443 1.255 . S
C442 Eu437 2.852 . S
C442 C446 1.503 . S
C442 O459 1.273 . S
C442 O460 1.257 . S
C443 O441 1.255 . S
C443 O444 1.247 . S
O444 C443 1.247 . S
C445 O457 1.242 . S
C445 O458 1.258 . S
C446 C442 1.503 . S
C446 C447 1.379 . S
C446 C451 1.392 . S
C447 C446 1.379 . S
C447 C448 1.404 . S
C447 H461 0.929 . S
C448 C447 1.404 . S
C448 C449 1.389 . S
C449 C448 1.389 . S
C449 C450 1.399 . S
C449 H462 0.931 . S
C450 C449 1.399 . S
C450 C451 1.390 . S
C451 C446 1.392 . S
C451 C450 1.390 . S
C451 H463 0.929 . S
O452 Tb436 2.326 . S
O452 C440 1.242 . S
O453 Eu437 2.324 . S
O453 C440 1.258 . S
O454 Tb436 2.500 . S
O454 C456 1.273 . S
O455 Tb436 2.473 . S
O455 C456 1.257 . S
C456 O454 1.273 . S
C456 O455 1.257 . S
O457 Eu437 2.326 . S
O457 C445 1.242 . S
O458 Tb436 2.324 . S
O458 C445 1.258 . S
O459 Eu437 2.500 . S
O459 C442 1.273 . S
O460 Eu437 2.473 . S
O460 C442 1.257 . S
H461 C447 0.929 . S
H462 C449 0.931 . S
H463 C451 0.929 . S
O464 Tb465 2.292 . S
O464 C467 1.255 . S
Tb465 O464 2.292 . S
Tb465 O481 2.326 . S
Tb465 O483 2.500 . S
Tb465 O484 2.473 . S
Tb465 O487 2.324 . S
Eu466 O470 2.292 . S
Eu466 C471 2.852 . S
Eu466 O482 2.324 . S
Eu466 O486 2.326 . S
Eu466 O488 2.500 . S
Eu466 O489 2.473 . S
C467 O464 1.255 . S
C467 O468 1.247 . S
O468 C467 1.247 . S
C469 O481 1.242 . S
C469 O482 1.258 . S
O470 Eu466 2.292 . S
O470 C472 1.255 . S
C471 Eu466 2.852 . S
C471 C475 1.503 . S
C471 O488 1.273 . S
C471 O489 1.257 . S
C472 O470 1.255 . S
C472 O473 1.247 . S
O473 C472 1.247 . S
C474 O486 1.242 . S
C474 O487 1.258 . S
C475 C471 1.503 . S
C475 C476 1.379 . S
C475 C480 1.392 . S
C476 C475 1.379 . S
C476 C477 1.404 . S
C476 H490 0.929 . S
C477 C476 1.404 . S
C477 C478 1.389 . S
C478 C477 1.389 . S
C478 C479 1.399 . S
C478 H491 0.931 . S
C479 C478 1.399 . S
C479 C480 1.390 . S
C480 C475 1.392 . S
C480 C479 1.390 . S
C480 H492 0.929 . S
O481 Tb465 2.326 . S
O481 C469 1.242 . S
O482 Eu466 2.324 . S
O482 C469 1.258 . S
O483 Tb465 2.500 . S
O483 C485 1.273 . S
O484 Tb465 2.473 . S
O484 C485 1.257 . S
C485 O483 1.273 . S
C485 O484 1.257 . S
O486 Eu466 2.326 . S
O486 C474 1.242 . S
O487 Tb465 2.324 . S
O487 C474 1.258 . S
O488 Eu466 2.500 . S
O488 C471 1.273 . S
O489 Eu466 2.473 . S
O489 C471 1.257 . S
H490 C476 0.929 . S
H491 C478 0.931 . S
H492 C480 0.929 . S
O493 Tb494 2.292 . S
O493 C496 1.255 . S
Tb494 O493 2.292 . S
Tb494 O510 2.326 . S
Tb494 O512 2.500 . S
Tb494 O513 2.473 . S
Tb494 O516 2.324 . S
Eu495 O499 2.292 . S
Eu495 C500 2.852 . S
Eu495 O511 2.324 . S
Eu495 O515 2.326 . S
Eu495 O517 2.500 . S
Eu495 O518 2.473 . S
C496 O493 1.255 . S
C496 O497 1.247 . S
O497 C496 1.247 . S
C498 O510 1.242 . S
C498 O511 1.258 . S
O499 Eu495 2.292 . S
O499 C501 1.255 . S
C500 Eu495 2.852 . S
C500 C504 1.503 . S
C500 O517 1.273 . S
C500 O518 1.257 . S
C501 O499 1.255 . S
C501 O502 1.247 . S
O502 C501 1.247 . S
C503 O515 1.242 . S
C503 O516 1.258 . S
C504 C500 1.503 . S
C504 C505 1.379 . S
C504 C509 1.392 . S
C505 C504 1.379 . S
C505 C506 1.404 . S
C505 H519 0.929 . S
C506 C505 1.404 . S
C506 C507 1.389 . S
C507 C506 1.389 . S
C507 C508 1.399 . S
C507 H520 0.931 . S
C508 C507 1.399 . S
C508 C509 1.390 . S
C509 C504 1.392 . S
C509 C508 1.390 . S
C509 H521 0.929 . S
O510 Tb494 2.326 . S
O510 C498 1.242 . S
O511 Eu495 2.324 . S
O511 C498 1.258 . S
O512 Tb494 2.500 . S
O512 C514 1.273 . S
O513 Tb494 2.473 . S
O513 C514 1.257 . S
C514 O512 1.273 . S
C514 O513 1.257 . S
O515 Eu495 2.326 . S
O515 C503 1.242 . S
O516 Tb494 2.324 . S
O516 C503 1.258 . S
O517 Eu495 2.500 . S
O517 C500 1.273 . S
O518 Eu495 2.473 . S
O518 C500 1.257 . S
H519 C505 0.929 . S
H520 C507 0.931 . S
H521 C509 0.929 . S
O522 Tb523 2.292 . S
O522 C525 1.255 . S
Tb523 O522 2.292 . S
Tb523 O539 2.326 . S
Tb523 O541 2.500 . S
Tb523 O542 2.473 . S
Tb523 O545 2.324 . S
Eu524 O528 2.292 . S
Eu524 C529 2.852 . S
Eu524 O540 2.324 . S
Eu524 O544 2.326 . S
Eu524 O546 2.500 . S
Eu524 O547 2.473 . S
C525 O522 1.255 . S
C525 O526 1.247 . S
O526 C525 1.247 . S
C527 O539 1.242 . S
C527 O540 1.258 . S
O528 Eu524 2.292 . S
O528 C530 1.255 . S
C529 Eu524 2.852 . S
C529 C533 1.503 . S
C529 O546 1.273 . S
C529 O547 1.257 . S
C530 O528 1.255 . S
C530 O531 1.247 . S
O531 C530 1.247 . S
C532 O544 1.242 . S
C532 O545 1.258 . S
C533 C529 1.503 . S
C533 C534 1.379 . S
C533 C538 1.392 . S
C534 C533 1.379 . S
C534 C535 1.404 . S
C534 H548 0.929 . S
C535 C534 1.404 . S
C535 C536 1.389 . S
C536 C535 1.389 . S
C536 C537 1.399 . S
C536 H549 0.931 . S
C537 C536 1.399 . S
C537 C538 1.390 . S
C538 C533 1.392 . S
C538 C537 1.390 . S
C538 H550 0.929 . S
O539 Tb523 2.326 . S
O539 C527 1.242 . S
O540 Eu524 2.324 . S
O540 C527 1.258 . S
O541 Tb523 2.500 . S
O541 C543 1.273 . S
O542 Tb523 2.473 . S
O542 C543 1.257 . S
C543 O541 1.273 . S
C543 O542 1.257 . S
O544 Eu524 2.326 . S
O544 C532 1.242 . S
O545 Tb523 2.324 . S
O545 C532 1.258 . S
O546 Eu524 2.500 . S
O546 C529 1.273 . S
O547 Eu524 2.473 . S
O547 C529 1.257 . S
H548 C534 0.929 . S
H549 C536 0.931 . S
H550 C538 0.929 . S
O551 Tb552 2.292 . S
O551 C554 1.255 . S
Tb552 O551 2.292 . S
Tb552 O568 2.326 . S
Tb552 O570 2.500 . S
Tb552 O571 2.473 . S
Tb552 O574 2.324 . S
Eu553 O557 2.292 . S
Eu553 C558 2.852 . S
Eu553 O569 2.324 . S
Eu553 O573 2.326 . S
Eu553 O575 2.500 . S
Eu553 O576 2.473 . S
C554 O551 1.255 . S
C554 O555 1.247 . S
O555 C554 1.247 . S
C556 O568 1.242 . S
C556 O569 1.258 . S
O557 Eu553 2.292 . S
O557 C559 1.255 . S
C558 Eu553 2.852 . S
C558 C562 1.503 . S
C558 O575 1.273 . S
C558 O576 1.257 . S
C559 O557 1.255 . S
C559 O560 1.247 . S
O560 C559 1.247 . S
C561 O573 1.242 . S
C561 O574 1.258 . S
C562 C558 1.503 . S
C562 C563 1.379 . S
C562 C567 1.392 . S
C563 C562 1.379 . S
C563 C564 1.404 . S
C563 H577 0.929 . S
C564 C563 1.404 . S
C564 C565 1.389 . S
C565 C564 1.389 . S
C565 C566 1.399 . S
C565 H578 0.931 . S
C566 C565 1.399 . S
C566 C567 1.390 . S
C567 C562 1.392 . S
C567 C566 1.390 . S
C567 H579 0.929 . S
O568 Tb552 2.326 . S
O568 C556 1.242 . S
O569 Eu553 2.324 . S
O569 C556 1.258 . S
O570 Tb552 2.500 . S
O570 C572 1.273 . S
O571 Tb552 2.473 . S
O571 C572 1.257 . S
C572 O570 1.273 . S
C572 O571 1.257 . S
O573 Eu553 2.326 . S
O573 C561 1.242 . S
O574 Tb552 2.324 . S
O574 C561 1.258 . S
O575 Eu553 2.500 . S
O575 C558 1.273 . S
O576 Eu553 2.473 . S
O576 C558 1.257 . S
H577 C563 0.929 . S
H578 C565 0.931 . S
H579 C567 0.929 . S
O580 Tb581 2.292 . S
O580 C583 1.255 . S
Tb581 O580 2.292 . S
Tb581 O597 2.326 . S
Tb581 O599 2.500 . S
Tb581 O600 2.473 . S
Tb581 O603 2.324 . S
Eu582 O586 2.292 . S
Eu582 C587 2.852 . S
Eu582 O598 2.324 . S
Eu582 O602 2.326 . S
Eu582 O604 2.500 . S
Eu582 O605 2.473 . S
C583 O580 1.255 . S
C583 O584 1.247 . S
O584 C583 1.247 . S
C585 O597 1.242 . S
C585 O598 1.258 . S
O586 Eu582 2.292 . S
O586 C588 1.255 . S
C587 Eu582 2.852 . S
C587 C591 1.503 . S
C587 O604 1.273 . S
C587 O605 1.257 . S
C588 O586 1.255 . S
C588 O589 1.247 . S
O589 C588 1.247 . S
C590 O602 1.242 . S
C590 O603 1.258 . S
C591 C587 1.503 . S
C591 C592 1.379 . S
C591 C596 1.392 . S
C592 C591 1.379 . S
C592 C593 1.404 . S
C592 H606 0.929 . S
C593 C592 1.404 . S
C593 C594 1.389 . S
C594 C593 1.389 . S
C594 C595 1.399 . S
C594 H607 0.931 . S
C595 C594 1.399 . S
C595 C596 1.390 . S
C596 C591 1.392 . S
C596 C595 1.390 . S
C596 H608 0.929 . S
O597 Tb581 2.326 . S
O597 C585 1.242 . S
O598 Eu582 2.324 . S
O598 C585 1.258 . S
O599 Tb581 2.500 . S
O599 C601 1.273 . S
O600 Tb581 2.473 . S
O600 C601 1.257 . S
C601 O599 1.273 . S
C601 O600 1.257 . S
O602 Eu582 2.326 . S
O602 C590 1.242 . S
O603 Tb581 2.324 . S
O603 C590 1.258 . S
O604 Eu582 2.500 . S
O604 C587 1.273 . S
O605 Eu582 2.473 . S
O605 C587 1.257 . S
H606 C592 0.929 . S
H607 C594 0.931 . S
H608 C596 0.929 . S
O609 Tb610 2.292 . S
O609 C612 1.255 . S
Tb610 O609 2.292 . S
Tb610 O626 2.326 . S
Tb610 O628 2.500 . S
Tb610 O629 2.473 . S
Tb610 O632 2.324 . S
Eu611 O615 2.292 . S
Eu611 C616 2.852 . S
Eu611 O627 2.324 . S
Eu611 O631 2.326 . S
Eu611 O633 2.500 . S
Eu611 O634 2.473 . S
C612 O609 1.255 . S
C612 O613 1.247 . S
O613 C612 1.247 . S
C614 O626 1.242 . S
C614 O627 1.258 . S
O615 Eu611 2.292 . S
O615 C617 1.255 . S
C616 Eu611 2.852 . S
C616 C620 1.503 . S
C616 O633 1.273 . S
C616 O634 1.257 . S
C617 O615 1.255 . S
C617 O618 1.247 . S
O618 C617 1.247 . S
C619 O631 1.242 . S
C619 O632 1.258 . S
C620 C616 1.503 . S
C620 C621 1.379 . S
C620 C625 1.392 . S
C621 C620 1.379 . S
C621 C622 1.404 . S
C621 H635 0.929 . S
C622 C621 1.404 . S
C622 C623 1.389 . S
C623 C622 1.389 . S
C623 C624 1.399 . S
C623 H636 0.931 . S
C624 C623 1.399 . S
C624 C625 1.390 . S
C625 C620 1.392 . S
C625 C624 1.390 . S
C625 H637 0.929 . S
O626 Tb610 2.326 . S
O626 C614 1.242 . S
O627 Eu611 2.324 . S
O627 C614 1.258 . S
O628 Tb610 2.500 . S
O628 C630 1.273 . S
O629 Tb610 2.473 . S
O629 C630 1.257 . S
C630 O628 1.273 . S
C630 O629 1.257 . S
O631 Eu611 2.326 . S
O631 C619 1.242 . S
O632 Tb610 2.324 . S
O632 C619 1.258 . S
O633 Eu611 2.500 . S
O633 C616 1.273 . S
O634 Eu611 2.473 . S
O634 C616 1.257 . S
H635 C621 0.929 . S
H636 C623 0.931 . S
H637 C625 0.929 . S
O638 Tb639 2.292 . S
O638 C641 1.255 . S
Tb639 O638 2.292 . S
Tb639 O655 2.326 . S
Tb639 O657 2.500 . S
Tb639 O658 2.473 . S
Tb639 O661 2.324 . S
Eu640 O644 2.292 . S
Eu640 C645 2.852 . S
Eu640 O656 2.324 . S
Eu640 O660 2.326 . S
Eu640 O662 2.500 . S
Eu640 O663 2.473 . S
C641 O638 1.255 . S
C641 O642 1.247 . S
O642 C641 1.247 . S
C643 O655 1.242 . S
C643 O656 1.258 . S
O644 Eu640 2.292 . S
O644 C646 1.255 . S
C645 Eu640 2.852 . S
C645 C649 1.503 . S
C645 O662 1.273 . S
C645 O663 1.257 . S
C646 O644 1.255 . S
C646 O647 1.247 . S
O647 C646 1.247 . S
C648 O660 1.242 . S
C648 O661 1.258 . S
C649 C645 1.503 . S
C649 C650 1.379 . S
C649 C654 1.392 . S
C650 C649 1.379 . S
C650 C651 1.404 . S
C650 H664 0.929 . S
C651 C650 1.404 . S
C651 C652 1.389 . S
C652 C651 1.389 . S
C652 C653 1.399 . S
C652 H665 0.931 . S
C653 C652 1.399 . S
C653 C654 1.390 . S
C654 C649 1.392 . S
C654 C653 1.390 . S
C654 H666 0.929 . S
O655 Tb639 2.326 . S
O655 C643 1.242 . S
O656 Eu640 2.324 . S
O656 C643 1.258 . S
O657 Tb639 2.500 . S
O657 C659 1.273 . S
O658 Tb639 2.473 . S
O658 C659 1.257 . S
C659 O657 1.273 . S
C659 O658 1.257 . S
O660 Eu640 2.326 . S
O660 C648 1.242 . S
O661 Tb639 2.324 . S
O661 C648 1.258 . S
O662 Eu640 2.500 . S
O662 C645 1.273 . S
O663 Eu640 2.473 . S
O663 C645 1.257 . S
H664 C650 0.929 . S
H665 C652 0.931 . S
H666 C654 0.929 . S
O667 Tb668 2.292 . S
O667 C670 1.255 . S
Tb668 O667 2.292 . S
Tb668 O684 2.326 . S
Tb668 O686 2.500 . S
Tb668 O687 2.473 . S
Tb668 O690 2.324 . S
Eu669 O673 2.292 . S
Eu669 C674 2.852 . S
Eu669 O685 2.324 . S
Eu669 O689 2.326 . S
Eu669 O691 2.500 . S
Eu669 O692 2.473 . S
C670 O667 1.255 . S
C670 O671 1.247 . S
O671 C670 1.247 . S
C672 O684 1.242 . S
C672 O685 1.258 . S
O673 Eu669 2.292 . S
O673 C675 1.255 . S
C674 Eu669 2.852 . S
C674 C678 1.503 . S
C674 O691 1.273 . S
C674 O692 1.257 . S
C675 O673 1.255 . S
C675 O676 1.247 . S
O676 C675 1.247 . S
C677 O689 1.242 . S
C677 O690 1.258 . S
C678 C674 1.503 . S
C678 C679 1.379 . S
C678 C683 1.392 . S
C679 C678 1.379 . S
C679 C680 1.404 . S
C679 H693 0.929 . S
C680 C679 1.404 . S
C680 C681 1.389 . S
C681 C680 1.389 . S
C681 C682 1.399 . S
C681 H694 0.931 . S
C682 C681 1.399 . S
C682 C683 1.390 . S
C683 C678 1.392 . S
C683 C682 1.390 . S
C683 H695 0.929 . S
O684 Tb668 2.326 . S
O684 C672 1.242 . S
O685 Eu669 2.324 . S
O685 C672 1.258 . S
O686 Tb668 2.500 . S
O686 C688 1.273 . S
O687 Tb668 2.473 . S
O687 C688 1.257 . S
C688 O686 1.273 . S
C688 O687 1.257 . S
O689 Eu669 2.326 . S
O689 C677 1.242 . S
O690 Tb668 2.324 . S
O690 C677 1.258 . S
O691 Eu669 2.500 . S
O691 C674 1.273 . S
O692 Eu669 2.473 . S
O692 C674 1.257 . S
H693 C679 0.929 . S
H694 C681 0.931 . S
H695 C683 0.929 . S
C696 C697 1.391 . S
C696 C698 1.394 . S
C696 H712 0.931 . S
C697 C696 1.391 . S
C697 C701 1.376 . S
C698 C696 1.394 . S
C698 C699 1.369 . S
C698 C702 1.531 . S
C699 C698 1.369 . S
C699 C700 1.410 . S
C699 C707 1.503 . S
C700 C699 1.410 . S
C700 C701 1.392 . S
C700 C703 1.511 . S
C701 C697 1.376 . S
C701 C700 1.392 . S
C701 H713 0.929 . S
C702 C698 1.531 . S
C702 H714 0.960 . S
C702 H715 0.962 . S
C702 H716 0.960 . S
C703 C700 1.511 . S
C703 H717 0.961 . S
C703 H718 0.961 . S
C703 H719 0.961 . S
C704 C705 1.370 . S
C704 C706 1.363 . S
C704 H720 0.931 . S
C705 C704 1.370 . S
C705 C709 1.408 . S
C706 C704 1.363 . S
C706 C707 1.370 . S
C706 C710 1.524 . S
C707 C699 1.503 . S
C707 C706 1.370 . S
C707 C708 1.403 . S
C708 C707 1.403 . S
C708 C709 1.404 . S
C708 C711 1.539 . S
C709 C705 1.408 . S
C709 C708 1.404 . S
C709 H721 0.930 . S
C710 C706 1.524 . S
C710 H722 0.956 . S
C710 H723 0.961 . S
C710 H724 0.961 . S
C711 C708 1.539 . S
C711 H725 0.958 . S
C711 H726 0.961 . S
C711 H727 0.960 . S
H712 C696 0.931 . S
H713 C701 0.929 . S
H714 C702 0.960 . S
H715 C702 0.962 . S
H716 C702 0.960 . S
H717 C703 0.961 . S
H718 C703 0.961 . S
H719 C703 0.961 . S
H720 C704 0.931 . S
H721 C709 0.930 . S
H722 C710 0.956 . S
H723 C710 0.961 . S
H724 C710 0.961 . S
H725 C711 0.958 . S
H726 C711 0.961 . S
H727 C711 0.960 . S
C728 C729 1.391 . S
C728 C730 1.394 . S
C728 H744 0.931 . S
C729 C728 1.391 . S
C729 C733 1.376 . S
C730 C728 1.394 . S
C730 C731 1.369 . S
C730 C734 1.531 1_556 S
C731 C730 1.369 . S
C731 C732 1.410 . S
C731 C739 1.503 1_556 S
C732 C731 1.410 . S
C732 C733 1.392 . S
C732 C735 1.511 . S
C733 C729 1.376 . S
C733 C732 1.392 . S
C733 H745 0.929 . S
C734 C730 1.531 1_554 S
C734 H746 0.960 . S
C734 H747 0.962 . S
C734 H748 0.960 . S
C735 C732 1.511 . S
C735 H749 0.961 . S
C735 H750 0.961 . S
C735 H751 0.961 . S
C736 C737 1.370 . S
C736 C738 1.363 . S
C736 H752 0.931 . S
C737 C736 1.370 . S
C737 C741 1.408 . S
C738 C736 1.363 . S
C738 C739 1.370 . S
C738 C742 1.524 . S
C739 C731 1.503 1_554 S
C739 C738 1.370 . S
C739 C740 1.403 . S
C740 C739 1.403 . S
C740 C741 1.404 . S
C740 C743 1.539 . S
C741 C737 1.408 . S
C741 C740 1.404 . S
C741 H753 0.930 . S
C742 C738 1.524 . S
C742 H754 0.956 . S
C742 H755 0.961 1_554 S
C742 H756 0.961 . S
C743 C740 1.539 . S
C743 H757 0.958 . S
C743 H758 0.961 . S
C743 H759 0.960 1_554 S
H744 C728 0.931 . S
H745 C733 0.929 . S
H746 C734 0.960 . S
H747 C734 0.962 . S
H748 C734 0.960 . S
H749 C735 0.961 . S
H750 C735 0.961 . S
H751 C735 0.961 . S
H752 C736 0.931 . S
H753 C741 0.930 . S
H754 C742 0.956 . S
H755 C742 0.961 1_556 S
H756 C742 0.961 . S
H757 C743 0.958 . S
H758 C743 0.961 . S
H759 C743 0.960 1_556 S
C760 C761 1.391 . S
C760 C762 1.394 . S
C760 H776 0.931 . S
C761 C760 1.391 . S
C761 C765 1.376 1_545 S
C762 C760 1.394 . S
C762 C763 1.369 1_545 S
C762 C766 1.531 . S
C763 C762 1.369 1_565 S
C763 C764 1.410 . S
C763 C771 1.503 . S
C764 C763 1.410 . S
C764 C765 1.392 . S
C764 C767 1.511 . S
C765 C761 1.376 1_565 S
C765 C764 1.392 . S
C765 H777 0.929 . S
C766 C762 1.531 . S
C766 H778 0.960 . S
C766 H779 0.962 . S
C766 H780 0.960 . S
C767 C764 1.511 . S
C767 H781 0.961 . S
C767 H782 0.961 . S
C767 H783 0.961 . S
C768 C769 1.370 . S
C768 C770 1.363 . S
C768 H784 0.931 . S
C769 C768 1.370 . S
C769 C773 1.408 . S
C770 C768 1.363 . S
C770 C771 1.370 . S
C770 C774 1.524 . S
C771 C763 1.503 . S
C771 C770 1.370 . S
C771 C772 1.403 . S
C772 C771 1.403 . S
C772 C773 1.404 . S
C772 C775 1.539 . S
C773 C769 1.408 . S
C773 C772 1.404 . S
C773 H785 0.930 . S
C774 C770 1.524 . S
C774 H786 0.909 1_565 S
C774 H787 0.961 . S
C774 H788 0.961 . S
C775 C772 1.539 . S
C775 H789 0.958 . S
C775 H790 0.961 . S
C775 H791 0.960 . S
H776 C760 0.931 . S
H777 C765 0.929 . S
H778 C766 0.960 . S
H779 C766 0.962 . S
H780 C766 0.960 . S
H781 C767 0.961 . S
H782 C767 0.961 . S
H783 C767 0.961 . S
H784 C768 0.931 . S
H785 C773 0.930 . S
H786 C774 0.909 1_545 S
H787 C774 0.961 . S
H788 C774 0.961 . S
H789 C775 0.958 . S
H790 C775 0.961 . S
H791 C775 0.960 . S
C792 C793 1.391 . S
C792 C794 1.394 . S
C792 H808 0.931 . S
C793 C792 1.391 . S
C793 C797 1.376 . S
C794 C792 1.394 . S
C794 C795 1.369 . S
C794 C798 1.531 . S
C795 C794 1.369 . S
C795 C796 1.410 . S
C795 C803 1.503 1_556 S
C796 C795 1.410 . S
C796 C797 1.392 . S
C796 C799 1.511 1_455 S
C797 C793 1.376 . S
C797 C796 1.392 . S
C797 H809 0.929 . S
C798 C794 1.531 . S
C798 H810 0.960 1_556 S
C798 H811 0.962 1_556 S
C798 H812 0.960 . S
C799 C796 1.511 1_655 S
C799 H813 0.961 . S
C799 H814 0.961 . S
C799 H815 0.961 . S
C800 C801 1.370 . S
C800 C802 1.363 1_655 S
C800 H816 0.929 1_655 S
C801 C800 1.370 . S
C801 C805 1.408 . S
C802 C800 1.363 1_455 S
C802 C803 1.370 . S
C802 C806 1.524 . S
C803 C795 1.503 1_554 S
C803 C802 1.370 . S
C803 C804 1.403 1_455 S
C804 C803 1.403 1_655 S
C804 C805 1.404 . S
C804 C807 1.539 1_554 S
C805 C801 1.408 . S
C805 C804 1.404 . S
C805 H817 0.930 . S
C806 C802 1.524 . S
C806 H818 0.956 . S
C806 H819 0.961 . S
C806 H820 0.961 . S
C807 C804 1.539 1_556 S
C807 H821 0.958 . S
C807 H822 0.961 . S
C807 H823 0.960 . S
H808 C792 0.931 . S
H809 C797 0.929 . S
H810 C798 0.960 1_554 S
H811 C798 0.962 1_554 S
H812 C798 0.960 . S
H813 C799 0.961 . S
H814 C799 0.961 . S
H815 C799 0.961 . S
H816 C800 0.929 1_455 S
H817 C805 0.930 . S
H818 C806 0.956 . S
H819 C806 0.961 . S
H820 C806 0.961 . S
H821 C807 0.958 . S
H822 C807 0.961 . S
H823 C807 0.960 . S
C824 C825 1.391 . S
C824 C826 1.394 . S
C824 H840 0.931 . S
C825 C824 1.391 . S
C825 C829 1.376 . S
C826 C824 1.394 . S
C826 C827 1.369 . S
C826 C830 1.531 1_565 S
C827 C826 1.369 . S
C827 C828 1.410 . S
C827 C835 1.503 1_554 S
C828 C827 1.410 . S
C828 C829 1.392 . S
C828 C831 1.511 1_554 S
C829 C825 1.376 . S
C829 C828 1.392 . S
C829 H841 0.929 . S
C830 C826 1.531 1_545 S
C830 H842 0.960 . S
C830 H843 0.962 . S
C830 H844 0.960 . S
C831 C828 1.511 1_556 S
C831 H845 0.961 . S
C831 H846 0.961 . S
C831 H847 0.961 . S
C832 C833 1.370 . S
C832 C834 1.363 1_545 S
C832 H848 0.931 . S
C833 C832 1.370 . S
C833 C837 1.408 . S
C834 C832 1.363 1_565 S
C834 C835 1.370 . S
C834 C838 1.524 1_556 S
C835 C827 1.503 1_556 S
C835 C834 1.370 . S
C835 C836 1.394 1_565 S
C836 C835 1.394 1_545 S
C836 C837 1.417 . S
C836 C839 1.534 1_545 S
C837 C833 1.408 . S
C837 C836 1.417 . S
C837 H849 0.930 . S
C838 C834 1.524 1_554 S
C838 H850 0.956 . S
C838 H851 0.961 . S
C838 H852 0.961 . S
C839 C836 1.534 1_565 S
C839 H853 0.958 1_565 S
C839 H854 0.961 . S
C839 H855 0.960 . S
H840 C824 0.931 . S
H841 C829 0.929 . S
H842 C830 0.960 . S
H843 C830 0.962 . S
H844 C830 0.960 . S
H845 C831 0.961 . S
H846 C831 0.961 . S
H847 C831 0.961 . S
H848 C832 0.931 . S
H849 C837 0.930 . S
H850 C838 0.956 . S
H851 C838 0.961 . S
H852 C838 0.961 . S
H853 C839 0.958 1_545 S
H854 C839 0.961 . S
H855 C839 0.960 . S
C856 C857 1.391 . S
C856 C858 1.394 . S
C856 H872 0.931 . S
C857 C856 1.391 . S
C857 C861 1.376 . S
C858 C856 1.394 . S
C858 C859 1.369 1_655 S
C858 C862 1.531 . S
C859 C858 1.369 1_455 S
C859 C860 1.410 . S
C859 C867 1.503 . S
C860 C859 1.410 . S
C860 C861 1.392 1_455 S
C860 C863 1.511 . S
C861 C857 1.376 . S
C861 C860 1.392 1_655 S
C861 H873 0.929 . S
C862 C858 1.531 . S
C862 H874 0.960 . S
C862 H875 0.962 1_655 S
C862 H876 0.960 . S
C863 C860 1.511 . S
C863 H877 0.961 . S
C863 H878 0.961 . S
C863 H879 0.961 . S
C864 C865 1.370 . S
C864 C866 1.363 . S
C864 H880 0.931 . S
C865 C864 1.370 . S
C865 C869 1.408 . S
C866 C864 1.363 . S
C866 C867 1.370 . S
C866 C870 1.524 . S
C867 C859 1.503 . S
C867 C866 1.370 . S
C867 C868 1.403 . S
C868 C867 1.403 . S
C868 C869 1.404 . S
C868 C871 1.539 1_455 S
C869 C865 1.408 . S
C869 C868 1.404 . S
C869 H881 0.930 . S
C870 C866 1.524 . S
C870 H882 0.956 . S
C870 H883 0.961 . S
C870 H884 0.961 . S
C871 C868 1.539 1_655 S
C871 H885 0.958 . S
C871 H886 0.961 . S
C871 H887 0.960 . S
H872 C856 0.931 . S
H873 C861 0.929 . S
H874 C862 0.960 . S
H875 C862 0.962 1_455 S
H876 C862 0.960 . S
H877 C863 0.961 . S
H878 C863 0.961 . S
H879 C863 0.961 . S
H880 C864 0.931 . S
H881 C869 0.930 . S
H882 C870 0.956 . S
H883 C870 0.961 . S
H884 C870 0.961 . S
H885 C871 0.958 . S
H886 C871 0.961 . S
H887 C871 0.960 . S
C888 C889 1.391 . S
C888 C890 1.394 . S
C888 H904 0.931 . S
C889 C888 1.391 . S
C889 C893 1.376 . S
C890 C888 1.394 . S
C890 C891 1.369 . S
C890 C894 1.531 . S
C891 C890 1.369 . S
C891 C892 1.410 . S
C891 C899 1.503 1_554 S
C892 C891 1.410 . S
C892 C893 1.392 . S
C892 C895 1.511 1_554 S
C893 C889 1.376 . S
C893 C892 1.392 . S
C893 H905 0.929 . S
C894 C890 1.531 . S
C894 H906 0.960 . S
C894 H907 0.962 . S
C894 H908 0.960 . S
C895 C892 1.511 1_556 S
C895 H909 0.961 . S
C895 H910 0.961 . S
C895 H911 0.961 . S
C896 C897 1.370 . S
C896 C898 1.363 . S
C896 H912 0.931 . S
C897 C896 1.370 . S
C897 C901 1.408 . S
C898 C896 1.363 . S
C898 C899 1.370 . S
C898 C902 1.524 1_556 S
C899 C891 1.503 1_556 S
C899 C898 1.370 . S
C899 C900 1.403 . S
C900 C899 1.403 . S
C900 C901 1.404 . S
C900 C903 1.539 . S
C901 C897 1.408 . S
C901 C900 1.404 . S
C901 H913 0.930 . S
C902 C898 1.524 1_554 S
C902 H914 0.956 . S
C902 H915 0.961 . S
C902 H916 0.961 . S
C903 C900 1.539 . S
C903 H917 0.958 . S
C903 H918 0.961 . S
C903 H919 0.960 . S
H904 C888 0.931 . S
H905 C893 0.929 . S
H906 C894 0.960 . S
H907 C894 0.962 . S
H908 C894 0.960 . S
H909 C895 0.961 . S
H910 C895 0.961 . S
H911 C895 0.961 . S
H912 C896 0.931 . S
H913 C901 0.930 . S
H914 C902 0.956 . S
H915 C902 0.961 . S
H916 C902 0.961 . S
H917 C903 0.958 . S
H918 C903 0.961 . S
H919 C903 0.960 . S
C920 C921 1.391 . S
C920 C922 1.394 . S
C920 H936 0.931 . S
C921 C920 1.391 . S
C921 C925 1.376 . S
C922 C920 1.394 . S
C922 C923 1.369 . S
C922 C926 1.531 . S
C923 C922 1.369 . S
C923 C924 1.410 . S
C923 C931 1.503 . S
C924 C923 1.410 . S
C924 C925 1.392 . S
C924 C927 1.511 . S
C925 C921 1.376 . S
C925 C924 1.392 . S
C925 H937 0.929 . S
C926 C922 1.531 . S
C926 H938 0.960 . S
C926 H939 0.962 . S
C926 H940 0.960 . S
C927 C924 1.511 . S
C927 H941 0.961 . S
C927 H942 0.961 . S
C927 H943 0.961 . S
C928 C929 1.370 . S
C928 C930 1.363 . S
C928 H944 0.931 . S
C929 C928 1.370 . S
C929 C933 1.408 . S
C930 C928 1.363 . S
C930 C931 1.370 . S
C930 C934 1.524 . S
C931 C923 1.503 . S
C931 C930 1.370 . S
C931 C932 1.403 . S
C932 C931 1.403 . S
C932 C933 1.404 . S
C932 C935 1.539 . S
C933 C929 1.408 . S
C933 C932 1.404 . S
C933 H945 0.930 . S
C934 C930 1.524 . S
C934 H946 0.956 . S
C934 H947 0.961 . S
C934 H948 0.961 . S
C935 C932 1.539 . S
C935 H949 0.958 . S
C935 H950 0.961 . S
C935 H951 0.960 . S
H936 C920 0.931 . S
H937 C925 0.929 . S
H938 C926 0.960 . S
H939 C926 0.962 . S
H940 C926 0.960 . S
H941 C927 0.961 . S
H942 C927 0.961 . S
H943 C927 0.961 . S
H944 C928 0.931 . S
H945 C933 0.930 . S
H946 C934 0.956 . S
H947 C934 0.961 . S
H948 C934 0.961 . S
H949 C935 0.958 . S
H950 C935 0.961 . S
H951 C935 0.960 . S
C952 C953 1.391 . S
C952 C954 1.394 . S
C952 H968 0.931 . S
C953 C952 1.391 . S
C953 C957 1.376 . S
C954 C952 1.394 . S
C954 C955 1.369 . S
C954 C958 1.531 . S
C955 C954 1.369 . S
C955 C956 1.410 . S
C955 C963 1.503 . S
C956 C955 1.410 . S
C956 C957 1.392 . S
C956 C959 1.511 . S
C957 C953 1.376 . S
C957 C956 1.392 . S
C957 H969 0.929 . S
C958 C954 1.531 . S
C958 H970 0.960 . S
C958 H971 0.962 . S
C958 H972 0.960 . S
C959 C956 1.511 . S
C959 H973 0.961 . S
C959 H974 0.961 . S
C959 H975 0.961 . S
C960 C961 1.370 . S
C960 C962 1.363 . S
C960 H976 0.931 . S
C961 C960 1.370 . S
C961 C965 1.408 . S
C962 C960 1.363 . S
C962 C963 1.370 . S
C962 C966 1.524 . S
C963 C955 1.503 . S
C963 C962 1.370 . S
C963 C964 1.403 . S
C964 C963 1.403 . S
C964 C965 1.404 . S
C964 C967 1.539 . S
C965 C961 1.408 . S
C965 C964 1.404 . S
C965 H977 0.930 . S
C966 C962 1.524 . S
C966 H978 0.956 . S
C966 H979 0.961 . S
C966 H980 0.961 . S
C967 C964 1.539 . S
C967 H981 0.958 . S
C967 H982 0.961 . S
C967 H983 0.960 . S
H968 C952 0.931 . S
H969 C957 0.929 . S
H970 C958 0.960 . S
H971 C958 0.962 . S
H972 C958 0.960 . S
H973 C959 0.961 . S
H974 C959 0.961 . S
H975 C959 0.961 . S
H976 C960 0.931 . S
H977 C965 0.930 . S
H978 C966 0.956 . S
H979 C966 0.961 . S
H980 C966 0.961 . S
H981 C967 0.958 . S
H982 C967 0.961 . S
H983 C967 0.960 . S
C984 C985 1.391 . S
C984 C986 1.394 . S
C984 H1000 0.931 . S
C985 C984 1.391 . S
C985 C989 1.376 1_556 S
C986 C984 1.394 . S
C986 C987 1.369 1_556 S
C986 C990 1.531 1_545 S
C987 C986 1.369 1_554 S
C987 C988 1.410 . S
C987 C995 1.503 1_545 S
C988 C987 1.410 . S
C988 C989 1.392 . S
C988 C991 1.511 . S
C989 C985 1.376 1_554 S
C989 C988 1.392 . S
C989 H1001 0.929 . S
C990 C986 1.531 1_565 S
C990 H1002 0.960 . S
C990 H1003 0.962 . S
C990 H1004 0.960 . S
C991 C988 1.511 . S
C991 H1005 0.961 . S
C991 H1006 0.961 . S
C991 H1007 0.961 . S
C992 C993 1.370 . S
C992 C994 1.363 . S
C992 H1008 0.931 . S
C993 C992 1.370 . S
C993 C997 1.408 . S
C994 C992 1.363 . S
C994 C995 1.370 . S
C994 C998 1.524 1_565 S
C995 C987 1.503 1_565 S
C995 C994 1.370 . S
C995 C996 1.403 . S
C996 C995 1.403 . S
C996 C997 1.404 . S
C996 C999 1.539 . S
C997 C993 1.408 . S
C997 C996 1.404 . S
C997 H1009 0.930 . S
C998 C994 1.524 1_545 S
C998 H1010 0.956 . S
C998 H1011 0.961 . S
C998 H1012 0.961 . S
C999 C996 1.539 . S
C999 H1013 0.958 . S
C999 H1014 0.961 . S
C999 H1015 0.960 . S
H1000 C984 0.931 . S
H1001 C989 0.929 . S
H1002 C990 0.960 . S
H1003 C990 0.962 . S
H1004 C990 0.960 . S
H1005 C991 0.961 . S
H1006 C991 0.961 . S
H1007 C991 0.961 . S
H1008 C992 0.931 . S
H1009 C997 0.930 . S
H1010 C998 0.956 . S
H1011 C998 0.961 . S
H1012 C998 0.961 . S
H1013 C999 0.958 . S
H1014 C999 0.961 . S
H1015 C999 0.960 . S
C1016 C1017 1.391 . S
C1016 C1018 1.394 . S
C1016 H1032 0.931 . S
C1017 C1016 1.391 . S
C1017 C1021 1.376 . S
C1018 C1016 1.394 . S
C1018 C1019 1.369 . S
C1018 C1022 1.531 . S
C1019 C1018 1.369 . S
C1019 C1020 1.410 . S
C1019 C1027 1.503 1_455 S
C1020 C1019 1.410 . S
C1020 C1021 1.392 . S
C1020 C1023 1.511 1_455 S
C1021 C1017 1.376 . S
C1021 C1020 1.392 . S
C1021 H1033 0.929 . S
C1022 C1018 1.531 . S
C1022 H1034 0.960 . S
C1022 H1035 0.962 . S
C1022 H1036 0.960 . S
C1023 C1020 1.511 1_655 S
C1023 H1037 0.961 . S
C1023 H1038 0.961 . S
C1023 H1039 0.961 . S
C1024 C1025 1.370 . S
C1024 C1026 1.363 . S
C1024 H1040 0.931 . S
C1025 C1024 1.370 . S
C1025 C1029 1.408 . S
C1026 C1024 1.363 . S
C1026 C1027 1.370 . S
C1026 C1030 1.524 . S
C1027 C1019 1.503 1_655 S
C1027 C1026 1.370 . S
C1027 C1028 1.403 . S
C1028 C1027 1.403 . S
C1028 C1029 1.404 . S
C1028 C1031 1.539 . S
C1029 C1025 1.408 . S
C1029 C1028 1.404 . S
C1029 H1041 0.930 . S
C1030 C1026 1.524 . S
C1030 H1042 0.956 1_655 S
C1030 H1043 0.961 . S
C1030 H1044 0.961 . S
C1031 C1028 1.539 . S
C1031 H1045 0.958 1_655 S
C1031 H1046 0.961 . S
C1031 H1047 0.960 1_655 S
H1032 C1016 0.931 . S
H1033 C1021 0.929 . S
H1034 C1022 0.960 . S
H1035 C1022 0.962 . S
H1036 C1022 0.960 . S
H1037 C1023 0.961 . S
H1038 C1023 0.961 . S
H1039 C1023 0.961 . S
H1040 C1024 0.931 . S
H1041 C1029 0.930 . S
H1042 C1030 0.956 1_455 S
H1043 C1030 0.961 . S
H1044 C1030 0.961 . S
H1045 C1031 0.958 1_455 S
H1046 C1031 0.961 . S
H1047 C1031 0.960 1_455 S
C1048 C1049 1.391 . S
C1048 C1050 1.394 1_556 S
C1048 H1064 0.933 . S
C1049 C1048 1.391 . S
C1049 C1053 1.376 . S
C1050 C1048 1.394 1_554 S
C1050 C1051 1.369 . S
C1050 C1054 1.531 . S
C1051 C1050 1.369 . S
C1051 C1052 1.410 1_554 S
C1051 C1059 1.503 . S
C1052 C1051 1.410 1_556 S
C1052 C1053 1.392 . S
C1052 C1055 1.511 . S
C1053 C1049 1.376 . S
C1053 C1052 1.392 . S
C1053 H1065 0.929 . S
C1054 C1050 1.531 . S
C1054 H1066 0.960 . S
C1054 H1067 0.962 . S
C1054 H1068 0.960 . S
C1055 C1052 1.511 . S
C1055 H1069 0.961 . S
C1055 H1070 0.954 1_556 S
C1055 H1071 0.961 1_556 S
C1056 C1057 1.370 . S
C1056 C1058 1.363 . S
C1056 H1072 0.931 . S
C1057 C1056 1.370 . S
C1057 C1061 1.408 . S
C1058 C1056 1.363 . S
C1058 C1059 1.370 . S
C1058 C1062 1.524 1_554 S
C1059 C1051 1.503 . S
C1059 C1058 1.370 . S
C1059 C1060 1.403 . S
C1060 C1059 1.403 . S
C1060 C1061 1.404 . S
C1060 C1063 1.539 . S
C1061 C1057 1.408 . S
C1061 C1060 1.404 . S
C1061 H1073 0.930 . S
C1062 C1058 1.524 1_556 S
C1062 H1074 0.956 . S
C1062 H1075 0.961 . S
C1062 H1076 0.961 . S
C1063 C1060 1.539 . S
C1063 H1077 0.958 . S
C1063 H1078 0.961 . S
C1063 H1079 0.960 . S
H1064 C1048 0.933 . S
H1065 C1053 0.929 . S
H1066 C1054 0.960 . S
H1067 C1054 0.962 . S
H1068 C1054 0.960 . S
H1069 C1055 0.961 . S
H1070 C1055 0.954 1_554 S
H1071 C1055 0.961 1_554 S
H1072 C1056 0.931 . S
H1073 C1061 0.930 . S
H1074 C1062 0.956 . S
H1075 C1062 0.961 . S
H1076 C1062 0.961 . S
H1077 C1063 0.958 . S
H1078 C1063 0.961 . S
H1079 C1063 0.960 . S
C1080 C1081 1.391 1_556 S
C1080 C1082 1.394 . S
C1080 H1096 0.931 . S
C1081 C1080 1.391 1_554 S
C1081 C1085 1.376 . S
C1082 C1080 1.394 . S
C1082 C1083 1.369 . S
C1082 C1086 1.531 . S
C1083 C1082 1.369 . S
C1083 C1084 1.410 1_556 S
C1083 C1091 1.503 . S
C1084 C1083 1.410 1_554 S
C1084 C1085 1.392 . S
C1084 C1087 1.511 . S
C1085 C1081 1.376 . S
C1085 C1084 1.392 . S
C1085 H1097 0.929 . S
C1086 C1082 1.531 . S
C1086 H1098 0.960 . S
C1086 H1099 0.962 . S
C1086 H1100 0.960 . S
C1087 C1084 1.511 . S
C1087 H1101 0.961 . S
C1087 H1102 0.961 . S
C1087 H1103 0.961 . S
C1088 C1089 1.370 . S
C1088 C1090 1.363 . S
C1088 H1104 0.931 . S
C1089 C1088 1.370 . S
C1089 C1093 1.408 . S
C1090 C1088 1.363 . S
C1090 C1091 1.370 . S
C1090 C1094 1.524 . S
C1091 C1083 1.503 . S
C1091 C1090 1.370 . S
C1091 C1092 1.403 . S
C1092 C1091 1.403 . S
C1092 C1093 1.404 . S
C1092 C1095 1.539 . S
C1093 C1089 1.408 . S
C1093 C1092 1.404 . S
C1093 H1105 0.930 . S
C1094 C1090 1.524 . S
C1094 H1106 0.956 . S
C1094 H1107 0.961 . S
C1094 H1108 0.961 . S
C1095 C1092 1.539 . S
C1095 H1109 0.958 . S
C1095 H1110 0.961 1_556 S
C1095 H1111 0.960 1_556 S
H1096 C1080 0.931 . S
H1097 C1085 0.929 . S
H1098 C1086 0.960 . S
H1099 C1086 0.962 . S
H1100 C1086 0.960 . S
H1101 C1087 0.961 . S
H1102 C1087 0.961 . S
H1103 C1087 0.961 . S
H1104 C1088 0.931 . S
H1105 C1093 0.930 . S
H1106 C1094 0.956 . S
H1107 C1094 0.961 . S
H1108 C1094 0.961 . S
H1109 C1095 0.958 . S
H1110 C1095 0.961 1_554 S
H1111 C1095 0.960 1_554 S
C1112 C1113 1.391 . S
C1112 C1114 1.394 . S
C1112 H1128 0.931 . S
C1113 C1112 1.391 . S
C1113 C1117 1.376 . S
C1114 C1112 1.394 . S
C1114 C1115 1.369 . S
C1114 C1118 1.531 . S
C1115 C1114 1.369 . S
C1115 C1116 1.410 . S
C1115 C1123 1.503 1_565 S
C1116 C1115 1.410 . S
C1116 C1117 1.392 . S
C1116 C1119 1.511 1_565 S
C1117 C1113 1.376 . S
C1117 C1116 1.392 . S
C1117 H1129 0.929 . S
C1118 C1114 1.531 . S
C1118 H1130 0.960 . S
C1118 H1131 0.962 . S
C1118 H1132 0.960 . S
C1119 C1116 1.511 1_545 S
C1119 H1133 0.961 . S
C1119 H1134 0.961 . S
C1119 H1135 0.961 . S
C1120 C1121 1.370 . S
C1120 C1122 1.363 . S
C1120 H1136 0.931 . S
C1121 C1120 1.370 . S
C1121 C1125 1.408 . S
C1122 C1120 1.363 . S
C1122 C1123 1.370 . S
C1122 C1126 1.524 1_545 S
C1123 C1115 1.503 1_545 S
C1123 C1122 1.370 . S
C1123 C1124 1.403 . S
C1124 C1123 1.403 . S
C1124 C1125 1.404 . S
C1124 C1127 1.539 . S
C1125 C1121 1.408 . S
C1125 C1124 1.404 . S
C1125 H1137 0.930 . S
C1126 C1122 1.524 1_565 S
C1126 H1138 0.956 . S
C1126 H1139 0.961 . S
C1126 H1140 0.950 1_565 S
C1127 C1124 1.539 . S
C1127 H1141 0.958 . S
C1127 H1142 0.961 . S
C1127 H1143 0.960 . S
H1128 C1112 0.931 . S
H1129 C1117 0.929 . S
H1130 C1118 0.960 . S
H1131 C1118 0.962 . S
H1132 C1118 0.960 . S
H1133 C1119 0.961 . S
H1134 C1119 0.961 . S
H1135 C1119 0.961 . S
H1136 C1120 0.931 . S
H1137 C1125 0.930 . S
H1138 C1126 0.956 . S
H1139 C1126 0.961 . S
H1140 C1126 0.950 1_545 S
H1141 C1127 0.958 . S
H1142 C1127 0.961 . S
H1143 C1127 0.960 . S
C1144 C1145 1.391 . S
C1144 C1146 1.394 . S
C1144 H1160 0.931 . S
C1145 C1144 1.391 . S
C1145 C1149 1.376 1_554 S
C1146 C1144 1.394 . S
C1146 C1147 1.369 1_554 S
C1146 C1150 1.531 1_655 S
C1147 C1146 1.369 1_556 S
C1147 C1148 1.410 . S
C1147 C1155 1.503 1_655 S
C1148 C1147 1.410 . S
C1148 C1149 1.392 . S
C1148 C1151 1.511 . S
C1149 C1145 1.376 1_556 S
C1149 C1148 1.392 . S
C1149 H1161 0.929 . S
C1150 C1146 1.531 1_455 S
C1150 H1162 0.960 . S
C1150 H1163 0.962 . S
C1150 H1164 0.960 . S
C1151 C1148 1.511 . S
C1151 H1165 0.961 . S
C1151 H1166 0.961 . S
C1151 H1167 0.961 . S
C1152 C1153 1.370 . S
C1152 C1154 1.363 . S
C1152 H1168 0.931 . S
C1153 C1152 1.370 . S
C1153 C1157 1.408 . S
C1154 C1152 1.363 . S
C1154 C1155 1.370 . S
C1154 C1158 1.524 1_455 S
C1155 C1147 1.503 1_455 S
C1155 C1154 1.370 . S
C1155 C1156 1.403 . S
C1156 C1155 1.403 . S
C1156 C1157 1.404 . S
C1156 C1159 1.539 . S
C1157 C1153 1.408 . S
C1157 C1156 1.404 . S
C1157 H1169 0.930 . S
C1158 C1154 1.524 1_655 S
C1158 H1170 0.956 . S
C1158 H1171 0.961 . S
C1158 H1172 0.961 . S
C1159 C1156 1.539 . S
C1159 H1173 0.958 1_556 S
C1159 H1174 0.961 . S
C1159 H1175 0.960 . S
H1160 C1144 0.931 . S
H1161 C1149 0.929 . S
H1162 C1150 0.960 . S
H1163 C1150 0.962 . S
H1164 C1150 0.960 . S
H1165 C1151 0.961 . S
H1166 C1151 0.961 . S
H1167 C1151 0.961 . S
H1168 C1152 0.931 . S
H1169 C1157 0.930 . S
H1170 C1158 0.956 . S
H1171 C1158 0.961 . S
H1172 C1158 0.961 . S
H1173 C1159 0.958 1_554 S
H1174 C1159 0.961 . S
H1175 C1159 0.960 . S
C1176 C1177 1.391 . S
C1176 C1178 1.394 . S
C1176 H1192 0.931 . S
C1177 C1176 1.391 . S
C1177 C1181 1.376 . S
C1178 C1176 1.394 . S
C1178 C1179 1.369 . S
C1178 C1182 1.531 . S
C1179 C1178 1.369 . S
C1179 C1180 1.410 . S
C1179 C1187 1.503 . S
C1180 C1179 1.410 . S
C1180 C1181 1.392 . S
C1180 C1183 1.511 . S
C1181 C1177 1.376 . S
C1181 C1180 1.392 . S
C1181 H1193 0.929 . S
C1182 C1178 1.531 . S
C1182 H1194 0.960 . S
C1182 H1195 0.962 . S
C1182 H1196 0.960 . S
C1183 C1180 1.511 . S
C1183 H1197 0.961 . S
C1183 H1198 0.961 . S
C1183 H1199 0.961 . S
C1184 C1185 1.370 . S
C1184 C1186 1.363 . S
C1184 H1200 0.931 . S
C1185 C1184 1.370 . S
C1185 C1189 1.408 . S
C1186 C1184 1.363 . S
C1186 C1187 1.370 . S
C1186 C1190 1.524 . S
C1187 C1179 1.503 . S
C1187 C1186 1.370 . S
C1187 C1188 1.403 . S
C1188 C1187 1.403 . S
C1188 C1189 1.404 . S
C1188 C1191 1.539 . S
C1189 C1185 1.408 . S
C1189 C1188 1.404 . S
C1189 H1201 0.930 . S
C1190 C1186 1.524 . S
C1190 H1202 0.956 . S
C1190 H1203 0.961 . S
C1190 H1204 0.961 . S
C1191 C1188 1.539 . S
C1191 H1205 0.958 . S
C1191 H1206 0.961 . S
C1191 H1207 0.960 . S
H1192 C1176 0.931 . S
H1193 C1181 0.929 . S
H1194 C1182 0.960 . S
H1195 C1182 0.962 . S
H1196 C1182 0.960 . S
H1197 C1183 0.961 . S
H1198 C1183 0.961 . S
H1199 C1183 0.961 . S
H1200 C1184 0.931 . S
H1201 C1189 0.930 . S
H1202 C1190 0.956 . S
H1203 C1190 0.961 . S
H1204 C1190 0.961 . S
H1205 C1191 0.958 . S
H1206 C1191 0.961 . S
H1207 C1191 0.960 . S
C1208 C1209 1.391 . S
C1208 C1210 1.394 . S
C1208 H1224 0.931 . S
C1209 C1208 1.391 . S
C1209 C1213 1.376 . S
C1210 C1208 1.394 . S
C1210 C1211 1.369 . S
C1210 C1214 1.531 . S
C1211 C1210 1.369 . S
C1211 C1212 1.410 . S
C1211 C1219 1.503 . S
C1212 C1211 1.410 . S
C1212 C1213 1.392 . S
C1212 C1215 1.511 . S
C1213 C1209 1.376 . S
C1213 C1212 1.392 . S
C1213 H1225 0.929 . S
C1214 C1210 1.531 . S
C1214 H1226 0.960 . S
C1214 H1227 0.962 . S
C1214 H1228 0.960 . S
C1215 C1212 1.511 . S
C1215 H1229 0.961 . S
C1215 H1230 0.961 . S
C1215 H1231 0.961 . S
C1216 C1217 1.370 . S
C1216 C1218 1.363 . S
C1216 H1232 0.931 . S
C1217 C1216 1.370 . S
C1217 C1221 1.408 . S
C1218 C1216 1.363 . S
C1218 C1219 1.370 . S
C1218 C1222 1.524 . S
C1219 C1211 1.503 . S
C1219 C1218 1.370 . S
C1219 C1220 1.403 . S
C1220 C1219 1.403 . S
C1220 C1221 1.404 . S
C1220 C1223 1.539 . S
C1221 C1217 1.408 . S
C1221 C1220 1.404 . S
C1221 H1233 0.930 . S
C1222 C1218 1.524 . S
C1222 H1234 0.956 . S
C1222 H1235 0.961 . S
C1222 H1236 0.961 . S
C1223 C1220 1.539 . S
C1223 H1237 0.958 . S
C1223 H1238 0.961 . S
C1223 H1239 0.960 . S
H1224 C1208 0.931 . S
H1225 C1213 0.929 . S
H1226 C1214 0.960 . S
H1227 C1214 0.962 . S
H1228 C1214 0.960 . S
H1229 C1215 0.961 . S
H1230 C1215 0.961 . S
H1231 C1215 0.961 . S
H1232 C1216 0.931 . S
H1233 C1221 0.930 . S
H1234 C1222 0.956 . S
H1235 C1222 0.961 . S
H1236 C1222 0.961 . S
H1237 C1223 0.958 . S
H1238 C1223 0.961 . S
H1239 C1223 0.960 . S
C1240 C1241 1.391 . S
C1240 C1242 1.394 . S
C1240 H1256 0.931 . S
C1241 C1240 1.391 . S
C1241 C1245 1.376 . S
C1242 C1240 1.394 . S
C1242 C1243 1.369 . S
C1242 C1246 1.531 . S
C1243 C1242 1.369 . S
C1243 C1244 1.410 . S
C1243 C1251 1.503 1_545 S
C1244 C1243 1.410 . S
C1244 C1245 1.392 . S
C1244 C1247 1.511 1_545 S
C1245 C1241 1.376 . S
C1245 C1244 1.392 . S
C1245 H1257 0.929 . S
C1246 C1242 1.531 . S
C1246 H1258 0.960 . S
C1246 H1259 0.962 . S
C1246 H1260 0.960 . S
C1247 C1244 1.511 1_565 S
C1247 H1261 0.961 . S
C1247 H1262 0.961 . S
C1247 H1263 0.961 . S
C1248 C1249 1.370 . S
C1248 C1250 1.363 . S
C1248 H1264 0.931 . S
C1249 C1248 1.370 . S
C1249 C1253 1.408 . S
C1250 C1248 1.363 . S
C1250 C1251 1.370 . S
C1250 C1254 1.524 . S
C1251 C1243 1.503 1_565 S
C1251 C1250 1.370 . S
C1251 C1252 1.403 . S
C1252 C1251 1.403 . S
C1252 C1253 1.404 . S
C1252 C1255 1.539 1_565 S
C1253 C1249 1.408 . S
C1253 C1252 1.404 . S
C1253 H1265 0.930 . S
C1254 C1250 1.524 . S
C1254 H1266 0.956 . S
C1254 H1267 0.961 . S
C1254 H1268 0.961 . S
C1255 C1252 1.539 1_545 S
C1255 H1269 0.958 . S
C1255 H1270 0.961 1_545 S
C1255 H1271 0.960 . S
H1256 C1240 0.931 . S
H1257 C1245 0.929 . S
H1258 C1246 0.960 . S
H1259 C1246 0.962 . S
H1260 C1246 0.960 . S
H1261 C1247 0.961 . S
H1262 C1247 0.961 . S
H1263 C1247 0.961 . S
H1264 C1248 0.931 . S
H1265 C1253 0.930 . S
H1266 C1254 0.956 . S
H1267 C1254 0.961 . S
H1268 C1254 0.961 . S
H1269 C1255 0.958 . S
H1270 C1255 0.961 1_565 S
H1271 C1255 0.960 . S
C1272 C1273 1.391 . S
C1272 C1274 1.394 . S
C1272 H1288 0.931 . S
C1273 C1272 1.391 . S
C1273 C1277 1.376 . S
C1274 C1272 1.394 . S
C1274 C1275 1.369 . S
C1274 C1278 1.531 1_655 S
C1275 C1274 1.369 . S
C1275 C1276 1.410 . S
C1275 C1283 1.503 1_655 S
C1276 C1275 1.410 . S
C1276 C1277 1.392 . S
C1276 C1279 1.511 1_545 S
C1277 C1273 1.376 . S
C1277 C1276 1.392 . S
C1277 H1289 0.929 . S
C1278 C1274 1.531 1_455 S
C1278 H1290 0.960 . S
C1278 H1291 0.962 . S
C1278 H1292 0.960 . S
C1279 C1276 1.511 1_565 S
C1279 H1293 0.961 . S
C1279 H1294 0.961 . S
C1279 H1295 0.961 . S
C1280 C1281 1.370 . S
C1280 C1282 1.363 . S
C1280 H1296 0.931 . S
C1281 C1280 1.370 . S
C1281 C1285 1.408 . S
C1282 C1280 1.363 . S
C1282 C1283 1.370 1_565 S
C1282 C1286 1.525 . S
C1283 C1275 1.503 1_455 S
C1283 C1282 1.370 1_545 S
C1283 C1284 1.403 . S
C1284 C1283 1.403 . S
C1284 C1285 1.404 1_545 S
C1284 C1287 1.539 . S
C1285 C1281 1.408 . S
C1285 C1284 1.404 1_565 S
C1285 H1297 0.930 . S
C1286 C1282 1.525 . S
C1286 H1298 0.945 1_565 S
C1286 H1299 0.963 1_455 S
C1286 H1300 0.968 . S
C1287 C1284 1.539 . S
C1287 H1301 0.958 . S
C1287 H1302 0.961 . S
C1287 H1303 0.960 1_455 S
H1288 C1272 0.931 . S
H1289 C1277 0.929 . S
H1290 C1278 0.960 . S
H1291 C1278 0.962 . S
H1292 C1278 0.960 . S
H1293 C1279 0.961 . S
H1294 C1279 0.961 . S
H1295 C1279 0.961 . S
H1296 C1280 0.931 . S
H1297 C1285 0.930 . S
H1298 C1286 0.945 1_545 S
H1299 C1286 0.963 1_655 S
H1300 C1286 0.968 . S
H1301 C1287 0.958 . S
H1302 C1287 0.961 . S
H1303 C1287 0.960 1_655 S
C1304 C1305 1.391 . S
C1304 C1306 1.396 1_455 S
C1304 H1320 0.931 . S
C1305 C1304 1.391 . S
C1305 C1309 1.376 . S
C1306 C1304 1.396 1_655 S
C1306 C1307 1.366 . S
C1306 C1310 1.530 . S
C1307 C1306 1.366 . S
C1307 C1308 1.410 . S
C1307 C1315 1.503 . S
C1308 C1307 1.410 . S
C1308 C1309 1.392 1_655 S
C1308 C1311 1.511 . S
C1309 C1305 1.376 . S
C1309 C1308 1.392 1_455 S
C1309 H1321 0.929 . S
C1310 C1306 1.530 . S
C1310 H1322 0.960 . S
C1310 H1323 0.962 1_655 S
C1310 H1324 0.955 1_655 S
C1311 C1308 1.511 . S
C1311 H1325 0.961 . S
C1311 H1326 0.961 . S
C1311 H1327 0.961 . S
C1312 C1313 1.370 . S
C1312 C1314 1.363 . S
C1312 H1328 0.931 . S
C1313 C1312 1.370 . S
C1313 C1317 1.408 . S
C1314 C1312 1.363 . S
C1314 C1315 1.370 . S
C1314 C1318 1.524 1_655 S
C1315 C1307 1.503 . S
C1315 C1314 1.370 . S
C1315 C1316 1.403 . S
C1316 C1315 1.403 . S
C1316 C1317 1.404 . S
C1316 C1319 1.539 . S
C1317 C1313 1.408 . S
C1317 C1316 1.404 . S
C1317 H1329 0.930 . S
C1318 C1314 1.524 1_455 S
C1318 H1330 0.956 . S
C1318 H1331 0.961 . S
C1318 H1332 0.961 . S
C1319 C1316 1.539 . S
C1319 H1333 0.958 . S
C1319 H1334 0.961 . S
C1319 H1335 0.960 . S
H1320 C1304 0.931 . S
H1321 C1309 0.929 . S
H1322 C1310 0.960 . S
H1323 C1310 0.962 1_455 S
H1324 C1310 0.955 1_455 S
H1325 C1311 0.961 . S
H1326 C1311 0.961 . S
H1327 C1311 0.961 . S
H1328 C1312 0.931 . S
H1329 C1317 0.930 . S
H1330 C1318 0.956 . S
H1331 C1318 0.961 . S
H1332 C1318 0.961 . S
H1333 C1319 0.958 . S
H1334 C1319 0.961 . S
H1335 C1319 0.960 . S
C1336 C1337 1.391 . S
C1336 C1338 1.394 . S
C1336 H1352 0.931 . S
C1337 C1336 1.391 . S
C1337 C1341 1.376 . S
C1338 C1336 1.394 . S
C1338 C1339 1.369 . S
C1338 C1342 1.531 . S
C1339 C1338 1.369 . S
C1339 C1340 1.410 . S
C1339 C1347 1.503 . S
C1340 C1339 1.410 . S
C1340 C1341 1.392 . S
C1340 C1343 1.511 . S
C1341 C1337 1.376 . S
C1341 C1340 1.392 . S
C1341 H1353 0.929 . S
C1342 C1338 1.531 . S
C1342 H1354 0.960 . S
C1342 H1355 0.962 . S
C1342 H1356 0.960 . S
C1343 C1340 1.511 . S
C1343 H1357 0.961 . S
C1343 H1358 0.961 . S
C1343 H1359 0.961 . S
C1344 C1345 1.370 . S
C1344 C1346 1.363 . S
C1344 H1360 0.931 . S
C1345 C1344 1.370 . S
C1345 C1349 1.408 . S
C1346 C1344 1.363 . S
C1346 C1347 1.370 . S
C1346 C1350 1.524 . S
C1347 C1339 1.503 . S
C1347 C1346 1.370 . S
C1347 C1348 1.403 . S
C1348 C1347 1.403 . S
C1348 C1349 1.404 . S
C1348 C1351 1.539 . S
C1349 C1345 1.408 . S
C1349 C1348 1.404 . S
C1349 H1361 0.930 . S
C1350 C1346 1.524 . S
C1350 H1362 0.956 . S
C1350 H1363 0.961 . S
C1350 H1364 0.961 . S
C1351 C1348 1.539 . S
C1351 H1365 0.958 . S
C1351 H1366 0.961 . S
C1351 H1367 0.960 . S
H1352 C1336 0.931 . S
H1353 C1341 0.929 . S
H1354 C1342 0.960 . S
H1355 C1342 0.962 . S
H1356 C1342 0.960 . S
H1357 C1343 0.961 . S
H1358 C1343 0.961 . S
H1359 C1343 0.961 . S
H1360 C1344 0.931 . S
H1361 C1349 0.930 . S
H1362 C1350 0.956 . S
H1363 C1350 0.961 . S
H1364 C1350 0.961 . S
H1365 C1351 0.958 . S
H1366 C1351 0.961 . S
H1367 C1351 0.960 . S
C1368 C1369 1.391 . S
C1368 C1370 1.394 1_455 S
C1368 H1384 0.931 . S
C1369 C1368 1.391 . S
C1369 C1373 1.376 . S
C1370 C1368 1.394 1_655 S
C1370 C1371 1.369 . S
C1370 C1374 1.531 . S
C1371 C1370 1.369 . S
C1371 C1372 1.410 1_655 S
C1371 C1379 1.503 1_565 S
C1372 C1371 1.410 1_455 S
C1372 C1373 1.392 . S
C1372 C1375 1.511 . S
C1373 C1369 1.376 . S
C1373 C1372 1.392 . S
C1373 H1385 0.929 . S
C1374 C1370 1.531 . S
C1374 H1386 0.960 . S
C1374 H1387 0.962 1_565 S
C1374 H1388 0.960 . S
C1375 C1372 1.511 . S
C1375 H1389 0.961 . S
C1375 H1390 0.961 1_455 S
C1375 H1391 0.961 1_455 S
C1376 C1377 1.370 . S
C1376 C1378 1.363 . S
C1376 H1392 0.931 . S
C1377 C1376 1.370 . S
C1377 C1381 1.408 . S
C1378 C1376 1.363 . S
C1378 C1379 1.370 . S
C1378 C1382 1.524 1_655 S
C1379 C1371 1.503 1_545 S
C1379 C1378 1.370 . S
C1379 C1380 1.403 . S
C1380 C1379 1.403 . S
C1380 C1381 1.404 . S
C1380 C1383 1.539 1_545 S
C1381 C1377 1.408 . S
C1381 C1380 1.404 . S
C1381 H1393 0.930 . S
C1382 C1378 1.524 1_455 S
C1382 H1394 0.956 . S
C1382 H1395 0.961 . S
C1382 H1396 0.961 . S
C1383 C1380 1.539 1_565 S
C1383 H1397 0.958 . S
C1383 H1398 0.961 . S
C1383 H1399 0.960 . S
H1384 C1368 0.931 . S
H1385 C1373 0.929 . S
H1386 C1374 0.960 . S
H1387 C1374 0.962 1_545 S
H1388 C1374 0.960 . S
H1389 C1375 0.961 . S
H1390 C1375 0.961 1_655 S
H1391 C1375 0.961 1_655 S
H1392 C1376 0.931 . S
H1393 C1381 0.930 . S
H1394 C1382 0.956 . S
H1395 C1382 0.961 . S
H1396 C1382 0.961 . S
H1397 C1383 0.958 . S
H1398 C1383 0.961 . S
H1399 C1383 0.960 . S
C1400 C1401 1.391 . S
C1400 C1402 1.394 . S
C1400 H1416 0.931 . S
C1401 C1400 1.391 . S
C1401 C1405 1.376 . S
C1402 C1400 1.394 . S
C1402 C1403 1.369 . S
C1402 C1406 1.531 . S
C1403 C1402 1.369 . S
C1403 C1404 1.410 . S
C1403 C1411 1.503 1_655 S
C1404 C1403 1.410 . S
C1404 C1405 1.392 . S
C1404 C1407 1.496 1_655 S
C1405 C1401 1.376 . S
C1405 C1404 1.392 . S
C1405 H1417 0.929 . S
C1406 C1402 1.531 . S
C1406 H1418 0.960 . S
C1406 H1419 0.962 . S
C1406 H1420 0.960 . S
C1407 C1404 1.496 1_455 S
C1407 H1421 0.962 . S
C1407 H1422 0.984 . S
C1407 H1423 0.952 1_455 S
C1408 C1409 1.370 . S
C1408 C1410 1.363 . S
C1408 H1424 0.931 . S
C1409 C1408 1.370 . S
C1409 C1413 1.408 . S
C1410 C1408 1.363 . S
C1410 C1411 1.370 . S
C1410 C1414 1.524 . S
C1411 C1403 1.503 1_455 S
C1411 C1410 1.370 . S
C1411 C1412 1.403 . S
C1412 C1411 1.403 . S
C1412 C1413 1.404 . S
C1412 C1415 1.539 1_455 S
C1413 C1409 1.408 . S
C1413 C1412 1.404 . S
C1413 H1425 0.930 . S
C1414 C1410 1.524 . S
C1414 H1426 0.956 . S
C1414 H1427 0.961 . S
C1414 H1428 0.961 . S
C1415 C1412 1.539 1_655 S
C1415 H1429 0.958 . S
C1415 H1430 0.961 . S
C1415 H1431 0.960 . S
H1416 C1400 0.931 . S
H1417 C1405 0.929 . S
H1418 C1406 0.960 . S
H1419 C1406 0.962 . S
H1420 C1406 0.960 . S
H1421 C1407 0.962 . S
H1422 C1407 0.984 . S
H1423 C1407 0.952 1_655 S
H1424 C1408 0.931 . S
H1425 C1413 0.930 . S
H1426 C1414 0.956 . S
H1427 C1414 0.961 . S
H1428 C1414 0.961 . S
H1429 C1415 0.958 . S
H1430 C1415 0.961 . S
H1431 C1415 0.960 . S
C1432 C1433 1.391 . S
C1432 C1434 1.394 1_565 S
C1432 H1448 0.933 . S
C1433 C1432 1.391 . S
C1433 C1437 1.376 . S
C1434 C1432 1.394 1_545 S
C1434 C1435 1.369 . S
C1434 C1438 1.531 . S
C1435 C1434 1.369 . S
C1435 C1436 1.410 1_545 S
C1435 C1443 1.503 . S
C1436 C1435 1.410 1_565 S
C1436 C1437 1.392 . S
C1436 C1439 1.511 . S
C1437 C1433 1.376 . S
C1437 C1436 1.392 . S
C1437 H1449 0.929 . S
C1438 C1434 1.531 . S
C1438 H1450 0.960 . S
C1438 H1451 0.962 . S
C1438 H1452 0.960 . S
C1439 C1436 1.511 . S
C1439 H1453 0.961 . S
C1439 H1454 0.955 1_565 S
C1439 H1455 0.961 1_565 S
C1440 C1441 1.370 . S
C1440 C1442 1.363 . S
C1440 H1456 0.931 . S
C1441 C1440 1.370 . S
C1441 C1445 1.408 . S
C1442 C1440 1.363 . S
C1442 C1443 1.370 . S
C1442 C1446 1.524 1_545 S
C1443 C1435 1.503 . S
C1443 C1442 1.370 . S
C1443 C1444 1.403 . S
C1444 C1443 1.403 . S
C1444 C1445 1.404 . S
C1444 C1447 1.539 . S
C1445 C1441 1.408 . S
C1445 C1444 1.404 . S
C1445 H1457 0.930 . S
C1446 C1442 1.524 1_565 S
C1446 H1458 0.956 . S
C1446 H1459 0.961 . S
C1446 H1460 0.961 . S
C1447 C1444 1.539 . S
C1447 H1461 0.958 . S
C1447 H1462 0.961 . S
C1447 H1463 0.960 . S
H1448 C1432 0.933 . S
H1449 C1437 0.929 . S
H1450 C1438 0.960 . S
H1451 C1438 0.962 . S
H1452 C1438 0.960 . S
H1453 C1439 0.961 . S
H1454 C1439 0.955 1_545 S
H1455 C1439 0.961 1_545 S
H1456 C1440 0.931 . S
H1457 C1445 0.930 . S
H1458 C1446 0.956 . S
H1459 C1446 0.961 . S
H1460 C1446 0.961 . S
H1461 C1447 0.958 . S
H1462 C1447 0.961 . S
H1463 C1447 0.960 . S
C1464 C1465 1.391 . S
C1464 C1466 1.394 . S
C1464 H1480 0.931 . S
C1465 C1464 1.391 . S
C1465 C1469 1.376 . S
C1466 C1464 1.394 . S
C1466 C1467 1.369 . S
C1466 C1470 1.531 . S
C1467 C1466 1.369 . S
C1467 C1468 1.410 . S
C1467 C1475 1.503 . S
C1468 C1467 1.410 . S
C1468 C1469 1.392 . S
C1468 C1471 1.511 . S
C1469 C1465 1.376 . S
C1469 C1468 1.392 . S
C1469 H1481 0.929 . S
C1470 C1466 1.531 . S
C1470 H1482 0.960 . S
C1470 H1483 0.962 . S
C1470 H1484 0.960 . S
C1471 C1468 1.511 . S
C1471 H1485 0.961 . S
C1471 H1486 0.961 . S
C1471 H1487 0.961 . S
C1472 C1473 1.370 . S
C1472 C1474 1.363 . S
C1472 H1488 0.931 . S
C1473 C1472 1.370 . S
C1473 C1477 1.408 . S
C1474 C1472 1.363 . S
C1474 C1475 1.370 . S
C1474 C1478 1.524 . S
C1475 C1467 1.503 . S
C1475 C1474 1.370 . S
C1475 C1476 1.403 . S
C1476 C1475 1.403 . S
C1476 C1477 1.404 . S
C1476 C1479 1.539 . S
C1477 C1473 1.408 . S
C1477 C1476 1.404 . S
C1477 H1489 0.930 . S
C1478 C1474 1.524 . S
C1478 H1490 0.956 . S
C1478 H1491 0.961 . S
C1478 H1492 0.961 . S
C1479 C1476 1.539 . S
C1479 H1493 0.958 . S
C1479 H1494 0.961 . S
C1479 H1495 0.960 . S
H1480 C1464 0.931 . S
H1481 C1469 0.929 . S
H1482 C1470 0.960 . S
H1483 C1470 0.962 . S
H1484 C1470 0.960 . S
H1485 C1471 0.961 . S
H1486 C1471 0.961 . S
H1487 C1471 0.961 . S
H1488 C1472 0.931 . S
H1489 C1477 0.930 . S
H1490 C1478 0.956 . S
H1491 C1478 0.961 . S
H1492 C1478 0.961 . S
H1493 C1479 0.958 . S
H1494 C1479 0.961 . S
H1495 C1479 0.960 . S
C1496 C1497 1.391 . S
C1496 C1498 1.394 . S
C1496 H1512 0.931 . S
C1497 C1496 1.391 . S
C1497 C1501 1.376 . S
C1498 C1496 1.394 . S
C1498 C1499 1.369 . S
C1498 C1502 1.531 . S
C1499 C1498 1.369 . S
C1499 C1500 1.410 . S
C1499 C1507 1.503 . S
C1500 C1499 1.410 . S
C1500 C1501 1.392 . S
C1500 C1503 1.511 . S
C1501 C1497 1.376 . S
C1501 C1500 1.392 . S
C1501 H1513 0.929 . S
C1502 C1498 1.531 . S
C1502 H1514 0.960 . S
C1502 H1515 0.962 . S
C1502 H1516 0.960 . S
C1503 C1500 1.511 . S
C1503 H1517 0.961 . S
C1503 H1518 0.961 . S
C1503 H1519 0.961 . S
C1504 C1505 1.370 . S
C1504 C1506 1.363 . S
C1504 H1520 0.931 . S
C1505 C1504 1.370 . S
C1505 C1509 1.408 . S
C1506 C1504 1.363 . S
C1506 C1507 1.370 . S
C1506 C1510 1.524 . S
C1507 C1499 1.503 . S
C1507 C1506 1.370 . S
C1507 C1508 1.403 . S
C1508 C1507 1.403 . S
C1508 C1509 1.404 . S
C1508 C1511 1.539 . S
C1509 C1505 1.408 . S
C1509 C1508 1.404 . S
C1509 H1521 0.930 . S
C1510 C1506 1.524 . S
C1510 H1522 0.956 . S
C1510 H1523 0.961 . S
C1510 H1524 0.961 . S
C1511 C1508 1.539 . S
C1511 H1525 0.958 . S
C1511 H1526 0.961 . S
C1511 H1527 0.960 . S
H1512 C1496 0.931 . S
H1513 C1501 0.929 . S
H1514 C1502 0.960 . S
H1515 C1502 0.962 . S
H1516 C1502 0.960 . S
H1517 C1503 0.961 . S
H1518 C1503 0.961 . S
H1519 C1503 0.961 . S
H1520 C1504 0.931 . S
H1521 C1509 0.930 . S
H1522 C1510 0.956 . S
H1523 C1510 0.961 . S
H1524 C1510 0.961 . S
H1525 C1511 0.958 . S
H1526 C1511 0.961 . S
H1527 C1511 0.960 . S
C1528 C1529 1.391 . S
C1528 C1530 1.394 . S
C1528 H1544 0.931 . S
C1529 C1528 1.391 . S
C1529 C1533 1.376 . S
C1530 C1528 1.394 . S
C1530 C1531 1.369 . S
C1530 C1534 1.531 . S
C1531 C1530 1.369 . S
C1531 C1532 1.410 . S
C1531 C1539 1.503 . S
C1532 C1531 1.410 . S
C1532 C1533 1.392 . S
C1532 C1535 1.511 . S
C1533 C1529 1.376 . S
C1533 C1532 1.392 . S
C1533 H1545 0.929 . S
C1534 C1530 1.531 . S
C1534 H1546 0.960 . S
C1534 H1547 0.962 . S
C1534 H1548 0.960 . S
C1535 C1532 1.511 . S
C1535 H1549 0.961 . S
C1535 H1550 0.961 . S
C1535 H1551 0.961 . S
C1536 C1537 1.370 . S
C1536 C1538 1.363 . S
C1536 H1552 0.931 . S
C1537 C1536 1.370 . S
C1537 C1541 1.408 . S
C1538 C1536 1.363 . S
C1538 C1539 1.370 . S
C1538 C1542 1.524 . S
C1539 C1531 1.503 . S
C1539 C1538 1.370 . S
C1539 C1540 1.403 . S
C1540 C1539 1.403 . S
C1540 C1541 1.404 . S
C1540 C1543 1.539 . S
C1541 C1537 1.408 . S
C1541 C1540 1.404 . S
C1541 H1553 0.930 . S
C1542 C1538 1.524 . S
C1542 H1554 0.956 . S
C1542 H1555 0.961 . S
C1542 H1556 0.961 . S
C1543 C1540 1.539 . S
C1543 H1557 0.958 . S
C1543 H1558 0.961 . S
C1543 H1559 0.960 . S
H1544 C1528 0.931 . S
H1545 C1533 0.929 . S
H1546 C1534 0.960 . S
H1547 C1534 0.962 . S
H1548 C1534 0.960 . S
H1549 C1535 0.961 . S
H1550 C1535 0.961 . S
H1551 C1535 0.961 . S
H1552 C1536 0.931 . S
H1553 C1541 0.930 . S
H1554 C1542 0.956 . S
H1555 C1542 0.961 . S
H1556 C1542 0.961 . S
H1557 C1543 0.958 . S
H1558 C1543 0.961 . S
H1559 C1543 0.960 . S
C1560 C1561 1.391 . S
C1560 C1562 1.394 . S
C1560 H1576 0.931 . S
C1561 C1560 1.391 . S
C1561 C1565 1.376 . S
C1562 C1560 1.394 . S
C1562 C1563 1.369 . S
C1562 C1566 1.531 . S
C1563 C1562 1.369 . S
C1563 C1564 1.410 . S
C1563 C1571 1.503 . S
C1564 C1563 1.410 . S
C1564 C1565 1.392 . S
C1564 C1567 1.511 . S
C1565 C1561 1.376 . S
C1565 C1564 1.392 . S
C1565 H1577 0.929 . S
C1566 C1562 1.531 . S
C1566 H1578 0.960 . S
C1566 H1579 0.962 . S
C1566 H1580 0.960 . S
C1567 C1564 1.511 . S
C1567 H1581 0.961 . S
C1567 H1582 0.961 . S
C1567 H1583 0.961 . S
C1568 C1569 1.370 . S
C1568 C1570 1.363 . S
C1568 H1584 0.931 . S
C1569 C1568 1.370 . S
C1569 C1573 1.408 . S
C1570 C1568 1.363 . S
C1570 C1571 1.370 . S
C1570 C1574 1.524 . S
C1571 C1563 1.503 . S
C1571 C1570 1.370 . S
C1571 C1572 1.403 . S
C1572 C1571 1.403 . S
C1572 C1573 1.404 . S
C1572 C1575 1.539 . S
C1573 C1569 1.408 . S
C1573 C1572 1.404 . S
C1573 H1585 0.930 . S
C1574 C1570 1.524 . S
C1574 H1586 0.956 . S
C1574 H1587 0.961 . S
C1574 H1588 0.961 . S
C1575 C1572 1.539 . S
C1575 H1589 0.958 . S
C1575 H1590 0.961 . S
C1575 H1591 0.960 . S
H1576 C1560 0.931 . S
H1577 C1565 0.929 . S
H1578 C1566 0.960 . S
H1579 C1566 0.962 . S
H1580 C1566 0.960 . S
H1581 C1567 0.961 . S
H1582 C1567 0.961 . S
H1583 C1567 0.961 . S
H1584 C1568 0.931 . S
H1585 C1573 0.930 . S
H1586 C1574 0.956 . S
H1587 C1574 0.961 . S
H1588 C1574 0.961 . S
H1589 C1575 0.958 . S
H1590 C1575 0.961 . S
H1591 C1575 0.960 . S
C1592 C1593 1.391 . S
C1592 C1594 1.394 . S
C1592 H1608 0.931 . S
C1593 C1592 1.391 . S
C1593 C1597 1.376 . S
C1594 C1592 1.394 . S
C1594 C1595 1.369 . S
C1594 C1598 1.531 . S
C1595 C1594 1.369 . S
C1595 C1596 1.410 . S
C1595 C1603 1.503 . S
C1596 C1595 1.410 . S
C1596 C1597 1.392 . S
C1596 C1599 1.511 . S
C1597 C1593 1.376 . S
C1597 C1596 1.392 . S
C1597 H1609 0.929 . S
C1598 C1594 1.531 . S
C1598 H1610 0.960 . S
C1598 H1611 0.962 . S
C1598 H1612 0.960 . S
C1599 C1596 1.511 . S
C1599 H1613 0.961 . S
C1599 H1614 0.961 . S
C1599 H1615 0.961 . S
C1600 C1601 1.370 . S
C1600 C1602 1.363 . S
C1600 H1616 0.931 . S
C1601 C1600 1.370 . S
C1601 C1605 1.408 . S
C1602 C1600 1.363 . S
C1602 C1603 1.370 . S
C1602 C1606 1.524 . S
C1603 C1595 1.503 . S
C1603 C1602 1.370 . S
C1603 C1604 1.403 . S
C1604 C1603 1.403 . S
C1604 C1605 1.404 . S
C1604 C1607 1.539 . S
C1605 C1601 1.408 . S
C1605 C1604 1.404 . S
C1605 H1617 0.930 . S
C1606 C1602 1.524 . S
C1606 H1618 0.956 . S
C1606 H1619 0.961 . S
C1606 H1620 0.961 . S
C1607 C1604 1.539 . S
C1607 H1621 0.958 . S
C1607 H1622 0.961 . S
C1607 H1623 0.960 . S
H1608 C1592 0.931 . S
H1609 C1597 0.929 . S
H1610 C1598 0.960 . S
H1611 C1598 0.962 . S
H1612 C1598 0.960 . S
H1613 C1599 0.961 . S
H1614 C1599 0.961 . S
H1615 C1599 0.961 . S
H1616 C1600 0.931 . S
H1617 C1605 0.930 . S
H1618 C1606 0.956 . S
H1619 C1606 0.961 . S
H1620 C1606 0.961 . S
H1621 C1607 0.958 . S
H1622 C1607 0.961 . S
H1623 C1607 0.960 . S
C1624 C1625 1.391 . S
C1624 C1626 1.394 . S
C1624 H1640 0.931 . S
C1625 C1624 1.391 . S
C1625 C1629 1.376 . S
C1626 C1624 1.394 . S
C1626 C1627 1.369 . S
C1626 C1630 1.531 . S
C1627 C1626 1.369 . S
C1627 C1628 1.410 . S
C1627 C1635 1.503 . S
C1628 C1627 1.410 . S
C1628 C1629 1.392 . S
C1628 C1631 1.511 . S
C1629 C1625 1.376 . S
C1629 C1628 1.392 . S
C1629 H1641 0.929 . S
C1630 C1626 1.531 . S
C1630 H1642 0.960 . S
C1630 H1643 0.962 . S
C1630 H1644 0.960 . S
C1631 C1628 1.511 . S
C1631 H1645 0.961 . S
C1631 H1646 0.961 . S
C1631 H1647 0.961 . S
C1632 C1633 1.370 . S
C1632 C1634 1.363 . S
C1632 H1648 0.931 . S
C1633 C1632 1.370 . S
C1633 C1637 1.408 . S
C1634 C1632 1.363 . S
C1634 C1635 1.370 . S
C1634 C1638 1.524 . S
C1635 C1627 1.503 . S
C1635 C1634 1.370 . S
C1635 C1636 1.403 . S
C1636 C1635 1.403 . S
C1636 C1637 1.404 . S
C1636 C1639 1.539 . S
C1637 C1633 1.408 . S
C1637 C1636 1.404 . S
C1637 H1649 0.930 . S
C1638 C1634 1.524 . S
C1638 H1650 0.956 . S
C1638 H1651 0.961 . S
C1638 H1652 0.961 . S
C1639 C1636 1.539 . S
C1639 H1653 0.958 . S
C1639 H1654 0.961 . S
C1639 H1655 0.960 . S
H1640 C1624 0.931 . S
H1641 C1629 0.929 . S
H1642 C1630 0.960 . S
H1643 C1630 0.962 . S
H1644 C1630 0.960 . S
H1645 C1631 0.961 . S
H1646 C1631 0.961 . S
H1647 C1631 0.961 . S
H1648 C1632 0.931 . S
H1649 C1637 0.930 . S
H1650 C1638 0.956 . S
H1651 C1638 0.961 . S
H1652 C1638 0.961 . S
H1653 C1639 0.958 . S
H1654 C1639 0.961 . S
H1655 C1639 0.960 . S
C1656 C1657 1.391 . S
C1656 C1658 1.394 . S
C1656 H1672 0.931 . S
C1657 C1656 1.391 . S
C1657 C1661 1.376 . S
C1658 C1656 1.394 . S
C1658 C1659 1.369 . S
C1658 C1662 1.531 . S
C1659 C1658 1.369 . S
C1659 C1660 1.410 . S
C1659 C1667 1.503 . S
C1660 C1659 1.410 . S
C1660 C1661 1.392 . S
C1660 C1663 1.511 . S
C1661 C1657 1.376 . S
C1661 C1660 1.392 . S
C1661 H1673 0.929 . S
C1662 C1658 1.531 . S
C1662 H1674 0.960 . S
C1662 H1675 0.962 . S
C1662 H1676 0.960 . S
C1663 C1660 1.511 . S
C1663 H1677 0.961 . S
C1663 H1678 0.961 . S
C1663 H1679 0.961 . S
C1664 C1665 1.370 . S
C1664 C1666 1.363 . S
C1664 H1680 0.931 . S
C1665 C1664 1.370 . S
C1665 C1669 1.408 . S
C1666 C1664 1.363 . S
C1666 C1667 1.370 . S
C1666 C1670 1.524 . S
C1667 C1659 1.503 . S
C1667 C1666 1.370 . S
C1667 C1668 1.403 . S
C1668 C1667 1.403 . S
C1668 C1669 1.404 . S
C1668 C1671 1.539 . S
C1669 C1665 1.408 . S
C1669 C1668 1.404 . S
C1669 H1681 0.930 . S
C1670 C1666 1.524 . S
C1670 H1682 0.956 . S
C1670 H1683 0.961 . S
C1670 H1684 0.961 . S
C1671 C1668 1.539 . S
C1671 H1685 0.958 . S
C1671 H1686 0.961 . S
C1671 H1687 0.960 . S
H1672 C1656 0.931 . S
H1673 C1661 0.929 . S
H1674 C1662 0.960 . S
H1675 C1662 0.962 . S
H1676 C1662 0.960 . S
H1677 C1663 0.961 . S
H1678 C1663 0.961 . S
H1679 C1663 0.961 . S
H1680 C1664 0.931 . S
H1681 C1669 0.930 . S
H1682 C1670 0.956 . S
H1683 C1670 0.961 . S
H1684 C1670 0.961 . S
H1685 C1671 0.958 . S
H1686 C1671 0.961 . S
H1687 C1671 0.960 . S
C1688 C1689 1.391 . S
C1688 C1690 1.394 . S
C1688 H1704 0.931 . S
C1689 C1688 1.391 . S
C1689 C1693 1.376 . S
C1690 C1688 1.394 . S
C1690 C1691 1.369 . S
C1690 C1694 1.531 . S
C1691 C1690 1.369 . S
C1691 C1692 1.410 . S
C1691 C1699 1.503 . S
C1692 C1691 1.410 . S
C1692 C1693 1.392 . S
C1692 C1695 1.511 . S
C1693 C1689 1.376 . S
C1693 C1692 1.392 . S
C1693 H1705 0.929 . S
C1694 C1690 1.531 . S
C1694 H1706 0.960 . S
C1694 H1707 0.962 . S
C1694 H1708 0.960 . S
C1695 C1692 1.511 . S
C1695 H1709 0.961 . S
C1695 H1710 0.961 . S
C1695 H1711 0.961 . S
C1696 C1697 1.370 . S
C1696 C1698 1.363 . S
C1696 H1712 0.931 . S
C1697 C1696 1.370 . S
C1697 C1701 1.408 . S
C1698 C1696 1.363 . S
C1698 C1699 1.370 . S
C1698 C1702 1.524 . S
C1699 C1691 1.503 . S
C1699 C1698 1.370 . S
C1699 C1700 1.403 . S
C1700 C1699 1.403 . S
C1700 C1701 1.404 . S
C1700 C1703 1.539 . S
C1701 C1697 1.408 . S
C1701 C1700 1.404 . S
C1701 H1713 0.930 . S
C1702 C1698 1.524 . S
C1702 H1714 0.956 . S
C1702 H1715 0.961 . S
C1702 H1716 0.961 . S
C1703 C1700 1.539 . S
C1703 H1717 0.958 . S
C1703 H1718 0.961 . S
C1703 H1719 0.960 . S
H1704 C1688 0.931 . S
H1705 C1693 0.929 . S
H1706 C1694 0.960 . S
H1707 C1694 0.962 . S
H1708 C1694 0.960 . S
H1709 C1695 0.961 . S
H1710 C1695 0.961 . S
H1711 C1695 0.961 . S
H1712 C1696 0.931 . S
H1713 C1701 0.930 . S
H1714 C1702 0.956 . S
H1715 C1702 0.961 . S
H1716 C1702 0.961 . S
H1717 C1703 0.958 . S
H1718 C1703 0.961 . S
H1719 C1703 0.960 . S
C1720 C1721 1.391 . S
C1720 C1722 1.394 . S
C1720 H1736 0.931 . S
C1721 C1720 1.391 . S
C1721 C1725 1.376 . S
C1722 C1720 1.394 . S
C1722 C1723 1.369 . S
C1722 C1726 1.531 . S
C1723 C1722 1.369 . S
C1723 C1724 1.410 . S
C1723 C1731 1.503 . S
C1724 C1723 1.410 . S
C1724 C1725 1.392 . S
C1724 C1727 1.511 . S
C1725 C1721 1.376 . S
C1725 C1724 1.392 . S
C1725 H1737 0.929 . S
C1726 C1722 1.531 . S
C1726 H1738 0.960 . S
C1726 H1739 0.962 . S
C1726 H1740 0.960 . S
C1727 C1724 1.511 . S
C1727 H1741 0.961 . S
C1727 H1742 0.961 . S
C1727 H1743 0.961 . S
C1728 C1729 1.370 . S
C1728 C1730 1.363 . S
C1728 H1744 0.931 . S
C1729 C1728 1.370 . S
C1729 C1733 1.408 . S
C1730 C1728 1.363 . S
C1730 C1731 1.370 . S
C1730 C1734 1.524 . S
C1731 C1723 1.503 . S
C1731 C1730 1.370 . S
C1731 C1732 1.403 . S
C1732 C1731 1.403 . S
C1732 C1733 1.404 . S
C1732 C1735 1.539 . S
C1733 C1729 1.408 . S
C1733 C1732 1.404 . S
C1733 H1745 0.930 . S
C1734 C1730 1.524 . S
C1734 H1746 0.956 . S
C1734 H1747 0.961 . S
C1734 H1748 0.961 . S
C1735 C1732 1.539 . S
C1735 H1749 0.958 . S
C1735 H1750 0.961 . S
C1735 H1751 0.960 . S
H1736 C1720 0.931 . S
H1737 C1725 0.929 . S
H1738 C1726 0.960 . S
H1739 C1726 0.962 . S
H1740 C1726 0.960 . S
H1741 C1727 0.961 . S
H1742 C1727 0.961 . S
H1743 C1727 0.961 . S
H1744 C1728 0.931 . S
H1745 C1733 0.930 . S
H1746 C1734 0.956 . S
H1747 C1734 0.961 . S
H1748 C1734 0.961 . S
H1749 C1735 0.958 . S
H1750 C1735 0.961 . S
H1751 C1735 0.960 . S
C1752 C1753 1.391 . S
C1752 C1754 1.394 . S
C1752 H1768 0.931 . S
C1753 C1752 1.391 . S
C1753 C1757 1.376 . S
C1754 C1752 1.394 . S
C1754 C1755 1.369 . S
C1754 C1758 1.531 . S
C1755 C1754 1.369 . S
C1755 C1756 1.410 . S
C1755 C1763 1.503 . S
C1756 C1755 1.410 . S
C1756 C1757 1.392 . S
C1756 C1759 1.511 . S
C1757 C1753 1.376 . S
C1757 C1756 1.392 . S
C1757 H1769 0.929 . S
C1758 C1754 1.531 . S
C1758 H1770 0.960 . S
C1758 H1771 0.962 . S
C1758 H1772 0.960 . S
C1759 C1756 1.511 . S
C1759 H1773 0.961 . S
C1759 H1774 0.961 . S
C1759 H1775 0.961 . S
C1760 C1761 1.370 . S
C1760 C1762 1.363 . S
C1760 H1776 0.931 . S
C1761 C1760 1.370 . S
C1761 C1765 1.408 . S
C1762 C1760 1.363 . S
C1762 C1763 1.370 . S
C1762 C1766 1.524 . S
C1763 C1755 1.503 . S
C1763 C1762 1.370 . S
C1763 C1764 1.403 . S
C1764 C1763 1.403 . S
C1764 C1765 1.404 . S
C1764 C1767 1.539 . S
C1765 C1761 1.408 . S
C1765 C1764 1.404 . S
C1765 H1777 0.930 . S
C1766 C1762 1.524 . S
C1766 H1778 0.956 . S
C1766 H1779 0.961 . S
C1766 H1780 0.961 . S
C1767 C1764 1.539 . S
C1767 H1781 0.958 . S
C1767 H1782 0.961 . S
C1767 H1783 0.960 . S
H1768 C1752 0.931 . S
H1769 C1757 0.929 . S
H1770 C1758 0.960 . S
H1771 C1758 0.962 . S
H1772 C1758 0.960 . S
H1773 C1759 0.961 . S
H1774 C1759 0.961 . S
H1775 C1759 0.961 . S
H1776 C1760 0.931 . S
H1777 C1765 0.930 . S
H1778 C1766 0.956 . S
H1779 C1766 0.961 . S
H1780 C1766 0.961 . S
H1781 C1767 0.958 . S
H1782 C1767 0.961 . S
H1783 C1767 0.960 . S
C1784 C1785 1.391 . S
C1784 C1786 1.394 . S
C1784 H1800 0.931 . S
C1785 C1784 1.391 . S
C1785 C1789 1.376 . S
C1786 C1784 1.394 . S
C1786 C1787 1.369 . S
C1786 C1790 1.531 . S
C1787 C1786 1.369 . S
C1787 C1788 1.410 . S
C1787 C1795 1.503 . S
C1788 C1787 1.410 . S
C1788 C1789 1.392 . S
C1788 C1791 1.511 . S
C1789 C1785 1.376 . S
C1789 C1788 1.392 . S
C1789 H1801 0.929 . S
C1790 C1786 1.531 . S
C1790 H1802 0.960 . S
C1790 H1803 0.962 . S
C1790 H1804 0.960 . S
C1791 C1788 1.511 . S
C1791 H1805 0.961 . S
C1791 H1806 0.961 . S
C1791 H1807 0.961 . S
C1792 C1793 1.370 . S
C1792 C1794 1.363 . S
C1792 H1808 0.931 . S
C1793 C1792 1.370 . S
C1793 C1797 1.408 . S
C1794 C1792 1.363 . S
C1794 C1795 1.370 . S
C1794 C1798 1.524 . S
C1795 C1787 1.503 . S
C1795 C1794 1.370 . S
C1795 C1796 1.403 . S
C1796 C1795 1.403 . S
C1796 C1797 1.404 . S
C1796 C1799 1.539 . S
C1797 C1793 1.408 . S
C1797 C1796 1.404 . S
C1797 H1809 0.930 . S
C1798 C1794 1.524 . S
C1798 H1810 0.956 . S
C1798 H1811 0.961 . S
C1798 H1812 0.961 . S
C1799 C1796 1.539 . S
C1799 H1813 0.958 . S
C1799 H1814 0.961 . S
C1799 H1815 0.960 . S
H1800 C1784 0.931 . S
H1801 C1789 0.929 . S
H1802 C1790 0.960 . S
H1803 C1790 0.962 . S
H1804 C1790 0.960 . S
H1805 C1791 0.961 . S
H1806 C1791 0.961 . S
H1807 C1791 0.961 . S
H1808 C1792 0.931 . S
H1809 C1797 0.930 . S
H1810 C1798 0.956 . S
H1811 C1798 0.961 . S
H1812 C1798 0.961 . S
H1813 C1799 0.958 . S
H1814 C1799 0.961 . S
H1815 C1799 0.960 . S
C1816 C1817 1.391 . S
C1816 C1818 1.394 . S
C1816 H1832 0.931 . S
C1817 C1816 1.391 . S
C1817 C1821 1.376 . S
C1818 C1816 1.394 . S
C1818 C1819 1.369 . S
C1818 C1822 1.531 . S
C1819 C1818 1.369 . S
C1819 C1820 1.410 . S
C1819 C1827 1.503 . S
C1820 C1819 1.410 . S
C1820 C1821 1.392 . S
C1820 C1823 1.511 . S
C1821 C1817 1.376 . S
C1821 C1820 1.392 . S
C1821 H1833 0.929 . S
C1822 C1818 1.531 . S
C1822 H1834 0.960 . S
C1822 H1835 0.962 . S
C1822 H1836 0.960 . S
C1823 C1820 1.511 . S
C1823 H1837 0.961 . S
C1823 H1838 0.961 . S
C1823 H1839 0.961 . S
C1824 C1825 1.370 . S
C1824 C1826 1.363 . S
C1824 H1840 0.931 . S
C1825 C1824 1.370 . S
C1825 C1829 1.408 . S
C1826 C1824 1.363 . S
C1826 C1827 1.370 . S
C1826 C1830 1.524 . S
C1827 C1819 1.503 . S
C1827 C1826 1.370 . S
C1827 C1828 1.403 . S
C1828 C1827 1.403 . S
C1828 C1829 1.404 . S
C1828 C1831 1.539 . S
C1829 C1825 1.408 . S
C1829 C1828 1.404 . S
C1829 H1841 0.930 . S
C1830 C1826 1.524 . S
C1830 H1842 0.956 . S
C1830 H1843 0.961 . S
C1830 H1844 0.961 . S
C1831 C1828 1.539 . S
C1831 H1845 0.958 . S
C1831 H1846 0.961 . S
C1831 H1847 0.960 . S
H1832 C1816 0.931 . S
H1833 C1821 0.929 . S
H1834 C1822 0.960 . S
H1835 C1822 0.962 . S
H1836 C1822 0.960 . S
H1837 C1823 0.961 . S
H1838 C1823 0.961 . S
H1839 C1823 0.961 . S
H1840 C1824 0.931 . S
H1841 C1829 0.930 . S
H1842 C1830 0.956 . S
H1843 C1830 0.961 . S
H1844 C1830 0.961 . S
H1845 C1831 0.958 . S
H1846 C1831 0.961 . S
H1847 C1831 0.960 . S
C1848 C1849 1.391 . S
C1848 C1850 1.394 . S
C1848 H1864 0.931 . S
C1849 C1848 1.391 . S
C1849 C1853 1.376 . S
C1850 C1848 1.394 . S
C1850 C1851 1.369 . S
C1850 C1854 1.531 . S
C1851 C1850 1.369 . S
C1851 C1852 1.410 . S
C1851 C1859 1.503 . S
C1852 C1851 1.410 . S
C1852 C1853 1.392 . S
C1852 C1855 1.511 . S
C1853 C1849 1.376 . S
C1853 C1852 1.392 . S
C1853 H1865 0.929 . S
C1854 C1850 1.531 . S
C1854 H1866 0.960 . S
C1854 H1867 0.962 . S
C1854 H1868 0.960 . S
C1855 C1852 1.511 . S
C1855 H1869 0.961 . S
C1855 H1870 0.961 . S
C1855 H1871 0.961 . S
C1856 C1857 1.370 . S
C1856 C1858 1.363 . S
C1856 H1872 0.931 . S
C1857 C1856 1.370 . S
C1857 C1861 1.408 . S
C1858 C1856 1.363 . S
C1858 C1859 1.370 . S
C1858 C1862 1.524 . S
C1859 C1851 1.503 . S
C1859 C1858 1.370 . S
C1859 C1860 1.403 . S
C1860 C1859 1.403 . S
C1860 C1861 1.404 . S
C1860 C1863 1.539 . S
C1861 C1857 1.408 . S
C1861 C1860 1.404 . S
C1861 H1873 0.930 . S
C1862 C1858 1.524 . S
C1862 H1874 0.956 . S
C1862 H1875 0.961 . S
C1862 H1876 0.961 . S
C1863 C1860 1.539 . S
C1863 H1877 0.958 . S
C1863 H1878 0.961 . S
C1863 H1879 0.960 . S
H1864 C1848 0.931 . S
H1865 C1853 0.929 . S
H1866 C1854 0.960 . S
H1867 C1854 0.962 . S
H1868 C1854 0.960 . S
H1869 C1855 0.961 . S
H1870 C1855 0.961 . S
H1871 C1855 0.961 . S
H1872 C1856 0.931 . S
H1873 C1861 0.930 . S
H1874 C1862 0.956 . S
H1875 C1862 0.961 . S
H1876 C1862 0.961 . S
H1877 C1863 0.958 . S
H1878 C1863 0.961 . S
H1879 C1863 0.960 . S
C1880 C1881 1.391 . S
C1880 C1882 1.394 . S
C1880 H1896 0.931 . S
C1881 C1880 1.391 . S
C1881 C1885 1.376 . S
C1882 C1880 1.394 . S
C1882 C1883 1.369 . S
C1882 C1886 1.531 . S
C1883 C1882 1.369 . S
C1883 C1884 1.410 . S
C1883 C1891 1.503 . S
C1884 C1883 1.410 . S
C1884 C1885 1.392 . S
C1884 C1887 1.511 . S
C1885 C1881 1.376 . S
C1885 C1884 1.392 . S
C1885 H1897 0.929 . S
C1886 C1882 1.531 . S
C1886 H1898 0.960 . S
C1886 H1899 0.962 . S
C1886 H1900 0.960 . S
C1887 C1884 1.511 . S
C1887 H1901 0.961 . S
C1887 H1902 0.961 . S
C1887 H1903 0.961 . S
C1888 C1889 1.370 . S
C1888 C1890 1.363 . S
C1888 H1904 0.931 . S
C1889 C1888 1.370 . S
C1889 C1893 1.408 . S
C1890 C1888 1.363 . S
C1890 C1891 1.370 . S
C1890 C1894 1.524 . S
C1891 C1883 1.503 . S
C1891 C1890 1.370 . S
C1891 C1892 1.403 . S
C1892 C1891 1.403 . S
C1892 C1893 1.404 . S
C1892 C1895 1.539 . S
C1893 C1889 1.408 . S
C1893 C1892 1.404 . S
C1893 H1905 0.930 . S
C1894 C1890 1.524 . S
C1894 H1906 0.956 . S
C1894 H1907 0.961 . S
C1894 H1908 0.961 . S
C1895 C1892 1.539 . S
C1895 H1909 0.958 . S
C1895 H1910 0.961 . S
C1895 H1911 0.960 . S
H1896 C1880 0.931 . S
H1897 C1885 0.929 . S
H1898 C1886 0.960 . S
H1899 C1886 0.962 . S
H1900 C1886 0.960 . S
H1901 C1887 0.961 . S
H1902 C1887 0.961 . S
H1903 C1887 0.961 . S
H1904 C1888 0.931 . S
H1905 C1893 0.930 . S
H1906 C1894 0.956 . S
H1907 C1894 0.961 . S
H1908 C1894 0.961 . S
H1909 C1895 0.958 . S
H1910 C1895 0.961 . S
H1911 C1895 0.960 . S
C1912 C1913 1.391 . S
C1912 C1914 1.394 . S
C1912 H1928 0.931 . S
C1913 C1912 1.391 . S
C1913 C1917 1.376 . S
C1914 C1912 1.394 . S
C1914 C1915 1.369 . S
C1914 C1918 1.531 1_565 S
C1915 C1914 1.369 . S
C1915 C1916 1.410 . S
C1915 C1923 1.503 1_565 S
C1916 C1915 1.410 . S
C1916 C1917 1.392 . S
C1916 C1919 1.511 . S
C1917 C1913 1.376 . S
C1917 C1916 1.392 . S
C1917 H1929 0.929 . S
C1918 C1914 1.531 1_545 S
C1918 H1930 0.960 . S
C1918 H1931 0.962 . S
C1918 H1932 0.960 . S
C1919 C1916 1.511 . S
C1919 H1933 0.961 . S
C1919 H1934 0.961 . S
C1919 H1935 0.961 . S
C1920 C1921 1.370 . S
C1920 C1922 1.363 . S
C1920 H1936 0.931 . S
C1921 C1920 1.370 . S
C1921 C1925 1.408 . S
C1922 C1920 1.363 . S
C1922 C1923 1.370 . S
C1922 C1926 1.524 1_545 S
C1923 C1915 1.503 1_545 S
C1923 C1922 1.370 . S
C1923 C1924 1.403 . S
C1924 C1923 1.403 . S
C1924 C1925 1.404 . S
C1924 C1927 1.539 . S
C1925 C1921 1.408 . S
C1925 C1924 1.404 . S
C1925 H1937 0.930 . S
C1926 C1922 1.524 1_565 S
C1926 H1938 0.956 . S
C1926 H1939 0.961 . S
C1926 H1940 0.961 . S
C1927 C1924 1.539 . S
C1927 H1941 0.958 . S
C1927 H1942 0.961 . S
C1927 H1943 0.960 . S
H1928 C1912 0.931 . S
H1929 C1917 0.929 . S
H1930 C1918 0.960 . S
H1931 C1918 0.962 . S
H1932 C1918 0.960 . S
H1933 C1919 0.961 . S
H1934 C1919 0.961 . S
H1935 C1919 0.961 . S
H1936 C1920 0.931 . S
H1937 C1925 0.930 . S
H1938 C1926 0.956 . S
H1939 C1926 0.961 . S
H1940 C1926 0.961 . S
H1941 C1927 0.958 . S
H1942 C1927 0.961 . S
H1943 C1927 0.960 . S
C1944 C1945 1.391 . S
C1944 C1946 1.394 . S
C1944 H1960 0.931 . S
C1945 C1944 1.391 . S
C1945 C1949 1.376 . S
C1946 C1944 1.394 . S
C1946 C1947 1.369 . S
C1946 C1950 1.531 . S
C1947 C1946 1.369 . S
C1947 C1948 1.410 . S
C1947 C1955 1.503 1_655 S
C1948 C1947 1.410 . S
C1948 C1949 1.392 . S
C1948 C1951 1.511 1_655 S
C1949 C1945 1.376 . S
C1949 C1948 1.392 . S
C1949 H1961 0.929 . S
C1950 C1946 1.531 . S
C1950 H1962 0.960 . S
C1950 H1963 0.962 . S
C1950 H1964 0.960 . S
C1951 C1948 1.511 1_455 S
C1951 H1965 0.961 . S
C1951 H1966 0.961 . S
C1951 H1967 0.961 . S
C1952 C1953 1.370 . S
C1952 C1954 1.363 . S
C1952 H1968 0.931 . S
C1953 C1952 1.370 . S
C1953 C1957 1.408 . S
C1954 C1952 1.363 . S
C1954 C1955 1.370 . S
C1954 C1958 1.524 . S
C1955 C1947 1.503 1_455 S
C1955 C1954 1.370 . S
C1955 C1956 1.403 . S
C1956 C1955 1.403 . S
C1956 C1957 1.404 . S
C1956 C1959 1.539 . S
C1957 C1953 1.408 . S
C1957 C1956 1.404 . S
C1957 H1969 0.930 . S
C1958 C1954 1.524 . S
C1958 H1970 0.956 1_455 S
C1958 H1971 0.961 . S
C1958 H1972 0.961 . S
C1959 C1956 1.539 . S
C1959 H1973 0.958 . S
C1959 H1974 0.961 . S
C1959 H1975 0.960 . S
H1960 C1944 0.931 . S
H1961 C1949 0.929 . S
H1962 C1950 0.960 . S
H1963 C1950 0.962 . S
H1964 C1950 0.960 . S
H1965 C1951 0.961 . S
H1966 C1951 0.961 . S
H1967 C1951 0.961 . S
H1968 C1952 0.931 . S
H1969 C1957 0.930 . S
H1970 C1958 0.956 1_655 S
H1971 C1958 0.961 . S
H1972 C1958 0.961 . S
H1973 C1959 0.958 . S
H1974 C1959 0.961 . S
H1975 C1959 0.960 . S
C1976 C1977 1.391 . S
C1976 C1978 1.394 . S
C1976 H1992 0.931 . S
C1977 C1976 1.391 . S
C1977 C1981 1.376 . S
C1978 C1976 1.394 . S
C1978 C1979 1.369 . S
C1978 C1982 1.531 1_565 S
C1979 C1978 1.369 . S
C1979 C1980 1.410 . S
C1979 C1987 1.503 1_565 S
C1980 C1979 1.410 . S
C1980 C1981 1.392 . S
C1980 C1983 1.511 . S
C1981 C1977 1.376 . S
C1981 C1980 1.392 . S
C1981 H1993 0.929 . S
C1982 C1978 1.531 1_545 S
C1982 H1994 0.960 . S
C1982 H1995 0.962 . S
C1982 H1996 0.960 . S
C1983 C1980 1.511 . S
C1983 H1997 0.961 . S
C1983 H1998 0.961 . S
C1983 H1999 0.961 . S
C1984 C1985 1.370 . S
C1984 C1986 1.363 . S
C1984 H2000 0.931 . S
C1985 C1984 1.370 . S
C1985 C1989 1.408 . S
C1986 C1984 1.363 . S
C1986 C1987 1.370 . S
C1986 C1990 1.524 1_545 S
C1987 C1979 1.503 1_545 S
C1987 C1986 1.370 . S
C1987 C1988 1.403 . S
C1988 C1987 1.403 . S
C1988 C1989 1.404 . S
C1988 C1991 1.539 . S
C1989 C1985 1.408 . S
C1989 C1988 1.404 . S
C1989 H2001 0.930 . S
C1990 C1986 1.524 1_565 S
C1990 H2002 0.956 . S
C1990 H2003 0.961 . S
C1990 H2004 0.961 . S
C1991 C1988 1.539 . S
C1991 H2005 0.958 . S
C1991 H2006 0.961 . S
C1991 H2007 0.960 . S
H1992 C1976 0.931 . S
H1993 C1981 0.929 . S
H1994 C1982 0.960 . S
H1995 C1982 0.962 . S
H1996 C1982 0.960 . S
H1997 C1983 0.961 . S
H1998 C1983 0.961 . S
H1999 C1983 0.961 . S
H2000 C1984 0.931 . S
H2001 C1989 0.930 . S
H2002 C1990 0.956 . S
H2003 C1990 0.961 . S
H2004 C1990 0.961 . S
H2005 C1991 0.958 . S
H2006 C1991 0.961 . S
H2007 C1991 0.960 . S
C2008 C2009 1.391 . S
C2008 C2010 1.394 . S
C2008 H2024 0.931 . S
C2009 C2008 1.391 . S
C2009 C2013 1.376 . S
C2010 C2008 1.394 . S
C2010 C2011 1.369 . S
C2010 C2014 1.531 1_655 S
C2011 C2010 1.369 . S
C2011 C2012 1.410 . S
C2011 C2019 1.503 1_655 S
C2012 C2011 1.410 . S
C2012 C2013 1.392 . S
C2012 C2015 1.511 . S
C2013 C2009 1.376 . S
C2013 C2012 1.392 . S
C2013 H2025 0.929 . S
C2014 C2010 1.531 1_455 S
C2014 H2026 0.960 . S
C2014 H2027 0.962 . S
C2014 H2028 0.960 . S
C2015 C2012 1.511 . S
C2015 H2029 0.961 . S
C2015 H2030 0.961 . S
C2015 H2031 0.961 . S
C2016 C2017 1.370 . S
C2016 C2018 1.363 . S
C2016 H2032 0.931 . S
C2017 C2016 1.370 . S
C2017 C2021 1.408 . S
C2018 C2016 1.363 . S
C2018 C2019 1.370 . S
C2018 C2022 1.524 . S
C2019 C2011 1.503 1_455 S
C2019 C2018 1.370 . S
C2019 C2020 1.403 . S
C2020 C2019 1.403 . S
C2020 C2021 1.404 . S
C2020 C2023 1.539 . S
C2021 C2017 1.408 . S
C2021 C2020 1.404 . S
C2021 H2033 0.930 . S
C2022 C2018 1.524 . S
C2022 H2034 0.956 . S
C2022 H2035 0.961 1_455 S
C2022 H2036 0.961 . S
C2023 C2020 1.539 . S
C2023 H2037 0.958 . S
C2023 H2038 0.961 . S
C2023 H2039 0.960 1_455 S
H2024 C2008 0.931 . S
H2025 C2013 0.929 . S
H2026 C2014 0.960 . S
H2027 C2014 0.962 . S
H2028 C2014 0.960 . S
H2029 C2015 0.961 . S
H2030 C2015 0.961 . S
H2031 C2015 0.961 . S
H2032 C2016 0.931 . S
H2033 C2021 0.930 . S
H2034 C2022 0.956 . S
H2035 C2022 0.961 1_655 S
H2036 C2022 0.961 . S
H2037 C2023 0.958 . S
H2038 C2023 0.961 . S
H2039 C2023 0.960 1_655 S
C2040 C2041 1.391 . S
C2040 C2042 1.394 . S
C2040 H2056 0.931 . S
C2041 C2040 1.391 . S
C2041 C2045 1.376 . S
C2042 C2040 1.394 . S
C2042 C2043 1.369 . S
C2042 C2046 1.531 . S
C2043 C2042 1.369 . S
C2043 C2044 1.410 . S
C2043 C2051 1.503 . S
C2044 C2043 1.410 . S
C2044 C2045 1.392 . S
C2044 C2047 1.511 . S
C2045 C2041 1.376 . S
C2045 C2044 1.392 . S
C2045 H2057 0.929 . S
C2046 C2042 1.531 . S
C2046 H2058 0.960 . S
C2046 H2059 0.962 . S
C2046 H2060 0.960 . S
C2047 C2044 1.511 . S
C2047 H2061 0.961 . S
C2047 H2062 0.961 . S
C2047 H2063 0.961 . S
C2048 C2049 1.370 . S
C2048 C2050 1.363 . S
C2048 H2064 0.931 . S
C2049 C2048 1.370 . S
C2049 C2053 1.408 . S
C2050 C2048 1.363 . S
C2050 C2051 1.370 . S
C2050 C2054 1.524 . S
C2051 C2043 1.503 . S
C2051 C2050 1.370 . S
C2051 C2052 1.403 . S
C2052 C2051 1.403 . S
C2052 C2053 1.404 . S
C2052 C2055 1.539 . S
C2053 C2049 1.408 . S
C2053 C2052 1.404 . S
C2053 H2065 0.930 . S
C2054 C2050 1.524 . S
C2054 H2066 0.956 . S
C2054 H2067 0.961 . S
C2054 H2068 0.961 . S
C2055 C2052 1.539 . S
C2055 H2069 0.958 . S
C2055 H2070 0.961 . S
C2055 H2071 0.960 . S
H2056 C2040 0.931 . S
H2057 C2045 0.929 . S
H2058 C2046 0.960 . S
H2059 C2046 0.962 . S
H2060 C2046 0.960 . S
H2061 C2047 0.961 . S
H2062 C2047 0.961 . S
H2063 C2047 0.961 . S
H2064 C2048 0.931 . S
H2065 C2053 0.930 . S
H2066 C2054 0.956 . S
H2067 C2054 0.961 . S
H2068 C2054 0.961 . S
H2069 C2055 0.958 . S
H2070 C2055 0.961 . S
H2071 C2055 0.960 . S
C2072 C2073 1.391 . S
C2072 C2074 1.394 . S
C2072 H2088 0.931 . S
C2073 C2072 1.391 . S
C2073 C2077 1.376 . S
C2074 C2072 1.394 . S
C2074 C2075 1.369 . S
C2074 C2078 1.531 . S
C2075 C2074 1.369 . S
C2075 C2076 1.410 . S
C2075 C2083 1.503 . S
C2076 C2075 1.410 . S
C2076 C2077 1.392 . S
C2076 C2079 1.511 . S
C2077 C2073 1.376 . S
C2077 C2076 1.392 . S
C2077 H2089 0.929 . S
C2078 C2074 1.531 . S
C2078 H2090 0.960 . S
C2078 H2091 0.962 . S
C2078 H2092 0.960 . S
C2079 C2076 1.511 . S
C2079 H2093 0.961 . S
C2079 H2094 0.961 . S
C2079 H2095 0.961 . S
C2080 C2081 1.370 . S
C2080 C2082 1.363 . S
C2080 H2096 0.931 . S
C2081 C2080 1.370 . S
C2081 C2085 1.408 . S
C2082 C2080 1.363 . S
C2082 C2083 1.370 . S
C2082 C2086 1.524 . S
C2083 C2075 1.503 . S
C2083 C2082 1.370 . S
C2083 C2084 1.403 . S
C2084 C2083 1.403 . S
C2084 C2085 1.404 . S
C2084 C2087 1.539 . S
C2085 C2081 1.408 . S
C2085 C2084 1.404 . S
C2085 H2097 0.930 . S
C2086 C2082 1.524 . S
C2086 H2098 0.956 . S
C2086 H2099 0.961 . S
C2086 H2100 0.961 . S
C2087 C2084 1.539 . S
C2087 H2101 0.958 . S
C2087 H2102 0.961 . S
C2087 H2103 0.960 . S
H2088 C2072 0.931 . S
H2089 C2077 0.929 . S
H2090 C2078 0.960 . S
H2091 C2078 0.962 . S
H2092 C2078 0.960 . S
H2093 C2079 0.961 . S
H2094 C2079 0.961 . S
H2095 C2079 0.961 . S
H2096 C2080 0.931 . S
H2097 C2085 0.930 . S
H2098 C2086 0.956 . S
H2099 C2086 0.961 . S
H2100 C2086 0.961 . S
H2101 C2087 0.958 . S
H2102 C2087 0.961 . S
H2103 C2087 0.960 . S
C2104 C2105 1.391 . S
C2104 C2106 1.394 . S
C2104 H2120 0.931 . S
C2105 C2104 1.391 . S
C2105 C2109 1.376 . S
C2106 C2104 1.394 . S
C2106 C2107 1.369 . S
C2106 C2110 1.531 . S
C2107 C2106 1.369 . S
C2107 C2108 1.410 . S
C2107 C2115 1.503 . S
C2108 C2107 1.410 . S
C2108 C2109 1.392 . S
C2108 C2111 1.511 . S
C2109 C2105 1.376 . S
C2109 C2108 1.392 . S
C2109 H2121 0.929 . S
C2110 C2106 1.531 . S
C2110 H2122 0.960 . S
C2110 H2123 0.962 . S
C2110 H2124 0.960 . S
C2111 C2108 1.511 . S
C2111 H2125 0.961 . S
C2111 H2126 0.961 . S
C2111 H2127 0.961 . S
C2112 C2113 1.370 . S
C2112 C2114 1.363 . S
C2112 H2128 0.931 . S
C2113 C2112 1.370 . S
C2113 C2117 1.408 . S
C2114 C2112 1.363 . S
C2114 C2115 1.370 . S
C2114 C2118 1.524 . S
C2115 C2107 1.503 . S
C2115 C2114 1.370 . S
C2115 C2116 1.403 . S
C2116 C2115 1.403 . S
C2116 C2117 1.404 . S
C2116 C2119 1.539 . S
C2117 C2113 1.408 . S
C2117 C2116 1.404 . S
C2117 H2129 0.930 . S
C2118 C2114 1.524 . S
C2118 H2130 0.956 . S
C2118 H2131 0.961 . S
C2118 H2132 0.961 . S
C2119 C2116 1.539 . S
C2119 H2133 0.958 . S
C2119 H2134 0.961 . S
C2119 H2135 0.960 . S
H2120 C2104 0.931 . S
H2121 C2109 0.929 . S
H2122 C2110 0.960 . S
H2123 C2110 0.962 . S
H2124 C2110 0.960 . S
H2125 C2111 0.961 . S
H2126 C2111 0.961 . S
H2127 C2111 0.961 . S
H2128 C2112 0.931 . S
H2129 C2117 0.930 . S
H2130 C2118 0.956 . S
H2131 C2118 0.961 . S
H2132 C2118 0.961 . S
H2133 C2119 0.958 . S
H2134 C2119 0.961 . S
H2135 C2119 0.960 . S
C2136 C2137 1.391 . S
C2136 C2138 1.394 . S
C2136 H2152 0.931 . S
C2137 C2136 1.391 . S
C2137 C2141 1.376 . S
C2138 C2136 1.394 . S
C2138 C2139 1.369 . S
C2138 C2142 1.531 . S
C2139 C2138 1.369 . S
C2139 C2140 1.410 . S
C2139 C2147 1.503 1_554 S
C2140 C2139 1.410 . S
C2140 C2141 1.392 . S
C2140 C2143 1.501 1_554 S
C2141 C2137 1.376 . S
C2141 C2140 1.392 . S
C2141 H2153 0.929 . S
C2142 C2138 1.531 . S
C2142 H2154 0.960 . S
C2142 H2155 0.962 . S
C2142 H2156 0.960 . S
C2143 C2140 1.501 1_556 S
C2143 H2157 0.962 . S
C2143 H2158 0.976 . S
C2143 H2159 0.954 1_556 S
C2144 C2145 1.370 . S
C2144 C2146 1.363 . S
C2144 H2160 0.931 . S
C2145 C2144 1.370 . S
C2145 C2149 1.408 . S
C2146 C2144 1.363 . S
C2146 C2147 1.370 . S
C2146 C2150 1.524 . S
C2147 C2139 1.503 1_556 S
C2147 C2146 1.370 . S
C2147 C2148 1.403 . S
C2148 C2147 1.403 . S
C2148 C2149 1.404 . S
C2148 C2151 1.539 1_556 S
C2149 C2145 1.408 . S
C2149 C2148 1.404 . S
C2149 H2161 0.930 . S
C2150 C2146 1.524 . S
C2150 H2162 0.956 . S
C2150 H2163 0.961 . S
C2150 H2164 0.961 . S
C2151 C2148 1.539 1_554 S
C2151 H2165 0.958 . S
C2151 H2166 0.961 . S
C2151 H2167 0.960 . S
H2152 C2136 0.931 . S
H2153 C2141 0.929 . S
H2154 C2142 0.960 . S
H2155 C2142 0.962 . S
H2156 C2142 0.960 . S
H2157 C2143 0.962 . S
H2158 C2143 0.976 . S
H2159 C2143 0.954 1_554 S
H2160 C2144 0.931 . S
H2161 C2149 0.930 . S
H2162 C2150 0.956 . S
H2163 C2150 0.961 . S
H2164 C2150 0.961 . S
H2165 C2151 0.958 . S
H2166 C2151 0.961 . S
H2167 C2151 0.960 . S
C2168 C2169 1.391 . S
C2168 C2170 1.394 . S
C2168 H2184 0.931 . S
C2169 C2168 1.391 . S
C2169 C2173 1.376 . S
C2170 C2168 1.394 . S
C2170 C2171 1.369 . S
C2170 C2174 1.531 . S
C2171 C2170 1.369 . S
C2171 C2172 1.410 . S
C2171 C2179 1.503 . S
C2172 C2171 1.410 . S
C2172 C2173 1.392 . S
C2172 C2175 1.511 . S
C2173 C2169 1.376 . S
C2173 C2172 1.392 . S
C2173 H2185 0.929 . S
C2174 C2170 1.531 . S
C2174 H2186 0.960 . S
C2174 H2187 0.962 . S
C2174 H2188 0.960 . S
C2175 C2172 1.511 . S
C2175 H2189 0.961 . S
C2175 H2190 0.961 . S
C2175 H2191 0.961 . S
C2176 C2177 1.370 . S
C2176 C2178 1.363 . S
C2176 H2192 0.931 . S
C2177 C2176 1.370 . S
C2177 C2181 1.408 . S
C2178 C2176 1.363 . S
C2178 C2179 1.370 . S
C2178 C2182 1.524 . S
C2179 C2171 1.503 . S
C2179 C2178 1.370 . S
C2179 C2180 1.403 . S
C2180 C2179 1.403 . S
C2180 C2181 1.404 . S
C2180 C2183 1.539 . S
C2181 C2177 1.408 . S
C2181 C2180 1.404 . S
C2181 H2193 0.930 . S
C2182 C2178 1.524 . S
C2182 H2194 0.956 . S
C2182 H2195 0.961 . S
C2182 H2196 0.961 . S
C2183 C2180 1.539 . S
C2183 H2197 0.958 . S
C2183 H2198 0.961 . S
C2183 H2199 0.960 . S
H2184 C2168 0.931 . S
H2185 C2173 0.929 . S
H2186 C2174 0.960 . S
H2187 C2174 0.962 . S
H2188 C2174 0.960 . S
H2189 C2175 0.961 . S
H2190 C2175 0.961 . S
H2191 C2175 0.961 . S
H2192 C2176 0.931 . S
H2193 C2181 0.930 . S
H2194 C2182 0.956 . S
H2195 C2182 0.961 . S
H2196 C2182 0.961 . S
H2197 C2183 0.958 . S
H2198 C2183 0.961 . S
H2199 C2183 0.960 . S
C2200 C2201 1.391 . S
C2200 C2202 1.394 . S
C2200 H2216 0.931 . S
C2201 C2200 1.391 . S
C2201 C2205 1.376 . S
C2202 C2200 1.394 . S
C2202 C2203 1.369 . S
C2202 C2206 1.531 1_556 S
C2203 C2202 1.369 . S
C2203 C2204 1.410 . S
C2203 C2211 1.503 1_556 S
C2204 C2203 1.410 . S
C2204 C2205 1.392 . S
C2204 C2207 1.511 . S
C2205 C2201 1.376 . S
C2205 C2204 1.392 . S
C2205 H2217 0.929 . S
C2206 C2202 1.531 1_554 S
C2206 H2218 0.960 . S
C2206 H2219 0.962 . S
C2206 H2220 0.960 . S
C2207 C2204 1.511 . S
C2207 H2221 0.961 . S
C2207 H2222 0.961 . S
C2207 H2223 0.961 . S
C2208 C2209 1.370 . S
C2208 C2210 1.363 . S
C2208 H2224 0.931 . S
C2209 C2208 1.370 . S
C2209 C2213 1.408 . S
C2210 C2208 1.363 . S
C2210 C2211 1.370 . S
C2210 C2214 1.524 1_554 S
C2211 C2203 1.503 1_554 S
C2211 C2210 1.370 . S
C2211 C2212 1.403 . S
C2212 C2211 1.403 . S
C2212 C2213 1.404 . S
C2212 C2215 1.539 . S
C2213 C2209 1.408 . S
C2213 C2212 1.404 . S
C2213 H2225 0.930 . S
C2214 C2210 1.524 1_556 S
C2214 H2226 0.956 . S
C2214 H2227 0.961 . S
C2214 H2228 0.961 . S
C2215 C2212 1.539 . S
C2215 H2229 0.958 . S
C2215 H2230 0.961 . S
C2215 H2231 0.960 . S
H2216 C2200 0.931 . S
H2217 C2205 0.929 . S
H2218 C2206 0.960 . S
H2219 C2206 0.962 . S
H2220 C2206 0.960 . S
H2221 C2207 0.961 . S
H2222 C2207 0.961 . S
H2223 C2207 0.961 . S
H2224 C2208 0.931 . S
H2225 C2213 0.930 . S
H2226 C2214 0.956 . S
H2227 C2214 0.961 . S
H2228 C2214 0.961 . S
H2229 C2215 0.958 . S
H2230 C2215 0.961 . S
H2231 C2215 0.960 . S
C2232 C2233 1.391 . S
C2232 C2234 1.394 . S
C2232 H2248 0.931 . S
C2233 C2232 1.391 . S
C2233 C2237 1.376 . S
C2234 C2232 1.394 . S
C2234 C2235 1.369 . S
C2234 C2238 1.531 . S
C2235 C2234 1.369 . S
C2235 C2236 1.410 . S
C2235 C2243 1.503 . S
C2236 C2235 1.410 . S
C2236 C2237 1.392 . S
C2236 C2239 1.511 . S
C2237 C2233 1.376 . S
C2237 C2236 1.392 . S
C2237 H2249 0.929 . S
C2238 C2234 1.531 . S
C2238 H2250 0.960 . S
C2238 H2251 0.962 . S
C2238 H2252 0.960 . S
C2239 C2236 1.511 . S
C2239 H2253 0.961 . S
C2239 H2254 0.961 . S
C2239 H2255 0.961 . S
C2240 C2241 1.370 . S
C2240 C2242 1.363 . S
C2240 H2256 0.931 . S
C2241 C2240 1.370 . S
C2241 C2245 1.408 . S
C2242 C2240 1.363 . S
C2242 C2243 1.370 . S
C2242 C2246 1.524 . S
C2243 C2235 1.503 . S
C2243 C2242 1.370 . S
C2243 C2244 1.403 . S
C2244 C2243 1.403 . S
C2244 C2245 1.404 . S
C2244 C2247 1.539 . S
C2245 C2241 1.408 . S
C2245 C2244 1.404 . S
C2245 H2257 0.930 . S
C2246 C2242 1.524 . S
C2246 H2258 0.956 . S
C2246 H2259 0.961 . S
C2246 H2260 0.961 . S
C2247 C2244 1.539 . S
C2247 H2261 0.958 . S
C2247 H2262 0.961 . S
C2247 H2263 0.960 . S
H2248 C2232 0.931 . S
H2249 C2237 0.929 . S
H2250 C2238 0.960 . S
H2251 C2238 0.962 . S
H2252 C2238 0.960 . S
H2253 C2239 0.961 . S
H2254 C2239 0.961 . S
H2255 C2239 0.961 . S
H2256 C2240 0.931 . S
H2257 C2245 0.930 . S
H2258 C2246 0.956 . S
H2259 C2246 0.961 . S
H2260 C2246 0.961 . S
H2261 C2247 0.958 . S
H2262 C2247 0.961 . S
H2263 C2247 0.960 . S
C2264 C2265 1.391 . S
C2264 C2266 1.394 . S
C2264 H2280 0.931 . S
C2265 C2264 1.391 . S
C2265 C2269 1.376 . S
C2266 C2264 1.394 . S
C2266 C2267 1.369 . S
C2266 C2270 1.531 . S
C2267 C2266 1.369 . S
C2267 C2268 1.410 . S
C2267 C2275 1.503 . S
C2268 C2267 1.410 . S
C2268 C2269 1.392 . S
C2268 C2271 1.511 . S
C2269 C2265 1.376 . S
C2269 C2268 1.392 . S
C2269 H2281 0.929 . S
C2270 C2266 1.531 . S
C2270 H2282 0.960 . S
C2270 H2283 0.962 . S
C2270 H2284 0.960 . S
C2271 C2268 1.511 . S
C2271 H2285 0.961 . S
C2271 H2286 0.961 . S
C2271 H2287 0.961 . S
C2272 C2273 1.370 . S
C2272 C2274 1.363 . S
C2272 H2288 0.931 . S
C2273 C2272 1.370 . S
C2273 C2277 1.408 . S
C2274 C2272 1.363 . S
C2274 C2275 1.370 . S
C2274 C2278 1.524 . S
C2275 C2267 1.503 . S
C2275 C2274 1.370 . S
C2275 C2276 1.403 . S
C2276 C2275 1.403 . S
C2276 C2277 1.404 . S
C2276 C2279 1.539 . S
C2277 C2273 1.408 . S
C2277 C2276 1.404 . S
C2277 H2289 0.930 . S
C2278 C2274 1.524 . S
C2278 H2290 0.956 . S
C2278 H2291 0.961 . S
C2278 H2292 0.961 . S
C2279 C2276 1.539 . S
C2279 H2293 0.958 . S
C2279 H2294 0.961 . S
C2279 H2295 0.960 . S
H2280 C2264 0.931 . S
H2281 C2269 0.929 . S
H2282 C2270 0.960 . S
H2283 C2270 0.962 . S
H2284 C2270 0.960 . S
H2285 C2271 0.961 . S
H2286 C2271 0.961 . S
H2287 C2271 0.961 . S
H2288 C2272 0.931 . S
H2289 C2277 0.930 . S
H2290 C2278 0.956 . S
H2291 C2278 0.961 . S
H2292 C2278 0.961 . S
H2293 C2279 0.958 . S
H2294 C2279 0.961 . S
H2295 C2279 0.960 . S
C2296 C2297 1.391 . S
C2296 C2298 1.394 . S
C2296 H2312 0.931 . S
C2297 C2296 1.391 . S
C2297 C2301 1.376 . S
C2298 C2296 1.394 . S
C2298 C2299 1.369 . S
C2298 C2302 1.531 . S
C2299 C2298 1.369 . S
C2299 C2300 1.410 . S
C2299 C2307 1.503 1_565 S
C2300 C2299 1.410 . S
C2300 C2301 1.392 . S
C2300 C2303 1.511 . S
C2301 C2297 1.376 . S
C2301 C2300 1.392 . S
C2301 H2313 0.929 . S
C2302 C2298 1.531 . S
C2302 H2314 0.960 1_565 S
C2302 H2315 0.962 . S
C2302 H2316 0.960 . S
C2303 C2300 1.511 . S
C2303 H2317 0.961 . S
C2303 H2318 0.961 1_565 S
C2303 H2319 0.961 . S
C2304 C2305 1.370 . S
C2304 C2306 1.363 . S
C2304 H2320 0.931 . S
C2305 C2304 1.370 . S
C2305 C2309 1.408 . S
C2306 C2304 1.363 . S
C2306 C2307 1.370 . S
C2306 C2310 1.524 . S
C2307 C2299 1.503 1_545 S
C2307 C2306 1.370 . S
C2307 C2308 1.403 . S
C2308 C2307 1.403 . S
C2308 C2309 1.404 . S
C2308 C2311 1.539 . S
C2309 C2305 1.408 . S
C2309 C2308 1.404 . S
C2309 H2321 0.930 . S
C2310 C2306 1.524 . S
C2310 H2322 0.956 . S
C2310 H2323 0.980 . S
C2310 H2324 0.961 . S
C2311 C2308 1.539 . S
C2311 H2325 0.958 . S
C2311 H2326 0.961 . S
C2311 H2327 0.960 1_545 S
H2312 C2296 0.931 . S
H2313 C2301 0.929 . S
H2314 C2302 0.960 1_545 S
H2315 C2302 0.962 . S
H2316 C2302 0.960 . S
H2317 C2303 0.961 . S
H2318 C2303 0.961 1_545 S
H2319 C2303 0.961 . S
H2320 C2304 0.931 . S
H2321 C2309 0.930 . S
H2322 C2310 0.956 . S
H2323 C2310 0.980 . S
H2324 C2310 0.961 . S
H2325 C2311 0.958 . S
H2326 C2311 0.961 . S
H2327 C2311 0.960 1_565 S
C2328 C2329 1.391 . S
C2328 C2330 1.394 . S
C2328 H2344 0.931 . S
C2329 C2328 1.391 . S
C2329 C2333 1.376 . S
C2330 C2328 1.394 . S
C2330 C2331 1.369 . S
C2330 C2334 1.531 . S
C2331 C2330 1.369 . S
C2331 C2332 1.410 . S
C2331 C2339 1.503 1_655 S
C2332 C2331 1.410 . S
C2332 C2333 1.392 . S
C2332 C2335 1.511 . S
C2333 C2329 1.376 . S
C2333 C2332 1.392 . S
C2333 H2345 0.929 . S
C2334 C2330 1.531 . S
C2334 H2346 0.960 1_655 S
C2334 H2347 0.962 . S
C2334 H2348 0.960 . S
C2335 C2332 1.511 . S
C2335 H2349 0.961 . S
C2335 H2350 0.961 1_655 S
C2335 H2351 0.961 . S
C2336 C2337 1.370 . S
C2336 C2338 1.363 . S
C2336 H2352 0.931 . S
C2337 C2336 1.370 . S
C2337 C2341 1.408 . S
C2338 C2336 1.363 . S
C2338 C2339 1.370 . S
C2338 C2342 1.524 . S
C2339 C2331 1.503 1_455 S
C2339 C2338 1.370 . S
C2339 C2340 1.403 . S
C2340 C2339 1.403 . S
C2340 C2341 1.404 . S
C2340 C2343 1.539 . S
C2341 C2337 1.408 . S
C2341 C2340 1.404 . S
C2341 H2353 0.930 . S
C2342 C2338 1.524 . S
C2342 H2354 0.956 . S
C2342 H2355 0.959 . S
C2342 H2356 0.961 . S
C2343 C2340 1.539 . S
C2343 H2357 0.958 . S
C2343 H2358 0.961 . S
C2343 H2359 0.960 1_455 S
H2344 C2328 0.931 . S
H2345 C2333 0.929 . S
H2346 C2334 0.960 1_455 S
H2347 C2334 0.962 . S
H2348 C2334 0.960 . S
H2349 C2335 0.961 . S
H2350 C2335 0.961 1_455 S
H2351 C2335 0.961 . S
H2352 C2336 0.931 . S
H2353 C2341 0.930 . S
H2354 C2342 0.956 . S
H2355 C2342 0.959 . S
H2356 C2342 0.961 . S
H2357 C2343 0.958 . S
H2358 C2343 0.961 . S
H2359 C2343 0.960 1_655 S
C2360 C2361 1.391 . S
C2360 C2362 1.394 . S
C2360 H2376 0.931 . S
C2361 C2360 1.391 . S
C2361 C2365 1.376 . S
C2362 C2360 1.394 . S
C2362 C2363 1.369 . S
C2362 C2366 1.531 . S
C2363 C2362 1.369 . S
C2363 C2364 1.410 . S
C2363 C2371 1.503 1_565 S
C2364 C2363 1.410 . S
C2364 C2365 1.392 . S
C2364 C2367 1.511 . S
C2365 C2361 1.376 . S
C2365 C2364 1.392 . S
C2365 H2377 0.929 . S
C2366 C2362 1.531 . S
C2366 H2378 0.960 1_565 S
C2366 H2379 0.962 . S
C2366 H2380 0.960 . S
C2367 C2364 1.511 . S
C2367 H2381 0.961 . S
C2367 H2382 0.961 1_565 S
C2367 H2383 0.961 . S
C2368 C2369 1.370 . S
C2368 C2370 1.363 . S
C2368 H2384 0.931 . S
C2369 C2368 1.370 . S
C2369 C2373 1.408 . S
C2370 C2368 1.363 . S
C2370 C2371 1.370 . S
C2370 C2374 1.524 . S
C2371 C2363 1.503 1_545 S
C2371 C2370 1.370 . S
C2371 C2372 1.403 . S
C2372 C2371 1.403 . S
C2372 C2373 1.404 . S
C2372 C2375 1.539 . S
C2373 C2369 1.408 . S
C2373 C2372 1.404 . S
C2373 H2385 0.930 . S
C2374 C2370 1.524 . S
C2374 H2386 0.956 . S
C2374 H2387 0.978 . S
C2374 H2388 0.961 . S
C2375 C2372 1.539 . S
C2375 H2389 0.958 . S
C2375 H2390 0.961 . S
C2375 H2391 0.960 1_545 S
H2376 C2360 0.931 . S
H2377 C2365 0.929 . S
H2378 C2366 0.960 1_545 S
H2379 C2366 0.962 . S
H2380 C2366 0.960 . S
H2381 C2367 0.961 . S
H2382 C2367 0.961 1_545 S
H2383 C2367 0.961 . S
H2384 C2368 0.931 . S
H2385 C2373 0.930 . S
H2386 C2374 0.956 . S
H2387 C2374 0.978 . S
H2388 C2374 0.961 . S
H2389 C2375 0.958 . S
H2390 C2375 0.961 . S
H2391 C2375 0.960 1_565 S
C2392 C2393 1.391 . S
C2392 C2394 1.394 . S
C2392 H2408 0.931 . S
C2393 C2392 1.391 . S
C2393 C2397 1.376 . S
C2394 C2392 1.394 . S
C2394 C2395 1.369 . S
C2394 C2398 1.531 . S
C2395 C2394 1.369 . S
C2395 C2396 1.410 . S
C2395 C2403 1.503 1_655 S
C2396 C2395 1.410 . S
C2396 C2397 1.392 . S
C2396 C2399 1.511 . S
C2397 C2393 1.376 . S
C2397 C2396 1.392 . S
C2397 H2409 0.929 . S
C2398 C2394 1.531 . S
C2398 H2410 0.960 1_655 S
C2398 H2411 0.962 . S
C2398 H2412 0.960 . S
C2399 C2396 1.511 . S
C2399 H2413 0.961 . S
C2399 H2414 0.952 1_655 S
C2399 H2415 0.961 . S
C2400 C2401 1.370 . S
C2400 C2402 1.363 . S
C2400 H2416 0.931 . S
C2401 C2400 1.370 . S
C2401 C2405 1.408 . S
C2402 C2400 1.363 . S
C2402 C2403 1.370 . S
C2402 C2406 1.524 . S
C2403 C2395 1.503 1_455 S
C2403 C2402 1.370 . S
C2403 C2404 1.403 . S
C2404 C2403 1.403 . S
C2404 C2405 1.404 . S
C2404 C2407 1.539 . S
C2405 C2401 1.408 . S
C2405 C2404 1.404 . S
C2405 H2417 0.930 . S
C2406 C2402 1.524 . S
C2406 H2418 0.956 . S
C2406 H2419 0.961 1_455 S
C2406 H2420 0.961 . S
C2407 C2404 1.539 . S
C2407 H2421 0.958 . S
C2407 H2422 0.961 . S
C2407 H2423 0.992 . S
H2408 C2392 0.931 . S
H2409 C2397 0.929 . S
H2410 C2398 0.960 1_455 S
H2411 C2398 0.962 . S
H2412 C2398 0.960 . S
H2413 C2399 0.961 . S
H2414 C2399 0.952 1_455 S
H2415 C2399 0.961 . S
H2416 C2400 0.931 . S
H2417 C2405 0.930 . S
H2418 C2406 0.956 . S
H2419 C2406 0.961 1_655 S
H2420 C2406 0.961 . S
H2421 C2407 0.958 . S
H2422 C2407 0.961 . S
H2423 C2407 0.992 . S
C2424 C2425 1.391 . S
C2424 C2426 1.394 . S
C2424 H2440 0.931 . S
C2425 C2424 1.391 . S
C2425 C2429 1.376 . S
C2426 C2424 1.394 . S
C2426 C2427 1.369 . S
C2426 C2430 1.531 . S
C2427 C2426 1.369 . S
C2427 C2428 1.410 . S
C2427 C2435 1.503 . S
C2428 C2427 1.410 . S
C2428 C2429 1.392 . S
C2428 C2431 1.511 . S
C2429 C2425 1.376 . S
C2429 C2428 1.392 . S
C2429 H2441 0.929 . S
C2430 C2426 1.531 . S
C2430 H2442 0.960 . S
C2430 H2443 0.962 . S
C2430 H2444 0.960 . S
C2431 C2428 1.511 . S
C2431 H2445 0.961 . S
C2431 H2446 0.961 . S
C2431 H2447 0.961 . S
C2432 C2433 1.370 . S
C2432 C2434 1.363 . S
C2432 H2448 0.931 . S
C2433 C2432 1.370 . S
C2433 C2437 1.408 . S
C2434 C2432 1.363 . S
C2434 C2435 1.370 . S
C2434 C2438 1.524 . S
C2435 C2427 1.503 . S
C2435 C2434 1.370 . S
C2435 C2436 1.403 . S
C2436 C2435 1.403 . S
C2436 C2437 1.404 . S
C2436 C2439 1.539 . S
C2437 C2433 1.408 . S
C2437 C2436 1.404 . S
C2437 H2449 0.930 . S
C2438 C2434 1.524 . S
C2438 H2450 0.956 . S
C2438 H2451 0.961 . S
C2438 H2452 0.961 . S
C2439 C2436 1.539 . S
C2439 H2453 0.958 . S
C2439 H2454 0.961 . S
C2439 H2455 0.960 . S
H2440 C2424 0.931 . S
H2441 C2429 0.929 . S
H2442 C2430 0.960 . S
H2443 C2430 0.962 . S
H2444 C2430 0.960 . S
H2445 C2431 0.961 . S
H2446 C2431 0.961 . S
H2447 C2431 0.961 . S
H2448 C2432 0.931 . S
H2449 C2437 0.930 . S
H2450 C2438 0.956 . S
H2451 C2438 0.961 . S
H2452 C2438 0.961 . S
H2453 C2439 0.958 . S
H2454 C2439 0.961 . S
H2455 C2439 0.960 . S
C2456 C2457 1.391 . S
C2456 C2458 1.394 . S
C2456 H2472 0.931 . S
C2457 C2456 1.391 . S
C2457 C2461 1.376 . S
C2458 C2456 1.394 . S
C2458 C2459 1.369 . S
C2458 C2462 1.531 . S
C2459 C2458 1.369 . S
C2459 C2460 1.410 . S
C2459 C2467 1.503 . S
C2460 C2459 1.410 . S
C2460 C2461 1.392 . S
C2460 C2463 1.511 . S
C2461 C2457 1.376 . S
C2461 C2460 1.392 . S
C2461 H2473 0.929 . S
C2462 C2458 1.531 . S
C2462 H2474 0.960 . S
C2462 H2475 0.962 . S
C2462 H2476 0.960 . S
C2463 C2460 1.511 . S
C2463 H2477 0.961 . S
C2463 H2478 0.961 . S
C2463 H2479 0.961 . S
C2464 C2465 1.370 . S
C2464 C2466 1.363 . S
C2464 H2480 0.931 . S
C2465 C2464 1.370 . S
C2465 C2469 1.408 . S
C2466 C2464 1.363 . S
C2466 C2467 1.370 . S
C2466 C2470 1.524 . S
C2467 C2459 1.503 . S
C2467 C2466 1.370 . S
C2467 C2468 1.403 . S
C2468 C2467 1.403 . S
C2468 C2469 1.404 . S
C2468 C2471 1.539 . S
C2469 C2465 1.408 . S
C2469 C2468 1.404 . S
C2469 H2481 0.930 . S
C2470 C2466 1.524 . S
C2470 H2482 0.956 . S
C2470 H2483 0.961 . S
C2470 H2484 0.961 . S
C2471 C2468 1.539 . S
C2471 H2485 0.958 . S
C2471 H2486 0.961 . S
C2471 H2487 0.960 . S
H2472 C2456 0.931 . S
H2473 C2461 0.929 . S
H2474 C2462 0.960 . S
H2475 C2462 0.962 . S
H2476 C2462 0.960 . S
H2477 C2463 0.961 . S
H2478 C2463 0.961 . S
H2479 C2463 0.961 . S
H2480 C2464 0.931 . S
H2481 C2469 0.930 . S
H2482 C2470 0.956 . S
H2483 C2470 0.961 . S
H2484 C2470 0.961 . S
H2485 C2471 0.958 . S
H2486 C2471 0.961 . S
H2487 C2471 0.960 . S
C2488 C2489 1.391 . S
C2488 C2490 1.394 . S
C2488 H2504 0.931 . S
C2489 C2488 1.391 . S
C2489 C2493 1.376 . S
C2490 C2488 1.394 . S
C2490 C2491 1.369 . S
C2490 C2494 1.531 . S
C2491 C2490 1.369 . S
C2491 C2492 1.410 . S
C2491 C2499 1.503 . S
C2492 C2491 1.410 . S
C2492 C2493 1.392 . S
C2492 C2495 1.511 . S
C2493 C2489 1.376 . S
C2493 C2492 1.392 . S
C2493 H2505 0.929 . S
C2494 C2490 1.531 . S
C2494 H2506 0.960 . S
C2494 H2507 0.962 . S
C2494 H2508 0.960 . S
C2495 C2492 1.511 . S
C2495 H2509 0.961 . S
C2495 H2510 0.961 . S
C2495 H2511 0.961 . S
C2496 C2497 1.370 . S
C2496 C2498 1.363 . S
C2496 H2512 0.931 . S
C2497 C2496 1.370 . S
C2497 C2501 1.408 . S
C2498 C2496 1.363 . S
C2498 C2499 1.370 . S
C2498 C2502 1.524 . S
C2499 C2491 1.503 . S
C2499 C2498 1.370 . S
C2499 C2500 1.403 . S
C2500 C2499 1.403 . S
C2500 C2501 1.404 . S
C2500 C2503 1.539 . S
C2501 C2497 1.408 . S
C2501 C2500 1.404 . S
C2501 H2513 0.930 . S
C2502 C2498 1.524 . S
C2502 H2514 0.956 . S
C2502 H2515 0.961 . S
C2502 H2516 0.961 . S
C2503 C2500 1.539 . S
C2503 H2517 0.958 . S
C2503 H2518 0.961 . S
C2503 H2519 0.960 . S
H2504 C2488 0.931 . S
H2505 C2493 0.929 . S
H2506 C2494 0.960 . S
H2507 C2494 0.962 . S
H2508 C2494 0.960 . S
H2509 C2495 0.961 . S
H2510 C2495 0.961 . S
H2511 C2495 0.961 . S
H2512 C2496 0.931 . S
H2513 C2501 0.930 . S
H2514 C2502 0.956 . S
H2515 C2502 0.961 . S
H2516 C2502 0.961 . S
H2517 C2503 0.958 . S
H2518 C2503 0.961 . S
H2519 C2503 0.960 . S
C2520 C2521 1.391 . S
C2520 C2522 1.394 . S
C2520 H2536 0.931 . S
C2521 C2520 1.391 . S
C2521 C2525 1.376 . S
C2522 C2520 1.394 . S
C2522 C2523 1.369 . S
C2522 C2526 1.531 . S
C2523 C2522 1.369 . S
C2523 C2524 1.410 . S
C2523 C2531 1.503 1_556 S
C2524 C2523 1.410 . S
C2524 C2525 1.392 . S
C2524 C2527 1.511 . S
C2525 C2521 1.376 . S
C2525 C2524 1.392 . S
C2525 H2537 0.929 . S
C2526 C2522 1.531 . S
C2526 H2538 0.972 . S
C2526 H2539 0.962 . S
C2526 H2540 0.960 . S
C2527 C2524 1.511 . S
C2527 H2541 0.961 . S
C2527 H2542 0.961 1_556 S
C2527 H2543 0.961 . S
C2528 C2529 1.370 . S
C2528 C2530 1.363 . S
C2528 H2544 0.931 . S
C2529 C2528 1.370 . S
C2529 C2533 1.408 . S
C2530 C2528 1.363 . S
C2530 C2531 1.370 . S
C2530 C2534 1.524 . S
C2531 C2523 1.503 1_554 S
C2531 C2530 1.370 . S
C2531 C2532 1.403 . S
C2532 C2531 1.403 . S
C2532 C2533 1.404 . S
C2532 C2535 1.539 . S
C2533 C2529 1.408 . S
C2533 C2532 1.404 . S
C2533 H2545 0.930 . S
C2534 C2530 1.524 . S
C2534 H2546 0.984 . S
C2534 H2547 0.962 1_554 S
C2534 H2548 0.961 . S
C2535 C2532 1.539 . S
C2535 H2549 0.958 . S
C2535 H2550 0.961 . S
C2535 H2551 0.964 1_554 S
H2536 C2520 0.931 . S
H2537 C2525 0.929 . S
H2538 C2526 0.972 . S
H2539 C2526 0.962 . S
H2540 C2526 0.960 . S
H2541 C2527 0.961 . S
H2542 C2527 0.961 1_554 S
H2543 C2527 0.961 . S
H2544 C2528 0.931 . S
H2545 C2533 0.930 . S
H2546 C2534 0.984 . S
H2547 C2534 0.962 1_556 S
H2548 C2534 0.961 . S
H2549 C2535 0.958 . S
H2550 C2535 0.961 . S
H2551 C2535 0.964 1_556 S
C2552 C2553 1.391 . S
C2552 C2554 1.394 . S
C2552 H2568 0.931 . S
C2553 C2552 1.391 . S
C2553 C2557 1.376 . S
C2554 C2552 1.394 . S
C2554 C2555 1.369 . S
C2554 C2558 1.531 . S
C2555 C2554 1.369 . S
C2555 C2556 1.410 . S
C2555 C2563 1.503 . S
C2556 C2555 1.410 . S
C2556 C2557 1.392 . S
C2556 C2559 1.511 . S
C2557 C2553 1.376 . S
C2557 C2556 1.392 . S
C2557 H2569 0.929 . S
C2558 C2554 1.531 . S
C2558 H2570 0.960 . S
C2558 H2571 0.962 . S
C2558 H2572 0.960 . S
C2559 C2556 1.511 . S
C2559 H2573 0.961 . S
C2559 H2574 0.961 . S
C2559 H2575 0.961 . S
C2560 C2561 1.370 . S
C2560 C2562 1.363 . S
C2560 H2576 0.931 . S
C2561 C2560 1.370 . S
C2561 C2565 1.408 . S
C2562 C2560 1.363 . S
C2562 C2563 1.370 . S
C2562 C2566 1.524 . S
C2563 C2555 1.503 . S
C2563 C2562 1.370 . S
C2563 C2564 1.403 . S
C2564 C2563 1.403 . S
C2564 C2565 1.404 . S
C2564 C2567 1.539 . S
C2565 C2561 1.408 . S
C2565 C2564 1.404 . S
C2565 H2577 0.930 . S
C2566 C2562 1.524 . S
C2566 H2578 0.956 . S
C2566 H2579 0.961 . S
C2566 H2580 0.961 . S
C2567 C2564 1.539 . S
C2567 H2581 0.958 . S
C2567 H2582 0.961 . S
C2567 H2583 0.960 . S
H2568 C2552 0.931 . S
H2569 C2557 0.929 . S
H2570 C2558 0.960 . S
H2571 C2558 0.962 . S
H2572 C2558 0.960 . S
H2573 C2559 0.961 . S
H2574 C2559 0.961 . S
H2575 C2559 0.961 . S
H2576 C2560 0.931 . S
H2577 C2565 0.930 . S
H2578 C2566 0.956 . S
H2579 C2566 0.961 . S
H2580 C2566 0.961 . S
H2581 C2567 0.958 . S
H2582 C2567 0.961 . S
H2583 C2567 0.960 . S
C2584 C2585 1.391 . S
C2584 C2586 1.394 . S
C2584 H2600 0.931 . S
C2585 C2584 1.391 . S
C2585 C2589 1.376 . S
C2586 C2584 1.394 . S
C2586 C2587 1.369 . S
C2586 C2590 1.531 . S
C2587 C2586 1.369 . S
C2587 C2588 1.410 . S
C2587 C2595 1.503 1_556 S
C2588 C2587 1.410 . S
C2588 C2589 1.392 . S
C2588 C2591 1.511 . S
C2589 C2585 1.376 . S
C2589 C2588 1.392 . S
C2589 H2601 0.929 . S
C2590 C2586 1.531 . S
C2590 H2602 0.960 1_556 S
C2590 H2603 0.962 . S
C2590 H2604 0.960 . S
C2591 C2588 1.511 . S
C2591 H2605 0.961 . S
C2591 H2606 0.953 1_556 S
C2591 H2607 0.961 . S
C2592 C2593 1.370 . S
C2592 C2594 1.363 . S
C2592 H2608 0.931 . S
C2593 C2592 1.370 . S
C2593 C2597 1.408 . S
C2594 C2592 1.363 . S
C2594 C2595 1.370 . S
C2594 C2598 1.524 . S
C2595 C2587 1.503 1_554 S
C2595 C2594 1.370 . S
C2595 C2596 1.403 . S
C2596 C2595 1.403 . S
C2596 C2597 1.404 . S
C2596 C2599 1.539 . S
C2597 C2593 1.408 . S
C2597 C2596 1.404 . S
C2597 H2609 0.930 . S
C2598 C2594 1.524 . S
C2598 H2610 0.956 . S
C2598 H2611 0.961 1_554 S
C2598 H2612 0.961 . S
C2599 C2596 1.539 . S
C2599 H2613 0.958 . S
C2599 H2614 0.961 . S
C2599 H2615 0.926 1_554 S
H2600 C2584 0.931 . S
H2601 C2589 0.929 . S
H2602 C2590 0.960 1_554 S
H2603 C2590 0.962 . S
H2604 C2590 0.960 . S
H2605 C2591 0.961 . S
H2606 C2591 0.953 1_554 S
H2607 C2591 0.961 . S
H2608 C2592 0.931 . S
H2609 C2597 0.930 . S
H2610 C2598 0.956 . S
H2611 C2598 0.961 1_556 S
H2612 C2598 0.961 . S
H2613 C2599 0.958 . S
H2614 C2599 0.961 . S
H2615 C2599 0.926 1_556 S
C2616 C2617 1.391 . S
C2616 C2618 1.394 . S
C2616 H2632 0.931 . S
C2617 C2616 1.391 . S
C2617 C2621 1.376 . S
C2618 C2616 1.394 . S
C2618 C2619 1.369 . S
C2618 C2622 1.531 . S
C2619 C2618 1.369 . S
C2619 C2620 1.410 . S
C2619 C2627 1.503 . S
C2620 C2619 1.410 . S
C2620 C2621 1.392 . S
C2620 C2623 1.511 . S
C2621 C2617 1.376 . S
C2621 C2620 1.392 . S
C2621 H2633 0.929 . S
C2622 C2618 1.531 . S
C2622 H2634 0.960 . S
C2622 H2635 0.962 . S
C2622 H2636 0.960 . S
C2623 C2620 1.511 . S
C2623 H2637 0.961 . S
C2623 H2638 0.961 . S
C2623 H2639 0.961 . S
C2624 C2625 1.370 . S
C2624 C2626 1.363 . S
C2624 H2640 0.931 . S
C2625 C2624 1.370 . S
C2625 C2629 1.408 . S
C2626 C2624 1.363 . S
C2626 C2627 1.370 . S
C2626 C2630 1.524 . S
C2627 C2619 1.503 . S
C2627 C2626 1.370 . S
C2627 C2628 1.403 . S
C2628 C2627 1.403 . S
C2628 C2629 1.404 . S
C2628 C2631 1.539 . S
C2629 C2625 1.408 . S
C2629 C2628 1.404 . S
C2629 H2641 0.930 . S
C2630 C2626 1.524 . S
C2630 H2642 0.956 . S
C2630 H2643 0.961 . S
C2630 H2644 0.961 . S
C2631 C2628 1.539 . S
C2631 H2645 0.958 . S
C2631 H2646 0.961 . S
C2631 H2647 0.960 . S
H2632 C2616 0.931 . S
H2633 C2621 0.929 . S
H2634 C2622 0.960 . S
H2635 C2622 0.962 . S
H2636 C2622 0.960 . S
H2637 C2623 0.961 . S
H2638 C2623 0.961 . S
H2639 C2623 0.961 . S
H2640 C2624 0.931 . S
H2641 C2629 0.930 . S
H2642 C2630 0.956 . S
H2643 C2630 0.961 . S
H2644 C2630 0.961 . S
H2645 C2631 0.958 . S
H2646 C2631 0.961 . S
H2647 C2631 0.960 . S
C2648 C2649 1.391 . S
C2648 C2650 1.394 . S
C2648 H2664 0.931 . S
C2649 C2648 1.391 . S
C2649 C2653 1.376 . S
C2650 C2648 1.394 . S
C2650 C2651 1.369 . S
C2650 C2654 1.531 . S
C2651 C2650 1.369 . S
C2651 C2652 1.410 . S
C2651 C2659 1.503 . S
C2652 C2651 1.410 . S
C2652 C2653 1.392 . S
C2652 C2655 1.511 . S
C2653 C2649 1.376 . S
C2653 C2652 1.392 . S
C2653 H2665 0.929 . S
C2654 C2650 1.531 . S
C2654 H2666 0.960 . S
C2654 H2667 0.962 . S
C2654 H2668 0.960 . S
C2655 C2652 1.511 . S
C2655 H2669 0.961 . S
C2655 H2670 0.961 . S
C2655 H2671 0.961 . S
C2656 C2657 1.370 . S
C2656 C2658 1.363 . S
C2656 H2672 0.931 . S
C2657 C2656 1.370 . S
C2657 C2661 1.408 . S
C2658 C2656 1.363 . S
C2658 C2659 1.370 . S
C2658 C2662 1.524 . S
C2659 C2651 1.503 . S
C2659 C2658 1.370 . S
C2659 C2660 1.403 . S
C2660 C2659 1.403 . S
C2660 C2661 1.404 . S
C2660 C2663 1.539 . S
C2661 C2657 1.408 . S
C2661 C2660 1.404 . S
C2661 H2673 0.930 . S
C2662 C2658 1.524 . S
C2662 H2674 0.956 . S
C2662 H2675 0.961 . S
C2662 H2676 0.961 . S
C2663 C2660 1.539 . S
C2663 H2677 0.958 . S
C2663 H2678 0.961 . S
C2663 H2679 0.960 . S
H2664 C2648 0.931 . S
H2665 C2653 0.929 . S
H2666 C2654 0.960 . S
H2667 C2654 0.962 . S
H2668 C2654 0.960 . S
H2669 C2655 0.961 . S
H2670 C2655 0.961 . S
H2671 C2655 0.961 . S
H2672 C2656 0.931 . S
H2673 C2661 0.930 . S
H2674 C2662 0.956 . S
H2675 C2662 0.961 . S
H2676 C2662 0.961 . S
H2677 C2663 0.958 . S
H2678 C2663 0.961 . S
H2679 C2663 0.960 . S
C2680 C2681 1.391 . S
C2680 C2682 1.394 . S
C2680 H2696 0.931 . S
C2681 C2680 1.391 . S
C2681 C2685 1.376 . S
C2682 C2680 1.394 . S
C2682 C2683 1.369 . S
C2682 C2686 1.531 . S
C2683 C2682 1.369 . S
C2683 C2684 1.410 . S
C2683 C2691 1.503 . S
C2684 C2683 1.410 . S
C2684 C2685 1.392 . S
C2684 C2687 1.511 . S
C2685 C2681 1.376 . S
C2685 C2684 1.392 . S
C2685 H2697 0.929 . S
C2686 C2682 1.531 . S
C2686 H2698 0.960 . S
C2686 H2699 0.962 . S
C2686 H2700 0.960 . S
C2687 C2684 1.511 . S
C2687 H2701 0.961 . S
C2687 H2702 0.961 . S
C2687 H2703 0.961 . S
C2688 C2689 1.370 . S
C2688 C2690 1.363 . S
C2688 H2704 0.931 . S
C2689 C2688 1.370 . S
C2689 C2693 1.408 . S
C2690 C2688 1.363 . S
C2690 C2691 1.370 . S
C2690 C2694 1.524 . S
C2691 C2683 1.503 . S
C2691 C2690 1.370 . S
C2691 C2692 1.403 . S
C2692 C2691 1.403 . S
C2692 C2693 1.404 . S
C2692 C2695 1.539 . S
C2693 C2689 1.408 . S
C2693 C2692 1.404 . S
C2693 H2705 0.930 . S
C2694 C2690 1.524 . S
C2694 H2706 0.956 . S
C2694 H2707 0.961 . S
C2694 H2708 0.961 . S
C2695 C2692 1.539 . S
C2695 H2709 0.958 . S
C2695 H2710 0.961 . S
C2695 H2711 0.960 . S
H2696 C2680 0.931 . S
H2697 C2685 0.929 . S
H2698 C2686 0.960 . S
H2699 C2686 0.962 . S
H2700 C2686 0.960 . S
H2701 C2687 0.961 . S
H2702 C2687 0.961 . S
H2703 C2687 0.961 . S
H2704 C2688 0.931 . S
H2705 C2693 0.930 . S
H2706 C2694 0.956 . S
H2707 C2694 0.961 . S
H2708 C2694 0.961 . S
H2709 C2695 0.958 . S
H2710 C2695 0.961 . S
H2711 C2695 0.960 . S
C2712 C2713 1.391 . S
C2712 C2714 1.394 . S
C2712 H2728 0.931 . S
C2713 C2712 1.391 . S
C2713 C2717 1.376 . S
C2714 C2712 1.394 . S
C2714 C2715 1.369 . S
C2714 C2718 1.531 . S
C2715 C2714 1.369 . S
C2715 C2716 1.410 . S
C2715 C2723 1.503 . S
C2716 C2715 1.410 . S
C2716 C2717 1.392 . S
C2716 C2719 1.511 . S
C2717 C2713 1.376 . S
C2717 C2716 1.392 . S
C2717 H2729 0.929 . S
C2718 C2714 1.531 . S
C2718 H2730 0.960 . S
C2718 H2731 0.962 . S
C2718 H2732 0.960 . S
C2719 C2716 1.511 . S
C2719 H2733 0.961 . S
C2719 H2734 0.961 . S
C2719 H2735 0.961 . S
C2720 C2721 1.370 . S
C2720 C2722 1.363 . S
C2720 H2736 0.931 . S
C2721 C2720 1.370 . S
C2721 C2725 1.408 . S
C2722 C2720 1.363 . S
C2722 C2723 1.370 . S
C2722 C2726 1.524 . S
C2723 C2715 1.503 . S
C2723 C2722 1.370 . S
C2723 C2724 1.403 . S
C2724 C2723 1.403 . S
C2724 C2725 1.404 . S
C2724 C2727 1.539 . S
C2725 C2721 1.408 . S
C2725 C2724 1.404 . S
C2725 H2737 0.930 . S
C2726 C2722 1.524 . S
C2726 H2738 0.956 . S
C2726 H2739 0.961 . S
C2726 H2740 0.961 . S
C2727 C2724 1.539 . S
C2727 H2741 0.958 . S
C2727 H2742 0.961 . S
C2727 H2743 0.960 . S
H2728 C2712 0.931 . S
H2729 C2717 0.929 . S
H2730 C2718 0.960 . S
H2731 C2718 0.962 . S
H2732 C2718 0.960 . S
H2733 C2719 0.961 . S
H2734 C2719 0.961 . S
H2735 C2719 0.961 . S
H2736 C2720 0.931 . S
H2737 C2725 0.930 . S
H2738 C2726 0.956 . S
H2739 C2726 0.961 . S
H2740 C2726 0.961 . S
H2741 C2727 0.958 . S
H2742 C2727 0.961 . S
H2743 C2727 0.960 . S
C2744 C2745 1.391 . S
C2744 C2746 1.394 . S
C2744 H2760 0.931 . S
C2745 C2744 1.391 . S
C2745 C2749 1.376 . S
C2746 C2744 1.394 . S
C2746 C2747 1.369 . S
C2746 C2750 1.531 . S
C2747 C2746 1.369 . S
C2747 C2748 1.410 . S
C2747 C2755 1.503 . S
C2748 C2747 1.410 . S
C2748 C2749 1.392 . S
C2748 C2751 1.511 . S
C2749 C2745 1.376 . S
C2749 C2748 1.392 . S
C2749 H2761 0.929 . S
C2750 C2746 1.531 . S
C2750 H2762 0.960 . S
C2750 H2763 0.962 . S
C2750 H2764 0.960 . S
C2751 C2748 1.511 . S
C2751 H2765 0.961 . S
C2751 H2766 0.961 . S
C2751 H2767 0.961 . S
C2752 C2753 1.370 . S
C2752 C2754 1.363 . S
C2752 H2768 0.931 . S
C2753 C2752 1.370 . S
C2753 C2757 1.408 . S
C2754 C2752 1.363 . S
C2754 C2755 1.370 . S
C2754 C2758 1.524 . S
C2755 C2747 1.503 . S
C2755 C2754 1.370 . S
C2755 C2756 1.403 . S
C2756 C2755 1.403 . S
C2756 C2757 1.404 . S
C2756 C2759 1.539 . S
C2757 C2753 1.408 . S
C2757 C2756 1.404 . S
C2757 H2769 0.930 . S
C2758 C2754 1.524 . S
C2758 H2770 0.956 . S
C2758 H2771 0.961 . S
C2758 H2772 0.961 . S
C2759 C2756 1.539 . S
C2759 H2773 0.958 . S
C2759 H2774 0.961 . S
C2759 H2775 0.960 . S
H2760 C2744 0.931 . S
H2761 C2749 0.929 . S
H2762 C2750 0.960 . S
H2763 C2750 0.962 . S
H2764 C2750 0.960 . S
H2765 C2751 0.961 . S
H2766 C2751 0.961 . S
H2767 C2751 0.961 . S
H2768 C2752 0.931 . S
H2769 C2757 0.930 . S
H2770 C2758 0.956 . S
H2771 C2758 0.961 . S
H2772 C2758 0.961 . S
H2773 C2759 0.958 . S
H2774 C2759 0.961 . S
H2775 C2759 0.960 . S
C2776 C2777 1.391 . S
C2776 C2778 1.394 . S
C2776 H2792 0.931 . S
C2777 C2776 1.391 . S
C2777 C2781 1.376 . S
C2778 C2776 1.394 . S
C2778 C2779 1.369 . S
C2778 C2782 1.531 . S
C2779 C2778 1.369 . S
C2779 C2780 1.410 . S
C2779 C2787 1.503 . S
C2780 C2779 1.410 . S
C2780 C2781 1.392 . S
C2780 C2783 1.511 . S
C2781 C2777 1.376 . S
C2781 C2780 1.392 . S
C2781 H2793 0.929 . S
C2782 C2778 1.531 . S
C2782 H2794 0.960 . S
C2782 H2795 0.962 . S
C2782 H2796 0.960 . S
C2783 C2780 1.511 . S
C2783 H2797 0.961 . S
C2783 H2798 0.961 . S
C2783 H2799 0.961 . S
C2784 C2785 1.370 . S
C2784 C2786 1.363 . S
C2784 H2800 0.931 . S
C2785 C2784 1.370 . S
C2785 C2789 1.408 . S
C2786 C2784 1.363 . S
C2786 C2787 1.370 . S
C2786 C2790 1.524 . S
C2787 C2779 1.503 . S
C2787 C2786 1.370 . S
C2787 C2788 1.403 . S
C2788 C2787 1.403 . S
C2788 C2789 1.404 . S
C2788 C2791 1.539 . S
C2789 C2785 1.408 . S
C2789 C2788 1.404 . S
C2789 H2801 0.930 . S
C2790 C2786 1.524 . S
C2790 H2802 0.956 . S
C2790 H2803 0.961 . S
C2790 H2804 0.961 . S
C2791 C2788 1.539 . S
C2791 H2805 0.958 . S
C2791 H2806 0.961 . S
C2791 H2807 0.960 . S
H2792 C2776 0.931 . S
H2793 C2781 0.929 . S
H2794 C2782 0.960 . S
H2795 C2782 0.962 . S
H2796 C2782 0.960 . S
H2797 C2783 0.961 . S
H2798 C2783 0.961 . S
H2799 C2783 0.961 . S
H2800 C2784 0.931 . S
H2801 C2789 0.930 . S
H2802 C2790 0.956 . S
H2803 C2790 0.961 . S
H2804 C2790 0.961 . S
H2805 C2791 0.958 . S
H2806 C2791 0.961 . S
H2807 C2791 0.960 . S
C2808 C2809 1.391 . S
C2808 C2810 1.394 . S
C2808 H2824 0.931 . S
C2809 C2808 1.391 . S
C2809 C2813 1.376 . S
C2810 C2808 1.394 . S
C2810 C2811 1.369 . S
C2810 C2814 1.531 . S
C2811 C2810 1.369 . S
C2811 C2812 1.410 . S
C2811 C2819 1.503 . S
C2812 C2811 1.410 . S
C2812 C2813 1.392 . S
C2812 C2815 1.511 . S
C2813 C2809 1.376 . S
C2813 C2812 1.392 . S
C2813 H2825 0.929 . S
C2814 C2810 1.531 . S
C2814 H2826 0.960 . S
C2814 H2827 0.962 . S
C2814 H2828 0.960 . S
C2815 C2812 1.511 . S
C2815 H2829 0.961 . S
C2815 H2830 0.961 . S
C2815 H2831 0.961 . S
C2816 C2817 1.370 . S
C2816 C2818 1.363 . S
C2816 H2832 0.931 . S
C2817 C2816 1.370 . S
C2817 C2821 1.408 . S
C2818 C2816 1.363 . S
C2818 C2819 1.370 . S
C2818 C2822 1.524 . S
C2819 C2811 1.503 . S
C2819 C2818 1.370 . S
C2819 C2820 1.403 . S
C2820 C2819 1.403 . S
C2820 C2821 1.404 . S
C2820 C2823 1.539 . S
C2821 C2817 1.408 . S
C2821 C2820 1.404 . S
C2821 H2833 0.930 . S
C2822 C2818 1.524 . S
C2822 H2834 0.956 . S
C2822 H2835 0.961 . S
C2822 H2836 0.961 . S
C2823 C2820 1.539 . S
C2823 H2837 0.958 . S
C2823 H2838 0.961 . S
C2823 H2839 0.960 . S
H2824 C2808 0.931 . S
H2825 C2813 0.929 . S
H2826 C2814 0.960 . S
H2827 C2814 0.962 . S
H2828 C2814 0.960 . S
H2829 C2815 0.961 . S
H2830 C2815 0.961 . S
H2831 C2815 0.961 . S
H2832 C2816 0.931 . S
H2833 C2821 0.930 . S
H2834 C2822 0.956 . S
H2835 C2822 0.961 . S
H2836 C2822 0.961 . S
H2837 C2823 0.958 . S
H2838 C2823 0.961 . S
H2839 C2823 0.960 . S
C2840 C2841 1.391 . S
C2840 C2842 1.394 . S
C2840 H2856 0.931 . S
C2841 C2840 1.391 . S
C2841 C2845 1.376 . S
C2842 C2840 1.394 . S
C2842 C2843 1.369 . S
C2842 C2846 1.531 . S
C2843 C2842 1.369 . S
C2843 C2844 1.410 . S
C2843 C2851 1.503 . S
C2844 C2843 1.410 . S
C2844 C2845 1.392 . S
C2844 C2847 1.511 . S
C2845 C2841 1.376 . S
C2845 C2844 1.392 . S
C2845 H2857 0.929 . S
C2846 C2842 1.531 . S
C2846 H2858 0.960 . S
C2846 H2859 0.962 . S
C2846 H2860 0.960 . S
C2847 C2844 1.511 . S
C2847 H2861 0.961 . S
C2847 H2862 0.961 . S
C2847 H2863 0.961 . S
C2848 C2849 1.370 . S
C2848 C2850 1.363 . S
C2848 H2864 0.931 . S
C2849 C2848 1.370 . S
C2849 C2853 1.408 . S
C2850 C2848 1.363 . S
C2850 C2851 1.370 . S
C2850 C2854 1.524 . S
C2851 C2843 1.503 . S
C2851 C2850 1.370 . S
C2851 C2852 1.403 . S
C2852 C2851 1.403 . S
C2852 C2853 1.404 . S
C2852 C2855 1.539 . S
C2853 C2849 1.408 . S
C2853 C2852 1.404 . S
C2853 H2865 0.930 . S
C2854 C2850 1.524 . S
C2854 H2866 0.956 . S
C2854 H2867 0.961 . S
C2854 H2868 0.961 . S
C2855 C2852 1.539 . S
C2855 H2869 0.958 . S
C2855 H2870 0.961 . S
C2855 H2871 0.960 . S
H2856 C2840 0.931 . S
H2857 C2845 0.929 . S
H2858 C2846 0.960 . S
H2859 C2846 0.962 . S
H2860 C2846 0.960 . S
H2861 C2847 0.961 . S
H2862 C2847 0.961 . S
H2863 C2847 0.961 . S
H2864 C2848 0.931 . S
H2865 C2853 0.930 . S
H2866 C2854 0.956 . S
H2867 C2854 0.961 . S
H2868 C2854 0.961 . S
H2869 C2855 0.958 . S
H2870 C2855 0.961 . S
H2871 C2855 0.960 . S
C2872 C2873 1.391 . S
C2872 C2874 1.394 . S
C2872 H2888 0.931 . S
C2873 C2872 1.391 . S
C2873 C2877 1.376 . S
C2874 C2872 1.394 . S
C2874 C2875 1.369 . S
C2874 C2878 1.531 . S
C2875 C2874 1.369 . S
C2875 C2876 1.410 . S
C2875 C2883 1.503 . S
C2876 C2875 1.410 . S
C2876 C2877 1.392 . S
C2876 C2879 1.511 . S
C2877 C2873 1.376 . S
C2877 C2876 1.392 . S
C2877 H2889 0.929 . S
C2878 C2874 1.531 . S
C2878 H2890 0.960 . S
C2878 H2891 0.962 . S
C2878 H2892 0.960 . S
C2879 C2876 1.511 . S
C2879 H2893 0.961 . S
C2879 H2894 0.961 . S
C2879 H2895 0.961 . S
C2880 C2881 1.370 . S
C2880 C2882 1.363 . S
C2880 H2896 0.931 . S
C2881 C2880 1.370 . S
C2881 C2885 1.408 . S
C2882 C2880 1.363 . S
C2882 C2883 1.370 . S
C2882 C2886 1.524 . S
C2883 C2875 1.503 . S
C2883 C2882 1.370 . S
C2883 C2884 1.403 . S
C2884 C2883 1.403 . S
C2884 C2885 1.404 . S
C2884 C2887 1.539 . S
C2885 C2881 1.408 . S
C2885 C2884 1.404 . S
C2885 H2897 0.930 . S
C2886 C2882 1.524 . S
C2886 H2898 0.956 . S
C2886 H2899 0.961 . S
C2886 H2900 0.961 . S
C2887 C2884 1.539 . S
C2887 H2901 0.958 . S
C2887 H2902 0.961 . S
C2887 H2903 0.960 . S
H2888 C2872 0.931 . S
H2889 C2877 0.929 . S
H2890 C2878 0.960 . S
H2891 C2878 0.962 . S
H2892 C2878 0.960 . S
H2893 C2879 0.961 . S
H2894 C2879 0.961 . S
H2895 C2879 0.961 . S
H2896 C2880 0.931 . S
H2897 C2885 0.930 . S
H2898 C2886 0.956 . S
H2899 C2886 0.961 . S
H2900 C2886 0.961 . S
H2901 C2887 0.958 . S
H2902 C2887 0.961 . S
H2903 C2887 0.960 . S
C2904 C2905 1.391 . S
C2904 C2906 1.394 . S
C2904 H2920 0.931 . S
C2905 C2904 1.391 . S
C2905 C2909 1.376 . S
C2906 C2904 1.394 . S
C2906 C2907 1.369 . S
C2906 C2910 1.531 . S
C2907 C2906 1.369 . S
C2907 C2908 1.410 . S
C2907 C2915 1.503 . S
C2908 C2907 1.410 . S
C2908 C2909 1.392 . S
C2908 C2911 1.511 . S
C2909 C2905 1.376 . S
C2909 C2908 1.392 . S
C2909 H2921 0.929 . S
C2910 C2906 1.531 . S
C2910 H2922 0.960 . S
C2910 H2923 0.962 . S
C2910 H2924 0.960 . S
C2911 C2908 1.511 . S
C2911 H2925 0.961 . S
C2911 H2926 0.961 . S
C2911 H2927 0.961 . S
C2912 C2913 1.370 . S
C2912 C2914 1.363 . S
C2912 H2928 0.931 . S
C2913 C2912 1.370 . S
C2913 C2917 1.408 . S
C2914 C2912 1.363 . S
C2914 C2915 1.370 . S
C2914 C2918 1.524 . S
C2915 C2907 1.503 . S
C2915 C2914 1.370 . S
C2915 C2916 1.403 . S
C2916 C2915 1.403 . S
C2916 C2917 1.404 . S
C2916 C2919 1.539 . S
C2917 C2913 1.408 . S
C2917 C2916 1.404 . S
C2917 H2929 0.930 . S
C2918 C2914 1.524 . S
C2918 H2930 0.956 . S
C2918 H2931 0.961 . S
C2918 H2932 0.961 . S
C2919 C2916 1.539 . S
C2919 H2933 0.958 . S
C2919 H2934 0.961 . S
C2919 H2935 0.960 . S
H2920 C2904 0.931 . S
H2921 C2909 0.929 . S
H2922 C2910 0.960 . S
H2923 C2910 0.962 . S
H2924 C2910 0.960 . S
H2925 C2911 0.961 . S
H2926 C2911 0.961 . S
H2927 C2911 0.961 . S
H2928 C2912 0.931 . S
H2929 C2917 0.930 . S
H2930 C2918 0.956 . S
H2931 C2918 0.961 . S
H2932 C2918 0.961 . S
H2933 C2919 0.958 . S
H2934 C2919 0.961 . S
H2935 C2919 0.960 . S
C2936 C2937 1.391 . S
C2936 C2938 1.394 . S
C2936 H2952 0.931 . S
C2937 C2936 1.391 . S
C2937 C2941 1.376 . S
C2938 C2936 1.394 . S
C2938 C2939 1.369 . S
C2938 C2942 1.531 . S
C2939 C2938 1.369 . S
C2939 C2940 1.410 . S
C2939 C2947 1.503 . S
C2940 C2939 1.410 . S
C2940 C2941 1.392 . S
C2940 C2943 1.511 . S
C2941 C2937 1.376 . S
C2941 C2940 1.392 . S
C2941 H2953 0.929 . S
C2942 C2938 1.531 . S
C2942 H2954 0.960 . S
C2942 H2955 0.962 . S
C2942 H2956 0.960 . S
C2943 C2940 1.511 . S
C2943 H2957 0.961 . S
C2943 H2958 0.961 . S
C2943 H2959 0.961 . S
C2944 C2945 1.370 . S
C2944 C2946 1.363 . S
C2944 H2960 0.931 . S
C2945 C2944 1.370 . S
C2945 C2949 1.408 . S
C2946 C2944 1.363 . S
C2946 C2947 1.370 . S
C2946 C2950 1.524 . S
C2947 C2939 1.503 . S
C2947 C2946 1.370 . S
C2947 C2948 1.403 . S
C2948 C2947 1.403 . S
C2948 C2949 1.404 . S
C2948 C2951 1.539 . S
C2949 C2945 1.408 . S
C2949 C2948 1.404 . S
C2949 H2961 0.930 . S
C2950 C2946 1.524 . S
C2950 H2962 0.956 . S
C2950 H2963 0.961 . S
C2950 H2964 0.961 . S
C2951 C2948 1.539 . S
C2951 H2965 0.958 . S
C2951 H2966 0.961 . S
C2951 H2967 0.960 . S
H2952 C2936 0.931 . S
H2953 C2941 0.929 . S
H2954 C2942 0.960 . S
H2955 C2942 0.962 . S
H2956 C2942 0.960 . S
H2957 C2943 0.961 . S
H2958 C2943 0.961 . S
H2959 C2943 0.961 . S
H2960 C2944 0.931 . S
H2961 C2949 0.930 . S
H2962 C2950 0.956 . S
H2963 C2950 0.961 . S
H2964 C2950 0.961 . S
H2965 C2951 0.958 . S
H2966 C2951 0.961 . S
H2967 C2951 0.960 . S
C2968 C2969 1.391 . S
C2968 C2970 1.394 . S
C2968 H2984 0.931 . S
C2969 C2968 1.391 . S
C2969 C2973 1.376 . S
C2970 C2968 1.394 . S
C2970 C2971 1.369 . S
C2970 C2974 1.531 . S
C2971 C2970 1.369 . S
C2971 C2972 1.410 . S
C2971 C2979 1.503 . S
C2972 C2971 1.410 . S
C2972 C2973 1.392 . S
C2972 C2975 1.511 . S
C2973 C2969 1.376 . S
C2973 C2972 1.392 . S
C2973 H2985 0.929 . S
C2974 C2970 1.531 . S
C2974 H2986 0.960 . S
C2974 H2987 0.962 . S
C2974 H2988 0.960 . S
C2975 C2972 1.511 . S
C2975 H2989 0.961 . S
C2975 H2990 0.961 . S
C2975 H2991 0.961 . S
C2976 C2977 1.370 . S
C2976 C2978 1.363 . S
C2976 H2992 0.931 . S
C2977 C2976 1.370 . S
C2977 C2981 1.408 . S
C2978 C2976 1.363 . S
C2978 C2979 1.370 . S
C2978 C2982 1.524 . S
C2979 C2971 1.503 . S
C2979 C2978 1.370 . S
C2979 C2980 1.403 . S
C2980 C2979 1.403 . S
C2980 C2981 1.404 . S
C2980 C2983 1.539 . S
C2981 C2977 1.408 . S
C2981 C2980 1.404 . S
C2981 H2993 0.930 . S
C2982 C2978 1.524 . S
C2982 H2994 0.956 . S
C2982 H2995 0.961 . S
C2982 H2996 0.961 . S
C2983 C2980 1.539 . S
C2983 H2997 0.958 . S
C2983 H2998 0.961 . S
C2983 H2999 0.960 . S
H2984 C2968 0.931 . S
H2985 C2973 0.929 . S
H2986 C2974 0.960 . S
H2987 C2974 0.962 . S
H2988 C2974 0.960 . S
H2989 C2975 0.961 . S
H2990 C2975 0.961 . S
H2991 C2975 0.961 . S
H2992 C2976 0.931 . S
H2993 C2981 0.930 . S
H2994 C2982 0.956 . S
H2995 C2982 0.961 . S
H2996 C2982 0.961 . S
H2997 C2983 0.958 . S
H2998 C2983 0.961 . S
H2999 C2983 0.960 . S
C3000 C3001 1.391 . S
C3000 C3002 1.394 . S
C3000 H3016 0.931 . S
C3001 C3000 1.391 . S
C3001 C3005 1.376 . S
C3002 C3000 1.394 . S
C3002 C3003 1.369 . S
C3002 C3006 1.531 . S
C3003 C3002 1.369 . S
C3003 C3004 1.410 . S
C3003 C3011 1.503 . S
C3004 C3003 1.410 . S
C3004 C3005 1.392 . S
C3004 C3007 1.511 . S
C3005 C3001 1.376 . S
C3005 C3004 1.392 . S
C3005 H3017 0.929 . S
C3006 C3002 1.531 . S
C3006 H3018 0.960 . S
C3006 H3019 0.962 . S
C3006 H3020 0.960 . S
C3007 C3004 1.511 . S
C3007 H3021 0.961 . S
C3007 H3022 0.961 . S
C3007 H3023 0.961 . S
C3008 C3009 1.370 . S
C3008 C3010 1.363 . S
C3008 H3024 0.931 . S
C3009 C3008 1.370 . S
C3009 C3013 1.408 . S
C3010 C3008 1.363 . S
C3010 C3011 1.370 . S
C3010 C3014 1.524 . S
C3011 C3003 1.503 . S
C3011 C3010 1.370 . S
C3011 C3012 1.403 . S
C3012 C3011 1.403 . S
C3012 C3013 1.404 . S
C3012 C3015 1.539 . S
C3013 C3009 1.408 . S
C3013 C3012 1.404 . S
C3013 H3025 0.930 . S
C3014 C3010 1.524 . S
C3014 H3026 0.956 . S
C3014 H3027 0.961 . S
C3014 H3028 0.961 . S
C3015 C3012 1.539 . S
C3015 H3029 0.958 . S
C3015 H3030 0.961 . S
C3015 H3031 0.960 . S
H3016 C3000 0.931 . S
H3017 C3005 0.929 . S
H3018 C3006 0.960 . S
H3019 C3006 0.962 . S
H3020 C3006 0.960 . S
H3021 C3007 0.961 . S
H3022 C3007 0.961 . S
H3023 C3007 0.961 . S
H3024 C3008 0.931 . S
H3025 C3013 0.930 . S
H3026 C3014 0.956 . S
H3027 C3014 0.961 . S
H3028 C3014 0.961 . S
H3029 C3015 0.958 . S
H3030 C3015 0.961 . S
H3031 C3015 0.960 . S
C3032 C3033 1.391 . S
C3032 C3034 1.394 . S
C3032 H3048 0.931 . S
C3033 C3032 1.391 . S
C3033 C3037 1.376 . S
C3034 C3032 1.394 . S
C3034 C3035 1.369 . S
C3034 C3038 1.531 . S
C3035 C3034 1.369 . S
C3035 C3036 1.410 . S
C3035 C3043 1.503 . S
C3036 C3035 1.410 . S
C3036 C3037 1.392 . S
C3036 C3039 1.511 . S
C3037 C3033 1.376 . S
C3037 C3036 1.392 . S
C3037 H3049 0.929 . S
C3038 C3034 1.531 . S
C3038 H3050 0.960 . S
C3038 H3051 0.962 . S
C3038 H3052 0.960 . S
C3039 C3036 1.511 . S
C3039 H3053 0.961 . S
C3039 H3054 0.961 . S
C3039 H3055 0.961 . S
C3040 C3041 1.370 . S
C3040 C3042 1.363 . S
C3040 H3056 0.931 . S
C3041 C3040 1.370 . S
C3041 C3045 1.408 . S
C3042 C3040 1.363 . S
C3042 C3043 1.370 . S
C3042 C3046 1.524 . S
C3043 C3035 1.503 . S
C3043 C3042 1.370 . S
C3043 C3044 1.403 . S
C3044 C3043 1.403 . S
C3044 C3045 1.404 . S
C3044 C3047 1.539 . S
C3045 C3041 1.408 . S
C3045 C3044 1.404 . S
C3045 H3057 0.930 . S
C3046 C3042 1.524 . S
C3046 H3058 0.956 . S
C3046 H3059 0.961 . S
C3046 H3060 0.961 . S
C3047 C3044 1.539 . S
C3047 H3061 0.958 . S
C3047 H3062 0.961 . S
C3047 H3063 0.960 . S
H3048 C3032 0.931 . S
H3049 C3037 0.929 . S
H3050 C3038 0.960 . S
H3051 C3038 0.962 . S
H3052 C3038 0.960 . S
H3053 C3039 0.961 . S
H3054 C3039 0.961 . S
H3055 C3039 0.961 . S
H3056 C3040 0.931 . S
H3057 C3045 0.930 . S
H3058 C3046 0.956 . S
H3059 C3046 0.961 . S
H3060 C3046 0.961 . S
H3061 C3047 0.958 . S
H3062 C3047 0.961 . S
H3063 C3047 0.960 . S
C3064 C3065 1.391 . S
C3064 C3066 1.394 . S
C3064 H3080 0.931 . S
C3065 C3064 1.391 . S
C3065 C3069 1.376 . S
C3066 C3064 1.394 . S
C3066 C3067 1.369 . S
C3066 C3070 1.531 . S
C3067 C3066 1.369 . S
C3067 C3068 1.410 . S
C3067 C3075 1.503 . S
C3068 C3067 1.410 . S
C3068 C3069 1.392 . S
C3068 C3071 1.511 . S
C3069 C3065 1.376 . S
C3069 C3068 1.392 . S
C3069 H3081 0.929 . S
C3070 C3066 1.531 . S
C3070 H3082 0.960 . S
C3070 H3083 0.962 . S
C3070 H3084 0.960 . S
C3071 C3068 1.511 . S
C3071 H3085 0.961 . S
C3071 H3086 0.961 . S
C3071 H3087 0.961 . S
C3072 C3073 1.370 . S
C3072 C3074 1.363 . S
C3072 H3088 0.931 . S
C3073 C3072 1.370 . S
C3073 C3077 1.408 . S
C3074 C3072 1.363 . S
C3074 C3075 1.370 . S
C3074 C3078 1.524 . S
C3075 C3067 1.503 . S
C3075 C3074 1.370 . S
C3075 C3076 1.403 . S
C3076 C3075 1.403 . S
C3076 C3077 1.404 . S
C3076 C3079 1.539 . S
C3077 C3073 1.408 . S
C3077 C3076 1.404 . S
C3077 H3089 0.930 . S
C3078 C3074 1.524 . S
C3078 H3090 0.956 . S
C3078 H3091 0.961 . S
C3078 H3092 0.961 . S
C3079 C3076 1.539 . S
C3079 H3093 0.958 . S
C3079 H3094 0.961 . S
C3079 H3095 0.960 . S
H3080 C3064 0.931 . S
H3081 C3069 0.929 . S
H3082 C3070 0.960 . S
H3083 C3070 0.962 . S
H3084 C3070 0.960 . S
H3085 C3071 0.961 . S
H3086 C3071 0.961 . S
H3087 C3071 0.961 . S
H3088 C3072 0.931 . S
H3089 C3077 0.930 . S
H3090 C3078 0.956 . S
H3091 C3078 0.961 . S
H3092 C3078 0.961 . S
H3093 C3079 0.958 . S
H3094 C3079 0.961 . S
H3095 C3079 0.960 . S
C3096 C3097 1.391 . S
C3096 C3098 1.394 . S
C3096 H3112 0.931 . S
C3097 C3096 1.391 . S
C3097 C3101 1.376 . S
C3098 C3096 1.394 . S
C3098 C3099 1.369 . S
C3098 C3102 1.531 . S
C3099 C3098 1.369 . S
C3099 C3100 1.410 . S
C3099 C3107 1.503 . S
C3100 C3099 1.410 . S
C3100 C3101 1.392 . S
C3100 C3103 1.511 . S
C3101 C3097 1.376 . S
C3101 C3100 1.392 . S
C3101 H3113 0.929 . S
C3102 C3098 1.531 . S
C3102 H3114 0.960 . S
C3102 H3115 0.962 . S
C3102 H3116 0.960 . S
C3103 C3100 1.511 . S
C3103 H3117 0.961 . S
C3103 H3118 0.961 . S
C3103 H3119 0.961 . S
C3104 C3105 1.370 . S
C3104 C3106 1.363 . S
C3104 H3120 0.931 . S
C3105 C3104 1.370 . S
C3105 C3109 1.408 . S
C3106 C3104 1.363 . S
C3106 C3107 1.370 . S
C3106 C3110 1.524 . S
C3107 C3099 1.503 . S
C3107 C3106 1.370 . S
C3107 C3108 1.403 . S
C3108 C3107 1.403 . S
C3108 C3109 1.404 . S
C3108 C3111 1.539 . S
C3109 C3105 1.408 . S
C3109 C3108 1.404 . S
C3109 H3121 0.930 . S
C3110 C3106 1.524 . S
C3110 H3122 0.956 . S
C3110 H3123 0.961 . S
C3110 H3124 0.961 . S
C3111 C3108 1.539 . S
C3111 H3125 0.958 . S
C3111 H3126 0.961 . S
C3111 H3127 0.960 . S
H3112 C3096 0.931 . S
H3113 C3101 0.929 . S
H3114 C3102 0.960 . S
H3115 C3102 0.962 . S
H3116 C3102 0.960 . S
H3117 C3103 0.961 . S
H3118 C3103 0.961 . S
H3119 C3103 0.961 . S
H3120 C3104 0.931 . S
H3121 C3109 0.930 . S
H3122 C3110 0.956 . S
H3123 C3110 0.961 . S
H3124 C3110 0.961 . S
H3125 C3111 0.958 . S
H3126 C3111 0.961 . S
H3127 C3111 0.960 . S
C3128 C3129 1.391 . S
C3128 C3130 1.394 . S
C3128 H3144 0.931 . S
C3129 C3128 1.391 . S
C3129 C3133 1.376 . S
C3130 C3128 1.394 . S
C3130 C3131 1.369 . S
C3130 C3134 1.531 . S
C3131 C3130 1.369 . S
C3131 C3132 1.410 . S
C3131 C3139 1.503 . S
C3132 C3131 1.410 . S
C3132 C3133 1.392 . S
C3132 C3135 1.511 . S
C3133 C3129 1.376 . S
C3133 C3132 1.392 . S
C3133 H3145 0.929 . S
C3134 C3130 1.531 . S
C3134 H3146 0.960 . S
C3134 H3147 0.962 . S
C3134 H3148 0.960 . S
C3135 C3132 1.511 . S
C3135 H3149 0.961 . S
C3135 H3150 0.961 . S
C3135 H3151 0.961 . S
C3136 C3137 1.370 . S
C3136 C3138 1.363 . S
C3136 H3152 0.931 . S
C3137 C3136 1.370 . S
C3137 C3141 1.408 . S
C3138 C3136 1.363 . S
C3138 C3139 1.370 . S
C3138 C3142 1.524 . S
C3139 C3131 1.503 . S
C3139 C3138 1.370 . S
C3139 C3140 1.403 . S
C3140 C3139 1.403 . S
C3140 C3141 1.404 . S
C3140 C3143 1.539 . S
C3141 C3137 1.408 . S
C3141 C3140 1.404 . S
C3141 H3153 0.930 . S
C3142 C3138 1.524 . S
C3142 H3154 0.956 . S
C3142 H3155 0.961 . S
C3142 H3156 0.961 . S
C3143 C3140 1.539 . S
C3143 H3157 0.958 . S
C3143 H3158 0.961 . S
C3143 H3159 0.960 . S
H3144 C3128 0.931 . S
H3145 C3133 0.929 . S
H3146 C3134 0.960 . S
H3147 C3134 0.962 . S
H3148 C3134 0.960 . S
H3149 C3135 0.961 . S
H3150 C3135 0.961 . S
H3151 C3135 0.961 . S
H3152 C3136 0.931 . S
H3153 C3141 0.930 . S
H3154 C3142 0.956 . S
H3155 C3142 0.961 . S
H3156 C3142 0.961 . S
H3157 C3143 0.958 . S
H3158 C3143 0.961 . S
H3159 C3143 0.960 . S
C3160 C3161 1.391 . S
C3160 C3162 1.394 . S
C3160 H3176 0.931 . S
C3161 C3160 1.391 . S
C3161 C3165 1.376 . S
C3162 C3160 1.394 . S
C3162 C3163 1.369 . S
C3162 C3166 1.531 . S
C3163 C3162 1.369 . S
C3163 C3164 1.410 . S
C3163 C3171 1.503 . S
C3164 C3163 1.410 . S
C3164 C3165 1.392 . S
C3164 C3167 1.511 . S
C3165 C3161 1.376 . S
C3165 C3164 1.392 . S
C3165 H3177 0.929 . S
C3166 C3162 1.531 . S
C3166 H3178 0.960 . S
C3166 H3179 0.962 . S
C3166 H3180 0.960 . S
C3167 C3164 1.511 . S
C3167 H3181 0.961 . S
C3167 H3182 0.961 . S
C3167 H3183 0.961 . S
C3168 C3169 1.370 . S
C3168 C3170 1.363 . S
C3168 H3184 0.931 . S
C3169 C3168 1.370 . S
C3169 C3173 1.408 . S
C3170 C3168 1.363 . S
C3170 C3171 1.370 . S
C3170 C3174 1.524 . S
C3171 C3163 1.503 . S
C3171 C3170 1.370 . S
C3171 C3172 1.403 . S
C3172 C3171 1.403 . S
C3172 C3173 1.404 . S
C3172 C3175 1.539 . S
C3173 C3169 1.408 . S
C3173 C3172 1.404 . S
C3173 H3185 0.930 . S
C3174 C3170 1.524 . S
C3174 H3186 0.956 . S
C3174 H3187 0.961 . S
C3174 H3188 0.961 . S
C3175 C3172 1.539 . S
C3175 H3189 0.958 . S
C3175 H3190 0.961 . S
C3175 H3191 0.960 . S
H3176 C3160 0.931 . S
H3177 C3165 0.929 . S
H3178 C3166 0.960 . S
H3179 C3166 0.962 . S
H3180 C3166 0.960 . S
H3181 C3167 0.961 . S
H3182 C3167 0.961 . S
H3183 C3167 0.961 . S
H3184 C3168 0.931 . S
H3185 C3173 0.930 . S
H3186 C3174 0.956 . S
H3187 C3174 0.961 . S
H3188 C3174 0.961 . S
H3189 C3175 0.958 . S
H3190 C3175 0.961 . S
H3191 C3175 0.960 . S
C3192 C3193 1.391 . S
C3192 C3194 1.394 . S
C3192 H3208 0.931 . S
C3193 C3192 1.391 . S
C3193 C3197 1.376 . S
C3194 C3192 1.394 . S
C3194 C3195 1.369 . S
C3194 C3198 1.531 . S
C3195 C3194 1.369 . S
C3195 C3196 1.410 . S
C3195 C3203 1.503 . S
C3196 C3195 1.410 . S
C3196 C3197 1.392 . S
C3196 C3199 1.511 . S
C3197 C3193 1.376 . S
C3197 C3196 1.392 . S
C3197 H3209 0.929 . S
C3198 C3194 1.531 . S
C3198 H3210 0.960 . S
C3198 H3211 0.962 . S
C3198 H3212 0.960 . S
C3199 C3196 1.511 . S
C3199 H3213 0.961 . S
C3199 H3214 0.961 . S
C3199 H3215 0.961 . S
C3200 C3201 1.370 . S
C3200 C3202 1.363 . S
C3200 H3216 0.931 . S
C3201 C3200 1.370 . S
C3201 C3205 1.408 . S
C3202 C3200 1.363 . S
C3202 C3203 1.370 . S
C3202 C3206 1.524 . S
C3203 C3195 1.503 . S
C3203 C3202 1.370 . S
C3203 C3204 1.403 . S
C3204 C3203 1.403 . S
C3204 C3205 1.404 . S
C3204 C3207 1.539 . S
C3205 C3201 1.408 . S
C3205 C3204 1.404 . S
C3205 H3217 0.930 . S
C3206 C3202 1.524 . S
C3206 H3218 0.956 . S
C3206 H3219 0.961 . S
C3206 H3220 0.961 . S
C3207 C3204 1.539 . S
C3207 H3221 0.958 . S
C3207 H3222 0.961 . S
C3207 H3223 0.960 . S
H3208 C3192 0.931 . S
H3209 C3197 0.929 . S
H3210 C3198 0.960 . S
H3211 C3198 0.962 . S
H3212 C3198 0.960 . S
H3213 C3199 0.961 . S
H3214 C3199 0.961 . S
H3215 C3199 0.961 . S
H3216 C3200 0.931 . S
H3217 C3205 0.930 . S
H3218 C3206 0.956 . S
H3219 C3206 0.961 . S
H3220 C3206 0.961 . S
H3221 C3207 0.958 . S
H3222 C3207 0.961 . S
H3223 C3207 0.960 . S
C3224 C3225 1.391 . S
C3224 C3226 1.394 . S
C3224 H3240 0.931 . S
C3225 C3224 1.391 . S
C3225 C3229 1.376 . S
C3226 C3224 1.394 . S
C3226 C3227 1.369 . S
C3226 C3230 1.531 . S
C3227 C3226 1.369 . S
C3227 C3228 1.410 . S
C3227 C3235 1.503 . S
C3228 C3227 1.410 . S
C3228 C3229 1.392 . S
C3228 C3231 1.511 . S
C3229 C3225 1.376 . S
C3229 C3228 1.392 . S
C3229 H3241 0.929 . S
C3230 C3226 1.531 . S
C3230 H3242 0.960 . S
C3230 H3243 0.962 . S
C3230 H3244 0.960 . S
C3231 C3228 1.511 . S
C3231 H3245 0.961 . S
C3231 H3246 0.961 . S
C3231 H3247 0.961 . S
C3232 C3233 1.370 . S
C3232 C3234 1.363 . S
C3232 H3248 0.931 . S
C3233 C3232 1.370 . S
C3233 C3237 1.408 . S
C3234 C3232 1.363 . S
C3234 C3235 1.370 . S
C3234 C3238 1.524 . S
C3235 C3227 1.503 . S
C3235 C3234 1.370 . S
C3235 C3236 1.403 . S
C3236 C3235 1.403 . S
C3236 C3237 1.404 . S
C3236 C3239 1.539 . S
C3237 C3233 1.408 . S
C3237 C3236 1.404 . S
C3237 H3249 0.930 . S
C3238 C3234 1.524 . S
C3238 H3250 0.956 . S
C3238 H3251 0.961 . S
C3238 H3252 0.961 . S
C3239 C3236 1.539 . S
C3239 H3253 0.958 . S
C3239 H3254 0.961 . S
C3239 H3255 0.960 . S
H3240 C3224 0.931 . S
H3241 C3229 0.929 . S
H3242 C3230 0.960 . S
H3243 C3230 0.962 . S
H3244 C3230 0.960 . S
H3245 C3231 0.961 . S
H3246 C3231 0.961 . S
H3247 C3231 0.961 . S
H3248 C3232 0.931 . S
H3249 C3237 0.930 . S
H3250 C3238 0.956 . S
H3251 C3238 0.961 . S
H3252 C3238 0.961 . S
H3253 C3239 0.958 . S
H3254 C3239 0.961 . S
H3255 C3239 0.960 . S
C3256 C3257 1.391 . S
C3256 C3258 1.394 . S
C3256 H3272 0.931 . S
C3257 C3256 1.391 . S
C3257 C3261 1.376 . S
C3258 C3256 1.394 . S
C3258 C3259 1.369 . S
C3258 C3262 1.531 . S
C3259 C3258 1.369 . S
C3259 C3260 1.410 . S
C3259 C3267 1.503 . S
C3260 C3259 1.410 . S
C3260 C3261 1.392 . S
C3260 C3263 1.511 . S
C3261 C3257 1.376 . S
C3261 C3260 1.392 . S
C3261 H3273 0.929 . S
C3262 C3258 1.531 . S
C3262 H3274 0.960 . S
C3262 H3275 0.962 . S
C3262 H3276 0.960 . S
C3263 C3260 1.511 . S
C3263 H3277 0.961 . S
C3263 H3278 0.961 . S
C3263 H3279 0.961 . S
C3264 C3265 1.370 . S
C3264 C3266 1.363 . S
C3264 H3280 0.931 . S
C3265 C3264 1.370 . S
C3265 C3269 1.408 . S
C3266 C3264 1.363 . S
C3266 C3267 1.370 . S
C3266 C3270 1.524 . S
C3267 C3259 1.503 . S
C3267 C3266 1.370 . S
C3267 C3268 1.403 . S
C3268 C3267 1.403 . S
C3268 C3269 1.404 . S
C3268 C3271 1.539 . S
C3269 C3265 1.408 . S
C3269 C3268 1.404 . S
C3269 H3281 0.930 . S
C3270 C3266 1.524 . S
C3270 H3282 0.956 . S
C3270 H3283 0.961 . S
C3270 H3284 0.961 . S
C3271 C3268 1.539 . S
C3271 H3285 0.958 . S
C3271 H3286 0.961 . S
C3271 H3287 0.960 . S
H3272 C3256 0.931 . S
H3273 C3261 0.929 . S
H3274 C3262 0.960 . S
H3275 C3262 0.962 . S
H3276 C3262 0.960 . S
H3277 C3263 0.961 . S
H3278 C3263 0.961 . S
H3279 C3263 0.961 . S
H3280 C3264 0.931 . S
H3281 C3269 0.930 . S
H3282 C3270 0.956 . S
H3283 C3270 0.961 . S
H3284 C3270 0.961 . S
H3285 C3271 0.958 . S
H3286 C3271 0.961 . S
H3287 C3271 0.960 . S
C3288 C3289 1.391 . S
C3288 C3290 1.394 . S
C3288 H3304 0.931 . S
C3289 C3288 1.391 . S
C3289 C3293 1.376 . S
C3290 C3288 1.394 . S
C3290 C3291 1.369 . S
C3290 C3294 1.531 . S
C3291 C3290 1.369 . S
C3291 C3292 1.410 . S
C3291 C3299 1.503 . S
C3292 C3291 1.410 . S
C3292 C3293 1.392 . S
C3292 C3295 1.511 . S
C3293 C3289 1.376 . S
C3293 C3292 1.392 . S
C3293 H3305 0.929 . S
C3294 C3290 1.531 . S
C3294 H3306 0.960 . S
C3294 H3307 0.962 . S
C3294 H3308 0.960 . S
C3295 C3292 1.511 . S
C3295 H3309 0.961 . S
C3295 H3310 0.961 . S
C3295 H3311 0.961 . S
C3296 C3297 1.370 . S
C3296 C3298 1.363 . S
C3296 H3312 0.931 . S
C3297 C3296 1.370 . S
C3297 C3301 1.408 . S
C3298 C3296 1.363 . S
C3298 C3299 1.370 . S
C3298 C3302 1.524 . S
C3299 C3291 1.503 . S
C3299 C3298 1.370 . S
C3299 C3300 1.403 . S
C3300 C3299 1.403 . S
C3300 C3301 1.404 . S
C3300 C3303 1.539 . S
C3301 C3297 1.408 . S
C3301 C3300 1.404 . S
C3301 H3313 0.930 . S
C3302 C3298 1.524 . S
C3302 H3314 0.956 . S
C3302 H3315 0.961 . S
C3302 H3316 0.961 . S
C3303 C3300 1.539 . S
C3303 H3317 0.958 . S
C3303 H3318 0.961 . S
C3303 H3319 0.960 . S
H3304 C3288 0.931 . S
H3305 C3293 0.929 . S
H3306 C3294 0.960 . S
H3307 C3294 0.962 . S
H3308 C3294 0.960 . S
H3309 C3295 0.961 . S
H3310 C3295 0.961 . S
H3311 C3295 0.961 . S
H3312 C3296 0.931 . S
H3313 C3301 0.930 . S
H3314 C3302 0.956 . S
H3315 C3302 0.961 . S
H3316 C3302 0.961 . S
H3317 C3303 0.958 . S
H3318 C3303 0.961 . S
H3319 C3303 0.960 . S
C3320 C3321 1.391 . S
C3320 C3322 1.394 . S
C3320 H3336 0.931 . S
C3321 C3320 1.391 . S
C3321 C3325 1.376 . S
C3322 C3320 1.394 . S
C3322 C3323 1.369 . S
C3322 C3326 1.531 . S
C3323 C3322 1.369 . S
C3323 C3324 1.410 . S
C3323 C3331 1.503 . S
C3324 C3323 1.410 . S
C3324 C3325 1.392 . S
C3324 C3327 1.511 . S
C3325 C3321 1.376 . S
C3325 C3324 1.392 . S
C3325 H3337 0.929 . S
C3326 C3322 1.531 . S
C3326 H3338 0.960 . S
C3326 H3339 0.962 . S
C3326 H3340 0.960 . S
C3327 C3324 1.511 . S
C3327 H3341 0.961 . S
C3327 H3342 0.961 . S
C3327 H3343 0.961 . S
C3328 C3329 1.370 . S
C3328 C3330 1.363 . S
C3328 H3344 0.931 . S
C3329 C3328 1.370 . S
C3329 C3333 1.408 . S
C3330 C3328 1.363 . S
C3330 C3331 1.370 . S
C3330 C3334 1.524 . S
C3331 C3323 1.503 . S
C3331 C3330 1.370 . S
C3331 C3332 1.403 . S
C3332 C3331 1.403 . S
C3332 C3333 1.404 . S
C3332 C3335 1.539 . S
C3333 C3329 1.408 . S
C3333 C3332 1.404 . S
C3333 H3345 0.930 . S
C3334 C3330 1.524 . S
C3334 H3346 0.956 . S
C3334 H3347 0.961 . S
C3334 H3348 0.961 . S
C3335 C3332 1.539 . S
C3335 H3349 0.958 . S
C3335 H3350 0.961 . S
C3335 H3351 0.960 . S
H3336 C3320 0.931 . S
H3337 C3325 0.929 . S
H3338 C3326 0.960 . S
H3339 C3326 0.962 . S
H3340 C3326 0.960 . S
H3341 C3327 0.961 . S
H3342 C3327 0.961 . S
H3343 C3327 0.961 . S
H3344 C3328 0.931 . S
H3345 C3333 0.930 . S
H3346 C3334 0.956 . S
H3347 C3334 0.961 . S
H3348 C3334 0.961 . S
H3349 C3335 0.958 . S
H3350 C3335 0.961 . S
H3351 C3335 0.960 . S
C3352 C3353 1.391 . S
C3352 C3354 1.394 . S
C3352 H3368 0.931 . S
C3353 C3352 1.391 . S
C3353 C3357 1.376 . S
C3354 C3352 1.394 . S
C3354 C3355 1.369 . S
C3354 C3358 1.531 . S
C3355 C3354 1.369 . S
C3355 C3356 1.410 . S
C3355 C3363 1.503 . S
C3356 C3355 1.410 . S
C3356 C3357 1.392 . S
C3356 C3359 1.511 . S
C3357 C3353 1.376 . S
C3357 C3356 1.392 . S
C3357 H3369 0.929 . S
C3358 C3354 1.531 . S
C3358 H3370 0.960 . S
C3358 H3371 0.962 . S
C3358 H3372 0.960 . S
C3359 C3356 1.511 . S
C3359 H3373 0.961 . S
C3359 H3374 0.961 . S
C3359 H3375 0.961 . S
C3360 C3361 1.370 . S
C3360 C3362 1.363 . S
C3360 H3376 0.931 . S
C3361 C3360 1.370 . S
C3361 C3365 1.408 . S
C3362 C3360 1.363 . S
C3362 C3363 1.370 . S
C3362 C3366 1.524 . S
C3363 C3355 1.503 . S
C3363 C3362 1.370 . S
C3363 C3364 1.403 . S
C3364 C3363 1.403 . S
C3364 C3365 1.404 . S
C3364 C3367 1.539 . S
C3365 C3361 1.408 . S
C3365 C3364 1.404 . S
C3365 H3377 0.930 . S
C3366 C3362 1.524 . S
C3366 H3378 0.956 . S
C3366 H3379 0.961 . S
C3366 H3380 0.961 . S
C3367 C3364 1.539 . S
C3367 H3381 0.958 . S
C3367 H3382 0.961 . S
C3367 H3383 0.960 . S
H3368 C3352 0.931 . S
H3369 C3357 0.929 . S
H3370 C3358 0.960 . S
H3371 C3358 0.962 . S
H3372 C3358 0.960 . S
H3373 C3359 0.961 . S
H3374 C3359 0.961 . S
H3375 C3359 0.961 . S
H3376 C3360 0.931 . S
H3377 C3365 0.930 . S
H3378 C3366 0.956 . S
H3379 C3366 0.961 . S
H3380 C3366 0.961 . S
H3381 C3367 0.958 . S
H3382 C3367 0.961 . S
H3383 C3367 0.960 . S
C697 C15 1.888 . S
C705 C559 2.053 . S
C729 C588 2.045 . S
C737 C44 1.871 . S
C761 C73 1.889 . S
C769 C501 2.054 . S
C793 C530 2.053 . S
C801 C102 1.863 . S
C825 C617 2.056 . S
C833 C131 1.840 . S
C857 C160 1.851 . S
C865 C646 2.059 . S
C889 C472 2.055 . S
C897 C189 1.841 . S
C921 C218 1.811 . S
C929 C675 2.060 . S
C953 C66 2.059 . S
C961 C247 1.851 . S
C985 C276 1.887 . S
C993 C95 2.054 . S
C1017 C8 2.060 . S
C1025 C305 1.839 . S
C1049 C334 1.846 . S
C1057 C37 2.055 . S
C1081 C363 1.812 . S
C1089 C182 2.060 . S
C1113 C211 2.056 . S
C1121 C392 1.840 . S
C1145 C421 1.879 . S
C1153 C124 2.056 . S
C1177 C153 2.043 . S
C1185 C450 1.871 . S
C1209 C356 2.052 . S
C1217 C479 1.864 . S
C1241 C240 2.061 . S
C1249 C508 1.841 . S
C1273 C269 2.045 . S
C1281 C537 1.871 . S
C1305 C566 1.875 . S
C1313 C298 2.053 . S
C1337 C595 1.841 . S
C1345 C327 2.055 . S
C1369 C624 1.846 . S
C1377 C414 2.054 . S
C1401 C443 2.060 . S
C1409 C653 1.848 . S
C1433 C682 1.846 . S
C1441 C385 2.055 . S
C1465 C5 2.492 . S
C1473 C63 2.477 . S
C1497 C34 2.493 . S
C1505 C92 2.484 . S
C1529 C179 2.492 . S
C1537 C121 2.477 . S
C1561 C150 2.487 . S
C1569 C208 2.487 . S
C1593 C237 2.461 . S
C1601 C353 2.485 . S
C1625 C382 2.477 . S
C1633 C266 2.490 . S
C1657 C295 2.483 . S
C1665 C411 2.489 . S
C1689 C324 2.487 . S
C1697 C440 2.487 . S
C1721 C469 2.461 . S
C1729 C556 2.485 . S
C1753 C614 2.482 . S
C1761 C498 2.489 . S
C1785 C643 2.461 . S
C1793 C527 2.485 . S
C1817 C585 2.461 . S
C1825 C672 2.485 . S
C1849 C651 0.812 . S
C1857 C13 0.866 . S
C1881 C42 0.968 . S
C1889 C477 0.895 . S
C1913 C680 0.824 . S
C1921 C71 0.835 . S
C1945 C100 0.971 . S
C1953 C622 0.907 . S
C1977 C535 0.863 . S
C1985 C129 0.843 . S
C2009 C158 0.788 . S
C2017 C564 0.843 . S
C2041 C187 0.789 . S
C2049 C593 0.840 . S
C2073 C506 0.799 . S
C2081 C216 0.835 . S
C2105 C390 0.881 . S
C2113 C245 0.896 . S
C2137 C419 0.906 . S
C2145 C274 0.903 . S
C2169 C448 0.957 . S
C2177 C303 0.911 . S
C2201 C332 0.822 . S
C2209 C361 0.835 . S
C2233 C300 1.752 . S
C2241 C155 1.742 . S
C2265 C184 1.715 . S
C2273 C329 1.733 . S
C2297 C213 1.729 . S
C2305 C242 1.740 . S
C2329 C271 1.738 . S
C2337 C126 1.743 . S
C2361 C97 1.730 . S
C2369 C416 1.740 . S
C2393 C445 1.755 . S
C2401 C10 1.745 . S
C2425 C39 1.754 . S
C2433 C358 1.744 . S
C2457 C387 1.741 . S
C2465 C68 1.744 . S
C2489 C503 1.745 . S
C2497 C677 1.745 . S
C2521 C532 1.709 . S
C2529 C619 1.728 . S
C2553 C648 1.736 . S
C2561 C561 1.733 . S
C2585 C590 1.751 . S
C2593 C474 1.746 . S
C2617 C21 1.133 . S
C2625 C137 1.033 . S
C2649 C50 1.130 . S
C2657 C166 1.034 . S
C2681 C195 1.116 . S
C2689 C79 1.040 . S
C2713 C108 1.108 . S
C2721 C224 1.043 . S
C2745 C253 1.016 . S
C2753 C427 1.083 . S
C2777 C282 1.122 . S
C2785 C456 1.039 . S
C2809 C311 1.062 . S
C2817 C369 1.063 . S
C2841 C398 1.011 . S
C2849 C340 1.084 . S
C2873 C485 1.016 . S
C2881 C630 1.083 . S
C2905 C514 1.123 . S
C2913 C572 1.038 . S
C2937 C543 1.016 . S
C2945 C601 1.083 . S
C2969 C659 1.064 . S
C2977 C688 1.064 . S
C3001 C90 0.798 . S
C3009 C148 0.814 . S
C3033 C177 0.821 . S
C3041 C3 0.816 . S
C3065 C32 0.785 . S
C3073 C206 0.808 . S
C3097 C61 0.814 . S
C3105 C119 0.817 . S
C3129 C525 0.783 . S
C3137 C670 0.806 . S
C3161 C612 0.830 . S
C3169 C554 0.811 . S
C3193 C641 0.825 . S
C3201 C583 0.804 . S
C3225 C496 0.782 . S
C3233 C467 0.803 . S
C3257 C264 0.805 . S
C3265 C322 0.797 . S
C3289 C380 0.830 . S
C3297 C438 0.812 . S
C3321 C409 0.799 . S
C3329 C351 0.796 . S
C3353 C235 0.799 . S
C3361 C293 0.796 . S
