# Generated by pormake.
# Topology qtz, (4)-cn, num edge types: 1
# Building blocks:
#     Node 0, Type 0, BuildingBlock: UXUYUI_clean_sbu_0, # of connection points: 4
#     Node 1, Type 0, BuildingBlock: UXUYUI_clean_sbu_0, # of connection points: 4
#     Node 2, Type 0, BuildingBlock: UXUYUI_clean_sbu_0, # of connection points: 4
#     Edge 3, Type (0, 0), BuildingBlock: XIVTED_clean_linker_0, # of connection points: 2
#     Edge 4, Type (0, 0), BuildingBlock: XIVTED_clean_linker_0, # of connection points: 2
#     Edge 5, Type (0, 0), BuildingBlock: XIVTED_clean_linker_0, # of connection points: 2
#     Edge 6, Type (0, 0), BuildingBlock: XIVTED_clean_linker_0, # of connection points: 2
#     Edge 7, Type (0, 0), BuildingBlock: XIVTED_clean_linker_0, # of connection points: 2
#     Edge 8, Type (0, 0), BuildingBlock: XIVTED_clean_linker_0, # of connection points: 2
# Relax obj value: 0.181
# Max RMSD: 0.212
# Mean RMSD: 0.212
data_MOF--net-qtz--node1-UXUYUI_clean_sbu_0--edge1-XIVTED_clean_linker_0
_symmetry_space_group_name_H-M    P1
_symmetry_Int_Tables_number       1
_symmetry_cell_setting            triclinic
loop_
_symmetry_equiv_pos_as_xyz
'x, y, z'
_cell_length_a     34.486177
_cell_length_b     34.501922
_cell_length_c     41.331387
_cell_angle_alpha  90.11692
_cell_angle_beta   89.947199
_cell_angle_gamma 119.93966
loop_
_atom_site_label
_atom_site_type_symbol
_atom_site_fract_x
_atom_site_fract_y
_atom_site_fract_z
_atom_type_partial_charge
Li0 Li 0.01828 0.48509 0.1367 0.0
Li1 Li 0.02144 0.53426 0.18041 0.0
Li2 Li 0.96108 0.45675 0.17755 0.0
Li3 Li 0.96535 0.51254 0.13945 0.0
C4 C 0.05703 0.46652 0.18493 0.0
N5 N 0.1224 0.44246 0.18479 0.0
C6 C 0.1001 0.49646 0.19611 0.0
C7 C 0.04721 0.42431 0.17373 0.0
C8 C 0.13267 0.48365 0.19586 0.0
C9 C 0.08073 0.41281 0.17381 0.0
C10 C 0.03469 0.5746 0.10864 0.0
C11 C 0.02748 0.63543 0.08666 0.0
N12 N 0.03731 0.62624 0.05674 0.0
C13 C 0.04487 0.56586 0.07768 0.0
C14 C 0.02612 0.60979 0.11322 0.0
C15 C 0.04601 0.59234 0.05176 0.0
C16 C 0.03239 0.44193 0.08352 0.0
N17 N 0.05301 0.47196 0.10781 0.0
C18 C 0.12481 0.48705 0.0893 0.0
C19 C 0.09831 0.49489 0.11081 0.0
C20 C 0.10446 0.45652 0.06388 0.0
C21 C 0.05771 0.43387 0.06095 0.0
H22 H -0.00364 0.42497 0.08129 0.0
H23 H 0.11386 0.51972 0.12965 0.0
C24 C 0.06535 0.56808 0.23954 0.0
N25 N 0.05939 0.58024 0.20954 0.0
C26 C 0.09159 0.60058 0.26227 0.0
C27 C 0.10484 0.65757 0.22284 0.0
C28 C 0.07863 0.6239 0.20077 0.0
C29 C 0.11167 0.64612 0.25411 0.0
H30 H 0.04956 0.53302 0.24579 0.0
H31 H 0.07325 0.6326 0.17678 0.0
C32 C 0.91526 0.41088 0.12786 0.0
N33 N 0.83751 0.32881 0.12714 0.0
C34 C 0.87364 0.40859 0.12767 0.0
C35 C 0.91737 0.37147 0.12754 0.0
C36 C 0.8347 0.36676 0.12732 0.0
C37 C 0.87767 0.33029 0.12723 0.0
C38 C 0.95727 0.53331 0.21365 0.0
C39 C 0.95236 0.51342 0.24394 0.0
C40 C 0.96567 0.5773 0.21173 0.0
C41 C 0.95586 0.53788 0.27185 0.0
C42 C 0.96903 0.60067 0.24021 0.0
N43 N 0.96409 0.58064 0.26942 0.0
C44 C 0.9301 0.37541 0.21304 0.0
C45 C 0.88077 0.40452 0.21004 0.0
C46 C 0.89993 0.34037 0.23268 0.0
N47 N 0.92012 0.40666 0.20238 0.0
C48 C 0.84996 0.37048 0.22994 0.0
C49 C 0.85963 0.33815 0.24175 0.0
H50 H 0.96174 0.37809 0.20684 0.0
H51 H 0.87378 0.42987 0.20117 0.0
C52 C 0.92762 0.5187 0.08146 0.0
N53 N 0.9302 0.5285 0.1135 0.0
C54 C 0.90094 0.52769 0.06105 0.0
C55 C 0.87976 0.55644 0.10707 0.0
C56 C 0.90696 0.54693 0.12661 0.0
C57 C 0.87632 0.54658 0.07383 0.0
H58 H 0.94586 0.50324 0.07189 0.0
H59 H 0.90898 0.55358 0.15227 0.0
O60 O 0.02476 0.47857 0.18477 0.0
O61 O 0.0326 0.54853 0.13424 0.0
O62 O 0.95372 0.45147 0.1292 0.0
O63 O 0.95522 0.51035 0.18606 0.0
H64 H 0.10849 0.52941 0.20457 0.0
H65 H 0.01434 0.40101 0.16446 0.0
H66 H 0.16617 0.50654 0.20434 0.0
H67 H 0.07366 0.38038 0.16499 0.0
H68 H 0.02051 0.66249 0.08982 0.0
H69 H 0.05154 0.53877 0.07361 0.0
H70 H 0.01754 0.61665 0.13689 0.0
H71 H 0.05368 0.58584 0.02766 0.0
H72 H 0.16089 0.50568 0.09184 0.0
H73 H 0.04108 0.41037 0.0414 0.0
H74 H 0.09651 0.59004 0.28583 0.0
H75 H 0.1191 0.69216 0.21557 0.0
H76 H 0.87138 0.43875 0.12822 0.0
H77 H 0.94932 0.37267 0.12782 0.0
H78 H 0.80225 0.36446 0.12734 0.0
H79 H 0.87879 0.29951 0.12714 0.0
H80 H 0.94666 0.47972 0.24596 0.0
H81 H 0.97043 0.59355 0.18855 0.0
H82 H 0.95233 0.52297 0.29544 0.0
H83 H 0.97584 0.63482 0.23908 0.0
H84 H 0.90864 0.31619 0.24158 0.0
H85 H 0.81902 0.3696 0.23621 0.0
H86 H 0.8986 0.51867 0.03573 0.0
H87 H 0.86149 0.57116 0.11789 0.0
Li88 Li 0.53207 0.01753 0.46995 0.0
Li89 Li 0.48685 0.01952 0.51469 0.0
Li90 Li 0.50819 0.96212 0.5116 0.0
Li91 Li 0.45291 0.96176 0.47478 0.0
C92 C 0.57603 0.02973 0.5397 0.0
N93 N 0.63056 0.02947 0.58853 0.0
C94 C 0.56885 0.03778 0.5717 0.0
C95 C 0.61109 0.0218 0.53251 0.0
C96 C 0.59679 0.03749 0.59604 0.0
C97 C 0.63822 0.0217 0.55754 0.0
C98 C 0.47408 0.0627 0.46797 0.0
C99 C 0.42861 0.09637 0.47858 0.0
N100 N 0.46409 0.13721 0.47144 0.0
C101 C 0.51005 0.10497 0.4606 0.0
C102 C 0.43295 0.05827 0.47687 0.0
C103 C 0.50432 0.14225 0.46253 0.0
C104 C 0.56779 0.05344 0.40875 0.0
N105 N 0.57808 0.05405 0.44056 0.0
C106 C 0.65337 0.11166 0.4311 0.0
C107 C 0.61982 0.08226 0.45203 0.0
C108 C 0.64373 0.1118 0.39812 0.0
C109 C 0.60046 0.08185 0.38689 0.0
H110 H 0.53395 0.0315 0.40051 0.0
H111 H 0.6268 0.08267 0.47754 0.0
C112 C 0.44474 0.04334 0.56392 0.0
N113 N 0.48017 0.05862 0.54342 0.0
C114 C 0.44215 0.07228 0.58637 0.0
C115 C 0.5124 0.13199 0.56592 0.0
C116 C 0.51366 0.10192 0.54398 0.0
C117 C 0.47654 0.11719 0.58776 0.0
H118 H 0.41903 0.00851 0.56333 0.0
H119 H 0.54174 0.11289 0.52767 0.0
C120 C 0.5227 0.94808 0.43699 0.0
N121 N 0.56305 0.94433 0.3802 0.0
C122 C 0.49877 0.93663 0.40793 0.0
C123 C 0.56706 0.95736 0.4372 0.0
C124 C 0.51978 0.93494 0.37948 0.0
C125 C 0.5869 0.9554 0.40822 0.0
C126 C 0.40692 0.92021 0.52664 0.0
C127 C 0.40013 0.87754 0.53324 0.0
C128 C 0.37008 0.92642 0.52308 0.0
C129 C 0.35646 0.84167 0.53597 0.0
C130 C 0.32695 0.88968 0.52592 0.0
N131 N 0.32109 0.84842 0.53224 0.0
C132 C 0.51431 0.92397 0.56927 0.0
C133 C 0.54162 0.90291 0.52379 0.0
C134 C 0.52418 0.8979 0.58959 0.0
N135 N 0.52325 0.92607 0.53712 0.0
C136 C 0.55192 0.87621 0.54323 0.0
C137 C 0.54313 0.87345 0.57661 0.0
H138 H 0.49911 0.94234 0.57904 0.0
H139 H 0.548 0.90494 0.49808 0.0
C140 C 0.38089 0.94234 0.43242 0.0
N141 N 0.40067 0.92431 0.45064 0.0
C142 C 0.34463 0.91498 0.41255 0.0
C143 C 0.34933 0.85105 0.43122 0.0
C144 C 0.38579 0.87967 0.45038 0.0
C145 C 0.32868 0.86875 0.41167 0.0
H146 H 0.39397 0.97807 0.43269 0.0
H147 H 0.40302 0.86651 0.46446 0.0
O148 O 0.54839 0.02879 0.51562 0.0
O149 O 0.47926 0.02593 0.46691 0.0
O150 O 0.50292 0.95047 0.46505 0.0
O151 O 0.44939 0.95566 0.52344 0.0
H152 H 0.54167 0.04362 0.57776 0.0
H153 H 0.61691 0.01521 0.50791 0.0
H154 H 0.59149 0.04344 0.62093 0.0
H155 H 0.66527 0.01531 0.55236 0.0
H156 H 0.39706 0.09347 0.48565 0.0
H157 H 0.54217 0.10906 0.45379 0.0
H158 H 0.40483 0.02581 0.48275 0.0
H159 H 0.53192 0.1752 0.45706 0.0
H160 H 0.68639 0.13429 0.44063 0.0
H161 H 0.59158 0.08154 0.36173 0.0
H162 H 0.41423 0.05931 0.60305 0.0
H163 H 0.53933 0.16642 0.56583 0.0
H164 H 0.46449 0.92952 0.40725 0.0
H165 H 0.58618 0.9666 0.45942 0.0
H166 H 0.50172 0.92632 0.35679 0.0
H167 H 0.6213 0.96281 0.40799 0.0
H168 H 0.42821 0.87204 0.53588 0.0
H169 H 0.37473 0.95916 0.51778 0.0
H170 H 0.3507 0.80842 0.54092 0.0
H171 H 0.29813 0.89395 0.52301 0.0
H172 H 0.51602 0.89605 0.61505 0.0
H173 H 0.56667 0.85804 0.5323 0.0
H174 H 0.32952 0.92982 0.3978 0.0
H175 H 0.33856 0.8157 0.43075 0.0
Li176 Li 0.48563 0.45557 0.80823 0.0
Li177 Li 0.53206 0.50841 0.85007 0.0
Li178 Li 0.45007 0.48477 0.84422 0.0
Li179 Li 0.50593 0.53589 0.80486 0.0
C180 C 0.46331 0.40444 0.86185 0.0
N181 N 0.4333 0.31492 0.8727 0.0
C182 C 0.49332 0.39055 0.87135 0.0
C183 C 0.41794 0.37297 0.85839 0.0
C184 C 0.47753 0.34509 0.87657 0.0
C185 C 0.40345 0.32781 0.86386 0.0
C186 C 0.59058 0.53373 0.79775 0.0
C187 C 0.65986 0.60411 0.79805 0.0
N188 N 0.68167 0.58307 0.78685 0.0
C189 C 0.61359 0.51283 0.78602 0.0
C190 C 0.6138 0.57974 0.80365 0.0
C191 C 0.65968 0.53834 0.78075 0.0
C192 C 0.44833 0.38924 0.75926 0.0
N193 N 0.47866 0.406 0.78371 0.0
C194 C 0.50444 0.355 0.77136 0.0
C195 C 0.50663 0.38983 0.78994 0.0
C196 C 0.47357 0.33708 0.74578 0.0
C197 C 0.44505 0.35447 0.73998 0.0
H198 H 0.42751 0.40363 0.75409 0.0
H199 H 0.53124 0.4046 0.80901 0.0
C200 C 0.58293 0.54633 0.90688 0.0
N201 N 0.57908 0.52247 0.87967 0.0
C202 C 0.61712 0.55597 0.92908 0.0
C203 C 0.64239 0.51605 0.89482 0.0
C204 C 0.60763 0.50699 0.87345 0.0
C205 C 0.64743 0.54078 0.9231 0.0
H206 H 0.55922 0.55753 0.91147 0.0
H207 H 0.60294 0.48696 0.85212 0.0
C208 C 0.4061 0.46899 0.78435 0.0
N209 N 0.32178 0.4443 0.76111 0.0
C210 C 0.39841 0.5002 0.76838 0.0
C211 C 0.37099 0.42513 0.78828 0.0
C212 C 0.35552 0.48708 0.75686 0.0
C213 C 0.32857 0.41333 0.77642 0.0
C214 C 0.51031 0.58638 0.86141 0.0
C215 C 0.47437 0.59356 0.86694 0.0
C216 C 0.55404 0.62137 0.86623 0.0
C217 C 0.48285 0.63592 0.87657 0.0
C218 C 0.56113 0.66324 0.87589 0.0
N219 N 0.5257 0.66961 0.88078 0.0
C220 C 0.39714 0.45872 0.89962 0.0
C221 C 0.36509 0.47847 0.85663 0.0
C222 C 0.3619 0.45143 0.92007 0.0
N223 N 0.3982 0.47213 0.8686 0.0
C224 C 0.32871 0.47059 0.87596 0.0
C225 C 0.32696 0.45749 0.90839 0.0
H226 H 0.42435 0.45472 0.9087 0.0
H227 H 0.36718 0.49065 0.83235 0.0
C228 C 0.54346 0.58536 0.7482 0.0
N229 N 0.52111 0.5839 0.7757 0.0
C230 C 0.55401 0.61896 0.72537 0.0
C231 C 0.51812 0.64875 0.75953 0.0
C232 C 0.50811 0.6145 0.78158 0.0
C233 C 0.54124 0.65119 0.73093 0.0
H234 H 0.55268 0.5601 0.74383 0.0
H235 H 0.48888 0.61172 0.80288 0.0
O236 O 0.47821 0.44871 0.85627 0.0
O237 O 0.54553 0.50914 0.80331 0.0
O238 O 0.44787 0.48136 0.79587 0.0
O239 O 0.50255 0.54498 0.85223 0.0
H240 H 0.5285 0.41458 0.87437 0.0
H241 H 0.39418 0.38332 0.85168 0.0
H242 H 0.50044 0.3338 0.88367 0.0
H243 H 0.36845 0.30304 0.86112 0.0
H244 H 0.67825 0.63975 0.80256 0.0
H245 H 0.59606 0.47724 0.7812 0.0
H246 H 0.59637 0.59648 0.81223 0.0
H247 H 0.67796 0.52259 0.77182 0.0
H248 H 0.52691 0.34249 0.77684 0.0
H249 H 0.42146 0.34241 0.72009 0.0
H250 H 0.61988 0.57517 0.95058 0.0
H251 H 0.66439 0.50284 0.88966 0.0
H252 H 0.42522 0.53422 0.765 0.0
H253 H 0.37642 0.40048 0.80035 0.0
H254 H 0.34906 0.51092 0.74455 0.0
H255 H 0.30106 0.37955 0.77939 0.0
H256 H 0.44032 0.56686 0.8635 0.0
H257 H 0.58224 0.61623 0.86286 0.0
H258 H 0.45537 0.64202 0.8807 0.0
H259 H 0.59482 0.69064 0.87962 0.0
H260 H 0.36288 0.44242 0.94499 0.0
H261 H 0.30252 0.47517 0.86551 0.0
H262 H 0.5719 0.61967 0.70362 0.0
H263 H 0.50664 0.67224 0.76437 0.0
H264 H 0.28888 0.39958 0.95987 0.0
H265 H 0.10509 0.46795 -0.00127 0.0
H266 H 0.28048 0.50328 0.9071 0.0
H267 H 0.1673 0.43189 0.07425 0.0
H268 H 0.15626 0.46392 0.95925 0.0
H269 H 0.23175 0.3952 -0.00286 0.0
C270 C 0.27527 0.42147 0.95599 0.0
C271 C 0.29009 0.45211 0.93018 0.0
C272 C 0.15836 0.45654 0.98443 0.0
C273 C 0.22351 0.44586 0.97222 0.0
C274 C 0.12915 0.45857 0.00683 0.0
C275 C 0.13231 0.45034 0.03962 0.0
C276 C 0.19022 0.44534 -0.00508 0.0
C277 C 0.16417 0.43867 0.04911 0.0
C278 C 0.24242 0.41863 0.97719 0.0
C279 C 0.2699 0.47857 0.92611 0.0
N280 N 0.19192 0.43636 0.0268 0.0
N281 N 0.23763 0.47474 0.94684 0.0
H282 H 0.82824 0.24787 0.24003 0.0
H283 H 0.69808 0.20125 0.40808 0.0
H284 H 0.82132 0.35021 0.2956 0.0
H285 H 0.66649 0.09723 0.33759 0.0
H286 H 0.75217 0.25602 0.37031 0.0
H287 H 0.7769 0.1916 0.2787 0.0
C288 C 0.81597 0.25841 0.26042 0.0
C289 C 0.82871 0.30358 0.26462 0.0
C290 C 0.73347 0.2212 0.36313 0.0
C291 C 0.77064 0.23988 0.30883 0.0
C292 C 0.70289 0.18992 0.38474 0.0
C293 C 0.67787 0.14472 0.37589 0.0
C294 C 0.73942 0.20712 0.33256 0.0
C295 C 0.68494 0.13188 0.34519 0.0
C296 C 0.78662 0.22639 0.28233 0.0
C297 C 0.81183 0.31562 0.29131 0.0
N298 N 0.71522 0.16295 0.32461 0.0
N299 N 0.78381 0.28398 0.31249 0.0
H300 H 0.57841 0.89071 0.63776 0.0
H301 H 0.53164 0.64159 0.66512 0.0
H302 H 0.52728 0.78881 0.56365 0.0
H303 H 0.57034 0.73995 0.74119 0.0
H304 H 0.53991 0.69808 0.62583 0.0
H305 H 0.58517 0.83878 0.6742 0.0
C306 C 0.56874 0.85744 0.62912 0.0
C307 C 0.55176 0.8439 0.59774 0.0
C308 C 0.54693 0.7074 0.65109 0.0
C309 C 0.55963 0.78433 0.63926 0.0
C310 C 0.54249 0.67524 0.67349 0.0
C311 C 0.54996 0.68602 0.70651 0.0
C312 C 0.55898 0.75065 0.66177 0.0
C313 C 0.56349 0.73003 0.71604 0.0
C314 C 0.57278 0.82786 0.64989 0.0
C315 C 0.5407 0.80073 0.58759 0.0
N316 N 0.56732 0.76065 0.6938 0.0
N317 N 0.54445 0.77234 0.60839 0.0
H318 H 0.64138 0.53452 0.9892 0.0
H319 H 0.89057 0.57819 0.01159 0.0
H320 H 0.7348 0.56574 0.91059 0.0
H321 H 0.79201 0.53101 0.08794 0.0
H322 H 0.83691 0.58302 0.97571 0.0
H323 H 0.69938 0.54289 0.0272 0.0
C324 C 0.67427 0.54369 0.97998 0.0
C325 C 0.68319 0.54912 0.94665 0.0
C326 C 0.82712 0.57189 0.00038 0.0
C327 C 0.74955 0.5583 0.98994 0.0
C328 C 0.85768 0.56896 0.02084 0.0
C329 C 0.84565 0.55376 0.05275 0.0
C330 C 0.78414 0.55951 0.01185 0.0
C331 C 0.80288 0.54318 0.06361 0.0
C332 C 0.70727 0.54819 0.00166 0.0
C333 C 0.72627 0.56053 0.93603 0.0
N334 N 0.77357 0.54594 0.04313 0.0
N335 N 0.75777 0.56455 0.95758 0.0
H336 H 0.32027 0.8837 0.34787 0.0
H337 H 0.09978 0.64679 0.31987 0.0
H338 H 0.25568 0.78671 0.42387 0.0
H339 H 0.18864 0.72588 0.24275 0.0
H340 H 0.14947 0.7031 0.35877 0.0
H341 H 0.26417 0.83183 0.30958 0.0
C342 C 0.29388 0.85172 0.35657 0.0
C343 C 0.29264 0.83933 0.38902 0.0
C344 C 0.15791 0.70812 0.3333 0.0
C345 C 0.22871 0.77983 0.34539 0.0
C346 C 0.12973 0.67588 0.31106 0.0
C347 C 0.14016 0.68127 0.27791 0.0
C348 C 0.19663 0.74629 0.32236 0.0
C349 C 0.17888 0.72036 0.26795 0.0
C350 C 0.26213 0.82204 0.33468 0.0
C351 C 0.25805 0.79729 0.39895 0.0
N352 N 0.20574 0.75128 0.29009 0.0
N353 N 0.22746 0.76898 0.37719 0.0
H354 H 0.4004 0.26425 0.71917 0.0
H355 H 0.54682 0.18066 0.62306 0.0
H356 H 0.54463 0.33032 0.72305 0.0
H357 H 0.40465 0.12419 0.6089 0.0
H358 H 0.54563 0.23251 0.66262 0.0
H359 H 0.40027 0.20929 0.68165 0.0
C360 C 0.43204 0.26725 0.71214 0.0
C361 C 0.4726 0.30206 0.72428 0.0
C362 C 0.51466 0.2088 0.65088 0.0
C363 C 0.47264 0.23904 0.68157 0.0
C364 C 0.51536 0.17933 0.62811 0.0
C365 C 0.47583 0.14823 0.61238 0.0
C366 C 0.47413 0.20722 0.65815 0.0
C367 C 0.43587 0.14738 0.62057 0.0
C368 C 0.43191 0.23575 0.69082 0.0
C369 C 0.51251 0.30378 0.71471 0.0
N370 N 0.43606 0.17653 0.64283 0.0
N371 N 0.51151 0.27283 0.69388 0.0
loop_
_geom_bond_atom_site_label_1
_geom_bond_atom_site_label_2
_geom_bond_distance
_geom_bond_site_symmetry_2
_ccdc_geom_bond_type
Li0 N17 1.990 . S
Li0 O60 1.956 . S
Li0 O61 1.970 . S
Li0 O62 1.961 1_455 S
Li1 N25 1.990 . S
Li1 O60 1.970 . S
Li1 O61 1.956 . S
Li1 O63 1.961 1_455 S
Li2 N47 1.990 . S
Li2 O60 1.961 1_655 S
Li2 O62 1.956 . S
Li2 O63 1.970 . S
Li3 N53 1.990 . S
Li3 O61 1.961 1_655 S
Li3 O62 1.970 . S
Li3 O63 1.956 . S
C4 C6 1.348 . S
C4 C7 1.356 . S
C4 O60 1.325 . S
N5 C8 1.314 . S
N5 C9 1.279 . S
C6 C4 1.348 . S
C6 C8 1.353 . S
C6 H64 0.929 . S
C7 C4 1.356 . S
C7 C9 1.358 . S
C7 H65 0.930 . S
C8 N5 1.314 . S
C8 C6 1.353 . S
C8 H66 0.930 . S
C9 N5 1.279 . S
C9 C7 1.358 . S
C9 H67 0.930 . S
C10 C13 1.348 . S
C10 C14 1.356 . S
C10 O61 1.325 . S
C11 N12 1.279 . S
C11 C14 1.358 . S
C11 H68 0.930 . S
N12 C11 1.279 . S
N12 C15 1.314 . S
C13 C10 1.348 . S
C13 C15 1.353 . S
C13 H69 0.929 . S
C14 C10 1.356 . S
C14 C11 1.358 . S
C14 H70 0.930 . S
C15 N12 1.314 . S
C15 C13 1.353 . S
C15 H71 0.930 . S
C16 N17 1.314 . S
C16 C21 1.353 . S
C16 H22 0.930 . S
N17 Li0 1.990 . S
N17 C16 1.314 . S
N17 C19 1.279 . S
C18 C19 1.358 . S
C18 C20 1.356 . S
C18 H72 0.930 . S
C19 N17 1.279 . S
C19 C18 1.358 . S
C19 H23 0.930 . S
C20 C18 1.356 . S
C20 C21 1.348 . S
C21 C16 1.353 . S
C21 C20 1.348 . S
C21 H73 0.929 . S
H22 C16 0.930 . S
H23 C19 0.930 . S
C24 N25 1.314 . S
C24 C26 1.353 . S
C24 H30 0.930 . S
N25 Li1 1.990 . S
N25 C24 1.314 . S
N25 C28 1.279 . S
C26 C24 1.353 . S
C26 C29 1.348 . S
C26 H74 0.929 . S
C27 C28 1.358 . S
C27 C29 1.356 . S
C27 H75 0.930 . S
C28 N25 1.279 . S
C28 C27 1.358 . S
C28 H31 0.930 . S
C29 C26 1.348 . S
C29 C27 1.356 . S
H30 C24 0.930 . S
H31 C28 0.930 . S
C32 C34 1.348 . S
C32 C35 1.356 . S
C32 O62 1.325 . S
N33 C36 1.314 . S
N33 C37 1.279 . S
C34 C32 1.348 . S
C34 C36 1.353 . S
C34 H76 0.929 . S
C35 C32 1.356 . S
C35 C37 1.358 . S
C35 H77 0.930 . S
C36 N33 1.314 . S
C36 C34 1.353 . S
C36 H78 0.930 . S
C37 N33 1.279 . S
C37 C35 1.358 . S
C37 H79 0.930 . S
C38 C39 1.348 . S
C38 C40 1.356 . S
C38 O63 1.325 . S
C39 C38 1.348 . S
C39 C41 1.353 . S
C39 H80 0.929 . S
C40 C38 1.356 . S
C40 C42 1.358 . S
C40 H81 0.930 . S
C41 C39 1.353 . S
C41 N43 1.314 . S
C41 H82 0.930 . S
C42 C40 1.358 . S
C42 N43 1.279 . S
C42 H83 0.930 . S
N43 C41 1.314 . S
N43 C42 1.279 . S
C44 C46 1.353 . S
C44 N47 1.314 . S
C44 H50 0.930 . S
C45 N47 1.279 . S
C45 C48 1.358 . S
C45 H51 0.930 . S
C46 C44 1.353 . S
C46 C49 1.348 . S
C46 H84 0.929 . S
N47 Li2 1.990 . S
N47 C44 1.314 . S
N47 C45 1.279 . S
C48 C45 1.358 . S
C48 C49 1.356 . S
C48 H85 0.930 . S
C49 C46 1.348 . S
C49 C48 1.356 . S
H50 C44 0.930 . S
H51 C45 0.930 . S
C52 N53 1.314 . S
C52 C54 1.353 . S
C52 H58 0.930 . S
N53 Li3 1.990 . S
N53 C52 1.314 . S
N53 C56 1.279 . S
C54 C52 1.353 . S
C54 C57 1.348 . S
C54 H86 0.929 . S
C55 C56 1.358 . S
C55 C57 1.356 . S
C55 H87 0.930 . S
C56 N53 1.279 . S
C56 C55 1.358 . S
C56 H59 0.930 . S
C57 C54 1.348 . S
C57 C55 1.356 . S
H58 C52 0.930 . S
H59 C56 0.930 . S
O60 Li0 1.956 . S
O60 Li1 1.970 . S
O60 Li2 1.961 1_455 S
O60 C4 1.325 . S
O61 Li0 1.970 . S
O61 Li1 1.956 . S
O61 Li3 1.961 1_455 S
O61 C10 1.325 . S
O62 Li0 1.961 1_655 S
O62 Li2 1.956 . S
O62 Li3 1.970 . S
O62 C32 1.325 . S
O63 Li1 1.961 1_655 S
O63 Li2 1.970 . S
O63 Li3 1.956 . S
O63 C38 1.325 . S
H64 C6 0.929 . S
H65 C7 0.930 . S
H66 C8 0.930 . S
H67 C9 0.930 . S
H68 C11 0.930 . S
H69 C13 0.929 . S
H70 C14 0.930 . S
H71 C15 0.930 . S
H72 C18 0.930 . S
H73 C21 0.929 . S
H74 C26 0.929 . S
H75 C27 0.930 . S
H76 C34 0.929 . S
H77 C35 0.930 . S
H78 C36 0.930 . S
H79 C37 0.930 . S
H80 C39 0.929 . S
H81 C40 0.930 . S
H82 C41 0.930 . S
H83 C42 0.930 . S
H84 C46 0.929 . S
H85 C48 0.930 . S
H86 C54 0.929 . S
H87 C55 0.930 . S
Li88 N105 1.990 . S
Li88 O148 1.956 . S
Li88 O149 1.970 . S
Li88 O150 1.961 1_545 S
Li89 N113 1.990 . S
Li89 O148 1.970 . S
Li89 O149 1.956 . S
Li89 O151 1.961 1_545 S
Li90 N135 1.990 . S
Li90 O148 1.961 1_565 S
Li90 O150 1.956 . S
Li90 O151 1.970 . S
Li91 N141 1.990 . S
Li91 O149 1.961 1_565 S
Li91 O150 1.970 . S
Li91 O151 1.956 . S
C92 C94 1.348 . S
C92 C95 1.356 . S
C92 O148 1.325 . S
N93 C96 1.314 . S
N93 C97 1.279 . S
C94 C92 1.348 . S
C94 C96 1.353 . S
C94 H152 0.929 . S
C95 C92 1.356 . S
C95 C97 1.358 . S
C95 H153 0.930 . S
C96 N93 1.314 . S
C96 C94 1.353 . S
C96 H154 0.930 . S
C97 N93 1.279 . S
C97 C95 1.358 . S
C97 H155 0.930 . S
C98 C101 1.348 . S
C98 C102 1.356 . S
C98 O149 1.325 . S
C99 N100 1.279 . S
C99 C102 1.358 . S
C99 H156 0.930 . S
N100 C99 1.279 . S
N100 C103 1.314 . S
C101 C98 1.348 . S
C101 C103 1.353 . S
C101 H157 0.929 . S
C102 C98 1.356 . S
C102 C99 1.358 . S
C102 H158 0.930 . S
C103 N100 1.314 . S
C103 C101 1.353 . S
C103 H159 0.930 . S
C104 N105 1.314 . S
C104 C109 1.353 . S
C104 H110 0.930 . S
N105 Li88 1.990 . S
N105 C104 1.314 . S
N105 C107 1.279 . S
C106 C107 1.358 . S
C106 C108 1.356 . S
C106 H160 0.930 . S
C107 N105 1.279 . S
C107 C106 1.358 . S
C107 H111 0.930 . S
C108 C106 1.356 . S
C108 C109 1.348 . S
C109 C104 1.353 . S
C109 C108 1.348 . S
C109 H161 0.929 . S
H110 C104 0.930 . S
H111 C107 0.930 . S
C112 N113 1.314 . S
C112 C114 1.353 . S
C112 H118 0.930 . S
N113 Li89 1.990 . S
N113 C112 1.314 . S
N113 C116 1.279 . S
C114 C112 1.353 . S
C114 C117 1.348 . S
C114 H162 0.929 . S
C115 C116 1.358 . S
C115 C117 1.356 . S
C115 H163 0.930 . S
C116 N113 1.279 . S
C116 C115 1.358 . S
C116 H119 0.930 . S
C117 C114 1.348 . S
C117 C115 1.356 . S
H118 C112 0.930 . S
H119 C116 0.930 . S
C120 C122 1.348 . S
C120 C123 1.356 . S
C120 O150 1.325 . S
N121 C124 1.314 . S
N121 C125 1.279 . S
C122 C120 1.348 . S
C122 C124 1.353 . S
C122 H164 0.929 . S
C123 C120 1.356 . S
C123 C125 1.358 . S
C123 H165 0.930 . S
C124 N121 1.314 . S
C124 C122 1.353 . S
C124 H166 0.930 . S
C125 N121 1.279 . S
C125 C123 1.358 . S
C125 H167 0.930 . S
C126 C127 1.348 . S
C126 C128 1.356 . S
C126 O151 1.325 . S
C127 C126 1.348 . S
C127 C129 1.353 . S
C127 H168 0.929 . S
C128 C126 1.356 . S
C128 C130 1.358 . S
C128 H169 0.930 . S
C129 C127 1.353 . S
C129 N131 1.314 . S
C129 H170 0.930 . S
C130 C128 1.358 . S
C130 N131 1.279 . S
C130 H171 0.930 . S
N131 C129 1.314 . S
N131 C130 1.279 . S
C132 C134 1.353 . S
C132 N135 1.314 . S
C132 H138 0.930 . S
C133 N135 1.279 . S
C133 C136 1.358 . S
C133 H139 0.930 . S
C134 C132 1.353 . S
C134 C137 1.348 . S
C134 H172 0.929 . S
N135 Li90 1.990 . S
N135 C132 1.314 . S
N135 C133 1.279 . S
C136 C133 1.358 . S
C136 C137 1.356 . S
C136 H173 0.930 . S
C137 C134 1.348 . S
C137 C136 1.356 . S
H138 C132 0.930 . S
H139 C133 0.930 . S
C140 N141 1.314 . S
C140 C142 1.353 . S
C140 H146 0.930 . S
N141 Li91 1.990 . S
N141 C140 1.314 . S
N141 C144 1.279 . S
C142 C140 1.353 . S
C142 C145 1.348 . S
C142 H174 0.929 . S
C143 C144 1.358 . S
C143 C145 1.356 . S
C143 H175 0.930 . S
C144 N141 1.279 . S
C144 C143 1.358 . S
C144 H147 0.930 . S
C145 C142 1.348 . S
C145 C143 1.356 . S
H146 C140 0.930 . S
H147 C144 0.930 . S
O148 Li88 1.956 . S
O148 Li89 1.970 . S
O148 Li90 1.961 1_545 S
O148 C92 1.325 . S
O149 Li88 1.970 . S
O149 Li89 1.956 . S
O149 Li91 1.961 1_545 S
O149 C98 1.325 . S
O150 Li88 1.961 1_565 S
O150 Li90 1.956 . S
O150 Li91 1.970 . S
O150 C120 1.325 . S
O151 Li89 1.961 1_565 S
O151 Li90 1.970 . S
O151 Li91 1.956 . S
O151 C126 1.325 . S
H152 C94 0.929 . S
H153 C95 0.930 . S
H154 C96 0.930 . S
H155 C97 0.930 . S
H156 C99 0.930 . S
H157 C101 0.929 . S
H158 C102 0.930 . S
H159 C103 0.930 . S
H160 C106 0.930 . S
H161 C109 0.929 . S
H162 C114 0.929 . S
H163 C115 0.930 . S
H164 C122 0.929 . S
H165 C123 0.930 . S
H166 C124 0.930 . S
H167 C125 0.930 . S
H168 C127 0.929 . S
H169 C128 0.930 . S
H170 C129 0.930 . S
H171 C130 0.930 . S
H172 C134 0.929 . S
H173 C136 0.930 . S
H174 C142 0.929 . S
H175 C143 0.930 . S
Li176 N193 1.990 . S
Li176 O236 1.956 . S
Li176 O237 1.970 . S
Li176 O238 1.961 . S
Li177 N201 1.990 . S
Li177 O236 1.970 . S
Li177 O237 1.956 . S
Li177 O239 1.961 . S
Li178 N223 1.990 . S
Li178 O236 1.961 . S
Li178 O238 1.956 . S
Li178 O239 1.970 . S
Li179 N229 1.990 . S
Li179 O237 1.961 . S
Li179 O238 1.970 . S
Li179 O239 1.956 . S
C180 C182 1.348 . S
C180 C183 1.356 . S
C180 O236 1.325 . S
N181 C184 1.314 . S
N181 C185 1.279 . S
C182 C180 1.348 . S
C182 C184 1.353 . S
C182 H240 0.929 . S
C183 C180 1.356 . S
C183 C185 1.358 . S
C183 H241 0.930 . S
C184 N181 1.314 . S
C184 C182 1.353 . S
C184 H242 0.930 . S
C185 N181 1.279 . S
C185 C183 1.358 . S
C185 H243 0.930 . S
C186 C189 1.348 . S
C186 C190 1.356 . S
C186 O237 1.325 . S
C187 N188 1.279 . S
C187 C190 1.358 . S
C187 H244 0.930 . S
N188 C187 1.279 . S
N188 C191 1.314 . S
C189 C186 1.348 . S
C189 C191 1.353 . S
C189 H245 0.929 . S
C190 C186 1.356 . S
C190 C187 1.358 . S
C190 H246 0.930 . S
C191 N188 1.314 . S
C191 C189 1.353 . S
C191 H247 0.930 . S
C192 N193 1.314 . S
C192 C197 1.353 . S
C192 H198 0.930 . S
N193 Li176 1.990 . S
N193 C192 1.314 . S
N193 C195 1.279 . S
C194 C195 1.358 . S
C194 C196 1.356 . S
C194 H248 0.930 . S
C195 N193 1.279 . S
C195 C194 1.358 . S
C195 H199 0.930 . S
C196 C194 1.356 . S
C196 C197 1.348 . S
C197 C192 1.353 . S
C197 C196 1.348 . S
C197 H249 0.929 . S
H198 C192 0.930 . S
H199 C195 0.930 . S
C200 N201 1.314 . S
C200 C202 1.353 . S
C200 H206 0.930 . S
N201 Li177 1.990 . S
N201 C200 1.314 . S
N201 C204 1.279 . S
C202 C200 1.353 . S
C202 C205 1.348 . S
C202 H250 0.929 . S
C203 C204 1.358 . S
C203 C205 1.356 . S
C203 H251 0.930 . S
C204 N201 1.279 . S
C204 C203 1.358 . S
C204 H207 0.930 . S
C205 C202 1.348 . S
C205 C203 1.356 . S
H206 C200 0.930 . S
H207 C204 0.930 . S
C208 C210 1.348 . S
C208 C211 1.356 . S
C208 O238 1.325 . S
N209 C212 1.314 . S
N209 C213 1.279 . S
C210 C208 1.348 . S
C210 C212 1.353 . S
C210 H252 0.929 . S
C211 C208 1.356 . S
C211 C213 1.358 . S
C211 H253 0.930 . S
C212 N209 1.314 . S
C212 C210 1.353 . S
C212 H254 0.930 . S
C213 N209 1.279 . S
C213 C211 1.358 . S
C213 H255 0.930 . S
C214 C215 1.348 . S
C214 C216 1.356 . S
C214 O239 1.325 . S
C215 C214 1.348 . S
C215 C217 1.353 . S
C215 H256 0.929 . S
C216 C214 1.356 . S
C216 C218 1.358 . S
C216 H257 0.930 . S
C217 C215 1.353 . S
C217 N219 1.314 . S
C217 H258 0.930 . S
C218 C216 1.358 . S
C218 N219 1.279 . S
C218 H259 0.930 . S
N219 C217 1.314 . S
N219 C218 1.279 . S
C220 C222 1.353 . S
C220 N223 1.314 . S
C220 H226 0.930 . S
C221 N223 1.279 . S
C221 C224 1.358 . S
C221 H227 0.930 . S
C222 C220 1.353 . S
C222 C225 1.348 . S
C222 H260 0.929 . S
N223 Li178 1.990 . S
N223 C220 1.314 . S
N223 C221 1.279 . S
C224 C221 1.358 . S
C224 C225 1.356 . S
C224 H261 0.930 . S
C225 C222 1.348 . S
C225 C224 1.356 . S
H226 C220 0.930 . S
H227 C221 0.930 . S
C228 N229 1.314 . S
C228 C230 1.353 . S
C228 H234 0.930 . S
N229 Li179 1.990 . S
N229 C228 1.314 . S
N229 C232 1.279 . S
C230 C228 1.353 . S
C230 C233 1.348 . S
C230 H262 0.929 . S
C231 C232 1.358 . S
C231 C233 1.356 . S
C231 H263 0.930 . S
C232 N229 1.279 . S
C232 C231 1.358 . S
C232 H235 0.930 . S
C233 C230 1.348 . S
C233 C231 1.356 . S
H234 C228 0.930 . S
H235 C232 0.930 . S
O236 Li176 1.956 . S
O236 Li177 1.970 . S
O236 Li178 1.961 . S
O236 C180 1.325 . S
O237 Li176 1.970 . S
O237 Li177 1.956 . S
O237 Li179 1.961 . S
O237 C186 1.325 . S
O238 Li176 1.961 . S
O238 Li178 1.956 . S
O238 Li179 1.970 . S
O238 C208 1.325 . S
O239 Li177 1.961 . S
O239 Li178 1.970 . S
O239 Li179 1.956 . S
O239 C214 1.325 . S
H240 C182 0.929 . S
H241 C183 0.930 . S
H242 C184 0.930 . S
H243 C185 0.930 . S
H244 C187 0.930 . S
H245 C189 0.929 . S
H246 C190 0.930 . S
H247 C191 0.930 . S
H248 C194 0.930 . S
H249 C197 0.929 . S
H250 C202 0.929 . S
H251 C203 0.930 . S
H252 C210 0.929 . S
H253 C211 0.930 . S
H254 C212 0.930 . S
H255 C213 0.930 . S
H256 C215 0.929 . S
H257 C216 0.930 . S
H258 C217 0.930 . S
H259 C218 0.930 . S
H260 C222 0.929 . S
H261 C224 0.930 . S
H262 C230 0.929 . S
H263 C231 0.930 . S
H264 C270 0.930 . S
H265 C274 0.930 . S
H266 C279 0.929 . S
H267 C277 0.929 . S
H268 C272 0.929 . S
H269 C278 0.929 . S
C270 H264 0.930 . S
C270 C271 1.367 . S
C270 C278 1.378 . S
C271 C270 1.367 . S
C271 C279 1.433 . S
C272 H268 0.929 . S
C272 C274 1.378 . S
C272 C276 1.350 . S
C273 C276 1.463 1_556 S
C273 C278 1.350 . S
C273 N281 1.427 . S
C274 H265 0.930 . S
C274 C272 1.378 . S
C274 C275 1.367 . S
C275 C274 1.367 . S
C275 C277 1.433 . S
C276 C272 1.350 . S
C276 C273 1.463 1_554 S
C276 N280 1.427 . S
C277 H267 0.929 . S
C277 C275 1.433 . S
C277 N280 1.384 . S
C278 H269 0.929 . S
C278 C270 1.378 . S
C278 C273 1.350 . S
C279 H266 0.929 . S
C279 C271 1.433 . S
C279 N281 1.384 . S
N280 C276 1.427 . S
N280 C277 1.384 . S
N281 C273 1.427 . S
N281 C279 1.384 . S
H282 C288 0.930 . S
H283 C292 0.930 . S
H284 C297 0.929 . S
H285 C295 0.929 . S
H286 C290 0.929 . S
H287 C296 0.929 . S
C288 H282 0.930 . S
C288 C289 1.367 . S
C288 C296 1.378 . S
C289 C288 1.367 . S
C289 C297 1.433 . S
C290 H286 0.929 . S
C290 C292 1.378 . S
C290 C294 1.350 . S
C291 C294 1.463 . S
C291 C296 1.350 . S
C291 N299 1.427 . S
C292 H283 0.930 . S
C292 C290 1.378 . S
C292 C293 1.367 . S
C293 C292 1.367 . S
C293 C295 1.433 . S
C294 C290 1.350 . S
C294 C291 1.463 . S
C294 N298 1.427 . S
C295 H285 0.929 . S
C295 C293 1.433 . S
C295 N298 1.384 . S
C296 H287 0.929 . S
C296 C288 1.378 . S
C296 C291 1.350 . S
C297 H284 0.929 . S
C297 C289 1.433 . S
C297 N299 1.384 . S
N298 C294 1.427 . S
N298 C295 1.384 . S
N299 C291 1.427 . S
N299 C297 1.384 . S
H300 C306 0.930 . S
H301 C310 0.930 . S
H302 C315 0.929 . S
H303 C313 0.929 . S
H304 C308 0.929 . S
H305 C314 0.929 . S
C306 H300 0.930 . S
C306 C307 1.367 . S
C306 C314 1.378 . S
C307 C306 1.367 . S
C307 C315 1.433 . S
C308 H304 0.929 . S
C308 C310 1.378 . S
C308 C312 1.350 . S
C309 C312 1.463 . S
C309 C314 1.350 . S
C309 N317 1.427 . S
C310 H301 0.930 . S
C310 C308 1.378 . S
C310 C311 1.367 . S
C311 C310 1.367 . S
C311 C313 1.433 . S
C312 C308 1.350 . S
C312 C309 1.463 . S
C312 N316 1.427 . S
C313 H303 0.929 . S
C313 C311 1.433 . S
C313 N316 1.384 . S
C314 H305 0.929 . S
C314 C306 1.378 . S
C314 C309 1.350 . S
C315 H302 0.929 . S
C315 C307 1.433 . S
C315 N317 1.384 . S
N316 C312 1.427 . S
N316 C313 1.384 . S
N317 C309 1.427 . S
N317 C315 1.384 . S
H318 C324 0.930 . S
H319 C328 0.930 . S
H320 C333 0.929 . S
H321 C331 0.929 . S
H322 C326 0.929 . S
H323 C332 0.929 . S
C324 H318 0.930 . S
C324 C325 1.367 . S
C324 C332 1.378 . S
C325 C324 1.367 . S
C325 C333 1.433 . S
C326 H322 0.929 . S
C326 C328 1.378 . S
C326 C330 1.350 . S
C327 C330 1.463 1_556 S
C327 C332 1.350 . S
C327 N335 1.427 . S
C328 H319 0.930 . S
C328 C326 1.378 . S
C328 C329 1.367 . S
C329 C328 1.367 . S
C329 C331 1.433 . S
C330 C326 1.350 . S
C330 C327 1.463 1_554 S
C330 N334 1.427 . S
C331 H321 0.929 . S
C331 C329 1.433 . S
C331 N334 1.384 . S
C332 H323 0.929 . S
C332 C324 1.378 . S
C332 C327 1.350 . S
C333 H320 0.929 . S
C333 C325 1.433 . S
C333 N335 1.384 . S
N334 C330 1.427 . S
N334 C331 1.384 . S
N335 C327 1.427 . S
N335 C333 1.384 . S
H336 C342 0.930 . S
H337 C346 0.930 . S
H338 C351 0.929 . S
H339 C349 0.929 . S
H340 C344 0.929 . S
H341 C350 0.929 . S
C342 H336 0.930 . S
C342 C343 1.367 . S
C342 C350 1.378 . S
C343 C342 1.367 . S
C343 C351 1.433 . S
C344 H340 0.929 . S
C344 C346 1.378 . S
C344 C348 1.350 . S
C345 C348 1.463 . S
C345 C350 1.350 . S
C345 N353 1.427 . S
C346 H337 0.930 . S
C346 C344 1.378 . S
C346 C347 1.367 . S
C347 C346 1.367 . S
C347 C349 1.433 . S
C348 C344 1.350 . S
C348 C345 1.463 . S
C348 N352 1.427 . S
C349 H339 0.929 . S
C349 C347 1.433 . S
C349 N352 1.384 . S
C350 H341 0.929 . S
C350 C342 1.378 . S
C350 C345 1.350 . S
C351 H338 0.929 . S
C351 C343 1.433 . S
C351 N353 1.384 . S
N352 C348 1.427 . S
N352 C349 1.384 . S
N353 C345 1.427 . S
N353 C351 1.384 . S
H354 C360 0.930 . S
H355 C364 0.930 . S
H356 C369 0.929 . S
H357 C367 0.929 . S
H358 C362 0.929 . S
H359 C368 0.929 . S
C360 H354 0.930 . S
C360 C361 1.367 . S
C360 C368 1.378 . S
C361 C360 1.367 . S
C361 C369 1.433 . S
C362 H358 0.929 . S
C362 C364 1.378 . S
C362 C366 1.350 . S
C363 C366 1.463 . S
C363 C368 1.350 . S
C363 N371 1.427 . S
C364 H355 0.930 . S
C364 C362 1.378 . S
C364 C365 1.367 . S
C365 C364 1.367 . S
C365 C367 1.433 . S
C366 C362 1.350 . S
C366 C363 1.463 . S
C366 N370 1.427 . S
C367 H357 0.929 . S
C367 C365 1.433 . S
C367 N370 1.384 . S
C368 H359 0.929 . S
C368 C360 1.378 . S
C368 C363 1.350 . S
C369 H356 0.929 . S
C369 C361 1.433 . S
C369 N371 1.384 . S
N370 C366 1.427 . S
N370 C367 1.384 . S
N371 C363 1.427 . S
N371 C369 1.384 . S
C271 C225 1.207 . S
C275 C20 1.201 . S
C289 C49 1.207 . S
C293 C108 1.201 . S
C307 C137 1.205 . S
C311 C233 1.203 . S
C325 C205 1.201 . S
C329 C57 1.207 . S
C343 C145 1.201 . S
C347 C29 1.206 . S
C361 C196 1.208 . S
C365 C117 1.200 . S
