# Generated by pormake.
# Topology rkf, (6)-cn, num edge types: 1
# Building blocks:
#     Node 0, Type 0, BuildingBlock: BETDIP_clean_sbu_0, # of connection points: 6
#     Node 1, Type 0, BuildingBlock: BETDIP_clean_sbu_0, # of connection points: 6
#     Node 2, Type 0, BuildingBlock: BETDIP_clean_sbu_0, # of connection points: 6
#     Node 3, Type 0, BuildingBlock: BETDIP_clean_sbu_0, # of connection points: 6
#     Node 4, Type 0, BuildingBlock: BETDIP_clean_sbu_0, # of connection points: 6
#     Node 5, Type 0, BuildingBlock: BETDIP_clean_sbu_0, # of connection points: 6
#     Edge 6, Type (0, 0), BuildingBlock: EZIPEK_clean_linker_0, # of connection points: 2
#     Edge 7, Type (0, 0), BuildingBlock: EZIPEK_clean_linker_0, # of connection points: 2
#     Edge 8, Type (0, 0), BuildingBlock: EZIPEK_clean_linker_0, # of connection points: 2
#     Edge 9, Type (0, 0), BuildingBlock: EZIPEK_clean_linker_0, # of connection points: 2
#     Edge 10, Type (0, 0), BuildingBlock: EZIPEK_clean_linker_0, # of connection points: 2
#     Edge 11, Type (0, 0), BuildingBlock: EZIPEK_clean_linker_0, # of connection points: 2
#     Edge 12, Type (0, 0), BuildingBlock: EZIPEK_clean_linker_0, # of connection points: 2
#     Edge 13, Type (0, 0), BuildingBlock: EZIPEK_clean_linker_0, # of connection points: 2
#     Edge 14, Type (0, 0), BuildingBlock: EZIPEK_clean_linker_0, # of connection points: 2
#     Edge 15, Type (0, 0), BuildingBlock: EZIPEK_clean_linker_0, # of connection points: 2
#     Edge 16, Type (0, 0), BuildingBlock: EZIPEK_clean_linker_0, # of connection points: 2
#     Edge 17, Type (0, 0), BuildingBlock: EZIPEK_clean_linker_0, # of connection points: 2
#     Edge 18, Type (0, 0), BuildingBlock: EZIPEK_clean_linker_0, # of connection points: 2
#     Edge 19, Type (0, 0), BuildingBlock: EZIPEK_clean_linker_0, # of connection points: 2
#     Edge 20, Type (0, 0), BuildingBlock: EZIPEK_clean_linker_0, # of connection points: 2
#     Edge 21, Type (0, 0), BuildingBlock: EZIPEK_clean_linker_0, # of connection points: 2
#     Edge 22, Type (0, 0), BuildingBlock: EZIPEK_clean_linker_0, # of connection points: 2
#     Edge 23, Type (0, 0), BuildingBlock: EZIPEK_clean_linker_0, # of connection points: 2
# Relax obj value: 1.047
# Max RMSD: 0.246
# Mean RMSD: 0.246
data_MOF--net-rkf--node1-BETDIP_clean_sbu_0--edge1-EZIPEK_clean_linker_0
_symmetry_space_group_name_H-M    P1
_symmetry_Int_Tables_number       1
_symmetry_cell_setting            triclinic
loop_
_symmetry_equiv_pos_as_xyz
'x, y, z'
_cell_length_a     19.383921
_cell_length_b     19.370589
_cell_length_c     31.36561
_cell_angle_alpha  90.463428
_cell_angle_beta   90.107888
_cell_angle_gamma 119.6231
loop_
_atom_site_label
_atom_site_type_symbol
_atom_site_fract_x
_atom_site_fract_y
_atom_site_fract_z
_atom_type_partial_charge
Tb0 Tb 0.29117 0.01573 0.25267 0.0
Tb1 Tb 0.28777 0.1643 1.22464 0.0
C2 C 0.34654 0.93341 0.28282 0.0
C3 C 0.3572 0.91505 0.3268 0.0
C4 C 0.4155 0.89479 0.33731 0.0
C5 C 0.42777 0.88199 0.38 0.0
C6 C 0.38161 0.88946 0.4122 0.0
C7 C 0.32426 0.91064 0.40132 0.0
C8 C 0.31201 0.92309 0.35915 0.0
C9 C 0.15188 0.00573 0.25288 0.0
C10 C 0.31998 0.15527 0.32214 0.0
C11 C 0.25053 0.26666 1.20609 0.0
C12 C 0.28616 0.34943 1.2205 0.0
C13 C 0.26589 0.40051 1.19992 0.0
C14 C 0.31764 0.48208 1.20156 0.0
C15 C 0.39177 0.51256 1.22233 0.0
C16 C 0.40327 0.46296 1.25032 0.0
C17 C 0.35132 0.38107 1.24871 0.0
C18 C 0.42784 0.17428 1.2248 0.0
C19 C 0.24227 0.02082 1.15778 0.0
O20 O 0.39047 0.00827 0.27264 0.0
O21 O 0.2727 0.90358 0.26981 0.0
O22 O 0.21724 0.06482 0.26257 0.0
O23 O 0.16066 0.94395 1.24674 0.0
O24 O 0.31009 0.08275 0.31456 0.0
O25 O 0.31644 0.19877 0.29098 0.0
O26 O 0.29739 0.25147 1.18244 0.0
O27 O 0.21377 0.21298 1.23535 0.0
O28 O 0.36269 0.11506 1.21442 0.0
O29 O 0.41768 0.23494 1.23094 0.0
O30 O 0.23233 0.08141 1.17001 0.0
O31 O 0.27622 -0.00802 1.1836 0.0
H32 H 0.45189 0.88976 0.31265 0.0
H33 H 0.47316 0.86697 0.38788 0.0
H34 H 0.28932 0.91863 0.42571 0.0
H35 H 0.26772 0.93996 0.35186 0.0
H36 H 0.2151 0.37744 1.17886 0.0
H37 H 0.30538 0.51911 1.18077 0.0
H38 H 0.45777 0.48556 0.26856 0.0
H39 H 0.36695 0.34249 0.26584 0.0
Tb40 Tb 0.3591 0.3004 0.59019 0.0
Tb41 Tb 0.29953 0.40421 0.56041 0.0
C42 C 0.45242 0.257 0.61918 0.0
C43 C 0.51395 0.28154 0.6523 0.0
C44 C 0.57725 0.26704 0.64616 0.0
C45 C 0.63242 0.28286 0.67885 0.0
C46 C 0.6246 0.31249 0.71862 0.0
C47 C 0.56578 0.3352 0.72245 0.0
C48 C 0.51047 0.31886 0.68992 0.0
C49 C 0.20561 0.2243 0.57312 0.0
C50 C 0.29161 0.37568 0.65823 0.0
C51 C 0.23203 0.47215 0.52632 0.0
C52 C 0.16397 0.48435 0.53202 0.0
C53 C 0.13435 0.50276 0.49597 0.0
C54 C 0.06555 0.50779 0.49851 0.0
C55 C 0.02421 0.49408 0.53724 0.0
C56 C 0.05721 0.48108 0.57422 0.0
C57 C 0.12655 0.47541 0.57155 0.0
C58 C 0.4528 0.47753 0.57805 0.0
C59 C 0.33443 0.29839 0.49165 0.0
O60 O 0.46981 0.30645 0.58761 0.0
O61 O 0.37879 0.22767 0.63187 0.0
O62 O 0.24506 0.29195 0.58968 0.0
O63 O 0.25085 0.19254 0.5703 0.0
O64 O 0.34846 0.35757 0.65035 0.0
O65 O 0.25316 0.38438 0.62557 0.0
O66 O 0.29019 0.50683 0.55386 0.0
O67 O 0.21552 0.39971 0.51682 0.0
O68 O 0.41305 0.41205 0.55908 0.0
O69 O 0.40595 0.5051 0.58677 0.0
O70 O 0.3173 0.35591 0.49926 0.0
O71 O 0.35283 0.26628 0.52349 0.0
H72 H 0.58244 0.2408 0.61655 0.0
H73 H 0.67893 0.26881 0.67312 0.0
H74 H 0.55815 0.36034 0.75179 0.0
H75 H 0.46338 0.33282 0.69482 0.0
H76 H 0.16311 0.51079 0.46536 0.0
H77 H 0.04274 0.51882 0.46936 0.0
H78 H 0.02872 0.47338 0.60479 0.0
H79 H 0.14975 0.46226 0.59991 0.0
Tb80 Tb 0.16232 0.39091 0.92495 0.0
Tb81 Tb -0.0004 0.32266 0.88894 0.0
C82 C 0.29564 0.48294 0.95776 0.0
C83 C 0.33159 0.52848 0.99682 0.0
C84 C 0.41227 0.58639 0.99684 0.0
C85 C 0.45182 0.61973 1.03528 0.0
C86 C 0.41071 0.59438 1.07382 0.0
C87 C 0.32848 0.54192 1.07333 0.0
C88 C 0.28896 0.50919 1.03496 0.0
C89 C 0.09052 0.23684 0.90751 0.0
C90 C 0.01532 0.32154 0.98876 0.0
C91 C 0.86811 0.23957 0.85256 0.0
C92 C 0.7987 0.16038 0.8572 0.0
C93 C 0.77361 0.12319 0.89699 0.0
C94 C 0.71054 0.04476 0.89913 0.0
C95 C 0.67304 0.0033 0.86149 0.0
C96 C 0.69744 0.04187 0.82214 0.0
C97 C 0.75983 0.11937 0.82005 0.0
C98 C 0.07132 0.47715 0.90465 0.0
C99 C 0.14929 0.36883 0.8257 0.0
O100 O 0.25634 0.50714 0.93406 0.0
O101 O 0.25931 0.40549 0.96116 0.0
O102 O 0.05983 0.27526 0.92246 0.0
O103 O 0.16687 0.2831 0.90769 0.0
O104 O 0.08976 0.37914 0.98256 0.0
O105 O -0.02817 0.28063 0.95523 0.0
O106 O 0.88027 0.29263 0.88204 0.0
O107 O 0.93333 0.24037 0.84114 0.0
O108 O 0.10181 0.43835 0.88938 0.0
O109 O -0.00406 0.42953 0.90793 0.0
O110 O 0.07098 0.33678 0.83028 0.0
O111 O 0.19801 0.39869 0.85861 0.0
H112 H 0.44571 0.60214 0.96744 0.0
H113 H 0.51531 0.65986 1.03524 0.0
H114 H 0.296 0.52172 1.10287 0.0
H115 H 0.22647 0.4653 1.03537 0.0
H116 H 0.8037 0.15399 0.92607 0.0
H117 H 0.69246 0.01599 0.92975 0.0
H118 H 0.66929 0.01108 0.79271 0.0
H119 H 0.77933 0.14678 0.78918 0.0
Tb120 Tb 0.86679 0.20986 0.25791 0.0
Tb121 Tb 0.7762 0.04729 1.22186 0.0
C122 C 0.89958 0.33691 0.29631 0.0
C123 C 0.88375 0.35922 0.33889 0.0
C124 C 0.82435 0.38034 0.34449 0.0
C125 C 0.81088 0.40316 0.38479 0.0
C126 C 0.85773 0.40655 0.41972 0.0
C127 C 0.9161 0.38442 0.41407 0.0
C128 C 0.92925 0.36142 0.37422 0.0
C129 C -0.05019 0.13709 1.24326 0.0
C130 C 0.7909 0.06286 0.32196 0.0
C131 C 0.7363 0.91794 1.1849 0.0
C132 C 0.74685 0.84825 1.1905 0.0
C133 C 0.81188 0.84696 1.17156 0.0
C134 C 0.81168 0.77548 1.16644 0.0
C135 C 0.74655 0.70455 1.18006 0.0
C136 C 0.68728 0.7071 1.20441 0.0
C137 C 0.68674 0.77862 1.2091 0.0
C138 C 0.68945 0.11495 1.23698 0.0
C139 C 0.8781 0.19778 1.1589 0.0
O140 O 0.8384 0.29938 0.27076 0.0
O141 O -0.05269 0.30718 0.29474 0.0
O142 O 0.8808 0.10761 0.25701 0.0
O143 O -0.01991 0.21367 1.24324 0.0
O144 O 0.8074 0.13717 0.31526 0.0
O145 O 0.78802 0.01852 0.28866 0.0
O146 O 0.69029 0.92783 1.21183 0.0
O147 O 0.79991 -0.01534 1.17535 0.0
O148 O 0.75869 0.148 1.22192 0.0
O149 O 0.66436 0.03979 1.23978 0.0
O150 O 0.83358 0.1194 1.16375 0.0
O151 O 0.89498 0.24701 1.19168 0.0
H152 H 0.78859 0.37951 0.3177 0.0
H153 H 0.76478 0.41884 0.38859 0.0
H154 H -0.04776 0.38538 0.44069 0.0
H155 H -0.02441 0.34588 0.37122 0.0
H156 H 0.85967 0.89971 1.15736 0.0
H157 H 0.85806 0.77442 1.14766 0.0
H158 H 0.63747 0.65304 1.21582 0.0
H159 H 0.6363 0.77799 1.2243 0.0
Tb160 Tb 0.75336 0.86927 0.58276 0.0
Tb161 Tb 0.89937 0.86685 0.54951 0.0
C162 C 0.62068 0.81297 0.61816 0.0
C163 C 0.59956 0.80835 0.66339 0.0
C164 C 0.52613 0.74812 0.67834 0.0
C165 C 0.50769 0.74443 0.72185 0.0
C166 C 0.56252 0.80145 0.75044 0.0
C167 C 0.63651 0.86003 0.73527 0.0
C168 C 0.65496 0.86331 0.69232 0.0
C169 C 0.88097 0.00719 0.58336 0.0
C170 C 0.87075 0.8418 0.64814 0.0
C171 C 0.03262 0.90207 0.52043 0.0
C172 C 0.09565 0.88193 0.52756 0.0
C173 C 0.13839 0.89849 0.5662 0.0
C174 C 0.20394 0.88648 0.56946 0.0
C175 C 0.228 0.85919 0.53393 0.0
C176 C 0.18094 0.83708 0.4967 0.0
C177 C 0.11608 0.84881 0.49348 0.0
C178 C 0.76957 0.72995 0.55158 0.0
C179 C 0.80122 0.9218 0.48745 0.0
O180 O 0.65276 0.76988 0.60701 0.0
O181 O 0.65883 0.88488 0.6025 0.0
O182 O 0.87634 0.9411 0.59014 0.0
O183 O 0.81019 -0.00098 0.58201 0.0
O184 O 0.80939 0.8546 0.64243 0.0
O185 O 0.91283 0.84024 0.61531 0.0
O186 O -0.03417 0.84497 0.50463 0.0
O187 O 0.02213 0.94477 0.5497 0.0
O188 O 0.77544 0.79552 0.54169 0.0
O189 O 0.83963 0.73791 0.5566 0.0
O190 O 0.8658 0.91646 0.4953 0.0
O191 O 0.74304 0.89739 0.51592 0.0
H192 H 0.48328 0.70429 0.65644 0.0
H193 H 0.45082 0.69805 0.73304 0.0
H194 H 0.68017 0.90405 0.75678 0.0
H195 H 0.71256 0.90928 0.68166 0.0
H196 H 0.12275 0.92274 0.59335 0.0
H197 H 0.23703 0.90094 0.59912 0.0
H198 H 0.19659 0.81419 0.46899 0.0
H199 H 0.08353 0.83464 0.46358 0.0
Tb200 Tb -0.00681 0.78139 0.91357 0.0
Tb201 Tb 0.1402 0.93154 0.88411 0.0
C202 C 0.91539 0.6431 0.94237 0.0
C203 C 0.88741 0.60913 0.98454 0.0
C204 C 0.83045 0.52858 0.98869 0.0
C205 C 0.79211 0.50018 1.02772 0.0
C206 C 0.80982 0.55291 1.06229 0.0
C207 C 0.87297 0.63112 1.05906 0.0
C208 C 0.91113 0.65913 1.02042 0.0
C209 C -0.02073 0.90829 0.91419 0.0
C210 C 0.13059 0.89885 0.98271 0.0
C211 C 0.23791 0.06345 0.85409 0.0
C212 C 0.32402 0.11514 0.85368 0.0
C213 C 0.35658 0.16681 0.81949 0.0
C214 C 0.4381 0.20821 0.81377 0.0
C215 C 0.4888 0.19832 0.8419 0.0
C216 C 0.45685 0.14934 0.87754 0.0
C217 C 0.37431 0.1074 0.88333 0.0
C218 C 0.14985 0.80126 0.88385 0.0
C219 C -0.00777 0.83572 0.82038 0.0
O220 O -0.00746 0.68034 0.93732 0.0
O221 O 0.88263 0.683 0.927 0.0
O222 O 0.04035 0.90402 0.92233 0.0
O223 O 0.91798 0.83718 0.911 0.0
O224 O 0.05951 0.83475 0.97495 0.0
O225 O 0.1746 0.94427 0.95114 0.0
O226 O 0.21228 -0.00398 0.8335 0.0
O227 O 0.20161 0.05568 0.89044 0.0
O228 O 0.09096 0.80824 0.87399 0.0
O229 O 0.21066 0.87115 0.89031 0.0
O230 O 0.05093 0.90592 0.83333 0.0
O231 O -0.03284 0.77227 0.84487 0.0
H232 H 0.8121 0.48909 0.96121 0.0
H233 H 0.74396 0.43952 1.02975 0.0
H234 H 0.88759 0.67286 1.08535 0.0
H235 H -0.04506 0.72126 1.01794 0.0
H236 H 0.31873 0.17186 0.79576 0.0
H237 H 0.4612 0.24454 0.7858 0.0
H238 H 0.49511 0.14049 0.89934 0.0
H239 H 0.34968 0.0666 0.90966 0.0
C240 C 0.01448 0.07647 0.28658 0.0
C241 C -0.00461 0.09444 1.24583 0.0
C242 C 0.0488 0.01685 1.21135 0.0
C243 C 0.07785 0.00964 0.25129 0.0
N244 N 0.06813 0.00651 0.3272 0.0
N245 N -0.00809 0.08079 1.1692 0.0
C246 C 0.05333 0.03068 0.28911 0.0
C247 C 0.01093 0.06344 1.20809 0.0
N248 N -0.00093 0.10681 0.3225 0.0
N249 N 0.05555 -0.02323 1.17711 0.0
H250 H -0.03733 0.11322 1.16583 0.0
H251 H 0.0088 0.0672 1.14027 0.0
H252 H 0.07884 0.93876 1.18036 0.0
H253 H 0.03134 -0.02568 1.14713 0.0
H254 H 0.01236 0.09781 0.35334 0.0
H255 H -0.0236 0.14554 0.32134 0.0
H256 H 0.04931 0.0157 0.35665 0.0
H257 H 0.09567 -0.02811 0.32875 0.0
C258 C -0.01576 0.13722 0.55529 0.0
C259 C -0.04442 0.08255 0.58883 0.0
C260 C 0.08899 0.13438 0.6177 0.0
C261 C 0.11919 0.17718 0.57925 0.0
N262 N 0.09717 0.22114 0.51147 0.0
N263 N -0.02778 0.05376 0.66077 0.0
C264 C 0.06729 0.18075 0.54844 0.0
C265 C 0.00567 0.08922 0.62306 0.0
N266 N 0.93217 0.14781 0.53067 0.0
N267 N 0.13974 0.13436 0.64798 0.0
H268 H 0.91073 0.02281 0.66483 0.0
H269 H 0.00398 0.06032 0.68871 0.0
H270 H 0.20108 0.16506 0.64452 0.0
H271 H 0.12179 0.10153 0.67583 0.0
H272 H -0.05035 0.19224 0.50798 0.0
H273 H 0.87111 0.11629 0.5358 0.0
H274 H 0.06233 0.22181 0.48637 0.0
H275 H 0.15746 0.24932 0.50467 0.0
C276 C -0.02838 0.01751 0.87795 0.0
C277 C -0.02095 -0.01602 0.91616 0.0
C278 C 0.04902 0.11447 0.95049 0.0
C279 C 0.05116 0.14948 0.91049 0.0
N280 N 0.01542 0.13609 0.83591 0.0
N281 N -0.00088 -0.00689 0.9917 0.0
C282 C 0.01143 0.10146 0.87425 0.0
C283 C 0.0092 0.03049 0.95354 0.0
N284 N 0.92562 -0.03147 0.84572 0.0
N285 N 0.08875 0.16166 0.98474 0.0
H286 H -0.0315 0.93125 0.99392 0.0
H287 H 0.01511 0.02189 1.02117 0.0
H288 H 0.12263 0.22311 0.98268 0.0
H289 H 0.09273 0.14072 1.01452 0.0
H290 H 0.91252 -0.01212 0.81759 0.0
H291 H 0.89375 0.90715 0.84932 0.0
H292 H -0.00526 0.10498 0.80727 0.0
H293 H 0.04426 0.19727 0.83214 0.0
C294 C 0.49438 0.54846 1.17014 0.0
C295 C 0.46083 0.5775 1.20024 0.0
C296 C 0.45142 0.66089 1.14539 0.0
C297 C 0.45368 0.60792 1.11467 0.0
N298 N 0.48432 0.50398 1.09719 0.0
N299 N 0.44032 0.68427 1.22118 0.0
C300 C 0.47964 0.55389 1.12659 0.0
C301 C 0.45409 0.64443 1.1894 0.0
N302 N 0.53274 0.50947 1.18345 0.0
N303 N 0.44208 0.72272 1.13225 0.0
H304 H 0.44067 0.66898 0.25304 0.0
H305 H 0.42905 0.73085 1.2163 0.0
H306 H 0.43985 0.73404 1.09992 0.0
H307 H 0.44113 0.76464 1.15281 0.0
H308 H 0.5598 0.48797 1.1627 0.0
H309 H 0.54492 0.50716 1.21563 0.0
H310 H 0.4938 0.45731 1.10542 0.0
H311 H 0.47562 0.50713 1.06464 0.0
C312 C 0.93555 0.54108 0.51151 0.0
C313 C 0.94277 0.48381 0.53571 0.0
C314 C 0.83255 0.37888 0.49611 0.0
C315 C 0.84951 0.43352 0.46288 0.0
N316 N 0.89646 0.56906 0.44278 0.0
N317 N 0.86826 0.35119 0.56417 0.0
C318 C 0.89175 0.51601 0.47251 0.0
C319 C 0.87967 0.40454 0.53336 0.0
N320 N -0.0206 0.6189 0.52328 0.0
N321 N 0.77746 0.301 0.49005 0.0
H322 H 0.90083 0.36672 0.59256 0.0
H323 H 0.90083 0.36672 0.59256 0.0
H324 H 0.74327 0.28142 0.46216 0.0
H325 H 0.76565 0.25805 0.51313 0.0
H326 H -0.02285 0.66505 0.50776 0.0
H327 H 0.01469 0.63531 0.55082 0.0
H328 H 0.93199 0.6303 0.44612 0.0
H329 H 0.86372 0.55061 0.41448 0.0
C330 C 0.53719 0.90056 0.84361 0.0
C331 C 0.61153 0.91815 0.86065 0.0
C332 C 0.59883 0.8001 0.8253 0.0
C333 C 0.54562 0.80481 0.7963 0.0
N334 N 0.44654 0.8427 0.78358 0.0
N335 N 0.70337 0.87277 0.87747 0.0
C336 C 0.5066 0.84731 0.80831 0.0
C337 C 0.63731 0.86175 0.85611 0.0
N338 N 0.50074 0.94006 0.85917 0.0
N339 N 0.61669 0.7408 0.82044 0.0
H340 H 0.73107 0.91731 0.90057 0.0
H341 H 0.73097 0.83917 0.87174 0.0
H342 H 0.59009 0.69797 0.7963 0.0
H343 H 0.65118 0.73051 0.84219 0.0
H344 H 0.44423 0.92782 0.84972 0.0
H345 H 0.52605 -0.019 0.88426 0.0
H346 H 0.42158 0.87907 0.78786 0.0
H347 H 0.4227 0.80244 0.75821 0.0
C348 C 0.69133 0.61436 1.11742 0.0
C349 C 0.73071 0.63099 1.15747 0.0
C350 C 0.78282 0.54252 1.13955 0.0
C351 C 0.75349 0.53687 1.0976 0.0
N352 N 0.65227 0.53831 1.05305 0.0
N353 N 0.79412 0.59491 1.2118 0.0
C354 C 0.69618 0.55996 1.08957 0.0
C355 C 0.76885 0.58835 1.17059 0.0
N356 N 0.65394 0.65461 1.10422 0.0
N357 N 0.8298 0.51006 1.14778 0.0
H358 H 0.78405 0.62886 1.23435 0.0
H359 H 0.81984 0.56322 1.2242 0.0
H360 H 0.83876 0.47618 1.12465 0.0
H361 H 0.85967 0.51694 1.17646 0.0
H362 H 0.62877 0.64652 1.07384 0.0
H363 H 0.64854 0.69618 1.12308 0.0
H364 H 0.65243 0.49785 1.03096 0.0
H365 H 0.65243 0.49785 1.03096 0.0
C366 C 0.37247 0.93688 0.52228 0.0
C367 C 0.30614 0.8621 0.53158 0.0
C368 C 0.34425 0.80087 0.47505 0.0
C369 C 0.39127 0.87775 0.45801 0.0
N370 N 0.47386 0.01728 0.47192 0.0
N371 N 0.25602 0.72219 0.53253 0.0
C372 C 0.41555 0.94475 0.48479 0.0
C373 C 0.30407 0.79362 0.51417 0.0
N374 N 0.39099 0.00247 0.5463 0.0
N375 N 0.33208 0.73611 0.4517 0.0
H376 H 0.22405 0.71866 0.56002 0.0
H377 H 0.25192 0.66899 0.52245 0.0
H378 H 0.36223 0.742 0.42324 0.0
H379 H 0.29313 0.67777 0.46034 0.0
H380 H 0.36184 0.00074 0.57453 0.0
H381 H 0.36184 0.00074 0.57453 0.0
H382 H 0.4911 0.069 0.48985 0.0
H383 H 0.50514 0.02378 0.44376 0.0
C384 C 0.62087 0.316 0.82935 0.0
C385 C 0.57275 0.23221 0.82907 0.0
C386 C 0.64502 0.22534 0.76745 0.0
C387 C 0.66334 0.30368 0.7582 0.0
N388 N 0.71395 0.43272 0.78901 0.0
N389 N 0.55352 0.10564 0.80468 0.0
C390 C 0.66978 0.35256 0.79332 0.0
C391 C 0.59161 0.18618 0.80113 0.0
N392 N 0.61296 0.35894 0.86167 0.0
N393 N 0.67688 0.18926 0.74358 0.0
H394 H 0.51507 0.07679 0.82977 0.0
H395 H 0.5584 0.06814 0.7824 0.0
H396 H 0.72221 0.22147 0.72197 0.0
H397 H 0.66507 0.13138 0.74859 0.0
H398 H 0.64282 0.42069 0.86311 0.0
H399 H 0.57633 0.3308 0.88766 0.0
H400 H 0.7214 0.47348 0.81289 0.0
H401 H 0.7457 0.45707 0.76103 0.0
C402 C 0.52783 0.14803 1.18912 0.0
C403 C 0.50485 0.17507 1.22565 0.0
C404 C 0.61664 0.18157 0.26626 0.0
C405 C 0.6329 0.14484 1.23134 0.0
N406 N 0.60314 0.08945 1.16009 0.0
N407 N 0.52893 0.22356 0.29825 0.0
C408 C 0.58884 0.1279 1.19272 0.0
C409 C 0.55071 0.19509 0.26383 0.0
N410 N 0.49294 0.14438 1.15059 0.0
N411 N 0.66341 0.2017 0.302 0.0
H412 H 0.48267 0.23621 0.29733 0.0
H413 H 0.55485 0.23343 0.32832 0.0
H414 H 0.70944 0.18905 0.30533 0.0
H415 H 0.65981 0.2338 0.32776 0.0
H416 H 0.51187 0.13258 1.12181 0.0
H417 H 0.44984 0.16119 1.14672 0.0
H418 H 0.56663 0.06614 1.13336 0.0
H419 H 0.64933 0.0765 1.16069 0.0
C420 C 0.59621 0.54381 0.59803 0.0
C421 C 0.5367 0.53232 0.5681 0.0
C422 C 0.63637 0.63429 0.52223 0.0
C423 C 0.69331 0.655 0.55531 0.0
N424 N 0.72885 0.63043 0.6253 0.0
N425 N 0.49762 0.56686 0.50197 0.0
C426 C 0.67426 0.60906 0.59309 0.0
C427 C 0.55613 0.57711 0.53004 0.0
N428 N 0.57771 0.49246 0.63125 0.0
N429 N 0.65981 0.66747 0.48285 0.0
H430 H 0.43846 0.52292 0.5052 0.0
H431 H 0.50672 0.60497 0.47672 0.0
H432 H 0.71887 0.70747 0.47563 0.0
H433 H 0.62268 0.64946 0.45619 0.0
H434 H 0.6197 0.49174 0.65169 0.0
H435 H 0.52027 0.44604 0.63637 0.0
H436 H 0.71565 0.60528 0.65546 0.0
H437 H 0.7869 0.67685 0.62311 0.0
C438 C 0.14725 0.61865 0.92998 0.0
C439 C 0.10371 0.56295 0.89718 0.0
C440 C 0.11483 0.67022 0.85173 0.0
C441 C 0.14775 0.7239 0.88657 0.0
N442 N 0.19842 0.75206 0.9587 0.0
N443 N 0.04268 0.53349 0.82728 0.0
C444 C 0.16659 0.69944 0.92541 0.0
C445 C 0.08723 0.58821 0.85798 0.0
N446 N 0.16878 0.59374 0.96573 0.0
N447 N 0.11226 0.69852 0.81229 0.0
H448 H 0.02416 0.47315 0.82962 0.0
H449 H 0.01999 0.5469 0.80047 0.0
H450 H 0.13444 0.75883 0.80654 0.0
H451 H 0.09601 0.66405 0.78455 0.0
H452 H 0.20788 0.63175 0.98889 0.0
H453 H 0.15099 0.53427 0.97117 0.0
H454 H 0.20586 0.73655 0.98933 0.0
H455 H 0.21492 0.81182 0.95645 0.0
C456 C 0.26614 0.21199 0.37727 0.0
C457 C 0.32132 0.18608 0.36691 0.0
C458 C 0.39016 0.24296 0.43547 0.0
C459 C 0.33372 0.26749 0.44653 0.0
N460 N 0.22938 0.29204 0.42046 0.0
N461 N 0.42613 0.16277 0.39047 0.0
C462 C 0.27508 0.25684 0.41539 0.0
C463 C 0.3802 0.19711 0.39738 0.0
N464 N 0.20072 0.18858 0.35185 0.0
N465 N 0.45813 0.27048 0.45923 0.0
H466 H 0.42215 0.1308 0.36285 0.0
H467 H 0.46306 0.15973 0.41364 0.0
H468 H 0.4726 0.31146 0.48411 0.0
H469 H 0.50515 0.26154 0.451 0.0
H470 H 0.15241 0.1952 0.36023 0.0
H471 H 0.19007 0.15445 0.32433 0.0
H472 H 0.19672 0.2979 0.39577 0.0
H473 H 0.22832 0.32268 0.44732 0.0
C474 C 0.2419 0.43637 0.71424 0.0
C475 C 0.26287 0.37749 0.70311 0.0
C476 C 0.21455 0.31688 0.77387 0.0
C477 C 0.18496 0.36972 0.78261 0.0
N478 N 0.16414 0.47571 0.75877 0.0
N479 N 0.25872 0.25434 0.72212 0.0
C480 C 0.19653 0.42799 0.75194 0.0
C481 C 0.24706 0.31624 0.73301 0.0
N482 N 0.26932 0.50303 0.68995 0.0
N483 N 0.2127 0.26716 0.80496 0.0
H484 H 0.28556 0.25122 0.6942 0.0
H485 H 0.23623 0.20223 0.73961 0.0
H486 H 0.18475 0.26107 0.83391 0.0
H487 H 0.24342 0.23588 0.80322 0.0
H488 H 0.26293 0.5517 0.69828 0.0
H489 H 0.30641 0.51369 0.66385 0.0
H490 H 0.16227 0.51316 0.73572 0.0
H491 H 0.13363 0.47337 0.78654 0.0
C492 C 0.90173 0.27334 1.04258 0.0
C493 C -0.01774 0.29544 1.03349 0.0
C494 C -0.00384 0.26337 1.10826 0.0
C495 C 0.91349 0.23173 1.1156 0.0
N496 N 0.78559 0.19979 1.08727 0.0
N497 N 0.10157 0.29627 1.05773 0.0
C498 C 0.86571 0.2343 1.08185 0.0
C499 C 0.02827 0.28669 1.0664 0.0
N500 N 0.86063 0.29379 1.01476 0.0
N501 N 0.04548 0.27266 1.14151 0.0
H502 H 0.12989 0.31481 1.02866 0.0
H503 H 0.13196 0.27862 1.0784 0.0
H504 H 0.02568 0.25588 1.17236 0.0
H505 H 0.10694 0.30335 1.13907 0.0
H506 H 0.80475 0.28649 1.02122 0.0
H507 H 0.88586 0.32637 0.98725 0.0
H508 H 0.74615 0.19113 1.06251 0.0
H509 H 0.75801 0.17476 1.11602 0.0
C510 C 0.72437 0.95515 0.37856 0.0
C511 C 0.78713 0.03165 0.36687 0.0
C512 C 0.8604 0.03265 0.43172 0.0
C513 C 0.7959 0.95853 0.44544 0.0
N514 N 0.66344 0.85055 0.43142 0.0
N515 N 0.90307 0.15241 0.39163 0.0
C516 C 0.72668 0.92068 0.41883 0.0
C517 C 0.85106 0.07311 0.39623 0.0
N518 N 0.66221 0.91499 0.35087 0.0
N519 N 0.933 0.06501 0.45124 0.0
H520 H 0.90193 0.18658 0.36667 0.0
H521 H 0.94377 0.18674 0.41533 0.0
H522 H -0.05523 0.04497 0.47937 0.0
H523 H -0.01581 0.11019 0.43742 0.0
H524 H 0.61957 0.85545 0.35392 0.0
H525 H 0.65426 0.94103 0.32369 0.0
H526 H 0.6075 0.82526 0.41726 0.0
H527 H 0.66586 0.81797 0.45704 0.0
C528 C 0.84576 0.7941 0.72604 0.0
C529 C 0.89965 0.83785 0.69277 0.0
C530 C 0.01068 0.86245 0.7413 0.0
C531 C -0.04198 0.82945 0.7761 0.0
N532 N 0.82375 0.76981 0.80203 0.0
N533 N 0.0365 0.92983 0.67407 0.0
C534 C 0.87502 0.7966 0.76855 0.0
C535 C -0.01709 0.87622 0.70187 0.0
N536 N 0.76683 0.74712 0.71697 0.0
N537 N 0.08744 0.8784 0.74527 0.0
H538 H 0.02067 0.94801 0.64643 0.0
H539 H 0.0968 0.96413 0.68111 0.0
H540 H 0.10947 0.86634 0.77289 0.0
H541 H 0.12629 0.89444 0.71962 0.0
H542 H 0.72614 0.70732 0.73857 0.0
H543 H 0.74273 0.74166 0.68664 0.0
H544 H 0.76445 0.75481 0.7994 0.0
H545 H 0.84153 0.76854 0.83322 0.0
C546 C 0.14904 0.87452 1.06171 0.0
C547 C 0.15809 0.92771 1.0282 0.0
C548 C 0.23489 0.0397 1.07826 0.0
C549 C 0.21639 -0.01294 1.11304 0.0
N550 N 0.14248 0.85189 1.13799 0.0
N551 N 0.19177 0.06246 1.01035 0.0
C552 C 0.16991 0.9037 1.1048 0.0
C553 C 0.19608 0.0107 1.0381 0.0
N554 N 0.12357 0.79651 1.05256 0.0
N555 N 0.29199 0.11762 1.08281 0.0
H556 H 0.15844 0.04467 0.98232 0.0
H557 H 0.21276 0.12209 1.01788 0.0
H558 H 0.32489 0.14086 1.11078 0.0
H559 H 0.31326 0.15662 1.05724 0.0
H560 H 0.12404 0.75711 1.07481 0.0
H561 H 0.10941 0.77275 1.02184 0.0
H562 H 0.10091 0.79191 1.13415 0.0
H563 H 0.15502 0.86976 1.16977 0.0
loop_
_geom_bond_atom_site_label_1
_geom_bond_atom_site_label_2
_geom_bond_distance
_geom_bond_site_symmetry_2
_ccdc_geom_bond_type
Tb0 C2 2.809 . S
Tb0 O20 2.484 . S
Tb0 O21 2.440 . S
Tb0 O22 2.658 . S
Tb0 O23 2.409 . S
Tb0 O24 2.378 . S
Tb0 O28 2.325 . S
Tb0 O31 2.341 1_554 S
Tb1 C11 2.809 . S
Tb1 O22 2.325 1_556 S
Tb1 O25 2.341 1_556 S
Tb1 O26 2.484 . S
Tb1 O27 2.440 . S
Tb1 O28 2.658 1_556 S
Tb1 O29 2.409 . S
Tb1 O30 2.378 . S
C2 Tb0 2.809 . S
C2 C3 1.514 . S
C2 O20 1.248 . S
C2 O21 1.266 . S
C3 C2 1.514 . S
C3 C4 1.359 . S
C3 C8 1.348 . S
C4 C3 1.359 . S
C4 C5 1.380 . S
C4 H32 0.929 . S
C5 C4 1.380 . S
C5 C6 1.347 . S
C5 H33 0.931 . S
C6 C5 1.347 . S
C6 C7 1.369 . S
C7 C6 1.369 . S
C7 C8 1.408 . S
C7 H34 0.930 1_545 S
C8 C3 1.348 . S
C8 C7 1.408 . S
C8 H35 0.930 . S
C9 O22 1.281 . S
C9 O23 1.254 . S
C10 O24 1.236 . S
C10 O25 1.266 . S
C11 Tb1 2.809 . S
C11 C12 1.514 . S
C11 O26 1.248 . S
C11 O27 1.266 . S
C12 C11 1.514 . S
C12 C13 1.359 . S
C12 C17 1.348 . S
C13 C12 1.359 . S
C13 C14 1.380 . S
C13 H36 0.929 . S
C14 C13 1.380 . S
C14 C15 1.347 . S
C14 H37 0.931 . S
C15 C14 1.347 . S
C15 C16 1.369 . S
C16 C15 1.369 . S
C16 C17 1.408 . S
C16 H38 0.930 . S
C17 C12 1.348 . S
C17 C16 1.408 . S
C17 H39 0.930 . S
C18 O28 1.281 . S
C18 O29 1.254 1_554 S
C19 O30 1.236 . S
C19 O31 1.266 . S
O20 Tb0 2.484 . S
O20 C2 1.248 . S
O21 Tb0 2.440 . S
O21 C2 1.266 . S
O22 Tb0 2.658 . S
O22 Tb1 2.325 1_554 S
O22 C9 1.281 . S
O23 Tb0 2.409 . S
O23 C9 1.254 . S
O24 Tb0 2.378 . S
O24 C10 1.236 . S
O25 Tb1 2.341 1_554 S
O25 C10 1.266 . S
O26 Tb1 2.484 . S
O26 C11 1.248 . S
O27 Tb1 2.440 . S
O27 C11 1.266 . S
O28 Tb0 2.325 . S
O28 Tb1 2.658 1_554 S
O28 C18 1.281 . S
O29 Tb1 2.409 . S
O29 C18 1.254 1_556 S
O30 Tb1 2.378 . S
O30 C19 1.236 . S
O31 Tb0 2.341 1_556 S
O31 C19 1.266 . S
H32 C4 0.929 . S
H33 C5 0.931 . S
H34 C7 0.930 1_565 S
H35 C8 0.930 . S
H36 C13 0.929 . S
H37 C14 0.931 . S
H38 C16 0.930 . S
H39 C17 0.930 . S
Tb40 C42 2.809 . S
Tb40 O60 2.484 . S
Tb40 O61 2.440 . S
Tb40 O62 2.658 . S
Tb40 O63 2.409 . S
Tb40 O64 2.378 . S
Tb40 O68 2.325 . S
Tb40 O71 2.341 . S
Tb41 C51 2.809 . S
Tb41 O62 2.325 . S
Tb41 O65 2.341 . S
Tb41 O66 2.484 . S
Tb41 O67 2.440 . S
Tb41 O68 2.658 . S
Tb41 O69 2.409 . S
Tb41 O70 2.378 . S
C42 Tb40 2.809 . S
C42 C43 1.514 . S
C42 O60 1.248 . S
C42 O61 1.266 . S
C43 C42 1.514 . S
C43 C44 1.359 . S
C43 C48 1.348 . S
C44 C43 1.359 . S
C44 C45 1.380 . S
C44 H72 0.929 . S
C45 C44 1.380 . S
C45 C46 1.347 . S
C45 H73 0.931 . S
C46 C45 1.347 . S
C46 C47 1.369 . S
C47 C46 1.369 . S
C47 C48 1.408 . S
C47 H74 0.930 . S
C48 C43 1.348 . S
C48 C47 1.408 . S
C48 H75 0.930 . S
C49 O62 1.281 . S
C49 O63 1.254 . S
C50 O64 1.236 . S
C50 O65 1.266 . S
C51 Tb41 2.809 . S
C51 C52 1.514 . S
C51 O66 1.248 . S
C51 O67 1.266 . S
C52 C51 1.514 . S
C52 C53 1.359 . S
C52 C57 1.348 . S
C53 C52 1.359 . S
C53 C54 1.380 . S
C53 H76 0.929 . S
C54 C53 1.380 . S
C54 C55 1.347 . S
C54 H77 0.931 . S
C55 C54 1.347 . S
C55 C56 1.369 . S
C56 C55 1.369 . S
C56 C57 1.408 . S
C56 H78 0.930 . S
C57 C52 1.348 . S
C57 C56 1.408 . S
C57 H79 0.930 . S
C58 O68 1.281 . S
C58 O69 1.254 . S
C59 O70 1.236 . S
C59 O71 1.266 . S
O60 Tb40 2.484 . S
O60 C42 1.248 . S
O61 Tb40 2.440 . S
O61 C42 1.266 . S
O62 Tb40 2.658 . S
O62 Tb41 2.325 . S
O62 C49 1.281 . S
O63 Tb40 2.409 . S
O63 C49 1.254 . S
O64 Tb40 2.378 . S
O64 C50 1.236 . S
O65 Tb41 2.341 . S
O65 C50 1.266 . S
O66 Tb41 2.484 . S
O66 C51 1.248 . S
O67 Tb41 2.440 . S
O67 C51 1.266 . S
O68 Tb40 2.325 . S
O68 Tb41 2.658 . S
O68 C58 1.281 . S
O69 Tb41 2.409 . S
O69 C58 1.254 . S
O70 Tb41 2.378 . S
O70 C59 1.236 . S
O71 Tb40 2.341 . S
O71 C59 1.266 . S
H72 C44 0.929 . S
H73 C45 0.931 . S
H74 C47 0.930 . S
H75 C48 0.930 . S
H76 C53 0.929 . S
H77 C54 0.931 . S
H78 C56 0.930 . S
H79 C57 0.930 . S
Tb80 C82 2.809 . S
Tb80 O100 2.484 . S
Tb80 O101 2.440 . S
Tb80 O102 2.658 . S
Tb80 O103 2.409 . S
Tb80 O104 2.378 . S
Tb80 O108 2.325 . S
Tb80 O111 2.341 . S
Tb81 C91 2.809 . S
Tb81 O102 2.325 1_655 S
Tb81 O105 2.341 . S
Tb81 O106 2.484 . S
Tb81 O107 2.440 . S
Tb81 O108 2.658 1_655 S
Tb81 O109 2.409 . S
Tb81 O110 2.378 1_655 S
C82 Tb80 2.809 . S
C82 C83 1.514 . S
C82 O100 1.248 . S
C82 O101 1.266 . S
C83 C82 1.514 . S
C83 C84 1.359 . S
C83 C88 1.348 . S
C84 C83 1.359 . S
C84 C85 1.380 . S
C84 H112 0.929 . S
C85 C84 1.380 . S
C85 C86 1.347 . S
C85 H113 0.931 . S
C86 C85 1.347 . S
C86 C87 1.369 . S
C87 C86 1.369 . S
C87 C88 1.408 . S
C87 H114 0.930 . S
C88 C83 1.348 . S
C88 C87 1.408 . S
C88 H115 0.930 . S
C89 O102 1.281 . S
C89 O103 1.254 . S
C90 O104 1.236 1_655 S
C90 O105 1.266 . S
C91 Tb81 2.809 . S
C91 C92 1.514 . S
C91 O106 1.248 . S
C91 O107 1.266 . S
C92 C91 1.514 . S
C92 C93 1.359 . S
C92 C97 1.348 . S
C93 C92 1.359 . S
C93 C94 1.380 . S
C93 H116 0.929 . S
C94 C93 1.380 . S
C94 C95 1.347 . S
C94 H117 0.931 . S
C95 C94 1.347 . S
C95 C96 1.369 . S
C96 C95 1.369 . S
C96 C97 1.408 . S
C96 H118 0.930 . S
C97 C92 1.348 . S
C97 C96 1.408 . S
C97 H119 0.930 . S
C98 O108 1.281 1_655 S
C98 O109 1.254 . S
C99 O110 1.236 . S
C99 O111 1.266 . S
O100 Tb80 2.484 . S
O100 C82 1.248 . S
O101 Tb80 2.440 . S
O101 C82 1.266 . S
O102 Tb80 2.658 . S
O102 Tb81 2.325 1_455 S
O102 C89 1.281 . S
O103 Tb80 2.409 . S
O103 C89 1.254 . S
O104 Tb80 2.378 . S
O104 C90 1.236 1_455 S
O105 Tb81 2.341 . S
O105 C90 1.266 . S
O106 Tb81 2.484 . S
O106 C91 1.248 . S
O107 Tb81 2.440 . S
O107 C91 1.266 . S
O108 Tb80 2.325 . S
O108 Tb81 2.658 1_455 S
O108 C98 1.281 1_455 S
O109 Tb81 2.409 . S
O109 C98 1.254 . S
O110 Tb81 2.378 1_455 S
O110 C99 1.236 . S
O111 Tb80 2.341 . S
O111 C99 1.266 . S
H112 C84 0.929 . S
H113 C85 0.931 . S
H114 C87 0.930 . S
H115 C88 0.930 . S
H116 C93 0.929 . S
H117 C94 0.931 . S
H118 C96 0.930 . S
H119 C97 0.930 . S
Tb120 C122 2.809 . S
Tb120 O140 2.484 . S
Tb120 O141 2.440 . S
Tb120 O142 2.658 . S
Tb120 O143 2.409 . S
Tb120 O144 2.378 . S
Tb120 O148 2.325 . S
Tb120 O151 2.341 1_554 S
Tb121 C131 2.809 . S
Tb121 O142 2.325 1_566 S
Tb121 O145 2.341 1_556 S
Tb121 O146 2.484 . S
Tb121 O147 2.440 . S
Tb121 O148 2.658 1_566 S
Tb121 O149 2.409 . S
Tb121 O150 2.378 1_565 S
C122 Tb120 2.809 . S
C122 C123 1.514 . S
C122 O140 1.248 . S
C122 O141 1.266 . S
C123 C122 1.514 . S
C123 C124 1.359 . S
C123 C128 1.348 . S
C124 C123 1.359 . S
C124 C125 1.380 . S
C124 H152 0.929 . S
C125 C124 1.380 . S
C125 C126 1.347 . S
C125 H153 0.931 . S
C126 C125 1.347 . S
C126 C127 1.369 . S
C127 C126 1.369 . S
C127 C128 1.408 . S
C127 H154 0.930 1_655 S
C128 C123 1.348 . S
C128 C127 1.408 . S
C128 H155 0.930 . S
C129 O142 1.281 . S
C129 O143 1.254 . S
C130 O144 1.236 1_565 S
C130 O145 1.266 . S
C131 Tb121 2.809 . S
C131 C132 1.514 . S
C131 O146 1.248 . S
C131 O147 1.266 . S
C132 C131 1.514 . S
C132 C133 1.359 . S
C132 C137 1.348 . S
C133 C132 1.359 . S
C133 C134 1.380 . S
C133 H156 0.929 . S
C134 C133 1.380 . S
C134 C135 1.347 . S
C134 H157 0.931 . S
C135 C134 1.347 . S
C135 C136 1.369 . S
C136 C135 1.369 . S
C136 C137 1.408 . S
C136 H158 0.930 . S
C137 C132 1.348 . S
C137 C136 1.408 . S
C137 H159 0.930 . S
C138 O148 1.281 1_565 S
C138 O149 1.254 1_554 S
C139 O150 1.236 . S
C139 O151 1.266 . S
O140 Tb120 2.484 . S
O140 C122 1.248 . S
O141 Tb120 2.440 . S
O141 C122 1.266 . S
O142 Tb120 2.658 . S
O142 Tb121 2.325 1_544 S
O142 C129 1.281 . S
O143 Tb120 2.409 . S
O143 C129 1.254 . S
O144 Tb120 2.378 . S
O144 C130 1.236 1_545 S
O145 Tb121 2.341 1_554 S
O145 C130 1.266 . S
O146 Tb121 2.484 . S
O146 C131 1.248 . S
O147 Tb121 2.440 . S
O147 C131 1.266 . S
O148 Tb120 2.325 . S
O148 Tb121 2.658 1_544 S
O148 C138 1.281 1_545 S
O149 Tb121 2.409 . S
O149 C138 1.254 1_556 S
O150 Tb121 2.378 1_545 S
O150 C139 1.236 . S
O151 Tb120 2.341 1_556 S
O151 C139 1.266 . S
H152 C124 0.929 . S
H153 C125 0.931 . S
H154 C127 0.930 1_455 S
H155 C128 0.930 . S
H156 C133 0.929 . S
H157 C134 0.931 . S
H158 C136 0.930 . S
H159 C137 0.930 . S
Tb160 C162 2.809 . S
Tb160 O180 2.484 . S
Tb160 O181 2.440 . S
Tb160 O182 2.658 1_655 S
Tb160 O183 2.409 1_665 S
Tb160 O184 2.378 . S
Tb160 O188 2.325 . S
Tb160 O191 2.341 . S
Tb161 C171 2.809 . S
Tb161 O182 2.325 . S
Tb161 O185 2.341 . S
Tb161 O186 2.484 . S
Tb161 O187 2.440 . S
Tb161 O188 2.658 1_455 S
Tb161 O189 2.409 1_455 S
Tb161 O190 2.378 1_455 S
C162 Tb160 2.809 . S
C162 C163 1.514 . S
C162 O180 1.248 . S
C162 O181 1.266 . S
C163 C162 1.514 . S
C163 C164 1.359 . S
C163 C168 1.348 . S
C164 C163 1.359 . S
C164 C165 1.380 . S
C164 H192 0.929 . S
C165 C164 1.380 . S
C165 C166 1.347 . S
C165 H193 0.931 . S
C166 C165 1.347 . S
C166 C167 1.369 . S
C167 C166 1.369 . S
C167 C168 1.408 . S
C167 H194 0.930 1_565 S
C168 C163 1.348 . S
C168 C167 1.408 . S
C168 H195 0.930 1_565 S
C169 O182 1.281 . S
C169 O183 1.254 1_565 S
C170 O184 1.236 1_455 S
C170 O185 1.266 . S
C171 Tb161 2.809 . S
C171 C172 1.514 . S
C171 O186 1.248 . S
C171 O187 1.266 . S
C172 C171 1.514 . S
C172 C173 1.359 . S
C172 C177 1.348 . S
C173 C172 1.359 . S
C173 C174 1.380 . S
C173 H196 0.929 . S
C174 C173 1.380 . S
C174 C175 1.347 . S
C174 H197 0.931 . S
C175 C174 1.347 . S
C175 C176 1.369 . S
C176 C175 1.369 . S
C176 C177 1.408 . S
C176 H198 0.930 . S
C177 C172 1.348 . S
C177 C176 1.408 . S
C177 H199 0.930 1_455 S
C178 O188 1.281 . S
C178 O189 1.254 . S
C179 O190 1.236 . S
C179 O191 1.266 . S
O180 Tb160 2.484 . S
O180 C162 1.248 . S
O181 Tb160 2.440 . S
O181 C162 1.266 . S
O182 Tb160 2.658 1_455 S
O182 Tb161 2.325 . S
O182 C169 1.281 . S
O183 Tb160 2.409 1_445 S
O183 C169 1.254 1_545 S
O184 Tb160 2.378 . S
O184 C170 1.236 1_655 S
O185 Tb161 2.341 . S
O185 C170 1.266 . S
O186 Tb161 2.484 . S
O186 C171 1.248 . S
O187 Tb161 2.440 . S
O187 C171 1.266 . S
O188 Tb160 2.325 . S
O188 Tb161 2.658 1_655 S
O188 C178 1.281 . S
O189 Tb161 2.409 1_655 S
O189 C178 1.254 . S
O190 Tb161 2.378 1_655 S
O190 C179 1.236 . S
O191 Tb160 2.341 . S
O191 C179 1.266 . S
H192 C164 0.929 . S
H193 C165 0.931 . S
H194 C167 0.930 1_545 S
H195 C168 0.930 1_545 S
H196 C173 0.929 . S
H197 C174 0.931 . S
H198 C176 0.930 . S
H199 C177 0.930 1_655 S
Tb200 C202 2.809 . S
Tb200 O220 2.484 . S
Tb200 O221 2.440 . S
Tb200 O222 2.658 1_565 S
Tb200 O223 2.409 1_565 S
Tb200 O224 2.378 . S
Tb200 O228 2.325 . S
Tb200 O231 2.341 . S
Tb201 C211 2.809 . S
Tb201 O222 2.325 . S
Tb201 O225 2.341 . S
Tb201 O226 2.484 . S
Tb201 O227 2.440 . S
Tb201 O228 2.658 1_545 S
Tb201 O229 2.409 1_545 S
Tb201 O230 2.378 1_545 S
C202 Tb200 2.809 . S
C202 C203 1.514 . S
C202 O220 1.248 . S
C202 O221 1.266 . S
C203 C202 1.514 . S
C203 C204 1.359 . S
C203 C208 1.348 . S
C204 C203 1.359 . S
C204 C205 1.380 . S
C204 H232 0.929 . S
C205 C204 1.380 . S
C205 C206 1.347 . S
C205 H233 0.931 . S
C206 C205 1.347 . S
C206 C207 1.369 . S
C207 C206 1.369 . S
C207 C208 1.408 . S
C207 H234 0.930 1_455 S
C208 C203 1.348 . S
C208 C207 1.408 . S
C208 H235 0.930 . S
C209 O222 1.281 . S
C209 O223 1.254 . S
C210 O224 1.236 1_545 S
C210 O225 1.266 . S
C211 Tb201 2.809 . S
C211 C212 1.514 . S
C211 O226 1.248 . S
C211 O227 1.266 . S
C212 C211 1.514 . S
C212 C213 1.359 . S
C212 C217 1.348 . S
C213 C212 1.359 . S
C213 C214 1.380 . S
C213 H236 0.929 . S
C214 C213 1.380 . S
C214 C215 1.347 . S
C214 H237 0.931 . S
C215 C214 1.347 . S
C215 C216 1.369 . S
C216 C215 1.369 . S
C216 C217 1.408 . S
C216 H238 0.930 . S
C217 C212 1.348 . S
C217 C216 1.408 . S
C217 H239 0.930 . S
C218 O228 1.281 . S
C218 O229 1.254 . S
C219 O230 1.236 . S
C219 O231 1.266 . S
O220 Tb200 2.484 . S
O220 C202 1.248 . S
O221 Tb200 2.440 . S
O221 C202 1.266 . S
O222 Tb200 2.658 1_545 S
O222 Tb201 2.325 . S
O222 C209 1.281 . S
O223 Tb200 2.409 1_545 S
O223 C209 1.254 . S
O224 Tb200 2.378 . S
O224 C210 1.236 1_565 S
O225 Tb201 2.341 . S
O225 C210 1.266 . S
O226 Tb201 2.484 . S
O226 C211 1.248 . S
O227 Tb201 2.440 . S
O227 C211 1.266 . S
O228 Tb200 2.325 . S
O228 Tb201 2.658 1_565 S
O228 C218 1.281 . S
O229 Tb201 2.409 1_565 S
O229 C218 1.254 . S
O230 Tb201 2.378 1_565 S
O230 C219 1.236 . S
O231 Tb200 2.341 . S
O231 C219 1.266 . S
H232 C204 0.929 . S
H233 C205 0.931 . S
H234 C207 0.930 1_655 S
H235 C208 0.930 . S
H236 C213 0.929 . S
H237 C214 0.931 . S
H238 C216 0.930 . S
H239 C217 0.930 . S
C240 C241 1.363 . S
C240 C246 1.379 . S
C240 N248 1.356 . S
C241 C240 1.363 . S
C241 C247 1.363 1_554 S
C242 C243 1.363 1_556 S
C242 C247 1.379 . S
C242 N249 1.356 . S
C243 C242 1.363 1_554 S
C243 C246 1.363 . S
N244 C246 1.356 . S
N244 H256 0.984 . S
N244 H257 0.985 . S
N245 C247 1.356 . S
N245 H250 0.983 1_545 S
N245 H251 0.985 1_545 S
C246 C240 1.379 . S
C246 C243 1.363 . S
C246 N244 1.356 . S
C247 C241 1.363 1_556 S
C247 C242 1.379 . S
C247 N245 1.356 . S
N248 C240 1.356 . S
N248 H254 0.984 . S
N248 H255 0.984 1_455 S
N249 C242 1.356 . S
N249 H252 0.984 . S
N249 H253 0.985 . S
H250 N245 0.983 1_565 S
H251 N245 0.985 1_565 S
H252 N249 0.984 . S
H253 N249 0.985 . S
H254 N248 0.984 . S
H255 N248 0.984 1_655 S
H256 N244 0.984 . S
H257 N244 0.985 . S
C258 C259 1.363 . S
C258 C264 1.379 . S
C258 N266 1.356 . S
C259 C258 1.363 . S
C259 C265 1.363 . S
C260 C261 1.363 . S
C260 C265 1.379 . S
C260 N267 1.356 . S
C261 C260 1.363 . S
C261 C264 1.363 . S
N262 C264 1.356 . S
N262 H274 0.984 . S
N262 H275 0.985 . S
N263 C265 1.356 . S
N263 H268 0.984 1_545 S
N263 H269 0.985 . S
C264 C258 1.379 . S
C264 C261 1.363 . S
C264 N262 1.356 . S
C265 C259 1.363 . S
C265 C260 1.379 . S
C265 N263 1.356 . S
N266 C258 1.356 . S
N266 H272 0.984 . S
N266 H273 0.984 . S
N267 C260 1.356 . S
N267 H270 0.984 . S
N267 H271 0.985 . S
H268 N263 0.984 1_565 S
H269 N263 0.985 . S
H270 N267 0.984 . S
H271 N267 0.985 . S
H272 N266 0.984 . S
H273 N266 0.984 . S
H274 N262 0.984 . S
H275 N262 0.985 . S
C276 C277 1.363 . S
C276 C282 1.379 . S
C276 N284 1.356 . S
C277 C276 1.363 . S
C277 C283 1.363 . S
C278 C279 1.363 . S
C278 C283 1.379 . S
C278 N285 1.356 . S
C279 C278 1.363 . S
C279 C282 1.363 . S
N280 C282 1.356 . S
N280 H292 0.984 . S
N280 H293 0.985 . S
N281 C283 1.356 . S
N281 H286 0.984 . S
N281 H287 0.985 . S
C282 C276 1.379 . S
C282 C279 1.363 . S
C282 N280 1.356 . S
C283 C277 1.363 . S
C283 C278 1.379 . S
C283 N281 1.356 . S
N284 C276 1.356 . S
N284 H290 0.984 . S
N284 H291 0.984 . S
N285 C278 1.356 . S
N285 H288 0.984 1_455 S
N285 H289 0.985 1_455 S
H286 N281 0.984 . S
H287 N281 0.985 . S
H288 N285 0.984 1_655 S
H289 N285 0.985 1_655 S
H290 N284 0.984 . S
H291 N284 0.984 . S
H292 N280 0.984 . S
H293 N280 0.985 . S
C294 C295 1.363 . S
C294 C300 1.379 . S
C294 N302 1.356 . S
C295 C294 1.363 . S
C295 C301 1.363 . S
C296 C297 1.363 . S
C296 C301 1.379 . S
C296 N303 1.356 . S
C297 C296 1.363 . S
C297 C300 1.363 . S
N298 C300 1.356 . S
N298 H310 0.984 . S
N298 H311 0.985 . S
N299 C301 1.356 . S
N299 H304 0.984 . S
N299 H305 0.985 . S
C300 C294 1.379 . S
C300 C297 1.363 . S
C300 N298 1.356 . S
C301 C295 1.363 . S
C301 C296 1.379 . S
C301 N299 1.356 . S
N302 C294 1.356 . S
N302 H308 0.984 . S
N302 H309 0.984 . S
N303 C296 1.356 . S
N303 H306 0.984 . S
N303 H307 0.985 . S
H304 N299 0.984 . S
H305 N299 0.985 . S
H306 N303 0.984 . S
H307 N303 0.985 . S
H308 N302 0.984 . S
H309 N302 0.984 . S
H310 N298 0.984 . S
H311 N298 0.985 . S
C312 C313 1.363 . S
C312 C318 1.379 1_455 S
C312 N320 1.356 . S
C313 C312 1.363 . S
C313 C319 1.363 . S
C314 C315 1.363 1_455 S
C314 C319 1.379 . S
C314 N321 1.356 1_455 S
C315 C314 1.363 1_655 S
C315 C318 1.363 . S
N316 C318 1.356 . S
N316 H328 0.984 . S
N316 H329 0.985 . S
N317 C319 1.356 . S
N317 H322 0.984 . S
N317 H323 0.985 . S
C318 C312 1.379 1_655 S
C318 C315 1.363 . S
C318 N316 1.356 . S
C319 C313 1.363 . S
C319 C314 1.379 . S
C319 N317 1.356 . S
N320 C312 1.356 . S
N320 H326 0.984 1_455 S
N320 H327 0.984 . S
N321 C314 1.356 1_655 S
N321 H324 0.984 . S
N321 H325 0.985 1_655 S
H322 N317 0.984 . S
H323 N317 0.985 . S
H324 N321 0.984 . S
H325 N321 0.985 1_455 S
H326 N320 0.984 1_655 S
H327 N320 0.984 . S
H328 N316 0.984 . S
H329 N316 0.985 . S
C330 C331 1.363 . S
C330 C336 1.379 1_545 S
C330 N338 1.356 . S
C331 C330 1.363 . S
C331 C337 1.363 . S
C332 C333 1.363 1_545 S
C332 C337 1.379 . S
C332 N339 1.357 . S
C333 C332 1.363 1_565 S
C333 C336 1.363 . S
N334 C336 1.356 . S
N334 H346 0.984 . S
N334 H347 0.985 . S
N335 C337 1.356 . S
N335 H340 0.984 . S
N335 H341 0.985 . S
C336 C330 1.379 1_565 S
C336 C333 1.363 . S
C336 N334 1.356 . S
C337 C331 1.363 . S
C337 C332 1.379 . S
C337 N335 1.356 . S
N338 C330 1.356 . S
N338 H344 0.984 1_545 S
N338 H345 0.984 . S
N339 C332 1.357 . S
N339 H342 0.983 1_545 S
N339 H343 0.985 . S
H340 N335 0.984 . S
H341 N335 0.985 . S
H342 N339 0.983 1_565 S
H343 N339 0.985 . S
H344 N338 0.984 1_565 S
H345 N338 0.984 . S
H346 N334 0.984 . S
H347 N334 0.985 . S
C348 C349 1.363 . S
C348 C354 1.379 . S
C348 N356 1.356 . S
C349 C348 1.363 . S
C349 C355 1.363 . S
C350 C351 1.363 . S
C350 C355 1.379 . S
C350 N357 1.356 . S
C351 C350 1.363 . S
C351 C354 1.363 . S
N352 C354 1.356 1_455 S
N352 H364 0.984 . S
N352 H365 0.985 . S
N353 C355 1.356 . S
N353 H358 0.984 . S
N353 H359 0.985 . S
C354 C348 1.379 . S
C354 C351 1.363 . S
C354 N352 1.356 1_655 S
C355 C349 1.363 . S
C355 C350 1.379 . S
C355 N353 1.356 . S
N356 C348 1.356 . S
N356 H362 0.984 . S
N356 H363 0.984 . S
N357 C350 1.356 . S
N357 H360 0.984 . S
N357 H361 0.985 . S
H358 N353 0.984 . S
H359 N353 0.985 . S
H360 N357 0.984 . S
H361 N357 0.985 . S
H362 N356 0.984 . S
H363 N356 0.984 . S
H364 N352 0.984 . S
H365 N352 0.985 . S
C366 C367 1.363 . S
C366 C372 1.379 . S
C366 N374 1.356 . S
C367 C366 1.363 . S
C367 C373 1.363 . S
C368 C369 1.363 . S
C368 C373 1.379 . S
C368 N375 1.356 . S
C369 C368 1.363 . S
C369 C372 1.363 . S
N370 C372 1.356 1_545 S
N370 H382 0.984 . S
N370 H383 0.985 . S
N371 C373 1.356 . S
N371 H376 0.984 . S
N371 H377 0.985 . S
C372 C366 1.379 . S
C372 C369 1.363 . S
C372 N370 1.356 1_565 S
C373 C367 1.363 . S
C373 C368 1.379 . S
C373 N371 1.356 . S
N374 C366 1.356 . S
N374 H380 0.984 . S
N374 H381 0.984 . S
N375 C368 1.356 . S
N375 H378 0.984 . S
N375 H379 0.985 . S
H376 N371 0.984 . S
H377 N371 0.985 . S
H378 N375 0.984 . S
H379 N375 0.985 . S
H380 N374 0.984 . S
H381 N374 0.984 . S
H382 N370 0.984 . S
H383 N370 0.985 . S
C384 C385 1.363 . S
C384 C390 1.379 . S
C384 N392 1.356 . S
C385 C384 1.363 . S
C385 C391 1.363 . S
C386 C387 1.363 . S
C386 C391 1.379 . S
C386 N393 1.356 . S
C387 C386 1.363 . S
C387 C390 1.363 . S
N388 C390 1.356 . S
N388 H400 0.984 . S
N388 H401 0.985 . S
N389 C391 1.356 . S
N389 H394 0.984 . S
N389 H395 0.985 . S
C390 C384 1.379 . S
C390 C387 1.363 . S
C390 N388 1.356 . S
C391 C385 1.363 . S
C391 C386 1.379 . S
C391 N389 1.356 . S
N392 C384 1.356 . S
N392 H398 0.984 . S
N392 H399 0.984 . S
N393 C386 1.356 . S
N393 H396 0.984 . S
N393 H397 0.985 . S
H394 N389 0.984 . S
H395 N389 0.985 . S
H396 N393 0.984 . S
H397 N393 0.985 . S
H398 N392 0.984 . S
H399 N392 0.984 . S
H400 N388 0.984 . S
H401 N388 0.985 . S
C402 C403 1.363 1_556 S
C402 C408 1.379 . S
C402 N410 1.356 . S
C403 C402 1.363 1_554 S
C403 C409 1.363 . S
C404 C405 1.363 . S
C404 C409 1.379 . S
C404 N411 1.356 . S
C405 C404 1.363 . S
C405 C408 1.363 1_554 S
N406 C408 1.356 . S
N406 H418 0.984 . S
N406 H419 0.985 1_545 S
N407 C409 1.356 . S
N407 H412 0.984 . S
N407 H413 0.985 . S
C408 C402 1.379 . S
C408 C405 1.363 1_556 S
C408 N406 1.356 . S
C409 C403 1.363 . S
C409 C404 1.379 . S
C409 N407 1.356 . S
N410 C402 1.356 . S
N410 H416 0.984 . S
N410 H417 0.984 . S
N411 C404 1.356 . S
N411 H414 0.984 . S
N411 H415 0.985 . S
H412 N407 0.984 . S
H413 N407 0.985 . S
H414 N411 0.984 . S
H415 N411 0.985 . S
H416 N410 0.984 . S
H417 N410 0.984 . S
H418 N406 0.984 . S
H419 N406 0.985 1_565 S
C420 C421 1.363 . S
C420 C426 1.379 . S
C420 N428 1.356 . S
C421 C420 1.363 . S
C421 C427 1.363 . S
C422 C423 1.363 . S
C422 C427 1.379 . S
C422 N429 1.356 . S
C423 C422 1.363 . S
C423 C426 1.363 . S
N424 C426 1.356 . S
N424 H436 0.984 . S
N424 H437 0.985 . S
N425 C427 1.356 . S
N425 H430 0.984 . S
N425 H431 0.985 . S
C426 C420 1.379 . S
C426 C423 1.363 . S
C426 N424 1.356 . S
C427 C421 1.363 . S
C427 C422 1.379 . S
C427 N425 1.356 . S
N428 C420 1.356 . S
N428 H434 0.984 . S
N428 H435 0.984 . S
N429 C422 1.356 . S
N429 H432 0.984 . S
N429 H433 0.985 . S
H430 N425 0.984 . S
H431 N425 0.985 . S
H432 N429 0.984 . S
H433 N429 0.985 . S
H434 N428 0.984 . S
H435 N428 0.984 . S
H436 N424 0.984 . S
H437 N424 0.985 . S
C438 C439 1.363 . S
C438 C444 1.379 . S
C438 N446 1.356 . S
C439 C438 1.363 . S
C439 C445 1.363 . S
C440 C441 1.363 . S
C440 C445 1.379 . S
C440 N447 1.356 . S
C441 C440 1.363 . S
C441 C444 1.363 . S
N442 C444 1.356 . S
N442 H454 0.984 . S
N442 H455 0.985 . S
N443 C445 1.356 . S
N443 H448 0.984 . S
N443 H449 0.985 . S
C444 C438 1.379 . S
C444 C441 1.363 . S
C444 N442 1.356 . S
C445 C439 1.363 . S
C445 C440 1.379 . S
C445 N443 1.356 . S
N446 C438 1.356 . S
N446 H452 0.984 . S
N446 H453 0.984 1_455 S
N447 C440 1.356 . S
N447 H450 0.984 . S
N447 H451 0.985 . S
H448 N443 0.984 . S
H449 N443 0.985 . S
H450 N447 0.984 . S
H451 N447 0.985 . S
H452 N446 0.984 . S
H453 N446 0.984 1_655 S
H454 N442 0.984 . S
H455 N442 0.985 . S
C456 C457 1.363 . S
C456 C462 1.379 . S
C456 N464 1.356 . S
C457 C456 1.363 . S
C457 C463 1.363 . S
C458 C459 1.363 . S
C458 C463 1.379 . S
C458 N465 1.356 . S
C459 C458 1.363 . S
C459 C462 1.363 . S
N460 C462 1.356 . S
N460 H472 0.984 . S
N460 H473 0.985 . S
N461 C463 1.356 . S
N461 H466 0.984 . S
N461 H467 0.985 . S
C462 C456 1.379 . S
C462 C459 1.363 . S
C462 N460 1.356 . S
C463 C457 1.363 . S
C463 C458 1.379 . S
C463 N461 1.356 . S
N464 C456 1.356 . S
N464 H470 0.984 . S
N464 H471 0.984 . S
N465 C458 1.356 . S
N465 H468 0.984 . S
N465 H469 0.985 . S
H466 N461 0.984 . S
H467 N461 0.985 . S
H468 N465 0.984 . S
H469 N465 0.985 . S
H470 N464 0.984 . S
H471 N464 0.984 . S
H472 N460 0.984 . S
H473 N460 0.985 . S
C474 C475 1.363 . S
C474 C480 1.379 . S
C474 N482 1.356 . S
C475 C474 1.363 . S
C475 C481 1.363 . S
C476 C477 1.363 . S
C476 C481 1.379 . S
C476 N483 1.356 . S
C477 C476 1.363 . S
C477 C480 1.363 . S
N478 C480 1.356 . S
N478 H490 0.984 . S
N478 H491 0.985 . S
N479 C481 1.356 . S
N479 H484 0.984 . S
N479 H485 0.985 . S
C480 C474 1.379 . S
C480 C477 1.363 . S
C480 N478 1.356 . S
C481 C475 1.363 . S
C481 C476 1.379 . S
C481 N479 1.356 . S
N482 C474 1.356 . S
N482 H488 0.984 . S
N482 H489 0.984 . S
N483 C476 1.356 . S
N483 H486 0.984 . S
N483 H487 0.985 . S
H484 N479 0.984 . S
H485 N479 0.985 . S
H486 N483 0.984 . S
H487 N483 0.985 . S
H488 N482 0.984 . S
H489 N482 0.984 . S
H490 N478 0.984 . S
H491 N478 0.985 . S
C492 C493 1.363 . S
C492 C498 1.379 . S
C492 N500 1.356 . S
C493 C492 1.363 . S
C493 C499 1.363 . S
C494 C495 1.363 . S
C494 C499 1.379 . S
C494 N501 1.356 . S
C495 C494 1.363 . S
C495 C498 1.363 . S
N496 C498 1.356 . S
N496 H508 0.984 1_545 S
N496 H509 0.985 . S
N497 C499 1.356 . S
N497 H502 0.984 . S
N497 H503 0.985 . S
C498 C492 1.379 . S
C498 C495 1.363 . S
C498 N496 1.356 . S
C499 C493 1.363 . S
C499 C494 1.379 . S
C499 N497 1.356 . S
N500 C492 1.356 . S
N500 H506 0.984 . S
N500 H507 0.984 . S
N501 C494 1.356 . S
N501 H504 0.984 . S
N501 H505 0.985 . S
H502 N497 0.984 . S
H503 N497 0.985 . S
H504 N501 0.984 . S
H505 N501 0.985 . S
H506 N500 0.984 . S
H507 N500 0.984 . S
H508 N496 0.984 1_565 S
H509 N496 0.985 . S
C510 C511 1.363 . S
C510 C516 1.379 . S
C510 N518 1.356 . S
C511 C510 1.363 . S
C511 C517 1.363 . S
C512 C513 1.363 . S
C512 C517 1.379 . S
C512 N519 1.356 . S
C513 C512 1.363 . S
C513 C516 1.363 . S
N514 C516 1.356 . S
N514 H526 0.984 . S
N514 H527 0.985 . S
N515 C517 1.356 1_545 S
N515 H520 0.984 1_545 S
N515 H521 0.985 . S
C516 C510 1.379 . S
C516 C513 1.363 . S
C516 N514 1.356 . S
C517 C511 1.363 . S
C517 C512 1.379 . S
C517 N515 1.356 1_565 S
N518 C510 1.356 . S
N518 H524 0.984 . S
N518 H525 0.984 . S
N519 C512 1.356 . S
N519 H522 0.984 . S
N519 H523 0.985 1_665 S
H520 N515 0.984 1_565 S
H521 N515 0.985 . S
H522 N519 0.984 . S
H523 N519 0.985 1_445 S
H524 N518 0.984 . S
H525 N518 0.984 . S
H526 N514 0.984 . S
H527 N514 0.985 . S
C528 C529 1.363 . S
C528 C534 1.379 . S
C528 N536 1.356 1_455 S
C529 C528 1.363 . S
C529 C535 1.363 . S
C530 C531 1.363 . S
C530 C535 1.379 . S
C530 N537 1.356 . S
C531 C530 1.363 . S
C531 C534 1.363 . S
N532 C534 1.356 1_655 S
N532 H544 0.984 . S
N532 H545 0.985 1_655 S
N533 C535 1.356 . S
N533 H538 0.984 . S
N533 H539 0.985 . S
C534 C528 1.379 . S
C534 C531 1.363 . S
C534 N532 1.356 1_455 S
C535 C529 1.363 . S
C535 C530 1.379 . S
C535 N533 1.356 . S
N536 C528 1.356 1_655 S
N536 H542 0.984 . S
N536 H543 0.984 . S
N537 C530 1.356 . S
N537 H540 0.984 . S
N537 H541 0.985 . S
H538 N533 0.984 . S
H539 N533 0.985 . S
H540 N537 0.984 . S
H541 N537 0.985 . S
H542 N536 0.984 . S
H543 N536 0.984 . S
H544 N532 0.984 . S
H545 N532 0.985 1_455 S
C546 C547 1.363 . S
C546 C552 1.379 . S
C546 N554 1.356 1_545 S
C547 C546 1.363 . S
C547 C553 1.363 . S
C548 C549 1.363 . S
C548 C553 1.379 . S
C548 N555 1.356 . S
C549 C548 1.363 . S
C549 C552 1.363 . S
N550 C552 1.356 . S
N550 H562 0.984 1_545 S
N550 H563 0.985 . S
N551 C553 1.356 . S
N551 H556 0.984 . S
N551 H557 0.985 . S
C552 C546 1.379 . S
C552 C549 1.363 . S
C552 N550 1.356 . S
C553 C547 1.363 . S
C553 C548 1.379 . S
C553 N551 1.356 . S
N554 C546 1.356 1_565 S
N554 H560 0.984 . S
N554 H561 0.984 . S
N555 C548 1.356 . S
N555 H558 0.984 . S
N555 H559 0.985 . S
H556 N551 0.984 . S
H557 N551 0.985 . S
H558 N555 0.984 . S
H559 N555 0.985 . S
H560 N554 0.984 . S
H561 N554 0.984 . S
H562 N550 0.984 1_565 S
H563 N550 0.985 . S
C241 C129 1.308 1_455 S
C243 C9 1.308 . S
C259 C169 1.308 1_545 S
C261 C49 1.308 . S
C277 C209 1.308 . S
C279 C89 1.308 . S
C295 C15 1.169 . S
C297 C86 1.270 . S
C313 C55 1.169 . S
C315 C126 1.270 . S
C331 C95 1.168 . S
C333 C166 1.269 . S
C349 C135 1.169 . S
C351 C206 1.270 1_655 S
C367 C175 1.169 . S
C369 C6 1.270 1_565 S
C385 C215 1.169 . S
C387 C46 1.270 . S
C403 C18 1.855 . S
C405 C138 1.855 1_545 S
C421 C58 1.854 . S
C423 C178 1.854 . S
C439 C98 1.855 1_455 S
C441 C218 1.855 . S
C457 C10 4.212 . S
C459 C59 4.270 . S
C475 C50 4.212 . S
C477 C99 4.270 . S
C493 C90 4.212 . S
C495 C139 4.270 . S
C511 C130 4.212 . S
C513 C179 4.270 . S
C529 C170 4.212 . S
C531 C219 4.270 . S
C547 C210 4.212 . S
C549 C19 4.270 . S
