# Generated by pormake.
# Topology une, (4)-cn, num edge types: 1
# Building blocks:
#     Node 0, Type 0, BuildingBlock: QUQFOY_clean_sbu_3, # of connection points: 4
#     Node 1, Type 0, BuildingBlock: QUQFOY_clean_sbu_3, # of connection points: 4
#     Node 2, Type 0, BuildingBlock: QUQFOY_clean_sbu_3, # of connection points: 4
#     Node 3, Type 0, BuildingBlock: QUQFOY_clean_sbu_3, # of connection points: 4
#     Node 4, Type 0, BuildingBlock: QUQFOY_clean_sbu_3, # of connection points: 4
#     Node 5, Type 0, BuildingBlock: QUQFOY_clean_sbu_3, # of connection points: 4
#     Node 6, Type 0, BuildingBlock: QUQFOY_clean_sbu_3, # of connection points: 4
#     Node 7, Type 0, BuildingBlock: QUQFOY_clean_sbu_3, # of connection points: 4
#     Node 8, Type 0, BuildingBlock: QUQFOY_clean_sbu_3, # of connection points: 4
#     Node 9, Type 0, BuildingBlock: QUQFOY_clean_sbu_3, # of connection points: 4
#     Node 10, Type 0, BuildingBlock: QUQFOY_clean_sbu_3, # of connection points: 4
#     Node 11, Type 0, BuildingBlock: QUQFOY_clean_sbu_3, # of connection points: 4
#     Node 12, Type 0, BuildingBlock: QUQFOY_clean_sbu_3, # of connection points: 4
#     Node 13, Type 0, BuildingBlock: QUQFOY_clean_sbu_3, # of connection points: 4
#     Node 14, Type 0, BuildingBlock: QUQFOY_clean_sbu_3, # of connection points: 4
#     Node 15, Type 0, BuildingBlock: QUQFOY_clean_sbu_3, # of connection points: 4
#     Node 16, Type 0, BuildingBlock: QUQFOY_clean_sbu_3, # of connection points: 4
#     Node 17, Type 0, BuildingBlock: QUQFOY_clean_sbu_3, # of connection points: 4
#     Edge 18, Type (0, 0), BuildingBlock: AJUNOK_clean_linker_0, # of connection points: 2
#     Edge 19, Type (0, 0), BuildingBlock: AJUNOK_clean_linker_0, # of connection points: 2
#     Edge 20, Type (0, 0), BuildingBlock: AJUNOK_clean_linker_0, # of connection points: 2
#     Edge 21, Type (0, 0), BuildingBlock: AJUNOK_clean_linker_0, # of connection points: 2
#     Edge 22, Type (0, 0), BuildingBlock: AJUNOK_clean_linker_0, # of connection points: 2
#     Edge 23, Type (0, 0), BuildingBlock: AJUNOK_clean_linker_0, # of connection points: 2
#     Edge 24, Type (0, 0), BuildingBlock: AJUNOK_clean_linker_0, # of connection points: 2
#     Edge 25, Type (0, 0), BuildingBlock: AJUNOK_clean_linker_0, # of connection points: 2
#     Edge 26, Type (0, 0), BuildingBlock: AJUNOK_clean_linker_0, # of connection points: 2
#     Edge 27, Type (0, 0), BuildingBlock: AJUNOK_clean_linker_0, # of connection points: 2
#     Edge 28, Type (0, 0), BuildingBlock: AJUNOK_clean_linker_0, # of connection points: 2
#     Edge 29, Type (0, 0), BuildingBlock: AJUNOK_clean_linker_0, # of connection points: 2
#     Edge 30, Type (0, 0), BuildingBlock: AJUNOK_clean_linker_0, # of connection points: 2
#     Edge 31, Type (0, 0), BuildingBlock: AJUNOK_clean_linker_0, # of connection points: 2
#     Edge 32, Type (0, 0), BuildingBlock: AJUNOK_clean_linker_0, # of connection points: 2
#     Edge 33, Type (0, 0), BuildingBlock: AJUNOK_clean_linker_0, # of connection points: 2
#     Edge 34, Type (0, 0), BuildingBlock: AJUNOK_clean_linker_0, # of connection points: 2
#     Edge 35, Type (0, 0), BuildingBlock: AJUNOK_clean_linker_0, # of connection points: 2
#     Edge 36, Type (0, 0), BuildingBlock: AJUNOK_clean_linker_0, # of connection points: 2
#     Edge 37, Type (0, 0), BuildingBlock: AJUNOK_clean_linker_0, # of connection points: 2
#     Edge 38, Type (0, 0), BuildingBlock: AJUNOK_clean_linker_0, # of connection points: 2
#     Edge 39, Type (0, 0), BuildingBlock: AJUNOK_clean_linker_0, # of connection points: 2
#     Edge 40, Type (0, 0), BuildingBlock: AJUNOK_clean_linker_0, # of connection points: 2
#     Edge 41, Type (0, 0), BuildingBlock: AJUNOK_clean_linker_0, # of connection points: 2
#     Edge 42, Type (0, 0), BuildingBlock: AJUNOK_clean_linker_0, # of connection points: 2
#     Edge 43, Type (0, 0), BuildingBlock: AJUNOK_clean_linker_0, # of connection points: 2
#     Edge 44, Type (0, 0), BuildingBlock: AJUNOK_clean_linker_0, # of connection points: 2
#     Edge 45, Type (0, 0), BuildingBlock: AJUNOK_clean_linker_0, # of connection points: 2
#     Edge 46, Type (0, 0), BuildingBlock: AJUNOK_clean_linker_0, # of connection points: 2
#     Edge 47, Type (0, 0), BuildingBlock: AJUNOK_clean_linker_0, # of connection points: 2
#     Edge 48, Type (0, 0), BuildingBlock: AJUNOK_clean_linker_0, # of connection points: 2
#     Edge 49, Type (0, 0), BuildingBlock: AJUNOK_clean_linker_0, # of connection points: 2
#     Edge 50, Type (0, 0), BuildingBlock: AJUNOK_clean_linker_0, # of connection points: 2
#     Edge 51, Type (0, 0), BuildingBlock: AJUNOK_clean_linker_0, # of connection points: 2
#     Edge 52, Type (0, 0), BuildingBlock: AJUNOK_clean_linker_0, # of connection points: 2
#     Edge 53, Type (0, 0), BuildingBlock: AJUNOK_clean_linker_0, # of connection points: 2
# Relax obj value: 0.243
# Max RMSD: 0.165
# Mean RMSD: 0.156
data_MOF--net-une--node1-QUQFOY_clean_sbu_3--edge1-AJUNOK_clean_linker_0
_symmetry_space_group_name_H-M    P1
_symmetry_Int_Tables_number       1
_symmetry_cell_setting            triclinic
loop_
_symmetry_equiv_pos_as_xyz
'x, y, z'
_cell_length_a     29.245717
_cell_length_b     29.541841
_cell_length_c     42.108674
_cell_angle_alpha  90.070836
_cell_angle_beta   88.70504
_cell_angle_gamma 120.13072
loop_
_atom_site_label
_atom_site_type_symbol
_atom_site_fract_x
_atom_site_fract_y
_atom_site_fract_z
_atom_type_partial_charge
C0 C 0.45636 0.07768 0.01915 0.0
O1 O 0.4567 0.10648 -0.00326 0.0
Cd2 Cd 0.39191 0.13118 0.98986 0.0
O3 O 0.42527 0.06723 0.04324 0.0
Cd4 Cd 0.35458 0.08813 0.05701 0.0
C5 C 0.29409 0.00438 -0.00033 0.0
O6 O 0.37857 0.1728 0.03444 0.0
O7 O 0.29558 0.11363 0.03526 0.0
O8 O 0.37796 0.12512 0.10903 0.0
C9 C 0.33068 0.16166 0.03326 0.0
O10 O 0.3168 0.04429 0.98129 0.0
C11 C 0.33153 0.09809 0.12101 0.0
O12 O 0.30257 0.00803 0.02929 0.0
O13 O 0.29818 0.05941 0.10507 0.0
C14 C 0.83871 0.20665 0.08336 0.0
O15 O 0.88242 0.20784 0.07903 0.0
Cd16 Cd 0.96203 0.26555 0.05099 0.0
O17 O 0.83109 0.24205 0.07137 0.0
Cd18 Cd 0.88983 0.31313 0.03201 0.0
C19 C 0.89297 0.22057 0.98543 0.0
O20 O 0.97433 0.35013 0.05769 0.0
O21 O -0.02389 0.36446 0.00764 0.0
O22 O 0.87385 0.38375 0.04377 0.0
C23 C 0.00088 0.37561 0.03335 0.0
O24 O 0.93616 0.23073 -0.00186 0.0
C25 C 0.87831 0.39682 0.01452 0.0
O26 O 0.86776 0.24304 -0.00506 0.0
O27 O 0.86832 0.36089 -0.00544 0.0
C28 C 0.5938 0.49442 -0.0052 0.0
O29 O 0.62793 0.50914 0.97224 0.0
Cd30 Cd 0.71719 0.57724 0.97312 0.0
O31 O 0.60767 0.51118 0.02301 0.0
Cd32 Cd 0.69227 0.5743 0.04858 0.0
C33 C 0.68571 0.66534 0.00586 0.0
O34 O 0.7587 0.56826 0.0177 0.0
O35 O 0.77899 0.64449 0.03562 0.0
O36 O 0.71145 0.54333 0.09776 0.0
C37 C 0.79391 0.61533 0.02256 0.0
O38 O 0.70575 0.65272 0.98267 0.0
C39 C 0.71693 0.58251 0.11353 0.0
O40 O 0.67298 0.6401 0.03205 0.0
O41 O 0.70027 0.61026 0.10077 0.0
C42 C 0.56237 0.95693 0.00132 0.0
O43 O 0.58795 0.95485 0.02465 0.0
Cd44 Cd 0.64841 0.92298 0.02261 0.0
O45 O 0.56663 0.93962 0.97427 0.0
Cd46 Cd 0.62401 0.90502 0.9547 0.0
C47 C 0.73448 0.01347 0.97048 0.0
O48 O 0.61351 0.8419 -0.00456 0.0
O49 O 0.68811 0.88028 0.9695 0.0
O50 O 0.57559 0.83715 0.91437 0.0
C51 C 0.65502 0.84172 0.98642 0.0
O52 O 0.72974 -0.00767 -0.00241 0.0
C53 C 0.61129 0.86157 0.89305 0.0
O54 O 0.69745 -0.00701 0.95083 0.0
O55 O 0.64709 0.90757 0.89965 0.0
C56 C 0.04969 0.59894 0.96921 0.0
O57 O 0.08087 0.62949 0.98991 0.0
Cd58 Cd 0.12306 0.72245 0.99146 0.0
O59 O 0.04738 0.6167 0.942 0.0
Cd60 Cd 0.09152 0.70665 0.9175 0.0
C61 C 0.00446 0.7053 0.96993 0.0
O62 O 0.17194 0.76428 0.94491 0.0
O63 O 0.12444 0.79659 0.92876 0.0
O64 O 0.12668 0.70547 0.86511 0.0
C65 C 0.16708 0.80424 0.94068 0.0
O66 O 0.03981 0.72204 0.99096 0.0
C67 C 0.10101 0.72403 0.85149 0.0
O68 O 0.01341 0.69549 0.94186 0.0
O69 O 0.06524 0.72612 0.86799 0.0
C70 C 0.39256 0.46063 0.95672 0.0
O71 O 0.38499 0.49519 0.96948 0.0
Cd72 Cd 0.30999 0.45186 0.0035 0.0
O73 O 0.35287 0.41739 0.9488 0.0
Cd74 Cd 0.25565 0.38452 0.95097 0.0
C75 C 0.28412 0.32407 0.00348 0.0
O76 O 0.2354 0.44566 0.97826 0.0
O77 O 0.19469 0.36531 -0.00498 0.0
O78 O 0.22185 0.38953 0.89904 0.0
C79 C 0.1984 0.40993 -0.00502 0.0
O80 O 0.30406 0.36767 0.01783 0.0
C81 C 0.19059 0.34034 0.89724 0.0
O82 O 0.26196 0.31805 0.97708 0.0
O83 O 0.19258 0.31213 0.9192 0.0
C84 C 0.09934 0.38041 0.35375 0.0
O85 O 0.1041 0.41063 0.33095 0.0
Cd86 Cd 0.03542 0.42698 0.31796 0.0
O87 O 0.06272 0.36719 0.3749 0.0
Cd88 Cd -0.00987 0.38669 0.38668 0.0
C89 C 0.93665 0.29863 0.33046 0.0
O90 O 0.01496 0.46833 0.35966 0.0
O91 O 0.93116 0.4123 0.36479 0.0
O92 O 0.01725 0.42789 0.43772 0.0
C93 C 0.96755 0.45871 0.35847 0.0
O94 O 0.966 0.33652 0.31169 0.0
C95 C 0.97181 0.40209 0.45117 0.0
O96 O 0.93704 0.30479 0.3604 0.0
O97 O 0.93667 0.36342 0.43603 0.0
C98 C 0.51219 0.54905 0.42018 0.0
O99 O 0.55876 0.55768 0.41446 0.0
Cd100 Cd 0.62563 0.60848 0.37551 0.0
O101 O 0.49406 0.574 0.40504 0.0
Cd102 Cd 0.53344 0.63785 0.35897 0.0
C103 C 0.53419 0.53689 0.32094 0.0
O104 O 0.62769 0.68732 0.36567 0.0
O105 O 0.59947 0.67566 0.31801 0.0
O106 O 0.51954 0.70995 0.36929 0.0
C107 C 0.63844 0.69658 0.33618 0.0
O108 O 0.57971 0.5512 0.33189 0.0
C109 C 0.50657 0.71117 0.34072 0.0
O110 O 0.50866 0.55997 0.32866 0.0
O111 O 0.4888 0.66865 0.32539 0.0
C112 C 0.24353 0.82777 0.34603 0.0
O113 O 0.27501 0.83471 0.32287 0.0
Cd114 Cd 0.36816 0.89199 0.32186 0.0
O115 O 0.26065 0.84467 0.37372 0.0
Cd116 Cd 0.34836 0.8971 0.39776 0.0
C117 C 0.35218 -0.00875 0.35178 0.0
O118 O 0.40725 0.87951 0.36682 0.0
O119 O 0.43859 0.95757 0.38534 0.0
O120 O 0.36187 0.86393 0.44748 0.0
C121 C 0.44716 0.92414 0.37189 0.0
O122 O 0.3679 0.97407 0.32868 0.0
C123 C 0.37306 0.90594 0.46206 0.0
O124 O 0.3399 0.96843 0.37875 0.0
O125 O 0.36034 0.93647 0.44874 0.0
C126 C 0.20782 0.26188 0.33872 0.0
O127 O 0.23222 0.25791 0.36209 0.0
Cd128 Cd 0.29564 0.2298 0.36024 0.0
O129 O 0.21443 0.24828 0.31094 0.0
Cd130 Cd 0.27312 0.21619 0.28949 0.0
C131 C 0.38051 0.32507 0.30952 0.0
O132 O 0.2655 0.15329 0.32927 0.0
O133 O 0.33934 0.19336 0.30258 0.0
O134 O 0.23018 0.15163 0.24682 0.0
C135 C 0.30818 0.1553 0.32046 0.0
O136 O 0.37522 0.3033 0.33649 0.0
C137 C 0.26535 0.18052 0.2262 0.0
O138 O 0.34511 0.30402 0.28893 0.0
O139 O 0.29789 0.22684 0.23441 0.0
C140 C 0.67205 0.89693 0.27956 0.0
O141 O 0.71343 0.91687 0.29607 0.0
Cd142 Cd 0.76384 0.00886 0.30624 0.0
O143 O 0.66588 0.9242 0.25849 0.0
Cd144 Cd 0.71773 0.01722 0.24004 0.0
C145 C 0.64569 0.00453 0.30442 0.0
O146 O 0.80464 0.06705 0.26286 0.0
O147 O 0.75333 0.10055 0.26341 0.0
O148 O 0.73977 0.02143 0.18387 0.0
C149 C 0.79844 0.10608 0.26826 0.0
O150 O 0.6853 0.0132 0.32085 0.0
C151 C 0.71785 0.04788 0.17659 0.0
O152 O 0.64649 0.0022 0.27428 0.0
O153 O 0.68983 0.05316 0.19815 0.0
C154 C 0.03223 0.77461 0.31224 0.0
O155 O 0.004 0.77082 0.33653 0.0
Cd156 Cd 0.91179 0.72453 0.34462 0.0
O157 O 0.01122 0.7543 0.2858 0.0
Cd158 Cd 0.91562 0.70053 0.27267 0.0
C159 C 0.9146 0.61616 0.32614 0.0
O160 O 0.87926 0.74779 0.30019 0.0
O161 O 0.82658 0.66511 0.29294 0.0
O162 O 0.90135 0.71783 0.21804 0.0
C163 C 0.83261 0.70997 0.29822 0.0
O164 O 0.89919 0.63619 0.34762 0.0
C165 C 0.87602 0.66945 0.21096 0.0
O166 O 0.9257 0.63482 0.29815 0.0
O167 O 0.87774 0.63771 0.23049 0.0
C168 C 0.7619 0.71821 0.68624 0.0
O169 O 0.77065 0.75204 0.66481 0.0
Cd170 Cd 0.71235 0.78501 0.6561 0.0
O171 O 0.72851 0.7095 0.70878 0.0
Cd172 Cd 0.66688 0.74059 0.725 0.0
C173 C 0.60793 0.66024 0.66588 0.0
O174 O 0.69748 0.82506 0.70061 0.0
O175 O 0.61251 0.77353 0.7063 0.0
O176 O 0.69888 0.77719 0.77606 0.0
C177 C 0.65129 0.81914 0.70088 0.0
O178 O 0.63516 0.70004 0.64794 0.0
C179 C 0.65327 0.75615 0.7895 0.0
O180 O 0.61237 0.66248 0.69592 0.0
O181 O 0.61517 0.71946 0.77473 0.0
C182 C 0.20054 0.87029 0.74604 0.0
O183 O 0.23597 0.86796 0.72943 0.0
Cd184 Cd 0.28704 0.91868 0.68579 0.0
O185 O 0.18845 0.90566 0.74035 0.0
Cd186 Cd 0.22245 0.97437 0.69606 0.0
C187 C 0.17593 0.87583 0.64461 0.0
O188 O 0.31325 0.00473 0.70257 0.0
O189 O 0.29328 0.01203 0.65502 0.0
O190 O 0.22838 0.05371 0.71641 0.0
C191 C 0.32892 0.02536 0.6754 0.0
O192 O 0.22094 0.87898 0.64493 0.0
C193 C 0.21454 0.06409 0.69016 0.0
O194 O 0.16617 0.90487 0.66234 0.0
O195 O 0.19009 0.02593 0.6715 0.0
C196 C 0.93689 0.1872 0.67026 0.0
O197 O 0.97141 0.19277 0.64944 0.0
Cd198 Cd 0.06289 0.25589 0.65445 0.0
O199 O 0.95015 0.20571 0.69811 0.0
Cd200 Cd 0.03228 0.25782 0.72772 0.0
C201 C 0.03546 0.35011 0.6815 0.0
O202 O 0.10077 0.24831 0.7018 0.0
O203 O 0.12056 0.3258 0.71759 0.0
O204 O 0.03694 0.22029 0.77845 0.0
C205 C 0.13592 0.29524 0.70734 0.0
O206 O 0.05475 0.33426 0.65961 0.0
C207 C 0.04325 0.25987 0.7941 0.0
O208 O 0.02062 0.32677 0.70829 0.0
O209 O 0.03451 0.29233 0.7796 0.0
C210 C 0.84447 0.5787 0.66208 0.0
O211 O 0.85784 0.56477 0.687 0.0
Cd212 Cd 0.93748 0.56345 0.68533 0.0
O213 O 0.86469 0.57758 0.63502 0.0
Cd214 Cd 0.92727 0.54767 0.61496 0.0
C215 C 0.01113 0.6672 0.6332 0.0
O216 O 0.9288 0.49119 0.65601 0.0
O217 O 0.00343 0.543 0.63219 0.0
O218 O 0.88402 0.47601 0.57615 0.0
C219 C 0.9756 0.50213 0.64889 0.0
O220 O -0.00062 0.64902 0.66147 0.0
C221 C 0.92037 0.50037 0.55514 0.0
O222 O -0.0099 0.63835 0.60949 0.0
O223 O 0.95355 0.54785 0.56068 0.0
C224 C 0.3708 0.25885 0.63042 0.0
O225 O 0.41453 0.28385 0.64447 0.0
Cd226 Cd 0.45899 0.37663 0.64968 0.0
O227 O 0.35937 0.28036 0.60806 0.0
Cd228 Cd 0.40299 0.36892 0.5819 0.0
C229 C 0.33804 0.36947 0.64714 0.0
O230 O 0.49052 0.4257 0.6023 0.0
O231 O 0.43885 0.45742 0.59454 0.0
O232 O 0.42689 0.36673 0.52669 0.0
C233 C 0.48374 0.46508 0.60226 0.0
O234 O 0.37762 0.37573 0.66272 0.0
C235 C 0.40157 0.38834 0.51654 0.0
O236 O 0.33625 0.36509 0.61704 0.0
O237 O 0.36938 0.39126 0.53608 0.0
C238 C 0.73054 0.13729 0.62942 0.0
O239 O 0.70543 0.14166 0.65304 0.0
Cd240 Cd 0.61456 0.09664 0.66515 0.0
O241 O 0.706 0.10861 0.6059 0.0
Cd242 Cd 0.60828 0.05309 0.60009 0.0
C243 C 0.61519 0.98372 0.65914 0.0
O244 O 0.57078 0.10452 0.62022 0.0
O245 O 0.5311 0.02251 0.63367 0.0
O246 O 0.58034 0.05356 0.54603 0.0
C247 C 0.52931 0.06423 0.63038 0.0
O248 O 0.60222 0.00977 0.67765 0.0
C249 C 0.55311 0.00382 0.5446 0.0
O250 O 0.62438 -0.0051 0.6298 0.0
O251 O 0.55916 0.97811 0.56657 0.0
C252 C 0.49858 0.02851 0.04035 0.0
C253 C 0.48498 0.04858 0.01429 0.0
C254 C 0.52232 -0.00222 0.03591 0.0
C255 C 0.53247 0.98505 0.00523 0.0
H256 H 0.49109 0.03682 0.06436 0.0
H257 H 0.53301 0.98409 0.05678 0.0
S258 S 0.50061 0.02475 0.92902 0.0
N259 N 0.48107 0.05149 0.95661 0.0
N260 N 0.52507 -0.0065 0.94839 0.0
C261 C 0.51779 0.00381 0.97897 0.0
C262 C 0.49435 0.0357 0.98347 0.0
C263 C 0.91865 0.46971 0.97396 0.0
C264 C 0.91854 0.45109 0.00473 0.0
C265 C 0.9621 0.51633 0.96193 0.0
C266 C 0.00782 0.54555 0.97991 0.0
H267 H 0.88513 0.44768 0.95889 0.0
H268 H 0.95944 0.52982 0.93851 0.0
S269 S 0.02972 0.51087 0.06084 0.0
N270 N 0.96928 0.46468 0.05245 0.0
N271 N 0.0512 0.55011 0.02948 0.0
C272 C 0.00866 0.5264 0.01042 0.0
C273 C 0.96401 0.47998 0.02295 0.0
C274 C 0.47646 0.46033 0.94375 0.0
C275 C 0.4402 0.45986 0.96616 0.0
C276 C 0.52446 0.46561 0.95355 0.0
C277 C 0.53749 0.47051 0.98606 0.0
H278 H 0.46899 0.45942 0.91861 0.0
H279 H 0.55296 0.46957 0.93529 0.0
S280 S 0.44875 0.45851 0.05391 0.0
N281 N 0.41559 0.45558 0.02205 0.0
N282 N 0.5051 0.46466 0.04052 0.0
C283 C 0.49852 0.46411 0.00863 0.0
C284 C 0.45014 0.45927 -0.00136 0.0
C285 C 0.15061 0.34896 0.32195 0.0
C286 C 0.12957 0.35248 0.3517 0.0
C287 C 0.17375 0.31782 0.31777 0.0
C288 C 0.17768 0.28947 0.34326 0.0
H289 H 0.14817 0.36947 0.30133 0.0
H290 H 0.18971 0.31694 0.29445 0.0
S291 S 0.12962 0.28561 0.42618 0.0
N292 N 0.11425 0.32481 0.40715 0.0
N293 N 0.15894 0.26701 0.39949 0.0
C294 C 0.15733 0.2929 0.37326 0.0
C295 C 0.13303 0.32419 0.37743 0.0
C296 C 0.55022 0.76158 0.29043 0.0
C297 C 0.53621 0.76168 0.32285 0.0
C298 C 0.59341 0.80573 0.27586 0.0
C299 C 0.62436 0.85104 0.29336 0.0
H300 H 0.5303 0.72604 0.27677 0.0
H301 H 0.60418 0.80345 0.25138 0.0
S302 S 0.59699 0.87621 0.37607 0.0
N303 N 0.55111 0.81493 0.36972 0.0
N304 N 0.63287 0.8968 0.34284 0.0
C305 C 0.60784 0.85332 0.3247 0.0
C306 C 0.56345 0.80905 0.33924 0.0
C307 C 0.114 0.76935 0.30284 0.0
C308 C 0.08868 0.79393 0.31757 0.0
C309 C 0.1634 0.77882 0.31299 0.0
C310 C 0.18868 0.81257 0.33845 0.0
H311 H 0.09467 0.7411 0.28425 0.0
H312 H 0.1818 0.75935 0.30098 0.0
S313 S 0.14177 0.89162 0.38197 0.0
N314 N 0.09463 0.85706 0.35673 0.0
N315 N 0.18694 0.87447 0.37597 0.0
C316 C 0.16446 0.83865 0.35259 0.0
C317 C 0.1147 0.82954 0.34202 0.0
C318 C 0.83175 0.65292 0.64685 0.0
C319 C 0.81679 0.60874 0.66623 0.0
C320 C 0.81544 0.68897 0.65427 0.0
C321 C 0.78307 0.68221 0.68126 0.0
H322 H 0.85822 0.66109 0.62651 0.0
H323 H 0.82842 0.72245 0.63856 0.0
S324 S 0.72976 0.57033 0.73841 0.0
N325 N 0.76595 0.55862 0.71272 0.0
N326 N 0.73445 0.62578 0.72654 0.0
C327 C 0.76667 0.63726 0.7004 0.0
C328 C 0.78359 0.60068 0.69287 0.0
C329 C 0.28804 0.17066 0.62816 0.0
C330 C 0.32799 0.21054 0.64595 0.0
C331 C 0.24753 0.12509 0.64307 0.0
C332 C 0.24508 0.11795 0.6764 0.0
H333 H 0.28912 0.17386 0.60249 0.0
H334 H 0.21982 0.094 0.62808 0.0
S335 S 0.33319 0.21659 0.73411 0.0
N336 N 0.35759 0.24389 0.699 0.0
N337 N 0.28149 0.15879 0.72682 0.0
C338 C 0.28203 0.15982 0.69453 0.0
C339 C 0.32357 0.2058 0.67938 0.0
C340 C 0.80921 0.12547 0.62464 0.0
C341 C 0.78719 0.15649 0.63383 0.0
C342 C 0.85754 0.1348 0.63681 0.0
C343 C 0.88445 0.17455 0.65907 0.0
H344 H 0.7877 0.09213 0.60937 0.0
H345 H 0.87326 0.11004 0.62943 0.0
S346 S 0.84783 0.27202 0.6863 0.0
N347 N 0.79946 0.23263 0.66303 0.0
N348 N 0.88918 0.24937 0.68639 0.0
C349 C 0.86423 0.20751 0.66694 0.0
C350 C 0.81596 0.19875 0.65412 0.0
C351 C 0.27351 0.08486 0.16919 0.0
C352 C 0.31392 0.1186 0.14775 0.0
C353 C 0.25513 0.10487 0.19354 0.0
C354 C 0.27577 0.1592 0.19675 0.0
H355 H 0.25683 0.04291 0.16755 0.0
H356 H 0.22605 0.07769 0.21061 0.0
S357 S 0.37501 0.26313 0.14271 0.0
N358 N 0.36936 0.20832 0.12889 0.0
N359 N 0.33417 0.24565 0.17384 0.0
C360 C 0.3137 0.1929 0.17406 0.0
C361 C 0.33301 0.17269 0.14982 0.0
C362 C 0.79832 0.11493 0.10294 0.0
C363 C 0.79722 0.16208 0.10225 0.0
C364 C 0.76772 0.07523 0.12501 0.0
C365 C 0.73479 0.08102 0.14741 0.0
H366 H 0.82523 0.10966 0.08734 0.0
H367 H 0.77288 0.04141 0.12592 0.0
S368 S 0.71008 0.19273 0.15161 0.0
N369 N 0.7549 0.2092 0.12268 0.0
N370 N 0.69688 0.13445 0.1644 0.0
C371 C 0.72902 0.12558 0.14478 0.0
C372 C 0.76043 0.16621 0.12214 0.0
C373 C 0.81938 0.59846 0.17329 0.0
C374 C 0.83753 0.64923 0.18494 0.0
C375 C 0.77822 0.57581 0.15155 0.0
C376 C 0.75278 0.60261 0.141 0.0
H377 H 0.83722 0.57599 0.18099 0.0
H378 H 0.76708 0.5374 0.14247 0.0
S379 S 0.78221 0.73489 0.16671 0.0
N380 N 0.82494 0.72454 0.18568 0.0
N381 N 0.74715 0.68194 0.14552 0.0
C382 C 0.76945 0.65281 0.15337 0.0
C383 C 0.81199 0.67618 0.17503 0.0
C384 C 0.58847 0.78026 0.86206 0.0
C385 C 0.61743 0.83526 0.86452 0.0
C386 C 0.60061 0.75433 0.83813 0.0
C387 C 0.64292 0.78242 0.81637 0.0
H388 H 0.55716 0.75693 0.87921 0.0
H389 H 0.57726 0.71207 0.83691 0.0
S390 S 0.72648 0.92714 0.80997 0.0
N391 N 0.68676 0.91694 0.84092 0.0
N392 N 0.71032 0.86846 0.79689 0.0
C393 C 0.67093 0.83742 0.81797 0.0
C394 C 0.65794 0.86374 0.84175 0.0
C395 C 0.10237 0.78792 0.812 0.0
C396 C 0.12007 0.75338 0.82097 0.0
C397 C 0.12821 0.82542 0.78772 0.0
C398 C 0.17263 0.82972 0.77132 0.0
H399 H 0.06979 0.78783 0.82482 0.0
H400 H 0.11378 0.85179 0.78221 0.0
S401 S 0.23147 0.74478 0.78362 0.0
N402 N 0.1821 0.72315 0.80987 0.0
N403 N 0.23087 0.79314 0.76449 0.0
C404 C 0.18906 0.79351 0.77906 0.0
C405 C 0.16266 0.75541 0.80371 0.0
C406 C 0.13231 0.34788 0.85789 0.0
C407 C 0.15061 0.31728 0.87224 0.0
C408 C 0.09388 0.32722 0.83459 0.0
C409 C 0.07282 0.27529 0.82412 0.0
H410 H 0.14789 0.38832 0.86465 0.0
H411 H 0.08258 0.35321 0.82365 0.0
S412 S 0.10546 0.17784 0.85559 0.0
N413 N 0.14266 0.23143 0.87585 0.0
N414 N 0.0714 0.19287 0.8313 0.0
C415 C 0.08942 0.24361 0.83912 0.0
C416 C 0.12813 0.26455 0.86328 0.0
C417 C -0.00626 0.47454 0.48896 0.0
C418 C 0.95828 0.42297 0.47976 0.0
C419 C -0.0201 0.49932 0.51239 0.0
C420 C 0.93018 0.47356 0.5282 0.0
H421 H 0.03229 0.49686 0.47737 0.0
H422 H 0.00909 0.53906 0.51839 0.0
S423 S 0.82332 0.33735 0.51407 0.0
N424 N 0.87117 0.34636 0.48871 0.0
N425 N 0.8457 0.39272 0.53363 0.0
C426 C 0.89451 0.42155 0.51981 0.0
C427 C 0.90843 0.39634 0.49546 0.0
C428 C 0.49237 0.46673 0.44832 0.0
C429 C 0.478 0.50482 0.44219 0.0
C430 C 0.46389 0.42583 0.47011 0.0
C431 C 0.41987 0.42122 0.48714 0.0
H432 H 0.52687 0.46895 0.43667 0.0
H433 H 0.47858 0.39944 0.47491 0.0
S434 S 0.36083 0.50601 0.47661 0.0
N435 N 0.413 0.53169 0.4522 0.0
N436 N 0.35946 0.45502 0.49369 0.0
C437 C 0.40253 0.45669 0.47958 0.0
C438 C 0.43161 0.49844 0.45706 0.0
C439 C 0.48456 0.00527 0.51145 0.0
C440 C 0.5082 0.97742 0.52287 0.0
C441 C 0.43809 0.98046 0.49418 0.0
C442 C 0.41356 0.92677 0.48699 0.0
H443 H 0.50152 0.04659 0.51632 0.0
H444 H 0.42252 0.00434 0.48537 0.0
S445 S 0.45843 0.8355 0.51266 0.0
N446 N 0.50238 0.89259 0.52719 0.0
N447 N 0.41571 0.84608 0.49379 0.0
C448 C 0.43614 0.89808 0.49889 0.0
C449 C 0.48329 0.92336 0.51693 0.0
C450 C 0.23207 0.94799 0.95868 0.0
C451 C 0.26134 0.95272 0.98566 0.0
C452 C 0.20255 0.89974 0.94398 0.0
C453 C 0.20217 0.85482 0.95538 0.0
H454 H 0.23156 0.98172 0.94902 0.0
H455 H 0.17976 0.89761 0.92351 0.0
S456 S 0.27491 0.84743 0.02435 0.0
N457 N 0.28986 0.90923 0.02274 0.0
N458 N 0.2348 0.81832 -0.00531 0.0
C459 C 0.23226 0.85923 0.98194 0.0
C460 C 0.26164 0.90827 -0.00273 0.0
C461 C 0.08609 0.43414 0.0059 0.0
C462 C 0.0586 0.4004 0.0317 0.0
C463 C 0.13585 0.44287 -0.00388 0.0
C464 C 0.15865 0.4175 0.01178 0.0
H465 H 0.06696 0.44982 0.99143 0.0
H466 H 0.1536 0.4647 0.97429 0.0
S467 S 0.10966 0.33785 0.08567 0.0
N468 N 0.06308 0.35146 0.07688 0.0
N469 N 0.15631 0.36693 0.05784 0.0
C470 C 0.13508 0.38991 0.04012 0.0
C471 C 0.08491 0.38171 0.05039 0.0
C472 C 0.70886 0.74985 0.97992 0.0
C473 C 0.67796 0.71056 0.0024 0.0
C474 C 0.70219 0.79299 0.97578 0.0
C475 C 0.66388 0.79809 -0.00633 0.0
H476 H 0.73857 0.74738 0.96539 0.0
H477 H 0.72648 0.8219 0.95783 0.0
S478 S 0.57325 0.70626 0.05601 0.0
N479 N 0.6082 0.67972 0.04328 0.0
N480 N 0.59526 0.76091 0.03517 0.0
C481 C 0.63304 0.75943 0.01652 0.0
C482 C 0.64022 0.71564 0.02099 0.0
C483 C 0.82999 0.07712 0.97548 0.0
C484 C 0.78076 0.06517 0.96369 0.0
C485 C 0.87092 0.12901 0.97738 0.0
C486 C 0.86299 0.17055 0.96867 0.0
H487 H 0.83563 0.04651 0.98545 0.0
H488 H 0.90637 0.13643 0.98939 0.0
S489 S 0.74544 0.15867 0.9293 0.0
N490 N 0.72971 0.09771 0.9372 0.0
N491 N 0.80625 0.19577 0.94186 0.0
C492 C 0.81646 0.15859 0.9529 0.0
C493 C 0.77515 0.10561 0.95032 0.0
C494 C 0.88696 0.68716 0.01831 0.0
C495 C 0.84662 0.63851 0.00766 0.0
C496 C 0.93794 0.71011 0.00498 0.0
C497 C 0.94964 0.68557 0.9802 0.0
H498 H 0.87947 0.70708 0.0376 0.0
H499 H 0.96856 0.74671 0.0145 0.0
S500 S 0.85763 0.55821 0.94344 0.0
N501 N 0.82139 0.56682 0.97071 0.0
N502 N 0.91717 0.61026 0.9453 0.0
C503 C 0.9093 0.63754 0.96876 0.0
C504 C 0.85771 0.6138 0.98266 0.0
C505 C 0.34003 0.29384 0.02889 0.0
C506 C 0.29194 0.2818 0.01518 0.0
C507 C 0.35227 0.25455 0.03476 0.0
C508 C 0.31646 0.20206 0.0275 0.0
H509 H 0.36942 0.33407 0.03371 0.0
H510 H 0.3902 0.26545 0.04477 0.0
S511 S 0.18338 0.15021 -0.00634 0.0
N512 N 0.20716 0.2139 -0.00386 0.0
N513 N 0.22969 0.13981 0.00755 0.0
C514 C 0.26724 0.18934 0.01508 0.0
C515 C 0.2551 0.22935 0.00881 0.0
C516 C 0.91978 0.23209 0.2892 0.0
C517 C 0.90279 0.24673 0.31693 0.0
C518 C 0.88694 0.18439 0.27448 0.0
C519 C 0.83595 0.15067 0.28677 0.0
H520 H 0.95843 0.25803 0.27855 0.0
H521 H 0.90047 0.17505 0.25259 0.0
S522 S 0.77381 0.16917 0.35958 0.0
N523 N 0.83291 0.22223 0.35702 0.0
N524 N 0.77059 0.1331 0.32878 0.0
C525 C 0.81913 0.16391 0.31498 0.0
C526 C 0.85281 0.2119 0.33028 0.0
C527 C 0.78238 0.73605 0.33455 0.0
C528 C 0.78719 0.71598 0.3053 0.0
C529 C 0.73468 0.7331 0.34367 0.0
C530 C 0.69125 0.71092 0.32345 0.0
H531 H 0.81434 0.75093 0.3512 0.0
H532 H 0.73094 0.74576 0.36726 0.0
S533 S 0.68913 0.66167 0.2418 0.0
N534 N 0.7485 0.67905 0.25473 0.0
N535 N 0.65926 0.67521 0.2709 0.0
C536 C 0.69785 0.69534 0.29281 0.0
C537 C 0.74585 0.69726 0.284 0.0
C538 C 0.35995 0.11031 0.31338 0.0
C539 C 0.32197 0.11638 0.33095 0.0
C540 C 0.37057 0.07053 0.32084 0.0
C541 C 0.34414 0.03594 0.3464 0.0
H542 H 0.38041 0.13535 0.29302 0.0
H543 H 0.39911 0.06637 0.30614 0.0
S544 S 0.24391 0.03799 0.40128 0.0
N545 N 0.25983 0.08658 0.37597 0.0
N546 N 0.28009 0.01188 0.39033 0.0
C547 C 0.30758 0.04296 0.365 0.0
C548 C 0.29634 0.08314 0.35715 0.0
C549 C 0.51331 0.44502 0.31889 0.0
C550 C 0.50445 0.48451 0.30718 0.0
C551 C 0.474 0.39246 0.31756 0.0
C552 C 0.42548 0.37781 0.30362 0.0
H553 H 0.54826 0.4548 0.33226 0.0
H554 H 0.48031 0.36348 0.32929 0.0
S555 S 0.38837 0.46536 0.26266 0.0
N556 N 0.44776 0.50505 0.27643 0.0
N557 N 0.37416 0.40567 0.27294 0.0
C558 C 0.41899 0.41621 0.28805 0.0
C559 C 0.45863 0.46988 0.28999 0.0
C560 C 0.59081 0.00888 0.34859 0.0
C561 C 0.59481 0.98496 0.32077 0.0
C562 C 0.54277 -0.0121 0.36547 0.0
C563 C 0.49802 0.94179 0.35547 0.0
H564 H 0.62476 0.04408 0.35708 0.0
H565 H 0.54063 0.00818 0.38656 0.0
S566 S 0.49089 0.86129 0.28606 0.0
N567 N 0.55194 0.9113 0.28493 0.0
N568 N 0.46194 0.87081 0.31738 0.0
C569 C 0.50234 0.9163 0.32841 0.0
C570 C 0.55079 0.93839 0.31081 0.0
C571 C 0.89249 0.53155 0.35194 0.0
C572 C 0.9281 0.57636 0.33451 0.0
C573 C 0.9054 0.49313 0.35917 0.0
C574 C 0.95478 0.4992 0.34982 0.0
H575 H 0.85428 0.52582 0.35956 0.0
H576 H 0.87678 0.4588 0.37253 0.0
S577 S 0.06285 0.61193 0.30541 0.0
N578 N 0.01509 0.62609 0.30896 0.0
N579 N 0.0399 0.55446 0.32313 0.0
C580 C -0.0089 0.54458 0.33295 0.0
C581 C -0.02243 0.58308 0.32513 0.0
C582 C 0.51894 0.55985 0.60776 0.0
C583 C 0.52013 0.51482 0.6172 0.0
C584 C 0.5469 0.6067 0.62403 0.0
C585 C 0.57598 0.60971 0.65073 0.0
H586 H 0.49564 0.55869 0.58778 0.0
H587 H 0.5453 0.64066 0.6159 0.0
S588 S 0.59494 0.50426 0.68394 0.0
N589 N 0.55521 0.47686 0.65385 0.0
N590 N 0.60734 0.56529 0.68499 0.0
C591 C 0.57847 0.56542 0.66017 0.0
C592 C 0.55077 0.51782 0.64317 0.0
C593 C 0.46683 0.04807 0.67448 0.0
C594 C 0.48473 0.06724 0.64362 0.0
C595 C 0.41774 0.03889 0.68558 0.0
C596 C 0.38455 0.04723 0.66572 0.0
H597 H 0.48981 0.03767 0.68955 0.0
H598 H 0.40441 0.02164 0.70906 0.0
S599 S 0.41766 0.10459 0.58443 0.0
N600 N 0.46973 0.10054 0.59464 0.0
N601 N 0.37595 0.08212 0.61525 0.0
C602 C 0.404 0.07046 0.63566 0.0
C603 C 0.45465 0.08072 0.6246 0.0
C604 C -0.01531 0.39539 0.69186 0.0
C605 C 0.02553 0.39323 0.67492 0.0
C606 C 0.96991 0.43197 0.68389 0.0
C607 C -0.00392 0.4683 0.65909 0.0
H608 H 0.96241 0.36726 0.71061 0.0
H609 H 0.93699 0.43102 0.69685 0.0
S610 S 0.1091 0.48228 0.60946 0.0
N611 N 0.09433 0.43262 0.63366 0.0
N612 N 0.06703 0.50227 0.61889 0.0
C613 C 0.03879 0.46838 0.64298 0.0
C614 C 0.05337 0.43054 0.65082 0.0
C615 C 0.08002 0.81178 0.6451 0.0
C616 C 0.13072 0.82838 0.63173 0.0
C617 C 0.04019 0.75947 0.64394 0.0
C618 C 0.04906 0.72268 0.62831 0.0
H619 H 0.07232 0.83793 0.65933 0.0
H620 H 0.00316 0.74721 0.65676 0.0
S621 S 0.16946 0.7479 0.58283 0.0
N622 N 0.1843 0.80529 0.59778 0.0
N623 N 0.10789 0.70678 0.59464 0.0
C624 C 0.09677 0.7396 0.61136 0.0
C625 C 0.13801 0.79276 0.61314 0.0
C626 C 0.22144 0.2982 0.7027 0.0
C627 C 0.18855 0.31713 0.69323 0.0
C628 C 0.27176 0.31819 0.68884 0.0
C629 C 0.28952 0.35648 0.66464 0.0
H630 H 0.20811 0.26772 0.72072 0.0
H631 H 0.29589 0.30186 0.69605 0.0
S632 S 0.21748 0.41824 0.63172 0.0
N633 N 0.17676 0.37671 0.65912 0.0
N634 N 0.27101 0.41278 0.63195 0.0
C635 C 0.25702 0.37588 0.65515 0.0
C636 C 0.2064 0.35652 0.66981 0.0
C637 C 0.67659 0.89953 0.66957 0.0
C638 C 0.64243 0.86194 0.69193 0.0
C639 C 0.66726 0.93898 0.65932 0.0
C640 C 0.62425 0.94278 0.67167 0.0
H641 H 0.70991 0.89767 0.6593 0.0
H642 H 0.69403 0.96681 0.6416 0.0
S643 S 0.52528 0.85576 0.73222 0.0
N644 N 0.56503 0.83159 0.72701 0.0
N645 N 0.54842 0.90719 0.7082 0.0
C646 C 0.59079 0.90654 0.69481 0.0
C647 C 0.59961 0.86559 0.70479 0.0
loop_
_geom_bond_atom_site_label_1
_geom_bond_atom_site_label_2
_geom_bond_distance
_geom_bond_site_symmetry_2
_ccdc_geom_bond_type
C0 O1 1.306 . S
C0 O3 1.160 . S
O1 C0 1.306 . S
O1 Cd2 2.228 1_554 S
Cd2 O1 2.228 1_556 S
Cd2 O6 2.273 1_556 S
Cd2 O10 2.277 1_546 S
O3 C0 1.160 . S
O3 Cd4 2.203 . S
Cd4 O3 2.203 . S
Cd4 O6 2.411 . S
Cd4 O7 2.333 . S
Cd4 O8 2.352 . S
Cd4 O12 2.277 1_545 S
Cd4 O13 2.356 . S
C5 O10 1.209 . S
C5 O12 1.226 . S
O6 Cd2 2.273 1_554 S
O6 Cd4 2.411 . S
O6 C9 1.320 . S
O7 Cd4 2.333 . S
O7 C9 1.214 . S
O8 Cd4 2.352 . S
O8 C11 1.258 . S
C9 O6 1.320 . S
C9 O7 1.214 . S
O10 Cd2 2.277 1_564 S
O10 C5 1.209 . S
C11 O8 1.258 . S
C11 O13 1.282 . S
O12 Cd4 2.277 1_565 S
O12 C5 1.226 . S
O13 Cd4 2.356 . S
O13 C11 1.282 . S
C14 O15 1.306 . S
C14 O17 1.160 . S
O15 C14 1.306 . S
O15 Cd16 2.228 . S
Cd16 O15 2.228 . S
Cd16 O20 2.273 1_655 S
Cd16 O24 2.277 . S
O17 C14 1.160 . S
O17 Cd18 2.203 . S
Cd18 O17 2.203 . S
Cd18 O20 2.411 1_655 S
Cd18 O21 2.333 1_655 S
Cd18 O22 2.352 1_655 S
Cd18 O26 2.277 . S
Cd18 O27 2.356 . S
C19 O24 1.209 . S
C19 O26 1.226 . S
O20 Cd16 2.273 1_455 S
O20 Cd18 2.411 1_455 S
O20 C23 1.320 . S
O21 Cd18 2.333 1_455 S
O21 C23 1.214 . S
O22 Cd18 2.352 1_455 S
O22 C25 1.258 1_455 S
C23 O20 1.320 . S
C23 O21 1.214 . S
O24 Cd16 2.277 . S
O24 C19 1.209 . S
C25 O22 1.258 1_655 S
C25 O27 1.282 . S
O26 Cd18 2.277 . S
O26 C19 1.226 . S
O27 Cd18 2.356 . S
O27 C25 1.282 . S
C28 O29 1.306 . S
C28 O31 1.160 . S
O29 C28 1.306 . S
O29 Cd30 2.228 1_554 S
Cd30 O29 2.228 1_556 S
Cd30 O34 2.273 1_556 S
Cd30 O38 2.277 1_556 S
O31 C28 1.160 . S
O31 Cd32 2.203 . S
Cd32 O31 2.203 . S
Cd32 O34 2.411 . S
Cd32 O35 2.333 . S
Cd32 O36 2.352 . S
Cd32 O40 2.277 . S
Cd32 O41 2.356 . S
C33 O38 1.209 . S
C33 O40 1.226 . S
O34 Cd30 2.273 1_554 S
O34 Cd32 2.411 . S
O34 C37 1.320 . S
O35 Cd32 2.333 . S
O35 C37 1.214 . S
O36 Cd32 2.352 . S
O36 C39 1.258 . S
C37 O34 1.320 . S
C37 O35 1.214 . S
O38 Cd30 2.277 1_554 S
O38 C33 1.209 . S
C39 O36 1.258 . S
C39 O41 1.282 . S
O40 Cd32 2.277 . S
O40 C33 1.226 . S
O41 Cd32 2.356 . S
O41 C39 1.282 . S
C42 O43 1.306 . S
C42 O45 1.160 . S
O43 C42 1.306 . S
O43 Cd44 2.228 1_556 S
Cd44 O43 2.228 1_554 S
Cd44 O48 2.273 1_554 S
Cd44 O52 2.277 1_564 S
O45 C42 1.160 . S
O45 Cd46 2.203 . S
Cd46 O45 2.203 . S
Cd46 O48 2.411 . S
Cd46 O49 2.333 . S
Cd46 O50 2.352 . S
Cd46 O54 2.277 1_565 S
Cd46 O55 2.356 . S
C47 O52 1.209 . S
C47 O54 1.226 . S
O48 Cd44 2.273 1_556 S
O48 Cd46 2.411 . S
O48 C51 1.320 . S
O49 Cd46 2.333 . S
O49 C51 1.214 . S
O50 Cd46 2.352 . S
O50 C53 1.258 . S
C51 O48 1.320 . S
C51 O49 1.214 . S
O52 Cd44 2.277 1_546 S
O52 C47 1.209 . S
C53 O50 1.258 . S
C53 O55 1.282 . S
O54 Cd46 2.277 1_545 S
O54 C47 1.226 . S
O55 Cd46 2.356 . S
O55 C53 1.282 . S
C56 O57 1.306 . S
C56 O59 1.160 . S
O57 C56 1.306 . S
O57 Cd58 2.228 1_556 S
Cd58 O57 2.228 1_554 S
Cd58 O62 2.273 1_554 S
Cd58 O66 2.277 1_454 S
O59 C56 1.160 . S
O59 Cd60 2.203 . S
Cd60 O59 2.203 . S
Cd60 O62 2.411 . S
Cd60 O63 2.333 . S
Cd60 O64 2.352 . S
Cd60 O68 2.277 1_455 S
Cd60 O69 2.356 . S
C61 O66 1.209 . S
C61 O68 1.226 . S
O62 Cd58 2.273 1_556 S
O62 Cd60 2.411 . S
O62 C65 1.320 . S
O63 Cd60 2.333 . S
O63 C65 1.214 . S
O64 Cd60 2.352 . S
O64 C67 1.258 . S
C65 O62 1.320 . S
C65 O63 1.214 . S
O66 Cd58 2.277 1_656 S
O66 C61 1.209 . S
C67 O64 1.258 . S
C67 O69 1.282 . S
O68 Cd60 2.277 1_655 S
O68 C61 1.226 . S
O69 Cd60 2.356 . S
O69 C67 1.282 . S
C70 O71 1.306 . S
C70 O73 1.160 . S
O71 C70 1.306 . S
O71 Cd72 2.228 1_556 S
Cd72 O71 2.228 1_554 S
Cd72 O76 2.273 1_554 S
Cd72 O80 2.277 1_554 S
O73 C70 1.160 . S
O73 Cd74 2.203 . S
Cd74 O73 2.203 . S
Cd74 O76 2.411 . S
Cd74 O77 2.333 . S
Cd74 O78 2.352 . S
Cd74 O82 2.277 . S
Cd74 O83 2.356 . S
C75 O80 1.209 . S
C75 O82 1.226 . S
O76 Cd72 2.273 1_556 S
O76 Cd74 2.411 . S
O76 C79 1.320 . S
O77 Cd74 2.333 . S
O77 C79 1.214 . S
O78 Cd74 2.352 . S
O78 C81 1.258 . S
C79 O76 1.320 . S
C79 O77 1.214 . S
O80 Cd72 2.277 1_556 S
O80 C75 1.209 . S
C81 O78 1.258 . S
C81 O83 1.282 . S
O82 Cd74 2.277 . S
O82 C75 1.226 . S
O83 Cd74 2.356 . S
O83 C81 1.282 . S
C84 O85 1.306 . S
C84 O87 1.160 . S
O85 C84 1.306 . S
O85 Cd86 2.228 . S
Cd86 O85 2.228 . S
Cd86 O90 2.273 . S
Cd86 O94 2.277 1_455 S
O87 C84 1.160 . S
O87 Cd88 2.203 1_455 S
Cd88 O87 2.203 1_655 S
Cd88 O90 2.411 1_655 S
Cd88 O91 2.333 . S
Cd88 O92 2.352 1_655 S
Cd88 O96 2.277 . S
Cd88 O97 2.356 . S
C89 O94 1.209 . S
C89 O96 1.226 . S
O90 Cd86 2.273 . S
O90 Cd88 2.411 1_455 S
O90 C93 1.320 1_455 S
O91 Cd88 2.333 . S
O91 C93 1.214 . S
O92 Cd88 2.352 1_455 S
O92 C95 1.258 . S
C93 O90 1.320 1_655 S
C93 O91 1.214 . S
O94 Cd86 2.277 1_655 S
O94 C89 1.209 . S
C95 O92 1.258 . S
C95 O97 1.282 1_455 S
O96 Cd88 2.277 . S
O96 C89 1.226 . S
O97 Cd88 2.356 . S
O97 C95 1.282 1_655 S
C98 O99 1.306 . S
C98 O101 1.160 . S
O99 C98 1.306 . S
O99 Cd100 2.228 . S
Cd100 O99 2.228 . S
Cd100 O104 2.273 . S
Cd100 O108 2.277 . S
O101 C98 1.160 . S
O101 Cd102 2.203 . S
Cd102 O101 2.203 . S
Cd102 O104 2.411 . S
Cd102 O105 2.333 . S
Cd102 O106 2.352 . S
Cd102 O110 2.277 . S
Cd102 O111 2.356 . S
C103 O108 1.209 . S
C103 O110 1.226 . S
O104 Cd100 2.273 . S
O104 Cd102 2.411 . S
O104 C107 1.320 . S
O105 Cd102 2.333 . S
O105 C107 1.214 . S
O106 Cd102 2.352 . S
O106 C109 1.258 . S
C107 O104 1.320 . S
C107 O105 1.214 . S
O108 Cd100 2.277 . S
O108 C103 1.209 . S
C109 O106 1.258 . S
C109 O111 1.282 . S
O110 Cd102 2.277 . S
O110 C103 1.226 . S
O111 Cd102 2.356 . S
O111 C109 1.282 . S
C112 O113 1.306 . S
C112 O115 1.160 . S
O113 C112 1.306 . S
O113 Cd114 2.228 . S
Cd114 O113 2.228 . S
Cd114 O118 2.273 . S
Cd114 O122 2.277 1_565 S
O115 C112 1.160 . S
O115 Cd116 2.203 1_565 S
Cd116 O115 2.203 1_545 S
Cd116 O118 2.411 1_545 S
Cd116 O119 2.333 . S
Cd116 O120 2.352 1_545 S
Cd116 O124 2.277 . S
Cd116 O125 2.356 . S
C117 O122 1.209 . S
C117 O124 1.226 . S
O118 Cd114 2.273 . S
O118 Cd116 2.411 1_565 S
O118 C121 1.320 1_565 S
O119 Cd116 2.333 . S
O119 C121 1.214 . S
O120 Cd116 2.352 1_565 S
O120 C123 1.258 . S
C121 O118 1.320 1_545 S
C121 O119 1.214 . S
O122 Cd114 2.277 1_545 S
O122 C117 1.209 . S
C123 O120 1.258 . S
C123 O125 1.282 1_565 S
O124 Cd116 2.277 . S
O124 C117 1.226 . S
O125 Cd116 2.356 . S
O125 C123 1.282 1_545 S
C126 O127 1.306 . S
C126 O129 1.160 . S
O127 C126 1.306 . S
O127 Cd128 2.228 . S
Cd128 O127 2.228 . S
Cd128 O132 2.273 . S
Cd128 O136 2.277 . S
O129 C126 1.160 . S
O129 Cd130 2.203 . S
Cd130 O129 2.203 . S
Cd130 O132 2.411 . S
Cd130 O133 2.333 . S
Cd130 O134 2.352 . S
Cd130 O138 2.277 . S
Cd130 O139 2.356 . S
C131 O136 1.209 . S
C131 O138 1.226 . S
O132 Cd128 2.273 . S
O132 Cd130 2.411 . S
O132 C135 1.320 . S
O133 Cd130 2.333 . S
O133 C135 1.214 . S
O134 Cd130 2.352 . S
O134 C137 1.258 . S
C135 O132 1.320 . S
C135 O133 1.214 . S
O136 Cd128 2.277 . S
O136 C131 1.209 . S
C137 O134 1.258 . S
C137 O139 1.282 . S
O138 Cd130 2.277 . S
O138 C131 1.226 . S
O139 Cd130 2.356 . S
O139 C137 1.282 . S
C140 O141 1.306 . S
C140 O143 1.160 . S
O141 C140 1.306 . S
O141 Cd142 2.228 1_565 S
Cd142 O141 2.228 1_545 S
Cd142 O146 2.273 . S
Cd142 O150 2.277 . S
O143 C140 1.160 . S
O143 Cd144 2.203 1_565 S
Cd144 O143 2.203 1_545 S
Cd144 O146 2.411 . S
Cd144 O147 2.333 . S
Cd144 O148 2.352 . S
Cd144 O152 2.277 . S
Cd144 O153 2.356 . S
C145 O150 1.209 . S
C145 O152 1.226 . S
O146 Cd142 2.273 . S
O146 Cd144 2.411 . S
O146 C149 1.320 . S
O147 Cd144 2.333 . S
O147 C149 1.214 . S
O148 Cd144 2.352 . S
O148 C151 1.258 . S
C149 O146 1.320 . S
C149 O147 1.214 . S
O150 Cd142 2.277 . S
O150 C145 1.209 . S
C151 O148 1.258 . S
C151 O153 1.282 . S
O152 Cd144 2.277 . S
O152 C145 1.226 . S
O153 Cd144 2.356 . S
O153 C151 1.282 . S
C154 O155 1.306 . S
C154 O157 1.160 . S
O155 C154 1.306 . S
O155 Cd156 2.228 1_455 S
Cd156 O155 2.228 1_655 S
Cd156 O160 2.273 . S
Cd156 O164 2.277 . S
O157 C154 1.160 . S
O157 Cd158 2.203 1_455 S
Cd158 O157 2.203 1_655 S
Cd158 O160 2.411 . S
Cd158 O161 2.333 . S
Cd158 O162 2.352 . S
Cd158 O166 2.277 . S
Cd158 O167 2.356 . S
C159 O164 1.209 . S
C159 O166 1.226 . S
O160 Cd156 2.273 . S
O160 Cd158 2.411 . S
O160 C163 1.320 . S
O161 Cd158 2.333 . S
O161 C163 1.214 . S
O162 Cd158 2.352 . S
O162 C165 1.258 . S
C163 O160 1.320 . S
C163 O161 1.214 . S
O164 Cd156 2.277 . S
O164 C159 1.209 . S
C165 O162 1.258 . S
C165 O167 1.282 . S
O166 Cd158 2.277 . S
O166 C159 1.226 . S
O167 Cd158 2.356 . S
O167 C165 1.282 . S
C168 O169 1.306 . S
C168 O171 1.160 . S
O169 C168 1.306 . S
O169 Cd170 2.228 . S
Cd170 O169 2.228 . S
Cd170 O174 2.273 . S
Cd170 O178 2.277 . S
O171 C168 1.160 . S
O171 Cd172 2.203 . S
Cd172 O171 2.203 . S
Cd172 O174 2.411 . S
Cd172 O175 2.333 . S
Cd172 O176 2.352 . S
Cd172 O180 2.277 . S
Cd172 O181 2.356 . S
C173 O178 1.209 . S
C173 O180 1.226 . S
O174 Cd170 2.273 . S
O174 Cd172 2.411 . S
O174 C177 1.320 . S
O175 Cd172 2.333 . S
O175 C177 1.214 . S
O176 Cd172 2.352 . S
O176 C179 1.258 . S
C177 O174 1.320 . S
C177 O175 1.214 . S
O178 Cd170 2.277 . S
O178 C173 1.209 . S
C179 O176 1.258 . S
C179 O181 1.282 . S
O180 Cd172 2.277 . S
O180 C173 1.226 . S
O181 Cd172 2.356 . S
O181 C179 1.282 . S
C182 O183 1.306 . S
C182 O185 1.160 . S
O183 C182 1.306 . S
O183 Cd184 2.228 . S
Cd184 O183 2.228 . S
Cd184 O188 2.273 . S
Cd184 O192 2.277 . S
O185 C182 1.160 . S
O185 Cd186 2.203 . S
Cd186 O185 2.203 . S
Cd186 O188 2.411 . S
Cd186 O189 2.333 . S
Cd186 O190 2.352 1_565 S
Cd186 O194 2.277 . S
Cd186 O195 2.356 1_565 S
C187 O192 1.209 . S
C187 O194 1.226 . S
O188 Cd184 2.273 . S
O188 Cd186 2.411 . S
O188 C191 1.320 . S
O189 Cd186 2.333 . S
O189 C191 1.214 . S
O190 Cd186 2.352 1_545 S
O190 C193 1.258 . S
C191 O188 1.320 . S
C191 O189 1.214 . S
O192 Cd184 2.277 . S
O192 C187 1.209 . S
C193 O190 1.258 . S
C193 O195 1.282 . S
O194 Cd186 2.277 . S
O194 C187 1.226 . S
O195 Cd186 2.356 1_545 S
O195 C193 1.282 . S
C196 O197 1.306 . S
C196 O199 1.160 . S
O197 C196 1.306 . S
O197 Cd198 2.228 1_655 S
Cd198 O197 2.228 1_455 S
Cd198 O202 2.273 . S
Cd198 O206 2.277 . S
O199 C196 1.160 . S
O199 Cd200 2.203 1_655 S
Cd200 O199 2.203 1_455 S
Cd200 O202 2.411 . S
Cd200 O203 2.333 . S
Cd200 O204 2.352 . S
Cd200 O208 2.277 . S
Cd200 O209 2.356 . S
C201 O206 1.209 . S
C201 O208 1.226 . S
O202 Cd198 2.273 . S
O202 Cd200 2.411 . S
O202 C205 1.320 . S
O203 Cd200 2.333 . S
O203 C205 1.214 . S
O204 Cd200 2.352 . S
O204 C207 1.258 . S
C205 O202 1.320 . S
C205 O203 1.214 . S
O206 Cd198 2.277 . S
O206 C201 1.209 . S
C207 O204 1.258 . S
C207 O209 1.282 . S
O208 Cd200 2.277 . S
O208 C201 1.226 . S
O209 Cd200 2.356 . S
O209 C207 1.282 . S
C210 O211 1.306 . S
C210 O213 1.160 . S
O211 C210 1.306 . S
O211 Cd212 2.228 . S
Cd212 O211 2.228 . S
Cd212 O216 2.273 . S
Cd212 O220 2.277 1_655 S
O213 C210 1.160 . S
O213 Cd214 2.203 1_655 S
Cd214 O213 2.203 1_455 S
Cd214 O216 2.411 1_455 S
Cd214 O217 2.333 . S
Cd214 O218 2.352 1_455 S
Cd214 O222 2.277 . S
Cd214 O223 2.356 . S
C215 O220 1.209 . S
C215 O222 1.226 . S
O216 Cd212 2.273 . S
O216 Cd214 2.411 1_655 S
O216 C219 1.320 1_655 S
O217 Cd214 2.333 . S
O217 C219 1.214 . S
O218 Cd214 2.352 1_655 S
O218 C221 1.258 . S
C219 O216 1.320 1_455 S
C219 O217 1.214 . S
O220 Cd212 2.277 1_455 S
O220 C215 1.209 . S
C221 O218 1.258 . S
C221 O223 1.282 1_655 S
O222 Cd214 2.277 . S
O222 C215 1.226 . S
O223 Cd214 2.356 . S
O223 C221 1.282 1_455 S
C224 O225 1.306 . S
C224 O227 1.160 . S
O225 C224 1.306 . S
O225 Cd226 2.228 . S
Cd226 O225 2.228 . S
Cd226 O230 2.273 . S
Cd226 O234 2.277 . S
O227 C224 1.160 . S
O227 Cd228 2.203 . S
Cd228 O227 2.203 . S
Cd228 O230 2.411 . S
Cd228 O231 2.333 . S
Cd228 O232 2.352 . S
Cd228 O236 2.277 . S
Cd228 O237 2.356 . S
C229 O234 1.209 . S
C229 O236 1.226 . S
O230 Cd226 2.273 . S
O230 Cd228 2.411 . S
O230 C233 1.320 . S
O231 Cd228 2.333 . S
O231 C233 1.214 . S
O232 Cd228 2.352 . S
O232 C235 1.258 . S
C233 O230 1.320 . S
C233 O231 1.214 . S
O234 Cd226 2.277 . S
O234 C229 1.209 . S
C235 O232 1.258 . S
C235 O237 1.282 . S
O236 Cd228 2.277 . S
O236 C229 1.226 . S
O237 Cd228 2.356 . S
O237 C235 1.282 . S
C238 O239 1.306 . S
C238 O241 1.160 . S
O239 C238 1.306 . S
O239 Cd240 2.228 . S
Cd240 O239 2.228 . S
Cd240 O244 2.273 . S
Cd240 O248 2.277 1_545 S
O241 C238 1.160 . S
O241 Cd242 2.203 1_545 S
Cd242 O241 2.203 1_565 S
Cd242 O244 2.411 1_565 S
Cd242 O245 2.333 . S
Cd242 O246 2.352 1_565 S
Cd242 O250 2.277 . S
Cd242 O251 2.356 . S
C243 O248 1.209 . S
C243 O250 1.226 . S
O244 Cd240 2.273 . S
O244 Cd242 2.411 1_545 S
O244 C247 1.320 1_545 S
O245 Cd242 2.333 . S
O245 C247 1.214 . S
O246 Cd242 2.352 1_545 S
O246 C249 1.258 . S
C247 O244 1.320 1_565 S
C247 O245 1.214 . S
O248 Cd240 2.277 1_565 S
O248 C243 1.209 . S
C249 O246 1.258 . S
C249 O251 1.282 1_545 S
O250 Cd242 2.277 . S
O250 C243 1.226 . S
O251 Cd242 2.356 . S
O251 C249 1.282 1_565 S
C252 C253 1.369 . S
C252 C254 1.419 . S
C252 H256 0.930 . S
C253 C252 1.369 . S
C253 C262 1.429 1_544 S
C254 C252 1.419 . S
C254 C255 1.363 1_544 S
C254 H257 0.929 . S
C255 C254 1.363 1_566 S
C255 C261 1.428 . S
H256 C252 0.930 . S
H257 C254 0.929 . S
S258 N259 1.613 . S
S258 N260 1.610 . S
N259 S258 1.613 . S
N259 C262 1.350 . S
N260 S258 1.610 . S
N260 C261 1.351 . S
C261 C255 1.428 . S
C261 N260 1.351 . S
C261 C262 1.434 . S
C262 C253 1.429 1_566 S
C262 N259 1.350 . S
C262 C261 1.434 . S
C263 C264 1.369 1_556 S
C263 C265 1.419 . S
C263 H267 0.930 . S
C264 C263 1.369 1_554 S
C264 C273 1.429 1_655 S
C265 C263 1.419 . S
C265 C266 1.363 1_655 S
C265 H268 0.929 . S
C266 C265 1.363 1_455 S
C266 C272 1.428 . S
H267 C263 0.930 . S
H268 C265 0.929 . S
S269 N270 1.613 . S
S269 N271 1.603 1_554 S
N270 S269 1.613 . S
N270 C273 1.350 . S
N271 S269 1.603 1_556 S
N271 C272 1.352 . S
C272 C266 1.428 . S
C272 N271 1.352 . S
C272 C273 1.434 1_556 S
C273 C264 1.429 1_455 S
C273 N270 1.350 . S
C273 C272 1.434 1_554 S
C274 C275 1.369 . S
C274 C276 1.419 . S
C274 H278 0.930 . S
C275 C274 1.369 . S
C275 C284 1.429 1_556 S
C276 C274 1.419 . S
C276 C277 1.363 1_556 S
C276 H279 0.929 . S
C277 C276 1.363 1_554 S
C277 C283 1.428 . S
H278 C274 0.930 . S
H279 C276 0.929 . S
S280 N281 1.613 . S
S280 N282 1.610 . S
N281 S280 1.613 . S
N281 C284 1.350 . S
N282 S280 1.610 . S
N282 C283 1.351 . S
C283 C277 1.428 . S
C283 N282 1.351 . S
C283 C284 1.434 . S
C284 C275 1.429 1_554 S
C284 N281 1.350 . S
C284 C283 1.434 . S
C285 C286 1.369 . S
C285 C287 1.419 . S
C285 H289 0.930 . S
C286 C285 1.369 . S
C286 C295 1.429 . S
C287 C285 1.419 . S
C287 C288 1.363 . S
C287 H290 0.929 . S
C288 C287 1.363 . S
C288 C294 1.428 . S
H289 C285 0.930 . S
H290 C287 0.929 . S
S291 N292 1.613 . S
S291 N293 1.610 . S
N292 S291 1.613 . S
N292 C295 1.350 . S
N293 S291 1.610 . S
N293 C294 1.351 . S
C294 C288 1.428 . S
C294 N293 1.351 . S
C294 C295 1.434 . S
C295 C286 1.429 . S
C295 N292 1.350 . S
C295 C294 1.434 . S
C296 C297 1.369 . S
C296 C298 1.419 . S
C296 H300 0.930 . S
C297 C296 1.369 . S
C297 C306 1.429 . S
C298 C296 1.419 . S
C298 C299 1.363 . S
C298 H301 0.929 . S
C299 C298 1.363 . S
C299 C305 1.428 . S
H300 C296 0.930 . S
H301 C298 0.929 . S
S302 N303 1.613 . S
S302 N304 1.610 . S
N303 S302 1.613 . S
N303 C306 1.350 . S
N304 S302 1.610 . S
N304 C305 1.351 . S
C305 C299 1.428 . S
C305 N304 1.351 . S
C305 C306 1.434 . S
C306 C297 1.429 . S
C306 N303 1.350 . S
C306 C305 1.434 . S
C307 C308 1.369 . S
C307 C309 1.419 . S
C307 H311 0.930 . S
C308 C307 1.369 . S
C308 C317 1.429 . S
C309 C307 1.419 . S
C309 C310 1.363 . S
C309 H312 0.929 . S
C310 C309 1.363 . S
C310 C316 1.428 . S
H311 C307 0.930 . S
H312 C309 0.929 . S
S313 N314 1.613 . S
S313 N315 1.610 . S
N314 S313 1.613 . S
N314 C317 1.350 . S
N315 S313 1.610 . S
N315 C316 1.351 . S
C316 C310 1.428 . S
C316 N315 1.351 . S
C316 C317 1.434 . S
C317 C308 1.429 . S
C317 N314 1.350 . S
C317 C316 1.434 . S
C318 C319 1.369 . S
C318 C320 1.419 . S
C318 H322 0.930 . S
C319 C318 1.369 . S
C319 C328 1.429 . S
C320 C318 1.419 . S
C320 C321 1.363 . S
C320 H323 0.929 . S
C321 C320 1.363 . S
C321 C327 1.428 . S
H322 C318 0.930 . S
H323 C320 0.929 . S
S324 N325 1.613 . S
S324 N326 1.610 . S
N325 S324 1.613 . S
N325 C328 1.350 . S
N326 S324 1.610 . S
N326 C327 1.351 . S
C327 C321 1.428 . S
C327 N326 1.351 . S
C327 C328 1.434 . S
C328 C319 1.429 . S
C328 N325 1.350 . S
C328 C327 1.434 . S
C329 C330 1.369 . S
C329 C331 1.419 . S
C329 H333 0.930 . S
C330 C329 1.369 . S
C330 C339 1.429 . S
C331 C329 1.419 . S
C331 C332 1.363 . S
C331 H334 0.929 . S
C332 C331 1.363 . S
C332 C338 1.428 . S
H333 C329 0.930 . S
H334 C331 0.929 . S
S335 N336 1.613 . S
S335 N337 1.610 . S
N336 S335 1.613 . S
N336 C339 1.350 . S
N337 S335 1.610 . S
N337 C338 1.351 . S
C338 C332 1.428 . S
C338 N337 1.351 . S
C338 C339 1.434 . S
C339 C330 1.429 . S
C339 N336 1.350 . S
C339 C338 1.434 . S
C340 C341 1.369 . S
C340 C342 1.419 . S
C340 H344 0.930 . S
C341 C340 1.369 . S
C341 C350 1.429 . S
C342 C340 1.419 . S
C342 C343 1.363 . S
C342 H345 0.929 . S
C343 C342 1.363 . S
C343 C349 1.428 . S
H344 C340 0.930 . S
H345 C342 0.929 . S
S346 N347 1.613 . S
S346 N348 1.610 . S
N347 S346 1.613 . S
N347 C350 1.350 . S
N348 S346 1.610 . S
N348 C349 1.351 . S
C349 C343 1.428 . S
C349 N348 1.351 . S
C349 C350 1.434 . S
C350 C341 1.429 . S
C350 N347 1.350 . S
C350 C349 1.434 . S
C351 C352 1.369 . S
C351 C353 1.419 . S
C351 H355 0.930 . S
C352 C351 1.369 . S
C352 C361 1.429 . S
C353 C351 1.419 . S
C353 C354 1.363 . S
C353 H356 0.929 . S
C354 C353 1.363 . S
C354 C360 1.428 . S
H355 C351 0.930 . S
H356 C353 0.929 . S
S357 N358 1.613 . S
S357 N359 1.610 . S
N358 S357 1.613 . S
N358 C361 1.350 . S
N359 S357 1.610 . S
N359 C360 1.351 . S
C360 C354 1.428 . S
C360 N359 1.351 . S
C360 C361 1.434 . S
C361 C352 1.429 . S
C361 N358 1.350 . S
C361 C360 1.434 . S
C362 C363 1.369 . S
C362 C364 1.419 . S
C362 H366 0.930 . S
C363 C362 1.369 . S
C363 C372 1.429 . S
C364 C362 1.419 . S
C364 C365 1.363 . S
C364 H367 0.929 . S
C365 C364 1.363 . S
C365 C371 1.428 . S
H366 C362 0.930 . S
H367 C364 0.929 . S
S368 N369 1.613 . S
S368 N370 1.610 . S
N369 S368 1.613 . S
N369 C372 1.350 . S
N370 S368 1.610 . S
N370 C371 1.351 . S
C371 C365 1.428 . S
C371 N370 1.351 . S
C371 C372 1.434 . S
C372 C363 1.429 . S
C372 N369 1.350 . S
C372 C371 1.434 . S
C373 C374 1.369 . S
C373 C375 1.419 . S
C373 H377 0.930 . S
C374 C373 1.369 . S
C374 C383 1.429 . S
C375 C373 1.419 . S
C375 C376 1.363 . S
C375 H378 0.929 . S
C376 C375 1.363 . S
C376 C382 1.428 . S
H377 C373 0.930 . S
H378 C375 0.929 . S
S379 N380 1.613 . S
S379 N381 1.610 . S
N380 S379 1.613 . S
N380 C383 1.350 . S
N381 S379 1.610 . S
N381 C382 1.351 . S
C382 C376 1.428 . S
C382 N381 1.351 . S
C382 C383 1.434 . S
C383 C374 1.429 . S
C383 N380 1.350 . S
C383 C382 1.434 . S
C384 C385 1.369 . S
C384 C386 1.419 . S
C384 H388 0.930 . S
C385 C384 1.369 . S
C385 C394 1.429 . S
C386 C384 1.419 . S
C386 C387 1.363 . S
C386 H389 0.929 . S
C387 C386 1.363 . S
C387 C393 1.428 . S
H388 C384 0.930 . S
H389 C386 0.929 . S
S390 N391 1.613 . S
S390 N392 1.610 . S
N391 S390 1.613 . S
N391 C394 1.350 . S
N392 S390 1.610 . S
N392 C393 1.351 . S
C393 C387 1.428 . S
C393 N392 1.351 . S
C393 C394 1.434 . S
C394 C385 1.429 . S
C394 N391 1.350 . S
C394 C393 1.434 . S
C395 C396 1.369 . S
C395 C397 1.419 . S
C395 H399 0.930 . S
C396 C395 1.369 . S
C396 C405 1.429 . S
C397 C395 1.419 . S
C397 C398 1.363 . S
C397 H400 0.929 . S
C398 C397 1.363 . S
C398 C404 1.428 . S
H399 C395 0.930 . S
H400 C397 0.929 . S
S401 N402 1.613 . S
S401 N403 1.610 . S
N402 S401 1.613 . S
N402 C405 1.350 . S
N403 S401 1.610 . S
N403 C404 1.351 . S
C404 C398 1.428 . S
C404 N403 1.351 . S
C404 C405 1.434 . S
C405 C396 1.429 . S
C405 N402 1.350 . S
C405 C404 1.434 . S
C406 C407 1.369 . S
C406 C408 1.419 . S
C406 H410 0.930 . S
C407 C406 1.369 . S
C407 C416 1.429 . S
C408 C406 1.419 . S
C408 C409 1.363 . S
C408 H411 0.929 . S
C409 C408 1.363 . S
C409 C415 1.428 . S
H410 C406 0.930 . S
H411 C408 0.929 . S
S412 N413 1.613 . S
S412 N414 1.610 . S
N413 S412 1.613 . S
N413 C416 1.350 . S
N414 S412 1.610 . S
N414 C415 1.351 . S
C415 C409 1.428 . S
C415 N414 1.351 . S
C415 C416 1.434 . S
C416 C407 1.429 . S
C416 N413 1.350 . S
C416 C415 1.434 . S
C417 C418 1.369 . S
C417 C419 1.419 . S
C417 H421 0.930 . S
C418 C417 1.369 . S
C418 C427 1.429 1_455 S
C419 C417 1.419 . S
C419 C420 1.363 1_455 S
C419 H422 0.929 . S
C420 C419 1.363 1_655 S
C420 C426 1.428 . S
H421 C417 0.930 . S
H422 C419 0.929 . S
S423 N424 1.613 . S
S423 N425 1.610 . S
N424 S423 1.613 . S
N424 C427 1.350 . S
N425 S423 1.610 . S
N425 C426 1.351 . S
C426 C420 1.428 . S
C426 N425 1.351 . S
C426 C427 1.434 . S
C427 C418 1.429 1_655 S
C427 N424 1.350 . S
C427 C426 1.434 . S
C428 C429 1.369 . S
C428 C430 1.419 . S
C428 H432 0.930 . S
C429 C428 1.369 . S
C429 C438 1.429 . S
C430 C428 1.419 . S
C430 C431 1.363 . S
C430 H433 0.929 . S
C431 C430 1.363 . S
C431 C437 1.428 . S
H432 C428 0.930 . S
H433 C430 0.929 . S
S434 N435 1.613 . S
S434 N436 1.610 . S
N435 S434 1.613 . S
N435 C438 1.350 . S
N436 S434 1.610 . S
N436 C437 1.351 . S
C437 C431 1.428 . S
C437 N436 1.351 . S
C437 C438 1.434 . S
C438 C429 1.429 . S
C438 N435 1.350 . S
C438 C437 1.434 . S
C439 C440 1.369 . S
C439 C441 1.419 . S
C439 H443 0.930 . S
C440 C439 1.369 . S
C440 C449 1.429 1_545 S
C441 C439 1.419 . S
C441 C442 1.363 1_545 S
C441 H444 0.929 . S
C442 C441 1.363 1_565 S
C442 C448 1.428 . S
H443 C439 0.930 . S
H444 C441 0.929 . S
S445 N446 1.613 . S
S445 N447 1.610 . S
N446 S445 1.613 . S
N446 C449 1.350 . S
N447 S445 1.610 . S
N447 C448 1.351 . S
C448 C442 1.428 . S
C448 N447 1.351 . S
C448 C449 1.434 . S
C449 C440 1.429 1_565 S
C449 N446 1.350 . S
C449 C448 1.434 . S
C450 C451 1.369 . S
C450 C452 1.419 . S
C450 H454 0.930 . S
C451 C450 1.369 . S
C451 C460 1.429 1_554 S
C452 C450 1.419 . S
C452 C453 1.363 1_554 S
C452 H455 0.929 . S
C453 C452 1.363 1_556 S
C453 C459 1.428 . S
H454 C450 0.930 . S
H455 C452 0.929 . S
S456 N457 1.613 . S
S456 N458 1.610 . S
N457 S456 1.613 . S
N457 C460 1.350 . S
N458 S456 1.610 . S
N458 C459 1.351 . S
C459 C453 1.428 . S
C459 N458 1.351 . S
C459 C460 1.434 . S
C460 C451 1.429 1_556 S
C460 N457 1.350 . S
C460 C459 1.434 . S
C461 C462 1.369 1_556 S
C461 C463 1.419 . S
C461 H465 0.930 . S
C462 C461 1.369 1_554 S
C462 C471 1.429 . S
C463 C461 1.419 . S
C463 C464 1.363 . S
C463 H466 0.929 . S
C464 C463 1.363 . S
C464 C470 1.428 1_556 S
H465 C461 0.930 . S
H466 C463 0.929 . S
S467 N468 1.613 . S
S467 N469 1.610 . S
N468 S467 1.613 . S
N468 C471 1.350 . S
N469 S467 1.610 . S
N469 C470 1.351 . S
C470 C464 1.428 1_554 S
C470 N469 1.351 . S
C470 C471 1.434 . S
C471 C462 1.429 . S
C471 N468 1.350 . S
C471 C470 1.434 . S
C472 C473 1.369 1_556 S
C472 C474 1.419 . S
C472 H476 0.930 . S
C473 C472 1.369 1_554 S
C473 C482 1.429 . S
C474 C472 1.419 . S
C474 C475 1.363 . S
C474 H477 0.929 . S
C475 C474 1.363 . S
C475 C481 1.428 1_556 S
H476 C472 0.930 . S
H477 C474 0.929 . S
S478 N479 1.613 . S
S478 N480 1.610 . S
N479 S478 1.613 . S
N479 C482 1.350 . S
N480 S478 1.610 . S
N480 C481 1.351 . S
C481 C475 1.428 1_554 S
C481 N480 1.351 . S
C481 C482 1.434 . S
C482 C473 1.429 . S
C482 N479 1.350 . S
C482 C481 1.434 . S
C483 C484 1.369 1_554 S
C483 C485 1.419 . S
C483 H487 0.930 . S
C484 C483 1.369 1_556 S
C484 C493 1.429 . S
C485 C483 1.419 . S
C485 C486 1.363 . S
C485 H488 0.929 . S
C486 C485 1.363 . S
C486 C492 1.428 1_554 S
H487 C483 0.930 . S
H488 C485 0.929 . S
S489 N490 1.613 . S
S489 N491 1.610 . S
N490 S489 1.613 . S
N490 C493 1.350 . S
N491 S489 1.610 . S
N491 C492 1.351 . S
C492 C486 1.428 1_556 S
C492 N491 1.351 . S
C492 C493 1.434 . S
C493 C484 1.429 . S
C493 N490 1.350 . S
C493 C492 1.434 . S
C494 C495 1.369 1_556 S
C494 C496 1.419 . S
C494 H498 0.930 . S
C495 C494 1.369 1_554 S
C495 C504 1.429 . S
C496 C494 1.419 . S
C496 C497 1.363 . S
C496 H499 0.929 . S
C497 C496 1.363 . S
C497 C503 1.428 1_556 S
H498 C494 0.930 . S
H499 C496 0.929 . S
S500 N501 1.613 . S
S500 N502 1.610 . S
N501 S500 1.613 . S
N501 C504 1.350 . S
N502 S500 1.610 . S
N502 C503 1.351 . S
C503 C497 1.428 1_554 S
C503 N502 1.351 . S
C503 C504 1.434 . S
C504 C495 1.429 . S
C504 N501 1.350 . S
C504 C503 1.434 . S
C505 C506 1.369 . S
C505 C507 1.419 1_556 S
C505 H509 0.930 . S
C506 C505 1.369 . S
C506 C515 1.429 . S
C507 C505 1.419 1_554 S
C507 C508 1.363 . S
C507 H510 0.929 . S
C508 C507 1.363 . S
C508 C514 1.428 1_554 S
H509 C505 0.930 . S
H510 C507 0.929 . S
S511 N512 1.613 . S
S511 N513 1.610 . S
N512 S511 1.613 . S
N512 C515 1.350 . S
N513 S511 1.610 . S
N513 C514 1.351 . S
C514 C508 1.428 1_556 S
C514 N513 1.351 . S
C514 C515 1.434 . S
C515 C506 1.429 . S
C515 N512 1.350 . S
C515 C514 1.434 . S
C516 C517 1.369 . S
C516 C518 1.419 . S
C516 H520 0.930 . S
C517 C516 1.369 . S
C517 C526 1.429 . S
C518 C516 1.419 . S
C518 C519 1.363 . S
C518 H521 0.929 . S
C519 C518 1.363 . S
C519 C525 1.428 . S
H520 C516 0.930 . S
H521 C518 0.929 . S
S522 N523 1.613 . S
S522 N524 1.610 . S
N523 S522 1.613 . S
N523 C526 1.350 . S
N524 S522 1.610 . S
N524 C525 1.351 . S
C525 C519 1.428 . S
C525 N524 1.351 . S
C525 C526 1.434 . S
C526 C517 1.429 . S
C526 N523 1.350 . S
C526 C525 1.434 . S
C527 C528 1.369 . S
C527 C529 1.419 . S
C527 H531 0.930 . S
C528 C527 1.369 . S
C528 C537 1.429 . S
C529 C527 1.419 . S
C529 C530 1.363 . S
C529 H532 0.929 . S
C530 C529 1.363 . S
C530 C536 1.428 . S
H531 C527 0.930 . S
H532 C529 0.929 . S
S533 N534 1.613 . S
S533 N535 1.610 . S
N534 S533 1.613 . S
N534 C537 1.350 . S
N535 S533 1.610 . S
N535 C536 1.351 . S
C536 C530 1.428 . S
C536 N535 1.351 . S
C536 C537 1.434 . S
C537 C528 1.429 . S
C537 N534 1.350 . S
C537 C536 1.434 . S
C538 C539 1.369 . S
C538 C540 1.419 . S
C538 H542 0.930 . S
C539 C538 1.369 . S
C539 C548 1.429 . S
C540 C538 1.419 . S
C540 C541 1.363 . S
C540 H543 0.929 . S
C541 C540 1.363 . S
C541 C547 1.428 . S
H542 C538 0.930 . S
H543 C540 0.929 . S
S544 N545 1.613 . S
S544 N546 1.610 . S
N545 S544 1.613 . S
N545 C548 1.350 . S
N546 S544 1.610 . S
N546 C547 1.351 . S
C547 C541 1.428 . S
C547 N546 1.351 . S
C547 C548 1.434 . S
C548 C539 1.429 . S
C548 N545 1.350 . S
C548 C547 1.434 . S
C549 C550 1.369 . S
C549 C551 1.419 . S
C549 H553 0.930 . S
C550 C549 1.369 . S
C550 C559 1.429 . S
C551 C549 1.419 . S
C551 C552 1.363 . S
C551 H554 0.929 . S
C552 C551 1.363 . S
C552 C558 1.428 . S
H553 C549 0.930 . S
H554 C551 0.929 . S
S555 N556 1.613 . S
S555 N557 1.610 . S
N556 S555 1.613 . S
N556 C559 1.350 . S
N557 S555 1.610 . S
N557 C558 1.351 . S
C558 C552 1.428 . S
C558 N557 1.351 . S
C558 C559 1.434 . S
C559 C550 1.429 . S
C559 N556 1.350 . S
C559 C558 1.434 . S
C560 C561 1.369 . S
C560 C562 1.419 . S
C560 H564 0.930 . S
C561 C560 1.369 . S
C561 C570 1.429 1_545 S
C562 C560 1.419 . S
C562 C563 1.363 . S
C562 H565 0.929 . S
C563 C562 1.363 . S
C563 C569 1.428 1_545 S
H564 C560 0.930 . S
H565 C562 0.929 . S
S566 N567 1.613 . S
S566 N568 1.610 . S
N567 S566 1.613 . S
N567 C570 1.350 . S
N568 S566 1.610 . S
N568 C569 1.351 . S
C569 C563 1.428 1_565 S
C569 N568 1.351 . S
C569 C570 1.434 . S
C570 C561 1.429 1_565 S
C570 N567 1.350 . S
C570 C569 1.434 . S
C571 C572 1.369 . S
C571 C573 1.419 . S
C571 H575 0.930 . S
C572 C571 1.369 . S
C572 C581 1.429 1_655 S
C573 C571 1.419 . S
C573 C574 1.363 . S
C573 H576 0.929 . S
C574 C573 1.363 . S
C574 C580 1.428 1_655 S
H575 C571 0.930 . S
H576 C573 0.929 . S
S577 N578 1.613 . S
S577 N579 1.610 . S
N578 S577 1.613 . S
N578 C581 1.350 . S
N579 S577 1.610 . S
N579 C580 1.351 . S
C580 C574 1.428 1_455 S
C580 N579 1.351 . S
C580 C581 1.434 . S
C581 C572 1.429 1_455 S
C581 N578 1.350 . S
C581 C580 1.434 . S
C582 C583 1.369 . S
C582 C584 1.419 . S
C582 H586 0.930 . S
C583 C582 1.369 . S
C583 C592 1.429 . S
C584 C582 1.419 . S
C584 C585 1.363 . S
C584 H587 0.929 . S
C585 C584 1.363 . S
C585 C591 1.428 . S
H586 C582 0.930 . S
H587 C584 0.929 . S
S588 N589 1.613 . S
S588 N590 1.610 . S
N589 S588 1.613 . S
N589 C592 1.350 . S
N590 S588 1.610 . S
N590 C591 1.351 . S
C591 C585 1.428 . S
C591 N590 1.351 . S
C591 C592 1.434 . S
C592 C583 1.429 . S
C592 N589 1.350 . S
C592 C591 1.434 . S
C593 C594 1.369 . S
C593 C595 1.419 . S
C593 H597 0.930 . S
C594 C593 1.369 . S
C594 C603 1.429 . S
C595 C593 1.419 . S
C595 C596 1.363 . S
C595 H598 0.929 . S
C596 C595 1.363 . S
C596 C602 1.428 . S
H597 C593 0.930 . S
H598 C595 0.929 . S
S599 N600 1.613 1_545 S
S599 N601 1.610 1_545 S
N600 S599 1.613 1_565 S
N600 C603 1.350 . S
N601 S599 1.610 1_565 S
N601 C602 1.351 . S
C602 C596 1.428 . S
C602 N601 1.351 . S
C602 C603 1.434 . S
C603 C594 1.429 . S
C603 N600 1.350 . S
C603 C602 1.434 . S
C604 C605 1.369 1_655 S
C604 C606 1.419 . S
C604 H608 0.930 . S
C605 C604 1.369 1_455 S
C605 C614 1.429 . S
C606 C604 1.419 . S
C606 C607 1.363 1_655 S
C606 H609 0.929 . S
C607 C606 1.363 1_455 S
C607 C613 1.428 . S
H608 C604 0.930 . S
H609 C606 0.929 . S
S610 N611 1.613 . S
S610 N612 1.610 . S
N611 S610 1.613 . S
N611 C614 1.350 . S
N612 S610 1.610 . S
N612 C613 1.351 . S
C613 C607 1.428 . S
C613 N612 1.351 . S
C613 C614 1.434 . S
C614 C605 1.429 . S
C614 N611 1.350 . S
C614 C613 1.434 . S
C615 C616 1.369 . S
C615 C617 1.419 . S
C615 H619 0.930 . S
C616 C615 1.369 . S
C616 C625 1.429 . S
C617 C615 1.419 . S
C617 C618 1.363 . S
C617 H620 0.929 . S
C618 C617 1.363 . S
C618 C624 1.428 . S
H619 C615 0.930 . S
H620 C617 0.929 . S
S621 N622 1.613 . S
S621 N623 1.610 . S
N622 S621 1.613 . S
N622 C625 1.350 . S
N623 S621 1.610 . S
N623 C624 1.351 . S
C624 C618 1.428 . S
C624 N623 1.351 . S
C624 C625 1.434 . S
C625 C616 1.429 . S
C625 N622 1.350 . S
C625 C624 1.434 . S
C626 C627 1.369 . S
C626 C628 1.419 . S
C626 H630 0.930 . S
C627 C626 1.369 . S
C627 C636 1.429 . S
C628 C626 1.419 . S
C628 C629 1.363 . S
C628 H631 0.929 . S
C629 C628 1.363 . S
C629 C635 1.428 . S
H630 C626 0.930 . S
H631 C628 0.929 . S
S632 N633 1.613 . S
S632 N634 1.610 . S
N633 S632 1.613 . S
N633 C636 1.350 . S
N634 S632 1.610 . S
N634 C635 1.351 . S
C635 C629 1.428 . S
C635 N634 1.351 . S
C635 C636 1.434 . S
C636 C627 1.429 . S
C636 N633 1.350 . S
C636 C635 1.434 . S
C637 C638 1.369 . S
C637 C639 1.419 . S
C637 H641 0.930 . S
C638 C637 1.369 . S
C638 C647 1.429 . S
C639 C637 1.419 . S
C639 C640 1.363 . S
C639 H642 0.929 . S
C640 C639 1.363 . S
C640 C646 1.428 . S
H641 C637 0.930 . S
H642 C639 0.929 . S
S643 N644 1.613 . S
S643 N645 1.610 . S
N644 S643 1.613 . S
N644 C647 1.350 . S
N645 S643 1.610 . S
N645 C646 1.351 . S
C646 C640 1.428 . S
C646 N645 1.351 . S
C646 C647 1.434 . S
C647 C638 1.429 . S
C647 N644 1.350 . S
C647 C646 1.434 . S
C253 C0 1.878 . S
C255 C42 1.887 . S
C264 C25 1.954 . S
C266 C56 1.926 . S
C275 C70 1.934 . S
C277 C28 1.939 . S
C286 C84 1.883 . S
C288 C126 1.878 . S
C297 C109 1.952 . S
C299 C140 1.921 . S
C308 C154 1.927 . S
C310 C112 1.929 . S
C319 C210 1.882 . S
C321 C168 1.879 . S
C330 C224 1.922 . S
C332 C193 1.950 . S
C341 C238 1.928 . S
C343 C196 1.929 . S
C352 C11 1.676 . S
C354 C137 1.678 . S
C363 C14 1.675 . S
C365 C151 1.702 . S
C374 C165 1.719 . S
C376 C39 1.716 . S
C385 C53 1.681 . S
C387 C179 1.674 . S
C396 C67 1.705 . S
C398 C182 1.671 . S
C407 C81 1.718 . S
C409 C207 1.717 . S
C418 C95 1.684 . S
C420 C221 1.692 . S
C429 C98 1.672 . S
C431 C235 1.698 . S
C440 C249 1.710 . S
C442 C123 1.723 . S
C451 C5 0.747 . S
C453 C65 0.746 . S
C462 C23 0.762 . S
C464 C79 0.762 . S
C473 C33 0.758 . S
C475 C51 0.758 . S
C484 C47 0.816 . S
C486 C19 0.816 . S
C495 C37 0.766 . S
C497 C61 0.769 . S
C506 C75 0.766 . S
C508 C9 0.767 . S
C517 C89 0.759 . S
C519 C149 0.760 . S
C528 C163 0.758 . S
C530 C107 0.759 . S
C539 C135 0.774 . S
C541 C117 0.774 . S
C550 C103 0.819 . S
C552 C131 0.820 . S
C561 C145 0.772 . S
C563 C121 0.770 . S
C572 C159 0.760 . S
C574 C93 0.758 . S
C583 C233 0.754 . S
C585 C173 0.753 . S
C594 C247 0.756 . S
C596 C191 0.757 . S
C605 C201 0.747 . S
C607 C219 0.751 . S
C616 C187 0.824 . S
C618 C215 0.825 . S
C627 C205 0.772 . S
C629 C229 0.771 . S
C638 C177 0.783 . S
C640 C243 0.783 . S
