# Generated by pormake.
# Topology lta, (4)-cn, num edge types: 1
# Building blocks:
#     Node 0, Type 0, BuildingBlock: GALJAG_clean_sbu_0, # of connection points: 4
#     Node 1, Type 0, BuildingBlock: GALJAG_clean_sbu_0, # of connection points: 4
#     Node 2, Type 0, BuildingBlock: GALJAG_clean_sbu_0, # of connection points: 4
#     Node 3, Type 0, BuildingBlock: GALJAG_clean_sbu_0, # of connection points: 4
#     Node 4, Type 0, BuildingBlock: GALJAG_clean_sbu_0, # of connection points: 4
#     Node 5, Type 0, BuildingBlock: GALJAG_clean_sbu_0, # of connection points: 4
#     Node 6, Type 0, BuildingBlock: GALJAG_clean_sbu_0, # of connection points: 4
#     Node 7, Type 0, BuildingBlock: GALJAG_clean_sbu_0, # of connection points: 4
#     Node 8, Type 0, BuildingBlock: GALJAG_clean_sbu_0, # of connection points: 4
#     Node 9, Type 0, BuildingBlock: GALJAG_clean_sbu_0, # of connection points: 4
#     Node 10, Type 0, BuildingBlock: GALJAG_clean_sbu_0, # of connection points: 4
#     Node 11, Type 0, BuildingBlock: GALJAG_clean_sbu_0, # of connection points: 4
#     Node 12, Type 0, BuildingBlock: GALJAG_clean_sbu_0, # of connection points: 4
#     Node 13, Type 0, BuildingBlock: GALJAG_clean_sbu_0, # of connection points: 4
#     Node 14, Type 0, BuildingBlock: GALJAG_clean_sbu_0, # of connection points: 4
#     Node 15, Type 0, BuildingBlock: GALJAG_clean_sbu_0, # of connection points: 4
#     Node 16, Type 0, BuildingBlock: GALJAG_clean_sbu_0, # of connection points: 4
#     Node 17, Type 0, BuildingBlock: GALJAG_clean_sbu_0, # of connection points: 4
#     Node 18, Type 0, BuildingBlock: GALJAG_clean_sbu_0, # of connection points: 4
#     Node 19, Type 0, BuildingBlock: GALJAG_clean_sbu_0, # of connection points: 4
#     Node 20, Type 0, BuildingBlock: GALJAG_clean_sbu_0, # of connection points: 4
#     Node 21, Type 0, BuildingBlock: GALJAG_clean_sbu_0, # of connection points: 4
#     Node 22, Type 0, BuildingBlock: GALJAG_clean_sbu_0, # of connection points: 4
#     Node 23, Type 0, BuildingBlock: GALJAG_clean_sbu_0, # of connection points: 4
#     Edge 24, Type (0, 0), BuildingBlock: AJUNOK_clean_linker_0, # of connection points: 2
#     Edge 25, Type (0, 0), BuildingBlock: AJUNOK_clean_linker_0, # of connection points: 2
#     Edge 26, Type (0, 0), BuildingBlock: AJUNOK_clean_linker_0, # of connection points: 2
#     Edge 27, Type (0, 0), BuildingBlock: AJUNOK_clean_linker_0, # of connection points: 2
#     Edge 28, Type (0, 0), BuildingBlock: AJUNOK_clean_linker_0, # of connection points: 2
#     Edge 29, Type (0, 0), BuildingBlock: AJUNOK_clean_linker_0, # of connection points: 2
#     Edge 30, Type (0, 0), BuildingBlock: AJUNOK_clean_linker_0, # of connection points: 2
#     Edge 31, Type (0, 0), BuildingBlock: AJUNOK_clean_linker_0, # of connection points: 2
#     Edge 32, Type (0, 0), BuildingBlock: AJUNOK_clean_linker_0, # of connection points: 2
#     Edge 33, Type (0, 0), BuildingBlock: AJUNOK_clean_linker_0, # of connection points: 2
#     Edge 34, Type (0, 0), BuildingBlock: AJUNOK_clean_linker_0, # of connection points: 2
#     Edge 35, Type (0, 0), BuildingBlock: AJUNOK_clean_linker_0, # of connection points: 2
#     Edge 36, Type (0, 0), BuildingBlock: AJUNOK_clean_linker_0, # of connection points: 2
#     Edge 37, Type (0, 0), BuildingBlock: AJUNOK_clean_linker_0, # of connection points: 2
#     Edge 38, Type (0, 0), BuildingBlock: AJUNOK_clean_linker_0, # of connection points: 2
#     Edge 39, Type (0, 0), BuildingBlock: AJUNOK_clean_linker_0, # of connection points: 2
#     Edge 40, Type (0, 0), BuildingBlock: AJUNOK_clean_linker_0, # of connection points: 2
#     Edge 41, Type (0, 0), BuildingBlock: AJUNOK_clean_linker_0, # of connection points: 2
#     Edge 42, Type (0, 0), BuildingBlock: AJUNOK_clean_linker_0, # of connection points: 2
#     Edge 43, Type (0, 0), BuildingBlock: AJUNOK_clean_linker_0, # of connection points: 2
#     Edge 44, Type (0, 0), BuildingBlock: AJUNOK_clean_linker_0, # of connection points: 2
#     Edge 45, Type (0, 0), BuildingBlock: AJUNOK_clean_linker_0, # of connection points: 2
#     Edge 46, Type (0, 0), BuildingBlock: AJUNOK_clean_linker_0, # of connection points: 2
#     Edge 47, Type (0, 0), BuildingBlock: AJUNOK_clean_linker_0, # of connection points: 2
#     Edge 48, Type (0, 0), BuildingBlock: AJUNOK_clean_linker_0, # of connection points: 2
#     Edge 49, Type (0, 0), BuildingBlock: AJUNOK_clean_linker_0, # of connection points: 2
#     Edge 50, Type (0, 0), BuildingBlock: AJUNOK_clean_linker_0, # of connection points: 2
#     Edge 51, Type (0, 0), BuildingBlock: AJUNOK_clean_linker_0, # of connection points: 2
#     Edge 52, Type (0, 0), BuildingBlock: AJUNOK_clean_linker_0, # of connection points: 2
#     Edge 53, Type (0, 0), BuildingBlock: AJUNOK_clean_linker_0, # of connection points: 2
#     Edge 54, Type (0, 0), BuildingBlock: AJUNOK_clean_linker_0, # of connection points: 2
#     Edge 55, Type (0, 0), BuildingBlock: AJUNOK_clean_linker_0, # of connection points: 2
#     Edge 56, Type (0, 0), BuildingBlock: AJUNOK_clean_linker_0, # of connection points: 2
#     Edge 57, Type (0, 0), BuildingBlock: AJUNOK_clean_linker_0, # of connection points: 2
#     Edge 58, Type (0, 0), BuildingBlock: AJUNOK_clean_linker_0, # of connection points: 2
#     Edge 59, Type (0, 0), BuildingBlock: AJUNOK_clean_linker_0, # of connection points: 2
#     Edge 60, Type (0, 0), BuildingBlock: AJUNOK_clean_linker_0, # of connection points: 2
#     Edge 61, Type (0, 0), BuildingBlock: AJUNOK_clean_linker_0, # of connection points: 2
#     Edge 62, Type (0, 0), BuildingBlock: AJUNOK_clean_linker_0, # of connection points: 2
#     Edge 63, Type (0, 0), BuildingBlock: AJUNOK_clean_linker_0, # of connection points: 2
#     Edge 64, Type (0, 0), BuildingBlock: AJUNOK_clean_linker_0, # of connection points: 2
#     Edge 65, Type (0, 0), BuildingBlock: AJUNOK_clean_linker_0, # of connection points: 2
#     Edge 66, Type (0, 0), BuildingBlock: AJUNOK_clean_linker_0, # of connection points: 2
#     Edge 67, Type (0, 0), BuildingBlock: AJUNOK_clean_linker_0, # of connection points: 2
#     Edge 68, Type (0, 0), BuildingBlock: AJUNOK_clean_linker_0, # of connection points: 2
#     Edge 69, Type (0, 0), BuildingBlock: AJUNOK_clean_linker_0, # of connection points: 2
#     Edge 70, Type (0, 0), BuildingBlock: AJUNOK_clean_linker_0, # of connection points: 2
#     Edge 71, Type (0, 0), BuildingBlock: AJUNOK_clean_linker_0, # of connection points: 2
# Relax obj value: 0.417
# Max RMSD: 0.230
# Mean RMSD: 0.230
data_MOF--net-lta--node1-GALJAG_clean_sbu_0--edge1-AJUNOK_clean_linker_0
_symmetry_space_group_name_H-M    P1
_symmetry_Int_Tables_number       1
_symmetry_cell_setting            triclinic
loop_
_symmetry_equiv_pos_as_xyz
'x, y, z'
_cell_length_a     41.824543
_cell_length_b     41.980715
_cell_length_c     41.898673
_cell_angle_alpha  89.863849
_cell_angle_beta   90.054632
_cell_angle_gamma 89.972631
loop_
_atom_site_label
_atom_site_type_symbol
_atom_site_fract_x
_atom_site_fract_y
_atom_site_fract_z
_atom_type_partial_charge
In0 In 0.13506 0.32289 0.50918 0.0
O1 O 0.16862 0.35166 0.54028 0.0
O2 O 0.13283 0.32456 0.56365 0.0
C3 C 0.13642 0.36837 0.46372 0.0
C4 C 0.17556 0.27458 0.49713 0.0
C5 C 0.07135 0.31312 0.50973 0.0
O6 O 0.1411 0.37396 0.49286 0.0
O7 O 0.13085 0.33955 0.45732 0.0
O8 O 0.09022 0.29495 0.49489 0.0
O9 O 0.0848 0.33562 0.52433 0.0
C10 C 0.15543 0.34432 0.56629 0.0
O11 O 0.15093 0.27099 0.51413 0.0
O12 O 0.17945 0.30231 0.48639 0.0
In13 In 0.68854 0.11369 0.4911 0.0
O14 O 0.6549 0.15004 0.51352 0.0
O15 O 0.68189 0.12058 0.54464 0.0
C16 C 0.64284 0.10906 0.44575 0.0
C17 C 0.73935 0.15186 0.47973 0.0
C18 C 0.70146 0.05112 0.49964 0.0
O19 O 0.63706 0.10663 0.47519 0.0
O20 O 0.67198 0.11312 0.43905 0.0
O21 O 0.70717 0.06526 0.47364 0.0
O22 O 0.68986 0.06866 0.52101 0.0
C23 C 0.66096 0.14206 0.54192 0.0
O24 O 0.74115 0.12779 0.49765 0.0
O25 O 0.71223 0.15629 0.46756 0.0
In26 In 0.85343 0.65982 0.47751 0.0
O27 O 0.83797 0.71204 0.47834 0.0
O28 O 0.80376 0.6769 0.49071 0.0
C29 C 0.91518 0.67791 0.47414 0.0
C30 C 0.8591 0.61574 0.52429 0.0
C31 C 0.83339 0.63341 0.42247 0.0
O32 O 0.8977 0.68469 0.4977 0.0
O33 O 0.90121 0.66274 0.45231 0.0
O34 O 0.82554 0.62277 0.44954 0.0
O35 O 0.85038 0.65823 0.42322 0.0
C36 C 0.80977 0.70606 0.4871 0.0
O37 O 0.86599 0.61023 0.49557 0.0
O38 O 0.84933 0.64366 0.52952 0.0
In39 In 0.29627 0.87404 0.51268 0.0
O40 O 0.34383 0.85788 0.53323 0.0
O41 O 0.31062 0.87922 0.56505 0.0
C42 C 0.33261 0.87019 0.4595 0.0
C43 C 0.24788 0.8315 0.5167 0.0
C44 C 0.27324 0.93397 0.51275 0.0
O45 O 0.33007 0.89507 0.47602 0.0
O46 O 0.31698 0.84666 0.46995 0.0
O47 O 0.27033 0.91551 0.48924 0.0
O48 O 0.28664 0.92164 0.53679 0.0
C49 C 0.33789 0.86682 0.56135 0.0
O50 O 0.24617 0.85636 0.49998 0.0
O51 O 0.27386 0.82824 0.53145 0.0
In52 In 0.11612 0.68141 0.49095 0.0
O53 O 0.15295 0.65215 0.46412 0.0
O54 O 0.12289 0.68275 0.43704 0.0
C55 C 0.11321 0.63576 0.53637 0.0
C56 C 0.15338 0.7315 0.5059 0.0
C57 C 0.05284 0.68878 0.4812 0.0
O58 O 0.11697 0.62971 0.50717 0.0
O59 O 0.11079 0.66502 0.54275 0.0
O60 O 0.06737 0.70329 0.50323 0.0
O61 O 0.0703 0.67112 0.46437 0.0
C62 C 0.14474 0.66201 0.43683 0.0
O63 O 0.12872 0.73435 0.48876 0.0
O64 O 0.15876 0.70362 0.51558 0.0
In65 In 0.30993 0.12474 0.47985 0.0
O66 O 0.33207 0.14722 0.43529 0.0
O67 O 0.33204 0.09688 0.43887 0.0
C68 C 0.35553 0.1327 0.52477 0.0
C69 C 0.26628 0.17196 0.47931 0.0
C70 C 0.28238 0.0687 0.49414 0.0
O71 O 0.36156 0.12339 0.49687 0.0
O72 O 0.32639 0.13824 0.53006 0.0
O73 O 0.27929 0.08178 0.46709 0.0
O74 O 0.29862 0.08444 0.514 0.0
C75 C 0.34017 0.12107 0.42297 0.0
O76 O 0.25843 0.143 0.47993 0.0
O77 O 0.29593 0.17691 0.4786 0.0
In78 In 0.86967 0.30462 0.48788 0.0
O79 O 0.85332 0.34965 0.4628 0.0
O80 O 0.883 0.31807 0.4366 0.0
C81 C 0.84529 0.32868 0.54237 0.0
C82 C 0.83455 0.25151 0.47778 0.0
C83 C 0.93341 0.3044 0.49705 0.0
O84 O 0.83541 0.33671 0.51507 0.0
O85 O 0.86658 0.3074 0.54218 0.0
O86 O 0.91942 0.28217 0.4823 0.0
O87 O 0.91525 0.32634 0.50656 0.0
C88 C 0.86772 0.34402 0.43698 0.0
O89 O 0.85736 0.25225 0.49743 0.0
O90 O 0.83001 0.27726 0.46308 0.0
In91 In 0.67272 0.85341 0.5126 0.0
O92 O 0.72443 0.83565 0.50828 0.0
O93 O 0.68725 0.80153 0.50976 0.0
C94 C 0.69429 0.91404 0.51119 0.0
C95 C 0.62966 0.85563 0.46475 0.0
C96 C 0.64131 0.84028 0.5672 0.0
O97 O 0.69327 0.89673 0.48664 0.0
O98 O 0.68548 0.90032 0.53649 0.0
O99 O 0.6314 0.83184 0.54008 0.0
O100 O 0.66769 0.85489 0.56694 0.0
C101 C 0.71677 0.80662 0.50764 0.0
O102 O 0.62498 0.86841 0.49155 0.0
O103 O 0.65636 0.84192 0.46194 0.0
In104 In 0.49919 0.1077 0.30115 0.0
O105 O 0.49854 0.12253 0.24879 0.0
O106 O 0.5067 0.15848 0.28319 0.0
C107 C 0.50403 0.04864 0.27707 0.0
C108 C 0.5443 0.1102 0.34747 0.0
C109 C 0.44173 0.11278 0.33026 0.0
O110 O 0.47908 0.06534 0.27434 0.0
O111 O 0.52711 0.06248 0.29068 0.0
O112 O 0.45459 0.08653 0.32358 0.0
O113 O 0.45777 0.13686 0.32192 0.0
C114 C 0.50362 0.15158 0.2541 0.0
O115 O 0.51505 0.1058 0.35305 0.0
O116 O 0.55093 0.11389 0.31831 0.0
In117 In 0.87321 0.49046 0.29691 0.0
O118 O 0.85898 0.50633 0.24665 0.0
O119 O 0.84159 0.46198 0.26312 0.0
C120 C 0.93688 0.50036 0.29802 0.0
C121 C 0.84521 0.54212 0.32292 0.0
C122 C 0.86921 0.44033 0.33716 0.0
O123 O 0.92335 0.48626 0.27508 0.0
O124 O 0.91831 0.50903 0.31996 0.0
O125 O 0.85332 0.4656 0.34065 0.0
O126 O 0.88696 0.44 0.3128 0.0
C127 C 0.84207 0.48221 0.24092 0.0
O128 O 0.83421 0.51433 0.32616 0.0
O129 O 0.86958 0.54394 0.30527 0.0
In130 In 0.48225 0.86024 0.32482 0.0
O131 O 0.47378 0.84056 0.2751 0.0
O132 O 0.48836 0.80809 0.3111 0.0
C133 C 0.49357 0.91438 0.29221 0.0
C134 C 0.42759 0.86272 0.35921 0.0
C135 C 0.53009 0.85736 0.368 0.0
O136 O 0.46646 0.90122 0.29289 0.0
O137 O 0.51509 0.89972 0.30742 0.0
O138 O 0.50293 0.86874 0.37426 0.0
O139 O 0.53312 0.84721 0.33986 0.0
C140 C 0.48138 0.81238 0.28213 0.0
O141 O 0.44037 0.83666 0.35133 0.0
O142 O 0.44193 0.88703 0.34896 0.0
In143 In 0.13828 0.51146 0.31981 0.0
O144 O 0.14395 0.49509 0.37102 0.0
O145 O 0.13354 0.45975 0.33646 0.0
C146 C 0.15728 0.56927 0.34023 0.0
C147 C 0.17931 0.49917 0.272 0.0
C148 C 0.07467 0.51214 0.30956 0.0
O149 O 0.17067 0.54371 0.34871 0.0
O150 O 0.13532 0.56574 0.31987 0.0
O151 O 0.0937 0.49758 0.2913 0.0
O152 O 0.08791 0.52636 0.33247 0.0
C153 C 0.13888 0.46609 0.3654 0.0
O154 O 0.15378 0.51461 0.2677 0.0
O155 O 0.1839 0.49004 0.30026 0.0
In156 In 0.49227 0.87036 0.69202 0.0
O157 O 0.5069 0.8608 0.74394 0.0
O158 O 0.4703 0.83241 0.72385 0.0
C159 C 0.4976 0.93415 0.68696 0.0
C160 C 0.54624 0.84735 0.6654 0.0
C161 C 0.43925 0.86382 0.65604 0.0
O162 O 0.48676 0.92111 0.71194 0.0
O163 O 0.50546 0.91499 0.66529 0.0
O164 O 0.46541 0.85031 0.64964 0.0
O165 O 0.43951 0.88018 0.68132 0.0
C166 C 0.48757 0.83811 0.74777 0.0
O167 O 0.51898 0.83571 0.66 0.0
O168 O 0.54639 0.86962 0.68554 0.0
In169 In 0.12137 0.49514 0.68292 0.0
O170 O 0.13457 0.49526 0.73587 0.0
O171 O 0.16811 0.51409 0.70306 0.0
C172 C 0.0586 0.48824 0.69625 0.0
C173 C 0.11616 0.53927 0.63615 0.0
C174 C 0.14725 0.44107 0.65999 0.0
O175 O 0.07398 0.513 0.70375 0.0
O176 O 0.07511 0.46706 0.68283 0.0
O177 O 0.15589 0.46841 0.6509 0.0
O178 O 0.12608 0.44104 0.68145 0.0
C179 C 0.16167 0.50768 0.73168 0.0
O180 O 0.11508 0.50975 0.63101 0.0
O181 O 0.11967 0.54668 0.66511 0.0
In182 In 0.50618 0.13509 0.66045 0.0
O183 O 0.51721 0.15277 0.7108 0.0
O184 O 0.48189 0.17723 0.68386 0.0
C185 C 0.50563 0.07149 0.67042 0.0
C186 C 0.45712 0.13785 0.61895 0.0
C187 C 0.56264 0.15366 0.6354 0.0
O188 O 0.49637 0.0909 0.69142 0.0
O189 O 0.51522 0.08431 0.645 0.0
O190 O 0.56036 0.13172 0.6559 0.0
O191 O 0.53656 0.1673 0.62889 0.0
C192 C 0.49691 0.17497 0.70982 0.0
O193 O 0.48586 0.14142 0.61061 0.0
O194 O 0.45306 0.13298 0.6484 0.0
In195 In 0.85943 0.47551 0.67107 0.0
O196 O 0.8425 0.47121 0.723 0.0
O197 O 0.81036 0.48998 0.68872 0.0
C198 C 0.92077 0.47761 0.69101 0.0
C199 C 0.84074 0.4215 0.64161 0.0
C200 C 0.8636 0.52051 0.62516 0.0
O201 O 0.90196 0.50094 0.69395 0.0
O202 O 0.90824 0.4531 0.67898 0.0
O203 O 0.87217 0.49204 0.62101 0.0
O204 O 0.85337 0.5265 0.65284 0.0
C205 C 0.81511 0.48245 0.71739 0.0
O206 O 0.82934 0.44852 0.63507 0.0
O207 O 0.861 0.42151 0.66397 0.0
In208 In 0.31296 0.48376 0.1216 0.0
O209 O 0.26184 0.48309 0.14024 0.0
O210 O 0.29979 0.48142 0.17395 0.0
C211 C 0.28373 0.49805 0.06626 0.0
C212 C 0.35838 0.52839 0.1315 0.0
C213 C 0.34409 0.42758 0.11681 0.0
O214 O 0.29857 0.51845 0.08262 0.0
O215 O 0.28265 0.47057 0.07855 0.0
O216 O 0.34116 0.44687 0.09392 0.0
O217 O 0.33021 0.43609 0.14211 0.0
C218 C 0.27004 0.48207 0.1692 0.0
O219 O 0.32966 0.53246 0.13964 0.0
O220 O 0.36399 0.50194 0.11859 0.0
In221 In 0.30745 0.50783 0.87225 0.0
O222 O 0.33112 0.47147 0.83903 0.0
O223 O 0.32736 0.46 0.88816 0.0
C224 C 0.35503 0.55144 0.87466 0.0
C225 C 0.25938 0.5142 0.82956 0.0
C226 C 0.2819 0.51085 0.93102 0.0
O227 O 0.35919 0.52225 0.8803 0.0
O228 O 0.32664 0.55882 0.86746 0.0
O229 O 0.29385 0.53485 0.9173 0.0
O230 O 0.28212 0.4857 0.9146 0.0
C231 C 0.33692 0.45162 0.86095 0.0
O232 O 0.25523 0.50431 0.8576 0.0
O233 O 0.28794 0.52116 0.82296 0.0
In234 In 0.48082 0.31229 0.857 0.0
O235 O 0.50272 0.26793 0.83451 0.0
O236 O 0.45963 0.28554 0.81473 0.0
C237 C 0.48812 0.28747 0.91603 0.0
C238 C 0.52628 0.35708 0.84834 0.0
C239 C 0.42723 0.34765 0.85232 0.0
O240 O 0.46315 0.28298 0.89971 0.0
O241 O 0.50925 0.30381 0.90224 0.0
O242 O 0.44779 0.34622 0.83031 0.0
O243 O 0.43329 0.33036 0.87631 0.0
C244 C 0.4815 0.26499 0.81341 0.0
O245 O 0.50192 0.36126 0.86545 0.0
O246 O 0.52786 0.33013 0.83521 0.0
In247 In 0.66409 0.50516 0.85074 0.0
O248 O 0.63329 0.54041 0.82346 0.0
O249 O 0.66623 0.55917 0.85701 0.0
C250 C 0.62195 0.45682 0.84413 0.0
C251 C 0.71357 0.49868 0.81024 0.0
C252 C 0.6712 0.50257 0.91475 0.0
O253 O 0.6138 0.48552 0.84677 0.0
O254 O 0.65174 0.45221 0.84444 0.0
O255 O 0.69164 0.49081 0.896 0.0
O256 O 0.64775 0.51555 0.90107 0.0
C257 C 0.64393 0.56476 0.83744 0.0
O258 O 0.71747 0.50164 0.83994 0.0
O259 O 0.68484 0.49933 0.80115 0.0
In260 In 0.50253 0.69115 0.88452 0.0
O261 O 0.51315 0.7432 0.87124 0.0
O262 O 0.47891 0.71799 0.84395 0.0
C263 C 0.50681 0.69991 0.94828 0.0
C264 C 0.456 0.64643 0.8841 0.0
C265 C 0.55465 0.66544 0.8567 0.0
O266 O 0.48419 0.71137 0.93196 0.0
O267 O 0.52733 0.68494 0.93228 0.0
O268 O 0.52662 0.66081 0.84657 0.0
O269 O 0.55643 0.68415 0.88014 0.0
C270 C 0.49381 0.74365 0.84814 0.0
O271 O 0.4853 0.63974 0.8864 0.0
O272 O 0.45007 0.67586 0.88247 0.0
In273 In 0.68508 0.48559 0.11687 0.0
O274 O 0.73492 0.50387 0.12953 0.0
O275 O 0.72158 0.45842 0.14681 0.0
C276 C 0.68189 0.49202 0.05281 0.0
C277 C 0.64589 0.43528 0.12569 0.0
C278 C 0.65868 0.53782 0.14349 0.0
O279 O 0.70634 0.4808 0.06655 0.0
O280 O 0.65956 0.49965 0.0714 0.0
O281 O 0.65756 0.51064 0.15632 0.0
O282 O 0.67437 0.53887 0.11779 0.0
C283 C 0.74263 0.47982 0.1458 0.0
O284 O 0.64281 0.46128 0.14029 0.0
O285 O 0.66942 0.43426 0.10684 0.0
In286 In 0.50799 0.66452 0.14651 0.0
O287 O 0.5011 0.71669 0.15932 0.0
O288 O 0.50495 0.68366 0.19737 0.0
C289 C 0.50901 0.68554 0.08562 0.0
C290 C 0.56226 0.63301 0.16135 0.0
C291 C 0.45955 0.62223 0.14377 0.0
O292 O 0.48391 0.68542 0.10228 0.0
O293 O 0.53362 0.67554 0.09991 0.0
O294 O 0.48554 0.61851 0.12905 0.0
O295 O 0.45795 0.6474 0.16006 0.0
C296 C 0.50072 0.71218 0.18901 0.0
O297 O 0.53495 0.62369 0.17002 0.0
O298 O 0.56231 0.65904 0.14621 0.0
In299 In 0.49842 0.29778 0.11331 0.0
O300 O 0.46685 0.33725 0.09412 0.0
O301 O 0.44892 0.31043 0.13321 0.0
C302 C 0.54785 0.33765 0.12454 0.0
C303 C 0.50223 0.25004 0.15657 0.0
C304 C 0.4982 0.27734 0.05249 0.0
O305 O 0.51963 0.34341 0.13333 0.0
O306 O 0.55134 0.31138 0.1104 0.0
O307 O 0.47413 0.27479 0.07047 0.0
O308 O 0.52269 0.28886 0.06577 0.0
C309 C 0.44431 0.33281 0.11355 0.0
O310 O 0.49968 0.24507 0.12705 0.0
O311 O 0.50284 0.27902 0.16415 0.0
C312 C 0.13119 0.40984 0.3834 0.0
C313 C 0.13883 0.44159 0.3908 0.0
C314 C 0.13052 0.38628 0.40712 0.0
C315 C 0.13748 0.39363 0.43911 0.0
H316 H 0.12552 0.40308 0.3591 0.0
H317 H 0.1244 0.36217 0.4003 0.0
S318 S 0.15963 0.47313 0.47093 0.0
N319 N 0.15399 0.47909 0.43239 0.0
N320 N 0.15274 0.43489 0.47692 0.0
C321 C 0.14536 0.42527 0.44683 0.0
C322 C 0.14604 0.44924 0.42269 0.0
C323 C 0.62516 0.11277 0.38876 0.0
C324 C 0.61734 0.10858 0.42116 0.0
C325 C 0.6014 0.11344 0.36513 0.0
C326 C 0.56889 0.10994 0.37297 0.0
H327 H 0.64985 0.11573 0.38154 0.0
H328 H 0.60863 0.1167 0.34052 0.0
S329 S 0.53567 0.09822 0.45436 0.0
N330 N 0.57466 0.10079 0.45985 0.0
N331 N 0.5301 0.10203 0.41554 0.0
C332 C 0.56072 0.10565 0.40528 0.0
C333 C 0.58491 0.10496 0.42934 0.0
C334 C 0.84892 0.62032 0.36668 0.0
C335 C 0.82888 0.61463 0.39302 0.0
C336 C 0.85189 0.59782 0.34223 0.0
C337 C 0.8348 0.56898 0.34322 0.0
H338 H 0.86437 0.64101 0.36612 0.0
H339 H 0.86947 0.6021 0.32372 0.0
S340 S 0.77337 0.54648 0.40304 0.0
N341 N 0.78748 0.58091 0.41578 0.0
N342 N 0.79281 0.53871 0.36967 0.0
C343 C 0.8119 0.56481 0.36746 0.0
C344 C 0.80903 0.58764 0.39245 0.0
C345 C 0.36476 0.83894 0.42011 0.0
C346 C 0.3538 0.86853 0.43132 0.0
C347 C 0.38771 0.83715 0.39575 0.0
C348 C 0.40028 0.86489 0.3816 0.0
H349 H 0.35653 0.81702 0.43105 0.0
H350 H 0.39641 0.81389 0.38874 0.0
S351 S 0.37614 0.94811 0.39965 0.0
N352 N 0.35495 0.92607 0.42449 0.0
N353 N 0.39772 0.92279 0.37865 0.0
C354 C 0.38809 0.89457 0.3914 0.0
C355 C 0.36495 0.89637 0.4163 0.0
C356 C 0.11371 0.59591 0.61773 0.0
C357 C 0.11424 0.56327 0.61026 0.0
C358 C 0.11287 0.61916 0.59369 0.0
C359 C 0.11271 0.61066 0.56123 0.0
H360 H 0.11415 0.60365 0.64239 0.0
H361 H 0.11278 0.64399 0.60065 0.0
S362 S 0.11296 0.52838 0.52888 0.0
N363 N 0.11379 0.52359 0.56798 0.0
N364 N 0.11236 0.56724 0.52284 0.0
C365 C 0.11282 0.57809 0.55339 0.0
C366 C 0.11354 0.5544 0.57788 0.0
C367 C 0.41299 0.13395 0.54023 0.0
C368 C 0.38069 0.13571 0.54934 0.0
C369 C 0.43749 0.13532 0.56292 0.0
C370 C 0.43063 0.13811 0.59564 0.0
H371 H 0.41949 0.1313 0.51536 0.0
H372 H 0.46199 0.13354 0.55474 0.0
S373 S 0.35001 0.14472 0.63191 0.0
N374 N 0.34311 0.1414 0.59326 0.0
N375 N 0.38926 0.14359 0.63602 0.0
C376 C 0.39846 0.14035 0.6051 0.0
C377 C 0.37346 0.13928 0.58191 0.0
C378 C 0.85623 0.36733 0.62276 0.0
C379 C 0.8354 0.39357 0.62082 0.0
C380 C 0.85728 0.34451 0.59843 0.0
C381 C 0.83754 0.34721 0.57133 0.0
H382 H 0.87349 0.36557 0.64199 0.0
H383 H 0.87533 0.32605 0.59982 0.0
S384 S 0.77374 0.40732 0.55852 0.0
N385 N 0.79078 0.41785 0.59245 0.0
N386 N 0.79282 0.375 0.5467 0.0
C387 C 0.81427 0.37136 0.57083 0.0
C388 C 0.81318 0.39457 0.59561 0.0
C389 C 0.57003 0.82004 0.61844 0.0
C390 C 0.57417 0.8399 0.6451 0.0
C391 C 0.59306 0.81862 0.59431 0.0
C392 C 0.62122 0.83683 0.59603 0.0
H393 H 0.54792 0.80702 0.61506 0.0
H394 H 0.58792 0.80443 0.57337 0.0
S395 S 0.6462 0.88809 0.66362 0.0
N396 N 0.61051 0.87481 0.67393 0.0
N397 N 0.65397 0.87198 0.62856 0.0
C398 C 0.62707 0.85443 0.62395 0.0
C399 C 0.60348 0.856 0.64852 0.0
C400 C 0.37752 0.14656 0.38413 0.0
C401 C 0.36164 0.11906 0.39501 0.0
C402 C 0.40236 0.14454 0.36179 0.0
C403 C 0.41214 0.11497 0.34948 0.0
H404 H 0.37191 0.16966 0.39413 0.0
H405 H 0.41492 0.16617 0.3553 0.0
S406 S 0.37471 0.0365 0.36633 0.0
N407 N 0.35488 0.06184 0.38897 0.0
N408 N 0.40141 0.05803 0.3469 0.0
C409 C 0.39486 0.08758 0.35839 0.0
C410 C 0.36964 0.08964 0.38118 0.0
C411 C 0.84896 0.39482 0.41254 0.0
C412 C 0.86735 0.36689 0.41003 0.0
C413 C 0.84925 0.41795 0.38848 0.0
C414 C 0.86802 0.41419 0.36091 0.0
H415 H 0.83445 0.39917 0.43349 0.0
H416 H 0.83501 0.43923 0.39188 0.0
S417 S 0.9195 0.34474 0.34196 0.0
N418 N 0.90407 0.33619 0.37722 0.0
N419 N 0.90471 0.37984 0.33191 0.0
C420 C 0.88602 0.38606 0.35767 0.0
C421 C 0.88566 0.36237 0.38224 0.0
C422 C 0.55101 0.86971 0.42224 0.0
C423 C 0.55619 0.85662 0.39182 0.0
C424 C 0.57505 0.86949 0.44545 0.0
C425 C 0.60523 0.8561 0.43923 0.0
H426 H 0.52816 0.88023 0.4283 0.0
H427 H 0.56978 0.87975 0.46856 0.0
S428 S 0.63123 0.81915 0.36315 0.0
N429 N 0.59392 0.83021 0.35649 0.0
N430 N 0.63917 0.82971 0.40025 0.0
C431 C 0.61086 0.84306 0.40885 0.0
C432 C 0.58633 0.84334 0.38511 0.0
C433 C 0.17831 0.62149 0.40961 0.0
C434 C 0.15498 0.64551 0.40744 0.0
C435 C 0.1816 0.59869 0.38555 0.0
C436 C 0.1615 0.59901 0.35861 0.0
H437 H 0.1924 0.61868 0.43115 0.0
H438 H 0.19804 0.57913 0.38955 0.0
S439 S 0.10243 0.66169 0.33784 0.0
N440 N 0.11595 0.67201 0.37337 0.0
N441 N 0.12199 0.62893 0.32818 0.0
C442 C 0.14107 0.62528 0.35421 0.0
C443 C 0.13782 0.64864 0.37869 0.0
C444 C 0.39084 0.84828 0.58135 0.0
C445 C 0.36185 0.86418 0.58725 0.0
C446 C 0.41517 0.84739 0.60426 0.0
C447 C 0.41162 0.8625 0.63397 0.0
H448 H 0.39511 0.83689 0.55859 0.0
H449 H 0.4373 0.83543 0.59817 0.0
S450 S 0.33949 0.90553 0.66221 0.0
N451 N 0.33021 0.89395 0.62573 0.0
N452 N 0.37615 0.89242 0.6688 0.0
C453 C 0.38235 0.87759 0.64069 0.0
C454 C 0.35742 0.87837 0.61733 0.0
C455 C 0.13624 0.3851 0.64375 0.0
C456 C 0.15626 0.41199 0.64238 0.0
C457 C 0.13836 0.36107 0.6207 0.0
C458 C 0.16064 0.36313 0.59564 0.0
H459 H 0.117 0.38386 0.66101 0.0
H460 H 0.12065 0.34225 0.62104 0.0
S461 S 0.22403 0.42434 0.58673 0.0
N462 N 0.20305 0.43612 0.61791 0.0
N463 N 0.20728 0.39083 0.57473 0.0
C464 C 0.18343 0.38776 0.59653 0.0
C465 C 0.18114 0.4123 0.61988 0.0
C466 C 0.61819 0.13788 0.62092 0.0
C467 C 0.59181 0.15808 0.61591 0.0
C468 C 0.64231 0.135 0.59794 0.0
C469 C 0.64082 0.15215 0.56909 0.0
H470 H 0.61915 0.12242 0.64164 0.0
H471 H 0.66089 0.11743 0.60186 0.0
S472 S 0.58074 0.21367 0.54775 0.0
N473 N 0.56861 0.19965 0.58254 0.0
N474 N 0.61389 0.19409 0.53926 0.0
C475 C 0.6165 0.175 0.56539 0.0
C476 C 0.59199 0.17803 0.58886 0.0
C477 C 0.85472 0.57611 0.60564 0.0
C478 C 0.86413 0.54458 0.5993 0.0
C479 C 0.85353 0.59903 0.5813 0.0
C480 C 0.86166 0.59129 0.54968 0.0
H481 H 0.84791 0.58314 0.62954 0.0
H482 H 0.84588 0.62292 0.58732 0.0
S483 S 0.88844 0.51217 0.52056 0.0
N484 N 0.88223 0.50689 0.5591 0.0
N485 N 0.87996 0.54991 0.51341 0.0
C486 C 0.87153 0.55994 0.54307 0.0
C487 C 0.87278 0.53661 0.56786 0.0
C488 C 0.38562 0.3964 0.08817 0.0
C489 C 0.36588 0.39988 0.11509 0.0
C490 C 0.41014 0.3738 0.08758 0.0
C491 C 0.41573 0.35352 0.11374 0.0
H492 H 0.38308 0.41217 0.06781 0.0
H493 H 0.42539 0.37284 0.06671 0.0
S494 S 0.36849 0.35042 0.18858 0.0
N495 N 0.35184 0.37938 0.1676 0.0
N496 N 0.39788 0.33648 0.16631 0.0
C497 C 0.39499 0.35535 0.14007 0.0
C498 C 0.37008 0.37865 0.1408 0.0
C499 C 0.39874 0.63072 0.87679 0.0
C500 C 0.43072 0.62177 0.88234 0.0
C501 C 0.37447 0.60783 0.87414 0.0
C502 C 0.38119 0.57512 0.87708 0.0
H503 H 0.39238 0.65559 0.87426 0.0
H504 H 0.35022 0.61591 0.86986 0.0
S505 S 0.46102 0.53912 0.89184 0.0
N506 N 0.46778 0.57783 0.89076 0.0
N507 N 0.42224 0.53492 0.88591 0.0
C508 C 0.41306 0.56583 0.88276 0.0
C509 C 0.43777 0.58913 0.88535 0.0
C510 C 0.38336 0.37659 0.8802 0.0
C511 C 0.40057 0.37087 0.85198 0.0
C512 C 0.36168 0.4019 0.88232 0.0
C513 C 0.3562 0.4224 0.85625 0.0
H514 H 0.38769 0.36234 0.90136 0.0
H515 H 0.35002 0.40609 0.905 0.0
S516 S 0.39195 0.41502 0.77557 0.0
N517 N 0.40834 0.38581 0.79637 0.0
N518 N 0.36741 0.43335 0.80033 0.0
C519 C 0.37166 0.4157 0.82723 0.0
C520 C 0.39389 0.38995 0.82511 0.0
C521 C 0.56617 0.43767 0.85095 0.0
C522 C 0.5981 0.43091 0.8429 0.0
C523 C 0.54314 0.41362 0.85213 0.0
C524 C 0.55097 0.38192 0.84484 0.0
H525 H 0.55896 0.46166 0.85715 0.0
H526 H 0.51899 0.41995 0.85903 0.0
S527 S 0.63078 0.3518 0.82086 0.0
N528 N 0.63624 0.39033 0.82661 0.0
N529 N 0.5926 0.34503 0.82829 0.0
C530 C 0.58256 0.37486 0.83583 0.0
C531 C 0.60622 0.39939 0.83504 0.0
C532 C 0.59896 0.59806 0.81733 0.0
C533 C 0.62677 0.59558 0.8361 0.0
C534 C 0.57694 0.62267 0.82218 0.0
C535 C 0.58194 0.64575 0.84592 0.0
H536 H 0.59289 0.57959 0.80038 0.0
H537 H 0.55479 0.62221 0.80874 0.0
S538 S 0.65449 0.65408 0.89633 0.0
N539 N 0.66078 0.62136 0.87547 0.0
N540 N 0.61938 0.66776 0.88453 0.0
C541 C 0.61137 0.64567 0.86227 0.0
C542 C 0.63382 0.62051 0.85734 0.0
C543 C 0.63998 0.594 0.13791 0.0
C544 C 0.63866 0.56478 0.15435 0.0
C545 C 0.61651 0.61738 0.14245 0.0
C546 C 0.59073 0.6122 0.16336 0.0
H547 H 0.65818 0.59817 0.12 0.0
H548 H 0.6174 0.63862 0.12775 0.0
S549 S 0.57953 0.54228 0.21648 0.0
N550 N 0.61207 0.53395 0.19585 0.0
N551 N 0.56776 0.57774 0.20403 0.0
C552 C 0.59075 0.58437 0.18208 0.0
C553 C 0.6148 0.56067 0.17768 0.0
C554 C 0.41392 0.5475 0.12236 0.0
C555 C 0.38355 0.55271 0.13574 0.0
C556 C 0.43824 0.57013 0.12522 0.0
C557 C 0.43326 0.59882 0.14172 0.0
H558 H 0.41898 0.52586 0.10929 0.0
H559 H 0.46116 0.56501 0.11432 0.0
S560 S 0.35817 0.62383 0.18166 0.0
N561 N 0.34981 0.58856 0.16642 0.0
N562 N 0.39572 0.63115 0.17198 0.0
C563 C 0.40308 0.60429 0.1555 0.0
C564 C 0.37818 0.58123 0.15244 0.0
C565 C 0.62603 0.38117 0.11054 0.0
C566 C 0.62232 0.40912 0.1286 0.0
C567 C 0.60238 0.3575 0.11038 0.0
C568 C 0.57405 0.36104 0.12812 0.0
H569 H 0.64697 0.37786 0.09569 0.0
H570 H 0.60586 0.33684 0.09536 0.0
S571 S 0.55398 0.42837 0.18178 0.0
N572 N 0.5891 0.43788 0.16659 0.0
N573 N 0.54466 0.39357 0.16606 0.0
C574 C 0.57064 0.38824 0.14734 0.0
C575 C 0.59477 0.41224 0.14766 0.0
C576 C 0.02201 0.2866 0.48879 0.0
C577 C 0.03617 0.30959 0.50869 0.0
C578 C 0.98867 0.28451 0.48566 0.0
C579 C 0.96836 0.30541 0.50224 0.0
H580 H 0.03676 0.27051 0.47498 0.0
H581 H 0.97882 0.26689 0.46957 0.0
S582 S 0.99335 0.36808 0.55952 0.0
N583 N 0.02716 0.35237 0.54678 0.0
N584 N 0.96473 0.34851 0.54085 0.0
C585 C 0.9822 0.32782 0.52301 0.0
C586 C 0.01604 0.32989 0.52626 0.0
C587 C 0.7088 -0.0035 0.47714 0.0
C588 C 0.70477 0.01627 0.50388 0.0
C589 C 0.70704 0.96325 0.47998 0.0
C590 C 0.70133 0.94858 0.50968 0.0
H591 H 0.71186 0.00676 0.45358 0.0
H592 H 0.70886 0.94907 0.4585 0.0
S593 S 0.69355 0.98962 0.5877 0.0
N594 N 0.69807 0.0187 0.56151 0.0
N595 N 0.6949 0.95633 0.56687 0.0
C596 C 0.69936 0.96802 0.53691 0.0
C597 C 0.70103 0.00185 0.534 0.0
C598 C 0.96483 0.69902 0.49975 0.0
C599 C 0.94992 0.68445 0.47345 0.0
C600 C -0.0018 0.70179 0.50144 0.0
C601 C 0.01779 0.68991 0.47695 0.0
H602 H 0.95075 0.7074 0.51973 0.0
H603 H 0.0087 0.7121 0.52267 0.0
S604 S 0.99047 0.653 0.40123 0.0
N605 N 0.95725 0.66055 0.42105 0.0
N606 N 0.01982 0.66561 0.42431 0.0
C607 C 0.00312 0.67682 0.44975 0.0
C608 C 0.9692 0.67413 0.44797 0.0
C609 C 0.2802 0.02162 0.53027 0.0
C610 C 0.27225 0.03561 0.50076 0.0
C611 C 0.27778 0.98871 0.53493 0.0
C612 C 0.26736 0.9686 0.51024 0.0
H613 H 0.29025 0.03585 0.54932 0.0
H614 H 0.28618 0.97884 0.55734 0.0
S615 S 0.2374 -0.00584 0.43079 0.0
N616 N 0.24884 0.0275 0.44822 0.0
N617 N 0.24426 0.96553 0.45699 0.0
C618 C 0.25628 0.98262 0.48176 0.0
C619 C 0.25875 0.0162 0.47701 0.0
C620 C 0.52748 0.96266 0.28596 0.0
C621 C 0.49855 0.94686 0.27954 0.0
C622 C 0.53017 -0.00436 0.28199 0.0
C623 C 0.504 0.01392 0.27146 0.0
H624 H 0.5475 0.94993 0.29635 0.0
H625 H 0.5521 0.00706 0.28957 0.0
S626 S 0.42569 0.98279 0.24391 0.0
N627 N 0.44525 0.951 0.25656 0.0
N628 N 0.4503 0.01309 0.24903 0.0
C629 C 0.47626 -0.0021 0.26135 0.0
C630 C 0.47351 0.96429 0.26544 0.0
C631 C 0.99242 0.48958 0.27869 0.0
C632 C 0.97181 0.50545 0.29985 0.0
C633 C 0.02571 0.49243 0.2815 0.0
C634 C 0.03955 0.51135 0.30551 0.0
H635 H 0.98283 0.47424 0.26027 0.0
H636 H 0.04067 0.4792 0.26513 0.0
S637 S -0.00409 0.56008 0.36522 0.0
N638 N 0.96756 0.54235 0.3444 0.0
N639 N 0.02995 0.54778 0.34962 0.0
C640 C 0.01914 0.52823 0.32613 0.0
C641 C 0.98532 0.52525 0.32333 0.0
C642 C 0.49062 0.98994 0.70704 0.0
C643 C 0.50058 0.96905 0.68281 0.0
C644 C 0.49262 0.02309 0.70305 0.0
C645 C 0.50465 0.03649 0.67468 0.0
H646 H 0.48098 0.98067 0.72919 0.0
H647 H 0.48443 0.03827 0.72224 0.0
S648 S 0.53463 0.99211 0.60417 0.0
N649 N 0.52348 0.96422 0.62961 0.0
N650 N 0.52721 0.02622 0.62216 0.0
C651 C 0.51503 0.01583 0.65042 0.0
C652 C 0.513 0.98219 0.65446 0.0
C653 C 0.97534 0.45392 0.6892 0.0
C654 C 0.95552 0.47969 0.69744 0.0
C655 C 0.00865 0.45655 0.69036 0.0
C656 C 0.02354 0.48502 0.69989 0.0
H657 H 0.96513 0.43186 0.68054 0.0
H658 H 0.02279 0.43637 0.68262 0.0
S659 S 0.9825 0.5583 0.72758 0.0
N660 N 0.95316 0.53372 0.71821 0.0
N661 N 0.01594 0.53863 0.72047 0.0
C662 C 0.00407 0.51038 0.71003 0.0
C663 C 0.97002 0.50772 0.70878 0.0
C664 C 0.26575 0.48141 0.97998 0.0
C665 C 0.27359 0.51053 0.96526 0.0
C666 C 0.26604 0.47827 0.01321 0.0
C667 C 0.27422 0.50412 0.03284 0.0
H668 H 0.26159 0.46028 0.9658 0.0
H669 H 0.2622 0.45481 0.02336 0.0
S670 S 0.28884 0.58725 0.0063 0.0
N671 N 0.28393 0.56704 0.9729 0.0
N672 N 0.28447 0.56113 0.03549 0.0
C673 C 0.27839 0.53421 0.01858 0.0
C674 C 0.27809 0.53741 0.98469 0.0
C675 C 0.52064 0.28317 0.96557 0.0
C676 C 0.49136 0.278 0.9499 0.0
C677 C 0.5232 0.28045 -0.00127 0.0
C678 C 0.49652 0.27259 0.01755 0.0
H679 H 0.54149 0.29091 0.95232 0.0
H680 H 0.54587 0.28635 0.00976 0.0
S681 S 0.41562 0.25173 0.9877 0.0
N682 N 0.43607 0.26083 0.95525 0.0
N683 N 0.44082 0.25579 0.01777 0.0
C684 C 0.46774 0.26477 0.00199 0.0
C685 C 0.46516 0.26747 0.96809 0.0
C686 C 0.70053 0.48598 0.96427 0.0
C687 C 0.67398 0.50087 0.94995 0.0
C688 C 0.70314 0.48347 -0.00242 0.0
C689 C 0.67923 0.49567 0.01775 0.0
H690 H 0.71937 0.47599 0.94967 0.0
H691 H 0.72389 0.4716 0.00754 0.0
S692 S 0.60531 0.53776 0.99225 0.0
N693 N 0.62363 0.52867 0.95863 0.0
N694 N 0.62848 0.5239 0.02098 0.0
C695 C 0.65273 0.51094 0.00373 0.0
C696 C 0.65013 0.51356 0.9699 0.0
C697 C 0.53522 0.68891 -0.00063 0.0
C698 C 0.50809 0.70096 0.98355 0.0
C699 C 0.53579 0.68545 0.03257 0.0
C700 C 0.50915 0.69366 0.05126 0.0
H701 H 0.55591 0.68111 0.98595 0.0
H702 H 0.55686 0.67504 0.04348 0.0
S703 S 0.43349 0.72952 0.0219 0.0
N704 N 0.45489 0.72367 0.98933 0.0
N705 N 0.45587 0.71691 0.05187 0.0
C706 C 0.48246 0.70727 0.03597 0.0
C707 C 0.48196 0.71101 0.00208 0.0
C708 C 0.19035 0.21699 0.49846 0.0
C709 C 0.19843 0.24859 0.49079 0.0
C710 C 0.2121 0.19209 0.49363 0.0
C711 C 0.24282 0.19805 0.48141 0.0
H712 H 0.16713 0.21142 0.50847 0.0
H713 H 0.20509 0.16817 0.50036 0.0
S714 S 0.27524 0.27636 0.45611 0.0
N715 N 0.23886 0.2843 0.46909 0.0
N716 N 0.27982 0.23755 0.46047 0.0
C717 C 0.25099 0.22942 0.47304 0.0
C718 C 0.22876 0.25471 0.47761 0.0
C719 C 0.79216 0.174 0.49652 0.0
C720 C 0.76582 0.1748 0.47565 0.0
C721 C 0.81524 0.19819 0.49606 0.0
C722 C 0.81281 0.22394 0.47464 0.0
H723 H 0.79427 0.15533 0.51429 0.0
H724 H 0.83438 0.19732 0.51348 0.0
S725 S 0.75089 0.23458 0.41194 0.0
N726 N 0.74045 0.2016 0.43073 0.0
N727 N 0.78381 0.24696 0.42976 0.0
C728 C 0.78769 0.22391 0.45229 0.0
C729 C 0.76418 0.19935 0.45283 0.0
C730 C 0.79461 0.76349 0.491 0.0
C731 C 0.78576 0.73122 0.4929 0.0
C732 C 0.77227 0.78777 0.4963 0.0
C733 C 0.74023 0.78064 0.50354 0.0
H734 H 0.81899 0.77012 0.48532 0.0
H735 H 0.7801 0.81228 0.49434 0.0
S736 S 0.70498 0.69988 0.51198 0.0
N737 N 0.74284 0.6934 0.50307 0.0
N738 N 0.70087 0.73896 0.51293 0.0
C739 C 0.73112 0.74846 0.50578 0.0
C740 C 0.75387 0.72375 0.5005 0.0
C741 C 0.17242 0.78675 0.49492 0.0
C742 C 0.1757 0.75804 0.51195 0.0
C743 C 0.19538 0.81087 0.49744 0.0
C744 C 0.2224 0.80716 0.51713 0.0
H745 H 0.15254 0.79025 0.47868 0.0
H746 H 0.19236 0.83217 0.48311 0.0
S747 S 0.24025 0.73791 0.56946 0.0
N748 N 0.20666 0.72828 0.55118 0.0
N749 N 0.24979 0.77362 0.55594 0.0
C750 C 0.22515 0.77921 0.53549 0.0
C751 C 0.2018 0.75463 0.53289 0.0
C752 C 0.50658 0.2083 0.23666 0.0
C753 C 0.50461 0.17589 0.22855 0.0
C754 C 0.50612 0.23202 0.21315 0.0
C755 C 0.50374 0.22425 0.1806 0.0
H756 H 0.50807 0.21554 0.26142 0.0
H757 H 0.50734 0.25666 0.22066 0.0
S758 S 0.49936 0.14279 0.14661 0.0
N759 N 0.50118 0.13713 0.18557 0.0
N760 N 0.50038 0.18176 0.14134 0.0
C761 C 0.50234 0.1919 0.17206 0.0
C762 C 0.50276 0.1677 0.19604 0.0
C763 C 0.80039 0.45341 0.2099 0.0
C764 C 0.82113 0.47962 0.21262 0.0
C765 C 0.77625 0.45282 0.1868 0.0
C766 C 0.7719 0.47844 0.16556 0.0
H767 H 0.80177 0.43379 0.22671 0.0
H768 H 0.75992 0.43279 0.18669 0.0
S769 S 0.82308 0.55039 0.15939 0.0
N770 N 0.83823 0.5301 0.18963 0.0
N771 N 0.79274 0.52901 0.14615 0.0
C772 C 0.79399 0.50369 0.16639 0.0
C773 C 0.81865 0.50427 0.18994 0.0
C774 C 0.49832 0.73198 0.24503 0.0
C775 C 0.49497 0.738 0.21217 0.0
C776 C 0.49319 0.75603 0.26753 0.0
C777 C 0.48433 0.78695 0.25801 0.0
H778 H 0.50529 0.70859 0.2535 0.0
H779 H 0.49657 0.75039 0.29255 0.0
S780 S 0.471 0.81467 0.17482 0.0
N781 N 0.4813 0.7769 0.17121 0.0
N782 N 0.47149 0.82208 0.21348 0.0
C783 C 0.48026 0.79315 0.22524 0.0
C784 C 0.48567 0.76869 0.20232 0.0
C785 C 0.19359 0.4988 0.21425 0.0
C786 C 0.20231 0.49284 0.24612 0.0
C787 C 0.21537 0.49419 0.18935 0.0
C788 C 0.24676 0.48384 0.19551 0.0
H789 H 0.16983 0.50736 0.20847 0.0
H790 H 0.20779 0.49962 0.16522 0.0
S791 S 0.28109 0.46346 0.27466 0.0
N792 N 0.24411 0.47478 0.2824 0.0
N793 N 0.28514 0.46647 0.23559 0.0
C794 C 0.2556 0.47712 0.22718 0.0
C795 C 0.23334 0.48152 0.25251 0.0
C796 C 0.46653 0.76951 0.80219 0.0
C797 C 0.49032 0.7708 0.82588 0.0
C798 C 0.46494 0.79239 0.77799 0.0
C799 C 0.48711 0.81749 0.77643 0.0
H800 H 0.44953 0.75006 0.80166 0.0
H801 H 0.4468 0.78965 0.75971 0.0
S802 S 0.55211 0.83359 0.83458 0.0
N803 N 0.53503 0.80066 0.84784 0.0
N804 N 0.53209 0.84382 0.80213 0.0
C805 C 0.50996 0.82017 0.80096 0.0
C806 C 0.51155 0.79677 0.82575 0.0
C807 C 0.24037 0.52253 0.77373 0.0
C808 C 0.23331 0.51545 0.80576 0.0
C809 C 0.21673 0.52097 0.75013 0.0
C810 C 0.18514 0.51224 0.75765 0.0
H811 H 0.26454 0.52848 0.76661 0.0
H812 H 0.22356 0.52578 0.72566 0.0
S813 S 0.1535 0.4946 0.83848 0.0
N814 N 0.19188 0.50175 0.8442 0.0
N815 N 0.14747 0.49875 0.79975 0.0
C816 C 0.17742 0.50642 0.78978 0.0
C817 C 0.2015 0.50806 0.81386 0.0
C818 C 0.513 0.19754 0.76246 0.0
C819 C 0.4914 0.1969 0.73675 0.0
C820 C 0.50915 0.21917 0.78754 0.0
C821 C 0.48345 0.24079 0.78794 0.0
H822 H 0.53344 0.18169 0.76293 0.0
H823 H 0.5268 0.21925 0.80649 0.0
S824 S 0.41881 0.24703 0.72744 0.0
N825 N 0.44241 0.21855 0.714 0.0
N826 N 0.43508 0.25908 0.76123 0.0
C827 C 0.46108 0.2397 0.76288 0.0
C828 C 0.4651 0.21779 0.73725 0.0
C829 C 0.73448 0.4985 0.75474 0.0
C830 C 0.74026 0.49468 0.78756 0.0
C831 C 0.75894 0.49462 0.73241 0.0
C832 C 0.79013 0.48641 0.74197 0.0
H833 H 0.71084 0.50472 0.74613 0.0
H834 H 0.75322 0.49789 0.7074 0.0
S835 S 0.81774 0.47324 0.82514 0.0
N836 N 0.77945 0.48214 0.82868 0.0
N837 N 0.82553 0.47446 0.78652 0.0
C838 C 0.7963 0.48237 0.77472 0.0
C839 C 0.77135 0.48663 0.79758 0.0
loop_
_geom_bond_atom_site_label_1
_geom_bond_atom_site_label_2
_geom_bond_distance
_geom_bond_site_symmetry_2
_ccdc_geom_bond_type
In0 O1 2.294 . S
In0 O2 2.326 . S
In0 O6 2.266 . S
In0 O7 2.326 . S
In0 O8 2.266 . S
In0 O9 2.326 . S
In0 O11 2.294 . S
In0 O12 2.326 . S
O1 In0 2.294 . S
O1 C10 1.240 . S
O2 In0 2.326 . S
O2 C10 1.252 . S
C3 O6 1.252 . S
C3 O7 1.260 . S
C4 O11 1.240 . S
C4 O12 1.252 . S
C5 O8 1.252 . S
C5 O9 1.260 . S
O6 In0 2.266 . S
O6 C3 1.252 . S
O7 In0 2.326 . S
O7 C3 1.260 . S
O8 In0 2.266 . S
O8 C5 1.252 . S
O9 In0 2.326 . S
O9 C5 1.260 . S
C10 O1 1.240 . S
C10 O2 1.252 . S
O11 In0 2.294 . S
O11 C4 1.240 . S
O12 In0 2.326 . S
O12 C4 1.252 . S
In13 O14 2.294 . S
In13 O15 2.326 . S
In13 O19 2.266 . S
In13 O20 2.326 . S
In13 O21 2.266 . S
In13 O22 2.326 . S
In13 O24 2.294 . S
In13 O25 2.326 . S
O14 In13 2.294 . S
O14 C23 1.240 . S
O15 In13 2.326 . S
O15 C23 1.252 . S
C16 O19 1.252 . S
C16 O20 1.260 . S
C17 O24 1.240 . S
C17 O25 1.252 . S
C18 O21 1.252 . S
C18 O22 1.260 . S
O19 In13 2.266 . S
O19 C16 1.252 . S
O20 In13 2.326 . S
O20 C16 1.260 . S
O21 In13 2.266 . S
O21 C18 1.252 . S
O22 In13 2.326 . S
O22 C18 1.260 . S
C23 O14 1.240 . S
C23 O15 1.252 . S
O24 In13 2.294 . S
O24 C17 1.240 . S
O25 In13 2.326 . S
O25 C17 1.252 . S
In26 O27 2.294 . S
In26 O28 2.326 . S
In26 O32 2.266 . S
In26 O33 2.326 . S
In26 O34 2.266 . S
In26 O35 2.326 . S
In26 O37 2.294 . S
In26 O38 2.326 . S
O27 In26 2.294 . S
O27 C36 1.240 . S
O28 In26 2.326 . S
O28 C36 1.252 . S
C29 O32 1.252 . S
C29 O33 1.260 . S
C30 O37 1.240 . S
C30 O38 1.252 . S
C31 O34 1.252 . S
C31 O35 1.260 . S
O32 In26 2.266 . S
O32 C29 1.252 . S
O33 In26 2.326 . S
O33 C29 1.260 . S
O34 In26 2.266 . S
O34 C31 1.252 . S
O35 In26 2.326 . S
O35 C31 1.260 . S
C36 O27 1.240 . S
C36 O28 1.252 . S
O37 In26 2.294 . S
O37 C30 1.240 . S
O38 In26 2.326 . S
O38 C30 1.252 . S
In39 O40 2.294 . S
In39 O41 2.326 . S
In39 O45 2.266 . S
In39 O46 2.326 . S
In39 O47 2.266 . S
In39 O48 2.326 . S
In39 O50 2.294 . S
In39 O51 2.326 . S
O40 In39 2.294 . S
O40 C49 1.240 . S
O41 In39 2.326 . S
O41 C49 1.252 . S
C42 O45 1.252 . S
C42 O46 1.260 . S
C43 O50 1.240 . S
C43 O51 1.252 . S
C44 O47 1.252 . S
C44 O48 1.260 . S
O45 In39 2.266 . S
O45 C42 1.252 . S
O46 In39 2.326 . S
O46 C42 1.260 . S
O47 In39 2.266 . S
O47 C44 1.252 . S
O48 In39 2.326 . S
O48 C44 1.260 . S
C49 O40 1.240 . S
C49 O41 1.252 . S
O50 In39 2.294 . S
O50 C43 1.240 . S
O51 In39 2.326 . S
O51 C43 1.252 . S
In52 O53 2.294 . S
In52 O54 2.326 . S
In52 O58 2.266 . S
In52 O59 2.326 . S
In52 O60 2.266 . S
In52 O61 2.326 . S
In52 O63 2.294 . S
In52 O64 2.326 . S
O53 In52 2.294 . S
O53 C62 1.240 . S
O54 In52 2.326 . S
O54 C62 1.252 . S
C55 O58 1.252 . S
C55 O59 1.260 . S
C56 O63 1.240 . S
C56 O64 1.252 . S
C57 O60 1.252 . S
C57 O61 1.260 . S
O58 In52 2.266 . S
O58 C55 1.252 . S
O59 In52 2.326 . S
O59 C55 1.260 . S
O60 In52 2.266 . S
O60 C57 1.252 . S
O61 In52 2.326 . S
O61 C57 1.260 . S
C62 O53 1.240 . S
C62 O54 1.252 . S
O63 In52 2.294 . S
O63 C56 1.240 . S
O64 In52 2.326 . S
O64 C56 1.252 . S
In65 O66 2.294 . S
In65 O67 2.326 . S
In65 O71 2.266 . S
In65 O72 2.326 . S
In65 O73 2.266 . S
In65 O74 2.326 . S
In65 O76 2.294 . S
In65 O77 2.326 . S
O66 In65 2.294 . S
O66 C75 1.240 . S
O67 In65 2.326 . S
O67 C75 1.252 . S
C68 O71 1.252 . S
C68 O72 1.260 . S
C69 O76 1.240 . S
C69 O77 1.252 . S
C70 O73 1.252 . S
C70 O74 1.260 . S
O71 In65 2.266 . S
O71 C68 1.252 . S
O72 In65 2.326 . S
O72 C68 1.260 . S
O73 In65 2.266 . S
O73 C70 1.252 . S
O74 In65 2.326 . S
O74 C70 1.260 . S
C75 O66 1.240 . S
C75 O67 1.252 . S
O76 In65 2.294 . S
O76 C69 1.240 . S
O77 In65 2.326 . S
O77 C69 1.252 . S
In78 O79 2.294 . S
In78 O80 2.326 . S
In78 O84 2.266 . S
In78 O85 2.326 . S
In78 O86 2.266 . S
In78 O87 2.326 . S
In78 O89 2.294 . S
In78 O90 2.326 . S
O79 In78 2.294 . S
O79 C88 1.240 . S
O80 In78 2.326 . S
O80 C88 1.252 . S
C81 O84 1.252 . S
C81 O85 1.260 . S
C82 O89 1.240 . S
C82 O90 1.252 . S
C83 O86 1.252 . S
C83 O87 1.260 . S
O84 In78 2.266 . S
O84 C81 1.252 . S
O85 In78 2.326 . S
O85 C81 1.260 . S
O86 In78 2.266 . S
O86 C83 1.252 . S
O87 In78 2.326 . S
O87 C83 1.260 . S
C88 O79 1.240 . S
C88 O80 1.252 . S
O89 In78 2.294 . S
O89 C82 1.240 . S
O90 In78 2.326 . S
O90 C82 1.252 . S
In91 O92 2.294 . S
In91 O93 2.326 . S
In91 O97 2.266 . S
In91 O98 2.326 . S
In91 O99 2.266 . S
In91 O100 2.326 . S
In91 O102 2.294 . S
In91 O103 2.326 . S
O92 In91 2.294 . S
O92 C101 1.240 . S
O93 In91 2.326 . S
O93 C101 1.252 . S
C94 O97 1.252 . S
C94 O98 1.260 . S
C95 O102 1.240 . S
C95 O103 1.252 . S
C96 O99 1.252 . S
C96 O100 1.260 . S
O97 In91 2.266 . S
O97 C94 1.252 . S
O98 In91 2.326 . S
O98 C94 1.260 . S
O99 In91 2.266 . S
O99 C96 1.252 . S
O100 In91 2.326 . S
O100 C96 1.260 . S
C101 O92 1.240 . S
C101 O93 1.252 . S
O102 In91 2.294 . S
O102 C95 1.240 . S
O103 In91 2.326 . S
O103 C95 1.252 . S
In104 O105 2.294 . S
In104 O106 2.326 . S
In104 O110 2.266 . S
In104 O111 2.326 . S
In104 O112 2.266 . S
In104 O113 2.326 . S
In104 O115 2.294 . S
In104 O116 2.326 . S
O105 In104 2.294 . S
O105 C114 1.240 . S
O106 In104 2.326 . S
O106 C114 1.252 . S
C107 O110 1.252 . S
C107 O111 1.260 . S
C108 O115 1.240 . S
C108 O116 1.252 . S
C109 O112 1.252 . S
C109 O113 1.260 . S
O110 In104 2.266 . S
O110 C107 1.252 . S
O111 In104 2.326 . S
O111 C107 1.260 . S
O112 In104 2.266 . S
O112 C109 1.252 . S
O113 In104 2.326 . S
O113 C109 1.260 . S
C114 O105 1.240 . S
C114 O106 1.252 . S
O115 In104 2.294 . S
O115 C108 1.240 . S
O116 In104 2.326 . S
O116 C108 1.252 . S
In117 O118 2.294 . S
In117 O119 2.326 . S
In117 O123 2.266 . S
In117 O124 2.326 . S
In117 O125 2.266 . S
In117 O126 2.326 . S
In117 O128 2.294 . S
In117 O129 2.326 . S
O118 In117 2.294 . S
O118 C127 1.240 . S
O119 In117 2.326 . S
O119 C127 1.252 . S
C120 O123 1.252 . S
C120 O124 1.260 . S
C121 O128 1.240 . S
C121 O129 1.252 . S
C122 O125 1.252 . S
C122 O126 1.260 . S
O123 In117 2.266 . S
O123 C120 1.252 . S
O124 In117 2.326 . S
O124 C120 1.260 . S
O125 In117 2.266 . S
O125 C122 1.252 . S
O126 In117 2.326 . S
O126 C122 1.260 . S
C127 O118 1.240 . S
C127 O119 1.252 . S
O128 In117 2.294 . S
O128 C121 1.240 . S
O129 In117 2.326 . S
O129 C121 1.252 . S
In130 O131 2.294 . S
In130 O132 2.326 . S
In130 O136 2.266 . S
In130 O137 2.326 . S
In130 O138 2.266 . S
In130 O139 2.326 . S
In130 O141 2.294 . S
In130 O142 2.326 . S
O131 In130 2.294 . S
O131 C140 1.240 . S
O132 In130 2.326 . S
O132 C140 1.252 . S
C133 O136 1.252 . S
C133 O137 1.260 . S
C134 O141 1.240 . S
C134 O142 1.252 . S
C135 O138 1.252 . S
C135 O139 1.260 . S
O136 In130 2.266 . S
O136 C133 1.252 . S
O137 In130 2.326 . S
O137 C133 1.260 . S
O138 In130 2.266 . S
O138 C135 1.252 . S
O139 In130 2.326 . S
O139 C135 1.260 . S
C140 O131 1.240 . S
C140 O132 1.252 . S
O141 In130 2.294 . S
O141 C134 1.240 . S
O142 In130 2.326 . S
O142 C134 1.252 . S
In143 O144 2.294 . S
In143 O145 2.326 . S
In143 O149 2.266 . S
In143 O150 2.326 . S
In143 O151 2.266 . S
In143 O152 2.326 . S
In143 O154 2.294 . S
In143 O155 2.326 . S
O144 In143 2.294 . S
O144 C153 1.240 . S
O145 In143 2.326 . S
O145 C153 1.252 . S
C146 O149 1.252 . S
C146 O150 1.260 . S
C147 O154 1.240 . S
C147 O155 1.252 . S
C148 O151 1.252 . S
C148 O152 1.260 . S
O149 In143 2.266 . S
O149 C146 1.252 . S
O150 In143 2.326 . S
O150 C146 1.260 . S
O151 In143 2.266 . S
O151 C148 1.252 . S
O152 In143 2.326 . S
O152 C148 1.260 . S
C153 O144 1.240 . S
C153 O145 1.252 . S
O154 In143 2.294 . S
O154 C147 1.240 . S
O155 In143 2.326 . S
O155 C147 1.252 . S
In156 O157 2.294 . S
In156 O158 2.326 . S
In156 O162 2.266 . S
In156 O163 2.326 . S
In156 O164 2.266 . S
In156 O165 2.326 . S
In156 O167 2.294 . S
In156 O168 2.326 . S
O157 In156 2.294 . S
O157 C166 1.240 . S
O158 In156 2.326 . S
O158 C166 1.252 . S
C159 O162 1.252 . S
C159 O163 1.260 . S
C160 O167 1.240 . S
C160 O168 1.252 . S
C161 O164 1.252 . S
C161 O165 1.260 . S
O162 In156 2.266 . S
O162 C159 1.252 . S
O163 In156 2.326 . S
O163 C159 1.260 . S
O164 In156 2.266 . S
O164 C161 1.252 . S
O165 In156 2.326 . S
O165 C161 1.260 . S
C166 O157 1.240 . S
C166 O158 1.252 . S
O167 In156 2.294 . S
O167 C160 1.240 . S
O168 In156 2.326 . S
O168 C160 1.252 . S
In169 O170 2.294 . S
In169 O171 2.326 . S
In169 O175 2.266 . S
In169 O176 2.326 . S
In169 O177 2.266 . S
In169 O178 2.326 . S
In169 O180 2.294 . S
In169 O181 2.326 . S
O170 In169 2.294 . S
O170 C179 1.240 . S
O171 In169 2.326 . S
O171 C179 1.252 . S
C172 O175 1.252 . S
C172 O176 1.260 . S
C173 O180 1.240 . S
C173 O181 1.252 . S
C174 O177 1.252 . S
C174 O178 1.260 . S
O175 In169 2.266 . S
O175 C172 1.252 . S
O176 In169 2.326 . S
O176 C172 1.260 . S
O177 In169 2.266 . S
O177 C174 1.252 . S
O178 In169 2.326 . S
O178 C174 1.260 . S
C179 O170 1.240 . S
C179 O171 1.252 . S
O180 In169 2.294 . S
O180 C173 1.240 . S
O181 In169 2.326 . S
O181 C173 1.252 . S
In182 O183 2.294 . S
In182 O184 2.326 . S
In182 O188 2.266 . S
In182 O189 2.326 . S
In182 O190 2.266 . S
In182 O191 2.326 . S
In182 O193 2.294 . S
In182 O194 2.326 . S
O183 In182 2.294 . S
O183 C192 1.240 . S
O184 In182 2.326 . S
O184 C192 1.252 . S
C185 O188 1.252 . S
C185 O189 1.260 . S
C186 O193 1.240 . S
C186 O194 1.252 . S
C187 O190 1.252 . S
C187 O191 1.260 . S
O188 In182 2.266 . S
O188 C185 1.252 . S
O189 In182 2.326 . S
O189 C185 1.260 . S
O190 In182 2.266 . S
O190 C187 1.252 . S
O191 In182 2.326 . S
O191 C187 1.260 . S
C192 O183 1.240 . S
C192 O184 1.252 . S
O193 In182 2.294 . S
O193 C186 1.240 . S
O194 In182 2.326 . S
O194 C186 1.252 . S
In195 O196 2.294 . S
In195 O197 2.326 . S
In195 O201 2.266 . S
In195 O202 2.326 . S
In195 O203 2.266 . S
In195 O204 2.326 . S
In195 O206 2.294 . S
In195 O207 2.326 . S
O196 In195 2.294 . S
O196 C205 1.240 . S
O197 In195 2.326 . S
O197 C205 1.252 . S
C198 O201 1.252 . S
C198 O202 1.260 . S
C199 O206 1.240 . S
C199 O207 1.252 . S
C200 O203 1.252 . S
C200 O204 1.260 . S
O201 In195 2.266 . S
O201 C198 1.252 . S
O202 In195 2.326 . S
O202 C198 1.260 . S
O203 In195 2.266 . S
O203 C200 1.252 . S
O204 In195 2.326 . S
O204 C200 1.260 . S
C205 O196 1.240 . S
C205 O197 1.252 . S
O206 In195 2.294 . S
O206 C199 1.240 . S
O207 In195 2.326 . S
O207 C199 1.252 . S
In208 O209 2.294 . S
In208 O210 2.326 . S
In208 O214 2.266 . S
In208 O215 2.326 . S
In208 O216 2.266 . S
In208 O217 2.326 . S
In208 O219 2.294 . S
In208 O220 2.326 . S
O209 In208 2.294 . S
O209 C218 1.240 . S
O210 In208 2.326 . S
O210 C218 1.252 . S
C211 O214 1.252 . S
C211 O215 1.260 . S
C212 O219 1.240 . S
C212 O220 1.252 . S
C213 O216 1.252 . S
C213 O217 1.260 . S
O214 In208 2.266 . S
O214 C211 1.252 . S
O215 In208 2.326 . S
O215 C211 1.260 . S
O216 In208 2.266 . S
O216 C213 1.252 . S
O217 In208 2.326 . S
O217 C213 1.260 . S
C218 O209 1.240 . S
C218 O210 1.252 . S
O219 In208 2.294 . S
O219 C212 1.240 . S
O220 In208 2.326 . S
O220 C212 1.252 . S
In221 O222 2.294 . S
In221 O223 2.326 . S
In221 O227 2.266 . S
In221 O228 2.326 . S
In221 O229 2.266 . S
In221 O230 2.326 . S
In221 O232 2.294 . S
In221 O233 2.326 . S
O222 In221 2.294 . S
O222 C231 1.240 . S
O223 In221 2.326 . S
O223 C231 1.252 . S
C224 O227 1.252 . S
C224 O228 1.260 . S
C225 O232 1.240 . S
C225 O233 1.252 . S
C226 O229 1.252 . S
C226 O230 1.260 . S
O227 In221 2.266 . S
O227 C224 1.252 . S
O228 In221 2.326 . S
O228 C224 1.260 . S
O229 In221 2.266 . S
O229 C226 1.252 . S
O230 In221 2.326 . S
O230 C226 1.260 . S
C231 O222 1.240 . S
C231 O223 1.252 . S
O232 In221 2.294 . S
O232 C225 1.240 . S
O233 In221 2.326 . S
O233 C225 1.252 . S
In234 O235 2.294 . S
In234 O236 2.326 . S
In234 O240 2.266 . S
In234 O241 2.326 . S
In234 O242 2.266 . S
In234 O243 2.326 . S
In234 O245 2.294 . S
In234 O246 2.326 . S
O235 In234 2.294 . S
O235 C244 1.240 . S
O236 In234 2.326 . S
O236 C244 1.252 . S
C237 O240 1.252 . S
C237 O241 1.260 . S
C238 O245 1.240 . S
C238 O246 1.252 . S
C239 O242 1.252 . S
C239 O243 1.260 . S
O240 In234 2.266 . S
O240 C237 1.252 . S
O241 In234 2.326 . S
O241 C237 1.260 . S
O242 In234 2.266 . S
O242 C239 1.252 . S
O243 In234 2.326 . S
O243 C239 1.260 . S
C244 O235 1.240 . S
C244 O236 1.252 . S
O245 In234 2.294 . S
O245 C238 1.240 . S
O246 In234 2.326 . S
O246 C238 1.252 . S
In247 O248 2.294 . S
In247 O249 2.326 . S
In247 O253 2.266 . S
In247 O254 2.326 . S
In247 O255 2.266 . S
In247 O256 2.326 . S
In247 O258 2.294 . S
In247 O259 2.326 . S
O248 In247 2.294 . S
O248 C257 1.240 . S
O249 In247 2.326 . S
O249 C257 1.252 . S
C250 O253 1.252 . S
C250 O254 1.260 . S
C251 O258 1.240 . S
C251 O259 1.252 . S
C252 O255 1.252 . S
C252 O256 1.260 . S
O253 In247 2.266 . S
O253 C250 1.252 . S
O254 In247 2.326 . S
O254 C250 1.260 . S
O255 In247 2.266 . S
O255 C252 1.252 . S
O256 In247 2.326 . S
O256 C252 1.260 . S
C257 O248 1.240 . S
C257 O249 1.252 . S
O258 In247 2.294 . S
O258 C251 1.240 . S
O259 In247 2.326 . S
O259 C251 1.252 . S
In260 O261 2.294 . S
In260 O262 2.326 . S
In260 O266 2.266 . S
In260 O267 2.326 . S
In260 O268 2.266 . S
In260 O269 2.326 . S
In260 O271 2.294 . S
In260 O272 2.326 . S
O261 In260 2.294 . S
O261 C270 1.240 . S
O262 In260 2.326 . S
O262 C270 1.252 . S
C263 O266 1.252 . S
C263 O267 1.260 . S
C264 O271 1.240 . S
C264 O272 1.252 . S
C265 O268 1.252 . S
C265 O269 1.260 . S
O266 In260 2.266 . S
O266 C263 1.252 . S
O267 In260 2.326 . S
O267 C263 1.260 . S
O268 In260 2.266 . S
O268 C265 1.252 . S
O269 In260 2.326 . S
O269 C265 1.260 . S
C270 O261 1.240 . S
C270 O262 1.252 . S
O271 In260 2.294 . S
O271 C264 1.240 . S
O272 In260 2.326 . S
O272 C264 1.252 . S
In273 O274 2.294 . S
In273 O275 2.326 . S
In273 O279 2.266 . S
In273 O280 2.326 . S
In273 O281 2.266 . S
In273 O282 2.326 . S
In273 O284 2.294 . S
In273 O285 2.326 . S
O274 In273 2.294 . S
O274 C283 1.240 . S
O275 In273 2.326 . S
O275 C283 1.252 . S
C276 O279 1.252 . S
C276 O280 1.260 . S
C277 O284 1.240 . S
C277 O285 1.252 . S
C278 O281 1.252 . S
C278 O282 1.260 . S
O279 In273 2.266 . S
O279 C276 1.252 . S
O280 In273 2.326 . S
O280 C276 1.260 . S
O281 In273 2.266 . S
O281 C278 1.252 . S
O282 In273 2.326 . S
O282 C278 1.260 . S
C283 O274 1.240 . S
C283 O275 1.252 . S
O284 In273 2.294 . S
O284 C277 1.240 . S
O285 In273 2.326 . S
O285 C277 1.252 . S
In286 O287 2.294 . S
In286 O288 2.326 . S
In286 O292 2.266 . S
In286 O293 2.326 . S
In286 O294 2.266 . S
In286 O295 2.326 . S
In286 O297 2.294 . S
In286 O298 2.326 . S
O287 In286 2.294 . S
O287 C296 1.240 . S
O288 In286 2.326 . S
O288 C296 1.252 . S
C289 O292 1.252 . S
C289 O293 1.260 . S
C290 O297 1.240 . S
C290 O298 1.252 . S
C291 O294 1.252 . S
C291 O295 1.260 . S
O292 In286 2.266 . S
O292 C289 1.252 . S
O293 In286 2.326 . S
O293 C289 1.260 . S
O294 In286 2.266 . S
O294 C291 1.252 . S
O295 In286 2.326 . S
O295 C291 1.260 . S
C296 O287 1.240 . S
C296 O288 1.252 . S
O297 In286 2.294 . S
O297 C290 1.240 . S
O298 In286 2.326 . S
O298 C290 1.252 . S
In299 O300 2.294 . S
In299 O301 2.326 . S
In299 O305 2.266 . S
In299 O306 2.326 . S
In299 O307 2.266 . S
In299 O308 2.326 . S
In299 O310 2.294 . S
In299 O311 2.326 . S
O300 In299 2.294 . S
O300 C309 1.240 . S
O301 In299 2.326 . S
O301 C309 1.252 . S
C302 O305 1.252 . S
C302 O306 1.260 . S
C303 O310 1.240 . S
C303 O311 1.252 . S
C304 O307 1.252 . S
C304 O308 1.260 . S
O305 In299 2.266 . S
O305 C302 1.252 . S
O306 In299 2.326 . S
O306 C302 1.260 . S
O307 In299 2.266 . S
O307 C304 1.252 . S
O308 In299 2.326 . S
O308 C304 1.260 . S
C309 O300 1.240 . S
C309 O301 1.252 . S
O310 In299 2.294 . S
O310 C303 1.240 . S
O311 In299 2.326 . S
O311 C303 1.252 . S
C312 C313 1.369 . S
C312 C314 1.419 . S
C312 H316 0.930 . S
C313 C312 1.369 . S
C313 C322 1.429 . S
C314 C312 1.419 . S
C314 C315 1.363 . S
C314 H317 0.929 . S
C315 C314 1.363 . S
C315 C321 1.428 . S
H316 C312 0.930 . S
H317 C314 0.929 . S
S318 N319 1.613 . S
S318 N320 1.610 . S
N319 S318 1.613 . S
N319 C322 1.350 . S
N320 S318 1.610 . S
N320 C321 1.351 . S
C321 C315 1.428 . S
C321 N320 1.351 . S
C321 C322 1.434 . S
C322 C313 1.429 . S
C322 N319 1.350 . S
C322 C321 1.434 . S
C323 C324 1.369 . S
C323 C325 1.419 . S
C323 H327 0.930 . S
C324 C323 1.369 . S
C324 C333 1.429 . S
C325 C323 1.419 . S
C325 C326 1.363 . S
C325 H328 0.929 . S
C326 C325 1.363 . S
C326 C332 1.428 . S
H327 C323 0.930 . S
H328 C325 0.929 . S
S329 N330 1.613 . S
S329 N331 1.610 . S
N330 S329 1.613 . S
N330 C333 1.350 . S
N331 S329 1.610 . S
N331 C332 1.351 . S
C332 C326 1.428 . S
C332 N331 1.351 . S
C332 C333 1.434 . S
C333 C324 1.429 . S
C333 N330 1.350 . S
C333 C332 1.434 . S
C334 C335 1.369 . S
C334 C336 1.419 . S
C334 H338 0.930 . S
C335 C334 1.369 . S
C335 C344 1.429 . S
C336 C334 1.419 . S
C336 C337 1.363 . S
C336 H339 0.929 . S
C337 C336 1.363 . S
C337 C343 1.428 . S
H338 C334 0.930 . S
H339 C336 0.929 . S
S340 N341 1.613 . S
S340 N342 1.610 . S
N341 S340 1.613 . S
N341 C344 1.350 . S
N342 S340 1.610 . S
N342 C343 1.351 . S
C343 C337 1.428 . S
C343 N342 1.351 . S
C343 C344 1.434 . S
C344 C335 1.429 . S
C344 N341 1.350 . S
C344 C343 1.434 . S
C345 C346 1.369 . S
C345 C347 1.419 . S
C345 H349 0.930 . S
C346 C345 1.369 . S
C346 C355 1.429 . S
C347 C345 1.419 . S
C347 C348 1.363 . S
C347 H350 0.929 . S
C348 C347 1.363 . S
C348 C354 1.428 . S
H349 C345 0.930 . S
H350 C347 0.929 . S
S351 N352 1.613 . S
S351 N353 1.610 . S
N352 S351 1.613 . S
N352 C355 1.350 . S
N353 S351 1.610 . S
N353 C354 1.351 . S
C354 C348 1.428 . S
C354 N353 1.351 . S
C354 C355 1.434 . S
C355 C346 1.429 . S
C355 N352 1.350 . S
C355 C354 1.434 . S
C356 C357 1.369 . S
C356 C358 1.419 . S
C356 H360 0.930 . S
C357 C356 1.369 . S
C357 C366 1.429 . S
C358 C356 1.419 . S
C358 C359 1.363 . S
C358 H361 0.929 . S
C359 C358 1.363 . S
C359 C365 1.428 . S
H360 C356 0.930 . S
H361 C358 0.929 . S
S362 N363 1.613 . S
S362 N364 1.610 . S
N363 S362 1.613 . S
N363 C366 1.350 . S
N364 S362 1.610 . S
N364 C365 1.351 . S
C365 C359 1.428 . S
C365 N364 1.351 . S
C365 C366 1.434 . S
C366 C357 1.429 . S
C366 N363 1.350 . S
C366 C365 1.434 . S
C367 C368 1.369 . S
C367 C369 1.419 . S
C367 H371 0.930 . S
C368 C367 1.369 . S
C368 C377 1.429 . S
C369 C367 1.419 . S
C369 C370 1.363 . S
C369 H372 0.929 . S
C370 C369 1.363 . S
C370 C376 1.428 . S
H371 C367 0.930 . S
H372 C369 0.929 . S
S373 N374 1.613 . S
S373 N375 1.610 . S
N374 S373 1.613 . S
N374 C377 1.350 . S
N375 S373 1.610 . S
N375 C376 1.351 . S
C376 C370 1.428 . S
C376 N375 1.351 . S
C376 C377 1.434 . S
C377 C368 1.429 . S
C377 N374 1.350 . S
C377 C376 1.434 . S
C378 C379 1.369 . S
C378 C380 1.419 . S
C378 H382 0.930 . S
C379 C378 1.369 . S
C379 C388 1.429 . S
C380 C378 1.419 . S
C380 C381 1.363 . S
C380 H383 0.929 . S
C381 C380 1.363 . S
C381 C387 1.428 . S
H382 C378 0.930 . S
H383 C380 0.929 . S
S384 N385 1.613 . S
S384 N386 1.610 . S
N385 S384 1.613 . S
N385 C388 1.350 . S
N386 S384 1.610 . S
N386 C387 1.351 . S
C387 C381 1.428 . S
C387 N386 1.351 . S
C387 C388 1.434 . S
C388 C379 1.429 . S
C388 N385 1.350 . S
C388 C387 1.434 . S
C389 C390 1.369 . S
C389 C391 1.419 . S
C389 H393 0.930 . S
C390 C389 1.369 . S
C390 C399 1.429 . S
C391 C389 1.419 . S
C391 C392 1.363 . S
C391 H394 0.929 . S
C392 C391 1.363 . S
C392 C398 1.428 . S
H393 C389 0.930 . S
H394 C391 0.929 . S
S395 N396 1.613 . S
S395 N397 1.610 . S
N396 S395 1.613 . S
N396 C399 1.350 . S
N397 S395 1.610 . S
N397 C398 1.351 . S
C398 C392 1.428 . S
C398 N397 1.351 . S
C398 C399 1.434 . S
C399 C390 1.429 . S
C399 N396 1.350 . S
C399 C398 1.434 . S
C400 C401 1.369 . S
C400 C402 1.419 . S
C400 H404 0.930 . S
C401 C400 1.369 . S
C401 C410 1.429 . S
C402 C400 1.419 . S
C402 C403 1.363 . S
C402 H405 0.929 . S
C403 C402 1.363 . S
C403 C409 1.428 . S
H404 C400 0.930 . S
H405 C402 0.929 . S
S406 N407 1.613 . S
S406 N408 1.610 . S
N407 S406 1.613 . S
N407 C410 1.350 . S
N408 S406 1.610 . S
N408 C409 1.351 . S
C409 C403 1.428 . S
C409 N408 1.351 . S
C409 C410 1.434 . S
C410 C401 1.429 . S
C410 N407 1.350 . S
C410 C409 1.434 . S
C411 C412 1.369 . S
C411 C413 1.419 . S
C411 H415 0.930 . S
C412 C411 1.369 . S
C412 C421 1.429 . S
C413 C411 1.419 . S
C413 C414 1.363 . S
C413 H416 0.929 . S
C414 C413 1.363 . S
C414 C420 1.428 . S
H415 C411 0.930 . S
H416 C413 0.929 . S
S417 N418 1.613 . S
S417 N419 1.610 . S
N418 S417 1.613 . S
N418 C421 1.350 . S
N419 S417 1.610 . S
N419 C420 1.351 . S
C420 C414 1.428 . S
C420 N419 1.351 . S
C420 C421 1.434 . S
C421 C412 1.429 . S
C421 N418 1.350 . S
C421 C420 1.434 . S
C422 C423 1.369 . S
C422 C424 1.419 . S
C422 H426 0.930 . S
C423 C422 1.369 . S
C423 C432 1.429 . S
C424 C422 1.419 . S
C424 C425 1.363 . S
C424 H427 0.929 . S
C425 C424 1.363 . S
C425 C431 1.428 . S
H426 C422 0.930 . S
H427 C424 0.929 . S
S428 N429 1.613 . S
S428 N430 1.610 . S
N429 S428 1.613 . S
N429 C432 1.350 . S
N430 S428 1.610 . S
N430 C431 1.351 . S
C431 C425 1.428 . S
C431 N430 1.351 . S
C431 C432 1.434 . S
C432 C423 1.429 . S
C432 N429 1.350 . S
C432 C431 1.434 . S
C433 C434 1.369 . S
C433 C435 1.419 . S
C433 H437 0.930 . S
C434 C433 1.369 . S
C434 C443 1.429 . S
C435 C433 1.419 . S
C435 C436 1.363 . S
C435 H438 0.929 . S
C436 C435 1.363 . S
C436 C442 1.428 . S
H437 C433 0.930 . S
H438 C435 0.929 . S
S439 N440 1.613 . S
S439 N441 1.610 . S
N440 S439 1.613 . S
N440 C443 1.350 . S
N441 S439 1.610 . S
N441 C442 1.351 . S
C442 C436 1.428 . S
C442 N441 1.351 . S
C442 C443 1.434 . S
C443 C434 1.429 . S
C443 N440 1.350 . S
C443 C442 1.434 . S
C444 C445 1.369 . S
C444 C446 1.419 . S
C444 H448 0.930 . S
C445 C444 1.369 . S
C445 C454 1.429 . S
C446 C444 1.419 . S
C446 C447 1.363 . S
C446 H449 0.929 . S
C447 C446 1.363 . S
C447 C453 1.428 . S
H448 C444 0.930 . S
H449 C446 0.929 . S
S450 N451 1.613 . S
S450 N452 1.610 . S
N451 S450 1.613 . S
N451 C454 1.350 . S
N452 S450 1.610 . S
N452 C453 1.351 . S
C453 C447 1.428 . S
C453 N452 1.351 . S
C453 C454 1.434 . S
C454 C445 1.429 . S
C454 N451 1.350 . S
C454 C453 1.434 . S
C455 C456 1.369 . S
C455 C457 1.419 . S
C455 H459 0.930 . S
C456 C455 1.369 . S
C456 C465 1.429 . S
C457 C455 1.419 . S
C457 C458 1.363 . S
C457 H460 0.929 . S
C458 C457 1.363 . S
C458 C464 1.428 . S
H459 C455 0.930 . S
H460 C457 0.929 . S
S461 N462 1.613 . S
S461 N463 1.610 . S
N462 S461 1.613 . S
N462 C465 1.350 . S
N463 S461 1.610 . S
N463 C464 1.351 . S
C464 C458 1.428 . S
C464 N463 1.351 . S
C464 C465 1.434 . S
C465 C456 1.429 . S
C465 N462 1.350 . S
C465 C464 1.434 . S
C466 C467 1.369 . S
C466 C468 1.419 . S
C466 H470 0.930 . S
C467 C466 1.369 . S
C467 C476 1.429 . S
C468 C466 1.419 . S
C468 C469 1.363 . S
C468 H471 0.929 . S
C469 C468 1.363 . S
C469 C475 1.428 . S
H470 C466 0.930 . S
H471 C468 0.929 . S
S472 N473 1.613 . S
S472 N474 1.610 . S
N473 S472 1.613 . S
N473 C476 1.350 . S
N474 S472 1.610 . S
N474 C475 1.351 . S
C475 C469 1.428 . S
C475 N474 1.351 . S
C475 C476 1.434 . S
C476 C467 1.429 . S
C476 N473 1.350 . S
C476 C475 1.434 . S
C477 C478 1.369 . S
C477 C479 1.419 . S
C477 H481 0.930 . S
C478 C477 1.369 . S
C478 C487 1.429 . S
C479 C477 1.419 . S
C479 C480 1.363 . S
C479 H482 0.929 . S
C480 C479 1.363 . S
C480 C486 1.428 . S
H481 C477 0.930 . S
H482 C479 0.929 . S
S483 N484 1.613 . S
S483 N485 1.610 . S
N484 S483 1.613 . S
N484 C487 1.350 . S
N485 S483 1.610 . S
N485 C486 1.351 . S
C486 C480 1.428 . S
C486 N485 1.351 . S
C486 C487 1.434 . S
C487 C478 1.429 . S
C487 N484 1.350 . S
C487 C486 1.434 . S
C488 C489 1.369 . S
C488 C490 1.419 . S
C488 H492 0.930 . S
C489 C488 1.369 . S
C489 C498 1.429 . S
C490 C488 1.419 . S
C490 C491 1.363 . S
C490 H493 0.929 . S
C491 C490 1.363 . S
C491 C497 1.428 . S
H492 C488 0.930 . S
H493 C490 0.929 . S
S494 N495 1.613 . S
S494 N496 1.610 . S
N495 S494 1.613 . S
N495 C498 1.350 . S
N496 S494 1.610 . S
N496 C497 1.351 . S
C497 C491 1.428 . S
C497 N496 1.351 . S
C497 C498 1.434 . S
C498 C489 1.429 . S
C498 N495 1.350 . S
C498 C497 1.434 . S
C499 C500 1.369 . S
C499 C501 1.419 . S
C499 H503 0.930 . S
C500 C499 1.369 . S
C500 C509 1.429 . S
C501 C499 1.419 . S
C501 C502 1.363 . S
C501 H504 0.929 . S
C502 C501 1.363 . S
C502 C508 1.428 . S
H503 C499 0.930 . S
H504 C501 0.929 . S
S505 N506 1.613 . S
S505 N507 1.610 . S
N506 S505 1.613 . S
N506 C509 1.350 . S
N507 S505 1.610 . S
N507 C508 1.351 . S
C508 C502 1.428 . S
C508 N507 1.351 . S
C508 C509 1.434 . S
C509 C500 1.429 . S
C509 N506 1.350 . S
C509 C508 1.434 . S
C510 C511 1.369 . S
C510 C512 1.419 . S
C510 H514 0.930 . S
C511 C510 1.369 . S
C511 C520 1.429 . S
C512 C510 1.419 . S
C512 C513 1.363 . S
C512 H515 0.929 . S
C513 C512 1.363 . S
C513 C519 1.428 . S
H514 C510 0.930 . S
H515 C512 0.929 . S
S516 N517 1.613 . S
S516 N518 1.610 . S
N517 S516 1.613 . S
N517 C520 1.350 . S
N518 S516 1.610 . S
N518 C519 1.351 . S
C519 C513 1.428 . S
C519 N518 1.351 . S
C519 C520 1.434 . S
C520 C511 1.429 . S
C520 N517 1.350 . S
C520 C519 1.434 . S
C521 C522 1.369 . S
C521 C523 1.419 . S
C521 H525 0.930 . S
C522 C521 1.369 . S
C522 C531 1.429 . S
C523 C521 1.419 . S
C523 C524 1.363 . S
C523 H526 0.929 . S
C524 C523 1.363 . S
C524 C530 1.428 . S
H525 C521 0.930 . S
H526 C523 0.929 . S
S527 N528 1.613 . S
S527 N529 1.610 . S
N528 S527 1.613 . S
N528 C531 1.350 . S
N529 S527 1.610 . S
N529 C530 1.351 . S
C530 C524 1.428 . S
C530 N529 1.351 . S
C530 C531 1.434 . S
C531 C522 1.429 . S
C531 N528 1.350 . S
C531 C530 1.434 . S
C532 C533 1.369 . S
C532 C534 1.419 . S
C532 H536 0.930 . S
C533 C532 1.369 . S
C533 C542 1.429 . S
C534 C532 1.419 . S
C534 C535 1.363 . S
C534 H537 0.929 . S
C535 C534 1.363 . S
C535 C541 1.428 . S
H536 C532 0.930 . S
H537 C534 0.929 . S
S538 N539 1.613 . S
S538 N540 1.610 . S
N539 S538 1.613 . S
N539 C542 1.350 . S
N540 S538 1.610 . S
N540 C541 1.351 . S
C541 C535 1.428 . S
C541 N540 1.351 . S
C541 C542 1.434 . S
C542 C533 1.429 . S
C542 N539 1.350 . S
C542 C541 1.434 . S
C543 C544 1.369 . S
C543 C545 1.419 . S
C543 H547 0.930 . S
C544 C543 1.369 . S
C544 C553 1.429 . S
C545 C543 1.419 . S
C545 C546 1.363 . S
C545 H548 0.929 . S
C546 C545 1.363 . S
C546 C552 1.428 . S
H547 C543 0.930 . S
H548 C545 0.929 . S
S549 N550 1.613 . S
S549 N551 1.610 . S
N550 S549 1.613 . S
N550 C553 1.350 . S
N551 S549 1.610 . S
N551 C552 1.351 . S
C552 C546 1.428 . S
C552 N551 1.351 . S
C552 C553 1.434 . S
C553 C544 1.429 . S
C553 N550 1.350 . S
C553 C552 1.434 . S
C554 C555 1.369 . S
C554 C556 1.419 . S
C554 H558 0.930 . S
C555 C554 1.369 . S
C555 C564 1.429 . S
C556 C554 1.419 . S
C556 C557 1.363 . S
C556 H559 0.929 . S
C557 C556 1.363 . S
C557 C563 1.428 . S
H558 C554 0.930 . S
H559 C556 0.929 . S
S560 N561 1.613 . S
S560 N562 1.610 . S
N561 S560 1.613 . S
N561 C564 1.350 . S
N562 S560 1.610 . S
N562 C563 1.351 . S
C563 C557 1.428 . S
C563 N562 1.351 . S
C563 C564 1.434 . S
C564 C555 1.429 . S
C564 N561 1.350 . S
C564 C563 1.434 . S
C565 C566 1.369 . S
C565 C567 1.419 . S
C565 H569 0.930 . S
C566 C565 1.369 . S
C566 C575 1.429 . S
C567 C565 1.419 . S
C567 C568 1.363 . S
C567 H570 0.929 . S
C568 C567 1.363 . S
C568 C574 1.428 . S
H569 C565 0.930 . S
H570 C567 0.929 . S
S571 N572 1.613 . S
S571 N573 1.610 . S
N572 S571 1.613 . S
N572 C575 1.350 . S
N573 S571 1.610 . S
N573 C574 1.351 . S
C574 C568 1.428 . S
C574 N573 1.351 . S
C574 C575 1.434 . S
C575 C566 1.429 . S
C575 N572 1.350 . S
C575 C574 1.434 . S
C576 C577 1.369 . S
C576 C578 1.419 1_455 S
C576 H580 0.930 . S
C577 C576 1.369 . S
C577 C586 1.429 . S
C578 C576 1.419 1_655 S
C578 C579 1.363 . S
C578 H581 0.929 . S
C579 C578 1.363 . S
C579 C585 1.428 . S
H580 C576 0.930 . S
H581 C578 0.929 . S
S582 N583 1.613 . S
S582 N584 1.610 1_455 S
N583 S582 1.613 . S
N583 C586 1.350 . S
N584 S582 1.610 1_655 S
N584 C585 1.351 . S
C585 C579 1.428 . S
C585 N584 1.351 . S
C585 C586 1.434 1_655 S
C586 C577 1.429 . S
C586 N583 1.350 . S
C586 C585 1.434 1_455 S
C587 C588 1.369 . S
C587 C589 1.419 1_545 S
C587 H591 0.930 . S
C588 C587 1.369 . S
C588 C597 1.429 . S
C589 C587 1.419 1_565 S
C589 C590 1.363 . S
C589 H592 0.929 . S
C590 C589 1.363 . S
C590 C596 1.428 . S
H591 C587 0.930 . S
H592 C589 0.929 . S
S593 N594 1.613 . S
S593 N595 1.610 1_545 S
N594 S593 1.613 . S
N594 C597 1.350 . S
N595 S593 1.610 1_565 S
N595 C596 1.351 . S
C596 C590 1.428 . S
C596 N595 1.351 . S
C596 C597 1.434 1_565 S
C597 C588 1.429 . S
C597 N594 1.350 . S
C597 C596 1.434 1_545 S
C598 C599 1.369 . S
C598 C600 1.419 1_655 S
C598 H602 0.930 . S
C599 C598 1.369 . S
C599 C608 1.429 . S
C600 C598 1.419 1_455 S
C600 C601 1.363 . S
C600 H603 0.929 . S
C601 C600 1.363 . S
C601 C607 1.428 . S
H602 C598 0.930 . S
H603 C600 0.929 . S
S604 N605 1.613 1_455 S
S604 N606 1.610 . S
N605 S604 1.613 1_655 S
N605 C608 1.350 . S
N606 S604 1.610 . S
N606 C607 1.351 . S
C607 C601 1.428 . S
C607 N606 1.351 . S
C607 C608 1.434 1_455 S
C608 C599 1.429 . S
C608 N605 1.350 . S
C608 C607 1.434 1_655 S
C609 C610 1.369 . S
C609 C611 1.419 1_545 S
C609 H613 0.930 . S
C610 C609 1.369 . S
C610 C619 1.429 . S
C611 C609 1.419 1_565 S
C611 C612 1.363 . S
C611 H614 0.929 . S
C612 C611 1.363 . S
C612 C618 1.428 . S
H613 C609 0.930 . S
H614 C611 0.929 . S
S615 N616 1.613 . S
S615 N617 1.610 1_545 S
N616 S615 1.613 . S
N616 C619 1.350 . S
N617 S615 1.610 1_565 S
N617 C618 1.351 . S
C618 C612 1.428 . S
C618 N617 1.351 . S
C618 C619 1.434 1_565 S
C619 C610 1.429 . S
C619 N616 1.350 . S
C619 C618 1.434 1_545 S
C620 C621 1.369 . S
C620 C622 1.419 1_565 S
C620 H624 0.930 . S
C621 C620 1.369 . S
C621 C630 1.429 . S
C622 C620 1.419 1_545 S
C622 C623 1.363 . S
C622 H625 0.929 . S
C623 C622 1.363 . S
C623 C629 1.428 . S
H624 C620 0.930 . S
H625 C622 0.929 . S
S626 N627 1.613 . S
S626 N628 1.610 1_565 S
N627 S626 1.613 . S
N627 C630 1.350 . S
N628 S626 1.610 1_545 S
N628 C629 1.351 . S
C629 C623 1.428 . S
C629 N628 1.351 . S
C629 C630 1.434 1_545 S
C630 C621 1.429 . S
C630 N627 1.350 . S
C630 C629 1.434 1_565 S
C631 C632 1.369 . S
C631 C633 1.419 1_655 S
C631 H635 0.930 . S
C632 C631 1.369 . S
C632 C641 1.429 . S
C633 C631 1.419 1_455 S
C633 C634 1.363 . S
C633 H636 0.929 . S
C634 C633 1.363 . S
C634 C640 1.428 . S
H635 C631 0.930 . S
H636 C633 0.929 . S
S637 N638 1.624 . S
S637 N639 1.599 1_655 S
N638 S637 1.624 . S
N638 C641 1.350 . S
N639 S637 1.599 1_455 S
N639 C640 1.351 . S
C640 C634 1.428 . S
C640 N639 1.351 . S
C640 C641 1.434 1_455 S
C641 C632 1.429 . S
C641 N638 1.350 . S
C641 C640 1.434 1_655 S
C642 C643 1.369 . S
C642 C644 1.419 1_565 S
C642 H646 0.930 . S
C643 C642 1.369 . S
C643 C652 1.429 . S
C644 C642 1.419 1_545 S
C644 C645 1.363 . S
C644 H647 0.929 . S
C645 C644 1.363 . S
C645 C651 1.428 . S
H646 C642 0.930 . S
H647 C644 0.929 . S
S648 N649 1.613 1_545 S
S648 N650 1.610 . S
N649 S648 1.613 1_565 S
N649 C652 1.350 . S
N650 S648 1.610 . S
N650 C651 1.351 . S
C651 C645 1.428 . S
C651 N650 1.351 . S
C651 C652 1.434 1_545 S
C652 C643 1.429 . S
C652 N649 1.350 . S
C652 C651 1.434 1_565 S
C653 C654 1.369 . S
C653 C655 1.419 1_655 S
C653 H657 0.930 . S
C654 C653 1.369 . S
C654 C663 1.429 . S
C655 C653 1.419 1_455 S
C655 C656 1.363 . S
C655 H658 0.929 . S
C656 C655 1.363 . S
C656 C662 1.428 . S
H657 C653 0.930 . S
H658 C655 0.929 . S
S659 N660 1.613 1_455 S
S659 N661 1.610 . S
N660 S659 1.613 1_655 S
N660 C663 1.350 . S
N661 S659 1.610 . S
N661 C662 1.351 . S
C662 C656 1.428 . S
C662 N661 1.351 . S
C662 C663 1.434 1_455 S
C663 C654 1.429 . S
C663 N660 1.350 . S
C663 C662 1.434 1_655 S
C664 C665 1.369 . S
C664 C666 1.419 1_556 S
C664 H668 0.930 . S
C665 C664 1.369 . S
C665 C674 1.429 . S
C666 C664 1.419 1_554 S
C666 C667 1.363 . S
C666 H669 0.929 . S
C667 C666 1.363 . S
C667 C673 1.428 . S
H668 C664 0.930 . S
H669 C666 0.929 . S
S670 N671 1.613 1_554 S
S670 N672 1.610 . S
N671 S670 1.613 1_556 S
N671 C674 1.350 . S
N672 S670 1.610 . S
N672 C673 1.351 . S
C673 C667 1.428 . S
C673 N672 1.351 . S
C673 C674 1.434 1_554 S
C674 C665 1.429 . S
C674 N671 1.350 . S
C674 C673 1.434 1_556 S
C675 C676 1.369 . S
C675 C677 1.419 1_556 S
C675 H679 0.930 . S
C676 C675 1.369 . S
C676 C685 1.429 . S
C677 C675 1.419 1_554 S
C677 C678 1.363 . S
C677 H680 0.929 . S
C678 C677 1.363 . S
C678 C684 1.428 . S
H679 C675 0.930 . S
H680 C677 0.929 . S
S681 N682 1.613 1_554 S
S681 N683 1.610 . S
N682 S681 1.613 1_556 S
N682 C685 1.350 . S
N683 S681 1.610 . S
N683 C684 1.351 . S
C684 C678 1.428 . S
C684 N683 1.351 . S
C684 C685 1.434 1_554 S
C685 C676 1.429 . S
C685 N682 1.350 . S
C685 C684 1.434 1_556 S
C686 C687 1.369 . S
C686 C688 1.419 1_556 S
C686 H690 0.930 . S
C687 C686 1.369 . S
C687 C696 1.429 . S
C688 C686 1.419 1_554 S
C688 C689 1.363 . S
C688 H691 0.929 . S
C689 C688 1.363 . S
C689 C695 1.428 . S
H690 C686 0.930 . S
H691 C688 0.929 . S
S692 N693 1.613 . S
S692 N694 1.610 1_556 S
N693 S692 1.613 . S
N693 C696 1.350 . S
N694 S692 1.610 1_554 S
N694 C695 1.351 . S
C695 C689 1.428 . S
C695 N694 1.351 . S
C695 C696 1.434 1_554 S
C696 C687 1.429 . S
C696 N693 1.350 . S
C696 C695 1.434 1_556 S
C697 C698 1.369 . S
C697 C699 1.419 1_556 S
C697 H701 0.930 . S
C698 C697 1.369 . S
C698 C707 1.429 . S
C699 C697 1.419 1_554 S
C699 C700 1.363 . S
C699 H702 0.929 . S
C700 C699 1.363 . S
C700 C706 1.428 . S
H701 C697 0.930 . S
H702 C699 0.929 . S
S703 N704 1.613 1_554 S
S703 N705 1.610 . S
N704 S703 1.613 1_556 S
N704 C707 1.350 . S
N705 S703 1.610 . S
N705 C706 1.351 . S
C706 C700 1.428 . S
C706 N705 1.351 . S
C706 C707 1.434 1_554 S
C707 C698 1.429 . S
C707 N704 1.350 . S
C707 C706 1.434 1_556 S
C708 C709 1.369 . S
C708 C710 1.419 . S
C708 H712 0.930 . S
C709 C708 1.369 . S
C709 C718 1.429 . S
C710 C708 1.419 . S
C710 C711 1.363 . S
C710 H713 0.929 . S
C711 C710 1.363 . S
C711 C717 1.428 . S
H712 C708 0.930 . S
H713 C710 0.929 . S
S714 N715 1.613 . S
S714 N716 1.610 . S
N715 S714 1.613 . S
N715 C718 1.350 . S
N716 S714 1.610 . S
N716 C717 1.351 . S
C717 C711 1.428 . S
C717 N716 1.351 . S
C717 C718 1.434 . S
C718 C709 1.429 . S
C718 N715 1.350 . S
C718 C717 1.434 . S
C719 C720 1.369 . S
C719 C721 1.419 . S
C719 H723 0.930 . S
C720 C719 1.369 . S
C720 C729 1.429 . S
C721 C719 1.419 . S
C721 C722 1.363 . S
C721 H724 0.929 . S
C722 C721 1.363 . S
C722 C728 1.428 . S
H723 C719 0.930 . S
H724 C721 0.929 . S
S725 N726 1.613 . S
S725 N727 1.610 . S
N726 S725 1.613 . S
N726 C729 1.350 . S
N727 S725 1.610 . S
N727 C728 1.351 . S
C728 C722 1.428 . S
C728 N727 1.351 . S
C728 C729 1.434 . S
C729 C720 1.429 . S
C729 N726 1.350 . S
C729 C728 1.434 . S
C730 C731 1.369 . S
C730 C732 1.419 . S
C730 H734 0.930 . S
C731 C730 1.369 . S
C731 C740 1.429 . S
C732 C730 1.419 . S
C732 C733 1.363 . S
C732 H735 0.929 . S
C733 C732 1.363 . S
C733 C739 1.428 . S
H734 C730 0.930 . S
H735 C732 0.929 . S
S736 N737 1.613 . S
S736 N738 1.610 . S
N737 S736 1.613 . S
N737 C740 1.350 . S
N738 S736 1.610 . S
N738 C739 1.351 . S
C739 C733 1.428 . S
C739 N738 1.351 . S
C739 C740 1.434 . S
C740 C731 1.429 . S
C740 N737 1.350 . S
C740 C739 1.434 . S
C741 C742 1.369 . S
C741 C743 1.419 . S
C741 H745 0.930 . S
C742 C741 1.369 . S
C742 C751 1.429 . S
C743 C741 1.419 . S
C743 C744 1.363 . S
C743 H746 0.929 . S
C744 C743 1.363 . S
C744 C750 1.428 . S
H745 C741 0.930 . S
H746 C743 0.929 . S
S747 N748 1.613 . S
S747 N749 1.610 . S
N748 S747 1.613 . S
N748 C751 1.350 . S
N749 S747 1.610 . S
N749 C750 1.351 . S
C750 C744 1.428 . S
C750 N749 1.351 . S
C750 C751 1.434 . S
C751 C742 1.429 . S
C751 N748 1.350 . S
C751 C750 1.434 . S
C752 C753 1.369 . S
C752 C754 1.419 . S
C752 H756 0.930 . S
C753 C752 1.369 . S
C753 C762 1.429 . S
C754 C752 1.419 . S
C754 C755 1.363 . S
C754 H757 0.929 . S
C755 C754 1.363 . S
C755 C761 1.428 . S
H756 C752 0.930 . S
H757 C754 0.929 . S
S758 N759 1.613 . S
S758 N760 1.610 . S
N759 S758 1.613 . S
N759 C762 1.350 . S
N760 S758 1.610 . S
N760 C761 1.351 . S
C761 C755 1.428 . S
C761 N760 1.351 . S
C761 C762 1.434 . S
C762 C753 1.429 . S
C762 N759 1.350 . S
C762 C761 1.434 . S
C763 C764 1.369 . S
C763 C765 1.419 . S
C763 H767 0.930 . S
C764 C763 1.369 . S
C764 C773 1.429 . S
C765 C763 1.419 . S
C765 C766 1.363 . S
C765 H768 0.929 . S
C766 C765 1.363 . S
C766 C772 1.428 . S
H767 C763 0.930 . S
H768 C765 0.929 . S
S769 N770 1.613 . S
S769 N771 1.610 . S
N770 S769 1.613 . S
N770 C773 1.350 . S
N771 S769 1.610 . S
N771 C772 1.351 . S
C772 C766 1.428 . S
C772 N771 1.351 . S
C772 C773 1.434 . S
C773 C764 1.429 . S
C773 N770 1.350 . S
C773 C772 1.434 . S
C774 C775 1.369 . S
C774 C776 1.419 . S
C774 H778 0.930 . S
C775 C774 1.369 . S
C775 C784 1.429 . S
C776 C774 1.419 . S
C776 C777 1.363 . S
C776 H779 0.929 . S
C777 C776 1.363 . S
C777 C783 1.428 . S
H778 C774 0.930 . S
H779 C776 0.929 . S
S780 N781 1.613 . S
S780 N782 1.610 . S
N781 S780 1.613 . S
N781 C784 1.350 . S
N782 S780 1.610 . S
N782 C783 1.351 . S
C783 C777 1.428 . S
C783 N782 1.351 . S
C783 C784 1.434 . S
C784 C775 1.429 . S
C784 N781 1.350 . S
C784 C783 1.434 . S
C785 C786 1.369 . S
C785 C787 1.419 . S
C785 H789 0.930 . S
C786 C785 1.369 . S
C786 C795 1.429 . S
C787 C785 1.419 . S
C787 C788 1.363 . S
C787 H790 0.929 . S
C788 C787 1.363 . S
C788 C794 1.428 . S
H789 C785 0.930 . S
H790 C787 0.929 . S
S791 N792 1.613 . S
S791 N793 1.610 . S
N792 S791 1.613 . S
N792 C795 1.350 . S
N793 S791 1.610 . S
N793 C794 1.351 . S
C794 C788 1.428 . S
C794 N793 1.351 . S
C794 C795 1.434 . S
C795 C786 1.429 . S
C795 N792 1.350 . S
C795 C794 1.434 . S
C796 C797 1.369 . S
C796 C798 1.419 . S
C796 H800 0.930 . S
C797 C796 1.369 . S
C797 C806 1.429 . S
C798 C796 1.419 . S
C798 C799 1.363 . S
C798 H801 0.929 . S
C799 C798 1.363 . S
C799 C805 1.428 . S
H800 C796 0.930 . S
H801 C798 0.929 . S
S802 N803 1.613 . S
S802 N804 1.610 . S
N803 S802 1.613 . S
N803 C806 1.350 . S
N804 S802 1.610 . S
N804 C805 1.351 . S
C805 C799 1.428 . S
C805 N804 1.351 . S
C805 C806 1.434 . S
C806 C797 1.429 . S
C806 N803 1.350 . S
C806 C805 1.434 . S
C807 C808 1.369 . S
C807 C809 1.419 . S
C807 H811 0.930 . S
C808 C807 1.369 . S
C808 C817 1.429 . S
C809 C807 1.419 . S
C809 C810 1.363 . S
C809 H812 0.929 . S
C810 C809 1.363 . S
C810 C816 1.428 . S
H811 C807 0.930 . S
H812 C809 0.929 . S
S813 N814 1.613 . S
S813 N815 1.610 . S
N814 S813 1.613 . S
N814 C817 1.350 . S
N815 S813 1.610 . S
N815 C816 1.351 . S
C816 C810 1.428 . S
C816 N815 1.351 . S
C816 C817 1.434 . S
C817 C808 1.429 . S
C817 N814 1.350 . S
C817 C816 1.434 . S
C818 C819 1.369 . S
C818 C820 1.419 . S
C818 H822 0.930 . S
C819 C818 1.369 . S
C819 C828 1.429 . S
C820 C818 1.419 . S
C820 C821 1.363 . S
C820 H823 0.929 . S
C821 C820 1.363 . S
C821 C827 1.428 . S
H822 C818 0.930 . S
H823 C820 0.929 . S
S824 N825 1.613 . S
S824 N826 1.610 . S
N825 S824 1.613 . S
N825 C828 1.350 . S
N826 S824 1.610 . S
N826 C827 1.351 . S
C827 C821 1.428 . S
C827 N826 1.351 . S
C827 C828 1.434 . S
C828 C819 1.429 . S
C828 N825 1.350 . S
C828 C827 1.434 . S
C829 C830 1.369 . S
C829 C831 1.419 . S
C829 H833 0.930 . S
C830 C829 1.369 . S
C830 C839 1.429 . S
C831 C829 1.419 . S
C831 C832 1.363 . S
C831 H834 0.929 . S
C832 C831 1.363 . S
C832 C838 1.428 . S
H833 C829 0.930 . S
H834 C831 0.929 . S
S835 N836 1.613 . S
S835 N837 1.610 . S
N836 S835 1.613 . S
N836 C839 1.350 . S
N837 S835 1.610 . S
N837 C838 1.351 . S
C838 C832 1.428 . S
C838 N837 1.351 . S
C838 C839 1.434 . S
C839 C830 1.429 . S
C839 N836 1.350 . S
C839 C838 1.434 . S
C313 C153 1.584 . S
C315 C3 1.598 . S
C324 C16 1.599 . S
C326 C108 1.581 . S
C335 C31 1.597 . S
C337 C121 1.583 . S
C346 C42 1.600 . S
C348 C134 1.582 . S
C357 C173 1.580 . S
C359 C55 1.598 . S
C368 C68 1.601 . S
C370 C186 1.587 . S
C379 C199 1.588 . S
C381 C81 1.601 . S
C390 C160 1.580 . S
C392 C96 1.600 . S
C401 C75 1.580 . S
C403 C109 1.598 . S
C412 C88 1.580 . S
C414 C122 1.598 . S
C423 C135 1.602 . S
C425 C95 1.587 . S
C434 C62 1.580 . S
C436 C146 1.598 . S
C445 C49 1.582 . S
C447 C161 1.601 . S
C456 C174 1.598 . S
C458 C10 1.584 . S
C467 C187 1.600 . S
C469 C23 1.587 . S
C478 C200 1.598 . S
C480 C30 1.581 . S
C489 C213 1.601 . S
C491 C309 1.587 . S
C500 C264 1.581 . S
C502 C224 1.598 . S
C511 C239 1.597 . S
C513 C231 1.584 . S
C522 C250 1.603 . S
C524 C238 1.584 . S
C533 C257 1.583 . S
C535 C265 1.602 . S
C544 C278 1.597 . S
C546 C290 1.582 . S
C555 C212 1.588 . S
C557 C291 1.602 . S
C566 C277 1.582 . S
C568 C302 1.598 . S
C577 C5 1.619 . S
C579 C83 1.623 . S
C588 C18 1.619 . S
C590 C94 1.623 . S
C599 C29 1.620 . S
C601 C57 1.621 . S
C610 C70 1.620 . S
C612 C44 1.623 . S
C621 C133 1.620 . S
C623 C107 1.623 . S
C632 C120 1.619 . S
C634 C148 1.621 . S
C643 C159 1.622 . S
C645 C185 1.620 . S
C654 C198 1.624 . S
C656 C172 1.620 . S
C665 C226 1.624 . S
C667 C211 1.621 . S
C676 C237 1.624 . S
C678 C304 1.620 . S
C687 C252 1.619 . S
C689 C276 1.623 . S
C698 C263 1.624 . S
C700 C289 1.620 . S
C709 C4 1.140 . S
C711 C69 1.139 . S
C720 C17 1.140 . S
C722 C82 1.139 . S
C731 C36 1.139 . S
C733 C101 1.139 . S
C742 C56 1.139 . S
C744 C43 1.139 . S
C753 C114 1.138 . S
C755 C303 1.138 . S
C764 C127 1.138 . S
C766 C283 1.138 . S
C775 C296 1.138 . S
C777 C140 1.138 . S
C786 C147 1.138 . S
C788 C218 1.139 . S
C797 C270 1.138 . S
C799 C166 1.138 . S
C808 C225 1.137 . S
C810 C179 1.138 . S
C819 C192 1.139 . S
C821 C244 1.139 . S
C830 C251 1.138 . S
C832 C205 1.138 . S
