# Generated by pormake.
# Topology acs-h, (5)-cn, num edge types: 1
# Building blocks:
#     Node 0, Type 0, BuildingBlock: BEQFEK_clean_sbu_0, # of connection points: 5
#     Node 1, Type 0, BuildingBlock: BEQFEK_clean_sbu_0, # of connection points: 5
#     Node 2, Type 0, BuildingBlock: BEQFEK_clean_sbu_0, # of connection points: 5
#     Node 3, Type 0, BuildingBlock: BEQFEK_clean_sbu_0, # of connection points: 5
#     Node 4, Type 0, BuildingBlock: BEQFEK_clean_sbu_0, # of connection points: 5
#     Node 5, Type 0, BuildingBlock: BEQFEK_clean_sbu_0, # of connection points: 5
#     Node 6, Type 0, BuildingBlock: BEQFEK_clean_sbu_0, # of connection points: 5
#     Node 7, Type 0, BuildingBlock: BEQFEK_clean_sbu_0, # of connection points: 5
#     Node 8, Type 0, BuildingBlock: BEQFEK_clean_sbu_0, # of connection points: 5
#     Node 9, Type 0, BuildingBlock: BEQFEK_clean_sbu_0, # of connection points: 5
#     Node 10, Type 0, BuildingBlock: BEQFEK_clean_sbu_0, # of connection points: 5
#     Node 11, Type 0, BuildingBlock: BEQFEK_clean_sbu_0, # of connection points: 5
#     Edge 12, Type (0, 0), BuildingBlock: CIFDUS_clean_linker_0, # of connection points: 2
#     Edge 13, Type (0, 0), BuildingBlock: CIFDUS_clean_linker_0, # of connection points: 2
#     Edge 14, Type (0, 0), BuildingBlock: CIFDUS_clean_linker_0, # of connection points: 2
#     Edge 15, Type (0, 0), BuildingBlock: CIFDUS_clean_linker_0, # of connection points: 2
#     Edge 16, Type (0, 0), BuildingBlock: CIFDUS_clean_linker_0, # of connection points: 2
#     Edge 17, Type (0, 0), BuildingBlock: CIFDUS_clean_linker_0, # of connection points: 2
#     Edge 18, Type (0, 0), BuildingBlock: CIFDUS_clean_linker_0, # of connection points: 2
#     Edge 19, Type (0, 0), BuildingBlock: CIFDUS_clean_linker_0, # of connection points: 2
#     Edge 20, Type (0, 0), BuildingBlock: CIFDUS_clean_linker_0, # of connection points: 2
#     Edge 21, Type (0, 0), BuildingBlock: CIFDUS_clean_linker_0, # of connection points: 2
#     Edge 22, Type (0, 0), BuildingBlock: CIFDUS_clean_linker_0, # of connection points: 2
#     Edge 23, Type (0, 0), BuildingBlock: CIFDUS_clean_linker_0, # of connection points: 2
#     Edge 24, Type (0, 0), BuildingBlock: CIFDUS_clean_linker_0, # of connection points: 2
#     Edge 25, Type (0, 0), BuildingBlock: CIFDUS_clean_linker_0, # of connection points: 2
#     Edge 26, Type (0, 0), BuildingBlock: CIFDUS_clean_linker_0, # of connection points: 2
#     Edge 27, Type (0, 0), BuildingBlock: CIFDUS_clean_linker_0, # of connection points: 2
#     Edge 28, Type (0, 0), BuildingBlock: CIFDUS_clean_linker_0, # of connection points: 2
#     Edge 29, Type (0, 0), BuildingBlock: CIFDUS_clean_linker_0, # of connection points: 2
#     Edge 30, Type (0, 0), BuildingBlock: CIFDUS_clean_linker_0, # of connection points: 2
#     Edge 31, Type (0, 0), BuildingBlock: CIFDUS_clean_linker_0, # of connection points: 2
#     Edge 32, Type (0, 0), BuildingBlock: CIFDUS_clean_linker_0, # of connection points: 2
#     Edge 33, Type (0, 0), BuildingBlock: CIFDUS_clean_linker_0, # of connection points: 2
#     Edge 34, Type (0, 0), BuildingBlock: CIFDUS_clean_linker_0, # of connection points: 2
#     Edge 35, Type (0, 0), BuildingBlock: CIFDUS_clean_linker_0, # of connection points: 2
#     Edge 36, Type (0, 0), BuildingBlock: CIFDUS_clean_linker_0, # of connection points: 2
#     Edge 37, Type (0, 0), BuildingBlock: CIFDUS_clean_linker_0, # of connection points: 2
#     Edge 38, Type (0, 0), BuildingBlock: CIFDUS_clean_linker_0, # of connection points: 2
#     Edge 39, Type (0, 0), BuildingBlock: CIFDUS_clean_linker_0, # of connection points: 2
#     Edge 40, Type (0, 0), BuildingBlock: CIFDUS_clean_linker_0, # of connection points: 2
#     Edge 41, Type (0, 0), BuildingBlock: CIFDUS_clean_linker_0, # of connection points: 2
# Relax obj value: 1.241
# Max RMSD: 0.208
# Mean RMSD: 0.208
data_MOF--net-acs-h--node1-BEQFEK_clean_sbu_0--edge1-CIFDUS_clean_linker_0
_symmetry_space_group_name_H-M    P1
_symmetry_Int_Tables_number       1
_symmetry_cell_setting            triclinic
loop_
_symmetry_equiv_pos_as_xyz
'x, y, z'
_cell_length_a     37.613876
_cell_length_b     37.629154
_cell_length_c     33.105262
_cell_angle_alpha  89.908811
_cell_angle_beta   90.141308
_cell_angle_gamma 119.95167
loop_
_atom_site_label
_atom_site_type_symbol
_atom_site_fract_x
_atom_site_fract_y
_atom_site_fract_z
_atom_type_partial_charge
Co0 Co 0.45161 0.07331 0.10104 0.0
Co1 Co 0.45245 0.13195 0.03497 0.0
C2 C 0.5298 0.1409 0.068 0.0
O3 O 0.51137 0.1073 0.08761 0.0
O4 O 0.51018 0.1557 0.05016 0.0
C5 C 0.4526 0.01041 0.14976 0.0
O6 O 0.46737 0.0018 0.11766 0.0
C7 C 0.47167 0.21341 0.01416 0.0
C8 C 0.44684 0.2096 0.95291 0.0
C9 C 0.468 0.23673 0.98402 0.0
N10 N 0.45283 0.17405 0.00224 0.0
N11 N 0.43785 0.17178 0.96554 0.0
C12 C 0.49604 0.22906 0.05246 0.0
H13 H 0.48733 0.20403 0.07466 0.0
H14 H 0.49153 0.25325 0.06641 0.0
H15 H 0.52913 0.24287 0.04529 0.0
C16 C 0.4154 0.11404 0.14756 0.0
N17 N 0.42703 0.1049 0.11248 0.0
N18 N 0.42093 0.1243 0.08272 0.0
C19 C 0.40357 0.14535 0.0979 0.0
C20 C 0.40027 0.14032 0.13963 0.0
C21 C 0.42441 0.10253 0.18809 0.0
H22 H 0.40045 0.07058 0.19517 0.0
H23 H 0.4545 0.10377 0.18741 0.0
H24 H 0.42484 0.12302 0.21235 0.0
O25 O 0.42337 0.03648 0.05591 0.0
O26 O 0.44553 0.08168 0.0061 0.0
H27 H 0.36216 0.16783 0.08624 0.0
H28 H 0.41451 0.20329 0.07472 0.0
C29 C 0.39064 0.17048 0.07343 0.0
H30 H 0.38517 0.1601 0.04154 0.0
H31 H 0.42225 0.14475 0.94888 0.0
O32 O 0.44451 0.0393 0.14834 0.0
C33 C 0.43472 0.04582 0.01952 0.0
Co34 Co 0.9294 0.38073 0.11438 0.0
Co35 Co 0.86966 0.31729 0.05367 0.0
C36 C 0.85796 0.38536 0.08113 0.0
O37 O 0.89299 0.4036 0.09829 0.0
O38 O 0.84354 0.34953 0.06679 0.0
C39 C 0.99317 0.45171 0.15066 0.0
O40 O 0.9964 0.46729 0.11441 0.0
C41 C 0.78812 0.25394 0.03882 0.0
C42 C 0.78814 0.22458 0.98129 0.0
C43 C 0.7628 0.22392 0.01201 0.0
N44 N 0.82675 0.27217 0.02499 0.0
N45 N 0.82683 0.25437 0.99056 0.0
C46 C 0.77541 0.26397 0.07818 0.0
H47 H 0.80167 0.27958 0.09921 0.0
H48 H 0.751 0.23563 0.09266 0.0
H49 H 0.76266 0.28439 0.07241 0.0
C50 C 0.89628 0.30763 0.16696 0.0
N51 N 0.90078 0.32602 0.13097 0.0
N52 N 0.88096 0.29818 0.10311 0.0
C53 C 0.86388 0.26079 0.12065 0.0
C54 C 0.87262 0.26555 0.16169 0.0
C55 C 0.91136 0.33034 0.20601 0.0
H56 H 0.94535 0.34579 0.20674 0.0
H57 H 0.90274 0.35453 0.20785 0.0
H58 H 0.89881 0.30946 0.23238 0.0
O59 O 0.96404 0.38349 0.06978 0.0
O60 O 0.91764 0.36061 0.02135 0.0
H61 H 0.844 0.22353 0.06693 0.0
H62 H 0.84209 0.19657 0.11292 0.0
C63 C 0.83716 0.2209 0.09968 0.0
H64 H 0.80447 0.21149 0.10442 0.0
H65 H 0.85294 0.26281 0.9732 0.0
O66 O 0.96607 0.41466 0.15727 0.0
C67 C 0.95397 0.38552 0.03375 0.0
Co68 Co 0.60612 0.54824 0.09188 0.0
Co69 Co 0.66854 0.5427 0.03221 0.0
C70 C 0.58535 0.46985 0.04975 0.0
O71 O 0.57459 0.49021 0.07243 0.0
O72 O 0.6211 0.48625 0.03439 0.0
C73 C 0.53737 0.53591 0.13787 0.0
O74 O 0.51728 0.50689 0.11112 0.0
C75 C 0.72188 0.50975 0.02277 0.0
C76 C 0.76962 0.55103 0.97992 0.0
C77 C 0.75873 0.51778 0.00537 0.0
N78 N 0.71167 0.5369 0.00852 0.0
N79 N 0.73994 0.5612 0.98238 0.0
C80 C 0.69982 0.4811 0.05717 0.0
H81 H 0.67868 0.45008 0.04497 0.0
H82 H 0.68135 0.49131 0.07437 0.0
H83 H 0.72178 0.4791 0.07818 0.0
C84 C 0.67255 0.56646 0.15038 0.0
N85 N 0.6568 0.55898 0.11273 0.0
N86 N 0.68513 0.56345 0.0867 0.0
C87 C 0.72038 0.57508 0.10725 0.0
C88 C 0.71345 0.5767 0.14825 0.0
C89 C 0.64798 0.56139 0.18763 0.0
H90 H 0.64732 0.59013 0.19313 0.0
H91 H 0.61595 0.53612 0.18341 0.0
H92 H 0.66157 0.55484 0.21442 0.0
O93 O 0.62108 0.58759 0.0475 0.0
O94 O 0.64475 0.56954 -0.00309 0.0
H95 H 0.76221 0.598 0.05711 0.0
H96 H 0.78629 0.61094 0.10631 0.0
C97 C 0.76083 0.58667 0.08829 0.0
H98 H 0.7653 0.55972 0.08774 0.0
H99 H 0.74021 0.58603 0.96802 0.0
O100 O 0.57584 0.55877 0.134 0.0
C101 C 0.61592 0.57396 0.01177 0.0
Co102 Co 0.92735 0.53751 0.3904 0.0
Co103 Co 0.85842 0.53508 0.44132 0.0
C104 C 0.85654 0.45905 0.42651 0.0
O105 O 0.89286 0.47923 0.41202 0.0
O106 O 0.8361 0.47664 0.43507 0.0
C107 C 0.98987 0.52289 0.36269 0.0
O108 O 0.98628 0.50692 0.3988 0.0
C109 C 0.78004 0.5161 0.47615 0.0
C110 C 0.78181 0.57521 0.4701 0.0
C111 C 0.75515 0.53363 0.47558 0.0
N112 N 0.81894 0.54525 0.46846 0.0
N113 N 0.8201 0.58093 0.4669 0.0
C114 C 0.76606 0.47143 0.48003 0.0
H115 H 0.78942 0.46727 0.49657 0.0
H116 H 0.76198 0.45789 0.44954 0.0
H117 H 0.7363 0.4551 0.49622 0.0
C118 C 0.89048 0.56273 0.32569 0.0
N119 N 0.89457 0.55492 0.3646 0.0
N120 N 0.86556 0.55512 0.38639 0.0
C121 C 0.84057 0.56109 0.36128 0.0
C122 C 0.85582 0.56675 0.32203 0.0
C123 C 0.91824 0.56416 0.29265 0.0
H124 H 0.95061 0.58161 0.30296 0.0
H125 H 0.91112 0.53246 0.28548 0.0
H126 H 0.91462 0.57878 0.265 0.0
O127 O 0.95717 0.57688 0.43254 0.0
O128 O 0.90776 0.54627 0.47627 0.0
H129 H 0.80057 0.58046 0.3858 0.0
H130 H 0.77759 0.54302 0.3462 0.0
C131 C 0.79851 0.55243 0.37263 0.0
H132 H 0.78518 0.52731 0.39496 0.0
H133 H 0.84606 0.60847 0.45874 0.0
O134 O 0.96758 0.53815 0.35312 0.0
C135 C 0.94574 0.56264 0.46757 0.0
Co136 Co 0.44188 0.37171 0.38555 0.0
Co137 Co 0.45942 0.31302 0.43654 0.0
C138 C 0.52739 0.38503 0.40163 0.0
O139 O 0.50312 0.39813 0.39194 0.0
O140 O 0.51424 0.34878 0.41467 0.0
C141 C 0.45148 0.44186 0.34385 0.0
O142 O 0.47961 0.4615 0.37157 0.0
C143 C 0.48725 0.25656 0.46255 0.0
C144 C 0.43427 0.20998 0.49727 0.0
C145 C 0.472 0.21894 0.48173 0.0
N146 N 0.45972 0.26927 0.46637 0.0
N147 N 0.42851 0.24168 0.48792 0.0
C148 C 0.52453 0.2773 0.43613 0.0
H149 H 0.54694 0.3071 0.44989 0.0
H150 H 0.51594 0.28356 0.40601 0.0
H151 H 0.53944 0.25858 0.43183 0.0
C152 C 0.39823 0.29814 0.33452 0.0
N153 N 0.41739 0.31679 0.36903 0.0
N154 N 0.42271 0.29104 0.39151 0.0
C155 C 0.40757 0.25504 0.3715 0.0
C156 C 0.39162 0.25837 0.33453 0.0
C157 C 0.38912 0.31916 0.301 0.0
H158 H 0.37314 0.33478 0.31339 0.0
H159 H 0.41837 0.34288 0.28735 0.0
H160 H 0.36959 0.29713 0.27734 0.0
O161 O 0.41961 0.37465 0.43724 0.0
O162 O 0.45607 0.35477 0.47264 0.0
H163 H 0.40016 0.20908 0.41405 0.0
H164 H 0.40231 0.19524 0.36248 0.0
C165 C 0.41474 0.22093 0.38431 0.0
H166 H 0.44808 0.23282 0.38736 0.0
H167 H 0.40206 0.24317 0.49397 0.0
O168 O 0.43053 0.40303 0.34528 0.0
C169 C 0.44158 0.37882 0.46793 0.0
Co170 Co 0.61596 0.05141 0.39816 0.0
Co171 Co 0.68878 0.11498 0.45297 0.0
C172 C 0.60994 0.11699 0.4431 0.0
O173 O 0.59225 0.08452 0.42164 0.0
O174 O 0.6469 0.13165 0.45466 0.0
C175 C 0.54126 0.00151 0.35601 0.0
O176 O 0.52609 0.0155 0.38332 0.0
C177 C 0.74693 0.19974 0.46371 0.0
C178 C 0.79402 0.2028 0.50573 0.0
C179 C 0.78329 0.22691 0.48276 0.0
N180 N 0.73619 0.16144 0.47502 0.0
N181 N 0.76434 0.16328 0.50032 0.0
C182 C 0.72501 0.20965 0.43152 0.0
H183 H 0.70346 0.21781 0.44585 0.0
H184 H 0.70715 0.183 0.41147 0.0
H185 H 0.74712 0.23608 0.41299 0.0
C186 C 0.67746 0.09398 0.33442 0.0
N187 N 0.66622 0.08647 0.37341 0.0
N188 N 0.69838 0.10791 0.39674 0.0
C189 C 0.73158 0.12916 0.37281 0.0
C190 C 0.71928 0.12177 0.33252 0.0
C191 C 0.64823 0.07511 0.29982 0.0
H192 H 0.63526 0.0414 0.30057 0.0
H193 H 0.62237 0.08116 0.30324 0.0
H194 H 0.66344 0.08678 0.27024 0.0
O195 O 0.63165 0.02451 0.43918 0.0
O196 O 0.66175 0.06519 0.4893 0.0
H197 H 0.77786 0.15178 0.4193 0.0
H198 H 0.79743 0.15826 0.3689 0.0
C199 C 0.77367 0.1591 0.38789 0.0
H200 H 0.7785 0.19064 0.38623 0.0
H201 H 0.76377 0.13767 0.51323 0.0
O202 O 0.57882 0.01167 0.35813 0.0
C203 C 0.62983 0.03391 0.47542 0.0
Co204 Co 0.5557 0.93437 0.88593 0.0
Co205 Co 0.54868 0.86918 0.94779 0.0
C206 C 0.4757 0.87493 0.92524 0.0
O207 O 0.49728 0.90716 0.90432 0.0
O208 O 0.49126 0.85492 0.94094 0.0
C209 C 0.5522 0.99989 0.84927 0.0
O210 O 0.53733 0.00158 0.88462 0.0
C211 C 0.51699 0.78651 0.97689 0.0
C212 C 0.56471 0.78977 0.01815 0.0
C213 C 0.52691 0.76294 0.00124 0.0
N214 N 0.54717 0.82576 0.97928 0.0
N215 N 0.57561 0.82767 0.00424 0.0
C216 C 0.48106 0.77121 0.94873 0.0
H217 H 0.49035 0.78904 0.92019 0.0
H218 H 0.46824 0.7382 0.9417 0.0
H219 H 0.4567 0.77522 0.96319 0.0
C220 C 0.57677 0.88579 0.83086 0.0
N221 N 0.56929 0.89557 0.86777 0.0
N222 N 0.57133 0.8712 0.895 0.0
C223 C 0.58111 0.84542 0.87615 0.0
C224 C 0.58453 0.85344 0.83473 0.0
C225 C 0.5717 0.90399 0.79253 0.0
H226 H 0.54798 0.91299 0.79639 0.0
H227 H 0.56278 0.88208 0.76702 0.0
H228 H 0.6012 0.9319 0.78509 0.0
O229 O 0.59354 0.96532 0.92955 0.0
O230 O 0.5671 0.92135 0.97913 0.0
H231 H 0.60165 0.82503 0.927 0.0
H232 H 0.60583 0.80457 0.87907 0.0
C233 C 0.5867 0.81336 0.8973 0.0
H234 H 0.55633 0.7857 0.9023 0.0
H235 H 0.60289 0.85458 0.01095 0.0
O236 O 0.56311 0.97336 0.8434 0.0
C237 C 0.5807 0.95757 0.96553 0.0
Co238 Co 0.07341 0.62101 0.88748 0.0
Co239 Co 0.13813 0.67942 0.94782 0.0
C240 C 0.1404 0.60698 0.91882 0.0
O241 O 0.10524 0.59286 0.9024 0.0
O242 O 0.15917 0.64274 0.9339 0.0
C243 C 0.00977 0.55134 0.85167 0.0
O244 O 0.00824 0.53649 0.88798 0.0
C245 C 0.22075 0.73882 0.96746 0.0
C246 C 0.21784 0.76779 0.02433 0.0
C247 C 0.24464 0.76859 0.99519 0.0
N248 N 0.18136 0.72149 0.97883 0.0
N249 N 0.17961 0.73884 0.01293 0.0
C250 C 0.23538 0.72534 0.93161 0.0
H251 H 0.21172 0.71324 0.90753 0.0
H252 H 0.26423 0.7507 0.91912 0.0
H253 H 0.24141 0.70055 0.94117 0.0
C254 C 0.11389 0.69496 0.83514 0.0
N255 N 0.10718 0.67573 0.87104 0.0
N256 N 0.13073 0.70203 0.89868 0.0
C257 C 0.15262 0.73933 0.88126 0.0
C258 C 0.14326 0.73604 0.84032 0.0
C259 C 0.09566 0.67319 0.79621 0.0
H260 H 0.09468 0.64323 0.79589 0.0
H261 H 0.11328 0.69165 0.76975 0.0
H262 H 0.06364 0.66705 0.7939 0.0
O263 O 0.03984 0.61962 0.93284 0.0
O264 O 0.08779 0.64 0.97959 0.0
H265 H 0.18274 0.80476 0.88863 0.0
H266 H 0.21368 0.78238 0.90061 0.0
C267 C 0.18229 0.77782 0.90289 0.0
H268 H 0.17374 0.7762 0.93512 0.0
H269 H 0.15254 0.73093 0.02841 0.0
O270 O 0.03551 0.58874 0.84457 0.0
C271 C 0.05044 0.61745 0.96866 0.0
Co272 Co 0.38357 0.44593 0.91334 0.0
Co273 Co 0.32022 0.452 0.97046 0.0
C274 C 0.40081 0.52395 0.96017 0.0
O275 O 0.41149 0.50199 0.93997 0.0
O276 O 0.364 0.50952 0.97202 0.0
C277 C 0.43468 0.48228 0.85415 0.0
O278 O 0.41671 0.50375 0.86206 0.0
C279 C 0.26487 0.47777 0.00263 0.0
C280 C 0.20562 0.42025 -0.00056 0.0
C281 C 0.22267 0.46249 0.0018 0.0
N282 N 0.2722 0.44659 -0.00284 0.0
N283 N 0.2366 0.41203 -0.00259 0.0
C284 C 0.29802 0.52156 0.00703 0.0
H285 H 0.32251 0.52319 0.02701 0.0
H286 H 0.31167 0.53418 0.97707 0.0
H287 H 0.28587 0.54044 0.02028 0.0
C288 C 0.31818 0.42543 0.852 0.0
N289 N 0.33338 0.43465 0.88994 0.0
N290 N 0.30679 0.43739 0.91366 0.0
C291 C 0.27481 0.43229 0.89057 0.0
C292 C 0.28039 0.42353 0.85115 0.0
C293 C 0.3391 0.41793 0.81741 0.0
H294 H 0.35701 0.4037 0.82834 0.0
H295 H 0.36044 0.44762 0.80281 0.0
H296 H 0.31641 0.39771 0.7945 0.0
O297 O 0.36967 0.40363 0.95345 0.0
O298 O 0.34656 0.4246 0.00239 0.0
H299 H 0.21787 0.41622 0.91887 0.0
H300 H 0.23023 0.45118 0.87743 0.0
C301 C 0.24327 0.44298 0.90353 0.0
H302 H 0.25749 0.46976 0.92385 0.0
H303 H 0.23319 0.38327 0.99133 0.0
O304 O 0.42264 0.44849 0.8723 0.0
C305 C 0.37433 0.41765 0.98894 0.0
Co306 Co 0.08058 0.46811 0.60619 0.0
Co307 Co 0.13798 0.46233 0.54345 0.0
C308 C 0.1394 0.54082 0.55763 0.0
O309 O 0.10847 0.5243 0.58109 0.0
O310 O 0.15554 0.52055 0.54437 0.0
C311 C 0.01918 0.47886 0.64045 0.0
O312 O 0.01732 0.4903 0.60336 0.0
C313 C 0.22081 0.48777 0.52409 0.0
C314 C 0.2193 0.44767 0.47479 0.0
C315 C 0.24559 0.47934 0.50015 0.0
N316 N 0.18147 0.46189 0.51434 0.0
N317 N 0.18056 0.43794 0.48468 0.0
C318 C 0.23445 0.52107 0.55522 0.0
H319 H 0.21121 0.5122 0.57938 0.0
H320 H 0.26416 0.52848 0.56912 0.0
H321 H 0.23842 0.54929 0.5404 0.0
C322 C 0.13032 0.4484 0.66245 0.0
N323 N 0.11812 0.45291 0.62541 0.0
N324 N 0.1375 0.44398 0.59784 0.0
C325 C 0.16202 0.43243 0.61667 0.0
C326 C 0.15899 0.4356 0.65816 0.0
C327 C 0.11728 0.45949 0.70083 0.0
H328 H 0.08909 0.43221 0.7121 0.0
H329 H 0.11013 0.48434 0.69523 0.0
H330 H 0.14145 0.46929 0.72436 0.0
O331 O 0.04461 0.4259 0.56766 0.0
O332 O 0.08427 0.44336 0.51424 0.0
H333 H 0.17485 0.40505 0.56579 0.0
H334 H 0.18983 0.39457 0.61437 0.0
C335 C 0.1879 0.41815 0.5958 0.0
H336 H 0.21951 0.4442 0.59212 0.0
H337 H 0.15371 0.41484 0.47148 0.0
O338 O 0.04498 0.46757 0.64907 0.0
C339 C 0.04925 0.43206 0.52998 0.0
Co340 Co 0.56283 0.63292 0.59346 0.0
Co341 Co 0.55033 0.68642 0.52992 0.0
C342 C 0.47872 0.6178 0.56256 0.0
O343 O 0.5021 0.60781 0.58133 0.0
O344 O 0.49318 0.65159 0.54371 0.0
C345 C 0.54616 0.61239 0.67095 0.0
O346 O 0.53039 0.636 0.66355 0.0
C347 C 0.52405 0.7366 0.4874 0.0
C348 C 0.58189 0.79553 0.48497 0.0
C349 C 0.53966 0.77858 0.48307 0.0
N350 N 0.55517 0.72948 0.49463 0.0
N351 N 0.58986 0.76473 0.49112 0.0
C352 C 0.47983 0.70378 0.48578 0.0
H353 H 0.47713 0.67591 0.47145 0.0
H354 H 0.46698 0.69567 0.51667 0.0
H355 H 0.4616 0.71436 0.4683 0.0
C356 C 0.60926 0.71241 0.63537 0.0
N357 N 0.59008 0.69008 0.60232 0.0
N358 N 0.57965 0.71143 0.57876 0.0
C359 C 0.5885 0.74659 0.59809 0.0
C360 C 0.60789 0.74851 0.63452 0.0
C361 C 0.62897 0.69988 0.6674 0.0
H362 H 0.63316 0.67428 0.65677 0.0
H363 H 0.61008 0.69063 0.69509 0.0
H364 H 0.65924 0.72647 0.67558 0.0
O365 O 0.58637 0.61975 0.54836 0.0
O366 O 0.55982 0.6431 0.50287 0.0
H367 H 0.59457 0.79996 0.569 0.0
H368 H 0.56355 0.78552 0.61356 0.0
C369 C 0.57124 0.77339 0.58646 0.0
H370 H 0.54315 0.75593 0.56807 0.0
H371 H 0.61869 0.76865 0.49815 0.0
O372 O 0.56441 0.605 0.64289 0.0
C373 C 0.57194 0.618 0.51325 0.0
Co374 Co 0.40223 0.94485 0.60285 0.0
Co375 Co 0.33221 0.87637 0.55247 0.0
C376 C 0.40588 0.87198 0.56844 0.0
O377 O 0.42339 0.90816 0.58306 0.0
O378 O 0.36807 0.85302 0.55907 0.0
C379 C 0.48063 0.99845 0.63468 0.0
O380 O 0.49237 0.98805 0.6016 0.0
C381 C 0.26878 0.7961 0.52431 0.0
C382 C 0.21784 0.80692 0.50852 0.0
C383 C 0.22766 0.77625 0.51337 0.0
N384 N 0.28258 0.83663 0.52618 0.0
N385 N 0.25229 0.84302 0.5156 0.0
C386 C 0.29267 0.77657 0.53951 0.0
H387 H 0.31969 0.78583 0.51975 0.0
H388 H 0.30387 0.78741 0.57055 0.0
H389 H 0.27445 0.74271 0.54044 0.0
C390 C 0.33856 0.91166 0.6666 0.0
N391 N 0.3506 0.91461 0.62786 0.0
N392 N 0.3201 0.88702 0.60602 0.0
C393 C 0.28767 0.86486 0.63059 0.0
C394 C 0.29822 0.87969 0.66998 0.0
C395 C 0.36624 0.93757 0.69999 0.0
H396 H 0.38255 0.97022 0.69056 0.0
H397 H 0.38967 0.92849 0.70595 0.0
H398 H 0.34882 0.9343 0.72808 0.0
O399 O 0.39748 0.97529 0.55787 0.0
O400 O 0.36874 0.92376 0.51573 0.0
H401 H 0.23319 0.83279 0.59498 0.0
H402 H 0.22947 0.80934 0.64336 0.0
C403 C 0.2503 0.82583 0.61796 0.0
H404 H 0.25976 0.80502 0.6045 0.0
H405 H 0.2542 0.87166 0.51635 0.0
O406 O 0.44257 0.98392 0.641 0.0
C407 C 0.39607 0.96085 0.52303 0.0
H408 H 0.46803 0.99286 0.33363 0.0
H409 H 0.56461 0.97158 0.29243 0.0
H410 H 0.53905 0.96334 0.22335 0.0
H411 H 0.4992 0.97767 0.17369 0.0
H412 H 0.4067 0.00489 0.21506 0.0
H413 H 0.42015 0.99456 0.2849 0.0
C414 C 0.48284 0.98531 0.30975 0.0
C415 C 0.51891 0.98418 0.31787 0.0
C416 C 0.46903 0.98229 0.26991 0.0
C417 C 0.53728 0.97355 0.28676 0.0
C418 C 0.52279 0.969 0.24719 0.0
C419 C 0.48114 0.98004 0.19793 0.0
C420 C 0.45275 0.99293 0.1895 0.0
C421 C 0.49021 0.97572 0.23814 0.0
C422 C 0.42933 0.99574 0.22105 0.0
C423 C 0.43706 0.98995 0.26097 0.0
H424 H 0.01046 0.42944 0.22215 0.0
H425 H 0.02049 0.53353 0.15721 0.0
H426 H 0.03132 0.57067 0.2206 0.0
H427 H 0.0197 0.56558 0.29372 0.0
H428 H 0.00573 0.45979 0.35849 0.0
H429 H 0.01599 0.43171 0.29603 0.0
C430 C 0.01636 0.46077 0.22189 0.0
C431 C 0.0134 0.47837 0.18552 0.0
C432 C 0.02132 0.48134 0.25842 0.0
C433 C 0.02207 0.51923 0.18506 0.0
C434 C 0.02794 0.54033 0.22131 0.0
C435 C 0.02033 0.53706 0.29429 0.0
C436 C 0.0107 0.51405 0.3301 0.0
C437 C 0.02484 0.52054 0.25816 0.0
C438 C 0.01254 0.47771 0.33103 0.0
C439 C 0.01801 0.46147 0.29527 0.0
H440 H 0.46018 0.48121 0.16217 0.0
H441 H 0.57209 0.58749 0.20216 0.0
H442 H 0.54943 0.57207 0.27208 0.0
H443 H 0.50618 0.5198 0.32139 0.0
H444 H 0.39725 0.41052 0.28111 0.0
H445 H 0.40988 0.43622 0.212 0.0
C446 C 0.47911 0.50167 0.18606 0.0
C447 C 0.51834 0.53454 0.17717 0.0
C448 C 0.46669 0.49169 0.22631 0.0
C449 C 0.5421 0.56135 0.20832 0.0
C450 C 0.52927 0.55247 0.24838 0.0
C451 C 0.48454 0.50214 0.29772 0.0
C452 C 0.45167 0.46274 0.30605 0.0
C453 C 0.49288 0.5163 0.25779 0.0
C454 C 0.4234 0.44057 0.27525 0.0
C455 C 0.43067 0.45516 0.23566 0.0
H456 H 0.59208 0.01568 0.77811 0.0
H457 H 0.49921 0.02913 0.84116 0.0
H458 H 0.47386 0.04012 0.77713 0.0
H459 H 0.46776 0.02835 0.70404 0.0
H460 H 0.55841 0.01095 0.64125 0.0
H461 H 0.59567 0.02024 0.70429 0.0
C462 C 0.56711 0.02231 0.77785 0.0
C463 C 0.54661 0.02028 0.81392 0.0
C464 C 0.55192 0.02724 0.74095 0.0
C465 C 0.51505 0.02992 0.81359 0.0
C466 C 0.50032 0.03588 0.77696 0.0
C467 C 0.49631 0.02776 0.70398 0.0
C468 C 0.5095 0.0174 0.66851 0.0
C469 C 0.51685 0.03186 0.74047 0.0
C470 C 0.54713 0.01796 0.66843 0.0
C471 C 0.56835 0.02304 0.70451 0.0
H472 H 0.99452 0.43863 0.71131 0.0
H473 H 0.99876 0.53868 0.6436 0.0
H474 H 0.98582 0.56607 0.70515 0.0
H475 H 0.99055 0.57003 0.77912 0.0
H476 H 0.98822 0.47083 0.84684 0.0
H477 H 0.98176 0.43383 0.78433 0.0
C478 C 0.99129 0.4657 0.70997 0.0
C479 C 0.99872 0.48739 0.67356 0.0
C480 C 0.98464 0.4816 0.74548 0.0
C481 C 0.9936 0.52183 0.67158 0.0
C482 C 0.98651 0.53765 0.70678 0.0
C483 C 0.98719 0.53967 0.78016 0.0
C484 C 0.99114 0.52364 0.81713 0.0
C485 C 0.98458 0.51913 0.74413 0.0
C486 C 0.98581 0.48398 0.81854 0.0
C487 C 0.98251 0.46298 0.78279 0.0
H488 H 0.52389 0.5341 0.68999 0.0
H489 H 0.557 0.65192 0.74145 0.0
H490 H 0.53487 0.62101 0.8078 0.0
H491 H 0.4925 0.55978 0.84668 0.0
H492 H 0.44847 0.44034 0.7942 0.0
H493 H 0.48915 0.47203 0.73307 0.0
C494 C 0.52736 0.5529 0.71615 0.0
C495 C 0.54187 0.595 0.71126 0.0
C496 C 0.512 0.53442 0.75376 0.0
C497 C 0.54593 0.61942 0.74481 0.0
C498 C 0.53308 0.60175 0.78265 0.0
C499 C 0.4928 0.54074 0.82218 0.0
C500 C 0.46731 0.49819 0.82405 0.0
C501 C 0.51402 0.55914 0.78685 0.0
C502 C 0.46804 0.47335 0.79294 0.0
C503 C 0.49085 0.49149 0.75796 0.0
H504 H 0.51073 0.07713 0.98824 0.0
H505 H 0.40106 0.96293 0.01528 0.0
H506 H 0.43855 0.92586 0.00615 0.0
H507 H 0.50337 0.92663 0.99463 0.0
H508 H 0.61277 0.04042 0.96572 0.0
H509 H 0.57508 0.07749 0.9739 0.0
C510 C 0.49465 0.04394 0.99063 0.0
C511 C 0.45281 0.02262 0.00133 0.0
C512 C 0.51688 0.02315 0.98711 0.0
C513 C 0.4329 0.97982 0.00599 0.0
C514 C 0.45456 0.95877 0.00159 0.0
C515 C 0.51919 0.95963 0.99072 0.0
C516 C 0.56108 0.98085 0.98019 0.0
C517 C 0.49679 0.98029 0.99328 0.0
C518 C 0.58081 0.02355 0.97463 0.0
C519 C 0.55908 0.04459 0.97859 0.0
H520 H 0.92441 0.43191 0.00126 0.0
H521 H 0.03649 0.43275 0.03095 0.0
H522 H 0.07538 0.50715 0.02218 0.0
H523 H 0.07821 0.57131 0.00397 0.0
H524 H 0.96688 0.57139 0.97288 0.0
H525 H 0.92692 0.49729 0.98493 0.0
C526 C 0.95759 0.44813 0.00392 0.0
C527 C 0.97777 0.42656 0.01524 0.0
C528 C 0.97976 0.49112 -0.0004 0.0
C529 C 0.02053 0.44842 0.02073 0.0
C530 C 0.04268 0.49098 0.01632 0.0
C531 C 0.04504 0.55544 0.00114 0.0
C532 C 0.02547 0.57707 0.98833 0.0
C533 C 0.02264 0.51266 0.00603 0.0
C534 C 0.98256 0.5556 0.98354 0.0
C535 C 0.95984 0.51311 0.9896 0.0
H536 H 0.44463 0.42575 0.95625 0.0
H537 H 0.40198 0.47675 0.04835 0.0
H538 H 0.47224 0.53158 0.06011 0.0
H539 H 0.5457 0.56547 0.04419 0.0
H540 H 0.58869 0.51392 0.95309 0.0
H541 H 0.51822 0.45951 0.94051 0.0
C542 C 0.45061 0.44851 0.97931 0.0
C543 C 0.41761 0.44696 0.00115 0.0
C544 C 0.49118 0.48026 0.98578 0.0
C545 C 0.42641 0.47681 0.03105 0.0
C546 C 0.46666 0.50851 0.03756 0.0
C547 C 0.53977 0.54244 0.02143 0.0
C548 C 0.57282 0.54376 0.0 0.0
C549 C 0.49923 0.51069 0.01493 0.0
C550 C 0.56416 0.51387 0.97019 0.0
C551 C 0.52381 0.48246 0.96321 0.0
H552 H 0.07497 0.50721 0.49903 0.0
H553 H 0.96574 0.3927 0.52568 0.0
H554 H 0.9236 0.42478 0.51429 0.0
H555 H 0.91836 0.4861 0.49831 0.0
H556 H 0.02854 0.60133 0.47543 0.0
H557 H 0.07017 0.5689 0.48649 0.0
C558 C 0.04186 0.48903 0.50139 0.0
C559 C 0.02336 0.44731 0.51201 0.0
C560 C 0.01827 0.50833 0.49738 0.0
C561 C 0.98051 0.42451 0.51627 0.0
C562 C 0.95656 0.44308 0.51057 0.0
C563 C 0.95155 0.50443 0.49699 0.0
C564 C 0.97037 0.54636 0.48667 0.0
C565 C 0.9752 0.48519 0.50192 0.0
C566 C 0.01339 0.56928 0.48406 0.0
C567 C 0.03713 0.55056 0.48959 0.0
H568 H 0.44163 0.44788 0.44289 0.0
H569 H 0.49824 0.40554 0.52958 0.0
H570 H 0.54847 0.4766 0.54628 0.0
H571 H 0.57647 0.55044 0.53584 0.0
H572 H 0.52103 0.5922 0.44706 0.0
H573 H 0.47216 0.52129 0.42943 0.0
C574 C 0.46471 0.45394 0.46569 0.0
C575 C 0.46584 0.421 0.48496 0.0
C576 C 0.49475 0.49479 0.47364 0.0
C577 C 0.49613 0.42999 0.51451 0.0
C578 C 0.52533 0.47069 0.5236 0.0
C579 C 0.55434 0.54427 0.51196 0.0
C580 C 0.55248 0.57709 0.49316 0.0
C581 C 0.52528 0.5033 0.50291 0.0
C582 C 0.52354 0.56796 0.46211 0.0
C583 C 0.49499 0.52728 0.45249 0.0
H584 H 0.55543 0.97674 0.44661 0.0
H585 H 0.6117 0.07427 0.53444 0.0
H586 H 0.54446 0.06557 0.55078 0.0
H587 H 0.46957 0.02836 0.54222 0.0
H588 H 0.41347 0.92875 0.45646 0.0
H589 H 0.4811 0.94188 0.43575 0.0
C590 C 0.55312 0.99614 0.46943 0.0
C591 C 0.58885 0.02625 0.4891 0.0
C592 C 0.51443 0.99123 0.47843 0.0
C593 C 0.58493 0.05073 0.51887 0.0
C594 C 0.54647 0.04609 0.52789 0.0
C595 C 0.47199 0.00994 0.51838 0.0
C596 C 0.43605 0.97703 0.50155 0.0
C597 C 0.51101 0.0164 0.50788 0.0
C598 C 0.44025 0.95408 0.47028 0.0
C599 C 0.47901 0.96119 0.45879 0.0
H600 H 0.42879 0.27945 0.26186 0.0
H601 H 0.33525 0.17671 0.32801 0.0
H602 H 0.32695 0.13072 0.27175 0.0
H603 H 0.35065 0.11942 0.20562 0.0
H604 H 0.44467 0.22319 0.1408 0.0
H605 H 0.44754 0.26937 0.19388 0.0
C606 C 0.40588 0.24716 0.26353 0.0
C607 C 0.38271 0.23134 0.29892 0.0
C608 C 0.40133 0.22118 0.23119 0.0
C609 C 0.35358 0.18938 0.30103 0.0
C610 C 0.34887 0.16317 0.26893 0.0
C611 C 0.37111 0.15224 0.20297 0.0
C612 C 0.39702 0.168 0.16922 0.0
C613 C 0.37318 0.17863 0.23414 0.0
C614 C 0.42375 0.21048 0.16605 0.0
C615 C 0.42578 0.23685 0.19664 0.0
H616 H 0.79289 0.13595 0.30247 0.0
H617 H 0.69688 0.16528 0.28429 0.0
H618 H 0.73508 0.2108 0.22845 0.0
H619 H 0.79711 0.24467 0.18662 0.0
H620 H 0.89562 0.21978 0.20699 0.0
H621 H 0.85578 0.1707 0.26068 0.0
C622 C 0.78061 0.15261 0.28643 0.0
C623 C 0.74216 0.1473 0.29736 0.0
C624 C 0.80334 0.17966 0.25501 0.0
C625 C 0.72617 0.16847 0.27596 0.0
C626 C 0.74811 0.19472 0.24427 0.0
C627 C 0.8096 0.22827 0.20288 0.0
C628 C 0.84888 0.23536 0.19326 0.0
C629 C 0.78684 0.20083 0.23379 0.0
C630 C 0.86527 0.21443 0.21421 0.0
C631 C 0.84253 0.18651 0.24477 0.0
H632 H 0.82109 0.61362 0.30635 0.0
H633 H 0.84098 0.52005 0.25425 0.0
H634 H 0.80104 0.51702 0.19481 0.0
H635 H 0.75643 0.53747 0.15966 0.0
H636 H 0.73287 0.62806 0.21294 0.0
H637 H 0.77731 0.63514 0.27035 0.0
C638 C 0.81684 0.59281 0.28179 0.0
C639 C 0.83445 0.56752 0.28448 0.0
C640 C 0.79265 0.59028 0.24823 0.0
C641 C 0.82866 0.54058 0.25255 0.0
C642 C 0.80537 0.53846 0.21873 0.0
C643 C 0.76161 0.55924 0.18355 0.0
C644 C 0.74169 0.58241 0.18211 0.0
C645 C 0.7868 0.56277 0.21648 0.0
C646 C 0.74783 0.60982 0.21361 0.0
C647 C 0.77328 0.61392 0.2463 0.0
H648 H 0.63124 0.8802 0.76635 0.0
H649 H 0.54347 0.77018 0.82833 0.0
H650 H 0.54569 0.72828 0.77343 0.0
H651 H 0.56902 0.72278 0.70596 0.0
H652 H 0.65305 0.83195 0.64096 0.0
H653 H 0.65515 0.87449 0.69821 0.0
C654 C 0.61267 0.84705 0.76776 0.0
C655 C 0.58768 0.82836 0.80172 0.0
C656 C 0.61315 0.82307 0.73534 0.0
C657 C 0.56381 0.78537 0.80316 0.0
C658 C 0.56469 0.76135 0.77152 0.0
C659 C 0.58854 0.75584 0.70477 0.0
C660 C 0.61163 0.77432 0.66984 0.0
C661 C 0.58896 0.77985 0.73736 0.0
C662 C 0.63549 0.81721 0.66788 0.0
C663 C 0.63657 0.84142 0.70052 0.0
H664 H 0.225 0.77403 0.82789 0.0
H665 H 0.11392 0.76491 0.78079 0.0
H666 H 0.1529 0.81235 0.72584 0.0
H667 H 0.21848 0.85377 0.68947 0.0
H668 H 0.3279 0.8572 0.7342 0.0
H669 H 0.29028 0.81621 0.79267 0.0
C670 C 0.20951 0.78306 0.80597 0.0
C671 C 0.16681 0.76644 0.80842 0.0
C672 C 0.23198 0.80959 0.77424 0.0
C673 C 0.14683 0.77748 0.77938 0.0
C674 C 0.16911 0.80457 0.74807 0.0
C675 C 0.23401 0.84566 0.71221 0.0
C676 C 0.27596 0.85866 0.70756 0.0
C677 C 0.21167 0.82043 0.74491 0.0
C678 C 0.29584 0.8482 0.73733 0.0
C679 C 0.27421 0.82432 0.77056 0.0
H680 H 0.1387 0.39202 0.72829 0.0
H681 H 0.24218 0.47875 0.65795 0.0
H682 H 0.28938 0.48049 0.7098 0.0
H683 H 0.30116 0.46036 0.77722 0.0
H684 H 0.19789 0.37294 0.84738 0.0
H685 H 0.15079 0.36837 0.7939 0.0
C686 C 0.1716 0.41107 0.72441 0.0
C687 C 0.18701 0.43502 0.68939 0.0
C688 C 0.19861 0.41188 0.75441 0.0
C689 C 0.22967 0.45958 0.68446 0.0
C690 C 0.25667 0.46077 0.71419 0.0
C691 C 0.26843 0.43968 0.78035 0.0
C692 C 0.25297 0.41713 0.81619 0.0
C693 C 0.24152 0.4373 0.74947 0.0
C694 C 0.21043 0.39085 0.82012 0.0
C695 C 0.18349 0.38827 0.7896 0.0
H696 H 0.45186 0.28241 0.03548 0.0
H697 H 0.52724 0.29122 0.93397 0.0
H698 H 0.56939 0.3655 0.94416 0.0
H699 H 0.58905 0.42596 0.98664 0.0
H700 H 0.51403 0.41721 0.08885 0.0
H701 H 0.46743 0.34468 0.0739 0.0
C702 C 0.47712 0.3009 0.01523 0.0
C703 C 0.4869 0.28174 0.98428 0.0
C704 C 0.5016 0.34324 0.02193 0.0
C705 C 0.51925 0.30561 0.95786 0.0
C706 C 0.54353 0.34788 0.96399 0.0
C707 C 0.56248 0.40823 0.00566 0.0
C708 C 0.55556 0.4267 0.03943 0.0
C709 C 0.53578 0.36672 -0.00324 0.0
C710 C 0.52036 0.40359 0.06304 0.0
C711 C 0.49369 0.36215 0.05447 0.0
H712 H 0.71317 0.25517 0.01815 0.0
H713 H 0.71214 0.14035 0.0137 0.0
H714 H 0.63926 0.10362 0.03331 0.0
H715 H 0.57696 0.10555 0.05544 0.0
H716 H 0.58156 0.2223 0.06236 0.0
H717 H 0.65269 0.25736 0.03994 0.0
C718 C 0.69686 0.22204 0.02133 0.0
C719 C 0.71768 0.20037 0.01488 0.0
C720 C 0.6561 0.2018 0.03427 0.0
C721 C 0.69636 0.15748 0.01824 0.0
C722 C 0.65501 0.13668 0.03006 0.0
C723 C 0.59395 0.13871 0.05281 0.0
C724 C 0.57437 0.16149 0.06107 0.0
C725 C 0.63485 0.15871 0.03914 0.0
C726 C 0.59618 0.20429 0.05648 0.0
C727 C 0.63668 0.22428 0.04333 0.0
H728 H 0.88772 0.46633 0.06284 0.0
H729 H 0.77563 0.35124 0.07955 0.0
H730 H 0.73569 0.38102 0.05386 0.0
H731 H 0.73253 0.43821 0.02367 0.0
H732 H 0.84255 0.55559 0.01092 0.0
H733 H 0.88373 0.52606 0.03587 0.0
C734 C 0.8545 0.44821 0.06176 0.0
C735 C 0.8346 0.4066 0.07315 0.0
C736 C 0.83152 0.4656 0.0466 0.0
C737 C 0.79162 0.38319 0.07077 0.0
C738 C 0.76875 0.40014 0.0559 0.0
C739 C 0.76536 0.45772 0.0273 0.0
C740 C 0.78423 0.4993 0.0166 0.0
C741 C 0.78839 0.44106 0.04321 0.0
C742 C 0.8272 0.52346 0.0192 0.0
C743 C 0.85069 0.50671 0.0339 0.0
H744 H 0.71797 0.47473 0.41885 0.0
H745 H 0.69431 0.5471 0.50377 0.0
H746 H 0.62148 0.51075 0.48384 0.0
H747 H 0.56408 0.45453 0.44557 0.0
H748 H 0.58866 0.37796 0.36722 0.0
H749 H 0.66217 0.41965 0.38151 0.0
C750 C 0.69688 0.48185 0.43406 0.0
C751 C 0.71114 0.51224 0.46419 0.0
C752 C 0.65546 0.46034 0.42315 0.0
C753 C 0.68374 0.52306 0.48126 0.0
C754 C 0.64226 0.50237 0.46979 0.0
C755 C 0.58583 0.44772 0.43107 0.0
C756 C 0.57155 0.41394 0.40477 0.0
C757 C 0.62771 0.47054 0.44113 0.0
C758 C 0.59941 0.40432 0.38696 0.0
C759 C 0.64121 0.42789 0.3954 0.0
H760 H 0.52833 0.09291 0.4329 0.0
H761 H 0.64125 0.18838 0.48514 0.0
H762 H 0.6074 0.22593 0.50523 0.0
H763 H 0.54731 0.23475 0.5041 0.0
H764 H 0.43397 0.14082 0.45251 0.0
H765 H 0.46585 0.09919 0.43713 0.0
C766 C 0.54548 0.12193 0.44862 0.0
C767 C 0.58764 0.13818 0.45639 0.0
C768 C 0.52565 0.14358 0.46061 0.0
C769 C 0.60908 0.17539 0.47777 0.0
C770 C 0.5897 0.19694 0.4896 0.0
C771 C 0.52956 0.20488 0.48999 0.0
C772 C 0.48871 0.19091 0.47902 0.0
C773 C 0.54826 0.18174 0.4806 0.0
C774 C 0.4656 0.15206 0.4612 0.0
C775 C 0.48392 0.1285 0.45207 0.0
H776 H 0.89507 0.41365 0.43577 0.0
H777 H 0.77635 0.40529 0.44077 0.0
H778 H 0.74534 0.33534 0.46465 0.0
H779 H 0.75088 0.27619 0.48341 0.0
H780 H 0.86615 0.27878 0.47228 0.0
H781 H 0.90014 0.35189 0.45371 0.0
C782 C 0.86238 0.39631 0.4417 0.0
C783 C 0.83819 0.41504 0.43678 0.0
C784 C 0.84429 0.35533 0.45509 0.0
C785 C 0.79591 0.39215 0.44485 0.0
C786 C 0.77802 0.35198 0.45855 0.0
C787 C 0.78335 0.29255 0.47635 0.0
C788 C 0.80576 0.27201 0.47798 0.0
C789 C 0.80185 0.33336 0.46378 0.0
C790 C 0.84823 0.29406 0.47089 0.0
C791 C 0.86748 0.33561 0.45981 0.0
H792 H 0.38903 0.57909 0.00232 0.0
H793 H 0.48245 0.56578 0.94012 0.0
H794 H 0.53194 0.63809 0.95231 0.0
H795 H 0.54674 0.70684 0.97521 0.0
H796 H 0.45188 0.71957 0.03444 0.0
H797 H 0.40497 0.64559 0.02951 0.0
C798 C 0.42021 0.59177 0.9916 0.0
C799 C 0.43168 0.56706 0.96977 0.0
C800 C 0.44835 0.63335 -0.00161 0.0
C801 C 0.47253 0.58416 0.95655 0.0
C802 C 0.50093 0.62553 0.96358 0.0
C803 C 0.51615 0.69301 0.98798 0.0
C804 C 0.50264 0.7181 0.00558 0.0
C805 C 0.48897 0.65063 0.98379 0.0
C806 C 0.46278 0.70044 0.02123 0.0
C807 C 0.43595 0.65832 0.01808 0.0
H808 H 0.28965 0.82627 0.94004 0.0
H809 H 0.29932 0.76576 0.04655 0.0
H810 H 0.37307 0.79502 0.03481 0.0
H811 H 0.43242 0.83125 0.99009 0.0
H812 H 0.42316 0.8919 0.88316 0.0
H813 H 0.35126 0.86889 0.89892 0.0
C814 C 0.30833 0.82047 0.96111 0.0
C815 C 0.28958 0.79401 0.99399 0.0
C816 C 0.35027 0.83652 0.95351 0.0
C817 C 0.31351 0.78636 0.02125 0.0
C818 C 0.35542 0.80264 0.01422 0.0
C819 C 0.41466 0.83936 0.97014 0.0
C820 C 0.43268 0.86231 0.93491 0.0
C821 C 0.37373 0.82653 0.97968 0.0
C822 C 0.40972 0.87372 0.91009 0.0
C823 C 0.36873 0.86071 0.91917 0.0
H824 H 0.10495 0.53101 0.95209 0.0
H825 H 0.21778 0.62606 0.90067 0.0
H826 H 0.25295 0.589 0.92088 0.0
H827 H 0.25199 0.53157 0.95488 0.0
H828 H 0.1424 0.44007 0.01457 0.0
H829 H 0.10485 0.47246 0.98768 0.0
C830 C 0.13704 0.54304 0.94487 0.0
C831 C 0.1588 0.58083 0.92459 0.0
C832 C 0.1576 0.52262 0.95856 0.0
C833 C 0.2005 0.59677 0.91587 0.0
C834 C 0.22061 0.5758 0.92773 0.0
C835 C 0.2206 0.51969 0.96424 0.0
C836 C 0.20088 0.48457 0.98895 0.0
C837 C 0.19973 0.53932 0.95 0.0
C838 C 0.15882 0.46787 -0.00312 0.0
C839 C 0.1373 0.48644 0.9815 0.0
H840 H 0.43316 0.60699 0.49605 0.0
H841 H 0.42701 0.55853 0.61554 0.0
H842 H 0.35455 0.50726 0.60456 0.0
H843 H 0.29223 0.47926 0.56208 0.0
H844 H 0.29907 0.52821 0.44284 0.0
H845 H 0.37272 0.57579 0.45194 0.0
C846 C 0.41584 0.58555 0.51989 0.0
C847 C 0.43492 0.58723 0.55702 0.0
C848 C 0.37475 0.55592 0.513 0.0
C849 C 0.41266 0.55817 0.58701 0.0
C850 C 0.37141 0.52882 0.58063 0.0
C851 C 0.31022 0.49987 0.5379 0.0
C852 C 0.29068 0.50062 0.5019 0.0
C853 C 0.3521 0.52769 0.54387 0.0
C854 C 0.31382 0.52713 0.4706 0.0
C855 C 0.35567 0.55458 0.47605 0.0
H856 H 0.47155 0.89932 0.51882 0.0
H857 H 0.39204 0.79904 0.59672 0.0
H858 H 0.42699 0.76159 0.57726 0.0
H859 H 0.47934 0.75763 0.53849 0.0
H860 H 0.55487 0.85331 0.4544 0.0
H861 H 0.52279 0.89317 0.47636 0.0
C862 C 0.4624 0.86947 0.53171 0.0
C863 C 0.42994 0.852 0.55964 0.0
C864 C 0.48146 0.84737 0.51893 0.0
C865 C 0.4174 0.81304 0.57564 0.0
C866 C 0.43715 0.79164 0.56432 0.0
C867 C 0.48767 0.78619 0.52335 0.0
C868 C 0.51812 0.80143 0.49327 0.0
C869 C 0.46877 0.80828 0.53563 0.0
C870 C 0.53073 0.84039 0.47682 0.0
C871 C 0.51255 0.86322 0.48953 0.0
H872 H 0.23146 0.71503 0.47596 0.0
H873 H 0.16025 0.73903 0.56173 0.0
H874 H 0.12355 0.66652 0.5817 0.0
H875 H 0.11861 0.59828 0.58071 0.0
H876 H 0.19537 0.57785 0.49796 0.0
H877 H 0.22332 0.64672 0.47154 0.0
C878 C 0.20721 0.704 0.49835 0.0
C879 C 0.19867 0.73196 0.51764 0.0
C880 C 0.18806 0.66309 0.51109 0.0
C881 C 0.16715 0.71775 0.54646 0.0
C882 C 0.14665 0.67649 0.55826 0.0
C883 C 0.1414 0.60894 0.5569 0.0
C884 C 0.15536 0.58302 0.54206 0.0
C885 C 0.15803 0.6492 0.54191 0.0
C886 C 0.18451 0.5972 0.51069 0.0
C887 C 0.20042 0.6366 0.4952 0.0
loop_
_geom_bond_atom_site_label_1
_geom_bond_atom_site_label_2
_geom_bond_distance
_geom_bond_site_symmetry_2
_ccdc_geom_bond_type
Co0 O3 1.970 . S
Co0 N17 1.989 . S
Co0 O25 1.967 . S
Co0 O32 1.920 . S
Co1 O4 1.966 . S
Co1 N10 2.022 1_554 S
Co1 N18 1.993 . S
Co1 O26 1.941 . S
C2 O3 1.258 . S
C2 O4 1.263 . S
O3 Co0 1.970 . S
O3 C2 1.258 . S
O4 Co1 1.966 . S
O4 C2 1.263 . S
C5 O6 1.235 . S
C5 O32 1.289 . S
O6 C5 1.235 . S
C7 C9 1.400 . S
C7 N10 1.351 . S
C7 C12 1.501 . S
C8 C9 1.387 . S
C8 N11 1.341 . S
C9 C7 1.400 . S
C9 C8 1.387 . S
N10 Co1 2.022 1_556 S
N10 C7 1.351 . S
N10 N11 1.365 . S
N11 C8 1.341 . S
N11 N10 1.365 . S
N11 H31 0.862 . S
C12 C7 1.501 . S
C12 H13 0.961 1_556 S
C12 H14 0.961 1_556 S
C12 H15 0.960 . S
H13 C12 0.961 1_554 S
H14 C12 0.961 1_554 S
H15 C12 0.960 . S
C16 N17 1.342 . S
C16 C20 1.401 . S
C16 C21 1.499 . S
N17 Co0 1.989 . S
N17 C16 1.342 . S
N17 N18 1.388 . S
N18 Co1 1.993 . S
N18 N17 1.388 . S
N18 C19 1.346 . S
C19 N18 1.346 . S
C19 C20 1.396 . S
C19 C29 1.510 . S
C20 C16 1.401 . S
C20 C19 1.396 . S
C21 C16 1.499 . S
C21 H22 0.959 . S
C21 H23 0.960 . S
C21 H24 0.961 . S
H22 C21 0.959 . S
H23 C21 0.960 . S
H24 C21 0.961 . S
O25 Co0 1.967 . S
O25 C33 1.258 . S
O26 Co1 1.941 . S
O26 C33 1.266 . S
H27 C29 0.959 . S
H28 C29 0.961 . S
C29 C19 1.510 . S
C29 H27 0.959 . S
C29 H28 0.961 . S
C29 H30 0.960 . S
H30 C29 0.960 . S
H31 N11 0.862 . S
O32 Co0 1.920 . S
O32 C5 1.289 . S
C33 O25 1.258 . S
C33 O26 1.266 . S
Co34 O37 1.970 . S
Co34 N51 1.989 . S
Co34 O59 1.967 . S
Co34 O66 1.920 . S
Co35 O38 1.966 . S
Co35 N44 2.022 1_554 S
Co35 N52 1.993 . S
Co35 O60 1.941 . S
C36 O37 1.258 . S
C36 O38 1.263 . S
O37 Co34 1.970 . S
O37 C36 1.258 . S
O38 Co35 1.966 . S
O38 C36 1.263 . S
C39 O40 1.235 . S
C39 O66 1.289 . S
O40 C39 1.235 . S
C41 C43 1.400 . S
C41 N44 1.351 . S
C41 C46 1.501 . S
C42 C43 1.387 . S
C42 N45 1.341 . S
C43 C41 1.400 . S
C43 C42 1.387 . S
N44 Co35 2.022 1_556 S
N44 C41 1.351 . S
N44 N45 1.365 . S
N45 C42 1.341 . S
N45 N44 1.365 . S
N45 H65 0.862 . S
C46 C41 1.501 . S
C46 H47 0.961 1_556 S
C46 H48 0.961 1_556 S
C46 H49 0.960 . S
H47 C46 0.961 1_554 S
H48 C46 0.961 1_554 S
H49 C46 0.960 . S
C50 N51 1.342 . S
C50 C54 1.401 . S
C50 C55 1.499 . S
N51 Co34 1.989 . S
N51 C50 1.342 . S
N51 N52 1.388 . S
N52 Co35 1.993 . S
N52 N51 1.388 . S
N52 C53 1.346 . S
C53 N52 1.346 . S
C53 C54 1.396 . S
C53 C63 1.510 . S
C54 C50 1.401 . S
C54 C53 1.396 . S
C55 C50 1.499 . S
C55 H56 0.959 . S
C55 H57 0.960 . S
C55 H58 0.961 . S
H56 C55 0.959 . S
H57 C55 0.960 . S
H58 C55 0.961 . S
O59 Co34 1.967 . S
O59 C67 1.258 . S
O60 Co35 1.941 . S
O60 C67 1.266 . S
H61 C63 0.959 . S
H62 C63 0.961 . S
C63 C53 1.510 . S
C63 H61 0.959 . S
C63 H62 0.961 . S
C63 H64 0.960 . S
H64 C63 0.960 . S
H65 N45 0.862 . S
O66 Co34 1.920 . S
O66 C39 1.289 . S
C67 O59 1.258 . S
C67 O60 1.266 . S
Co68 O71 1.970 . S
Co68 N85 1.989 . S
Co68 O93 1.967 . S
Co68 O100 1.920 . S
Co69 O72 1.966 . S
Co69 N78 2.022 1_554 S
Co69 N86 1.993 . S
Co69 O94 1.941 . S
C70 O71 1.258 . S
C70 O72 1.263 . S
O71 Co68 1.970 . S
O71 C70 1.258 . S
O72 Co69 1.966 . S
O72 C70 1.263 . S
C73 O74 1.235 . S
C73 O100 1.289 . S
O74 C73 1.235 . S
C75 C77 1.400 . S
C75 N78 1.351 . S
C75 C80 1.501 . S
C76 C77 1.387 . S
C76 N79 1.341 . S
C77 C75 1.400 . S
C77 C76 1.387 . S
N78 Co69 2.022 1_556 S
N78 C75 1.351 . S
N78 N79 1.365 . S
N79 C76 1.341 . S
N79 N78 1.365 . S
N79 H99 0.862 . S
C80 C75 1.501 . S
C80 H81 0.961 1_556 S
C80 H82 0.961 1_556 S
C80 H83 0.960 . S
H81 C80 0.961 1_554 S
H82 C80 0.961 1_554 S
H83 C80 0.960 . S
C84 N85 1.342 . S
C84 C88 1.401 . S
C84 C89 1.499 . S
N85 Co68 1.989 . S
N85 C84 1.342 . S
N85 N86 1.388 . S
N86 Co69 1.993 . S
N86 N85 1.388 . S
N86 C87 1.346 . S
C87 N86 1.346 . S
C87 C88 1.396 . S
C87 C97 1.510 . S
C88 C84 1.401 . S
C88 C87 1.396 . S
C89 C84 1.499 . S
C89 H90 0.959 . S
C89 H91 0.960 . S
C89 H92 0.961 . S
H90 C89 0.959 . S
H91 C89 0.960 . S
H92 C89 0.961 . S
O93 Co68 1.967 . S
O93 C101 1.258 . S
O94 Co69 1.941 . S
O94 C101 1.266 . S
H95 C97 0.959 . S
H96 C97 0.961 . S
C97 C87 1.510 . S
C97 H95 0.959 . S
C97 H96 0.961 . S
C97 H98 0.960 . S
H98 C97 0.960 . S
H99 N79 0.862 . S
O100 Co68 1.920 . S
O100 C73 1.289 . S
C101 O93 1.258 . S
C101 O94 1.266 . S
Co102 O105 1.970 . S
Co102 N119 1.989 . S
Co102 O127 1.967 . S
Co102 O134 1.920 . S
Co103 O106 1.966 . S
Co103 N112 2.022 . S
Co103 N120 1.993 . S
Co103 O128 1.941 . S
C104 O105 1.258 . S
C104 O106 1.263 . S
O105 Co102 1.970 . S
O105 C104 1.258 . S
O106 Co103 1.966 . S
O106 C104 1.263 . S
C107 O108 1.235 . S
C107 O134 1.289 . S
O108 C107 1.235 . S
C109 C111 1.400 . S
C109 N112 1.351 . S
C109 C114 1.501 . S
C110 C111 1.387 . S
C110 N113 1.341 . S
C111 C109 1.400 . S
C111 C110 1.387 . S
N112 Co103 2.022 . S
N112 C109 1.351 . S
N112 N113 1.365 . S
N113 C110 1.341 . S
N113 N112 1.365 . S
N113 H133 0.862 . S
C114 C109 1.501 . S
C114 H115 0.961 . S
C114 H116 0.961 . S
C114 H117 0.960 . S
H115 C114 0.961 . S
H116 C114 0.961 . S
H117 C114 0.960 . S
C118 N119 1.342 . S
C118 C122 1.401 . S
C118 C123 1.499 . S
N119 Co102 1.989 . S
N119 C118 1.342 . S
N119 N120 1.388 . S
N120 Co103 1.993 . S
N120 N119 1.388 . S
N120 C121 1.346 . S
C121 N120 1.346 . S
C121 C122 1.396 . S
C121 C131 1.510 . S
C122 C118 1.401 . S
C122 C121 1.396 . S
C123 C118 1.499 . S
C123 H124 0.959 . S
C123 H125 0.960 . S
C123 H126 0.961 . S
H124 C123 0.959 . S
H125 C123 0.960 . S
H126 C123 0.961 . S
O127 Co102 1.967 . S
O127 C135 1.258 . S
O128 Co103 1.941 . S
O128 C135 1.266 . S
H129 C131 0.959 . S
H130 C131 0.961 . S
C131 C121 1.510 . S
C131 H129 0.959 . S
C131 H130 0.961 . S
C131 H132 0.960 . S
H132 C131 0.960 . S
H133 N113 0.862 . S
O134 Co102 1.920 . S
O134 C107 1.289 . S
C135 O127 1.258 . S
C135 O128 1.266 . S
Co136 O139 1.970 . S
Co136 N153 1.989 . S
Co136 O161 1.967 . S
Co136 O168 1.920 . S
Co137 O140 1.966 . S
Co137 N146 2.022 . S
Co137 N154 1.993 . S
Co137 O162 1.941 . S
C138 O139 1.258 . S
C138 O140 1.263 . S
O139 Co136 1.970 . S
O139 C138 1.258 . S
O140 Co137 1.966 . S
O140 C138 1.263 . S
C141 O142 1.235 . S
C141 O168 1.289 . S
O142 C141 1.235 . S
C143 C145 1.400 . S
C143 N146 1.351 . S
C143 C148 1.501 . S
C144 C145 1.387 . S
C144 N147 1.341 . S
C145 C143 1.400 . S
C145 C144 1.387 . S
N146 Co137 2.022 . S
N146 C143 1.351 . S
N146 N147 1.365 . S
N147 C144 1.341 . S
N147 N146 1.365 . S
N147 H167 0.862 . S
C148 C143 1.501 . S
C148 H149 0.961 . S
C148 H150 0.961 . S
C148 H151 0.960 . S
H149 C148 0.961 . S
H150 C148 0.961 . S
H151 C148 0.960 . S
C152 N153 1.342 . S
C152 C156 1.401 . S
C152 C157 1.499 . S
N153 Co136 1.989 . S
N153 C152 1.342 . S
N153 N154 1.388 . S
N154 Co137 1.993 . S
N154 N153 1.388 . S
N154 C155 1.346 . S
C155 N154 1.346 . S
C155 C156 1.396 . S
C155 C165 1.510 . S
C156 C152 1.401 . S
C156 C155 1.396 . S
C157 C152 1.499 . S
C157 H158 0.959 . S
C157 H159 0.960 . S
C157 H160 0.961 . S
H158 C157 0.959 . S
H159 C157 0.960 . S
H160 C157 0.961 . S
O161 Co136 1.967 . S
O161 C169 1.258 . S
O162 Co137 1.941 . S
O162 C169 1.266 . S
H163 C165 0.959 . S
H164 C165 0.961 . S
C165 C155 1.510 . S
C165 H163 0.959 . S
C165 H164 0.961 . S
C165 H166 0.960 . S
H166 C165 0.960 . S
H167 N147 0.862 . S
O168 Co136 1.920 . S
O168 C141 1.289 . S
C169 O161 1.258 . S
C169 O162 1.266 . S
Co170 O173 1.970 . S
Co170 N187 1.989 . S
Co170 O195 1.967 . S
Co170 O202 1.920 . S
Co171 O174 1.966 . S
Co171 N180 2.022 . S
Co171 N188 1.993 . S
Co171 O196 1.941 . S
C172 O173 1.258 . S
C172 O174 1.263 . S
O173 Co170 1.970 . S
O173 C172 1.258 . S
O174 Co171 1.966 . S
O174 C172 1.263 . S
C175 O176 1.235 . S
C175 O202 1.289 . S
O176 C175 1.235 . S
C177 C179 1.400 . S
C177 N180 1.351 . S
C177 C182 1.501 . S
C178 C179 1.387 . S
C178 N181 1.341 . S
C179 C177 1.400 . S
C179 C178 1.387 . S
N180 Co171 2.022 . S
N180 C177 1.351 . S
N180 N181 1.365 . S
N181 C178 1.341 . S
N181 N180 1.365 . S
N181 H201 0.862 . S
C182 C177 1.501 . S
C182 H183 0.961 . S
C182 H184 0.961 . S
C182 H185 0.960 . S
H183 C182 0.961 . S
H184 C182 0.961 . S
H185 C182 0.960 . S
C186 N187 1.342 . S
C186 C190 1.401 . S
C186 C191 1.499 . S
N187 Co170 1.989 . S
N187 C186 1.342 . S
N187 N188 1.388 . S
N188 Co171 1.993 . S
N188 N187 1.388 . S
N188 C189 1.346 . S
C189 N188 1.346 . S
C189 C190 1.396 . S
C189 C199 1.510 . S
C190 C186 1.401 . S
C190 C189 1.396 . S
C191 C186 1.499 . S
C191 H192 0.959 . S
C191 H193 0.960 . S
C191 H194 0.961 . S
H192 C191 0.959 . S
H193 C191 0.960 . S
H194 C191 0.961 . S
O195 Co170 1.967 . S
O195 C203 1.258 . S
O196 Co171 1.941 . S
O196 C203 1.266 . S
H197 C199 0.959 . S
H198 C199 0.961 . S
C199 C189 1.510 . S
C199 H197 0.959 . S
C199 H198 0.961 . S
C199 H200 0.960 . S
H200 C199 0.960 . S
H201 N181 0.862 . S
O202 Co170 1.920 . S
O202 C175 1.289 . S
C203 O195 1.258 . S
C203 O196 1.266 . S
Co204 O207 1.970 . S
Co204 N221 1.989 . S
Co204 O229 1.967 . S
Co204 O236 1.920 . S
Co205 O208 1.966 . S
Co205 N214 2.022 1_556 S
Co205 N222 1.993 . S
Co205 O230 1.941 . S
C206 O207 1.258 . S
C206 O208 1.263 . S
O207 Co204 1.970 . S
O207 C206 1.258 . S
O208 Co205 1.966 . S
O208 C206 1.263 . S
C209 O210 1.235 . S
C209 O236 1.289 . S
O210 C209 1.235 . S
C211 C213 1.400 . S
C211 N214 1.351 . S
C211 C216 1.501 . S
C212 C213 1.387 . S
C212 N215 1.341 . S
C213 C211 1.400 . S
C213 C212 1.387 . S
N214 Co205 2.022 1_554 S
N214 C211 1.351 . S
N214 N215 1.365 . S
N215 C212 1.341 . S
N215 N214 1.365 . S
N215 H235 0.862 . S
C216 C211 1.501 . S
C216 H217 0.961 1_554 S
C216 H218 0.961 1_554 S
C216 H219 0.960 . S
H217 C216 0.961 1_556 S
H218 C216 0.961 1_556 S
H219 C216 0.960 . S
C220 N221 1.342 . S
C220 C224 1.401 . S
C220 C225 1.499 . S
N221 Co204 1.989 . S
N221 C220 1.342 . S
N221 N222 1.388 . S
N222 Co205 1.993 . S
N222 N221 1.388 . S
N222 C223 1.346 . S
C223 N222 1.346 . S
C223 C224 1.396 . S
C223 C233 1.510 . S
C224 C220 1.401 . S
C224 C223 1.396 . S
C225 C220 1.499 . S
C225 H226 0.959 . S
C225 H227 0.960 . S
C225 H228 0.961 . S
H226 C225 0.959 . S
H227 C225 0.960 . S
H228 C225 0.961 . S
O229 Co204 1.967 . S
O229 C237 1.258 . S
O230 Co205 1.941 . S
O230 C237 1.266 . S
H231 C233 0.959 . S
H232 C233 0.961 . S
C233 C223 1.510 . S
C233 H231 0.959 . S
C233 H232 0.961 . S
C233 H234 0.960 . S
H234 C233 0.960 . S
H235 N215 0.862 . S
O236 Co204 1.920 . S
O236 C209 1.289 . S
C237 O229 1.258 . S
C237 O230 1.266 . S
Co238 O241 1.970 . S
Co238 N255 1.989 . S
Co238 O263 1.967 . S
Co238 O270 1.920 . S
Co239 O242 1.966 . S
Co239 N248 2.022 1_556 S
Co239 N256 1.993 . S
Co239 O264 1.941 . S
C240 O241 1.258 . S
C240 O242 1.263 . S
O241 Co238 1.970 . S
O241 C240 1.258 . S
O242 Co239 1.966 . S
O242 C240 1.263 . S
C243 O244 1.235 . S
C243 O270 1.289 . S
O244 C243 1.235 . S
C245 C247 1.400 . S
C245 N248 1.351 . S
C245 C250 1.501 . S
C246 C247 1.387 . S
C246 N249 1.341 . S
C247 C245 1.400 . S
C247 C246 1.387 . S
N248 Co239 2.022 1_554 S
N248 C245 1.351 . S
N248 N249 1.365 . S
N249 C246 1.341 . S
N249 N248 1.365 . S
N249 H269 0.862 . S
C250 C245 1.501 . S
C250 H251 0.961 1_554 S
C250 H252 0.961 1_554 S
C250 H253 0.960 . S
H251 C250 0.961 1_556 S
H252 C250 0.961 1_556 S
H253 C250 0.960 . S
C254 N255 1.342 . S
C254 C258 1.401 . S
C254 C259 1.499 . S
N255 Co238 1.989 . S
N255 C254 1.342 . S
N255 N256 1.388 . S
N256 Co239 1.993 . S
N256 N255 1.388 . S
N256 C257 1.346 . S
C257 N256 1.346 . S
C257 C258 1.396 . S
C257 C267 1.510 . S
C258 C254 1.401 . S
C258 C257 1.396 . S
C259 C254 1.499 . S
C259 H260 0.959 . S
C259 H261 0.960 . S
C259 H262 0.961 . S
H260 C259 0.959 . S
H261 C259 0.960 . S
H262 C259 0.961 . S
O263 Co238 1.967 . S
O263 C271 1.258 . S
O264 Co239 1.941 . S
O264 C271 1.266 . S
H265 C267 0.959 . S
H266 C267 0.961 . S
C267 C257 1.510 . S
C267 H265 0.959 . S
C267 H266 0.961 . S
C267 H268 0.960 . S
H268 C267 0.960 . S
H269 N249 0.862 . S
O270 Co238 1.920 . S
O270 C243 1.289 . S
C271 O263 1.258 . S
C271 O264 1.266 . S
Co272 O275 1.970 . S
Co272 N289 1.989 . S
Co272 O297 1.967 . S
Co272 O304 1.920 . S
Co273 O276 1.966 . S
Co273 N282 2.022 1_556 S
Co273 N290 1.993 . S
Co273 O298 1.941 . S
C274 O275 1.258 . S
C274 O276 1.263 . S
O275 Co272 1.970 . S
O275 C274 1.258 . S
O276 Co273 1.966 . S
O276 C274 1.263 . S
C277 O278 1.235 . S
C277 O304 1.289 . S
O278 C277 1.235 . S
C279 C281 1.400 . S
C279 N282 1.351 . S
C279 C284 1.501 . S
C280 C281 1.387 . S
C280 N283 1.341 . S
C281 C279 1.400 . S
C281 C280 1.387 . S
N282 Co273 2.022 1_554 S
N282 C279 1.351 . S
N282 N283 1.365 . S
N283 C280 1.341 . S
N283 N282 1.365 . S
N283 H303 0.862 . S
C284 C279 1.501 . S
C284 H285 0.961 1_554 S
C284 H286 0.961 1_554 S
C284 H287 0.960 . S
H285 C284 0.961 1_556 S
H286 C284 0.961 1_556 S
H287 C284 0.960 . S
C288 N289 1.342 . S
C288 C292 1.401 . S
C288 C293 1.499 . S
N289 Co272 1.989 . S
N289 C288 1.342 . S
N289 N290 1.388 . S
N290 Co273 1.993 . S
N290 N289 1.388 . S
N290 C291 1.346 . S
C291 N290 1.346 . S
C291 C292 1.396 . S
C291 C301 1.510 . S
C292 C288 1.401 . S
C292 C291 1.396 . S
C293 C288 1.499 . S
C293 H294 0.959 . S
C293 H295 0.960 . S
C293 H296 0.961 . S
H294 C293 0.959 . S
H295 C293 0.960 . S
H296 C293 0.961 . S
O297 Co272 1.967 . S
O297 C305 1.258 . S
O298 Co273 1.941 . S
O298 C305 1.266 . S
H299 C301 0.959 . S
H300 C301 0.961 . S
C301 C291 1.510 . S
C301 H299 0.959 . S
C301 H300 0.961 . S
C301 H302 0.960 . S
H302 C301 0.960 . S
H303 N283 0.862 . S
O304 Co272 1.920 . S
O304 C277 1.289 . S
C305 O297 1.258 . S
C305 O298 1.266 . S
Co306 O309 1.970 . S
Co306 N323 1.989 . S
Co306 O331 1.967 . S
Co306 O338 1.920 . S
Co307 O310 1.966 . S
Co307 N316 2.022 . S
Co307 N324 1.993 . S
Co307 O332 1.941 . S
C308 O309 1.258 . S
C308 O310 1.263 . S
O309 Co306 1.970 . S
O309 C308 1.258 . S
O310 Co307 1.966 . S
O310 C308 1.263 . S
C311 O312 1.235 . S
C311 O338 1.289 . S
O312 C311 1.235 . S
C313 C315 1.400 . S
C313 N316 1.351 . S
C313 C318 1.501 . S
C314 C315 1.387 . S
C314 N317 1.341 . S
C315 C313 1.400 . S
C315 C314 1.387 . S
N316 Co307 2.022 . S
N316 C313 1.351 . S
N316 N317 1.365 . S
N317 C314 1.341 . S
N317 N316 1.365 . S
N317 H337 0.862 . S
C318 C313 1.501 . S
C318 H319 0.961 . S
C318 H320 0.961 . S
C318 H321 0.960 . S
H319 C318 0.961 . S
H320 C318 0.961 . S
H321 C318 0.960 . S
C322 N323 1.342 . S
C322 C326 1.401 . S
C322 C327 1.499 . S
N323 Co306 1.989 . S
N323 C322 1.342 . S
N323 N324 1.388 . S
N324 Co307 1.993 . S
N324 N323 1.388 . S
N324 C325 1.346 . S
C325 N324 1.346 . S
C325 C326 1.396 . S
C325 C335 1.510 . S
C326 C322 1.401 . S
C326 C325 1.396 . S
C327 C322 1.499 . S
C327 H328 0.959 . S
C327 H329 0.960 . S
C327 H330 0.961 . S
H328 C327 0.959 . S
H329 C327 0.960 . S
H330 C327 0.961 . S
O331 Co306 1.967 . S
O331 C339 1.258 . S
O332 Co307 1.941 . S
O332 C339 1.266 . S
H333 C335 0.959 . S
H334 C335 0.961 . S
C335 C325 1.510 . S
C335 H333 0.959 . S
C335 H334 0.961 . S
C335 H336 0.960 . S
H336 C335 0.960 . S
H337 N317 0.862 . S
O338 Co306 1.920 . S
O338 C311 1.289 . S
C339 O331 1.258 . S
C339 O332 1.266 . S
Co340 O343 1.970 . S
Co340 N357 1.989 . S
Co340 O365 1.967 . S
Co340 O372 1.920 . S
Co341 O344 1.966 . S
Co341 N350 2.022 . S
Co341 N358 1.993 . S
Co341 O366 1.941 . S
C342 O343 1.258 . S
C342 O344 1.263 . S
O343 Co340 1.970 . S
O343 C342 1.258 . S
O344 Co341 1.966 . S
O344 C342 1.263 . S
C345 O346 1.235 . S
C345 O372 1.289 . S
O346 C345 1.235 . S
C347 C349 1.400 . S
C347 N350 1.351 . S
C347 C352 1.501 . S
C348 C349 1.387 . S
C348 N351 1.341 . S
C349 C347 1.400 . S
C349 C348 1.387 . S
N350 Co341 2.022 . S
N350 C347 1.351 . S
N350 N351 1.365 . S
N351 C348 1.341 . S
N351 N350 1.365 . S
N351 H371 0.862 . S
C352 C347 1.501 . S
C352 H353 0.961 . S
C352 H354 0.961 . S
C352 H355 0.960 . S
H353 C352 0.961 . S
H354 C352 0.961 . S
H355 C352 0.960 . S
C356 N357 1.342 . S
C356 C360 1.401 . S
C356 C361 1.499 . S
N357 Co340 1.989 . S
N357 C356 1.342 . S
N357 N358 1.388 . S
N358 Co341 1.993 . S
N358 N357 1.388 . S
N358 C359 1.346 . S
C359 N358 1.346 . S
C359 C360 1.396 . S
C359 C369 1.510 . S
C360 C356 1.401 . S
C360 C359 1.396 . S
C361 C356 1.499 . S
C361 H362 0.959 . S
C361 H363 0.960 . S
C361 H364 0.961 . S
H362 C361 0.959 . S
H363 C361 0.960 . S
H364 C361 0.961 . S
O365 Co340 1.967 . S
O365 C373 1.258 . S
O366 Co341 1.941 . S
O366 C373 1.266 . S
H367 C369 0.959 . S
H368 C369 0.961 . S
C369 C359 1.510 . S
C369 H367 0.959 . S
C369 H368 0.961 . S
C369 H370 0.960 . S
H370 C369 0.960 . S
H371 N351 0.862 . S
O372 Co340 1.920 . S
O372 C345 1.289 . S
C373 O365 1.258 . S
C373 O366 1.266 . S
Co374 O377 1.970 . S
Co374 N391 1.989 . S
Co374 O399 1.967 . S
Co374 O406 1.920 . S
Co375 O378 1.966 . S
Co375 N384 2.022 . S
Co375 N392 1.993 . S
Co375 O400 1.941 . S
C376 O377 1.258 . S
C376 O378 1.263 . S
O377 Co374 1.970 . S
O377 C376 1.258 . S
O378 Co375 1.966 . S
O378 C376 1.263 . S
C379 O380 1.235 . S
C379 O406 1.289 . S
O380 C379 1.235 . S
C381 C383 1.400 . S
C381 N384 1.351 . S
C381 C386 1.501 . S
C382 C383 1.387 . S
C382 N385 1.341 . S
C383 C381 1.400 . S
C383 C382 1.387 . S
N384 Co375 2.022 . S
N384 C381 1.351 . S
N384 N385 1.365 . S
N385 C382 1.341 . S
N385 N384 1.365 . S
N385 H405 0.862 . S
C386 C381 1.501 . S
C386 H387 0.961 . S
C386 H388 0.961 . S
C386 H389 0.960 . S
H387 C386 0.961 . S
H388 C386 0.961 . S
H389 C386 0.960 . S
C390 N391 1.342 . S
C390 C394 1.401 . S
C390 C395 1.499 . S
N391 Co374 1.989 . S
N391 C390 1.342 . S
N391 N392 1.388 . S
N392 Co375 1.993 . S
N392 N391 1.388 . S
N392 C393 1.346 . S
C393 N392 1.346 . S
C393 C394 1.396 . S
C393 C403 1.510 . S
C394 C390 1.401 . S
C394 C393 1.396 . S
C395 C390 1.499 . S
C395 H396 0.959 . S
C395 H397 0.960 . S
C395 H398 0.961 . S
H396 C395 0.959 . S
H397 C395 0.960 . S
H398 C395 0.961 . S
O399 Co374 1.967 . S
O399 C407 1.258 . S
O400 Co375 1.941 . S
O400 C407 1.266 . S
H401 C403 0.959 . S
H402 C403 0.961 . S
C403 C393 1.510 . S
C403 H401 0.959 . S
C403 H402 0.961 . S
C403 H404 0.960 . S
H404 C403 0.960 . S
H405 N385 0.862 . S
O406 Co374 1.920 . S
O406 C379 1.289 . S
C407 O399 1.258 . S
C407 O400 1.266 . S
H408 C414 0.930 . S
H409 C417 0.930 1_565 S
H410 C418 0.930 . S
H411 C419 0.930 1_565 S
H412 C422 0.930 . S
H413 C423 0.930 . S
C414 H408 0.930 . S
C414 C415 1.355 . S
C414 C416 1.415 . S
C415 C414 1.355 . S
C415 C417 1.419 . S
C416 C414 1.415 . S
C416 C421 1.425 . S
C416 C423 1.409 . S
C417 H409 0.930 1_545 S
C417 C415 1.419 . S
C417 C418 1.362 1_545 S
C418 H410 0.930 . S
C418 C417 1.362 1_565 S
C418 C421 1.409 1_565 S
C419 H411 0.930 1_545 S
C419 C420 1.355 . S
C419 C421 1.415 . S
C420 C419 1.355 . S
C420 C422 1.419 . S
C421 C416 1.425 . S
C421 C418 1.409 1_545 S
C421 C419 1.415 . S
C422 H412 0.930 . S
C422 C420 1.419 . S
C422 C423 1.362 . S
C423 H413 0.930 . S
C423 C416 1.409 . S
C423 C422 1.362 . S
H424 C430 0.930 . S
H425 C433 0.940 . S
H426 C434 0.930 . S
H427 C435 0.930 1_455 S
H428 C438 0.930 . S
H429 C439 0.930 . S
C430 H424 0.930 . S
C430 C431 1.355 . S
C430 C432 1.415 . S
C431 C430 1.355 . S
C431 C433 1.411 1_655 S
C432 C430 1.415 . S
C432 C437 1.425 . S
C432 C439 1.409 . S
C433 H425 0.940 . S
C433 C431 1.411 1_455 S
C433 C434 1.361 . S
C434 H426 0.930 . S
C434 C433 1.361 . S
C434 C437 1.409 1_455 S
C435 H427 0.930 1_655 S
C435 C436 1.355 . S
C435 C437 1.415 . S
C436 C435 1.355 . S
C436 C438 1.419 . S
C437 C432 1.425 . S
C437 C434 1.409 1_655 S
C437 C435 1.415 . S
C438 H428 0.930 . S
C438 C436 1.419 . S
C438 C439 1.362 . S
C439 H429 0.930 . S
C439 C432 1.409 . S
C439 C438 1.362 . S
H440 C446 0.930 . S
H441 C449 0.930 . S
H442 C450 0.930 . S
H443 C451 0.930 . S
H444 C454 0.930 . S
H445 C455 0.930 . S
C446 H440 0.930 . S
C446 C447 1.355 . S
C446 C448 1.415 . S
C447 C446 1.355 . S
C447 C449 1.419 . S
C448 C446 1.415 . S
C448 C453 1.425 . S
C448 C455 1.409 . S
C449 H441 0.930 . S
C449 C447 1.419 . S
C449 C450 1.362 . S
C450 H442 0.930 . S
C450 C449 1.362 . S
C450 C453 1.409 . S
C451 H443 0.930 . S
C451 C452 1.355 . S
C451 C453 1.415 . S
C452 C451 1.355 . S
C452 C454 1.419 . S
C453 C448 1.425 . S
C453 C450 1.409 . S
C453 C451 1.415 . S
C454 H444 0.930 . S
C454 C452 1.419 . S
C454 C455 1.362 . S
C455 H445 0.930 . S
C455 C448 1.409 . S
C455 C454 1.362 . S
H456 C462 0.930 . S
H457 C465 0.930 . S
H458 C466 0.930 . S
H459 C467 0.930 . S
H460 C470 0.930 . S
H461 C471 0.930 . S
C462 H456 0.930 . S
C462 C463 1.355 . S
C462 C464 1.415 . S
C463 C462 1.355 . S
C463 C465 1.419 . S
C464 C462 1.415 . S
C464 C469 1.425 . S
C464 C471 1.409 . S
C465 H457 0.930 . S
C465 C463 1.419 . S
C465 C466 1.362 . S
C466 H458 0.930 . S
C466 C465 1.362 . S
C466 C469 1.409 . S
C467 H459 0.930 . S
C467 C468 1.355 . S
C467 C469 1.415 . S
C468 C467 1.355 . S
C468 C470 1.419 . S
C469 C464 1.425 . S
C469 C466 1.409 . S
C469 C467 1.415 . S
C470 H460 0.930 . S
C470 C468 1.419 . S
C470 C471 1.362 . S
C471 H461 0.930 . S
C471 C464 1.409 . S
C471 C470 1.362 . S
H472 C478 0.930 . S
H473 C481 0.930 . S
H474 C482 0.930 1_655 S
H475 C483 0.930 . S
H476 C486 0.930 . S
H477 C487 0.930 . S
C478 H472 0.930 . S
C478 C479 1.355 . S
C478 C480 1.415 . S
C479 C478 1.355 . S
C479 C481 1.419 . S
C480 C478 1.415 . S
C480 C485 1.425 . S
C480 C487 1.409 . S
C481 H473 0.930 . S
C481 C479 1.419 . S
C481 C482 1.362 . S
C482 H474 0.930 1_455 S
C482 C481 1.362 . S
C482 C485 1.409 . S
C483 H475 0.930 . S
C483 C484 1.355 . S
C483 C485 1.415 . S
C484 C483 1.355 . S
C484 C486 1.419 . S
C485 C480 1.425 . S
C485 C482 1.409 . S
C485 C483 1.415 . S
C486 H476 0.930 . S
C486 C484 1.419 . S
C486 C487 1.362 . S
C487 H477 0.930 . S
C487 C480 1.409 . S
C487 C486 1.362 . S
H488 C494 0.930 . S
H489 C497 0.930 . S
H490 C498 0.930 . S
H491 C499 0.930 . S
H492 C502 0.930 . S
H493 C503 0.930 . S
C494 H488 0.930 . S
C494 C495 1.355 . S
C494 C496 1.415 . S
C495 C494 1.355 . S
C495 C497 1.419 . S
C496 C494 1.415 . S
C496 C501 1.425 . S
C496 C503 1.409 . S
C497 H489 0.930 . S
C497 C495 1.419 . S
C497 C498 1.362 . S
C498 H490 0.930 . S
C498 C497 1.362 . S
C498 C501 1.409 . S
C499 H491 0.930 . S
C499 C500 1.355 . S
C499 C501 1.415 . S
C500 C499 1.355 . S
C500 C502 1.419 . S
C501 C496 1.425 . S
C501 C498 1.409 . S
C501 C499 1.415 . S
C502 H492 0.930 . S
C502 C500 1.419 . S
C502 C503 1.362 . S
C503 H493 0.930 . S
C503 C496 1.409 . S
C503 C502 1.362 . S
H504 C510 0.930 . S
H505 C513 0.930 . S
H506 C514 0.930 . S
H507 C515 0.930 . S
H508 C518 0.930 . S
H509 C519 0.930 . S
C510 H504 0.930 . S
C510 C511 1.355 1_566 S
C510 C512 1.415 . S
C511 C510 1.355 1_544 S
C511 C513 1.419 . S
C512 C510 1.415 . S
C512 C517 1.425 1_566 S
C512 C519 1.409 . S
C513 H505 0.930 . S
C513 C511 1.419 . S
C513 C514 1.362 . S
C514 H506 0.930 . S
C514 C513 1.362 . S
C514 C517 1.409 . S
C515 H507 0.930 . S
C515 C516 1.355 1_544 S
C515 C517 1.415 . S
C516 C515 1.355 1_566 S
C516 C518 1.419 . S
C517 C512 1.425 1_544 S
C517 C514 1.409 . S
C517 C515 1.415 . S
C518 H508 0.930 . S
C518 C516 1.419 . S
C518 C519 1.362 . S
C519 H509 0.930 . S
C519 C512 1.409 . S
C519 C518 1.362 . S
H520 C526 0.930 . S
H521 C529 0.930 . S
H522 C530 0.930 . S
H523 C531 0.930 . S
H524 C534 0.930 . S
H525 C535 0.930 . S
C526 H520 0.930 . S
C526 C527 1.355 1_456 S
C526 C528 1.415 . S
C527 C526 1.355 1_654 S
C527 C529 1.419 . S
C528 C526 1.415 . S
C528 C533 1.425 1_456 S
C528 C535 1.409 . S
C529 H521 0.930 . S
C529 C527 1.419 . S
C529 C530 1.362 . S
C530 H522 0.930 . S
C530 C529 1.362 . S
C530 C533 1.409 . S
C531 H523 0.930 . S
C531 C532 1.355 1_654 S
C531 C533 1.415 . S
C532 C531 1.355 1_456 S
C532 C534 1.419 . S
C533 C528 1.425 1_654 S
C533 C530 1.409 . S
C533 C531 1.415 . S
C534 H524 0.930 . S
C534 C532 1.419 . S
C534 C535 1.362 . S
C535 H525 0.930 . S
C535 C528 1.409 . S
C535 C534 1.362 . S
H536 C542 0.930 . S
H537 C545 0.930 . S
H538 C546 0.930 . S
H539 C547 0.930 . S
H540 C550 0.930 . S
H541 C551 0.930 . S
C542 H536 0.930 . S
C542 C543 1.354 1_556 S
C542 C544 1.415 . S
C543 C542 1.354 1_554 S
C543 C545 1.420 . S
C544 C542 1.415 . S
C544 C549 1.425 1_556 S
C544 C551 1.409 . S
C545 H537 0.930 . S
C545 C543 1.420 . S
C545 C546 1.362 . S
C546 H538 0.930 . S
C546 C545 1.362 . S
C546 C549 1.409 . S
C547 H539 0.930 . S
C547 C548 1.354 1_554 S
C547 C549 1.415 . S
C548 C547 1.354 1_556 S
C548 C550 1.420 . S
C549 C544 1.425 1_554 S
C549 C546 1.409 . S
C549 C547 1.415 . S
C550 H540 0.930 . S
C550 C548 1.420 . S
C550 C551 1.362 . S
C551 H541 0.930 . S
C551 C544 1.409 . S
C551 C550 1.362 . S
H552 C558 0.930 . S
H553 C561 0.930 . S
H554 C562 0.930 . S
H555 C563 0.930 . S
H556 C566 0.930 . S
H557 C567 0.930 . S
C558 H552 0.930 . S
C558 C559 1.355 . S
C558 C560 1.415 . S
C559 C558 1.355 . S
C559 C561 1.419 1_455 S
C560 C558 1.415 . S
C560 C565 1.425 1_455 S
C560 C567 1.409 . S
C561 H553 0.930 . S
C561 C559 1.419 1_655 S
C561 C562 1.362 . S
C562 H554 0.930 . S
C562 C561 1.362 . S
C562 C565 1.409 . S
C563 H555 0.930 . S
C563 C564 1.355 . S
C563 C565 1.415 . S
C564 C563 1.355 . S
C564 C566 1.419 1_655 S
C565 C560 1.425 1_655 S
C565 C562 1.409 . S
C565 C563 1.415 . S
C566 H556 0.930 . S
C566 C564 1.419 1_455 S
C566 C567 1.362 . S
C567 H557 0.930 . S
C567 C560 1.409 . S
C567 C566 1.362 . S
H568 C574 0.930 . S
H569 C577 0.930 . S
H570 C578 0.930 . S
H571 C579 0.930 . S
H572 C582 0.930 . S
H573 C583 0.930 . S
C574 H568 0.930 . S
C574 C575 1.355 . S
C574 C576 1.415 . S
C575 C574 1.355 . S
C575 C577 1.419 . S
C576 C574 1.415 . S
C576 C581 1.425 . S
C576 C583 1.409 . S
C577 H569 0.930 . S
C577 C575 1.419 . S
C577 C578 1.362 . S
C578 H570 0.930 . S
C578 C577 1.362 . S
C578 C581 1.409 . S
C579 H571 0.930 . S
C579 C580 1.355 . S
C579 C581 1.415 . S
C580 C579 1.355 . S
C580 C582 1.419 . S
C581 C576 1.425 . S
C581 C578 1.409 . S
C581 C579 1.415 . S
C582 H572 0.930 . S
C582 C580 1.419 . S
C582 C583 1.362 . S
C583 H573 0.930 . S
C583 C576 1.409 . S
C583 C582 1.362 . S
H584 C590 0.930 . S
H585 C593 0.930 . S
H586 C594 0.930 . S
H587 C595 0.930 . S
H588 C598 0.930 . S
H589 C599 0.930 . S
C590 H584 0.930 . S
C590 C591 1.355 1_565 S
C590 C592 1.415 . S
C591 C590 1.355 1_545 S
C591 C593 1.419 . S
C592 C590 1.415 . S
C592 C597 1.425 1_565 S
C592 C599 1.409 . S
C593 H585 0.930 . S
C593 C591 1.419 . S
C593 C594 1.362 . S
C594 H586 0.930 . S
C594 C593 1.362 . S
C594 C597 1.409 . S
C595 H587 0.930 . S
C595 C596 1.355 1_545 S
C595 C597 1.415 . S
C596 C595 1.355 1_565 S
C596 C598 1.419 . S
C597 C592 1.425 1_545 S
C597 C594 1.409 . S
C597 C595 1.415 . S
C598 H588 0.930 . S
C598 C596 1.419 . S
C598 C599 1.362 . S
C599 H589 0.930 . S
C599 C592 1.409 . S
C599 C598 1.362 . S
H600 C606 0.930 . S
H601 C609 0.930 . S
H602 C610 0.930 . S
H603 C611 0.930 . S
H604 C614 0.930 . S
H605 C615 0.930 . S
C606 H600 0.930 . S
C606 C607 1.355 . S
C606 C608 1.415 . S
C607 C606 1.355 . S
C607 C609 1.419 . S
C608 C606 1.415 . S
C608 C613 1.425 . S
C608 C615 1.409 . S
C609 H601 0.930 . S
C609 C607 1.419 . S
C609 C610 1.362 . S
C610 H602 0.930 . S
C610 C609 1.362 . S
C610 C613 1.409 . S
C611 H603 0.930 . S
C611 C612 1.355 . S
C611 C613 1.415 . S
C612 C611 1.355 . S
C612 C614 1.419 . S
C613 C608 1.425 . S
C613 C610 1.409 . S
C613 C611 1.415 . S
C614 H604 0.930 . S
C614 C612 1.419 . S
C614 C615 1.362 . S
C615 H605 0.930 . S
C615 C608 1.409 . S
C615 C614 1.362 . S
H616 C622 0.930 . S
H617 C625 0.930 . S
H618 C626 0.930 . S
H619 C627 0.930 . S
H620 C630 0.930 . S
H621 C631 0.930 . S
C622 H616 0.930 . S
C622 C623 1.355 . S
C622 C624 1.415 . S
C623 C622 1.355 . S
C623 C625 1.419 . S
C624 C622 1.415 . S
C624 C629 1.425 . S
C624 C631 1.409 . S
C625 H617 0.930 . S
C625 C623 1.419 . S
C625 C626 1.362 . S
C626 H618 0.930 . S
C626 C625 1.362 . S
C626 C629 1.409 . S
C627 H619 0.930 . S
C627 C628 1.355 . S
C627 C629 1.415 . S
C628 C627 1.355 . S
C628 C630 1.419 . S
C629 C624 1.425 . S
C629 C626 1.409 . S
C629 C627 1.415 . S
C630 H620 0.930 . S
C630 C628 1.419 . S
C630 C631 1.362 . S
C631 H621 0.930 . S
C631 C624 1.409 . S
C631 C630 1.362 . S
H632 C638 0.930 . S
H633 C641 0.930 . S
H634 C642 0.930 . S
H635 C643 0.930 . S
H636 C646 0.930 . S
H637 C647 0.930 . S
C638 H632 0.930 . S
C638 C639 1.355 . S
C638 C640 1.415 . S
C639 C638 1.355 . S
C639 C641 1.419 . S
C640 C638 1.415 . S
C640 C645 1.425 . S
C640 C647 1.409 . S
C641 H633 0.930 . S
C641 C639 1.419 . S
C641 C642 1.362 . S
C642 H634 0.930 . S
C642 C641 1.362 . S
C642 C645 1.409 . S
C643 H635 0.930 . S
C643 C644 1.355 . S
C643 C645 1.415 . S
C644 C643 1.355 . S
C644 C646 1.419 . S
C645 C640 1.425 . S
C645 C642 1.409 . S
C645 C643 1.415 . S
C646 H636 0.930 . S
C646 C644 1.419 . S
C646 C647 1.362 . S
C647 H637 0.930 . S
C647 C640 1.409 . S
C647 C646 1.362 . S
H648 C654 0.930 . S
H649 C657 0.930 . S
H650 C658 0.930 . S
H651 C659 0.930 . S
H652 C662 0.930 . S
H653 C663 0.930 . S
C654 H648 0.930 . S
C654 C655 1.355 . S
C654 C656 1.415 . S
C655 C654 1.355 . S
C655 C657 1.419 . S
C656 C654 1.415 . S
C656 C661 1.425 . S
C656 C663 1.409 . S
C657 H649 0.930 . S
C657 C655 1.419 . S
C657 C658 1.362 . S
C658 H650 0.930 . S
C658 C657 1.362 . S
C658 C661 1.409 . S
C659 H651 0.930 . S
C659 C660 1.355 . S
C659 C661 1.415 . S
C660 C659 1.355 . S
C660 C662 1.419 . S
C661 C656 1.425 . S
C661 C658 1.409 . S
C661 C659 1.415 . S
C662 H652 0.930 . S
C662 C660 1.419 . S
C662 C663 1.362 . S
C663 H653 0.930 . S
C663 C656 1.409 . S
C663 C662 1.362 . S
H664 C670 0.930 . S
H665 C673 0.930 . S
H666 C674 0.930 . S
H667 C675 0.930 . S
H668 C678 0.930 . S
H669 C679 0.930 . S
C670 H664 0.930 . S
C670 C671 1.355 . S
C670 C672 1.415 . S
C671 C670 1.355 . S
C671 C673 1.419 . S
C672 C670 1.415 . S
C672 C677 1.425 . S
C672 C679 1.409 . S
C673 H665 0.930 . S
C673 C671 1.419 . S
C673 C674 1.362 . S
C674 H666 0.930 . S
C674 C673 1.362 . S
C674 C677 1.409 . S
C675 H667 0.930 . S
C675 C676 1.355 . S
C675 C677 1.415 . S
C676 C675 1.355 . S
C676 C678 1.419 . S
C677 C672 1.425 . S
C677 C674 1.409 . S
C677 C675 1.415 . S
C678 H668 0.930 . S
C678 C676 1.419 . S
C678 C679 1.362 . S
C679 H669 0.930 . S
C679 C672 1.409 . S
C679 C678 1.362 . S
H680 C686 0.930 . S
H681 C689 0.930 . S
H682 C690 0.930 . S
H683 C691 0.930 . S
H684 C694 0.930 . S
H685 C695 0.930 . S
C686 H680 0.930 . S
C686 C687 1.355 . S
C686 C688 1.415 . S
C687 C686 1.355 . S
C687 C689 1.419 . S
C688 C686 1.415 . S
C688 C693 1.425 . S
C688 C695 1.409 . S
C689 H681 0.930 . S
C689 C687 1.419 . S
C689 C690 1.362 . S
C690 H682 0.930 . S
C690 C689 1.362 . S
C690 C693 1.409 . S
C691 H683 0.930 . S
C691 C692 1.355 . S
C691 C693 1.415 . S
C692 C691 1.355 . S
C692 C694 1.419 . S
C693 C688 1.425 . S
C693 C690 1.409 . S
C693 C691 1.415 . S
C694 H684 0.930 . S
C694 C692 1.419 . S
C694 C695 1.362 . S
C695 H685 0.930 . S
C695 C688 1.409 . S
C695 C694 1.362 . S
H696 C702 0.930 . S
H697 C705 0.930 . S
H698 C706 0.930 . S
H699 C707 0.930 . S
H700 C710 0.930 . S
H701 C711 0.930 . S
C702 H696 0.930 . S
C702 C703 1.355 . S
C702 C704 1.415 1_556 S
C703 C702 1.355 . S
C703 C705 1.419 . S
C704 C702 1.415 1_554 S
C704 C709 1.423 1_554 S
C704 C711 1.409 . S
C705 H697 0.930 . S
C705 C703 1.419 . S
C705 C706 1.362 . S
C706 H698 0.930 . S
C706 C705 1.362 . S
C706 C709 1.418 . S
C707 H699 0.930 . S
C707 C708 1.355 . S
C707 C709 1.409 1_554 S
C708 C707 1.355 . S
C708 C710 1.419 . S
C709 C704 1.423 1_556 S
C709 C706 1.418 . S
C709 C707 1.409 1_556 S
C710 H700 0.930 . S
C710 C708 1.419 . S
C710 C711 1.362 . S
C711 H701 0.930 . S
C711 C704 1.409 . S
C711 C710 1.362 . S
H712 C718 0.930 . S
H713 C721 0.930 . S
H714 C722 0.930 . S
H715 C723 0.930 . S
H716 C726 0.931 . S
H717 C727 0.930 . S
C718 H712 0.930 . S
C718 C719 1.355 . S
C718 C720 1.415 . S
C719 C718 1.355 . S
C719 C721 1.419 1_556 S
C720 C718 1.415 . S
C720 C725 1.425 1_556 S
C720 C727 1.409 . S
C721 H713 0.930 . S
C721 C719 1.419 1_554 S
C721 C722 1.362 . S
C722 H714 0.930 . S
C722 C721 1.362 . S
C722 C725 1.409 . S
C723 H715 0.930 . S
C723 C724 1.355 . S
C723 C725 1.415 . S
C724 C723 1.355 . S
C724 C726 1.414 1_554 S
C725 C720 1.425 1_554 S
C725 C722 1.409 . S
C725 C723 1.415 . S
C726 H716 0.931 . S
C726 C724 1.414 1_556 S
C726 C727 1.366 . S
C727 H717 0.930 . S
C727 C720 1.409 . S
C727 C726 1.366 . S
H728 C734 0.930 . S
H729 C737 0.930 . S
H730 C738 0.930 . S
H731 C739 0.930 . S
H732 C742 0.930 . S
H733 C743 0.930 . S
C734 H728 0.930 . S
C734 C735 1.355 . S
C734 C736 1.415 . S
C735 C734 1.355 . S
C735 C737 1.419 1_554 S
C736 C734 1.415 . S
C736 C741 1.425 1_554 S
C736 C743 1.409 . S
C737 H729 0.930 . S
C737 C735 1.419 1_556 S
C737 C738 1.362 . S
C738 H730 0.930 . S
C738 C737 1.362 . S
C738 C741 1.409 . S
C739 H731 0.930 . S
C739 C740 1.355 . S
C739 C741 1.415 . S
C740 C739 1.355 . S
C740 C742 1.419 1_556 S
C741 C736 1.425 1_556 S
C741 C738 1.409 . S
C741 C739 1.415 . S
C742 H732 0.930 . S
C742 C740 1.419 1_554 S
C742 C743 1.362 . S
C743 H733 0.930 . S
C743 C736 1.409 . S
C743 C742 1.362 . S
H744 C750 0.930 . S
H745 C753 0.930 . S
H746 C754 0.930 . S
H747 C755 0.930 . S
H748 C758 0.930 . S
H749 C759 0.930 . S
C750 H744 0.930 . S
C750 C751 1.355 . S
C750 C752 1.415 . S
C751 C750 1.355 . S
C751 C753 1.419 . S
C752 C750 1.415 . S
C752 C757 1.425 . S
C752 C759 1.409 . S
C753 H745 0.930 . S
C753 C751 1.419 . S
C753 C754 1.362 . S
C754 H746 0.930 . S
C754 C753 1.362 . S
C754 C757 1.409 . S
C755 H747 0.930 . S
C755 C756 1.355 . S
C755 C757 1.415 . S
C756 C755 1.355 . S
C756 C758 1.419 . S
C757 C752 1.425 . S
C757 C754 1.409 . S
C757 C755 1.415 . S
C758 H748 0.930 . S
C758 C756 1.419 . S
C758 C759 1.362 . S
C759 H749 0.930 . S
C759 C752 1.409 . S
C759 C758 1.362 . S
H760 C766 0.930 . S
H761 C769 0.930 . S
H762 C770 0.930 . S
H763 C771 0.930 . S
H764 C774 0.930 . S
H765 C775 0.930 . S
C766 H760 0.930 . S
C766 C767 1.355 . S
C766 C768 1.415 . S
C767 C766 1.355 . S
C767 C769 1.419 . S
C768 C766 1.415 . S
C768 C773 1.425 . S
C768 C775 1.409 . S
C769 H761 0.930 . S
C769 C767 1.419 . S
C769 C770 1.362 . S
C770 H762 0.930 . S
C770 C769 1.362 . S
C770 C773 1.409 . S
C771 H763 0.930 . S
C771 C772 1.355 . S
C771 C773 1.415 . S
C772 C771 1.355 . S
C772 C774 1.419 . S
C773 C768 1.425 . S
C773 C770 1.409 . S
C773 C771 1.415 . S
C774 H764 0.930 . S
C774 C772 1.419 . S
C774 C775 1.362 . S
C775 H765 0.930 . S
C775 C768 1.409 . S
C775 C774 1.362 . S
H776 C782 0.930 . S
H777 C785 0.930 . S
H778 C786 0.930 . S
H779 C787 0.930 . S
H780 C790 0.930 . S
H781 C791 0.930 . S
C782 H776 0.930 . S
C782 C783 1.355 . S
C782 C784 1.415 . S
C783 C782 1.355 . S
C783 C785 1.419 . S
C784 C782 1.415 . S
C784 C789 1.425 . S
C784 C791 1.409 . S
C785 H777 0.930 . S
C785 C783 1.419 . S
C785 C786 1.362 . S
C786 H778 0.930 . S
C786 C785 1.362 . S
C786 C789 1.409 . S
C787 H779 0.930 . S
C787 C788 1.355 . S
C787 C789 1.415 . S
C788 C787 1.355 . S
C788 C790 1.419 . S
C789 C784 1.425 . S
C789 C786 1.409 . S
C789 C787 1.415 . S
C790 H780 0.930 . S
C790 C788 1.419 . S
C790 C791 1.362 . S
C791 H781 0.930 . S
C791 C784 1.409 . S
C791 C790 1.362 . S
H792 C798 0.930 . S
H793 C801 0.930 . S
H794 C802 0.930 . S
H795 C803 0.930 . S
H796 C806 0.930 . S
H797 C807 0.930 . S
C798 H792 0.930 . S
C798 C799 1.355 . S
C798 C800 1.415 . S
C799 C798 1.355 . S
C799 C801 1.419 . S
C800 C798 1.415 . S
C800 C805 1.425 . S
C800 C807 1.409 1_556 S
C801 H793 0.930 . S
C801 C799 1.419 . S
C801 C802 1.362 . S
C802 H794 0.930 . S
C802 C801 1.362 . S
C802 C805 1.409 . S
C803 H795 0.930 . S
C803 C804 1.355 . S
C803 C805 1.415 1_554 S
C804 C803 1.355 . S
C804 C806 1.419 . S
C805 C800 1.425 . S
C805 C802 1.409 . S
C805 C803 1.415 1_556 S
C806 H796 0.930 . S
C806 C804 1.419 . S
C806 C807 1.362 . S
C807 H797 0.930 . S
C807 C800 1.409 1_554 S
C807 C806 1.362 . S
H808 C814 0.930 . S
H809 C817 0.930 . S
H810 C818 0.926 1_556 S
H811 C819 0.930 . S
H812 C822 0.930 . S
H813 C823 0.935 . S
C814 H808 0.930 . S
C814 C815 1.355 . S
C814 C816 1.423 . S
C815 C814 1.355 . S
C815 C817 1.419 . S
C816 C814 1.423 . S
C816 C821 1.422 1_554 S
C816 C823 1.405 1_554 S
C817 H809 0.930 . S
C817 C815 1.419 . S
C817 C818 1.371 . S
C818 H810 0.926 1_554 S
C818 C817 1.371 . S
C818 C821 1.405 1_554 S
C819 H811 0.930 . S
C819 C820 1.355 . S
C819 C821 1.415 . S
C820 C819 1.355 . S
C820 C822 1.419 . S
C821 C816 1.422 1_556 S
C821 C818 1.405 1_556 S
C821 C819 1.415 . S
C822 H812 0.930 . S
C822 C820 1.419 . S
C822 C823 1.362 . S
C823 H813 0.935 . S
C823 C816 1.405 1_556 S
C823 C822 1.362 . S
H824 C830 0.930 1_554 S
H825 C833 0.930 . S
H826 C834 0.930 . S
H827 C835 0.921 1_556 S
H828 C838 0.930 . S
H829 C839 0.930 . S
C830 H824 0.930 1_556 S
C830 C831 1.355 . S
C830 C832 1.415 1_556 S
C831 C830 1.355 . S
C831 C833 1.419 . S
C832 C830 1.415 1_554 S
C832 C837 1.425 1_554 S
C832 C839 1.409 . S
C833 H825 0.930 . S
C833 C831 1.419 . S
C833 C834 1.362 . S
C834 H826 0.930 . S
C834 C833 1.362 . S
C834 C837 1.409 . S
C835 H827 0.921 1_554 S
C835 C836 1.369 . S
C835 C837 1.409 1_554 S
C836 C835 1.369 . S
C836 C838 1.419 . S
C837 C832 1.425 1_556 S
C837 C834 1.409 . S
C837 C835 1.409 1_556 S
C838 H828 0.930 . S
C838 C836 1.419 . S
C838 C839 1.362 . S
C839 H829 0.930 . S
C839 C832 1.409 . S
C839 C838 1.362 . S
H840 C846 0.930 . S
H841 C849 0.930 . S
H842 C850 0.930 . S
H843 C851 0.930 . S
H844 C854 0.930 . S
H845 C855 0.930 . S
C846 H840 0.930 . S
C846 C847 1.355 . S
C846 C848 1.415 . S
C847 C846 1.355 . S
C847 C849 1.419 . S
C848 C846 1.415 . S
C848 C853 1.425 . S
C848 C855 1.409 . S
C849 H841 0.930 . S
C849 C847 1.419 . S
C849 C850 1.362 . S
C850 H842 0.930 . S
C850 C849 1.362 . S
C850 C853 1.409 . S
C851 H843 0.930 . S
C851 C852 1.355 . S
C851 C853 1.415 . S
C852 C851 1.355 . S
C852 C854 1.419 . S
C853 C848 1.425 . S
C853 C850 1.409 . S
C853 C851 1.415 . S
C854 H844 0.930 . S
C854 C852 1.419 . S
C854 C855 1.362 . S
C855 H845 0.930 . S
C855 C848 1.409 . S
C855 C854 1.362 . S
H856 C862 0.930 . S
H857 C865 0.930 . S
H858 C866 0.930 . S
H859 C867 0.930 . S
H860 C870 0.930 . S
H861 C871 0.930 . S
C862 H856 0.930 . S
C862 C863 1.355 . S
C862 C864 1.415 . S
C863 C862 1.355 . S
C863 C865 1.419 . S
C864 C862 1.415 . S
C864 C869 1.425 . S
C864 C871 1.409 . S
C865 H857 0.930 . S
C865 C863 1.419 . S
C865 C866 1.362 . S
C866 H858 0.930 . S
C866 C865 1.362 . S
C866 C869 1.409 . S
C867 H859 0.930 . S
C867 C868 1.355 . S
C867 C869 1.415 . S
C868 C867 1.355 . S
C868 C870 1.419 . S
C869 C864 1.425 . S
C869 C866 1.409 . S
C869 C867 1.415 . S
C870 H860 0.930 . S
C870 C868 1.419 . S
C870 C871 1.362 . S
C871 H861 0.930 . S
C871 C864 1.409 . S
C871 C870 1.362 . S
H872 C878 0.930 . S
H873 C881 0.930 . S
H874 C882 0.930 . S
H875 C883 0.930 . S
H876 C886 0.930 . S
H877 C887 0.930 . S
C878 H872 0.930 . S
C878 C879 1.355 . S
C878 C880 1.415 . S
C879 C878 1.355 . S
C879 C881 1.419 . S
C880 C878 1.415 . S
C880 C885 1.425 . S
C880 C887 1.409 . S
C881 H873 0.930 . S
C881 C879 1.419 . S
C881 C882 1.362 . S
C882 H874 0.930 . S
C882 C881 1.362 . S
C882 C885 1.409 . S
C883 H875 0.930 . S
C883 C884 1.355 . S
C883 C885 1.415 . S
C884 C883 1.355 . S
C884 C886 1.419 . S
C885 C880 1.425 . S
C885 C882 1.409 . S
C885 C883 1.415 . S
C886 H876 0.930 . S
C886 C884 1.419 . S
C886 C887 1.362 . S
C887 H877 0.930 . S
C887 C880 1.409 . S
C887 C886 1.362 . S
C415 C175 0.983 . S
C420 C5 0.826 . S
C431 C39 0.983 . S
C436 C107 0.823 . S
C447 C73 0.967 . S
C452 C141 0.849 . S
C463 C209 0.955 . S
C468 C379 0.851 . S
C479 C311 0.969 . S
C484 C243 0.836 . S
C495 C345 0.845 . S
C500 C277 0.969 . S
C511 C33 1.928 . S
C516 C237 1.928 . S
C527 C67 1.928 . S
C532 C271 1.928 . S
C543 C305 1.967 1_554 S
C548 C101 1.967 1_556 S
C559 C339 2.012 . S
C564 C135 2.012 . S
C575 C169 1.990 . S
C580 C373 1.990 . S
C591 C203 1.927 . S
C596 C407 1.927 . S
C607 C156 1.832 . S
C612 C20 1.788 . S
C623 C190 1.768 . S
C628 C54 1.834 . S
C639 C122 1.769 . S
C644 C88 1.831 . S
C655 C224 1.776 . S
C660 C360 1.839 . S
C671 C258 1.807 . S
C676 C394 1.788 . S
C687 C326 1.779 . S
C692 C292 1.838 . S
C703 C9 1.782 . S
C708 C70 1.875 . S
C719 C43 1.774 . S
C724 C2 1.893 . S
C735 C36 1.894 . S
C740 C77 1.777 . S
C751 C111 1.814 . S
C756 C138 1.897 . S
C767 C172 1.877 . S
C772 C145 1.745 . S
C783 C104 1.890 . S
C788 C179 1.764 . S
C799 C274 1.874 . S
C804 C213 1.775 . S
C815 C247 1.750 . S
C820 C206 1.874 . S
C831 C240 1.897 . S
C836 C281 1.810 . S
C847 C342 1.880 . S
C852 C315 1.800 . S
C863 C376 1.897 . S
C868 C349 1.811 . S
C879 C383 1.755 . S
C884 C308 1.886 . S
