# Generated by pormake.
# Topology sod, (4)-cn, num edge types: 1
# Building blocks:
#     Node 0, Type 0, BuildingBlock: NAHDIM_clean_sbu_0, # of connection points: 4
#     Node 1, Type 0, BuildingBlock: NAHDIM_clean_sbu_0, # of connection points: 4
#     Node 2, Type 0, BuildingBlock: NAHDIM_clean_sbu_0, # of connection points: 4
#     Node 3, Type 0, BuildingBlock: NAHDIM_clean_sbu_0, # of connection points: 4
#     Node 4, Type 0, BuildingBlock: NAHDIM_clean_sbu_0, # of connection points: 4
#     Node 5, Type 0, BuildingBlock: NAHDIM_clean_sbu_0, # of connection points: 4
#     Node 6, Type 0, BuildingBlock: NAHDIM_clean_sbu_0, # of connection points: 4
#     Node 7, Type 0, BuildingBlock: NAHDIM_clean_sbu_0, # of connection points: 4
#     Node 8, Type 0, BuildingBlock: NAHDIM_clean_sbu_0, # of connection points: 4
#     Node 9, Type 0, BuildingBlock: NAHDIM_clean_sbu_0, # of connection points: 4
#     Node 10, Type 0, BuildingBlock: NAHDIM_clean_sbu_0, # of connection points: 4
#     Node 11, Type 0, BuildingBlock: NAHDIM_clean_sbu_0, # of connection points: 4
#     Edge 12, Type (0, 0), BuildingBlock: TEMPAE_clean_linker_10, # of connection points: 2
#     Edge 13, Type (0, 0), BuildingBlock: TEMPAE_clean_linker_10, # of connection points: 2
#     Edge 14, Type (0, 0), BuildingBlock: TEMPAE_clean_linker_10, # of connection points: 2
#     Edge 15, Type (0, 0), BuildingBlock: TEMPAE_clean_linker_10, # of connection points: 2
#     Edge 16, Type (0, 0), BuildingBlock: TEMPAE_clean_linker_10, # of connection points: 2
#     Edge 17, Type (0, 0), BuildingBlock: TEMPAE_clean_linker_10, # of connection points: 2
#     Edge 18, Type (0, 0), BuildingBlock: TEMPAE_clean_linker_10, # of connection points: 2
#     Edge 19, Type (0, 0), BuildingBlock: TEMPAE_clean_linker_10, # of connection points: 2
#     Edge 20, Type (0, 0), BuildingBlock: TEMPAE_clean_linker_10, # of connection points: 2
#     Edge 21, Type (0, 0), BuildingBlock: TEMPAE_clean_linker_10, # of connection points: 2
#     Edge 22, Type (0, 0), BuildingBlock: TEMPAE_clean_linker_10, # of connection points: 2
#     Edge 23, Type (0, 0), BuildingBlock: TEMPAE_clean_linker_10, # of connection points: 2
#     Edge 24, Type (0, 0), BuildingBlock: TEMPAE_clean_linker_10, # of connection points: 2
#     Edge 25, Type (0, 0), BuildingBlock: TEMPAE_clean_linker_10, # of connection points: 2
#     Edge 26, Type (0, 0), BuildingBlock: TEMPAE_clean_linker_10, # of connection points: 2
#     Edge 27, Type (0, 0), BuildingBlock: TEMPAE_clean_linker_10, # of connection points: 2
#     Edge 28, Type (0, 0), BuildingBlock: TEMPAE_clean_linker_10, # of connection points: 2
#     Edge 29, Type (0, 0), BuildingBlock: TEMPAE_clean_linker_10, # of connection points: 2
#     Edge 30, Type (0, 0), BuildingBlock: TEMPAE_clean_linker_10, # of connection points: 2
#     Edge 31, Type (0, 0), BuildingBlock: TEMPAE_clean_linker_10, # of connection points: 2
#     Edge 32, Type (0, 0), BuildingBlock: TEMPAE_clean_linker_10, # of connection points: 2
#     Edge 33, Type (0, 0), BuildingBlock: TEMPAE_clean_linker_10, # of connection points: 2
#     Edge 34, Type (0, 0), BuildingBlock: TEMPAE_clean_linker_10, # of connection points: 2
#     Edge 35, Type (0, 0), BuildingBlock: TEMPAE_clean_linker_10, # of connection points: 2
# Relax obj value: 0.090
# Max RMSD: 0.132
# Mean RMSD: 0.129
data_MOF--net-sod--node1-NAHDIM_clean_sbu_0--edge1-TEMPAE_clean_linker_10
_symmetry_space_group_name_H-M    P1
_symmetry_Int_Tables_number       1
_symmetry_cell_setting            triclinic
loop_
_symmetry_equiv_pos_as_xyz
'x, y, z'
_cell_length_a     43.097575
_cell_length_b     42.988537
_cell_length_c     42.688236
_cell_angle_alpha  90.627367
_cell_angle_beta   91.243148
_cell_angle_gamma 93.842988
loop_
_atom_site_label
_atom_site_type_symbol
_atom_site_fract_x
_atom_site_fract_y
_atom_site_fract_z
_atom_type_partial_charge
C0 C 0.06302 0.22478 0.52002 0.0
O1 O 0.07179 0.25085 0.50599 0.0
O2 O 0.01904 0.28491 0.49258 0.0
Zn3 Zn 0.00548 0.25487 0.52601 0.0
O4 O 0.96337 0.23542 0.51382 0.0
C5 C 0.02759 0.29434 0.57644 0.0
O6 O 0.05344 0.29304 0.56087 0.0
O7 O 0.03568 0.22137 0.53062 0.0
C8 C 0.94649 0.22111 0.53378 0.0
O9 O 0.9569 0.21936 0.56283 0.0
C10 C 0.00501 0.3098 0.48964 0.0
O11 O 0.98196 0.31479 0.50831 0.0
O12 O 0.00325 0.27883 0.5663 0.0
C13 C 0.79837 0.9749 0.46774 0.0
O14 O 0.80581 -0.00028 0.48524 0.0
O15 O 0.71934 0.00727 0.4909 0.0
Zn16 Zn 0.7464 0.01003 0.45317 0.0
O17 O 0.7746 0.049 0.45562 0.0
C18 C 0.70215 0.98442 0.40904 0.0
O19 O 0.70475 0.96043 0.42752 0.0
O20 O 0.7731 0.97355 0.45175 0.0
C21 C 0.76651 0.07566 0.46397 0.0
O22 O 0.73717 0.07931 0.46984 0.0
C23 C 0.72872 0.01692 0.51794 0.0
O24 O 0.75745 0.02878 0.52185 0.0
O25 O 0.71876 0.00942 0.41494 0.0
C26 C 0.95509 0.81216 0.45439 0.0
O27 O 0.97802 0.81589 0.43469 0.0
O28 O 0.9934 0.73754 0.43843 0.0
Zn29 Zn 0.99276 0.76501 0.47671 0.0
O30 O 0.03113 0.79408 0.47983 0.0
C31 C 0.00097 0.71144 0.51479 0.0
O32 O 0.01348 0.70133 0.48914 0.0
O33 O 0.95588 0.79083 0.47469 0.0
C34 C 0.0581 0.78516 0.48585 0.0
O35 O 0.06167 0.75537 0.49002 0.0
C36 C 0.0111 0.74305 0.41544 0.0
O37 O 0.02946 0.76871 0.41557 0.0
O38 O 0.99035 0.73832 0.51505 0.0
C39 C 0.20669 0.04919 0.5222 0.0
O40 O 0.20473 0.02925 0.49857 0.0
O41 O 0.28936 0.01151 0.5697 0.0
Zn42 Zn 0.25671 0.01279 0.53562 0.0
O43 O 0.23124 0.97172 0.53238 0.0
C44 C 0.30414 0.009 0.4904 0.0
O45 O 0.3153 0.99078 0.5118 0.0
O46 O 0.22808 0.04696 0.54285 0.0
C47 C 0.22869 0.95572 0.50711 0.0
O48 O 0.2436 0.96578 0.4823 0.0
C49 C 0.28785 0.99307 0.59274 0.0
O50 O 0.26253 0.97482 0.59641 0.0
O51 O 0.27875 0.02143 0.49534 0.0
C52 C 0.42519 0.03131 0.29264 0.0
O53 O 0.44922 0.05177 0.2919 0.0
O54 O 0.46439 0.04682 0.21837 0.0
Zn55 Zn 0.45815 0.00726 0.24283 0.0
O56 O 0.49636 0.00122 0.26908 0.0
C57 C 0.46106 0.97356 0.18505 0.0
O58 O 0.47301 0.00083 0.17606 0.0
O59 O 0.42279 0.00952 0.27221 0.0
C60 C 0.52096 0.99123 0.25792 0.0
O61 O 0.52177 0.98435 0.2279 0.0
C62 C 0.48727 0.06663 0.22326 0.0
O63 O 0.5065 0.06283 0.247 0.0
O64 O 0.45169 0.97061 0.21298 0.0
C65 C 0.10395 0.51644 0.2256 0.0
O66 O 0.08803 0.54141 0.22418 0.0
O67 O 0.05069 0.53792 0.28447 0.0
Zn68 Zn 0.05288 0.49617 0.26311 0.0
O69 O 0.01861 0.49019 0.23066 0.0
C70 C 0.06067 0.46582 0.32195 0.0
O71 O 0.07905 0.4909 0.32801 0.0
O72 O 0.09373 0.49357 0.24187 0.0
C73 C 0.99033 0.48776 0.23861 0.0
O74 O 0.98377 0.48874 0.26851 0.0
C75 C 0.03651 0.56008 0.2725 0.0
O76 O 0.02317 0.55621 0.24464 0.0
O77 O 0.04728 0.46269 0.29519 0.0
C78 C 0.57666 0.0132 0.69433 0.0
O79 O 0.55759 0.03563 0.69708 0.0
O80 O 0.55074 0.02821 0.77524 0.0
Zn81 Zn 0.54339 0.99017 0.74741 0.0
O82 O 0.50041 0.98982 0.72838 0.0
C83 C 0.5267 0.94708 0.79459 0.0
O84 O 0.50552 0.96728 0.79867 0.0
O85 O 0.57493 0.99082 0.71353 0.0
C86 C 0.48879 0.96774 0.71094 0.0
O87 O 0.50544 0.94399 0.70476 0.0
C88 C 0.53452 0.05158 0.77149 0.0
O89 O 0.51343 0.05092 0.74878 0.0
O90 O 0.54647 0.95188 0.77326 0.0
C91 C 0.98964 0.56883 0.70041 0.0
O92 O 0.96673 0.54714 0.70162 0.0
O93 O 0.97383 0.53407 0.77744 0.0
Zn94 Zn 0.01094 0.53269 0.75003 0.0
O95 O 0.00935 0.49305 0.72444 0.0
C96 C 0.04673 0.52311 0.80527 0.0
O97 O 0.01961 0.51058 0.81374 0.0
O98 O 0.01211 0.56827 0.72011 0.0
C99 C 0.01439 0.46648 0.7355 0.0
O100 O 0.02036 0.46387 0.76561 0.0
C101 C 0.9499 0.51517 0.7759 0.0
O102 O 0.94713 0.49416 0.75326 0.0
O103 O 0.04922 0.53492 0.77817 0.0
C104 C 0.32284 0.44684 0.00292 0.0
O105 O 0.33181 0.46941 0.02275 0.0
O106 O 0.25143 0.48543 0.03373 0.0
Zn107 Zn 0.27503 0.48756 0.99364 0.0
O108 O 0.30706 0.52371 0.99496 0.0
C109 C 0.22339 0.51132 0.96151 0.0
O110 O 0.22189 0.52651 0.98824 0.0
O111 O 0.29761 0.44869 0.98732 0.0
C112 C 0.30285 0.55075 0.00566 0.0
O113 O 0.2755 0.55671 0.01636 0.0
C114 C 0.26284 0.49373 0.06047 0.0
O115 O 0.2923 0.50357 0.0631 0.0
O116 O 0.24473 0.49266 0.95797 0.0
C117 C 0.48179 0.29094 0.9695 0.0
O118 O 0.50443 0.29762 0.95006 0.0
O119 O 0.52781 0.21779 0.95945 0.0
Zn120 Zn 0.52502 0.2492 0.99425 0.0
O121 O 0.56018 0.2821 0.99377 0.0
C122 C 0.53883 0.20322 0.04038 0.0
O123 O 0.55481 0.19167 0.01765 0.0
O124 O 0.48517 0.27021 0.99001 0.0
C125 C 0.58868 0.27649 0.99247 0.0
O126 O 0.59634 0.24744 0.99113 0.0
C127 C 0.54105 0.22379 0.9337 0.0
O128 O 0.55373 0.25195 0.929 0.0
O129 O 0.52474 0.2278 0.03564 0.0
C130 C 0.73516 0.54601 0.04128 0.0
O131 O 0.72809 0.52073 0.05737 0.0
O132 O 0.81617 0.51019 0.05738 0.0
Zn133 Zn 0.78562 0.5107 0.02111 0.0
O134 O 0.75784 0.47129 0.01986 0.0
C135 C 0.82607 0.49363 0.972 0.0
O136 O 0.83034 0.46988 0.99034 0.0
O137 O 0.75931 0.54722 0.02469 0.0
C138 C 0.74447 0.46188 0.99435 0.0
O139 O 0.7489 0.47837 0.96891 0.0
C140 C 0.82344 0.48458 0.06921 0.0
O141 O 0.81052 0.45826 0.05764 0.0
O142 O 0.8083 0.51433 0.98067 0.0
C143 C 0.57599 0.70314 0.00474 0.0
O144 O 0.55702 0.69773 0.98049 0.0
O145 O 0.5434 0.77672 0.97355 0.0
Zn146 Zn 0.53543 0.75101 0.01185 0.0
O147 O 0.49797 0.72139 0.00504 0.0
C148 C 0.50005 0.79268 0.04396 0.0
O149 O 0.48166 0.78494 0.01977 0.0
O150 O 0.57198 0.7263 0.02259 0.0
C151 C 0.48794 0.70575 0.02821 0.0
O152 O 0.50271 0.70926 0.0554 0.0
C153 C 0.5294 0.77107 0.9474 0.0
O154 O 0.50998 0.74628 0.94436 0.0
O155 O 0.52603 0.78045 0.04651 0.0
C156 C 0.0398 0.328 0.4464 0.0
C157 C 0.01441 0.33277 0.46549 0.0
C158 C 0.04869 0.34944 0.42317 0.0
C159 C 0.03174 0.37621 0.41892 0.0
C160 C 0.00627 0.38129 0.43828 0.0
C161 C -0.00207 0.35952 0.46136 0.0
C162 C 0.07606 0.34333 0.40302 0.0
C163 C 0.98762 0.40958 0.43439 0.0
C164 C 0.06837 0.44602 0.3763 0.0
C165 C 0.05435 0.44225 0.34642 0.0
C166 C 0.06154 0.42448 0.40006 0.0
C167 C 0.04017 0.3986 0.39375 0.0
C168 C 0.02628 0.39443 0.36352 0.0
C169 C 0.03355 0.41628 0.34022 0.0
C170 C 0.07684 0.42962 0.43203 0.0
C171 C 0.00337 0.3671 0.35593 0.0
H172 H 0.05273 0.30744 0.44951 0.0
H173 H 0.97831 0.3634 0.47604 0.0
H174 H 0.06834 0.34103 0.37809 0.0
H175 H 0.09371 0.3633 0.40476 0.0
H176 H 0.08725 0.32179 0.40983 0.0
H177 H 0.96882 0.41039 0.45172 0.0
H178 H 0.00311 0.43117 0.437 0.0
H179 H 0.97698 0.40957 0.41049 0.0
H180 H 0.08448 0.466 0.38129 0.0
H181 H 0.02262 0.41317 0.31719 0.0
H182 H 0.08931 0.40887 0.43878 0.0
H183 H 0.05887 0.43273 0.4498 0.0
H184 H 0.09362 0.45041 0.43286 0.0
H185 H 0.01419 0.3449 0.36076 0.0
H186 H 0.99517 0.36684 0.33107 0.0
H187 H 0.98289 0.36793 0.37116 0.0
C188 C 0.67491 0.00918 0.36444 0.0
C189 C 0.67839 0.98319 0.38347 0.0
C190 C 0.65068 0.00933 0.34202 0.0
C191 C 0.62942 0.9829 0.33862 0.0
C192 C 0.63355 0.95613 0.35684 0.0
C193 C 0.65802 0.95659 0.37905 0.0
C194 C 0.64707 0.03826 0.32287 0.0
C195 C 0.61135 0.92749 0.35379 0.0
C196 C 0.54789 -0.00267 0.31015 0.0
C197 C 0.54861 0.98834 0.27851 0.0
C198 C 0.57401 0.99543 0.32995 0.0
C199 C 0.60151 0.98422 0.31784 0.0
C200 C 0.60235 0.9748 0.28602 0.0
C201 C 0.57585 0.97701 0.26668 0.0
C202 C 0.57223 0.00569 0.3638 0.0
C203 C 0.63129 0.96264 0.2724 0.0
H204 H 0.69068 0.02975 0.36758 0.0
H205 H 0.66064 0.93635 0.39356 0.0
H206 H 0.64504 0.03215 0.29756 0.0
H207 H 0.62535 0.049 0.32933 0.0
H208 H 0.66691 0.05587 0.32657 0.0
H209 H 0.6193 0.90771 0.36771 0.0
H210 H 0.58807 0.93306 0.36196 0.0
H211 H 0.60857 0.91996 0.32889 0.0
H212 H 0.52694 0.00611 0.3195 0.0
H213 H 0.57655 0.96996 0.24227 0.0
H214 H 0.58985 0.0252 0.36889 0.0
H215 H 0.57759 0.98625 0.37948 0.0
H216 H 0.54894 0.01344 0.36962 0.0
H217 H 0.65078 0.98082 0.27434 0.0
H218 H 0.62791 0.95559 0.24738 0.0
H219 H 0.63836 0.94224 0.28586 0.0
C220 C 0.04938 0.59391 0.31955 0.0
C221 C 0.03397 0.5894 0.29043 0.0
C222 C 0.04584 0.62074 0.3377 0.0
C223 C 0.02634 0.64359 0.32649 0.0
C224 C 0.01135 0.63961 0.29676 0.0
C225 C 0.01538 0.61254 0.27903 0.0
C226 C 0.06234 0.62424 0.36926 0.0
C227 C 0.99035 0.66349 0.28411 0.0
C228 C 0.99277 0.69227 0.39021 0.0
C229 C 0.01303 0.71922 0.39044 0.0
C230 C -0.00387 0.668 0.36865 0.0
C231 C 0.02038 0.67068 0.34683 0.0
C232 C 0.04013 0.69831 0.34606 0.0
C233 C 0.03618 0.72233 0.36787 0.0
C234 C 0.97445 0.63895 0.37005 0.0
C235 C 0.0662 0.70199 0.32305 0.0
H236 H 0.06393 0.57622 0.32846 0.0
H237 H 0.00343 0.60926 0.25652 0.0
H238 H 0.07637 0.64682 0.37077 0.0
H239 H 0.04497 0.62433 0.38806 0.0
H240 H 0.07791 0.60514 0.37383 0.0
H241 H 0.98206 0.65793 0.25974 0.0
H242 H 0.96982 0.66466 0.29921 0.0
H243 H 0.00272 0.68697 0.28457 0.0
H244 H 0.97466 0.68977 0.40741 0.0
H245 H 0.05188 0.74311 0.36784 0.0
H246 H 0.98776 0.61891 0.37729 0.0
H247 H 0.96399 0.63324 0.34655 0.0
H248 H 0.95542 0.64148 0.38685 0.0
H249 H 0.08393 0.68519 0.3286 0.0
H250 H 0.07772 0.7259 0.32362 0.0
H251 H 0.0573 0.69661 0.29888 0.0
C252 C 0.34871 0.00082 0.45554 0.0
C253 C 0.32041 0.01415 0.46057 0.0
C254 C 0.36426 0.00506 0.42726 0.0
C255 C 0.35117 0.02306 0.40342 0.0
C256 C 0.32268 0.03672 0.40835 0.0
C257 C 0.30763 0.03211 0.43691 0.0
C258 C 0.39468 0.9902 0.42287 0.0
C259 C 0.30808 0.05605 0.38341 0.0
C260 C 0.40808 0.05402 0.343 0.0
C261 C 0.40363 0.03137 0.31913 0.0
C262 C 0.39026 0.05231 0.3701 0.0
C263 C 0.36745 0.02738 0.37333 0.0
C264 C 0.36182 0.00529 0.34869 0.0
C265 C 0.37999 0.00756 0.32184 0.0
C266 C 0.39682 0.07639 0.39584 0.0
C267 C 0.33756 0.97848 0.35127 0.0
H268 H 0.35877 0.98696 0.47371 0.0
H269 H 0.28574 0.04249 0.44062 0.0
H270 H 0.39267 0.97398 0.40242 0.0
H271 H 0.41337 0.00837 0.4179 0.0
H272 H 0.4018 0.97705 0.4438 0.0
H273 H 0.28595 0.06529 0.39104 0.0
H274 H 0.32441 0.07596 0.3772 0.0
H275 H 0.30334 0.04179 0.36181 0.0
H276 H 0.42618 0.0726 0.34102 0.0
H277 H 0.3763 0.99006 0.30343 0.0
H278 H 0.40678 0.06517 0.41672 0.0
H279 H 0.37493 0.08632 0.40306 0.0
H280 H 0.41341 0.09573 0.38859 0.0
H281 H 0.34462 0.96259 0.37006 0.0
H282 H 0.33427 0.96484 0.32905 0.0
H283 H 0.31491 0.98719 0.35784 0.0
C284 C 0.01595 0.61361 0.67213 0.0
C285 C 0.99028 0.59206 0.67508 0.0
C286 C 0.01771 0.63434 0.64698 0.0
C287 C 0.99321 0.6335 0.6243 0.0
C288 C 0.96689 0.61237 0.62758 0.0
C289 C 0.96575 0.5919 0.65293 0.0
C290 C 0.04612 0.65661 0.64424 0.0
C291 C 0.94028 0.61087 0.60388 0.0
C292 C 0.98587 0.70242 0.57043 0.0
C293 C -0.00074 0.69175 0.54298 0.0
C294 C 0.98391 0.68379 0.59719 0.0
C295 C -0.00437 0.65383 0.59645 0.0
C296 C 0.00932 0.643 0.5689 0.0
C297 C 0.01097 0.66209 0.54249 0.0
C298 C 0.96916 0.69608 0.62619 0.0
C299 C 0.02207 0.61115 0.56724 0.0
H300 H 0.03498 0.61392 0.68918 0.0
H301 H 0.94579 0.57539 0.65507 0.0
H302 H 0.05862 0.65121 0.6226 0.0
H303 H 0.03913 0.68089 0.6423 0.0
H304 H 0.06247 0.65533 0.6646 0.0
H305 H 0.92089 0.59409 0.61056 0.0
H306 H 0.93113 0.63424 0.60123 0.0
H307 H 0.94866 0.60379 0.58064 0.0
H308 H 0.9768 0.72533 0.57101 0.0
H309 H 0.02139 0.65368 0.52141 0.0
H310 H 0.98586 0.69622 0.64634 0.0
H311 H 0.94866 0.68052 0.63231 0.0
H312 H 0.96157 0.72006 0.62308 0.0
H313 H 0.04021 0.6091 0.58582 0.0
H314 H 0.03235 0.60638 0.54418 0.0
H315 H 0.00326 0.59288 0.57152 0.0
C316 C 0.44614 0.94813 0.67361 0.0
C317 C 0.45733 0.96961 0.69681 0.0
C318 C 0.4172 0.95103 0.65859 0.0
C319 C 0.39899 0.97586 0.66715 0.0
C320 C 0.40962 -0.0031 0.69138 0.0
C321 C 0.43872 0.9936 0.70583 0.0
C322 C 0.40666 0.92821 0.63274 0.0
C323 C 0.39072 0.0235 0.70135 0.0
C324 C 0.34434 0.00479 0.60489 0.0
C325 C 0.31569 0.99006 0.61312 0.0
C326 C 0.37152 0.00048 0.62244 0.0
C327 C 0.37001 0.98124 0.64912 0.0
C328 C 0.34106 0.96691 0.65807 0.0
C329 C 0.31422 0.97136 0.63984 0.0
C330 C 0.40199 0.01604 0.61203 0.0
C331 C 0.33855 0.94656 0.68663 0.0
H332 H 0.46033 0.9295 0.66658 0.0
H333 H 0.44708 0.01015 0.72395 0.0
H334 H 0.38295 0.91784 0.6373 0.0
H335 H 0.40548 0.94064 0.61014 0.0
H336 H 0.42258 0.90909 0.63025 0.0
H337 H 0.40103 0.03617 0.72231 0.0
H338 H 0.38919 0.04029 0.68191 0.0
H339 H 0.36663 0.01471 0.70663 0.0
H340 H 0.34575 0.01918 0.58422 0.0
H341 H 0.29214 0.95997 0.64639 0.0
H342 H 0.41853 -0.0019 0.6067 0.0
H343 H 0.41267 0.0311 0.63117 0.0
H344 H 0.39912 0.03053 0.59091 0.0
H345 H 0.35249 0.92602 0.68349 0.0
H346 H 0.31414 0.93821 0.6912 0.0
H347 H 0.34823 0.95962 0.70759 0.0
C348 C -0.00201 0.31858 0.61904 0.0
C349 C 0.02606 0.31592 0.60349 0.0
C350 C -0.00451 0.3411 0.64271 0.0
C351 C 0.02165 0.36143 0.65093 0.0
C352 C 0.05037 0.35801 0.63624 0.0
C353 C 0.05224 0.33525 0.61271 0.0
C354 C 0.96452 0.34397 0.65801 0.0
C355 C 0.0788 0.37924 0.64445 0.0
C356 C 0.00834 0.44214 0.68217 0.0
C357 C 0.01485 0.4391 0.71428 0.0
C358 C 0.01004 0.41687 0.66142 0.0
C359 C 0.01843 0.38783 0.67306 0.0
C360 C 0.02449 0.38439 0.70551 0.0
C361 C 0.02261 0.4101 0.72577 0.0
C362 C 0.00335 0.42142 0.62694 0.0
C363 C 0.03344 0.35371 0.7187 0.0
H364 H 0.9777 0.3036 0.61218 0.0
H365 H 0.07405 0.33325 0.60092 0.0
H366 H 0.96744 0.34416 0.68389 0.0
H367 H 0.95501 0.36639 0.65137 0.0
H368 H 0.94726 0.32467 0.65099 0.0
H369 H 0.0999 0.37201 0.6326 0.0
H370 H 0.0747 0.40343 0.63745 0.0
H371 H 0.08332 0.37959 0.67014 0.0
H372 H 0.00222 0.46442 0.67309 0.0
H373 H 0.02765 0.40755 0.75056 0.0
H374 H 0.98446 0.40435 0.61856 0.0
H375 H 0.02431 0.41713 0.61331 0.0
H376 H -0.00361 0.44528 0.62181 0.0
H377 H 0.01554 0.33489 0.71212 0.0
H378 H 0.03622 0.35456 0.74464 0.0
H379 H 0.05567 0.34734 0.70856 0.0
C380 C 0.61913 0.98924 0.66539 0.0
C381 C 0.59968 0.01386 0.66908 0.0
C382 C 0.64077 0.98939 0.6413 0.0
C383 C 0.64303 0.01478 0.62047 0.0
C384 C 0.62366 0.03982 0.62421 0.0
C385 C 0.60218 0.03904 0.64846 0.0
C386 C 0.66102 0.96225 0.63797 0.0
C387 C 0.62548 0.06732 0.60246 0.0
C388 C 0.71654 0.02856 0.57374 0.0
C389 C 0.7071 0.01578 0.54442 0.0
C390 C 0.69596 0.02831 0.59877 0.0
C391 C 0.66526 0.01488 0.59436 0.0
C392 C 0.65566 0.00171 0.56492 0.0
C393 C 0.67668 0.00235 0.54029 0.0
C394 C 0.70697 0.04262 0.62986 0.0
C395 C 0.62312 0.98711 0.55937 0.0
H396 H 0.61736 0.9697 0.68122 0.0
H397 H 0.58729 0.05818 0.65119 0.0
H398 H 0.65665 0.95081 0.61472 0.0
H399 H 0.68592 0.97066 0.6392 0.0
H400 H 0.65673 0.94454 0.65642 0.0
H401 H 0.60922 0.0852 0.60894 0.0
H402 H 0.64949 0.0784 0.60276 0.0
H403 H 0.61992 0.05931 0.57806 0.0
H404 H 0.73998 0.03903 0.57711 0.0
H405 H 0.66919 0.99238 0.51772 0.0
H406 H 0.70444 0.02501 0.64859 0.0
H407 H 0.69235 0.06194 0.63616 0.0
H408 H 0.73165 0.05188 0.62953 0.0
H409 H 0.61834 0.96798 0.5762 0.0
H410 H 0.61944 0.97754 0.53519 0.0
H411 H 0.60589 0.00468 0.56347 0.0
C412 C 0.45306 0.33633 0.95147 0.0
C413 C 0.45434 0.30981 0.97016 0.0
C414 C 0.4292 0.35666 0.95483 0.0
C415 C 0.40605 0.35019 0.97732 0.0
C416 C 0.40619 0.32253 0.99493 0.0
C417 C 0.43039 0.30267 0.99118 0.0
C418 C 0.42976 0.38594 0.93557 0.0
C419 C 0.38174 0.31472 0.01895 0.0
C420 C 0.37148 0.42026 0.01387 0.0
C421 C 0.34305 0.42095 -0.00261 0.0
C422 C 0.39194 0.39708 0.00778 0.0
C423 C 0.38374 0.37393 0.98469 0.0
C424 C 0.35479 0.37402 0.96842 0.0
C425 C 0.33475 0.39759 0.97495 0.0
C426 C 0.42262 0.39773 0.02568 0.0
C427 C 0.34525 0.34955 0.9438 0.0
H428 H 0.47138 0.34192 0.93504 0.0
H429 H 0.43104 0.28205 0.00551 0.0
H430 H 0.40664 0.38856 0.92436 0.0
H431 H 0.43507 0.40658 0.95109 0.0
H432 H 0.44748 0.38604 0.91704 0.0
H433 H 0.38305 0.29071 0.02802 0.0
H434 H 0.38487 0.33139 0.03898 0.0
H435 H 0.35812 0.31705 0.00876 0.0
H436 H 0.37806 0.43815 0.0313 0.0
H437 H 0.31278 0.39795 0.96216 0.0
H438 H 0.44211 0.40054 0.00916 0.0
H439 H 0.42484 0.37532 0.03791 0.0
H440 H 0.42519 0.41699 0.0433 0.0
H441 H 0.3617 0.35123 0.92416 0.0
H442 H 0.32136 0.35206 0.9343 0.0
H443 H 0.34634 0.32591 0.95375 0.0
C444 C 0.32458 0.60516 0.01744 0.0
C445 C 0.32918 0.57459 0.00768 0.0
C446 C 0.34968 0.62762 0.02038 0.0
C447 C 0.38002 0.61917 0.01359 0.0
C448 C 0.38476 0.58845 0.00346 0.0
C449 C 0.35926 0.56655 0.00053 0.0
C450 C 0.3438 0.66027 0.03104 0.0
C451 C 0.41682 0.57856 -0.00385 0.0
C452 C 0.44346 0.68149 -0.00407 0.0
C453 C 0.45996 0.68409 0.02463 0.0
C454 C 0.41705 0.66081 0.99214 0.0
C455 C 0.40702 0.64224 0.01763 0.0
C456 C 0.42338 0.64495 0.04674 0.0
C457 C 0.44966 0.66589 0.04991 0.0
C458 C 0.40009 0.65856 0.96078 0.0
C459 C 0.41338 0.62541 0.07441 0.0
H460 H 0.30139 0.61155 0.02291 0.0
H461 H 0.36304 0.54295 0.99305 0.0
H462 H 0.3566 0.66586 0.05343 0.0
H463 H 0.35264 0.6774 0.01355 0.0
H464 H 0.3187 0.66331 0.03449 0.0
H465 H 0.41646 0.55387 0.9881 0.0
H466 H 0.42732 0.5936 0.9777 0.0
H467 H 0.43219 0.58151 0.01732 0.0
H468 H 0.45122 0.69557 0.97631 0.0
H469 H 0.46226 0.6678 0.07217 0.0
H470 H 0.37523 0.66296 0.96368 0.0
H471 H 0.40088 0.63467 0.95089 0.0
H472 H 0.41026 0.67542 0.94365 0.0
H473 H 0.3889 0.62921 0.08001 0.0
H474 H 0.4282 0.63087 0.09564 0.0
H475 H 0.41446 0.60031 0.0685 0.0
C476 C 0.64416 0.29721 0.98822 0.0
C477 C 0.61277 0.30266 0.9923 0.0
C478 C 0.66704 0.32204 0.988 0.0
C479 C 0.65827 0.35295 0.99211 0.0
C480 C 0.62665 0.35858 -0.00375 0.0
C481 C 0.60429 0.33339 -0.00379 0.0
C482 C 0.70057 0.31525 0.98336 0.0
C483 C 0.61642 0.39123 0.00083 0.0
C484 C 0.71712 0.41685 0.02117 0.0
C485 C 0.72364 0.4331 0.99351 0.0
C486 C 0.69644 0.39023 0.02092 0.0
C487 C 0.68206 0.37958 0.99232 0.0
C488 C 0.68913 0.3954 0.96419 0.0
C489 C 0.70981 0.42204 0.96514 0.0
C490 C 0.68938 0.37399 0.0514 0.0
C491 C 0.67431 0.38461 0.93322 0.0
H492 H 0.65087 0.27354 0.9851 0.0
H493 H 0.58009 0.33784 -0.00059 0.0
H494 H 0.70969 0.32772 0.96252 0.0
H495 H 0.71499 0.32393 0.00388 0.0
H496 H 0.7035 0.28994 0.98017 0.0
H497 H 0.59089 0.3916 0.00375 0.0
H498 H 0.62834 0.40224 0.02184 0.0
H499 H 0.62311 0.40575 0.98042 0.0
H500 H 0.72778 0.4252 0.04319 0.0
H501 H 0.71487 0.43436 0.94363 0.0
H502 H 0.69362 0.34889 0.04933 0.0
H503 H 0.66445 0.3755 0.05679 0.0
H504 H 0.70366 0.38432 0.07136 0.0
H505 H 0.67815 0.35967 0.92895 0.0
H506 H 0.68366 0.3984 0.91325 0.0
H507 H 0.64881 0.38667 0.93385 0.0
C508 C 0.72149 0.59843 0.02267 0.0
C509 C 0.71382 0.57157 0.04002 0.0
C510 C 0.7003 0.62153 0.01876 0.0
C511 C 0.67072 0.61763 0.03247 0.0
C512 C 0.66329 0.5912 0.05104 0.0
C513 C 0.68497 0.56848 0.05464 0.0
C514 C 0.70912 0.64949 -0.00106 0.0
C515 C 0.63196 0.58627 0.06605 0.0
C516 C 0.62078 0.687 0.03784 0.0
C517 C 0.60075 0.68182 0.01168 0.0
C518 C 0.64379 0.66636 0.04493 0.0
C519 C 0.64673 0.63995 0.0254 0.0
C520 C 0.6267 0.6347 -0.00111 0.0
C521 C 0.60399 0.65571 0.99234 0.0
C522 C 0.66483 0.6727 0.07334 0.0
C523 C 0.62914 0.60678 0.9775 0.0
H524 H 0.74382 0.60111 0.01146 0.0
H525 H 0.67889 0.54786 0.06818 0.0
H526 H 0.6943 0.6488 0.97733 0.0
H527 H 0.70499 0.67135 0.01178 0.0
H528 H 0.73388 0.65032 0.99207 0.0
H529 H 0.6307 0.56578 0.08172 0.0
H530 H 0.62677 0.60724 0.07984 0.0
H531 H 0.61353 0.58266 0.04757 0.0
H532 H 0.61842 0.70712 0.05291 0.0
H533 H 0.58861 0.65149 0.9721 0.0
H534 H 0.68948 0.67472 0.06623 0.0
H535 H 0.66225 0.65292 0.08977 0.0
H536 H 0.65969 0.69442 0.08599 0.0
H537 H 0.65275 0.60713 0.96761 0.0
H538 H 0.61179 0.6061 0.95782 0.0
H539 H 0.62562 0.58497 0.99101 0.0
C540 C 0.55168 0.8215 0.9262 0.0
C541 C 0.53231 0.79415 0.92198 0.0
C542 C 0.55219 0.8452 0.90389 0.0
C543 C 0.53292 0.84143 0.87668 0.0
C544 C 0.51433 0.81335 0.8716 0.0
C545 C 0.51424 0.79001 0.89434 0.0
C546 C 0.57241 0.87479 0.91009 0.0
C547 C 0.49361 0.80846 0.84274 0.0
C548 C 0.5073 0.91561 0.83984 0.0
C549 C 0.52779 0.91949 0.81491 0.0
C550 C 0.50849 0.89005 0.85984 0.0
C551 C 0.53065 0.86778 0.85472 0.0
C552 C 0.5511 0.87126 0.82932 0.0
C553 C 0.54947 0.89714 0.80973 0.0
C554 C 0.48634 0.88716 0.88676 0.0
C555 C 0.57493 0.84787 0.8231 0.0
H556 H 0.56586 0.82484 0.9474 0.0
H557 H 0.4993 0.7689 0.89083 0.0
H558 H 0.58726 0.88025 0.8897 0.0
H559 H 0.55751 0.8946 0.91338 0.0
H560 H 0.58763 0.87318 0.93127 0.0
H561 H 0.48263 0.78436 0.841 0.0
H562 H 0.47494 0.82501 0.84326 0.0
H563 H 0.50713 0.81333 0.82131 0.0
H564 H 0.49046 0.93274 0.84399 0.0
H565 H 0.56532 0.89992 0.79044 0.0
H566 H 0.49966 0.8878 0.90932 0.0
H567 H 0.47256 0.86443 0.88529 0.0
H568 H 0.47003 0.9061 0.88708 0.0
H569 H 0.59147 0.84739 0.84334 0.0
H570 H 0.58832 0.85332 0.80167 0.0
H571 H 0.56333 0.82413 0.82045 0.0
C572 C 0.19762 0.4949 0.91036 0.0
C573 C 0.19975 0.51505 0.93649 0.0
C574 C 0.17402 0.49706 0.88748 0.0
C575 C 0.15228 0.52008 0.89074 0.0
C576 C 0.15495 0.54115 0.91651 0.0
C577 C 0.17859 0.53828 0.93916 0.0
C578 C 0.17171 0.47405 0.86041 0.0
C579 C 0.13232 0.56615 0.92062 0.0
C580 C 0.10197 0.53948 0.82039 0.0
C581 C 0.07396 0.52248 0.82682 0.0
C582 C 0.12777 0.53897 0.841 0.0
C583 C 0.12548 0.5208 0.86841 0.0
C584 C 0.09735 0.50342 0.87486 0.0
C585 C 0.0719 0.5046 0.85406 0.0
C586 C 0.15736 0.55802 0.83361 0.0
C587 C 0.0941 0.48358 0.90375 0.0
H588 H 0.21391 0.4769 0.90814 0.0
H589 H 0.18025 0.5541 0.95916 0.0
H590 H 0.14973 0.45918 0.86174 0.0
H591 H 0.17106 0.48654 0.83784 0.0
H592 H 0.19147 0.45872 0.86032 0.0
H593 H 0.13896 0.58207 0.94069 0.0
H594 H 0.13092 0.58018 0.89903 0.0
H595 H 0.10872 0.5552 0.9246 0.0
H596 H 0.10367 0.5534 0.7994 0.0
H597 H 0.05038 0.49127 0.85911 0.0
H598 H 0.17693 0.54263 0.83196 0.0
H599 H 0.16334 0.5751 0.85283 0.0
H600 H 0.15537 0.57085 0.81129 0.0
H601 H 0.11201 0.4662 0.90407 0.0
H602 H 0.07079 0.47099 0.90499 0.0
H603 H 0.098 0.49839 0.9251 0.0
C604 C 0.517 0.10196 0.79206 0.0
C605 C 0.53803 0.07846 0.79351 0.0
C606 C 0.51871 0.12658 0.81397 0.0
C607 C 0.54216 0.12784 0.83776 0.0
C608 C 0.56407 0.10475 0.83878 0.0
C609 C 0.56167 0.08024 0.8167 0.0
C610 C 0.49483 0.1507 0.81224 0.0
C611 C 0.58955 0.10552 0.86368 0.0
C612 C 0.55877 0.20456 0.88191 0.0
C613 C 0.54187 0.19921 0.90927 0.0
C614 C 0.55943 0.18139 0.85854 0.0
C615 C 0.54262 0.15234 0.86259 0.0
C616 C 0.52564 0.14677 0.89019 0.0
C617 C 0.52555 0.17023 0.91324 0.0
C618 C 0.57797 0.18803 0.82947 0.0
C619 C 0.50726 0.11613 0.89526 0.0
H620 H 0.49868 0.10078 0.7742 0.0
H621 H 0.57812 0.06227 0.81786 0.0
H622 H 0.48062 0.14964 0.83362 0.0
H623 H 0.50652 0.17445 0.81139 0.0
H624 H 0.47901 0.14721 0.79142 0.0
H625 H 0.60594 0.08701 0.85999 0.0
H626 H 0.60288 0.12852 0.86399 0.0
H627 H 0.57917 0.10237 0.88708 0.0
H628 H 0.57154 0.22685 0.87873 0.0
H629 H 0.51241 0.16589 0.93429 0.0
H630 H 0.5623 0.18644 0.80846 0.0
H631 H 0.59526 0.17028 0.82652 0.0
H632 H 0.59043 0.21151 0.83027 0.0
H633 H 0.48938 0.11202 0.87632 0.0
H634 H 0.49549 0.11545 0.91816 0.0
H635 H 0.52285 0.09665 0.89422 0.0
C636 C 0.93449 0.53288 0.82882 0.0
C637 C 0.9279 0.51416 0.80205 0.0
C638 C 0.91609 0.52983 0.85538 0.0
C639 C 0.89023 0.50775 0.85508 0.0
C640 C 0.88259 0.48972 0.8277 0.0
C641 C 0.90164 0.49303 0.8015 0.0
C642 C 0.92507 0.5494 0.8842 0.0
C643 C 0.85489 0.46627 0.82644 0.0
C644 C 0.86586 0.47742 0.93453 0.0
C645 C 0.84155 0.49626 0.9415 0.0
C646 C 0.88146 0.48046 0.90612 0.0
C647 C 0.87225 0.50261 0.88405 0.0
C648 C 0.84714 0.52106 0.89057 0.0
C649 C 0.83221 0.51781 0.91933 0.0
C650 C 0.90837 0.46059 0.9001 0.0
C651 C 0.83645 0.54464 0.86742 0.0
H652 H 0.95472 0.54929 0.8295 0.0
H653 H 0.89632 0.47859 0.78086 0.0
H654 H 0.90511 0.56239 0.8918 0.0
H655 H 0.9313 0.53404 0.90376 0.0
H656 H 0.94512 0.56638 0.88016 0.0
H657 H 0.85061 0.45599 0.80262 0.0
H658 H 0.85875 0.44715 0.84302 0.0
H659 H 0.83367 0.47738 0.83382 0.0
H660 H 0.87317 0.46072 0.95156 0.0
H661 H 0.81321 0.53222 0.92445 0.0
H662 H 0.93008 0.47573 0.89789 0.0
H663 H 0.90445 0.4475 0.87767 0.0
H664 H 0.91187 0.44368 0.91914 0.0
H665 H 0.85516 0.56331 0.86441 0.0
H666 H 0.81518 0.55554 0.87509 0.0
H667 H 0.83163 0.5334 0.84415 0.0
C668 C 0.52191 0.11048 0.20275 0.0
C669 C 0.49449 0.09103 0.19988 0.0
C670 C 0.53075 0.1312 0.17885 0.0
C671 C 0.51171 0.1324 0.15153 0.0
C672 C 0.48344 0.11371 0.14905 0.0
C673 C 0.47515 0.09329 0.17327 0.0
C674 C 0.56095 0.15097 0.18236 0.0
C675 C 0.46246 0.11444 0.12028 0.0
C676 C 0.5187 0.1995 0.09478 0.0
C677 C 0.53484 0.18642 0.07022 0.0
C678 C 0.51215 0.18267 0.12207 0.0
C679 C 0.52184 0.15201 0.12474 0.0
C680 C 0.53924 0.13916 0.10062 0.0
C681 C 0.54562 0.15658 0.07365 0.0
C682 C 0.4938 0.19723 0.14746 0.0
C683 C 0.54998 0.1065 0.10269 0.0
H684 H 0.53696 0.10892 0.22326 0.0
H685 H 0.45387 0.07844 0.1709 0.0
H686 H 0.57759 0.14352 0.16475 0.0
H687 H 0.55704 0.1758 0.17787 0.0
H688 H 0.5718 0.14917 0.20606 0.0
H689 H 0.44061 0.09949 0.12265 0.0
H690 H 0.45636 0.13865 0.11567 0.0
H691 H 0.47484 0.10629 0.09952 0.0
H692 H 0.51052 0.22268 0.09242 0.0
H693 H 0.55821 0.14636 0.05484 0.0
H694 H 0.50561 0.19507 0.17061 0.0
H695 H 0.47052 0.18469 0.14878 0.0
H696 H 0.49062 0.22227 0.14316 0.0
H697 H 0.56299 0.10357 0.12505 0.0
H698 H 0.56509 0.10076 0.08297 0.0
H699 H 0.52948 0.08943 0.10245 0.0
C700 C 0.97244 0.48475 0.1825 0.0
C701 C 0.96518 0.48552 0.21437 0.0
C702 C 0.94897 0.4838 0.15918 0.0
C703 C 0.91748 0.48367 0.16794 0.0
C704 C 0.90994 0.48402 0.20004 0.0
C705 C 0.9339 0.48491 0.2229 0.0
C706 C 0.9579 0.48336 0.12516 0.0
C707 C 0.87659 0.48387 0.21022 0.0
C708 C 0.86035 0.51245 0.10776 0.0
C709 C 0.84679 0.48436 0.09514 0.0
C710 C 0.88309 0.51254 0.13178 0.0
C711 C 0.89252 0.48386 0.14341 0.0
C712 C 0.87869 0.45543 0.13104 0.0
C713 C 0.85596 0.45602 0.10706 0.0
C714 C 0.89729 0.54334 0.14446 0.0
C715 C 0.88822 0.4244 0.14284 0.0
H716 H -0.00346 0.48515 0.17569 0.0
H717 H 0.92809 0.48549 0.24746 0.0
H718 H 0.94618 0.46273 0.11298 0.0
H719 H 0.94999 0.50437 0.11334 0.0
H720 H 0.98341 0.48273 0.1223 0.0
H721 H 0.87459 0.48337 0.23612 0.0
H722 H 0.86591 0.50495 0.20138 0.0
H723 H 0.8629 0.46331 0.2 0.0
H724 H 0.85335 0.53445 0.09875 0.0
H725 H 0.84559 0.4342 0.09746 0.0
H726 H 0.92266 0.54516 0.14027 0.0
H727 H 0.89427 0.54475 0.17017 0.0
H728 H 0.88679 0.56357 0.13347 0.0
H729 H 0.91326 0.42212 0.13853 0.0
H730 H 0.87461 0.40441 0.13134 0.0
H731 H 0.88506 0.42299 0.16852 0.0
C732 C 0.51228 0.82746 0.09055 0.0
C733 C 0.49133 0.81661 0.06667 0.0
C734 C 0.50512 0.85177 0.11076 0.0
C735 C 0.47629 0.86542 0.10703 0.0
C736 C 0.45459 0.85383 0.08372 0.0
C737 C 0.4624 0.82958 0.06376 0.0
C738 C 0.52887 0.86357 0.13538 0.0
C739 C 0.42356 0.86771 0.07918 0.0
C740 C 0.4519 0.91623 0.17426 0.0
C741 C 0.46209 0.94605 0.16411 0.0
C742 C 0.45557 0.88972 0.15555 0.0
C743 C 0.46986 0.89321 0.12614 0.0
C744 C 0.47925 0.92331 0.11536 0.0
C745 C 0.47518 0.94936 0.13444 0.0
C746 C 0.44501 0.85796 0.16762 0.0
C747 C 0.49453 0.92796 0.08407 0.0
H748 H 0.53463 0.81748 0.09302 0.0
H749 H 0.44599 0.82118 0.04548 0.0
H750 H 0.53698 0.888 0.13028 0.0
H751 H 0.5182 0.8636 0.1588 0.0
H752 H 0.54939 0.84927 0.13641 0.0
H753 H 0.40833 0.85442 0.06169 0.0
H754 H 0.41128 0.86837 0.10173 0.0
H755 H 0.42724 0.89211 0.07115 0.0
H756 H 0.44168 0.91349 0.19712 0.0
H757 H 0.48302 0.97232 0.12635 0.0
H758 H 0.46547 0.84403 0.17155 0.0
H759 H 0.42959 0.84517 0.14999 0.0
H760 H 0.43239 0.85941 0.18994 0.0
H761 H 0.51683 0.91647 0.08404 0.0
H762 H 0.49934 0.953 0.0786 0.0
H763 H 0.47949 0.91693 0.06508 0.0
C764 C 0.2107 0.48494 0.08436 0.0
C765 C 0.24232 0.49468 0.08775 0.0
C766 C 0.19031 0.48783 0.10916 0.0
C767 C 0.2018 0.50076 0.13811 0.0
C768 C 0.23385 0.50974 0.14207 0.0
C769 C 0.25377 0.50661 0.11679 0.0
C770 C 0.15625 0.47793 0.10405 0.0
C771 C 0.2469 0.52347 0.17268 0.0
C772 C 0.14071 0.53793 0.18562 0.0
C773 C 0.13154 0.5138 0.20596 0.0
C774 C 0.16459 0.53449 0.16434 0.0
C775 C 0.17973 0.50629 0.16348 0.0
C776 C 0.17171 0.48247 0.18505 0.0
C777 C 0.14764 0.48648 0.20603 0.0
C778 C 0.17254 0.56047 0.14173 0.0
C779 C 0.18756 0.4522 0.18499 0.0
H780 H 0.20165 0.47557 0.06206 0.0
H781 H 0.27819 0.51413 0.11962 0.0
H782 H 0.14845 0.46102 0.12217 0.0
H783 H 0.14217 0.49848 0.10636 0.0
H784 H 0.15132 0.46707 0.08058 0.0
H785 H 0.27267 0.52705 0.17273 0.0
H786 H 0.23709 0.54627 0.17713 0.0
H787 H 0.24008 0.50804 0.19238 0.0
H788 H 0.12855 0.55919 0.18555 0.0
H789 H 0.14086 0.46782 0.22185 0.0
H790 H 0.16585 0.55261 0.11753 0.0
H791 H 0.19798 0.5665 0.14221 0.0
H792 H 0.16042 0.58183 0.14713 0.0
H793 H 0.18097 0.4388 0.16322 0.0
H794 H 0.18108 0.43751 0.20539 0.0
H795 H 0.2132 0.45679 0.18523 0.0
C796 C 0.81249 0.92339 0.44633 0.0
C797 C 0.8198 0.94952 0.46575 0.0
C798 C 0.83318 0.89971 0.44353 0.0
C799 C 0.86179 0.90228 0.46056 0.0
C800 C 0.86915 0.92842 0.48043 0.0
C801 C 0.84806 0.95172 0.48279 0.0
C802 C 0.82458 0.87212 0.42216 0.0
C803 C 0.89946 0.93194 0.49899 0.0
C804 C 0.90626 0.83074 0.47651 0.0
C805 C 0.92991 0.83391 0.45447 0.0
C806 C 0.88344 0.85243 0.47825 0.0
C807 C 0.88432 0.87785 0.45744 0.0
C808 C 0.9076 0.88071 0.43458 0.0
C809 C 0.93013 0.85868 0.43336 0.0
C810 C 0.8589 0.84861 0.5029 0.0
C811 C 0.90921 0.90752 0.41197 0.0
H812 H 0.79069 0.92152 0.43309 0.0
H813 H 0.85388 0.97182 0.49786 0.0
H814 H 0.84196 0.87089 0.40346 0.0
H815 H 0.82494 0.85016 0.43554 0.0
H816 H 0.80117 0.87335 0.41099 0.0
H817 H 0.90145 0.95349 0.5137 0.0
H818 H 0.90162 0.91157 0.51443 0.0
H819 H 0.9193 0.93254 0.48283 0.0
H820 H 0.90586 0.81161 0.49285 0.0
H821 H 0.94827 0.86125 0.4162 0.0
H822 H 0.83536 0.84869 0.49189 0.0
H823 H 0.86144 0.86855 0.51968 0.0
H824 H 0.86048 0.82667 0.51619 0.0
H825 H 0.88664 0.90865 0.39918 0.0
H826 H 0.92783 0.90553 0.3946 0.0
H827 H 0.91368 0.92985 0.4251 0.0
C828 C 0.90462 0.20832 0.4933 0.0
C829 C 0.91663 0.20463 0.52375 0.0
C830 C 0.87789 0.19067 0.4825 0.0
C831 C 0.86302 0.16865 0.50257 0.0
C832 C 0.87419 0.16585 0.53378 0.0
C833 C 0.90081 0.18398 0.54405 0.0
C834 C 0.86642 0.19457 0.44919 0.0
C835 C 0.85898 0.14254 0.55586 0.0
C836 C 0.783 0.12977 0.48312 0.0
C837 C 0.79078 0.10095 0.47092 0.0
C838 C 0.80626 0.15259 0.49267 0.0
C839 C 0.83792 0.14625 0.49009 0.0
C840 C 0.84586 0.11763 0.47681 0.0
C841 C 0.82222 0.09541 0.46729 0.0
C842 C 0.79699 0.18303 0.50639 0.0
C843 C 0.87938 0.10998 0.47365 0.0
H844 H 0.91652 0.22451 0.47757 0.0
H845 H 0.90985 0.18111 0.56766 0.0
H846 H 0.87077 0.17348 0.43518 0.0
H847 H 0.84097 0.19708 0.44849 0.0
H848 H 0.87821 0.21517 0.43789 0.0
H849 H 0.86889 0.14504 0.58007 0.0
H850 H 0.83359 0.14526 0.5566 0.0
H851 H 0.86216 0.11853 0.54725 0.0
H852 H 0.75876 0.13426 0.48592 0.0
H853 H 0.8285 0.07326 0.45779 0.0
H854 H 0.80935 0.20297 0.49462 0.0
H855 H 0.80386 0.18453 0.53158 0.0
H856 H 0.77154 0.18547 0.50418 0.0
H857 H 0.89232 0.12832 0.46015 0.0
H858 H 0.8816 0.08713 0.46179 0.0
H859 H 0.89072 0.10938 0.49721 0.0
C860 C 0.1147 0.79917 0.49686 0.0
C861 C 0.08502 0.80834 0.48856 0.0
C862 C 0.14014 0.82123 0.50018 0.0
C863 C 0.13571 0.85311 0.49504 0.0
C864 C 0.10589 0.86243 0.48634 0.0
C865 C 0.08092 0.83995 0.48322 0.0
C866 C 0.17166 0.81049 0.50944 0.0
C867 C 0.10028 0.89624 0.48055 0.0
C868 C 0.18997 0.9175 0.53089 0.0
C869 C 0.20714 0.92748 0.50489 0.0
C870 C 0.16747 0.89243 0.52833 0.0
C871 C 0.16203 0.87702 0.49906 0.0
C872 C 0.18016 0.88613 0.47306 0.0
C873 C 0.20253 0.91126 0.47629 0.0
C874 C 0.14867 0.88325 0.55661 0.0
C875 C 0.17506 0.87018 0.44149 0.0
H876 H 0.11805 0.77478 0.501 0.0
H877 H 0.05809 0.84725 0.4767 0.0
H878 H 0.18898 0.8178 0.49166 0.0
H879 H 0.17968 0.82162 0.53202 0.0
H880 H 0.17135 0.78478 0.51195 0.0
H881 H 0.07576 0.89955 0.47351 0.0
H882 H 0.10612 0.91031 0.50207 0.0
H883 H 0.11565 0.90554 0.46184 0.0
H884 H 0.19353 0.92977 0.55313 0.0
H885 H 0.21582 0.91869 0.45611 0.0
H886 H 0.14903 0.85782 0.56058 0.0
H887 H 0.12405 0.88842 0.55243 0.0
H888 H 0.15745 0.89586 0.57822 0.0
H889 H 0.17558 0.84455 0.44389 0.0
H890 H 0.19284 0.87826 0.4244 0.0
H891 H 0.15176 0.87491 0.43184 0.0
C892 C 0.11357 0.20215 0.50861 0.0
C893 C 0.0844 0.19934 0.52263 0.0
C894 C 0.13364 0.17781 0.50987 0.0
C895 C 0.12437 0.15003 0.52563 0.0
C896 C 0.09522 0.14724 0.54033 0.0
C897 C 0.07554 0.17191 0.53861 0.0
C898 C 0.16453 0.18159 0.49381 0.0
C899 C 0.08462 0.11799 0.55744 0.0
C900 C 0.16188 0.07671 0.50057 0.0
C901 C 0.18496 0.07437 0.52394 0.0
C902 C 0.14175 0.10099 0.50111 0.0
C903 C 0.14474 0.12348 0.52563 0.0
C904 C 0.16764 0.12101 0.54958 0.0
C905 C 0.18752 0.09646 0.54845 0.0
C906 C 0.11757 0.10285 0.47515 0.0
C907 C 0.17142 0.14453 0.57615 0.0
H908 H 0.12062 0.22326 0.49624 0.0
H909 H 0.05309 0.16958 0.54961 0.0
H910 H 0.18376 0.17783 0.51075 0.0
H911 H 0.16543 0.16376 0.47492 0.0
H912 H 0.16868 0.20504 0.4834 0.0
H913 H 0.06185 0.12002 0.56874 0.0
H914 H 0.08249 0.0979 0.54082 0.0
H915 H 0.10213 0.1127 0.57571 0.0
H916 H 0.15967 0.05971 0.48158 0.0
H917 H 0.20526 0.09478 0.56663 0.0
H918 H 0.12175 0.12494 0.46224 0.0
H919 H 0.09404 0.10299 0.48515 0.0
H920 H 0.11779 0.08306 0.45821 0.0
H921 H 0.17767 0.16803 0.56674 0.0
H922 H 0.18967 0.13872 0.59349 0.0
H923 H 0.1491 0.14586 0.58841 0.0
loop_
_geom_bond_atom_site_label_1
_geom_bond_atom_site_label_2
_geom_bond_distance
_geom_bond_site_symmetry_2
_ccdc_geom_bond_type
C0 O1 1.160 . S
C0 O7 1.185 . S
O1 C0 1.160 . S
O2 Zn3 1.899 . S
O2 C10 1.284 . S
Zn3 O2 1.899 . S
Zn3 O4 2.032 1_455 S
Zn3 O7 2.086 . S
Zn3 O12 1.977 . S
O4 Zn3 2.032 1_655 S
O4 C8 1.278 . S
C5 O6 1.203 1_455 S
C5 O12 1.267 . S
O6 C5 1.203 1_655 S
O7 C0 1.185 . S
O7 Zn3 2.086 . S
C8 O4 1.278 . S
C8 O9 1.211 . S
O9 C8 1.211 . S
C10 O2 1.284 . S
C10 O11 1.273 1_455 S
O11 C10 1.273 1_655 S
O12 Zn3 1.977 . S
O12 C5 1.267 . S
C13 O14 1.160 . S
C13 O20 1.185 . S
O14 C13 1.160 . S
O15 Zn16 1.899 1_565 S
O15 C23 1.284 1_565 S
Zn16 O15 1.899 1_545 S
Zn16 O17 2.032 . S
Zn16 O20 2.086 1_545 S
Zn16 O25 1.977 . S
O17 Zn16 2.032 . S
O17 C21 1.278 . S
C18 O19 1.203 . S
C18 O25 1.267 . S
O19 C18 1.203 . S
O20 C13 1.185 . S
O20 Zn16 2.086 1_565 S
C21 O17 1.278 . S
C21 O22 1.211 . S
O22 C21 1.211 . S
C23 O15 1.284 1_545 S
C23 O24 1.273 . S
O24 C23 1.273 . S
O25 Zn16 1.977 . S
O25 C18 1.267 . S
C26 O27 1.160 . S
C26 O33 1.185 . S
O27 C26 1.160 . S
O28 Zn29 1.899 . S
O28 C36 1.284 . S
Zn29 O28 1.899 . S
Zn29 O30 2.032 . S
Zn29 O33 2.086 1_455 S
Zn29 O38 1.977 . S
O30 Zn29 2.032 . S
O30 C34 1.278 . S
C31 O32 1.203 . S
C31 O38 1.267 . S
O32 C31 1.203 . S
O33 C26 1.185 . S
O33 Zn29 2.086 1_655 S
C34 O30 1.278 . S
C34 O35 1.211 . S
O35 C34 1.211 . S
C36 O28 1.284 . S
C36 O37 1.273 . S
O37 C36 1.273 . S
O38 Zn29 1.977 . S
O38 C31 1.267 . S
C39 O40 1.160 . S
C39 O46 1.185 . S
O40 C39 1.160 . S
O41 Zn42 1.899 . S
O41 C49 1.284 . S
Zn42 O41 1.899 . S
Zn42 O43 2.032 1_545 S
Zn42 O46 2.086 . S
Zn42 O51 1.977 . S
O43 Zn42 2.032 1_565 S
O43 C47 1.278 . S
C44 O45 1.203 1_545 S
C44 O51 1.267 . S
O45 C44 1.203 1_565 S
O46 C39 1.185 . S
O46 Zn42 2.086 . S
C47 O43 1.278 . S
C47 O48 1.211 . S
O48 C47 1.211 . S
C49 O41 1.284 . S
C49 O50 1.273 1_545 S
O50 C49 1.273 1_565 S
O51 Zn42 1.977 . S
O51 C44 1.267 . S
C52 O53 1.160 . S
C52 O59 1.185 1_545 S
O53 C52 1.160 . S
O54 Zn55 1.899 . S
O54 C62 1.284 . S
Zn55 O54 1.899 . S
Zn55 O56 2.032 . S
Zn55 O59 2.086 1_545 S
Zn55 O64 1.977 1_545 S
O56 Zn55 2.032 . S
O56 C60 1.278 . S
C57 O58 1.203 . S
C57 O64 1.267 . S
O58 C57 1.203 . S
O59 C52 1.185 1_565 S
O59 Zn55 2.086 1_565 S
C60 O56 1.278 . S
C60 O61 1.211 1_545 S
O61 C60 1.211 1_565 S
C62 O54 1.284 . S
C62 O63 1.273 . S
O63 C62 1.273 . S
O64 Zn55 1.977 1_565 S
O64 C57 1.267 . S
C65 O66 1.160 . S
C65 O72 1.185 . S
O66 C65 1.160 . S
O67 Zn68 1.899 . S
O67 C75 1.284 . S
Zn68 O67 1.899 . S
Zn68 O69 2.032 . S
Zn68 O72 2.086 . S
Zn68 O77 1.977 . S
O69 Zn68 2.032 . S
O69 C73 1.278 1_455 S
C70 O71 1.203 . S
C70 O77 1.267 . S
O71 C70 1.203 . S
O72 C65 1.185 . S
O72 Zn68 2.086 . S
C73 O69 1.278 1_655 S
C73 O74 1.211 . S
O74 C73 1.211 . S
C75 O67 1.284 . S
C75 O76 1.273 1_455 S
O76 C75 1.273 1_655 S
O77 Zn68 1.977 . S
O77 C70 1.267 . S
C78 O79 1.160 . S
C78 O85 1.185 1_545 S
O79 C78 1.160 . S
O80 Zn81 1.899 . S
O80 C88 1.284 . S
Zn81 O80 1.899 . S
Zn81 O82 2.032 . S
Zn81 O85 2.086 1_545 S
Zn81 O90 1.977 1_545 S
O82 Zn81 2.032 . S
O82 C86 1.285 . S
C83 O84 1.203 . S
C83 O90 1.267 . S
O84 C83 1.203 . S
O85 C78 1.185 1_565 S
O85 Zn81 2.086 1_565 S
C86 O82 1.285 . S
C86 O87 1.199 1_545 S
O87 C86 1.199 1_565 S
C88 O80 1.284 . S
C88 O89 1.273 . S
O89 C88 1.273 . S
O90 Zn81 1.977 1_565 S
O90 C83 1.267 . S
C91 O92 1.160 1_455 S
C91 O98 1.185 . S
O92 C91 1.160 1_655 S
O93 Zn94 1.899 1_655 S
O93 C101 1.284 . S
Zn94 O93 1.899 1_455 S
Zn94 O95 2.032 . S
Zn94 O98 2.086 . S
Zn94 O103 1.977 . S
O95 Zn94 2.032 . S
O95 C99 1.278 . S
C96 O97 1.203 . S
C96 O103 1.267 . S
O97 C96 1.203 . S
O98 C91 1.185 . S
O98 Zn94 2.086 . S
C99 O95 1.278 . S
C99 O100 1.211 . S
O100 C99 1.211 . S
C101 O93 1.284 . S
C101 O102 1.273 . S
O102 C101 1.273 . S
O103 Zn94 1.977 . S
O103 C96 1.267 . S
C104 O105 1.160 . S
C104 O111 1.185 1_554 S
O105 C104 1.160 . S
O106 Zn107 1.899 . S
O106 C114 1.284 . S
Zn107 O106 1.899 . S
Zn107 O108 2.032 . S
Zn107 O111 2.086 1_554 S
Zn107 O116 1.977 1_554 S
O108 Zn107 2.032 . S
O108 C112 1.278 1_554 S
C109 O110 1.203 . S
C109 O116 1.267 . S
O110 C109 1.203 . S
O111 C104 1.185 1_556 S
O111 Zn107 2.086 1_556 S
C112 O108 1.278 1_556 S
C112 O113 1.211 . S
O113 C112 1.211 . S
C114 O106 1.284 . S
C114 O115 1.273 . S
O115 C114 1.273 . S
O116 Zn107 1.977 1_556 S
O116 C109 1.267 . S
C117 O118 1.160 . S
C117 O124 1.185 1_556 S
O118 C117 1.160 . S
O119 Zn120 1.899 1_556 S
O119 C127 1.284 . S
Zn120 O119 1.899 1_554 S
Zn120 O121 2.032 . S
Zn120 O124 2.086 . S
Zn120 O129 1.977 . S
O121 Zn120 2.032 . S
O121 C125 1.278 . S
C122 O123 1.203 . S
C122 O129 1.267 . S
O123 C122 1.203 . S
O124 C117 1.185 1_554 S
O124 Zn120 2.086 . S
C125 O121 1.278 . S
C125 O126 1.211 . S
O126 C125 1.211 . S
C127 O119 1.284 . S
C127 O128 1.273 . S
O128 C127 1.273 . S
O129 Zn120 1.977 . S
O129 C122 1.267 . S
C130 O131 1.160 . S
C130 O137 1.185 1_554 S
O131 C130 1.160 . S
O132 Zn133 1.899 . S
O132 C140 1.284 . S
Zn133 O132 1.899 . S
Zn133 O134 2.032 . S
Zn133 O137 2.086 1_554 S
Zn133 O142 1.977 1_554 S
O134 Zn133 2.032 . S
O134 C138 1.278 . S
C135 O136 1.203 . S
C135 O142 1.267 . S
O136 C135 1.203 . S
O137 C130 1.185 1_556 S
O137 Zn133 2.086 1_556 S
C138 O134 1.278 . S
C138 O139 1.211 1_554 S
O139 C138 1.211 1_556 S
C140 O132 1.284 . S
C140 O141 1.273 . S
O141 C140 1.273 . S
O142 Zn133 1.977 1_556 S
O142 C135 1.267 . S
C143 O144 1.160 . S
C143 O150 1.185 1_556 S
O144 C143 1.160 . S
O145 Zn146 1.899 1_556 S
O145 C153 1.284 . S
Zn146 O145 1.899 1_554 S
Zn146 O147 2.032 . S
Zn146 O150 2.086 . S
Zn146 O155 1.977 . S
O147 Zn146 2.032 . S
O147 C151 1.278 . S
C148 O149 1.203 . S
C148 O155 1.267 . S
O149 C148 1.203 . S
O150 C143 1.185 1_554 S
O150 Zn146 2.086 . S
C151 O147 1.278 . S
C151 O152 1.211 . S
O152 C151 1.211 . S
C153 O145 1.284 . S
C153 O154 1.273 . S
O154 C153 1.273 . S
O155 Zn146 1.977 . S
O155 C148 1.267 . S
C156 C157 1.391 . S
C156 C158 1.394 . S
C156 H172 0.931 . S
C157 C156 1.391 . S
C157 C161 1.376 1_455 S
C158 C156 1.394 . S
C158 C159 1.369 . S
C158 C162 1.531 . S
C159 C158 1.369 . S
C159 C160 1.410 1_455 S
C159 C167 1.503 . S
C160 C159 1.410 1_655 S
C160 C161 1.392 . S
C160 C163 1.511 . S
C161 C157 1.376 1_655 S
C161 C160 1.392 . S
C161 H173 0.929 . S
C162 C158 1.531 . S
C162 H174 0.960 . S
C162 H175 0.962 . S
C162 H176 0.960 . S
C163 C160 1.511 . S
C163 H177 0.961 . S
C163 H178 0.961 . S
C163 H179 0.961 . S
C164 C165 1.370 . S
C164 C166 1.363 . S
C164 H180 0.931 . S
C165 C164 1.370 . S
C165 C169 1.416 . S
C166 C164 1.363 . S
C166 C167 1.370 . S
C166 C170 1.524 . S
C167 C159 1.503 . S
C167 C166 1.370 . S
C167 C168 1.397 1_455 S
C168 C167 1.397 1_655 S
C168 C169 1.404 1_655 S
C168 C171 1.546 . S
C169 C165 1.416 . S
C169 C168 1.404 1_455 S
C169 H181 0.923 1_455 S
C170 C166 1.524 . S
C170 H182 0.956 . S
C170 H183 0.961 . S
C170 H184 0.961 . S
C171 C168 1.546 . S
C171 H185 0.958 . S
C171 H186 0.961 . S
C171 H187 0.960 . S
H172 C156 0.931 . S
H173 C161 0.929 . S
H174 C162 0.960 . S
H175 C162 0.962 . S
H176 C162 0.960 . S
H177 C163 0.961 . S
H178 C163 0.961 . S
H179 C163 0.961 . S
H180 C164 0.931 . S
H181 C169 0.923 1_655 S
H182 C170 0.956 . S
H183 C170 0.961 . S
H184 C170 0.961 . S
H185 C171 0.958 . S
H186 C171 0.961 . S
H187 C171 0.960 . S
C188 C189 1.391 . S
C188 C190 1.394 . S
C188 H204 0.931 . S
C189 C188 1.391 . S
C189 C193 1.376 1_545 S
C190 C188 1.394 . S
C190 C191 1.369 . S
C190 C194 1.531 . S
C191 C190 1.369 . S
C191 C192 1.410 1_545 S
C191 C199 1.503 . S
C192 C191 1.410 1_565 S
C192 C193 1.392 . S
C192 C195 1.511 . S
C193 C189 1.376 1_565 S
C193 C192 1.392 . S
C193 H205 0.929 . S
C194 C190 1.531 . S
C194 H206 0.960 . S
C194 H207 0.962 . S
C194 H208 0.960 . S
C195 C192 1.511 . S
C195 H209 0.961 . S
C195 H210 0.961 . S
C195 H211 0.961 . S
C196 C197 1.370 . S
C196 C198 1.363 . S
C196 H212 0.931 . S
C197 C196 1.370 . S
C197 C201 1.408 1_545 S
C198 C196 1.363 . S
C198 C199 1.370 . S
C198 C202 1.524 . S
C199 C191 1.503 . S
C199 C198 1.370 . S
C199 C200 1.403 1_545 S
C200 C199 1.403 1_565 S
C200 C201 1.404 . S
C200 C203 1.539 . S
C201 C197 1.408 1_565 S
C201 C200 1.404 . S
C201 H213 0.930 . S
C202 C198 1.524 . S
C202 H214 0.956 . S
C202 H215 0.961 . S
C202 H216 0.961 . S
C203 C200 1.539 . S
C203 H217 0.958 . S
C203 H218 0.961 . S
C203 H219 0.960 . S
H204 C188 0.931 . S
H205 C193 0.929 . S
H206 C194 0.960 . S
H207 C194 0.962 . S
H208 C194 0.960 . S
H209 C195 0.961 . S
H210 C195 0.961 . S
H211 C195 0.961 . S
H212 C196 0.931 . S
H213 C201 0.930 . S
H214 C202 0.956 . S
H215 C202 0.961 . S
H216 C202 0.961 . S
H217 C203 0.958 . S
H218 C203 0.961 . S
H219 C203 0.960 . S
C220 C221 1.391 . S
C220 C222 1.394 . S
C220 H236 0.931 . S
C221 C220 1.391 . S
C221 C225 1.376 1_455 S
C222 C220 1.394 . S
C222 C223 1.369 . S
C222 C226 1.531 . S
C223 C222 1.369 . S
C223 C224 1.410 1_455 S
C223 C231 1.503 . S
C224 C223 1.410 1_655 S
C224 C225 1.392 . S
C224 C227 1.511 . S
C225 C221 1.376 1_655 S
C225 C224 1.392 . S
C225 H237 0.929 . S
C226 C222 1.531 . S
C226 H238 0.960 . S
C226 H239 0.962 . S
C226 H240 0.960 . S
C227 C224 1.511 . S
C227 H241 0.961 . S
C227 H242 0.961 . S
C227 H243 0.961 . S
C228 C229 1.370 . S
C228 C230 1.363 . S
C228 H244 0.931 . S
C229 C228 1.370 . S
C229 C233 1.408 . S
C230 C228 1.363 . S
C230 C231 1.370 . S
C230 C234 1.524 . S
C231 C223 1.503 . S
C231 C230 1.370 . S
C231 C232 1.403 . S
C232 C231 1.403 . S
C232 C233 1.404 . S
C232 C235 1.539 . S
C233 C229 1.408 . S
C233 C232 1.404 . S
C233 H245 0.930 . S
C234 C230 1.524 . S
C234 H246 0.956 . S
C234 H247 0.961 . S
C234 H248 0.961 . S
C235 C232 1.539 . S
C235 H249 0.958 . S
C235 H250 0.961 1_455 S
C235 H251 0.960 . S
H236 C220 0.931 . S
H237 C225 0.929 . S
H238 C226 0.960 . S
H239 C226 0.962 . S
H240 C226 0.960 . S
H241 C227 0.961 . S
H242 C227 0.961 . S
H243 C227 0.961 . S
H244 C228 0.931 . S
H245 C233 0.930 . S
H246 C234 0.956 . S
H247 C234 0.961 . S
H248 C234 0.961 . S
H249 C235 0.958 . S
H250 C235 0.961 1_655 S
H251 C235 0.960 . S
C252 C253 1.391 . S
C252 C254 1.394 . S
C252 H268 0.931 . S
C253 C252 1.391 . S
C253 C257 1.376 . S
C254 C252 1.394 . S
C254 C255 1.369 . S
C254 C258 1.531 . S
C255 C254 1.369 . S
C255 C256 1.409 1_545 S
C255 C263 1.503 . S
C256 C255 1.409 1_565 S
C256 C257 1.391 1_565 S
C256 C259 1.513 . S
C257 C253 1.376 . S
C257 C256 1.391 1_545 S
C257 H269 0.929 1_545 S
C258 C254 1.531 . S
C258 H270 0.960 1_545 S
C258 H271 0.962 . S
C258 H272 0.960 . S
C259 C256 1.513 . S
C259 H273 0.961 1_565 S
C259 H274 0.961 1_565 S
C259 H275 0.961 . S
C260 C261 1.370 . S
C260 C262 1.363 . S
C260 H276 0.931 . S
C261 C260 1.370 . S
C261 C265 1.408 1_545 S
C262 C260 1.363 . S
C262 C263 1.370 . S
C262 C266 1.524 . S
C263 C255 1.503 . S
C263 C262 1.370 . S
C263 C264 1.403 1_545 S
C264 C263 1.403 1_565 S
C264 C265 1.404 . S
C264 C267 1.539 . S
C265 C261 1.408 1_565 S
C265 C264 1.404 . S
C265 H277 0.930 . S
C266 C262 1.524 . S
C266 H278 0.956 . S
C266 H279 0.961 . S
C266 H280 0.961 . S
C267 C264 1.539 . S
C267 H281 0.958 . S
C267 H282 0.961 . S
C267 H283 0.960 . S
H268 C252 0.931 . S
H269 C257 0.929 1_565 S
H270 C258 0.960 1_565 S
H271 C258 0.962 . S
H272 C258 0.960 . S
H273 C259 0.961 1_545 S
H274 C259 0.961 1_545 S
H275 C259 0.961 . S
H276 C260 0.931 . S
H277 C265 0.930 . S
H278 C266 0.956 . S
H279 C266 0.961 . S
H280 C266 0.961 . S
H281 C267 0.958 . S
H282 C267 0.961 . S
H283 C267 0.960 . S
C284 C285 1.391 . S
C284 C286 1.394 . S
C284 H300 0.931 . S
C285 C284 1.391 . S
C285 C289 1.376 1_455 S
C286 C284 1.394 . S
C286 C287 1.369 . S
C286 C290 1.531 . S
C287 C286 1.369 . S
C287 C288 1.410 1_455 S
C287 C295 1.503 . S
C288 C287 1.410 1_655 S
C288 C289 1.392 . S
C288 C291 1.511 . S
C289 C285 1.376 1_655 S
C289 C288 1.392 . S
C289 H301 0.929 . S
C290 C286 1.531 . S
C290 H302 0.960 . S
C290 H303 0.962 . S
C290 H304 0.960 . S
C291 C288 1.511 . S
C291 H305 0.961 . S
C291 H306 0.961 . S
C291 H307 0.961 . S
C292 C293 1.370 . S
C292 C294 1.363 . S
C292 H308 0.931 . S
C293 C292 1.370 . S
C293 C297 1.408 . S
C294 C292 1.363 . S
C294 C295 1.370 . S
C294 C298 1.524 . S
C295 C287 1.503 . S
C295 C294 1.370 . S
C295 C296 1.403 . S
C296 C295 1.403 . S
C296 C297 1.404 . S
C296 C299 1.539 1_455 S
C297 C293 1.408 . S
C297 C296 1.404 . S
C297 H309 0.929 . S
C298 C294 1.524 . S
C298 H310 0.956 . S
C298 H311 0.961 . S
C298 H312 0.961 . S
C299 C296 1.539 1_655 S
C299 H313 0.958 1_655 S
C299 H314 0.961 . S
C299 H315 0.960 . S
H300 C284 0.931 . S
H301 C289 0.929 . S
H302 C290 0.960 . S
H303 C290 0.962 . S
H304 C290 0.960 . S
H305 C291 0.961 . S
H306 C291 0.961 . S
H307 C291 0.961 . S
H308 C292 0.931 . S
H309 C297 0.929 . S
H310 C298 0.956 . S
H311 C298 0.961 . S
H312 C298 0.961 . S
H313 C299 0.958 1_455 S
H314 C299 0.961 . S
H315 C299 0.960 . S
C316 C317 1.391 1_565 S
C316 C318 1.394 . S
C316 H332 0.931 . S
C317 C316 1.391 1_545 S
C317 C321 1.376 . S
C318 C316 1.394 . S
C318 C319 1.369 1_565 S
C318 C322 1.531 . S
C319 C318 1.369 1_545 S
C319 C320 1.410 . S
C319 C327 1.503 . S
C320 C319 1.410 . S
C320 C321 1.392 . S
C320 C323 1.511 . S
C321 C317 1.376 . S
C321 C320 1.392 . S
C321 H333 0.929 . S
C322 C318 1.531 . S
C322 H334 0.960 . S
C322 H335 0.962 . S
C322 H336 0.960 . S
C323 C320 1.511 . S
C323 H337 0.961 . S
C323 H338 0.961 . S
C323 H339 0.961 . S
C324 C325 1.370 . S
C324 C326 1.363 . S
C324 H340 0.931 . S
C325 C324 1.370 . S
C325 C329 1.408 . S
C326 C324 1.363 . S
C326 C327 1.370 . S
C326 C330 1.524 . S
C327 C319 1.503 . S
C327 C326 1.370 . S
C327 C328 1.403 . S
C328 C327 1.403 . S
C328 C329 1.404 . S
C328 C331 1.539 . S
C329 C325 1.408 . S
C329 C328 1.404 . S
C329 H341 0.930 . S
C330 C326 1.524 . S
C330 H342 0.956 1_545 S
C330 H343 0.961 . S
C330 H344 0.961 . S
C331 C328 1.539 . S
C331 H345 0.958 1_545 S
C331 H346 0.961 . S
C331 H347 0.960 . S
H332 C316 0.931 . S
H333 C321 0.929 . S
H334 C322 0.960 . S
H335 C322 0.962 . S
H336 C322 0.960 . S
H337 C323 0.961 . S
H338 C323 0.961 . S
H339 C323 0.961 . S
H340 C324 0.931 . S
H341 C329 0.930 . S
H342 C330 0.956 1_565 S
H343 C330 0.961 . S
H344 C330 0.961 . S
H345 C331 0.958 1_565 S
H346 C331 0.961 . S
H347 C331 0.960 . S
C348 C349 1.398 . S
C348 C350 1.394 . S
C348 H364 0.924 1_455 S
C349 C348 1.398 . S
C349 C353 1.376 . S
C350 C348 1.394 . S
C350 C351 1.369 . S
C350 C354 1.531 1_455 S
C351 C350 1.369 . S
C351 C352 1.410 . S
C351 C359 1.503 . S
C352 C351 1.410 . S
C352 C353 1.392 . S
C352 C355 1.511 . S
C353 C349 1.376 . S
C353 C352 1.392 . S
C353 H365 0.929 . S
C354 C350 1.531 1_655 S
C354 H366 0.954 1_655 S
C354 H367 0.962 . S
C354 H368 0.960 . S
C355 C352 1.511 . S
C355 H369 0.961 . S
C355 H370 0.961 . S
C355 H371 0.961 . S
C356 C357 1.370 1_655 S
C356 C358 1.363 . S
C356 H372 0.931 . S
C357 C356 1.370 1_455 S
C357 C361 1.408 . S
C358 C356 1.363 . S
C358 C359 1.370 1_655 S
C358 C362 1.524 . S
C359 C351 1.503 . S
C359 C358 1.370 1_455 S
C359 C360 1.403 . S
C360 C359 1.403 . S
C360 C361 1.404 . S
C360 C363 1.539 . S
C361 C357 1.408 . S
C361 C360 1.404 . S
C361 H373 0.930 . S
C362 C358 1.524 . S
C362 H374 0.956 . S
C362 H375 0.961 . S
C362 H376 0.961 . S
C363 C360 1.539 . S
C363 H377 0.958 . S
C363 H378 0.961 . S
C363 H379 0.960 . S
H364 C348 0.924 1_655 S
H365 C353 0.929 . S
H366 C354 0.954 1_455 S
H367 C354 0.962 . S
H368 C354 0.960 . S
H369 C355 0.961 . S
H370 C355 0.961 . S
H371 C355 0.961 . S
H372 C356 0.931 . S
H373 C361 0.930 . S
H374 C362 0.956 . S
H375 C362 0.961 . S
H376 C362 0.961 . S
H377 C363 0.958 . S
H378 C363 0.961 . S
H379 C363 0.960 . S
C380 C381 1.391 1_565 S
C380 C382 1.394 . S
C380 H396 0.931 . S
C381 C380 1.391 1_545 S
C381 C385 1.376 . S
C382 C380 1.394 . S
C382 C383 1.369 1_565 S
C382 C386 1.531 . S
C383 C382 1.369 1_545 S
C383 C384 1.410 . S
C383 C391 1.503 . S
C384 C383 1.410 . S
C384 C385 1.392 . S
C384 C387 1.511 . S
C385 C381 1.376 . S
C385 C384 1.392 . S
C385 H397 0.929 . S
C386 C382 1.531 . S
C386 H398 0.960 . S
C386 H399 0.962 . S
C386 H400 0.960 . S
C387 C384 1.511 . S
C387 H401 0.961 . S
C387 H402 0.961 . S
C387 H403 0.961 . S
C388 C389 1.370 . S
C388 C390 1.363 . S
C388 H404 0.931 . S
C389 C388 1.370 . S
C389 C393 1.408 1_545 S
C390 C388 1.363 . S
C390 C391 1.370 . S
C390 C394 1.524 . S
C391 C383 1.503 . S
C391 C390 1.370 . S
C391 C392 1.403 1_545 S
C392 C391 1.403 1_565 S
C392 C393 1.404 . S
C392 C395 1.539 . S
C393 C389 1.408 1_565 S
C393 C392 1.404 . S
C393 H405 0.930 . S
C394 C390 1.524 . S
C394 H406 0.956 . S
C394 H407 0.961 . S
C394 H408 0.961 . S
C395 C392 1.539 . S
C395 H409 0.958 . S
C395 H410 0.961 . S
C395 H411 0.960 . S
H396 C380 0.931 . S
H397 C385 0.929 . S
H398 C386 0.960 . S
H399 C386 0.962 . S
H400 C386 0.960 . S
H401 C387 0.961 . S
H402 C387 0.961 . S
H403 C387 0.961 . S
H404 C388 0.931 . S
H405 C393 0.930 . S
H406 C394 0.956 . S
H407 C394 0.961 . S
H408 C394 0.961 . S
H409 C395 0.958 . S
H410 C395 0.961 . S
H411 C395 0.960 . S
C412 C413 1.394 1_556 S
C412 C414 1.394 . S
C412 H428 0.931 . S
C413 C412 1.394 1_554 S
C413 C417 1.373 . S
C414 C412 1.394 . S
C414 C415 1.369 . S
C414 C418 1.531 . S
C415 C414 1.369 . S
C415 C416 1.410 1_556 S
C415 C423 1.503 1_556 S
C416 C415 1.410 1_554 S
C416 C417 1.392 . S
C416 C419 1.511 . S
C417 C413 1.373 . S
C417 C416 1.392 . S
C417 H429 0.929 . S
C418 C414 1.531 . S
C418 H430 0.960 . S
C418 H431 0.962 . S
C418 H432 0.960 . S
C419 C416 1.511 . S
C419 H433 0.961 . S
C419 H434 0.961 . S
C419 H435 0.961 . S
C420 C421 1.370 . S
C420 C422 1.363 . S
C420 H436 0.931 . S
C421 C420 1.370 . S
C421 C425 1.408 1_554 S
C422 C420 1.363 . S
C422 C423 1.370 . S
C422 C426 1.524 . S
C423 C415 1.503 1_554 S
C423 C422 1.370 . S
C423 C424 1.403 1_554 S
C424 C423 1.403 1_556 S
C424 C425 1.404 . S
C424 C427 1.539 . S
C425 C421 1.408 1_556 S
C425 C424 1.404 . S
C425 H437 0.930 . S
C426 C422 1.524 . S
C426 H438 0.956 . S
C426 H439 0.961 . S
C426 H440 0.961 . S
C427 C424 1.539 . S
C427 H441 0.958 . S
C427 H442 0.961 . S
C427 H443 0.960 . S
H428 C412 0.931 . S
H429 C417 0.929 . S
H430 C418 0.960 . S
H431 C418 0.962 . S
H432 C418 0.960 . S
H433 C419 0.961 . S
H434 C419 0.961 . S
H435 C419 0.961 . S
H436 C420 0.931 . S
H437 C425 0.930 . S
H438 C426 0.956 . S
H439 C426 0.961 . S
H440 C426 0.961 . S
H441 C427 0.958 . S
H442 C427 0.961 . S
H443 C427 0.960 . S
C444 C445 1.391 . S
C444 C446 1.394 . S
C444 H460 0.931 . S
C445 C444 1.391 . S
C445 C449 1.376 . S
C446 C444 1.394 . S
C446 C447 1.369 . S
C446 C450 1.531 . S
C447 C446 1.369 . S
C447 C448 1.410 . S
C447 C455 1.503 . S
C448 C447 1.410 . S
C448 C449 1.392 . S
C448 C451 1.511 . S
C449 C445 1.376 . S
C449 C448 1.392 . S
C449 H461 0.929 . S
C450 C446 1.531 . S
C450 H462 0.960 . S
C450 H463 0.962 1_554 S
C450 H464 0.960 . S
C451 C448 1.511 . S
C451 H465 0.961 . S
C451 H466 0.961 . S
C451 H467 0.961 . S
C452 C453 1.370 1_556 S
C452 C454 1.363 . S
C452 H468 0.931 . S
C453 C452 1.370 1_554 S
C453 C457 1.408 . S
C454 C452 1.363 . S
C454 C455 1.370 1_556 S
C454 C458 1.524 . S
C455 C447 1.503 . S
C455 C454 1.370 1_554 S
C455 C456 1.403 . S
C456 C455 1.403 . S
C456 C457 1.404 . S
C456 C459 1.539 . S
C457 C453 1.408 . S
C457 C456 1.404 . S
C457 H469 0.930 . S
C458 C454 1.524 . S
C458 H470 0.956 . S
C458 H471 0.961 . S
C458 H472 0.961 . S
C459 C456 1.539 . S
C459 H473 0.958 . S
C459 H474 0.961 . S
C459 H475 0.960 . S
H460 C444 0.931 . S
H461 C449 0.929 . S
H462 C450 0.960 . S
H463 C450 0.962 1_556 S
H464 C450 0.960 . S
H465 C451 0.961 . S
H466 C451 0.961 . S
H467 C451 0.961 . S
H468 C452 0.931 . S
H469 C457 0.930 . S
H470 C458 0.956 . S
H471 C458 0.961 . S
H472 C458 0.961 . S
H473 C459 0.958 . S
H474 C459 0.961 . S
H475 C459 0.960 . S
C476 C477 1.391 1_556 S
C476 C478 1.394 . S
C476 H492 0.931 . S
C477 C476 1.391 1_554 S
C477 C481 1.376 . S
C478 C476 1.394 . S
C478 C479 1.362 1_556 S
C478 C482 1.531 . S
C479 C478 1.362 1_554 S
C479 C480 1.419 . S
C479 C487 1.504 . S
C480 C479 1.419 . S
C480 C481 1.392 . S
C480 C483 1.511 . S
C481 C477 1.376 . S
C481 C480 1.392 . S
C481 H493 0.929 . S
C482 C478 1.531 . S
C482 H494 0.960 . S
C482 H495 0.962 . S
C482 H496 0.960 . S
C483 C480 1.511 . S
C483 H497 0.961 . S
C483 H498 0.961 . S
C483 H499 0.961 . S
C484 C485 1.370 . S
C484 C486 1.363 . S
C484 H500 0.931 . S
C485 C484 1.370 . S
C485 C489 1.408 1_554 S
C486 C484 1.363 . S
C486 C487 1.370 . S
C486 C490 1.524 . S
C487 C479 1.504 . S
C487 C486 1.370 . S
C487 C488 1.403 1_554 S
C488 C487 1.403 1_556 S
C488 C489 1.404 . S
C488 C491 1.539 . S
C489 C485 1.408 1_556 S
C489 C488 1.404 . S
C489 H501 0.930 . S
C490 C486 1.524 . S
C490 H502 0.956 . S
C490 H503 0.961 . S
C490 H504 0.961 . S
C491 C488 1.539 . S
C491 H505 0.958 . S
C491 H506 0.961 . S
C491 H507 0.960 . S
H492 C476 0.931 . S
H493 C481 0.929 . S
H494 C482 0.960 . S
H495 C482 0.962 . S
H496 C482 0.960 . S
H497 C483 0.961 . S
H498 C483 0.961 . S
H499 C483 0.961 . S
H500 C484 0.931 . S
H501 C489 0.930 . S
H502 C490 0.956 . S
H503 C490 0.961 . S
H504 C490 0.961 . S
H505 C491 0.958 . S
H506 C491 0.961 . S
H507 C491 0.960 . S
C508 C509 1.391 . S
C508 C510 1.394 . S
C508 H524 0.931 . S
C509 C508 1.391 . S
C509 C513 1.376 . S
C510 C508 1.394 . S
C510 C511 1.369 . S
C510 C514 1.531 . S
C511 C510 1.369 . S
C511 C512 1.410 . S
C511 C519 1.503 . S
C512 C511 1.410 . S
C512 C513 1.394 . S
C512 C515 1.509 1_554 S
C513 C509 1.376 . S
C513 C512 1.394 . S
C513 H525 0.929 . S
C514 C510 1.531 . S
C514 H526 0.960 1_554 S
C514 H527 0.962 . S
C514 H528 0.960 1_554 S
C515 C512 1.509 1_556 S
C515 H529 0.961 1_556 S
C515 H530 0.961 1_556 S
C515 H531 0.961 . S
C516 C517 1.370 . S
C516 C518 1.363 . S
C516 H532 0.931 . S
C517 C516 1.370 . S
C517 C521 1.408 1_554 S
C518 C516 1.363 . S
C518 C519 1.370 . S
C518 C522 1.524 . S
C519 C511 1.503 . S
C519 C518 1.370 . S
C519 C520 1.403 1_554 S
C520 C519 1.403 1_556 S
C520 C521 1.404 . S
C520 C523 1.539 . S
C521 C517 1.408 1_556 S
C521 C520 1.404 . S
C521 H533 0.930 . S
C522 C518 1.524 . S
C522 H534 0.956 . S
C522 H535 0.961 . S
C522 H536 0.961 . S
C523 C520 1.539 . S
C523 H537 0.958 . S
C523 H538 0.961 . S
C523 H539 0.960 . S
H524 C508 0.931 . S
H525 C513 0.929 . S
H526 C514 0.960 1_556 S
H527 C514 0.962 . S
H528 C514 0.960 1_556 S
H529 C515 0.961 1_554 S
H530 C515 0.961 1_554 S
H531 C515 0.961 . S
H532 C516 0.931 . S
H533 C521 0.930 . S
H534 C522 0.956 . S
H535 C522 0.961 . S
H536 C522 0.961 . S
H537 C523 0.958 . S
H538 C523 0.961 . S
H539 C523 0.960 . S
C540 C541 1.391 . S
C540 C542 1.394 . S
C540 H556 0.931 . S
C541 C540 1.391 . S
C541 C545 1.376 . S
C542 C540 1.394 . S
C542 C543 1.369 . S
C542 C546 1.531 . S
C543 C542 1.369 . S
C543 C544 1.410 . S
C543 C551 1.503 . S
C544 C543 1.410 . S
C544 C545 1.392 . S
C544 C547 1.511 . S
C545 C541 1.376 . S
C545 C544 1.392 . S
C545 H557 0.929 . S
C546 C542 1.531 . S
C546 H558 0.960 . S
C546 H559 0.962 . S
C546 H560 0.960 . S
C547 C544 1.511 . S
C547 H561 0.961 . S
C547 H562 0.961 . S
C547 H563 0.961 . S
C548 C549 1.370 . S
C548 C550 1.363 . S
C548 H564 0.931 . S
C549 C548 1.370 . S
C549 C553 1.408 . S
C550 C548 1.363 . S
C550 C551 1.370 . S
C550 C554 1.524 . S
C551 C543 1.503 . S
C551 C550 1.370 . S
C551 C552 1.403 . S
C552 C551 1.403 . S
C552 C553 1.404 . S
C552 C555 1.539 . S
C553 C549 1.408 . S
C553 C552 1.404 . S
C553 H565 0.930 . S
C554 C550 1.524 . S
C554 H566 0.956 . S
C554 H567 0.961 . S
C554 H568 0.961 . S
C555 C552 1.539 . S
C555 H569 0.958 . S
C555 H570 0.961 . S
C555 H571 0.960 . S
H556 C540 0.931 . S
H557 C545 0.929 . S
H558 C546 0.960 . S
H559 C546 0.962 . S
H560 C546 0.960 . S
H561 C547 0.961 . S
H562 C547 0.961 . S
H563 C547 0.961 . S
H564 C548 0.931 . S
H565 C553 0.930 . S
H566 C554 0.956 . S
H567 C554 0.961 . S
H568 C554 0.961 . S
H569 C555 0.958 . S
H570 C555 0.961 . S
H571 C555 0.960 . S
C572 C573 1.391 . S
C572 C574 1.394 . S
C572 H588 0.931 . S
C573 C572 1.391 . S
C573 C577 1.376 . S
C574 C572 1.394 . S
C574 C575 1.369 . S
C574 C578 1.531 . S
C575 C574 1.369 . S
C575 C576 1.410 . S
C575 C583 1.503 . S
C576 C575 1.410 . S
C576 C577 1.392 . S
C576 C579 1.511 . S
C577 C573 1.376 . S
C577 C576 1.392 . S
C577 H589 0.929 . S
C578 C574 1.531 . S
C578 H590 0.960 . S
C578 H591 0.962 . S
C578 H592 0.960 . S
C579 C576 1.511 . S
C579 H593 0.961 . S
C579 H594 0.961 . S
C579 H595 0.961 . S
C580 C581 1.370 . S
C580 C582 1.363 . S
C580 H596 0.931 . S
C581 C580 1.370 . S
C581 C585 1.408 . S
C582 C580 1.363 . S
C582 C583 1.370 . S
C582 C586 1.524 . S
C583 C575 1.503 . S
C583 C582 1.370 . S
C583 C584 1.403 . S
C584 C583 1.403 . S
C584 C585 1.404 . S
C584 C587 1.539 . S
C585 C581 1.408 . S
C585 C584 1.404 . S
C585 H597 0.930 . S
C586 C582 1.524 . S
C586 H598 0.956 . S
C586 H599 0.961 . S
C586 H600 0.961 . S
C587 C584 1.539 . S
C587 H601 0.958 . S
C587 H602 0.961 . S
C587 H603 0.960 . S
H588 C572 0.931 . S
H589 C577 0.929 . S
H590 C578 0.960 . S
H591 C578 0.962 . S
H592 C578 0.960 . S
H593 C579 0.961 . S
H594 C579 0.961 . S
H595 C579 0.961 . S
H596 C580 0.931 . S
H597 C585 0.930 . S
H598 C586 0.956 . S
H599 C586 0.961 . S
H600 C586 0.961 . S
H601 C587 0.958 . S
H602 C587 0.961 . S
H603 C587 0.960 . S
C604 C605 1.391 . S
C604 C606 1.394 . S
C604 H620 0.931 . S
C605 C604 1.391 . S
C605 C609 1.376 . S
C606 C604 1.394 . S
C606 C607 1.369 . S
C606 C610 1.531 . S
C607 C606 1.369 . S
C607 C608 1.410 . S
C607 C615 1.503 . S
C608 C607 1.410 . S
C608 C609 1.392 . S
C608 C611 1.511 . S
C609 C605 1.376 . S
C609 C608 1.392 . S
C609 H621 0.929 . S
C610 C606 1.531 . S
C610 H622 0.960 . S
C610 H623 0.962 . S
C610 H624 0.960 . S
C611 C608 1.511 . S
C611 H625 0.961 . S
C611 H626 0.961 . S
C611 H627 0.961 . S
C612 C613 1.370 . S
C612 C614 1.363 . S
C612 H628 0.931 . S
C613 C612 1.370 . S
C613 C617 1.408 . S
C614 C612 1.363 . S
C614 C615 1.370 . S
C614 C618 1.524 . S
C615 C607 1.503 . S
C615 C614 1.370 . S
C615 C616 1.403 . S
C616 C615 1.403 . S
C616 C617 1.404 . S
C616 C619 1.539 . S
C617 C613 1.408 . S
C617 C616 1.404 . S
C617 H629 0.930 . S
C618 C614 1.524 . S
C618 H630 0.956 . S
C618 H631 0.961 . S
C618 H632 0.961 . S
C619 C616 1.539 . S
C619 H633 0.958 . S
C619 H634 0.961 . S
C619 H635 0.960 . S
H620 C604 0.931 . S
H621 C609 0.929 . S
H622 C610 0.960 . S
H623 C610 0.962 . S
H624 C610 0.960 . S
H625 C611 0.961 . S
H626 C611 0.961 . S
H627 C611 0.961 . S
H628 C612 0.931 . S
H629 C617 0.930 . S
H630 C618 0.956 . S
H631 C618 0.961 . S
H632 C618 0.961 . S
H633 C619 0.958 . S
H634 C619 0.961 . S
H635 C619 0.960 . S
C636 C637 1.391 . S
C636 C638 1.394 . S
C636 H652 0.931 . S
C637 C636 1.391 . S
C637 C641 1.376 . S
C638 C636 1.394 . S
C638 C639 1.369 . S
C638 C642 1.531 . S
C639 C638 1.369 . S
C639 C640 1.410 . S
C639 C647 1.503 . S
C640 C639 1.410 . S
C640 C641 1.392 . S
C640 C643 1.511 . S
C641 C637 1.376 . S
C641 C640 1.392 . S
C641 H653 0.929 . S
C642 C638 1.531 . S
C642 H654 0.960 . S
C642 H655 0.962 . S
C642 H656 0.960 . S
C643 C640 1.511 . S
C643 H657 0.961 . S
C643 H658 0.961 . S
C643 H659 0.961 . S
C644 C645 1.370 . S
C644 C646 1.363 . S
C644 H660 0.931 . S
C645 C644 1.370 . S
C645 C649 1.408 . S
C646 C644 1.363 . S
C646 C647 1.370 . S
C646 C650 1.524 . S
C647 C639 1.503 . S
C647 C646 1.370 . S
C647 C648 1.403 . S
C648 C647 1.403 . S
C648 C649 1.404 . S
C648 C651 1.539 . S
C649 C645 1.408 . S
C649 C648 1.404 . S
C649 H661 0.930 . S
C650 C646 1.524 . S
C650 H662 0.956 . S
C650 H663 0.961 . S
C650 H664 0.961 . S
C651 C648 1.539 . S
C651 H665 0.958 . S
C651 H666 0.961 . S
C651 H667 0.960 . S
H652 C636 0.931 . S
H653 C641 0.929 . S
H654 C642 0.960 . S
H655 C642 0.962 . S
H656 C642 0.960 . S
H657 C643 0.961 . S
H658 C643 0.961 . S
H659 C643 0.961 . S
H660 C644 0.931 . S
H661 C649 0.930 . S
H662 C650 0.956 . S
H663 C650 0.961 . S
H664 C650 0.961 . S
H665 C651 0.958 . S
H666 C651 0.961 . S
H667 C651 0.960 . S
C668 C669 1.391 . S
C668 C670 1.394 . S
C668 H684 0.931 . S
C669 C668 1.391 . S
C669 C673 1.376 . S
C670 C668 1.394 . S
C670 C671 1.369 . S
C670 C674 1.531 . S
C671 C670 1.369 . S
C671 C672 1.410 . S
C671 C679 1.503 . S
C672 C671 1.410 . S
C672 C673 1.392 . S
C672 C675 1.511 . S
C673 C669 1.376 . S
C673 C672 1.392 . S
C673 H685 0.929 . S
C674 C670 1.531 . S
C674 H686 0.960 . S
C674 H687 0.962 . S
C674 H688 0.960 . S
C675 C672 1.511 . S
C675 H689 0.961 . S
C675 H690 0.961 . S
C675 H691 0.961 . S
C676 C677 1.370 . S
C676 C678 1.363 . S
C676 H692 0.931 . S
C677 C676 1.370 . S
C677 C681 1.408 . S
C678 C676 1.363 . S
C678 C679 1.370 . S
C678 C682 1.524 . S
C679 C671 1.503 . S
C679 C678 1.370 . S
C679 C680 1.403 . S
C680 C679 1.403 . S
C680 C681 1.404 . S
C680 C683 1.539 . S
C681 C677 1.408 . S
C681 C680 1.404 . S
C681 H693 0.930 . S
C682 C678 1.524 . S
C682 H694 0.956 . S
C682 H695 0.961 . S
C682 H696 0.961 . S
C683 C680 1.539 . S
C683 H697 0.958 . S
C683 H698 0.961 . S
C683 H699 0.960 . S
H684 C668 0.931 . S
H685 C673 0.929 . S
H686 C674 0.960 . S
H687 C674 0.962 . S
H688 C674 0.960 . S
H689 C675 0.961 . S
H690 C675 0.961 . S
H691 C675 0.961 . S
H692 C676 0.931 . S
H693 C681 0.930 . S
H694 C682 0.956 . S
H695 C682 0.961 . S
H696 C682 0.961 . S
H697 C683 0.958 . S
H698 C683 0.961 . S
H699 C683 0.960 . S
C700 C701 1.391 . S
C700 C702 1.394 . S
C700 H716 0.931 . S
C701 C700 1.391 . S
C701 C705 1.376 . S
C702 C700 1.394 . S
C702 C703 1.369 . S
C702 C706 1.531 . S
C703 C702 1.369 . S
C703 C704 1.410 . S
C703 C711 1.503 . S
C704 C703 1.410 . S
C704 C705 1.392 . S
C704 C707 1.511 . S
C705 C701 1.376 . S
C705 C704 1.392 . S
C705 H717 0.929 . S
C706 C702 1.531 . S
C706 H718 0.960 . S
C706 H719 0.962 . S
C706 H720 0.960 . S
C707 C704 1.511 . S
C707 H721 0.961 . S
C707 H722 0.961 . S
C707 H723 0.961 . S
C708 C709 1.370 . S
C708 C710 1.363 . S
C708 H724 0.931 . S
C709 C708 1.370 . S
C709 C713 1.408 . S
C710 C708 1.363 . S
C710 C711 1.370 . S
C710 C714 1.524 . S
C711 C703 1.503 . S
C711 C710 1.370 . S
C711 C712 1.403 . S
C712 C711 1.403 . S
C712 C713 1.404 . S
C712 C715 1.539 . S
C713 C709 1.408 . S
C713 C712 1.404 . S
C713 H725 0.930 . S
C714 C710 1.524 . S
C714 H726 0.956 . S
C714 H727 0.961 . S
C714 H728 0.961 . S
C715 C712 1.539 . S
C715 H729 0.958 . S
C715 H730 0.961 . S
C715 H731 0.960 . S
H716 C700 0.931 . S
H717 C705 0.929 . S
H718 C706 0.960 . S
H719 C706 0.962 . S
H720 C706 0.960 . S
H721 C707 0.961 . S
H722 C707 0.961 . S
H723 C707 0.961 . S
H724 C708 0.931 . S
H725 C713 0.930 . S
H726 C714 0.956 . S
H727 C714 0.961 . S
H728 C714 0.961 . S
H729 C715 0.958 . S
H730 C715 0.961 . S
H731 C715 0.960 . S
C732 C733 1.391 . S
C732 C734 1.394 . S
C732 H748 0.931 . S
C733 C732 1.391 . S
C733 C737 1.376 . S
C734 C732 1.394 . S
C734 C735 1.369 . S
C734 C738 1.531 . S
C735 C734 1.369 . S
C735 C736 1.410 . S
C735 C743 1.503 . S
C736 C735 1.410 . S
C736 C737 1.392 . S
C736 C739 1.511 . S
C737 C733 1.376 . S
C737 C736 1.392 . S
C737 H749 0.929 . S
C738 C734 1.531 . S
C738 H750 0.960 . S
C738 H751 0.962 . S
C738 H752 0.960 . S
C739 C736 1.511 . S
C739 H753 0.961 . S
C739 H754 0.961 . S
C739 H755 0.961 . S
C740 C741 1.370 . S
C740 C742 1.363 . S
C740 H756 0.931 . S
C741 C740 1.370 . S
C741 C745 1.408 . S
C742 C740 1.363 . S
C742 C743 1.370 . S
C742 C746 1.524 . S
C743 C735 1.503 . S
C743 C742 1.370 . S
C743 C744 1.403 . S
C744 C743 1.403 . S
C744 C745 1.404 . S
C744 C747 1.539 . S
C745 C741 1.408 . S
C745 C744 1.404 . S
C745 H757 0.930 . S
C746 C742 1.524 . S
C746 H758 0.956 . S
C746 H759 0.961 . S
C746 H760 0.961 . S
C747 C744 1.539 . S
C747 H761 0.958 . S
C747 H762 0.961 . S
C747 H763 0.960 . S
H748 C732 0.931 . S
H749 C737 0.929 . S
H750 C738 0.960 . S
H751 C738 0.962 . S
H752 C738 0.960 . S
H753 C739 0.961 . S
H754 C739 0.961 . S
H755 C739 0.961 . S
H756 C740 0.931 . S
H757 C745 0.930 . S
H758 C746 0.956 . S
H759 C746 0.961 . S
H760 C746 0.961 . S
H761 C747 0.958 . S
H762 C747 0.961 . S
H763 C747 0.960 . S
C764 C765 1.391 . S
C764 C766 1.394 . S
C764 H780 0.931 . S
C765 C764 1.391 . S
C765 C769 1.376 . S
C766 C764 1.394 . S
C766 C767 1.369 . S
C766 C770 1.531 . S
C767 C766 1.369 . S
C767 C768 1.410 . S
C767 C775 1.503 . S
C768 C767 1.410 . S
C768 C769 1.392 . S
C768 C771 1.511 . S
C769 C765 1.376 . S
C769 C768 1.392 . S
C769 H781 0.929 . S
C770 C766 1.531 . S
C770 H782 0.960 . S
C770 H783 0.962 . S
C770 H784 0.960 . S
C771 C768 1.511 . S
C771 H785 0.961 . S
C771 H786 0.961 . S
C771 H787 0.961 . S
C772 C773 1.370 . S
C772 C774 1.363 . S
C772 H788 0.931 . S
C773 C772 1.370 . S
C773 C777 1.408 . S
C774 C772 1.363 . S
C774 C775 1.370 . S
C774 C778 1.524 . S
C775 C767 1.503 . S
C775 C774 1.370 . S
C775 C776 1.403 . S
C776 C775 1.403 . S
C776 C777 1.404 . S
C776 C779 1.539 . S
C777 C773 1.408 . S
C777 C776 1.404 . S
C777 H789 0.930 . S
C778 C774 1.524 . S
C778 H790 0.956 . S
C778 H791 0.961 . S
C778 H792 0.961 . S
C779 C776 1.539 . S
C779 H793 0.958 . S
C779 H794 0.961 . S
C779 H795 0.960 . S
H780 C764 0.931 . S
H781 C769 0.929 . S
H782 C770 0.960 . S
H783 C770 0.962 . S
H784 C770 0.960 . S
H785 C771 0.961 . S
H786 C771 0.961 . S
H787 C771 0.961 . S
H788 C772 0.931 . S
H789 C777 0.930 . S
H790 C778 0.956 . S
H791 C778 0.961 . S
H792 C778 0.961 . S
H793 C779 0.958 . S
H794 C779 0.961 . S
H795 C779 0.960 . S
C796 C797 1.391 . S
C796 C798 1.394 . S
C796 H812 0.931 . S
C797 C796 1.391 . S
C797 C801 1.376 . S
C798 C796 1.394 . S
C798 C799 1.369 . S
C798 C802 1.531 . S
C799 C798 1.369 . S
C799 C800 1.410 . S
C799 C807 1.503 . S
C800 C799 1.410 . S
C800 C801 1.392 . S
C800 C803 1.511 . S
C801 C797 1.376 . S
C801 C800 1.392 . S
C801 H813 0.929 . S
C802 C798 1.531 . S
C802 H814 0.960 . S
C802 H815 0.962 . S
C802 H816 0.960 . S
C803 C800 1.511 . S
C803 H817 0.961 . S
C803 H818 0.961 . S
C803 H819 0.961 . S
C804 C805 1.370 . S
C804 C806 1.363 . S
C804 H820 0.931 . S
C805 C804 1.370 . S
C805 C809 1.408 . S
C806 C804 1.363 . S
C806 C807 1.370 . S
C806 C810 1.524 . S
C807 C799 1.503 . S
C807 C806 1.370 . S
C807 C808 1.403 . S
C808 C807 1.403 . S
C808 C809 1.404 . S
C808 C811 1.539 . S
C809 C805 1.408 . S
C809 C808 1.404 . S
C809 H821 0.930 . S
C810 C806 1.524 . S
C810 H822 0.956 . S
C810 H823 0.961 . S
C810 H824 0.961 . S
C811 C808 1.539 . S
C811 H825 0.958 . S
C811 H826 0.961 . S
C811 H827 0.960 . S
H812 C796 0.931 . S
H813 C801 0.929 . S
H814 C802 0.960 . S
H815 C802 0.962 . S
H816 C802 0.960 . S
H817 C803 0.961 . S
H818 C803 0.961 . S
H819 C803 0.961 . S
H820 C804 0.931 . S
H821 C809 0.930 . S
H822 C810 0.956 . S
H823 C810 0.961 . S
H824 C810 0.961 . S
H825 C811 0.958 . S
H826 C811 0.961 . S
H827 C811 0.960 . S
C828 C829 1.391 . S
C828 C830 1.394 . S
C828 H844 0.931 . S
C829 C828 1.391 . S
C829 C833 1.376 . S
C830 C828 1.394 . S
C830 C831 1.369 . S
C830 C834 1.531 . S
C831 C830 1.369 . S
C831 C832 1.410 . S
C831 C839 1.503 . S
C832 C831 1.410 . S
C832 C833 1.392 . S
C832 C835 1.511 . S
C833 C829 1.376 . S
C833 C832 1.392 . S
C833 H845 0.929 . S
C834 C830 1.531 . S
C834 H846 0.960 . S
C834 H847 0.962 . S
C834 H848 0.960 . S
C835 C832 1.511 . S
C835 H849 0.961 . S
C835 H850 0.961 . S
C835 H851 0.961 . S
C836 C837 1.370 . S
C836 C838 1.363 . S
C836 H852 0.931 . S
C837 C836 1.370 . S
C837 C841 1.408 . S
C838 C836 1.363 . S
C838 C839 1.370 . S
C838 C842 1.524 . S
C839 C831 1.503 . S
C839 C838 1.370 . S
C839 C840 1.403 . S
C840 C839 1.403 . S
C840 C841 1.404 . S
C840 C843 1.539 . S
C841 C837 1.408 . S
C841 C840 1.404 . S
C841 H853 0.930 . S
C842 C838 1.524 . S
C842 H854 0.956 . S
C842 H855 0.961 . S
C842 H856 0.961 . S
C843 C840 1.539 . S
C843 H857 0.958 . S
C843 H858 0.961 . S
C843 H859 0.960 . S
H844 C828 0.931 . S
H845 C833 0.929 . S
H846 C834 0.960 . S
H847 C834 0.962 . S
H848 C834 0.960 . S
H849 C835 0.961 . S
H850 C835 0.961 . S
H851 C835 0.961 . S
H852 C836 0.931 . S
H853 C841 0.930 . S
H854 C842 0.956 . S
H855 C842 0.961 . S
H856 C842 0.961 . S
H857 C843 0.958 . S
H858 C843 0.961 . S
H859 C843 0.960 . S
C860 C861 1.391 . S
C860 C862 1.394 . S
C860 H876 0.931 . S
C861 C860 1.391 . S
C861 C865 1.376 . S
C862 C860 1.394 . S
C862 C863 1.369 . S
C862 C866 1.531 . S
C863 C862 1.369 . S
C863 C864 1.410 . S
C863 C871 1.503 . S
C864 C863 1.410 . S
C864 C865 1.392 . S
C864 C867 1.511 . S
C865 C861 1.376 . S
C865 C864 1.392 . S
C865 H877 0.929 . S
C866 C862 1.531 . S
C866 H878 0.960 . S
C866 H879 0.962 . S
C866 H880 0.960 . S
C867 C864 1.511 . S
C867 H881 0.961 . S
C867 H882 0.961 . S
C867 H883 0.961 . S
C868 C869 1.370 . S
C868 C870 1.363 . S
C868 H884 0.931 . S
C869 C868 1.370 . S
C869 C873 1.408 . S
C870 C868 1.363 . S
C870 C871 1.370 . S
C870 C874 1.524 . S
C871 C863 1.503 . S
C871 C870 1.370 . S
C871 C872 1.403 . S
C872 C871 1.403 . S
C872 C873 1.404 . S
C872 C875 1.539 . S
C873 C869 1.408 . S
C873 C872 1.404 . S
C873 H885 0.930 . S
C874 C870 1.524 . S
C874 H886 0.956 . S
C874 H887 0.961 . S
C874 H888 0.961 . S
C875 C872 1.539 . S
C875 H889 0.958 . S
C875 H890 0.961 . S
C875 H891 0.960 . S
H876 C860 0.931 . S
H877 C865 0.929 . S
H878 C866 0.960 . S
H879 C866 0.962 . S
H880 C866 0.960 . S
H881 C867 0.961 . S
H882 C867 0.961 . S
H883 C867 0.961 . S
H884 C868 0.931 . S
H885 C873 0.930 . S
H886 C874 0.956 . S
H887 C874 0.961 . S
H888 C874 0.961 . S
H889 C875 0.958 . S
H890 C875 0.961 . S
H891 C875 0.960 . S
C892 C893 1.391 . S
C892 C894 1.394 . S
C892 H908 0.931 . S
C893 C892 1.391 . S
C893 C897 1.376 . S
C894 C892 1.394 . S
C894 C895 1.369 . S
C894 C898 1.531 . S
C895 C894 1.369 . S
C895 C896 1.410 . S
C895 C903 1.503 . S
C896 C895 1.410 . S
C896 C897 1.392 . S
C896 C899 1.511 . S
C897 C893 1.376 . S
C897 C896 1.392 . S
C897 H909 0.929 . S
C898 C894 1.531 . S
C898 H910 0.960 . S
C898 H911 0.962 . S
C898 H912 0.960 . S
C899 C896 1.511 . S
C899 H913 0.961 . S
C899 H914 0.961 . S
C899 H915 0.961 . S
C900 C901 1.370 . S
C900 C902 1.363 . S
C900 H916 0.931 . S
C901 C900 1.370 . S
C901 C905 1.408 . S
C902 C900 1.363 . S
C902 C903 1.370 . S
C902 C906 1.524 . S
C903 C895 1.503 . S
C903 C902 1.370 . S
C903 C904 1.403 . S
C904 C903 1.403 . S
C904 C905 1.404 . S
C904 C907 1.539 . S
C905 C901 1.408 . S
C905 C904 1.404 . S
C905 H917 0.930 . S
C906 C902 1.524 . S
C906 H918 0.956 . S
C906 H919 0.961 . S
C906 H920 0.961 . S
C907 C904 1.539 . S
C907 H921 0.958 . S
C907 H922 0.961 . S
C907 H923 0.960 . S
H908 C892 0.931 . S
H909 C897 0.929 . S
H910 C898 0.960 . S
H911 C898 0.962 . S
H912 C898 0.960 . S
H913 C899 0.961 . S
H914 C899 0.961 . S
H915 C899 0.961 . S
H916 C900 0.931 . S
H917 C905 0.930 . S
H918 C906 0.956 . S
H919 C906 0.961 . S
H920 C906 0.961 . S
H921 C907 0.958 . S
H922 C907 0.961 . S
H923 C907 0.960 . S
C157 C10 1.419 . S
C165 C70 1.414 . S
C189 C18 1.221 . S
C197 C60 1.208 . S
C221 C75 1.369 . S
C229 C36 1.381 . S
C253 C44 1.265 . S
C261 C52 1.302 . S
C285 C91 1.245 . S
C293 C31 1.227 . S
C317 C86 1.379 . S
C325 C49 1.385 . S
C349 C5 1.235 . S
C357 C99 1.223 . S
C381 C78 1.408 . S
C389 C23 1.402 . S
C413 C117 1.356 1_554 S
C421 C104 1.373 . S
C445 C112 1.267 1_554 S
C453 C151 1.245 . S
C477 C125 1.328 . S
C485 C138 1.310 . S
C509 C130 1.415 . S
C517 C143 1.397 1_554 S
C541 C153 1.373 . S
C549 C83 1.369 . S
C573 C109 1.165 . S
C581 C96 1.195 . S
C605 C88 1.397 . S
C613 C127 1.414 . S
C637 C101 1.355 . S
C645 C135 1.338 . S
C669 C62 1.299 . S
C677 C122 1.273 . S
C701 C73 1.414 . S
C709 C140 1.412 . S
C733 C148 1.193 . S
C741 C57 1.203 . S
C765 C114 1.351 . S
C773 C65 1.347 . S
C797 C13 1.367 . S
C805 C26 1.351 . S
C829 C8 1.249 . S
C837 C21 1.253 . S
C861 C34 1.295 . S
C869 C47 1.271 . S
C893 C0 1.379 . S
C901 C39 1.384 . S
