# Generated by pormake.
# Topology sml, (6)-cn, num edge types: 1
# Building blocks:
#     Node 0, Type 0, BuildingBlock: FUNLAD_clean_sbu_0, # of connection points: 6
#     Node 1, Type 0, BuildingBlock: FUNLAD_clean_sbu_0, # of connection points: 6
#     Node 2, Type 0, BuildingBlock: FUNLAD_clean_sbu_0, # of connection points: 6
#     Node 3, Type 0, BuildingBlock: FUNLAD_clean_sbu_0, # of connection points: 6
#     Node 4, Type 0, BuildingBlock: FUNLAD_clean_sbu_0, # of connection points: 6
#     Node 5, Type 0, BuildingBlock: FUNLAD_clean_sbu_0, # of connection points: 6
#     Edge 6, Type (0, 0), BuildingBlock: ZUJKAS_clean_linker_0, # of connection points: 2
#     Edge 7, Type (0, 0), BuildingBlock: ZUJKAS_clean_linker_0, # of connection points: 2
#     Edge 8, Type (0, 0), BuildingBlock: ZUJKAS_clean_linker_0, # of connection points: 2
#     Edge 9, Type (0, 0), BuildingBlock: ZUJKAS_clean_linker_0, # of connection points: 2
#     Edge 10, Type (0, 0), BuildingBlock: ZUJKAS_clean_linker_0, # of connection points: 2
#     Edge 11, Type (0, 0), BuildingBlock: ZUJKAS_clean_linker_0, # of connection points: 2
#     Edge 12, Type (0, 0), BuildingBlock: ZUJKAS_clean_linker_0, # of connection points: 2
#     Edge 13, Type (0, 0), BuildingBlock: ZUJKAS_clean_linker_0, # of connection points: 2
#     Edge 14, Type (0, 0), BuildingBlock: ZUJKAS_clean_linker_0, # of connection points: 2
#     Edge 15, Type (0, 0), BuildingBlock: ZUJKAS_clean_linker_0, # of connection points: 2
#     Edge 16, Type (0, 0), BuildingBlock: ZUJKAS_clean_linker_0, # of connection points: 2
#     Edge 17, Type (0, 0), BuildingBlock: ZUJKAS_clean_linker_0, # of connection points: 2
#     Edge 18, Type (0, 0), BuildingBlock: ZUJKAS_clean_linker_0, # of connection points: 2
#     Edge 19, Type (0, 0), BuildingBlock: ZUJKAS_clean_linker_0, # of connection points: 2
#     Edge 20, Type (0, 0), BuildingBlock: ZUJKAS_clean_linker_0, # of connection points: 2
#     Edge 21, Type (0, 0), BuildingBlock: ZUJKAS_clean_linker_0, # of connection points: 2
#     Edge 22, Type (0, 0), BuildingBlock: ZUJKAS_clean_linker_0, # of connection points: 2
#     Edge 23, Type (0, 0), BuildingBlock: ZUJKAS_clean_linker_0, # of connection points: 2
# Relax obj value: 0.365
# Max RMSD: 0.208
# Mean RMSD: 0.208
data_MOF--net-sml--node1-FUNLAD_clean_sbu_0--edge1-ZUJKAS_clean_linker_0
_symmetry_space_group_name_H-M    P1
_symmetry_Int_Tables_number       1
_symmetry_cell_setting            triclinic
loop_
_symmetry_equiv_pos_as_xyz
'x, y, z'
_cell_length_a     59.026622
_cell_length_b     59.015826
_cell_length_c     18.724313
_cell_angle_alpha  89.822892
_cell_angle_beta   90.135543
_cell_angle_gamma 120.06085
loop_
_atom_site_label
_atom_site_type_symbol
_atom_site_fract_x
_atom_site_fract_y
_atom_site_fract_z
_atom_type_partial_charge
C0 C 0.14247 0.39023 0.89452 0.0
N1 N 0.16792 0.34645 0.01041 0.0
C2 C 0.15019 0.32571 0.97107 0.0
C3 C 0.15487 0.30537 0.95386 0.0
C4 C 0.1778 0.30625 -0.02166 0.0
C5 C 0.19521 0.32736 0.02109 0.0
C6 C 0.18997 0.34742 0.03607 0.0
Zn7 Zn 0.16361 0.37847 0.0252 0.0
C8 C 0.21184 0.42757 -0.02093 0.0
N9 N 0.15631 0.44661 0.04893 0.0
C10 C 0.13449 0.44736 0.02909 0.0
C11 C 0.177 0.46768 0.07977 0.0
C12 C 0.17634 0.49063 0.09156 0.0
C13 C 0.1542 0.49212 0.07134 0.0
C14 C 0.133 0.47004 0.03996 0.0
Zn15 Zn 0.15933 0.41384 0.03418 0.0
O16 O 0.14909 0.37468 0.92182 0.0
C17 C 0.11094 0.36487 0.07906 0.0
O18 O 0.1449 0.40953 0.9304 0.0
H19 H 0.19412 0.4667 0.09559 0.0
H20 H 0.13275 0.32528 0.95124 0.0
H21 H 0.11825 0.43038 0.00468 0.0
O22 O 0.12476 0.35455 0.06348 0.0
O23 O 0.12075 0.38951 0.0725 0.0
H24 H 0.20402 0.36421 0.06632 0.0
O25 O 0.17394 0.41776 0.13754 0.0
O26 O 0.17783 0.38279 0.12943 0.0
O27 O 0.19774 0.43743 -0.00469 0.0
O28 O 0.20251 0.40304 -0.0138 0.0
C29 C 0.1804 0.40216 0.16511 0.0
H30 H 0.14094 0.28933 0.92096 0.0
H31 H 0.2133 0.32895 0.04011 0.0
H32 H 0.19294 0.50695 0.11719 0.0
H33 H 0.11561 0.47039 0.02316 0.0
C34 C 0.80949 0.22401 0.45911 0.0
N35 N 0.78115 0.15449 0.34351 0.0
C36 C 0.7992 0.15041 0.37761 0.0
C37 C 0.7933 0.12499 0.39569 0.0
C38 C 0.76853 0.10371 0.37895 0.0
C39 C 0.75079 0.10847 0.34107 0.0
C40 C 0.75751 0.13408 0.3238 0.0
Zn41 Zn 0.78705 0.19149 0.32882 0.0
C42 C 0.73996 0.19427 0.37705 0.0
N43 N 0.79692 0.26806 0.30515 0.0
C44 C 0.81995 0.29029 0.31941 0.0
C45 C 0.77599 0.2692 0.27887 0.0
C46 C 0.77764 0.29325 0.26638 0.0
C47 C 0.80113 0.3165 0.28025 0.0
C48 C 0.82255 0.31489 0.30684 0.0
Zn49 Zn 0.79249 0.23164 0.32 0.0
O50 O 0.80205 0.20168 0.43194 0.0
C51 C 0.83972 0.22938 0.27245 0.0
O52 O 0.80775 0.24136 0.42317 0.0
H53 H 0.75797 0.25137 0.26683 0.0
H54 H 0.81784 0.16693 0.39308 0.0
H55 H 0.83636 0.28896 0.34019 0.0
O56 O 0.82568 0.2053 0.2892 0.0
O57 O 0.83039 0.24456 0.2794 0.0
H58 H 0.74343 0.13769 0.29669 0.0
O59 O 0.77705 0.22131 0.21726 0.0
O60 O 0.77235 0.18207 0.22488 0.0
O61 O 0.75472 0.21819 0.36099 0.0
O62 O 0.74842 0.17842 0.36899 0.0
C63 C 0.7701 0.1992 0.18947 0.0
H64 H 0.80749 0.12213 0.42518 0.0
H65 H 0.73163 0.09257 0.32619 0.0
H66 H 0.76081 0.29363 0.24463 0.0
H67 H 0.84099 0.33242 0.3183 0.0
C68 C 0.55843 0.71943 0.54362 0.0
N69 N 0.59948 0.78969 0.65639 0.0
C70 C 0.62157 0.79379 0.62221 0.0
C71 C 0.64093 0.81918 0.60329 0.0
C72 C 0.63734 0.84042 0.61923 0.0
C73 C 0.61487 0.83565 0.65708 0.0
C74 C 0.59616 0.81008 0.67525 0.0
Zn75 Zn 0.56866 0.75263 0.67268 0.0
C76 C 0.5185 0.74883 0.62387 0.0
N77 N 0.50248 0.67574 0.6996 0.0
C78 C 0.50334 0.65346 0.68697 0.0
C79 C 0.48043 0.67467 0.72539 0.0
C80 C 0.45808 0.65065 0.73897 0.0
C81 C 0.45835 0.62736 0.72671 0.0
C82 C 0.4814 0.6289 0.70068 0.0
Zn83 Zn 0.53432 0.71224 0.68305 0.0
O84 O 0.57307 0.74202 0.56987 0.0
C85 C 0.58431 0.71572 0.73086 0.0
O86 O 0.53973 0.70197 0.58036 0.0
H87 H 0.48018 0.69252 0.73618 0.0
H88 H 0.62377 0.77729 0.60743 0.0
H89 H 0.52108 0.65474 0.66661 0.0
O90 O 0.59389 0.73954 0.71214 0.0
O91 O 0.55979 0.70009 0.72529 0.0
H92 H 0.57851 0.80646 0.70245 0.0
O93 O 0.52934 0.72313 0.78506 0.0
O94 O 0.56378 0.76245 0.77654 0.0
O95 O 0.50963 0.725 0.64045 0.0
O96 O 0.54272 0.76502 0.63238 0.0
C97 C 0.54452 0.74537 0.81233 0.0
H98 H 0.65794 0.82203 0.57385 0.0
H99 H 0.61155 0.85153 0.67134 0.0
H100 H 0.44088 0.65035 0.76026 0.0
H101 H 0.48234 0.61134 0.69046 0.0
C102 C 0.72435 0.55545 0.11623 0.0
N103 N 0.79438 0.59929 0.00495 0.0
C104 C 0.79706 0.62008 0.04316 0.0
C105 C 0.82194 0.64048 0.06157 0.0
C106 C 0.84418 0.63956 0.03961 0.0
C107 C 0.84083 0.61831 -0.0018 0.0
C108 C 0.81566 0.59823 -0.01825 0.0
Zn109 Zn 0.75812 0.56766 -0.01264 0.0
C110 C 0.75613 0.51796 0.03277 0.0
N111 N 0.68243 0.50057 0.95774 0.0
C112 C 0.66001 0.50061 0.97432 0.0
C113 C 0.6817 0.47947 0.92632 0.0
C114 C 0.65784 0.45745 0.90939 0.0
C115 C 0.63437 0.45703 0.92474 0.0
C116 C 0.63561 0.47888 0.95836 0.0
Zn117 Zn 0.71837 0.53267 0.97583 0.0
O118 O 0.7468 0.57083 0.09036 0.0
C119 C 0.72021 0.58225 0.93111 0.0
O120 O 0.70742 0.53657 0.07906 0.0
H121 H 0.69971 0.47977 0.91365 0.0
H122 H 0.77989 0.62056 0.06096 0.0
H123 H 0.66104 0.51763 -0.00087 0.0
O124 O 0.74408 0.59223 0.94946 0.0
O125 O 0.70508 0.55762 0.93588 0.0
H126 H 0.81311 0.58141 0.95214 0.0
O127 O 0.72983 0.52908 0.87334 0.0
O128 O 0.76869 0.56406 0.88324 0.0
O129 O 0.73223 0.50841 0.01579 0.0
O130 O 0.77166 0.54245 0.02611 0.0
C131 C 0.75202 0.54481 0.84672 0.0
H132 H 0.82376 0.65663 0.09329 0.0
H133 H 0.85748 0.61668 -0.01888 0.0
H134 H 0.65781 0.44085 0.88473 0.0
H135 H 0.61797 0.4794 0.97077 0.0
C136 C 0.22486 0.80874 0.22344 0.0
N137 N 0.15503 0.77971 0.33697 0.0
C138 C 0.15186 0.79823 0.30225 0.0
C139 C 0.12683 0.79335 0.2843 0.0
C140 C 0.10489 0.76925 0.30261 0.0
C141 C 0.10871 0.75091 0.34079 0.0
C142 C 0.13406 0.75654 0.35732 0.0
Zn143 Zn 0.19179 0.7855 0.35284 0.0
C144 C 0.19559 0.73918 0.30407 0.0
N145 N 0.26865 0.79701 0.37868 0.0
C146 C 0.28006 0.78969 0.32763 0.0
C147 C 0.28057 0.80665 0.44261 0.0
C148 C 0.30454 0.80845 0.4581 0.0
C149 C 0.3164 0.80026 0.40735 0.0
C150 C 0.30409 0.79121 0.34086 0.0
Zn151 Zn 0.23206 0.79167 0.36264 0.0
O152 O 0.20223 0.8005 0.24963 0.0
C153 C 0.2286 0.83809 0.41049 0.0
O154 O 0.24236 0.80771 0.26039 0.0
H155 H 0.2712 0.81242 0.4824 0.0
H156 H 0.1688 0.81654 0.2867 0.0
H157 H 0.2702 0.78202 0.27724 0.0
O158 O 0.20481 0.82383 0.39192 0.0
O159 O 0.2442 0.82924 0.40465 0.0
H160 H 0.13703 0.74203 0.3845 0.0
O161 O 0.22119 0.77533 0.46446 0.0
O162 O 0.18202 0.77076 0.45664 0.0
O163 O 0.21946 0.75418 0.32033 0.0
O164 O 0.17934 0.7471 0.31314 0.0
C165 C 0.19905 0.76839 0.49213 0.0
H166 H 0.12471 0.80811 0.25541 0.0
H167 H 0.09236 0.73194 0.35508 0.0
H168 H 0.31353 0.81587 0.50967 0.0
H169 H 0.31243 0.78445 0.30051 0.0
C170 C 0.39062 0.13842 0.78995 0.0
N171 N 0.34707 0.16506 0.67833 0.0
C172 C 0.32639 0.14689 0.71705 0.0
C173 C 0.30626 0.15152 0.73707 0.0
C174 C 0.30732 0.17492 0.71637 0.0
C175 C 0.32833 0.19279 0.67393 0.0
C176 C 0.34814 0.18752 0.65576 0.0
Zn177 Zn 0.37873 0.16044 0.66069 0.0
C178 C 0.42826 0.20774 0.70692 0.0
N179 N 0.44588 0.15174 0.63223 0.0
C180 C 0.44577 0.12901 0.64601 0.0
C181 C 0.46752 0.17299 0.60535 0.0
C182 C 0.49022 0.17202 0.59189 0.0
C183 C 0.49073 0.14889 0.6055 0.0
C184 C 0.46808 0.1271 0.63255 0.0
Zn185 Zn 0.41348 0.15523 0.64964 0.0
O186 O 0.3756 0.14597 0.76408 0.0
C187 C 0.36399 0.1078 0.6046 0.0
O188 O 0.40921 0.13988 0.75257 0.0
H189 H 0.46718 0.19077 0.59382 0.0
H190 H 0.32587 0.12914 0.73434 0.0
H191 H 0.42836 0.11234 0.66732 0.0
O192 O 0.35419 0.12176 0.62334 0.0
O193 O 0.38862 0.11718 0.60882 0.0
H194 H 0.36486 0.20183 0.62567 0.0
O195 O 0.41745 0.17084 0.54736 0.0
O196 O 0.38241 0.17462 0.55635 0.0
O197 O 0.43748 0.19307 0.69094 0.0
O198 O 0.40392 0.19923 0.69882 0.0
C199 C 0.40178 0.17731 0.52027 0.0
H200 H 0.29028 0.13716 0.76941 0.0
H201 H 0.33008 0.21123 0.65765 0.0
H202 H 0.5071 0.18912 0.56984 0.0
H203 H 0.46774 0.10892 0.64392 0.0
H204 H 0.28892 0.16994 0.85238 0.0
H205 H 0.2609 0.18597 0.8998 0.0
H206 H 0.25443 0.21206 0.68938 0.0
H207 H 0.28239 0.19598 0.64137 0.0
H208 H 0.27637 0.24204 0.88045 0.0
H209 H 0.17737 0.17215 0.77447 0.0
H210 H 0.20245 0.16342 0.78648 0.0
H211 H 0.20433 0.18382 0.71288 0.0
C212 C 0.28101 0.17851 0.81588 0.0
C213 C 0.28784 0.18172 0.74314 0.0
C214 C 0.26511 0.18774 0.84311 0.0
C215 C 0.25547 0.19996 0.79793 0.0
C216 C 0.26144 0.20236 0.72486 0.0
H217 H 0.17621 0.28818 0.84353 0.0
H218 H 0.19335 0.26023 0.80321 0.0
C219 C 0.27755 0.19336 0.69767 0.0
C220 C 0.2415 0.21264 0.82828 0.0
H221 H 0.18262 0.21044 0.83065 0.0
C222 C 0.25581 0.23504 0.87025 0.0
C223 C 0.21481 0.20354 0.81396 0.0
C224 C 0.19866 0.17931 0.76986 0.0
C225 C 0.2443 0.24909 0.89696 0.0
C226 C 0.21748 0.23994 0.88315 0.0
C227 C 0.2031 0.21732 0.8416 0.0
C228 C 0.20444 0.25431 0.90889 0.0
C229 C 0.26132 0.27416 0.9372 0.0
C230 C 0.2041 0.25945 -0.01807 0.0
C231 C 0.19458 0.27562 0.00495 0.0
C232 C 0.18472 0.28647 0.95545 0.0
C233 C 0.18356 0.27996 0.88287 0.0
C234 C 0.1934 0.26406 0.85978 0.0
H235 H 0.28245 0.28199 0.9262 0.0
H236 H 0.25635 0.28944 0.92304 0.0
H237 H 0.25821 0.27029 -0.00459 0.0
H238 H 0.21184 0.25152 0.02099 0.0
H239 H 0.19536 0.28004 0.06132 0.0
H240 H 0.07552 0.38058 0.10708 0.0
H241 H 0.02932 0.35322 0.13779 0.0
H242 H 0.0372 0.28447 0.13157 0.0
H243 H 0.08362 0.31172 0.10088 0.0
H244 H 0.99091 0.30996 0.05177 0.0
H245 H 1.00085 0.27986 0.32698 0.0
H246 H 0.02714 0.30806 0.28312 0.0
H247 H 0.01946 0.27572 0.25746 0.0
C248 C 0.06756 0.35967 0.11281 0.0
C249 C 0.08331 0.34835 0.1016 0.0
C250 C 0.04112 0.34407 0.13022 0.0
C251 C 0.02993 0.31688 0.13739 0.0
C252 C 0.04558 0.30547 0.12714 0.0
H253 H 0.86758 0.20377 0.25782 0.0
H254 H 0.91328 0.22255 0.21968 0.0
C255 C 0.07206 0.32107 0.1094 0.0
C256 C 1.00161 0.30058 0.15297 0.0
H257 H 0.95807 0.26367 0.28293 0.0
C258 C 0.98369 0.2997 0.10213 0.0
C259 C 0.99231 0.28702 0.21837 0.0
C260 C 0.01084 0.28771 0.27506 0.0
C261 C 0.95668 0.286 0.11547 0.0
C262 C 0.94739 0.27334 0.18208 0.0
C263 C 0.96525 0.27344 0.23198 0.0
C264 C 0.9195 0.26154 0.20284 0.0
C265 C 0.93832 0.28527 0.05811 0.0
C266 C 0.90796 0.27729 0.20658 0.0
C267 C 0.88198 0.26669 0.22815 0.0
C268 C 0.86697 0.24008 0.24702 0.0
C269 C 0.87856 0.22429 0.24332 0.0
C270 C 0.90466 0.23498 0.2217 0.0
H271 H 0.9473 0.28847 0.00425 0.0
H272 H 0.91965 0.26629 0.05829 0.0
H273 H 0.93381 0.30113 0.06792 0.0
H274 H 0.91921 0.29796 0.19383 0.0
H275 H 0.87378 0.27948 0.23079 0.0
H276 H 0.79624 0.07768 0.37397 0.0
H277 H 0.78167 0.03274 0.41484 0.0
H278 H 0.70823 0.02465 0.48263 0.0
H279 H 0.72254 0.06924 0.44249 0.0
H280 H 0.73966 0.00851 0.5855 0.0
H281 H 0.71656 0.96446 0.31313 0.0
H282 H 0.74682 0.99457 0.32898 0.0
H283 H 0.71639 0.99438 0.33195 0.0
C284 C 0.77707 0.06632 0.39797 0.0
C285 C 0.76042 0.07686 0.4044 0.0
C286 C 0.76878 0.04071 0.42102 0.0
C287 C 0.74387 0.02549 0.45139 0.0
C288 C 0.72749 0.03614 0.45911 0.0
H289 H 0.6255 0.87447 0.55434 0.0
H290 H 0.6556 0.91902 0.51348 0.0
C291 C 0.73563 0.06153 0.43568 0.0
C292 C 0.73424 0.99816 0.47419 0.0
H293 H 0.70255 0.93553 0.41104 0.0
C294 C 0.73208 0.99252 0.54752 0.0
C295 C 0.72423 0.97749 0.42424 0.0
C296 C 0.72596 0.98278 0.34502 0.0
C297 C 0.71918 0.96655 0.57229 0.0
C298 C 0.70816 0.94587 0.52236 0.0
C299 C 0.71123 0.95151 0.44901 0.0
C300 C 0.69058 0.91853 0.54534 0.0
C301 C 0.71606 0.96128 0.65156 0.0
C302 C 0.7004 0.9035 0.57625 0.0
C303 C 0.68319 0.87792 0.59971 0.0
C304 C 0.65596 0.86721 0.59315 0.0
C305 C 0.64634 0.88233 0.56126 0.0
C306 C 0.66349 0.90769 0.53741 0.0
H307 H 0.72491 0.9796 0.6834 0.0
H308 H 0.69496 0.94939 0.6652 0.0
H309 H 0.7255 0.94979 0.66714 0.0
H310 H 0.7213 0.9116 0.58258 0.0
H311 H 0.69112 0.86672 0.62418 0.0
H312 H 0.56969 0.66915 0.79697 0.0
H313 H 0.59775 0.65166 0.83336 0.0
H314 H 0.66564 0.72189 0.75806 0.0
H315 H 0.63774 0.73981 0.72196 0.0
H316 H 0.65614 0.66859 0.70644 0.0
H317 H 0.65491 0.67964 0.00114 0.0
H318 H 0.62393 0.6667 0.95588 0.0
H319 H 0.64919 0.69982 0.9392 0.0
C320 C 0.59061 0.68102 0.78867 0.0
C321 C 0.60151 0.70587 0.75658 0.0
C322 C 0.60659 0.67101 0.80971 0.0
C323 C 0.6337 0.68559 0.7987 0.0
C324 C 0.64474 0.71047 0.76724 0.0
H325 H 0.74364 0.6356 0.94034 0.0
H326 H 0.72515 0.66308 0.90521 0.0
C327 C 0.62879 0.72066 0.74684 0.0
C328 C 0.65015 0.67407 0.81696 0.0
H329 H 0.67152 0.65296 0.95791 0.0
C330 C 0.65982 0.66544 0.76134 0.0
C331 C 0.65491 0.67014 0.88863 0.0
C332 C 0.64539 0.67969 0.94991 0.0
C333 C 0.67331 0.65198 0.77573 0.0
C334 C 0.67715 0.64713 0.84738 0.0
C335 C 0.66841 0.65668 0.90301 0.0
C336 C 0.68887 0.63086 0.86559 0.0
C337 C 0.68298 0.64258 0.71446 0.0
C338 C 0.67448 0.60372 0.8549 0.0
C339 C 0.68482 0.58797 0.87539 0.0
C340 C 0.70983 0.59913 0.90656 0.0
C341 C 0.72438 0.62643 0.91616 0.0
C342 C 0.71387 0.64215 0.89631 0.0
H343 H 0.68278 0.65199 0.66315 0.0
H344 H 0.70319 0.64662 0.72507 0.0
H345 H 0.67019 0.62108 0.70875 0.0
H346 H 0.65505 0.59469 0.83177 0.0
H347 H 0.67314 0.56702 0.86724 0.0
H348 H 0.05883 0.74445 0.37727 0.0
H349 H 0.01452 0.72836 0.33047 0.0
H350 H 0.04661 0.76207 0.1249 0.0
H351 H 0.0909 0.77798 0.17075 0.0
H352 H 0.99244 0.75992 0.23922 0.0
H353 H 0.9964 0.67682 0.11099 0.0
H354 H 0.01602 0.69351 0.18826 0.0
H355 H 0.02435 0.70926 0.10265 0.0
C356 C 0.05644 0.74865 0.32231 0.0
C357 C 0.07833 0.76236 0.27758 0.0
C358 C 0.03118 0.73962 0.2959 0.0
C359 C 0.02746 0.74405 0.22439 0.0
C360 C 0.04923 0.7586 0.18036 0.0
H361 H 0.88871 0.66465 0.95946 0.0
H362 H 0.93338 0.69355 0.00209 0.0
C363 C 0.07448 0.76774 0.20676 0.0
C364 C 1.00083 0.73146 0.19402 0.0
H365 H 0.95808 0.67889 0.09485 0.0
C366 C 0.98484 0.74226 0.20743 0.0
C367 C 0.99122 0.70853 0.15252 0.0
C368 C 1.00772 0.69613 0.13768 0.0
C369 C 0.95928 0.73064 0.17985 0.0
C370 C 0.94944 0.70736 0.13933 0.0
C371 C 0.96565 0.69679 0.12563 0.0
C372 C 0.92216 0.69293 0.11239 0.0
C373 C 0.94324 0.74361 0.19347 0.0
C374 C 0.90099 0.6833 0.16003 0.0
C375 C 0.87546 0.66695 0.13567 0.0
C376 C 0.87071 0.6596 0.06344 0.0
C377 C 0.89184 0.66986 0.01548 0.0
C378 C 0.91732 0.6864 0.03974 0.0
H379 H 0.95591 0.76483 0.20481 0.0
H380 H 0.93047 0.7413 0.14717 0.0
H381 H 0.93061 0.73442 0.24083 0.0
H382 H 0.90427 0.68748 0.21659 0.0
H383 H 0.85959 0.65899 0.174 0.0
H384 H 0.37867 0.07565 0.54058 0.0
H385 H 0.3506 0.0298 0.50655 0.0
H386 H 0.28282 0.03211 0.58161 0.0
H387 H 0.31068 0.07815 0.61529 0.0
H388 H 0.29279 0.9885 0.63499 0.0
H389 H 0.29254 1.00008 0.33998 0.0
H390 H 0.32365 0.01838 0.38444 0.0
H391 H 0.29835 0.02607 0.40125 0.0
C392 C 0.35777 0.0665 0.54936 0.0
C393 C 0.34689 0.08053 0.58059 0.0
C394 C 0.34179 0.04036 0.5297 0.0
C395 C 0.31471 0.02775 0.54131 0.0
C396 C 0.3037 0.04165 0.57202 0.0
H397 H 0.20489 0.86771 0.40008 0.0
H398 H 0.22301 0.91358 0.43576 0.0
C399 C 0.31964 0.06791 0.59103 0.0
C400 C 0.2982 0.99971 0.52408 0.0
H401 H 0.27577 0.95686 0.38456 0.0
C402 C 0.28877 0.98153 0.58033 0.0
C403 C 0.29295 0.99084 0.45274 0.0
C404 C 0.3022 0.00978 0.39086 0.0
C405 C 0.27504 0.95451 0.56684 0.0
C406 C 0.27072 0.94564 0.49545 0.0
C407 C 0.27922 0.96383 0.43924 0.0
C408 C 0.25897 0.91759 0.47796 0.0
C409 C 0.26561 0.9356 0.62879 0.0
C410 C 0.27326 0.90483 0.49006 0.0
C411 C 0.26314 0.87883 0.46926 0.0
C412 C 0.23846 0.86508 0.43629 0.0
C413 C 0.22391 0.87776 0.42563 0.0
C414 C 0.23421 0.90392 0.44579 0.0
H415 H 0.26565 0.94529 0.67961 0.0
H416 H 0.24551 0.91912 0.61858 0.0
H417 H 0.2787 0.92728 0.6353 0.0
H418 H 0.29253 0.9152 0.51422 0.0
H419 H 0.2748 0.8696 0.47835 0.0
H420 H 0.14373 0.42782 0.80732 0.0
H421 H 0.14749 0.42855 0.67759 0.0
H422 H 0.13107 0.34861 0.68027 0.0
H423 H 0.1276 0.34776 0.81012 0.0
H424 H 0.1816 0.38627 0.63251 0.0
H425 H 0.10359 0.3966 0.49556 0.0
H426 H 0.11822 0.41778 0.57104 0.0
H427 H 0.09958 0.38297 0.58429 0.0
C428 C 0.13984 0.41005 0.78006 0.0
C429 C 0.13606 0.38796 0.81843 0.0
C430 C 0.1419 0.41048 0.70599 0.0
C431 C 0.13975 0.38869 0.6701 0.0
C432 C 0.13286 0.36559 0.70764 0.0
H433 H 0.17914 0.36461 0.25251 0.0
H434 H 0.1754 0.36393 0.38225 0.0
C435 C 0.13095 0.36518 0.7816 0.0
C436 C 0.14984 0.39177 0.59726 0.0
H437 H 0.14128 0.40624 0.4272 0.0
C438 C 0.17272 0.39042 0.58729 0.0
C439 C 0.1383 0.39756 0.53941 0.0
C440 C 0.11344 0.39862 0.54772 0.0
C441 C 0.18458 0.39496 0.5203 0.0
C442 C 0.17304 0.40074 0.46244 0.0
C443 C 0.15017 0.40209 0.47242 0.0
C444 C 0.18311 0.40379 0.38958 0.0
C445 C 0.20945 0.3939 0.51201 0.0
C446 C 0.18998 0.42687 0.35196 0.0
C447 C 0.19187 0.42724 0.27799 0.0
C448 C 0.18678 0.40445 0.24124 0.0
C449 C 0.18301 0.38238 0.2797 0.0
C450 C 0.18097 0.38199 0.35378 0.0
H451 H 0.21932 0.39597 0.56416 0.0
H452 H 0.20467 0.37472 0.48882 0.0
H453 H 0.2233 0.40952 0.47534 0.0
H454 H 0.19177 0.44386 0.37927 0.0
H455 H 0.19521 0.44465 0.24942 0.0
H456 H 0.75762 0.22868 0.10422 0.0
H457 H 0.76145 0.23142 0.97442 0.0
H458 H 0.77337 0.16502 0.97281 0.0
H459 H 0.76927 0.16189 0.10247 0.0
H460 H 0.81107 0.24172 0.92629 0.0
H461 H 0.7301 0.15532 0.7908 0.0
H462 H 0.72691 0.16541 0.87946 0.0
H463 H 0.74396 0.14768 0.86625 0.0
C464 C 0.76006 0.21405 0.07597 0.0
C465 C 0.7638 0.19547 0.11318 0.0
C466 C 0.7622 0.21564 0.002 0.0
C467 C 0.76791 0.19858 0.96474 0.0
C468 C 0.76871 0.17818 0.00095 0.0
H469 H 0.82186 0.19457 0.54482 0.0
H470 H 0.81795 0.19198 0.67462 0.0
C471 C 0.76644 0.17648 0.07502 0.0
C472 C 0.77806 0.20518 0.89175 0.0
H473 H 0.76833 0.18183 0.72213 0.0
C474 C 0.80166 0.22877 0.88133 0.0
C475 C 0.76582 0.18799 0.83418 0.0
C476 C 0.74018 0.16277 0.84285 0.0
C477 C 0.81357 0.23556 0.81424 0.0
C478 C 0.80135 0.21836 0.75669 0.0
C479 C 0.77773 0.19478 0.76709 0.0
C480 C 0.81157 0.22489 0.68375 0.0
C481 C 0.83923 0.26078 0.80557 0.0
C482 C 0.81086 0.24529 0.64727 0.0
C483 C 0.8132 0.24691 0.57322 0.0
C484 C 0.8158 0.22785 0.53536 0.0
C485 C 0.81945 0.20927 0.57286 0.0
C486 C 0.81726 0.20776 0.64681 0.0
H487 H 0.84926 0.26828 0.85764 0.0
H488 H 0.85252 0.2581 0.76915 0.0
H489 H 0.83546 0.27585 0.78191 0.0
H490 H 0.80621 0.2585 0.67517 0.0
H491 H 0.81042 0.26149 0.54552 0.0
H492 H 0.52116 0.68247 0.45726 0.0
H493 H 0.51981 0.68562 0.32758 0.0
H494 H 0.59894 0.75083 0.32819 0.0
H495 H 0.60035 0.7481 0.45799 0.0
H496 H 0.56062 0.76238 0.27991 0.0
H497 H 0.55188 0.67452 0.14548 0.0
H498 H 0.53054 0.6676 0.22073 0.0
H499 H 0.56535 0.68436 0.23419 0.0
C500 C 0.53865 0.69675 0.42953 0.0
C501 C 0.56065 0.71543 0.4674 0.0
C502 C 0.53786 0.69848 0.35546 0.0
C503 C 0.55922 0.71859 0.31896 0.0
C504 C 0.58228 0.73529 0.35595 0.0
H505 H 0.58168 0.78205 0.89961 0.0
H506 H 0.58265 0.77871 0.02929 0.0
C507 C 0.58303 0.73369 0.42991 0.0
C508 C 0.55574 0.72529 0.24585 0.0
H509 H 0.5415 0.70194 0.07624 0.0
C510 C 0.55664 0.7493 0.23508 0.0
C511 C 0.55019 0.70793 0.1884 0.0
C512 C 0.54962 0.68224 0.19739 0.0
C513 C 0.55192 0.75638 0.16776 0.0
C514 C 0.54641 0.73904 0.11029 0.0
C515 C 0.54547 0.71501 0.12109 0.0
C516 C 0.54316 0.74585 0.0371 0.0
C517 C 0.55252 0.78208 0.15877 0.0
C518 C 0.52018 0.72927 -0.00036 0.0
C519 C 0.51963 0.73098 0.92567 0.0
C520 C 0.54216 0.74921 0.88861 0.0
C521 C 0.5641 0.76777 0.92695 0.0
C522 C 0.56466 0.76593 0.00103 0.0
H523 H 0.55015 0.78975 0.21065 0.0
H524 H 0.57166 0.79675 0.13576 0.0
H525 H 0.53687 0.78001 0.12171 0.0
H526 H 0.50341 0.71373 0.02708 0.0
H527 H 0.50234 0.71668 0.89727 0.0
H528 H 0.72565 0.50212 0.76229 0.0
H529 H 0.72267 0.50281 0.63244 0.0
H530 H 0.78388 0.58385 0.62972 0.0
H531 H 0.78728 0.58326 0.7595 0.0
H532 H 0.70754 0.53853 0.58357 0.0
H533 H 0.7977 0.55336 0.44831 0.0
H534 H 0.78864 0.53983 0.53726 0.0
H535 H 0.80333 0.5745 0.52325 0.0
C536 C 0.73917 0.51978 0.73374 0.0
C537 C 0.75629 0.54282 0.77061 0.0
C538 C 0.73745 0.52011 0.65978 0.0
C539 C 0.75289 0.54342 0.62219 0.0
C540 C 0.77202 0.56562 0.65812 0.0
H541 H 0.75068 0.59799 0.20112 0.0
H542 H 0.75348 0.59706 0.33099 0.0
C543 C 0.77388 0.56527 0.73221 0.0
C544 C 0.74554 0.54599 0.5491 0.0
H545 H 0.76844 0.56117 0.37921 0.0
C546 C 0.72072 0.54327 0.53857 0.0
C547 C 0.76301 0.55251 0.49147 0.0
C548 C 0.78959 0.55503 0.50026 0.0
C549 C 0.71295 0.54718 0.4713 0.0
C550 C 0.73044 0.55373 0.41368 0.0
C551 C 0.75525 0.55642 0.4242 0.0
C552 C 0.72316 0.55647 0.34065 0.0
C553 C 0.68638 0.54468 0.46251 0.0
C554 C 0.70402 0.53436 0.30442 0.0
C555 C 0.70225 0.53486 0.23032 0.0
C556 C 0.71995 0.55735 0.19227 0.0
C557 C 0.73707 0.5803 0.22944 0.0
C558 C 0.73869 0.57983 0.3034 0.0
H559 H 0.67823 0.54626 0.51448 0.0
H560 H 0.68737 0.55994 0.4257 0.0
H561 H 0.67266 0.52525 0.43925 0.0
H562 H 0.69209 0.51609 0.33255 0.0
H563 H 0.68886 0.51693 0.20276 0.0
H564 H 0.16079 0.76625 0.57811 0.0
H565 H 0.1639 0.77131 0.70784 0.0
H566 H 0.23241 0.76294 0.70839 0.0
H567 H 0.22946 0.75768 0.57904 0.0
H568 H 0.19673 0.74179 0.83376 0.0
H569 H 0.22968 0.84519 0.75886 0.0
H570 H 0.1982 0.82074 0.72559 0.0
H571 H 0.22724 0.82127 0.6948 0.0
C572 C 0.1759 0.76446 0.60611 0.0
C573 C 0.19536 0.76237 0.56863 0.0
C574 C 0.17767 0.76744 0.67999 0.0
C575 C 0.19877 0.76818 0.71645 0.0
C576 C 0.21618 0.76268 0.68041 0.0
H577 H 0.26373 0.81139 0.13933 0.0
H578 H 0.26141 0.80659 0.00948 0.0
C579 C 0.21447 0.75973 0.60665 0.0
C580 C 0.2053 0.77881 0.78882 0.0
H581 H 0.22888 0.83586 0.88177 0.0
C582 C 0.20373 0.7623 0.84458 0.0
C583 C 0.21478 0.80572 0.80153 0.0
C584 C 0.21782 0.8244 0.7421 0.0
C585 C 0.2109 0.77195 0.91397 0.0
C586 C 0.22029 0.79883 0.92673 0.0
C587 C 0.22193 0.81536 0.87093 0.0
C588 C 0.22638 0.80936 -0.00075 0.0
C589 C 0.20786 0.75327 0.97342 0.0
C590 C 0.20859 0.81455 0.03444 0.0
C591 C 0.20985 0.81732 0.10824 0.0
C592 C 0.22889 0.81487 0.14711 0.0
C593 C 0.2487 0.81309 0.11059 0.0
C594 C 0.24737 0.81025 0.03665 0.0
H595 H 0.19628 0.73248 0.95644 0.0
H596 H 0.2275 0.75716 -0.00941 0.0
H597 H 0.19815 0.75619 0.02037 0.0
H598 H 0.19243 0.81415 0.00574 0.0
H599 H 0.1946 0.81913 0.1352 0.0
H600 H 0.44462 0.1936 0.43637 0.0
H601 H 0.44419 0.19014 0.30654 0.0
H602 H 0.36332 0.17067 0.30255 0.0
H603 H 0.36364 0.17443 0.43229 0.0
H604 H 0.40852 0.13949 0.25731 0.0
H605 H 0.39423 0.21521 0.12123 0.0
H606 H 0.40749 0.21946 0.21045 0.0
H607 H 0.37285 0.19959 0.19583 0.0
C608 C 0.42705 0.18958 0.40755 0.0
C609 C 0.40397 0.18369 0.44407 0.0
C610 C 0.42687 0.18765 0.33358 0.0
C611 C 0.40368 0.17994 0.29562 0.0
C612 C 0.38146 0.17691 0.3312 0.0
H613 H 0.34843 0.12304 0.87571 0.0
H614 H 0.34981 0.12732 0.00543 0.0
C615 C 0.38166 0.17899 0.40529 0.0
C616 C 0.40121 0.17014 0.22254 0.0
H617 H 0.38604 0.178 0.05253 0.0
C618 C 0.40383 0.148 0.21222 0.0
C619 C 0.39476 0.18118 0.16474 0.0
C620 C 0.39237 0.20531 0.17325 0.0
C621 C 0.39983 0.13631 0.14508 0.0
C622 C 0.39329 0.1473 0.08734 0.0
C623 C 0.39077 0.16951 0.0976 0.0
C624 C 0.39027 0.13715 0.01449 0.0
C625 C 0.40216 0.11214 0.13664 0.0
C626 C 0.41213 0.13969 -0.022 0.0
C627 C 0.41135 0.13706 0.904 0.0
C628 C 0.38884 0.13236 0.86625 0.0
C629 C 0.36612 0.12701 0.90379 0.0
C630 C 0.36686 0.12944 -0.02234 0.0
H631 H 0.40052 0.10238 0.18874 0.0
H632 H 0.38686 0.0979 0.09998 0.0
H633 H 0.42156 0.11778 0.11341 0.0
H634 H 0.43044 0.14593 0.00576 0.0
H635 H 0.42912 0.14127 0.87616 0.0
H636 H 0.11312 0.49726 0.11981 0.0
H637 H 0.1133 0.53791 0.14775 0.0
H638 H 0.19408 0.58272 0.08237 0.0
H639 H 0.19376 0.54247 0.05177 0.0
H640 H 0.14345 0.57393 0.24689 0.0
H641 H 0.16352 0.62182 -0.0177 0.0
H642 H 0.15313 0.58756 -0.00709 0.0
H643 H 0.18704 0.61214 0.00417 0.0
C644 C 0.13073 0.51581 0.10984 0.0
C645 C 0.15345 0.51661 0.08372 0.0
C646 C 0.13084 0.539 0.12621 0.0
C647 C 0.15358 0.56338 0.11616 0.0
C648 C 0.17612 0.5642 0.08905 0.0
H649 H 0.22641 0.7195 0.26119 0.0
H650 H 0.2125 0.67597 0.21347 0.0
C651 C 0.17601 0.54112 0.07255 0.0
C652 C 0.15465 0.58794 0.1391 0.0
H653 H 0.17422 0.65037 0.0846 0.0
C654 C 0.14963 0.59047 0.21108 0.0
C655 C 0.16262 0.6095 0.09226 0.0
C656 C 0.16661 0.60754 0.01346 0.0
C657 C 0.15385 0.61443 0.23826 0.0
C658 C 0.16325 0.63629 0.19225 0.0
C659 C 0.16717 0.63353 0.11973 0.0
C660 C 0.17113 0.66267 0.21974 0.0
C661 C 0.14949 0.61668 0.31665 0.0
C662 C 0.15237 0.66954 0.2385 0.0
C663 C 0.16024 0.6945 0.26556 0.0
C664 C 0.18699 0.71285 0.2746 0.0
C665 C 0.20566 0.70581 0.25526 0.0
C666 C 0.19778 0.68099 0.22779 0.0
H667 H 0.14369 0.59822 0.34624 0.0
H668 H 0.16762 0.63269 0.34102 0.0
H669 H 0.13386 0.62173 0.3231 0.0
H670 H 0.1317 0.6556 0.2323 0.0
H671 H 0.1454 0.69934 0.27992 0.0
H672 H 0.71544 0.22279 0.38892 0.0
H673 H 0.67115 0.2081 0.43124 0.0
H674 H 0.65913 0.13066 0.46734 0.0
H675 H 0.70369 0.14519 0.42484 0.0
H676 H 0.62285 0.16427 0.37257 0.0
H677 H 0.6395 0.15349 0.66073 0.0
H678 H 0.6661 0.17331 0.60057 0.0
H679 H 0.65019 0.13831 0.59603 0.0
C680 C 0.70349 0.20263 0.40604 0.0
C681 C 0.71315 0.18517 0.40368 0.0
C682 C 0.67815 0.19428 0.43006 0.0
C683 C 0.66199 0.16838 0.45275 0.0
C684 C 0.67145 0.15081 0.45064 0.0
H685 H 0.49479 0.11023 0.53623 0.0
H686 H 0.53513 0.11074 0.50126 0.0
C687 C 0.69685 0.15913 0.42619 0.0
C688 C 0.63515 0.16004 0.47759 0.0
H689 H 0.59783 0.14618 0.62802 0.0
C690 C 0.61718 0.15991 0.42819 0.0
C691 C 0.62802 0.15458 0.55028 0.0
C692 C 0.6469 0.155 0.60541 0.0
C693 C 0.59243 0.15514 0.44992 0.0
C694 C 0.58549 0.15025 0.52287 0.0
C695 C 0.60321 0.14973 0.57205 0.0
C696 C 0.56101 0.14828 0.54974 0.0
C697 C 0.57432 0.15656 0.39537 0.0
C698 C 0.5623 0.16885 0.5901 0.0
C699 C 0.53942 0.16864 0.60994 0.0
C700 C 0.51478 0.14772 0.59022 0.0
C701 C 0.51349 0.12655 0.5524 0.0
C702 C 0.53647 0.12687 0.53208 0.0
H703 H 0.58401 0.16391 0.34283 0.0
H704 H 0.5571 0.13675 0.38756 0.0
H705 H 0.56706 0.16957 0.41454 0.0
H706 H 0.58108 0.18551 0.60433 0.0
H707 H 0.541 0.18505 0.63987 0.0
H708 H 0.24547 0.41296 0.92245 0.0
H709 H 0.29 0.4418 0.87754 0.0
H710 H 0.28351 0.50936 0.9305 0.0
H711 H 0.23921 0.48091 0.97507 0.0
H712 H 0.30547 0.48208 0.76561 0.0
H713 H 0.35301 0.52213 0.02705 0.0
H714 H 0.32218 0.49189 0.01884 0.0
H715 H 0.32324 0.5228 0.01267 0.0
C716 C 0.25359 0.43396 0.92476 0.0
C717 C 0.23882 0.44465 0.95244 0.0
C718 C 0.27898 0.45037 0.89904 0.0
C719 C 0.29008 0.47766 0.90158 0.0
C720 C 0.27539 0.48833 0.92906 0.0
H721 H 0.4078 0.61156 0.69108 0.0
H722 H 0.36833 0.57174 0.72921 0.0
C723 C 0.25002 0.47202 0.95418 0.0
C724 C 0.31676 0.49527 0.87378 0.0
H725 H 0.37648 0.5458 0.92311 0.0
C726 C 0.32116 0.49575 0.80005 0.0
C727 C 0.33724 0.51282 0.91899 0.0
C728 C 0.33386 0.51232 -0.00108 0.0
C729 C 0.34515 0.5144 0.76987 0.0
C730 C 0.36505 0.53305 0.81465 0.0
C731 C 0.36113 0.53157 0.8888 0.0
C732 C 0.38914 0.55562 0.78549 0.0
C733 C 0.34881 0.51431 0.69021 0.0
C734 C 0.41397 0.55981 0.80461 0.0
C735 C 0.43661 0.58264 0.78294 0.0
C736 C 0.43472 0.60181 0.74282 0.0
C737 C 0.40984 0.59721 0.72235 0.0
C738 C 0.38729 0.57436 0.74351 0.0
H739 H 0.33545 0.49476 0.66686 0.0
H740 H 0.34432 0.52864 0.66488 0.0
H741 H 0.36932 0.52002 0.67683 0.0
H742 H 0.41578 0.54568 0.83756 0.0
H743 H 0.45552 0.58579 0.80004 0.0
H744 H 0.84016 0.35854 0.20935 0.0
H745 H 0.84067 0.39883 0.17328 0.0
H746 H 0.76666 0.37197 0.27902 0.0
H747 H 0.76617 0.33195 0.31569 0.0
H748 H 0.80124 0.39889 0.08687 0.0
H749 H 0.81081 0.44871 0.34481 0.0
H750 H 0.81955 0.42363 0.33405 0.0
H751 H 0.78585 0.41478 0.34536 0.0
C752 C 0.82432 0.36155 0.22621 0.0
C753 C 0.80309 0.34211 0.26514 0.0
C754 C 0.82459 0.38448 0.20537 0.0
C755 C 0.80385 0.38849 0.22418 0.0
C756 C 0.78308 0.36948 0.26501 0.0
H757 H 0.72951 0.46459 0.03617 0.0
H758 H 0.74489 0.4357 0.08054 0.0
C759 C 0.7827 0.34652 0.28533 0.0
C760 C 0.80242 0.41117 0.19569 0.0
H761 H 0.7939 0.46197 0.24614 0.0
C762 C 0.8001 0.41297 0.12157 0.0
C763 C 0.80113 0.42962 0.24102 0.0
C764 C 0.80472 0.42931 0.32072 0.0
C765 C 0.79508 0.43188 0.09188 0.0
C766 C 0.79216 0.44925 0.13759 0.0
C767 C 0.79592 0.44842 0.21134 0.0
C768 C 0.78334 0.46709 0.11018 0.0
C769 C 0.79233 0.43275 0.01195 0.0
C770 C 0.79978 0.49434 0.11322 0.0
C771 C 0.79108 0.51099 0.08763 0.0
C772 C 0.76565 0.50059 0.05956 0.0
C773 C 0.7492 0.47326 0.05738 0.0
C774 C 0.75798 0.45669 0.08239 0.0
H775 H 0.80153 0.4229 -0.01641 0.0
H776 H 0.77123 0.42252 -0.00222 0.0
H777 H 0.80132 0.45328 -0.00732 0.0
H778 H 0.81937 0.50268 0.13496 0.0
H779 H 0.80418 0.53195 0.09027 0.0
H780 H 0.35956 0.81476 0.32318 0.0
H781 H 0.3983 0.81135 0.35192 0.0
H782 H 0.36639 0.78078 0.56021 0.0
H783 H 0.32779 0.78415 0.53212 0.0
H784 H 0.41935 0.81818 0.56372 0.0
H785 H 0.39776 0.74176 0.35918 0.0
H786 H 0.40055 0.77167 0.32617 0.0
H787 H 0.37413 0.75106 0.38506 0.0
C788 C 0.36083 0.8073 0.37504 0.0
C789 C 0.3406 0.79967 0.42532 0.0
C790 C 0.38294 0.80536 0.39134 0.0
C791 C 0.38503 0.79551 0.45784 0.0
C792 C 0.36517 0.78848 0.50863 0.0
H793 H 0.46573 0.71914 0.6052 0.0
H794 H 0.43583 0.73319 0.56095 0.0
C795 C 0.34316 0.79051 0.49256 0.0
C796 C 0.40743 0.7917 0.47457 0.0
H797 H 0.43541 0.75522 0.42962 0.0
C798 C 0.42308 0.80462 0.53407 0.0
C799 C 0.412 0.7738 0.43604 0.0
C800 C 0.39515 0.75857 0.37339 0.0
C801 C 0.44281 0.79964 0.55721 0.0
C802 C 0.44724 0.78159 0.519 0.0
C803 C 0.43203 0.76918 0.45844 0.0
C804 C 0.46593 0.77354 0.54445 0.0
C805 C 0.45794 0.81283 0.62413 0.0
C806 C 0.49284 0.79157 0.54923 0.0
C807 C 0.51006 0.78361 0.5749 0.0
C808 C 0.50061 0.75746 0.59569 0.0
C809 C 0.47368 0.73943 0.58974 0.0
C810 C 0.45654 0.74741 0.56432 0.0
H811 H 0.44862 0.82206 0.6549 0.0
H812 H 0.45966 0.79857 0.65925 0.0
H813 H 0.47799 0.82837 0.60935 0.0
H814 H 0.50052 0.81174 0.53302 0.0
H815 H 0.53072 0.79793 0.57848 0.0
H816 H 0.58915 0.43282 0.00375 0.0
H817 H 0.54838 0.39259 0.97389 0.0
H818 H 0.58165 0.38848 0.77289 0.0
H819 H 0.62198 0.42893 0.80117 0.0
H820 H 0.5292 0.37645 0.7625 0.0
H821 H 0.54423 0.32088 -0.0195 0.0
H822 H 0.54347 0.34976 0.00671 0.0
H823 H 0.56975 0.35276 0.95185 0.0
C824 C 0.5876 0.42355 0.95274 0.0
C825 C 0.60891 0.43384 0.90523 0.0
C826 C 0.56439 0.40048 0.93605 0.0
C827 C 0.56219 0.38737 0.87171 0.0
C828 C 0.58301 0.39822 0.823 0.0
H829 H 0.48084 0.23106 0.72913 0.0
H830 H 0.51029 0.2751 0.77326 0.0
C831 C 0.60613 0.42121 0.83955 0.0
C832 C 0.53891 0.36166 0.85585 0.0
H833 H 0.50815 0.29728 0.90491 0.0
C834 C 0.5243 0.35915 0.79409 0.0
C835 C 0.53281 0.33916 0.89697 0.0
C836 C 0.54843 0.34056 0.96245 0.0
C837 C 0.50426 0.33458 0.77102 0.0
C838 C 0.49855 0.31205 0.81138 0.0
C839 C 0.51255 0.31467 0.87442 0.0
C840 C 0.48007 0.28533 0.78544 0.0
C841 C 0.49026 0.33273 0.70187 0.0
C842 C 0.45324 0.27644 0.77808 0.0
C843 C 0.43625 0.25117 0.7526 0.0
C844 C 0.44588 0.23443 0.73439 0.0
C845 C 0.47275 0.24342 0.74255 0.0
C846 C 0.48963 0.26858 0.76792 0.0
H847 H 0.49997 0.35138 0.67126 0.0
H848 H 0.4893 0.3169 0.66779 0.0
H849 H 0.4699 0.32789 0.71361 0.0
H850 H 0.44545 0.28898 0.79227 0.0
H851 H 0.41563 0.24478 0.74718 0.0
loop_
_geom_bond_atom_site_label_1
_geom_bond_atom_site_label_2
_geom_bond_distance
_geom_bond_site_symmetry_2
_ccdc_geom_bond_type
C0 O16 1.251 . S
C0 O18 1.254 . S
N1 C2 1.333 1_554 S
N1 C6 1.307 . S
N1 Zn7 2.020 . S
C2 N1 1.333 1_556 S
C2 C3 1.379 . S
C2 H20 0.952 . S
C3 C2 1.379 . S
C3 C4 1.390 . S
C3 H30 0.949 . S
C4 C3 1.390 . S
C4 C5 1.357 1_556 S
C5 C4 1.357 1_554 S
C5 C6 1.370 . S
C5 H31 0.950 . S
C6 N1 1.307 . S
C6 C5 1.370 . S
C6 H24 0.948 . S
Zn7 N1 2.020 . S
Zn7 O16 2.039 1_554 S
Zn7 O22 2.034 . S
Zn7 O26 2.025 . S
Zn7 O28 2.024 . S
C8 O27 1.246 . S
C8 O28 1.249 . S
N9 C10 1.307 . S
N9 C11 1.333 . S
N9 Zn15 2.020 . S
C10 N9 1.307 . S
C10 C14 1.370 . S
C10 H21 0.948 1_554 S
C11 N9 1.333 . S
C11 C12 1.379 . S
C11 H19 0.952 . S
C12 C11 1.379 . S
C12 C13 1.390 . S
C12 H32 0.949 . S
C13 C12 1.390 . S
C13 C14 1.357 . S
C14 C10 1.370 . S
C14 C13 1.357 . S
C14 H33 0.950 . S
Zn15 N9 2.020 . S
Zn15 O18 2.025 1_554 S
Zn15 O23 2.024 . S
Zn15 O25 2.039 . S
Zn15 O27 2.034 . S
O16 C0 1.251 . S
O16 Zn7 2.039 1_556 S
C17 O22 1.246 . S
C17 O23 1.249 . S
O18 C0 1.254 . S
O18 Zn15 2.025 1_556 S
H19 C11 0.952 . S
H20 C2 0.952 . S
H21 C10 0.948 1_556 S
O22 Zn7 2.034 . S
O22 C17 1.246 . S
O23 Zn15 2.024 . S
O23 C17 1.249 . S
H24 C6 0.948 . S
O25 Zn15 2.039 . S
O25 C29 1.251 . S
O26 Zn7 2.025 . S
O26 C29 1.254 . S
O27 C8 1.246 . S
O27 Zn15 2.034 . S
O28 Zn7 2.024 . S
O28 C8 1.249 . S
C29 O25 1.251 . S
C29 O26 1.254 . S
H30 C3 0.949 . S
H31 C5 0.950 . S
H32 C12 0.949 . S
H33 C14 0.950 . S
C34 O50 1.251 . S
C34 O52 1.254 . S
N35 C36 1.333 . S
N35 C40 1.307 . S
N35 Zn41 2.020 . S
C36 N35 1.333 . S
C36 C37 1.379 . S
C36 H54 0.952 . S
C37 C36 1.379 . S
C37 C38 1.390 . S
C37 H64 0.949 . S
C38 C37 1.390 . S
C38 C39 1.357 . S
C39 C38 1.357 . S
C39 C40 1.370 . S
C39 H65 0.950 . S
C40 N35 1.307 . S
C40 C39 1.370 . S
C40 H58 0.948 . S
Zn41 N35 2.020 . S
Zn41 O50 2.039 . S
Zn41 O56 2.034 . S
Zn41 O60 2.025 . S
Zn41 O62 2.024 . S
C42 O61 1.246 . S
C42 O62 1.249 . S
N43 C44 1.307 . S
N43 C45 1.333 . S
N43 Zn49 2.020 . S
C44 N43 1.307 . S
C44 C48 1.370 . S
C44 H55 0.948 . S
C45 N43 1.333 . S
C45 C46 1.379 . S
C45 H53 0.952 . S
C46 C45 1.379 . S
C46 C47 1.390 . S
C46 H66 0.949 . S
C47 C46 1.390 . S
C47 C48 1.357 . S
C48 C44 1.370 . S
C48 C47 1.357 . S
C48 H67 0.950 . S
Zn49 N43 2.020 . S
Zn49 O52 2.025 . S
Zn49 O57 2.024 . S
Zn49 O59 2.039 . S
Zn49 O61 2.034 . S
O50 C34 1.251 . S
O50 Zn41 2.039 . S
C51 O56 1.246 . S
C51 O57 1.249 . S
O52 C34 1.254 . S
O52 Zn49 2.025 . S
H53 C45 0.952 . S
H54 C36 0.952 . S
H55 C44 0.948 . S
O56 Zn41 2.034 . S
O56 C51 1.246 . S
O57 Zn49 2.024 . S
O57 C51 1.249 . S
H58 C40 0.948 . S
O59 Zn49 2.039 . S
O59 C63 1.251 . S
O60 Zn41 2.025 . S
O60 C63 1.254 . S
O61 C42 1.246 . S
O61 Zn49 2.034 . S
O62 Zn41 2.024 . S
O62 C42 1.249 . S
C63 O59 1.251 . S
C63 O60 1.254 . S
H64 C37 0.949 . S
H65 C39 0.950 . S
H66 C46 0.949 . S
H67 C48 0.950 . S
C68 O84 1.251 . S
C68 O86 1.254 . S
N69 C70 1.333 . S
N69 C74 1.307 . S
N69 Zn75 2.020 . S
C70 N69 1.333 . S
C70 C71 1.379 . S
C70 H88 0.952 . S
C71 C70 1.379 . S
C71 C72 1.390 . S
C71 H98 0.949 . S
C72 C71 1.390 . S
C72 C73 1.357 . S
C73 C72 1.357 . S
C73 C74 1.370 . S
C73 H99 0.950 . S
C74 N69 1.307 . S
C74 C73 1.370 . S
C74 H92 0.948 . S
Zn75 N69 2.020 . S
Zn75 O84 2.039 . S
Zn75 O90 2.034 . S
Zn75 O94 2.025 . S
Zn75 O96 2.024 . S
C76 O95 1.246 . S
C76 O96 1.249 . S
N77 C78 1.307 . S
N77 C79 1.333 . S
N77 Zn83 2.020 . S
C78 N77 1.307 . S
C78 C82 1.370 . S
C78 H89 0.948 . S
C79 N77 1.333 . S
C79 C80 1.379 . S
C79 H87 0.952 . S
C80 C79 1.379 . S
C80 C81 1.390 . S
C80 H100 0.949 . S
C81 C80 1.390 . S
C81 C82 1.357 . S
C82 C78 1.370 . S
C82 C81 1.357 . S
C82 H101 0.950 . S
Zn83 N77 2.020 . S
Zn83 O86 2.025 . S
Zn83 O91 2.024 . S
Zn83 O93 2.039 . S
Zn83 O95 2.034 . S
O84 C68 1.251 . S
O84 Zn75 2.039 . S
C85 O90 1.246 . S
C85 O91 1.249 . S
O86 C68 1.254 . S
O86 Zn83 2.025 . S
H87 C79 0.952 . S
H88 C70 0.952 . S
H89 C78 0.948 . S
O90 Zn75 2.034 . S
O90 C85 1.246 . S
O91 Zn83 2.024 . S
O91 C85 1.249 . S
H92 C74 0.948 . S
O93 Zn83 2.039 . S
O93 C97 1.251 . S
O94 Zn75 2.025 . S
O94 C97 1.254 . S
O95 C76 1.246 . S
O95 Zn83 2.034 . S
O96 Zn75 2.024 . S
O96 C76 1.249 . S
C97 O93 1.251 . S
C97 O94 1.254 . S
H98 C71 0.949 . S
H99 C73 0.950 . S
H100 C80 0.949 . S
H101 C82 0.950 . S
C102 O118 1.251 . S
C102 O120 1.254 . S
N103 C104 1.333 . S
N103 C108 1.307 1_554 S
N103 Zn109 2.020 . S
C104 N103 1.333 . S
C104 C105 1.379 . S
C104 H122 0.952 . S
C105 C104 1.379 . S
C105 C106 1.390 . S
C105 H132 0.949 . S
C106 C105 1.390 . S
C106 C107 1.348 1_554 S
C107 C106 1.348 1_556 S
C107 C108 1.372 . S
C107 H133 0.957 . S
C108 N103 1.307 1_556 S
C108 C107 1.372 . S
C108 H126 0.948 . S
Zn109 N103 2.020 . S
Zn109 O118 2.039 . S
Zn109 O124 2.034 1_554 S
Zn109 O128 2.025 1_554 S
Zn109 O130 2.024 . S
C110 O129 1.246 . S
C110 O130 1.249 . S
N111 C112 1.307 1_556 S
N111 C113 1.333 . S
N111 Zn117 2.020 . S
C112 N111 1.307 1_554 S
C112 C116 1.370 . S
C112 H123 0.948 . S
C113 N111 1.333 . S
C113 C114 1.379 . S
C113 H121 0.952 . S
C114 C113 1.379 . S
C114 C115 1.390 . S
C114 H134 0.949 . S
C115 C114 1.390 . S
C115 C116 1.357 1_556 S
C116 C112 1.370 . S
C116 C115 1.357 1_554 S
C116 H135 0.950 . S
Zn117 N111 2.020 . S
Zn117 O120 2.025 1_556 S
Zn117 O125 2.024 . S
Zn117 O127 2.039 . S
Zn117 O129 2.034 1_556 S
O118 C102 1.251 . S
O118 Zn109 2.039 . S
C119 O124 1.246 . S
C119 O125 1.249 . S
O120 C102 1.254 . S
O120 Zn117 2.025 1_554 S
H121 C113 0.952 . S
H122 C104 0.952 . S
H123 C112 0.948 . S
O124 Zn109 2.034 1_556 S
O124 C119 1.246 . S
O125 Zn117 2.024 . S
O125 C119 1.249 . S
H126 C108 0.948 . S
O127 Zn117 2.039 . S
O127 C131 1.251 . S
O128 Zn109 2.025 1_556 S
O128 C131 1.254 . S
O129 C110 1.246 . S
O129 Zn117 2.034 1_554 S
O130 Zn109 2.024 . S
O130 C110 1.249 . S
C131 O127 1.251 . S
C131 O128 1.254 . S
H132 C105 0.949 . S
H133 C107 0.957 . S
H134 C114 0.949 . S
H135 C116 0.950 . S
C136 O152 1.251 . S
C136 O154 1.254 . S
N137 C138 1.333 . S
N137 C142 1.307 . S
N137 Zn143 2.020 . S
C138 N137 1.333 . S
C138 C139 1.379 . S
C138 H156 0.952 . S
C139 C138 1.379 . S
C139 C140 1.390 . S
C139 H166 0.949 . S
C140 C139 1.390 . S
C140 C141 1.357 . S
C141 C140 1.357 . S
C141 C142 1.370 . S
C141 H167 0.950 . S
C142 N137 1.307 . S
C142 C141 1.370 . S
C142 H160 0.948 . S
Zn143 N137 2.020 . S
Zn143 O152 2.039 . S
Zn143 O158 2.034 . S
Zn143 O162 2.025 . S
Zn143 O164 2.024 . S
C144 O163 1.246 . S
C144 O164 1.249 . S
N145 C146 1.307 . S
N145 C147 1.333 . S
N145 Zn151 2.020 . S
C146 N145 1.307 . S
C146 C150 1.370 . S
C146 H157 0.948 . S
C147 N145 1.333 . S
C147 C148 1.379 . S
C147 H155 0.952 . S
C148 C147 1.379 . S
C148 C149 1.390 . S
C148 H168 0.949 . S
C149 C148 1.390 . S
C149 C150 1.357 . S
C150 C146 1.370 . S
C150 C149 1.357 . S
C150 H169 0.950 . S
Zn151 N145 2.020 . S
Zn151 O154 2.025 . S
Zn151 O159 2.024 . S
Zn151 O161 2.039 . S
Zn151 O163 2.034 . S
O152 C136 1.251 . S
O152 Zn143 2.039 . S
C153 O158 1.246 . S
C153 O159 1.249 . S
O154 C136 1.254 . S
O154 Zn151 2.025 . S
H155 C147 0.952 . S
H156 C138 0.952 . S
H157 C146 0.948 . S
O158 Zn143 2.034 . S
O158 C153 1.246 . S
O159 Zn151 2.024 . S
O159 C153 1.249 . S
H160 C142 0.948 . S
O161 Zn151 2.039 . S
O161 C165 1.251 . S
O162 Zn143 2.025 . S
O162 C165 1.254 . S
O163 C144 1.246 . S
O163 Zn151 2.034 . S
O164 Zn143 2.024 . S
O164 C144 1.249 . S
C165 O161 1.251 . S
C165 O162 1.254 . S
H166 C139 0.949 . S
H167 C141 0.950 . S
H168 C148 0.949 . S
H169 C150 0.950 . S
C170 O186 1.251 . S
C170 O188 1.254 . S
N171 C172 1.333 . S
N171 C176 1.307 . S
N171 Zn177 2.020 . S
C172 N171 1.333 . S
C172 C173 1.379 . S
C172 H190 0.952 . S
C173 C172 1.379 . S
C173 C174 1.390 . S
C173 H200 0.949 . S
C174 C173 1.390 . S
C174 C175 1.357 . S
C175 C174 1.357 . S
C175 C176 1.370 . S
C175 H201 0.950 . S
C176 N171 1.307 . S
C176 C175 1.370 . S
C176 H194 0.948 . S
Zn177 N171 2.020 . S
Zn177 O186 2.039 . S
Zn177 O192 2.034 . S
Zn177 O196 2.025 . S
Zn177 O198 2.024 . S
C178 O197 1.246 . S
C178 O198 1.249 . S
N179 C180 1.307 . S
N179 C181 1.333 . S
N179 Zn185 2.020 . S
C180 N179 1.307 . S
C180 C184 1.370 . S
C180 H191 0.948 . S
C181 N179 1.333 . S
C181 C182 1.379 . S
C181 H189 0.952 . S
C182 C181 1.379 . S
C182 C183 1.390 . S
C182 H202 0.949 . S
C183 C182 1.390 . S
C183 C184 1.357 . S
C184 C180 1.370 . S
C184 C183 1.357 . S
C184 H203 0.950 . S
Zn185 N179 2.020 . S
Zn185 O188 2.025 . S
Zn185 O193 2.024 . S
Zn185 O195 2.039 . S
Zn185 O197 2.034 . S
O186 C170 1.251 . S
O186 Zn177 2.039 . S
C187 O192 1.246 . S
C187 O193 1.249 . S
O188 C170 1.254 . S
O188 Zn185 2.025 . S
H189 C181 0.952 . S
H190 C172 0.952 . S
H191 C180 0.948 . S
O192 Zn177 2.034 . S
O192 C187 1.246 . S
O193 Zn185 2.024 . S
O193 C187 1.249 . S
H194 C176 0.948 . S
O195 Zn185 2.039 . S
O195 C199 1.251 . S
O196 Zn177 2.025 . S
O196 C199 1.254 . S
O197 C178 1.246 . S
O197 Zn185 2.034 . S
O198 Zn177 2.024 . S
O198 C178 1.249 . S
C199 O195 1.251 . S
C199 O196 1.254 . S
H200 C173 0.949 . S
H201 C175 0.950 . S
H202 C182 0.949 . S
H203 C184 0.950 . S
H204 C212 0.929 . S
H205 C214 0.930 . S
H206 C216 0.930 . S
H207 C219 0.929 . S
H208 C222 0.930 . S
H209 C224 0.960 . S
H210 C224 0.960 . S
H211 C224 0.960 . S
C212 H204 0.929 . S
C212 C213 1.377 . S
C212 C214 1.384 . S
C213 C212 1.377 . S
C213 C219 1.390 . S
C214 H205 0.930 . S
C214 C212 1.384 . S
C214 C215 1.372 . S
C215 C214 1.372 . S
C215 C216 1.400 . S
C215 C220 1.490 . S
C216 H206 0.930 . S
C216 C215 1.400 . S
C216 C219 1.386 . S
H217 C233 0.930 . S
H218 C234 0.931 . S
C219 H207 0.929 . S
C219 C213 1.390 . S
C219 C216 1.386 . S
C220 C215 1.490 . S
C220 C222 1.395 . S
C220 C223 1.403 . S
H221 C227 0.930 . S
C222 H208 0.930 . S
C222 C220 1.395 . S
C222 C225 1.403 . S
C223 C220 1.403 . S
C223 C224 1.524 . S
C223 C227 1.400 . S
C224 H209 0.960 . S
C224 H210 0.960 . S
C224 H211 0.960 . S
C224 C223 1.524 . S
C225 C222 1.403 . S
C225 C226 1.392 . S
C225 C229 1.495 . S
C226 C225 1.392 . S
C226 C227 1.385 . S
C226 C228 1.478 . S
C227 H221 0.930 . S
C227 C223 1.400 . S
C227 C226 1.385 . S
C228 C226 1.478 . S
C228 C230 1.381 . S
C228 C234 1.383 . S
C229 C225 1.495 . S
C229 H235 0.959 . S
C229 H236 0.961 . S
C229 H237 0.960 . S
C230 C228 1.381 . S
C230 C231 1.394 1_556 S
C230 H238 0.930 1_556 S
C231 C230 1.394 1_554 S
C231 C232 1.383 1_554 S
C231 H239 0.929 . S
C232 C231 1.383 1_556 S
C232 C233 1.377 . S
C233 H217 0.930 . S
C233 C232 1.377 . S
C233 C234 1.379 . S
C234 H218 0.931 . S
C234 C228 1.383 . S
C234 C233 1.379 . S
H235 C229 0.959 . S
H236 C229 0.961 . S
H237 C229 0.960 . S
H238 C230 0.930 1_554 S
H239 C231 0.929 . S
H240 C248 0.929 . S
H241 C250 0.930 . S
H242 C252 0.930 . S
H243 C255 0.929 . S
H244 C258 0.930 . S
H245 C260 0.960 1_655 S
H246 C260 0.960 . S
H247 C260 0.960 . S
C248 H240 0.929 . S
C248 C249 1.377 . S
C248 C250 1.384 . S
C249 C248 1.377 . S
C249 C255 1.390 . S
C250 H241 0.930 . S
C250 C248 1.384 . S
C250 C251 1.372 . S
C251 C250 1.372 . S
C251 C252 1.400 . S
C251 C256 1.490 1_455 S
C252 H242 0.930 . S
C252 C251 1.400 . S
C252 C255 1.386 . S
H253 C269 0.930 . S
H254 C270 0.931 . S
C255 H243 0.929 . S
C255 C249 1.390 . S
C255 C252 1.386 . S
C256 C251 1.490 1_655 S
C256 C258 1.395 . S
C256 C259 1.403 . S
H257 C263 0.930 . S
C258 H244 0.930 . S
C258 C256 1.395 . S
C258 C261 1.403 . S
C259 C256 1.403 . S
C259 C260 1.524 1_655 S
C259 C263 1.400 . S
C260 H245 0.960 1_455 S
C260 H246 0.960 . S
C260 H247 0.960 . S
C260 C259 1.524 1_455 S
C261 C258 1.403 . S
C261 C262 1.392 . S
C261 C265 1.495 . S
C262 C261 1.392 . S
C262 C263 1.385 . S
C262 C264 1.478 . S
C263 H257 0.930 . S
C263 C259 1.400 . S
C263 C262 1.385 . S
C264 C262 1.478 . S
C264 C266 1.381 . S
C264 C270 1.383 . S
C265 C261 1.495 . S
C265 H271 0.959 . S
C265 H272 0.961 . S
C265 H273 0.960 . S
C266 C264 1.381 . S
C266 C267 1.394 . S
C266 H274 0.930 . S
C267 C266 1.394 . S
C267 C268 1.383 . S
C267 H275 0.929 . S
C268 C267 1.383 . S
C268 C269 1.377 . S
C269 H253 0.930 . S
C269 C268 1.377 . S
C269 C270 1.379 . S
C270 H254 0.931 . S
C270 C264 1.383 . S
C270 C269 1.379 . S
H271 C265 0.959 . S
H272 C265 0.961 . S
H273 C265 0.960 . S
H274 C266 0.930 . S
H275 C267 0.929 . S
H276 C284 0.929 . S
H277 C286 0.930 . S
H278 C288 0.930 . S
H279 C291 0.929 . S
H280 C294 0.930 1_545 S
H281 C296 0.960 . S
H282 C296 0.960 . S
H283 C296 0.960 . S
C284 H276 0.929 . S
C284 C285 1.377 . S
C284 C286 1.384 . S
C285 C284 1.377 . S
C285 C291 1.390 . S
C286 H277 0.930 . S
C286 C284 1.384 . S
C286 C287 1.372 . S
C287 C286 1.372 . S
C287 C288 1.400 . S
C287 C292 1.490 1_545 S
C288 H278 0.930 . S
C288 C287 1.400 . S
C288 C291 1.386 . S
H289 C305 0.930 . S
H290 C306 0.931 . S
C291 H279 0.929 . S
C291 C285 1.390 . S
C291 C288 1.386 . S
C292 C287 1.490 1_565 S
C292 C294 1.395 . S
C292 C295 1.403 . S
H293 C299 0.930 . S
C294 H280 0.930 1_565 S
C294 C292 1.395 . S
C294 C297 1.403 . S
C295 C292 1.403 . S
C295 C296 1.524 . S
C295 C299 1.400 . S
C296 H281 0.960 . S
C296 H282 0.960 . S
C296 H283 0.960 . S
C296 C295 1.524 . S
C297 C294 1.403 . S
C297 C298 1.392 . S
C297 C301 1.495 . S
C298 C297 1.392 . S
C298 C299 1.385 . S
C298 C300 1.478 . S
C299 H293 0.930 . S
C299 C295 1.400 . S
C299 C298 1.385 . S
C300 C298 1.478 . S
C300 C302 1.381 . S
C300 C306 1.383 . S
C301 C297 1.495 . S
C301 H307 0.959 . S
C301 H308 0.961 . S
C301 H309 0.960 . S
C302 C300 1.381 . S
C302 C303 1.394 . S
C302 H310 0.930 . S
C303 C302 1.394 . S
C303 C304 1.383 . S
C303 H311 0.929 . S
C304 C303 1.383 . S
C304 C305 1.377 . S
C305 H289 0.930 . S
C305 C304 1.377 . S
C305 C306 1.379 . S
C306 H290 0.931 . S
C306 C300 1.383 . S
C306 C305 1.379 . S
H307 C301 0.959 . S
H308 C301 0.961 . S
H309 C301 0.960 . S
H310 C302 0.930 . S
H311 C303 0.929 . S
H312 C320 0.929 . S
H313 C322 0.930 . S
H314 C324 0.930 . S
H315 C327 0.929 . S
H316 C330 0.930 . S
H317 C332 0.960 1_554 S
H318 C332 0.960 . S
H319 C332 0.960 . S
C320 H312 0.929 . S
C320 C321 1.377 . S
C320 C322 1.384 . S
C321 C320 1.377 . S
C321 C327 1.390 . S
C322 H313 0.930 . S
C322 C320 1.384 . S
C322 C323 1.372 . S
C323 C322 1.372 . S
C323 C324 1.400 . S
C323 C328 1.490 . S
C324 H314 0.930 . S
C324 C323 1.400 . S
C324 C327 1.386 . S
H325 C341 0.930 . S
H326 C342 0.931 . S
C327 H315 0.929 . S
C327 C321 1.390 . S
C327 C324 1.386 . S
C328 C323 1.490 . S
C328 C330 1.395 . S
C328 C331 1.403 . S
H329 C335 0.930 . S
C330 H316 0.930 . S
C330 C328 1.395 . S
C330 C333 1.403 . S
C331 C328 1.403 . S
C331 C332 1.524 . S
C331 C335 1.400 . S
C332 H317 0.960 1_556 S
C332 H318 0.960 . S
C332 H319 0.960 . S
C332 C331 1.524 . S
C333 C330 1.403 . S
C333 C334 1.392 . S
C333 C337 1.495 . S
C334 C333 1.392 . S
C334 C335 1.385 . S
C334 C336 1.478 . S
C335 H329 0.930 . S
C335 C331 1.400 . S
C335 C334 1.385 . S
C336 C334 1.478 . S
C336 C338 1.381 . S
C336 C342 1.383 . S
C337 C333 1.495 . S
C337 H343 0.959 . S
C337 H344 0.961 . S
C337 H345 0.960 . S
C338 C336 1.381 . S
C338 C339 1.394 . S
C338 H346 0.930 . S
C339 C338 1.394 . S
C339 C340 1.383 . S
C339 H347 0.929 . S
C340 C339 1.383 . S
C340 C341 1.377 . S
C341 H325 0.930 . S
C341 C340 1.377 . S
C341 C342 1.379 . S
C342 H326 0.931 . S
C342 C336 1.383 . S
C342 C341 1.379 . S
H343 C337 0.959 . S
H344 C337 0.961 . S
H345 C337 0.960 . S
H346 C338 0.930 . S
H347 C339 0.929 . S
H348 C356 0.929 . S
H349 C358 0.930 . S
H350 C360 0.930 . S
H351 C363 0.929 . S
H352 C366 0.930 . S
H353 C368 0.960 1_655 S
H354 C368 0.960 . S
H355 C368 0.960 . S
C356 H348 0.929 . S
C356 C357 1.377 . S
C356 C358 1.384 . S
C357 C356 1.377 . S
C357 C363 1.390 . S
C358 H349 0.930 . S
C358 C356 1.384 . S
C358 C359 1.372 . S
C359 C358 1.372 . S
C359 C360 1.400 . S
C359 C364 1.490 1_455 S
C360 H350 0.930 . S
C360 C359 1.400 . S
C360 C363 1.386 . S
H361 C377 0.930 . S
H362 C378 0.931 . S
C363 H351 0.929 . S
C363 C357 1.390 . S
C363 C360 1.386 . S
C364 C359 1.490 1_655 S
C364 C366 1.395 . S
C364 C367 1.403 . S
H365 C371 0.930 . S
C366 H352 0.930 . S
C366 C364 1.395 . S
C366 C369 1.403 . S
C367 C364 1.403 . S
C367 C368 1.524 1_655 S
C367 C371 1.400 . S
C368 H353 0.960 1_455 S
C368 H354 0.960 . S
C368 H355 0.960 . S
C368 C367 1.524 1_455 S
C369 C366 1.403 . S
C369 C370 1.392 . S
C369 C373 1.495 . S
C370 C369 1.392 . S
C370 C371 1.385 . S
C370 C372 1.478 . S
C371 H365 0.930 . S
C371 C367 1.400 . S
C371 C370 1.385 . S
C372 C370 1.478 . S
C372 C374 1.381 . S
C372 C378 1.383 . S
C373 C369 1.495 . S
C373 H379 0.959 . S
C373 H380 0.961 . S
C373 H381 0.960 . S
C374 C372 1.381 . S
C374 C375 1.394 . S
C374 H382 0.930 . S
C375 C374 1.394 . S
C375 C376 1.383 . S
C375 H383 0.929 . S
C376 C375 1.383 . S
C376 C377 1.377 . S
C377 H361 0.930 . S
C377 C376 1.377 . S
C377 C378 1.379 . S
C378 H362 0.931 . S
C378 C372 1.383 . S
C378 C377 1.379 . S
H379 C373 0.959 . S
H380 C373 0.961 . S
H381 C373 0.960 . S
H382 C374 0.930 . S
H383 C375 0.929 . S
H384 C392 0.929 . S
H385 C394 0.930 . S
H386 C396 0.930 . S
H387 C399 0.929 . S
H388 C402 0.930 . S
H389 C404 0.960 1_565 S
H390 C404 0.960 . S
H391 C404 0.960 . S
C392 H384 0.929 . S
C392 C393 1.377 . S
C392 C394 1.384 . S
C393 C392 1.377 . S
C393 C399 1.390 . S
C394 H385 0.930 . S
C394 C392 1.384 . S
C394 C395 1.372 . S
C395 C394 1.372 . S
C395 C396 1.400 . S
C395 C400 1.490 1_545 S
C396 H386 0.930 . S
C396 C395 1.400 . S
C396 C399 1.386 . S
H397 C413 0.930 . S
H398 C414 0.931 . S
C399 H387 0.929 . S
C399 C393 1.390 . S
C399 C396 1.386 . S
C400 C395 1.490 1_565 S
C400 C402 1.395 . S
C400 C403 1.403 . S
H401 C407 0.930 . S
C402 H388 0.930 . S
C402 C400 1.395 . S
C402 C405 1.403 . S
C403 C400 1.403 . S
C403 C404 1.524 1_565 S
C403 C407 1.400 . S
C404 H389 0.960 1_545 S
C404 H390 0.960 . S
C404 H391 0.960 . S
C404 C403 1.524 1_545 S
C405 C402 1.403 . S
C405 C406 1.392 . S
C405 C409 1.495 . S
C406 C405 1.392 . S
C406 C407 1.385 . S
C406 C408 1.478 . S
C407 H401 0.930 . S
C407 C403 1.400 . S
C407 C406 1.385 . S
C408 C406 1.478 . S
C408 C410 1.381 . S
C408 C414 1.383 . S
C409 C405 1.495 . S
C409 H415 0.959 . S
C409 H416 0.961 . S
C409 H417 0.960 . S
C410 C408 1.381 . S
C410 C411 1.394 . S
C410 H418 0.930 . S
C411 C410 1.394 . S
C411 C412 1.383 . S
C411 H419 0.929 . S
C412 C411 1.383 . S
C412 C413 1.377 . S
C413 H397 0.930 . S
C413 C412 1.377 . S
C413 C414 1.379 . S
C414 H398 0.931 . S
C414 C408 1.383 . S
C414 C413 1.379 . S
H415 C409 0.959 . S
H416 C409 0.961 . S
H417 C409 0.960 . S
H418 C410 0.930 . S
H419 C411 0.929 . S
H420 C428 0.929 . S
H421 C430 0.930 . S
H422 C432 0.930 . S
H423 C435 0.929 . S
H424 C438 0.930 . S
H425 C440 0.960 . S
H426 C440 0.960 . S
H427 C440 0.960 . S
C428 H420 0.929 . S
C428 C429 1.377 . S
C428 C430 1.384 . S
C429 C428 1.377 . S
C429 C435 1.390 . S
C430 H421 0.930 . S
C430 C428 1.384 . S
C430 C431 1.372 . S
C431 C430 1.372 . S
C431 C432 1.400 . S
C431 C436 1.490 . S
C432 H422 0.930 . S
C432 C431 1.400 . S
C432 C435 1.386 . S
H433 C449 0.930 . S
H434 C450 0.931 . S
C435 H423 0.929 . S
C435 C429 1.390 . S
C435 C432 1.386 . S
C436 C431 1.490 . S
C436 C438 1.395 . S
C436 C439 1.403 . S
H437 C443 0.930 . S
C438 H424 0.930 . S
C438 C436 1.395 . S
C438 C441 1.403 . S
C439 C436 1.403 . S
C439 C440 1.524 . S
C439 C443 1.400 . S
C440 H425 0.960 . S
C440 H426 0.960 . S
C440 H427 0.960 . S
C440 C439 1.524 . S
C441 C438 1.403 . S
C441 C442 1.392 . S
C441 C445 1.495 . S
C442 C441 1.392 . S
C442 C443 1.385 . S
C442 C444 1.478 . S
C443 H437 0.930 . S
C443 C439 1.400 . S
C443 C442 1.385 . S
C444 C442 1.478 . S
C444 C446 1.381 . S
C444 C450 1.383 . S
C445 C441 1.495 . S
C445 H451 0.959 . S
C445 H452 0.961 . S
C445 H453 0.960 . S
C446 C444 1.381 . S
C446 C447 1.394 . S
C446 H454 0.930 . S
C447 C446 1.394 . S
C447 C448 1.383 . S
C447 H455 0.929 . S
C448 C447 1.383 . S
C448 C449 1.377 . S
C449 H433 0.930 . S
C449 C448 1.377 . S
C449 C450 1.379 . S
C450 H434 0.931 . S
C450 C444 1.383 . S
C450 C449 1.379 . S
H451 C445 0.959 . S
H452 C445 0.961 . S
H453 C445 0.960 . S
H454 C446 0.930 . S
H455 C447 0.929 . S
H456 C464 0.929 . S
H457 C466 0.930 . S
H458 C468 0.930 . S
H459 C471 0.929 . S
H460 C474 0.930 . S
H461 C476 0.960 . S
H462 C476 0.960 . S
H463 C476 0.960 . S
C464 H456 0.929 . S
C464 C465 1.377 . S
C464 C466 1.384 . S
C465 C464 1.377 . S
C465 C471 1.390 . S
C466 H457 0.930 . S
C466 C464 1.384 . S
C466 C467 1.372 1_554 S
C467 C466 1.372 1_556 S
C467 C468 1.400 1_556 S
C467 C472 1.490 . S
C468 H458 0.930 . S
C468 C467 1.400 1_554 S
C468 C471 1.386 . S
H469 C485 0.930 . S
H470 C486 0.931 . S
C471 H459 0.929 . S
C471 C465 1.390 . S
C471 C468 1.386 . S
C472 C467 1.490 . S
C472 C474 1.395 . S
C472 C475 1.403 . S
H473 C479 0.930 . S
C474 H460 0.930 . S
C474 C472 1.395 . S
C474 C477 1.403 . S
C475 C472 1.403 . S
C475 C476 1.524 . S
C475 C479 1.400 . S
C476 H461 0.960 . S
C476 H462 0.960 . S
C476 H463 0.960 . S
C476 C475 1.524 . S
C477 C474 1.403 . S
C477 C478 1.392 . S
C477 C481 1.495 . S
C478 C477 1.392 . S
C478 C479 1.385 . S
C478 C480 1.478 . S
C479 H473 0.930 . S
C479 C475 1.400 . S
C479 C478 1.385 . S
C480 C478 1.478 . S
C480 C482 1.381 . S
C480 C486 1.383 . S
C481 C477 1.495 . S
C481 H487 0.959 . S
C481 H488 0.961 . S
C481 H489 0.960 . S
C482 C480 1.381 . S
C482 C483 1.394 . S
C482 H490 0.930 . S
C483 C482 1.394 . S
C483 C484 1.383 . S
C483 H491 0.929 . S
C484 C483 1.383 . S
C484 C485 1.377 . S
C485 H469 0.930 . S
C485 C484 1.377 . S
C485 C486 1.379 . S
C486 H470 0.931 . S
C486 C480 1.383 . S
C486 C485 1.379 . S
H487 C481 0.959 . S
H488 C481 0.961 . S
H489 C481 0.960 . S
H490 C482 0.930 . S
H491 C483 0.929 . S
H492 C500 0.929 . S
H493 C502 0.930 . S
H494 C504 0.930 . S
H495 C507 0.929 . S
H496 C510 0.930 . S
H497 C512 0.960 . S
H498 C512 0.960 . S
H499 C512 0.960 . S
C500 H492 0.929 . S
C500 C501 1.377 . S
C500 C502 1.384 . S
C501 C500 1.377 . S
C501 C507 1.390 . S
C502 H493 0.930 . S
C502 C500 1.384 . S
C502 C503 1.372 . S
C503 C502 1.372 . S
C503 C504 1.400 . S
C503 C508 1.490 . S
C504 H494 0.930 . S
C504 C503 1.400 . S
C504 C507 1.386 . S
H505 C521 0.930 . S
H506 C522 0.931 . S
C507 H495 0.929 . S
C507 C501 1.390 . S
C507 C504 1.386 . S
C508 C503 1.490 . S
C508 C510 1.395 . S
C508 C511 1.403 . S
H509 C515 0.930 . S
C510 H496 0.930 . S
C510 C508 1.395 . S
C510 C513 1.403 . S
C511 C508 1.403 . S
C511 C512 1.524 . S
C511 C515 1.400 . S
C512 H497 0.960 . S
C512 H498 0.960 . S
C512 H499 0.960 . S
C512 C511 1.524 . S
C513 C510 1.403 . S
C513 C514 1.392 . S
C513 C517 1.495 . S
C514 C513 1.392 . S
C514 C515 1.385 . S
C514 C516 1.478 . S
C515 H509 0.930 . S
C515 C511 1.400 . S
C515 C514 1.385 . S
C516 C514 1.478 . S
C516 C518 1.381 . S
C516 C522 1.383 . S
C517 C513 1.495 . S
C517 H523 0.959 . S
C517 H524 0.961 . S
C517 H525 0.960 . S
C518 C516 1.381 . S
C518 C519 1.394 1_554 S
C518 H526 0.930 . S
C519 C518 1.394 1_556 S
C519 C520 1.383 . S
C519 H527 0.929 . S
C520 C519 1.383 . S
C520 C521 1.377 . S
C521 H505 0.930 . S
C521 C520 1.377 . S
C521 C522 1.379 1_556 S
C522 H506 0.931 . S
C522 C516 1.383 . S
C522 C521 1.379 1_554 S
H523 C517 0.959 . S
H524 C517 0.961 . S
H525 C517 0.960 . S
H526 C518 0.930 . S
H527 C519 0.929 . S
H528 C536 0.929 . S
H529 C538 0.930 . S
H530 C540 0.930 . S
H531 C543 0.929 . S
H532 C546 0.930 . S
H533 C548 0.960 . S
H534 C548 0.960 . S
H535 C548 0.960 . S
C536 H528 0.929 . S
C536 C537 1.377 . S
C536 C538 1.384 . S
C537 C536 1.377 . S
C537 C543 1.390 . S
C538 H529 0.930 . S
C538 C536 1.384 . S
C538 C539 1.372 . S
C539 C538 1.372 . S
C539 C540 1.400 . S
C539 C544 1.490 . S
C540 H530 0.930 . S
C540 C539 1.400 . S
C540 C543 1.386 . S
H541 C557 0.930 . S
H542 C558 0.931 . S
C543 H531 0.929 . S
C543 C537 1.390 . S
C543 C540 1.386 . S
C544 C539 1.490 . S
C544 C546 1.395 . S
C544 C547 1.403 . S
H545 C551 0.930 . S
C546 H532 0.930 . S
C546 C544 1.395 . S
C546 C549 1.403 . S
C547 C544 1.403 . S
C547 C548 1.524 . S
C547 C551 1.400 . S
C548 H533 0.960 . S
C548 H534 0.960 . S
C548 H535 0.960 . S
C548 C547 1.524 . S
C549 C546 1.403 . S
C549 C550 1.392 . S
C549 C553 1.495 . S
C550 C549 1.392 . S
C550 C551 1.385 . S
C550 C552 1.478 . S
C551 H545 0.930 . S
C551 C547 1.400 . S
C551 C550 1.385 . S
C552 C550 1.478 . S
C552 C554 1.381 . S
C552 C558 1.383 . S
C553 C549 1.495 . S
C553 H559 0.959 . S
C553 H560 0.961 . S
C553 H561 0.960 . S
C554 C552 1.381 . S
C554 C555 1.394 . S
C554 H562 0.930 . S
C555 C554 1.394 . S
C555 C556 1.383 . S
C555 H563 0.929 . S
C556 C555 1.383 . S
C556 C557 1.377 . S
C557 H541 0.930 . S
C557 C556 1.377 . S
C557 C558 1.379 . S
C558 H542 0.931 . S
C558 C552 1.383 . S
C558 C557 1.379 . S
H559 C553 0.959 . S
H560 C553 0.961 . S
H561 C553 0.960 . S
H562 C554 0.930 . S
H563 C555 0.929 . S
H564 C572 0.929 . S
H565 C574 0.930 . S
H566 C576 0.930 . S
H567 C579 0.929 . S
H568 C582 0.930 . S
H569 C584 0.960 . S
H570 C584 0.960 . S
H571 C584 0.960 . S
C572 H564 0.929 . S
C572 C573 1.377 . S
C572 C574 1.384 . S
C573 C572 1.377 . S
C573 C579 1.390 . S
C574 H565 0.930 . S
C574 C572 1.384 . S
C574 C575 1.372 . S
C575 C574 1.372 . S
C575 C576 1.400 . S
C575 C580 1.490 . S
C576 H566 0.930 . S
C576 C575 1.400 . S
C576 C579 1.386 . S
H577 C593 0.930 . S
H578 C594 0.931 . S
C579 H567 0.929 . S
C579 C573 1.390 . S
C579 C576 1.386 . S
C580 C575 1.490 . S
C580 C582 1.395 . S
C580 C583 1.403 . S
H581 C587 0.930 . S
C582 H568 0.930 . S
C582 C580 1.395 . S
C582 C585 1.403 . S
C583 C580 1.403 . S
C583 C584 1.524 . S
C583 C587 1.400 . S
C584 H569 0.960 . S
C584 H570 0.960 . S
C584 H571 0.960 . S
C584 C583 1.524 . S
C585 C582 1.403 . S
C585 C586 1.392 . S
C585 C589 1.495 . S
C586 C585 1.392 . S
C586 C587 1.385 . S
C586 C588 1.478 1_556 S
C587 H581 0.930 . S
C587 C583 1.400 . S
C587 C586 1.385 . S
C588 C586 1.478 1_554 S
C588 C590 1.381 . S
C588 C594 1.383 . S
C589 C585 1.495 . S
C589 H595 0.959 . S
C589 H596 0.961 . S
C589 H597 0.957 1_556 S
C590 C588 1.381 . S
C590 C591 1.394 . S
C590 H598 0.930 . S
C591 C590 1.394 . S
C591 C592 1.383 . S
C591 H599 0.929 . S
C592 C591 1.383 . S
C592 C593 1.377 . S
C593 H577 0.930 . S
C593 C592 1.377 . S
C593 C594 1.379 . S
C594 H578 0.931 . S
C594 C588 1.383 . S
C594 C593 1.379 . S
H595 C589 0.959 . S
H596 C589 0.961 . S
H597 C589 0.957 1_554 S
H598 C590 0.930 . S
H599 C591 0.929 . S
H600 C608 0.929 . S
H601 C610 0.930 . S
H602 C612 0.930 . S
H603 C615 0.929 . S
H604 C618 0.930 . S
H605 C620 0.960 . S
H606 C620 0.960 . S
H607 C620 0.960 . S
C608 H600 0.929 . S
C608 C609 1.377 . S
C608 C610 1.384 . S
C609 C608 1.377 . S
C609 C615 1.390 . S
C610 H601 0.930 . S
C610 C608 1.384 . S
C610 C611 1.372 . S
C611 C610 1.372 . S
C611 C612 1.400 . S
C611 C616 1.490 . S
C612 H602 0.930 . S
C612 C611 1.400 . S
C612 C615 1.386 . S
H613 C629 0.930 . S
H614 C630 0.931 1_554 S
C615 H603 0.929 . S
C615 C609 1.390 . S
C615 C612 1.386 . S
C616 C611 1.490 . S
C616 C618 1.395 . S
C616 C619 1.403 . S
H617 C623 0.930 . S
C618 H604 0.930 . S
C618 C616 1.395 . S
C618 C621 1.403 . S
C619 C616 1.403 . S
C619 C620 1.524 . S
C619 C623 1.400 . S
C620 H605 0.960 . S
C620 H606 0.960 . S
C620 H607 0.960 . S
C620 C619 1.524 . S
C621 C618 1.403 . S
C621 C622 1.392 . S
C621 C625 1.495 . S
C622 C621 1.392 . S
C622 C623 1.385 . S
C622 C624 1.478 . S
C623 H617 0.930 . S
C623 C619 1.400 . S
C623 C622 1.385 . S
C624 C622 1.478 . S
C624 C626 1.381 1_554 S
C624 C630 1.383 1_554 S
C625 C621 1.495 . S
C625 H631 0.959 . S
C625 H632 0.961 . S
C625 H633 0.960 . S
C626 C624 1.381 1_556 S
C626 C627 1.394 . S
C626 H634 0.930 . S
C627 C626 1.394 . S
C627 C628 1.383 . S
C627 H635 0.929 . S
C628 C627 1.383 . S
C628 C629 1.377 . S
C629 H613 0.930 . S
C629 C628 1.377 . S
C629 C630 1.379 . S
C630 H614 0.931 1_556 S
C630 C624 1.383 1_556 S
C630 C629 1.379 . S
H631 C625 0.959 . S
H632 C625 0.961 . S
H633 C625 0.960 . S
H634 C626 0.930 . S
H635 C627 0.929 . S
H636 C644 0.929 . S
H637 C646 0.930 . S
H638 C648 0.930 . S
H639 C651 0.929 . S
H640 C654 0.930 . S
H641 C656 0.960 . S
H642 C656 0.960 . S
H643 C656 0.960 . S
C644 H636 0.929 . S
C644 C645 1.377 . S
C644 C646 1.384 . S
C645 C644 1.377 . S
C645 C651 1.390 . S
C646 H637 0.930 . S
C646 C644 1.384 . S
C646 C647 1.372 . S
C647 C646 1.372 . S
C647 C648 1.400 . S
C647 C652 1.490 . S
C648 H638 0.930 . S
C648 C647 1.400 . S
C648 C651 1.386 . S
H649 C665 0.930 . S
H650 C666 0.931 . S
C651 H639 0.929 . S
C651 C645 1.390 . S
C651 C648 1.386 . S
C652 C647 1.490 . S
C652 C654 1.395 . S
C652 C655 1.403 . S
H653 C659 0.930 . S
C654 H640 0.930 . S
C654 C652 1.395 . S
C654 C657 1.403 . S
C655 C652 1.403 . S
C655 C656 1.524 . S
C655 C659 1.400 . S
C656 H641 0.960 . S
C656 H642 0.960 . S
C656 H643 0.960 . S
C656 C655 1.524 . S
C657 C654 1.403 . S
C657 C658 1.392 . S
C657 C661 1.495 . S
C658 C657 1.392 . S
C658 C659 1.385 . S
C658 C660 1.478 . S
C659 H653 0.930 . S
C659 C655 1.400 . S
C659 C658 1.385 . S
C660 C658 1.478 . S
C660 C662 1.381 . S
C660 C666 1.383 . S
C661 C657 1.495 . S
C661 H667 0.959 . S
C661 H668 0.961 . S
C661 H669 0.960 . S
C662 C660 1.381 . S
C662 C663 1.394 . S
C662 H670 0.930 . S
C663 C662 1.394 . S
C663 C664 1.383 . S
C663 H671 0.929 . S
C664 C663 1.383 . S
C664 C665 1.377 . S
C665 H649 0.930 . S
C665 C664 1.377 . S
C665 C666 1.379 . S
C666 H650 0.931 . S
C666 C660 1.383 . S
C666 C665 1.379 . S
H667 C661 0.959 . S
H668 C661 0.961 . S
H669 C661 0.960 . S
H670 C662 0.930 . S
H671 C663 0.929 . S
H672 C680 0.929 . S
H673 C682 0.930 . S
H674 C684 0.930 . S
H675 C687 0.929 . S
H676 C690 0.930 . S
H677 C692 0.960 . S
H678 C692 0.960 . S
H679 C692 0.960 . S
C680 H672 0.929 . S
C680 C681 1.377 . S
C680 C682 1.384 . S
C681 C680 1.377 . S
C681 C687 1.390 . S
C682 H673 0.930 . S
C682 C680 1.384 . S
C682 C683 1.372 . S
C683 C682 1.372 . S
C683 C684 1.400 . S
C683 C688 1.490 . S
C684 H674 0.930 . S
C684 C683 1.400 . S
C684 C687 1.386 . S
H685 C701 0.930 . S
H686 C702 0.931 . S
C687 H675 0.929 . S
C687 C681 1.390 . S
C687 C684 1.386 . S
C688 C683 1.490 . S
C688 C690 1.395 . S
C688 C691 1.403 . S
H689 C695 0.930 . S
C690 H676 0.930 . S
C690 C688 1.395 . S
C690 C693 1.403 . S
C691 C688 1.403 . S
C691 C692 1.524 . S
C691 C695 1.400 . S
C692 H677 0.960 . S
C692 H678 0.960 . S
C692 H679 0.960 . S
C692 C691 1.524 . S
C693 C690 1.403 . S
C693 C694 1.392 . S
C693 C697 1.495 . S
C694 C693 1.392 . S
C694 C695 1.385 . S
C694 C696 1.478 . S
C695 H689 0.930 . S
C695 C691 1.400 . S
C695 C694 1.385 . S
C696 C694 1.478 . S
C696 C698 1.381 . S
C696 C702 1.383 . S
C697 C693 1.495 . S
C697 H703 0.959 . S
C697 H704 0.961 . S
C697 H705 0.960 . S
C698 C696 1.381 . S
C698 C699 1.394 . S
C698 H706 0.930 . S
C699 C698 1.394 . S
C699 C700 1.383 . S
C699 H707 0.929 . S
C700 C699 1.383 . S
C700 C701 1.377 . S
C701 H685 0.930 . S
C701 C700 1.377 . S
C701 C702 1.379 . S
C702 H686 0.931 . S
C702 C696 1.383 . S
C702 C701 1.379 . S
H703 C697 0.959 . S
H704 C697 0.961 . S
H705 C697 0.960 . S
H706 C698 0.930 . S
H707 C699 0.929 . S
H708 C716 0.929 . S
H709 C718 0.930 . S
H710 C720 0.930 . S
H711 C723 0.929 . S
H712 C726 0.930 . S
H713 C728 0.960 . S
H714 C728 0.960 . S
H715 C728 0.960 . S
C716 H708 0.929 . S
C716 C717 1.377 1_556 S
C716 C718 1.384 . S
C717 C716 1.377 1_554 S
C717 C723 1.390 . S
C718 H709 0.930 . S
C718 C716 1.384 . S
C718 C719 1.372 . S
C719 C718 1.372 . S
C719 C720 1.400 1_556 S
C719 C724 1.490 . S
C720 H710 0.930 . S
C720 C719 1.400 1_554 S
C720 C723 1.386 . S
H721 C737 0.930 . S
H722 C738 0.931 . S
C723 H711 0.929 . S
C723 C717 1.390 . S
C723 C720 1.386 . S
C724 C719 1.490 . S
C724 C726 1.395 . S
C724 C727 1.403 . S
H725 C731 0.930 . S
C726 H712 0.930 . S
C726 C724 1.395 . S
C726 C729 1.403 . S
C727 C724 1.403 . S
C727 C728 1.524 1_556 S
C727 C731 1.400 . S
C728 H713 0.960 . S
C728 H714 0.960 . S
C728 H715 0.960 . S
C728 C727 1.524 1_554 S
C729 C726 1.403 . S
C729 C730 1.392 . S
C729 C733 1.495 . S
C730 C729 1.392 . S
C730 C731 1.385 . S
C730 C732 1.478 . S
C731 H725 0.930 . S
C731 C727 1.400 . S
C731 C730 1.385 . S
C732 C730 1.478 . S
C732 C734 1.381 . S
C732 C738 1.383 . S
C733 C729 1.495 . S
C733 H739 0.959 . S
C733 H740 0.961 . S
C733 H741 0.960 . S
C734 C732 1.381 . S
C734 C735 1.394 . S
C734 H742 0.930 . S
C735 C734 1.394 . S
C735 C736 1.383 . S
C735 H743 0.929 . S
C736 C735 1.383 . S
C736 C737 1.377 . S
C737 H721 0.930 . S
C737 C736 1.377 . S
C737 C738 1.379 . S
C738 H722 0.931 . S
C738 C732 1.383 . S
C738 C737 1.379 . S
H739 C733 0.959 . S
H740 C733 0.961 . S
H741 C733 0.960 . S
H742 C734 0.930 . S
H743 C735 0.929 . S
H744 C752 0.929 . S
H745 C754 0.930 . S
H746 C756 0.930 . S
H747 C759 0.929 . S
H748 C762 0.930 . S
H749 C764 0.960 . S
H750 C764 0.960 . S
H751 C764 0.960 . S
C752 H744 0.929 . S
C752 C753 1.377 . S
C752 C754 1.384 . S
C753 C752 1.377 . S
C753 C759 1.390 . S
C754 H745 0.930 . S
C754 C752 1.384 . S
C754 C755 1.372 . S
C755 C754 1.372 . S
C755 C756 1.400 . S
C755 C760 1.490 . S
C756 H746 0.930 . S
C756 C755 1.400 . S
C756 C759 1.386 . S
H757 C773 0.930 . S
H758 C774 0.931 . S
C759 H747 0.929 . S
C759 C753 1.390 . S
C759 C756 1.386 . S
C760 C755 1.490 . S
C760 C762 1.395 . S
C760 C763 1.403 . S
H761 C767 0.930 . S
C762 H748 0.930 . S
C762 C760 1.395 . S
C762 C765 1.403 . S
C763 C760 1.403 . S
C763 C764 1.524 . S
C763 C767 1.400 . S
C764 H749 0.960 . S
C764 H750 0.960 . S
C764 H751 0.960 . S
C764 C763 1.524 . S
C765 C762 1.403 . S
C765 C766 1.392 . S
C765 C769 1.495 1_554 S
C766 C765 1.392 . S
C766 C767 1.385 . S
C766 C768 1.478 . S
C767 H761 0.930 . S
C767 C763 1.400 . S
C767 C766 1.385 . S
C768 C766 1.478 . S
C768 C770 1.381 . S
C768 C774 1.383 . S
C769 C765 1.495 1_556 S
C769 H775 0.959 . S
C769 H776 0.961 . S
C769 H777 0.960 . S
C770 C768 1.381 . S
C770 C771 1.394 . S
C770 H778 0.930 . S
C771 C770 1.394 . S
C771 C772 1.383 . S
C771 H779 0.929 . S
C772 C771 1.383 . S
C772 C773 1.377 . S
C773 H757 0.930 . S
C773 C772 1.377 . S
C773 C774 1.379 . S
C774 H758 0.931 . S
C774 C768 1.383 . S
C774 C773 1.379 . S
H775 C769 0.959 . S
H776 C769 0.961 . S
H777 C769 0.960 . S
H778 C770 0.930 . S
H779 C771 0.929 . S
H780 C788 0.929 . S
H781 C790 0.930 . S
H782 C792 0.930 . S
H783 C795 0.929 . S
H784 C798 0.930 . S
H785 C800 0.960 . S
H786 C800 0.960 . S
H787 C800 0.960 . S
C788 H780 0.929 . S
C788 C789 1.377 . S
C788 C790 1.384 . S
C789 C788 1.377 . S
C789 C795 1.390 . S
C790 H781 0.930 . S
C790 C788 1.384 . S
C790 C791 1.372 . S
C791 C790 1.372 . S
C791 C792 1.400 . S
C791 C796 1.490 . S
C792 H782 0.930 . S
C792 C791 1.400 . S
C792 C795 1.386 . S
H793 C809 0.930 . S
H794 C810 0.931 . S
C795 H783 0.929 . S
C795 C789 1.390 . S
C795 C792 1.386 . S
C796 C791 1.490 . S
C796 C798 1.395 . S
C796 C799 1.403 . S
H797 C803 0.930 . S
C798 H784 0.930 . S
C798 C796 1.395 . S
C798 C801 1.403 . S
C799 C796 1.403 . S
C799 C800 1.524 . S
C799 C803 1.400 . S
C800 H785 0.960 . S
C800 H786 0.960 . S
C800 H787 0.960 . S
C800 C799 1.524 . S
C801 C798 1.403 . S
C801 C802 1.392 . S
C801 C805 1.495 . S
C802 C801 1.392 . S
C802 C803 1.385 . S
C802 C804 1.478 . S
C803 H797 0.930 . S
C803 C799 1.400 . S
C803 C802 1.385 . S
C804 C802 1.478 . S
C804 C806 1.381 . S
C804 C810 1.383 . S
C805 C801 1.495 . S
C805 H811 0.959 . S
C805 H812 0.961 . S
C805 H813 0.960 . S
C806 C804 1.381 . S
C806 C807 1.394 . S
C806 H814 0.930 . S
C807 C806 1.394 . S
C807 C808 1.383 . S
C807 H815 0.929 . S
C808 C807 1.383 . S
C808 C809 1.377 . S
C809 H793 0.930 . S
C809 C808 1.377 . S
C809 C810 1.379 . S
C810 H794 0.931 . S
C810 C804 1.383 . S
C810 C809 1.379 . S
H811 C805 0.959 . S
H812 C805 0.961 . S
H813 C805 0.960 . S
H814 C806 0.930 . S
H815 C807 0.929 . S
H816 C824 0.929 1_554 S
H817 C826 0.930 . S
H818 C828 0.930 . S
H819 C831 0.929 . S
H820 C834 0.930 . S
H821 C836 0.960 . S
H822 C836 0.960 . S
H823 C836 0.960 . S
C824 H816 0.929 1_556 S
C824 C825 1.377 . S
C824 C826 1.384 . S
C825 C824 1.377 . S
C825 C831 1.390 . S
C826 H817 0.930 . S
C826 C824 1.384 . S
C826 C827 1.372 . S
C827 C826 1.372 . S
C827 C828 1.400 . S
C827 C832 1.490 . S
C828 H818 0.930 . S
C828 C827 1.400 . S
C828 C831 1.386 . S
H829 C845 0.930 . S
H830 C846 0.931 . S
C831 H819 0.929 . S
C831 C825 1.390 . S
C831 C828 1.386 . S
C832 C827 1.490 . S
C832 C834 1.395 . S
C832 C835 1.403 . S
H833 C839 0.930 . S
C834 H820 0.930 . S
C834 C832 1.395 . S
C834 C837 1.403 . S
C835 C832 1.403 . S
C835 C836 1.524 . S
C835 C839 1.400 . S
C836 H821 0.960 . S
C836 H822 0.960 . S
C836 H823 0.960 . S
C836 C835 1.524 . S
C837 C834 1.403 . S
C837 C838 1.392 . S
C837 C841 1.495 . S
C838 C837 1.392 . S
C838 C839 1.385 . S
C838 C840 1.478 . S
C839 H833 0.930 . S
C839 C835 1.400 . S
C839 C838 1.385 . S
C840 C838 1.478 . S
C840 C842 1.381 . S
C840 C846 1.383 . S
C841 C837 1.495 . S
C841 H847 0.959 . S
C841 H848 0.961 . S
C841 H849 0.960 . S
C842 C840 1.381 . S
C842 C843 1.394 . S
C842 H850 0.930 . S
C843 C842 1.394 . S
C843 C844 1.383 . S
C843 H851 0.929 . S
C844 C843 1.383 . S
C844 C845 1.377 . S
C845 H829 0.930 . S
C845 C844 1.377 . S
C845 C846 1.379 . S
C846 H830 0.931 . S
C846 C840 1.383 . S
C846 C845 1.379 . S
H847 C841 0.959 . S
H848 C841 0.961 . S
H849 C841 0.960 . S
H850 C842 0.930 . S
H851 C843 0.929 . S
C213 C174 1.329 . S
C232 C4 1.308 . S
C249 C17 1.572 . S
C268 C51 1.565 . S
C285 C38 1.331 . S
C304 C72 1.320 . S
C321 C85 1.571 . S
C340 C119 1.573 . S
C357 C140 1.324 . S
C376 C106 1.333 . S
C393 C187 1.571 . S
C412 C153 1.572 . S
C429 C0 0.732 . S
C448 C29 0.739 . S
C465 C63 0.739 . S
C484 C34 0.750 . S
C501 C68 0.732 . S
C520 C97 0.739 . S
C537 C131 0.738 . S
C556 C102 0.751 . S
C573 C165 0.736 . S
C592 C136 0.720 . S
C609 C199 0.738 . S
C628 C170 0.728 . S
C645 C13 1.648 . S
C664 C144 1.680 . S
C681 C42 1.683 . S
C700 C183 1.637 . S
C717 C8 1.683 . S
C736 C81 1.633 . S
C753 C47 1.649 . S
C772 C110 1.681 . S
C789 C149 1.646 . S
C808 C76 1.679 . S
C825 C115 1.644 . S
C844 C178 1.678 . S
