# Generated by pormake.
# Topology tsi, (8)-cn, num edge types: 1
# Building blocks:
#     Node 0, Type 0, BuildingBlock: TAGTUT_clean_sbu_3, # of connection points: 8
#     Node 1, Type 0, BuildingBlock: TAGTUT_clean_sbu_3, # of connection points: 8
#     Node 2, Type 0, BuildingBlock: TAGTUT_clean_sbu_3, # of connection points: 8
#     Node 3, Type 0, BuildingBlock: TAGTUT_clean_sbu_3, # of connection points: 8
#     Edge 4, Type (0, 0), BuildingBlock: TEMPAE_clean_linker_10, # of connection points: 2
#     Edge 5, Type (0, 0), BuildingBlock: TEMPAE_clean_linker_10, # of connection points: 2
#     Edge 6, Type (0, 0), BuildingBlock: TEMPAE_clean_linker_10, # of connection points: 2
#     Edge 7, Type (0, 0), BuildingBlock: TEMPAE_clean_linker_10, # of connection points: 2
#     Edge 8, Type (0, 0), BuildingBlock: TEMPAE_clean_linker_10, # of connection points: 2
#     Edge 9, Type (0, 0), BuildingBlock: TEMPAE_clean_linker_10, # of connection points: 2
#     Edge 10, Type (0, 0), BuildingBlock: TEMPAE_clean_linker_10, # of connection points: 2
#     Edge 11, Type (0, 0), BuildingBlock: TEMPAE_clean_linker_10, # of connection points: 2
#     Edge 12, Type (0, 0), BuildingBlock: TEMPAE_clean_linker_10, # of connection points: 2
#     Edge 13, Type (0, 0), BuildingBlock: TEMPAE_clean_linker_10, # of connection points: 2
#     Edge 14, Type (0, 0), BuildingBlock: TEMPAE_clean_linker_10, # of connection points: 2
#     Edge 15, Type (0, 0), BuildingBlock: TEMPAE_clean_linker_10, # of connection points: 2
#     Edge 16, Type (0, 0), BuildingBlock: TEMPAE_clean_linker_10, # of connection points: 2
#     Edge 17, Type (0, 0), BuildingBlock: TEMPAE_clean_linker_10, # of connection points: 2
#     Edge 18, Type (0, 0), BuildingBlock: TEMPAE_clean_linker_10, # of connection points: 2
#     Edge 19, Type (0, 0), BuildingBlock: TEMPAE_clean_linker_10, # of connection points: 2
# Relax obj value: 0.145
# Max RMSD: 0.223
# Mean RMSD: 0.223
data_MOF--net-tsi--node1-TAGTUT_clean_sbu_3--edge1-TEMPAE_clean_linker_10
_symmetry_space_group_name_H-M    P1
_symmetry_Int_Tables_number       1
_symmetry_cell_setting            triclinic
loop_
_symmetry_equiv_pos_as_xyz
'x, y, z'
_cell_length_a     15.975166
_cell_length_b     16.152848
_cell_length_c     67.03146
_cell_angle_alpha  89.226644
_cell_angle_beta   89.994225
_cell_angle_gamma 90.058089
loop_
_atom_site_label
_atom_site_type_symbol
_atom_site_fract_x
_atom_site_fract_y
_atom_site_fract_z
_atom_type_partial_charge
C0 C 0.19389 0.19297 0.35514 0.0
C1 C 0.0229 0.14688 0.28862 0.0
C2 C 0.8222 0.2575 0.32161 0.0
Mg3 Mg 0.12907 0.21486 0.39974 0.0
Mg4 Mg 0.95267 0.13359 0.41762 0.0
O5 O 0.00698 0.18889 0.39688 0.0
Mg6 Mg 0.00181 0.16328 0.36787 0.0
O7 O 0.00613 0.14608 0.33849 0.0
Mg8 Mg 0.03196 0.26299 0.32987 0.0
Mg9 Mg 0.91616 0.09565 0.32562 0.0
C10 C 0.80789 0.14253 0.38482 0.0
O11 O 0.99278 0.02084 0.37109 0.0
O12 O 0.09804 0.27105 0.43007 0.0
O13 O 0.9135 0.98578 0.34448 0.0
O14 O 0.1542 0.09184 0.41615 0.0
O15 O 0.97095 0.2268 0.43991 0.0
O16 O 0.03413 0.03286 0.42599 0.0
O17 O 0.00735 0.30334 0.36204 0.0
O18 O 0.09903 0.33806 0.38549 0.0
C19 C 0.05002 0.35783 0.37123 0.0
C20 C 0.036 0.27219 0.44221 0.0
O21 O 0.85877 0.16143 0.37061 0.0
O22 O 0.05043 0.20888 0.29852 0.0
O23 O 0.83133 0.12526 0.40276 0.0
O24 O 0.89422 0.29229 0.3215 0.0
O25 O 0.97045 0.09465 0.296 0.0
O26 O 0.81403 0.18057 0.32561 0.0
O27 O 0.14274 0.16282 0.36795 0.0
O28 O 0.16804 0.23151 0.33944 0.0
C29 C 0.11423 0.03536 0.42577 0.0
C30 C 0.95199 0.96742 0.36078 0.0
C31 C 0.18949 0.78724 0.63458 0.0
C32 C 0.01855 0.83128 0.70101 0.0
C33 C 0.81734 0.72132 0.66774 0.0
Mg34 Mg 0.12527 0.76598 0.58999 0.0
Mg35 Mg 0.94897 0.84684 0.57188 0.0
O36 O 0.0031 0.79178 0.59271 0.0
Mg37 Mg -0.00251 0.81678 0.62176 0.0
O38 O 0.00135 0.83332 0.65116 0.0
Mg39 Mg 0.02714 0.71622 0.6596 0.0
Mg40 Mg 0.91163 0.88366 0.66416 0.0
C41 C 0.80371 0.83719 0.60466 0.0
O42 O 0.98869 0.95915 0.61876 0.0
O43 O 0.09468 0.70956 0.55976 0.0
O44 O 0.90934 -0.00603 0.64538 0.0
O45 O 0.15046 0.88917 0.57366 0.0
O46 O 0.96815 0.75392 0.5495 0.0
O47 O 0.03058 0.94792 0.56369 0.0
O48 O 0.00284 0.6766 0.62741 0.0
O49 O 0.09528 0.64258 0.6041 0.0
C50 C 0.0457 0.62239 0.61821 0.0
C51 C 0.03317 0.70838 0.54749 0.0
O52 O 0.85451 0.81844 0.6189 0.0
O53 O 0.04551 0.76949 0.69098 0.0
O54 O 0.8273 0.8545 0.58672 0.0
O55 O 0.88928 0.68652 0.66776 0.0
O56 O 0.96628 0.88394 0.69378 0.0
O57 O 0.80939 0.79854 0.66407 0.0
O58 O 0.13847 0.81767 0.6218 0.0
O59 O 0.16344 0.74812 0.65019 0.0
C60 C 0.11069 0.94566 0.56403 0.0
C61 C 0.94802 0.01244 0.6291 0.0
C62 C 0.54828 0.85785 0.87079 0.0
C63 C 0.53326 0.7795 0.9413 0.0
C64 C 0.61183 0.53983 0.92677 0.0
Mg65 Mg 0.52924 0.762 0.82984 0.0
Mg66 Mg 0.41348 0.59448 0.82568 0.0
O67 O 0.5034 0.64521 0.83854 0.0
Mg68 Mg 0.49957 0.66308 0.8679 0.0
O69 O 0.50529 0.68953 0.89683 0.0
Mg70 Mg 0.62728 0.71633 0.89956 0.0
Mg71 Mg 0.45022 0.63735 0.91795 0.0
C72 C 0.44947 0.46714 0.86104 0.0
O73 O 0.3566 0.66167 0.87072 0.0
O74 O 0.5474 0.70759 0.79858 0.0
O75 O 0.32893 0.62796 0.90302 0.0
O76 O 0.39145 0.79142 0.8216 0.0
O77 O 0.46778 0.59314 0.79603 0.0
O78 O 0.3114 0.67953 0.82562 0.0
O79 O 0.64082 0.66192 0.86799 0.0
O80 O 0.66533 0.73018 0.83936 0.0
C81 C 0.69157 0.69165 0.85503 0.0
C82 C 0.52014 0.64554 0.78867 0.0
O83 O 0.49036 0.52076 0.87126 0.0
O84 O 0.59563 0.7765 0.92931 0.0
O85 O 0.41089 0.48503 0.84472 0.0
O86 O 0.65195 0.59484 0.91669 0.0
O87 O 0.46833 0.73358 0.93949 0.0
O88 O 0.53171 0.53781 0.92713 0.0
O89 O 0.50491 0.80306 0.86192 0.0
O90 O 0.59838 0.83838 0.88483 0.0
C91 C 0.31946 0.75657 0.82172 0.0
C92 C 0.30562 0.6439 0.885 0.0
C93 C 0.68966 0.28264 0.13388 0.0
C94 C 0.51885 0.32325 0.2005 0.0
C95 C 0.31767 0.21597 0.16697 0.0
Mg96 Mg 0.62476 0.26674 0.08913 0.0
Mg97 Mg 0.44923 0.35126 0.07183 0.0
O98 O 0.50261 0.29182 0.09207 0.0
Mg99 Mg 0.49772 0.31419 0.12126 0.0
O100 O 0.50196 0.32844 0.15072 0.0
Mg101 Mg 0.52739 0.21069 0.15868 0.0
Mg102 Mg 0.41214 0.37828 0.1638 0.0
C103 C 0.30389 0.33757 0.10445 0.0
O104 O 0.49007 0.45653 0.11892 0.0
O105 O 0.59439 0.21605 0.05822 0.0
O106 O 0.41019 0.49027 0.14554 0.0
O107 O 0.65056 0.39205 0.07393 0.0
O108 O 0.4682 0.26268 0.04847 0.0
O109 O 0.53112 0.45348 0.06472 0.0
O110 O 0.50291 0.17377 0.12624 0.0
O111 O 0.59386 0.14158 0.10241 0.0
C112 C 0.54491 0.12022 0.11659 0.0
C113 C 0.53323 0.21769 0.04583 0.0
O114 O 0.35467 0.31683 0.11853 0.0
O115 O 0.54586 0.26191 0.19031 0.0
O116 O 0.32751 0.35722 0.08665 0.0
O117 O 0.38955 0.18106 0.16683 0.0
O118 O 0.4668 0.37638 0.19338 0.0
O119 O 0.30975 0.29331 0.16345 0.0
O120 O 0.63849 0.31417 0.12129 0.0
O121 O 0.66377 0.24264 0.14937 0.0
C122 C 0.6112 0.45047 0.06491 0.0
C123 C 0.4496 0.50941 0.12941 0.0
C124 C 0.09853 0.39567 0.45838 0.0
C125 C 0.03736 0.33323 0.45839 0.0
C126 C 0.09757 0.45795 0.47265 0.0
C127 C 0.03429 0.45738 0.48738 0.0
C128 C 0.97317 0.39392 0.48775 0.0
C129 C 0.97531 0.33252 0.47319 0.0
C130 C 0.16387 0.52473 0.47188 0.0
C131 C 0.90537 0.39122 0.50345 0.0
C132 C 0.08 0.57276 0.53474 0.0
C133 C 0.03479 0.64621 0.53168 0.0
C134 C 0.07943 0.51033 0.52052 0.0
C135 C 0.03353 0.52233 0.5027 0.0
C136 C 0.98846 0.59672 0.49938 0.0
C137 C 0.98902 0.65776 0.51406 0.0
C138 C 0.1276 0.43142 0.52462 0.0
C139 C 0.93983 0.61171 0.48036 0.0
H140 H 0.14651 0.39706 0.44694 0.0
H141 H 0.92802 0.28434 0.47332 0.0
H142 H 0.13399 0.58646 0.47031 0.0
H143 H 0.19993 0.5246 0.48603 0.0
H144 H 0.20826 0.51658 0.4593 0.0
H145 H 0.86276 0.33742 0.50169 0.0
H146 H 0.93382 0.38789 0.51854 0.0
H147 H 0.86773 0.44886 0.50266 0.0
H148 H 0.11445 0.56314 0.54852 0.0
H149 H 0.95427 0.71468 0.5117 0.0
H150 H 0.17595 0.42278 0.51295 0.0
H151 H 0.08484 0.37734 0.52403 0.0
H152 H 0.15884 0.43146 0.53942 0.0
H153 H 0.98226 0.60779 0.4673 0.0
H154 H 0.90875 0.67322 0.48005 0.0
H155 H 0.89139 0.56305 0.47865 0.0
C156 C 0.50839 0.58515 0.75439 0.0
C157 C 0.55088 0.63522 0.76805 0.0
C158 C 0.53566 0.57973 0.73448 0.0
C159 C 0.60781 0.62421 0.72836 0.0
C160 C 0.65208 0.67286 0.74231 0.0
C161 C 0.62287 0.67792 0.76188 0.0
C162 C 0.48728 0.52659 0.72015 0.0
C163 C 0.72978 0.72125 0.73652 0.0
C164 C 0.75866 0.6002 0.68656 0.0
C165 C 0.74553 0.67648 0.67677 0.0
C166 C 0.7049 0.57384 0.70193 0.0
C167 C 0.63694 0.62486 0.70733 0.0
C168 C 0.61453 0.69266 0.69489 0.0
C169 C 0.66961 0.71814 0.67974 0.0
C170 C 0.72843 0.49865 0.71425 0.0
C171 C 0.53986 0.74614 0.69954 0.0
H172 H 0.45281 0.55167 0.7591 0.0
H173 H 0.65668 0.71588 0.77239 0.0
H174 H 0.48209 0.55684 0.70525 0.0
H175 H 0.52083 0.46716 0.71821 0.0
H176 H 0.42334 0.51247 0.72577 0.0
H177 H 0.75782 0.75415 0.74935 0.0
H178 H 0.77772 0.6791 0.73034 0.0
H179 H 0.71425 0.7678 0.72478 0.0
H180 H 0.81571 0.56578 0.6839 0.0
H181 H 0.6573 0.77563 0.67176 0.0
H182 H 0.67185 0.46483 0.71943 0.0
H183 H 0.7636 0.51865 0.72764 0.0
H184 H 0.76878 0.45576 0.70572 0.0
H185 H 0.48697 0.70845 0.70538 0.0
H186 H 0.51838 0.78117 0.68615 0.0
H187 H 0.55755 0.79137 0.71113 0.0
C188 C 0.61472 0.44463 0.9564 0.0
C189 C 0.65595 0.50285 0.9442 0.0
C190 C 0.63343 0.43821 0.97683 0.0
C191 C 0.69319 0.4927 0.98521 0.0
C192 C 0.74305 0.54277 0.9725 0.0
C193 C 0.72525 0.54557 0.95202 0.0
C194 C 0.58272 0.37956 0.98976 0.0
C195 C 0.80782 0.60146 0.98064 0.0
C196 C 0.61315 0.54957 0.03604 0.0
C197 C 0.65568 0.49162 0.04804 0.0
C198 C 0.6319 0.55775 0.01564 0.0
C199 C 0.69333 0.50559 0.00714 0.0
C200 C 0.74497 0.45697 0.01973 0.0
C201 C 0.72699 0.45245 0.0402 0.0
C202 C 0.57931 0.61513 0.00285 0.0
C203 C 0.81185 0.40112 0.01146 0.0
H204 H 0.56237 0.41006 0.95044 0.0
H205 H 0.75899 0.58981 0.94274 0.0
H206 H 0.62346 0.34738 0.0008 0.0
H207 H 0.53527 0.41516 -0.00183 0.0
H208 H 0.54966 0.33233 0.98078 0.0
H209 H 0.85587 0.61725 0.96922 0.0
H210 H 0.77639 0.65968 0.98504 0.0
H211 H 0.83949 0.57545 0.99403 0.0
H212 H 0.5595 0.58192 0.04204 0.0
H213 H 0.76222 0.40907 0.04938 0.0
H214 H 0.53262 0.57831 0.99449 0.0
H215 H 0.61886 0.64865 0.99178 0.0
H216 H 0.54521 0.66121 0.01194 0.0
H217 H 0.78247 0.34218 0.00677 0.0
H218 H 0.86012 0.3862 0.02288 0.0
H219 H 0.84294 0.42916 -0.00179 0.0
C220 C 0.67401 0.26017 0.30995 0.0
C221 C 0.75071 0.30138 0.31222 0.0
C222 C 0.61862 0.28312 0.29465 0.0
C223 C 0.64148 0.34788 0.28132 0.0
C224 C 0.71093 0.39873 0.28582 0.0
C225 C 0.76481 0.37507 0.30139 0.0
C226 C 0.54301 0.22949 0.29093 0.0
C227 C 0.73586 0.47027 0.27239 0.0
C228 C 0.62059 0.28769 0.22732 0.0
C229 C 0.55016 0.33267 0.22111 0.0
C230 C 0.65119 0.29366 0.24676 0.0
C231 C 0.61008 0.34576 0.2605 0.0
C232 C 0.53947 0.39233 0.25435 0.0
C233 C 0.51027 0.3853 0.23465 0.0
C234 C 0.72728 0.24314 0.25261 0.0
C235 C 0.49345 0.44753 0.26864 0.0
H236 H 0.66113 0.20466 0.31867 0.0
H237 H 0.82268 0.40905 0.30342 0.0
H238 H 0.49226 0.26447 0.28334 0.0
H239 H 0.56137 0.17728 0.28126 0.0
H240 H 0.5182 0.20312 0.3051 0.0
H241 H 0.77648 0.51495 0.28033 0.0
H242 H 0.77139 0.44622 0.25947 0.0
H243 H 0.6801 0.50339 0.26652 0.0
H244 H 0.65228 0.24749 0.21693 0.0
H245 H 0.45546 0.41995 0.22997 0.0
H246 H 0.71075 0.19873 0.26476 0.0
H247 H 0.77731 0.28425 0.2583 0.0
H248 H 0.75304 0.20757 0.23994 0.0
H249 H 0.45653 0.4087 0.27921 0.0
H250 H 0.44984 0.49033 0.26074 0.0
H251 H 0.53794 0.48449 0.27759 0.0
C252 C 0.17009 0.21262 0.17906 0.0
C253 C 0.24626 0.17125 0.17622 0.0
C254 C 0.11567 0.18829 0.19445 0.0
C255 C 0.13905 0.12208 0.20728 0.0
C256 C 0.20731 0.07105 0.20208 0.0
C257 C 0.26028 0.09609 0.18644 0.0
C258 C 0.04062 0.24156 0.19887 0.0
C259 C 0.23201 -0.00253 0.21485 0.0
C260 C 0.1246 0.17955 0.26158 0.0
C261 C 0.05342 0.13612 0.26799 0.0
C262 C 0.15362 0.17349 0.242 0.0
C263 C 0.11013 0.12286 0.22832 0.0
C264 C 0.0392 0.07721 0.23474 0.0
C265 C 0.01156 0.08441 0.25457 0.0
C266 C 0.23034 0.22276 0.23591 0.0
C267 C 0.99063 0.02318 0.22065 0.0
H268 H 0.15713 0.26918 0.17076 0.0
H269 H 0.31756 0.06185 0.18391 0.0
H270 H 0.98866 0.20426 0.20529 0.0
H271 H 0.0585 0.28907 0.2099 0.0
H272 H 0.01779 0.27392 0.18523 0.0
H273 H 0.27184 0.95364 0.20646 0.0
H274 H 0.26822 0.01932 0.2279 0.0
H275 H 0.176 0.96407 0.22055 0.0
H276 H 0.15788 0.21887 0.27189 0.0
H277 H 0.95619 0.05088 0.2594 0.0
H278 H 0.21372 0.26825 0.22401 0.0
H279 H 0.27883 0.18099 0.22982 0.0
H280 H 0.25813 0.25699 0.24857 0.0
H281 H 0.94587 0.06218 0.21206 0.0
H282 H 0.95417 0.97504 0.22886 0.0
H283 H 0.03241 -0.00757 0.20981 0.0
C284 C 0.00821 0.89143 0.73534 0.0
C285 C 0.05004 0.84138 0.72158 0.0
C286 C 0.03689 0.89763 0.75511 0.0
C287 C 0.10883 0.85267 0.7611 0.0
C288 C 0.15236 0.80393 0.74706 0.0
C289 C 0.1223 0.79884 0.72756 0.0
C290 C 0.98828 0.94978 0.76958 0.0
C291 C 0.23012 0.75548 0.75267 0.0
C292 C 0.26069 0.87704 0.80271 0.0
C293 C 0.24766 0.80093 0.8126 0.0
C294 C 0.20671 0.90305 0.78737 0.0
C295 C 0.13865 0.85181 0.78207 0.0
C296 C 0.1165 0.78408 0.79457 0.0
C297 C 0.17178 0.75895 0.8097 0.0
C298 C 0.22991 0.97825 0.77499 0.0
C299 C 0.04166 0.73056 0.79002 0.0
H300 H 0.95206 0.92431 0.73083 0.0
H301 H 0.15562 0.76091 0.71696 0.0
H302 H 0.94277 0.90983 0.7777 0.0
H303 H 0.0298 0.97869 0.78078 0.0
H304 H 0.95253 -0.00074 0.76169 0.0
H305 H 0.2577 0.72273 0.73977 0.0
H306 H 0.27834 0.79755 0.7588 0.0
H307 H 0.21484 0.70879 0.76441 0.0
H308 H 0.31774 0.91167 0.80531 0.0
H309 H 0.15957 0.70158 0.81774 0.0
H310 H 0.17319 0.01158 0.76973 0.0
H311 H 0.26542 0.9583 0.76165 0.0
H312 H 0.26989 0.02157 0.78351 0.0
H313 H 0.98809 0.76871 0.78482 0.0
H314 H 0.02179 0.69365 0.80327 0.0
H315 H 0.05813 0.68709 0.77795 0.0
C316 C 0.57274 0.92032 0.952 0.0
C317 C 0.53338 0.8446 0.95636 0.0
C318 C 0.57121 0.985 0.96563 0.0
C319 C 0.53073 0.97281 0.98419 0.0
C320 C 0.49092 0.8964 0.98871 0.0
C321 C 0.49197 0.8332 0.97458 0.0
C322 C 0.6133 0.06608 0.96022 0.0
C323 C 0.44814 0.88119 0.00851 0.0
C324 C 0.60075 0.10218 0.0276 0.0
C325 C 0.53557 0.16006 0.02893 0.0
C326 C 0.60021 0.04141 0.01295 0.0
C327 C 0.5332 0.03885 -0.00078 0.0
C328 C 0.46867 0.09864 -2e-05 0.0
C329 C 0.47052 0.15865 0.01489 0.0
C330 C 0.67036 0.97875 0.01248 0.0
C331 C 0.39687 0.09805 0.98533 0.0
H332 H 0.60345 0.92963 0.93771 0.0
H333 H 0.46156 0.77455 0.97788 0.0
H334 H 0.56847 0.11803 0.96174 0.0
H335 H 0.66586 0.07771 0.97064 0.0
H336 H 0.63808 0.06675 0.94473 0.0
H337 H 0.41927 0.81867 0.00956 0.0
H338 H 0.49405 0.88743 0.02082 0.0
H339 H 0.39874 0.92831 0.01083 0.0
H340 H 0.65146 0.10276 0.03834 0.0
H341 H 0.42021 0.20342 0.01575 0.0
H342 H 0.70098 0.97985 -0.00238 0.0
H343 H 0.64473 0.91553 0.0149 0.0
H344 H 0.71867 -0.0096 0.02403 0.0
H345 H 0.42104 0.10013 0.96981 0.0
H346 H 0.35367 0.1511 0.98741 0.0
H347 H 0.36077 0.03971 0.98711 0.0
C348 C 0.22781 0.03818 0.45101 0.0
C349 C 0.15813 -0.00336 0.44303 0.0
C350 C 0.24507 0.03447 0.47152 0.0
C351 C 0.19428 0.98458 0.48405 0.0
C352 C 0.1343 0.93089 0.47547 0.0
C353 C 0.11622 0.93819 0.45503 0.0
C354 C 0.31021 0.09221 0.47987 0.0
C355 C 0.08257 0.8724 0.48822 0.0
C356 C 0.2258 0.94429 0.53915 0.0
C357 C 0.15513 0.98487 0.5469 0.0
C358 C 0.24421 0.94816 0.5187 0.0
C359 C 0.19352 -0.00275 0.50599 0.0
C360 C 0.1324 0.05015 0.51436 0.0
C361 C 0.11324 0.04271 0.53475 0.0
C362 C 0.31061 0.89139 0.51057 0.0
C363 C 0.08073 0.10786 0.50143 0.0
H364 H 0.26225 0.08239 0.44187 0.0
H365 H 0.06365 0.90436 0.44893 0.0
H366 H 0.27923 0.15051 0.48439 0.0
H367 H 0.34137 0.06532 0.49324 0.0
H368 H 0.35864 0.10806 0.46854 0.0
H369 H 0.04954 0.82561 0.4791 0.0
H370 H 0.12257 0.83971 0.49932 0.0
H371 H 0.03503 0.90822 0.49653 0.0
H372 H 0.26029 0.90065 0.54842 0.0
H373 H 0.05993 0.07588 0.54067 0.0
H374 H 0.34245 0.91892 0.49736 0.0
H375 H 0.28064 0.83279 0.50586 0.0
H376 H 0.35837 0.87597 0.52208 0.0
H377 H 0.121 0.14113 0.49047 0.0
H378 H 0.04652 0.15417 0.51043 0.0
H379 H 0.03421 0.07134 0.49295 0.0
C380 C 0.89142 0.8257 0.36143 0.0
C381 C 0.95754 0.87904 0.36616 0.0
C382 C 0.90103 0.73965 0.36294 0.0
C383 C 0.97937 0.70655 0.36877 0.0
C384 C 0.04539 0.76024 0.37426 0.0
C385 C 0.03323 0.84614 0.37316 0.0
C386 C 0.82826 0.68428 0.3577 0.0
C387 C 0.13014 0.72708 0.38033 0.0
C388 C -0.00112 0.48493 0.38688 0.0
C389 C 0.0264 0.44518 0.36964 0.0
C390 C 0.98076 0.56955 0.38665 0.0
C391 C 0.9928 0.61575 0.36883 0.0
C392 C 0.01958 0.57552 0.35124 0.0
C393 C 0.03498 0.48986 0.35178 0.0
C394 C 0.94989 0.60955 0.40552 0.0
C395 C 0.0345 0.6234 0.33207 0.0
H396 H 0.83276 0.85137 0.35607 0.0
H397 H 0.08467 0.88745 0.37657 0.0
H398 H 0.84295 0.64944 0.344 0.0
H399 H 0.8172 0.63813 0.36983 0.0
H400 H 0.76966 0.71983 0.35513 0.0
H401 H 0.17426 0.77712 0.38453 0.0
H402 H 0.1238 0.68339 0.39315 0.0
H403 H 0.15774 0.69208 0.36781 0.0
H404 H 0.99174 0.44947 0.40065 0.0
H405 H 0.05664 0.45852 0.33855 0.0
H406 H 0.89061 0.64328 0.40255 0.0
H407 H -0.00372 0.65561 0.41072 0.0
H408 H 0.939 0.56366 0.41775 0.0
H409 H 0.97643 0.65579 0.32738 0.0
H410 H 0.05524 0.58289 0.31976 0.0
H411 H 0.083 0.67148 0.33449 0.0
C412 C 0.309 0.86117 0.61856 0.0
C413 C 0.27998 0.79623 0.63083 0.0
C414 C 0.39451 0.87107 0.61463 0.0
C415 C 0.45211 0.81354 0.62281 0.0
C416 C 0.42324 0.74785 0.63524 0.0
C417 C 0.33736 0.74041 0.63926 0.0
C418 C 0.42312 0.94299 0.60169 0.0
C419 C 0.48273 0.68434 0.6439 0.0
C420 C 0.65982 0.79239 0.5961 0.0
C421 C 0.71371 0.83438 0.60894 0.0
C422 C 0.57455 0.78414 0.6006 0.0
C423 C 0.54244 0.82118 0.61802 0.0
C424 C 0.59654 0.86553 0.63078 0.0
C425 C 0.68207 0.87049 0.62623 0.0
C426 C 0.51912 0.73486 0.58689 0.0
C427 C 0.56404 0.90929 0.64896 0.0
H428 H 0.26478 0.90498 0.61218 0.0
H429 H 0.315 0.68985 0.64865 0.0
H430 H 0.46995 0.98041 0.60983 0.0
H431 H 0.4541 0.91975 0.58806 0.0
H432 H 0.37048 0.98392 0.59711 0.0
H433 H 0.45219 0.64373 0.65526 0.0
H434 H 0.50704 0.64509 0.63174 0.0
H435 H 0.5372 0.71513 0.65083 0.0
H436 H 0.68497 0.76382 0.58283 0.0
H437 H 0.72409 0.90371 0.63599 0.0
H438 H 0.46828 0.77467 0.58087 0.0
H439 H 0.48907 0.68335 0.59536 0.0
H440 H 0.55436 0.70855 0.57417 0.0
H441 H 0.52949 0.96563 0.64413 0.0
H442 H 0.61542 0.92822 0.65911 0.0
H443 H 0.51957 0.86952 0.65741 0.0
C444 C 0.38784 0.326 0.86281 0.0
C445 C 0.45546 0.37894 0.86648 0.0
C446 C 0.39718 0.23991 0.86432 0.0
C447 C 0.47674 0.20641 0.86894 0.0
C448 C 0.54453 0.25977 0.87332 0.0
C449 C 0.53264 0.34571 0.87234 0.0
C450 C 0.32267 0.18489 0.86038 0.0
C451 C 0.63065 0.22622 0.878 0.0
C452 C 0.50152 0.98535 0.88701 0.0
C453 C 0.52399 0.94512 0.86941 0.0
C454 C 0.48315 0.06987 0.88695 0.0
C455 C 0.48965 0.11555 0.86889 0.0
C456 C 0.51107 0.07483 0.85095 0.0
C457 C 0.52684 -0.01078 0.85138 0.0
C458 C 0.45812 0.11033 0.90625 0.0
C459 C 0.52021 0.12218 0.83151 0.0
H460 H 0.32811 0.35204 0.85829 0.0
H461 H 0.58519 0.3868 0.87488 0.0
H462 H 0.33296 0.14978 0.84649 0.0
H463 H 0.31496 0.13898 0.87271 0.0
H464 H 0.2637 0.22077 0.85878 0.0
H465 H 0.6763 0.27611 0.88132 0.0
H466 H 0.62786 0.18308 0.89099 0.0
H467 H 0.65414 0.19055 0.86512 0.0
H468 H 0.49859 0.95036 0.90093 0.0
H469 H 0.54452 0.95753 0.83786 0.0
H470 H 0.39832 0.14434 0.90425 0.0
H471 H 0.50622 0.15617 0.91064 0.0
H472 H 0.4506 0.06467 0.91868 0.0
H473 H 0.46098 0.15461 0.82779 0.0
H474 H 0.53699 0.0813 0.81893 0.0
H475 H 0.56949 0.17018 0.83301 0.0
C476 C 0.18184 0.36838 0.12611 0.0
C477 C 0.21388 0.33396 0.10866 0.0
C478 C 0.09627 0.3626 0.13057 0.0
C479 C 0.04257 0.31909 0.11755 0.0
C480 C 0.07511 0.28375 0.09996 0.0
C481 C 0.16039 0.29283 0.09557 0.0
C482 C 0.06332 0.40476 0.14893 0.0
C483 C 0.02013 0.23542 0.08595 0.0
C484 C 0.83765 0.23565 0.13828 0.0
C485 C 0.78011 0.292 0.13012 0.0
C486 C 0.92352 0.24373 0.13431 0.0
C487 C 0.95221 0.31059 0.12222 0.0
C488 C 0.89444 0.36854 0.11429 0.0
C489 C 0.80894 0.35801 0.11816 0.0
C490 C 0.98325 0.17979 0.14267 0.0
C491 C 0.92285 0.44166 0.10173 0.0
H492 H 0.22357 0.40096 0.13607 0.0
H493 H 0.18587 0.26557 0.08218 0.0
H494 H 0.02971 0.462 0.14434 0.0
H495 H 0.01795 0.36471 0.15702 0.0
H496 H 0.1144 0.42204 0.15933 0.0
H497 H 0.0557 0.21041 0.07313 0.0
H498 H 0.99021 0.18306 0.09414 0.0
H499 H 0.96919 0.27549 0.08009 0.0
H500 H 0.81543 0.18429 0.14741 0.0
H501 H 0.76461 0.40222 0.11199 0.0
H502 H 0.03702 0.21029 0.14998 0.0
H503 H 0.00863 0.14233 0.13031 0.0
H504 H 0.9526 0.1375 0.15366 0.0
H505 H 0.96915 0.47876 0.11013 0.0
H506 H 0.87002 0.48255 0.09725 0.0
H507 H 0.95442 0.41977 0.08804 0.0
C508 C 0.0314 0.134 0.61786 0.0
C509 C 0.95425 0.10079 0.62381 0.0
C510 C 0.04341 0.21993 0.6168 0.0
C511 C 0.97574 0.27333 0.62117 0.0
C512 C 0.89626 0.23983 0.62596 0.0
C513 C 0.88683 0.15374 0.62756 0.0
C514 C 0.12945 0.25347 0.61197 0.0
C515 C 0.82186 0.29486 0.6299 0.0
C516 C 0.02574 0.49168 0.63798 0.0
C517 C 0.02261 0.5348 0.61981 0.0
C518 C 0.01026 0.40602 0.6387 0.0
C519 C 0.9886 0.36423 0.62092 0.0
C520 C 0.98179 0.40889 0.60273 0.0
C521 C 0.00015 0.49348 0.60236 0.0
C522 C 0.01984 0.35979 0.65828 0.0
C523 C 0.95618 0.36728 0.58361 0.0
H524 H 0.08381 0.09291 0.61526 0.0
H525 H 0.82714 0.12771 0.63215 0.0
H526 H 0.12653 0.29569 0.59881 0.0
H527 H 0.15294 0.29015 0.62469 0.0
H528 H 0.17519 0.20352 0.60884 0.0
H529 H 0.76295 0.25891 0.63171 0.0
H530 H 0.83259 0.33068 0.64366 0.0
H531 H 0.81373 0.34016 0.61746 0.0
H532 H 0.04333 0.52424 0.65139 0.0
H533 H -0.00311 0.52771 0.58833 0.0
H534 H 0.06902 0.31173 0.65687 0.0
H535 H 0.96066 0.32752 0.6622 0.0
H536 H 0.03698 0.40141 0.6707 0.0
H537 H 0.00399 0.32107 0.57933 0.0
H538 H 0.94851 0.4122 0.57103 0.0
H539 H 0.8963 0.3335 0.58582 0.0
C540 C 0.83946 0.73814 0.85002 0.0
C541 C 0.78209 0.68276 0.85868 0.0
C542 C 0.92536 0.73095 0.85401 0.0
C543 C 0.95425 0.66599 0.86664 0.0
C544 C 0.89669 0.60883 0.87503 0.0
C545 C 0.81116 0.61846 0.87112 0.0
C546 C 0.98483 0.79404 0.84511 0.0
C547 C 0.92534 0.5377 0.88819 0.0
C548 C 0.18416 0.60911 0.8635 0.0
C549 C 0.21569 0.64638 0.88066 0.0
C550 C 0.09869 0.61373 0.85889 0.0
C551 C 0.04455 0.65887 0.87146 0.0
C552 C 0.07656 0.69709 0.88875 0.0
C553 C 0.16177 0.68921 0.89331 0.0
C554 C 0.06631 0.56873 0.84087 0.0
C555 C 0.02106 0.74717 0.90225 0.0
H556 H 0.81707 0.7882 0.84051 0.0
H557 H 0.76696 0.57497 0.87768 0.0
H558 H 0.00862 0.83453 0.8571 0.0
H559 H 0.03962 0.76298 0.83842 0.0
H560 H 0.95441 0.83345 0.8335 0.0
H561 H 0.87273 0.49686 0.8929 0.0
H562 H 0.97223 0.49996 0.88017 0.0
H563 H 0.95627 0.56178 0.90175 0.0
H564 H 0.22622 0.57526 0.85389 0.0
H565 H 0.18684 0.71867 0.90647 0.0
H566 H 0.02127 0.60753 0.83236 0.0
H567 H 0.03247 0.51218 0.8459 0.0
H568 H 0.11771 0.54993 0.83073 0.0
H569 H 0.99105 0.79806 0.89358 0.0
H570 H 0.05624 0.77438 0.91487 0.0
H571 H 0.9702 0.70764 0.90841 0.0
C572 C 0.53733 0.6314 0.12127 0.0
C573 C 0.4577 0.5978 0.12454 0.0
C574 C 0.54906 0.71732 0.12034 0.0
C575 C 0.47886 0.7703 0.12195 0.0
C576 C 0.39767 0.73628 0.12424 0.0
C577 C 0.38827 0.65016 0.12596 0.0
C578 C 0.63683 0.75138 0.11838 0.0
C579 C 0.32104 0.79077 0.12511 0.0
C580 C 0.51636 -0.00688 0.13722 0.0
C581 C 0.52442 0.0319 0.11856 0.0
C582 C 0.50107 0.90752 0.13862 0.0
C583 C 0.49072 0.86129 0.12093 0.0
C584 C 0.4951 0.90145 0.1021 0.0
C585 C 0.51327 0.98602 0.10115 0.0
C586 C 0.49874 0.86614 0.15893 0.0
C587 C 0.48139 0.85505 0.08294 0.0
H588 H 0.59108 0.59056 0.12057 0.0
H589 H 0.3268 0.62363 0.12859 0.0
H590 H 0.64238 0.78964 0.10458 0.0
H591 H 0.65078 0.79221 0.13115 0.0
H592 H 0.68478 0.70167 0.11793 0.0
H593 H 0.26211 0.75422 0.12555 0.0
H594 H 0.32361 0.8299 0.13856 0.0
H595 H 0.31933 0.83307 0.11193 0.0
H596 H 0.52484 0.02908 0.15061 0.0
H597 H 0.51799 0.01672 0.0867 0.0
H598 H 0.54899 0.81888 0.15999 0.0
H599 H 0.43829 0.8335 0.16114 0.0
H600 H 0.50714 0.91101 0.17119 0.0
H601 H 0.53199 0.80899 0.08089 0.0
H602 H 0.4803 0.89694 0.06965 0.0
H603 H 0.42136 0.82048 0.08363 0.0
C604 C 0.66435 0.18768 0.39342 0.0
C605 C 0.71793 0.14544 0.38057 0.0
C606 C 0.57906 0.19588 0.38898 0.0
C607 C 0.54665 0.1586 0.37162 0.0
C608 C 0.60045 0.11397 0.35886 0.0
C609 C 0.68601 0.10903 0.36335 0.0
C610 C 0.52392 0.24533 0.40271 0.0
C611 C 0.56764 0.0699 0.34075 0.0
C612 C 0.31313 0.11896 0.37115 0.0
C613 C 0.2843 0.18398 0.35891 0.0
C614 C 0.39862 0.10894 0.37506 0.0
C615 C 0.45636 0.16642 0.36687 0.0
C616 C 0.42767 0.23227 0.35448 0.0
C617 C 0.34181 0.23984 0.35049 0.0
C618 C 0.42705 0.037 0.388 0.0
C619 C 0.48719 0.29604 0.34589 0.0
H620 H 0.68975 0.21644 0.40663 0.0
H621 H 0.72782 0.07558 0.35359 0.0
H622 H 0.49428 0.29704 0.39424 0.0
H623 H 0.47278 0.20573 0.4087 0.0
H624 H 0.55931 0.27139 0.41544 0.0
H625 H 0.61878 0.05194 0.33044 0.0
H626 H 0.53427 0.01289 0.34565 0.0
H627 H 0.52212 0.10893 0.33245 0.0
H628 H 0.2688 0.07516 0.37753 0.0
H629 H 0.31956 0.29053 0.34116 0.0
H630 H 0.45849 0.06021 0.40157 0.0
H631 H 0.47345 -0.00068 0.37981 0.0
H632 H 0.37425 -0.00368 0.39266 0.0
H633 H 0.50825 0.33757 0.35796 0.0
H634 H 0.45756 0.33437 0.33396 0.0
H635 H 0.54364 0.266 0.33972 0.0
loop_
_geom_bond_atom_site_label_1
_geom_bond_atom_site_label_2
_geom_bond_distance
_geom_bond_site_symmetry_2
_ccdc_geom_bond_type
C0 O27 1.312 . S
C0 O28 1.208 . S
C1 O22 1.331 . S
C1 O25 1.244 . S
C2 O24 1.264 . S
C2 O26 1.273 . S
Mg3 O5 1.936 1_455 S
Mg3 O12 2.081 1_455 S
Mg3 O14 2.023 . S
Mg3 O18 2.031 . S
Mg3 O27 2.291 . S
Mg4 O5 1.963 . S
Mg4 O15 1.942 . S
Mg4 O16 1.955 . S
Mg4 O23 1.986 . S
O5 Mg3 1.936 1_655 S
O5 Mg4 1.963 . S
O5 Mg6 1.915 . S
Mg6 O5 1.915 . S
Mg6 O7 1.915 1_655 S
Mg6 O11 2.013 . S
Mg6 O17 2.114 1_655 S
Mg6 O21 2.013 . S
Mg6 O27 2.114 1_655 S
O7 Mg6 1.915 1_455 S
O7 Mg8 1.936 . S
O7 Mg9 1.963 1_455 S
Mg8 O7 1.936 . S
Mg8 O17 2.291 . S
Mg8 O22 2.081 . S
Mg8 O24 2.023 1_455 S
Mg8 O28 2.031 . S
Mg9 O7 1.963 1_655 S
Mg9 O13 1.986 . S
Mg9 O25 1.942 1_655 S
Mg9 O26 1.955 . S
C10 O21 1.191 . S
C10 O23 1.307 . S
O11 Mg6 2.013 . S
O11 C30 1.191 . S
O12 Mg3 2.081 1_655 S
O12 C20 1.331 . S
O13 Mg9 1.986 . S
O13 C30 1.307 . S
O14 Mg3 2.023 . S
O14 C29 1.264 . S
O15 Mg4 1.942 . S
O15 C20 1.244 . S
O16 Mg4 1.955 . S
O16 C29 1.273 1_655 S
O17 Mg6 2.114 1_455 S
O17 Mg8 2.291 . S
O17 C19 1.312 . S
O18 Mg3 2.031 . S
O18 C19 1.208 . S
C19 O17 1.312 . S
C19 O18 1.208 . S
C20 O12 1.331 . S
C20 O15 1.244 . S
O21 Mg6 2.013 . S
O21 C10 1.191 . S
O22 C1 1.331 . S
O22 Mg8 2.081 . S
O23 Mg4 1.986 . S
O23 C10 1.307 . S
O24 C2 1.264 . S
O24 Mg8 2.023 1_655 S
O25 C1 1.244 . S
O25 Mg9 1.942 1_455 S
O26 C2 1.273 . S
O26 Mg9 1.955 . S
O27 C0 1.312 . S
O27 Mg3 2.291 . S
O27 Mg6 2.114 1_455 S
O28 C0 1.208 . S
O28 Mg8 2.031 . S
C29 O14 1.264 . S
C29 O16 1.273 1_455 S
C30 O11 1.191 . S
C30 O13 1.307 . S
C31 O58 1.312 . S
C31 O59 1.208 . S
C32 O53 1.331 . S
C32 O56 1.244 . S
C33 O55 1.264 . S
C33 O57 1.273 . S
Mg34 O36 1.936 1_455 S
Mg34 O43 2.081 1_455 S
Mg34 O45 2.023 . S
Mg34 O49 2.031 . S
Mg34 O58 2.291 . S
Mg35 O36 1.963 . S
Mg35 O46 1.942 . S
Mg35 O47 1.955 . S
Mg35 O54 1.986 . S
O36 Mg34 1.936 1_655 S
O36 Mg35 1.963 . S
O36 Mg37 1.915 . S
Mg37 O36 1.915 . S
Mg37 O38 1.915 1_655 S
Mg37 O42 2.013 . S
Mg37 O48 2.114 1_655 S
Mg37 O52 2.013 . S
Mg37 O58 2.114 1_655 S
O38 Mg37 1.915 1_455 S
O38 Mg39 1.936 . S
O38 Mg40 1.963 1_455 S
Mg39 O38 1.936 . S
Mg39 O48 2.291 . S
Mg39 O53 2.081 . S
Mg39 O55 2.023 1_455 S
Mg39 O59 2.031 . S
Mg40 O38 1.963 1_655 S
Mg40 O44 1.986 . S
Mg40 O56 1.942 1_655 S
Mg40 O57 1.955 . S
C41 O52 1.191 . S
C41 O54 1.307 . S
O42 Mg37 2.013 . S
O42 C61 1.191 . S
O43 Mg34 2.081 1_655 S
O43 C51 1.331 . S
O44 Mg40 1.986 . S
O44 C61 1.307 . S
O45 Mg34 2.023 . S
O45 C60 1.264 . S
O46 Mg35 1.942 . S
O46 C51 1.244 . S
O47 Mg35 1.955 . S
O47 C60 1.273 1_655 S
O48 Mg37 2.114 1_455 S
O48 Mg39 2.291 . S
O48 C50 1.312 . S
O49 Mg34 2.031 . S
O49 C50 1.208 . S
C50 O48 1.312 . S
C50 O49 1.208 . S
C51 O43 1.331 . S
C51 O46 1.244 . S
O52 Mg37 2.013 . S
O52 C41 1.191 . S
O53 C32 1.331 . S
O53 Mg39 2.081 . S
O54 Mg35 1.986 . S
O54 C41 1.307 . S
O55 C33 1.264 . S
O55 Mg39 2.023 1_655 S
O56 C32 1.244 . S
O56 Mg40 1.942 1_455 S
O57 C33 1.273 . S
O57 Mg40 1.955 . S
O58 C31 1.312 . S
O58 Mg34 2.291 . S
O58 Mg37 2.114 1_455 S
O59 C31 1.208 . S
O59 Mg39 2.031 . S
C60 O45 1.264 . S
C60 O47 1.273 1_455 S
C61 O42 1.191 . S
C61 O44 1.307 . S
C62 O89 1.312 . S
C62 O90 1.208 . S
C63 O84 1.331 . S
C63 O87 1.244 . S
C64 O86 1.264 . S
C64 O88 1.273 . S
Mg65 O67 1.936 . S
Mg65 O74 2.081 . S
Mg65 O76 2.023 . S
Mg65 O80 2.031 . S
Mg65 O89 2.291 . S
Mg66 O67 1.963 . S
Mg66 O77 1.942 . S
Mg66 O78 1.955 . S
Mg66 O85 1.986 . S
O67 Mg65 1.936 . S
O67 Mg66 1.963 . S
O67 Mg68 1.915 . S
Mg68 O67 1.915 . S
Mg68 O69 1.915 . S
Mg68 O73 2.013 . S
Mg68 O79 2.114 . S
Mg68 O83 2.013 . S
Mg68 O89 2.114 . S
O69 Mg68 1.915 . S
O69 Mg70 1.936 . S
O69 Mg71 1.963 . S
Mg70 O69 1.936 . S
Mg70 O79 2.291 . S
Mg70 O84 2.081 . S
Mg70 O86 2.023 . S
Mg70 O90 2.031 . S
Mg71 O69 1.963 . S
Mg71 O75 1.986 . S
Mg71 O87 1.942 . S
Mg71 O88 1.955 . S
C72 O83 1.191 . S
C72 O85 1.307 . S
O73 Mg68 2.013 . S
O73 C92 1.191 . S
O74 Mg65 2.081 . S
O74 C82 1.331 . S
O75 Mg71 1.986 . S
O75 C92 1.307 . S
O76 Mg65 2.023 . S
O76 C91 1.264 . S
O77 Mg66 1.942 . S
O77 C82 1.244 . S
O78 Mg66 1.955 . S
O78 C91 1.273 . S
O79 Mg68 2.114 . S
O79 Mg70 2.291 . S
O79 C81 1.312 . S
O80 Mg65 2.031 . S
O80 C81 1.208 . S
C81 O79 1.312 . S
C81 O80 1.208 . S
C82 O74 1.331 . S
C82 O77 1.244 . S
O83 Mg68 2.013 . S
O83 C72 1.191 . S
O84 C63 1.331 . S
O84 Mg70 2.081 . S
O85 Mg66 1.986 . S
O85 C72 1.307 . S
O86 C64 1.264 . S
O86 Mg70 2.023 . S
O87 C63 1.244 . S
O87 Mg71 1.942 . S
O88 C64 1.273 . S
O88 Mg71 1.955 . S
O89 C62 1.312 . S
O89 Mg65 2.291 . S
O89 Mg68 2.114 . S
O90 C62 1.208 . S
O90 Mg70 2.031 . S
C91 O76 1.264 . S
C91 O78 1.273 . S
C92 O73 1.191 . S
C92 O75 1.307 . S
C93 O120 1.312 . S
C93 O121 1.208 . S
C94 O115 1.331 . S
C94 O118 1.244 . S
C95 O117 1.264 . S
C95 O119 1.273 . S
Mg96 O98 1.936 . S
Mg96 O105 2.081 . S
Mg96 O107 2.023 . S
Mg96 O111 2.031 . S
Mg96 O120 2.291 . S
Mg97 O98 1.963 . S
Mg97 O108 1.942 . S
Mg97 O109 1.955 . S
Mg97 O116 1.986 . S
O98 Mg96 1.936 . S
O98 Mg97 1.963 . S
O98 Mg99 1.915 . S
Mg99 O98 1.915 . S
Mg99 O100 1.915 . S
Mg99 O104 2.013 . S
Mg99 O110 2.114 . S
Mg99 O114 2.013 . S
Mg99 O120 2.114 . S
O100 Mg99 1.915 . S
O100 Mg101 1.936 . S
O100 Mg102 1.963 . S
Mg101 O100 1.936 . S
Mg101 O110 2.291 . S
Mg101 O115 2.081 . S
Mg101 O117 2.023 . S
Mg101 O121 2.031 . S
Mg102 O100 1.963 . S
Mg102 O106 1.986 . S
Mg102 O118 1.942 . S
Mg102 O119 1.955 . S
C103 O114 1.191 . S
C103 O116 1.307 . S
O104 Mg99 2.013 . S
O104 C123 1.191 . S
O105 Mg96 2.081 . S
O105 C113 1.331 . S
O106 Mg102 1.986 . S
O106 C123 1.307 . S
O107 Mg96 2.023 . S
O107 C122 1.264 . S
O108 Mg97 1.942 . S
O108 C113 1.244 . S
O109 Mg97 1.955 . S
O109 C122 1.273 . S
O110 Mg99 2.114 . S
O110 Mg101 2.291 . S
O110 C112 1.312 . S
O111 Mg96 2.031 . S
O111 C112 1.208 . S
C112 O110 1.312 . S
C112 O111 1.208 . S
C113 O105 1.331 . S
C113 O108 1.244 . S
O114 Mg99 2.013 . S
O114 C103 1.191 . S
O115 C94 1.331 . S
O115 Mg101 2.081 . S
O116 Mg97 1.986 . S
O116 C103 1.307 . S
O117 C95 1.264 . S
O117 Mg101 2.023 . S
O118 C94 1.244 . S
O118 Mg102 1.942 . S
O119 C95 1.273 . S
O119 Mg102 1.955 . S
O120 C93 1.312 . S
O120 Mg96 2.291 . S
O120 Mg99 2.114 . S
O121 C93 1.208 . S
O121 Mg101 2.031 . S
C122 O107 1.264 . S
C122 O109 1.273 . S
C123 O104 1.191 . S
C123 O106 1.307 . S
C124 C125 1.391 . S
C124 C126 1.394 . S
C124 H140 0.931 1_655 S
C125 C124 1.391 . S
C125 C129 1.376 . S
C126 C124 1.394 . S
C126 C127 1.369 . S
C126 C130 1.531 1_655 S
C127 C126 1.369 . S
C127 C128 1.410 . S
C127 C135 1.503 . S
C128 C127 1.410 . S
C128 C129 1.392 . S
C128 C131 1.511 . S
C129 C125 1.376 . S
C129 C128 1.392 . S
C129 H141 0.929 . S
C130 C126 1.531 1_455 S
C130 H142 0.960 . S
C130 H143 0.962 . S
C130 H144 0.960 . S
C131 C128 1.511 . S
C131 H145 0.961 . S
C131 H146 0.961 . S
C131 H147 0.961 . S
C132 C133 1.370 . S
C132 C134 1.363 . S
C132 H148 0.931 . S
C133 C132 1.370 . S
C133 C137 1.408 . S
C134 C132 1.363 . S
C134 C135 1.370 . S
C134 C138 1.524 . S
C135 C127 1.503 . S
C135 C134 1.370 . S
C135 C136 1.403 . S
C136 C135 1.403 . S
C136 C137 1.404 . S
C136 C139 1.539 . S
C137 C133 1.408 . S
C137 C136 1.404 . S
C137 H149 0.930 . S
C138 C134 1.524 . S
C138 H150 0.956 . S
C138 H151 0.961 . S
C138 H152 0.961 . S
C139 C136 1.539 . S
C139 H153 0.958 . S
C139 H154 0.961 . S
C139 H155 0.960 . S
H140 C124 0.931 1_455 S
H141 C129 0.929 . S
H142 C130 0.960 . S
H143 C130 0.962 . S
H144 C130 0.960 . S
H145 C131 0.961 . S
H146 C131 0.961 . S
H147 C131 0.961 . S
H148 C132 0.931 . S
H149 C137 0.930 . S
H150 C138 0.956 . S
H151 C138 0.961 . S
H152 C138 0.961 . S
H153 C139 0.958 . S
H154 C139 0.961 . S
H155 C139 0.960 . S
C156 C157 1.391 . S
C156 C158 1.394 . S
C156 H172 0.931 . S
C157 C156 1.391 . S
C157 C161 1.376 . S
C158 C156 1.394 . S
C158 C159 1.369 . S
C158 C162 1.531 . S
C159 C158 1.369 . S
C159 C160 1.410 . S
C159 C167 1.503 . S
C160 C159 1.410 . S
C160 C161 1.392 . S
C160 C163 1.511 . S
C161 C157 1.376 . S
C161 C160 1.392 . S
C161 H173 0.929 . S
C162 C158 1.531 . S
C162 H174 0.960 . S
C162 H175 0.962 . S
C162 H176 0.960 . S
C163 C160 1.511 . S
C163 H177 0.961 . S
C163 H178 0.961 . S
C163 H179 0.961 . S
C164 C165 1.370 . S
C164 C166 1.363 . S
C164 H180 0.931 . S
C165 C164 1.370 . S
C165 C169 1.408 . S
C166 C164 1.363 . S
C166 C167 1.370 . S
C166 C170 1.524 . S
C167 C159 1.503 . S
C167 C166 1.370 . S
C167 C168 1.403 . S
C168 C167 1.403 . S
C168 C169 1.404 . S
C168 C171 1.539 . S
C169 C165 1.408 . S
C169 C168 1.404 . S
C169 H181 0.930 . S
C170 C166 1.524 . S
C170 H182 0.956 . S
C170 H183 0.961 . S
C170 H184 0.961 . S
C171 C168 1.539 . S
C171 H185 0.958 . S
C171 H186 0.961 . S
C171 H187 0.960 . S
H172 C156 0.931 . S
H173 C161 0.929 . S
H174 C162 0.960 . S
H175 C162 0.962 . S
H176 C162 0.960 . S
H177 C163 0.961 . S
H178 C163 0.961 . S
H179 C163 0.961 . S
H180 C164 0.931 . S
H181 C169 0.930 . S
H182 C170 0.956 . S
H183 C170 0.961 . S
H184 C170 0.961 . S
H185 C171 0.958 . S
H186 C171 0.961 . S
H187 C171 0.960 . S
C188 C189 1.391 . S
C188 C190 1.394 . S
C188 H204 0.931 . S
C189 C188 1.391 . S
C189 C193 1.376 . S
C190 C188 1.394 . S
C190 C191 1.369 . S
C190 C194 1.531 . S
C191 C190 1.369 . S
C191 C192 1.410 . S
C191 C199 1.503 1_556 S
C192 C191 1.410 . S
C192 C193 1.392 . S
C192 C195 1.511 . S
C193 C189 1.376 . S
C193 C192 1.392 . S
C193 H205 0.929 . S
C194 C190 1.531 . S
C194 H206 0.960 . S
C194 H207 0.962 . S
C194 H208 0.960 . S
C195 C192 1.511 . S
C195 H209 0.961 . S
C195 H210 0.961 1_556 S
C195 H211 0.961 . S
C196 C197 1.370 . S
C196 C198 1.363 . S
C196 H212 0.931 . S
C197 C196 1.370 . S
C197 C201 1.408 . S
C198 C196 1.363 . S
C198 C199 1.370 . S
C198 C202 1.524 . S
C199 C191 1.503 1_554 S
C199 C198 1.370 . S
C199 C200 1.403 . S
C200 C199 1.403 . S
C200 C201 1.404 . S
C200 C203 1.539 1_554 S
C201 C197 1.408 . S
C201 C200 1.404 . S
C201 H213 0.930 . S
C202 C198 1.524 . S
C202 H214 0.956 . S
C202 H215 0.961 . S
C202 H216 0.961 . S
C203 C200 1.539 1_556 S
C203 H217 0.958 . S
C203 H218 0.961 1_556 S
C203 H219 0.960 . S
H204 C188 0.931 . S
H205 C193 0.929 . S
H206 C194 0.960 . S
H207 C194 0.962 . S
H208 C194 0.960 . S
H209 C195 0.961 . S
H210 C195 0.961 1_554 S
H211 C195 0.961 . S
H212 C196 0.931 . S
H213 C201 0.930 . S
H214 C202 0.956 . S
H215 C202 0.961 . S
H216 C202 0.961 . S
H217 C203 0.958 . S
H218 C203 0.961 1_554 S
H219 C203 0.960 . S
C220 C221 1.391 . S
C220 C222 1.394 . S
C220 H236 0.931 . S
C221 C220 1.391 . S
C221 C225 1.376 . S
C222 C220 1.394 . S
C222 C223 1.369 . S
C222 C226 1.531 . S
C223 C222 1.369 . S
C223 C224 1.410 . S
C223 C231 1.503 . S
C224 C223 1.410 . S
C224 C225 1.392 . S
C224 C227 1.511 . S
C225 C221 1.376 . S
C225 C224 1.392 . S
C225 H237 0.929 . S
C226 C222 1.531 . S
C226 H238 0.960 . S
C226 H239 0.962 . S
C226 H240 0.960 . S
C227 C224 1.511 . S
C227 H241 0.961 . S
C227 H242 0.961 . S
C227 H243 0.961 . S
C228 C229 1.370 . S
C228 C230 1.363 . S
C228 H244 0.931 . S
C229 C228 1.370 . S
C229 C233 1.408 . S
C230 C228 1.363 . S
C230 C231 1.370 . S
C230 C234 1.524 . S
C231 C223 1.503 . S
C231 C230 1.370 . S
C231 C232 1.403 . S
C232 C231 1.403 . S
C232 C233 1.404 . S
C232 C235 1.539 . S
C233 C229 1.408 . S
C233 C232 1.404 . S
C233 H245 0.930 . S
C234 C230 1.524 . S
C234 H246 0.956 . S
C234 H247 0.961 . S
C234 H248 0.961 . S
C235 C232 1.539 . S
C235 H249 0.958 . S
C235 H250 0.961 . S
C235 H251 0.960 . S
H236 C220 0.931 . S
H237 C225 0.929 . S
H238 C226 0.960 . S
H239 C226 0.962 . S
H240 C226 0.960 . S
H241 C227 0.961 . S
H242 C227 0.961 . S
H243 C227 0.961 . S
H244 C228 0.931 . S
H245 C233 0.930 . S
H246 C234 0.956 . S
H247 C234 0.961 . S
H248 C234 0.961 . S
H249 C235 0.958 . S
H250 C235 0.961 . S
H251 C235 0.960 . S
C252 C253 1.391 . S
C252 C254 1.394 . S
C252 H268 0.931 . S
C253 C252 1.391 . S
C253 C257 1.376 . S
C254 C252 1.394 . S
C254 C255 1.369 . S
C254 C258 1.531 . S
C255 C254 1.369 . S
C255 C256 1.410 . S
C255 C263 1.503 . S
C256 C255 1.410 . S
C256 C257 1.392 . S
C256 C259 1.511 . S
C257 C253 1.376 . S
C257 C256 1.392 . S
C257 H269 0.929 . S
C258 C254 1.531 . S
C258 H270 0.960 . S
C258 H271 0.962 . S
C258 H272 0.960 . S
C259 C256 1.511 . S
C259 H273 0.961 . S
C259 H274 0.961 . S
C259 H275 0.961 . S
C260 C261 1.370 . S
C260 C262 1.363 . S
C260 H276 0.931 . S
C261 C260 1.370 . S
C261 C265 1.408 . S
C262 C260 1.363 . S
C262 C263 1.370 . S
C262 C266 1.524 . S
C263 C255 1.503 . S
C263 C262 1.370 . S
C263 C264 1.403 . S
C264 C263 1.403 . S
C264 C265 1.404 . S
C264 C267 1.539 1_545 S
C265 C261 1.408 . S
C265 C264 1.404 . S
C265 H277 0.930 . S
C266 C262 1.524 . S
C266 H278 0.956 . S
C266 H279 0.961 . S
C266 H280 0.961 . S
C267 C264 1.539 1_565 S
C267 H281 0.958 . S
C267 H282 0.961 . S
C267 H283 0.960 . S
H268 C252 0.931 . S
H269 C257 0.929 . S
H270 C258 0.960 . S
H271 C258 0.962 . S
H272 C258 0.960 . S
H273 C259 0.961 . S
H274 C259 0.961 . S
H275 C259 0.961 . S
H276 C260 0.931 . S
H277 C265 0.930 . S
H278 C266 0.956 . S
H279 C266 0.961 . S
H280 C266 0.961 . S
H281 C267 0.958 . S
H282 C267 0.961 . S
H283 C267 0.960 . S
C284 C285 1.391 . S
C284 C286 1.394 . S
C284 H300 0.931 . S
C285 C284 1.391 . S
C285 C289 1.376 . S
C286 C284 1.394 . S
C286 C287 1.369 . S
C286 C290 1.531 . S
C287 C286 1.369 . S
C287 C288 1.410 . S
C287 C295 1.503 . S
C288 C287 1.410 . S
C288 C289 1.392 . S
C288 C291 1.511 . S
C289 C285 1.376 . S
C289 C288 1.392 . S
C289 H301 0.929 . S
C290 C286 1.531 . S
C290 H302 0.960 . S
C290 H303 0.962 . S
C290 H304 0.960 . S
C291 C288 1.511 . S
C291 H305 0.961 . S
C291 H306 0.961 . S
C291 H307 0.961 . S
C292 C293 1.370 . S
C292 C294 1.363 . S
C292 H308 0.931 . S
C293 C292 1.370 . S
C293 C297 1.408 . S
C294 C292 1.363 . S
C294 C295 1.370 . S
C294 C298 1.524 . S
C295 C287 1.503 . S
C295 C294 1.370 . S
C295 C296 1.403 . S
C296 C295 1.403 . S
C296 C297 1.404 . S
C296 C299 1.539 . S
C297 C293 1.408 . S
C297 C296 1.404 . S
C297 H309 0.930 . S
C298 C294 1.524 . S
C298 H310 0.956 . S
C298 H311 0.961 1_565 S
C298 H312 0.961 1_565 S
C299 C296 1.539 . S
C299 H313 0.958 . S
C299 H314 0.961 . S
C299 H315 0.960 . S
H300 C284 0.931 . S
H301 C289 0.929 . S
H302 C290 0.960 . S
H303 C290 0.962 . S
H304 C290 0.960 . S
H305 C291 0.961 . S
H306 C291 0.961 . S
H307 C291 0.961 . S
H308 C292 0.931 . S
H309 C297 0.930 . S
H310 C298 0.956 . S
H311 C298 0.961 1_545 S
H312 C298 0.961 1_545 S
H313 C299 0.958 . S
H314 C299 0.961 . S
H315 C299 0.960 . S
C316 C317 1.391 . S
C316 C318 1.394 1_565 S
C316 H332 0.927 1_565 S
C317 C316 1.391 . S
C317 C321 1.376 . S
C318 C316 1.394 1_545 S
C318 C319 1.369 1_545 S
C318 C322 1.531 . S
C319 C318 1.369 1_565 S
C319 C320 1.410 . S
C319 C327 1.503 1_566 S
C320 C319 1.410 . S
C320 C321 1.392 . S
C320 C323 1.511 1_556 S
C321 C317 1.376 . S
C321 C320 1.392 . S
C321 H333 0.929 . S
C322 C318 1.531 . S
C322 H334 0.960 . S
C322 H335 0.962 . S
C322 H336 0.960 . S
C323 C320 1.511 1_554 S
C323 H337 0.961 . S
C323 H338 0.961 . S
C323 H339 0.961 . S
C324 C325 1.370 . S
C324 C326 1.363 . S
C324 H340 0.931 . S
C325 C324 1.370 . S
C325 C329 1.408 . S
C326 C324 1.363 . S
C326 C327 1.370 . S
C326 C330 1.524 1_545 S
C327 C319 1.503 1_544 S
C327 C326 1.370 . S
C327 C328 1.403 . S
C328 C327 1.403 . S
C328 C329 1.404 . S
C328 C331 1.543 . S
C329 C325 1.408 . S
C329 C328 1.404 . S
C329 H341 0.930 . S
C330 C326 1.524 1_565 S
C330 H342 0.956 . S
C330 H343 0.961 . S
C330 H344 0.961 . S
C331 C328 1.543 . S
C331 H345 0.955 1_554 S
C331 H346 0.965 . S
C331 H347 0.956 1_554 S
H332 C316 0.927 1_545 S
H333 C321 0.929 . S
H334 C322 0.960 . S
H335 C322 0.962 . S
H336 C322 0.960 . S
H337 C323 0.961 . S
H338 C323 0.961 . S
H339 C323 0.961 . S
H340 C324 0.931 . S
H341 C329 0.930 . S
H342 C330 0.956 . S
H343 C330 0.961 . S
H344 C330 0.961 . S
H345 C331 0.955 1_556 S
H346 C331 0.965 . S
H347 C331 0.956 1_556 S
C348 C349 1.391 . S
C348 C350 1.394 . S
C348 H364 0.931 . S
C349 C348 1.391 . S
C349 C353 1.376 . S
C350 C348 1.394 . S
C350 C351 1.369 . S
C350 C354 1.531 . S
C351 C350 1.369 . S
C351 C352 1.410 . S
C351 C359 1.503 1_545 S
C352 C351 1.410 . S
C352 C353 1.392 . S
C352 C355 1.511 1_445 S
C353 C349 1.376 . S
C353 C352 1.392 . S
C353 H365 0.929 1_455 S
C354 C350 1.531 . S
C354 H366 0.960 . S
C354 H367 0.962 . S
C354 H368 0.960 . S
C355 C352 1.511 1_665 S
C355 H369 0.961 . S
C355 H370 0.961 . S
C355 H371 0.961 . S
C356 C357 1.370 . S
C356 C358 1.363 . S
C356 H372 0.931 . S
C357 C356 1.370 . S
C357 C361 1.408 . S
C358 C356 1.363 . S
C358 C359 1.370 . S
C358 C362 1.524 . S
C359 C351 1.503 1_565 S
C359 C358 1.370 . S
C359 C360 1.403 1_565 S
C360 C359 1.403 1_545 S
C360 C361 1.404 1_545 S
C360 C363 1.539 1_455 S
C361 C357 1.408 . S
C361 C360 1.404 1_565 S
C361 H373 0.930 1_565 S
C362 C358 1.524 . S
C362 H374 0.956 . S
C362 H375 0.961 . S
C362 H376 0.961 . S
C363 C360 1.539 1_655 S
C363 H377 0.958 1_655 S
C363 H378 0.961 . S
C363 H379 0.960 . S
H364 C348 0.931 . S
H365 C353 0.929 1_655 S
H366 C354 0.960 . S
H367 C354 0.962 . S
H368 C354 0.960 . S
H369 C355 0.961 . S
H370 C355 0.961 . S
H371 C355 0.961 . S
H372 C356 0.931 . S
H373 C361 0.930 1_545 S
H374 C362 0.956 . S
H375 C362 0.961 . S
H376 C362 0.961 . S
H377 C363 0.958 1_455 S
H378 C363 0.961 . S
H379 C363 0.960 . S
C380 C381 1.391 1_655 S
C380 C382 1.394 . S
C380 H396 0.931 . S
C381 C380 1.391 1_455 S
C381 C385 1.376 . S
C382 C380 1.394 . S
C382 C383 1.369 1_655 S
C382 C386 1.531 . S
C383 C382 1.369 1_455 S
C383 C384 1.410 . S
C383 C391 1.503 . S
C384 C383 1.410 . S
C384 C385 1.392 . S
C384 C387 1.511 . S
C385 C381 1.376 . S
C385 C384 1.392 . S
C385 H397 0.929 . S
C386 C382 1.531 . S
C386 H398 0.960 . S
C386 H399 0.962 . S
C386 H400 0.960 . S
C387 C384 1.511 . S
C387 H401 0.961 . S
C387 H402 0.961 . S
C387 H403 0.961 . S
C388 C389 1.370 1_655 S
C388 C390 1.363 . S
C388 H404 0.931 . S
C389 C388 1.370 1_455 S
C389 C393 1.408 . S
C390 C388 1.363 . S
C390 C391 1.370 1_655 S
C390 C394 1.524 . S
C391 C383 1.503 . S
C391 C390 1.370 1_455 S
C391 C392 1.403 . S
C392 C391 1.403 . S
C392 C393 1.404 . S
C392 C395 1.539 . S
C393 C389 1.408 . S
C393 C392 1.404 . S
C393 H405 0.930 . S
C394 C390 1.524 . S
C394 H406 0.956 . S
C394 H407 0.961 . S
C394 H408 0.961 . S
C395 C392 1.539 . S
C395 H409 0.958 . S
C395 H410 0.961 . S
C395 H411 0.960 . S
H396 C380 0.931 . S
H397 C385 0.929 . S
H398 C386 0.960 . S
H399 C386 0.962 . S
H400 C386 0.960 . S
H401 C387 0.961 . S
H402 C387 0.961 . S
H403 C387 0.961 . S
H404 C388 0.931 . S
H405 C393 0.930 . S
H406 C394 0.956 . S
H407 C394 0.961 . S
H408 C394 0.961 . S
H409 C395 0.958 . S
H410 C395 0.961 . S
H411 C395 0.960 . S
C412 C413 1.391 . S
C412 C414 1.394 . S
C412 H428 0.931 . S
C413 C412 1.391 . S
C413 C417 1.376 . S
C414 C412 1.394 . S
C414 C415 1.369 . S
C414 C418 1.531 . S
C415 C414 1.369 . S
C415 C416 1.410 . S
C415 C423 1.503 . S
C416 C415 1.410 . S
C416 C417 1.392 . S
C416 C419 1.511 . S
C417 C413 1.376 . S
C417 C416 1.392 . S
C417 H429 0.929 . S
C418 C414 1.531 . S
C418 H430 0.960 . S
C418 H431 0.962 . S
C418 H432 0.960 . S
C419 C416 1.511 . S
C419 H433 0.961 . S
C419 H434 0.961 . S
C419 H435 0.961 . S
C420 C421 1.370 . S
C420 C422 1.363 . S
C420 H436 0.931 . S
C421 C420 1.370 . S
C421 C425 1.408 . S
C422 C420 1.363 . S
C422 C423 1.370 . S
C422 C426 1.524 . S
C423 C415 1.503 . S
C423 C422 1.370 . S
C423 C424 1.403 . S
C424 C423 1.403 . S
C424 C425 1.404 . S
C424 C427 1.539 . S
C425 C421 1.408 . S
C425 C424 1.404 . S
C425 H437 0.930 . S
C426 C422 1.524 . S
C426 H438 0.956 . S
C426 H439 0.961 . S
C426 H440 0.961 . S
C427 C424 1.539 . S
C427 H441 0.958 . S
C427 H442 0.961 . S
C427 H443 0.960 . S
H428 C412 0.931 . S
H429 C417 0.929 . S
H430 C418 0.960 . S
H431 C418 0.962 . S
H432 C418 0.960 . S
H433 C419 0.961 . S
H434 C419 0.961 . S
H435 C419 0.961 . S
H436 C420 0.931 . S
H437 C425 0.930 . S
H438 C426 0.956 . S
H439 C426 0.961 . S
H440 C426 0.961 . S
H441 C427 0.958 . S
H442 C427 0.961 . S
H443 C427 0.960 . S
C444 C445 1.391 . S
C444 C446 1.394 . S
C444 H460 0.931 . S
C445 C444 1.391 . S
C445 C449 1.376 . S
C446 C444 1.394 . S
C446 C447 1.369 . S
C446 C450 1.531 . S
C447 C446 1.369 . S
C447 C448 1.410 . S
C447 C455 1.503 . S
C448 C447 1.410 . S
C448 C449 1.392 . S
C448 C451 1.511 . S
C449 C445 1.376 . S
C449 C448 1.392 . S
C449 H461 0.929 . S
C450 C446 1.531 . S
C450 H462 0.960 . S
C450 H463 0.962 . S
C450 H464 0.960 . S
C451 C448 1.511 . S
C451 H465 0.961 . S
C451 H466 0.961 . S
C451 H467 0.961 . S
C452 C453 1.370 . S
C452 C454 1.363 . S
C452 H468 0.931 . S
C453 C452 1.370 . S
C453 C457 1.408 . S
C454 C452 1.363 . S
C454 C455 1.370 . S
C454 C458 1.524 . S
C455 C447 1.503 . S
C455 C454 1.370 . S
C455 C456 1.403 . S
C456 C455 1.403 . S
C456 C457 1.404 . S
C456 C459 1.539 . S
C457 C453 1.408 . S
C457 C456 1.404 . S
C457 H469 0.930 . S
C458 C454 1.524 . S
C458 H470 0.956 . S
C458 H471 0.961 . S
C458 H472 0.961 . S
C459 C456 1.539 . S
C459 H473 0.958 . S
C459 H474 0.961 . S
C459 H475 0.960 . S
H460 C444 0.931 . S
H461 C449 0.929 . S
H462 C450 0.960 . S
H463 C450 0.962 . S
H464 C450 0.960 . S
H465 C451 0.961 . S
H466 C451 0.961 . S
H467 C451 0.961 . S
H468 C452 0.931 . S
H469 C457 0.930 . S
H470 C458 0.956 . S
H471 C458 0.961 . S
H472 C458 0.961 . S
H473 C459 0.958 . S
H474 C459 0.961 . S
H475 C459 0.960 . S
C476 C477 1.391 . S
C476 C478 1.394 . S
C476 H492 0.931 . S
C477 C476 1.391 . S
C477 C481 1.376 . S
C478 C476 1.394 . S
C478 C479 1.369 . S
C478 C482 1.531 . S
C479 C478 1.369 . S
C479 C480 1.410 . S
C479 C487 1.503 1_455 S
C480 C479 1.410 . S
C480 C481 1.392 . S
C480 C483 1.511 . S
C481 C477 1.376 . S
C481 C480 1.392 . S
C481 H493 0.929 . S
C482 C478 1.531 . S
C482 H494 0.960 1_455 S
C482 H495 0.962 . S
C482 H496 0.960 . S
C483 C480 1.511 . S
C483 H497 0.961 . S
C483 H498 0.961 1_455 S
C483 H499 0.961 . S
C484 C485 1.370 . S
C484 C486 1.363 . S
C484 H500 0.931 . S
C485 C484 1.370 . S
C485 C489 1.408 . S
C486 C484 1.363 . S
C486 C487 1.370 . S
C486 C490 1.524 . S
C487 C479 1.503 1_655 S
C487 C486 1.370 . S
C487 C488 1.403 . S
C488 C487 1.403 . S
C488 C489 1.404 . S
C488 C491 1.539 . S
C489 C485 1.408 . S
C489 C488 1.404 . S
C489 H501 0.930 . S
C490 C486 1.524 . S
C490 H502 0.956 . S
C490 H503 0.952 1_655 S
C490 H504 0.961 . S
C491 C488 1.539 . S
C491 H505 0.958 . S
C491 H506 0.961 . S
C491 H507 0.960 . S
H492 C476 0.931 . S
H493 C481 0.929 . S
H494 C482 0.960 1_655 S
H495 C482 0.962 . S
H496 C482 0.960 . S
H497 C483 0.961 . S
H498 C483 0.961 1_655 S
H499 C483 0.961 . S
H500 C484 0.931 . S
H501 C489 0.930 . S
H502 C490 0.956 . S
H503 C490 0.952 1_455 S
H504 C490 0.961 . S
H505 C491 0.958 . S
H506 C491 0.961 . S
H507 C491 0.960 . S
C508 C509 1.391 1_455 S
C508 C510 1.394 . S
C508 H524 0.931 . S
C509 C508 1.391 1_655 S
C509 C513 1.376 . S
C510 C508 1.394 . S
C510 C511 1.369 1_455 S
C510 C514 1.531 . S
C511 C510 1.369 1_655 S
C511 C512 1.410 . S
C511 C519 1.503 . S
C512 C511 1.410 . S
C512 C513 1.392 . S
C512 C515 1.511 . S
C513 C509 1.376 . S
C513 C512 1.392 . S
C513 H525 0.929 . S
C514 C510 1.531 . S
C514 H526 0.960 . S
C514 H527 0.962 . S
C514 H528 0.960 . S
C515 C512 1.511 . S
C515 H529 0.961 . S
C515 H530 0.961 . S
C515 H531 0.961 . S
C516 C517 1.370 1_455 S
C516 C518 1.363 . S
C516 H532 0.931 . S
C517 C516 1.370 1_655 S
C517 C521 1.408 . S
C518 C516 1.363 . S
C518 C519 1.370 1_455 S
C518 C522 1.524 . S
C519 C511 1.503 . S
C519 C518 1.370 1_655 S
C519 C520 1.403 . S
C520 C519 1.403 . S
C520 C521 1.404 . S
C520 C523 1.539 . S
C521 C517 1.408 . S
C521 C520 1.404 . S
C521 H533 0.930 . S
C522 C518 1.524 . S
C522 H534 0.956 . S
C522 H535 0.961 . S
C522 H536 0.961 . S
C523 C520 1.539 . S
C523 H537 0.958 . S
C523 H538 0.961 . S
C523 H539 0.960 . S
H524 C508 0.931 . S
H525 C513 0.929 . S
H526 C514 0.960 . S
H527 C514 0.962 . S
H528 C514 0.960 . S
H529 C515 0.961 . S
H530 C515 0.961 . S
H531 C515 0.961 . S
H532 C516 0.931 . S
H533 C521 0.930 . S
H534 C522 0.956 . S
H535 C522 0.961 . S
H536 C522 0.961 . S
H537 C523 0.958 . S
H538 C523 0.961 . S
H539 C523 0.960 . S
C540 C541 1.391 . S
C540 C542 1.394 . S
C540 H556 0.931 . S
C541 C540 1.391 . S
C541 C545 1.376 . S
C542 C540 1.394 . S
C542 C543 1.369 . S
C542 C546 1.531 . S
C543 C542 1.369 . S
C543 C544 1.410 . S
C543 C551 1.503 1_655 S
C544 C543 1.410 . S
C544 C545 1.392 . S
C544 C547 1.511 . S
C545 C541 1.376 . S
C545 C544 1.392 . S
C545 H557 0.929 . S
C546 C542 1.531 . S
C546 H558 0.960 1_655 S
C546 H559 0.962 . S
C546 H560 0.960 . S
C547 C544 1.511 . S
C547 H561 0.961 . S
C547 H562 0.961 1_655 S
C547 H563 0.961 . S
C548 C549 1.370 . S
C548 C550 1.363 . S
C548 H564 0.931 . S
C549 C548 1.370 . S
C549 C553 1.408 . S
C550 C548 1.363 . S
C550 C551 1.370 . S
C550 C554 1.524 . S
C551 C543 1.503 1_455 S
C551 C550 1.370 . S
C551 C552 1.403 . S
C552 C551 1.403 . S
C552 C553 1.404 . S
C552 C555 1.539 . S
C553 C549 1.408 . S
C553 C552 1.404 . S
C553 H565 0.930 . S
C554 C550 1.524 . S
C554 H566 0.956 1_455 S
C554 H567 0.961 1_455 S
C554 H568 0.961 . S
C555 C552 1.539 . S
C555 H569 0.958 . S
C555 H570 0.961 . S
C555 H571 0.960 1_455 S
H556 C540 0.931 . S
H557 C545 0.929 . S
H558 C546 0.960 1_455 S
H559 C546 0.962 . S
H560 C546 0.960 . S
H561 C547 0.961 . S
H562 C547 0.961 1_455 S
H563 C547 0.961 . S
H564 C548 0.931 . S
H565 C553 0.930 . S
H566 C554 0.956 1_655 S
H567 C554 0.961 1_655 S
H568 C554 0.961 . S
H569 C555 0.958 . S
H570 C555 0.961 . S
H571 C555 0.960 1_655 S
C572 C573 1.391 . S
C572 C574 1.394 . S
C572 H588 0.931 . S
C573 C572 1.391 . S
C573 C577 1.376 . S
C574 C572 1.394 . S
C574 C575 1.369 . S
C574 C578 1.531 . S
C575 C574 1.369 . S
C575 C576 1.410 . S
C575 C583 1.503 . S
C576 C575 1.410 . S
C576 C577 1.392 . S
C576 C579 1.511 . S
C577 C573 1.376 . S
C577 C576 1.392 . S
C577 H589 0.929 . S
C578 C574 1.531 . S
C578 H590 0.960 . S
C578 H591 0.962 . S
C578 H592 0.960 . S
C579 C576 1.511 . S
C579 H593 0.961 . S
C579 H594 0.961 . S
C579 H595 0.961 . S
C580 C581 1.370 . S
C580 C582 1.363 . S
C580 H596 0.931 . S
C581 C580 1.370 . S
C581 C585 1.408 . S
C582 C580 1.363 . S
C582 C583 1.370 . S
C582 C586 1.524 . S
C583 C575 1.503 . S
C583 C582 1.370 . S
C583 C584 1.403 . S
C584 C583 1.403 . S
C584 C585 1.404 . S
C584 C587 1.539 . S
C585 C581 1.408 . S
C585 C584 1.404 . S
C585 H597 0.930 . S
C586 C582 1.524 . S
C586 H598 0.956 . S
C586 H599 0.961 . S
C586 H600 0.961 . S
C587 C584 1.539 . S
C587 H601 0.958 . S
C587 H602 0.961 . S
C587 H603 0.960 . S
H588 C572 0.931 . S
H589 C577 0.929 . S
H590 C578 0.960 . S
H591 C578 0.962 . S
H592 C578 0.960 . S
H593 C579 0.961 . S
H594 C579 0.961 . S
H595 C579 0.961 . S
H596 C580 0.931 . S
H597 C585 0.930 . S
H598 C586 0.956 . S
H599 C586 0.961 . S
H600 C586 0.961 . S
H601 C587 0.958 . S
H602 C587 0.961 . S
H603 C587 0.960 . S
C604 C605 1.391 . S
C604 C606 1.394 . S
C604 H620 0.931 . S
C605 C604 1.391 . S
C605 C609 1.376 . S
C606 C604 1.394 . S
C606 C607 1.369 . S
C606 C610 1.531 . S
C607 C606 1.369 . S
C607 C608 1.410 . S
C607 C615 1.503 . S
C608 C607 1.410 . S
C608 C609 1.392 . S
C608 C611 1.511 . S
C609 C605 1.376 . S
C609 C608 1.392 . S
C609 H621 0.929 . S
C610 C606 1.531 . S
C610 H622 0.960 . S
C610 H623 0.962 . S
C610 H624 0.960 . S
C611 C608 1.511 . S
C611 H625 0.961 . S
C611 H626 0.961 . S
C611 H627 0.961 . S
C612 C613 1.370 . S
C612 C614 1.363 . S
C612 H628 0.931 . S
C613 C612 1.370 . S
C613 C617 1.408 . S
C614 C612 1.363 . S
C614 C615 1.370 . S
C614 C618 1.524 . S
C615 C607 1.503 . S
C615 C614 1.370 . S
C615 C616 1.403 . S
C616 C615 1.403 . S
C616 C617 1.404 . S
C616 C619 1.539 . S
C617 C613 1.408 . S
C617 C616 1.404 . S
C617 H629 0.930 . S
C618 C614 1.524 . S
C618 H630 0.956 . S
C618 H631 0.961 . S
C618 H632 0.961 . S
C619 C616 1.539 . S
C619 H633 0.958 . S
C619 H634 0.961 . S
C619 H635 0.960 . S
H620 C604 0.931 . S
H621 C609 0.929 . S
H622 C610 0.960 . S
H623 C610 0.962 . S
H624 C610 0.960 . S
H625 C611 0.961 . S
H626 C611 0.961 . S
H627 C611 0.961 . S
H628 C612 0.931 . S
H629 C617 0.930 . S
H630 C618 0.956 . S
H631 C618 0.961 . S
H632 C618 0.961 . S
H633 C619 0.958 . S
H634 C619 0.961 . S
H635 C619 0.960 . S
C125 C20 1.270 . S
C133 C51 1.245 . S
C157 C82 1.348 . S
C165 C33 1.377 . S
C189 C64 1.502 . S
C197 C122 1.471 . S
C221 C2 1.388 . S
C229 C94 1.382 . S
C253 C95 1.395 . S
C261 C1 1.379 . S
C285 C32 1.337 . S
C293 C91 1.345 . S
C317 C63 1.297 . S
C325 C113 1.266 . S
C349 C29 1.429 . S
C357 C60 1.469 . S
C381 C30 1.490 1_465 S
C389 C19 1.484 . S
C413 C31 1.474 . S
C421 C41 1.511 . S
C445 C72 1.488 . S
C453 C62 1.485 1_545 S
C477 C103 1.478 . S
C485 C93 1.498 . S
C509 C61 1.514 1_545 S
C517 C50 1.481 1_655 S
C541 C81 1.507 . S
C549 C92 1.495 . S
C573 C123 1.522 . S
C581 C112 1.473 1_565 S
C605 C10 1.523 . S
C613 C0 1.474 . S
